
#######################################################################
#
#                 Cambridge Crystallographic Data Centre
#                                CCDC 
#
#######################################################################
#
# If this CIF has been generated from an entry in the Cambridge 
# Structural Database, then it will include bibliographic, chemical, 
# crystal, experimental, refinement or atomic coordinate data resulting 
# from the CCDC's data processing and validation procedures.
#
#######################################################################

data_QONBOL
_chemical_formula_moiety         'C94 H96 B1 N3 O1'
_chemical_name_systematic        
Methoxy-(2,3,7,8,12,13-hexaphenyl-5,10,15-tris(3,5-di-t-butylphenyl)subporphyrinato)-boron(iii)
_symmetry_cell_setting           triclinic
_symmetry_space_group_name_H-M   'P -1'
_symmetry_Int_Tables_number      2
_space_group_name_Hall           '-P 1'
loop_
_symmetry_equiv_pos_site_id
_symmetry_equiv_pos_as_xyz
1 x,y,z
2 -x,-y,-z
_cell_length_a                   16.397(6)
_cell_length_b                   16.687(5)
_cell_length_c                   17.383(5)
_cell_angle_alpha                100.410(8)
_cell_angle_beta                 90.246(11)
_cell_angle_gamma                110.725(11)
_cell_volume                     4363.22
_exptl_crystal_colour            yellow
_exptl_crystal_description       prism
_cell_formula_units_Z            2
_exptl_crystal_recrystallization_method dichloromethane/methanol
loop_
_atom_site_label
_atom_site_type_symbol
_atom_site_fract_x
_atom_site_fract_y
_atom_site_fract_z
C1 C 0.0928(3) 0.3238(2) 0.2972(2)
C2 C 0.1007(3) 0.3153(2) 0.3782(2)
C3 C 0.0186(3) 0.2625(2) 0.3966(2)
C4 C -0.0413(3) 0.2417(2) 0.3285(2)
C5 C -0.1277(3) 0.1828(2) 0.3068(2)
C6 C -0.1586(3) 0.1619(2) 0.2267(2)
C7 C -0.2297(3) 0.0910(3) 0.1791(2)
C8 C -0.2131(3) 0.0917(3) 0.1008(2)
C9 C -0.1324(3) 0.1644(2) 0.0985(2)
C10 C -0.0739(3) 0.1907(2) 0.0406(2)
C11 C 0.0109(3) 0.2520(3) 0.0633(2)
C12 C 0.0927(3) 0.2781(2) 0.0263(2)
C13 C 0.1597(3) 0.3213(3) 0.0854(2)
C14 C 0.1203(3) 0.3264(2) 0.1595(2)
C15 C 0.1528(3) 0.3491(2) 0.2394(2)
C16 C -0.0945(4) 0.3841(3) 0.1454(3)
H1 H -0.0547 0.3877 0.1032
H2 H -0.1038 0.4396 0.1599
H3 H -0.1506 0.3369 0.1274
C17 C 0.1785(3) 0.3598(3) 0.4350(3)
C18 C 0.2236(4) 0.4480(3) 0.4411(3)
H4 H 0.2080 0.4783 0.4057
C19 C 0.2912(4) 0.4929(4) 0.4980(4)
H5 H 0.3224 0.5536 0.5012
C20 C 0.3132(5) 0.4491(4) 0.5505(5)
H6 H 0.3582 0.4802 0.5910
C21 C 0.2704(5) 0.3612(4) 0.5440(4)
H7 H 0.2869 0.3311 0.5791
C22 C 0.2032(4) 0.3160(3) 0.4866(3)
H8 H 0.1738 0.2549 0.4823
C23 C -0.0002(3) 0.2326(3) 0.4719(2)
C24 C -0.0196(4) 0.2839(4) 0.5342(3)
H9 H -0.0236 0.3381 0.5290
C25 C -0.0335(5) 0.2557(5) 0.6058(3)
H10 H -0.0491 0.2905 0.6483
C26 C -0.0254(5) 0.1810(4) 0.6160(3)
H11 H -0.0330 0.1644 0.6658
C27 C -0.0061(5) 0.1291(4) 0.5542(3)
H12 H -0.0008 0.0757 0.5604
C28 C 0.0055(4) 0.1544(3) 0.4831(3)
H13 H 0.0179 0.1174 0.4402
C29 C -0.1838(3) 0.1419(3) 0.3665(2)
C30 C -0.2282(3) 0.1879(3) 0.4116(2)
H14 H -0.2205 0.2454 0.4048
C31 C -0.2840(3) 0.1517(3) 0.4665(2)
C32 C -0.2921(3) 0.0682(3) 0.4757(2)
H15 H -0.3289 0.0431 0.5138
C33 C -0.2485(3) 0.0197(3) 0.4315(3)
C34 C -0.1940(3) 0.0573(3) 0.3768(2)
H16 H -0.1635 0.0258 0.3460
C35 C -0.3352(3) 0.2031(3) 0.5118(2)
C36 C -0.3911(4) 0.2225(4) 0.4548(3)
H17 H -0.3537 0.2598 0.4216
H18 H -0.4266 0.2526 0.4836
H19 H -0.4295 0.1677 0.4219
C37 C -0.2704(4) 0.2889(3) 0.5575(3)
H20 H -0.2343 0.2768 0.5957
H21 H -0.3023 0.3238 0.5851
H22 H -0.2328 0.3212 0.5212
C38 C -0.3935(4) 0.1535(3) 0.5677(3)
H23 H -0.4386 0.1008 0.5379
H24 H -0.4213 0.1906 0.5985
H25 H -0.3583 0.1368 0.6031
C39 C -0.2590(4) -0.0713(3) 0.4463(3)
C40 C -0.3561(5) -0.1257(3) 0.4501(4)
H26 H -0.3789 -0.0988 0.4955
H27 H -0.3622 -0.1851 0.4550
H28 H -0.3890 -0.1280 0.4020
C41 C -0.2109(4) -0.0602(3) 0.5261(3)
H29 H -0.2349 -0.0285 0.5673
H30 H -0.1485 -0.0272 0.5243
H31 H -0.2188 -0.1179 0.5373
C42 C -0.2247(6) -0.1215(3) 0.3810(4)
H32 H -0.2417 -0.1823 0.3873
H33 H -0.1609 -0.0949 0.3832
H34 H -0.2496 -0.1198 0.3302
C43 C -0.3043(3) 0.0249(3) 0.2070(3)
C44 C -0.3614(3) 0.0486(4) 0.2559(3)
H35 H -0.3526 0.1086 0.2734
C45 C -0.4322(4) -0.0156(5) 0.2797(4)
H36 H -0.4710 0.0011 0.3138
C46 C -0.4460(4) -0.0998(5) 0.2550(4)
H37 H -0.4944 -0.1428 0.2716
C47 C -0.3913(4) -0.1246(4) 0.2061(4)
H38 H -0.4021 -0.1850 0.1882
C48 C -0.3207(4) -0.0634(3) 0.1825(3)
H39 H -0.2824 -0.0816 0.1489
C49 C -0.2682(4) 0.0353(5) 0.0311(4)
C50 C -0.3472(4) 0.0441(4) 0.0143(3)
H40 H -0.3633 0.0878 0.0463
C51 C -0.4027(3) -0.0110(5) -0.0495(3)
H41 H -0.4567 -0.0050 -0.0610
C52 C -0.3791(4) -0.0749(4) -0.0964(3)
H42 H -0.4170 -0.1126 -0.1400
C53 C -0.3001(5) -0.0837(4) -0.0796(5)
H43 H -0.2840 -0.1274 -0.1117
C54 C -0.2446(4) -0.0286(5) -0.0158(5)
H44 H -0.1906 -0.0346 -0.0043
C61 C -0.0992(3) 0.1445(3) -0.0434(2)
C62 C -0.1643(3) 0.1565(3) -0.0840(2)
H50 H -0.1917 0.1950 -0.0596
C63 C -0.1904(4) 0.1121(3) -0.1617(2)
C64 C -0.1501(3) 0.0556(3) -0.1946(2)
H51 H -0.1682 0.0244 -0.2469
C65 C -0.0836(3) 0.0423(3) -0.1542(2)
C66 C -0.0585(3) 0.0887(2) -0.0783(2)
H52 H -0.0125 0.0822 -0.0496
C67 C -0.2565(5) 0.1291(4) -0.2110(3)
C68 C -0.2875(6) 0.1930(5) -0.1761(6)
H53 H -0.3118 0.2136 -0.2168
H54 H -0.2393 0.2420 -0.1452
H55 H -0.3331 0.1687 -0.1417
C69 C -0.3153(4) 0.0474(4) -0.2655(3)
H56 H -0.3421 0.0017 -0.2354
H57 H -0.2807 0.0274 -0.3051
H58 H -0.3611 0.0602 -0.2916
C70 C -0.2041(7) 0.1914(6) -0.2669(5)
H59 H -0.2435 0.2132 -0.2919
H60 H -0.1802 0.1587 -0.3074
H61 H -0.1562 0.2407 -0.2362
C71 C -0.0428(3) -0.0230(3) -0.1934(2)
C72 C 0.0350(4) -0.0208(4) -0.1446(3)
H62 H 0.0162 -0.0374 -0.0944
H63 H 0.0793 0.0383 -0.1348
H64 H 0.0601 -0.0619 -0.1729
C73 C -0.0116(5) -0.0018(5) -0.2735(3)
H65 H 0.0145 -0.0436 -0.2984
H66 H 0.0321 0.0576 -0.2657
H67 H -0.0615 -0.0058 -0.3072
C74 C -0.1119(4) -0.1142(4) -0.2054(4)
H68 H -0.1319 -0.1275 -0.1545
H69 H -0.0868 -0.1568 -0.2305
H70 H -0.1615 -0.1173 -0.2389
C75 C 0.1042(3) 0.2643(3) -0.0589(2)
C76 C 0.1642(4) 0.2297(3) -0.0908(3)
H71 H 0.1966 0.2100 -0.0580
C77 C 0.1779(4) 0.2231(4) -0.1704(3)
H72 H 0.2191 0.1988 -0.1921
C78 C 0.1308(5) 0.2522(4) -0.2171(3)
H73 H 0.1403 0.2491 -0.2712
C79 C 0.0705(5) 0.2856(4) -0.1859(3)
H74 H 0.0380 0.3052 -0.2186
C80 C 0.0564(4) 0.2913(3) -0.1073(2)
H75 H 0.0136 0.3137 -0.0863
C81 C 0.2534(3) 0.3527(3) 0.0683(3)
C82 C 0.3102(4) 0.3180(3) 0.0940(3)
H76 H 0.2926 0.2797 0.1301
C83 C 0.3935(4) 0.3388(4) 0.0674(4)
H77 H 0.4326 0.3141 0.0847
C84 C 0.4187(4) 0.3943(4) 0.0165(4)
H78 H 0.4752 0.4072 -0.0025
C85 C 0.3633(4) 0.4326(3) -0.0082(3)
H79 H 0.3821 0.4724 -0.0429
C86 C 0.2814(3) 0.4121(3) 0.0180(3)
H80 H 0.2432 0.4385 0.0020
C87 C 0.2482(3) 0.3862(3) 0.2600(2)
C88 C 0.2864(3) 0.3347(3) 0.2905(3)
H81 H 0.2506 0.2790 0.2997
C89 C 0.3758(3) 0.3639(3) 0.3074(3)
C90 C 0.4257(3) 0.4470(3) 0.2949(3)
H82 H 0.4872 0.4681 0.3063
C91 C 0.3890(3) 0.4999(3) 0.2664(3)
C92 C 0.2999(3) 0.4680(2) 0.2480(2)
H83 H 0.2738 0.5027 0.2269
C93 C 0.4207(4) 0.3108(4) 0.3417(5)
C94 C 0.3570(4) 0.2175(4) 0.3427(5)
H84 H 0.3342 0.1873 0.2890
H85 H 0.3085 0.2204 0.3744
H86 H 0.3879 0.1856 0.3654
C95 C 0.4612(5) 0.3575(5) 0.4262(5)
H87 H 0.4888 0.3222 0.4478
H88 H 0.4151 0.3646 0.4594
H89 H 0.5052 0.4149 0.4247
C96 C 0.4911(5) 0.3018(6) 0.2893(7)
H90 H 0.4653 0.2750 0.2357
H91 H 0.5185 0.2649 0.3084
H92 H 0.5354 0.3596 0.2897
C97 C 0.4490(3) 0.5906(3) 0.2536(3)
C98 C 0.3967(4) 0.6384(3) 0.2229(4)
H93 H 0.4358 0.6973 0.2189
H94 H 0.3519 0.6424 0.2589
H95 H 0.3686 0.6064 0.1710
C99 C 0.5144(4) 0.5799(4) 0.1959(4)
H96 H 0.4838 0.5366 0.1492
H97 H 0.5561 0.5600 0.2201
H98 H 0.5460 0.6360 0.1808
C100 C 0.4949(4) 0.6450(3) 0.3323(3)
H99 H 0.5308 0.7040 0.3256
H100 H 0.5324 0.6176 0.3523
H101 H 0.4512 0.6485 0.3697
N1 N 0.0064(2) 0.28395(19) 0.27411(16)
N2 N -0.1078(2) 0.2058(2) 0.17534(17)
N3 N 0.0328(2) 0.28969(19) 0.14134(17)
B1 B -0.0334(3) 0.2900(3) 0.2000(2)
O1 O -0.0575(2) 0.36684(17) 0.21154(16)
C55? C -0.2776(6) 0.0180(7) 0.0395(7)
C56? C -0.3662(6) 0.0049(6) 0.0404(5)
H45? H -0.3856 0.0424 0.0773
C57? C -0.4262(5) -0.0630(6) -0.0128(6)
H46? H -0.4867 -0.0719 -0.0122
C58? C -0.3978(7) -0.1178(6) -0.0668(5)
H47? H -0.4389 -0.1642 -0.1031
C59? C -0.3093(8) -0.1048(8) -0.0676(7)
H48? H -0.2898 -0.1423 -0.1046
C60? C -0.2492(5) -0.0369(9) -0.0145(9)
H49? H -0.1887 -0.0280 -0.0151
C101? C 0.0546(10) 0.009(3) -0.172(3)
C102? C -0.064(4) -0.054(3) -0.271(2)
C103? C -0.074(3) -0.102(2) -0.141(2)
H102? H 0.0782 -0.0341 -0.1989
H103? H 0.0652 0.0168 -0.1153
H104? H 0.0833 0.0648 -0.1887
H105? H -0.0434 -0.0054 -0.2993
H106? H -0.1280 -0.0818 -0.2804
H107? H -0.0370 -0.0966 -0.2899
H108? H -0.1384 -0.1248 -0.1408
H109? H -0.0490 -0.0781 -0.0865
H110? H -0.0545 -0.1493 -0.1635
loop_
_geom_bond_atom_site_label_1
_geom_bond_atom_site_label_2
_geom_bond_site_symmetry_1
_geom_bond_site_symmetry_2
C1 C2 1_555 1_555
C2 C3 1_555 1_555
C3 C4 1_555 1_555
C4 C5 1_555 1_555
C5 C6 1_555 1_555
C6 C7 1_555 1_555
C7 C8 1_555 1_555
C8 C9 1_555 1_555
C9 C10 1_555 1_555
C10 C11 1_555 1_555
C11 C12 1_555 1_555
C12 C13 1_555 1_555
C13 C14 1_555 1_555
C14 C15 1_555 1_555
C15 C1 1_555 1_555
C16 H1 1_555 1_555
H2 C16 1_555 1_555
H3 C16 1_555 1_555
C17 C2 1_555 1_555
C18 C17 1_555 1_555
H4 C18 1_555 1_555
C19 C18 1_555 1_555
H5 C19 1_555 1_555
C20 C19 1_555 1_555
H6 C20 1_555 1_555
C21 C20 1_555 1_555
H7 C21 1_555 1_555
C22 C17 1_555 1_555
H8 C22 1_555 1_555
C23 C3 1_555 1_555
C24 C23 1_555 1_555
H9 C24 1_555 1_555
C25 C24 1_555 1_555
H10 C25 1_555 1_555
C26 C25 1_555 1_555
H11 C26 1_555 1_555
C27 C26 1_555 1_555
H12 C27 1_555 1_555
C28 C23 1_555 1_555
H13 C28 1_555 1_555
C29 C5 1_555 1_555
C30 C29 1_555 1_555
H14 C30 1_555 1_555
C31 C30 1_555 1_555
C32 C31 1_555 1_555
H15 C32 1_555 1_555
C33 C32 1_555 1_555
C34 C29 1_555 1_555
H16 C34 1_555 1_555
C35 C31 1_555 1_555
C36 C35 1_555 1_555
H17 C36 1_555 1_555
H18 C36 1_555 1_555
H19 C36 1_555 1_555
C37 C35 1_555 1_555
H20 C37 1_555 1_555
H21 C37 1_555 1_555
H22 C37 1_555 1_555
C38 C35 1_555 1_555
H23 C38 1_555 1_555
H24 C38 1_555 1_555
H25 C38 1_555 1_555
C39 C33 1_555 1_555
C40 C39 1_555 1_555
H26 C40 1_555 1_555
H27 C40 1_555 1_555
H28 C40 1_555 1_555
C41 C39 1_555 1_555
H29 C41 1_555 1_555
H30 C41 1_555 1_555
H31 C41 1_555 1_555
C42 C39 1_555 1_555
H32 C42 1_555 1_555
H33 C42 1_555 1_555
H34 C42 1_555 1_555
C43 C7 1_555 1_555
C44 C43 1_555 1_555
H35 C44 1_555 1_555
C45 C44 1_555 1_555
H36 C45 1_555 1_555
C46 C45 1_555 1_555
H37 C46 1_555 1_555
C47 C46 1_555 1_555
H38 C47 1_555 1_555
C48 C43 1_555 1_555
H39 C48 1_555 1_555
C49 C8 1_555 1_555
C50 C49 1_555 1_555
H40 C50 1_555 1_555
C51 C50 1_555 1_555
H41 C51 1_555 1_555
C52 C51 1_555 1_555
H42 C52 1_555 1_555
C53 C52 1_555 1_555
H43 C53 1_555 1_555
C54 C49 1_555 1_555
H44 C54 1_555 1_555
C61 C10 1_555 1_555
C62 C61 1_555 1_555
H50 C62 1_555 1_555
C63 C62 1_555 1_555
C64 C63 1_555 1_555
H51 C64 1_555 1_555
C65 C64 1_555 1_555
C66 C61 1_555 1_555
H52 C66 1_555 1_555
C67 C63 1_555 1_555
C68 C67 1_555 1_555
H53 C68 1_555 1_555
H54 C68 1_555 1_555
H55 C68 1_555 1_555
C69 C67 1_555 1_555
H56 C69 1_555 1_555
H57 C69 1_555 1_555
H58 C69 1_555 1_555
C70 C67 1_555 1_555
H59 C70 1_555 1_555
H60 C70 1_555 1_555
H61 C70 1_555 1_555
C71 C65 1_555 1_555
C72 C71 1_555 1_555
H62 C72 1_555 1_555
H63 C72 1_555 1_555
H64 C72 1_555 1_555
C73 C71 1_555 1_555
H65 C73 1_555 1_555
H66 C73 1_555 1_555
H67 C73 1_555 1_555
C74 C71 1_555 1_555
H68 C74 1_555 1_555
H69 C74 1_555 1_555
H70 C74 1_555 1_555
C75 C12 1_555 1_555
C76 C75 1_555 1_555
H71 C76 1_555 1_555
C77 C76 1_555 1_555
H72 C77 1_555 1_555
C78 C77 1_555 1_555
H73 C78 1_555 1_555
C79 C78 1_555 1_555
H74 C79 1_555 1_555
C80 C75 1_555 1_555
H75 C80 1_555 1_555
C81 C13 1_555 1_555
C82 C81 1_555 1_555
H76 C82 1_555 1_555
C83 C82 1_555 1_555
H77 C83 1_555 1_555
C84 C83 1_555 1_555
H78 C84 1_555 1_555
C85 C84 1_555 1_555
H79 C85 1_555 1_555
C86 C81 1_555 1_555
H80 C86 1_555 1_555
C87 C15 1_555 1_555
C88 C87 1_555 1_555
H81 C88 1_555 1_555
C89 C88 1_555 1_555
C90 C89 1_555 1_555
H82 C90 1_555 1_555
C91 C90 1_555 1_555
C92 C87 1_555 1_555
H83 C92 1_555 1_555
C93 C89 1_555 1_555
C94 C93 1_555 1_555
H84 C94 1_555 1_555
H85 C94 1_555 1_555
H86 C94 1_555 1_555
C95 C93 1_555 1_555
H87 C95 1_555 1_555
H88 C95 1_555 1_555
H89 C95 1_555 1_555
C96 C93 1_555 1_555
H90 C96 1_555 1_555
H91 C96 1_555 1_555
H92 C96 1_555 1_555
C97 C91 1_555 1_555
C98 C97 1_555 1_555
H93 C98 1_555 1_555
H94 C98 1_555 1_555
H95 C98 1_555 1_555
C99 C97 1_555 1_555
H96 C99 1_555 1_555
H97 C99 1_555 1_555
H98 C99 1_555 1_555
C100 C97 1_555 1_555
H99 C100 1_555 1_555
H100 C100 1_555 1_555
H101 C100 1_555 1_555
N1 C1 1_555 1_555
N2 C6 1_555 1_555
N3 C11 1_555 1_555
B1 N1 1_555 1_555
O1 C16 1_555 1_555
C4 N1 1_555 1_555
C9 N2 1_555 1_555
C14 N3 1_555 1_555
C21 C22 1_555 1_555
C27 C28 1_555 1_555
C33 C34 1_555 1_555
C47 C48 1_555 1_555
C53 C54 1_555 1_555
C65 C66 1_555 1_555
C79 C80 1_555 1_555
C85 C86 1_555 1_555
C91 C92 1_555 1_555
N2 B1 1_555 1_555
N3 B1 1_555 1_555
B1 O1 1_555 1_555

#END
