
#######################################################################
#
#                 Cambridge Crystallographic Data Centre
#                                CCDC 
#
#######################################################################
#
# If this CIF has been generated from an entry in the Cambridge 
# Structural Database, then it will include bibliographic, chemical, 
# crystal, experimental, refinement or atomic coordinate data resulting 
# from the CCDC's data processing and validation procedures.
#
#######################################################################

data_QONCAY
_chemical_formula_moiety         'C82 H48 B1 N3 O1'
_chemical_name_systematic        
Methoxy-(2,3,7,8,12,13-hexakis(phenylethynyl)-5,10,15-triphenylsubporphyrinato)-boron(iii)
_symmetry_cell_setting           triclinic
_symmetry_space_group_name_H-M   'P -1'
_symmetry_Int_Tables_number      2
_space_group_name_Hall           '-P 1'
loop_
_symmetry_equiv_pos_site_id
_symmetry_equiv_pos_as_xyz
1 x,y,z
2 -x,-y,-z
_cell_length_a                   12.585(4)
_cell_length_b                   14.470(5)
_cell_length_c                   19.038(6)
_cell_angle_alpha                109.040(12)
_cell_angle_beta                 92.545(12)
_cell_angle_gamma                114.667(10)
_cell_volume                     2911.66
_exptl_crystal_colour            red
_exptl_crystal_description       prism
_cell_formula_units_Z            2
_exptl_crystal_recrystallization_method dichloromethane/methanol
loop_
_atom_site_label
_atom_site_type_symbol
_atom_site_fract_x
_atom_site_fract_y
_atom_site_fract_z
C1 C 0.75254(19) 0.19130(18) 0.38953(13)
C2 C 0.69259(19) 0.20465(19) 0.45283(13)
C3 C 0.56989(19) 0.13486(18) 0.42396(13)
C4 C 0.55333(19) 0.08211(18) 0.34287(13)
C5 C 0.45770(19) -0.00942(19) 0.28610(13)
C6 C 0.48353(19) -0.06208(19) 0.21634(13)
C7 C 0.42303(19) -0.16950(19) 0.15583(13)
C8 C 0.5050(2) -0.18262(19) 0.11091(13)
C9 C 0.61723(19) -0.08385(18) 0.14366(12)
C10 C 0.7370(2) -0.05836(19) 0.13581(13)
C11 C 0.8307(2) 0.03441(19) 0.19326(13)
C12 C 0.9577(2) 0.07146(19) 0.21520(13)
C13 C 0.99637(19) 0.15213(19) 0.28897(13)
C14 C 0.89532(19) 0.16737(18) 0.31257(13)
C15 C 0.87294(19) 0.21929(18) 0.38384(13)
C16 C 0.74290(19) 0.28095(19) 0.52903(13)
C17 C 0.7769(2) 0.3526(2) 0.59127(13)
C18 C 0.8139(2) 0.4438(2) 0.66178(13)
C19 C 0.9341(2) 0.5119(2) 0.69551(15)
H1 H 0.9932 0.4932 0.6749
C20 C 0.9682(3) 0.6070(3) 0.75928(17)
H2 H 1.0506 0.6537 0.7817
C21 C 0.8833(3) 0.6348(3) 0.79054(17)
H3 H 0.9073 0.7012 0.8333
C22 C 0.7641(3) 0.5655(3) 0.75933(18)
H4 H 0.7055 0.5830 0.7815
C23 C 0.7291(3) 0.4708(3) 0.69611(16)
H5 H 0.6463 0.4231 0.6755
C24 C 0.4821(2) 0.11984(19) 0.46881(13)
C25 C 0.4118(2) 0.1107(2) 0.50987(14)
C26 C 0.3291(2) 0.10122(19) 0.55953(13)
C27 C 0.3656(2) 0.1157(2) 0.63395(14)
H6 H 0.4456 0.1322 0.6518
C28 C 0.2858(2) 0.1062(2) 0.68234(14)
H7 H 0.3113 0.1156 0.7330
C29 C 0.1693(2) 0.0832(2) 0.65735(15)
H8 H 0.1149 0.0769 0.6906
C30 C 0.1330(2) 0.0694(3) 0.58361(15)
H9 H 0.0531 0.0537 0.5662
C31 C 0.2116(2) 0.0783(2) 0.53481(14)
H10 H 0.1855 0.0688 0.4842
C32 C 0.33581(19) -0.05297(19) 0.30251(13)
C33 C 0.2672(2) 0.0013(2) 0.30036(14)
H11 H 0.2996 0.0661 0.2895
C34 C 0.1526(2) -0.0379(2) 0.31389(15)
H12 H 0.1065 -0.0007 0.3115
C35 C 0.1055(2) -0.1308(2) 0.33077(14)
H13 H 0.0265 -0.1585 0.3395
C36 C 0.1740(2) -0.1833(2) 0.33500(17)
H14 H 0.1426 -0.2462 0.3481
C37 C 0.2879(2) -0.1453(2) 0.32036(16)
H15 H 0.3335 -0.1830 0.3226
C38 C 0.3041(2) -0.2504(2) 0.14429(14)
C39 C 0.2044(2) -0.3214(2) 0.13376(14)
C40 C 0.0871(2) -0.4077(2) 0.12053(15)
C41 C -0.0013(2) -0.3865(2) 0.15432(17)
H16 H 0.0168 -0.3140 0.1872
C42 C -0.1149(2) -0.4716(3) 0.13941(19)
H17 H -0.1750 -0.4577 0.1624
C43 C -0.1417(2) -0.5769(3) 0.09129(18)
H18 H -0.2200 -0.6350 0.0813
C44 C -0.0543(2) -0.5982(2) 0.05735(18)
H19 H -0.0730 -0.6706 0.0241
C45 C 0.0588(2) -0.5141(2) 0.07216(16)
H20 H 0.1185 -0.5288 0.0491
C46 C 0.48079(19) -0.27506(19) 0.04344(14)
C47 C 0.4607(2) -0.3482(2) -0.01607(14)
C48 C 0.4422(2) -0.4297(2) -0.09011(14)
C49 C 0.4163(3) -0.5362(2) -0.10033(16)
H21 H 0.4098 -0.5576 -0.0579
C50 C 0.3996(3) -0.6123(3) -0.17193(18)
H22 H 0.3833 -0.6851 -0.1782
C51 C 0.4065(3) -0.5829(3) -0.23412(18)
H23 H 0.3935 -0.6357 -0.2833
C52 C 0.4320(3) -0.4773(3) -0.22467(17)
H24 H 0.4372 -0.4568 -0.2674
C53 C 0.4504(3) -0.4006(2) -0.15319(16)
H25 H 0.4688 -0.3274 -0.1471
C54 C 0.76227(19) -0.13921(19) 0.07711(13)
C55 C 0.8099(2) -0.2001(2) 0.09788(14)
H26 H 0.8308 -0.1865 0.1501
C56 C 0.8273(3) -0.2807(2) 0.04305(16)
H27 H 0.8602 -0.3216 0.0579
C57 C 0.7966(3) -0.3011(2) -0.03317(16)
H28 H 0.8064 -0.3574 -0.0708
C58 C 0.7518(2) -0.2399(2) -0.05427(14)
H29 H 0.7332 -0.2524 -0.1065
C59 C 0.7336(2) -0.1597(2) 0.00050(13)
H30 H 0.7012 -0.1187 -0.0147
C60 C 1.0310(2) 0.0356(2) 0.17065(14)
C61 C 1.0951(2) 0.0089(2) 0.13297(15)
C62 C 1.1664(3) -0.0265(3) 0.08407(17)
C63 C 1.1171(4) -0.0915(3) 0.0073(2)
H31 H 1.0357 -0.1149 -0.0128
C64 C 1.1895(5) -0.1223(3) -0.0402(2)
H32 H 1.1561 -0.1667 -0.0926
C65 C 1.3059(5) -0.0893(4) -0.0121(3)
H33 H 1.3528 -0.1120 -0.0447
C66 C 1.3564(4) -0.0233(5) 0.0633(3)
H34 H 1.4385 0.0010 0.0825
C67 C 1.2869(3) 0.0077(4) 0.1114(2)
H35 H 1.3219 0.0527 0.1635
C68 C 1.1145(2) 0.20544(19) 0.33250(14)
C69 C 1.2142(2) 0.2469(2) 0.36793(15)
C70 C 1.3331(2) 0.29820(19) 0.41210(15)
C71 C 1.4310(2) 0.3139(2) 0.37715(16)
H36 H 1.4191 0.2887 0.3233
C72 C 1.5455(2) 0.3663(2) 0.42104(17)
H37 H 1.6121 0.3776 0.3972
C73 C 1.5633(2) 0.4024(2) 0.49954(17)
H38 H 1.6420 0.4391 0.5296
C74 C 1.4663(2) 0.3849(2) 0.53393(16)
H39 H 1.4785 0.4084 0.5877
C75 C 1.3521(2) 0.3336(2) 0.49101(16)
H40 H 1.2860 0.3224 0.5153
C76 C 0.97006(18) 0.28935(18) 0.45304(13)
C77 C 1.0450(2) 0.3979(2) 0.46558(15)
H41 H 1.0369 0.4265 0.4284
C78 C 1.1319(2) 0.4654(2) 0.53207(16)
H42 H 1.1821 0.5402 0.5406
C79 C 1.1453(2) 0.4239(2) 0.58560(14)
H43 H 1.2045 0.4700 0.6311
C80 C 1.0724(2) 0.3155(2) 0.57286(15)
H44 H 1.0824 0.2864 0.6093
C81 C 0.9846(2) 0.2485(2) 0.50724(14)
H45 H 0.9340 0.1740 0.4993
N1 N 0.66370(15) 0.12440(15) 0.32634(10)
N2 N 0.59487(15) -0.01377(16) 0.20224(10)
N3 N 0.80298(16) 0.10174(15) 0.25120(11)
B1 B 0.6836(2) 0.1019(2) 0.24654(15)
O1 O 0.6752(2) 0.17374(16) 0.21266(11)
C82 C 0.7166(4) 0.2835(3) 0.2513(2)
H46 H 0.7234 0.3197 0.2150
H47 H 0.7953 0.3139 0.2837
H48 H 0.6608 0.2960 0.2829
C83? C 0.5983(7) 0.2145(7) 0.2121(6)
H49? H 0.5827 0.2389 0.2632
H50? H 0.5232 0.1576 0.1764
H51? H 0.6321 0.2770 0.1962
loop_
_geom_bond_atom_site_label_1
_geom_bond_atom_site_label_2
_geom_bond_site_symmetry_1
_geom_bond_site_symmetry_2
C1 C2 1_555 1_555
C2 C3 1_555 1_555
C3 C4 1_555 1_555
C4 C5 1_555 1_555
C5 C6 1_555 1_555
C6 C7 1_555 1_555
C7 C8 1_555 1_555
C8 C9 1_555 1_555
C9 C10 1_555 1_555
C10 C11 1_555 1_555
C11 C12 1_555 1_555
C12 C13 1_555 1_555
C13 C14 1_555 1_555
C14 C15 1_555 1_555
C15 C1 1_555 1_555
C16 C2 1_555 1_555
C17 C16 1_555 1_555
C18 C17 1_555 1_555
C19 C18 1_555 1_555
H1 C19 1_555 1_555
C20 C19 1_555 1_555
H2 C20 1_555 1_555
C21 C20 1_555 1_555
H3 C21 1_555 1_555
C22 C21 1_555 1_555
H4 C22 1_555 1_555
C23 C18 1_555 1_555
H5 C23 1_555 1_555
C24 C3 1_555 1_555
C25 C24 1_555 1_555
C26 C25 1_555 1_555
C27 C26 1_555 1_555
H6 C27 1_555 1_555
C28 C27 1_555 1_555
H7 C28 1_555 1_555
C29 C28 1_555 1_555
H8 C29 1_555 1_555
C30 C29 1_555 1_555
H9 C30 1_555 1_555
C31 C26 1_555 1_555
H10 C31 1_555 1_555
C32 C5 1_555 1_555
C33 C32 1_555 1_555
H11 C33 1_555 1_555
C34 C33 1_555 1_555
H12 C34 1_555 1_555
C35 C34 1_555 1_555
H13 C35 1_555 1_555
C36 C35 1_555 1_555
H14 C36 1_555 1_555
C37 C32 1_555 1_555
H15 C37 1_555 1_555
C38 C7 1_555 1_555
C39 C38 1_555 1_555
C40 C39 1_555 1_555
C41 C40 1_555 1_555
H16 C41 1_555 1_555
C42 C41 1_555 1_555
H17 C42 1_555 1_555
C43 C42 1_555 1_555
H18 C43 1_555 1_555
C44 C43 1_555 1_555
H19 C44 1_555 1_555
C45 C40 1_555 1_555
H20 C45 1_555 1_555
C46 C8 1_555 1_555
C47 C46 1_555 1_555
C48 C47 1_555 1_555
C49 C48 1_555 1_555
H21 C49 1_555 1_555
C50 C49 1_555 1_555
H22 C50 1_555 1_555
C51 C50 1_555 1_555
H23 C51 1_555 1_555
C52 C51 1_555 1_555
H24 C52 1_555 1_555
C53 C48 1_555 1_555
H25 C53 1_555 1_555
C54 C10 1_555 1_555
C55 C54 1_555 1_555
H26 C55 1_555 1_555
C56 C55 1_555 1_555
H27 C56 1_555 1_555
C57 C56 1_555 1_555
H28 C57 1_555 1_555
C58 C57 1_555 1_555
H29 C58 1_555 1_555
C59 C54 1_555 1_555
H30 C59 1_555 1_555
C60 C12 1_555 1_555
C61 C60 1_555 1_555
C62 C61 1_555 1_555
C63 C62 1_555 1_555
H31 C63 1_555 1_555
C64 C63 1_555 1_555
H32 C64 1_555 1_555
C65 C64 1_555 1_555
H33 C65 1_555 1_555
C66 C65 1_555 1_555
H34 C66 1_555 1_555
C67 C62 1_555 1_555
H35 C67 1_555 1_555
C68 C13 1_555 1_555
C69 C68 1_555 1_555
C70 C69 1_555 1_555
C71 C70 1_555 1_555
H36 C71 1_555 1_555
C72 C71 1_555 1_555
H37 C72 1_555 1_555
C73 C72 1_555 1_555
H38 C73 1_555 1_555
C74 C73 1_555 1_555
H39 C74 1_555 1_555
C75 C70 1_555 1_555
H40 C75 1_555 1_555
C76 C15 1_555 1_555
C77 C76 1_555 1_555
H41 C77 1_555 1_555
C78 C77 1_555 1_555
H42 C78 1_555 1_555
C79 C78 1_555 1_555
H43 C79 1_555 1_555
C80 C79 1_555 1_555
H44 C80 1_555 1_555
C81 C76 1_555 1_555
H45 C81 1_555 1_555
N1 C1 1_555 1_555
N2 C6 1_555 1_555
N3 C11 1_555 1_555
B1 N1 1_555 1_555
O1 B1 1_555 1_555
C82 O1 1_555 1_555
H46 C82 1_555 1_555
H47 C82 1_555 1_555
H48 C82 1_555 1_555
C4 N1 1_555 1_555
C9 N2 1_555 1_555
C14 N3 1_555 1_555
C22 C23 1_555 1_555
C30 C31 1_555 1_555
C36 C37 1_555 1_555
C44 C45 1_555 1_555
C52 C53 1_555 1_555
C58 C59 1_555 1_555
C66 C67 1_555 1_555
C74 C75 1_555 1_555
C80 C81 1_555 1_555
N2 B1 1_555 1_555
N3 B1 1_555 1_555

#END
