
#######################################################################
#
#                 Cambridge Crystallographic Data Centre
#                                CCDC 
#
#######################################################################
#
# If this CIF has been generated from an entry in the Cambridge 
# Structural Database, then it will include bibliographic, chemical, 
# crystal, experimental, refinement or atomic coordinate data resulting 
# from the CCDC's data processing and validation procedures.
#
#######################################################################

data_QONCEC
_chemical_formula_moiety         'C17 H17 B1 N4'
_chemical_name_systematic        Pyridine(tri-N-pyrrolyl)borane
_symmetry_cell_setting           triclinic
_symmetry_space_group_name_H-M   'P -1'
_symmetry_Int_Tables_number      2
_space_group_name_Hall           '-P 1'
loop_
_symmetry_equiv_pos_site_id
_symmetry_equiv_pos_as_xyz
1 x,y,z
2 -x,-y,-z
_cell_length_a                   8.401(5)
_cell_length_b                   10.150(7)
_cell_length_c                   10.264(7)
_cell_angle_alpha                60.76(3)
_cell_angle_beta                 83.37(2)
_cell_angle_gamma                80.39(3)
_cell_volume                     752.392
_exptl_crystal_colour            colorless
_exptl_crystal_description       prism
_cell_formula_units_Z            2
loop_
_atom_site_label
_atom_site_type_symbol
_atom_site_fract_x
_atom_site_fract_y
_atom_site_fract_z
C1 C 0.30150(17) 0.42080(14) -0.08769(15)
H1 H 0.3280 0.4930 -0.0627
C2 C 0.25122(17) 0.45417(16) -0.22326(15)
H2 H 0.2369 0.5521 -0.3085
C3 C 0.22455(15) 0.31601(15) -0.21305(14)
H3 H 0.1878 0.3033 -0.2899
C4 C 0.26148(13) 0.20370(14) -0.07175(13)
H4 H 0.2558 0.0985 -0.0343
C5 C 0.43182(14) 0.28622(13) 0.33918(13)
H5 H 0.5398 0.2384 0.3612
C6 C 0.34475(15) 0.36808(14) 0.40255(14)
H6 H 0.3810 0.3882 0.4746
C7 C 0.19021(16) 0.41725(14) 0.34064(15)
H7 H 0.1029 0.4761 0.3637
C8 C 0.19028(14) 0.36417(14) 0.24162(15)
H8 H 0.1016 0.3802 0.1837
C9 C 0.34370(14) -0.10011(13) 0.24669(13)
H9 H 0.4121 -0.1098 0.1706
C10 C 0.26338(14) -0.21264(14) 0.35828(14)
H10 H 0.2656 -0.3130 0.3733
C11 C 0.17667(14) -0.15132(14) 0.44678(14)
H11 H 0.1093 -0.2027 0.5326
C12 C 0.20762(13) -0.00439(13) 0.38597(12)
H12 H 0.1651 0.0640 0.4234
C13 C 0.65738(15) 0.23155(14) 0.03025(13)
H13 H 0.6034 0.3142 -0.0531
C14 C 0.82393(16) 0.20379(16) 0.02368(15)
H14 H 0.8838 0.2671 -0.0629
C15 C 0.90269(15) 0.08287(16) 0.14438(15)
H15 H 1.0172 0.0620 0.1417
C16 C 0.81252(14) -0.00719(15) 0.26886(14)
H16 H 0.8643 -0.0912 0.3527
C17 C 0.64664(14) 0.02610(14) 0.27003(13)
H17 H 0.5849 -0.0356 0.3560
N1 N 0.30813(11) 0.26638(11) 0.00781(11)
N2 N 0.33910(11) 0.28348(11) 0.23832(11)
N3 N 0.30998(11) 0.02944(11) 0.26189(10)
N4 N 0.56945(11) 0.14403(11) 0.15231(10)
B1 B 0.37344(15) 0.18284(14) 0.16428(14)
loop_
_geom_bond_atom_site_label_1
_geom_bond_atom_site_label_2
_geom_bond_site_symmetry_1
_geom_bond_site_symmetry_2
C1 H1 1_555 1_555
C2 C1 1_555 1_555
H2 C2 1_555 1_555
C3 C2 1_555 1_555
H3 C3 1_555 1_555
C4 C3 1_555 1_555
H4 C4 1_555 1_555
C5 H5 1_555 1_555
C6 C5 1_555 1_555
H6 C6 1_555 1_555
C7 C6 1_555 1_555
H7 C7 1_555 1_555
C8 C7 1_555 1_555
H8 C8 1_555 1_555
C9 H9 1_555 1_555
C10 C9 1_555 1_555
H10 C10 1_555 1_555
C11 C10 1_555 1_555
H11 C11 1_555 1_555
C12 C11 1_555 1_555
H12 C12 1_555 1_555
C13 H13 1_555 1_555
C14 C13 1_555 1_555
H14 C14 1_555 1_555
C15 C14 1_555 1_555
H15 C15 1_555 1_555
C16 C15 1_555 1_555
H16 C16 1_555 1_555
C17 C16 1_555 1_555
H17 C17 1_555 1_555
N1 C1 1_555 1_555
N2 C5 1_555 1_555
N3 C9 1_555 1_555
N4 C13 1_555 1_555
B1 N1 1_555 1_555
C4 N1 1_555 1_555
C8 N2 1_555 1_555
C12 N3 1_555 1_555
C17 N4 1_555 1_555
N2 B1 1_555 1_555
N3 B1 1_555 1_555
N4 B1 1_555 1_555

#END
