
#######################################################################
#
#                 Cambridge Crystallographic Data Centre
#                                CCDC 
#
#######################################################################
#
# If this CIF has been generated from an entry in the Cambridge 
# Structural Database, then it will include bibliographic, chemical, 
# crystal, experimental, refinement or atomic coordinate data resulting 
# from the CCDC's data processing and validation procedures.
#
#######################################################################

data_QONGUX
_chemical_formula_moiety         'C11 H10 O4,H2 O1'
_chemical_name_systematic        
'7-hydroxy-5-methoxy-2-methyl-4H-chromen-4-one monohydrate'
_symmetry_cell_setting           monoclinic
_symmetry_space_group_name_H-M   'P 21/c'
_symmetry_Int_Tables_number      14
_space_group_name_Hall           '-P 2ybc'
loop_
_symmetry_equiv_pos_site_id
_symmetry_equiv_pos_as_xyz
1 x,y,z
2 -x,1/2+y,1/2-z
3 -x,-y,-z
4 x,1/2-y,1/2+z
_cell_length_a                   11.826(5)
_cell_length_b                   4.760(2)
_cell_length_c                   18.706(9)
_cell_angle_alpha                90
_cell_angle_beta                 99.607(12)
_cell_angle_gamma                90
_cell_volume                     1038.23
_exptl_crystal_colour            colorless
_exptl_crystal_description       block
_cell_formula_units_Z            4
loop_
_atom_site_label
_atom_site_type_symbol
_atom_site_fract_x
_atom_site_fract_y
_atom_site_fract_z
C1 C 0.7594(3) 0.6402(9) 0.8744(2)
O1 O 0.9014(3) 0.4215(7) 0.81961(16)
O2 O 0.6200(2) 0.8515(7) 0.93842(16)
C2 C 0.8885(4) 0.3012(9) 0.9420(2)
H1 H 0.9493 0.1755 0.9446
C3 C 0.8530(3) 0.4478(9) 0.8794(2)
O3 O 0.7505(3) 0.7859(7) 0.75151(17)
O4 O 0.8747(3) 0.1896(8) 1.06101(18)
C4 C 0.7451(4) 0.5240(9) 0.9991(2)
H2 H 0.7088 0.5493 1.0391
C5 C 0.7108(3) 0.6713(9) 0.9360(2)
C6 C 0.5785(4) 1.0069(9) 0.8790(3)
C7 C 0.7155(4) 0.8002(9) 0.8101(2)
C8 C 0.6214(4) 0.9883(9) 0.8181(3)
H3 H 0.5901 1.0997 0.7789
C9 C 0.8345(4) 0.3390(10) 1.0015(2)
C10 C 0.9959(4) 0.2299(10) 0.8235(3)
H4 H 1.0229 0.2279 0.7779
H5 H 0.9712 0.0447 0.8342
H6 H 1.0567 0.2889 0.8610
C11 C 0.4827(4) 1.1890(12) 0.8933(3)
H7 H 0.4545 1.2971 0.8507
H8 H 0.5097 1.3136 0.9328
H9 H 0.4221 1.0741 0.9055
H10 H 0.833(4) 0.204(11) 1.095(2)
O5 O 0.7592(4) 0.2283(8) 1.1693(2)
H11 H 0.754(6) 0.374(9) 1.196(3)
H12 H 0.770(6) 0.092(10) 1.199(3)
loop_
_geom_bond_atom_site_label_1
_geom_bond_atom_site_label_2
_geom_bond_site_symmetry_1
_geom_bond_site_symmetry_2
C1 C3 1_555 1_555
O1 C3 1_555 1_555
O2 C5 1_555 1_555
C2 H1 1_555 1_555
C3 C2 1_555 1_555
O3 C7 1_555 1_555
O4 C9 1_555 1_555
C4 H2 1_555 1_555
C5 C1 1_555 1_555
C6 O2 1_555 1_555
C7 C1 1_555 1_555
C8 C6 1_555 1_555
H3 C8 1_555 1_555
C9 C2 1_555 1_555
C10 O1 1_555 1_555
H4 C10 1_555 1_555
H5 C10 1_555 1_555
H6 C10 1_555 1_555
C11 C6 1_555 1_555
H7 C11 1_555 1_555
H8 C11 1_555 1_555
H9 C11 1_555 1_555
H10 O4 1_555 1_555
O5 H11 1_555 1_555
H12 O5 1_555 1_555
C4 C5 1_555 1_555
C4 C9 1_555 1_555
C7 C8 1_555 1_555

#END
