
#######################################################################
#
#                 Cambridge Crystallographic Data Centre
#                                CCDC 
#
#######################################################################
#
# If this CIF has been generated from an entry in the Cambridge 
# Structural Database, then it will include bibliographic, chemical, 
# crystal, experimental, refinement or atomic coordinate data resulting 
# from the CCDC's data processing and validation procedures.
#
#######################################################################

data_QONHAE
_chemical_formula_moiety         'C21 H24 Cl1 N1 O4'
_chemical_name_systematic        
7-(acetyloxy)-5-chloro-3-(3,5-dimethylhepta-1,3-dien-1-yl)-7-methyl-8-oxo-7,8-dihydroisoquinolinium-6-olate
_symmetry_cell_setting           monoclinic
_symmetry_space_group_name_H-M   'P 21'
_symmetry_Int_Tables_number      4
_space_group_name_Hall           'P 2yb'
loop_
_symmetry_equiv_pos_site_id
_symmetry_equiv_pos_as_xyz
1 x,y,z
2 -x,1/2+y,-z
_cell_length_a                   8.6813(3)
_cell_length_b                   7.3821(2)
_cell_length_c                   16.0325(6)
_cell_angle_alpha                90
_cell_angle_beta                 105.282(2)
_cell_angle_gamma                90
_cell_volume                     991.132
_exptl_crystal_colour            red
_exptl_crystal_description       needle
_cell_formula_units_Z            2
loop_
_atom_site_label
_atom_site_type_symbol
_atom_site_fract_x
_atom_site_fract_y
_atom_site_fract_z
Cl1 Cl 0.39620(6) 0.41451(10) 0.54012(3)
O1 O 0.18010(14) 0.4127(3) 0.36456(9)
O2 O 0.25323(16) 0.3500(2) 0.21399(9)
O3 O 0.3379(2) 0.0903(2) 0.28234(13)
O4 O 0.56984(19) 0.3456(3) 0.21457(10)
N1 N 0.93057(19) 0.4036(3) 0.44191(11)
H1 H 1.023(3) 0.408(4) 0.4418(14)
C1 C 0.3690(2) 0.4414(3) 0.28127(13)
C2 C 0.3242(2) 0.4171(3) 0.36774(12)
C3 C 0.4505(2) 0.4150(4) 0.44301(12)
C4 C 0.6103(2) 0.4092(4) 0.44448(11)
C5 C 0.6582(2) 0.3972(3) 0.36515(12)
C6 C 0.5378(2) 0.3845(3) 0.28139(13)
C7 C 0.7381(2) 0.4134(4) 0.52164(12)
H2 H 0.7141 0.4198 0.5748
C8 C 0.8946(2) 0.4085(4) 0.51984(12)
C9 C 0.8156(2) 0.3956(4) 0.36706(13)
H3 H 0.8445 0.3888 0.3153
C10 C 1.0285(2) 0.4089(4) 0.59771(13)
H4 H 1.1178 0.4788 0.5981
C11 C 1.0274(3) 0.3141(3) 0.66720(14)
H5 H 0.9358 0.2462 0.6641
C12 C 1.1521(3) 0.3024(3) 0.74837(14)
C13 C 1.1323(3) 0.1892(4) 0.80884(16)
H6 H 1.0386 0.1215 0.7946
C14 C 1.2414(3) 0.1551(4) 0.89788(17)
H7 H 1.3520 0.1663 0.8943
C15 C 1.2178(4) -0.0362(5) 0.9277(2)
H8 H 1.1151 -0.0429 0.9408
H9 H 1.2154 -0.1197 0.8806
C16 C 1.3463(5) -0.0960(9) 1.0063(3)
H10 H 1.3060 -0.1919 1.0350
H11 H 1.3772 0.0045 1.0451
H12 H 1.4373 -0.1386 0.9886
C17 C 1.2947(3) 0.4252(5) 0.75947(16)
H13 H 1.3717 0.3973 0.8129
H14 H 1.2614 0.5490 0.7603
H15 H 1.3419 0.4075 0.7123
C18 C 1.2134(4) 0.2973(6) 0.96039(19)
H16 H 1.2334 0.4153 0.9404
H17 H 1.2841 0.2761 1.0166
H18 H 1.1048 0.2906 0.9638
C19 C 0.2457(3) 0.1689(3) 0.22517(15)
C20 C 0.1074(4) 0.0875(5) 0.1604(2)
H19 H 0.1252 -0.0400 0.1557
H20 H 0.0963 0.1441 0.1052
H21 H 0.0118 0.1060 0.1786
C21 C 0.3542(3) 0.6407(3) 0.25665(18)
H22 H 0.3737 0.6561 0.2008
H23 H 0.4311 0.7094 0.2988
H24 H 0.2486 0.6824 0.2547
loop_
_geom_bond_atom_site_label_1
_geom_bond_atom_site_label_2
_geom_bond_site_symmetry_1
_geom_bond_site_symmetry_2
Cl1 C3 1_555 1_555
O1 C2 1_555 1_555
O2 C1 1_555 1_555
O3 C19 1_555 1_555
O4 C6 1_555 1_555
N1 H1 1_555 1_555
C1 C2 1_555 1_555
C2 C3 1_555 1_555
C3 C4 1_555 1_555
C4 C5 1_555 1_555
C5 C6 1_555 1_555
C6 C1 1_555 1_555
C7 C4 1_555 1_555
H2 C7 1_555 1_555
C8 N1 1_555 1_555
C9 N1 1_555 1_555
H3 C9 1_555 1_555
C10 C8 1_555 1_555
H4 C10 1_555 1_555
C11 C10 1_555 1_555
H5 C11 1_555 1_555
C12 C11 1_555 1_555
C13 C12 1_555 1_555
H6 C13 1_555 1_555
C14 C13 1_555 1_555
H7 C14 1_555 1_555
C15 C14 1_555 1_555
H8 C15 1_555 1_555
H9 C15 1_555 1_555
C16 C15 1_555 1_555
H10 C16 1_555 1_555
H11 C16 1_555 1_555
H12 C16 1_555 1_555
C17 C12 1_555 1_555
H13 C17 1_555 1_555
H14 C17 1_555 1_555
H15 C17 1_555 1_555
C18 C14 1_555 1_555
H16 C18 1_555 1_555
H17 C18 1_555 1_555
H18 C18 1_555 1_555
C19 O2 1_555 1_555
C20 C19 1_555 1_555
H19 C20 1_555 1_555
H20 C20 1_555 1_555
H21 C20 1_555 1_555
C21 C1 1_555 1_555
H22 C21 1_555 1_555
H23 C21 1_555 1_555
H24 C21 1_555 1_555
C5 C9 1_555 1_555
C7 C8 1_555 1_555

#END
