
#######################################################################
#
#                 Cambridge Crystallographic Data Centre
#                                CCDC 
#
#######################################################################
#
# If this CIF has been generated from an entry in the Cambridge 
# Structural Database, then it will include bibliographic, chemical, 
# crystal, experimental, refinement or atomic coordinate data resulting 
# from the CCDC's data processing and validation procedures.
#
#######################################################################

data_QONHIM
_chemical_formula_moiety         'C19 H25 Cl1 O3'
_chemical_name_systematic        
'ethyl 2-(2-chlorobenzylidene)-3-ethoxy-5,5-dimethylhex-3-enoate'
_symmetry_cell_setting           monoclinic
_symmetry_space_group_name_H-M   'P 21/c'
_symmetry_Int_Tables_number      14
_space_group_name_Hall           '-P 2ybc'
loop_
_symmetry_equiv_pos_site_id
_symmetry_equiv_pos_as_xyz
1 x,y,z
2 -x,1/2+y,1/2-z
3 -x,-y,-z
4 x,1/2-y,1/2+z
_cell_length_a                   26.955(5)
_cell_length_b                   11.733(2)
_cell_length_c                   18.191(4)
_cell_angle_alpha                90
_cell_angle_beta                 100.79(3)
_cell_angle_gamma                90
_cell_volume                     5651.42
_cell_formula_units_Z            12
loop_
_atom_site_label
_atom_site_type_symbol
_atom_site_fract_x
_atom_site_fract_y
_atom_site_fract_z
Cl1 Cl 0.10811(6) 0.55922(17) 0.20928(9)
O1 O -0.02698(13) 0.7280(4) 0.4153(2)
O2 O 0.05644(15) 0.6045(4) 0.5258(2)
O3 O 0.08740(15) 0.4669(4) 0.4609(2)
C1 C 0.0492(2) 0.6276(6) 0.1948(4)
C2 C 0.0311(3) 0.6736(6) 0.1266(4)
H1 H 0.0488 0.6653 0.0878
C3 C -0.0146(3) 0.7337(6) 0.1154(4)
H2 H -0.0268 0.7684 0.0696
C4 C -0.0416(2) 0.7411(6) 0.1732(4)
H3 H -0.0722 0.7799 0.1663
C5 C -0.0224(2) 0.6898(6) 0.2411(3)
H4 H -0.0414 0.6932 0.2788
C6 C 0.0237(2) 0.6335(5) 0.2559(3)
C7 C 0.0437(2) 0.5799(6) 0.3284(3)
H5 H 0.0575 0.5075 0.3272
C8 C 0.0438(2) 0.6255(5) 0.3962(3)
C9 C 0.0648(2) 0.5554(5) 0.4626(3)
C10 C 0.0785(3) 0.5502(6) 0.5968(4)
H6 H 0.0830 0.4693 0.5890
H7 H 0.0561 0.5592 0.6323
C11 C 0.1289(2) 0.6047(7) 0.6272(4)
H8 H 0.1524 0.5864 0.5953
H9 H 0.1415 0.5763 0.6767
H10 H 0.1249 0.6859 0.6291
C12 C 0.02360(19) 0.7420(5) 0.4077(3)
C13 C -0.0568(2) 0.8286(6) 0.4182(4)
H11 H -0.0559 0.8768 0.3751
H12 H -0.0442 0.8718 0.4633
C14 C -0.1102(2) 0.7879(6) 0.4181(4)
H13 H -0.1216 0.7423 0.3744
H14 H -0.1321 0.8525 0.4178
H15 H -0.1106 0.7430 0.4621
C15 C 0.0470(2) 0.8426(5) 0.4087(3)
H16 H 0.0271 0.9057 0.4142
C16 C 0.1010(2) 0.8689(5) 0.4021(3)
C17 C 0.1022(2) 0.9047(6) 0.3215(4)
H17 H 0.0906 0.8428 0.2882
H18 H 0.1362 0.9242 0.3173
H19 H 0.0807 0.9696 0.3084
C18 C 0.1387(2) 0.7726(6) 0.4251(4)
H20 H 0.1353 0.7445 0.4735
H21 H 0.1724 0.8007 0.4272
H22 H 0.1321 0.7120 0.3892
C19 C 0.1179(2) 0.9717(6) 0.4531(4)
H23 H 0.0958 1.0350 0.4377
H24 H 0.1518 0.9923 0.4494
H25 H 0.1166 0.9522 0.5039
Cl2 Cl 0.22523(6) 0.47924(17) 1.14668(9)
O4 O 0.28279(16) 0.3704(4) 0.8370(2)
O5 O 0.24191(15) 0.5038(4) 0.8924(2)
O6 O 0.36182(14) 0.2454(4) 0.9615(2)
C20 C 0.2821(2) 0.4045(6) 1.1671(4)
C21 C 0.3004(3) 0.3724(7) 1.2401(4)
H26 H 0.2832 0.3936 1.2778
C22 C 0.3443(3) 0.3088(7) 1.2574(4)
H27 H 0.3562 0.2859 1.3065
C23 C 0.3705(3) 0.2795(8) 1.2017(4)
H28 H 0.4001 0.2372 1.2129
C24 C 0.3520(2) 0.3137(7) 1.1288(4)
H29 H 0.3704 0.2954 1.0920
C25 C 0.3075(2) 0.3738(6) 1.1084(3)
C26 C 0.2876(2) 0.4130(6) 1.0307(3)
H30 H 0.2724 0.4844 1.0254
C27 C 0.2895(2) 0.3558(6) 0.9675(3)
C28 C 0.2684(2) 0.4201(6) 0.8965(3)
C29 C 0.2622(2) 0.4186(7) 0.7634(3)
H31 H 0.2839 0.3994 0.7283
H32 H 0.2606 0.5010 0.7669
C30 C 0.2097(3) 0.3710(7) 0.7358(4)
H33 H 0.2110 0.2892 0.7368
H34 H 0.1974 0.3965 0.6855
H35 H 0.1874 0.3972 0.7677
C31 C 0.3100(2) 0.2385(7) 0.9623(3)
C32 C 0.3899(2) 0.1389(7) 0.9698(4)
H36 H 0.3789 0.0898 0.9270
H37 H 0.3851 0.0992 1.0147
C33 C 0.4451(2) 0.1720(8) 0.9752(5)
H38 H 0.4496 0.2062 0.9289
H39 H 0.4659 0.1052 0.9847
H40 H 0.4546 0.2254 1.0153
C34 C 0.2848(2) 0.1426(6) 0.9602(3)
H41 H 0.3041 0.0774 0.9578
C35 C 0.2288(2) 0.1203(6) 0.9609(4)
C36 C 0.2231(2) 0.1048(7) 1.0425(4)
H42 H 0.1889 0.0843 1.0443
H43 H 0.2315 0.1748 1.0693
H44 H 0.2454 0.0456 1.0652
C37 C 0.1926(2) 0.2175(6) 0.9255(4)
H45 H 0.1996 0.2365 0.8771
H46 H 0.1977 0.2835 0.9572
H47 H 0.1582 0.1924 0.9203
C38 C 0.2137(2) 0.0096(7) 0.9178(5)
H48 H 0.1800 -0.0111 0.9226
H49 H 0.2366 -0.0501 0.9379
H50 H 0.2150 0.0207 0.8659
Cl3 Cl 0.43418(7) 0.8744(2) 0.04932(10)
O7 O 0.40389(16) 0.9396(5) 0.3730(2)
O8 O 0.42638(17) 1.0579(5) 0.2866(3)
O9 O 0.31153(13) 0.7950(4) 0.2824(2)
C39 C 0.3726(2) 0.8282(7) 0.0470(4)
C40 C 0.3485(2) 0.7703(7) -0.0156(4)
H51 H 0.3642 0.7609 -0.0567
C41 C 0.3005(3) 0.7263(6) -0.0165(4)
H52 H 0.2842 0.6847 -0.0575
C42 C 0.2770(2) 0.7450(6) 0.0446(4)
H53 H 0.2445 0.7176 0.0437
C43 C 0.3015(2) 0.8035(7) 0.1059(4)
H54 H 0.2854 0.8144 0.1463
C44 C 0.3498(2) 0.8468(6) 0.1094(4)
C45 C 0.3763(2) 0.9138(7) 0.1748(3)
H55 H 0.3911 0.9820 0.1642
C46 C 0.3810(2) 0.8860(6) 0.2467(4)
C47 C 0.4059(2) 0.9715(7) 0.3018(4)
C48 C 0.4277(3) 1.0206(7) 0.4294(4)
H56 H 0.4102 1.0933 0.4224
H57 H 0.4626 1.0327 0.4249
C49 C 0.4252(3) 0.9727(9) 0.5058(4)
H58 H 0.3912 0.9486 0.5068
H59 H 0.4350 1.0303 0.5431
H60 H 0.4476 0.9087 0.5160
C50 C 0.3607(2) 0.7773(6) 0.2733(3)
C51 C 0.28057(19) 0.6948(5) 0.2883(3)
H61 H 0.2910 0.6585 0.3367
H62 H 0.2837 0.6402 0.2495
C52 C 0.2272(2) 0.7365(6) 0.2794(4)
H63 H 0.2254 0.7969 0.3144
H64 H 0.2057 0.6749 0.2887
H65 H 0.2162 0.7643 0.2294
C53 C 0.3851(2) 0.6774(6) 0.2835(3)
H66 H 0.3666 0.6182 0.2990
C54 C 0.4381(2) 0.6449(7) 0.2740(4)
C55 C 0.4367(3) 0.6018(8) 0.1939(4)
H67 H 0.4136 0.5390 0.1839
H68 H 0.4698 0.5772 0.1888
H69 H 0.4258 0.6622 0.1591
C56 C 0.4771(3) 0.7434(8) 0.2923(5)
H70 H 0.4723 0.7971 0.2518
H71 H 0.5107 0.7127 0.2991
H72 H 0.4725 0.7810 0.3374
C57 C 0.4559(3) 0.5473(8) 0.3278(4)
H73 H 0.4523 0.5686 0.3775
H74 H 0.4907 0.5310 0.3272
H75 H 0.4359 0.4807 0.3126
loop_
_geom_bond_atom_site_label_1
_geom_bond_atom_site_label_2
_geom_bond_site_symmetry_1
_geom_bond_site_symmetry_2
Cl1 C1 1_555 1_555
O1 C12 1_555 1_555
O2 C9 1_555 1_555
O3 C9 1_555 1_555
C1 C2 1_555 1_555
C2 H1 1_555 1_555
C3 C2 1_555 1_555
H2 C3 1_555 1_555
C4 C3 1_555 1_555
H3 C4 1_555 1_555
C5 C4 1_555 1_555
H4 C5 1_555 1_555
C6 C1 1_555 1_555
C7 C6 1_555 1_555
H5 C7 1_555 1_555
C8 C7 1_555 1_555
C9 C8 1_555 1_555
C10 O2 1_555 1_555
H6 C10 1_555 1_555
H7 C10 1_555 1_555
C11 C10 1_555 1_555
H8 C11 1_555 1_555
H9 C11 1_555 1_555
H10 C11 1_555 1_555
C12 C8 1_555 1_555
C13 O1 1_555 1_555
H11 C13 1_555 1_555
H12 C13 1_555 1_555
C14 C13 1_555 1_555
H13 C14 1_555 1_555
H14 C14 1_555 1_555
H15 C14 1_555 1_555
C15 C12 1_555 1_555
H16 C15 1_555 1_555
C16 C15 1_555 1_555
C17 C16 1_555 1_555
H17 C17 1_555 1_555
H18 C17 1_555 1_555
H19 C17 1_555 1_555
C18 C16 1_555 1_555
H20 C18 1_555 1_555
H21 C18 1_555 1_555
H22 C18 1_555 1_555
C19 C16 1_555 1_555
H23 C19 1_555 1_555
H24 C19 1_555 1_555
H25 C19 1_555 1_555
Cl2 C20 1_555 1_555
O4 C28 1_555 1_555
O5 C28 1_555 1_555
O6 C31 1_555 1_555
C20 C21 1_555 1_555
C21 H26 1_555 1_555
C22 C21 1_555 1_555
H27 C22 1_555 1_555
C23 C22 1_555 1_555
H28 C23 1_555 1_555
C24 C23 1_555 1_555
H29 C24 1_555 1_555
C25 C20 1_555 1_555
C26 C25 1_555 1_555
H30 C26 1_555 1_555
C27 C26 1_555 1_555
C28 C27 1_555 1_555
C29 O4 1_555 1_555
H31 C29 1_555 1_555
H32 C29 1_555 1_555
C30 C29 1_555 1_555
H33 C30 1_555 1_555
H34 C30 1_555 1_555
H35 C30 1_555 1_555
C31 C27 1_555 1_555
C32 O6 1_555 1_555
H36 C32 1_555 1_555
H37 C32 1_555 1_555
C33 C32 1_555 1_555
H38 C33 1_555 1_555
H39 C33 1_555 1_555
H40 C33 1_555 1_555
C34 C31 1_555 1_555
H41 C34 1_555 1_555
C35 C34 1_555 1_555
C36 C35 1_555 1_555
H42 C36 1_555 1_555
H43 C36 1_555 1_555
H44 C36 1_555 1_555
C37 C35 1_555 1_555
H45 C37 1_555 1_555
H46 C37 1_555 1_555
H47 C37 1_555 1_555
C38 C35 1_555 1_555
H48 C38 1_555 1_555
H49 C38 1_555 1_555
H50 C38 1_555 1_555
Cl3 C39 1_555 1_555
O7 C47 1_555 1_555
O8 C47 1_555 1_555
O9 C50 1_555 1_555
C39 C40 1_555 1_555
C40 H51 1_555 1_555
C41 C40 1_555 1_555
H52 C41 1_555 1_555
C42 C41 1_555 1_555
H53 C42 1_555 1_555
C43 C42 1_555 1_555
H54 C43 1_555 1_555
C44 C39 1_555 1_555
C45 C44 1_555 1_555
H55 C45 1_555 1_555
C46 C45 1_555 1_555
C47 C46 1_555 1_555
C48 O7 1_555 1_555
H56 C48 1_555 1_555
H57 C48 1_555 1_555
C49 C48 1_555 1_555
H58 C49 1_555 1_555
H59 C49 1_555 1_555
H60 C49 1_555 1_555
C50 C46 1_555 1_555
C51 O9 1_555 1_555
H61 C51 1_555 1_555
H62 C51 1_555 1_555
C52 C51 1_555 1_555
H63 C52 1_555 1_555
H64 C52 1_555 1_555
H65 C52 1_555 1_555
C53 C50 1_555 1_555
H66 C53 1_555 1_555
C54 C53 1_555 1_555
C55 C54 1_555 1_555
H67 C55 1_555 1_555
H68 C55 1_555 1_555
H69 C55 1_555 1_555
C56 C54 1_555 1_555
H70 C56 1_555 1_555
H71 C56 1_555 1_555
H72 C56 1_555 1_555
C57 C54 1_555 1_555
H73 C57 1_555 1_555
H74 C57 1_555 1_555
H75 C57 1_555 1_555
C5 C6 1_555 1_555
C24 C25 1_555 1_555
C43 C44 1_555 1_555

#END
