
#######################################################################
#
#                 Cambridge Crystallographic Data Centre
#                                CCDC 
#
#######################################################################
#
# If this CIF has been generated from an entry in the Cambridge 
# Structural Database, then it will include bibliographic, chemical, 
# crystal, experimental, refinement or atomic coordinate data resulting 
# from the CCDC's data processing and validation procedures.
#
#######################################################################

data_QONHOS
_chemical_formula_moiety         'C17 H19 N1 O4'
_chemical_name_systematic        
'ethyl 5,5-dimethyl-2-(3-nitrobenzylidene)hex-3-ynoate'
_symmetry_cell_setting           monoclinic
_symmetry_space_group_name_H-M   'P 21/a'
_symmetry_Int_Tables_number      14
_space_group_name_Hall           '-P 2yab'
loop_
_symmetry_equiv_pos_site_id
_symmetry_equiv_pos_as_xyz
1 x,y,z
2 1/2-x,1/2+y,-z
3 -x,-y,-z
4 1/2+x,1/2-y,z
_cell_length_a                   6.780(5)
_cell_length_b                   13.991(12)
_cell_length_c                   17.005(15)
_cell_angle_alpha                90
_cell_angle_beta                 93.362(14)
_cell_angle_gamma                90
_cell_volume                     1610.3
_exptl_crystal_colour            colorless
_exptl_crystal_description       prism
_cell_formula_units_Z            4
loop_
_atom_site_label
_atom_site_type_symbol
_atom_site_fract_x
_atom_site_fract_y
_atom_site_fract_z
O1 O 0.2948(8) 0.2301(3) 0.0428(2)
O2 O 0.2663(6) 0.3908(2) 0.0372(2)
O3 O 0.2591(7) 0.4295(3) 0.4625(2)
O4 O 0.2244(8) 0.3247(3) 0.5547(2)
N1 N 0.2423(7) 0.3463(3) 0.4858(3)
C1 C 0.2670(8) 0.2361(4) 0.2056(3)
H1 H 0.2725 0.1795 0.1750
C2 C 0.2659(8) 0.3177(3) 0.1634(3)
C3 C 0.2590(8) 0.4136(4) 0.1958(3)
C4 C 0.2565(8) 0.4942(3) 0.2212(3)
C5 C 0.2505(9) 0.5917(3) 0.2573(3)
C6 C 0.0650(11) 0.6023(4) 0.3034(4)
H2 H -0.0523 0.5984 0.2670
H3 H 0.0674 0.6643 0.3303
H4 H 0.0610 0.5509 0.3425
C7 C 0.4336(10) 0.6045(4) 0.3137(4)
H5 H 0.4410 0.5518 0.3518
H6 H 0.4244 0.6653 0.3419
H7 H 0.5525 0.6044 0.2836
C8 C 0.2548(11) 0.6680(4) 0.1910(3)
H8 H 0.3754 0.6603 0.1626
H9 H 0.2526 0.7321 0.2143
H10 H 0.1391 0.6598 0.1543
C9 C 0.2613(8) 0.2193(3) 0.2913(3)
C10 C 0.2538(8) 0.2932(4) 0.3482(3)
H11 H 0.2499 0.3584 0.3327
C11 C 0.2524(8) 0.2679(4) 0.4270(3)
C12 C 0.2516(9) 0.1736(4) 0.4532(3)
H12 H 0.2488 0.1595 0.5078
C13 C 0.2549(9) 0.1001(4) 0.3976(3)
H13 H 0.2545 0.0351 0.4138
C14 C 0.2589(9) 0.1238(4) 0.3174(3)
H14 H 0.2601 0.0739 0.2796
C15 C 0.2754(9) 0.3063(4) 0.0753(3)
C16 C 0.2725(13) 0.3854(4) -0.0480(3)
H15 H 0.1661 0.3429 -0.0700
H16 H 0.4010 0.3592 -0.0625
C17 C 0.2447(12) 0.4849(4) -0.0803(3)
H17 H 0.1169 0.5100 -0.0658
H18 H 0.2484 0.4834 -0.1378
H19 H 0.3509 0.5262 -0.0582
loop_
_geom_bond_atom_site_label_1
_geom_bond_atom_site_label_2
_geom_bond_site_symmetry_1
_geom_bond_site_symmetry_2
O1 C15 1_555 1_555
O2 C15 1_555 1_555
O3 N1 1_555 1_555
O4 N1 1_555 1_555
N1 C11 1_555 1_555
C1 H1 1_555 1_555
C2 C1 1_555 1_555
C3 C2 1_555 1_555
C4 C3 1_555 1_555
C5 C4 1_555 1_555
C6 C5 1_555 1_555
H2 C6 1_555 1_555
H3 C6 1_555 1_555
H4 C6 1_555 1_555
C7 C5 1_555 1_555
H5 C7 1_555 1_555
H6 C7 1_555 1_555
H7 C7 1_555 1_555
C8 C5 1_555 1_555
H8 C8 1_555 1_555
H9 C8 1_555 1_555
H10 C8 1_555 1_555
C9 C1 1_555 1_555
C10 C9 1_555 1_555
H11 C10 1_555 1_555
C11 C10 1_555 1_555
C12 C11 1_555 1_555
H12 C12 1_555 1_555
C13 C12 1_555 1_555
H13 C13 1_555 1_555
C14 C9 1_555 1_555
H14 C14 1_555 1_555
C15 C2 1_555 1_555
C16 O2 1_555 1_555
H15 C16 1_555 1_555
H16 C16 1_555 1_555
C17 C16 1_555 1_555
H17 C17 1_555 1_555
H18 C17 1_555 1_555
H19 C17 1_555 1_555
C13 C14 1_555 1_555

#END
