
#######################################################################
#
#                 Cambridge Crystallographic Data Centre
#                                CCDC 
#
#######################################################################
#
# If this CIF has been generated from an entry in the Cambridge 
# Structural Database, then it will include bibliographic, chemical, 
# crystal, experimental, refinement or atomic coordinate data resulting 
# from the CCDC's data processing and validation procedures.
#
#######################################################################

data_QONJAE
_chemical_formula_moiety         'C76 H80 O20,C1 H4 O1'
_chemical_name_systematic        
'1,4,13,16-tetrakis(Camphanoyl-O)-6,11-bis(pivaloato-O)(6)helicene methanol solvate'
_symmetry_cell_setting           orthorhombic
_symmetry_space_group_name_H-M   'P 21 21 21'
_symmetry_Int_Tables_number      19
_space_group_name_Hall           'P 2ac 2ab'
loop_
_symmetry_equiv_pos_site_id
_symmetry_equiv_pos_as_xyz
1 x,y,z
2 1/2-x,-y,1/2+z
3 1/2+x,1/2-y,-z
4 -x,1/2+y,1/2-z
_cell_length_a                   11.2580(2)
_cell_length_b                   21.3657(3)
_cell_length_c                   28.6534(4)
_cell_angle_alpha                90
_cell_angle_beta                 90
_cell_angle_gamma                90
_cell_volume                     6892.15
_exptl_crystal_colour            yellow
_exptl_crystal_description       plate
_chemical_melting_point          'above 250deg.C'
_cell_formula_units_Z            4
loop_
_atom_site_label
_atom_site_type_symbol
_atom_site_fract_x
_atom_site_fract_y
_atom_site_fract_z
O1 O 0.5547(3) 0.0353(1) 0.1108(1)
O2 O 0.6699(3) 0.0295(2) 0.1757(1)
O3 O 0.3698(3) 0.0580(2) 0.1685(1)
O4 O 0.1923(4) 0.0669(2) 0.2032(1)
O5 O 0.8965(2) -0.1068(1) 0.0204(1)
O6 O 0.7755(3) -0.1437(2) -0.0358(1)
O7 O 0.9503(3) -0.2171(1) -0.0710(1)
O8 O 1.0551(4) -0.2668(2) -0.1263(1)
O9 O 0.8898(3) 0.0996(2) -0.0630(1)
O10 O 1.0212(4) 0.1399(2) -0.0131(1)
O11 O 0.1404(3) 0.1060(1) 0.0955(1)
O12 O -0.0056(4) 0.0376(2) 0.0996(2)
O13 O 0.2691(3) -0.1267(1) 0.1029(1)
O14 O 0.3959(3) -0.0985(2) 0.1604(1)
O15 O 0.2719(4) -0.1649(2) 0.2249(1)
O16 O 0.1842(5) -0.1926(3) 0.2918(1)
O17 O 0.5329(3) -0.0137(1) -0.0368(1)
O18 O 0.3622(3) 0.0175(2) -0.0697(1)
O19 O 0.6647(3) 0.0156(2) -0.1061(1)
O20 O 0.8175(4) -0.0002(2) -0.1550(1)
C1 C 0.6781(4) 0.0207(2) 0.0422(1)
C2 C 0.6320(4) -0.0029(2) 0.0853(1)
C3 C 0.6625(4) -0.0604(2) 0.1026(2)
C4 C 0.7461(4) -0.0970(2) 0.0789(1)
C5 C 0.8019(4) -0.0731(2) 0.0408(2)
C6 C 0.7754(4) -0.0130(2) 0.0228(1)
C7 C 0.8455(4) 0.0144(2) -0.0134(1)
C8 C 0.8221(4) 0.0737(2) -0.0275(1)
C9 C 0.7197(4) 0.1072(2) -0.0121(1)
C10 C 0.6383(4) 0.0766(2) 0.0181(1)
C11 C 0.6951(4) 0.1687(2) -0.0284(1)
C12 C 0.5961(4) 0.1994(2) -0.0146(1)
C13 C 0.5035(4) 0.1669(2) 0.0093(1)
C14 C 0.5197(4) 0.1026(2) 0.0211(1)
C15 C 0.3948(4) 0.1972(2) 0.0206(2)
C16 C 0.3080(4) 0.1665(2) 0.0438(1)
C17 C 0.3166(4) 0.1003(2) 0.0512(1)
C18 C 0.4166(3) 0.0674(2) 0.0344(1)
C19 C 0.2276(4) 0.0670(2) 0.0767(1)
C20 C 0.2365(4) 0.0049(2) 0.0863(1)
C21 C 0.3286(4) -0.0305(2) 0.0640(1)
C22 C 0.4090(3) -0.0003(2) 0.0326(1)
C23 C 0.3404(4) -0.0955(2) 0.0696(1)
C24 C 0.4135(4) -0.1311(2) 0.0427(1)
C25 C 0.4761(4) -0.1032(2) 0.0060(1)
C26 C 0.4717(4) -0.0387(2) 0.0015(1)
C27 C 0.5817(4) 0.0473(2) 0.1563(2)
C28 C 0.4881(4) 0.0870(2) 0.1783(2)
C29 C 0.2953(5) 0.0822(3) 0.2014(2)
C30 C 0.3671(5) 0.1298(3) 0.2300(2)
C31 C 0.3884(6) 0.1805(3) 0.1951(2)
C32 C 0.4760(6) 0.1518(3) 0.1598(2)
C33 C 0.4817(4) 0.0911(2) 0.2317(2)
C34 C 0.4759(5) 0.0291(3) 0.2574(2)
C35 C 0.5872(5) 0.1292(3) 0.2528(2)
C36 C 0.3052(6) 0.1484(3) 0.2747(2)
C37 C 0.8707(4) -0.1407(2) -0.0184(2)
C38 C 0.9832(4) -0.1727(2) -0.0343(1)
C39 C 1.0531(4) -0.2298(2) -0.0944(2)
C40 C 1.1519(4) -0.1938(2) -0.0715(2)
C41 C 1.1653(4) -0.2271(2) -0.0235(2)
C42 C 1.0498(5) -0.2110(2) 0.0027(2)
C43 C 1.0808(4) -0.1330(2) -0.0584(2)
C44 C 1.1461(4) -0.0876(2) -0.0263(2)
C45 C 1.0353(5) -0.0972(2) -0.1016(2)
C46 C 1.2648(5) -0.1874(2) -0.0991(2)
C47 C 0.9943(4) 0.1286(2) -0.0525(2)
C48 C 1.0639(4) 0.1447(2) -0.0964(2)
C49 C 1.1761(7) 0.1806(4) -0.0834(3)
C50 C 0.9836(6) 0.1824(3) -0.1291(2)
C51 C 1.0972(5) 0.0835(3) -0.1211(2)
C52 C 0.0323(5) 0.0886(2) 0.1073(2)
C53 C -0.0417(4) 0.1415(2) 0.1288(2)
C54 C -0.0814(5) 0.1216(3) 0.1770(2)
C55 C 0.0258(5) 0.2032(3) 0.1328(2)
C56 C -0.1492(6) 0.1510(3) 0.0970(2)
C57 C 0.3127(4) -0.1278(2) 0.1476(1)
C58 C 0.2389(4) -0.1732(2) 0.1761(2)
C59 C 0.1835(6) -0.1923(3) 0.2503(2)
C60 C 0.0945(5) -0.2177(2) 0.2163(2)
C61 C 0.1596(6) -0.2728(3) 0.1929(2)
C62 C 0.2591(6) -0.2418(2) 0.1648(2)
C63 C 0.1034(5) -0.1662(2) 0.1776(2)
C64 C 0.0600(6) -0.1024(3) 0.1937(2)
C65 C 0.0376(5) -0.1826(3) 0.1327(2)
C66 C -0.0244(5) -0.2330(3) 0.2368(2)
C67 C 0.4680(4) 0.0109(2) -0.0714(2)
C68 C 0.5399(4) 0.0291(2) -0.1131(1)
C69 C 0.7136(5) 0.0104(3) -0.1492(2)
C70 C 0.6168(5) 0.0233(3) -0.1844(2)
C71 C 0.5891(5) 0.0934(2) -0.1778(2)
C72 C 0.5338(5) 0.0976(2) -0.1282(2)
C73 C 0.5099(4) -0.0078(2) -0.1584(2)
C74 C 0.5231(6) -0.0784(2) -0.1520(2)
C75 C 0.3891(5) 0.0064(3) -0.1799(2)
C76 C 0.6444(6) 0.0009(3) -0.2334(2)
H1 H 0.6272 -0.0754 0.1305
H2 H 0.7636 -0.1381 0.0893
H3 H 0.9080 -0.0087 -0.0275
H4 H 0.7489 0.1885 -0.0492
H5 H 0.5881 0.2429 -0.0208
H6 H 0.3831 0.2396 0.0117
H7 H 0.2411 0.1888 0.0553
H8 H 0.1829 -0.0147 0.1074
H9 H 0.4219 -0.1746 0.0487
H10 H 0.5206 -0.1279 -0.0153
H11 H 0.4233 0.2179 0.2103
H12 H 0.3134 0.1927 0.1796
H13 H 0.4429 0.1519 0.1278
H14 H 0.5531 0.1741 0.1600
H15 H 0.4101 0.0041 0.2450
H16 H 0.4630 0.0368 0.2907
H17 H 0.5507 0.0064 0.2531
H18 H 0.5930 0.1698 0.2370
H19 H 0.6613 0.1059 0.2484
H20 H 0.5735 0.1358 0.2862
H21 H 0.3541 0.1789 0.2916
H22 H 0.2934 0.1112 0.2942
H23 H 0.2280 0.1671 0.2673
H24 H 1.1732 -0.2729 -0.0277
H25 H 1.2355 -0.2113 -0.0064
H26 H 1.0052 -0.2492 0.0114
H27 H 1.0659 -0.1859 0.0310
H28 H 1.0954 -0.0513 -0.0201
H29 H 1.2197 -0.0738 -0.0414
H30 H 1.1650 -0.1087 0.0032
H31 H 0.9918 -0.0598 -0.0915
H32 H 0.9822 -0.1243 -0.1197
H33 H 1.1028 -0.0847 -0.1211
H34 H 1.2987 -0.2290 -0.1045
H35 H 1.3217 -0.1617 -0.0817
H36 H 1.2476 -0.1673 -0.1291
H37 H 1.1543 0.2201 -0.0683
H38 H 1.2220 0.1894 -0.1117
H39 H 1.2241 0.1554 -0.0620
H40 H 0.9615 0.2219 -0.1140
H41 H 0.9117 0.1582 -0.1360
H42 H 1.0261 0.1912 -0.1582
H43 H 1.0247 0.0610 -0.1299
H44 H 1.1446 0.0575 -0.1000
H45 H 1.1435 0.0930 -0.1492
H46 H -0.1275 0.1554 0.1914
H47 H -0.0115 0.1125 0.1963
H48 H -0.1308 0.0840 0.1746
H49 H -0.0253 0.2348 0.1474
H50 H 0.0492 0.2175 0.1016
H51 H 0.0970 0.1971 0.1520
H52 H -0.1993 0.1845 0.1096
H53 H -0.1950 0.1121 0.0954
H54 H -0.1221 0.1625 0.0656
H55 H 0.1926 -0.3018 0.2166
H56 H 0.1054 -0.2964 0.1722
H57 H 0.3383 -0.2560 0.1754
H58 H 0.2505 -0.2501 0.1310
H59 H 0.0675 -0.0723 0.1680
H60 H 0.1081 -0.0883 0.2202
H61 H -0.0234 -0.1054 0.2032
H62 H 0.0466 -0.1483 0.1102
H63 H -0.0469 -0.1888 0.1395
H64 H 0.0707 -0.2211 0.1194
H65 H -0.0585 -0.1953 0.2510
H66 H -0.0151 -0.2654 0.2608
H67 H -0.0773 -0.2483 0.2122
H68 H 0.5322 0.1083 -0.2017
H69 H 0.6625 0.1188 -0.1798
H70 H 0.5812 0.1248 -0.1074
H71 H 0.4509 0.1129 -0.1293
H72 H 0.4535 -0.0948 -0.1354
H73 H 0.5949 -0.0872 -0.1338
H74 H 0.5292 -0.0986 -0.1826
H75 H 0.3269 -0.0150 -0.1620
H76 H 0.3877 -0.0083 -0.2123
H77 H 0.3750 0.0516 -0.1792
H78 H 0.7120 0.0246 -0.2459
H79 H 0.5749 0.0074 -0.2534
H80 H 0.6643 -0.0437 -0.2326
O21 O 1.2092(9) -0.3182(4) -0.1907(3)
C77 C 1.1405(9) -0.3494(4) -0.2288(3)
H81 H 1.2771 -0.3086 -0.2006
H82 H 1.0747 -0.3223 -0.2384
H83 H 1.1089 -0.3893 -0.2174
H84 H 1.1929 -0.3570 -0.2555
loop_
_geom_bond_atom_site_label_1
_geom_bond_atom_site_label_2
_geom_bond_site_symmetry_1
_geom_bond_site_symmetry_2
O1 C2 1_555 1_555
O2 C27 1_555 1_555
O3 C28 1_555 1_555
O4 C29 1_555 1_555
O5 C5 1_555 1_555
O6 C37 1_555 1_555
O7 C38 1_555 1_555
O8 C39 1_555 1_555
O9 C8 1_555 1_555
O10 C47 1_555 1_555
O11 C19 1_555 1_555
O12 C52 1_555 1_555
O13 C23 1_555 1_555
O14 C57 1_555 1_555
O15 C58 1_555 1_555
O16 C59 1_555 1_555
O17 C26 1_555 1_555
O18 C67 1_555 1_555
O19 C68 1_555 1_555
O20 C69 1_555 1_555
C1 C2 1_555 1_555
C2 C3 1_555 1_555
C3 C4 1_555 1_555
C4 C5 1_555 1_555
C5 C6 1_555 1_555
C6 C1 1_555 1_555
C7 C6 1_555 1_555
C8 C7 1_555 1_555
C9 C8 1_555 1_555
C10 C1 1_555 1_555
C11 C9 1_555 1_555
C12 C11 1_555 1_555
C13 C12 1_555 1_555
C14 C10 1_555 1_555
C15 C13 1_555 1_555
C16 C15 1_555 1_555
C17 C16 1_555 1_555
C18 C14 1_555 1_555
C19 C17 1_555 1_555
C20 C19 1_555 1_555
C21 C20 1_555 1_555
C22 C18 1_555 1_555
C23 C21 1_555 1_555
C24 C23 1_555 1_555
C25 C24 1_555 1_555
C26 C22 1_555 1_555
C27 O1 1_555 1_555
C28 C27 1_555 1_555
C29 O3 1_555 1_555
C30 C29 1_555 1_555
C31 C30 1_555 1_555
C32 C28 1_555 1_555
C33 C28 1_555 1_555
C34 C33 1_555 1_555
C35 C33 1_555 1_555
C36 C30 1_555 1_555
C37 O5 1_555 1_555
C38 C37 1_555 1_555
C39 O7 1_555 1_555
C40 C39 1_555 1_555
C41 C40 1_555 1_555
C42 C38 1_555 1_555
C43 C38 1_555 1_555
C44 C43 1_555 1_555
C45 C43 1_555 1_555
C46 C40 1_555 1_555
C47 O9 1_555 1_555
C48 C47 1_555 1_555
C49 C48 1_555 1_555
C50 C48 1_555 1_555
C51 C48 1_555 1_555
C52 O11 1_555 1_555
C53 C52 1_555 1_555
C54 C53 1_555 1_555
C55 C53 1_555 1_555
C56 C53 1_555 1_555
C57 O13 1_555 1_555
C58 C57 1_555 1_555
C59 O15 1_555 1_555
C60 C59 1_555 1_555
C61 C60 1_555 1_555
C62 C58 1_555 1_555
C63 C58 1_555 1_555
C64 C63 1_555 1_555
C65 C63 1_555 1_555
C66 C60 1_555 1_555
C67 O17 1_555 1_555
C68 C67 1_555 1_555
C69 O19 1_555 1_555
C70 C69 1_555 1_555
C71 C70 1_555 1_555
C72 C68 1_555 1_555
C73 C68 1_555 1_555
C74 C73 1_555 1_555
C75 C73 1_555 1_555
C76 C70 1_555 1_555
O21 C77 1_555 1_555
C77 H82 1_555 1_555
H1 C3 1_555 1_555
H2 C4 1_555 1_555
H3 C7 1_555 1_555
H4 C11 1_555 1_555
H5 C12 1_555 1_555
H6 C15 1_555 1_555
H7 C16 1_555 1_555
H8 C20 1_555 1_555
H9 C24 1_555 1_555
H10 C25 1_555 1_555
H11 C31 1_555 1_555
H12 C31 1_555 1_555
H13 C32 1_555 1_555
H14 C32 1_555 1_555
H15 C34 1_555 1_555
H16 C34 1_555 1_555
H17 C34 1_555 1_555
H18 C35 1_555 1_555
H19 C35 1_555 1_555
H20 C35 1_555 1_555
H21 C36 1_555 1_555
H22 C36 1_555 1_555
H23 C36 1_555 1_555
H24 C41 1_555 1_555
H25 C41 1_555 1_555
H26 C42 1_555 1_555
H27 C42 1_555 1_555
H28 C44 1_555 1_555
H29 C44 1_555 1_555
H30 C44 1_555 1_555
H31 C45 1_555 1_555
H32 C45 1_555 1_555
H33 C45 1_555 1_555
H34 C46 1_555 1_555
H35 C46 1_555 1_555
H36 C46 1_555 1_555
H37 C49 1_555 1_555
H38 C49 1_555 1_555
H39 C49 1_555 1_555
H40 C50 1_555 1_555
H41 C50 1_555 1_555
H42 C50 1_555 1_555
H43 C51 1_555 1_555
H44 C51 1_555 1_555
H45 C51 1_555 1_555
H46 C54 1_555 1_555
H47 C54 1_555 1_555
H48 C54 1_555 1_555
H49 C55 1_555 1_555
H50 C55 1_555 1_555
H51 C55 1_555 1_555
H52 C56 1_555 1_555
H53 C56 1_555 1_555
H54 C56 1_555 1_555
H55 C61 1_555 1_555
H56 C61 1_555 1_555
H57 C62 1_555 1_555
H58 C62 1_555 1_555
H59 C64 1_555 1_555
H60 C64 1_555 1_555
H61 C64 1_555 1_555
H62 C65 1_555 1_555
H63 C65 1_555 1_555
H64 C65 1_555 1_555
H65 C66 1_555 1_555
H66 C66 1_555 1_555
H67 C66 1_555 1_555
H68 C71 1_555 1_555
H69 C71 1_555 1_555
H70 C72 1_555 1_555
H71 C72 1_555 1_555
H72 C74 1_555 1_555
H73 C74 1_555 1_555
H74 C74 1_555 1_555
H75 C75 1_555 1_555
H76 C75 1_555 1_555
H77 C75 1_555 1_555
H78 C76 1_555 1_555
H79 C76 1_555 1_555
H80 C76 1_555 1_555
H81 O21 1_555 1_555
H83 C77 1_555 1_555
H84 C77 1_555 1_555
C9 C10 1_555 1_555
C13 C14 1_555 1_555
C17 C18 1_555 1_555
C21 C22 1_555 1_555
C25 C26 1_555 1_555
C30 C33 1_555 1_555
C31 C32 1_555 1_555
C40 C43 1_555 1_555
C41 C42 1_555 1_555
C60 C63 1_555 1_555
C61 C62 1_555 1_555
C70 C73 1_555 1_555
C71 C72 1_555 1_555

#END
