
#######################################################################
#
#                 Cambridge Crystallographic Data Centre
#                                CCDC 
#
#######################################################################
#
# If this CIF has been generated from an entry in the Cambridge 
# Structural Database, then it will include bibliographic, chemical, 
# crystal, experimental, refinement or atomic coordinate data resulting 
# from the CCDC's data processing and validation procedures.
#
#######################################################################

data_QONPEQ
_chemical_formula_moiety         'C63 H80 N4 O10 2+,2(F6 P1 1-)'
_chemical_name_systematic        
'3-Methyl-1-(2-((9,14,19,24,26,28,30,32-octaethoxy-34-(2-(1-methyl-1H-imidazol-3-ium-3-yl)ethoxy)hexacyclo[21.2.2.2^3,6^.2^8,11^.2^13,16^.2^18,21^]pentatriaconta-1(25),3,5,8,10,13,15,18,20,23,26,28,30,32,34-pentadecaen-4-yl)oxy)ethyl)-1H-imidazol-3-ium bis(hexafluorophosphate) unknown solvate'
_symmetry_cell_setting           triclinic
_symmetry_space_group_name_H-M   'P -1'
_symmetry_Int_Tables_number      2
_space_group_name_Hall           '-P 1'
loop_
_symmetry_equiv_pos_site_id
_symmetry_equiv_pos_as_xyz
1 x,y,z
2 -x,-y,-z
_cell_length_a                   12.7806(6)
_cell_length_b                   14.6895(6)
_cell_length_c                   20.5104(10)
_cell_angle_alpha                110.228(4)
_cell_angle_beta                 102.002(4)
_cell_angle_gamma                97.058(4)
_cell_volume                     3453.67
_exptl_crystal_colour            colorless
_exptl_crystal_description       block
_cell_formula_units_Z            2
loop_
_atom_site_label
_atom_site_type_symbol
_atom_site_fract_x
_atom_site_fract_y
_atom_site_fract_z
P1 P 1.17917(16) 0.63048(13) 0.40282(10)
F1 F 1.0821(4) 0.5881(3) 0.4290(2)
F2 F 1.2570(4) 0.6844(4) 0.4809(3)
F3 F 1.2229(5) 0.5368(5) 0.3962(4)
F4 F 1.2746(7) 0.6641(5) 0.3731(4)
F5 F 1.1003(4) 0.5781(3) 0.32278(19)
F6 F 1.1404(3) 0.7259(2) 0.4121(2)
P2 P 1.7114(2) 0.36094(15) 0.25203(12)
F7 F 1.6171(8) 0.3024(6) 0.2669(6)
F8 F 1.7802(6) 0.3697(13) 0.3147(6)
F9 F 1.7686(12) 0.2793(5) 0.2243(11)
F10 F 1.8159(4) 0.4281(3) 0.2400(2)
F11 F 1.6544(11) 0.3214(13) 0.1807(4)
F12 F 1.6647(6) 0.4430(6) 0.2610(10)
O1 O 0.9955(2) 1.19082(19) 0.41264(14)
O2 O 0.8224(2) 0.82839(19) 0.41636(14)
O3 O 0.6103(3) 1.0077(2) 0.29527(16)
O4 O 0.4848(2) 0.61001(19) 0.24418(14)
O5 O 0.4573(2) 0.76377(19) 0.03225(14)
O6 O 0.7326(2) 0.50109(18) 0.03462(14)
O7 O 0.7748(2) 0.77020(18) -0.08133(14)
O8 O 1.1079(2) 0.71334(17) 0.11200(13)
O9 O 0.9990(2) 1.02164(18) 0.15026(13)
O10 O 1.2944(3) 0.9575(2) 0.36039(16)
N1 N 1.0914(3) 1.3487(3) 0.2667(2)
N2 N 1.0566(3) 1.3444(3) 0.3644(2)
N3 N 0.8515(3) 0.7846(2) 0.20847(16)
N4 N 0.8673(3) 0.7104(2) 0.28331(16)
C1 C 1.0823(5) 1.3663(4) 0.1993(3)
H1 H 1.0054 1.3628 0.1771
H2 H 1.1098 1.3156 0.1659
H3 H 1.1256 1.4322 0.2101
C2 C 1.1706(4) 1.3084(3) 0.2965(3)
H4 H 1.2293 1.2871 0.2779
C3 C 1.1483(4) 1.3051(3) 0.3578(3)
H5 H 1.1884 1.2803 0.3900
C4 C 1.0239(4) 1.3696(3) 0.3082(2)
H6 H 0.9622 1.3979 0.2993
C5 C 1.0029(5) 1.3565(3) 0.4224(3)
H7 H 0.9593 1.4082 0.4245
H8 H 1.0593 1.3794 0.4690
C6 C 0.9283(4) 1.2604(3) 0.4114(2)
H9 H 0.8911 1.2712 0.4505
H10 H 0.8719 1.2358 0.3646
C7 C 0.9489(3) 1.1003(3) 0.41201(18)
C8 C 1.0175(3) 1.0334(3) 0.40980(17)
C9 C 0.9765(3) 0.9412(3) 0.41069(18)
H11 H 1.0227 0.8952 0.4102
C10 C 0.8693(3) 0.9163(3) 0.41228(18)
C11 C 0.7990(3) 0.9819(3) 0.41230(18)
C12 C 0.8412(3) 1.0754(3) 0.41309(19)
H12 H 0.7955 1.1220 0.4144
C13 C 0.8805(3) 0.7507(3) 0.4123(2)
H13 H 0.8673 0.7218 0.4476
H14 H 0.9600 0.7780 0.4245
C14 C 0.8434(3) 0.6706(3) 0.3369(2)
H15 H 0.8815 0.6155 0.3355
H16 H 0.7638 0.6440 0.3245
C15 C 0.9677(3) 0.7278(3) 0.2708(2)
H17 H 1.0322 0.7104 0.2912
C16 C 0.9578(3) 0.7742(3) 0.2241(2)
H18 H 1.0141 0.7957 0.2056
C17 C 0.7981(3) 0.7460(3) 0.24557(19)
H19 H 0.7234 0.7444 0.2451
C18 C 0.8025(3) 0.8287(3) 0.1586(2)
H20 H 0.7410 0.7797 0.1208
H21 H 0.8576 0.8492 0.1367
H22 H 0.7763 0.8868 0.1851
C19 C 0.6809(3) 0.9535(3) 0.4111(2)
H23 H 0.6496 1.0138 0.4232
H24 H 0.6771 0.9255 0.4482
C20 C 0.6133(3) 0.8782(3) 0.33805(19)
C21 C 0.5821(3) 0.9078(3) 0.2796(2)
C22 C 0.5258(3) 0.8375(3) 0.2113(2)
H25 H 0.5067 0.8582 0.1722
C23 C 0.4971(3) 0.7373(3) 0.19961(18)
C24 C 0.5204(3) 0.7085(3) 0.2578(2)
C25 C 0.5802(3) 0.7781(3) 0.32591(19)
H26 H 0.5988 0.7568 0.3648
C26 C 0.5635(4) 1.0476(4) 0.2437(3)
H27 H 0.5582 1.1168 0.2697
H28 H 0.4884 1.0084 0.2169
C27 C 0.6279(6) 1.0461(5) 0.1923(4)
H29 H 0.6231 0.9773 0.1608
H30 H 0.7046 1.0775 0.2187
H31 H 0.5994 1.0826 0.1631
C28 C 0.4858(4) 0.5817(3) 0.3042(2)
H32 H 0.4532 0.6270 0.3387
H33 H 0.5618 0.5849 0.3297
C29 C 0.4200(4) 0.4773(4) 0.2754(3)
H34 H 0.4534 0.4331 0.2418
H35 H 0.3450 0.4749 0.2502
H36 H 0.4186 0.4557 0.3155
C30 C 0.4414(3) 0.6623(3) 0.12337(19)
H37 H 0.4118 0.5981 0.1254
H38 H 0.3794 0.6860 0.1014
C31 C 0.5209(3) 0.6472(2) 0.07670(18)
C32 C 0.5915(3) 0.5820(2) 0.07958(18)
H39 H 0.5909 0.5490 0.1120
C33 C 0.6626(3) 0.5648(2) 0.03535(18)
C34 C 0.6622(3) 0.6113(2) -0.01369(18)
C35 C 0.5929(3) 0.6767(2) -0.01568(18)
H40 H 0.5923 0.7086 -0.0489
C36 C 0.5245(3) 0.6965(2) 0.02969(18)
C37 C 0.4672(3) 0.8236(3) -0.0097(2)
H41 H 0.4443 0.7815 -0.0618
H42 H 0.5438 0.8598 0.0031
C38 C 0.3931(4) 0.8953(3) 0.0082(3)
H43 H 0.3943 0.9363 -0.0206
H44 H 0.4185 0.9381 0.0596
H45 H 0.3182 0.8583 -0.0026
C39 C 0.7381(3) 0.4511(3) 0.0841(2)
H46 H 0.6646 0.4135 0.0781
H47 H 0.7661 0.4997 0.1345
C40 C 0.8148(4) 0.3816(3) 0.0664(3)
H48 H 0.7854 0.3334 0.0166
H49 H 0.8222 0.3464 0.0994
H50 H 0.8868 0.4197 0.0718
C41 C 0.7388(3) 0.5926(2) -0.06199(18)
H51 H 0.7046 0.5976 -0.1083
H52 H 0.7527 0.5249 -0.0725
C42 C 0.8463(3) 0.6687(2) -0.02466(17)
C43 C 0.9295(3) 0.6515(2) 0.02258(18)
H53 H 0.9216 0.5893 0.0275
C44 C 1.0240(3) 0.7242(2) 0.06263(18)
C45 C 1.0376(3) 0.8168(2) 0.05654(18)
C46 C 0.9548(3) 0.8328(3) 0.00757(18)
H54 H 0.9634 0.8943 0.0016
C47 C 0.8600(3) 0.7598(2) -0.03264(18)
C48 C 0.7821(3) 0.8601(3) -0.0936(2)
H55 H 0.8446 0.8697 -0.1138
H56 H 0.7935 0.9173 -0.0476
C49 C 0.6771(4) 0.8531(3) -0.1457(2)
H57 H 0.6661 0.7958 -0.1908
H58 H 0.6805 0.9138 -0.1556
H59 H 0.6160 0.8449 -0.1248
C50 C 1.0988(3) 0.6196(3) 0.1196(2)
H60 H 1.1048 0.5676 0.0753
H61 H 1.0271 0.6005 0.1277
C51 C 1.1903(3) 0.6305(3) 0.1832(2)
H62 H 1.2603 0.6575 0.1774
H63 H 1.1920 0.5654 0.1860
H64 H 1.1782 0.6756 0.2277
C52 C 1.1397(3) 0.8970(3) 0.10168(19)
H65 H 1.2051 0.8678 0.0977
H66 H 1.1437 0.9496 0.0819
C53 C 1.1423(3) 0.9432(2) 0.18050(19)
C54 C 1.2172(3) 0.9276(3) 0.2335(2)
H67 H 1.2695 0.8893 0.2199
C55 C 1.2176(3) 0.9666(3) 0.3064(2)
C56 C 1.1405(3) 1.0216(3) 0.32750(19)
C57 C 1.0680(3) 1.0403(3) 0.27537(19)
H68 H 1.0163 1.0792 0.2893
C58 C 1.0692(3) 1.0037(3) 0.20361(18)
C59 C 0.9302(3) 1.0893(3) 0.1734(2)
H69 H 0.9755 1.1552 0.2069
H70 H 0.8832 1.0646 0.1991
C60 C 0.8608(4) 1.0978(4) 0.1083(3)
H71 H 0.8187 1.0319 0.0745
H72 H 0.9078 1.1259 0.0847
H73 H 0.8105 1.1414 0.1229
C61 C 1.3308(4) 0.8695(4) 0.3479(2)
H74 H 1.3788 0.8627 0.3151
H75 H 1.2679 0.8121 0.3255
C62 C 1.3934(4) 0.8730(4) 0.4198(3)
H76 H 1.4166 0.8101 0.4135
H77 H 1.3465 0.8838 0.4528
H78 H 1.4580 0.9275 0.4400
C63 C 1.1344(3) 1.0568(3) 0.40579(19)
H79 H 1.1803 1.0239 0.4318
H80 H 1.1636 1.1293 0.4298
loop_
_geom_bond_atom_site_label_1
_geom_bond_atom_site_label_2
_geom_bond_site_symmetry_1
_geom_bond_site_symmetry_2
P1 F1 1_555 1_555
F2 P1 1_555 1_555
F3 P1 1_555 1_555
F4 P1 1_555 1_555
F5 P1 1_555 1_555
F6 P1 1_555 1_555
P2 F7 1_555 1_555
F8 P2 1_555 1_555
F9 P2 1_555 1_555
F10 P2 1_555 1_555
F11 P2 1_555 1_555
F12 P2 1_555 1_555
O1 C6 1_555 1_555
O2 C10 1_555 1_555
O3 C21 1_555 1_555
O4 C24 1_555 1_555
O5 C36 1_555 1_555
O6 C33 1_555 1_555
O7 C47 1_555 1_555
O8 C44 1_555 1_555
O9 C58 1_555 1_555
O10 C55 1_555 1_555
N1 C1 1_555 1_555
N2 C3 1_555 1_555
N3 C16 1_555 1_555
N4 C14 1_555 1_555
C1 H1 1_555 1_555
H2 C1 1_555 1_555
H3 C1 1_555 1_555
C2 N1 1_555 1_555
H4 C2 1_555 1_555
C3 C2 1_555 1_555
H5 C3 1_555 1_555
C4 N1 1_555 1_555
H6 C4 1_555 1_555
C5 N2 1_555 1_555
H7 C5 1_555 1_555
H8 C5 1_555 1_555
C6 C5 1_555 1_555
H9 C6 1_555 1_555
H10 C6 1_555 1_555
C7 O1 1_555 1_555
C8 C7 1_555 1_555
C9 C8 1_555 1_555
H11 C9 1_555 1_555
C10 C9 1_555 1_555
C11 C10 1_555 1_555
C12 C7 1_555 1_555
H12 C12 1_555 1_555
C13 O2 1_555 1_555
H13 C13 1_555 1_555
H14 C13 1_555 1_555
C14 C13 1_555 1_555
H15 C14 1_555 1_555
H16 C14 1_555 1_555
C15 N4 1_555 1_555
H17 C15 1_555 1_555
C16 C15 1_555 1_555
H18 C16 1_555 1_555
C17 N3 1_555 1_555
H19 C17 1_555 1_555
C18 N3 1_555 1_555
H20 C18 1_555 1_555
H21 C18 1_555 1_555
H22 C18 1_555 1_555
C19 C11 1_555 1_555
H23 C19 1_555 1_555
H24 C19 1_555 1_555
C20 C19 1_555 1_555
C21 C20 1_555 1_555
C22 C21 1_555 1_555
H25 C22 1_555 1_555
C23 C22 1_555 1_555
C24 C23 1_555 1_555
C25 C20 1_555 1_555
H26 C25 1_555 1_555
C26 O3 1_555 1_555
H27 C26 1_555 1_555
H28 C26 1_555 1_555
C27 C26 1_555 1_555
H29 C27 1_555 1_555
H30 C27 1_555 1_555
H31 C27 1_555 1_555
C28 O4 1_555 1_555
H32 C28 1_555 1_555
H33 C28 1_555 1_555
C29 C28 1_555 1_555
H34 C29 1_555 1_555
H35 C29 1_555 1_555
H36 C29 1_555 1_555
C30 C23 1_555 1_555
H37 C30 1_555 1_555
H38 C30 1_555 1_555
C31 C30 1_555 1_555
C32 C31 1_555 1_555
H39 C32 1_555 1_555
C33 C32 1_555 1_555
C34 C33 1_555 1_555
C35 C34 1_555 1_555
H40 C35 1_555 1_555
C36 C31 1_555 1_555
C37 O5 1_555 1_555
H41 C37 1_555 1_555
H42 C37 1_555 1_555
C38 C37 1_555 1_555
H43 C38 1_555 1_555
H44 C38 1_555 1_555
H45 C38 1_555 1_555
C39 O6 1_555 1_555
H46 C39 1_555 1_555
H47 C39 1_555 1_555
C40 C39 1_555 1_555
H48 C40 1_555 1_555
H49 C40 1_555 1_555
H50 C40 1_555 1_555
C41 C34 1_555 1_555
H51 C41 1_555 1_555
H52 C41 1_555 1_555
C42 C41 1_555 1_555
C43 C42 1_555 1_555
H53 C43 1_555 1_555
C44 C43 1_555 1_555
C45 C44 1_555 1_555
C46 C45 1_555 1_555
H54 C46 1_555 1_555
C47 C42 1_555 1_555
C48 O7 1_555 1_555
H55 C48 1_555 1_555
H56 C48 1_555 1_555
C49 C48 1_555 1_555
H57 C49 1_555 1_555
H58 C49 1_555 1_555
H59 C49 1_555 1_555
C50 O8 1_555 1_555
H60 C50 1_555 1_555
H61 C50 1_555 1_555
C51 C50 1_555 1_555
H62 C51 1_555 1_555
H63 C51 1_555 1_555
H64 C51 1_555 1_555
C52 C45 1_555 1_555
H65 C52 1_555 1_555
H66 C52 1_555 1_555
C53 C52 1_555 1_555
C54 C53 1_555 1_555
H67 C54 1_555 1_555
C55 C54 1_555 1_555
C56 C55 1_555 1_555
C57 C56 1_555 1_555
H68 C57 1_555 1_555
C58 C53 1_555 1_555
C59 O9 1_555 1_555
H69 C59 1_555 1_555
H70 C59 1_555 1_555
C60 C59 1_555 1_555
H71 C60 1_555 1_555
H72 C60 1_555 1_555
H73 C60 1_555 1_555
C61 O10 1_555 1_555
H74 C61 1_555 1_555
H75 C61 1_555 1_555
C62 C61 1_555 1_555
H76 C62 1_555 1_555
H77 C62 1_555 1_555
H78 C62 1_555 1_555
C63 C8 1_555 1_555
H79 C63 1_555 1_555
H80 C63 1_555 1_555
N2 C4 1_555 1_555
N4 C17 1_555 1_555
C11 C12 1_555 1_555
C24 C25 1_555 1_555
C35 C36 1_555 1_555
C46 C47 1_555 1_555
C56 C63 1_555 1_555
C57 C58 1_555 1_555

#END
