
#######################################################################
#
#                 Cambridge Crystallographic Data Centre
#                                CCDC 
#
#######################################################################
#
# If this CIF has been generated from an entry in the Cambridge 
# Structural Database, then it will include bibliographic, chemical, 
# crystal, experimental, refinement or atomic coordinate data resulting 
# from the CCDC's data processing and validation procedures.
#
#######################################################################

data_QOPKUB
_chemical_formula_moiety         'C7 H7 N3 O6'
_chemical_name_systematic        tris(Diformylamino)methane
_symmetry_cell_setting           orthorhombic
_symmetry_space_group_name_H-M   'P b c a'
_symmetry_Int_Tables_number      61
_space_group_name_Hall           '-P 2ac 2ab'
loop_
_symmetry_equiv_pos_site_id
_symmetry_equiv_pos_as_xyz
1 x,y,z
2 1/2-x,-y,1/2+z
3 -x,1/2+y,1/2-z
4 1/2+x,1/2-y,-z
5 -x,-y,-z
6 1/2+x,y,1/2-z
7 x,1/2-y,1/2+z
8 1/2-x,1/2+y,z
_cell_length_a                   12.159(2)
_cell_length_b                   10.661(2)
_cell_length_c                   14.813(2)
_cell_angle_alpha                90
_cell_angle_beta                 90
_cell_angle_gamma                90
_cell_volume                     1920.17
_exptl_crystal_colour            colorless
_exptl_crystal_description       block
_cell_formula_units_Z            8
loop_
_atom_site_label
_atom_site_type_symbol
_atom_site_fract_x
_atom_site_fract_y
_atom_site_fract_z
N1 N 0.32911(10) 0.04770(12) 0.37466(8)
O1 O 0.47678(11) -0.07865(12) 0.40831(9)
C1 C 0.38478(12) 0.15885(13) 0.33969(9)
H1 H 0.33832(12) 0.22967(13) 0.35770(9)
N2 N 0.38728(11) 0.16288(12) 0.24130(8)
O2 O 0.16382(10) 0.14852(13) 0.36330(11)
C2 C 0.3800(2) -0.0614(2) 0.40508(11)
H2 H 0.3347(2) -0.1262(2) 0.42454(11)
N3 N 0.49058(10) 0.18291(12) 0.38082(8)
O3 O 0.32639(12) 0.36534(11) 0.24492(9)
C3 C 0.21594(14) 0.0571(2) 0.38414(12)
H3 H 0.17821(14) -0.0112(2) 0.40797(12)
O4 O 0.43551(12) -0.04056(12) 0.21145(9)
C4 C 0.35426(14) 0.2762(2) 0.20204(11)
H4 H 0.35404(14) 0.2823(2) 0.13940(11)
O5 O 0.67379(10) 0.1414(2) 0.39123(10)
C5 C 0.40824(14) 0.0606(2) 0.18543(11)
H5 H 0.40044(14) 0.0720(2) 0.12351(11)
O6 O 0.41192(12) 0.32183(13) 0.47740(8)
C6 C 0.58804(13) 0.1250(2) 0.35320(11)
H6 H 0.58626(13) 0.0718(2) 0.30348(11)
C7 C 0.4929(2) 0.2714(2) 0.44890(10)
H7 H 0.5606(2) 0.2929(2) 0.47382(10)
loop_
_geom_bond_atom_site_label_1
_geom_bond_atom_site_label_2
_geom_bond_site_symmetry_1
_geom_bond_site_symmetry_2
N1 C1 1_555 1_555
O1 C2 1_555 1_555
C1 H1 1_555 1_555
N2 C1 1_555 1_555
O2 C3 1_555 1_555
C2 N1 1_555 1_555
H2 C2 1_555 1_555
N3 C1 1_555 1_555
O3 C4 1_555 1_555
C3 N1 1_555 1_555
H3 C3 1_555 1_555
O4 C5 1_555 1_555
C4 N2 1_555 1_555
H4 C4 1_555 1_555
O5 C6 1_555 1_555
C5 N2 1_555 1_555
H5 C5 1_555 1_555
O6 C7 1_555 1_555
C6 N3 1_555 1_555
H6 C6 1_555 1_555
C7 N3 1_555 1_555
H7 C7 1_555 1_555

#END
