
#######################################################################
#
#                 Cambridge Crystallographic Data Centre
#                                CCDC 
#
#######################################################################
#
# If this CIF has been generated from an entry in the Cambridge 
# Structural Database, then it will include bibliographic, chemical, 
# crystal, experimental, refinement or atomic coordinate data resulting 
# from the CCDC's data processing and validation procedures.
#
#######################################################################

data_QOPSOE
_chemical_formula_moiety         'C31 H27 N1'
_chemical_name_systematic        
2-Benzyl-1-(3,4-dimethylphenyl)-3,5-diphenyl-1H-pyrrole
_symmetry_cell_setting           orthorhombic
_symmetry_space_group_name_H-M   'P b c a'
_symmetry_Int_Tables_number      61
_space_group_name_Hall           '-P 2ac 2ab'
loop_
_symmetry_equiv_pos_site_id
_symmetry_equiv_pos_as_xyz
1 x,y,z
2 1/2-x,-y,1/2+z
3 -x,1/2+y,1/2-z
4 1/2+x,1/2-y,-z
5 -x,-y,-z
6 1/2+x,y,1/2-z
7 x,1/2-y,1/2+z
8 1/2-x,1/2+y,z
_cell_length_a                   18.967(3)
_cell_length_b                   11.7217(16)
_cell_length_c                   21.485(3)
_cell_angle_alpha                90
_cell_angle_beta                 90
_cell_angle_gamma                90
_cell_volume                     4776.66
_exptl_crystal_colour            colorless
_exptl_crystal_description       block
_chemical_melting_point          '140-141 deg.C'
_cell_formula_units_Z            8
loop_
_atom_site_label
_atom_site_type_symbol
_atom_site_fract_x
_atom_site_fract_y
_atom_site_fract_z
N1 N 0.06776(14) 0.0387(2) 0.16057(13)
C1 C 0.02552(17) 0.1347(3) 0.07882(14)
C2 C -0.03036(17) 0.1102(3) 0.12076(15)
H1 H -0.0773 0.1307 0.1152
C3 C -0.00397(17) 0.0516(3) 0.17071(15)
C4 C 0.02045(17) 0.1999(3) 0.01967(15)
C5 C 0.16156(17) 0.1039(3) 0.08496(17)
H2 H 0.1893 0.1173 0.1222
H3 H 0.1648 0.1722 0.0597
C6 C 0.08610(17) 0.0905(3) 0.10451(15)
C7 C -0.01756(19) 0.3016(3) 0.01741(17)
H4 H -0.0390 0.3289 0.0534
C8 C 0.19640(17) 0.0072(3) 0.04908(14)
C9 C -0.04078(17) 0.0057(3) 0.22599(15)
C10 C 0.15967(19) -0.0857(3) 0.02603(18)
H5 H 0.1113 -0.0911 0.0328
C11 C 0.26841(18) 0.0118(3) 0.03822(16)
H6 H 0.2942 0.0734 0.0531
C12 C 0.0521(2) 0.1625(3) -0.03487(16)
H7 H 0.0778 0.0950 -0.0346
C13 C -0.02302(19) -0.0995(3) 0.25256(17)
H8 H 0.0126 -0.1434 0.2348
C14 C -0.0240(2) 0.3626(4) -0.03752(19)
H9 H -0.0500 0.4298 -0.0381
C15 C 0.0460(2) 0.2243(4) -0.08998(18)
H10 H 0.0677 0.1981 -0.1260
C16 C 0.2651(2) -0.1656(4) -0.01705(18)
H11 H 0.2879 -0.2232 -0.0389
C17 C -0.1110(3) -0.0759(4) 0.3313(2)
H12 H -0.1338 -0.1020 0.3668
C18 C -0.0950(2) 0.0675(3) 0.25290(19)
H13 H -0.1079 0.1376 0.2361
C19 C 0.11733(18) 0.0010(3) 0.20752(18)
C20 C 0.1586(2) -0.0934(4) 0.1972(2)
H14 H 0.1555 -0.1341 0.1602
C21 C 0.1940(2) -0.1710(3) -0.00699(19)
H15 H 0.1684 -0.2325 -0.0224
C22 C 0.2075(2) -0.1278(4) 0.2463(3)
C23 C 0.3026(2) -0.0736(4) 0.00564(18)
H16 H 0.3510 -0.0691 -0.0010
C24 C -0.0577(2) -0.1390(4) 0.30489(18)
H17 H -0.0450 -0.2086 0.3223
C25 C 0.1219(2) 0.0602(4) 0.26385(18)
H18 H 0.0934 0.1237 0.2704
C26 C -0.1300(2) 0.0260(4) 0.3047(2)
H19 H -0.1670 0.0678 0.3217
C27 C 0.0079(2) 0.3244(4) -0.09111(19)
H20 H 0.0037 0.3658 -0.1279
C28 C 0.2091(3) -0.0631(6) 0.3011(2)
C29 C 0.1683(3) 0.0256(5) 0.3104(3)
H21 H 0.1705 0.0653 0.3478
C30 C 0.2643(3) -0.1068(7) 0.3498(3)
H22 H 0.3027 -0.0536 0.3525
H23 H 0.2820 -0.1799 0.3370
H24 H 0.2422 -0.1138 0.3898
C31 C 0.2506(3) -0.2262(5) 0.2350(3)
H25 H 0.2991 -0.2074 0.2426
H26 H 0.2451 -0.2500 0.1925
H27 H 0.2365 -0.2869 0.2622
loop_
_geom_bond_atom_site_label_1
_geom_bond_atom_site_label_2
_geom_bond_site_symmetry_1
_geom_bond_site_symmetry_2
N1 C3 1_555 1_555
C1 C2 1_555 1_555
C2 H1 1_555 1_555
C3 C2 1_555 1_555
C4 C1 1_555 1_555
C5 H2 1_555 1_555
H3 C5 1_555 1_555
C6 N1 1_555 1_555
C7 C4 1_555 1_555
H4 C7 1_555 1_555
C8 C5 1_555 1_555
C9 C3 1_555 1_555
C10 C8 1_555 1_555
H5 C10 1_555 1_555
C11 C8 1_555 1_555
H6 C11 1_555 1_555
C12 C4 1_555 1_555
H7 C12 1_555 1_555
C13 C9 1_555 1_555
H8 C13 1_555 1_555
C14 C7 1_555 1_555
H9 C14 1_555 1_555
C15 C12 1_555 1_555
H10 C15 1_555 1_555
C16 H11 1_555 1_555
C17 H12 1_555 1_555
C18 C9 1_555 1_555
H13 C18 1_555 1_555
C19 N1 1_555 1_555
C20 C19 1_555 1_555
H14 C20 1_555 1_555
C21 C10 1_555 1_555
H15 C21 1_555 1_555
C22 C20 1_555 1_555
C23 C11 1_555 1_555
H16 C23 1_555 1_555
C24 C13 1_555 1_555
H17 C24 1_555 1_555
C25 C19 1_555 1_555
H18 C25 1_555 1_555
C26 C17 1_555 1_555
H19 C26 1_555 1_555
C27 C14 1_555 1_555
H20 C27 1_555 1_555
C28 C22 1_555 1_555
C29 C25 1_555 1_555
H21 C29 1_555 1_555
C30 C28 1_555 1_555
H22 C30 1_555 1_555
H23 C30 1_555 1_555
H24 C30 1_555 1_555
C31 C22 1_555 1_555
H25 C31 1_555 1_555
H26 C31 1_555 1_555
H27 C31 1_555 1_555
C1 C6 1_555 1_555
C5 C6 1_555 1_555
C15 C27 1_555 1_555
C16 C21 1_555 1_555
C16 C23 1_555 1_555
C17 C24 1_555 1_555
C18 C26 1_555 1_555
C28 C29 1_555 1_555

#END
