
#######################################################################
#
#                 Cambridge Crystallographic Data Centre
#                                CCDC 
#
#######################################################################
#
# If this CIF has been generated from an entry in the Cambridge 
# Structural Database, then it will include bibliographic, chemical, 
# crystal, experimental, refinement or atomic coordinate data resulting 
# from the CCDC's data processing and validation procedures.
#
#######################################################################

data_QOPWOI
_chemical_formula_moiety         'C21 H20 O4'
_chemical_name_systematic        
trans-6,6-Dimethyl-1-(4-methylphenyl)-2-phenyl-5,7-dioxaspiro[2.5]octane-4,8-dione
_symmetry_cell_setting           triclinic
_symmetry_space_group_name_H-M   'P -1'
_symmetry_Int_Tables_number      2
_space_group_name_Hall           '-P 1'
loop_
_symmetry_equiv_pos_site_id
_symmetry_equiv_pos_as_xyz
1 x,y,z
2 -x,-y,-z
_cell_length_a                   9.5560(14)
_cell_length_b                   10.0612(15)
_cell_length_c                   10.3985(16)
_cell_angle_alpha                89.764(2)
_cell_angle_beta                 67.498(2)
_cell_angle_gamma                74.565(2)
_cell_volume                     884.955
_chemical_melting_point          148-149deg.C
_cell_formula_units_Z            2
_exptl_crystal_recrystallization_method dichloromethane/n-hexane
loop_
_atom_site_label
_atom_site_type_symbol
_atom_site_fract_x
_atom_site_fract_y
_atom_site_fract_z
C1 C 0.2722(2) 0.53595(18) 0.73293(18)
C2 C 0.0883(2) 0.58039(18) 0.77543(18)
H1 H 0.0322 0.5538 0.8677
C3 C 0.1873(2) 0.45850(18) 0.67233(19)
H2 H 0.2012 0.4762 0.5761
C4 C 0.3241(2) 0.4737(2) 0.8412(2)
C5 C 0.5009(2) 0.6146(2) 0.7918(2)
C6 C 0.3698(2) 0.61318(18) 0.63280(19)
C7 C 0.6727(3) 0.5866(3) 0.7616(3)
H3 H 0.6884 0.5754 0.8473
H4 H 0.7086 0.6630 0.7198
H5 H 0.7316 0.5033 0.6983
C8 C 0.3951(4) 0.7354(3) 0.8978(3)
H6 H 0.2877 0.7477 0.9091
H7 H 0.4252 0.8174 0.8668
H8 H 0.4040 0.7189 0.9857
C9 C 0.1805(2) 0.31420(19) 0.70147(18)
C10 C 0.0387(2) 0.2891(2) 0.7814(2)
H9 H -0.0522 0.3631 0.8217
C11 C 0.0307(3) 0.1554(2) 0.8019(2)
H10 H -0.0656 0.1399 0.8555
C12 C 0.1634(3) 0.0454(2) 0.7440(2)
H11 H 0.1576 -0.0447 0.7579
C13 C 0.3052(3) 0.0691(2) 0.6652(2)
H12 H 0.3962 -0.0052 0.6266
C14 C 0.3137(2) 0.2022(2) 0.6429(2)
H13 H 0.4100 0.2169 0.5879
C15 C -0.0044(2) 0.71320(18) 0.74847(19)
C16 C -0.1145(2) 0.80616(19) 0.8641(2)
H14 H -0.1220 0.7865 0.9536
C17 C -0.2120(3) 0.9268(2) 0.8470(2)
H15 H -0.2849 0.9870 0.9257
C18 C -0.2046(3) 0.9608(2) 0.7163(2)
C19 C -0.0959(2) 0.8683(2) 0.6022(2)
H16 H -0.0880 0.8889 0.5129
C20 C 0.0012(2) 0.7462(2) 0.6173(2)
H17 H 0.0716 0.6851 0.5384
C21 C -0.3083(3) 1.0947(3) 0.6980(3)
H18 H -0.4135 1.1117 0.7685
H19 H -0.3110 1.0882 0.6069
H20 H -0.2668 1.1695 0.7071
O1 O 0.46057(16) 0.49127(14) 0.83898(14)
O2 O 0.48658(16) 0.63995(14) 0.66047(13)
O3 O 0.25851(19) 0.40492(17) 0.92528(16)
O4 O 0.35581(15) 0.64936(14) 0.52690(13)
loop_
_geom_bond_atom_site_label_1
_geom_bond_atom_site_label_2
_geom_bond_site_symmetry_1
_geom_bond_site_symmetry_2
C1 C2 1_555 1_555
C2 H1 1_555 1_555
C3 C1 1_555 1_555
H2 C3 1_555 1_555
C4 C1 1_555 1_555
C5 C7 1_555 1_555
C6 C1 1_555 1_555
C7 H3 1_555 1_555
H4 C7 1_555 1_555
H5 C7 1_555 1_555
C8 C5 1_555 1_555
H6 C8 1_555 1_555
H7 C8 1_555 1_555
H8 C8 1_555 1_555
C9 C3 1_555 1_555
C10 C9 1_555 1_555
H9 C10 1_555 1_555
C11 C10 1_555 1_555
H10 C11 1_555 1_555
C12 C11 1_555 1_555
H11 C12 1_555 1_555
C13 C12 1_555 1_555
H12 C13 1_555 1_555
C14 C9 1_555 1_555
H13 C14 1_555 1_555
C15 C2 1_555 1_555
C16 C15 1_555 1_555
H14 C16 1_555 1_555
C17 C16 1_555 1_555
H15 C17 1_555 1_555
C18 C17 1_555 1_555
C19 C18 1_555 1_555
H16 C19 1_555 1_555
C20 C15 1_555 1_555
H17 C20 1_555 1_555
C21 C18 1_555 1_555
H18 C21 1_555 1_555
H19 C21 1_555 1_555
H20 C21 1_555 1_555
O1 C4 1_555 1_555
O2 C5 1_555 1_555
O3 C4 1_555 1_555
O4 C6 1_555 1_555
C2 C3 1_555 1_555
C5 O1 1_555 1_555
C6 O2 1_555 1_555
C13 C14 1_555 1_555
C19 C20 1_555 1_555

#END
