
#######################################################################
#
#                 Cambridge Crystallographic Data Centre
#                                CCDC 
#
#######################################################################
#
# If this CIF has been generated from an entry in the Cambridge 
# Structural Database, then it will include bibliographic, chemical, 
# crystal, experimental, refinement or atomic coordinate data resulting 
# from the CCDC's data processing and validation procedures.
#
#######################################################################

data_QOPWID
_chemical_formula_moiety         'C22 H20 N2 O3'
_chemical_name_systematic        
6-methoxy-2-(3-nitrophenyl)-4-phenyl-1,2,3,4-tetrahydroquinoline
_symmetry_cell_setting           triclinic
_symmetry_space_group_name_H-M   'P -1'
_symmetry_Int_Tables_number      2
_space_group_name_Hall           '-P 1'
loop_
_symmetry_equiv_pos_site_id
_symmetry_equiv_pos_as_xyz
1 x,y,z
2 -x,-y,-z
_cell_length_a                   9.226(5)
_cell_length_b                   9.609(5)
_cell_length_c                   12.006(7)
_cell_angle_alpha                84.063(13)
_cell_angle_beta                 72.757(12)
_cell_angle_gamma                69.008(12)
_cell_volume                     949.056
_exptl_crystal_colour            red
_exptl_crystal_description       block
_cell_formula_units_Z            2
loop_
_atom_site_label
_atom_site_type_symbol
_atom_site_fract_x
_atom_site_fract_y
_atom_site_fract_z
C1 C 0.8425(2) 0.6496(2) 0.61006(16)
H1 H 0.9394 0.6550 0.6143
C2 C 0.8015(2) 0.6786(2) 0.50614(17)
C3 C 0.6606(3) 0.6715(3) 0.49432(19)
H2 H 0.6363 0.6899 0.4232
C4 C 0.5558(3) 0.6356(3) 0.5929(2)
H3 H 0.4589 0.6310 0.5879
C5 C 0.5930(2) 0.6064(3) 0.69849(19)
H4 H 0.5209 0.5828 0.7634
C6 C 0.7380(2) 0.6122(2) 0.70836(17)
C7 C 0.7815(2) 0.5791(2) 0.82212(16)
H5 H 0.8942 0.5720 0.8075
C8 C 0.6755(2) 0.6977(2) 0.91606(17)
H6 H 0.5649 0.6993 0.9374
H7 H 0.6763 0.7951 0.8858
C9 C 0.7387(2) 0.66380(19) 1.02400(16)
H8 H 0.8405 0.6836 1.0029
C10 C 0.6230(2) 0.76898(19) 1.12417(16)
C11 C 0.6589(3) 0.8837(2) 1.1559(2)
H9 H 0.7553 0.8982 1.1153
C12 C 0.5530(4) 0.9782(3) 1.2480(3)
H10 H 0.5787 1.0554 1.2684
C13 C 0.4109(4) 0.9579(3) 1.3089(2)
H11 H 0.3404 1.0211 1.3706
C14 C 0.3730(3) 0.8450(3) 1.2788(2)
H12 H 0.2771 0.8306 1.3206
C15 C 0.4771(2) 0.7516(2) 1.1861(2)
H13 H 0.4490 0.6763 1.1651
C16 C 0.77799(18) 0.49852(19) 1.05740(15)
C17 C 0.8048(2) 0.4502(2) 1.16504(16)
H14 H 0.7950 0.5198 1.2177
C18 C 0.8462(2) 0.2995(2) 1.19626(17)
C19 C 0.8615(2) 0.1944(2) 1.11857(19)
H15 H 0.8891 0.0939 1.1382
C20 C 0.8347(2) 0.2423(2) 1.01045(18)
H16 H 0.8436 0.1724 0.9584
C21 C 0.7947(2) 0.3927(2) 0.97773(16)
C22 C 0.9126(4) 0.1135(3) 1.3413(3)
H17 H 0.8305 0.0755 1.3389
H18 H 0.9226 0.1058 1.4192
H19 H 1.0140 0.0566 1.2892
N1 N 0.9133(2) 0.7201(2) 0.40382(16)
N2 N 0.7667(2) 0.43540(19) 0.86834(15)
O1 O 0.8941(2) 0.7189(3) 0.30844(15)
O2 O 1.0243(3) 0.7491(3) 0.41771(16)
O3 O 0.86930(19) 0.26604(17) 1.30633(14)
H20 H 0.826(3) 0.361(3) 0.815(2)
loop_
_geom_bond_atom_site_label_1
_geom_bond_atom_site_label_2
_geom_bond_site_symmetry_1
_geom_bond_site_symmetry_2
C1 H1 1_555 1_555
C2 C1 1_555 1_555
C3 C2 1_555 1_555
H2 C3 1_555 1_555
C4 C3 1_555 1_555
H3 C4 1_555 1_555
C5 C4 1_555 1_555
H4 C5 1_555 1_555
C6 C1 1_555 1_555
C7 C6 1_555 1_555
H5 C7 1_555 1_555
C8 C7 1_555 1_555
H6 C8 1_555 1_555
H7 C8 1_555 1_555
C9 C8 1_555 1_555
H8 C9 1_555 1_555
C10 C9 1_555 1_555
C11 C10 1_555 1_555
H9 C11 1_555 1_555
C12 C11 1_555 1_555
H10 C12 1_555 1_555
C13 C12 1_555 1_555
H11 C13 1_555 1_555
C14 C13 1_555 1_555
H12 C14 1_555 1_555
C15 C10 1_555 1_555
H13 C15 1_555 1_555
C16 C9 1_555 1_555
C17 C16 1_555 1_555
H14 C17 1_555 1_555
C18 C17 1_555 1_555
C19 C18 1_555 1_555
H15 C19 1_555 1_555
C20 C19 1_555 1_555
H16 C20 1_555 1_555
C21 C16 1_555 1_555
C22 H17 1_555 1_555
H18 C22 1_555 1_555
H19 C22 1_555 1_555
N1 C2 1_555 1_555
N2 C7 1_555 1_555
O1 N1 1_555 1_555
O2 N1 1_555 1_555
O3 C18 1_555 1_555
H20 N2 1_555 1_555
C5 C6 1_555 1_555
C14 C15 1_555 1_555
C20 C21 1_555 1_555
C21 N2 1_555 1_555
C22 O3 1_555 1_555

#END
