
#######################################################################
#
#                 Cambridge Crystallographic Data Centre
#                                CCDC 
#
#######################################################################
#
# If this CIF has been generated from an entry in the Cambridge 
# Structural Database, then it will include bibliographic, chemical, 
# crystal, experimental, refinement or atomic coordinate data resulting 
# from the CCDC's data processing and validation procedures.
#
#######################################################################

data_QOPYEA
_chemical_formula_moiety         'C32 H20 B2 N2 O1 S2'
_chemical_name_systematic        
5H,5''H-Dispiro[dibenzo[b,d]borole-5,11'-[1,3]thiazolo[3',2':1,5][1,2]azaborolo[3,4-e][1,3]thiazolo[3,2-c][1,3,2]oxazaborinine-5',5''-dibenzo[b,d]borole]
_symmetry_cell_setting           triclinic
_symmetry_space_group_name_H-M   'P -1'
_symmetry_Int_Tables_number      2
_space_group_name_Hall           '-P 1'
loop_
_symmetry_equiv_pos_site_id
_symmetry_equiv_pos_as_xyz
1 x,y,z
2 -x,-y,-z
_cell_length_a                   13.961(2)
_cell_length_b                   14.0084(19)
_cell_length_c                   15.565(2)
_cell_angle_alpha                103.9745(18)
_cell_angle_beta                 113.3442(14)
_cell_angle_gamma                98.8409(2)
_cell_volume                     2603.75
_exptl_crystal_colour            yellow
_exptl_crystal_description       block
_chemical_melting_point          '563 K'
_cell_formula_units_Z            4
_exptl_crystal_preparation       fluorescent
loop_
_atom_site_label
_atom_site_type_symbol
_atom_site_fract_x
_atom_site_fract_y
_atom_site_fract_z
S1 S -0.03389(4) -0.03123(4) 0.35145(4)
C1 C 0.10171(14) -0.02389(13) 0.40239(13)
N1 N 0.12248(12) -0.10081(11) 0.43643(11)
C2 C 0.03080(15) -0.16759(15) 0.42293(14)
H1 H 0.0318 -0.2263 0.4432
C3 C -0.06090(15) -0.14166(15) 0.37801(14)
H2 H -0.1314 -0.1795 0.3629
C4 C 0.18630(14) 0.05206(13) 0.40811(13)
C5 C 0.28513(14) 0.03320(13) 0.43599(13)
C6 C 0.35705(14) 0.11089(13) 0.42498(13)
N2 N 0.30728(12) 0.17718(11) 0.39043(11)
C7 C 0.37564(15) 0.25423(14) 0.38505(13)
H3 H 0.3533 0.3081 0.3627
C8 C 0.47788(15) 0.24606(14) 0.41462(14)
H4 H 0.5355 0.2928 0.4154
S2 S 0.49037(4) 0.13963(4) 0.45086(4)
B1 B 0.18418(16) 0.15110(16) 0.37430(16)
B2 B 0.24614(17) -0.10004(17) 0.50096(16)
O1 O 0.31497(10) -0.04447(9) 0.46424(9)
C9 C 0.27432(14) -0.05010(17) 0.61573(14)
C10 C 0.28453(15) 0.04743(19) 0.67234(15)
H5 H 0.2821 0.1015 0.6452
C11 C 0.29854(17) 0.0660(3) 0.77006(17)
H6 H 0.3058 0.1327 0.8093
C12 C 0.30171(19) -0.0131(3) 0.80899(18)
H7 H 0.3096 -0.0001 0.8746
C13 C 0.29365(18) -0.1102(3) 0.75481(18)
H8 H 0.2973 -0.1635 0.7829
C14 C 0.28000(16) -0.1287(2) 0.65814(16)
C15 C 0.26677(16) -0.22684(18) 0.58667(17)
C16 C 0.26573(18) -0.3230(2) 0.5991(2)
H9 H 0.2762 -0.3308 0.6609
C17 C 0.24923(19) -0.4062(2) 0.5203(2)
H10 H 0.2485 -0.4713 0.5285
C18 C 0.23390(18) -0.39614(17) 0.4307(2)
H11 H 0.2227 -0.4540 0.3775
C19 C 0.23473(16) -0.30100(15) 0.41764(17)
H12 H 0.2241 -0.2946 0.3553
C20 C 0.25094(15) -0.21530(15) 0.49478(15)
C21 C 0.08716(14) 0.12842(14) 0.26544(13)
C22 C 0.05448(15) 0.05345(15) 0.17493(14)
H13 H 0.0987 0.0098 0.1682
C23 C -0.04279(16) 0.04186(16) 0.09393(14)
H14 H -0.0643 -0.0094 0.0321
C24 C -0.10849(16) 0.10467(16) 0.10297(14)
H15 H -0.1742 0.0970 0.0470
C25 C -0.07864(15) 0.17866(15) 0.19344(14)
H16 H -0.1240 0.2212 0.1998
C26 C 0.01787(14) 0.18988(14) 0.27432(13)
C27 C 0.06080(14) 0.25807(13) 0.37772(13)
C28 C 0.01406(15) 0.32622(14) 0.41722(14)
H17 H -0.0527 0.3352 0.3755
C29 C 0.06593(15) 0.38075(14) 0.51803(14)
H18 H 0.0345 0.4272 0.5455
C30 C 0.16400(15) 0.36780(14) 0.57939(14)
H19 H 0.1992 0.4056 0.6484
C31 C 0.21049(15) 0.29962(14) 0.53984(14)
H20 H 0.2777 0.2915 0.5818
C32 C 0.15903(14) 0.24335(13) 0.43919(13)
S3 S 0.35990(4) 0.41297(4) -0.08804(4)
C33 C 0.43554(15) 0.33801(13) -0.03601(13)
N3 N 0.50752(12) 0.32170(11) -0.07046(11)
C34 C 0.50367(16) 0.36921(14) -0.13916(14)
H21 H 0.5490 0.3647 -0.1713
C35 C 0.42977(17) 0.42263(15) -0.15662(15)
H22 H 0.4177 0.4607 -0.2010
C36 C 0.41884(15) 0.28675(14) 0.02750(13)
C37 C 0.46139(15) 0.20571(14) 0.03171(13)
C38 C 0.41454(15) 0.14610(14) 0.07743(13)
S4 S 0.42559(4) 0.03636(3) 0.10429(3)
C39 C 0.33006(15) 0.04531(14) 0.14760(13)
H23 H 0.3050 -0.0027 0.1733
C40 C 0.29540(15) 0.12924(14) 0.14039(13)
H24 H 0.2429 0.1471 0.1608
N4 N 0.34361(12) 0.18574(11) 0.10070(11)
B3 B 0.58798(18) 0.25447(16) -0.03106(16)
O2 O 0.52601(10) 0.17534(9) -0.00639(9)
B4 B 0.33757(18) 0.29021(16) 0.07757(16)
C41 C 0.62812(15) 0.20966(14) -0.11280(14)
C42 C 0.57225(15) 0.15239(14) -0.21352(14)
H25 H 0.4955 0.1254 -0.2439
C43 C 0.62809(16) 0.13427(14) -0.27015(14)
H26 H 0.5889 0.0972 -0.3393
C44 C 0.74031(16) 0.17010(15) -0.22609(14)
H27 H 0.7780 0.1557 -0.2646
C45 C 0.79770(16) 0.22688(15) -0.12612(14)
H28 H 0.8748 0.2507 -0.0957
C46 C 0.74168(15) 0.24892(14) -0.07045(13)
C47 C 0.78674(16) 0.31543(14) 0.03364(14)
C48 C 0.89503(17) 0.36642(15) 0.09887(15)
H29 H 0.9500 0.3614 0.0780
C49 C 0.92159(19) 0.42496(16) 0.19525(16)
H30 H 0.9952 0.4605 0.2408
C50 C 0.8409(2) 0.43145(16) 0.22476(15)
H31 H 0.8600 0.4706 0.2911
C51 C 0.73258(18) 0.38175(15) 0.15919(14)
H32 H 0.6784 0.3879 0.1809
C52 C 0.70256(16) 0.32281(14) 0.06178(14)
C53 C 0.22120(15) 0.30000(14) 0.00801(14)
C54 C 0.14363(16) 0.24168(16) -0.08788(15)
H33 H 0.1493 0.1770 -0.1191
C55 C 0.05767(17) 0.27727(17) -0.13853(17)
H34 H 0.0045 0.2367 -0.2039
C56 C 0.04959(18) 0.37237(18) -0.09332(18)
H35 H -0.0081 0.3973 -0.1289
C57 C 0.12438(17) 0.43079(16) 0.00262(17)
H36 H 0.1178 0.4951 0.0335
C58 C 0.20966(16) 0.39461(15) 0.05385(15)
C59 C 0.29929(16) 0.44526(14) 0.15511(15)
C60 C 0.31549(19) 0.53736(16) 0.22552(17)
H37 H 0.2647 0.5763 0.2109
C61 C 0.4061(2) 0.57131(18) 0.31674(18)
H38 H 0.4176 0.6341 0.3648
C62 C 0.48066(19) 0.51490(17) 0.33902(16)
H39 H 0.5420 0.5385 0.4024
C63 C 0.46540(17) 0.42335(16) 0.26823(15)
H40 H 0.5170 0.3853 0.2834
C64 C 0.37531(16) 0.38781(14) 0.17599(14)
loop_
_geom_bond_atom_site_label_1
_geom_bond_atom_site_label_2
_geom_bond_site_symmetry_1
_geom_bond_site_symmetry_2
S1 C1 1_555 1_555
C1 N1 1_555 1_555
N1 C2 1_555 1_555
C2 H1 1_555 1_555
C3 S1 1_555 1_555
H2 C3 1_555 1_555
C4 C1 1_555 1_555
C5 C4 1_555 1_555
C6 C5 1_555 1_555
N2 C6 1_555 1_555
C7 N2 1_555 1_555
H3 C7 1_555 1_555
C8 C7 1_555 1_555
H4 C8 1_555 1_555
S2 C6 1_555 1_555
B1 C4 1_555 1_555
B2 N1 1_555 1_555
O1 C5 1_555 1_555
C9 B2 1_555 1_555
C10 C9 1_555 1_555
H5 C10 1_555 1_555
C11 C10 1_555 1_555
H6 C11 1_555 1_555
C12 C11 1_555 1_555
H7 C12 1_555 1_555
C13 C12 1_555 1_555
H8 C13 1_555 1_555
C14 C9 1_555 1_555
C15 C14 1_555 1_555
C16 C15 1_555 1_555
H9 C16 1_555 1_555
C17 C16 1_555 1_555
H10 C17 1_555 1_555
C18 C17 1_555 1_555
H11 C18 1_555 1_555
C19 C18 1_555 1_555
H12 C19 1_555 1_555
C20 B2 1_555 1_555
C21 B1 1_555 1_555
C22 C21 1_555 1_555
H13 C22 1_555 1_555
C23 C22 1_555 1_555
H14 C23 1_555 1_555
C24 C23 1_555 1_555
H15 C24 1_555 1_555
C25 C24 1_555 1_555
H16 C25 1_555 1_555
C26 C21 1_555 1_555
C27 C26 1_555 1_555
C28 C27 1_555 1_555
H17 C28 1_555 1_555
C29 C28 1_555 1_555
H18 C29 1_555 1_555
C30 C29 1_555 1_555
H19 C30 1_555 1_555
C31 C30 1_555 1_555
H20 C31 1_555 1_555
C32 B1 1_555 1_555
S3 C33 1_555 1_555
C33 N3 1_555 1_555
N3 C34 1_555 1_555
C34 H21 1_555 1_555
C35 S3 1_555 1_555
H22 C35 1_555 1_555
C36 C33 1_555 1_555
C37 C36 1_555 1_555
C38 C37 1_555 1_555
S4 C38 1_555 1_555
C39 S4 1_555 1_555
H23 C39 1_555 1_555
C40 C39 1_555 1_555
H24 C40 1_555 1_555
N4 C38 1_555 1_555
B3 N3 1_555 1_555
O2 C37 1_555 1_555
B4 C36 1_555 1_555
C41 B3 1_555 1_555
C42 C41 1_555 1_555
H25 C42 1_555 1_555
C43 C42 1_555 1_555
H26 C43 1_555 1_555
C44 C43 1_555 1_555
H27 C44 1_555 1_555
C45 C44 1_555 1_555
H28 C45 1_555 1_555
C46 C41 1_555 1_555
C47 C46 1_555 1_555
C48 C47 1_555 1_555
H29 C48 1_555 1_555
C49 C48 1_555 1_555
H30 C49 1_555 1_555
C50 C49 1_555 1_555
H31 C50 1_555 1_555
C51 C50 1_555 1_555
H32 C51 1_555 1_555
C52 B3 1_555 1_555
C53 B4 1_555 1_555
C54 C53 1_555 1_555
H33 C54 1_555 1_555
C55 C54 1_555 1_555
H34 C55 1_555 1_555
C56 C55 1_555 1_555
H35 C56 1_555 1_555
C57 C56 1_555 1_555
H36 C57 1_555 1_555
C58 C53 1_555 1_555
C59 C58 1_555 1_555
C60 C59 1_555 1_555
H37 C60 1_555 1_555
C61 C60 1_555 1_555
H38 C61 1_555 1_555
C62 C61 1_555 1_555
H39 C62 1_555 1_555
C63 C62 1_555 1_555
H40 C63 1_555 1_555
C64 B4 1_555 1_555
C2 C3 1_555 1_555
N2 B1 1_555 1_555
C8 S2 1_555 1_555
B2 O1 1_555 1_555
C13 C14 1_555 1_555
C15 C20 1_555 1_555
C19 C20 1_555 1_555
C25 C26 1_555 1_555
C27 C32 1_555 1_555
C31 C32 1_555 1_555
C34 C35 1_555 1_555
C40 N4 1_555 1_555
N4 B4 1_555 1_555
B3 O2 1_555 1_555
C45 C46 1_555 1_555
C47 C52 1_555 1_555
C51 C52 1_555 1_555
C57 C58 1_555 1_555
C59 C64 1_555 1_555
C63 C64 1_555 1_555

#END
