
#######################################################################
#
#                 Cambridge Crystallographic Data Centre
#                                CCDC 
#
#######################################################################
#
# If this CIF has been generated from an entry in the Cambridge 
# Structural Database, then it will include bibliographic, chemical, 
# crystal, experimental, refinement or atomic coordinate data resulting 
# from the CCDC's data processing and validation procedures.
#
#######################################################################

data_QOPYAW
_chemical_formula_moiety         'C36 H24 B2 N2 O1,C1 H2 Cl2'
_chemical_name_systematic        
"5H,6''H-Dispiro[dibenzo[b,d]borole-5,13'-pyrido[1',2':1,5][1,2]azaborolo[3,4-e]pyrido[1,2-c][1,3,2]oxazaborinine-6',5''-dibenzo[b,d]borole] dichloromethane solvate"
_symmetry_cell_setting           monoclinic
_symmetry_space_group_name_H-M   'P 21/c'
_symmetry_Int_Tables_number      14
_space_group_name_Hall           '-P 2ybc'
loop_
_symmetry_equiv_pos_site_id
_symmetry_equiv_pos_as_xyz
1 x,y,z
2 -x,1/2+y,1/2-z
3 -x,-y,-z
4 x,1/2-y,1/2+z
_cell_length_a                   16.728(3)
_cell_length_b                   18.358(3)
_cell_length_c                   20.016(4)
_cell_angle_alpha                90
_cell_angle_beta                 102.638(2)
_cell_angle_gamma                90
_cell_volume                     5997.84
_exptl_crystal_colour            yellow
_exptl_crystal_description       block
_chemical_melting_point          'above 573 K'
_cell_formula_units_Z            8
_exptl_crystal_preparation       fluorescent
loop_
_atom_site_label
_atom_site_type_symbol
_atom_site_fract_x
_atom_site_fract_y
_atom_site_fract_z
C1 C -0.41863(17) 0.49765(16) 0.39246(15)
N1 N -0.40811(15) 0.53152(13) 0.33490(12)
C2 C -0.40675(19) 0.60449(17) 0.33181(16)
H1 H -0.3986 0.6276 0.2914
C3 C -0.4171(2) 0.64637(17) 0.38651(17)
H2 H -0.4166 0.6980 0.3837
C4 C -0.42821(19) 0.61245(18) 0.44569(16)
H3 H -0.4358 0.6408 0.4835
C5 C -0.42822(18) 0.53694(17) 0.44949(15)
H4 H -0.4346 0.5128 0.4900
C6 C -0.41860(17) 0.41885(16) 0.38191(15)
C7 C -0.40808(18) 0.40169(16) 0.31859(15)
C8 C -0.41046(18) 0.32644(16) 0.29850(15)
N2 N -0.41762(15) 0.27501(13) 0.34616(12)
C9 C -0.42197(19) 0.20387(17) 0.32847(16)
H5 H -0.4281 0.1686 0.3617
C10 C -0.4178(2) 0.18072(18) 0.26399(17)
H6 H -0.4205 0.1303 0.2531
C11 C -0.4097(2) 0.23194(18) 0.21531(17)
H7 H -0.4062 0.2171 0.1706
C12 C -0.4068(2) 0.30484(17) 0.23248(16)
H8 H -0.4023 0.3405 0.1991
B1 B -0.4026(2) 0.47383(19) 0.27504(17)
C13 C -0.32439(19) 0.48648(16) 0.24123(15)
C14 C -0.2412(2) 0.47588(17) 0.26668(16)
H9 H -0.2218 0.4619 0.3131
C15 C -0.1859(2) 0.48558(18) 0.22455(17)
H10 H -0.1289 0.4787 0.2425
C16 C -0.2137(2) 0.50515(19) 0.15663(17)
H11 H -0.1758 0.5103 0.1279
C17 C -0.2964(2) 0.51726(18) 0.13017(16)
H12 H -0.3151 0.5318 0.0838
C18 C -0.35149(19) 0.50799(16) 0.17197(15)
C19 C -0.44234(19) 0.51286(16) 0.15347(15)
C20 C -0.4923(2) 0.53373(16) 0.09121(15)
H13 H -0.4690 0.5495 0.0544
C21 C -0.5770(2) 0.53103(17) 0.08400(17)
H14 H -0.6119 0.5459 0.0422
C22 C -0.6111(2) 0.50667(17) 0.13761(17)
H15 H -0.6689 0.5036 0.1318
C23 C -0.56014(19) 0.48687(17) 0.19969(16)
H16 H -0.5837 0.4707 0.2362
C24 C -0.47558(19) 0.49036(16) 0.20907(15)
O1 O -0.43124(13) 0.37420(11) 0.43117(10)
B2 B -0.4064(2) 0.29604(19) 0.42643(17)
C25 C -0.45671(19) 0.24432(16) 0.46641(15)
C26 C -0.54000(19) 0.23445(17) 0.46151(16)
H17 H -0.5782 0.2592 0.4269
C27 C -0.5683(2) 0.18841(17) 0.50703(18)
H18 H -0.6254 0.1831 0.5042
C28 C -0.5126(2) 0.15066(18) 0.55628(17)
H19 H -0.5319 0.1192 0.5870
C29 C -0.4295(2) 0.15804(17) 0.56135(16)
H20 H -0.3918 0.1310 0.5946
C30 C -0.4011(2) 0.20572(16) 0.51708(15)
C31 C -0.3156(2) 0.22517(17) 0.51609(16)
C32 C -0.2434(2) 0.1983(2) 0.55769(19)
H21 H -0.2452 0.1630 0.5920
C33 C -0.1690(2) 0.2243(2) 0.5477(2)
H22 H -0.1195 0.2072 0.5761
C34 C -0.1661(2) 0.2745(2) 0.4973(2)
H23 H -0.1145 0.2914 0.4911
C35 C -0.2379(2) 0.3010(2) 0.45536(19)
H24 H -0.2351 0.3353 0.4204
C36 C -0.3134(2) 0.27733(17) 0.46456(15)
N3 N -0.85697(15) 0.10356(14) 0.09584(13)
C37 C -0.7985(2) 0.08422(19) 0.06317(16)
H25 H -0.7542 0.1165 0.0628
C38 C -0.8016(2) 0.0184(2) 0.03017(17)
H26 H -0.7600 0.0054 0.0069
C39 C -0.8657(2) -0.0288(2) 0.03107(17)
H27 H -0.8690 -0.0741 0.0077
C40 C -0.9256(2) -0.00954(18) 0.06648(16)
H28 H -0.9690 -0.0420 0.0690
C41 C -0.92015(18) 0.05811(17) 0.09789(15)
C42 C -0.97624(18) 0.09384(17) 0.13417(15)
C43 C -0.95028(19) 0.16196(17) 0.15534(15)
C44 C -1.00256(18) 0.20645(17) 0.18645(15)
N4 N -1.07167(16) 0.17559(14) 0.20057(13)
C45 C -1.1237(2) 0.21698(19) 0.22707(18)
H29 H -1.1716 0.1950 0.2361
C46 C -1.1102(2) 0.2895(2) 0.24154(19)
H30 H -1.1479 0.3169 0.2606
C47 C -1.0407(2) 0.32235(19) 0.22794(18)
H31 H -1.0304 0.3727 0.2370
C48 C -0.9867(2) 0.28018(18) 0.20080(17)
H32 H -0.9384 0.3017 0.1919
B3 B -0.8675(2) 0.1817(2) 0.13105(19)
C49 C -0.78625(19) 0.20644(17) 0.18582(16)
C50 C -0.7491(2) 0.17860(18) 0.25008(17)
H33 H -0.7723 0.1377 0.2679
C51 C -0.6780(2) 0.21083(19) 0.28814(18)
H34 H -0.6532 0.1919 0.3320
C52 C -0.6434(2) 0.2703(2) 0.2623(2)
H35 H -0.5948 0.2916 0.2886
C53 C -0.6789(2) 0.29894(18) 0.1989(2)
H36 H -0.6549 0.3396 0.1814
C54 C -0.75086(19) 0.26722(17) 0.16046(18)
C55 C -0.7992(2) 0.28922(17) 0.09321(18)
C56 C -0.7844(2) 0.34579(19) 0.0510(2)
H37 H -0.7378 0.3763 0.0647
C57 C -0.8389(3) 0.3570(2) -0.0115(2)
H38 H -0.8287 0.3949 -0.0409
C58 C -0.9081(3) 0.3135(2) -0.0316(2)
H39 H -0.9452 0.3221 -0.0741
C59 C -0.9225(2) 0.2574(2) 0.01065(18)
H40 H -0.9695 0.2274 -0.0034
C60 C -0.8691(2) 0.24442(18) 0.07333(17)
O2 O -1.04531(13) 0.06104(12) 0.13901(11)
B4 B -1.0913(2) 0.0898(2) 0.19022(18)
C61 C -1.06937(19) 0.04464(17) 0.26139(16)
C62 C -1.00046(19) 0.04014(18) 0.31474(17)
H41 H -0.9546 0.0706 0.3144
C63 C -0.9979(2) -0.00860(19) 0.36874(18)
H42 H -0.9505 -0.0108 0.4048
C64 C -1.0643(2) -0.05403(19) 0.37031(18)
H43 H -1.0617 -0.0876 0.4068
C65 C -1.1341(2) -0.04982(18) 0.31818(17)
H44 H -1.1798 -0.0804 0.3190
C66 C -1.13702(18) -0.00074(17) 0.26485(16)
C67 C -1.20709(18) 0.01585(17) 0.20782(15)
C68 C -1.2844(2) -0.0151(2) 0.19505(17)
H45 H -1.2964 -0.0542 0.2224
C69 C -1.3448(2) 0.0124(2) 0.14106(18)
H46 H -1.3983 -0.0079 0.1319
C70 C -1.3270(2) 0.0687(2) 0.10105(17)
H47 H -1.3687 0.0878 0.0653
C71 C -1.2481(2) 0.09789(19) 0.11285(16)
H48 H -1.2360 0.1361 0.0846
C72 C -1.18713(18) 0.07110(17) 0.16580(15)
C73 C -0.1469(3) 0.1093(2) 0.4155(2)
H49 H -0.1180 0.1505 0.4424
H50 H -0.1080 0.0848 0.3921
Cl1 Cl -0.17974(8) 0.04674(6) 0.47162(6)
Cl2 Cl -0.23046(7) 0.14273(6) 0.35409(5)
C74 C -0.8248(2) 0.3207(2) 0.3600(2)
H51 H -0.8504 0.2718 0.3537
H52 H -0.8072 0.3336 0.3174
Cl3 Cl -0.89756(6) 0.38442(6) 0.37448(5)
Cl4 Cl -0.73924(7) 0.31757(8) 0.42769(6)
loop_
_geom_bond_atom_site_label_1
_geom_bond_atom_site_label_2
_geom_bond_site_symmetry_1
_geom_bond_site_symmetry_2
C1 N1 1_555 1_555
N1 C2 1_555 1_555
C2 H1 1_555 1_555
C3 C2 1_555 1_555
H2 C3 1_555 1_555
C4 C3 1_555 1_555
H3 C4 1_555 1_555
C5 C1 1_555 1_555
H4 C5 1_555 1_555
C6 C1 1_555 1_555
C7 C6 1_555 1_555
C8 C7 1_555 1_555
N2 C8 1_555 1_555
C9 N2 1_555 1_555
H5 C9 1_555 1_555
C10 C9 1_555 1_555
H6 C10 1_555 1_555
C11 C10 1_555 1_555
H7 C11 1_555 1_555
C12 C8 1_555 1_555
H8 C12 1_555 1_555
B1 N1 1_555 1_555
C13 B1 1_555 1_555
C14 C13 1_555 1_555
H9 C14 1_555 1_555
C15 C14 1_555 1_555
H10 C15 1_555 1_555
C16 C15 1_555 1_555
H11 C16 1_555 1_555
C17 C16 1_555 1_555
H12 C17 1_555 1_555
C18 C13 1_555 1_555
C19 C18 1_555 1_555
C20 C19 1_555 1_555
H13 C20 1_555 1_555
C21 C20 1_555 1_555
H14 C21 1_555 1_555
C22 C21 1_555 1_555
H15 C22 1_555 1_555
C23 C22 1_555 1_555
H16 C23 1_555 1_555
C24 B1 1_555 1_555
O1 C6 1_555 1_555
B2 N2 1_555 1_555
C25 B2 1_555 1_555
C26 C25 1_555 1_555
H17 C26 1_555 1_555
C27 C26 1_555 1_555
H18 C27 1_555 1_555
C28 C27 1_555 1_555
H19 C28 1_555 1_555
C29 C28 1_555 1_555
H20 C29 1_555 1_555
C30 C25 1_555 1_555
C31 C30 1_555 1_555
C32 C31 1_555 1_555
H21 C32 1_555 1_555
C33 C32 1_555 1_555
H22 C33 1_555 1_555
C34 C33 1_555 1_555
H23 C34 1_555 1_555
C35 C34 1_555 1_555
H24 C35 1_555 1_555
C36 B2 1_555 1_555
N3 C37 1_555 1_555
C37 H25 1_555 1_555
C38 C37 1_555 1_555
H26 C38 1_555 1_555
C39 C38 1_555 1_555
H27 C39 1_555 1_555
C40 C39 1_555 1_555
H28 C40 1_555 1_555
C41 N3 1_555 1_555
C42 C41 1_555 1_555
C43 C42 1_555 1_555
C44 C43 1_555 1_555
N4 C44 1_555 1_555
C45 N4 1_555 1_555
H29 C45 1_555 1_555
C46 C45 1_555 1_555
H30 C46 1_555 1_555
C47 C46 1_555 1_555
H31 C47 1_555 1_555
C48 C44 1_555 1_555
H32 C48 1_555 1_555
B3 N3 1_555 1_555
C49 B3 1_555 1_555
C50 C49 1_555 1_555
H33 C50 1_555 1_555
C51 C50 1_555 1_555
H34 C51 1_555 1_555
C52 C51 1_555 1_555
H35 C52 1_555 1_555
C53 C52 1_555 1_555
H36 C53 1_555 1_555
C54 C49 1_555 1_555
C55 C54 1_555 1_555
C56 C55 1_555 1_555
H37 C56 1_555 1_555
C57 C56 1_555 1_555
H38 C57 1_555 1_555
C58 C57 1_555 1_555
H39 C58 1_555 1_555
C59 C58 1_555 1_555
H40 C59 1_555 1_555
C60 B3 1_555 1_555
O2 C42 1_555 1_555
B4 N4 1_555 1_555
C61 B4 1_555 1_555
C62 C61 1_555 1_555
H41 C62 1_555 1_555
C63 C62 1_555 1_555
H42 C63 1_555 1_555
C64 C63 1_555 1_555
H43 C64 1_555 1_555
C65 C64 1_555 1_555
H44 C65 1_555 1_555
C66 C61 1_555 1_555
C67 C66 1_555 1_555
C68 C67 1_555 1_555
H45 C68 1_555 1_555
C69 C68 1_555 1_555
H46 C69 1_555 1_555
C70 C69 1_555 1_555
H47 C70 1_555 1_555
C71 C70 1_555 1_555
H48 C71 1_555 1_555
C72 B4 1_555 1_555
C73 H49 1_555 1_555
H50 C73 1_555 1_555
Cl1 C73 1_555 1_555
Cl2 C73 1_555 1_555
C74 H51 1_555 1_555
H52 C74 1_555 1_555
Cl3 C74 1_555 1_555
Cl4 C74 1_555 1_555
C4 C5 1_555 1_555
C7 B1 1_555 1_555
C11 C12 1_555 1_555
C17 C18 1_555 1_555
C19 C24 1_555 1_555
C23 C24 1_555 1_555
O1 B2 1_555 1_555
C29 C30 1_555 1_555
C31 C36 1_555 1_555
C35 C36 1_555 1_555
C40 C41 1_555 1_555
C43 B3 1_555 1_555
C47 C48 1_555 1_555
C53 C54 1_555 1_555
C55 C60 1_555 1_555
C59 C60 1_555 1_555
O2 B4 1_555 1_555
C65 C66 1_555 1_555
C67 C72 1_555 1_555
C71 C72 1_555 1_555

#END
