
#######################################################################
#
#                 Cambridge Crystallographic Data Centre
#                                CCDC 
#
#######################################################################
#
# If this CIF has been generated from an entry in the Cambridge 
# Structural Database, then it will include bibliographic, chemical, 
# crystal, experimental, refinement or atomic coordinate data resulting 
# from the CCDC's data processing and validation procedures.
#
#######################################################################

data_QOQBUV
_chemical_formula_moiety         'C10 H6 O6 S2 2-,2(C5 H9 N2 1+)'
_chemical_name_systematic        
'bis(3,5-dimethyl-1H-pyrazol-2-ium) naphthalene-1,5-disulfonate'
_symmetry_cell_setting           triclinic
_symmetry_space_group_name_H-M   'P -1'
_symmetry_Int_Tables_number      2
_space_group_name_Hall           '-P 1'
loop_
_symmetry_equiv_pos_site_id
_symmetry_equiv_pos_as_xyz
1 x,y,z
2 -x,-y,-z
_cell_length_a                   8.0883(13)
_cell_length_b                   8.2960(15)
_cell_length_c                   8.9223(14)
_cell_angle_alpha                75.502(14)
_cell_angle_beta                 89.975(13)
_cell_angle_gamma                80.197(14)
_cell_volume                     570.605
_exptl_crystal_colour            colorless
_exptl_crystal_description       block
_cell_formula_units_Z            1
loop_
_atom_site_label
_atom_site_type_symbol
_atom_site_fract_x
_atom_site_fract_y
_atom_site_fract_z
N1 N 0.7902(4) 0.3615(4) -0.0224(4)
H1 H 0.7968 0.2803 -0.0673
N2 N 0.8544(4) 0.3475(4) 0.1194(4)
H2 H 0.9070 0.2556 0.1803
C1 C 0.6301(7) 0.5724(6) -0.2414(5)
H3 H 0.6951 0.6412 -0.3122
H4 H 0.5199 0.6357 -0.2376
H5 H 0.6213 0.4734 -0.2759
C2 C 0.7145(5) 0.5208(5) -0.0836(5)
C3 C 0.7355(6) 0.6080(6) 0.0249(6)
H6 H 0.6964 0.7225 0.0146
C4 C 0.8242(6) 0.4975(5) 0.1516(5)
C5 C 0.8799(7) 0.5176(6) 0.3041(6)
H7 H 0.9238 0.4085 0.3709
H8 H 0.7861 0.5710 0.3507
H9 H 0.9658 0.5864 0.2890
O1 O 0.7847(3) 0.0670(3) 0.9008(3)
O2 O 0.9188(3) -0.0889(3) 0.7247(3)
O3 O 0.8439(4) 0.2160(3) 0.6420(3)
S1 S 0.80439(13) 0.06167(13) 0.73857(12)
C6 C 0.4735(5) 0.0469(5) 0.7672(4)
H10 H 0.4907 0.0649 0.8644
C7 C 0.6037(5) 0.0388(4) 0.6722(4)
C8 C 0.5820(4) 0.0101(4) 0.5227(4)
C9 C 0.7134(5) -0.0005(4) 0.4188(4)
H11 H 0.8200 0.0122 0.4476
C10 C 0.6871(5) -0.0287(5) 0.2784(5)
H12 H 0.7753 -0.0361 0.2121
O1A O 0.2153(3) -0.0670(3) 0.0992(3)
O2A O 0.0812(3) 0.0889(3) 0.2753(3)
O3A O 0.1561(4) -0.2160(3) 0.3580(3)
S1A S 0.19561(13) -0.06167(13) 0.26143(12)
C6A C 0.5265(5) -0.0469(5) 0.2328(4)
H10A H 0.5093 -0.0649 0.1356
C7A C 0.3963(5) -0.0388(4) 0.3278(4)
C8A C 0.4180(4) -0.0101(4) 0.4773(4)
C9A C 0.2866(5) 0.0005(4) 0.5812(4)
H11A H 0.1800 -0.0122 0.5524
C10A C 0.3129(5) 0.0287(5) 0.7216(5)
H12A H 0.2247 0.0361 0.7879
loop_
_geom_bond_atom_site_label_1
_geom_bond_atom_site_label_2
_geom_bond_site_symmetry_1
_geom_bond_site_symmetry_2
N1 H1 1_555 1_555
N2 N1 1_555 1_555
H2 N2 1_555 1_555
C1 H3 1_555 1_555
H4 C1 1_555 1_555
H5 C1 1_555 1_555
C2 N1 1_555 1_555
C3 C2 1_555 1_555
H6 C3 1_555 1_555
C4 N2 1_555 1_555
C5 C4 1_555 1_555
H7 C5 1_555 1_555
H8 C5 1_555 1_555
H9 C5 1_555 1_555
O1 S1 1_555 1_555
O2 S1 1_555 1_555
O3 S1 1_555 1_555
S1 C7 1_555 1_555
C6 H10 1_555 1_555
C7 C6 1_555 1_555
C8 C7 1_555 1_555
C9 C8 1_555 1_555
H11 C9 1_555 1_555
C10 C9 1_555 1_555
H12 C10 1_555 1_555
O1A S1A 1_555 1_555
O2A S1A 1_555 1_555
O3A S1A 1_555 1_555
S1A C7A 1_555 1_555
C6A C10 1_555 1_555
H10A C6A 1_555 1_555
C7A C6A 1_555 1_555
C8A C8 1_555 1_555
C9A C8A 1_555 1_555
H11A C9A 1_555 1_555
C10A C6 1_555 1_555
H12A C10A 1_555 1_555
C1 C2 1_555 1_555
C3 C4 1_555 1_555
C7A C8A 1_555 1_555
C9A C10A 1_555 1_555

#END
