
#######################################################################
#
#                 Cambridge Crystallographic Data Centre
#                                CCDC 
#
#######################################################################
#
# If this CIF has been generated from an entry in the Cambridge 
# Structural Database, then it will include bibliographic, chemical, 
# crystal, experimental, refinement or atomic coordinate data resulting 
# from the CCDC's data processing and validation procedures.
#
#######################################################################

data_QOQDUX
_chemical_formula_moiety         'C22 H32 N2 O1'
_chemical_name_systematic        
5-Benzylidene-3-methyl-2-undecyl-3,5-dihydro-4H-imidazol-4-one
_symmetry_cell_setting           triclinic
_symmetry_space_group_name_H-M   'P -1'
_symmetry_Int_Tables_number      2
_space_group_name_Hall           '-P 1'
loop_
_symmetry_equiv_pos_site_id
_symmetry_equiv_pos_as_xyz
1 x,y,z
2 -x,-y,-z
_cell_length_a                   5.6582(11)
_cell_length_b                   12.974(3)
_cell_length_c                   14.827(3)
_cell_angle_alpha                110.141(15)
_cell_angle_beta                 96.028(17)
_cell_angle_gamma                96.58(2)
_cell_volume                     1002.9
_exptl_crystal_colour            'light yellow'
_exptl_crystal_description       rod
_cell_formula_units_Z            2
loop_
_atom_site_label
_atom_site_type_symbol
_atom_site_fract_x
_atom_site_fract_y
_atom_site_fract_z
O1 O 0.6912(3) 0.52890(15) 0.44236(14)
N1 N 0.4825(4) 0.67749(17) 0.47445(15)
N2 N 0.7208(4) 0.80491(17) 0.60732(15)
C1 C 1.1737(5) 0.7512(2) 0.71558(18)
C2 C 1.1424(5) 0.8585(2) 0.77231(18)
H1 H 1.0047 0.8878 0.7558
C3 C 1.3121(6) 0.9219(2) 0.8525(2)
H2 H 1.2907 0.9949 0.8906
C4 C 1.5128(5) 0.8800(2) 0.8776(2)
H3 H 1.6287 0.9245 0.9325
C5 C 1.5450(5) 0.7739(2) 0.82333(19)
H4 H 1.6821 0.7450 0.8409
C6 C 1.3763(5) 0.7097(2) 0.74297(18)
H5 H 1.3983 0.6365 0.7059
C7 C 1.0078(5) 0.6808(2) 0.62763(19)
H6 H 1.0408 0.6073 0.5987
C8 C 0.8158(5) 0.7047(2) 0.58184(18)
C9 C 0.6658(5) 0.6224(2) 0.49244(19)
C10 C 0.5267(5) 0.7847(2) 0.54412(18)
C11 C 0.2812(5) 0.6271(2) 0.39549(19)
H7 H 0.3166 0.5574 0.3501
H8 H 0.2559 0.6782 0.3611
H9 H 0.1354 0.6116 0.4220
C12 C 0.3641(5) 0.8671(2) 0.54399(19)
H10 H 0.2010 0.8374 0.5513
H11 H 0.3523 0.8771 0.4805
C13 C 0.4502(5) 0.9794(2) 0.62473(19)
H12 H 0.6063 1.0121 0.6136
H13 H 0.4780 0.9681 0.6875
C14 C 0.2741(5) 1.0616(2) 0.63212(19)
H14 H 0.2540 1.0774 0.5713
H15 H 0.1151 1.0280 0.6399
C15 C 0.3633(5) 1.1701(2) 0.7180(2)
H16 H 0.5269 1.2002 0.7115
H17 H 0.3766 1.1535 0.7785
C16 C 0.2047(5) 1.2596(2) 0.7281(2)
H18 H 0.1965 1.2793 0.6691
H19 H 0.0394 1.2295 0.7327
C17 C 0.2974(5) 1.3640(2) 0.8169(2)
H20 H 0.4631 1.3931 0.8119
H21 H 0.3066 1.3433 0.8754
C18 C 0.1467(5) 1.4570(2) 0.8315(2)
H22 H 0.1455 1.4817 0.7754
H23 H -0.0214 1.4276 0.8334
C19 C 0.2410(5) 1.5564(2) 0.9245(2)
H24 H 0.4072 1.5868 0.9212
H25 H 0.2490 1.5304 0.9800
C20 C 0.0908(5) 1.6501(2) 0.9446(2)
H26 H 0.0870 1.6784 0.8905
H27 H -0.0767 1.6199 0.9465
C21 C 0.1874(6) 1.7459(2) 1.0395(2)
H28 H 0.3545 1.7763 1.0374
H29 H 0.1923 1.7174 1.0935
C22 C 0.0375(6) 1.8397(2) 1.0607(2)
H30 H 0.0356 1.8700 1.0085
H31 H 0.1084 1.8987 1.1227
H32 H -0.1275 1.8108 1.0643
loop_
_geom_bond_atom_site_label_1
_geom_bond_atom_site_label_2
_geom_bond_site_symmetry_1
_geom_bond_site_symmetry_2
O1 C9 1_555 1_555
N1 C9 1_555 1_555
N2 C8 1_555 1_555
C1 C2 1_555 1_555
C2 H1 1_555 1_555
C3 C2 1_555 1_555
H2 C3 1_555 1_555
C4 C3 1_555 1_555
H3 C4 1_555 1_555
C5 C4 1_555 1_555
H4 C5 1_555 1_555
C6 C1 1_555 1_555
H5 C6 1_555 1_555
C7 C1 1_555 1_555
H6 C7 1_555 1_555
C8 C7 1_555 1_555
C9 C8 1_555 1_555
C10 N1 1_555 1_555
C11 N1 1_555 1_555
H7 C11 1_555 1_555
H8 C11 1_555 1_555
H9 C11 1_555 1_555
C12 C10 1_555 1_555
H10 C12 1_555 1_555
H11 C12 1_555 1_555
C13 C12 1_555 1_555
H12 C13 1_555 1_555
H13 C13 1_555 1_555
C14 C13 1_555 1_555
H14 C14 1_555 1_555
H15 C14 1_555 1_555
C15 C14 1_555 1_555
H16 C15 1_555 1_555
H17 C15 1_555 1_555
C16 C15 1_555 1_555
H18 C16 1_555 1_555
H19 C16 1_555 1_555
C17 C16 1_555 1_555
H20 C17 1_555 1_555
H21 C17 1_555 1_555
C18 C17 1_555 1_555
H22 C18 1_555 1_555
H23 C18 1_555 1_555
C19 C18 1_555 1_555
H24 C19 1_555 1_555
H25 C19 1_555 1_555
C20 C19 1_555 1_555
H26 C20 1_555 1_555
H27 C20 1_555 1_555
C21 C20 1_555 1_555
H28 C21 1_555 1_555
H29 C21 1_555 1_555
C22 C21 1_555 1_555
H30 C22 1_555 1_555
H31 C22 1_555 1_555
H32 C22 1_555 1_555
N2 C10 1_555 1_555
C5 C6 1_555 1_555

#END
