
#######################################################################
#
#                 Cambridge Crystallographic Data Centre
#                                CCDC 
#
#######################################################################
#
# If this CIF has been generated from an entry in the Cambridge 
# Structural Database, then it will include bibliographic, chemical, 
# crystal, experimental, refinement or atomic coordinate data resulting 
# from the CCDC's data processing and validation procedures.
#
#######################################################################

data_QOQDOR
_chemical_formula_moiety         'C14 H16 N2 O1'
_chemical_name_systematic        
5-Benzylidene-3-methyl-2-propyl-3,5-dihydro-4H-imidazol-4-one
_symmetry_cell_setting           triclinic
_symmetry_space_group_name_H-M   'P -1'
_symmetry_Int_Tables_number      2
_space_group_name_Hall           '-P 1'
loop_
_symmetry_equiv_pos_site_id
_symmetry_equiv_pos_as_xyz
1 x,y,z
2 -x,-y,-z
_cell_length_a                   5.5158(11)
_cell_length_b                   7.5368(15)
_cell_length_c                   15.265(3)
_cell_angle_alpha                79.63(3)
_cell_angle_beta                 88.97(3)
_cell_angle_gamma                77.03(3)
_cell_volume                     608.131
_exptl_crystal_colour            colorless
_exptl_crystal_description       block
_cell_formula_units_Z            2
loop_
_atom_site_label
_atom_site_type_symbol
_atom_site_fract_x
_atom_site_fract_y
_atom_site_fract_z
O1 O 0.1763(3) 0.1946(2) 0.52027(9)
N1 N 0.1929(3) 0.0797(2) 0.75617(10)
N2 N -0.0622(3) 0.2507(2) 0.64325(10)
C1 C 0.6753(3) -0.2062(3) 0.81862(13)
H1 H 0.5205 -0.1506 0.8411
C2 C 0.8607(4) -0.3165(3) 0.87661(14)
H2 H 0.8333 -0.3353 0.9389
C3 C 1.0872(4) -0.4004(3) 0.84455(15)
H3 H 1.2145 -0.4754 0.8848
C4 C 1.1263(4) -0.3745(3) 0.75419(15)
H4 H 1.2802 -0.4330 0.7322
C5 C 0.9428(3) -0.2636(3) 0.69522(13)
H5 H 0.9713 -0.2467 0.6330
C6 C 0.7149(3) -0.1760(3) 0.72674(12)
C7 C 0.5323(3) -0.0552(3) 0.66155(13)
H6 H 0.5757 -0.0536 0.6010
C8 C 0.3102(3) 0.0547(3) 0.67515(12)
C9 C 0.1459(3) 0.1699(3) 0.60056(13)
C10 C -0.2771(4) 0.3797(3) 0.59575(14)
H7 H -0.2616 0.5070 0.5947
H8 H -0.4297 0.3606 0.6261
H9 H -0.2841 0.3578 0.5346
C11 C -0.0211(3) 0.1917(3) 0.73442(12)
C12 C -0.2149(3) 0.2530(3) 0.79853(12)
H10 H -0.3690 0.2154 0.7852
H11 H -0.2531 0.3898 0.7903
C13 C -0.1356(3) 0.1727(3) 0.89528(12)
H12 H 0.0103 0.2186 0.9104
H13 H -0.0851 0.0362 0.9028
C14 C -0.3446(4) 0.2255(3) 0.95897(13)
H14 H -0.4886 0.1790 0.9447
H15 H -0.3922 0.3606 0.9528
H16 H -0.2872 0.1709 1.0203
loop_
_geom_bond_atom_site_label_1
_geom_bond_atom_site_label_2
_geom_bond_site_symmetry_1
_geom_bond_site_symmetry_2
O1 C9 1_555 1_555
N1 C8 1_555 1_555
N2 C9 1_555 1_555
C1 H1 1_555 1_555
C2 C1 1_555 1_555
H2 C2 1_555 1_555
C3 C2 1_555 1_555
H3 C3 1_555 1_555
C4 C3 1_555 1_555
H4 C4 1_555 1_555
C5 C4 1_555 1_555
H5 C5 1_555 1_555
C6 C1 1_555 1_555
C7 C6 1_555 1_555
H6 C7 1_555 1_555
C8 C7 1_555 1_555
C9 C8 1_555 1_555
C10 N2 1_555 1_555
H7 C10 1_555 1_555
H8 C10 1_555 1_555
H9 C10 1_555 1_555
C11 N1 1_555 1_555
C12 C11 1_555 1_555
H10 C12 1_555 1_555
H11 C12 1_555 1_555
C13 C12 1_555 1_555
H12 C13 1_555 1_555
H13 C13 1_555 1_555
C14 C13 1_555 1_555
H14 C14 1_555 1_555
H15 C14 1_555 1_555
H16 C14 1_555 1_555
N2 C11 1_555 1_555
C5 C6 1_555 1_555

#END
