
#######################################################################
#
#                 Cambridge Crystallographic Data Centre
#                                CCDC 
#
#######################################################################
#
# If this CIF has been generated from an entry in the Cambridge 
# Structural Database, then it will include bibliographic, chemical, 
# crystal, experimental, refinement or atomic coordinate data resulting 
# from the CCDC's data processing and validation procedures.
#
#######################################################################

data_QOQDUV
_chemical_name_common            
'C-Methylcalix[4]resorcinarene tris(trans-bis(4-pyridyl)ethylene)'
_chemical_formula_moiety         'C32 H32 O8,3(C12 H10 N2)'
_chemical_name_systematic        
'4,6,10,12,16,18,22,24-octahydroxy-2,8,14,20-tetramethylcalix[4]arene tris(trans-bis(4-pyridyl)ethylene)'
_symmetry_cell_setting           triclinic
_symmetry_space_group_name_H-M   'P -1'
_symmetry_Int_Tables_number      2
_space_group_name_Hall           '-P 1'
loop_
_symmetry_equiv_pos_site_id
_symmetry_equiv_pos_as_xyz
1 x,y,z
2 -x,-y,-z
_cell_length_a                   10.7187(4)
_cell_length_b                   11.1242(4)
_cell_length_c                   13.1204(5)
_cell_angle_alpha                110.452(1)
_cell_angle_beta                 105.252(1)
_cell_angle_gamma                96.896(1)
_cell_volume                     1374.76
_exptl_crystal_colour            yellow
_exptl_crystal_description       plate
_cell_formula_units_Z            1
loop_
_atom_site_label
_atom_site_type_symbol
_atom_site_fract_x
_atom_site_fract_y
_atom_site_fract_z
O1 O 0.32801(13) 0.82013(12) 0.23721(10)
O2 O 0.14186(14) 0.44385(14) 0.20029(12)
H1 H 0.069(3) 0.389(3) 0.174(2)
O3 O 0.30103(13) 0.08259(11) 0.26555(11)
H2 H 0.217(3) 0.049(2) 0.249(2)
O4 O 0.34187(14) 0.99924(12) 0.63139(11)
H3 H 0.293(2) 1.042(2) 0.607(2)
H4 H 0.328(2) 0.905(3) 0.250(2)
C1 C 0.34982(17) 0.81184(16) 0.34274(14)
C2 C 0.38614(16) 0.69959(15) 0.35366(14)
C3 C 0.41490(16) 0.69701(16) 0.46289(14)
H5 H 0.4452(17) 0.6212(18) 0.4731(15)
C4 C 0.39357(18) 0.58881(16) 0.24819(15)
H6 H 0.3174(19) 0.5788(19) 0.1740(17)
C5 C 0.5187(2) 0.62461(19) 0.22051(17)
H7 H 0.514(2) 0.558(2) 0.1390(19)
H8 H 0.601(2) 0.625(2) 0.2783(19)
H9 H 0.531(2) 0.717(2) 0.2208(18)
C6 C 0.37187(17) 0.45517(16) 0.25537(14)
C7 C 0.24276(17) 0.38562(16) 0.22904(14)
C8 C 0.21878(18) 0.26096(17) 0.23098(15)
H10 H 0.127(2) 0.2090(19) 0.2086(16)
C9 C 0.32389(18) 0.20520(16) 0.26265(14)
C10 C 0.45483(17) 0.27210(15) 0.29183(13)
C11 C 0.47475(18) 0.39574(16) 0.28707(14)
H11 H 0.5621(18) 0.4441(17) 0.3058(15)
C12 C 0.56795(17) 0.20754(16) 0.32395(14)
H12 H 0.5394(18) 0.1142(19) 0.2634(16)
C13 C 0.69796(19) 0.26988(19) 0.31662(17)
H13 H 0.729(2) 0.366(2) 0.3738(18)
H14 H 0.7731(18) 0.2267(17) 0.3388(15)
H15 H 0.687(2) 0.262(2) 0.2392(19)
C14 C 0.40591(16) 0.79791(15) 0.55799(14)
C15 C 0.35995(17) 0.90376(16) 0.54059(14)
C16 C 0.33474(18) 0.91166(16) 0.43404(15)
H16 H 0.3051(18) 0.9878(19) 0.4211(16)
C12A C 0.43205(17) 0.79246(16) 0.67605(14)
C10A C 0.54517(17) 0.72790(15) 0.70817(13)
C9A C 0.67611(18) 0.79480(16) 0.73735(14)
O3A O 0.69897(13) 0.91741(11) 0.73445(11)
H2A H 0.783(3) 0.951(2) 0.751(2)
C8A C 0.78122(18) 0.73904(17) 0.76902(15)
C7A C 0.75724(17) 0.61438(16) 0.77096(14)
O2A O 0.85814(14) 0.55615(14) 0.79971(12)
H1A H 0.931(3) 0.611(3) 0.826(2)
C6A C 0.62813(17) 0.54483(16) 0.74463(14)
C4A C 0.60643(18) 0.41119(16) 0.75181(15)
C2A C 0.61386(16) 0.30041(15) 0.64634(14)
C1A C 0.65018(17) 0.18816(16) 0.65726(14)
O1A O 0.67199(13) 0.17987(12) 0.76279(10)
H4A H 0.672(2) 0.095(3) 0.750(2)
C16A C 0.66526(18) 0.08834(16) 0.56596(15)
C15A C 0.64005(17) 0.09624(16) 0.45941(14)
O4A O 0.65813(14) 0.00076(12) 0.36861(11)
H3A H 0.707(2) -0.042(2) 0.393(2)
C14A C 0.59409(16) 0.20209(15) 0.44201(14)
C3A C 0.58510(16) 0.30299(16) 0.53711(14)
H5A H 0.5548(17) 0.3788(18) 0.5269(15)
H16A H 0.6949(18) 0.0122(19) 0.5789(16)
H6A H 0.6826(19) 0.4212(19) 0.8260(17)
C5A C 0.4813(2) 0.37539(19) 0.77949(17)
H7A H 0.486(2) 0.442(2) 0.8610(19)
H8A H 0.399(2) 0.375(2) 0.7217(19)
H9A H 0.469(2) 0.283(2) 0.7792(18)
C11A C 0.52525(18) 0.60426(16) 0.71293(14)
H11A H 0.4379(18) 0.5559(17) 0.6942(15)
H10A H 0.873(2) 0.7910(19) 0.7914(16)
H12A H 0.4606(18) 0.8858(19) 0.7366(16)
C13A C 0.30204(19) 0.73012(19) 0.68338(17)
H13A H 0.271(2) 0.634(2) 0.6262(18)
H14A H 0.2269(18) 0.7733(17) 0.6612(15)
H15A H 0.313(2) 0.738(2) 0.7608(19)
C17 C -0.9525(2) -0.02008(19) -0.23978(17)
H17 H -0.987(2) -0.113(2) -0.3026(19)
C18 C -0.81760(19) 0.03389(19) -0.18980(16)
H18 H -0.754(2) -0.022(2) -0.2180(18)
C19 C -0.77121(18) 0.16123(18) -0.10356(15)
C20 C -0.8657(2) 0.2305(2) -0.07785(17)
H19 H -0.8388(17) 0.3223(18) -0.0266(15)
C21 C -1.0016(2) 0.1687(2) -0.13512(18)
H20 H -1.059(3) 0.225(2) -0.120(2)
C22 C -0.62856(19) 0.21991(19) -0.04209(16)
H21 H -0.608(2) 0.307(2) 0.0172(19)
C23 C -0.53378(19) 0.15794(19) -0.06046(16)
H22 H -0.557(2) 0.064(2) -0.1156(19)
C24 C -0.39044(18) 0.21075(18) -0.00173(15)
C25 C -0.33179(19) 0.3450(2) 0.05661(17)
H23 H -0.385(2) 0.413(2) 0.0608(19)
C26 C -0.1957(2) 0.3862(2) 0.11085(18)
H24 H -0.148(2) 0.489(3) 0.159(2)
C27 C -0.1716(2) 0.1744(2) 0.05137(17)
H25 H -0.111(2) 0.113(2) 0.0462(19)
C28 C -0.3065(2) 0.1245(2) -0.00466(16)
H26 H -0.344(2) 0.028(2) -0.0465(17)
N1 N -1.04365(16) 0.04421(16) -0.21148(14)
N2 N -0.11496(16) 0.30272(17) 0.10944(15)
C29 C -0.0724(2) 0.82583(19) 0.40930(18)
H27 H -0.037(2) 0.891(2) 0.3816(18)
C30 C -0.0094(2) 0.72676(18) 0.41760(17)
H28 H 0.067(2) 0.715(2) 0.3889(17)
C31 C -0.05686(18) 0.64185(17) 0.46293(15)
C32 C -0.16676(19) 0.66360(18) 0.49846(16)
H29 H -0.2060(19) 0.6082(19) 0.5278(17)
C33 C -0.2245(2) 0.76489(17) 0.48647(16)
H30 H -0.302(2) 0.7822(19) 0.5133(17)
C34 C 0.01001(19) 0.53616(17) 0.47073(16)
H31 H 0.0782(18) 0.5246(17) 0.4294(16)
N3 N -0.17921(16) 0.84577(15) 0.44174(13)
C34A C -0.01001(19) 0.46384(17) 0.52927(16)
C31A C 0.05686(18) 0.35815(17) 0.53707(15)
C30A C 0.0094(2) 0.27324(18) 0.58240(17)
C29A C 0.0724(2) 0.17417(19) 0.59070(18)
H27A H 0.037(2) 0.109(2) 0.6184(18)
N3A N 0.17921(16) 0.15423(15) 0.55826(13)
C33A C 0.2245(2) 0.23511(17) 0.51353(16)
C32A C 0.16676(19) 0.33640(18) 0.50154(16)
H29A H 0.2060(19) 0.3918(19) 0.4722(17)
H30A H 0.302(2) 0.2178(19) 0.4867(17)
H28A H -0.067(2) 0.285(2) 0.6111(17)
H31A H -0.0782(18) 0.4754(17) 0.5706(16)
loop_
_geom_bond_atom_site_label_1
_geom_bond_atom_site_label_2
_geom_bond_site_symmetry_1
_geom_bond_site_symmetry_2
O1 H4 1_555 1_555
O2 H1 1_555 1_555
O3 H2 1_555 1_555
O4 H3 1_555 1_555
C1 O1 1_555 1_555
C2 C1 1_555 1_555
C3 C2 1_555 1_555
H5 C3 1_555 1_555
C4 C2 1_555 1_555
H6 C4 1_555 1_555
C5 C4 1_555 1_555
H7 C5 1_555 1_555
H8 C5 1_555 1_555
H9 C5 1_555 1_555
C6 C4 1_555 1_555
C7 O2 1_555 1_555
C8 C7 1_555 1_555
H10 C8 1_555 1_555
C9 O3 1_555 1_555
C10 C9 1_555 1_555
C11 C6 1_555 1_555
H11 C11 1_555 1_555
C12 C10 1_555 1_555
H12 C12 1_555 1_555
C13 C12 1_555 1_555
H13 C13 1_555 1_555
H14 C13 1_555 1_555
H15 C13 1_555 1_555
C14 C3 1_555 1_555
C15 O4 1_555 1_555
C16 C1 1_555 1_555
H16 C16 1_555 1_555
C17 H17 1_555 1_555
C18 C17 1_555 1_555
H18 C18 1_555 1_555
C19 C18 1_555 1_555
C20 C19 1_555 1_555
H19 C20 1_555 1_555
C21 C20 1_555 1_555
H20 C21 1_555 1_555
C22 C19 1_555 1_555
H21 C22 1_555 1_555
C23 C22 1_555 1_555
H22 C23 1_555 1_555
C24 C23 1_555 1_555
C25 C24 1_555 1_555
H23 C25 1_555 1_555
C26 C25 1_555 1_555
H24 C26 1_555 1_555
C27 H25 1_555 1_555
C28 C24 1_555 1_555
H26 C28 1_555 1_555
C29 H27 1_555 1_555
C30 C29 1_555 1_555
H28 C30 1_555 1_555
C31 C30 1_555 1_555
C32 C31 1_555 1_555
H29 C32 1_555 1_555
C33 C32 1_555 1_555
H30 C33 1_555 1_555
C34 C31 1_555 1_555
H31 C34 1_555 1_555
N1 C17 1_555 1_555
N2 C26 1_555 1_555
N3 C29 1_555 1_555
C12A C14 1_555 1_555
C10A C12A 1_555 1_555
C9A C10A 1_555 1_555
O3A C9A 1_555 1_555
H2A O3A 1_555 1_555
C8A C9A 1_555 1_555
C7A C8A 1_555 1_555
O2A C7A 1_555 1_555
H1A O2A 1_555 1_555
C6A C7A 1_555 1_555
C4A C6A 1_555 1_555
C2A C4A 1_555 1_555
C1A C2A 1_555 1_555
O1A C1A 1_555 1_555
H4A O1A 1_555 1_555
C16A C1A 1_555 1_555
C15A C16A 1_555 1_555
O4A C15A 1_555 1_555
H3A O4A 1_555 1_555
C14A C12 1_555 1_555
C3A C2A 1_555 1_555
H5A C3A 1_555 1_555
H16A C16A 1_555 1_555
H6A C4A 1_555 1_555
C5A C4A 1_555 1_555
H7A C5A 1_555 1_555
H8A C5A 1_555 1_555
H9A C5A 1_555 1_555
C11A C10A 1_555 1_555
H11A C11A 1_555 1_555
H10A C8A 1_555 1_555
H12A C12A 1_555 1_555
C13A C12A 1_555 1_555
H13A C13A 1_555 1_555
H14A C13A 1_555 1_555
H15A C13A 1_555 1_555
C34A C34 1_555 1_555
C31A C34A 1_555 1_555
C30A C31A 1_555 1_555
C29A C30A 1_555 1_555
H27A C29A 1_555 1_555
N3A C29A 1_555 1_555
C33A N3A 1_555 1_555
C32A C31A 1_555 1_555
H29A C32A 1_555 1_555
H30A C33A 1_555 1_555
H28A C30A 1_555 1_555
H31A C34A 1_555 1_555
C6 C7 1_555 1_555
C8 C9 1_555 1_555
C10 C11 1_555 1_555
C14 C15 1_555 1_555
C15 C16 1_555 1_555
C21 N1 1_555 1_555
C27 N2 1_555 1_555
C27 C28 1_555 1_555
C33 N3 1_555 1_555
C6A C11A 1_555 1_555
C15A C14A 1_555 1_555
C14A C3A 1_555 1_555
C33A C32A 1_555 1_555

#END
