
#######################################################################
#
#                 Cambridge Crystallographic Data Centre
#                                CCDC 
#
#######################################################################
#
# If this CIF has been generated from an entry in the Cambridge 
# Structural Database, then it will include bibliographic, chemical, 
# crystal, experimental, refinement or atomic coordinate data resulting 
# from the CCDC's data processing and validation procedures.
#
#######################################################################

data_QOQFAF
_chemical_formula_moiety         'C12 H12 N2 O1'
_chemical_name_systematic        
5-Benzylidene-2,3-dimethyl-3,5-dihydro-4H-imidazol-4-one
_symmetry_cell_setting           monoclinic
_symmetry_space_group_name_H-M   'P 21'
_symmetry_Int_Tables_number      4
_space_group_name_Hall           'P 2yb'
loop_
_symmetry_equiv_pos_site_id
_symmetry_equiv_pos_as_xyz
1 x,y,z
2 -x,1/2+y,-z
_cell_length_a                   7.2631(15)
_cell_length_b                   13.592(3)
_cell_length_c                   10.625(2)
_cell_angle_alpha                90
_cell_angle_beta                 96.84(3)
_cell_angle_gamma                90
_cell_volume                     1041.44
_exptl_crystal_colour            colorless
_exptl_crystal_description       block
_cell_formula_units_Z            4
loop_
_atom_site_label
_atom_site_type_symbol
_atom_site_fract_x
_atom_site_fract_y
_atom_site_fract_z
O1 O 0.8284(3) 0.27465(17) 0.75758(18)
N1 N 0.5313(3) 0.19023(19) 0.9767(2)
N2 N 0.5302(3) 0.21840(19) 0.7679(2)
C1 C 1.0381(5) 0.2655(3) 1.2486(3)
H1 H 1.1330 0.2948 1.2069
C2 C 1.0613(6) 0.2569(3) 1.3792(3)
H2 H 1.1713 0.2813 1.4261
C3 C 0.9283(5) 0.2137(2) 1.4421(3)
H3 H 0.9448 0.2089 1.5319
C4 C 0.7703(5) 0.1772(2) 1.3733(3)
H4 H 0.6789 0.1456 1.4159
C5 C 0.7434(4) 0.1863(2) 1.2425(3)
H5 H 0.6330 0.1614 1.1964
C6 C 0.8767(4) 0.2315(2) 1.1776(2)
C7 C 0.8551(4) 0.2453(2) 1.0411(3)
H6 H 0.9605 0.2709 1.0071
C8 C 0.7065(4) 0.2269(2) 0.9559(2)
C9 C 0.7066(4) 0.2445(2) 0.8176(3)
C10 C 0.4602(4) 0.2225(3) 0.6340(2)
H7 H 0.4310 0.1558 0.6027
H8 H 0.5546 0.2515 0.5867
H9 H 0.3478 0.2630 0.6225
C11 C 0.4354(4) 0.1869(2) 0.8663(3)
C12 C 0.2408(4) 0.1523(3) 0.8416(3)
H10 H 0.2337 0.0969 0.7822
H11 H 0.1619 0.2061 0.8050
H12 H 0.1981 0.1310 0.9214
O2 O 0.7416(3) 0.91757(18) 0.30638(19)
N3 N 1.0257(3) 1.00158(19) 0.0788(2)
N4 N 1.0352(3) 0.97842(19) 0.2900(2)
C13 C 0.5150(5) 0.9146(3) -0.1805(3)
H13 H 0.4263 0.8830 -0.1354
C14 C 0.4851(5) 0.9194(3) -0.3117(3)
H14 H 0.3769 0.8904 -0.3555
C15 C 0.6100(5) 0.9656(3) -0.3790(3)
H15 H 0.5893 0.9680 -0.4689
C16 C 0.7659(5) 1.0084(2) -0.3147(3)
H16 H 0.8513 1.0417 -0.3608
C17 C 0.7995(4) 1.0036(2) -0.1833(3)
H17 H 0.9081 1.0328 -0.1403
C18 C 0.6731(4) 0.9555(2) -0.1141(3)
C19 C 0.7021(4) 0.9446(2) 0.0229(3)
H18 H 0.5990 0.9198 0.0601
C20 C 0.8530(4) 0.9645(2) 0.1046(2)
C21 C 0.8594(4) 0.9490(2) 0.2432(3)
C22 C 1.1153(4) 0.9675(3) 0.4211(3)
H19 H 1.2184 0.9206 0.4259
H20 H 1.0206 0.9431 0.4717
H21 H 1.1611 1.0314 0.4542
C23 C 1.1253(4) 1.0068(2) 0.1880(3)
C24 C 1.3213(4) 1.0412(3) 0.2090(3)
H22 H 1.4024 0.9858 0.2369
H23 H 1.3334 1.0925 0.2743
H24 H 1.3570 1.0679 0.1298
loop_
_geom_bond_atom_site_label_1
_geom_bond_atom_site_label_2
_geom_bond_site_symmetry_1
_geom_bond_site_symmetry_2
O1 C9 1_555 1_555
N1 C8 1_555 1_555
N2 C9 1_555 1_555
C1 H1 1_555 1_555
C2 C1 1_555 1_555
H2 C2 1_555 1_555
C3 C2 1_555 1_555
H3 C3 1_555 1_555
C4 C3 1_555 1_555
H4 C4 1_555 1_555
C5 C4 1_555 1_555
H5 C5 1_555 1_555
C6 C1 1_555 1_555
C7 C6 1_555 1_555
H6 C7 1_555 1_555
C8 C7 1_555 1_555
C9 C8 1_555 1_555
C10 N2 1_555 1_555
H7 C10 1_555 1_555
H8 C10 1_555 1_555
H9 C10 1_555 1_555
C11 N1 1_555 1_555
C12 C11 1_555 1_555
H10 C12 1_555 1_555
H11 C12 1_555 1_555
H12 C12 1_555 1_555
O2 C21 1_555 1_555
N3 C20 1_555 1_555
N4 C21 1_555 1_555
C13 H13 1_555 1_555
C14 C13 1_555 1_555
H14 C14 1_555 1_555
C15 C14 1_555 1_555
H15 C15 1_555 1_555
C16 C15 1_555 1_555
H16 C16 1_555 1_555
C17 C16 1_555 1_555
H17 C17 1_555 1_555
C18 C13 1_555 1_555
C19 C18 1_555 1_555
H18 C19 1_555 1_555
C20 C19 1_555 1_555
C21 C20 1_555 1_555
C22 N4 1_555 1_555
H19 C22 1_555 1_555
H20 C22 1_555 1_555
H21 C22 1_555 1_555
C23 N3 1_555 1_555
C24 C23 1_555 1_555
H22 C24 1_555 1_555
H23 C24 1_555 1_555
H24 C24 1_555 1_555
N2 C11 1_555 1_555
C5 C6 1_555 1_555
N4 C23 1_555 1_555
C17 C18 1_555 1_555

#END
