
#######################################################################
#
#                 Cambridge Crystallographic Data Centre
#                                CCDC 
#
#######################################################################
#
# If this CIF has been generated from an entry in the Cambridge 
# Structural Database, then it will include bibliographic, chemical, 
# crystal, experimental, refinement or atomic coordinate data resulting 
# from the CCDC's data processing and validation procedures.
#
#######################################################################

data_QOQHAG
_chemical_formula_moiety         'C62 H66 O6'
_chemical_name_systematic        
1,1'-(benzene-1,4-diyldiethyne-2,1-diyl)bis(5-(2-[2-(2,6-diisopropylphenoxy)ethoxy]ethoxy)naphthalene)
_symmetry_cell_setting           monoclinic
_symmetry_space_group_name_H-M   'P 21/c'
_symmetry_Int_Tables_number      14
_space_group_name_Hall           '-P 2ybc'
loop_
_symmetry_equiv_pos_site_id
_symmetry_equiv_pos_as_xyz
1 x,y,z
2 -x,1/2+y,1/2-z
3 -x,-y,-z
4 x,1/2-y,1/2+z
_cell_length_a                   23.1301(16)
_cell_length_b                   11.8736(8)
_cell_length_c                   18.8402(13)
_cell_angle_alpha                90
_cell_angle_beta                 98.6560(10)
_cell_angle_gamma                90
_cell_volume                     5115.29
_exptl_crystal_colour            colorless
_exptl_crystal_description       platelet
_cell_formula_units_Z            4
_exptl_crystal_recrystallization_method 
'acetonitrile/dichloromethane/hexane/diisopropyl ether'
loop_
_atom_site_label
_atom_site_type_symbol
_atom_site_fract_x
_atom_site_fract_y
_atom_site_fract_z
O1 O 0.64436(5) 0.12729(10) 1.37008(6)
O2 O 0.76752(5) 0.06426(10) 1.37126(6)
O3 O 0.80422(5) 0.14689(9) 1.23637(5)
O4 O 1.15833(5) 0.23694(9) 0.38477(6)
O5 O 1.17064(5) 0.29204(10) 0.23947(6)
O6 O 1.28125(5) 0.20546(9) 0.19799(6)
C1 C 0.52709(9) 0.30783(17) 1.46473(11)
H1 H 0.5395 0.3443 1.5099
H2 H 0.4863 0.2897 1.4606
H3 H 0.5333 0.3573 1.4263
C2 C 0.55657(10) 0.12349(18) 1.52462(10)
H4 H 0.5683 0.1642 1.5684
H5 H 0.5812 0.0586 1.5234
H6 H 0.5166 0.0998 1.5222
C3 C 0.56235(8) 0.19972(16) 1.46056(10)
H7 H 0.6028 0.2203 1.4634
C4 C 0.59828(9) 0.1050(2) 1.16117(11)
H8 H 0.6259 0.0903 1.1290
H9 H 0.6002 0.1830 1.1746
H10 H 0.5595 0.0875 1.1377
C5 C 0.61537(10) -0.0922(2) 1.20826(13)
H11 H 0.6436 -0.1027 1.1764
H12 H 0.5776 -0.1160 1.1848
H13 H 0.6264 -0.1362 1.2509
C6 C 0.61293(8) 0.03194(19) 1.22827(10)
H14 H 0.6510 0.0535 1.2521
C7 C 0.56897(7) 0.05589(16) 1.27894(9)
C8 C 0.50996(8) 0.03392(18) 1.25772(10)
H15 H 0.4975 -0.0016 1.2122
C9 C 0.46858(8) 0.06207(19) 1.30079(10)
H16 H 0.4281 0.0444 1.2857
C10 C 0.48589(8) 0.11567(17) 1.36558(10)
H17 H 0.4568 0.1373 1.3944
C11 C 0.54436(7) 0.13892(15) 1.39002(9)
C12 C 0.58517(7) 0.10665(14) 1.34576(9)
C13 C 0.67231(8) 0.03018(16) 1.40502(10)
H18 H 0.6686 -0.0323 1.3723
H19 H 0.6536 0.0103 1.4455
C14 C 0.73548(8) 0.05427(17) 1.42963(9)
H20 H 0.7390 0.1230 1.4567
H21 H 0.7520 -0.0053 1.4608
C15 C 0.78349(8) 0.17483(14) 1.35591(9)
H22 H 0.7977 0.2137 1.3997
H23 H 0.7500 0.2148 1.3321
C16 C 0.83003(7) 0.17111(15) 1.30887(8)
H24 H 0.8499 0.2423 1.3106
H25 H 0.8582 0.1140 1.3257
C17 C 0.84114(7) 0.14546(12) 1.18605(8)
C18 C 0.90055(7) 0.15811(13) 1.20081(8)
H26 H 0.9190 0.1719 1.2491
C19 C 0.93456(7) 0.15081(13) 1.14483(8)
H27 H 0.9761 0.1613 1.1555
C20 C 0.90977(7) 0.12913(12) 1.07588(8)
H28 H 0.9339 0.1227 1.0389
C21 C 0.84836(7) 0.11614(12) 1.05889(8)
C22 C 0.81288(6) 0.12658(12) 1.11427(8)
C23 C 0.75162(7) 0.11564(13) 1.09719(8)
H29 H 0.7276 0.1237 1.1343
C24 C 0.72607(7) 0.09358(14) 1.02814(9)
H30 H 0.6843 0.0879 1.0172
C25 C 0.76027(7) 0.07914(14) 0.97326(8)
H31 H 0.7418 0.0616 0.9254
C26 C 0.82028(7) 0.09002(13) 0.98766(8)
C27 C 0.85565(7) 0.07417(13) 0.93188(8)
C28 C 0.88663(7) 0.05961(14) 0.88680(8)
C29 C 0.92141(7) 0.03960(14) 0.83094(8)
C30 C 0.96706(7) 0.11236(14) 0.82086(8)
H32 H 0.9770 0.1742 0.8532
C31 C 0.99802(7) 0.09528(14) 0.76414(8)
H33 H 1.0292 0.1456 0.7574
C32 C 0.98416(7) 0.00533(13) 0.71671(8)
C33 C 0.93989(7) -0.06986(14) 0.72860(8)
H34 H 0.9311 -0.1336 0.6975
C34 C 0.90881(7) -0.05267(14) 0.78482(8)
H35 H 0.8784 -0.1043 0.7923
C35 C 1.01427(7) -0.00770(14) 0.65595(8)
C36 C 1.03896(7) -0.01242(13) 0.60434(8)
C37 C 1.06999(7) -0.00208(13) 0.54410(8)
C38 C 1.09229(7) -0.09436(13) 0.51300(8)
H36 H 1.0852 -0.1687 0.5298
C39 C 1.12551(7) -0.08044(13) 0.45672(8)
H37 H 1.1403 -0.1453 0.4349
C40 C 1.13671(7) 0.02496(13) 0.43310(8)
H38 H 1.1606 0.0335 0.3960
C41 C 1.11360(6) 0.12164(13) 0.46247(8)
C42 C 1.07861(6) 0.10892(13) 0.51792(8)
C43 C 1.05337(7) 0.20599(14) 0.54515(8)
H39 H 1.0289 0.1981 0.5818
C44 C 1.06371(7) 0.30941(14) 0.51959(9)
H40 H 1.0464 0.3741 0.5385
C45 C 1.09940(7) 0.32447(14) 0.46575(9)
H41 H 1.1066 0.3987 0.4489
C46 C 1.12365(7) 0.23240(13) 0.43768(8)
C47 C 1.17248(7) 0.34668(13) 0.36100(9)
H42 H 1.1947 0.3874 0.3999
H43 H 1.1373 0.3880 0.3449
C48 C 1.20760(7) 0.33436(14) 0.30060(9)
H44 H 1.2233 0.4061 0.2897
H45 H 1.2396 0.2835 0.3143
C49 C 1.19172(8) 0.31060(15) 0.17306(9)
H46 H 1.2158 0.3769 0.1773
H47 H 1.1590 0.3244 0.1363
C50 C 1.22648(7) 0.21371(15) 0.15056(9)
H48 H 1.2048 0.1450 0.1521
H49 H 1.2336 0.2249 0.1022
C51 C 1.31179(7) 0.10784(13) 0.18594(8)
C52 C 1.30452(7) 0.01293(13) 0.22752(8)
C53 C 1.33495(7) -0.08448(14) 0.21430(9)
H50 H 1.3306 -0.1513 0.2417
C54 C 1.37152(7) -0.08644(14) 0.16206(9)
H51 H 1.3915 -0.1546 0.1529
C55 C 1.37904(7) 0.01000(15) 0.12338(9)
H52 H 1.4052 0.0086 0.0884
C56 C 1.34943(7) 0.10923(14) 0.13422(9)
C57 C 1.35998(8) 0.21533(15) 0.09305(10)
H53 H 1.3351 0.2731 0.1074
C58 C 1.34395(11) 0.2004(2) 0.01228(11)
H54 H 1.3513 0.2693 -0.0115
H55 H 1.3033 0.1813 0.0009
H56 H 1.3672 0.1412 -0.0036
C59 C 1.42328(9) 0.25547(18) 0.11313(12)
H57 H 1.4291 0.3225 0.0866
H58 H 1.4494 0.1977 0.1017
H59 H 1.4310 0.2713 0.1636
C60 C 1.26769(7) 0.01912(14) 0.28777(9)
H60 H 1.2372 0.0732 0.2738
C61 C 1.23850(11) -0.09201(17) 0.30027(14)
H61 H 1.2158 -0.0837 0.3387
H62 H 1.2678 -0.1487 0.3128
H63 H 1.2133 -0.1140 0.2573
C62 C 1.30488(9) 0.0632(2) 0.35575(10)
H64 H 1.3225 0.1334 0.3456
H65 H 1.3349 0.0095 0.3723
H66 H 1.2806 0.0745 0.3922
loop_
_geom_bond_atom_site_label_1
_geom_bond_atom_site_label_2
_geom_bond_site_symmetry_1
_geom_bond_site_symmetry_2
O1 C12 1_555 1_555
O2 C14 1_555 1_555
O3 C16 1_555 1_555
O4 C46 1_555 1_555
O5 C48 1_555 1_555
O6 C50 1_555 1_555
C1 H1 1_555 1_555
H2 C1 1_555 1_555
H3 C1 1_555 1_555
C2 H4 1_555 1_555
H5 C2 1_555 1_555
H6 C2 1_555 1_555
C3 C1 1_555 1_555
H7 C3 1_555 1_555
C4 H8 1_555 1_555
H9 C4 1_555 1_555
H10 C4 1_555 1_555
C5 H11 1_555 1_555
H12 C5 1_555 1_555
H13 C5 1_555 1_555
C6 C4 1_555 1_555
H14 C6 1_555 1_555
C7 C6 1_555 1_555
C8 C7 1_555 1_555
H15 C8 1_555 1_555
C9 C8 1_555 1_555
H16 C9 1_555 1_555
C10 C9 1_555 1_555
H17 C10 1_555 1_555
C11 C3 1_555 1_555
C12 C7 1_555 1_555
C13 O1 1_555 1_555
H18 C13 1_555 1_555
H19 C13 1_555 1_555
C14 C13 1_555 1_555
H20 C14 1_555 1_555
H21 C14 1_555 1_555
C15 O2 1_555 1_555
H22 C15 1_555 1_555
H23 C15 1_555 1_555
C16 C15 1_555 1_555
H24 C16 1_555 1_555
H25 C16 1_555 1_555
C17 O3 1_555 1_555
C18 C17 1_555 1_555
H26 C18 1_555 1_555
C19 C18 1_555 1_555
H27 C19 1_555 1_555
C20 C19 1_555 1_555
H28 C20 1_555 1_555
C21 C20 1_555 1_555
C22 C17 1_555 1_555
C23 C22 1_555 1_555
H29 C23 1_555 1_555
C24 C23 1_555 1_555
H30 C24 1_555 1_555
C25 C24 1_555 1_555
H31 C25 1_555 1_555
C26 C21 1_555 1_555
C27 C26 1_555 1_555
C28 C27 1_555 1_555
C29 C28 1_555 1_555
C30 C29 1_555 1_555
H32 C30 1_555 1_555
C31 C30 1_555 1_555
H33 C31 1_555 1_555
C32 C31 1_555 1_555
C33 C32 1_555 1_555
H34 C33 1_555 1_555
C34 C29 1_555 1_555
H35 C34 1_555 1_555
C35 C32 1_555 1_555
C36 C35 1_555 1_555
C37 C36 1_555 1_555
C38 C37 1_555 1_555
H36 C38 1_555 1_555
C39 C38 1_555 1_555
H37 C39 1_555 1_555
C40 C39 1_555 1_555
H38 C40 1_555 1_555
C41 C40 1_555 1_555
C42 C37 1_555 1_555
C43 C42 1_555 1_555
H39 C43 1_555 1_555
C44 C43 1_555 1_555
H40 C44 1_555 1_555
C45 C44 1_555 1_555
H41 C45 1_555 1_555
C46 C41 1_555 1_555
C47 O4 1_555 1_555
H42 C47 1_555 1_555
H43 C47 1_555 1_555
C48 C47 1_555 1_555
H44 C48 1_555 1_555
H45 C48 1_555 1_555
C49 O5 1_555 1_555
H46 C49 1_555 1_555
H47 C49 1_555 1_555
C50 C49 1_555 1_555
H48 C50 1_555 1_555
H49 C50 1_555 1_555
C51 O6 1_555 1_555
C52 C51 1_555 1_555
C53 C52 1_555 1_555
H50 C53 1_555 1_555
C54 C53 1_555 1_555
H51 C54 1_555 1_555
C55 C54 1_555 1_555
H52 C55 1_555 1_555
C56 C51 1_555 1_555
C57 C56 1_555 1_555
H53 C57 1_555 1_555
C58 C57 1_555 1_555
H54 C58 1_555 1_555
H55 C58 1_555 1_555
H56 C58 1_555 1_555
C59 C57 1_555 1_555
H57 C59 1_555 1_555
H58 C59 1_555 1_555
H59 C59 1_555 1_555
C60 C52 1_555 1_555
H60 C60 1_555 1_555
C61 C60 1_555 1_555
H61 C61 1_555 1_555
H62 C61 1_555 1_555
H63 C61 1_555 1_555
C62 C60 1_555 1_555
H64 C62 1_555 1_555
H65 C62 1_555 1_555
H66 C62 1_555 1_555
C2 C3 1_555 1_555
C5 C6 1_555 1_555
C10 C11 1_555 1_555
C11 C12 1_555 1_555
C21 C22 1_555 1_555
C25 C26 1_555 1_555
C33 C34 1_555 1_555
C41 C42 1_555 1_555
C45 C46 1_555 1_555
C55 C56 1_555 1_555

#END
