
#######################################################################
#
#                 Cambridge Crystallographic Data Centre
#                                CCDC 
#
#######################################################################
#
# If this CIF has been generated from an entry in the Cambridge 
# Structural Database, then it will include bibliographic, chemical, 
# crystal, experimental, refinement or atomic coordinate data resulting 
# from the CCDC's data processing and validation procedures.
#
#######################################################################

data_QOQJEN
_chemical_formula_moiety         'C12 H11 N2 O1 1+,I1 1-'
_chemical_name_systematic        
'1-((2-hydroxybenzylidene)amino)pyridinium iodide'
_symmetry_cell_setting           monoclinic
_symmetry_space_group_name_H-M   'P 21/c'
_symmetry_Int_Tables_number      14
_space_group_name_Hall           '-P 2ybc'
loop_
_symmetry_equiv_pos_site_id
_symmetry_equiv_pos_as_xyz
1 x,y,z
2 -x,1/2+y,1/2-z
3 -x,-y,-z
4 x,1/2-y,1/2+z
_cell_length_a                   12.4957(17)
_cell_length_b                   7.5040(10)
_cell_length_c                   13.7160(16)
_cell_angle_alpha                90
_cell_angle_beta                 106.378(4)
_cell_angle_gamma                90
_cell_volume                     1233.93
_exptl_crystal_description       club
_cell_formula_units_Z            4
loop_
_atom_site_label
_atom_site_type_symbol
_atom_site_fract_x
_atom_site_fract_y
_atom_site_fract_z
I1 I 0.165988(16) 0.15300(3) 0.579343(13)
O1 O 0.2355(2) 0.4537(4) 0.33078(16)
H1 H 0.2319 0.4133 0.2744
N1 N 0.2115(2) 0.6237(3) 0.66062(18)
N2 N 0.2949(2) 0.6566(3) 0.61074(18)
C1 C 0.1049(3) 0.6685(4) 0.6198(3)
H2 H 0.0817 0.7189 0.5553
C2 C 0.0301(3) 0.6391(4) 0.6742(3)
H3 H -0.0447 0.6673 0.6462
C3 C 0.0656(3) 0.5678(5) 0.7707(3)
H4 H 0.0151 0.5485 0.8080
C4 C 0.1763(3) 0.5255(5) 0.8110(2)
H5 H 0.2016 0.4777 0.8760
C5 C 0.2488(2) 0.5547(4) 0.7540(2)
H6 H 0.3240 0.5266 0.7802
C6 C 0.2705(3) 0.6054(4) 0.5186(2)
H7 H 0.2025 0.5499 0.4893
C7 C 0.3488(3) 0.6336(4) 0.4591(2)
C8 C 0.4438(2) 0.7385(4) 0.4961(2)
H8 H 0.4574 0.7928 0.5594
C9 C 0.5176(3) 0.7617(5) 0.4392(3)
H9 H 0.5809 0.8316 0.4641
C10 C 0.4977(3) 0.6815(4) 0.3456(3)
H10 H 0.5478 0.6978 0.3074
C11 C 0.4043(3) 0.5774(5) 0.3077(2)
H11 H 0.3918 0.5232 0.2445
C12 C 0.3292(2) 0.5537(4) 0.3639(2)
loop_
_geom_bond_atom_site_label_1
_geom_bond_atom_site_label_2
_geom_bond_site_symmetry_1
_geom_bond_site_symmetry_2
O1 H1 1_555 1_555
N1 N2 1_555 1_555
N2 C6 1_555 1_555
C1 N1 1_555 1_555
H2 C1 1_555 1_555
C2 C1 1_555 1_555
H3 C2 1_555 1_555
C3 C2 1_555 1_555
H4 C3 1_555 1_555
C4 C3 1_555 1_555
H5 C4 1_555 1_555
C5 N1 1_555 1_555
H6 C5 1_555 1_555
C6 H7 1_555 1_555
C7 C6 1_555 1_555
C8 C7 1_555 1_555
H8 C8 1_555 1_555
C9 C8 1_555 1_555
H9 C9 1_555 1_555
C10 C9 1_555 1_555
H10 C10 1_555 1_555
C11 C10 1_555 1_555
H11 C11 1_555 1_555
C12 O1 1_555 1_555
C4 C5 1_555 1_555
C7 C12 1_555 1_555
C11 C12 1_555 1_555

#END
