
#######################################################################
#
#                 Cambridge Crystallographic Data Centre
#                                CCDC 
#
#######################################################################
#
# If this CIF has been generated from an entry in the Cambridge 
# Structural Database, then it will include bibliographic, chemical, 
# crystal, experimental, refinement or atomic coordinate data resulting 
# from the CCDC's data processing and validation procedures.
#
#######################################################################

data_QOQJOX
_chemical_formula_moiety         'C13 H14 N2,C8 H8 O4'
_chemical_name_systematic        
"4-hydroxy-3-methoxybenzoic acid 4,4'-methylenedianiline"
_symmetry_cell_setting           monoclinic
_symmetry_space_group_name_H-M   'P 21/n'
_symmetry_Int_Tables_number      14
_space_group_name_Hall           '-P 2yn'
loop_
_symmetry_equiv_pos_site_id
_symmetry_equiv_pos_as_xyz
1 x,y,z
2 1/2-x,1/2+y,1/2-z
3 -x,-y,-z
4 1/2+x,1/2-y,1/2+z
_cell_length_a                   10.0656(15)
_cell_length_b                   10.0018(13)
_cell_length_c                   19.208(3)
_cell_angle_alpha                90
_cell_angle_beta                 104.201(2)
_cell_angle_gamma                90
_cell_volume                     1874.66
_exptl_crystal_colour            colorless
_exptl_crystal_description       block
_cell_formula_units_Z            4
loop_
_atom_site_label
_atom_site_type_symbol
_atom_site_fract_x
_atom_site_fract_y
_atom_site_fract_z
O1 O 0.13450(11) 0.31824(12) 0.05494(6)
O2 O 0.38646(12) 0.39649(14) 0.04545(7)
H1 H 0.3607 0.3639 0.0791
C1 C 0.03873(16) 0.38630(16) -0.06952(9)
H2 H -0.0489 0.3579 -0.0688
O3 O -0.03215(15) 0.56217(17) -0.23774(7)
H3 H -0.1014 0.5730 -0.2702
C2 C 0.27877(16) 0.40873(16) -0.01187(9)
O4 O -0.16809(13) 0.42069(15) -0.19975(7)
C3 C 0.06184(16) 0.44572(16) -0.13143(8)
C4 C 0.14549(16) 0.36972(15) -0.00963(8)
C5 C 0.30119(17) 0.46184(18) -0.07448(9)
H4 H 0.3899 0.4837 -0.0767
C6 C 0.19380(18) 0.48283(18) -0.13370(9)
H5 H 0.2096 0.5216 -0.1749
C7 C 0.00548(18) 0.26028(19) 0.05677(10)
H6 H 0.0099 0.2267 0.1041
H7 H -0.0151 0.1882 0.0228
H8 H -0.0650 0.3270 0.0446
C8 C -0.05627(18) 0.47303(18) -0.19230(9)
C9 C 0.83458(17) 0.58183(18) 0.46104(9)
N1 N 0.74338(16) 0.63957(17) 0.66258(7)
H9 H 0.7101 0.5745 0.6821
H10 H 0.7585 0.7155 0.6841
N2 N 0.38447(17) 0.3602(2) 0.18907(8)
H11 H 0.3779 0.2766 0.1784
H12 H 0.3176 0.4134 0.1713
C10 C 0.77351(17) 0.62169(17) 0.59443(8)
C11 C 0.83239(19) 0.72251(17) 0.56333(9)
H13 H 0.8519 0.8044 0.5865
C12 C 0.86253(18) 0.70181(18) 0.49743(10)
H14 H 0.9027 0.7706 0.4772
C13 C 0.7786(2) 0.48086(19) 0.49400(10)
H15 H 0.7604 0.3983 0.4714
C14 C 0.6360(2) 0.59348(19) 0.30018(10)
H16 H 0.6430 0.6843 0.3108
C15 C 0.73056(19) 0.3752(2) 0.31273(9)
H17 H 0.8020 0.3168 0.3321
C16 C 0.50577(18) 0.4106(2) 0.23619(8)
C17 C 0.5194(2) 0.5455(2) 0.25308(10)
H18 H 0.4492 0.6043 0.2325
C18 C 0.86545(19) 0.5605(2) 0.38828(10)
H19 H 0.8950 0.6446 0.3719
H20 H 0.9404 0.4974 0.3935
C19 C 0.74338(18) 0.5088(2) 0.33215(9)
C20 C 0.6144(2) 0.32637(19) 0.26535(9)
H21 H 0.6092 0.2363 0.2530
C21 C 0.7493(2) 0.50018(18) 0.55989(9)
H22 H 0.7127 0.4303 0.5812
loop_
_geom_bond_atom_site_label_1
_geom_bond_atom_site_label_2
_geom_bond_site_symmetry_1
_geom_bond_site_symmetry_2
O1 C4 1_555 1_555
O2 H1 1_555 1_555
C1 H2 1_555 1_555
O3 H3 1_555 1_555
C2 O2 1_555 1_555
O4 C8 1_555 1_555
C3 C1 1_555 1_555
C4 C1 1_555 1_555
C5 C2 1_555 1_555
H4 C5 1_555 1_555
C6 C3 1_555 1_555
H5 C6 1_555 1_555
C7 O1 1_555 1_555
H6 C7 1_555 1_555
H7 C7 1_555 1_555
H8 C7 1_555 1_555
C8 O3 1_555 1_555
C9 C12 1_555 1_555
N1 H9 1_555 1_555
H10 N1 1_555 1_555
N2 H11 1_555 1_555
H12 N2 1_555 1_555
C10 N1 1_555 1_555
C11 C10 1_555 1_555
H13 C11 1_555 1_555
C12 C11 1_555 1_555
H14 C12 1_555 1_555
C13 C9 1_555 1_555
H15 C13 1_555 1_555
C14 H16 1_555 1_555
C15 H17 1_555 1_555
C16 N2 1_555 1_555
C17 C14 1_555 1_555
H18 C17 1_555 1_555
C18 C9 1_555 1_555
H19 C18 1_555 1_555
H20 C18 1_555 1_555
C19 C14 1_555 1_555
C20 C15 1_555 1_555
H21 C20 1_555 1_555
C21 C10 1_555 1_555
H22 C21 1_555 1_555
C2 C4 1_555 1_555
C3 C8 1_555 1_555
C5 C6 1_555 1_555
C13 C21 1_555 1_555
C15 C19 1_555 1_555
C16 C17 1_555 1_555
C16 C20 1_555 1_555
C18 C19 1_555 1_555

#END
