
#######################################################################
#
#                 Cambridge Crystallographic Data Centre
#                                CCDC 
#
#######################################################################
#
# If this CIF has been generated from an entry in the Cambridge 
# Structural Database, then it will include bibliographic, chemical, 
# crystal, experimental, refinement or atomic coordinate data resulting 
# from the CCDC's data processing and validation procedures.
#
#######################################################################

data_QOQKEO
_chemical_formula_moiety         'C8 H8 O3,C6 H5 N3'
_chemical_name_systematic        
'2-hydroxy-3-methylbenzoic acid 1H-benzotriazole'
_symmetry_cell_setting           monoclinic
_symmetry_space_group_name_H-M   'P 21/n'
_symmetry_Int_Tables_number      14
_space_group_name_Hall           '-P 2yn'
loop_
_symmetry_equiv_pos_site_id
_symmetry_equiv_pos_as_xyz
1 x,y,z
2 1/2-x,1/2+y,1/2-z
3 -x,-y,-z
4 1/2+x,1/2-y,1/2+z
_cell_length_a                   13.4816(15)
_cell_length_b                   5.3430(6)
_cell_length_c                   18.117(2)
_cell_angle_alpha                90
_cell_angle_beta                 91.084(2)
_cell_angle_gamma                90
_cell_volume                     1304.77
_exptl_crystal_colour            colorless
_exptl_crystal_description       block
_cell_formula_units_Z            4
loop_
_atom_site_label
_atom_site_type_symbol
_atom_site_fract_x
_atom_site_fract_y
_atom_site_fract_z
O1 O 0.74765(13) 0.1584(3) 0.04254(8)
H1 H 0.7076 0.2730 0.0376
O2 O 0.64528(13) 0.4964(3) -0.02650(9)
C1 C 0.78302(17) 0.0943(4) -0.02437(11)
O3 O 0.65032(14) 0.5089(3) -0.14966(9)
H2 H 0.6093 0.6203 -0.1439
C2 C 0.75227(17) 0.2177(4) -0.08912(12)
C3 C 0.85126(17) -0.1023(5) -0.02646(13)
C4 C 0.79149(19) 0.1424(5) -0.15655(12)
H3 H 0.7717 0.2229 -0.1999
C5 C 0.67836(18) 0.4206(5) -0.08529(13)
C6 C 0.8828(2) -0.2353(5) 0.04325(15)
H4 H 0.8503 -0.1610 0.0845
H5 H 0.9533 -0.2209 0.0500
H6 H 0.8649 -0.4088 0.0397
C7 C 0.8873(2) -0.1699(5) -0.09400(14)
H7 H 0.9323 -0.3013 -0.0964
C8 C 0.8587(2) -0.0489(5) -0.15901(14)
H8 H 0.8852 -0.0978 -0.2038
N1 N 0.44829(15) 0.1594(4) 0.92053(10)
H9 H 0.4307 0.2442 0.9585
N2 N 0.51963(15) -0.1206(4) 0.85613(10)
N3 N 0.50863(16) -0.0365(4) 0.92330(11)
C9 C 0.41779(16) 0.2092(4) 0.85022(11)
C10 C 0.38968(19) 0.1910(5) 0.70075(12)
H10 H 0.3785 0.1884 0.6499
C11 C 0.35601(18) 0.3893(5) 0.81783(13)
H11 H 0.3249 0.5117 0.8456
C12 C 0.46457(17) 0.0270(4) 0.80856(12)
C13 C 0.45038(18) 0.0148(4) 0.73193(12)
H12 H 0.4809 -0.1074 0.7037
C14 C 0.34376(19) 0.3753(5) 0.74273(13)
H13 H 0.3035 0.4926 0.7189
loop_
_geom_bond_atom_site_label_1
_geom_bond_atom_site_label_2
_geom_bond_site_symmetry_1
_geom_bond_site_symmetry_2
O1 H1 1_555 1_555
O2 C5 1_555 1_555
C1 O1 1_555 1_555
O3 H2 1_555 1_555
C2 C1 1_555 1_555
C3 C1 1_555 1_555
C4 C2 1_555 1_555
H3 C4 1_555 1_555
C5 O3 1_555 1_555
C6 C3 1_555 1_555
H4 C6 1_555 1_555
H5 C6 1_555 1_555
H6 C6 1_555 1_555
C7 C3 1_555 1_555
H7 C7 1_555 1_555
C8 C4 1_555 1_555
H8 C8 1_555 1_555
N1 H9 1_555 1_555
N2 N3 1_555 1_555
N3 N1 1_555 1_555
C9 N1 1_555 1_555
C10 H10 1_555 1_555
C11 C9 1_555 1_555
H11 C11 1_555 1_555
C12 N2 1_555 1_555
C13 C10 1_555 1_555
H12 C13 1_555 1_555
C14 C10 1_555 1_555
H13 C14 1_555 1_555
C2 C5 1_555 1_555
C7 C8 1_555 1_555
C9 C12 1_555 1_555
C11 C14 1_555 1_555
C12 C13 1_555 1_555

#END
