
#######################################################################
#
#                 Cambridge Crystallographic Data Centre
#                                CCDC 
#
#######################################################################
#
# If this CIF has been generated from an entry in the Cambridge 
# Structural Database, then it will include bibliographic, chemical, 
# crystal, experimental, refinement or atomic coordinate data resulting 
# from the CCDC's data processing and validation procedures.
#
#######################################################################

data_QOQKOY
_chemical_formula_moiety         'C7 H6 O3,2(C6 H5 N3)'
_chemical_name_systematic        '4-hydroxybenzoic acid bis(1H-benzotriazole)'
_symmetry_cell_setting           monoclinic
_symmetry_space_group_name_H-M   'P n'
_symmetry_Int_Tables_number      7
_space_group_name_Hall           'P -2yac'
loop_
_symmetry_equiv_pos_site_id
_symmetry_equiv_pos_as_xyz
1 x,y,z
2 1/2+x,-y,1/2+z
_cell_length_a                   3.9740(8)
_cell_length_b                   17.771(4)
_cell_length_c                   12.604(3)
_cell_angle_alpha                90
_cell_angle_beta                 94.768(3)
_cell_angle_gamma                90
_cell_volume                     887.039
_exptl_crystal_colour            colorless
_exptl_crystal_description       block
_cell_formula_units_Z            2
loop_
_atom_site_label
_atom_site_type_symbol
_atom_site_fract_x
_atom_site_fract_y
_atom_site_fract_z
N1 N 0.4842(5) 0.27968(11) 0.38141(17)
N2 N 0.3324(5) 0.34478(10) 0.36490(16)
C1 C 0.4853(5) 0.30644(11) 0.20893(19)
C2 C 0.5822(6) 0.25375(11) 0.28671(19)
C3 C 0.7443(6) 0.18722(13) 0.2613(2)
H1 H 0.8101 0.1518 0.3132
N3 N 0.3329(5) 0.36175(10) 0.26191(15)
H2 H 0.2484 0.4021 0.2330
C4 C 0.8019(7) 0.17645(15) 0.1578(3)
H3 H 0.9047 0.1322 0.1380
C5 C 0.5496(6) 0.29652(15) 0.1020(2)
H4 H 0.4879 0.3321 0.0499
C6 C 0.7093(6) 0.23098(15) 0.0797(2)
H5 H 0.7587 0.2220 0.0100
O1 O -0.0331(4) 0.03436(9) 0.96546(14)
H6 H -0.1307 -0.0063 0.9614
O2 O 0.2163(5) 0.10665(9) 0.48160(15)
C7 C -0.0469(6) 0.01502(11) 0.7762(2)
H7 H -0.1531 -0.0314 0.7809
C8 C 0.1866(5) 0.11162(11) 0.67014(19)
O3 O 0.3866(5) 0.21015(9) 0.56893(14)
H8 H 0.4238 0.2236 0.5088
C9 C 0.2618(6) 0.14056(12) 0.56518(18)
C10 C 0.2703(5) 0.15245(11) 0.76289(19)
H9 H 0.3771 0.1988 0.7590
C11 C 0.1968(6) 0.12504(13) 0.85981(19)
H10 H 0.2556 0.1528 0.9211
C12 C 0.0272(6) 0.04209(11) 0.67856(19)
H11 H -0.0294 0.0138 0.6176
C13 C 0.0362(5) 0.05664(12) 0.86744(19)
N4 N 0.9368(5) 0.48723(10) 0.17995(17)
N5 N 0.7716(5) 0.57416(11) 0.06950(16)
H12 H 0.7407 0.5987 0.0107
C14 C 0.7637(5) 0.53998(11) 0.23373(19)
N6 N 0.9394(6) 0.50849(12) 0.08104(18)
C15 C 0.5220(6) 0.60408(14) 0.3713(2)
H13 H 0.4720 0.6079 0.4419
C16 C 0.4776(6) 0.65929(13) 0.1945(2)
H14 H 0.4044 0.6971 0.1470
C17 C 0.4166(6) 0.66141(14) 0.2996(2)
H15 H 0.3008 0.7024 0.3245
C18 C 0.6575(5) 0.59649(11) 0.16319(19)
C19 C 0.6953(6) 0.54310(13) 0.3402(2)
H16 H 0.7650 0.5052 0.3879
loop_
_geom_bond_atom_site_label_1
_geom_bond_atom_site_label_2
_geom_bond_site_symmetry_1
_geom_bond_site_symmetry_2
N1 N2 1_555 1_555
N2 N3 1_555 1_555
C1 C2 1_555 1_555
C2 N1 1_555 1_555
C3 C2 1_555 1_555
H1 C3 1_555 1_555
N3 C1 1_555 1_555
H2 N3 1_555 1_555
C4 C3 1_555 1_555
H3 C4 1_555 1_555
C5 C1 1_555 1_555
H4 C5 1_555 1_555
C6 C4 1_555 1_555
H5 C6 1_555 1_555
O1 H6 1_555 1_555
O2 C9 1_555 1_555
C7 H7 1_555 1_555
C8 C9 1_555 1_555
O3 H8 1_555 1_555
C9 O3 1_555 1_555
C10 C8 1_555 1_555
H9 C10 1_555 1_555
C11 C10 1_555 1_555
H10 C11 1_555 1_555
C12 C7 1_555 1_555
H11 C12 1_555 1_555
C13 O1 1_555 1_555
N4 C14 1_555 1_555
N5 H12 1_555 1_555
C14 C18 1_555 1_555
N6 N4 1_555 1_555
C15 H13 1_555 1_555
C16 H14 1_555 1_555
C17 C15 1_555 1_555
H15 C17 1_555 1_555
C18 N5 1_555 1_555
C19 C14 1_555 1_555
H16 C19 1_555 1_555
C5 C6 1_555 1_555
C7 C13 1_555 1_555
C8 C12 1_555 1_555
C11 C13 1_555 1_555
N5 N6 1_555 1_555
C15 C19 1_555 1_555
C16 C17 1_555 1_555
C16 C18 1_555 1_555

#END
