
#######################################################################
#
#                 Cambridge Crystallographic Data Centre
#                                CCDC 
#
#######################################################################
#
# If this CIF has been generated from an entry in the Cambridge 
# Structural Database, then it will include bibliographic, chemical, 
# crystal, experimental, refinement or atomic coordinate data resulting 
# from the CCDC's data processing and validation procedures.
#
#######################################################################

data_QOQLUE
_chemical_formula_moiety         'C20 H26 Br1 N1 O3'
_chemical_name_systematic        
"2'-Hydroxy-3-(1-propen-2-yl)-1,1'-bi(cyclopentyl)-2-yl (4-bromophenyl)carbamate"
_symmetry_cell_setting           orthorhombic
_symmetry_space_group_name_H-M   'P 21 21 21'
_symmetry_Int_Tables_number      19
_space_group_name_Hall           'P 2ac 2ab'
loop_
_symmetry_equiv_pos_site_id
_symmetry_equiv_pos_as_xyz
1 x,y,z
2 1/2-x,-y,1/2+z
3 -x,1/2+y,1/2-z
4 1/2+x,1/2-y,-z
_cell_length_a                   6.8795(14)
_cell_length_b                   14.854(3)
_cell_length_c                   19.609(4)
_cell_angle_alpha                90
_cell_angle_beta                 90
_cell_angle_gamma                90
_cell_volume                     2003.81
_exptl_crystal_colour            colorless
_exptl_crystal_description       parallelepiped
_chemical_melting_point          '136-138 deg.C'
_cell_formula_units_Z            4
_exptl_crystal_recrystallization_method 'ethyl acetate/hexanes'
loop_
_atom_site_label
_atom_site_type_symbol
_atom_site_fract_x
_atom_site_fract_y
_atom_site_fract_z
Br1 Br 0.71759(11) 0.20317(4) 0.64476(3)
O1 O 0.5899(4) 0.61055(17) 0.36736(13)
O2 O 0.3699(4) 0.5447(2) 0.43667(15)
O3 O 0.0390(5) 0.5259(3) 0.3595(2)
H1 H 0.1160 0.5471 0.3871
N1 N 0.6902(4) 0.5014(2) 0.43349(17)
C1 C 0.3011(7) 0.7433(3) 0.2448(3)
H2 H 0.3309 0.7515 0.1969
H3 H 0.1612 0.7461 0.2507
C2 C 0.4008(8) 0.8159(3) 0.2878(2)
H4 H 0.3053 0.8493 0.3140
H5 H 0.4703 0.8577 0.2586
C3 C 0.5429(7) 0.7671(3) 0.3356(2)
H6 H 0.6636 0.7586 0.3099
C4 C 0.4493(6) 0.6746(2) 0.3421(2)
H7 H 0.3379 0.6776 0.3731
C5 C 0.3801(6) 0.6521(3) 0.2702(2)
H8 H 0.4969 0.6394 0.2433
C6 C 0.2497(6) 0.5699(3) 0.2638(2)
H9 H 0.3191 0.5194 0.2849
C7 C 0.2064(8) 0.5428(4) 0.1904(3)
H10 H 0.1895 0.5955 0.1617
H11 H 0.3103 0.5061 0.1719
C8 C 0.0207(9) 0.4900(4) 0.1954(3)
H12 H -0.0474 0.4897 0.1520
H13 H 0.0465 0.4283 0.2089
C9 C -0.0925(7) 0.5367(6) 0.2473(4)
H14 H -0.1806 0.4950 0.2695
H15 H -0.1686 0.5844 0.2266
C10 C 0.0478(6) 0.5754(3) 0.2985(2)
H16 H 0.0149 0.6385 0.3075
C11 C 0.5968(11) 0.8115(4) 0.3997(3)
C12 C 0.7846(16) 0.8180(6) 0.4166(4)
H17 H 0.8794 0.7946 0.3879
H18 H 0.8204 0.8460 0.4571
C13 C 0.4370(17) 0.8458(6) 0.4441(4)
H19 H 0.4865 0.8569 0.4891
H20 H 0.3351 0.8017 0.4464
H21 H 0.3865 0.9007 0.4253
C14 C 0.5353(5) 0.5512(3) 0.41465(19)
C15 C 0.6883(6) 0.4329(3) 0.48327(18)
C16 C 0.8631(6) 0.4094(3) 0.5126(2)
H22 H 0.9756 0.4400 0.5002
C17 C 0.8735(8) 0.3411(4) 0.5601(3)
H23 H 0.9928 0.3247 0.5785
C18 C 0.7092(7) 0.2982(3) 0.57976(18)
C19 C 0.5343(8) 0.3201(3) 0.5520(2)
H24 H 0.4225 0.2897 0.5655
C20 C 0.5230(7) 0.3880(3) 0.5035(2)
H25 H 0.4034 0.4032 0.4846
loop_
_geom_bond_atom_site_label_1
_geom_bond_atom_site_label_2
_geom_bond_site_symmetry_1
_geom_bond_site_symmetry_2
Br1 C18 1_555 1_555
O1 C4 1_555 1_555
O2 C14 1_555 1_555
O3 H1 1_555 1_555
N1 C14 1_555 1_555
C1 H2 1_555 1_555
H3 C1 1_555 1_555
C2 C1 1_555 1_555
H4 C2 1_555 1_555
H5 C2 1_555 1_555
C3 C2 1_555 1_555
H6 C3 1_555 1_555
C4 C3 1_555 1_555
H7 C4 1_555 1_555
C5 C1 1_555 1_555
H8 C5 1_555 1_555
C6 C5 1_555 1_555
H9 C6 1_555 1_555
C7 C6 1_555 1_555
H10 C7 1_555 1_555
H11 C7 1_555 1_555
C8 C7 1_555 1_555
H12 C8 1_555 1_555
H13 C8 1_555 1_555
C9 C8 1_555 1_555
H14 C9 1_555 1_555
H15 C9 1_555 1_555
C10 O3 1_555 1_555
H16 C10 1_555 1_555
C11 C3 1_555 1_555
C12 C11 1_555 1_555
H17 C12 1_555 1_555
H18 C12 1_555 1_555
C13 C11 1_555 1_555
H19 C13 1_555 1_555
H20 C13 1_555 1_555
H21 C13 1_555 1_555
C14 O1 1_555 1_555
C15 N1 1_555 1_555
C16 C15 1_555 1_555
H22 C16 1_555 1_555
C17 C16 1_555 1_555
H23 C17 1_555 1_555
C18 C17 1_555 1_555
C19 C18 1_555 1_555
H24 C19 1_555 1_555
C20 C15 1_555 1_555
H25 C20 1_555 1_555
C4 C5 1_555 1_555
C6 C10 1_555 1_555
C9 C10 1_555 1_555
C19 C20 1_555 1_555

#END
