
#######################################################################
#
#                 Cambridge Crystallographic Data Centre
#                                CCDC 
#
#######################################################################
#
# If this CIF has been generated from an entry in the Cambridge 
# Structural Database, then it will include bibliographic, chemical, 
# crystal, experimental, refinement or atomic coordinate data resulting 
# from the CCDC's data processing and validation procedures.
#
#######################################################################

data_QOQMOA
_chemical_formula_moiety         'C44 H42 B2 F6 N6 O2,2(C1 H2 Cl2)'
_chemical_name_systematic        
"6,6,16,16-tetrafluoro-9,19-bis(4-fluorophenyl)-1,11-bis(hexyloxy)-6,16-pyrido[1',2':3,4][1,3,5,2]triazaborinino[1,6-a]pyrido[1'',2'':3',4'][1,3,5,2]triazaborinino[1',6':1,5]pyrrolo[2,3-f]indole dichloromethane solvate"
_symmetry_cell_setting           monoclinic
_symmetry_space_group_name_H-M   'P 21/c'
_symmetry_Int_Tables_number      14
_space_group_name_Hall           '-P 2ybc'
loop_
_symmetry_equiv_pos_site_id
_symmetry_equiv_pos_as_xyz
1 x,y,z
2 -x,1/2+y,1/2-z
3 -x,-y,-z
4 x,1/2-y,1/2+z
_cell_length_a                   4.7273(4)
_cell_length_b                   19.7110(10)
_cell_length_c                   25.1808(19)
_cell_angle_alpha                90
_cell_angle_beta                 97.316(7)
_cell_angle_gamma                90
_cell_volume                     2327.24
_exptl_crystal_colour            black
_exptl_crystal_description       needle
_cell_formula_units_Z            2
loop_
_atom_site_label
_atom_site_type_symbol
_atom_site_fract_x
_atom_site_fract_y
_atom_site_fract_z
N1 N -0.0599(19) 0.6607(4) 0.5721(3)
C1 C 0.092(2) 0.6155(5) 0.5509(3)
C2 C 0.115(2) 0.6071(5) 0.4932(4)
C3 C 0.303(2) 0.5535(5) 0.4896(3)
C4 C 0.403(2) 0.5301(4) 0.5431(4)
N2 N 0.2703(18) 0.5695(4) 0.5798(3)
B1 B 0.300(2) 0.5631(5) 0.6406(4)
N3 N 0.1368(18) 0.6267(4) 0.6599(3)
C5 C 0.591(2) 0.4792(5) 0.5547(4)
H1 H 0.6512 0.4658 0.5906
C6 C 0.156(2) 0.6350(6) 0.7156(4)
H2 H 0.2762 0.6061 0.7387
C7 C 0.003(2) 0.6838(5) 0.7366(4)
H3 H 0.0261 0.6912 0.7742
C8 C -0.189(2) 0.7236(6) 0.7028(4)
H4 H -0.3069 0.7556 0.7177
C9 C -0.205(2) 0.7163(5) 0.6494(4)
C10 C -0.043(2) 0.6653(5) 0.6271(3)
C11 C -0.032(2) 0.6501(5) 0.4518(4)
C12 C -0.303(3) 0.7339(6) 0.3714(5)
C13 C -0.284(6) 0.6865(17) 0.4590(10)
H5 H -0.3700 0.6802 0.4907
C14 C -0.404(8) 0.7309(15) 0.4203(10)
H6 H -0.5566 0.7594 0.4273
C15 C -0.087(12) 0.701(2) 0.3621(13)
H7 H -0.0229 0.7050 0.3279
C16 C 0.070(9) 0.6574(17) 0.4028(9)
H8 H 0.2379 0.6344 0.3958
F1 F -0.4291(19) 0.7739(4) 0.3319(3)
F2 F 0.1761(13) 0.5041(3) 0.6573(2)
F3 F 0.5818(13) 0.5651(3) 0.6636(2)
O1 O -0.3846(15) 0.7512(3) 0.6117(3)
C17 C -0.546(2) 0.8061(5) 0.6318(5)
H9 H -0.4154 0.8420 0.6477
H10 H -0.6586 0.7891 0.6596
C18 C -0.741(3) 0.8335(6) 0.5844(5)
H11 H -0.8681 0.8680 0.5972
H12 H -0.8613 0.7961 0.5680
C19 C -0.579(3) 0.8656(7) 0.5413(6)
H13 H -0.4471 0.8319 0.5288
H14 H -0.4642 0.9045 0.5568
C20 C -0.796(3) 0.8904(8) 0.4928(6)
H15 H -0.9126 0.8513 0.4784
H16 H -0.9255 0.9242 0.5059
C21 C -0.657(3) 0.9212(9) 0.4489(7)
H17 H -0.5231 0.8879 0.4364
H18 H -0.5447 0.9611 0.4629
C22 C -0.870(5) 0.9431(15) 0.4015(8)
H19 H -0.9678 0.9030 0.3850
H20 H -0.7689 0.9663 0.3751
H21 H -1.0101 0.9739 0.4139
N1B N 1.0599(19) 0.3393(4) 0.4279(3)
C1B C 0.908(2) 0.3845(5) 0.4491(3)
C2B C 0.885(2) 0.3929(5) 0.5068(4)
C3B C 0.697(2) 0.4465(5) 0.5104(3)
C4B C 0.597(2) 0.4699(4) 0.4569(4)
N2B N 0.7297(18) 0.4305(4) 0.4202(3)
B1B B 0.700(2) 0.4369(5) 0.3594(4)
N3B N 0.8632(18) 0.3733(4) 0.3401(3)
C5B C 0.409(2) 0.5208(5) 0.4453(4)
H1B H 0.3488 0.5342 0.4094
C6B C 0.844(2) 0.3650(6) 0.2844(4)
H2B H 0.7238 0.3939 0.2613
C7B C 0.997(2) 0.3162(5) 0.2634(4)
H3B H 0.9739 0.3088 0.2258
C8B C 1.189(2) 0.2764(6) 0.2972(4)
H4B H 1.3069 0.2444 0.2823
C9B C 1.205(2) 0.2837(5) 0.3506(4)
C10B C 1.043(2) 0.3347(5) 0.3729(3)
C11B C 1.032(2) 0.3499(5) 0.5482(4)
C12B C 1.303(3) 0.2661(6) 0.6286(5)
C13B C 1.284(6) 0.3135(17) 0.5410(10)
H5B H 1.3700 0.3198 0.5093
C14B C 1.404(8) 0.2691(15) 0.5797(10)
H6B H 1.5566 0.2406 0.5727
C15B C 1.087(12) 0.299(2) 0.6379(13)
H7B H 1.0229 0.2950 0.6721
C16B C 0.930(9) 0.3426(17) 0.5972(9)
H8B H 0.7621 0.3656 0.6042
F1B F 1.4291(19) 0.2261(4) 0.6681(3)
F2B F 0.8239(13) 0.4959(3) 0.3427(2)
F3B F 0.4182(13) 0.4349(3) 0.3364(2)
O1B O 1.3846(15) 0.2488(3) 0.3883(3)
C17B C 1.546(2) 0.1939(5) 0.3682(5)
H9B H 1.4154 0.1580 0.3523
H10B H 1.6586 0.2109 0.3404
C18B C 1.741(3) 0.1665(6) 0.4156(5)
H11B H 1.8681 0.1320 0.4028
H12B H 1.8613 0.2039 0.4320
C19B C 1.579(3) 0.1344(7) 0.4587(6)
H13B H 1.4471 0.1681 0.4712
H14B H 1.4642 0.0955 0.4432
C20B C 1.796(3) 0.1096(8) 0.5072(6)
H15B H 1.9126 0.1487 0.5216
H16B H 1.9255 0.0758 0.4941
C21B C 1.657(3) 0.0788(9) 0.5511(7)
H17B H 1.5231 0.1121 0.5636
H18B H 1.5447 0.0389 0.5371
C22B C 1.870(5) 0.0569(15) 0.5985(8)
H19B H 1.9678 0.0970 0.6150
H20B H 1.7689 0.0337 0.6249
H21B H 2.0101 0.0261 0.5861
C27 C 0.254(5) 0.9527(11) 0.7546(8)
H26 H 0.3889 0.9559 0.7879
H27 H 0.0802 0.9785 0.7603
Cl1 Cl 0.1648(16) 0.8719(3) 0.7441(2)
Cl2 Cl 0.4034(16) 0.9898(3) 0.70425(19)
C23? C -0.121(11) 0.7171(14) 0.4643(10)
H22? H -0.0996 0.7329 0.5002
C24? C -0.242(8) 0.7600(18) 0.4211(13)
H23? H -0.2793 0.8065 0.4275
C25? C -0.213(7) 0.6687(15) 0.3592(12)
H24? H -0.2334 0.6534 0.3232
C26? C -0.095(6) 0.6273(15) 0.3995(9)
H25? H -0.0555 0.5814 0.3915
loop_
_geom_bond_atom_site_label_1
_geom_bond_atom_site_label_2
_geom_bond_site_symmetry_1
_geom_bond_site_symmetry_2
N1 C1 1_555 1_555
C1 C2 1_555 1_555
C2 C3 1_555 1_555
C3 C4 1_555 1_555
C4 N2 1_555 1_555
N2 C1 1_555 1_555
B1 N2 1_555 1_555
N3 B1 1_555 1_555
C5 C4 1_555 1_555
H1 C5 1_555 1_555
C6 N3 1_555 1_555
H2 C6 1_555 1_555
C7 C6 1_555 1_555
H3 C7 1_555 1_555
C8 C7 1_555 1_555
H4 C8 1_555 1_555
C9 C8 1_555 1_555
C10 N1 1_555 1_555
C11 C2 1_555 1_555
C12 C14 1_555 1_555
C13 C11 1_555 1_555
H5 C13 1_555 1_555
C14 C13 1_555 1_555
H6 C14 1_555 1_555
C15 C12 1_555 1_555
H7 C15 1_555 1_555
C16 C11 1_555 1_555
H8 C16 1_555 1_555
F1 C12 1_555 1_555
F2 B1 1_555 1_555
F3 B1 1_555 1_555
O1 C9 1_555 1_555
C17 O1 1_555 1_555
H9 C17 1_555 1_555
H10 C17 1_555 1_555
C18 C17 1_555 1_555
H11 C18 1_555 1_555
H12 C18 1_555 1_555
C19 C18 1_555 1_555
H13 C19 1_555 1_555
H14 C19 1_555 1_555
C20 C19 1_555 1_555
H15 C20 1_555 1_555
H16 C20 1_555 1_555
C21 C20 1_555 1_555
H17 C21 1_555 1_555
H18 C21 1_555 1_555
C22 C21 1_555 1_555
H19 C22 1_555 1_555
H20 C22 1_555 1_555
H21 C22 1_555 1_555
C27 H26 1_555 1_555
H27 C27 1_555 1_555
Cl1 C27 1_555 1_555
Cl2 C27 1_555 1_555
N1B C1B 1_555 1_555
C1B C2B 1_555 1_555
C2B C3B 1_555 1_555
C3B C5 1_555 1_555
C4B C3B 1_555 1_555
N2B C1B 1_555 1_555
B1B N2B 1_555 1_555
N3B B1B 1_555 1_555
C5B C3 1_555 1_555
H1B C5B 1_555 1_555
C6B N3B 1_555 1_555
H2B C6B 1_555 1_555
C7B C6B 1_555 1_555
H3B C7B 1_555 1_555
C8B C7B 1_555 1_555
H4B C8B 1_555 1_555
C9B C8B 1_555 1_555
C10B N1B 1_555 1_555
C11B C2B 1_555 1_555
C12B C14B 1_555 1_555
C13B C11B 1_555 1_555
H5B C13B 1_555 1_555
C14B C13B 1_555 1_555
H6B C14B 1_555 1_555
C15B C12B 1_555 1_555
H7B C15B 1_555 1_555
C16B C11B 1_555 1_555
H8B C16B 1_555 1_555
F1B C12B 1_555 1_555
F2B B1B 1_555 1_555
F3B B1B 1_555 1_555
O1B C9B 1_555 1_555
C17B O1B 1_555 1_555
H9B C17B 1_555 1_555
H10B C17B 1_555 1_555
C18B C17B 1_555 1_555
H11B C18B 1_555 1_555
H12B C18B 1_555 1_555
C19B C18B 1_555 1_555
H13B C19B 1_555 1_555
H14B C19B 1_555 1_555
C20B C19B 1_555 1_555
H15B C20B 1_555 1_555
H16B C20B 1_555 1_555
C21B C20B 1_555 1_555
H17B C21B 1_555 1_555
H18B C21B 1_555 1_555
C22B C21B 1_555 1_555
H19B C22B 1_555 1_555
H20B C22B 1_555 1_555
H21B C22B 1_555 1_555
N3 C10 1_555 1_555
C9 C10 1_555 1_555
C15 C16 1_555 1_555
C4B N2B 1_555 1_555
C4B C5B 1_555 1_555
N3B C10B 1_555 1_555
C9B C10B 1_555 1_555
C15B C16B 1_555 1_555

#END
