
#######################################################################
#
#                 Cambridge Crystallographic Data Centre
#                                CCDC 
#
#######################################################################
#
# If this CIF has been generated from an entry in the Cambridge 
# Structural Database, then it will include bibliographic, chemical, 
# crystal, experimental, refinement or atomic coordinate data resulting 
# from the CCDC's data processing and validation procedures.
#
#######################################################################

data_QOQMAL
_chemical_formula_moiety         'C40 H52 Br1 N1 O6'
_chemical_name_systematic        
'2-[3-(2-hydroxypropan-2-yl)-5,5-dimethyl-1,2,3,3a,7a,8,9,10-octahydro-7H-7,11a-(epoxymethano)-6b,12-ethanocyclopenta[d]-s-indaceno[2,1-e][1,3]dioxin-10(6aH,12H)-yl]-5-(prop-1-en-2-yl)cyclopentyl (4-bromophenyl)carbamate'
_symmetry_cell_setting           monoclinic
_symmetry_space_group_name_H-M   'C 2'
_symmetry_Int_Tables_number      5
_space_group_name_Hall           'C 2y'
loop_
_symmetry_equiv_pos_site_id
_symmetry_equiv_pos_as_xyz
1 x,y,z
2 -x,y,-z
3 1/2+x,1/2+y,z
4 1/2-x,1/2+y,-z
_cell_length_a                   38.042(8)
_cell_length_b                   11.144(2)
_cell_length_c                   26.725(5)
_cell_angle_alpha                90
_cell_angle_beta                 130.87(3)
_cell_angle_gamma                90
_cell_volume                     8567.55
_chemical_melting_point          '180-182 deg.C'
_cell_formula_units_Z            8
_exptl_crystal_recrystallization_method 'ethyl acetate/hexanes'
loop_
_atom_site_label
_atom_site_type_symbol
_atom_site_fract_x
_atom_site_fract_y
_atom_site_fract_z
Br1 Br 0.99445(10) -0.0854(3) 1.12157(14)
O1 O 0.77757(11) 0.1785(4) 0.86189(14)
O2 O 0.75165(8) 0.1281(3) 0.76180(11)
O3 O 0.74837(11) 0.6294(3) 0.60679(14)
O4 O 0.63873(8) 0.6300(3) 0.40988(13)
O5 O 0.65423(9) 0.6034(3) 0.33934(12)
O6 O 0.66679(12) 0.5381(3) 0.25269(15)
H1 H 0.6489 0.5819 0.2514
N1 N 0.82461(10) 0.0957(3) 0.84616(14)
H2 H 0.8252 0.0768 0.8155
C1 C 0.70693(13) 0.1800(4) 0.72943(18)
H3 H 0.7062 0.2271 0.7597
C2 C 0.67084(14) 0.0789(4) 0.6957(2)
H4 H 0.6411 0.1145 0.6779
C3 C 0.66684(19) 0.0456(5) 0.6358(2)
H5 H 0.6876 -0.0201 0.6470
H6 H 0.6353 0.0221 0.5982
C4 C 0.68083(17) 0.1609(4) 0.6199(2)
H7 H 0.7070 0.1447 0.6225
H8 H 0.6551 0.1890 0.5757
C5 C 0.69385(14) 0.2549(4) 0.67104(19)
H9 H 0.6657 0.3004 0.6530
C6 C 0.73102(15) 0.3442(4) 0.68996(19)
H10 H 0.7613 0.3038 0.7170
C7 C 0.7339(2) 0.4522(5) 0.7284(2)
H11 H 0.7108 0.4444 0.7333
H12 H 0.7644 0.4560 0.7722
C8 C 0.7249(2) 0.5632(5) 0.6901(2)
H13 H 0.7540 0.6022 0.7084
H14 H 0.7059 0.6192 0.6911
C9 C 0.69943(16) 0.5209(4) 0.6192(2)
H15 H 0.6667 0.5079 0.5973
C10 C 0.72137(14) 0.4018(4) 0.63091(18)
C11 C 0.73664(14) 0.3685(4) 0.60028(18)
H16 H 0.7515 0.2950 0.6103
C12 C 0.72999(13) 0.4489(4) 0.54946(17)
C13 C 0.68612(13) 0.5268(4) 0.51520(19)
C14 C 0.70140(15) 0.5988(4) 0.5743(2)
H17 H 0.6823 0.6710 0.5604
C15 C 0.76740(14) 0.5442(4) 0.5882(2)
H18 H 0.7964 0.5101 0.6270
H19 H 0.7727 0.5825 0.5610
C16 C 0.64677(13) 0.4309(4) 0.47756(19)
H20 H 0.6182 0.4639 0.4374
H21 H 0.6408 0.3994 0.5052
C17 C 0.66712(13) 0.3322(4) 0.46144(19)
H22 H 0.6735 0.2589 0.4857
H23 H 0.6460 0.3145 0.4145
C18 C 0.71213(13) 0.3901(4) 0.48418(17)
H24 H 0.7340 0.3324 0.4901
C19 C 0.70242(12) 0.4977(3) 0.44120(17)
C20 C 0.68427(12) 0.5929(4) 0.46278(18)
H25 H 0.7051 0.6624 0.4828
C21 C 0.63043(13) 0.6732(4) 0.35320(19)
C22 C 0.66551(13) 0.4833(4) 0.36628(18)
H26 H 0.6381 0.4400 0.3529
C23 C 0.68921(15) 0.4183(4) 0.34615(19)
H27 H 0.6911 0.3338 0.3578
C24 C 0.73890(16) 0.4666(6) 0.3932(2)
H28 H 0.7610 0.4013 0.4106
H29 H 0.7437 0.5224 0.3703
C25 C 0.74501(13) 0.5292(4) 0.44848(19)
H30 H 0.7469 0.6153 0.4454
H31 H 0.7733 0.5023 0.4910
C26 C 0.78443(13) 0.1378(4) 0.82669(18)
C27 C 0.86454(11) 0.0800(3) 0.90940(18)
C28 C 0.87153(12) 0.0985(2) 0.96606(19)
H32 H 0.8489 0.1415 0.9622
C29 C 0.9103(2) 0.0577(5) 1.0299(4)
H33 H 0.9125 0.0728 1.0661
C30 C 0.9435(3) -0.0024(7) 1.0371(5)
C31 C 0.9409(4) -0.0295(9) 0.9837(6)
H34 H 0.9644 -0.0712 0.9891
C32 C 0.9017(3) 0.0093(7) 0.9227(5)
H35 H 0.8987 -0.0120 0.8865
C37 C 0.68033(16) -0.0222(5) 0.7399(2)
C38 C 0.67943(19) 0.0103(6) 0.7931(3)
H39 H 0.6791 -0.0615 0.8126
H40 H 0.6521 0.0567 0.7746
H41 H 0.7066 0.0566 0.8264
C39 C 0.6909(3) -0.1300(7) 0.7362(4)
H42 H 0.6980 -0.1876 0.7668
H43 H 0.6915 -0.1499 0.7029
C40 C 0.64805(18) 0.8008(4) 0.3637(3)
H44 H 0.6811 0.8024 0.3997
H45 H 0.6331 0.8516 0.3740
H46 H 0.6411 0.8291 0.3242
C41 C 0.57884(16) 0.6641(6) 0.2972(3)
H47 H 0.5630 0.7069 0.3085
H48 H 0.5697 0.5812 0.2894
H49 H 0.5709 0.6982 0.2579
C42 C 0.66535(17) 0.4206(5) 0.2722(2)
C43 C 0.6157(2) 0.3826(7) 0.2310(3)
H50 H 0.6024 0.3712 0.1861
H51 H 0.5986 0.4435 0.2327
H52 H 0.6141 0.3087 0.2480
C44 C 0.6911(2) 0.3409(6) 0.2594(3)
H53 H 0.7180 0.3824 0.2721
H54 H 0.6709 0.3213 0.2132
H55 H 0.7006 0.2684 0.2848
Br5 Br 0.36136(7) -0.0799(3) 0.84656(11)
O7 O 0.43021(10) 0.2135(4) 0.69572(17)
O8 O 0.50717(9) 0.2006(3) 0.75005(14)
O9 O 0.65175(10) 0.6896(3) 0.89462(15)
O10 O 0.75079(9) 0.6818(3) 0.87943(12)
O11 O 0.82772(9) 0.6547(3) 0.97752(13)
O12 O 0.91723(10) 0.5882(4) 1.08547(16)
H56 H 0.8992 0.6384 1.0575
N2 N 0.48208(12) 0.1276(4) 0.79819(19)
H57 H 0.5115 0.1240 0.8313
C45 C 0.50142(15) 0.2554(5) 0.6968(2)
H58 H 0.4735 0.3055 0.6687
C46 C 0.50318(17) 0.1568(6) 0.6574(3)
H59 H 0.4974 0.1956 0.6197
C47 C 0.55415(18) 0.1181(6) 0.7058(3)
H60 H 0.5639 0.0910 0.6821
H61 H 0.5587 0.0531 0.7337
C48 C 0.58192(16) 0.2288(5) 0.7476(3)
H62 H 0.6013 0.2567 0.7382
H63 H 0.6018 0.2099 0.7943
C49 C 0.54618(13) 0.3257(4) 0.7288(2)
H64 H 0.5409 0.3750 0.6941
C50 C 0.55976(14) 0.4101(5) 0.7832(2)
H65 H 0.5583 0.3672 0.8138
C51 C 0.52909(18) 0.5205(6) 0.7573(3)
H66 H 0.5031 0.5116 0.7103
H67 H 0.5168 0.5289 0.7795
C52 C 0.55622(19) 0.6300(6) 0.7692(3)
H68 H 0.5620 0.6789 0.8039
H69 H 0.5396 0.6778 0.7292
C53 C 0.60284(15) 0.5818(4) 0.7904(2)
H70 H 0.5982 0.5660 0.7504
C54 C 0.60799(14) 0.4637(4) 0.8217(2)
C55 C 0.64743(13) 0.4292(4) 0.87917(19)
H71 H 0.6489 0.3561 0.8972
C56 C 0.69018(12) 0.5072(4) 0.91588(17)
C57 C 0.68898(13) 0.5837(4) 0.86676(17)
C58 C 0.64681(15) 0.6571(4) 0.8376(2)
H72 H 0.6459 0.7286 0.8154
C59 C 0.68202(15) 0.6084(4) 0.9474(2)
H73 H 0.6677 0.5767 0.9642
H74 H 0.7111 0.6472 0.9833
C60 C 0.69254(15) 0.4874(4) 0.82902(19)
H75 H 0.7076 0.5186 0.8133
H76 H 0.6622 0.4564 0.7918
C61 C 0.72289(15) 0.3896(4) 0.8832(2)
H77 H 0.7054 0.3161 0.8716
H78 H 0.7504 0.3722 0.8892
C62 C 0.73599(13) 0.4461(4) 0.94609(18)
H79 H 0.7465 0.3883 0.9811
C63 C 0.76870(12) 0.5533(3) 0.96909(17)
C64 C 0.73594(13) 0.6482(4) 0.91402(18)
H80 H 0.7333 0.7191 0.9331
C65 C 0.79667(16) 0.7257(5) 0.9181(2)
C66 C 0.81039(13) 0.5367(4) 0.97306(19)
H81 H 0.8024 0.4909 0.9355
C67 C 0.84703(14) 0.4748(4) 1.0383(2)
H82 H 0.8373 0.3907 1.0315
C68 C 0.84109(16) 0.5258(5) 1.0843(2)
H83 H 0.8653 0.5839 1.1138
H84 H 0.8427 0.4625 1.1106
C69 C 0.79319(13) 0.5864(4) 1.04101(18)
H85 H 0.7966 0.6727 1.0469
H86 H 0.7754 0.5578 1.0529
C70 C 0.46892(16) 0.1812(5) 0.7434(2)
C71 C 0.45318(15) 0.0772(5) 0.8070(2)
C72 C 0.40683(17) 0.0643(5) 0.7592(2)
H87 H 0.3915 0.0930 0.7167
C73 C 0.3825(2) 0.0079(6) 0.7742(3)
H88 H 0.3508 -0.0033 0.7402
C74 C 0.4012(2) -0.0308(8) 0.8329(3)
C75 C 0.4470(4) 0.0108(12) 0.8856(6)
H89 H 0.4602 -0.0041 0.9291
C78 C 0.4752(4) 0.0061(12) 0.8658(6)
H92 H 0.5075 0.0009 0.8968
C79 C 0.4666(2) 0.0586(7) 0.6301(3)
C80 C 0.4197(2) 0.0895(9) 0.5701(4)
H93 H 0.4117 0.1677 0.5750
H94 H 0.3981 0.0315 0.5629
H95 H 0.4184 0.0895 0.5331
C81 C 0.4759(3) -0.0456(8) 0.6593(5)
H96 H 0.4524 -0.1017 0.6418
H97 H 0.5061 -0.0634 0.6975
C82 C 0.8019(2) 0.8525(5) 0.9415(3)
H98 H 0.7957 0.8550 0.9711
H99 H 0.7802 0.9035 0.9041
H100 H 0.8330 0.8799 0.9642
C83 C 0.80968(18) 0.7090(7) 0.8758(2)
H101 H 0.7838 0.7306 0.8309
H102 H 0.8177 0.6266 0.8775
H103 H 0.8358 0.7592 0.8922
C84 C 0.89663(15) 0.4724(5) 1.0631(2)
C85 C 0.9272(2) 0.3914(6) 1.1238(3)
H104 H 0.9271 0.4201 1.1576
H105 H 0.9584 0.3922 1.1402
H106 H 0.9153 0.3109 1.1119
C86 C 0.89666(19) 0.4299(7) 1.0095(3)
H107 H 0.9281 0.4248 1.0269
H108 H 0.8796 0.4857 0.9733
H109 H 0.8823 0.3523 0.9942
Br2? Br 1.00300(10) -0.0125(4) 1.12080(14)
Br3? Br 1.01475(12) 0.1766(5) 1.11081(17)
Br4? Br 1.01069(18) 0.0840(7) 1.1164(2)
C33? C 0.9150(4) 0.1144(4) 1.0246(6)
H36? H 0.9188 0.1271 1.0622
C34? C 0.9509(6) 0.1127(8) 1.0306(9)
C35? C 0.9499(7) 0.0940(9) 0.9754(10)
H37? H 0.9761 0.0914 0.9797
C36? C 0.9037(4) 0.0805(7) 0.9148(6)
H38? H 0.8992 0.0715 0.8763
Br6? Br 0.37073(7) -0.1468(3) 0.84917(13)
C76? C 0.4726(4) 0.0730(12) 0.8737(6)
H90? H 0.5008 0.1097 0.9075
C77? C 0.4482(5) -0.0566(15) 0.8768(7)
H91? H 0.4613 -0.1112 0.9112
loop_
_geom_bond_atom_site_label_1
_geom_bond_atom_site_label_2
_geom_bond_site_symmetry_1
_geom_bond_site_symmetry_2
Br1 C30 1_555 1_555
O1 C26 1_555 1_555
O2 C1 1_555 1_555
O3 C14 1_555 1_555
O4 C20 1_555 1_555
O5 C21 1_555 1_555
O6 H1 1_555 1_555
N1 H2 1_555 1_555
C1 H3 1_555 1_555
C2 C1 1_555 1_555
H4 C2 1_555 1_555
C3 C2 1_555 1_555
H5 C3 1_555 1_555
H6 C3 1_555 1_555
C4 C3 1_555 1_555
H7 C4 1_555 1_555
H8 C4 1_555 1_555
C5 C1 1_555 1_555
H9 C5 1_555 1_555
C6 C5 1_555 1_555
H10 C6 1_555 1_555
C7 C6 1_555 1_555
H11 C7 1_555 1_555
H12 C7 1_555 1_555
C8 C7 1_555 1_555
H13 C8 1_555 1_555
H14 C8 1_555 1_555
C9 C8 1_555 1_555
H15 C9 1_555 1_555
C10 C6 1_555 1_555
C11 C10 1_555 1_555
H16 C11 1_555 1_555
C12 C11 1_555 1_555
C13 C12 1_555 1_555
C14 C9 1_555 1_555
H17 C14 1_555 1_555
C15 O3 1_555 1_555
H18 C15 1_555 1_555
H19 C15 1_555 1_555
C16 C13 1_555 1_555
H20 C16 1_555 1_555
H21 C16 1_555 1_555
C17 C16 1_555 1_555
H22 C17 1_555 1_555
H23 C17 1_555 1_555
C18 C12 1_555 1_555
H24 C18 1_555 1_555
C19 C18 1_555 1_555
C20 C13 1_555 1_555
H25 C20 1_555 1_555
C21 O4 1_555 1_555
C22 O5 1_555 1_555
H26 C22 1_555 1_555
C23 C22 1_555 1_555
H27 C23 1_555 1_555
C24 C23 1_555 1_555
H28 C24 1_555 1_555
H29 C24 1_555 1_555
C25 C19 1_555 1_555
H30 C25 1_555 1_555
H31 C25 1_555 1_555
C26 O2 1_555 1_555
C27 N1 1_555 1_555
C28 C27 1_555 1_555
H32 C28 1_555 1_555
C29 C28 1_555 1_555
H33 C29 1_555 1_555
C30 C29 1_555 1_555
C31 C30 1_555 1_555
H34 C31 1_555 1_555
C32 C27 1_555 1_555
H35 C32 1_555 1_555
C37 C2 1_555 1_555
C38 C37 1_555 1_555
H39 C38 1_555 1_555
H40 C38 1_555 1_555
H41 C38 1_555 1_555
C39 C37 1_555 1_555
H42 C39 1_555 1_555
H43 C39 1_555 1_555
C40 C21 1_555 1_555
H44 C40 1_555 1_555
H45 C40 1_555 1_555
H46 C40 1_555 1_555
C41 C21 1_555 1_555
H47 C41 1_555 1_555
H48 C41 1_555 1_555
H49 C41 1_555 1_555
C42 O6 1_555 1_555
C43 C42 1_555 1_555
H50 C43 1_555 1_555
H51 C43 1_555 1_555
H52 C43 1_555 1_555
C44 C42 1_555 1_555
H53 C44 1_555 1_555
H54 C44 1_555 1_555
H55 C44 1_555 1_555
Br5 C74 1_555 1_555
O7 C70 1_555 1_555
O8 C45 1_555 1_555
O9 C58 1_555 1_555
O10 C64 1_555 1_555
O11 C65 1_555 1_555
O12 H56 1_555 1_555
N2 H57 1_555 1_555
C45 H58 1_555 1_555
C46 C45 1_555 1_555
H59 C46 1_555 1_555
C47 C46 1_555 1_555
H60 C47 1_555 1_555
H61 C47 1_555 1_555
C48 C47 1_555 1_555
H62 C48 1_555 1_555
H63 C48 1_555 1_555
C49 C45 1_555 1_555
H64 C49 1_555 1_555
C50 C49 1_555 1_555
H65 C50 1_555 1_555
C51 C50 1_555 1_555
H66 C51 1_555 1_555
H67 C51 1_555 1_555
C52 C51 1_555 1_555
H68 C52 1_555 1_555
H69 C52 1_555 1_555
C53 C52 1_555 1_555
H70 C53 1_555 1_555
C54 C50 1_555 1_555
C55 C54 1_555 1_555
H71 C55 1_555 1_555
C56 C55 1_555 1_555
C57 C56 1_555 1_555
C58 C53 1_555 1_555
H72 C58 1_555 1_555
C59 O9 1_555 1_555
H73 C59 1_555 1_555
H74 C59 1_555 1_555
C60 C57 1_555 1_555
H75 C60 1_555 1_555
H76 C60 1_555 1_555
C61 C60 1_555 1_555
H77 C61 1_555 1_555
H78 C61 1_555 1_555
C62 C56 1_555 1_555
H79 C62 1_555 1_555
C63 C62 1_555 1_555
C64 C57 1_555 1_555
H80 C64 1_555 1_555
C65 O10 1_555 1_555
C66 O11 1_555 1_555
H81 C66 1_555 1_555
C67 C66 1_555 1_555
H82 C67 1_555 1_555
C68 C67 1_555 1_555
H83 C68 1_555 1_555
H84 C68 1_555 1_555
C69 C63 1_555 1_555
H85 C69 1_555 1_555
H86 C69 1_555 1_555
C70 O8 1_555 1_555
C71 N2 1_555 1_555
C72 C71 1_555 1_555
H87 C72 1_555 1_555
C73 C72 1_555 1_555
H88 C73 1_555 1_555
C74 C73 1_555 1_555
C75 C74 1_555 1_555
H89 C75 1_555 1_555
C78 C71 1_555 1_555
H92 C78 1_555 1_555
C79 C46 1_555 1_555
C80 C79 1_555 1_555
H93 C80 1_555 1_555
H94 C80 1_555 1_555
H95 C80 1_555 1_555
C81 C79 1_555 1_555
H96 C81 1_555 1_555
H97 C81 1_555 1_555
C82 C65 1_555 1_555
H98 C82 1_555 1_555
H99 C82 1_555 1_555
H100 C82 1_555 1_555
C83 C65 1_555 1_555
H101 C83 1_555 1_555
H102 C83 1_555 1_555
H103 C83 1_555 1_555
C84 O12 1_555 1_555
C85 C84 1_555 1_555
H104 C85 1_555 1_555
H105 C85 1_555 1_555
H106 C85 1_555 1_555
C86 C84 1_555 1_555
H107 C86 1_555 1_555
H108 C86 1_555 1_555
H109 C86 1_555 1_555
N1 C26 1_555 1_555
C4 C5 1_555 1_555
C9 C10 1_555 1_555
C12 C15 1_555 1_555
C13 C14 1_555 1_555
C17 C18 1_555 1_555
C19 C20 1_555 1_555
C19 C22 1_555 1_555
C23 C42 1_555 1_555
C24 C25 1_555 1_555
C31 C32 1_555 1_555
N2 C70 1_555 1_555
C48 C49 1_555 1_555
C53 C54 1_555 1_555
C56 C59 1_555 1_555
C57 C58 1_555 1_555
C61 C62 1_555 1_555
C63 C64 1_555 1_555
C63 C66 1_555 1_555
C67 C84 1_555 1_555
C68 C69 1_555 1_555
C75 C78 1_555 1_555

#END
