
#######################################################################
#
#                 Cambridge Crystallographic Data Centre
#                                CCDC 
#
#######################################################################
#
# If this CIF has been generated from an entry in the Cambridge 
# Structural Database, then it will include bibliographic, chemical, 
# crystal, experimental, refinement or atomic coordinate data resulting 
# from the CCDC's data processing and validation procedures.
#
#######################################################################

data_QOQMIU
_chemical_formula_moiety         'C44 H44 B2 F4 N6 O2'
_chemical_name_systematic        
6,6,16,16-tetrafluoro-1,11-bis(hexyloxy)-9,19-diphenyl-6,16-pyrido[1',2':3,4][1,3,5,2]triazaborinino[1,6-a]pyrido[1'',2'':3',4'][1,3,5,2]triazaborinino[1',6':1,5]pyrrolo[2,3-f]indole
_symmetry_cell_setting           triclinic
_symmetry_space_group_name_H-M   'P -1'
_symmetry_Int_Tables_number      2
_space_group_name_Hall           '-P 1'
loop_
_symmetry_equiv_pos_site_id
_symmetry_equiv_pos_as_xyz
1 x,y,z
2 -x,-y,-z
_cell_length_a                   11.4702(6)
_cell_length_b                   13.1470(6)
_cell_length_c                   14.9642(8)
_cell_angle_alpha                113.625(4)
_cell_angle_beta                 95.348(4)
_cell_angle_gamma                105.167(4)
_cell_volume                     1944.74
_exptl_crystal_colour            brown
_exptl_crystal_description       block
_cell_formula_units_Z            2
_chemical_properties_physical    stable
_exptl_crystal_preparation       'NIR absorption'
loop_
_atom_site_label
_atom_site_type_symbol
_atom_site_fract_x
_atom_site_fract_y
_atom_site_fract_z
C1 C 0.4299(2) 0.61212(18) 0.65481(16)
H1 H 0.3427 0.5882 0.6320
C2 C 0.49269(19) 0.53383(17) 0.62840(15)
N1 N 0.44330(16) 0.41249(14) 0.57100(13)
B1 B 0.3086(2) 0.3362(2) 0.54385(19)
N2 N 0.30673(17) 0.20653(15) 0.47547(14)
C3 C 0.1944(2) 0.1239(2) 0.4269(2)
H2 H 0.1219 0.1459 0.4339
C4 C 0.1827(2) 0.0102(2) 0.3685(2)
H3 H 0.1027 -0.0464 0.3356
C5 C 0.2883(2) -0.0238(2) 0.35669(19)
H4 H 0.2809 -0.1028 0.3148
C6 C 0.4026(2) 0.05916(19) 0.40668(17)
C7 C 0.41204(19) 0.17815(18) 0.46732(16)
N3 N 0.52738(16) 0.25699(15) 0.51502(13)
C8 C 0.53842(19) 0.36798(18) 0.56406(15)
C9 C 0.65678(19) 0.46352(17) 0.61901(15)
C10 C 0.62636(19) 0.56546(18) 0.65895(15)
C11 C 0.6971(2) 0.68533(18) 0.72530(16)
H5 H 0.7842 0.7094 0.7488
C12 C 0.63369(19) 0.76290(17) 0.75297(15)
N4 N 0.68031(17) 0.88240(15) 0.82051(13)
B2 B 0.8092(2) 0.9506(2) 0.8845(2)
N5 N 0.80870(17) 1.07936(16) 0.95006(14)
C13 C 0.9187(2) 1.1581(2) 1.01070(18)
H6 H 0.9908 1.1352 1.0080
C14 C 0.9278(2) 1.2696(2) 1.07563(19)
H7 H 1.0057 1.3238 1.1174
C15 C 0.8224(2) 1.3034(2) 1.08029(18)
H8 H 0.8279 1.3808 1.1253
C16 C 0.7106(2) 1.22429(19) 1.01947(17)
C17 C 0.7033(2) 1.10871(18) 0.95020(16)
N6 N 0.59101(17) 1.03313(15) 0.88984(14)
C18 C 0.5839(2) 0.92543(18) 0.83020(16)
C19 C 0.46882(19) 0.83181(18) 0.76321(15)
F1 F 0.26767(12) 0.33684(12) 0.62863(10)
F2 F 0.23060(12) 0.36658(11) 0.49205(11)
O1 O 0.51284(15) 0.04110(13) 0.40503(12)
C20 C 0.5147(2) -0.07303(18) 0.33741(18)
H9 H 0.4749 -0.0937 0.2681
H10 H 0.4693 -0.1337 0.3564
C21 C 0.6483(2) -0.06634(19) 0.34472(18)
H11 H 0.6825 -0.0601 0.4106
H12 H 0.6962 0.0052 0.3401
C22 C 0.6632(2) -0.1740(2) 0.26193(19)
H13 H 0.6184 -0.2447 0.2690
H14 H 0.6240 -0.1824 0.1964
C23 C 0.7963(2) -0.1692(2) 0.2621(2)
H15 H 0.8336 -0.1700 0.3241
H16 H 0.8438 -0.0949 0.2615
C24 C 0.8056(3) -0.2723(3) 0.1719(3)
H17 H 0.7604 -0.3458 0.1748
H18 H 0.7631 -0.2735 0.1106
C25 C 0.9344(3) -0.2719(3) 0.1628(2)
H19 H 0.9310 -0.3420 0.1033
H20 H 0.9774 -0.2722 0.2224
H21 H 0.9794 -0.2014 0.1567
C26 C 0.77783(19) 0.44583(18) 0.62694(15)
C27 C 0.7865(2) 0.33722(19) 0.61608(17)
H22 H 0.7133 0.2743 0.6029
C28 C 0.9010(2) 0.3211(2) 0.62437(18)
H23 H 0.9053 0.2465 0.6155
C29 C 1.0089(2) 0.4118(2) 0.64538(19)
H24 H 1.0873 0.4010 0.6535
C30 C 1.0009(2) 0.5188(2) 0.6544(2)
H25 H 1.0744 0.5813 0.6675
C31 C 0.8878(2) 0.53549(19) 0.64470(18)
H26 H 0.8842 0.6091 0.6501
F3 F 0.83877(15) 0.90466(12) 0.94887(12)
F4 F 0.89860(13) 0.95675(13) 0.82928(12)
O2 O 0.60105(15) 1.24447(13) 1.01752(12)
C32 C 0.6013(2) 1.35948(19) 1.08397(17)
H27 H 0.6568 1.4200 1.0697
H28 H 0.6309 1.3765 1.1544
C33 C 0.4706(2) 1.35999(19) 1.06675(18)
H29 H 0.4183 1.3056 1.0887
H30 H 0.4382 1.3310 0.9942
C34 C 0.4612(2) 1.48266(19) 1.12323(18)
H31 H 0.4938 1.5115 1.1957
H32 H 0.5138 1.5369 1.1013
C35 C 0.3298(2) 1.4847(2) 1.10664(18)
H33 H 0.2798 1.4375 1.1357
H34 H 0.2940 1.4468 1.0338
C36 C 0.3194(2) 1.6071(2) 1.1520(2)
H35 H 0.3511 1.6439 1.2253
H36 H 0.3721 1.6557 1.1253
C37 C 0.1879(3) 1.6065(3) 1.1300(2)
H37 H 0.1552 1.5684 1.0574
H38 H 0.1868 1.6876 1.1580
H39 H 0.1363 1.5633 1.1604
C38 C 0.34628(19) 0.84431(17) 0.75097(16)
C39 C 0.3096(2) 0.92187(19) 0.83015(17)
H40 H 0.3663 0.9705 0.8930
C40 C 0.1907(2) 0.9276(2) 0.81684(18)
H41 H 0.1667 0.9804 0.8708
C41 C 0.1063(2) 0.8573(2) 0.72602(18)
H42 H 0.0241 0.8599 0.7183
C42 C 0.1432(2) 0.7830(2) 0.64630(18)
H43 H 0.0866 0.7361 0.5832
C43 C 0.2618(2) 0.77709(18) 0.65838(16)
H44 H 0.2864 0.7268 0.6031
C44 C 0.50157(19) 0.73228(18) 0.71854(16)
loop_
_geom_bond_atom_site_label_1
_geom_bond_atom_site_label_2
_geom_bond_site_symmetry_1
_geom_bond_site_symmetry_2
C1 H1 1_555 1_555
C2 C1 1_555 1_555
N1 C2 1_555 1_555
B1 N1 1_555 1_555
N2 B1 1_555 1_555
C3 N2 1_555 1_555
H2 C3 1_555 1_555
C4 C3 1_555 1_555
H3 C4 1_555 1_555
C5 C4 1_555 1_555
H4 C5 1_555 1_555
C6 C5 1_555 1_555
C7 N2 1_555 1_555
N3 C7 1_555 1_555
C8 N1 1_555 1_555
C9 C8 1_555 1_555
C10 C2 1_555 1_555
C11 C10 1_555 1_555
H5 C11 1_555 1_555
C12 C11 1_555 1_555
N4 C12 1_555 1_555
B2 N4 1_555 1_555
N5 B2 1_555 1_555
C13 N5 1_555 1_555
H6 C13 1_555 1_555
C14 C13 1_555 1_555
H7 C14 1_555 1_555
C15 C14 1_555 1_555
H8 C15 1_555 1_555
C16 C15 1_555 1_555
C17 N5 1_555 1_555
N6 C17 1_555 1_555
C18 N4 1_555 1_555
C19 C18 1_555 1_555
F1 B1 1_555 1_555
F2 B1 1_555 1_555
O1 C6 1_555 1_555
C20 O1 1_555 1_555
H9 C20 1_555 1_555
H10 C20 1_555 1_555
C21 C20 1_555 1_555
H11 C21 1_555 1_555
H12 C21 1_555 1_555
C22 C21 1_555 1_555
H13 C22 1_555 1_555
H14 C22 1_555 1_555
C23 C22 1_555 1_555
H15 C23 1_555 1_555
H16 C23 1_555 1_555
C24 C23 1_555 1_555
H17 C24 1_555 1_555
H18 C24 1_555 1_555
C25 C24 1_555 1_555
H19 C25 1_555 1_555
H20 C25 1_555 1_555
H21 C25 1_555 1_555
C26 C9 1_555 1_555
C27 C26 1_555 1_555
H22 C27 1_555 1_555
C28 C27 1_555 1_555
H23 C28 1_555 1_555
C29 C28 1_555 1_555
H24 C29 1_555 1_555
C30 C29 1_555 1_555
H25 C30 1_555 1_555
C31 C26 1_555 1_555
H26 C31 1_555 1_555
F3 B2 1_555 1_555
F4 B2 1_555 1_555
O2 C16 1_555 1_555
C32 O2 1_555 1_555
H27 C32 1_555 1_555
H28 C32 1_555 1_555
C33 C32 1_555 1_555
H29 C33 1_555 1_555
H30 C33 1_555 1_555
C34 C33 1_555 1_555
H31 C34 1_555 1_555
H32 C34 1_555 1_555
C35 C34 1_555 1_555
H33 C35 1_555 1_555
H34 C35 1_555 1_555
C36 C35 1_555 1_555
H35 C36 1_555 1_555
H36 C36 1_555 1_555
C37 C36 1_555 1_555
H37 C37 1_555 1_555
H38 C37 1_555 1_555
H39 C37 1_555 1_555
C38 C19 1_555 1_555
C39 C38 1_555 1_555
H40 C39 1_555 1_555
C40 C39 1_555 1_555
H41 C40 1_555 1_555
C41 C40 1_555 1_555
H42 C41 1_555 1_555
C42 C41 1_555 1_555
H43 C42 1_555 1_555
C43 C38 1_555 1_555
H44 C43 1_555 1_555
C44 C1 1_555 1_555
C6 C7 1_555 1_555
N3 C8 1_555 1_555
C9 C10 1_555 1_555
C12 C44 1_555 1_555
C16 C17 1_555 1_555
N6 C18 1_555 1_555
C19 C44 1_555 1_555
C30 C31 1_555 1_555
C42 C43 1_555 1_555

#END
