
#######################################################################
#
#                 Cambridge Crystallographic Data Centre
#                                CCDC 
#
#######################################################################
#
# If this CIF has been generated from an entry in the Cambridge 
# Structural Database, then it will include bibliographic, chemical, 
# crystal, experimental, refinement or atomic coordinate data resulting 
# from the CCDC's data processing and validation procedures.
#
#######################################################################

data_QOQMEP
_chemical_formula_moiety         'C28 H50 O5 Si1'
_chemical_name_systematic        
"2'-Hydroxy-3'-(2-hydroxy-2-propanyl)-4-((tri-isopropylsiloxy)methyl)-7-vinylspiro[bicyclo[2.2.1]heptane-2,1'-cyclopentan]-3-yl acetate"
_symmetry_cell_setting           monoclinic
_symmetry_space_group_name_H-M   'C 2/c'
_symmetry_Int_Tables_number      15
_space_group_name_Hall           '-C 2yn'
loop_
_symmetry_equiv_pos_site_id
_symmetry_equiv_pos_as_xyz
1 x,y,z
2 -x,y,1/2-z
3 1/2+x,1/2+y,z
4 1/2-x,1/2+y,1/2-z
5 -x,-y,-z
6 x,-y,1/2+z
7 1/2-x,1/2-y,-z
8 1/2+x,1/2-y,1/2+z
_cell_length_a                   30.250(6)
_cell_length_b                   10.623(2)
_cell_length_c                   23.304(5)
_cell_angle_alpha                90
_cell_angle_beta                 127.28(3)
_cell_angle_gamma                90
_cell_volume                     5958.6
_chemical_melting_point          '131-133 deg.C'
_cell_formula_units_Z            8
_exptl_crystal_recrystallization_method hexanes
loop_
_atom_site_label
_atom_site_type_symbol
_atom_site_fract_x
_atom_site_fract_y
_atom_site_fract_z
Si1 Si 0.21174(4) 0.35848(10) 0.33771(6)
O1 O 0.03849(8) 0.1377(2) 0.19663(11)
O2 O 0.03707(10) 0.2563(2) 0.11564(12)
O3 O -0.01948(9) -0.0041(2) 0.07541(11)
H1 H -0.0417 -0.0369 0.0358
O4 O -0.07252(10) -0.1875(2) -0.02752(12)
H2 H -0.0607 -0.2029 -0.0504
O5 O 0.17923(9) 0.2223(2) 0.31157(12)
C1 C 0.10633(12) -0.1513(3) 0.24824(16)
H3 H 0.1147 -0.2345 0.2388
C2 C 0.15827(13) -0.0694(3) 0.29938(17)
H4 H 0.1754 -0.0468 0.2761
C3 C 0.12437(12) 0.0426(3) 0.29615(16)
C4 C 0.08637(12) 0.0661(3) 0.21492(16)
H5 H 0.1064 0.1135 0.2011
C5 C 0.07127(12) -0.0668(3) 0.18013(15)
C6 C 0.08156(14) -0.1558(3) 0.28921(17)
H6 H 0.1011 -0.2157 0.3286
H7 H 0.0424 -0.1774 0.2574
C7 C 0.09033(13) -0.0198(3) 0.31739(17)
H8 H 0.0550 0.0227 0.2949
H9 H 0.1105 -0.0188 0.3693
C8 C 0.08795(13) -0.0926(3) 0.13027(17)
H10 H 0.0799 -0.0201 0.1000
H11 H 0.1273 -0.1116 0.1584
C9 C 0.05288(13) -0.2064(3) 0.08416(18)
H12 H 0.0761 -0.2806 0.0986
H13 H 0.0351 -0.1901 0.0336
C10 C 0.00869(13) -0.2262(3) 0.09689(17)
H14 H 0.0237 -0.2891 0.1352
C11 C 0.00941(12) -0.0998(3) 0.12911(16)
H15 H -0.0058 -0.1088 0.1559
C12 C 0.20114(17) -0.1236(4) 0.3727(2)
H16 H 0.1911 -0.1268 0.4034
C13 C 0.2473(2) -0.1640(6) 0.3977(3)
H17 H 0.2599 -0.1636 0.3700
H18 H 0.2698 -0.1952 0.4446
C14 C 0.15554(14) 0.1580(3) 0.34049(17)
H19 H 0.1303 0.2139 0.3408
H20 H 0.1847 0.1333 0.3899
C15 C 0.01733(14) 0.2261(3) 0.14541(19)
C16 C -0.03376(15) 0.2830(4) 0.1309(2)
H21 H -0.0397 0.3651 0.1102
H22 H -0.0292 0.2899 0.1753
H23 H -0.0652 0.2304 0.0979
C17 C -0.04817(14) -0.2746(3) 0.03240(18)
C18 C -0.04264(16) -0.4027(3) 0.0093(2)
H24 H -0.0789 -0.4347 -0.0283
H25 H -0.0245 -0.4591 0.0497
H26 H -0.0210 -0.3958 -0.0082
C19 C -0.08879(15) -0.2779(4) 0.0502(2)
H27 H -0.0945 -0.1940 0.0599
H28 H -0.0740 -0.3297 0.0919
H29 H -0.1236 -0.3120 0.0100
C20 C 0.28129(17) 0.3332(5) 0.4270(2)
H30 H 0.2740 0.3095 0.4612
C21 C 0.31216(19) 0.2230(6) 0.4242(3)
H31 H 0.3211 0.2430 0.3921
H32 H 0.2891 0.1494 0.4070
H33 H 0.3458 0.2072 0.4716
C22 C 0.3183(2) 0.4489(5) 0.4581(3)
H34 H 0.3525 0.4284 0.5040
H35 H 0.2998 0.5149 0.4641
H36 H 0.3261 0.4766 0.4258
C23 C 0.17086(19) 0.4784(4) 0.3464(2)
H37 H 0.1859 0.5606 0.3470
C24 C 0.1760(2) 0.4717(5) 0.4152(3)
H38 H 0.1557 0.5400 0.4161
H39 H 0.2144 0.4778 0.4560
H40 H 0.1611 0.3931 0.4168
C25 C 0.10873(19) 0.4805(4) 0.2808(3)
H41 H 0.0921 0.4010 0.2772
H42 H 0.1053 0.4952 0.2376
H43 H 0.0902 0.5464 0.2868
C26 C 0.2203(2) 0.4003(5) 0.2667(2)
H44 H 0.2527 0.3520 0.2793
C27 C 0.1749(2) 0.3587(7) 0.1943(3)
H45 H 0.1831 0.3798 0.1615
H46 H 0.1411 0.3996 0.1792
H47 H 0.1706 0.2691 0.1943
C28 C 0.2356(3) 0.5371(5) 0.2679(3)
H48 H 0.2481 0.5466 0.2388
H49 H 0.2648 0.5616 0.3166
H50 H 0.2037 0.5893 0.2490
loop_
_geom_bond_atom_site_label_1
_geom_bond_atom_site_label_2
_geom_bond_site_symmetry_1
_geom_bond_site_symmetry_2
Si1 O5 1_555 1_555
O1 C4 1_555 1_555
O2 C15 1_555 1_555
O3 H1 1_555 1_555
O4 H2 1_555 1_555
O5 C14 1_555 1_555
C1 H3 1_555 1_555
C2 C1 1_555 1_555
H4 C2 1_555 1_555
C3 C2 1_555 1_555
C4 C3 1_555 1_555
H5 C4 1_555 1_555
C5 C1 1_555 1_555
C6 C1 1_555 1_555
H6 C6 1_555 1_555
H7 C6 1_555 1_555
C7 C3 1_555 1_555
H8 C7 1_555 1_555
H9 C7 1_555 1_555
C8 C5 1_555 1_555
H10 C8 1_555 1_555
H11 C8 1_555 1_555
C9 C8 1_555 1_555
H12 C9 1_555 1_555
H13 C9 1_555 1_555
C10 C9 1_555 1_555
H14 C10 1_555 1_555
C11 O3 1_555 1_555
H15 C11 1_555 1_555
C12 C2 1_555 1_555
H16 C12 1_555 1_555
C13 C12 1_555 1_555
H17 C13 1_555 1_555
H18 C13 1_555 1_555
C14 C3 1_555 1_555
H19 C14 1_555 1_555
H20 C14 1_555 1_555
C15 O1 1_555 1_555
C16 C15 1_555 1_555
H21 C16 1_555 1_555
H22 C16 1_555 1_555
H23 C16 1_555 1_555
C17 O4 1_555 1_555
C18 C17 1_555 1_555
H24 C18 1_555 1_555
H25 C18 1_555 1_555
H26 C18 1_555 1_555
C19 C17 1_555 1_555
H27 C19 1_555 1_555
H28 C19 1_555 1_555
H29 C19 1_555 1_555
C20 Si1 1_555 1_555
H30 C20 1_555 1_555
C21 C20 1_555 1_555
H31 C21 1_555 1_555
H32 C21 1_555 1_555
H33 C21 1_555 1_555
C22 C20 1_555 1_555
H34 C22 1_555 1_555
H35 C22 1_555 1_555
H36 C22 1_555 1_555
C23 Si1 1_555 1_555
H37 C23 1_555 1_555
C24 C23 1_555 1_555
H38 C24 1_555 1_555
H39 C24 1_555 1_555
H40 C24 1_555 1_555
C25 C23 1_555 1_555
H41 C25 1_555 1_555
H42 C25 1_555 1_555
H43 C25 1_555 1_555
C26 Si1 1_555 1_555
H44 C26 1_555 1_555
C27 C26 1_555 1_555
H45 C27 1_555 1_555
H46 C27 1_555 1_555
H47 C27 1_555 1_555
C28 C26 1_555 1_555
H48 C28 1_555 1_555
H49 C28 1_555 1_555
H50 C28 1_555 1_555
C4 C5 1_555 1_555
C5 C11 1_555 1_555
C6 C7 1_555 1_555
C10 C11 1_555 1_555
C10 C17 1_555 1_555

#END
