
#######################################################################
#
#                 Cambridge Crystallographic Data Centre
#                                CCDC 
#
#######################################################################
#
# If this CIF has been generated from an entry in the Cambridge 
# Structural Database, then it will include bibliographic, chemical, 
# crystal, experimental, refinement or atomic coordinate data resulting 
# from the CCDC's data processing and validation procedures.
#
#######################################################################

data_QOQNIU
_chemical_formula_moiety         'C4 H12 N1 1+,C22 H18 N1 O4 1-,2(C1 H4 O1)'
_chemical_name_systematic        
'tetramethylammonium 2-(((2-hydroxyphenyl)(2-oxidophenyl)methylene)ammonio)-3-phenylpropanoate methanol solvate'
_symmetry_cell_setting           monoclinic
_symmetry_space_group_name_H-M   'P 21/c'
_symmetry_Int_Tables_number      14
_space_group_name_Hall           '-P 2ybc'
loop_
_symmetry_equiv_pos_site_id
_symmetry_equiv_pos_as_xyz
1 x,y,z
2 -x,1/2+y,1/2-z
3 -x,-y,-z
4 x,1/2-y,1/2+z
_cell_length_a                   9.7966(6)
_cell_length_b                   25.7319(8)
_cell_length_c                   11.0786(6)
_cell_angle_alpha                90
_cell_angle_beta                 102.8380(18)
_cell_angle_gamma                90
_cell_volume                     2722.94
_exptl_crystal_colour            yellow
_exptl_crystal_description       block
_cell_formula_units_Z            4
loop_
_atom_site_label
_atom_site_type_symbol
_atom_site_fract_x
_atom_site_fract_y
_atom_site_fract_z
O1 O 0.4037(2) 0.38262(9) 0.4176(2)
O2 O 0.0509(2) 0.30163(9) 0.0935(2)
O3 O 0.1761(3) 0.30078(8) 0.5058(2)
O4 O -0.0502(3) 0.27975(8) 0.4643(2)
N1 N 0.1437(3) 0.37203(10) 0.3307(3)
C1 C 0.1580(4) 0.38881(11) 0.2230(3)
C2 C 0.0157(4) 0.35325(12) 0.3621(3)
H1 H -0.0487 0.3405 0.2847
C3 C 0.0523(4) 0.30754(12) 0.4520(3)
C4 C -0.0587(4) 0.39687(12) 0.4177(3)
H2 H -0.0828 0.4251 0.3561
H3 H -0.1473 0.3830 0.4336
C5 C 0.2959(4) 0.40247(11) 0.2067(3)
C6 C 0.4159(4) 0.39699(13) 0.3087(4)
C7 C 0.5486(4) 0.40766(14) 0.2822(4)
H4 H 0.6302 0.4042 0.3466
C8 C 0.5627(4) 0.42255(14) 0.1686(4)
H5 H 0.6536 0.4290 0.1550
C9 C 0.4466(4) 0.42863(13) 0.0715(4)
H6 H 0.4577 0.4397 -0.0076
C10 C 0.3152(4) 0.41841(12) 0.0912(3)
H7 H 0.2359 0.4223 0.0246
C11 C 0.0327(3) 0.39184(12) 0.1190(3)
C12 C -0.0186(4) 0.34626(12) 0.0550(3)
C13 C -0.1359(4) 0.34867(12) -0.0414(3)
H8 H -0.1708 0.3180 -0.0852
C14 C -0.2025(4) 0.39593(13) -0.0742(3)
H9 H -0.2833 0.3972 -0.1400
C15 C -0.1524(4) 0.44103(12) -0.0121(3)
H10 H -0.1983 0.4732 -0.0354
C16 C -0.0354(4) 0.43904(12) 0.0840(3)
H11 H -0.0009 0.4700 0.1267
C17 C 0.0266(4) 0.41946(12) 0.5367(3)
C18 C -0.0060(4) 0.40802(13) 0.6499(4)
H12 H -0.0829 0.3859 0.6521
C19 C 0.0721(4) 0.42844(13) 0.7590(4)
H13 H 0.0474 0.4207 0.8353
C20 C 0.1853(4) 0.45990(13) 0.7575(4)
H14 H 0.2400 0.4733 0.8327
C21 C 0.2191(4) 0.47189(13) 0.6469(4)
H15 H 0.2972 0.4936 0.6456
C22 C 0.1392(4) 0.45235(12) 0.5371(4)
H16 H 0.1618 0.4616 0.4609
H35 H 0.225(4) 0.3699(12) 0.389(3)
H36 H 0.007(5) 0.2653(18) 0.046(4)
N2 N 0.6310(3) 0.71151(10) 0.1773(3)
C23 C 0.7749(4) 0.69579(14) 0.1693(4)
H17 H 0.8137 0.7217 0.1215
H18 H 0.7714 0.6619 0.1284
H19 H 0.8343 0.6934 0.2529
C24 C 0.5391(5) 0.71647(15) 0.0516(4)
H20 H 0.5782 0.7425 0.0042
H21 H 0.4453 0.7273 0.0587
H22 H 0.5331 0.6829 0.0091
C25 C 0.5722(4) 0.67109(13) 0.2503(4)
H23 H 0.5679 0.6375 0.2081
H24 H 0.4779 0.6814 0.2570
H25 H 0.6327 0.6682 0.3334
C26 C 0.6388(4) 0.76254(12) 0.2415(3)
H26 H 0.6773 0.7887 0.1939
H27 H 0.6994 0.7595 0.3244
H28 H 0.5447 0.7731 0.2484
O5 O 0.3843(3) 0.59824(11) 0.3794(3)
C27 C 0.3706(5) 0.54414(15) 0.3694(4)
H29 H 0.4470 0.5299 0.3355
H30 H 0.2807 0.5355 0.3143
H31 H 0.3745 0.5292 0.4515
H37 H 0.449(5) 0.6078(15) 0.445(4)
O6 O 0.2878(3) 0.75734(11) 0.2152(3)
C28 C 0.2309(5) 0.7399(2) 0.3172(5)
H32 H 0.2856 0.7104 0.3577
H33 H 0.1333 0.7292 0.2865
H34 H 0.2349 0.7683 0.3769
H38 H 0.214(6) 0.774(2) 0.141(5)
loop_
_geom_bond_atom_site_label_1
_geom_bond_atom_site_label_2
_geom_bond_site_symmetry_1
_geom_bond_site_symmetry_2
O1 C6 1_555 1_555
O2 C12 1_555 1_555
O3 C3 1_555 1_555
O4 C3 1_555 1_555
N1 C1 1_555 1_555
C1 C5 1_555 1_555
C2 N1 1_555 1_555
H1 C2 1_555 1_555
C3 C2 1_555 1_555
C4 C2 1_555 1_555
H2 C4 1_555 1_555
H3 C4 1_555 1_555
C5 C6 1_555 1_555
C6 C7 1_555 1_555
C7 H4 1_555 1_555
C8 C7 1_555 1_555
H5 C8 1_555 1_555
C9 C8 1_555 1_555
H6 C9 1_555 1_555
C10 C5 1_555 1_555
H7 C10 1_555 1_555
C11 C1 1_555 1_555
C12 C11 1_555 1_555
C13 C12 1_555 1_555
H8 C13 1_555 1_555
C14 C13 1_555 1_555
H9 C14 1_555 1_555
C15 C14 1_555 1_555
H10 C15 1_555 1_555
C16 C11 1_555 1_555
H11 C16 1_555 1_555
C17 C4 1_555 1_555
C18 C17 1_555 1_555
H12 C18 1_555 1_555
C19 C18 1_555 1_555
H13 C19 1_555 1_555
C20 C19 1_555 1_555
H14 C20 1_555 1_555
C21 C20 1_555 1_555
H15 C21 1_555 1_555
C22 C17 1_555 1_555
H16 C22 1_555 1_555
N2 C23 1_555 1_555
C23 H17 1_555 1_555
H18 C23 1_555 1_555
H19 C23 1_555 1_555
C24 N2 1_555 1_555
H20 C24 1_555 1_555
H21 C24 1_555 1_555
H22 C24 1_555 1_555
C25 N2 1_555 1_555
H23 C25 1_555 1_555
H24 C25 1_555 1_555
H25 C25 1_555 1_555
C26 N2 1_555 1_555
H26 C26 1_555 1_555
H27 C26 1_555 1_555
H28 C26 1_555 1_555
O5 C27 1_555 1_555
C27 H29 1_555 1_555
H30 C27 1_555 1_555
H31 C27 1_555 1_555
O6 C28 1_555 1_555
C28 H32 1_555 1_555
H33 C28 1_555 1_555
H34 C28 1_555 1_555
H35 N1 1_555 1_555
H36 O2 1_555 1_555
H37 O5 1_555 1_555
H38 O6 1_555 1_555
C9 C10 1_555 1_555
C15 C16 1_555 1_555
C21 C22 1_555 1_555

#END
