
#######################################################################
#
#                 Cambridge Crystallographic Data Centre
#                                CCDC 
#
#######################################################################
#
# If this CIF has been generated from an entry in the Cambridge 
# Structural Database, then it will include bibliographic, chemical, 
# crystal, experimental, refinement or atomic coordinate data resulting 
# from the CCDC's data processing and validation procedures.
#
#######################################################################

data_QOQNOA
_chemical_formula_moiety         'C4 H12 N1 1+,C16 H14 N1 O5 1-,C1 H4 O1'
_chemical_name_systematic        
'tetramethylammonium 3-hydroxy-2-(((2-hydroxyphenyl)(2-oxidophenyl)methylene)ammonio)propanoate methanol solvate'
_symmetry_cell_setting           monoclinic
_symmetry_space_group_name_H-M   'P 21/n'
_symmetry_Int_Tables_number      14
_space_group_name_Hall           '-P 2yn'
loop_
_symmetry_equiv_pos_site_id
_symmetry_equiv_pos_as_xyz
1 x,y,z
2 1/2-x,1/2+y,1/2-z
3 -x,-y,-z
4 1/2+x,1/2-y,1/2+z
_cell_length_a                   10.5326(4)
_cell_length_b                   8.1375(2)
_cell_length_c                   24.7829(11)
_cell_angle_alpha                90
_cell_angle_beta                 90.2580(18)
_cell_angle_gamma                90
_cell_volume                     2124.1
_exptl_crystal_colour            'pale yellow'
_exptl_crystal_description       block
_cell_formula_units_Z            4
loop_
_atom_site_label
_atom_site_type_symbol
_atom_site_fract_x
_atom_site_fract_y
_atom_site_fract_z
O1 O 0.05857(15) 0.70220(19) 0.11199(7)
H1 H 0.047(3) 0.8042(16) 0.1047(14)
O2 O 0.36627(14) 0.24343(18) 0.13009(6)
O3 O 0.19070(16) 0.2159(2) -0.00138(7)
H2 H 0.163(4) 0.125(3) -0.0146(14)
O4 O -0.10372(16) 0.0700(2) 0.04222(8)
O5 O 0.04221(17) 0.01216(19) 0.10549(7)
N1 N 0.13671(18) 0.3132(2) 0.10765(7)
H3 H 0.217(3) 0.265(3) 0.1067(11)
C1 C 0.1284(2) 0.3986(2) 0.15213(9)
C2 C 0.0359(2) 0.2822(3) 0.06845(9)
H4 H -0.0360 0.3591 0.0758
C3 C -0.0134(2) 0.1041(3) 0.07274(10)
C4 C 0.0864(2) 0.3163(3) 0.01154(10)
H5 H 0.0176 0.2974 -0.0151
H6 H 0.1122 0.4331 0.0090
C5 C 0.0054(2) 0.4770(2) 0.16692(9)
C6 C -0.0268(2) 0.6301(3) 0.14464(9)
C7 C -0.1431(2) 0.7010(3) 0.15752(9)
H7 H -0.1665 0.8037 0.1422
C8 C -0.2248(2) 0.6222(3) 0.19267(10)
H8 H -0.3042 0.6710 0.2011
C9 C -0.1919(2) 0.4731(3) 0.21563(10)
H9 H -0.2474 0.4211 0.2405
C10 C -0.0776(2) 0.4001(3) 0.20210(10)
H10 H -0.0558 0.2964 0.2171
C11 C 0.2386(2) 0.4134(2) 0.18684(9)
C12 C 0.3548(2) 0.3321(2) 0.17356(9)
C13 C 0.4579(2) 0.3507(3) 0.21019(9)
H11 H 0.5370 0.3002 0.2023
C14 C 0.4455(2) 0.4401(3) 0.25663(10)
H12 H 0.5162 0.4500 0.2803
C15 C 0.3315(2) 0.5169(3) 0.27001(9)
H13 H 0.3241 0.5770 0.3027
C16 C 0.2299(2) 0.5045(2) 0.23525(9)
H14 H 0.1525 0.5582 0.2439
N2 N 0.40958(18) 0.7877(2) 0.08018(8)
C17 C 0.3358(2) 0.9123(3) 0.04888(10)
H15 H 0.2451 0.8994 0.0564
H16 H 0.3508 0.8965 0.0102
H17 H 0.3632 1.0229 0.0594
C18 C 0.3668(3) 0.6202(3) 0.06424(13)
H18 H 0.2762 0.6080 0.0721
H19 H 0.4153 0.5379 0.0846
H20 H 0.3808 0.6044 0.0255
C19 C 0.3856(3) 0.8120(3) 0.13911(11)
H21 H 0.2949 0.7980 0.1464
H22 H 0.4121 0.9229 0.1497
H23 H 0.4343 0.7308 0.1599
C20 C 0.5475(3) 0.8073(4) 0.06803(13)
H24 H 0.5615 0.7907 0.0293
H25 H 0.5964 0.7260 0.0886
H26 H 0.5750 0.9181 0.0782
O6 O 0.4371(2) 0.7373(3) -0.06329(10)
H27 H 0.495(3) 0.743(5) -0.0875(14)
C21 C 0.3275(3) 0.6820(5) -0.08895(15)
H28 H 0.2612 0.6627 -0.0621
H29 H 0.3457 0.5794 -0.1081
H30 H 0.2984 0.7651 -0.1148
loop_
_geom_bond_atom_site_label_1
_geom_bond_atom_site_label_2
_geom_bond_site_symmetry_1
_geom_bond_site_symmetry_2
O1 H1 1_555 1_555
O2 C12 1_555 1_555
O3 H2 1_555 1_555
O4 C3 1_555 1_555
O5 C3 1_555 1_555
N1 H3 1_555 1_555
C1 N1 1_555 1_555
C2 N1 1_555 1_555
H4 C2 1_555 1_555
C3 C2 1_555 1_555
C4 O3 1_555 1_555
H5 C4 1_555 1_555
H6 C4 1_555 1_555
C5 C1 1_555 1_555
C6 O1 1_555 1_555
C7 C6 1_555 1_555
H7 C7 1_555 1_555
C8 C7 1_555 1_555
H8 C8 1_555 1_555
C9 C8 1_555 1_555
H9 C9 1_555 1_555
C10 C5 1_555 1_555
H10 C10 1_555 1_555
C11 C1 1_555 1_555
C12 C11 1_555 1_555
C13 C12 1_555 1_555
H11 C13 1_555 1_555
C14 C13 1_555 1_555
H12 C14 1_555 1_555
C15 C14 1_555 1_555
H13 C15 1_555 1_555
C16 C11 1_555 1_555
H14 C16 1_555 1_555
N2 C17 1_555 1_555
C17 H15 1_555 1_555
H16 C17 1_555 1_555
H17 C17 1_555 1_555
C18 N2 1_555 1_555
H18 C18 1_555 1_555
H19 C18 1_555 1_555
H20 C18 1_555 1_555
C19 N2 1_555 1_555
H21 C19 1_555 1_555
H22 C19 1_555 1_555
H23 C19 1_555 1_555
C20 N2 1_555 1_555
H24 C20 1_555 1_555
H25 C20 1_555 1_555
H26 C20 1_555 1_555
O6 H27 1_555 1_555
C21 O6 1_555 1_555
H28 C21 1_555 1_555
H29 C21 1_555 1_555
H30 C21 1_555 1_555
C2 C4 1_555 1_555
C5 C6 1_555 1_555
C9 C10 1_555 1_555
C15 C16 1_555 1_555

#END
