
#######################################################################
#
#                 Cambridge Crystallographic Data Centre
#                                CCDC 
#
#######################################################################
#
# If this CIF has been generated from an entry in the Cambridge 
# Structural Database, then it will include bibliographic, chemical, 
# crystal, experimental, refinement or atomic coordinate data resulting 
# from the CCDC's data processing and validation procedures.
#
#######################################################################

data_QOQNIT
_chemical_formula_moiety         'C23 H26 Cl1 N1 O2'
_chemical_name_systematic        
9-(4-Chlorophenyl)-3,3,6,6-tetramethyl-1,2,3,4,5,6,7,8,9,10-decahydroacridine-1,8-dione
_chemical_properties_biological  
'1,4-dihydropyridine derivatives with cyclohexanone rings may have a positive inotropic effect, promoting entry of calcium into the intracellular space'
_symmetry_cell_setting           orthorhombic
_symmetry_space_group_name_H-M   'P n a 21'
_symmetry_Int_Tables_number      33
_space_group_name_Hall           'P 2c -2n'
loop_
_symmetry_equiv_pos_site_id
_symmetry_equiv_pos_as_xyz
1 x,y,z
2 -x,-y,1/2+z
3 1/2+x,1/2-y,z
4 1/2-x,1/2+y,1/2+z
_cell_length_a                   14.125(3)
_cell_length_b                   14.118(3)
_cell_length_c                   10.719(2)
_cell_angle_alpha                90
_cell_angle_beta                 90
_cell_angle_gamma                90
_cell_volume                     2137.55
_exptl_crystal_colour            yellow
_exptl_crystal_description       prism
_chemical_melting_point          569-571K
_cell_formula_units_Z            4
_exptl_crystal_recrystallization_method '95% ethanol'
loop_
_atom_site_label
_atom_site_type_symbol
_atom_site_fract_x
_atom_site_fract_y
_atom_site_fract_z
Cl1 Cl 0.19784(19) 0.1389(2) 0.9628(2)
O1 O 0.3780(4) 0.5131(3) 0.6853(5)
O2 O 0.2317(3) 0.2663(3) 0.3833(5)
N1 N 0.5554(3) 0.3006(3) 0.4412(6)
H1 H 0.6112 0.2808 0.4226
C1 C 0.4562(5) 0.4831(5) 0.6499(6)
C2 C 0.5476(5) 0.5274(5) 0.6934(7)
H2 H 0.5687 0.4944 0.7677
H3 H 0.5353 0.5927 0.7164
C3 C 0.6271(5) 0.5257(5) 0.5977(6)
C4 C 0.6387(4) 0.4260(5) 0.5504(8)
H4 H 0.6722 0.3894 0.6130
H5 H 0.6779 0.4275 0.4761
C5 C 0.5472(4) 0.3759(4) 0.5195(6)
C6 C 0.4622(4) 0.4019(4) 0.5649(6)
C7 C 0.3718(4) 0.3501(4) 0.5316(6)
H6 H 0.3258 0.3969 0.5017
C8 C 0.3911(4) 0.2809(4) 0.4267(5)
C9 C 0.4812(4) 0.2562(4) 0.3920(6)
C10 C 0.5027(5) 0.1841(5) 0.2929(7)
H7 H 0.5598 0.1501 0.3158
H8 H 0.5148 0.2167 0.2149
C11 C 0.4225(5) 0.1130(5) 0.2736(7)
C12 C 0.3301(5) 0.1689(5) 0.2601(7)
H9 H 0.3311 0.2019 0.1808
H10 H 0.2778 0.1244 0.2579
C13 C 0.3118(4) 0.2390(4) 0.3606(6)
C14 C 0.7206(6) 0.5582(6) 0.6536(9)
H11 H 0.7351 0.5202 0.7254
H12 H 0.7157 0.6234 0.6779
H13 H 0.7700 0.5513 0.5927
C15 C 0.6006(6) 0.5926(6) 0.4908(8)
H14 H 0.5374 0.5789 0.4632
H15 H 0.6440 0.5839 0.4228
H16 H 0.6039 0.6570 0.5194
C16 C 0.4413(7) 0.0569(7) 0.1536(9)
H17 H 0.3937 0.0090 0.1439
H18 H 0.5025 0.0276 0.1585
H19 H 0.4395 0.0991 0.0834
C17 C 0.4167(7) 0.0448(5) 0.3804(9)
H20 H 0.4080 0.0793 0.4568
H21 H 0.4742 0.0087 0.3850
H22 H 0.3641 0.0027 0.3680
C18 C 0.3290(4) 0.2992(5) 0.6415(6)
C19 C 0.3798(5) 0.2290(5) 0.7038(7)
H23 H 0.4415 0.2149 0.6797
C20 C 0.3377(6) 0.1798(7) 0.8031(8)
H24 H 0.3709 0.1316 0.8428
C21 C 0.2483(7) 0.2022(7) 0.8418(7)
C22 C 0.1990(6) 0.2749(7) 0.7848(9)
H25 H 0.1398 0.2927 0.8145
C23 C 0.2383(5) 0.3212(6) 0.6832(9)
H26 H 0.2034 0.3677 0.6423
loop_
_geom_bond_atom_site_label_1
_geom_bond_atom_site_label_2
_geom_bond_site_symmetry_1
_geom_bond_site_symmetry_2
Cl1 C21 1_555 1_555
O1 C1 1_555 1_555
O2 C13 1_555 1_555
N1 H1 1_555 1_555
C1 C2 1_555 1_555
C2 H2 1_555 1_555
H3 C2 1_555 1_555
C3 C2 1_555 1_555
C4 C3 1_555 1_555
H4 C4 1_555 1_555
H5 C4 1_555 1_555
C5 N1 1_555 1_555
C6 C1 1_555 1_555
C7 C6 1_555 1_555
H6 C7 1_555 1_555
C8 C7 1_555 1_555
C9 N1 1_555 1_555
C10 C9 1_555 1_555
H7 C10 1_555 1_555
H8 C10 1_555 1_555
C11 C10 1_555 1_555
C12 C11 1_555 1_555
H9 C12 1_555 1_555
H10 C12 1_555 1_555
C13 C8 1_555 1_555
C14 C3 1_555 1_555
H11 C14 1_555 1_555
H12 C14 1_555 1_555
H13 C14 1_555 1_555
C15 C3 1_555 1_555
H14 C15 1_555 1_555
H15 C15 1_555 1_555
H16 C15 1_555 1_555
C16 C11 1_555 1_555
H17 C16 1_555 1_555
H18 C16 1_555 1_555
H19 C16 1_555 1_555
C17 C11 1_555 1_555
H20 C17 1_555 1_555
H21 C17 1_555 1_555
H22 C17 1_555 1_555
C18 C7 1_555 1_555
C19 C18 1_555 1_555
H23 C19 1_555 1_555
C20 C19 1_555 1_555
H24 C20 1_555 1_555
C21 C20 1_555 1_555
C22 C21 1_555 1_555
H25 C22 1_555 1_555
C23 C18 1_555 1_555
H26 C23 1_555 1_555
C4 C5 1_555 1_555
C5 C6 1_555 1_555
C8 C9 1_555 1_555
C12 C13 1_555 1_555
C22 C23 1_555 1_555

#END
