
#######################################################################
#
#                 Cambridge Crystallographic Data Centre
#                                CCDC 
#
#######################################################################
#
# If this CIF has been generated from an entry in the Cambridge 
# Structural Database, then it will include bibliographic, chemical, 
# crystal, experimental, refinement or atomic coordinate data resulting 
# from the CCDC's data processing and validation procedures.
#
#######################################################################

data_QOQNEQ
_chemical_formula_moiety         'C4 H12 N1 1+,C16 H14 N1 O4 1-'
_chemical_name_systematic        
'tetramethylammonium 2-(((2-hydroxyphenyl)(2-oxidophenyl)methylene)ammonio)propanoate'
_symmetry_cell_setting           monoclinic
_symmetry_space_group_name_H-M   'P 21/n'
_symmetry_Int_Tables_number      14
_space_group_name_Hall           '-P 2yn'
loop_
_symmetry_equiv_pos_site_id
_symmetry_equiv_pos_as_xyz
1 x,y,z
2 1/2-x,1/2+y,1/2-z
3 -x,-y,-z
4 1/2+x,1/2-y,1/2+z
_cell_length_a                   11.7534(5)
_cell_length_b                   8.2201(5)
_cell_length_c                   23.1214(10)
_cell_angle_alpha                90
_cell_angle_beta                 98.134(3)
_cell_angle_gamma                90
_cell_volume                     2211.38
_exptl_crystal_colour            'pale yellow'
_exptl_crystal_description       needle
_cell_formula_units_Z            4
loop_
_atom_site_label
_atom_site_type_symbol
_atom_site_fract_x
_atom_site_fract_y
_atom_site_fract_z
O1 O 0.2884(2) 0.5949(3) 0.39408(10)
O2 O 0.5459(2) 0.1384(3) 0.37626(13)
O3 O 0.5488(2) 0.8311(3) 0.39482(14)
O4 O 0.7371(2) 0.7788(3) 0.40534(11)
N1 N 0.4875(2) 0.5246(3) 0.37681(11)
C1 C 0.4488(3) 0.4275(4) 0.33408(13)
C2 C 0.6093(3) 0.5554(4) 0.39613(15)
H1 H 0.6562 0.5025 0.3685
C3 C 0.6327(3) 0.7375(4) 0.39832(14)
C4 C 0.6407(4) 0.4824(5) 0.45725(19)
H2 H 0.6250 0.3653 0.4558
H3 H 0.5947 0.5346 0.4842
H4 H 0.7225 0.5008 0.4708
C5 C 0.3243(3) 0.4128(4) 0.31808(13)
C6 C 0.2484(3) 0.5014(4) 0.34933(14)
C7 C 0.1292(3) 0.4865(4) 0.33171(16)
H5 H 0.0772 0.5432 0.3524
C8 C 0.0878(3) 0.3908(5) 0.28505(17)
H6 H 0.0072 0.3838 0.2733
C9 C 0.1613(3) 0.3034(4) 0.25432(15)
H7 H 0.1309 0.2366 0.2223
C10 C 0.2778(3) 0.3147(4) 0.27070(14)
H8 H 0.3280 0.2553 0.2497
C11 C 0.5274(3) 0.3346(4) 0.30056(15)
C12 C 0.5725(3) 0.1856(4) 0.32324(18)
C13 C 0.6420(3) 0.0970(5) 0.2920(2)
H9 H 0.6734 -0.0029 0.3076
C14 C 0.6670(4) 0.1485(6) 0.2396(3)
H10 H 0.7142 0.0838 0.2186
C15 C 0.6239(4) 0.2954(7) 0.2165(2)
H11 H 0.6430 0.3328 0.1802
C16 C 0.5514(3) 0.3893(5) 0.24716(16)
H12 H 0.5196 0.4886 0.2313
H25 H 0.544(4) 0.030(7) 0.377(2)
H26 H 0.412(4) 0.568(5) 0.3965(18)
N2 N 0.2339(3) 0.0144(4) 0.43460(13)
C17 C 0.3400(6) -0.0359(12) 0.4650(3)
H13 H 0.3549 -0.1488 0.4548
H14 H 0.3380 -0.0279 0.5072
H15 H 0.4013 0.0341 0.4544
C18 C 0.2278(9) -0.0156(7) 0.3724(2)
H16 H 0.2470 -0.1296 0.3659
H17 H 0.2825 0.0553 0.3562
H18 H 0.1498 0.0072 0.3530
C19 C 0.2004(8) 0.1808(6) 0.4492(3)
H19 H 0.2032 0.1906 0.4917
H20 H 0.1222 0.2031 0.4301
H21 H 0.2537 0.2592 0.4357
C20 C 0.1576(9) -0.1006(11) 0.4576(5)
H22 H 0.1787 -0.2117 0.4480
H23 H 0.0781 -0.0790 0.4403
H24 H 0.1647 -0.0887 0.5002
loop_
_geom_bond_atom_site_label_1
_geom_bond_atom_site_label_2
_geom_bond_site_symmetry_1
_geom_bond_site_symmetry_2
O1 C6 1_555 1_555
O2 C12 1_555 1_555
O3 C3 1_555 1_555
O4 C3 1_555 1_555
N1 C1 1_555 1_555
C1 C5 1_555 1_555
C2 N1 1_555 1_555
H1 C2 1_555 1_555
C3 C2 1_555 1_555
C4 C2 1_555 1_555
H2 C4 1_555 1_555
H3 C4 1_555 1_555
H4 C4 1_555 1_555
C5 C6 1_555 1_555
C6 C7 1_555 1_555
C7 H5 1_555 1_555
C8 C7 1_555 1_555
H6 C8 1_555 1_555
C9 C8 1_555 1_555
H7 C9 1_555 1_555
C10 C5 1_555 1_555
H8 C10 1_555 1_555
C11 C1 1_555 1_555
C12 C11 1_555 1_555
C13 C12 1_555 1_555
H9 C13 1_555 1_555
C14 C13 1_555 1_555
H10 C14 1_555 1_555
C15 C14 1_555 1_555
H11 C15 1_555 1_555
C16 C11 1_555 1_555
H12 C16 1_555 1_555
N2 C17 1_555 1_555
C17 H13 1_555 1_555
H14 C17 1_555 1_555
H15 C17 1_555 1_555
C18 N2 1_555 1_555
H16 C18 1_555 1_555
H17 C18 1_555 1_555
H18 C18 1_555 1_555
C19 N2 1_555 1_555
H19 C19 1_555 1_555
H20 C19 1_555 1_555
H21 C19 1_555 1_555
C20 N2 1_555 1_555
H22 C20 1_555 1_555
H23 C20 1_555 1_555
H24 C20 1_555 1_555
H25 O2 1_555 1_555
H26 N1 1_555 1_555
C9 C10 1_555 1_555
C15 C16 1_555 1_555

#END
