
#######################################################################
#
#                 Cambridge Crystallographic Data Centre
#                                CCDC 
#
#######################################################################
#
# If this CIF has been generated from an entry in the Cambridge 
# Structural Database, then it will include bibliographic, chemical, 
# crystal, experimental, refinement or atomic coordinate data resulting 
# from the CCDC's data processing and validation procedures.
#
#######################################################################

data_QOQPIW
_chemical_formula_moiety         'C34 H34 N4 O4'
_chemical_name_systematic        
(R,R)-N,N'-bis(mesitylmethylene)-1,2-bis(4-nitrophenyl)-1,2-ethanediamine
_symmetry_cell_setting           monoclinic
_symmetry_space_group_name_H-M   'C 2'
_symmetry_Int_Tables_number      5
_space_group_name_Hall           'C 2y'
loop_
_symmetry_equiv_pos_site_id
_symmetry_equiv_pos_as_xyz
1 x,y,z
2 -x,y,-z
3 1/2+x,1/2+y,z
4 1/2-x,1/2+y,-z
_cell_length_a                   27.2150(16)
_cell_length_b                   8.7120(3)
_cell_length_c                   14.1740(9)
_cell_angle_alpha                90
_cell_angle_beta                 115.134(2)
_cell_angle_gamma                90
_cell_volume                     3042.42
_exptl_crystal_colour            colorless
_exptl_crystal_description       needle
_cell_formula_units_Z            4
loop_
_atom_site_label
_atom_site_type_symbol
_atom_site_fract_x
_atom_site_fract_y
_atom_site_fract_z
O1 O 0.18755(11) -0.0777(3) 0.05861(18)
O2 O 0.20873(11) 0.0599(3) -0.0454(2)
O3 O 0.41882(10) 0.4761(4) 0.34723(19)
O4 O 0.41390(12) 0.7096(5) 0.2948(3)
N1 N 0.08317(9) 0.5763(3) 0.18206(17)
N2 N 0.16584(9) 0.7926(3) 0.31022(17)
N3 N 0.19240(10) 0.0465(3) 0.02289(19)
N4 N 0.39458(12) 0.5975(5) 0.3179(2)
C1 C 0.13527(10) 0.5953(3) 0.1756(2)
H1 H 0.1324 0.6816 0.1270
C2 C 0.17798(11) 0.6373(3) 0.2879(2)
H2 H 0.1742 0.5645 0.3390
C3 C 0.14939(11) 0.4490(3) 0.1355(2)
C4 C 0.17897(12) 0.4577(4) 0.0758(2)
H3 H 0.1897 0.5550 0.0608
C5 C 0.19271(11) 0.3254(4) 0.0383(2)
H4 H 0.2123 0.3310 -0.0033
C6 C 0.17749(11) 0.1862(3) 0.0623(2)
C7 C 0.14912(11) 0.1727(4) 0.1232(2)
H5 H 0.1397 0.0748 0.1401
C8 C 0.13493(11) 0.3057(3) 0.1584(2)
H6 H 0.1149 0.2991 0.1991
C9 C 0.23547(11) 0.6298(3) 0.2973(2)
C10 C 0.25922(12) 0.7549(3) 0.2723(2)
H7 H 0.2396 0.8484 0.2512
C11 C 0.31116(13) 0.7453(4) 0.2778(3)
H8 H 0.3273 0.8304 0.2598
C12 C 0.33876(12) 0.6083(4) 0.3102(2)
C13 C 0.31703(12) 0.4835(4) 0.3364(2)
H9 H 0.3371 0.3909 0.3585
C14 C 0.26501(12) 0.4946(3) 0.3300(2)
H10 H 0.2493 0.4088 0.3482
C15 C 0.14538(10) 0.8089(3) 0.3750(2)
H11 H 0.1399 0.7203 0.4085
C16 C 0.12978(11) 0.9603(3) 0.40044(19)
C17 C 0.08083(11) 0.9707(3) 0.4119(2)
C18 C 0.06310(12) 1.1142(4) 0.4273(2)
H12 H 0.0294 1.1221 0.4320
C19 C 0.09305(15) 1.2453(3) 0.4360(2)
C20 C 0.14244(14) 1.2319(3) 0.4303(2)
H13 H 0.1640 1.3212 0.4394
C21 C 0.16155(11) 1.0923(3) 0.4118(2)
C22 C 0.21695(12) 1.0869(4) 0.4109(2)
H14 H 0.2346 0.9892 0.4403
H15 H 0.2392 1.1719 0.4527
H16 H 0.2129 1.0963 0.3390
C23 C 0.0727(2) 1.4003(4) 0.4533(4)
H17 H 0.0690 1.4698 0.3963
H18 H 0.0987 1.4435 0.5196
H19 H 0.0374 1.3876 0.4552
C24 C 0.04799(11) 0.8294(4) 0.4095(2)
H20 H 0.0118 0.8604 0.4016
H21 H 0.0664 0.7720 0.4746
H22 H 0.0445 0.7643 0.3505
C25 C 0.04625(11) 0.6751(3) 0.1355(2)
H23 H 0.0533 0.7542 0.0968
C26 C -0.00692(11) 0.6712(3) 0.1394(2)
C27 C -0.03137(11) 0.5333(3) 0.1483(2)
C28 C -0.08023(12) 0.5394(4) 0.1586(2)
H24 H -0.0965 0.4462 0.1656
C29 C -0.10559(12) 0.6769(4) 0.1589(2)
C30 C -0.08177(12) 0.8106(4) 0.1471(2)
H25 H -0.0995 0.9054 0.1448
C31 C -0.03269(11) 0.8121(4) 0.1383(2)
C32 C -0.00836(16) 0.9649(4) 0.1328(3)
H26 H -0.0268 1.0463 0.1532
H27 H -0.0128 0.9831 0.0613
H28 H 0.0304 0.9649 0.1801
C33 C -0.15819(13) 0.6791(5) 0.1712(3)
H29 H -0.1749 0.7809 0.1527
H30 H -0.1507 0.6559 0.2437
H31 H -0.1830 0.6018 0.1252
C34 C -0.00903(14) 0.3763(4) 0.1444(3)
H32 H -0.0386 0.3010 0.1214
H33 H 0.0183 0.3485 0.2140
H34 H 0.0077 0.3775 0.0954
loop_
_geom_bond_atom_site_label_1
_geom_bond_atom_site_label_2
_geom_bond_site_symmetry_1
_geom_bond_site_symmetry_2
O1 N3 1_555 1_555
O2 N3 1_555 1_555
O3 N4 1_555 1_555
O4 N4 1_555 1_555
N1 C1 1_555 1_555
N2 C2 1_555 1_555
N3 C6 1_555 1_555
N4 C12 1_555 1_555
C1 H1 1_555 1_555
C2 C1 1_555 1_555
H2 C2 1_555 1_555
C3 C1 1_555 1_555
C4 C3 1_555 1_555
H3 C4 1_555 1_555
C5 C4 1_555 1_555
H4 C5 1_555 1_555
C6 C5 1_555 1_555
C7 C6 1_555 1_555
H5 C7 1_555 1_555
C8 C3 1_555 1_555
H6 C8 1_555 1_555
C9 C2 1_555 1_555
C10 C9 1_555 1_555
H7 C10 1_555 1_555
C11 C10 1_555 1_555
H8 C11 1_555 1_555
C12 C11 1_555 1_555
C13 C12 1_555 1_555
H9 C13 1_555 1_555
C14 C9 1_555 1_555
H10 C14 1_555 1_555
C15 N2 1_555 1_555
H11 C15 1_555 1_555
C16 C15 1_555 1_555
C17 C16 1_555 1_555
C18 C17 1_555 1_555
H12 C18 1_555 1_555
C19 C18 1_555 1_555
C20 C19 1_555 1_555
H13 C20 1_555 1_555
C21 C16 1_555 1_555
C22 C21 1_555 1_555
H14 C22 1_555 1_555
H15 C22 1_555 1_555
H16 C22 1_555 1_555
C23 C19 1_555 1_555
H17 C23 1_555 1_555
H18 C23 1_555 1_555
H19 C23 1_555 1_555
C24 C17 1_555 1_555
H20 C24 1_555 1_555
H21 C24 1_555 1_555
H22 C24 1_555 1_555
C25 N1 1_555 1_555
H23 C25 1_555 1_555
C26 C25 1_555 1_555
C27 C26 1_555 1_555
C28 C27 1_555 1_555
H24 C28 1_555 1_555
C29 C28 1_555 1_555
C30 C29 1_555 1_555
H25 C30 1_555 1_555
C31 C26 1_555 1_555
C32 C31 1_555 1_555
H26 C32 1_555 1_555
H27 C32 1_555 1_555
H28 C32 1_555 1_555
C33 C29 1_555 1_555
H29 C33 1_555 1_555
H30 C33 1_555 1_555
H31 C33 1_555 1_555
C34 C27 1_555 1_555
H32 C34 1_555 1_555
H33 C34 1_555 1_555
H34 C34 1_555 1_555
C7 C8 1_555 1_555
C13 C14 1_555 1_555
C20 C21 1_555 1_555
C30 C31 1_555 1_555

#END
