
#######################################################################
#
#                 Cambridge Crystallographic Data Centre
#                                CCDC 
#
#######################################################################
#
# If this CIF has been generated from an entry in the Cambridge 
# Structural Database, then it will include bibliographic, chemical, 
# crystal, experimental, refinement or atomic coordinate data resulting 
# from the CCDC's data processing and validation procedures.
#
#######################################################################

data_QOQRIX
_chemical_formula_moiety         'C11 H9 N1 O2'
_chemical_name_systematic        
(Z)-3-Acetonylidene-2,3-dihydro-1H-isoindolin-1-one
_chemical_properties_biological  
'potential antiviral, antileukaemic, antiinflammatory, antipsychotic and antiulcer agent'
_symmetry_cell_setting           monoclinic
_symmetry_space_group_name_H-M   'P 21/n'
_symmetry_Int_Tables_number      14
_space_group_name_Hall           '-P 2yn'
loop_
_symmetry_equiv_pos_site_id
_symmetry_equiv_pos_as_xyz
1 x,y,z
2 1/2+x,1/2-y,1/2+z
3 -x,-y,-z
4 1/2-x,1/2+y,1/2-z
_cell_length_a                   6.8673(2)
_cell_length_b                   12.8243(3)
_cell_length_c                   20.6130(5)
_cell_angle_alpha                90
_cell_angle_beta                 94.5200(10)
_cell_angle_gamma                90
_cell_volume                     1809.71
_exptl_crystal_colour            colorless
_exptl_crystal_description       'hexagonal block'
_chemical_melting_point          381K
_cell_formula_units_Z            8
_exptl_crystal_recrystallization_method ethanol
loop_
_atom_site_label
_atom_site_type_symbol
_atom_site_fract_x
_atom_site_fract_y
_atom_site_fract_z
O1 O 0.40859(13) 0.35498(6) 0.31497(4)
O2 O 0.33134(15) 0.20346(7) 0.10029(5)
N1 N 0.38726(14) 0.22831(7) 0.23425(5)
H1 H 0.3915 0.2686 0.2010
C1 C 0.39536(16) 0.26384(8) 0.29782(6)
C2 C 0.38352(15) 0.16893(8) 0.33865(6)
C3 C 0.37951(16) 0.16001(9) 0.40544(6)
H2 H 0.3859 0.2184 0.4323
C4 C 0.36540(17) 0.05950(10) 0.43089(6)
H3 H 0.3608 0.0507 0.4755
C5 C 0.35806(17) -0.02797(10) 0.39027(6)
H4 H 0.3502 -0.0940 0.4085
C6 C 0.36229(17) -0.01821(9) 0.32289(6)
H5 H 0.3576 -0.0764 0.2959
C7 C 0.37386(15) 0.08210(8) 0.29771(5)
C8 C 0.37139(15) 0.12019(8) 0.23004(5)
C9 C 0.34699(17) 0.06292(9) 0.17497(6)
H6 H 0.3478 -0.0094 0.1786
C10 C 0.31921(17) 0.10896(10) 0.10969(6)
C11 C 0.2705(2) 0.03339(11) 0.05472(6)
H7 H 0.2261 0.0713 0.0162
H8 H 0.1696 -0.0132 0.0664
H9 H 0.3849 -0.0060 0.0466
O3 O 0.60061(13) 0.40219(6) 0.16643(4)
O4 O 0.67865(14) 0.54109(7) 0.38522(4)
N2 N 0.62001(14) 0.52358(7) 0.25031(5)
H10 H 0.6194 0.4809 0.2825
C12 C 0.61157(16) 0.49231(9) 0.18577(6)
C13 C 0.61878(16) 0.59041(9) 0.14732(6)
C14 C 0.61986(17) 0.60550(10) 0.08076(6)
H11 H 0.6151 0.5493 0.0521
C15 C 0.62839(18) 0.70799(10) 0.05812(6)
H12 H 0.6299 0.7206 0.0137
C16 C 0.63468(18) 0.79181(10) 0.10166(7)
H13 H 0.6405 0.8594 0.0856
C17 C 0.63251(17) 0.77652(9) 0.16850(6)
H14 H 0.6358 0.8326 0.1972
C18 C 0.62526(15) 0.67412(8) 0.19077(6)
C19 C 0.62954(15) 0.63147(8) 0.25736(6)
C20 C 0.64692(16) 0.68553(9) 0.31378(6)
H15 H 0.6428 0.7579 0.3117
C21 C 0.67191(17) 0.63633(9) 0.37822(6)
C22 C 0.6919(2) 0.70922(10) 0.43578(6)
H16 H 0.7435 0.6717 0.4736
H17 H 0.5660 0.7372 0.4434
H18 H 0.7788 0.7652 0.4269
loop_
_geom_bond_atom_site_label_1
_geom_bond_atom_site_label_2
_geom_bond_site_symmetry_1
_geom_bond_site_symmetry_2
O1 C1 1_555 1_555
O2 C10 1_555 1_555
N1 H1 1_555 1_555
C1 N1 1_555 1_555
C2 C1 1_555 1_555
C3 C2 1_555 1_555
H2 C3 1_555 1_555
C4 C3 1_555 1_555
H3 C4 1_555 1_555
C5 C4 1_555 1_555
H4 C5 1_555 1_555
C6 C5 1_555 1_555
H5 C6 1_555 1_555
C7 C2 1_555 1_555
C8 N1 1_555 1_555
C9 C8 1_555 1_555
H6 C9 1_555 1_555
C10 C9 1_555 1_555
C11 C10 1_555 1_555
H7 C11 1_555 1_555
H8 C11 1_555 1_555
H9 C11 1_555 1_555
O3 C12 1_555 1_555
O4 C21 1_555 1_555
N2 H10 1_555 1_555
C12 N2 1_555 1_555
C13 C12 1_555 1_555
C14 C13 1_555 1_555
H11 C14 1_555 1_555
C15 C14 1_555 1_555
H12 C15 1_555 1_555
C16 C15 1_555 1_555
H13 C16 1_555 1_555
C17 C16 1_555 1_555
H14 C17 1_555 1_555
C18 C13 1_555 1_555
C19 N2 1_555 1_555
C20 C19 1_555 1_555
H15 C20 1_555 1_555
C21 C20 1_555 1_555
C22 C21 1_555 1_555
H16 C22 1_555 1_555
H17 C22 1_555 1_555
H18 C22 1_555 1_555
C6 C7 1_555 1_555
C7 C8 1_555 1_555
C17 C18 1_555 1_555
C18 C19 1_555 1_555

#END
