
#######################################################################
#
#                 Cambridge Crystallographic Data Centre
#                                CCDC 
#
#######################################################################
#
# If this CIF has been generated from an entry in the Cambridge 
# Structural Database, then it will include bibliographic, chemical, 
# crystal, experimental, refinement or atomic coordinate data resulting 
# from the CCDC's data processing and validation procedures.
#
#######################################################################

data_QOQRAP
_chemical_formula_moiety         'C24 H24 O5'
_chemical_name_systematic        
2,11,18,21,24-Pentaoxatetracyclo(23.4.0.0^4,9^.0^12,17^)nonaicosa-1(25),4(9),5,7,12(17),13,15,26,28-nonaene
_symmetry_cell_setting           orthorhombic
_symmetry_space_group_name_H-M   'C m c 21'
_symmetry_Int_Tables_number      36
_space_group_name_Hall           'C 2n -2'
loop_
_symmetry_equiv_pos_site_id
_symmetry_equiv_pos_as_xyz
1 x,y,z
2 -x,-y,1/2+z
3 x,-y,1/2+z
4 -x,y,z
5 1/2+x,1/2+y,z
6 1/2-x,1/2-y,1/2+z
7 1/2+x,1/2-y,1/2+z
8 1/2-x,1/2+y,z
_cell_length_a                   21.585(4)
_cell_length_b                   11.675(3)
_cell_length_c                   8.092(2)
_cell_angle_alpha                90
_cell_angle_beta                 90
_cell_angle_gamma                90
_cell_volume                     2039.22
_exptl_crystal_colour            colorless
_exptl_crystal_description       block
_chemical_melting_point          398-400K
_cell_formula_units_Z            4
_exptl_crystal_recrystallization_method dichloromethane/n-hexane
loop_
_atom_site_label
_atom_site_type_symbol
_atom_site_fract_x
_atom_site_fract_y
_atom_site_fract_z
C1 C 0.9687(2) 0.8209(4) -0.6581(7)
H1 H 0.9468 0.8125 -0.7563
C2 C 0.9388(2) 0.8332(4) -0.5134(9)
H2 H 0.8957 0.8322 -0.5133
C3 C 0.96910(19) 0.8471(4) -0.3669(5)
C4 C 0.9173(5) 0.8819(7) -0.2460(12)
H3 H 0.9328 0.9384 -0.1683
H4 H 0.8830 0.9154 -0.3062
C6 C 0.8552(2) 0.8064(5) -0.0406(6)
C7 C 0.8196(2) 0.9030(4) -0.0356(7)
H7 H 0.8257 0.9608 -0.1130
C8 C 0.7743(2) 0.9148(5) 0.0850(9)
H8 H 0.7501 0.9806 0.0883
C9 C 0.7653(3) 0.8303(7) 0.1983(9)
H9 H 0.7348 0.8381 0.2786
C10 C 0.8015(3) 0.7334(6) 0.1934(7)
H10 H 0.7952 0.6760 0.2714
C11 C 0.8471(2) 0.7196(5) 0.0747(6)
C12 C 0.8905(2) 0.5526(4) 0.2021(7)
H11 H 0.8534 0.5065 0.2138
H12 H 0.8960 0.5976 0.3018
C13 C 0.9458(2) 0.4774(4) 0.1736(7)
H13 H 0.9462 0.4155 0.2535
H14 H 0.9440 0.4444 0.0637
O1 O 0.89803(19) 0.7865(3) -0.1631(4)
O2 O 0.88555(14) 0.6266(3) 0.0595(4)
O3 O 1.0000 0.5450(3) 0.1905(6)
C1C C 1.0313(2) 0.8209(4) -0.6581(7)
H1C H 1.0532 0.8125 -0.7563
C2C C 1.0612(2) 0.8332(4) -0.5134(9)
H2C H 1.1043 0.8322 -0.5133
C3C C 1.03090(19) 0.8471(4) -0.3669(5)
C13C C 1.0542(2) 0.4774(4) 0.1736(7)
C12C C 1.1095(2) 0.5526(4) 0.2021(7)
H11C H 1.1466 0.5065 0.2138
H12C H 1.1040 0.5976 0.3018
O2C O 1.11445(14) 0.6266(3) 0.0595(4)
C11C C 1.1529(2) 0.7196(5) 0.0747(6)
C6C C 1.1448(2) 0.8064(5) -0.0406(6)
C7C C 1.1804(2) 0.9030(4) -0.0356(7)
H7C H 1.1743 0.9608 -0.1130
C8C C 1.2257(2) 0.9148(5) 0.0850(9)
H8C H 1.2499 0.9806 0.0883
C9C C 1.2347(3) 0.8303(7) 0.1983(9)
H9C H 1.2652 0.8381 0.2786
C10C C 1.1985(3) 0.7334(6) 0.1934(7)
H10C H 1.2048 0.6760 0.2714
O1C O 1.10197(19) 0.7865(3) -0.1631(4)
C4C C 1.0827(5) 0.8819(7) -0.2460(12)
H3C H 1.0672 0.9384 -0.1683
H4C H 1.1170 0.9154 -0.3062
H13C H 1.0538 0.4155 0.2535
H14C H 1.0560 0.4444 0.0637
C5? C 0.9518(5) 0.8372(12) -0.1759(15)
H5? H 0.9832 0.7931 -0.1182
H6? H 0.9499 0.9129 -0.1267
loop_
_geom_bond_atom_site_label_1
_geom_bond_atom_site_label_2
_geom_bond_site_symmetry_1
_geom_bond_site_symmetry_2
C1 H1 1_555 1_555
C2 C1 1_555 1_555
H2 C2 1_555 1_555
C3 C2 1_555 1_555
C4 C3 1_555 1_555
H3 C4 1_555 1_555
H4 C4 1_555 1_555
C6 C7 1_555 1_555
C7 H7 1_555 1_555
C8 C7 1_555 1_555
H8 C8 1_555 1_555
C9 C8 1_555 1_555
H9 C9 1_555 1_555
C10 C9 1_555 1_555
H10 C10 1_555 1_555
C11 C6 1_555 1_555
C12 H11 1_555 1_555
H12 C12 1_555 1_555
C13 C12 1_555 1_555
H13 C13 1_555 1_555
H14 C13 1_555 1_555
O1 C4 1_555 1_555
O2 C11 1_555 1_555
O3 C13 1_555 1_555
C1C C1 1_555 1_555
H1C C1C 1_555 1_555
C2C C1C 1_555 1_555
H2C C2C 1_555 1_555
C3C C3 1_555 1_555
C13C O3 1_555 1_555
C12C C13C 1_555 1_555
H11C C12C 1_555 1_555
H12C C12C 1_555 1_555
O2C C12C 1_555 1_555
C11C O2C 1_555 1_555
C6C C11C 1_555 1_555
C7C C6C 1_555 1_555
H7C C7C 1_555 1_555
C8C C7C 1_555 1_555
H8C C8C 1_555 1_555
C9C C8C 1_555 1_555
H9C C9C 1_555 1_555
C10C C11C 1_555 1_555
H10C C10C 1_555 1_555
O1C C6C 1_555 1_555
C4C C3C 1_555 1_555
H3C C4C 1_555 1_555
H4C C4C 1_555 1_555
H13C C13C 1_555 1_555
H14C C13C 1_555 1_555
C6 O1 1_555 1_555
C10 C11 1_555 1_555
C12 O2 1_555 1_555
C2C C3C 1_555 1_555
C9C C10C 1_555 1_555
O1C C4C 1_555 1_555

#END
