
#######################################################################
#
#                 Cambridge Crystallographic Data Centre
#                                CCDC 
#
#######################################################################
#
# If this CIF has been generated from an entry in the Cambridge 
# Structural Database, then it will include bibliographic, chemical, 
# crystal, experimental, refinement or atomic coordinate data resulting 
# from the CCDC's data processing and validation procedures.
#
#######################################################################

data_QOQRUK
_chemical_name_common            
'(Methyl((4-oxo-4H-chromon-3-yl)methyl)ammonio)acetate hydrate'
_chemical_formula_moiety         'C13 H13 N1 O4,1.75(H2 O1)'
_chemical_name_systematic        
'N-(4H-Chromon-3-ylmethyl)-N-methylglycine hydrate'
_symmetry_cell_setting           monoclinic
_symmetry_space_group_name_H-M   'P 21'
_symmetry_Int_Tables_number      4
_space_group_name_Hall           'P 2yb'
loop_
_symmetry_equiv_pos_site_id
_symmetry_equiv_pos_as_xyz
1 x,y,z
2 -x,1/2+y,-z
_cell_length_a                   9.0999(8)
_cell_length_b                   19.1473(14)
_cell_length_c                   15.0649(10)
_cell_angle_alpha                90
_cell_angle_beta                 90.383(6)
_cell_angle_gamma                90
_cell_volume                     2624.83
_exptl_crystal_colour            black
_exptl_crystal_description       needle
_chemical_melting_point          '196-198 deg.C'
_cell_formula_units_Z            8
_exptl_crystal_recrystallization_method methanol
loop_
_atom_site_label
_atom_site_type_symbol
_atom_site_fract_x
_atom_site_fract_y
_atom_site_fract_z
O1 O -0.3045(4) 0.05083(19) 0.1072(2)
O2 O -0.4992(4) -0.0633(2) -0.0970(2)
C1 C -0.3732(5) 0.0910(2) 0.0555(3)
O3 O -0.3288(4) 0.1153(2) -0.0168(2)
C2 C -0.5243(5) 0.1159(3) 0.0857(3)
H1 H -0.5152 0.1625 0.1102
H2 H -0.5894 0.1185 0.0345
N1 N -0.5914(4) 0.0692(2) 0.1535(2)
H3 H -0.5175 0.0529 0.1888
C3 C -0.6689(5) 0.0069(3) 0.1138(3)
H4 H -0.7543 0.0229 0.0808
H5 H -0.7032 -0.0229 0.1614
C4 C -0.5796(5) -0.0271(3) -0.0363(3)
H6 H -0.6451 0.0061 -0.0581
O4 O -0.4573(5) -0.0958(2) 0.1715(2)
C5 C -0.5723(5) -0.0353(2) 0.0530(3)
C6 C -0.4035(6) -0.1158(3) -0.0653(3)
C7 C -0.4706(6) -0.0872(3) 0.0902(3)
C8 C -0.3888(5) -0.1293(3) 0.0243(3)
C9 C -0.6958(5) 0.1085(3) 0.2114(3)
H7 H -0.6461 0.1477 0.2375
H8 H -0.7309 0.0783 0.2575
H9 H -0.7774 0.1247 0.1763
C10 C -0.3311(7) -0.1526(3) -0.1297(4)
H10 H -0.3460 -0.1430 -0.1896
C11 C -0.2909(6) -0.1818(3) 0.0519(4)
H11 H -0.2780 -0.1909 0.1121
C12 C -0.2335(7) -0.2052(3) -0.1021(4)
H12 H -0.1817 -0.2306 -0.1443
C13 C -0.2132(7) -0.2202(3) -0.0105(4)
H13 H -0.1488 -0.2552 0.0075
O5 O -0.2531(4) 0.17210(19) 0.5086(2)
O6 O -0.4651(4) 0.0362(2) 0.3158(2)
N2 N -0.1760(4) 0.0183(2) 0.2710(2)
H14 H -0.2504 0.0344 0.2359
C14 C -0.3433(6) 0.2207(3) 0.4712(3)
C15 C -0.1767(6) 0.1291(2) 0.4537(3)
H15 H -0.1100 0.0981 0.4793
C16 C -0.1918(5) 0.1286(2) 0.3651(3)
C17 C -0.2412(5) -0.0268(2) 0.3408(3)
H16 H -0.1754 -0.0284 0.3917
H17 H -0.2519 -0.0740 0.3182
O7 O -0.3117(4) 0.1766(2) 0.2390(2)
O8 O -0.4332(4) -0.0167(2) 0.4456(2)
C18 C -0.0952(5) 0.0811(2) 0.3097(3)
H18 H -0.0144 0.0645 0.3463
H19 H -0.0538 0.1080 0.2614
C19 C -0.3934(5) 0.0007(2) 0.3706(3)
C20 C -0.3706(5) 0.2244(3) 0.3799(3)
C21 C -0.2919(5) 0.1763(3) 0.3207(3)
C22 C -0.4167(7) 0.2671(3) 0.5307(4)
H20 H -0.4016 0.2642 0.5917
C23 C -0.0730(6) -0.0221(3) 0.2140(3)
H21 H 0.0143 -0.0330 0.2473
H22 H -0.0476 0.0052 0.1630
H23 H -0.1195 -0.0647 0.1951
C24 C -0.5364(7) 0.3207(3) 0.4062(4)
H24 H -0.6004 0.3546 0.3846
C25 C -0.4698(6) 0.2759(3) 0.3484(4)
H25 H -0.4898 0.2793 0.2879
C26 C -0.5096(8) 0.3159(3) 0.4951(5)
H26 H -0.5563 0.3471 0.5330
O9 O -0.9528(4) 0.0554(2) 0.6116(2)
O10 O -0.9340(4) -0.0063(2) 0.4854(2)
N3 N -0.6660(4) 0.0317(2) 0.6579(2)
H27 H -0.7376 0.0503 0.6925
O11 O -0.7441(5) 0.1637(2) 0.4042(3)
C27 C -0.7385(5) -0.0142(3) 0.5895(3)
H28 H -0.7527 -0.0605 0.6143
H29 H -0.6747 -0.0186 0.5385
C28 C -0.5825(5) 0.0913(3) 0.6154(3)
H30 H -0.5426 0.1211 0.6617
H31 H -0.5007 0.0724 0.5822
C29 C -0.8872(5) 0.0152(3) 0.5595(3)
O12 O -0.7941(5) 0.1930(2) 0.6720(3)
C30 C -0.6647(6) 0.1272(3) 0.4646(3)
H32 H -0.5977 0.0947 0.4433
C31 C -0.6757(5) 0.1345(3) 0.5546(3)
C32 C -0.8604(6) 0.2266(3) 0.5236(4)
C33 C -0.5659(5) -0.0091(3) 0.7156(3)
H33 H -0.4851 -0.0261 0.6812
H34 H -0.6182 -0.0478 0.7406
H35 H -0.5293 0.0203 0.7625
C34 C -0.8369(7) 0.2148(3) 0.4344(4)
C35 C -0.9101(8) 0.2544(4) 0.3685(5)
H36 H -0.8942 0.2447 0.3088
C36 C -0.7777(6) 0.1846(3) 0.5907(4)
C37 C -0.9563(8) 0.2805(3) 0.5487(5)
H37 H -0.9719 0.2899 0.6085
C38 C -1.0018(8) 0.3055(4) 0.3912(6)
H38 H -1.0486 0.3318 0.3475
C39 C -1.0281(8) 0.3198(4) 0.4838(8)
H39 H -1.0928 0.3551 0.5001
O13 O -0.7870(4) 0.07119(19) 0.8224(2)
O14 O -1.0165(4) -0.05913(18) 1.0128(2)
N4 N -1.0751(4) 0.0906(2) 0.7728(2)
H40 H -1.0008 0.0757 0.7374
O15 O -0.9367(4) -0.06955(19) 0.7464(2)
C40 C -1.0671(5) -0.0189(2) 0.8651(3)
O16 O -0.8309(4) 0.1116(2) 0.9595(2)
C41 C -0.9621(5) -0.0679(2) 0.8269(3)
C42 C -0.9209(5) -0.1094(2) 0.9818(3)
C43 C -0.8909(5) -0.1160(2) 0.8916(3)
C44 C -1.0872(5) -0.0174(3) 0.9542(3)
H41 H -1.1543 0.0147 0.9765
C45 C -1.1549(5) 0.0278(2) 0.8060(3)
H42 H -1.1888 0.0009 0.7553
H43 H -1.2411 0.0432 0.8381
C46 C -0.8581(6) -0.1534(3) 1.0439(3)
H44 H -0.8787 -0.1478 1.1039
C47 C -1.1772(5) 0.1347(3) 0.7170(3)
H45 H -1.1221 0.1709 0.6882
H46 H -1.2506 0.1554 0.7542
H47 H -1.2240 0.1059 0.6729
C48 C -0.8658(5) 0.1014(2) 0.8789(3)
C49 C -1.0084(5) 0.1323(2) 0.8473(3)
H48 H -0.9915 0.1797 0.8274
H49 H -1.0767 0.1340 0.8964
C50 C -0.7945(6) -0.1690(3) 0.8649(3)
H50 H -0.7706 -0.1738 0.8053
C51 C -0.7350(6) -0.2141(3) 0.9269(4)
H51 H -0.6744 -0.2504 0.9087
C52 C -0.7654(6) -0.2052(3) 1.0168(4)
H52 H -0.7224 -0.2348 1.0585
O17 O -0.5045(4) 0.1440(2) 0.8385(2)
H53 H -0.586(4) 0.125(3) 0.852(4)
H54 H -0.462(6) 0.136(4) 0.889(2)
O18 O -0.2416(5) 0.4609(2) 0.6534(3)
H55 H -0.288(7) 0.498(2) 0.644(5)
H56 H -0.266(17) 0.421(3) 0.673(9)
O19 O -0.4531(6) 0.2714(2) 0.7565(3)
H57 H -0.486(8) 0.238(3) 0.789(4)
O20 O -0.7439(4) 0.4757(3) 0.4047(3)
H58 H -0.832(3) 0.479(4) 0.423(5)
H59 H -0.716(8) 0.487(4) 0.456(2)
O21 O -0.1790(5) 0.3314(3) 0.7296(3)
H60 H -0.252(6) 0.317(4) 0.762(4)
H63 H -0.080(13) 0.332(6) 0.755(7)
O22 O -0.0059(4) 0.1416(3) 0.1025(3)
H61 H 0.050(7) 0.110(3) 0.081(5)
H62 H -0.085(5) 0.139(4) 0.073(4)
O23 O -0.8959(9) 0.3023(4) 0.7744(4)
loop_
_geom_bond_atom_site_label_1
_geom_bond_atom_site_label_2
_geom_bond_site_symmetry_1
_geom_bond_site_symmetry_2
O1 C1 1_555 1_555
O2 C4 1_555 1_555
C1 O3 1_555 1_555
C2 C1 1_555 1_555
H1 C2 1_555 1_555
H2 C2 1_555 1_555
N1 C2 1_555 1_555
H3 N1 1_555 1_555
C3 N1 1_555 1_555
H4 C3 1_555 1_555
H5 C3 1_555 1_555
C4 H6 1_555 1_555
O4 C7 1_555 1_555
C5 C3 1_555 1_555
C6 O2 1_555 1_555
C7 C5 1_555 1_555
C8 C6 1_555 1_555
C9 N1 1_555 1_555
H7 C9 1_555 1_555
H8 C9 1_555 1_555
H9 C9 1_555 1_555
C10 C6 1_555 1_555
H10 C10 1_555 1_555
C11 C8 1_555 1_555
H11 C11 1_555 1_555
C12 C10 1_555 1_555
H12 C12 1_555 1_555
C13 C11 1_555 1_555
H13 C13 1_555 1_555
O5 C14 1_555 1_555
O6 C19 1_555 1_555
N2 H14 1_555 1_555
C14 C20 1_555 1_555
C15 O5 1_555 1_555
H15 C15 1_555 1_555
C16 C15 1_555 1_555
C17 N2 1_555 1_555
H16 C17 1_555 1_555
H17 C17 1_555 1_555
O7 C21 1_555 1_555
O8 C19 1_555 1_555
C18 N2 1_555 1_555
H18 C18 1_555 1_555
H19 C18 1_555 1_555
C19 C17 1_555 1_555
C20 C21 1_555 1_555
C21 C16 1_555 1_555
C22 C14 1_555 1_555
H20 C22 1_555 1_555
C23 N2 1_555 1_555
H21 C23 1_555 1_555
H22 C23 1_555 1_555
H23 C23 1_555 1_555
C24 H24 1_555 1_555
C25 C20 1_555 1_555
H25 C25 1_555 1_555
C26 C22 1_555 1_555
H26 C26 1_555 1_555
O9 C29 1_555 1_555
O10 C29 1_555 1_555
N3 H27 1_555 1_555
O11 C30 1_555 1_555
C27 N3 1_555 1_555
H28 C27 1_555 1_555
H29 C27 1_555 1_555
C28 N3 1_555 1_555
H30 C28 1_555 1_555
H31 C28 1_555 1_555
C29 C27 1_555 1_555
O12 C36 1_555 1_555
C30 H32 1_555 1_555
C31 C28 1_555 1_555
C32 C34 1_555 1_555
C33 N3 1_555 1_555
H33 C33 1_555 1_555
H34 C33 1_555 1_555
H35 C33 1_555 1_555
C34 O11 1_555 1_555
C35 C34 1_555 1_555
H36 C35 1_555 1_555
C36 C31 1_555 1_555
C37 C32 1_555 1_555
H37 C37 1_555 1_555
C38 C35 1_555 1_555
H38 C38 1_555 1_555
C39 C37 1_555 1_555
H39 C39 1_555 1_555
O13 C48 1_555 1_555
O14 C42 1_555 1_555
N4 H40 1_555 1_555
O15 C41 1_555 1_555
C40 C41 1_555 1_555
O16 C48 1_555 1_555
C41 C43 1_555 1_555
C42 C43 1_555 1_555
C43 C50 1_555 1_555
C44 O14 1_555 1_555
H41 C44 1_555 1_555
C45 N4 1_555 1_555
H42 C45 1_555 1_555
H43 C45 1_555 1_555
C46 C42 1_555 1_555
H44 C46 1_555 1_555
C47 N4 1_555 1_555
H45 C47 1_555 1_555
H46 C47 1_555 1_555
H47 C47 1_555 1_555
C48 C49 1_555 1_555
C49 N4 1_555 1_555
H48 C49 1_555 1_555
H49 C49 1_555 1_555
C50 H50 1_555 1_555
C51 C50 1_555 1_555
H51 C51 1_555 1_555
C52 C46 1_555 1_555
H52 C52 1_555 1_555
O17 H53 1_555 1_555
H54 O17 1_555 1_555
O18 H55 1_555 1_555
H56 O18 1_555 1_555
O19 H57 1_555 1_555
O20 H58 1_555 1_555
H59 O20 1_555 1_555
O21 H60 1_555 1_555
O22 H61 1_555 1_555
H62 O22 1_555 1_555
H63 O21 1_555 1_555
C4 C5 1_555 1_555
C7 C8 1_555 1_555
C12 C13 1_555 1_555
C16 C18 1_555 1_555
C24 C25 1_555 1_555
C24 C26 1_555 1_555
C30 C31 1_555 1_555
C32 C36 1_555 1_555
C38 C39 1_555 1_555
C40 C44 1_555 1_555
C40 C45 1_555 1_555
C51 C52 1_555 1_555

#END
