
#######################################################################
#
#                 Cambridge Crystallographic Data Centre
#                                CCDC 
#
#######################################################################
#
# If this CIF has been generated from an entry in the Cambridge 
# Structural Database, then it will include bibliographic, chemical, 
# crystal, experimental, refinement or atomic coordinate data resulting 
# from the CCDC's data processing and validation procedures.
#
#######################################################################

data_QOQSEU
_chemical_formula_moiety         'C15 H16 O2 S2'
_chemical_name_systematic        (R,R)-1,3-bis(Phenylsulfinyl)propane
_symmetry_cell_setting           monoclinic
_symmetry_space_group_name_H-M   'P 21/n'
_symmetry_Int_Tables_number      14
_space_group_name_Hall           '-P 2yn'
loop_
_symmetry_equiv_pos_site_id
_symmetry_equiv_pos_as_xyz
1 x,y,z
2 1/2+x,1/2-y,1/2+z
3 -x,-y,-z
4 1/2-x,1/2+y,1/2-z
_cell_length_a                   8.444(4)
_cell_length_b                   15.580(7)
_cell_length_c                   11.579(6)
_cell_angle_alpha                90
_cell_angle_beta                 110.333(9)
_cell_angle_gamma                90
_cell_volume                     1428.39
_exptl_crystal_colour            colorless
_exptl_crystal_description       prism
_cell_formula_units_Z            4
_exptl_crystal_recrystallization_method acetone/chloroform
loop_
_atom_site_label
_atom_site_type_symbol
_atom_site_fract_x
_atom_site_fract_y
_atom_site_fract_z
S1 S 0.19396(7) 0.49357(4) 0.64233(6)
S2 S 0.17564(7) 0.20652(4) 0.92388(5)
O1 O 0.1274(2) 0.53952(13) 0.7282(2)
O2 O 0.3138(2) 0.25460(15) 1.01900(16)
C1 C 0.1477(3) 0.38109(14) 0.6490(2)
H1 H 0.0315 0.3709 0.5970
H2 H 0.2194 0.3483 0.6155
C2 C 0.1729(3) 0.34836(14) 0.77723(19)
H3 H 0.0894 0.3740 0.8068
H4 H 0.2840 0.3648 0.8328
C3 C 0.1559(3) 0.25154(14) 0.7760(2)
H5 H 0.2419 0.2266 0.7485
H6 H 0.0466 0.2358 0.7169
C4 C 0.4196(3) 0.48892(13) 0.71527(19)
C5 C 0.4976(3) 0.52420(14) 0.8307(2)
H7 H 0.4331 0.5468 0.8742
C6 C 0.6720(3) 0.52572(17) 0.8812(2)
H8 H 0.7245 0.5491 0.9591
C7 C 0.7682(3) 0.49309(18) 0.8173(3)
H9 H 0.8854 0.4948 0.8513
C8 C 0.6899(4) 0.4580(2) 0.7029(3)
H10 H 0.7551 0.4355 0.6598
C9 C 0.5164(3) 0.45543(17) 0.6507(2)
H11 H 0.4647 0.4315 0.5730
C10 C -0.0204(3) 0.24329(13) 0.93378(18)
C11 C -0.1700(3) 0.20647(18) 0.8589(2)
H12 H -0.1695 0.1653 0.8008
C12 C -0.3198(3) 0.2315(2) 0.8715(3)
H13 H -0.4212 0.2073 0.8217
C13 C -0.3189(3) 0.2925(2) 0.9579(3)
H14 H -0.4202 0.3101 0.9653
C14 C -0.1694(3) 0.32731(16) 1.0331(2)
H15 H -0.1698 0.3679 1.0919
C15 C -0.0186(3) 0.30252(14) 1.0221(2)
H16 H 0.0829 0.3256 1.0737
loop_
_geom_bond_atom_site_label_1
_geom_bond_atom_site_label_2
_geom_bond_site_symmetry_1
_geom_bond_site_symmetry_2
S1 O1 1_555 1_555
S2 O2 1_555 1_555
C1 S1 1_555 1_555
H1 C1 1_555 1_555
H2 C1 1_555 1_555
C2 C1 1_555 1_555
H3 C2 1_555 1_555
H4 C2 1_555 1_555
C3 S2 1_555 1_555
H5 C3 1_555 1_555
H6 C3 1_555 1_555
C4 S1 1_555 1_555
C5 C4 1_555 1_555
H7 C5 1_555 1_555
C6 C5 1_555 1_555
H8 C6 1_555 1_555
C7 C6 1_555 1_555
H9 C7 1_555 1_555
C8 C7 1_555 1_555
H10 C8 1_555 1_555
C9 C4 1_555 1_555
H11 C9 1_555 1_555
C10 S2 1_555 1_555
C11 C10 1_555 1_555
H12 C11 1_555 1_555
C12 C11 1_555 1_555
H13 C12 1_555 1_555
C13 C12 1_555 1_555
H14 C13 1_555 1_555
C14 C13 1_555 1_555
H15 C14 1_555 1_555
C15 C10 1_555 1_555
H16 C15 1_555 1_555
C2 C3 1_555 1_555
C8 C9 1_555 1_555
C14 C15 1_555 1_555

#END
