
#######################################################################
#
#                 Cambridge Crystallographic Data Centre
#                                CCDC 
#
#######################################################################
#
# If this CIF has been generated from an entry in the Cambridge 
# Structural Database, then it will include bibliographic, chemical, 
# crystal, experimental, refinement or atomic coordinate data resulting 
# from the CCDC's data processing and validation procedures.
#
#######################################################################

data_QOQTIB
_chemical_formula_moiety         'C11 H11 Cl1 O2'
_chemical_name_systematic        6-(4-chlorophenyl)tetrahydro-2H-pyran-2-one
_symmetry_cell_setting           orthorhombic
_symmetry_space_group_name_H-M   'P 21 21 21'
_symmetry_Int_Tables_number      19
_space_group_name_Hall           'P 2ac 2ab'
loop_
_symmetry_equiv_pos_site_id
_symmetry_equiv_pos_as_xyz
1 x,y,z
2 1/2-x,-y,1/2+z
3 1/2+x,1/2-y,-z
4 -x,1/2+y,1/2-z
_cell_length_a                   6.8590(5)
_cell_length_b                   7.8956(6)
_cell_length_c                   18.6936(13)
_cell_angle_alpha                90
_cell_angle_beta                 90
_cell_angle_gamma                90
_cell_volume                     1012.37
_cell_formula_units_Z            4
loop_
_atom_site_label
_atom_site_type_symbol
_atom_site_fract_x
_atom_site_fract_y
_atom_site_fract_z
Cl1 Cl 1.10254(15) 0.67383(15) 0.82663(5)
O1 O 0.3454(3) 0.6767(3) 0.61051(11)
C1 C 0.8986(5) 0.6850(5) 0.70379(18)
H1 H 1.0034 0.7455 0.6852
C2 C 0.5806(5) 0.5597(4) 0.68919(16)
C3 C 0.7388(5) 0.6479(4) 0.66208(18)
H2 H 0.7369 0.6830 0.6146
O2 O 0.1906(5) 0.8195(4) 0.52972(14)
C4 C 0.8994(5) 0.6306(4) 0.77362(17)
C5 C 0.5859(5) 0.5074(4) 0.75977(17)
H3 H 0.4809 0.4479 0.7788
C6 C 0.4103(5) 0.5169(4) 0.64241(17)
H4 H 0.3051 0.4723 0.6725
C7 C 0.7461(5) 0.5427(4) 0.80247(17)
H5 H 0.7495 0.5073 0.8499
C8 C 0.2483(5) 0.6831(6) 0.54882(19)
C9 C 0.4567(5) 0.3888(4) 0.58581(19)
H6 H 0.4915 0.2821 0.6081
H7 H 0.5673 0.4273 0.5579
C10 C 0.2828(6) 0.3631(5) 0.5372(2)
H8 H 0.3156 0.2829 0.4998
H9 H 0.1747 0.3172 0.5645
C11 C 0.2250(8) 0.5275(6) 0.5048(3)
H10 H 0.0891 0.5193 0.4909
H11 H 0.3003 0.5425 0.4613
loop_
_geom_bond_atom_site_label_1
_geom_bond_atom_site_label_2
_geom_bond_site_symmetry_1
_geom_bond_site_symmetry_2
Cl1 C4 1_555 1_555
O1 C6 1_555 1_555
C1 H1 1_555 1_555
C2 C3 1_555 1_555
C3 C1 1_555 1_555
H2 C3 1_555 1_555
O2 C8 1_555 1_555
C4 C1 1_555 1_555
C5 C2 1_555 1_555
H3 C5 1_555 1_555
C6 C2 1_555 1_555
H4 C6 1_555 1_555
C7 C4 1_555 1_555
H5 C7 1_555 1_555
C8 O1 1_555 1_555
C9 C6 1_555 1_555
H6 C9 1_555 1_555
H7 C9 1_555 1_555
C10 C9 1_555 1_555
H8 C10 1_555 1_555
H9 C10 1_555 1_555
C11 C8 1_555 1_555
H10 C11 1_555 1_555
H11 C11 1_555 1_555
C5 C7 1_555 1_555
C10 C11 1_555 1_555

#END
