
#######################################################################
#
#                 Cambridge Crystallographic Data Centre
#                                CCDC 
#
#######################################################################
#
# If this CIF has been generated from an entry in the Cambridge 
# Structural Database, then it will include bibliographic, chemical, 
# crystal, experimental, refinement or atomic coordinate data resulting 
# from the CCDC's data processing and validation procedures.
#
#######################################################################

data_QOQWAW
_chemical_formula_moiety         'C21 H19 F3 N4 O3 S1'
_chemical_name_systematic        
4-(Azido(phenyl)methylene)-3-methyl-1-((4-methylphenyl)sulfonyl)-3-(2,2,2-trifluoroethyl)pyrrolidin-2-one
_symmetry_cell_setting           monoclinic
_symmetry_space_group_name_H-M   'P 21/c'
_symmetry_Int_Tables_number      14
_space_group_name_Hall           '-P 2ybc'
loop_
_symmetry_equiv_pos_site_id
_symmetry_equiv_pos_as_xyz
1 x,y,z
2 -x,1/2+y,1/2-z
3 -x,-y,-z
4 x,1/2-y,1/2+z
_cell_length_a                   16.421(2)
_cell_length_b                   8.6118(12)
_cell_length_c                   16.299(2)
_cell_angle_alpha                90
_cell_angle_beta                 104.901(15)
_cell_angle_gamma                90
_cell_volume                     2227.4
_exptl_crystal_colour            colorless
_exptl_crystal_description       block
_cell_formula_units_Z            4
loop_
_atom_site_label
_atom_site_type_symbol
_atom_site_fract_x
_atom_site_fract_y
_atom_site_fract_z
S1 S 0.19039(13) 0.9266(3) 0.26224(10)
F1 F 0.0863(3) 0.4387(8) -0.0090(4)
F2 F 0.0966(3) 0.6046(8) 0.0895(4)
F3 F 0.1454(4) 0.3764(10) 0.1168(5)
O1 O 0.2208(4) 0.8855(8) 0.0866(3)
O2 O 0.2246(3) 1.0721(7) 0.2412(4)
O3 O 0.2026(3) 0.8809(8) 0.3484(3)
N1 N 0.2339(3) 0.7863(8) 0.2190(3)
N2 N 0.3501(4) 0.3781(11) 0.3227(4)
N3 N 0.3849(4) 0.2533(13) 0.3495(4)
N4 N 0.4146(6) 0.1482(15) 0.3845(5)
C1 C 0.3574(5) 0.2097(12) 0.1352(5)
H1 H 0.3016 0.1827 0.1307
C2 C 0.4042(7) 0.1274(13) 0.0886(6)
H2 H 0.3790 0.0480 0.0522
C3 C 0.4876(7) 0.1642(15) 0.0968(6)
H3 H 0.5190 0.1106 0.0660
C4 C 0.5235(5) 0.2812(14) 0.1511(6)
H4 H 0.5797 0.3068 0.1571
C5 C 0.4780(5) 0.3606(12) 0.1964(5)
H5 H 0.5043 0.4371 0.2343
C6 C 0.3934(4) 0.3296(11) 0.1872(4)
C7 C 0.3439(5) 0.4218(11) 0.2350(4)
C8 C 0.2960(4) 0.5500(11) 0.2070(4)
C9 C 0.2527(4) 0.6317(10) 0.2621(4)
H6 H 0.2887 0.6427 0.3191
H7 H 0.2013 0.5784 0.2645
C10 C 0.2405(5) 0.7851(13) 0.1376(5)
C11 C 0.2806(4) 0.6264(12) 0.1220(4)
C12 C 0.3602(5) 0.6645(12) 0.0918(5)
H8 H 0.4017 0.7118 0.1374
H9 H 0.3457 0.7349 0.0446
H10 H 0.3827 0.5706 0.0746
C13 C 0.2204(5) 0.5439(12) 0.0488(5)
H11 H 0.2096 0.6126 0.0000
H12 H 0.2493 0.4534 0.0347
C14 C 0.1387(7) 0.4925(18) 0.0601(6)
C15 C 0.0829(4) 0.9202(9) 0.2109(4)
C16 C 0.0297(5) 0.8254(10) 0.2435(4)
H13 H 0.0508 0.7671 0.2924
C17 C -0.0539(5) 0.8199(10) 0.2021(5)
H14 H -0.0899 0.7612 0.2253
C18 C -0.0868(5) 0.8983(9) 0.1272(4)
C19 C -0.0344(5) 0.9941(10) 0.0977(4)
H15 H -0.0565 1.0544 0.0498
C20 C 0.0500(4) 1.0035(9) 0.1370(4)
H16 H 0.0851 1.0656 0.1142
C21 C -0.1798(5) 0.8847(13) 0.0803(5)
H17 H -0.1948 0.9676 0.0399
H18 H -0.2135 0.8912 0.1204
H19 H -0.1896 0.7868 0.0513
loop_
_geom_bond_atom_site_label_1
_geom_bond_atom_site_label_2
_geom_bond_site_symmetry_1
_geom_bond_site_symmetry_2
S1 O2 1_555 1_555
F1 C14 1_555 1_555
F2 C14 1_555 1_555
F3 C14 1_555 1_555
O1 C10 1_555 1_555
O3 S1 1_555 1_555
N1 S1 1_555 1_555
N2 N3 1_555 1_555
N3 N4 1_555 1_555
C1 H1 1_555 1_555
C2 C1 1_555 1_555
H2 C2 1_555 1_555
C3 C2 1_555 1_555
H3 C3 1_555 1_555
C4 C3 1_555 1_555
H4 C4 1_555 1_555
C5 C4 1_555 1_555
H5 C5 1_555 1_555
C6 C1 1_555 1_555
C7 N2 1_555 1_555
C8 C7 1_555 1_555
C9 N1 1_555 1_555
H6 C9 1_555 1_555
H7 C9 1_555 1_555
C10 N1 1_555 1_555
C11 C8 1_555 1_555
C12 C11 1_555 1_555
H8 C12 1_555 1_555
H9 C12 1_555 1_555
H10 C12 1_555 1_555
C13 C11 1_555 1_555
H11 C13 1_555 1_555
H12 C13 1_555 1_555
C14 C13 1_555 1_555
C15 S1 1_555 1_555
C16 C15 1_555 1_555
H13 C16 1_555 1_555
C17 C16 1_555 1_555
H14 C17 1_555 1_555
C18 C17 1_555 1_555
C19 C18 1_555 1_555
H15 C19 1_555 1_555
C20 C15 1_555 1_555
H16 C20 1_555 1_555
C21 C18 1_555 1_555
H17 C21 1_555 1_555
H18 C21 1_555 1_555
H19 C21 1_555 1_555
C5 C6 1_555 1_555
C6 C7 1_555 1_555
C8 C9 1_555 1_555
C10 C11 1_555 1_555
C19 C20 1_555 1_555

#END
