
#######################################################################
#
#                 Cambridge Crystallographic Data Centre
#                                CCDC 
#
#######################################################################
#
# If this CIF has been generated from an entry in the Cambridge 
# Structural Database, then it will include bibliographic, chemical, 
# crystal, experimental, refinement or atomic coordinate data resulting 
# from the CCDC's data processing and validation procedures.
#
#######################################################################

data_QOQWEY
_chemical_formula_moiety         'C5 H12 N1 O2 1+,C5 H11 N1 O2,Cl1 O4 1-,H2 O1'
_chemical_name_systematic        'L-Valine L-valinium perchlorate monohydrate'
_symmetry_cell_setting           monoclinic
_symmetry_space_group_name_H-M   'P 21'
_symmetry_Int_Tables_number      4
_space_group_name_Hall           'P 2yb'
loop_
_symmetry_equiv_pos_site_id
_symmetry_equiv_pos_as_xyz
1 x,y,z
2 -x,1/2+y,-z
_cell_length_a                   11.235(3)
_cell_length_b                   5.8312(14)
_cell_length_c                   13.0948(19)
_cell_angle_alpha                90
_cell_angle_beta                 91.282(16)
_cell_angle_gamma                90
_cell_volume                     857.672
_exptl_crystal_colour            colorless
_exptl_crystal_description       needles
_cell_formula_units_Z            2
loop_
_atom_site_label
_atom_site_type_symbol
_atom_site_fract_x
_atom_site_fract_y
_atom_site_fract_z
O7 O 0.4708(3) 0.4853(5) 0.3769(2)
O8 O 0.3434(3) 0.3121(4) 0.4765(2)
C1 C 0.3832(3) 0.4873(6) 0.4311(2)
C2 C 0.3191(3) 0.7135(6) 0.4498(3)
H1 H 0.3297 0.7530 0.5222
N1 N 0.3775(2) 0.8941(5) 0.3884(2)
H2 H 0.3410 1.0276 0.3980
H3 H 0.3728 0.8567 0.3225
H4 H 0.4536 0.9061 0.4079
C3 C 0.1852(3) 0.6948(7) 0.4259(3)
H5 H 0.1543 0.5767 0.4715
C4 C 0.1204(4) 0.9175(10) 0.4518(5)
H6 H 0.1406 0.9619 0.5206
H7 H 0.0359 0.8940 0.4454
H8 H 0.1439 1.0362 0.4056
C5 C 0.1584(4) 0.6139(10) 0.3180(4)
H9 H 0.0738 0.6049 0.3069
H10 H 0.1930 0.4651 0.3082
H11 H 0.1914 0.7202 0.2704
O9 O 0.3947(2) 0.5095(6) 0.69524(19)
O10 O 0.2391(3) 0.2967(6) 0.6483(2)
H12 H 0.2688 0.3051 0.5918
C6 C 0.3045(3) 0.4107(7) 0.7145(3)
C7 C 0.2528(3) 0.4105(7) 0.8206(3)
H13 H 0.2531 0.2517 0.8452
N2 N 0.3369(2) 0.5432(7) 0.88663(19)
H14 H 0.3103 0.5470 0.9501
H15 H 0.3428 0.6856 0.8628
H16 H 0.4082 0.4766 0.8866
C8 C 0.1250(3) 0.4973(9) 0.8235(3)
H17 H 0.0779 0.4046 0.7749
C9 C 0.0737(4) 0.4601(13) 0.9282(5)
H18 H 0.0825 0.3019 0.9472
H19 H -0.0092 0.5001 0.9265
H20 H 0.1153 0.5548 0.9772
C10 C 0.1139(5) 0.7465(11) 0.7894(5)
H21 H 0.0322 0.7935 0.7922
H22 H 0.1410 0.7612 0.7207
H23 H 0.1616 0.8418 0.8340
O11 O 0.5770(3) 0.4660(5) 0.1852(2)
H24 H 0.519(4) 0.503(12) 0.153(4)
H25 H 0.543(4) 0.449(10) 0.245(4)
Cl1 Cl 0.32517(7) 0.02913(19) 0.09205(6)
O1 O 0.2394(3) -0.0572(11) 0.0241(3)
O2 O 0.2751(5) 0.0918(11) 0.1838(3)
O3 O 0.3962(13) 0.197(4) 0.0469(13)
O4 O 0.4124(9) -0.132(3) 0.133(2)
O5? O 0.368(5) 0.231(7) 0.055(3)
O6? O 0.4038(19) -0.147(4) 0.084(3)
loop_
_geom_bond_atom_site_label_1
_geom_bond_atom_site_label_2
_geom_bond_site_symmetry_1
_geom_bond_site_symmetry_2
Cl1 O1 1_555 1_555
O2 Cl1 1_555 1_555
O3 Cl1 1_555 1_555
O4 Cl1 1_555 1_555
O7 C1 1_555 1_555
O8 C1 1_555 1_555
C1 C2 1_555 1_555
C2 H1 1_555 1_555
N1 C2 1_555 1_555
H2 N1 1_555 1_555
H3 N1 1_555 1_555
H4 N1 1_555 1_555
C3 C2 1_555 1_555
H5 C3 1_555 1_555
C4 C3 1_555 1_555
H6 C4 1_555 1_555
H7 C4 1_555 1_555
H8 C4 1_555 1_555
C5 C3 1_555 1_555
H9 C5 1_555 1_555
H10 C5 1_555 1_555
H11 C5 1_555 1_555
O9 C6 1_555 1_555
O10 H12 1_555 1_555
C6 O10 1_555 1_555
C7 C6 1_555 1_555
H13 C7 1_555 1_555
N2 C7 1_555 1_555
H14 N2 1_555 1_555
H15 N2 1_555 1_555
H16 N2 1_555 1_555
C8 C7 1_555 1_555
H17 C8 1_555 1_555
C9 C8 1_555 1_555
H18 C9 1_555 1_555
H19 C9 1_555 1_555
H20 C9 1_555 1_555
C10 C8 1_555 1_555
H21 C10 1_555 1_555
H22 C10 1_555 1_555
H23 C10 1_555 1_555
O11 H24 1_555 1_555
H25 O11 1_555 1_555

#END
