
#######################################################################
#
#                 Cambridge Crystallographic Data Centre
#                                CCDC 
#
#######################################################################
#
# If this CIF has been generated from an entry in the Cambridge 
# Structural Database, then it will include bibliographic, chemical, 
# crystal, experimental, refinement or atomic coordinate data resulting 
# from the CCDC's data processing and validation procedures.
#
#######################################################################

data_QOQXEB
_chemical_formula_moiety         'C24 H30 N8 O6'
_chemical_name_systematic        
6-Methyl-2,10,16,24-tetraoxo-3,9,17,20,23,29,30-hepta-aza-6-azoniatricyclo[23.3.1.1^11,15^]triaconta-1(29),11(30),12,14,25,27-hexaene-20-carboxylate
_symmetry_cell_setting           monoclinic
_symmetry_space_group_name_H-M   'C c'
_symmetry_Int_Tables_number      9
_space_group_name_Hall           'C -2yc'
loop_
_symmetry_equiv_pos_site_id
_symmetry_equiv_pos_as_xyz
1 x,y,z
2 x,-y,1/2+z
3 1/2+x,1/2+y,z
4 1/2+x,1/2-y,1/2+z
_cell_length_a                   9.5929(8)
_cell_length_b                   13.2942(11)
_cell_length_c                   18.7485(14)
_cell_angle_alpha                90
_cell_angle_beta                 92.399(4)
_cell_angle_gamma                90
_cell_volume                     2388.9
_exptl_crystal_colour            colorless
_exptl_crystal_description       Irregular
_cell_formula_units_Z            4
loop_
_atom_site_label
_atom_site_type_symbol
_atom_site_fract_x
_atom_site_fract_y
_atom_site_fract_z
O1 O 0.39208(14) 0.42886(11) 0.65892(7)
O2 O 0.36879(16) 0.31885(13) 0.29187(7)
O3 O 0.33738(14) 0.04522(10) 0.27576(6)
O4 O 0.42216(14) 0.15032(11) 0.64307(7)
O5 O 0.00046(14) 0.28861(10) 0.47753(7)
O6 O -0.00721(13) 0.11961(10) 0.47727(7)
N1 N -0.00713(15) 0.25993(12) 0.62230(8)
H1 H 0.020(2) 0.2577(18) 0.5760(14)
C1 C -0.0326(2) 0.36950(15) 0.63716(10)
H2 H -0.090(3) 0.3772(18) 0.6800(14)
H3 H -0.095(3) 0.3950(18) 0.5974(13)
C2 C 0.10020(19) 0.42984(14) 0.64720(10)
H4 H 0.1528(19) 0.4170(13) 0.6929(10)
H5 H 0.077(2) 0.4989(17) 0.6485(10)
N2 N 0.19428(17) 0.41053(12) 0.58985(8)
H6 H 0.156(3) 0.398(2) 0.5501(17)
C3 C 0.33299(19) 0.41110(14) 0.60106(9)
C4 C 0.4151(2) 0.38718(13) 0.53591(10)
N3 N 0.33811(16) 0.37166(11) 0.47548(8)
C5 C 0.5592(2) 0.38330(14) 0.53990(10)
H7 H 0.607(3) 0.3959(17) 0.5835(13)
C6 C 0.6284(2) 0.36298(15) 0.47782(11)
H8 H 0.730(3) 0.358(2) 0.4793(14)
C7 C 0.5500(2) 0.34659(14) 0.41481(10)
H9 H 0.594(3) 0.3308(17) 0.3714(14)
C8 C 0.4060(2) 0.35141(14) 0.41633(10)
C9 C 0.3160(2) 0.33527(14) 0.34926(9)
N4 N 0.17965(17) 0.34162(12) 0.35858(8)
H10 H 0.150(2) 0.3473(16) 0.4003(13)
C10 C 0.0732(2) 0.32757(15) 0.30148(10)
H11 H 0.105(2) 0.2784(19) 0.2686(13)
H12 H 0.060(2) 0.3930(18) 0.2754(12)
C11 C -0.0640(2) 0.29804(14) 0.33333(10)
H13 H -0.096(2) 0.3529(17) 0.3656(13)
H14 H -0.131(3) 0.2899(18) 0.2940(14)
N5 N -0.05871(15) 0.20468(12) 0.37412(8)
C12 C -0.08169(19) 0.10967(14) 0.33563(10)
H15 H -0.118(2) 0.0607(17) 0.3682(12)
H16 H -0.162(3) 0.1220(18) 0.2979(13)
C13 C 0.04611(19) 0.06603(15) 0.30068(9)
H17 H 0.072(2) 0.1040(16) 0.2595(12)
H18 H 0.022(3) -0.002(2) 0.2829(12)
N6 N 0.16209(16) 0.06336(12) 0.35282(8)
H19 H 0.142(2) 0.0709(16) 0.3956(13)
C14 C 0.29565(19) 0.05973(13) 0.33614(9)
C15 C 0.39574(19) 0.07598(14) 0.39945(9)
N7 N 0.33674(16) 0.09233(11) 0.46177(8)
C16 C 0.5386(2) 0.07503(14) 0.39175(10)
H20 H 0.578(2) 0.0604(17) 0.3460(13)
C17 C 0.6251(2) 0.09382(15) 0.45166(11)
H21 H 0.727(3) 0.0971(19) 0.4496(13)
C18 C 0.56472(19) 0.11325(14) 0.51609(10)
H22 H 0.614(2) 0.1266(17) 0.5570(13)
C19 C 0.42051(19) 0.11101(13) 0.51870(9)
C20 C 0.35241(19) 0.12640(13) 0.58944(10)
N8 N 0.21494(16) 0.10791(12) 0.58818(8)
H23 H 0.170(3) 0.100(2) 0.5489(16)
C21 C 0.14015(19) 0.10899(14) 0.65410(9)
H24 H 0.203(2) 0.0850(16) 0.6931(11)
H25 H 0.062(2) 0.0622(17) 0.6478(11)
C22 C 0.0972(2) 0.21411(15) 0.67487(9)
H26 H 0.173(2) 0.2579(16) 0.6772(11)
H27 H 0.049(2) 0.2146(17) 0.7215(12)
C23 C -0.1431(2) 0.20487(16) 0.62082(10)
H28 H -0.125(3) 0.132(2) 0.5996(15)
H29 H -0.174(2) 0.2050(16) 0.6712(12)
H30 H -0.207(3) 0.2495(18) 0.5880(13)
C24 C -0.01952(18) 0.20374(14) 0.44661(9)
loop_
_geom_bond_atom_site_label_1
_geom_bond_atom_site_label_2
_geom_bond_site_symmetry_1
_geom_bond_site_symmetry_2
O1 C3 1_555 1_555
O2 C9 1_555 1_555
O3 C14 1_555 1_555
O4 C20 1_555 1_555
O5 C24 1_555 1_555
O6 C24 1_555 1_555
N1 H1 1_555 1_555
C1 N1 1_555 1_555
H2 C1 1_555 1_555
H3 C1 1_555 1_555
C2 C1 1_555 1_555
H4 C2 1_555 1_555
H5 C2 1_555 1_555
N2 C2 1_555 1_555
H6 N2 1_555 1_555
C3 N2 1_555 1_555
C4 C3 1_555 1_555
N3 C4 1_555 1_555
C5 C4 1_555 1_555
H7 C5 1_555 1_555
C6 C5 1_555 1_555
H8 C6 1_555 1_555
C7 C6 1_555 1_555
H9 C7 1_555 1_555
C8 N3 1_555 1_555
C9 C8 1_555 1_555
N4 C9 1_555 1_555
H10 N4 1_555 1_555
C10 N4 1_555 1_555
H11 C10 1_555 1_555
H12 C10 1_555 1_555
C11 C10 1_555 1_555
H13 C11 1_555 1_555
H14 C11 1_555 1_555
N5 C11 1_555 1_555
C12 N5 1_555 1_555
H15 C12 1_555 1_555
H16 C12 1_555 1_555
C13 C12 1_555 1_555
H17 C13 1_555 1_555
H18 C13 1_555 1_555
N6 C13 1_555 1_555
H19 N6 1_555 1_555
C14 N6 1_555 1_555
C15 C14 1_555 1_555
N7 C15 1_555 1_555
C16 C15 1_555 1_555
H20 C16 1_555 1_555
C17 C16 1_555 1_555
H21 C17 1_555 1_555
C18 C17 1_555 1_555
H22 C18 1_555 1_555
C19 N7 1_555 1_555
C20 C19 1_555 1_555
N8 C20 1_555 1_555
H23 N8 1_555 1_555
C21 N8 1_555 1_555
H24 C21 1_555 1_555
H25 C21 1_555 1_555
C22 N1 1_555 1_555
H26 C22 1_555 1_555
H27 C22 1_555 1_555
C23 N1 1_555 1_555
H28 C23 1_555 1_555
H29 C23 1_555 1_555
H30 C23 1_555 1_555
C24 N5 1_555 1_555
C7 C8 1_555 1_555
C18 C19 1_555 1_555
C21 C22 1_555 1_555

#END
