
#######################################################################
#
#                 Cambridge Crystallographic Data Centre
#                                CCDC 
#
#######################################################################
#
# If this CIF has been generated from an entry in the Cambridge 
# Structural Database, then it will include bibliographic, chemical, 
# crystal, experimental, refinement or atomic coordinate data resulting 
# from the CCDC's data processing and validation procedures.
#
#######################################################################

data_QOQZIH
_chemical_formula_moiety         'C16 H18 N2 O5'
_chemical_name_systematic        
'(3-Oxo-octahydroindolizin-8-yl)methyl 4-nitrobenzoate'
_symmetry_cell_setting           monoclinic
_symmetry_space_group_name_H-M   'P 21'
_symmetry_Int_Tables_number      4
_space_group_name_Hall           'P 2yb'
loop_
_symmetry_equiv_pos_site_id
_symmetry_equiv_pos_as_xyz
1 x,y,z
2 -x,1/2+y,-z
_cell_length_a                   11.303(2)
_cell_length_b                   5.2450(10)
_cell_length_c                   13.127(3)
_cell_angle_alpha                90
_cell_angle_beta                 95.54(3)
_cell_angle_gamma                90
_cell_volume                     774.589
_exptl_crystal_colour            colorless
_exptl_crystal_description       Plate
_cell_formula_units_Z            2
loop_
_atom_site_label
_atom_site_type_symbol
_atom_site_fract_x
_atom_site_fract_y
_atom_site_fract_z
O1 O 0.0973(3) -0.2344(9) 1.3199(2)
O2 O 0.0146(3) -0.3687(9) 1.1739(3)
O3 O 0.4143(2) 0.6632(7) 1.06339(19)
O4 O 0.3028(2) 0.5417(6) 0.92025(18)
O5 O 0.3376(3) 0.2250(7) 0.44996(19)
N1 N 0.0798(3) -0.2233(9) 1.2258(3)
N2 N 0.2963(3) 0.4075(7) 0.6010(2)
C1 C 0.1450(3) -0.0237(9) 1.1738(3)
C2 C 0.2220(3) 0.1359(10) 1.2306(3)
H1 H 0.2329 0.1233 1.3031
C3 C 0.2830(4) 0.3146(9) 1.1793(3)
H2 H 0.3372 0.4255 1.2172
C4 C 0.2668(3) 0.3363(9) 1.0725(3)
C5 C 0.1871(3) 0.1727(9) 1.0178(3)
H3 H 0.1749 0.1865 0.9453
C6 C 0.1254(3) -0.0094(10) 1.0673(3)
H4 H 0.0714 -0.1217 1.0300
C7 C 0.3370(4) 0.5309(9) 1.0211(3)
C8 C 0.3675(3) 0.7216(9) 0.8612(3)
H5 H 0.4536 0.6824 0.8693
H6 H 0.3560 0.8979 0.8853
C9 C 0.3188(3) 0.6952(8) 0.7498(3)
H7 H 0.3602 0.8252 0.7103
C10 C 0.3480(3) 0.4353(8) 0.7074(2)
H8 H 0.3159 0.2988 0.7503
C11 C 0.4810(3) 0.3854(10) 0.6982(3)
H9 H 0.5246 0.5480 0.6940
H10 H 0.5168 0.2876 0.7579
C12 C 0.4847(3) 0.2310(10) 0.5993(3)
H11 H 0.5511 0.2880 0.5608
H12 H 0.4942 0.0468 0.6145
C13 C 0.3671(3) 0.2835(9) 0.5401(3)
C14 C 0.1712(4) 0.4688(10) 0.5742(3)
H13 H 0.1206 0.3388 0.6032
H14 H 0.1536 0.4676 0.4988
C15 C 0.1437(4) 0.7322(11) 0.6162(3)
H15 H 0.0571 0.7640 0.6055
H16 H 0.1843 0.8647 0.5787
C16 C 0.1852(4) 0.7493(10) 0.7307(3)
H17 H 0.1682 0.9218 0.7561
H18 H 0.1408 0.6243 0.7687
loop_
_geom_bond_atom_site_label_1
_geom_bond_atom_site_label_2
_geom_bond_site_symmetry_1
_geom_bond_site_symmetry_2
O1 N1 1_555 1_555
O2 N1 1_555 1_555
O3 C7 1_555 1_555
O4 C7 1_555 1_555
O5 C13 1_555 1_555
N1 C1 1_555 1_555
N2 C10 1_555 1_555
C1 C2 1_555 1_555
C2 H1 1_555 1_555
C3 C2 1_555 1_555
H2 C3 1_555 1_555
C4 C3 1_555 1_555
C5 C4 1_555 1_555
H3 C5 1_555 1_555
C6 C1 1_555 1_555
H4 C6 1_555 1_555
C7 C4 1_555 1_555
C8 O4 1_555 1_555
H5 C8 1_555 1_555
H6 C8 1_555 1_555
C9 C8 1_555 1_555
H7 C9 1_555 1_555
C10 C9 1_555 1_555
H8 C10 1_555 1_555
C11 C10 1_555 1_555
H9 C11 1_555 1_555
H10 C11 1_555 1_555
C12 C11 1_555 1_555
H11 C12 1_555 1_555
H12 C12 1_555 1_555
C13 N2 1_555 1_555
C14 N2 1_555 1_555
H13 C14 1_555 1_555
H14 C14 1_555 1_555
C15 C14 1_555 1_555
H15 C15 1_555 1_555
H16 C15 1_555 1_555
C16 C9 1_555 1_555
H17 C16 1_555 1_555
H18 C16 1_555 1_555
C5 C6 1_555 1_555
C12 C13 1_555 1_555
C15 C16 1_555 1_555

#END
