
#######################################################################
#
#                 Cambridge Crystallographic Data Centre
#                                CCDC 
#
#######################################################################
#
# If this CIF has been generated from an entry in the Cambridge 
# Structural Database, then it will include bibliographic, chemical, 
# crystal, experimental, refinement or atomic coordinate data resulting 
# from the CCDC's data processing and validation procedures.
#
#######################################################################

data_QOQZON
_chemical_formula_moiety         'C22 H28 N2 O3 S2'
_chemical_name_systematic        
8-(3-(4-Benzyl-2-thioxo-1,3-thiazolidin-3-yl)-1-hydroxy-2-methyl-3-oxopropyl)hexahydroindolizin-3(2H)-one
_symmetry_cell_setting           orthorhombic
_symmetry_space_group_name_H-M   'P 21 21 21'
_symmetry_Int_Tables_number      19
_space_group_name_Hall           'P 2ac 2ab'
loop_
_symmetry_equiv_pos_site_id
_symmetry_equiv_pos_as_xyz
1 x,y,z
2 1/2-x,-y,1/2+z
3 -x,1/2+y,1/2-z
4 1/2+x,1/2-y,-z
_cell_length_a                   8.517(2)
_cell_length_b                   11.858(3)
_cell_length_c                   21.483(6)
_cell_angle_alpha                90
_cell_angle_beta                 90
_cell_angle_gamma                90
_cell_volume                     2169.67
_exptl_crystal_colour            yellow
_exptl_crystal_description       block
_cell_formula_units_Z            4
loop_
_atom_site_label
_atom_site_type_symbol
_atom_site_fract_x
_atom_site_fract_y
_atom_site_fract_z
S1 S 0.11758(9) 0.61203(6) 0.56043(3)
S2 S 0.20500(13) 0.76729(6) 0.46198(4)
O1 O -0.5558(2) 0.56063(16) 0.19378(9)
O2 O 0.1763(2) 0.68385(16) 0.22939(8)
H1 H 0.2649 0.6572 0.2205
O3 O 0.0660(2) 0.44056(15) 0.36055(8)
N1 N -0.3100(3) 0.63948(17) 0.19817(10)
N2 N 0.1009(2) 0.54836(16) 0.44603(9)
C1 C -0.4105(3) 0.5533(2) 0.19482(11)
C2 C -0.3182(4) 0.4456(2) 0.19100(14)
H2 H -0.3506 0.4008 0.1543
H3 H -0.3337 0.3996 0.2289
C3 C -0.1478(4) 0.4824(3) 0.1851(2)
H4 H -0.1099 0.4714 0.1420
H5 H -0.0803 0.4382 0.2137
C4 C -0.1444(3) 0.6079(2) 0.20259(12)
H6 H -0.0828 0.6505 0.1707
C5 C -0.0793(3) 0.63429(19) 0.26795(11)
H7 H -0.1344 0.5848 0.2987
C6 C -0.1192(3) 0.7574(2) 0.28314(13)
H8 H -0.0843 0.7743 0.3261
H9 H -0.0602 0.8073 0.2545
C7 C -0.2934(3) 0.7834(2) 0.27759(14)
H10 H -0.3522 0.7392 0.3089
H11 H -0.3113 0.8644 0.2862
C8 C -0.3538(3) 0.7550(2) 0.21288(13)
H12 H -0.4694 0.7632 0.2116
H13 H -0.3076 0.8072 0.1819
C9 C 0.0969(3) 0.6090(2) 0.27130(10)
H14 H 0.1151 0.5295 0.2574
C10 C 0.1647(3) 0.6238(2) 0.33780(10)
H15 H 0.1344 0.6994 0.3545
C11 C 0.3449(3) 0.6118(2) 0.33840(12)
H16 H 0.3744 0.5389 0.3204
H17 H 0.3831 0.6163 0.3814
H18 H 0.3918 0.6727 0.3138
C12 C 0.1042(3) 0.5328(2) 0.38023(10)
C13 C 0.1405(3) 0.6417(2) 0.48131(12)
C14 C 0.0102(3) 0.4830(2) 0.54545(11)
H19 H 0.0317 0.4262 0.5781
H20 H -0.1042 0.4975 0.5439
C15 C 0.0704(3) 0.4434(2) 0.48274(11)
H21 H -0.0116 0.3969 0.4615
C16 C 0.2240(3) 0.3763(2) 0.48758(12)
H22 H 0.2671 0.3646 0.4453
H23 H 0.3015 0.4209 0.5116
C17 C 0.2021(3) 0.2629(2) 0.51870(12)
C18 C 0.2390(3) 0.2489(2) 0.58119(13)
H24 H 0.2777 0.3115 0.6042
C19 C 0.2206(4) 0.1459(3) 0.61082(15)
H25 H 0.2465 0.1382 0.6536
C20 C 0.1646(4) 0.0551(3) 0.5780(2)
H26 H 0.1528 -0.0160 0.5979
C21 C 0.1255(4) 0.0675(3) 0.5157(2)
H27 H 0.0851 0.0050 0.4931
C22 C 0.1451(4) 0.1713(2) 0.48612(15)
H28 H 0.1191 0.1789 0.4433
loop_
_geom_bond_atom_site_label_1
_geom_bond_atom_site_label_2
_geom_bond_site_symmetry_1
_geom_bond_site_symmetry_2
S1 C13 1_555 1_555
S2 C13 1_555 1_555
O1 C1 1_555 1_555
O2 H1 1_555 1_555
O3 C12 1_555 1_555
N1 C1 1_555 1_555
N2 C12 1_555 1_555
C1 C2 1_555 1_555
C2 H2 1_555 1_555
H3 C2 1_555 1_555
C3 C2 1_555 1_555
H4 C3 1_555 1_555
H5 C3 1_555 1_555
C4 N1 1_555 1_555
H6 C4 1_555 1_555
C5 C4 1_555 1_555
H7 C5 1_555 1_555
C6 C5 1_555 1_555
H8 C6 1_555 1_555
H9 C6 1_555 1_555
C7 C6 1_555 1_555
H10 C7 1_555 1_555
H11 C7 1_555 1_555
C8 N1 1_555 1_555
H12 C8 1_555 1_555
H13 C8 1_555 1_555
C9 O2 1_555 1_555
H14 C9 1_555 1_555
C10 C9 1_555 1_555
H15 C10 1_555 1_555
C11 C10 1_555 1_555
H16 C11 1_555 1_555
H17 C11 1_555 1_555
H18 C11 1_555 1_555
C12 C10 1_555 1_555
C13 N2 1_555 1_555
C14 S1 1_555 1_555
H19 C14 1_555 1_555
H20 C14 1_555 1_555
C15 N2 1_555 1_555
H21 C15 1_555 1_555
C16 C15 1_555 1_555
H22 C16 1_555 1_555
H23 C16 1_555 1_555
C17 C16 1_555 1_555
C18 C17 1_555 1_555
H24 C18 1_555 1_555
C19 C18 1_555 1_555
H25 C19 1_555 1_555
C20 C19 1_555 1_555
H26 C20 1_555 1_555
C21 C20 1_555 1_555
H27 C21 1_555 1_555
C22 C17 1_555 1_555
H28 C22 1_555 1_555
C3 C4 1_555 1_555
C5 C9 1_555 1_555
C7 C8 1_555 1_555
C14 C15 1_555 1_555
C21 C22 1_555 1_555

#END
