
#######################################################################
#
#                 Cambridge Crystallographic Data Centre
#                                CCDC 
#
#######################################################################
#
# If this CIF has been generated from an entry in the Cambridge 
# Structural Database, then it will include bibliographic, chemical, 
# crystal, experimental, refinement or atomic coordinate data resulting 
# from the CCDC's data processing and validation procedures.
#
#######################################################################

data_QOQZAY
_chemical_formula_moiety         'C20 H16 N2 O4'
_chemical_name_systematic        "Dimethyl 3,3'-biindolizine-1,1'-dicarboxylate"
_symmetry_cell_setting           monoclinic
_symmetry_space_group_name_H-M   'P 21/c'
_symmetry_Int_Tables_number      14
_space_group_name_Hall           '-P 2ybc'
loop_
_symmetry_equiv_pos_site_id
_symmetry_equiv_pos_as_xyz
1 x,y,z
2 -x,1/2+y,1/2-z
3 -x,-y,-z
4 x,1/2-y,1/2+z
_cell_length_a                   14.8181(16)
_cell_length_b                   7.9738(9)
_cell_length_c                   14.4428(15)
_cell_angle_alpha                90
_cell_angle_beta                 93.794(3)
_cell_angle_gamma                90
_cell_volume                     1702.77
_exptl_crystal_colour            colorless
_exptl_crystal_description       prismatic
_cell_formula_units_Z            4
loop_
_atom_site_label
_atom_site_type_symbol
_atom_site_fract_x
_atom_site_fract_y
_atom_site_fract_z
O1 O 0.41265(13) 0.1800(3) 0.62780(14)
O2 O 0.46489(12) -0.0080(3) 0.73356(13)
O3 O 1.10861(13) -0.1706(3) 0.65384(14)
O4 O 1.05544(12) -0.0085(3) 0.76503(13)
N1 N 0.68029(15) 0.1401(3) 0.54178(15)
N2 N 0.83372(15) -0.1328(3) 0.54377(15)
C1 C 0.70991(18) 0.0279(3) 0.61143(19)
C2 C 0.63895(17) -0.0048(3) 0.66333(18)
H1 H 0.6401 -0.0758 0.7145
C3 C 0.56335(18) 0.0863(3) 0.62717(18)
C4 C 0.58924(18) 0.1753(3) 0.55054(18)
C5 C 0.5471(2) 0.2877(4) 0.4863(2)
H2 H 0.4864 0.3143 0.4902
C6 C 0.5937(2) 0.3569(4) 0.4197(2)
H3 H 0.5653 0.4323 0.3782
C7 C 0.6845(2) 0.3165(4) 0.4122(2)
H4 H 0.7160 0.3641 0.3651
C8 C 0.7271(2) 0.2088(4) 0.4728(2)
H5 H 0.7876 0.1818 0.4675
C9 C 0.4737(2) 0.0932(4) 0.6604(2)
C10 C 0.3788(2) -0.0049(4) 0.7720(2)
H6 H 0.3682 0.1046 0.7968
H7 H 0.3776 -0.0867 0.8207
H8 H 0.3325 -0.0305 0.7245
C11 C 0.80334(18) -0.0322(3) 0.61504(18)
C12 C 0.87689(17) -0.0050(3) 0.67575(18)
H9 H 0.8766 0.0580 0.7299
C13 C 0.95349(18) -0.0874(3) 0.64354(18)
C14 C 0.92574(19) -0.1670(3) 0.56016(19)
C15 C 0.9671(2) -0.2674(4) 0.4951(2)
H10 H 1.0283 -0.2935 0.5037
C16 C 0.9175(2) -0.3260(4) 0.4198(2)
H11 H 0.9451 -0.3913 0.3765
C17 C 0.8240(2) -0.2892(4) 0.4062(2)
H12 H 0.7907 -0.3304 0.3542
C18 C 0.7834(2) -0.1953(4) 0.4680(2)
H13 H 0.7218 -0.1725 0.4599
C19 C 1.0462(2) -0.0964(4) 0.6850(2)
C20 C 1.14523(19) -0.0102(4) 0.8122(2)
H14 H 1.1712 -0.1199 0.8075
H15 H 1.1409 0.0177 0.8765
H16 H 1.1829 0.0705 0.7840
loop_
_geom_bond_atom_site_label_1
_geom_bond_atom_site_label_2
_geom_bond_site_symmetry_1
_geom_bond_site_symmetry_2
O1 C9 1_555 1_555
O2 C9 1_555 1_555
O3 C19 1_555 1_555
O4 C19 1_555 1_555
N1 C1 1_555 1_555
N2 C11 1_555 1_555
C1 C2 1_555 1_555
C2 H1 1_555 1_555
C3 C2 1_555 1_555
C4 N1 1_555 1_555
C5 C4 1_555 1_555
H2 C5 1_555 1_555
C6 C5 1_555 1_555
H3 C6 1_555 1_555
C7 C6 1_555 1_555
H4 C7 1_555 1_555
C8 N1 1_555 1_555
H5 C8 1_555 1_555
C9 C3 1_555 1_555
C10 O2 1_555 1_555
H6 C10 1_555 1_555
H7 C10 1_555 1_555
H8 C10 1_555 1_555
C11 C1 1_555 1_555
C12 C11 1_555 1_555
H9 C12 1_555 1_555
C13 C12 1_555 1_555
C14 N2 1_555 1_555
C15 C14 1_555 1_555
H10 C15 1_555 1_555
C16 C15 1_555 1_555
H11 C16 1_555 1_555
C17 C16 1_555 1_555
H12 C17 1_555 1_555
C18 N2 1_555 1_555
H13 C18 1_555 1_555
C19 C13 1_555 1_555
C20 O4 1_555 1_555
H14 C20 1_555 1_555
H15 C20 1_555 1_555
H16 C20 1_555 1_555
C3 C4 1_555 1_555
C7 C8 1_555 1_555
C13 C14 1_555 1_555
C17 C18 1_555 1_555

#END
