
#######################################################################
#
#                 Cambridge Crystallographic Data Centre
#                                CCDC 
#
#######################################################################
#
# If this CIF has been generated from an entry in the Cambridge 
# Structural Database, then it will include bibliographic, chemical, 
# crystal, experimental, refinement or atomic coordinate data resulting 
# from the CCDC's data processing and validation procedures.
#
#######################################################################

data_QORBEG
_chemical_formula_moiety         'C21 H18 Br1 Cl2 N1 O3'
_chemical_name_systematic        
3-(4-Bromophenyl)-2-(3,4-dichlorophenyl)-3-hydroxy-2-azaspiro[4.5]decane-1,6-dione
_symmetry_cell_setting           orthorhombic
_symmetry_space_group_name_H-M   'P 21 21 21'
_symmetry_Int_Tables_number      19
_space_group_name_Hall           'P 2ac 2ab'
loop_
_symmetry_equiv_pos_site_id
_symmetry_equiv_pos_as_xyz
1 x,y,z
2 1/2-x,-y,1/2+z
3 -x,1/2+y,1/2-z
4 1/2+x,1/2-y,-z
_cell_length_a                   6.7094(15)
_cell_length_b                   15.687(4)
_cell_length_c                   19.052(4)
_cell_angle_alpha                90
_cell_angle_beta                 90
_cell_angle_gamma                90
_cell_volume                     2005.23
_exptl_crystal_colour            colorless
_exptl_crystal_description       block
_cell_formula_units_Z            4
loop_
_atom_site_label
_atom_site_type_symbol
_atom_site_fract_x
_atom_site_fract_y
_atom_site_fract_z
Br1 Br 0.50392(6) 0.24660(2) 0.07290(2)
Cl1 Cl 0.05848(14) 0.69284(5) 0.06870(4)
Cl2 Cl 0.49549(13) 0.75903(5) 0.10267(4)
O1 O -0.2090(3) 0.46870(16) 0.24972(13)
O2 O 0.1062(4) 0.61325(14) 0.40252(11)
O3 O -0.3854(4) 0.48872(15) 0.38563(13)
N1 N 0.0769(4) 0.53113(15) 0.30292(12)
C1 C -0.0195(5) 0.45124(17) 0.27970(15)
C2 C -0.0357(5) 0.40305(17) 0.34988(14)
H1 H -0.1570 0.3694 0.3510
H2 H 0.0770 0.3650 0.3556
C3 C -0.0381(5) 0.46939(18) 0.40865(14)
C4 C 0.0574(5) 0.54785(17) 0.37356(15)
C5 C 0.1046(5) 0.40373(18) 0.22648(15)
C6 C 0.0204(5) 0.3609(2) 0.16993(15)
H3 H -0.1163 0.3646 0.1626
C7 C 0.1355(5) 0.3127(2) 0.12407(17)
H4 H 0.0769 0.2833 0.0870
C8 C 0.3382(5) 0.3094(2) 0.13484(16)
C9 C 0.4262(5) 0.3510(2) 0.19108(16)
H5 H 0.5631 0.3475 0.1980
C10 C 0.3102(5) 0.3975(2) 0.23656(16)
H6 H 0.3692 0.4251 0.2744
C11 C 0.1700(5) 0.58930(18) 0.25545(15)
C12 C 0.0762(5) 0.61290(18) 0.19335(15)
H7 H -0.0518 0.5937 0.1834
C13 C 0.1756(5) 0.66537(19) 0.14653(15)
C14 C 0.3662(5) 0.69433(19) 0.16108(15)
C15 C 0.4587(5) 0.67108(18) 0.22343(16)
H8 H 0.5863 0.6907 0.2335
C16 C 0.3603(5) 0.6185(2) 0.27064(16)
H9 H 0.4219 0.6029 0.3124
C17 C -0.2516(5) 0.4959(2) 0.42855(18)
C18 C -0.2854(5) 0.5354(3) 0.49880(17)
H10 H -0.4254 0.5300 0.5107
H11 H -0.2549 0.5957 0.4959
C19 C -0.1609(6) 0.4960(3) 0.55798(19)
H12 H -0.1793 0.5286 0.6007
H13 H -0.2054 0.4381 0.5667
C20 C 0.0580(6) 0.4954(2) 0.53814(16)
H14 H 0.1362 0.4721 0.5764
H15 H 0.1029 0.5532 0.5293
C21 C 0.0870(5) 0.4410(2) 0.47208(15)
H16 H 0.0534 0.3824 0.4832
H17 H 0.2267 0.4424 0.4591
H18 H -0.286(7) 0.482(3) 0.283(3)
loop_
_geom_bond_atom_site_label_1
_geom_bond_atom_site_label_2
_geom_bond_site_symmetry_1
_geom_bond_site_symmetry_2
Br1 C8 1_555 1_555
Cl1 C13 1_555 1_555
Cl2 C14 1_555 1_555
O1 C1 1_555 1_555
O2 C4 1_555 1_555
O3 C17 1_555 1_555
N1 C1 1_555 1_555
C1 C2 1_555 1_555
C2 H1 1_555 1_555
H2 C2 1_555 1_555
C3 C2 1_555 1_555
C4 N1 1_555 1_555
C5 C1 1_555 1_555
C6 C5 1_555 1_555
H3 C6 1_555 1_555
C7 C6 1_555 1_555
H4 C7 1_555 1_555
C8 C7 1_555 1_555
C9 C8 1_555 1_555
H5 C9 1_555 1_555
C10 C5 1_555 1_555
H6 C10 1_555 1_555
C11 N1 1_555 1_555
C12 C11 1_555 1_555
H7 C12 1_555 1_555
C13 C12 1_555 1_555
C14 C13 1_555 1_555
C15 C14 1_555 1_555
H8 C15 1_555 1_555
C16 C11 1_555 1_555
H9 C16 1_555 1_555
C17 C3 1_555 1_555
C18 C17 1_555 1_555
H10 C18 1_555 1_555
H11 C18 1_555 1_555
C19 C18 1_555 1_555
H12 C19 1_555 1_555
H13 C19 1_555 1_555
C20 C19 1_555 1_555
H14 C20 1_555 1_555
H15 C20 1_555 1_555
C21 C3 1_555 1_555
H16 C21 1_555 1_555
H17 C21 1_555 1_555
H18 O1 1_555 1_555
C3 C4 1_555 1_555
C9 C10 1_555 1_555
C15 C16 1_555 1_555
C20 C21 1_555 1_555

#END
