
#######################################################################
#
#                 Cambridge Crystallographic Data Centre
#                                CCDC 
#
#######################################################################
#
# If this CIF has been generated from an entry in the Cambridge 
# Structural Database, then it will include bibliographic, chemical, 
# crystal, experimental, refinement or atomic coordinate data resulting 
# from the CCDC's data processing and validation procedures.
#
#######################################################################

data_QORGIN
_chemical_formula_moiety         'C14 H10 O2 Se1'
_chemical_name_systematic        bis(o-Formylphenyl)selenide
_symmetry_cell_setting           monoclinic
_symmetry_space_group_name_H-M   'P 2/c'
_symmetry_Int_Tables_number      13
_space_group_name_Hall           '-P 2yc'
loop_
_symmetry_equiv_pos_site_id
_symmetry_equiv_pos_as_xyz
1 x,y,z
2 x,-y,1/2+z
3 -x,-y,-z
4 -x,y,1/2-z
_cell_length_a                   8.0170(6)
_cell_length_b                   8.4514(6)
_cell_length_c                   17.5289(12)
_cell_angle_alpha                90
_cell_angle_beta                 93.6860(10)
_cell_angle_gamma                90
_cell_volume                     1185.21
_exptl_crystal_colour            yellow
_exptl_crystal_description       'square block'
_chemical_melting_point          '124-126 deg.C'
_cell_formula_units_Z            4
loop_
_atom_site_label
_atom_site_type_symbol
_atom_site_fract_x
_atom_site_fract_y
_atom_site_fract_z
Se1 Se 0.42999(3) 0.82991(3) 0.076738(13)
O1 O 0.5313(2) 0.6677(2) -0.05209(11)
O2 O 0.2342(4) 0.5134(2) 0.24987(13)
C1 C 0.2286(2) 0.7666(3) 0.01956(12)
C2 C 0.0722(3) 0.8129(3) 0.04171(13)
H1 H 0.0644 0.8765 0.0853
C3 C -0.0722(3) 0.7660(3) -0.00006(13)
H2 H -0.1768 0.7990 0.0154
C4 C -0.0648(3) 0.6717(3) -0.06395(14)
H3 H -0.1633 0.6399 -0.0917
C5 C 0.0894(3) 0.6246(3) -0.08648(13)
H4 H 0.0954 0.5599 -0.1298
C6 C 0.2366(3) 0.6717(3) -0.04582(12)
C7 C 0.3949(3) 0.6200(3) -0.07492(14)
H5 H 0.3901 0.5441 -0.1142
C8 C 0.3298(2) 0.8948(3) 0.16936(12)
C9 C 0.3182(3) 1.0545(3) 0.18542(14)
H6 H 0.3540 1.1292 0.1503
C10 C 0.2543(3) 1.1052(3) 0.25259(15)
H7 H 0.2463 1.2140 0.2627
C11 C 0.2022(3) 0.9967(3) 0.30495(14)
H8 H 0.1600 1.0317 0.3508
C12 C 0.2123(3) 0.8378(3) 0.28998(13)
H9 H 0.1758 0.7644 0.3256
C13 C 0.2763(3) 0.7837(3) 0.22221(12)
C14 C 0.2831(3) 0.6129(3) 0.20785(15)
H10 H 0.3289 0.5790 0.1626
loop_
_geom_bond_atom_site_label_1
_geom_bond_atom_site_label_2
_geom_bond_site_symmetry_1
_geom_bond_site_symmetry_2
Se1 C1 1_555 1_555
O1 C7 1_555 1_555
O2 C14 1_555 1_555
C1 C2 1_555 1_555
C2 H1 1_555 1_555
C3 C2 1_555 1_555
H2 C3 1_555 1_555
C4 C3 1_555 1_555
H3 C4 1_555 1_555
C5 C4 1_555 1_555
H4 C5 1_555 1_555
C6 C1 1_555 1_555
C7 C6 1_555 1_555
H5 C7 1_555 1_555
C8 Se1 1_555 1_555
C9 C8 1_555 1_555
H6 C9 1_555 1_555
C10 C9 1_555 1_555
H7 C10 1_555 1_555
C11 C10 1_555 1_555
H8 C11 1_555 1_555
C12 C11 1_555 1_555
H9 C12 1_555 1_555
C13 C8 1_555 1_555
C14 C13 1_555 1_555
H10 C14 1_555 1_555
C5 C6 1_555 1_555
C12 C13 1_555 1_555

#END
