
#######################################################################
#
#                 Cambridge Crystallographic Data Centre
#                                CCDC 
#
#######################################################################
#
# If this CIF has been generated from an entry in the Cambridge 
# Structural Database, then it will include bibliographic, chemical, 
# crystal, experimental, refinement or atomic coordinate data resulting 
# from the CCDC's data processing and validation procedures.
#
#######################################################################

data_QORGAH
_chemical_formula_moiety         'C18 H28 Br1 N1'
_chemical_name_systematic        
6-Bromo-4-(2,2-dimethylpropyl)-4-methyl-2-propyl-1,2,3,4-tetrahydroquinoline
_symmetry_cell_setting           monoclinic
_symmetry_space_group_name_H-M   'P 21/n'
_symmetry_Int_Tables_number      14
_space_group_name_Hall           '-P 2yn'
loop_
_symmetry_equiv_pos_site_id
_symmetry_equiv_pos_as_xyz
1 x,y,z
2 1/2-x,1/2+y,1/2-z
3 -x,-y,-z
4 1/2+x,1/2-y,1/2+z
_cell_length_a                   9.953(2)
_cell_length_b                   11.644(2)
_cell_length_c                   15.433(3)
_cell_angle_alpha                90
_cell_angle_beta                 102.32(3)
_cell_angle_gamma                90
_cell_volume                     1747.38
_cell_formula_units_Z            4
loop_
_atom_site_label
_atom_site_type_symbol
_atom_site_fract_x
_atom_site_fract_y
_atom_site_fract_z
Br1 Br 0.37118(8) -0.19596(6) -0.00470(4)
C1 C 0.0857(8) 0.0278(6) 0.1291(4)
C2 C 0.0468(7) -0.0805(5) 0.0986(4)
H1 H -0.0386 -0.1085 0.1039
C3 C 0.1314(7) -0.1486(5) 0.0603(4)
H2 H 0.1054 -0.2225 0.0407
C4 C 0.2583(7) -0.1023(5) 0.0519(4)
C5 C 0.3016(7) 0.0024(5) 0.0824(4)
H3 H 0.3869 0.0292 0.0760
C6 C 0.2188(7) 0.0705(5) 0.1235(4)
C7 C 0.2616(5) 0.1919(5) 0.1545(3)
C8 C 0.1666(6) 0.2317(4) 0.2176(3)
H4 H 0.1932 0.1906 0.2733
H5 H 0.1825 0.3128 0.2301
C9 C 0.0108(6) 0.2130(6) 0.1808(3)
H6 H -0.0160 0.2534 0.1240
C10 C -0.0832(7) 0.2553(5) 0.2438(4)
H7 H -0.1735 0.2213 0.2242
H8 H -0.0455 0.2266 0.3030
C11 C -0.0992(7) 0.3767(5) 0.2489(4)
H9 H -0.1302 0.4070 0.1895
H10 H -0.0104 0.4108 0.2739
C12 C -0.2012(6) 0.4117(5) 0.3052(4)
H11 H -0.2918 0.3867 0.2768
H12 H -0.2006 0.4937 0.3116
H13 H -0.1753 0.3767 0.3627
C13 C 0.4126(5) 0.1895(5) 0.2084(3)
H14 H 0.4188 0.1404 0.2591
H15 H 0.4406 0.2658 0.2278
H16 H 0.4716 0.1608 0.1716
C14 C 0.2441(5) 0.2665(4) 0.0670(3)
H17 H 0.2991 0.2288 0.0305
H18 H 0.1490 0.2574 0.0363
C15 C 0.2760(7) 0.3967(5) 0.0631(5)
C16 C 0.4219(6) 0.4320(4) 0.1114(4)
H19 H 0.4361 0.5119 0.1008
H20 H 0.4884 0.3869 0.0896
H21 H 0.4323 0.4192 0.1739
C17 C 0.1735(6) 0.4698(4) 0.0973(4)
H22 H 0.1881 0.4617 0.1605
H23 H 0.0819 0.4456 0.0704
H24 H 0.1853 0.5488 0.0826
C18 C 0.2577(6) 0.4232(4) -0.0381(3)
H25 H 0.1639 0.4095 -0.0675
H26 H 0.3172 0.3743 -0.0631
H27 H 0.2807 0.5020 -0.0459
N1 N -0.0076(5) 0.0910(4) 0.1651(3)
H28 H -0.0774 0.0570 0.1782
loop_
_geom_bond_atom_site_label_1
_geom_bond_atom_site_label_2
_geom_bond_site_symmetry_1
_geom_bond_site_symmetry_2
Br1 C4 1_555 1_555
C1 C2 1_555 1_555
C2 H1 1_555 1_555
C3 C2 1_555 1_555
H2 C3 1_555 1_555
C4 C3 1_555 1_555
C5 C4 1_555 1_555
H3 C5 1_555 1_555
C6 C1 1_555 1_555
C7 C6 1_555 1_555
C8 C7 1_555 1_555
H4 C8 1_555 1_555
H5 C8 1_555 1_555
C9 C8 1_555 1_555
H6 C9 1_555 1_555
C10 C9 1_555 1_555
H7 C10 1_555 1_555
H8 C10 1_555 1_555
C11 C10 1_555 1_555
H9 C11 1_555 1_555
H10 C11 1_555 1_555
C12 C11 1_555 1_555
H11 C12 1_555 1_555
H12 C12 1_555 1_555
H13 C12 1_555 1_555
C13 C7 1_555 1_555
H14 C13 1_555 1_555
H15 C13 1_555 1_555
H16 C13 1_555 1_555
C14 C7 1_555 1_555
H17 C14 1_555 1_555
H18 C14 1_555 1_555
C15 C14 1_555 1_555
C16 C15 1_555 1_555
H19 C16 1_555 1_555
H20 C16 1_555 1_555
H21 C16 1_555 1_555
C17 C15 1_555 1_555
H22 C17 1_555 1_555
H23 C17 1_555 1_555
H24 C17 1_555 1_555
C18 C15 1_555 1_555
H25 C18 1_555 1_555
H26 C18 1_555 1_555
H27 C18 1_555 1_555
N1 C1 1_555 1_555
H28 N1 1_555 1_555
C5 C6 1_555 1_555
C9 N1 1_555 1_555

#END
