
#######################################################################
#
#                 Cambridge Crystallographic Data Centre
#                                CCDC 
#
#######################################################################
#
# If this CIF has been generated from an entry in the Cambridge 
# Structural Database, then it will include bibliographic, chemical, 
# crystal, experimental, refinement or atomic coordinate data resulting 
# from the CCDC's data processing and validation procedures.
#
#######################################################################

data_QORHEM
_chemical_formula_moiety         'C25 H30 N4 O2'
_chemical_name_systematic        
'Methyl 9-butyl-3-(t-butylamino)-2-phenyl-9H-imidazo[1,2-a]benzimidazole-6-carboxylate'
_symmetry_cell_setting           monoclinic
_symmetry_space_group_name_H-M   'P 21'
_symmetry_Int_Tables_number      4
_space_group_name_Hall           'P 2yb'
loop_
_symmetry_equiv_pos_site_id
_symmetry_equiv_pos_as_xyz
1 x,y,z
2 -x,1/2+y,-z
_cell_length_a                   8.6381(8)
_cell_length_b                   10.9354(10)
_cell_length_c                   12.3989(12)
_cell_angle_alpha                90
_cell_angle_beta                 100.365(2)
_cell_angle_gamma                90
_cell_volume                     1152.1
_exptl_crystal_colour            'pale yellow'
_cell_formula_units_Z            2
loop_
_atom_site_label
_atom_site_type_symbol
_atom_site_fract_x
_atom_site_fract_y
_atom_site_fract_z
O1 O 0.4713(3) 0.5181(2) 0.4256(2)
O2 O 0.6427(3) 0.3769(2) 0.5035(2)
N1 N 0.2907(3) 0.7277(2) 0.75677(19)
N2 N 0.4538(3) 0.6659(3) 0.9070(2)
N3 N 0.2597(3) 0.8319(2) 0.90855(19)
N4 N 0.0797(3) 0.8197(2) 0.61608(17)
C1 C 0.5025(5) 0.4825(5) 0.3197(3)
H1 H 0.6140 0.4958 0.3173
H2 H 0.4377 0.5316 0.2627
H3 H 0.4770 0.3957 0.3071
C2 C 0.5510(4) 0.4587(3) 0.5115(3)
C3 C 0.5200(4) 0.5071(3) 0.6169(3)
C4 C 0.4055(3) 0.5962(3) 0.6209(3)
H4 H 0.3407 0.6256 0.5559
C5 C 0.3900(3) 0.6400(3) 0.7225(2)
C6 C 0.1680(3) 0.8118(3) 0.7222(2)
C7 C 0.1531(3) 0.8753(3) 0.8161(2)
C8 C 0.0473(3) 0.9770(3) 0.8291(2)
C9 C -0.0290(4) 1.0453(3) 0.7419(3)
H5 H -0.0155 1.0247 0.6697
C10 C -0.1242(4) 1.1428(3) 0.7570(3)
H6 H -0.1759 1.1880 0.6955
C11 C -0.1447(4) 1.1748(4) 0.8610(3)
H7 H -0.2090 1.2426 0.8719
C12 C 0.6140(4) 0.4659(3) 0.7133(3)
H8 H 0.6896 0.4039 0.7087
C13 C 0.6018(4) 0.5115(3) 0.8158(3)
H9 H 0.6672 0.4827 0.8807
C14 C 0.4899(4) 0.6009(3) 0.8188(3)
C15 C 0.3349(4) 0.7464(3) 0.8671(3)
C16 C 0.0238(4) 1.0100(4) 0.9332(3)
H10 H 0.0739 0.9644 0.9949
C17 C -0.0706(5) 1.1073(4) 0.9485(3)
H11 H -0.0847 1.1280 1.0205
C18 C -0.0597(4) 0.7382(3) 0.5854(3)
C19 C -0.1397(6) 0.7798(5) 0.4718(4)
H12 H -0.2314 0.7280 0.4461
H13 H -0.0654 0.7733 0.4209
H14 H -0.1736 0.8650 0.4752
C20 C -0.0146(5) 0.6061(3) 0.5803(4)
H15 H 0.0379 0.5790 0.6531
H16 H 0.0570 0.5962 0.5280
H17 H -0.1094 0.5568 0.5566
C21 C -0.1705(5) 0.7551(5) 0.6642(4)
H18 H -0.1204 0.7262 0.7370
H19 H -0.2669 0.7082 0.6391
H20 H -0.1966 0.8420 0.6682
C22 C 0.5389(4) 0.6673(4) 1.0201(3)
H21 H 0.5983 0.5899 1.0358
H22 H 0.4628 0.6731 1.0708
C23 C 0.6561(5) 0.7783(4) 1.0399(3)
H23 H 0.7391 0.7672 0.9951
H24 H 0.5985 0.8545 1.0156
C24 C 0.7302(5) 0.7901(4) 1.1566(3)
H25 H 0.7870 0.7136 1.1812
H26 H 0.6474 0.8024 1.2014
C25 C 0.8422(6) 0.8945(4) 1.1740(3)
H27 H 0.9272 0.8805 1.1327
H28 H 0.8865 0.9016 1.2523
H29 H 0.7866 0.9702 1.1486
H30 H 0.1651 0.8141 0.5629
loop_
_geom_bond_atom_site_label_1
_geom_bond_atom_site_label_2
_geom_bond_site_symmetry_1
_geom_bond_site_symmetry_2
O1 C1 1_555 1_555
O2 C2 1_555 1_555
N1 C5 1_555 1_555
N2 C14 1_555 1_555
N3 C7 1_555 1_555
N4 C6 1_555 1_555
C1 H1 1_555 1_555
H2 C1 1_555 1_555
H3 C1 1_555 1_555
C2 O1 1_555 1_555
C3 C2 1_555 1_555
C4 C3 1_555 1_555
H4 C4 1_555 1_555
C5 C4 1_555 1_555
C6 N1 1_555 1_555
C7 C6 1_555 1_555
C8 C7 1_555 1_555
C9 C8 1_555 1_555
H5 C9 1_555 1_555
C10 C9 1_555 1_555
H6 C10 1_555 1_555
C11 C10 1_555 1_555
H7 C11 1_555 1_555
C12 C3 1_555 1_555
H8 C12 1_555 1_555
C13 C12 1_555 1_555
H9 C13 1_555 1_555
C14 C5 1_555 1_555
C15 N1 1_555 1_555
C16 C8 1_555 1_555
H10 C16 1_555 1_555
C17 C11 1_555 1_555
H11 C17 1_555 1_555
C18 N4 1_555 1_555
C19 C18 1_555 1_555
H12 C19 1_555 1_555
H13 C19 1_555 1_555
H14 C19 1_555 1_555
C20 C18 1_555 1_555
H15 C20 1_555 1_555
H16 C20 1_555 1_555
H17 C20 1_555 1_555
C21 C18 1_555 1_555
H18 C21 1_555 1_555
H19 C21 1_555 1_555
H20 C21 1_555 1_555
C22 N2 1_555 1_555
H21 C22 1_555 1_555
H22 C22 1_555 1_555
C23 C22 1_555 1_555
H23 C23 1_555 1_555
H24 C23 1_555 1_555
C24 C23 1_555 1_555
H25 C24 1_555 1_555
H26 C24 1_555 1_555
C25 C24 1_555 1_555
H27 C25 1_555 1_555
H28 C25 1_555 1_555
H29 C25 1_555 1_555
H30 N4 1_555 1_555
N2 C15 1_555 1_555
N3 C15 1_555 1_555
C13 C14 1_555 1_555
C16 C17 1_555 1_555

#END
