
#######################################################################
#
#                 Cambridge Crystallographic Data Centre
#                                CCDC 
#
#######################################################################
#
# If this CIF has been generated from an entry in the Cambridge 
# Structural Database, then it will include bibliographic, chemical, 
# crystal, experimental, refinement or atomic coordinate data resulting 
# from the CCDC's data processing and validation procedures.
#
#######################################################################

data_QORZOO
_chemical_formula_moiety         'C22 H18 N2'
_chemical_name_systematic        1-Benzyl-2,4-diphenyl-1H-imidazole
_symmetry_cell_setting           monoclinic
_symmetry_space_group_name_H-M   'P 21/n'
_symmetry_Int_Tables_number      14
_space_group_name_Hall           '-P 2yn'
loop_
_symmetry_equiv_pos_site_id
_symmetry_equiv_pos_as_xyz
1 x,y,z
2 1/2-x,1/2+y,1/2-z
3 -x,-y,-z
4 1/2+x,1/2-y,1/2+z
_cell_length_a                   9.7108(3)
_cell_length_b                   11.3687(3)
_cell_length_c                   14.8851(5)
_cell_angle_alpha                90
_cell_angle_beta                 97.059(3)
_cell_angle_gamma                90
_cell_volume                     1630.85
_exptl_crystal_colour            colorless
_exptl_crystal_description       block
_cell_formula_units_Z            4
loop_
_atom_site_label
_atom_site_type_symbol
_atom_site_fract_x
_atom_site_fract_y
_atom_site_fract_z
N1 N 0.52548(15) 0.49763(13) 0.84047(11)
N2 N 0.53970(15) 0.35554(13) 0.94286(11)
C1 C 0.65508(18) 0.50050(16) 0.88901(13)
C2 C 0.45764(18) 0.41071(16) 0.87420(13)
C3 C 0.66535(19) 0.41310(16) 0.95204(13)
H1 H 0.7424 0.3957 0.9934
C4 C 0.75813(18) 0.58999(16) 0.87240(13)
C5 C 0.86572(19) 0.62128(17) 0.93910(14)
H2 H 0.8744 0.5833 0.9948
C6 C 0.9599(2) 0.70846(19) 0.92315(15)
H3 H 1.0317 0.7279 0.9679
C7 C 0.9470(2) 0.76626(18) 0.84100(16)
H4 H 1.0095 0.8252 0.8305
C8 C 0.8411(2) 0.73643(18) 0.77441(16)
H5 H 0.8321 0.7756 0.7191
C9 C 0.74783(19) 0.64823(17) 0.78959(14)
H6 H 0.6777 0.6278 0.7439
C10 C 0.31056(18) 0.38502(16) 0.84457(13)
C11 C 0.22116(19) 0.48083(17) 0.82560(13)
H7 H 0.2563 0.5570 0.8303
C12 C 0.0808(2) 0.46295(18) 0.79989(13)
H8 H 0.0221 0.5272 0.7880
C13 C 0.0276(2) 0.35051(18) 0.79188(15)
H9 H -0.0671 0.3389 0.7760
C14 C 0.1155(2) 0.25508(19) 0.80753(15)
H10 H 0.0800 0.1792 0.8007
C15 C 0.2563(2) 0.27177(17) 0.83337(14)
H11 H 0.3148 0.2071 0.8433
C16 C 0.50574(19) 0.26303(16) 1.00546(14)
H12 H 0.4108 0.2375 0.9885
H13 H 0.5125 0.2949 1.0663
C17 C 0.60152(19) 0.15856(16) 1.00474(13)
C18 C 0.6880(2) 0.12768(17) 1.08200(14)
H14 H 0.6867 0.1715 1.1347
C19 C 0.7768(2) 0.03207(18) 1.08172(16)
H15 H 0.8338 0.0116 1.1342
C20 C 0.7806(2) -0.03233(19) 1.00400(17)
H16 H 0.8410 -0.0958 1.0036
C21 C 0.6948(2) -0.0025(2) 0.92675(16)
H17 H 0.6971 -0.0461 0.8741
C22 C 0.6052(2) 0.09194(19) 0.92712(14)
H18 H 0.5469 0.1109 0.8748
H19? H 0.4945 0.5435 0.7966
loop_
_geom_bond_atom_site_label_1
_geom_bond_atom_site_label_2
_geom_bond_site_symmetry_1
_geom_bond_site_symmetry_2
N1 C1 1_555 1_555
N2 C2 1_555 1_555
C1 C3 1_555 1_555
C2 N1 1_555 1_555
C3 N2 1_555 1_555
H1 C3 1_555 1_555
C4 C1 1_555 1_555
C5 C4 1_555 1_555
H2 C5 1_555 1_555
C6 C5 1_555 1_555
H3 C6 1_555 1_555
C7 C6 1_555 1_555
H4 C7 1_555 1_555
C8 C7 1_555 1_555
H5 C8 1_555 1_555
C9 C4 1_555 1_555
H6 C9 1_555 1_555
C10 C2 1_555 1_555
C11 C10 1_555 1_555
H7 C11 1_555 1_555
C12 C11 1_555 1_555
H8 C12 1_555 1_555
C13 C12 1_555 1_555
H9 C13 1_555 1_555
C14 C13 1_555 1_555
H10 C14 1_555 1_555
C15 C10 1_555 1_555
H11 C15 1_555 1_555
C16 N2 1_555 1_555
H12 C16 1_555 1_555
H13 C16 1_555 1_555
C17 C16 1_555 1_555
C18 C17 1_555 1_555
H14 C18 1_555 1_555
C19 C18 1_555 1_555
H15 C19 1_555 1_555
C20 C19 1_555 1_555
H16 C20 1_555 1_555
C21 C20 1_555 1_555
H17 C21 1_555 1_555
C22 C17 1_555 1_555
H18 C22 1_555 1_555
C8 C9 1_555 1_555
C14 C15 1_555 1_555
C21 C22 1_555 1_555

#END
