
#######################################################################
#
#                 Cambridge Crystallographic Data Centre
#                                CCDC 
#
#######################################################################
#
# If this CIF has been generated from an entry in the Cambridge 
# Structural Database, then it will include bibliographic, chemical, 
# crystal, experimental, refinement or atomic coordinate data resulting 
# from the CCDC's data processing and validation procedures.
#
#######################################################################

data_QOSBEH
_chemical_formula_moiety         'C24 H21 N3 O3'
_chemical_name_systematic        
4-(((3-hydroxy-4-methoxyphenyl)amino)(phenyl)methylene)-5-methyl-2-phenyl-2,4-dihydro-3H-pyrazol-3-one
_symmetry_cell_setting           triclinic
_symmetry_space_group_name_H-M   'P -1'
_symmetry_Int_Tables_number      2
_space_group_name_Hall           '-P 1'
loop_
_symmetry_equiv_pos_site_id
_symmetry_equiv_pos_as_xyz
1 x,y,z
2 -x,-y,-z
_cell_length_a                   8.8111(9)
_cell_length_b                   11.4716(12)
_cell_length_c                   11.4947(14)
_cell_angle_alpha                115.376(2)
_cell_angle_beta                 99.5470(10)
_cell_angle_gamma                97.6320(10)
_cell_volume                     1007.75
_exptl_crystal_colour            'light yellow'
_exptl_crystal_description       block
_cell_formula_units_Z            2
loop_
_atom_site_label
_atom_site_type_symbol
_atom_site_fract_x
_atom_site_fract_y
_atom_site_fract_z
N1 N 0.1844(3) 0.6769(2) 0.0593(2)
N2 N 0.3294(3) 0.6530(3) 0.0303(2)
N3 N 0.3087(3) 0.8097(2) 0.4634(2)
H1 H 0.2262 0.8261 0.4271
O1 O 0.0892(3) 0.7661(2) 0.2495(2)
O2 O 0.4085(3) 0.6772(2) 0.8081(2)
H2 H 0.4027 0.7007 0.8851
O3 O 0.3236(3) 0.8874(2) 0.9766(2)
C1 C 0.1954(4) 0.7284(3) 0.1933(3)
C2 C 0.3554(4) 0.7290(3) 0.2513(3)
C3 C 0.4286(4) 0.6839(3) 0.1426(3)
C4 C 0.5949(4) 0.6714(3) 0.1395(3)
H3 H 0.6102 0.5926 0.1453
H4 H 0.6667 0.7474 0.2134
H5 H 0.6144 0.6664 0.0580
C5 C 0.0537(4) 0.6442(3) -0.0470(3)
C6 C -0.0762(4) 0.6993(4) -0.0249(4)
H6 H -0.0785 0.7575 0.0609
C7 C -0.2020(4) 0.6673(4) -0.1307(4)
H7 H -0.2895 0.7035 -0.1152
C8 C -0.2001(4) 0.5834(4) -0.2576(4)
H8 H -0.2838 0.5645 -0.3286
C9 C -0.0728(5) 0.5274(4) -0.2786(4)
H9 H -0.0714 0.4689 -0.3646
C10 C 0.0535(4) 0.5562(3) -0.1743(3)
H10 H 0.1383 0.5162 -0.1899
C11 C 0.4066(4) 0.7650(3) 0.3856(3)
C12 C 0.5667(3) 0.7613(3) 0.4466(3)
C13 C 0.6718(4) 0.8770(3) 0.5444(3)
H11 H 0.6402 0.9569 0.5746
C14 C 0.8222(4) 0.8737(4) 0.5967(4)
H12 H 0.8925 0.9517 0.6611
C15 C 0.8696(4) 0.7556(4) 0.5546(4)
H13 H 0.9716 0.7539 0.5901
C16 C 0.7657(4) 0.6406(3) 0.4600(3)
H14 H 0.7969 0.5606 0.4328
C17 C 0.6160(4) 0.6425(3) 0.4051(3)
H15 H 0.5471 0.5642 0.3398
C18 C 0.3205(4) 0.8343(3) 0.5975(3)
C19 C 0.3642(3) 0.7443(3) 0.6406(3)
H16 H 0.3942 0.6699 0.5837
C20 C 0.3629(3) 0.7657(3) 0.7676(3)
C21 C 0.3174(4) 0.8767(3) 0.8532(3)
C22 C 0.2720(4) 0.9642(3) 0.8088(3)
H17 H 0.2396 1.0375 0.8648
C23 C 0.2745(4) 0.9432(3) 0.6813(3)
H18 H 0.2450 1.0031 0.6524
C24 C 0.2642(5) 0.9881(4) 1.0662(3)
H19 H 0.3255 1.0732 1.0866
H20 H 0.2706 0.9799 1.1465
H21 H 0.1559 0.9798 1.0266
loop_
_geom_bond_atom_site_label_1
_geom_bond_atom_site_label_2
_geom_bond_site_symmetry_1
_geom_bond_site_symmetry_2
N1 N2 1_555 1_555
N2 C3 1_555 1_555
N3 H1 1_555 1_555
O1 C1 1_555 1_555
O2 H2 1_555 1_555
O3 C21 1_555 1_555
C1 N1 1_555 1_555
C2 C1 1_555 1_555
C3 C2 1_555 1_555
C4 C3 1_555 1_555
H3 C4 1_555 1_555
H4 C4 1_555 1_555
H5 C4 1_555 1_555
C5 N1 1_555 1_555
C6 C5 1_555 1_555
H6 C6 1_555 1_555
C7 C6 1_555 1_555
H7 C7 1_555 1_555
C8 C7 1_555 1_555
H8 C8 1_555 1_555
C9 C8 1_555 1_555
H9 C9 1_555 1_555
C10 C5 1_555 1_555
H10 C10 1_555 1_555
C11 N3 1_555 1_555
C12 C11 1_555 1_555
C13 C12 1_555 1_555
H11 C13 1_555 1_555
C14 C13 1_555 1_555
H12 C14 1_555 1_555
C15 C14 1_555 1_555
H13 C15 1_555 1_555
C16 C15 1_555 1_555
H14 C16 1_555 1_555
C17 C12 1_555 1_555
H15 C17 1_555 1_555
C18 N3 1_555 1_555
C19 C18 1_555 1_555
H16 C19 1_555 1_555
C20 O2 1_555 1_555
C21 C20 1_555 1_555
C22 C21 1_555 1_555
H17 C22 1_555 1_555
C23 C18 1_555 1_555
H18 C23 1_555 1_555
C24 O3 1_555 1_555
H19 C24 1_555 1_555
H20 C24 1_555 1_555
H21 C24 1_555 1_555
C2 C11 1_555 1_555
C9 C10 1_555 1_555
C16 C17 1_555 1_555
C19 C20 1_555 1_555
C22 C23 1_555 1_555

#END
