
#######################################################################
#
#                 Cambridge Crystallographic Data Centre
#                                CCDC 
#
#######################################################################
#
# If this CIF has been generated from an entry in the Cambridge 
# Structural Database, then it will include bibliographic, chemical, 
# crystal, experimental, refinement or atomic coordinate data resulting 
# from the CCDC's data processing and validation procedures.
#
#######################################################################

data_QOSCAC
_chemical_formula_moiety         'C21 H30 O3 Si1'
_chemical_name_systematic        
9-(Tri-isopropylsilyl)-13-oxatetracyclo(5.3.3.0^4,11^.0^8,11^)trideca-3,8-diene-2,10-dione
_symmetry_cell_setting           triclinic
_symmetry_space_group_name_H-M   'P -1'
_symmetry_Int_Tables_number      2
_space_group_name_Hall           '-P 1'
loop_
_symmetry_equiv_pos_site_id
_symmetry_equiv_pos_as_xyz
1 x,y,z
2 -x,-y,-z
_cell_length_a                   7.8074(3)
_cell_length_b                   14.7100(6)
_cell_length_c                   18.4775(8)
_cell_angle_alpha                104.428(2)
_cell_angle_beta                 94.084(3)
_cell_angle_gamma                92.151(3)
_cell_volume                     2046.58
_cell_formula_units_Z            4
loop_
_atom_site_label
_atom_site_type_symbol
_atom_site_fract_x
_atom_site_fract_y
_atom_site_fract_z
Si1 Si 0.0682(1) 0.8340(1) 0.3180(1)
O1 O -0.2097(3) 0.7883(1) 0.0659(1)
O2 O 0.3001(3) 0.6629(2) 0.2290(1)
O3 O 0.1881(4) 0.4659(2) 0.1040(2)
C1 C 0.0460(3) 0.7512(2) 0.2211(1)
C2 C 0.1756(3) 0.6800(2) 0.1934(2)
C3 C 0.1252(4) 0.6288(2) 0.1100(2)
C4 C 0.0822(5) 0.5236(2) 0.1012(2)
C5 C -0.1045(5) 0.5096(2) 0.0913(2)
C6 C -0.1790(4) 0.5883(2) 0.0866(2)
C7 C -0.3613(4) 0.6129(3) 0.0819(2)
C8 C -0.3874(4) 0.7087(3) 0.1372(2)
C9 C -0.2391(3) 0.7800(2) 0.1412(1)
C10 C -0.0750(3) 0.7411(2) 0.1643(1)
C11 C -0.0453(3) 0.6679(2) 0.0936(1)
C12 C -0.0780(4) 0.7260(2) 0.0364(2)
C13 C -0.0777(4) 0.9332(2) 0.3153(2)
C14 C -0.0342(5) 0.9914(2) 0.2603(2)
C15 C -0.0982(6) 0.9983(3) 0.3935(2)
C16 C 0.3038(4) 0.8708(2) 0.3415(2)
C17 C 0.3837(4) 0.9135(3) 0.2841(2)
C18 C 0.3480(6) 0.9297(4) 0.4208(3)
C19 C -0.0132(5) 0.7680(3) 0.3851(2)
C20 C -0.2047(7) 0.7375(4) 0.3668(3)
C21 C 0.0919(8) 0.6838(4) 0.3893(3)
H1 H 0.2116 0.6400 0.0767
H2 H -0.1643 0.4528 0.0887
H3 H -0.4337 0.5642 0.0934
H4 H -0.3959 0.6161 0.0311
H5 H -0.4934 0.7333 0.1216
H6 H -0.3984 0.6991 0.1868
H7 H -0.2583 0.8411 0.1748
H8 H 0.0259 0.7617 0.0317
H9 H -0.1175 0.6857 -0.0125
H10 H -0.1920 0.9030 0.2972
H11 H -0.1319 1.0255 0.2504
H12 H -0.0051 0.9503 0.2143
H13 H 0.0617 1.0349 0.2817
H14 H 0.0094 1.0323 0.4132
H15 H -0.1323 0.9612 0.4266
H16 H -0.1844 1.0420 0.3893
H17 H 0.3613 0.8121 0.3390
H18 H 0.3323 0.9717 0.2836
H19 H 0.3640 0.8708 0.2354
H20 H 0.5051 0.9252 0.2971
H21 H 0.4707 0.9390 0.4304
H22 H 0.3031 0.8980 0.4555
H23 H 0.2983 0.9896 0.4267
H24 H -0.0013 0.8115 0.4351
H25 H -0.2238 0.7021 0.3154
H26 H -0.2713 0.7921 0.3745
H27 H -0.2389 0.6991 0.3989
H28 H 0.0596 0.6597 0.4304
H29 H 0.2121 0.7031 0.3968
H30 H 0.0703 0.6357 0.3433
Si2 Si 0.5730(1) 0.3296(1) 0.3222(1)
O4 O 0.7426(2) 0.2862(1) 0.0731(1)
O5 O 0.2756(3) 0.1566(2) 0.2342(1)
O6 O 0.3200(4) -0.0421(2) 0.1047(1)
C22 C 0.5454(3) 0.2411(2) 0.2280(1)
C23 C 0.3939(3) 0.1716(2) 0.1994(2)
C24 C 0.4070(3) 0.1221(2) 0.1155(2)
C25 C 0.4312(5) 0.0169(2) 0.1029(2)
C26 C 0.6132(5) 0.0024(2) 0.0900(2)
C27 C 0.6961(4) 0.0829(2) 0.0875(1)
C28 C 0.8797(4) 0.1085(2) 0.0821(2)
C29 C 0.9400(4) 0.2027(2) 0.1379(2)
C30 C 0.8020(3) 0.2740(2) 0.1464(1)
C31 C 0.6438(3) 0.2327(2) 0.1696(1)
C32 C 0.5757(3) 0.1625(2) 0.0984(1)
C33 C 0.5925(4) 0.2232(2) 0.0429(2)
C34 C 0.4440(4) 0.2865(2) 0.3908(2)
C35 C 0.4959(7) 0.1938(3) 0.4063(3)
C36 C 0.4305(7) 0.3608(3) 0.4644(2)
C37 C 0.8111(4) 0.3510(2) 0.3501(2)
C38 C 0.8996(5) 0.2642(3) 0.3621(3)
C39 C 0.8576(5) 0.4353(3) 0.4166(2)
C40 C 0.4795(4) 0.4402(2) 0.3056(2)
C41 C 0.5752(5) 0.4796(3) 0.2486(2)
C42 C 0.2863(5) 0.4258(3) 0.2806(3)
H31 H 0.3099 0.1346 0.0835
H32 H 0.6638 -0.0549 0.0843
H33 H 0.8955 0.1130 0.0315
H34 H 0.9499 0.0593 0.0921
H35 H 0.9723 0.1915 0.1865
H36 H 1.0411 0.2286 0.1209
H37 H 0.8421 0.3339 0.1815
H38 H 0.6093 0.1847 -0.0067
H39 H 0.4908 0.2583 0.0397
H40 H 0.3265 0.2740 0.3669
H41 H 0.6003 0.2043 0.4387
H42 H 0.5137 0.1498 0.3599
H43 H 0.4062 0.1690 0.4301
H44 H 0.3440 0.3399 0.4919
H45 H 0.3999 0.4189 0.4536
H46 H 0.5393 0.3700 0.4937
H47 H 0.8620 0.3664 0.3073
H48 H 1.0220 0.2750 0.3637
H49 H 0.8624 0.2107 0.3216
H50 H 0.8698 0.2524 0.4086
H51 H 0.8096 0.4243 0.4603
H52 H 0.8120 0.4906 0.4057
H53 H 0.9805 0.4440 0.4256
H54 H 0.4929 0.4880 0.3535
H55 H 0.5612 0.4353 0.2004
H56 H 0.6954 0.4901 0.2651
H57 H 0.5287 0.5379 0.2448
H58 H 0.2435 0.4838 0.2742
H59 H 0.2262 0.4060 0.3182
H60 H 0.2684 0.3785 0.2341
loop_
_geom_bond_atom_site_label_1
_geom_bond_atom_site_label_2
_geom_bond_site_symmetry_1
_geom_bond_site_symmetry_2
Si1 C1 1_555 1_555
O1 C9 1_555 1_555
O2 C2 1_555 1_555
O3 C4 1_555 1_555
C1 C2 1_555 1_555
C2 C3 1_555 1_555
C3 C4 1_555 1_555
C4 C5 1_555 1_555
C5 C6 1_555 1_555
C6 C7 1_555 1_555
C7 C8 1_555 1_555
C8 C9 1_555 1_555
C9 C10 1_555 1_555
C10 C1 1_555 1_555
C11 C3 1_555 1_555
C12 O1 1_555 1_555
C13 Si1 1_555 1_555
C14 C13 1_555 1_555
C15 C13 1_555 1_555
C16 Si1 1_555 1_555
C17 C16 1_555 1_555
C18 C16 1_555 1_555
C19 Si1 1_555 1_555
C20 C19 1_555 1_555
C21 C19 1_555 1_555
Si2 C22 1_555 1_555
O4 C30 1_555 1_555
O5 C23 1_555 1_555
O6 C25 1_555 1_555
C22 C23 1_555 1_555
C23 C24 1_555 1_555
C24 C25 1_555 1_555
C25 C26 1_555 1_555
C26 C27 1_555 1_555
C27 C28 1_555 1_555
C28 C29 1_555 1_555
C29 C30 1_555 1_555
C30 C31 1_555 1_555
C31 C22 1_555 1_555
C32 C24 1_555 1_555
C33 O4 1_555 1_555
C34 Si2 1_555 1_555
C35 C34 1_555 1_555
C36 C34 1_555 1_555
C37 Si2 1_555 1_555
C38 C37 1_555 1_555
C39 C37 1_555 1_555
C40 Si2 1_555 1_555
C41 C40 1_555 1_555
C42 C40 1_555 1_555
H1 C3 1_555 1_555
H2 C5 1_555 1_555
H3 C7 1_555 1_555
H4 C7 1_555 1_555
H5 C8 1_555 1_555
H6 C8 1_555 1_555
H7 C9 1_555 1_555
H8 C12 1_555 1_555
H9 C12 1_555 1_555
H10 C13 1_555 1_555
H11 C14 1_555 1_555
H12 C14 1_555 1_555
H13 C14 1_555 1_555
H14 C15 1_555 1_555
H15 C15 1_555 1_555
H16 C15 1_555 1_555
H17 C16 1_555 1_555
H18 C17 1_555 1_555
H19 C17 1_555 1_555
H20 C17 1_555 1_555
H21 C18 1_555 1_555
H22 C18 1_555 1_555
H23 C18 1_555 1_555
H24 C19 1_555 1_555
H25 C20 1_555 1_555
H26 C20 1_555 1_555
H27 C20 1_555 1_555
H28 C21 1_555 1_555
H29 C21 1_555 1_555
H30 C21 1_555 1_555
H31 C24 1_555 1_555
H32 C26 1_555 1_555
H33 C28 1_555 1_555
H34 C28 1_555 1_555
H35 C29 1_555 1_555
H36 C29 1_555 1_555
H37 C30 1_555 1_555
H38 C33 1_555 1_555
H39 C33 1_555 1_555
H40 C34 1_555 1_555
H41 C35 1_555 1_555
H42 C35 1_555 1_555
H43 C35 1_555 1_555
H44 C36 1_555 1_555
H45 C36 1_555 1_555
H46 C36 1_555 1_555
H47 C37 1_555 1_555
H48 C38 1_555 1_555
H49 C38 1_555 1_555
H50 C38 1_555 1_555
H51 C39 1_555 1_555
H52 C39 1_555 1_555
H53 C39 1_555 1_555
H54 C40 1_555 1_555
H55 C41 1_555 1_555
H56 C41 1_555 1_555
H57 C41 1_555 1_555
H58 C42 1_555 1_555
H59 C42 1_555 1_555
H60 C42 1_555 1_555
C6 C11 1_555 1_555
C10 C11 1_555 1_555
C11 C12 1_555 1_555
C27 C32 1_555 1_555
C31 C32 1_555 1_555
C32 C33 1_555 1_555

#END
