
#######################################################################
#
#                 Cambridge Crystallographic Data Centre
#                                CCDC 
#
#######################################################################
#
# If this CIF has been generated from an entry in the Cambridge 
# Structural Database, then it will include bibliographic, chemical, 
# crystal, experimental, refinement or atomic coordinate data resulting 
# from the CCDC's data processing and validation procedures.
#
#######################################################################

data_QOSDAD
_chemical_formula_moiety         'C36 H30 O6 S8 2+,2(I3 1-),0.5(I2),C1 H2 Cl2'
_chemical_name_systematic        
'1(1,4)-Benzena-7(2,6)-(9,10-bis(4,5-bis(methylthio)-1,3-dithiol-2-ylidene)-9,10-dihydroanthracena)-3,6,8,11-tetraoxa-2,12-dioxocyclododecaphane tri-iodide iodine dichloromethane solvate'
_symmetry_cell_setting           monoclinic
_symmetry_space_group_name_H-M   'P 21/n'
_symmetry_Int_Tables_number      14
_space_group_name_Hall           '-P 2yn'
loop_
_symmetry_equiv_pos_site_id
_symmetry_equiv_pos_as_xyz
1 x,y,z
2 1/2+x,1/2-y,1/2+z
3 -x,-y,-z
4 1/2-x,1/2+y,1/2-z
_cell_length_a                   12.860(3)
_cell_length_b                   20.605(6)
_cell_length_c                   19.682(7)
_cell_angle_alpha                90
_cell_angle_beta                 96.37(1)
_cell_angle_gamma                90
_cell_volume                     5183.14
_exptl_crystal_colour            red
_exptl_crystal_description       plate
_cell_formula_units_Z            4
loop_
_atom_site_label
_atom_site_type_symbol
_atom_site_fract_x
_atom_site_fract_y
_atom_site_fract_z
I1 I 0.36427(5) 0.08522(3) 0.48011(3)
I2 I 0.38713(4) 0.07992(3) 0.62980(3)
I3 I 0.41453(5) 0.06770(3) 0.77843(3)
I4 I 1.01575(7) 0.08906(5) 0.58612(4)
I5 I 0.93056(5) 0.21421(4) 0.61268(3)
I6 I 0.85985(7) 0.34758(4) 0.64558(4)
I7 I 0.97402(7) 0.45313(5) 0.54550(5)
I7B I 1.02598(7) 0.54687(5) 0.45450(5)
S1 S 0.17647(15) 0.18494(9) 0.73866(9)
S2 S 0.17085(17) 0.32248(10) 0.74663(10)
S3 S -0.00042(18) 0.16851(10) 0.82823(11)
S4 S -0.00195(16) 0.32413(10) 0.83966(10)
S5 S 0.61510(15) 0.17560(10) 0.52869(9)
S6 S 0.62490(16) 0.31257(10) 0.51823(10)
S7 S 0.77895(16) 0.15442(10) 0.43057(10)
S8 S 0.79470(19) 0.31209(11) 0.42450(12)
O1 O 0.5577(5) 0.2774(3) 0.8781(3)
O2 O 0.5364(5) 0.4097(3) 0.8167(3)
O3 O 0.3630(5) 0.4256(3) 0.8246(3)
O4 O 0.2500(5) 0.3234(3) 0.3967(3)
O5 O 0.2873(5) 0.4483(3) 0.4693(3)
O6 O 0.4588(5) 0.4313(3) 0.4616(3)
C1 C 0.4395(6) 0.2616(4) 0.7790(4)
H1 H 0.3841 0.2624 0.8071
C2 C 0.5423(7) 0.2665(4) 0.8078(4)
C3 C 0.6265(7) 0.2604(5) 0.7684(4)
H2 H 0.6964 0.2624 0.7898
C4 C 0.6077(6) 0.2515(4) 0.6997(4)
H3 H 0.6649 0.2445 0.6740
C5 C 0.3592(6) 0.2828(4) 0.4903(4)
H4 H 0.4133 0.2795 0.4614
C6 C 0.2617(7) 0.3026(4) 0.4639(4)
C7 C 0.1784(6) 0.3006(4) 0.5033(4)
H5 H 0.1103 0.3118 0.4828
C8 C 0.1920(6) 0.2830(4) 0.5711(4)
H6 H 0.1335 0.2801 0.5964
C9 C 0.3157(6) 0.2589(3) 0.6744(4)
C10 C 0.4813(6) 0.2540(4) 0.5945(4)
C11 C 0.3808(6) 0.2666(4) 0.5611(4)
C12 C 0.2945(6) 0.2687(4) 0.6030(4)
C13 C 0.4176(6) 0.2552(4) 0.7072(4)
C14 C 0.5034(6) 0.2517(4) 0.6657(4)
C15 C 0.2255(6) 0.2562(4) 0.7165(4)
C16 C 0.0839(6) 0.2160(4) 0.7859(4)
C17 C 0.0813(6) 0.2833(4) 0.7910(4)
C18 C 0.0272(9) 0.0892(4) 0.7974(5)
H7 H 0.0024 0.0863 0.7486
H8 H -0.0089 0.0567 0.8225
H9 H 0.1027 0.0812 0.8043
C19 C 0.0301(7) 0.4070(4) 0.8224(5)
H10 H 0.1062 0.4126 0.8291
H11 H -0.0023 0.4357 0.8537
H12 H 0.0039 0.4179 0.7752
C20 C 0.5693(6) 0.2477(4) 0.5516(4)
C21 C 0.7051(6) 0.2046(4) 0.4775(4)
C22 C 0.7092(6) 0.2711(4) 0.4729(4)
C23 C 0.7516(8) 0.0757(4) 0.4642(5)
H13 H 0.7710 0.0753 0.5137
H14 H 0.7920 0.0427 0.4428
H15 H 0.6767 0.0662 0.4543
C24 C 0.7483(10) 0.3940(5) 0.4324(6)
H16 H 0.6716 0.3944 0.4267
H17 H 0.7744 0.4214 0.3974
H18 H 0.7739 0.4106 0.4778
C25 C 0.6202(7) 0.3335(5) 0.8995(4)
H19 H 0.6806 0.3362 0.8725
H20 H 0.6476 0.3290 0.9482
C26 C 0.5569(7) 0.3945(5) 0.8899(4)
H21 H 0.4899 0.3890 0.9096
H22 H 0.5956 0.4307 0.9140
C27 C 0.4383(7) 0.4217(4) 0.7922(4)
C28 C 0.1918(7) 0.3823(5) 0.3819(4)
H23 H 0.1330 0.3842 0.4103
H24 H 0.1623 0.3824 0.3333
C29 C 0.2604(8) 0.4409(5) 0.3961(4)
H25 H 0.3251 0.4355 0.3737
H26 H 0.2238 0.4802 0.3771
C30 C 0.3864(7) 0.4384(4) 0.4950(4)
C31 C 0.4263(7) 0.4289(4) 0.7138(4)
C32 C 0.5127(7) 0.4228(4) 0.6777(4)
H27 H 0.5802 0.4153 0.7012
C33 C 0.4999(7) 0.4282(4) 0.6066(4)
H28 H 0.5583 0.4248 0.5813
C34 C 0.3976(7) 0.4385(4) 0.5723(4)
C35 C 0.3116(7) 0.4449(4) 0.6096(4)
H29 H 0.2433 0.4512 0.5868
C36 C 0.3278(7) 0.4415(4) 0.6815(4)
H30 H 0.2708 0.4482 0.7075
Cl1 Cl 0.7760(2) 0.46404(15) 0.77462(16)
Cl2 Cl 0.7506(3) 0.60216(17) 0.8009(2)
C37 C 0.8218(19) 0.5353(11) 0.8191(12)
H31 H 0.8255 0.5270 0.8688
H32 H 0.8938 0.5439 0.8082
C38? C 0.757(2) 0.5271(12) 0.8324(12)
H33? H 0.6934 0.5182 0.8553
H34? H 0.8174 0.5262 0.8680
loop_
_geom_bond_atom_site_label_1
_geom_bond_atom_site_label_2
_geom_bond_site_symmetry_1
_geom_bond_site_symmetry_2
I1 I2 1_555 1_555
I2 I3 1_555 1_555
I4 I5 1_555 1_555
I5 I6 1_555 1_555
I7 I7B 1_555 1_555
S1 C15 1_555 1_555
S2 C15 1_555 1_555
S3 C16 1_555 1_555
S4 C17 1_555 1_555
S5 C20 1_555 1_555
S6 C20 1_555 1_555
S7 C21 1_555 1_555
S8 C22 1_555 1_555
O1 C2 1_555 1_555
O2 C26 1_555 1_555
O3 C27 1_555 1_555
O4 C6 1_555 1_555
O5 C29 1_555 1_555
O6 C30 1_555 1_555
C1 H1 1_555 1_555
C2 C1 1_555 1_555
C3 C2 1_555 1_555
H2 C3 1_555 1_555
C4 C3 1_555 1_555
H3 C4 1_555 1_555
C5 H4 1_555 1_555
C6 C5 1_555 1_555
C7 C6 1_555 1_555
H5 C7 1_555 1_555
C8 C7 1_555 1_555
H6 C8 1_555 1_555
C9 C12 1_555 1_555
C10 C11 1_555 1_555
C11 C5 1_555 1_555
C12 C8 1_555 1_555
C13 C1 1_555 1_555
C14 C4 1_555 1_555
C15 C9 1_555 1_555
C16 S1 1_555 1_555
C17 S2 1_555 1_555
C18 S3 1_555 1_555
H7 C18 1_555 1_555
H8 C18 1_555 1_555
H9 C18 1_555 1_555
C19 S4 1_555 1_555
H10 C19 1_555 1_555
H11 C19 1_555 1_555
H12 C19 1_555 1_555
C20 C10 1_555 1_555
C21 S5 1_555 1_555
C22 S6 1_555 1_555
C23 S7 1_555 1_555
H13 C23 1_555 1_555
H14 C23 1_555 1_555
H15 C23 1_555 1_555
C24 S8 1_555 1_555
H16 C24 1_555 1_555
H17 C24 1_555 1_555
H18 C24 1_555 1_555
C25 O1 1_555 1_555
H19 C25 1_555 1_555
H20 C25 1_555 1_555
C26 C25 1_555 1_555
H21 C26 1_555 1_555
H22 C26 1_555 1_555
C27 O2 1_555 1_555
C28 O4 1_555 1_555
H23 C28 1_555 1_555
H24 C28 1_555 1_555
C29 C28 1_555 1_555
H25 C29 1_555 1_555
H26 C29 1_555 1_555
C30 O5 1_555 1_555
C31 C27 1_555 1_555
C32 C31 1_555 1_555
H27 C32 1_555 1_555
C33 C32 1_555 1_555
H28 C33 1_555 1_555
C34 C30 1_555 1_555
C35 C34 1_555 1_555
H29 C35 1_555 1_555
C36 C31 1_555 1_555
H30 C36 1_555 1_555
Cl1 C37 1_555 1_555
Cl2 C37 1_555 1_555
C37 H31 1_555 1_555
H32 C37 1_555 1_555
C9 C13 1_555 1_555
C10 C14 1_555 1_555
C11 C12 1_555 1_555
C13 C14 1_555 1_555
C16 C17 1_555 1_555
C21 C22 1_555 1_555
C33 C34 1_555 1_555
C35 C36 1_555 1_555

#END
