
#######################################################################
#
#                 Cambridge Crystallographic Data Centre
#                                CCDC 
#
#######################################################################
#
# If this CIF has been generated from an entry in the Cambridge 
# Structural Database, then it will include bibliographic, chemical, 
# crystal, experimental, refinement or atomic coordinate data resulting 
# from the CCDC's data processing and validation procedures.
#
#######################################################################

data_QOSDIL
_chemical_formula_moiety         'C72 H60 O12 S16,C1 H2 Cl2,C6 H14'
_chemical_name_systematic        
'1,13(1,4)-Dibenzena-7,19(2,6)-bis(9,10-bis(4,5-bis(methylthio)-1,3-dithiol-2-ylidene)-9,10-dihydroanthracena)-3,6,8,11,15,18,20,23-octaoxa-2,12,14,24-tetraoxotetracosaphane dichloromethane hexane solvate'
_symmetry_cell_setting           triclinic
_symmetry_space_group_name_H-M   'P -1'
_symmetry_Int_Tables_number      2
_space_group_name_Hall           '-P 1'
loop_
_symmetry_equiv_pos_site_id
_symmetry_equiv_pos_as_xyz
1 x,y,z
2 -x,-y,-z
_cell_length_a                   14.525(2)
_cell_length_b                   15.647(2)
_cell_length_c                   18.238(2)
_cell_angle_alpha                88.59(2)
_cell_angle_beta                 86.97(2)
_cell_angle_gamma                79.82(2)
_cell_volume                     4073.55
_exptl_crystal_colour            amber
_exptl_crystal_description       plate
_chemical_melting_point          222-227deg.C(dec)
_cell_formula_units_Z            2
loop_
_atom_site_label
_atom_site_type_symbol
_atom_site_fract_x
_atom_site_fract_y
_atom_site_fract_z
C73 C 0.0702(19) 0.4817(19) -0.1207(15)
C76 C 0.0517(15) 0.4055(13) -0.0683(12)
C79 C 0.132(3) 0.370(3) -0.028(2)
C80 C 0.160(6) 0.302(5) 0.043(5)
S1 S 0.37407(11) 0.88878(10) -0.00567(9)
S2 S 0.57300(12) 0.89560(10) -0.01721(9)
S3 S 0.34103(15) 0.94172(12) -0.16152(10)
S4 S 0.56491(15) 0.96417(12) -0.17342(10)
S5 S 0.47864(13) 0.49678(10) 0.12838(10)
S6 S 0.67703(13) 0.50698(11) 0.13174(11)
S7 S 0.5205(2) 0.32716(17) 0.0440(3)
S9 S 0.74146(18) 0.34187(15) 0.05174(16)
S10 S 0.31686(11) 0.48317(10) 0.64695(9)
S11 S 0.51704(11) 0.49012(10) 0.64223(10)
S12 S 0.34129(13) 0.31389(11) 0.56990(11)
S13 S 0.57255(14) 0.31784(12) 0.56884(14)
S14 S 0.23216(11) 0.86882(10) 0.51103(9)
S15 S 0.42437(12) 0.90023(10) 0.51218(9)
S16 S 0.21370(12) 0.90895(11) 0.35169(9)
S17 S 0.42817(13) 0.95821(11) 0.35333(10)
O1 O 0.1643(3) 0.8269(3) 0.1819(2)
O2 O 0.8427(3) 0.6981(3) 0.2231(3)
O3 O 0.0218(3) 0.8344(3) 0.7046(3)
O4 O 0.6932(3) 0.6827(3) 0.7448(3)
O5 O 0.0147(3) 0.9412(3) 0.2488(2)
O6 O -0.1310(3) 0.9958(3) 0.2187(3)
O7 O -0.1176(3) 0.8725(3) 0.6044(3)
O8 O -0.2617(4) 0.8595(4) 0.5752(3)
O9 O 0.9840(3) 0.6889(3) 0.3254(3)
O10 O 1.1295(3) 0.6123(3) 0.3341(3)
O11 O 0.8630(3) 0.5992(3) 0.6806(3)
O12 O 1.0072(3) 0.5272(3) 0.7028(3)
C1 C 0.3283(4) 0.8239(4) 0.1443(3)
H1 H 0.3152 0.8821 0.1264
C2 C 0.2571(4) 0.7868(4) 0.1766(4)
C3 C 0.2756(4) 0.7035(4) 0.2064(3)
H2 H 0.2263 0.6775 0.2281
C4 C 0.3669(4) 0.6586(4) 0.2034(3)
H3 H 0.3800 0.6030 0.2265
C5 C 0.6932(4) 0.6794(4) 0.1957(4)
H4 H 0.7066 0.6247 0.2202
C6 C 0.7595(4) 0.7330(4) 0.1929(4)
C7 C 0.7392(5) 0.8151(4) 0.1614(4)
H5 H 0.7838 0.8529 0.1604
C8 C 0.6543(5) 0.8406(4) 0.1314(3)
H6 H 0.6402 0.8974 0.1108
C9 C 0.4955(4) 0.8123(4) 0.0985(3)
C10 C 0.5377(4) 0.6479(4) 0.1613(3)
C11 C 0.6074(4) 0.7039(4) 0.1638(3)
C12 C 0.5867(4) 0.7868(4) 0.1301(3)
C13 C 0.4192(4) 0.7778(4) 0.1370(3)
C14 C 0.4402(4) 0.6926(4) 0.1677(3)
C15 C 0.4821(4) 0.8598(4) 0.0353(3)
C16 C 0.4205(5) 0.9157(4) -0.0918(4)
C17 C 0.5105(5) 0.9207(4) -0.0966(4)
C18 C 0.3086(7) 0.8377(5) -0.1737(5)
H7 H 0.3632 0.7966 -0.1923
H8 H 0.2591 0.8434 -0.2089
H9 H 0.2856 0.8163 -0.1264
C19 C 0.6830(6) 0.9074(6) -0.1706(4)
H10 H 0.7098 0.9207 -0.1249
H11 H 0.7201 0.9258 -0.2126
H12 H 0.6839 0.8448 -0.1728
C20 C 0.5607(5) 0.5622(4) 0.1457(4)
C21 C 0.5583(5) 0.4133(4) 0.0857(4)
C22 C 0.6491(5) 0.4178(5) 0.0869(4)
C23 C 0.3986(6) 0.3612(5) 0.0409(5)
H13 H 0.3687 0.3642 0.0904
H14 H 0.3730 0.3199 0.0119
H15 H 0.3866 0.4187 0.0173
C24 C 0.7633(8) 0.3932(8) -0.0363(5)
H16 H 0.7063 0.4017 -0.0641
H17 H 0.8140 0.3560 -0.0641
H18 H 0.7814 0.4496 -0.0283
C25 C 0.2132(4) 0.6488(4) 0.7219(3)
H19 H 0.2248 0.5916 0.7423
C26 C 0.1237(5) 0.6971(4) 0.7286(4)
H20 H 0.0742 0.6742 0.7537
C27 C 0.1079(4) 0.7801(4) 0.6989(3)
C28 C 0.1788(4) 0.8146(4) 0.6642(3)
H21 H 0.1664 0.8726 0.6459
C29 C 0.5043(4) 0.8250(4) 0.6595(3)
H22 H 0.4920 0.8835 0.6421
C30 C 0.5886(5) 0.7937(4) 0.6897(3)
H23 H 0.6336 0.8306 0.6930
C31 C 0.6075(4) 0.7086(4) 0.7163(4)
C32 C 0.5400(4) 0.6562(4) 0.7147(3)
H24 H 0.5516 0.5993 0.7354
C33 C 0.3832(4) 0.6329(4) 0.6772(3)
C34 C 0.3473(4) 0.8011(4) 0.6199(3)
C35 C 0.4366(4) 0.7725(4) 0.6536(3)
C36 C 0.4547(4) 0.6868(4) 0.6824(3)
C37 C 0.2859(4) 0.6810(4) 0.6857(3)
C38 C 0.2689(4) 0.7657(4) 0.6552(3)
C39 C 0.4019(4) 0.5481(4) 0.6613(3)
C40 C 0.3929(5) 0.3971(4) 0.6039(4)
C41 C 0.4845(5) 0.4008(4) 0.6021(4)
C42 C 0.3525(6) 0.3356(6) 0.4728(4)
H25 H 0.3191 0.3942 0.4619
H26 H 0.3254 0.2931 0.4463
H27 H 0.4188 0.3312 0.4575
C43 C 0.6569(5) 0.3757(5) 0.5278(5)
H28 H 0.6271 0.4189 0.4927
H29 H 0.7065 0.3349 0.5023
H30 H 0.6839 0.4051 0.5661
C44 C 0.3373(4) 0.8504(4) 0.5581(3)
C45 C 0.2838(5) 0.8990(4) 0.4274(3)
C46 C 0.3694(5) 0.9155(4) 0.4280(3)
C47 C 0.1702(5) 0.8083(4) 0.3587(4)
H31 H 0.2230 0.7596 0.3570
H32 H 0.1300 0.8042 0.3179
H33 H 0.1339 0.8061 0.4054
C48 C 0.5063(6) 0.8647(6) 0.3202(5)
H34 H 0.5296 0.8278 0.3618
H35 H 0.5591 0.8823 0.2918
H36 H 0.4724 0.8323 0.2887
C49 C 0.1466(5) 0.9181(4) 0.1633(4)
H37 H 0.1690 0.9275 0.1120
H38 H 0.1798 0.9505 0.1960
C50 C 0.0433(5) 0.9489(5) 0.1719(4)
H39 H 0.0279 1.0105 0.1558
H40 H 0.0099 0.9141 0.1414
C51 C -0.0766(5) 0.9654(4) 0.2639(4)
C52 C -0.1044(4) 0.9467(4) 0.3409(4)
C53 C -0.1948(5) 0.9321(5) 0.3579(4)
H41 H -0.2388 0.9373 0.3206
C54 C -0.2200(5) 0.9087(4) 0.4291(4)
H42 H -0.2815 0.8983 0.4408
C55 C -0.1558(4) 0.9008(4) 0.4828(4)
C56 C -0.0658(5) 0.9182(4) 0.4658(4)
H43 H -0.0222 0.9145 0.5032
C57 C -0.0408(5) 0.9404(4) 0.3962(4)
H44 H 0.0206 0.9515 0.3851
C58 C -0.1858(5) 0.8755(4) 0.5583(4)
C59 C -0.1381(5) 0.8546(5) 0.6803(4)
H45 H -0.1956 0.8289 0.6858
H46 H -0.1483 0.9091 0.7084
C60 C -0.0575(5) 0.7936(4) 0.7083(4)
H47 H -0.0719 0.7764 0.7596
H48 H -0.0450 0.7406 0.6781
C61 C 0.9147(5) 0.7479(5) 0.2173(4)
H49 H 0.8962 0.8018 0.2458
H50 H 0.9270 0.7641 0.1654
C62 C 0.9992(5) 0.6955(5) 0.2470(4)
H51 H 1.0102 0.6367 0.2259
H52 H 1.0546 0.7228 0.2344
C63 C 1.0540(5) 0.6415(4) 0.3625(4)
C64 C 1.0266(5) 0.6302(4) 0.4410(4)
C65 C 1.0917(5) 0.5840(4) 0.4863(4)
H53 H 1.1541 0.5653 0.4676
C66 C 1.0690(5) 0.5653(4) 0.5574(4)
H54 H 1.1145 0.5325 0.5874
C67 C 0.9784(4) 0.5943(4) 0.5863(4)
C68 C 0.9136(5) 0.6442(4) 0.5415(4)
H55 H 0.8523 0.6664 0.5611
C69 C 0.9370(5) 0.6612(4) 0.4705(4)
H56 H 0.8919 0.6948 0.4407
C70 C 0.9537(5) 0.5696(4) 0.6628(4)
C71 C 0.8297(5) 0.5751(5) 0.7521(4)
H57 H 0.8501 0.6108 0.7901
H58 H 0.8543 0.5132 0.7628
C72 C 0.7257(4) 0.5904(4) 0.7511(4)
H59 H 0.7058 0.5607 0.7089
H60 H 0.6990 0.5672 0.7968
S8? S 0.5017(13) 0.3205(10) 0.0838(17)
Cl1? Cl -0.0590(5) 0.8205(5) -0.0926(4)
Cl2? Cl 0.1056(12) 0.8751(11) -0.0320(10)
Cl3? Cl 0.1188(8) 1.0079(7) -0.0220(6)
Cl4? Cl 0.0590(12) 0.8179(11) -0.0933(10)
Cl5? Cl -0.0270(9) 0.4353(8) -0.0899(7)
Cl6? Cl 0.0461(8) 0.5771(7) -0.1107(6)
C74? C 0.136(3) 0.909(3) -0.074(3)
C75? C 0.0369(10) 0.8542(9) -0.0342(8)
C77? C -0.0150(16) 0.6135(14) -0.0987(12)
C78? C 0.0909(9) 0.8239(8) 0.0048(7)
loop_
_geom_bond_atom_site_label_1
_geom_bond_atom_site_label_2
_geom_bond_site_symmetry_1
_geom_bond_site_symmetry_2
S1 C15 1_555 1_555
S2 C15 1_555 1_555
S3 C16 1_555 1_555
S4 C17 1_555 1_555
S5 C20 1_555 1_555
S6 C20 1_555 1_555
S7 C21 1_555 1_555
S9 C22 1_555 1_555
S10 C39 1_555 1_555
S11 C39 1_555 1_555
S12 C40 1_555 1_555
S13 C41 1_555 1_555
S14 C44 1_555 1_555
S15 C44 1_555 1_555
S16 C45 1_555 1_555
S17 C46 1_555 1_555
O1 C2 1_555 1_555
O2 C6 1_555 1_555
O3 C27 1_555 1_555
O4 C31 1_555 1_555
O5 C50 1_555 1_555
O6 C51 1_555 1_555
O7 C58 1_555 1_555
O8 C58 1_555 1_555
O9 C62 1_555 1_555
O10 C63 1_555 1_555
O11 C70 1_555 1_555
O12 C70 1_555 1_555
C1 H1 1_555 1_555
C2 C1 1_555 1_555
C3 C2 1_555 1_555
H2 C3 1_555 1_555
C4 C3 1_555 1_555
H3 C4 1_555 1_555
C5 H4 1_555 1_555
C6 C5 1_555 1_555
C7 C6 1_555 1_555
H5 C7 1_555 1_555
C8 C7 1_555 1_555
H6 C8 1_555 1_555
C9 C12 1_555 1_555
C10 C11 1_555 1_555
C11 C5 1_555 1_555
C12 C8 1_555 1_555
C13 C1 1_555 1_555
C14 C4 1_555 1_555
C15 C9 1_555 1_555
C16 S1 1_555 1_555
C17 S2 1_555 1_555
C18 S3 1_555 1_555
H7 C18 1_555 1_555
H8 C18 1_555 1_555
H9 C18 1_555 1_555
C19 S4 1_555 1_555
H10 C19 1_555 1_555
H11 C19 1_555 1_555
H12 C19 1_555 1_555
C20 C10 1_555 1_555
C21 S5 1_555 1_555
C22 S6 1_555 1_555
C23 S7 1_555 1_555
H13 C23 1_555 1_555
H14 C23 1_555 1_555
H15 C23 1_555 1_555
C24 S9 1_555 1_555
H16 C24 1_555 1_555
H17 C24 1_555 1_555
H18 C24 1_555 1_555
C25 H19 1_555 1_555
C26 C25 1_555 1_555
H20 C26 1_555 1_555
C27 C26 1_555 1_555
C28 C27 1_555 1_555
H21 C28 1_555 1_555
C29 H22 1_555 1_555
C30 C29 1_555 1_555
H23 C30 1_555 1_555
C31 C30 1_555 1_555
C32 C31 1_555 1_555
H24 C32 1_555 1_555
C33 C36 1_555 1_555
C34 C35 1_555 1_555
C35 C29 1_555 1_555
C36 C32 1_555 1_555
C37 C25 1_555 1_555
C38 C28 1_555 1_555
C39 C33 1_555 1_555
C40 S10 1_555 1_555
C41 S11 1_555 1_555
C42 S12 1_555 1_555
H25 C42 1_555 1_555
H26 C42 1_555 1_555
H27 C42 1_555 1_555
C43 S13 1_555 1_555
H28 C43 1_555 1_555
H29 C43 1_555 1_555
H30 C43 1_555 1_555
C44 C34 1_555 1_555
C45 S14 1_555 1_555
C46 S15 1_555 1_555
C47 S16 1_555 1_555
H31 C47 1_555 1_555
H32 C47 1_555 1_555
H33 C47 1_555 1_555
C48 S17 1_555 1_555
H34 C48 1_555 1_555
H35 C48 1_555 1_555
H36 C48 1_555 1_555
C49 O1 1_555 1_555
H37 C49 1_555 1_555
H38 C49 1_555 1_555
C50 C49 1_555 1_555
H39 C50 1_555 1_555
H40 C50 1_555 1_555
C51 O5 1_555 1_555
C52 C51 1_555 1_555
C53 C52 1_555 1_555
H41 C53 1_555 1_555
C54 C53 1_555 1_555
H42 C54 1_555 1_555
C55 C54 1_555 1_555
C56 C55 1_555 1_555
H43 C56 1_555 1_555
C57 C52 1_555 1_555
H44 C57 1_555 1_555
C58 C55 1_555 1_555
C59 O7 1_555 1_555
H45 C59 1_555 1_555
H46 C59 1_555 1_555
C60 O3 1_555 1_555
H47 C60 1_555 1_555
H48 C60 1_555 1_555
C61 O2 1_555 1_555
H49 C61 1_555 1_555
H50 C61 1_555 1_555
C62 C61 1_555 1_555
H51 C62 1_555 1_555
H52 C62 1_555 1_555
C63 O9 1_555 1_555
C64 C63 1_555 1_555
C65 C64 1_555 1_555
H53 C65 1_555 1_555
C66 C65 1_555 1_555
H54 C66 1_555 1_555
C67 C66 1_555 1_555
C68 C67 1_555 1_555
H55 C68 1_555 1_555
C69 C64 1_555 1_555
H56 C69 1_555 1_555
C70 C67 1_555 1_555
C71 O11 1_555 1_555
H57 C71 1_555 1_555
H58 C71 1_555 1_555
C72 O4 1_555 1_555
H59 C72 1_555 1_555
H60 C72 1_555 1_555
C73 C76 1_555 1_555
C76 C79 1_555 1_555
C79 C80 1_555 1_555
C9 C13 1_555 1_555
C10 C14 1_555 1_555
C11 C12 1_555 1_555
C13 C14 1_555 1_555
C16 C17 1_555 1_555
C21 C22 1_555 1_555
C33 C37 1_555 1_555
C34 C38 1_555 1_555
C35 C36 1_555 1_555
C37 C38 1_555 1_555
C40 C41 1_555 1_555
C45 C46 1_555 1_555
C56 C57 1_555 1_555
C59 C60 1_555 1_555
C68 C69 1_555 1_555
C71 C72 1_555 1_555

#END
