
#######################################################################
#
#                 Cambridge Crystallographic Data Centre
#                                CCDC 
#
#######################################################################
#
# If this CIF has been generated from an entry in the Cambridge 
# Structural Database, then it will include bibliographic, chemical, 
# crystal, experimental, refinement or atomic coordinate data resulting 
# from the CCDC's data processing and validation procedures.
#
#######################################################################

data_QOSPUK
_chemical_formula_moiety         'C32 H26 N4 O4'
_chemical_name_systematic        
(E)-N-(2-(((Diphenylmethyl)imino)methyl)-4,6-dinitrophenyl)-2,8-dimethyl-1-naphthalenamine
_symmetry_cell_setting           monoclinic
_symmetry_space_group_name_H-M   'P 2/c'
_symmetry_Int_Tables_number      13
_space_group_name_Hall           '-P 2yc'
loop_
_symmetry_equiv_pos_site_id
_symmetry_equiv_pos_as_xyz
1 x,y,z
2 -x,y,1/2-z
3 -x,-y,-z
4 x,-y,1/2+z
_cell_length_a                   14.7861(6)
_cell_length_b                   12.0082(6)
_cell_length_c                   15.9814(10)
_cell_angle_alpha                90
_cell_angle_beta                 105.197(4)
_cell_angle_gamma                90
_cell_volume                     2738.34
_exptl_crystal_colour            yellow
_chemical_melting_point          '144-145 deg.C'
_cell_formula_units_Z            4
loop_
_atom_site_label
_atom_site_type_symbol
_atom_site_fract_x
_atom_site_fract_y
_atom_site_fract_z
O1 O 0.00466(9) 0.70028(11) 0.45474(8)
O2 O 0.10673(10) 0.52803(12) 0.86758(8)
N1 N 0.13008(12) 0.60878(14) 0.83088(10)
N2 N 0.24363(11) 0.29982(13) 0.63856(10)
N3 N 0.02406(11) 0.72787(14) 0.53181(11)
O3 O 0.00073(11) 0.81674(12) 0.55797(9)
N4 N 0.23386(11) 0.42396(14) 0.77428(10)
C1 C 0.11085(13) 0.55207(17) 0.56804(13)
C2 C 0.16218(13) 0.47597(16) 0.62660(12)
C3 C 0.35791(14) 0.19540(16) 0.58009(12)
C4 C 0.08985(14) 0.67055(17) 0.68268(12)
O4 O 0.14321(11) 0.70238(12) 0.86282(9)
C5 C 0.37485(14) 0.46902(18) 1.03684(13)
C6 C 0.26441(13) 0.35884(16) 0.92602(12)
C7 C 0.24210(14) 0.10114(16) 0.65020(12)
C8 C 0.13627(13) 0.59216(16) 0.74160(12)
C9 C 0.33742(14) 0.53016(16) 0.88806(12)
C10 C 0.17908(13) 0.49627(15) 0.71839(11)
C11 C 0.35962(17) 0.6103(2) 0.82368(15)
C12 C 0.26044(14) 0.19631(16) 0.59476(12)
C13 C 0.13132(17) 0.2458(2) 0.82023(14)
C14 C 0.19293(13) 0.37477(16) 0.59197(13)
C15 C 0.52237(15) 0.24190(19) 0.62194(14)
C16 C 0.27774(13) 0.44055(16) 0.86448(12)
C17 C 0.20411(16) 0.18757(19) 0.97082(14)
C18 C 0.46104(16) 0.13287(19) 0.49522(15)
C19 C 0.43372(15) 0.24844(18) 0.63586(13)
C20 C 0.26142(16) 0.1997(2) 1.05620(14)
C21 C 0.37253(16) 0.13869(18) 0.50930(14)
C22 C 0.31853(14) 0.37342(17) 1.01398(12)
C23 C 0.38431(15) 0.54453(18) 0.97701(13)
C24 C 0.13024(18) -0.01721(19) 0.69324(15)
C25 C 0.20260(14) 0.26430(16) 0.90615(13)
C26 C 0.15073(16) 0.06147(17) 0.63790(14)
C27 C 0.31552(16) 0.29182(18) 1.07745(14)
C28 C 0.07751(13) 0.64881(16) 0.59538(12)
C29 C 0.31212(17) 0.0579(2) 0.71842(14)
C30 C 0.29103(19) -0.0210(2) 0.77340(15)
C31 C 0.53660(16) 0.18351(17) 0.55214(14)
C32 C 0.20005(19) -0.0582(2) 0.76140(15)
H1 H 0.2519(14) 0.3613(16) 0.7461(13)
H2 H 0.0633(13) 0.7367(15) 0.7023(11)
H3 H 0.1008(13) 0.5388(14) 0.5079(13)
H4 H 0.2158(14) 0.1926(14) 0.5346(12)
H5 H 0.1709(13) 0.3667(15) 0.5291(13)
H6 H 0.4100(13) 0.4770(14) 1.1007(12)
H7 H 0.1668(14) 0.1226(16) 0.9579(12)
H8 H 0.1574(15) 0.2231(15) 0.7694(14)
H9 H 0.2586(15) 0.1422(17) 1.0997(14)
H10 H 0.0915(17) 0.1841(18) 0.8299(14)
H11 H 0.4210(14) 0.2914(15) 0.6835(14)
H12 H 0.5990(17) 0.1791(16) 0.5427(14)
H13 H 0.3204(16) 0.0999(17) 0.4708(14)
H14 H 0.4222(16) 0.6086(18) 0.9908(14)
H15 H 0.0942(16) 0.3159(17) 0.7972(13)
H16 H 0.4227(17) 0.6452(17) 0.8501(14)
H17 H 0.3152(18) 0.6732(19) 0.8061(15)
H18 H 0.1849(16) -0.1108(18) 0.7997(14)
H19 H 0.3548(17) 0.3082(17) 1.1372(16)
H20 H 0.5750(17) 0.2806(18) 0.6606(15)
H21 H 0.0654(18) -0.0415(19) 0.6871(15)
H22 H 0.3618(16) 0.5703(18) 0.7674(16)
H23 H 0.4711(17) 0.0922(19) 0.4455(16)
H24 H 0.342(2) -0.053(2) 0.8201(18)
H25 H 0.1027(17) 0.0922(17) 0.5936(14)
H26 H 0.3755(18) 0.0845(19) 0.7256(15)
loop_
_geom_bond_atom_site_label_1
_geom_bond_atom_site_label_2
_geom_bond_site_symmetry_1
_geom_bond_site_symmetry_2
O1 N3 1_555 1_555
O2 N1 1_555 1_555
N1 O4 1_555 1_555
N2 C12 1_555 1_555
N3 O3 1_555 1_555
N4 C10 1_555 1_555
C1 C2 1_555 1_555
C2 C10 1_555 1_555
C3 C12 1_555 1_555
C4 C8 1_555 1_555
C5 C22 1_555 1_555
C6 C16 1_555 1_555
C7 C12 1_555 1_555
C8 N1 1_555 1_555
C9 C11 1_555 1_555
C10 C8 1_555 1_555
C11 H16 1_555 1_555
C12 H4 1_555 1_555
C13 C25 1_555 1_555
C14 N2 1_555 1_555
C15 C19 1_555 1_555
C16 N4 1_555 1_555
C17 C20 1_555 1_555
C18 C21 1_555 1_555
C19 C3 1_555 1_555
C20 C27 1_555 1_555
C21 C3 1_555 1_555
C22 C6 1_555 1_555
C23 C5 1_555 1_555
C24 C26 1_555 1_555
C25 C6 1_555 1_555
C26 C7 1_555 1_555
C27 C22 1_555 1_555
C28 N3 1_555 1_555
C29 C7 1_555 1_555
C30 C29 1_555 1_555
C31 C15 1_555 1_555
C32 C24 1_555 1_555
H1 N4 1_555 1_555
H2 C4 1_555 1_555
H3 C1 1_555 1_555
H5 C14 1_555 1_555
H6 C5 1_555 1_555
H7 C17 1_555 1_555
H8 C13 1_555 1_555
H9 C20 1_555 1_555
H10 C13 1_555 1_555
H11 C19 1_555 1_555
H12 C31 1_555 1_555
H13 C21 1_555 1_555
H14 C23 1_555 1_555
H15 C13 1_555 1_555
H17 C11 1_555 1_555
H18 C32 1_555 1_555
H19 C27 1_555 1_555
H20 C15 1_555 1_555
H21 C24 1_555 1_555
H22 C11 1_555 1_555
H23 C18 1_555 1_555
H24 C30 1_555 1_555
H25 C26 1_555 1_555
H26 C29 1_555 1_555
C1 C28 1_555 1_555
C2 C14 1_555 1_555
C4 C28 1_555 1_555
C9 C16 1_555 1_555
C9 C23 1_555 1_555
C17 C25 1_555 1_555
C18 C31 1_555 1_555
C30 C32 1_555 1_555

#END
