
#######################################################################
#
#                 Cambridge Crystallographic Data Centre
#                                CCDC 
#
#######################################################################
#
# If this CIF has been generated from an entry in the Cambridge 
# Structural Database, then it will include bibliographic, chemical, 
# crystal, experimental, refinement or atomic coordinate data resulting 
# from the CCDC's data processing and validation procedures.
#
#######################################################################

data_QOSQOF
_chemical_formula_moiety         'C46 H46 N4 O4 S2,2(C1 H1 Cl3)'
_chemical_name_systematic        
'5,15-bis(4-(5-acetylsulfanylpentyloxy)phenyl)porphyrin chloroform solvate'
_symmetry_cell_setting           monoclinic
_symmetry_space_group_name_H-M   'P 21/c'
_symmetry_Int_Tables_number      14
_space_group_name_Hall           '-P 2ybc'
loop_
_symmetry_equiv_pos_site_id
_symmetry_equiv_pos_as_xyz
1 x,y,z
2 -x,1/2+y,1/2-z
3 -x,-y,-z
4 x,1/2-y,1/2+z
_cell_length_a                   10.8849(3)
_cell_length_b                   22.7573(6)
_cell_length_c                   11.3839(3)
_cell_angle_alpha                90
_cell_angle_beta                 116.2250(10)
_cell_angle_gamma                90
_cell_volume                     2529.65
_exptl_crystal_colour            'dark purple'
_cell_formula_units_Z            2
_exptl_crystal_recrystallization_method chloroform/methanol
loop_
_atom_site_label
_atom_site_type_symbol
_atom_site_fract_x
_atom_site_fract_y
_atom_site_fract_z
S1 S 0.34913(15) 0.22720(7) -0.09563(12)
N1 N -0.0156(3) 0.05877(14) 0.8573(3)
N2 N 0.1584(3) -0.03845(14) 0.9731(3)
H1 H 0.0887 -0.0225 0.9772
O1 O 0.3810(3) 0.06235(14) 0.4361(3)
O2 O 0.5231(5) 0.27241(18) 0.1255(4)
C1 C 0.0578(4) 0.06139(19) 0.7856(3)
C2 C 0.2122(4) -0.02231(18) 0.8897(4)
C3 C 0.2270(4) 0.03126(19) 0.7057(4)
C4 C 0.1625(4) 0.02332(18) 0.7975(4)
C5 C 0.3296(4) 0.0484(2) 0.5224(4)
C6 C 0.3087(4) 0.0790(2) 0.7143(4)
H2 H 0.3290 0.1059 0.7819
C7 C 0.3259(4) -0.0598(2) 0.9140(4)
H3 H 0.3815 -0.0584 0.8712
C8 C 0.2332(4) -0.08376(18) 1.0485(4)
C9 C -0.1106(4) 0.10227(19) 0.8135(4)
C10 C 0.3924(5) 0.0553(2) 0.2333(4)
H4 H 0.3866 0.0278 0.1660
H5 H 0.4881 0.0657 0.2839
C11 C 0.0061(5) 0.1101(2) 0.6942(4)
H6 H 0.0381 0.1220 0.6345
C12 C 0.3671(5) 0.1396(2) 0.0817(4)
H7 H 0.3627 0.1119 0.0152
H8 H 0.4626 0.1496 0.1344
C13 C -0.0967(5) 0.1347(2) 0.7120(4)
H9 H -0.1491 0.1668 0.6668
C14 C 0.2107(4) -0.11299(19) 1.1438(4)
H10 H 0.2702 -0.1439 1.1849
C15 C 0.1995(5) -0.0078(2) 0.6045(4)
H11 H 0.1450 -0.0403 0.5971
C16 C 0.3611(5) 0.0879(2) 0.6252(4)
H12 H 0.4171 0.1201 0.6338
C17 C 0.3416(5) 0.0257(2) 0.3223(4)
H13 H 0.2428 0.0213 0.2781
H14 H 0.3823 -0.0130 0.3473
C18 C 0.3388(4) -0.0976(2) 1.0101(4)
H15 H 0.4041 -0.1271 1.0450
C19 C 0.3119(5) 0.1107(2) 0.1676(4)
H16 H 0.2165 0.1004 0.1151
H17 H 0.3164 0.1382 0.2344
C20 C 0.2505(5) -0.0001(2) 0.5135(4)
H18 H 0.2315 -0.0274 0.4471
C21 C 0.4904(6) 0.2677(2) 0.0121(5)
C22 C 0.2882(6) 0.1954(3) 0.0143(5)
H19 H 0.2971 0.2242 0.0806
H20 H 0.1917 0.1860 -0.0345
C23 C 0.5687(7) 0.2949(3) -0.0549(7)
H21 H 0.5790 0.3362 -0.0369
H22 H 0.5196 0.2887 -0.1476
H23 H 0.6574 0.2769 -0.0229
S1B S -0.34913(15) -0.22720(7) 2.09563(12)
N1B N 0.0156(3) -0.05877(14) 1.1427(3)
N2B N -0.1584(3) 0.03845(14) 1.0269(3)
H1B H -0.0887 0.0225 1.0228
O1B O -0.3810(3) -0.06235(14) 1.5639(3)
O2B O -0.5231(5) -0.27241(18) 1.8745(4)
C1B C -0.0578(4) -0.06139(19) 1.2144(3)
C2B C -0.2122(4) 0.02231(18) 1.1103(4)
C3B C -0.2270(4) -0.03126(19) 1.2943(4)
C4B C -0.1625(4) -0.02332(18) 1.2025(4)
C5B C -0.3296(4) -0.0484(2) 1.4776(4)
C6B C -0.3087(4) -0.0790(2) 1.2857(4)
H2B H -0.3290 -0.1059 1.2181
C7B C -0.3259(4) 0.0598(2) 1.0860(4)
H3B H -0.3815 0.0584 1.1288
C8B C -0.2332(4) 0.08376(18) 0.9515(4)
C9B C 0.1106(4) -0.10227(19) 1.1865(4)
C10B C -0.3924(5) -0.0553(2) 1.7667(4)
H4B H -0.3866 -0.0278 1.8340
H5B H -0.4881 -0.0657 1.7161
C11B C -0.0061(5) -0.1101(2) 1.3058(4)
H6B H -0.0381 -0.1220 1.3655
C12B C -0.3671(5) -0.1396(2) 1.9183(4)
H7B H -0.3627 -0.1119 1.9848
H8B H -0.4626 -0.1496 1.8656
C13B C 0.0967(5) -0.1347(2) 1.2880(4)
H9B H 0.1491 -0.1668 1.3332
C14B C -0.2107(4) 0.11299(19) 0.8562(4)
H10B H -0.2702 0.1439 0.8151
C15B C -0.1995(5) 0.0078(2) 1.3955(4)
H11B H -0.1450 0.0403 1.4029
C16B C -0.3611(5) -0.0879(2) 1.3748(4)
H12B H -0.4171 -0.1201 1.3662
C17B C -0.3416(5) -0.0257(2) 1.6777(4)
H13B H -0.2428 -0.0213 1.7219
H14B H -0.3823 0.0130 1.6527
C18B C -0.3388(4) 0.0976(2) 0.9899(4)
H15B H -0.4041 0.1271 0.9550
C19B C -0.3119(5) -0.1107(2) 1.8324(4)
H16B H -0.2165 -0.1004 1.8849
H17B H -0.3164 -0.1382 1.7656
C20B C -0.2505(5) 0.0001(2) 1.4865(4)
H18B H -0.2315 0.0274 1.5529
C21B C -0.4904(6) -0.2677(2) 1.9879(5)
C22B C -0.2882(6) -0.1954(3) 1.9857(5)
H19B H -0.2971 -0.2242 1.9194
H20B H -0.1917 -0.1860 2.0345
C23B C -0.5687(7) -0.2949(3) 2.0549(7)
H21B H -0.5790 -0.3362 2.0369
H22B H -0.5196 -0.2887 2.1476
H23B H -0.6574 -0.2769 2.0229
Cl1 Cl 0.0170(2) 0.78869(9) 0.8515(2)
Cl2 Cl -0.0730(3) 0.86449(16) 0.6314(3)
Cl3 Cl 0.1569(4) 0.79257(14) 0.6921(4)
C24 C 0.0523(9) 0.8275(4) 0.7409(9)
H24 H 0.1116 0.8589 0.7958
loop_
_geom_bond_atom_site_label_1
_geom_bond_atom_site_label_2
_geom_bond_site_symmetry_1
_geom_bond_site_symmetry_2
S1 C21 1_555 1_555
N1 C1 1_555 1_555
N2 H1 1_555 1_555
O1 C5 1_555 1_555
O2 C21 1_555 1_555
Cl1 C24 1_555 1_555
Cl2 C24 1_555 1_555
Cl3 C24 1_555 1_555
C1 C4 1_555 1_555
C2 N2 1_555 1_555
C3 C4 1_555 1_555
C4 C2 1_555 1_555
C5 C16 1_555 1_555
C6 C3 1_555 1_555
H2 C6 1_555 1_555
C7 C2 1_555 1_555
H3 C7 1_555 1_555
C8 N2 1_555 1_555
C9 N1 1_555 1_555
C10 H4 1_555 1_555
H5 C10 1_555 1_555
C11 C1 1_555 1_555
H6 C11 1_555 1_555
C12 H7 1_555 1_555
H8 C12 1_555 1_555
C13 C9 1_555 1_555
H9 C13 1_555 1_555
C14 C8 1_555 1_555
H10 C14 1_555 1_555
C15 C3 1_555 1_555
H11 C15 1_555 1_555
C16 C6 1_555 1_555
H12 C16 1_555 1_555
C17 O1 1_555 1_555
H13 C17 1_555 1_555
H14 C17 1_555 1_555
C18 C7 1_555 1_555
H15 C18 1_555 1_555
C19 C10 1_555 1_555
H16 C19 1_555 1_555
H17 C19 1_555 1_555
C20 C5 1_555 1_555
H18 C20 1_555 1_555
C21 C23 1_555 1_555
C22 S1 1_555 1_555
H19 C22 1_555 1_555
H20 C22 1_555 1_555
C23 H21 1_555 1_555
H22 C23 1_555 1_555
H23 C23 1_555 1_555
C24 H24 1_555 1_555
S1B C21B 1_555 1_555
N1B C1B 1_555 1_555
N2B H1B 1_555 1_555
O1B C5B 1_555 1_555
O2B C21B 1_555 1_555
C1B C4B 1_555 1_555
C2B N2B 1_555 1_555
C3B C4B 1_555 1_555
C4B C2B 1_555 1_555
C5B C16B 1_555 1_555
C6B C3B 1_555 1_555
H2B C6B 1_555 1_555
C7B C2B 1_555 1_555
H3B C7B 1_555 1_555
C8B N2B 1_555 1_555
C9B C14 1_555 1_555
C10B H4B 1_555 1_555
H5B C10B 1_555 1_555
C11B C1B 1_555 1_555
H6B C11B 1_555 1_555
C12B H7B 1_555 1_555
H8B C12B 1_555 1_555
C13B C9B 1_555 1_555
H9B C13B 1_555 1_555
C14B C9 1_555 1_555
H10B C14B 1_555 1_555
C15B C3B 1_555 1_555
H11B C15B 1_555 1_555
C16B C6B 1_555 1_555
H12B C16B 1_555 1_555
C17B O1B 1_555 1_555
H13B C17B 1_555 1_555
H14B C17B 1_555 1_555
C18B C7B 1_555 1_555
H15B C18B 1_555 1_555
C19B C10B 1_555 1_555
H16B C19B 1_555 1_555
H17B C19B 1_555 1_555
C20B C5B 1_555 1_555
H18B C20B 1_555 1_555
C21B C23B 1_555 1_555
C22B S1B 1_555 1_555
H19B C22B 1_555 1_555
H20B C22B 1_555 1_555
C23B H21B 1_555 1_555
H22B C23B 1_555 1_555
H23B C23B 1_555 1_555
C8 C18 1_555 1_555
C10 C17 1_555 1_555
C11 C13 1_555 1_555
C12 C19 1_555 1_555
C12 C22 1_555 1_555
C15 C20 1_555 1_555
N1B C9B 1_555 1_555
C8B C14B 1_555 1_555
C8B C18B 1_555 1_555
C10B C17B 1_555 1_555
C11B C13B 1_555 1_555
C12B C19B 1_555 1_555
C12B C22B 1_555 1_555
C15B C20B 1_555 1_555

#END
