
#######################################################################
#
#                 Cambridge Crystallographic Data Centre
#                                CCDC 
#
#######################################################################
#
# If this CIF has been generated from an entry in the Cambridge 
# Structural Database, then it will include bibliographic, chemical, 
# crystal, experimental, refinement or atomic coordinate data resulting 
# from the CCDC's data processing and validation procedures.
#
#######################################################################

data_QOSXIG
_chemical_name_common            
1,4-bis(alpha-cyano-4-diphenylaminostyryl)-2,5-diphenylbenzene
_chemical_formula_moiety         'C60 H42 N4'
_chemical_name_systematic        
3,3'-(1,1':4',1''-Terphenyl-2',5'-diyl)bis(2-(4-(diphenylamino)phenyl)acrylonitrile)
_symmetry_cell_setting           triclinic
_symmetry_space_group_name_H-M   'P -1'
_symmetry_Int_Tables_number      2
_space_group_name_Hall           '-P 1'
loop_
_symmetry_equiv_pos_site_id
_symmetry_equiv_pos_as_xyz
1 x,y,z
2 -x,-y,-z
_cell_length_a                   6.6429(13)
_cell_length_b                   10.541(2)
_cell_length_c                   16.573(3)
_cell_angle_alpha                83.88(3)
_cell_angle_beta                 86.20(3)
_cell_angle_gamma                84.05(3)
_cell_volume                     1145.87
_exptl_crystal_colour            yellow
_exptl_crystal_description       platelet
_chemical_melting_point          '306 deg.C'
_cell_formula_units_Z            1
_exptl_crystal_preparation       luminescent
loop_
_atom_site_label
_atom_site_type_symbol
_atom_site_fract_x
_atom_site_fract_y
_atom_site_fract_z
C1 C 0.6157(4) 0.5229(2) 0.42960(14)
C2 C 0.4599(3) 0.6148(2) 0.44965(13)
C3 C 0.4126(4) 0.7309(2) 0.39486(13)
C4 C 0.5425(3) 0.7995(2) 0.34753(13)
C5 C 0.4808(3) 0.9116(2) 0.29018(12)
C6 C 0.2989(4) 0.9200(2) 0.25170(14)
C7 C 0.2381(4) 1.0257(2) 0.20034(15)
C8 C 0.3546(4) 1.1282(2) 0.18544(13)
C9 C 0.5369(4) 1.1198(3) 0.22303(15)
C10 C 0.5992(4) 1.0135(2) 0.27401(14)
C11 C 0.7563(4) 0.7695(2) 0.35126(15)
C12 C 0.6604(3) 0.4098(2) 0.47795(13)
C13 C 0.8320(3) 0.3188(2) 0.45191(13)
C14 C 1.0213(4) 0.3621(3) 0.43274(14)
C15 C 1.1835(5) 0.2790(3) 0.41016(16)
C16 C 1.1594(5) 0.1535(3) 0.40437(18)
C17 C 0.9716(5) 0.1089(3) 0.42077(17)
C18 C 0.8084(5) 0.1913(3) 0.44562(15)
C19 C 0.3464(4) 1.3582(2) 0.14946(14)
C20 C 0.2551(6) 1.4179(3) 0.21409(17)
C21 C 0.3145(7) 1.5332(3) 0.2309(2)
C22 C 0.4620(6) 1.5891(3) 0.1838(2)
C23 C 0.5518(6) 1.5307(3) 0.1193(2)
C24 C 0.4937(5) 1.4155(3) 0.10164(19)
C25 C 0.2031(4) 1.2262(2) 0.05931(14)
C26 C 0.0524(5) 1.3155(3) 0.03199(18)
C27 C -0.0275(6) 1.3080(4) -0.0418(2)
C28 C 0.0427(7) 1.2131(4) -0.0884(2)
C29 C 0.1905(8) 1.1243(4) -0.0612(2)
C30 C 0.2718(7) 1.1300(3) 0.01272(19)
H1 H 0.696(4) 0.538(2) 0.3773(14)
H2 H 0.272(4) 0.762(2) 0.3926(12)
H3 H 0.213(4) 0.848(3) 0.2637(14)
H4 H 0.109(4) 1.032(2) 0.1746(15)
H5 H 0.619(4) 1.191(3) 0.2128(15)
H6 H 0.730(4) 1.006(2) 0.2998(15)
H7 H 1.038(5) 0.459(3) 0.4371(18)
H8 H 1.316(5) 0.315(3) 0.3928(19)
H9 H 1.272(5) 0.097(3) 0.3882(17)
H10 H 0.949(5) 0.020(3) 0.419(2)
H11 H 0.670(4) 0.160(3) 0.4591(15)
H12 H 0.141(5) 1.377(3) 0.2453(19)
H13 H 0.244(6) 1.572(4) 0.276(2)
H14 H 0.505(6) 1.671(4) 0.195(2)
H15 H 0.661(6) 1.568(4) 0.085(2)
H16 H 0.557(5) 1.372(3) 0.0551(19)
H17 H 0.016(4) 1.388(3) 0.0659(17)
H18 H -0.128(5) 1.377(3) -0.0587(19)
H19 H -0.009(6) 1.208(4) -0.140(3)
H20 H 0.241(6) 1.053(4) -0.090(2)
H21 H 0.373(6) 1.066(3) 0.032(2)
N1 N 0.9278(4) 0.7475(3) 0.35227(17)
N2 N 0.2884(4) 1.23687(19) 0.13381(12)
C1A C 0.3843(4) 0.4771(2) 0.57040(14)
C2A C 0.5401(3) 0.3852(2) 0.55035(13)
C3A C 0.5874(4) 0.2691(2) 0.60514(13)
C4A C 0.4575(3) 0.2005(2) 0.65247(13)
C5A C 0.5192(3) 0.0884(2) 0.70982(12)
C6A C 0.7011(4) 0.0800(2) 0.74830(14)
C7A C 0.7619(4) -0.0257(2) 0.79966(15)
C8A C 0.6454(4) -0.1282(2) 0.81456(13)
C9A C 0.4631(4) -0.1198(3) 0.77697(15)
C10A C 0.4008(4) -0.0135(2) 0.72599(14)
C11A C 0.2437(4) 0.2305(2) 0.64874(15)
C12A C 0.3396(3) 0.5902(2) 0.52205(13)
C13A C 0.1680(3) 0.6812(2) 0.54809(13)
C14A C -0.0213(4) 0.6379(3) 0.56726(14)
C15A C -0.1835(5) 0.7210(3) 0.58984(16)
C16A C -0.1594(5) 0.8465(3) 0.59563(18)
C17A C 0.0284(5) 0.8911(3) 0.57923(17)
C18A C 0.1916(5) 0.8087(3) 0.55438(15)
C19A C 0.6536(4) -0.3582(2) 0.85054(14)
C20A C 0.7449(6) -0.4179(3) 0.78591(17)
C21A C 0.6855(7) -0.5332(3) 0.7691(2)
C22A C 0.5380(6) -0.5891(3) 0.8162(2)
C23A C 0.4482(6) -0.5307(3) 0.8807(2)
C24A C 0.5063(5) -0.4155(3) 0.89836(19)
C25A C 0.7969(4) -0.2262(2) 0.94069(14)
C26A C 0.9476(5) -0.3155(3) 0.96801(18)
C27A C 1.0275(6) -0.3080(4) 1.0418(2)
C28A C 0.9573(7) -0.2131(4) 1.0884(2)
C29A C 0.8095(8) -0.1243(4) 1.0612(2)
C30A C 0.7282(7) -0.1300(3) 0.98728(19)
H1A H 0.304(4) 0.462(2) 0.6227(14)
H2A H 0.728(4) 0.238(2) 0.6074(12)
H3A H 0.787(4) 0.152(3) 0.7363(14)
H4A H 0.891(4) -0.032(2) 0.8254(15)
H5A H 0.381(4) -0.191(3) 0.7872(15)
H6A H 0.270(4) -0.006(2) 0.7002(15)
H7A H -0.038(5) 0.541(3) 0.5629(18)
H8A H -0.316(5) 0.685(3) 0.6072(19)
H9A H -0.272(5) 0.903(3) 0.6118(17)
H10A H 0.051(5) 0.980(3) 0.581(2)
H11A H 0.330(4) 0.840(3) 0.5409(15)
H12A H 0.859(5) -0.377(3) 0.7547(19)
H13A H 0.756(6) -0.572(4) 0.724(2)
H14A H 0.495(6) -0.671(4) 0.805(2)
H15A H 0.339(6) -0.568(4) 0.915(2)
H16A H 0.443(5) -0.372(3) 0.9449(19)
H17A H 0.984(4) -0.388(3) 0.9341(17)
H18A H 1.128(5) -0.377(3) 1.0587(19)
H19A H 1.009(6) -0.208(4) 1.140(3)
H20A H 0.759(6) -0.053(4) 1.090(2)
H21A H 0.627(6) -0.066(3) 0.968(2)
N1A N 0.0722(4) 0.2525(3) 0.64773(17)
N2A N 0.7116(4) -0.23687(19) 0.86619(12)
loop_
_geom_bond_atom_site_label_1
_geom_bond_atom_site_label_2
_geom_bond_site_symmetry_1
_geom_bond_site_symmetry_2
C1 C2 1_555 1_555
C2 C3 1_555 1_555
C3 C4 1_555 1_555
C4 C5 1_555 1_555
C5 C6 1_555 1_555
C6 C7 1_555 1_555
C7 C8 1_555 1_555
C8 C9 1_555 1_555
C9 C10 1_555 1_555
C10 C5 1_555 1_555
C11 C4 1_555 1_555
C12 C1 1_555 1_555
C13 C12 1_555 1_555
C14 C13 1_555 1_555
C15 C14 1_555 1_555
C16 C15 1_555 1_555
C17 C16 1_555 1_555
C18 C13 1_555 1_555
C19 C20 1_555 1_555
C20 C21 1_555 1_555
C21 C22 1_555 1_555
C22 C23 1_555 1_555
C23 C24 1_555 1_555
C24 C19 1_555 1_555
C25 C26 1_555 1_555
C26 C27 1_555 1_555
C27 C28 1_555 1_555
C28 C29 1_555 1_555
C29 C30 1_555 1_555
C30 C25 1_555 1_555
H1 C1 1_555 1_555
H2 C3 1_555 1_555
H3 C6 1_555 1_555
H4 C7 1_555 1_555
H5 C9 1_555 1_555
H6 C10 1_555 1_555
H7 C14 1_555 1_555
H8 C15 1_555 1_555
H9 C16 1_555 1_555
H10 C17 1_555 1_555
H11 C18 1_555 1_555
H12 C20 1_555 1_555
H13 C21 1_555 1_555
H14 C22 1_555 1_555
H15 C23 1_555 1_555
H16 C24 1_555 1_555
H17 C26 1_555 1_555
H18 C27 1_555 1_555
H19 C28 1_555 1_555
H20 C29 1_555 1_555
H21 C30 1_555 1_555
N1 C11 1_555 1_555
N2 C8 1_555 1_555
C1A C2A 1_555 1_555
C2A C12 1_555 1_555
C3A C2A 1_555 1_555
C4A C3A 1_555 1_555
C5A C4A 1_555 1_555
C6A C5A 1_555 1_555
C7A C6A 1_555 1_555
C8A C7A 1_555 1_555
C9A C8A 1_555 1_555
C10A C5A 1_555 1_555
C11A C4A 1_555 1_555
C12A C2 1_555 1_555
C13A C12A 1_555 1_555
C14A C13A 1_555 1_555
C15A C14A 1_555 1_555
C16A C15A 1_555 1_555
C17A C16A 1_555 1_555
C18A C13A 1_555 1_555
C19A C20A 1_555 1_555
C20A C21A 1_555 1_555
C21A C22A 1_555 1_555
C22A C23A 1_555 1_555
C23A C24A 1_555 1_555
C24A C19A 1_555 1_555
C25A C26A 1_555 1_555
C26A C27A 1_555 1_555
C27A C28A 1_555 1_555
C28A C29A 1_555 1_555
C29A C30A 1_555 1_555
C30A C25A 1_555 1_555
H1A C1A 1_555 1_555
H2A C3A 1_555 1_555
H3A C6A 1_555 1_555
H4A C7A 1_555 1_555
H5A C9A 1_555 1_555
H6A C10A 1_555 1_555
H7A C14A 1_555 1_555
H8A C15A 1_555 1_555
H9A C16A 1_555 1_555
H10A C17A 1_555 1_555
H11A C18A 1_555 1_555
H12A C20A 1_555 1_555
H13A C21A 1_555 1_555
H14A C22A 1_555 1_555
H15A C23A 1_555 1_555
H16A C24A 1_555 1_555
H17A C26A 1_555 1_555
H18A C27A 1_555 1_555
H19A C28A 1_555 1_555
H20A C29A 1_555 1_555
H21A C30A 1_555 1_555
N1A C11A 1_555 1_555
N2A C8A 1_555 1_555
C17 C18 1_555 1_555
C19 N2 1_555 1_555
C25 N2 1_555 1_555
C1A C12A 1_555 1_555
C9A C10A 1_555 1_555
C17A C18A 1_555 1_555
C19A N2A 1_555 1_555
C25A N2A 1_555 1_555

#END
