
#######################################################################
#
#                 Cambridge Crystallographic Data Centre
#                                CCDC 
#
#######################################################################
#
# If this CIF has been generated from an entry in the Cambridge 
# Structural Database, then it will include bibliographic, chemical, 
# crystal, experimental, refinement or atomic coordinate data resulting 
# from the CCDC's data processing and validation procedures.
#
#######################################################################

data_QOTCOR01
_chemical_formula_moiety         
'0.7(C10 H6 N2 O4 S2),0.7(C14 H10),0.3(C24 H16 N2 O4 S2)'
_chemical_name_systematic        
"1,4-Dithiine-tetracarboxylic N,N'-dimethyldiimide anthracene 5,15-dimethyl-2,8-dithia-5,15-diaza-11,12:17,18-dibenzopentacyclo(7.4.3.2^10,13^.0.0^3,7^)octadeca-3(7),11,17-triene-4,6,14,16-tetraone"
_symmetry_cell_setting           monoclinic
_symmetry_space_group_name_H-M   'P 21/n'
_symmetry_Int_Tables_number      14
_space_group_name_Hall           '-P 2yn'
loop_
_symmetry_equiv_pos_site_id
_symmetry_equiv_pos_as_xyz
1 x,y,z
2 1/2+x,1/2-y,1/2+z
3 -x,-y,-z
4 1/2-x,1/2+y,1/2-z
_cell_length_a                   7.1737(4)
_cell_length_b                   10.2018(5)
_cell_length_c                   13.7650(7)
_cell_angle_alpha                90
_cell_angle_beta                 92.1350(10)
_cell_angle_gamma                90
_cell_volume                     1006.69
_cell_formula_units_Z            2
loop_
_atom_site_label
_atom_site_type_symbol
_atom_site_fract_x
_atom_site_fract_y
_atom_site_fract_z
C6 C 1.0600(3) -0.0685(2) 0.08522(15)
C7 C 1.1235(4) -0.1374(4) 0.1689(3)
H4 H 1.1254(4) -0.0957(4) 0.2307(3)
C8 C 1.1834(5) -0.2666(3) 0.1610(2)
H5 H 1.2257(5) -0.3127(3) 0.2176(2)
C9 C 1.1820(5) -0.3300(3) 0.0697(3)
H6 H 1.2232(5) -0.4182(3) 0.0652(3)
C10 C 1.1215(5) -0.2646(4) -0.0118(3)
H7 H 1.1221(5) -0.3081(4) -0.0728(3)
C11 C 1.0573(4) -0.1324(2) -0.0076(2)
C12 C 1.0025(3) 0.0625(2) 0.0904(2)
H8 H 1.0043(3) 0.1050(2) 0.1518(2)
C11B C 0.9427(4) 0.1324(2) 0.0076(2)
C6B C 0.9400(3) 0.0685(2) -0.08522(15)
C7B C 0.8765(4) 0.1374(4) -0.1689(3)
H4B H 0.8746(4) 0.0957(4) -0.2307(3)
C8B C 0.8166(5) 0.2666(3) -0.1610(2)
H5B H 0.7743(5) 0.3127(3) -0.2176(2)
C9B C 0.8180(5) 0.3300(3) -0.0697(3)
H6B H 0.7768(5) 0.4182(3) -0.0652(3)
C10B C 0.8785(5) 0.2646(4) 0.0118(3)
H7B H 0.8779(5) 0.3081(4) 0.0728(3)
C12B C 0.9975(3) -0.0625(2) -0.0904(2)
H8B H 0.9957(3) -0.1050(2) -0.1518(2)
S1 S 0.5047(2) 0.07390(13) 0.12037(7)
N1 N 0.3499(4) 0.2988(3) -0.0991(2)
C1 C 0.3829(4) 0.2754(3) -0.0008(2)
C2 C 0.4442(4) 0.1359(3) 0.0084(2)
C3 C 0.5586(4) -0.0823(3) 0.0814(2)
C4 C 0.3777(4) 0.1855(3) -0.1522(2)
O1 O 0.3725(3) 0.3555(2) 0.0634(2)
O2 O 0.3631(4) 0.1771(3) -0.2398(2)
C5 C 0.2903(6) 0.4237(3) -0.1384(2)
H1 H 0.2739(35) 0.4169(7) -0.2092(3)
H2 H 0.1716(19) 0.4487(13) -0.1106(15)
H3 H 0.3848(18) 0.4903(6) -0.1221(16)
C3B C 0.4414(4) 0.0823(3) -0.0814(2)
S1B S 0.4953(2) -0.07390(13) -0.12037(7)
C2B C 0.5558(4) -0.1359(3) -0.0084(2)
C1B C 0.6171(4) -0.2754(3) 0.0008(2)
N1B N 0.6501(4) -0.2988(3) 0.0991(2)
C4B C 0.6223(4) -0.1855(3) 0.1522(2)
O2B O 0.6369(4) -0.1771(3) 0.2398(2)
C5B C 0.7097(6) -0.4237(3) 0.1384(2)
H1B H 0.7261(35) -0.4169(7) 0.2092(3)
H2B H 0.8284(19) -0.4487(13) 0.1106(15)
H3B H 0.6152(18) -0.4903(6) 0.1221(16)
O1B O 0.6275(3) -0.3555(2) -0.0634(2)
S2? S 0.4943(5) 0.0477(4) 0.1230(2)
N2? N 0.6666(12) -0.2845(22) 0.0931(16)
C13? C 0.6609(17) -0.2733(15) -0.0077(11)
C14? C 0.6779(9) -0.1233(8) -0.0217(6)
C15? C 0.6785(9) -0.0624(7) 0.0818(5)
C16? C 0.6643(18) -0.1724(20) 0.1488(13)
O3? O 0.6696(12) -0.3516(8) -0.0702(6)
O4? O 0.6665(13) -0.1582(11) 0.2355(6)
C17? C 0.6589(17) -0.4262(11) 0.1447(8)
H9? H 0.643(14) -0.4944(14) 0.0950(9)
H10? H 0.5540(88) -0.4288(36) 0.1883(57)
H11? H 0.7756(60) -0.4416(44) 0.1823(61)
S3? S 0.4665(5) -0.0770(4) -0.1168(2)
N3? N 0.3196(8) 0.2977(10) -0.0887(6)
C18? C 0.3646(10) 0.2668(13) 0.0077(9)
C19? C 0.4249(9) 0.1278(12) 0.0144(9)
C20? C 0.4152(8) 0.0796(9) -0.0764(7)
C21? C 0.3473(9) 0.1871(10) -0.1447(7)
O5? O 0.3577(11) 0.3400(9) 0.0788(7)
O6? O 0.3194(9) 0.1847(9) -0.2333(5)
C22? C 0.2550(12) 0.4229(10) -0.1254(8)
H12? H 0.263(14) 0.4880(26) -0.0730(21)
H13? H 0.1253(49) 0.4149(26) -0.1497(71)
H14? H 0.3333(93) 0.4510(50) -0.1784(53)
C23? C 1.0078(9) -0.1078(8) 0.0972(6)
C24? C 1.1181(12) -0.1697(12) 0.1687(7)
H15? H 1.1236(12) -0.1341(12) 0.2325(7)
C25? C 1.2153(16) -0.2764(12) 0.1507(10)
H16? H 1.2912(16) -0.3148(12) 0.2011(10)
C26? C 1.2076(18) -0.3335(13) 0.0585(10)
H17? H 1.2750(18) -0.4118(13) 0.0472(10)
C27? C 1.1049(17) -0.2780(14) -0.0150(10)
H18? H 1.0985(17) -0.3165(14) -0.0778(10)
C28? C 1.0086(12) -0.1625(10) 0.0042(6)
C29? C 0.8809(10) 0.0108(8) 0.1012(6)
H19? H 0.8897(10) 0.0551(8) 0.1660(6)
C30? C 0.8855(8) 0.0475(8) -0.0721(6)
C31? C 0.8853(16) 0.1294(16) -0.1551(11)
H20? H 0.8850(16) 0.0916(16) -0.2182(11)
C32? C 0.8858(13) 0.2617(11) -0.1449(8)
H21? H 0.8882(13) 0.3159(11) -0.2009(8)
C33? C 0.8826(13) 0.3202(11) -0.0508(8)
H22? H 0.8786(13) 0.4129(11) -0.0448(8)
C34? C 0.8855(11) 0.2443(11) 0.0299(8)
H23? H 0.8838(11) 0.2835(11) 0.0925(8)
C35? C 0.8909(10) 0.1048(9) 0.0205(6)
C36? C 0.8793(10) -0.0986(9) -0.0688(6)
H24? H 0.8869(10) -0.1388(9) -0.1348(6)
loop_
_geom_bond_atom_site_label_1
_geom_bond_atom_site_label_2
_geom_bond_site_symmetry_1
_geom_bond_site_symmetry_2
S1 C2 1_555 1_555
N1 C1 1_555 1_555
C1 C2 1_555 1_555
C2 C3B 1_555 1_555
C3 S1 1_555 1_555
C4 N1 1_555 1_555
O1 C1 1_555 1_555
O2 C4 1_555 1_555
C5 N1 1_555 1_555
H1 C5 1_555 1_555
H2 C5 1_555 1_555
H3 C5 1_555 1_555
C6 C7 1_555 1_555
C7 H4 1_555 1_555
C8 C7 1_555 1_555
H5 C8 1_555 1_555
C9 C8 1_555 1_555
H6 C9 1_555 1_555
C10 C9 1_555 1_555
H7 C10 1_555 1_555
C11 C6 1_555 1_555
C12 C6 1_555 1_555
H8 C12 1_555 1_555
C3B C4 1_555 1_555
S1B C3B 1_555 1_555
C2B C3 1_555 1_555
C1B C2B 1_555 1_555
N1B C1B 1_555 1_555
C4B C3 1_555 1_555
O2B C4B 1_555 1_555
C5B N1B 1_555 1_555
H1B C5B 1_555 1_555
H2B C5B 1_555 1_555
H3B C5B 1_555 1_555
O1B C1B 1_555 1_555
C11B C12 1_555 1_555
C6B C11B 1_555 1_555
C7B C6B 1_555 1_555
H4B C7B 1_555 1_555
C8B C7B 1_555 1_555
H5B C8B 1_555 1_555
C9B C8B 1_555 1_555
H6B C9B 1_555 1_555
C10B C11B 1_555 1_555
H7B C10B 1_555 1_555
C12B C11 1_555 1_555
H8B C12B 1_555 1_555
C10 C11 1_555 1_555
S1B C2B 1_555 1_555
N1B C4B 1_555 1_555
C6B C12B 1_555 1_555
C9B C10B 1_555 1_555

#END
