
#######################################################################
#
#                 Cambridge Crystallographic Data Centre
#                                CCDC 
#
#######################################################################
#
# If this CIF has been generated from an entry in the Cambridge 
# Structural Database, then it will include bibliographic, chemical, 
# crystal, experimental, refinement or atomic coordinate data resulting 
# from the CCDC's data processing and validation procedures.
#
#######################################################################

data_QOTCEH
_chemical_formula_moiety         'C10 H6 N2 O4 S2,C14 H10'
_chemical_name_systematic        
"1,4-Dithiinetetracarboxylic N,N'-dimethyldi-imide anthracene"
_symmetry_cell_setting           monoclinic
_symmetry_space_group_name_H-M   'P 21/n'
_symmetry_Int_Tables_number      14
_space_group_name_Hall           '-P 2yn'
loop_
_symmetry_equiv_pos_site_id
_symmetry_equiv_pos_as_xyz
1 x,y,z
2 1/2+x,1/2-y,1/2+z
3 -x,-y,-z
4 1/2-x,1/2+y,1/2-z
_cell_length_a                   7.1503(12)
_cell_length_b                   10.216(2)
_cell_length_c                   13.722(2)
_cell_angle_alpha                90
_cell_angle_beta                 91.438(4)
_cell_angle_gamma                90
_cell_volume                     1002.04
_exptl_crystal_colour            'bright red'
_exptl_crystal_description       needles
_cell_formula_units_Z            2
loop_
_atom_site_label
_atom_site_type_symbol
_atom_site_fract_x
_atom_site_fract_y
_atom_site_fract_z
S1 S 0.00884(5) 0.92761(3) 0.12234(2)
N1 N 0.1592(2) 1.29822(11) 0.09632(9)
O1 O 0.1480(2) 1.17523(11) 0.23798(7)
O2 O 0.1347(2) 1.35316(10) -0.06724(8)
C1 C 0.1283(2) 1.18593(13) 0.15072(10)
C2 C 0.0634(2) 1.08302(12) 0.08033(9)
C3 C -0.0577(2) 0.86433(12) 0.00938(9)
C4 C 0.1206(2) 1.27499(13) -0.00147(9)
C5 C 0.2157(2) 1.42415(14) 0.13654(11)
H1 H 0.2276(19) 1.4175(4) 0.20767(14)
H2 H 0.1213(10) 1.4902(3) 0.1191(8)
H3 H 0.3364(9) 1.4497(6) 0.1100(8)
C3B C 0.0577(2) 1.13567(12) -0.00938(9)
S1B S -0.00884(5) 1.07239(3) -0.12234(2)
C2B C -0.0634(2) 0.91698(12) -0.08033(9)
C1B C -0.1283(2) 0.81407(13) -0.15072(10)
N1B N -0.1592(2) 0.70178(11) -0.09632(9)
C4B C -0.1206(2) 0.72501(13) 0.00147(9)
O2B O -0.1347(2) 0.64684(10) 0.06724(8)
C5B C -0.2157(2) 0.57585(14) -0.13654(11)
H1B H -0.2276(19) 0.5825(4) -0.20767(14)
H2B H -0.1213(10) 0.5098(3) -0.1191(8)
H3B H -0.3364(9) 0.5503(6) -0.1100(8)
O1B O -0.1480(2) 0.82477(11) -0.23798(7)
C6 C 0.5603(2) 1.06736(14) 0.08519(10)
C7 C 0.6243(2) 1.1390(2) 0.16901(11)
H4 H 0.6261(2) 1.0981(2) 0.23119(11)
C8 C 0.6828(2) 1.2654(2) 0.16077(12)
H5 H 0.7257(2) 1.3113(2) 0.21725(12)
C9 C 0.6806(2) 1.3294(2) 0.06891(13)
H6 H 0.7218(2) 1.4175(2) 0.06439(13)
C10 C 0.6195(2) 1.26471(15) -0.01305(12)
H7 H 0.6180(2) 1.30833(15) -0.07421(12)
C11 C 0.5577(2) 1.13201(14) -0.00742(10)
C12 C 0.5024(2) 0.93695(14) 0.09040(10)
H8 H 0.5040(2) 0.89412(14) 0.15186(10)
C11B C 0.4423(2) 0.86799(14) 0.00742(10)
C6B C 0.4397(2) 0.93264(14) -0.08519(10)
C7B C 0.3757(2) 0.8610(2) -0.16901(11)
H4B H 0.3739(2) 0.9019(2) -0.23119(11)
C8B C 0.3172(2) 0.7346(2) -0.16077(12)
H5B H 0.2743(2) 0.6887(2) -0.21725(12)
C9B C 0.3194(2) 0.6706(2) -0.06891(13)
H6B H 0.2782(2) 0.5825(2) -0.06439(13)
C10B C 0.3805(2) 0.73529(15) 0.01305(12)
H7B H 0.3820(2) 0.69167(15) 0.07421(12)
C12B C 0.4976(2) 1.06305(14) -0.09040(10)
H8B H 0.4960(2) 1.10588(14) -0.15186(10)
loop_
_geom_bond_atom_site_label_1
_geom_bond_atom_site_label_2
_geom_bond_site_symmetry_1
_geom_bond_site_symmetry_2
S1 C2 1_555 1_555
N1 C1 1_555 1_555
O1 C1 1_555 1_555
O2 C4 1_555 1_555
C1 C2 1_555 1_555
C2 C3B 1_555 1_555
C3 S1 1_555 1_555
C4 N1 1_555 1_555
C5 N1 1_555 1_555
H1 C5 1_555 1_555
H2 C5 1_555 1_555
H3 C5 1_555 1_555
C6 C7 1_555 1_555
C7 H4 1_555 1_555
C8 C7 1_555 1_555
H5 C8 1_555 1_555
C9 C8 1_555 1_555
H6 C9 1_555 1_555
C10 C9 1_555 1_555
H7 C10 1_555 1_555
C11 C6 1_555 1_555
C12 C6 1_555 1_555
H8 C12 1_555 1_555
C3B C4 1_555 1_555
S1B C3B 1_555 1_555
C2B C3 1_555 1_555
C1B C2B 1_555 1_555
N1B C1B 1_555 1_555
C4B C3 1_555 1_555
O2B C4B 1_555 1_555
C5B N1B 1_555 1_555
H1B C5B 1_555 1_555
H2B C5B 1_555 1_555
H3B C5B 1_555 1_555
O1B C1B 1_555 1_555
C11B C12 1_555 1_555
C6B C11B 1_555 1_555
C7B C6B 1_555 1_555
H4B C7B 1_555 1_555
C8B C7B 1_555 1_555
H5B C8B 1_555 1_555
C9B C8B 1_555 1_555
H6B C9B 1_555 1_555
C10B C11B 1_555 1_555
H7B C10B 1_555 1_555
C12B C11 1_555 1_555
H8B C12B 1_555 1_555
C10 C11 1_555 1_555
S1B C2B 1_555 1_555
N1B C4B 1_555 1_555
C6B C12B 1_555 1_555
C9B C10B 1_555 1_555

#END
