
#######################################################################
#
#                 Cambridge Crystallographic Data Centre
#                                CCDC 
#
#######################################################################
#
# If this CIF has been generated from an entry in the Cambridge 
# Structural Database, then it will include bibliographic, chemical, 
# crystal, experimental, refinement or atomic coordinate data resulting 
# from the CCDC's data processing and validation procedures.
#
#######################################################################

data_QOTDUA
_chemical_formula_moiety         'C48 H48 N32 O16,2(C7 H12 N2 O3 S1),16(H2 O1)'
_chemical_name_systematic        
'Cucurbit(8)uril bis(1-methyl-3-(3-sulfonatopropyl)imidazolium) hexadecahydrate'
_symmetry_cell_setting           monoclinic
_symmetry_space_group_name_H-M   'P 21/c'
_symmetry_Int_Tables_number      14
_space_group_name_Hall           '-P 2ybc'
loop_
_symmetry_equiv_pos_site_id
_symmetry_equiv_pos_as_xyz
1 x,y,z
2 -x,1/2+y,1/2-z
3 -x,-y,-z
4 x,1/2-y,1/2+z
_cell_length_a                   14.129(11)
_cell_length_b                   13.659(11)
_cell_length_c                   23.409(18)
_cell_angle_alpha                90
_cell_angle_beta                 98.567(10)
_cell_angle_gamma                90
_cell_volume                     4467.25
_cell_formula_units_Z            2
loop_
_atom_site_label
_atom_site_type_symbol
_atom_site_fract_x
_atom_site_fract_y
_atom_site_fract_z
N1 N 0.1716(3) 0.5856(3) -0.17156(14)
N2 N 0.1522(3) 0.7197(3) -0.12177(14)
N3 N 0.1004(3) 0.4841(3) -0.10428(15)
N4 N 0.0994(3) 0.6151(3) -0.04838(14)
N5 N 0.2078(3) 0.8332(3) -0.04507(14)
N6 N 0.3131(3) 0.8937(3) 0.02544(13)
N7 N 0.1442(3) 0.7351(3) 0.02739(14)
N8 N 0.2396(3) 0.8088(2) 0.09839(13)
N9 N 0.4575(3) 0.9056(2) 0.09532(13)
N10 N 0.6019(3) 0.8791(3) 0.14343(14)
N11 N 0.3805(3) 0.8291(2) 0.17017(13)
N12 N 0.5254(3) 0.7829(3) 0.21086(14)
N13 N 0.7499(3) 0.7876(3) 0.16155(14)
N14 N 0.8435(3) 0.6627(3) 0.14575(14)
N15 N 0.7661(3) 0.5609(3) 0.21037(13)
N16 N 0.6700(3) 0.6844(3) 0.22435(14)
O1 O 0.5868(2) 0.8947(2) 0.04526(11)
O2 O 0.3958(2) 0.6845(2) 0.22092(12)
O3 O 0.3550(2) 0.8817(3) -0.06573(12)
O4 O 0.1775(3) 0.6572(2) 0.11536(13)
O5 O 0.2647(2) 0.7208(2) -0.18390(13)
O6 O 0.1142(2) 0.4625(2) -0.00540(12)
O7 O 0.6206(2) 0.5265(2) 0.23929(12)
O8 O 0.8155(2) 0.7845(2) 0.07722(12)
C1 C 0.1567(3) 0.8322(3) 0.00429(16)
H1 H 0.0964 0.8686 -0.0031
C2 C 0.5523(3) 0.8935(3) 0.09000(16)
C3 C 0.1606(4) 0.8200(3) -0.10409(18)
H2 H 0.0971 0.8486 -0.1078
H3 H 0.1962 0.8553 -0.1299
C4 C 0.0793(3) 0.6551(3) -0.10610(18)
H4 H 0.0155 0.6850 -0.1136
C5 C 0.2973(3) 0.8700(3) -0.03234(17)
C6 C 0.4432(3) 0.9067(3) 0.15534(15)
H5 H 0.4222 0.9712 0.1669
C7 C 0.5956(3) 0.7340(4) 0.25118(17)
H6 H 0.5638 0.6861 0.2723
H7 H 0.6259 0.7816 0.2788
C8 C 0.6797(3) 0.5849(3) 0.22625(16)
C9 C 0.1054(3) 0.5153(3) -0.04805(18)
C10 C 0.2290(3) 0.8798(3) 0.05266(16)
H8 H 0.2049 0.9422 0.0653
C11 C 0.1865(3) 0.7270(3) 0.08347(17)
C12 C 0.5415(3) 0.8798(3) 0.18784(16)
H9 H 0.5636 0.9269 0.2185
C13 C 0.2779(3) 0.8327(3) 0.15753(16)
H10 H 0.2568 0.8980 0.1660
H11 H 0.2514 0.7875 0.1830
C14 C 0.8041(3) 0.7492(3) 0.12355(17)
C15 C 0.4305(3) 0.7580(3) 0.20232(16)
C16 C 0.7573(3) 0.7322(3) 0.21434(16)
H12 H 0.7846 0.7718 0.2477
C17 C 0.0869(3) 0.5645(3) -0.14471(18)
H13 H 0.0296 0.5559 -0.1735
C18 C 0.2024(3) 0.6799(3) -0.16148(17)
C19 C 0.0723(3) 0.6677(3) 0.00123(18)
H14 H 0.0136 0.7035 -0.0112
H15 H 0.0595 0.6204 0.0300
C20 C 0.8242(3) 0.6459(3) 0.20423(17)
H16 H 0.8831 0.6459 0.2323
C21 C 0.3925(3) 0.9540(3) 0.05052(17)
H17 H 0.3675 1.0124 0.0666
H18 H 0.4279 0.9746 0.0202
C22 C 0.8087(4) 0.4660(3) 0.22255(17)
H19 H 0.7661 0.4265 0.2419
H20 H 0.8681 0.4739 0.2489
C23 C 0.0799(3) 0.3845(3) -0.1218(2)
H21 H 0.0226 0.3834 -0.1503
H22 H 0.0668 0.3473 -0.0885
C24 C 0.7046(3) 0.8830(3) 0.15456(19)
H23 H 0.7239 0.9211 0.1894
H24 H 0.7276 0.9168 0.1228
N1B N 0.8284(3) 0.4144(3) 0.17156(14)
N2B N 0.8478(3) 0.2803(3) 0.12177(14)
N3B N 0.8996(3) 0.5159(3) 0.10428(15)
N4B N 0.9006(3) 0.3849(3) 0.04838(14)
N5B N 0.7922(3) 0.1668(3) 0.04507(14)
N6B N 0.6869(3) 0.1063(3) -0.02544(13)
N7B N 0.8558(3) 0.2649(3) -0.02739(14)
N8B N 0.7604(3) 0.1912(2) -0.09839(13)
N9B N 0.5425(3) 0.0944(2) -0.09532(13)
N10B N 0.3981(3) 0.1209(3) -0.14343(14)
N11B N 0.6195(3) 0.1709(2) -0.17017(13)
N12B N 0.4746(3) 0.2171(3) -0.21086(14)
N13B N 0.2501(3) 0.2124(3) -0.16155(14)
N14B N 0.1565(3) 0.3373(3) -0.14575(14)
N15B N 0.2339(3) 0.4391(3) -0.21037(13)
N16B N 0.3300(3) 0.3156(3) -0.22435(14)
O1B O 0.4132(2) 0.1053(2) -0.04526(11)
O2B O 0.6042(2) 0.3155(2) -0.22092(12)
O3B O 0.6450(2) 0.1183(3) 0.06573(12)
O4B O 0.8225(3) 0.3428(2) -0.11536(13)
O5B O 0.7353(2) 0.2792(2) 0.18390(13)
O6B O 0.8858(2) 0.5375(2) 0.00540(12)
O7B O 0.3794(2) 0.4735(2) -0.23929(12)
O8B O 0.1845(2) 0.2155(2) -0.07722(12)
C1B C 0.8433(3) 0.1678(3) -0.00429(16)
H1B H 0.9036 0.1314 0.0031
C2B C 0.4477(3) 0.1065(3) -0.09000(16)
C3B C 0.8394(4) 0.1800(3) 0.10409(18)
H2B H 0.9029 0.1514 0.1078
H3B H 0.8038 0.1447 0.1299
C4B C 0.9207(3) 0.3449(3) 0.10610(18)
H4B H 0.9845 0.3150 0.1136
C5B C 0.7027(3) 0.1300(3) 0.03234(17)
C6B C 0.5568(3) 0.0933(3) -0.15534(15)
H5B H 0.5778 0.0288 -0.1669
C7B C 0.4044(3) 0.2660(4) -0.25118(17)
H6B H 0.4362 0.3139 -0.2723
H7B H 0.3741 0.2184 -0.2788
C8B C 0.3203(3) 0.4151(3) -0.22625(16)
C9B C 0.8946(3) 0.4847(3) 0.04805(18)
C10B C 0.7710(3) 0.1202(3) -0.05266(16)
H8B H 0.7951 0.0578 -0.0653
C11B C 0.8135(3) 0.2730(3) -0.08347(17)
C12B C 0.4585(3) 0.1202(3) -0.18784(16)
H9B H 0.4364 0.0731 -0.2185
C13B C 0.7221(3) 0.1673(3) -0.15753(16)
H10B H 0.7432 0.1020 -0.1660
H11B H 0.7486 0.2125 -0.1830
C14B C 0.1959(3) 0.2508(3) -0.12355(17)
C15B C 0.5695(3) 0.2420(3) -0.20232(16)
C16B C 0.2427(3) 0.2678(3) -0.21434(16)
H12B H 0.2154 0.2282 -0.2477
C17B C 0.9131(3) 0.4355(3) 0.14471(18)
H13B H 0.9704 0.4441 0.1735
C18B C 0.7976(3) 0.3201(3) 0.16148(17)
C19B C 0.9277(3) 0.3323(3) -0.00123(18)
H14B H 0.9864 0.2965 0.0112
H15B H 0.9405 0.3796 -0.0300
C20B C 0.1758(3) 0.3541(3) -0.20423(17)
H16B H 0.1169 0.3541 -0.2323
C21B C 0.6075(3) 0.0460(3) -0.05052(17)
H17B H 0.6325 -0.0124 -0.0666
H18B H 0.5721 0.0254 -0.0202
C22B C 0.1913(4) 0.5340(3) -0.22255(17)
H19B H 0.2339 0.5735 -0.2419
H20B H 0.1319 0.5261 -0.2489
C23B C 0.9201(3) 0.6155(3) 0.1218(2)
H21B H 0.9774 0.6166 0.1503
H22B H 0.9332 0.6527 0.0885
C24B C 0.2954(3) 0.1170(3) -0.15456(19)
H23B H 0.2761 0.0789 -0.1894
H24B H 0.2724 0.0832 -0.1228
N17 N 0.3698(4) 0.5102(4) -0.0032(3)
N18 N 0.3880(4) 0.3578(4) 0.0197(2)
O9 O 0.1529(3) 0.2511(3) 0.15050(16)
O10 O 0.0798(2) 0.1511(3) 0.07273(14)
O11 O 0.2022(4) 0.0834(3) 0.14382(19)
S1 S 0.16478(10) 0.16937(10) 0.11349(5)
C25 C 0.3642(5) 0.4555(6) -0.0519(3)
H25 H 0.3536 0.4800 -0.0894
C26 C 0.3437(5) 0.2402(6) 0.0953(3)
H26 H 0.3647 0.1742 0.1034
H27 H 0.3511 0.2534 0.1347
C27 C 0.4122(5) 0.2661(6) 0.0552(3)
H28 H 0.4158 0.2116 0.0290
H29 H 0.4752 0.2742 0.0777
C28 C 0.3609(5) 0.6148(6) 0.0021(4)
H30 H 0.4002 0.6366 0.0368
H31 H 0.2954 0.6313 0.0038
H32 H 0.3813 0.6461 -0.0307
C29 C 0.2519(4) 0.2095(6) 0.0676(3)
H33 H 0.2261 0.2745 0.0672
H34 H 0.2375 0.2068 0.0276
C30 C 0.3864(5) 0.4476(6) 0.0410(3)
H35 H 0.3953 0.4641 0.0800
C31 C 0.3760(5) 0.3621(6) -0.0381(3)
H36 H 0.3760 0.3097 -0.0635
O12 O 0.4489(3) 0.6114(3) 0.33858(16)
H37 H 0.4231 0.6363 0.3068
H38 H 0.4115 0.6193 0.3635
O13 O 0.1027(3) 0.4458(3) 0.46830(16)
H39 H 0.1286 0.4011 0.4506
H40 H 0.0929 0.4229 0.5007
O14 O 0.0427(4) 0.9357(4) 0.1269(2)
H41 H 0.0845 0.9808 0.1281
H42 H 0.0016 0.9438 0.0969
O15 O 0.3708(6) 0.4922(4) 0.1736(3)
H43 H 0.3784 0.5498 0.1872
H44 H 0.3115 0.4832 0.1622
O16 O 0.1440(6) 0.4525(5) 0.1291(3)
H45 H 0.1821 0.5007 0.1289
H46 H 0.1764 0.4007 0.1377
O17 O 0.4488(4) 0.6239(4) 0.8473(3)
H47 H 0.3994 0.6603 0.8424
H48 H 0.4389 0.5762 0.8238
O18 O 0.1552(8) 0.6191(8) 0.2432(4)
H49 H 0.1612 0.6296 0.2081
H50 H 0.1857 0.6632 0.2639
O19 O 0.0043(7) 0.8019(8) 0.2298(5)
H51 H 0.0150 0.8388 0.2022
H52 H 0.0446 0.7553 0.2330
loop_
_geom_bond_atom_site_label_1
_geom_bond_atom_site_label_2
_geom_bond_site_symmetry_1
_geom_bond_site_symmetry_2
N1 C17 1_555 1_555
N2 C3 1_555 1_555
N3 C9 1_555 1_555
N4 C4 1_555 1_555
N5 C1 1_555 1_555
N6 C5 1_555 1_555
N7 C1 1_555 1_555
N8 C10 1_555 1_555
N9 C2 1_555 1_555
N10 C2 1_555 1_555
N11 C6 1_555 1_555
N12 C7 1_555 1_555
N13 C14 1_555 1_555
N14 C14 1_555 1_555
N15 C8 1_555 1_555
N16 C7 1_555 1_555
O1 C2 1_555 1_555
O2 C15 1_555 1_555
O3 C5 1_555 1_555
O4 C11 1_555 1_555
O5 C18 1_555 1_555
O6 C9 1_555 1_555
O7 C8 1_555 1_555
O8 C14 1_555 1_555
C1 H1 1_555 1_555
C3 N5 1_555 1_555
H2 C3 1_555 1_555
H3 C3 1_555 1_555
C4 N2 1_555 1_555
H4 C4 1_555 1_555
C5 N5 1_555 1_555
C6 N9 1_555 1_555
H5 C6 1_555 1_555
C7 H6 1_555 1_555
H7 C7 1_555 1_555
C8 N16 1_555 1_555
C9 N4 1_555 1_555
C10 N6 1_555 1_555
H8 C10 1_555 1_555
C11 N7 1_555 1_555
C12 N10 1_555 1_555
H9 C12 1_555 1_555
C13 N8 1_555 1_555
H10 C13 1_555 1_555
H11 C13 1_555 1_555
C15 N11 1_555 1_555
C16 N13 1_555 1_555
H12 C16 1_555 1_555
C17 N3 1_555 1_555
H13 C17 1_555 1_555
C18 N1 1_555 1_555
C19 N4 1_555 1_555
H14 C19 1_555 1_555
H15 C19 1_555 1_555
C20 N14 1_555 1_555
H16 C20 1_555 1_555
C21 N6 1_555 1_555
H17 C21 1_555 1_555
H18 C21 1_555 1_555
C22 N15 1_555 1_555
H19 C22 1_555 1_555
H20 C22 1_555 1_555
C23 N3 1_555 1_555
H21 C23 1_555 1_555
H22 C23 1_555 1_555
C24 N10 1_555 1_555
H23 C24 1_555 1_555
H24 C24 1_555 1_555
N17 C25 1_555 1_555
N18 C27 1_555 1_555
O9 S1 1_555 1_555
O10 S1 1_555 1_555
O11 S1 1_555 1_555
S1 C29 1_555 1_555
C25 H25 1_555 1_555
C26 H26 1_555 1_555
H27 C26 1_555 1_555
C27 C26 1_555 1_555
H28 C27 1_555 1_555
H29 C27 1_555 1_555
C28 N17 1_555 1_555
H30 C28 1_555 1_555
H31 C28 1_555 1_555
H32 C28 1_555 1_555
C29 C26 1_555 1_555
H33 C29 1_555 1_555
H34 C29 1_555 1_555
C30 N17 1_555 1_555
H35 C30 1_555 1_555
C31 N18 1_555 1_555
H36 C31 1_555 1_555
O12 H37 1_555 1_555
H38 O12 1_555 1_555
O13 H39 1_555 1_555
H40 O13 1_555 1_555
O14 H41 1_555 1_555
H42 O14 1_555 1_555
O15 H43 1_555 1_555
H44 O15 1_555 1_555
O16 H45 1_555 1_555
H46 O16 1_555 1_555
O17 H47 1_555 1_555
H48 O17 1_555 1_555
O18 H49 1_555 1_555
H50 O18 1_555 1_555
O19 H51 1_555 1_555
H52 O19 1_555 1_555
N1B C22 1_555 1_555
N2B C3B 1_555 1_555
N3B C9B 1_555 1_555
N4B C4B 1_555 1_555
N5B C1B 1_555 1_555
N6B C5B 1_555 1_555
N7B C1B 1_555 1_555
N8B C10B 1_555 1_555
N9B C2B 1_555 1_555
N10B C2B 1_555 1_555
N11B C6B 1_555 1_555
N12B C7B 1_555 1_555
N13B C14B 1_555 1_555
N14B C23 1_555 1_555
N15B C8B 1_555 1_555
N16B C7B 1_555 1_555
O1B C2B 1_555 1_555
O2B C15B 1_555 1_555
O3B C5B 1_555 1_555
O4B C11B 1_555 1_555
O5B C18B 1_555 1_555
O6B C9B 1_555 1_555
O7B C8B 1_555 1_555
O8B C14B 1_555 1_555
C1B H1B 1_555 1_555
C3B N5B 1_555 1_555
H2B C3B 1_555 1_555
H3B C3B 1_555 1_555
C4B N2B 1_555 1_555
H4B C4B 1_555 1_555
C5B N5B 1_555 1_555
C6B N9B 1_555 1_555
H5B C6B 1_555 1_555
C7B H6B 1_555 1_555
H7B C7B 1_555 1_555
C8B N16B 1_555 1_555
C9B N4B 1_555 1_555
C10B N6B 1_555 1_555
H8B C10B 1_555 1_555
C11B N7B 1_555 1_555
C12B N10B 1_555 1_555
H9B C12B 1_555 1_555
C13B N8B 1_555 1_555
H10B C13B 1_555 1_555
H11B C13B 1_555 1_555
C14B N14B 1_555 1_555
C15B N11B 1_555 1_555
C16B N13B 1_555 1_555
H12B C16B 1_555 1_555
C17B N1B 1_555 1_555
H13B C17B 1_555 1_555
C18B N1B 1_555 1_555
C19B N4B 1_555 1_555
H14B C19B 1_555 1_555
H15B C19B 1_555 1_555
C20B N14B 1_555 1_555
H16B C20B 1_555 1_555
C21B N6B 1_555 1_555
H17B C21B 1_555 1_555
H18B C21B 1_555 1_555
C22B N1 1_555 1_555
H19B C22B 1_555 1_555
H20B C22B 1_555 1_555
C23B N14 1_555 1_555
H21B C23B 1_555 1_555
H22B C23B 1_555 1_555
C24B N10B 1_555 1_555
H23B C24B 1_555 1_555
H24B C24B 1_555 1_555
N2 C18 1_555 1_555
N7 C19 1_555 1_555
N8 C11 1_555 1_555
N9 C21 1_555 1_555
N11 C13 1_555 1_555
N12 C12 1_555 1_555
N12 C15 1_555 1_555
N13 C24 1_555 1_555
N15 C20 1_555 1_555
N16 C16 1_555 1_555
C1 C10 1_555 1_555
C4 C17 1_555 1_555
C6 C12 1_555 1_555
C16 C20 1_555 1_555
N18 C30 1_555 1_555
C25 C31 1_555 1_555
N2B C18B 1_555 1_555
N3B C17B 1_555 1_555
N3B C23B 1_555 1_555
N7B C19B 1_555 1_555
N8B C11B 1_555 1_555
N9B C21B 1_555 1_555
N11B C13B 1_555 1_555
N12B C12B 1_555 1_555
N12B C15B 1_555 1_555
N13B C24B 1_555 1_555
N15B C20B 1_555 1_555
N15B C22B 1_555 1_555
N16B C16B 1_555 1_555
C1B C10B 1_555 1_555
C4B C17B 1_555 1_555
C6B C12B 1_555 1_555
C16B C20B 1_555 1_555

#END
