
#######################################################################
#
#                 Cambridge Crystallographic Data Centre
#                                CCDC 
#
#######################################################################
#
# If this CIF has been generated from an entry in the Cambridge 
# Structural Database, then it will include bibliographic, chemical, 
# crystal, experimental, refinement or atomic coordinate data resulting 
# from the CCDC's data processing and validation procedures.
#
#######################################################################

data_QOTFAI
_chemical_formula_moiety         'C48 H48 N32 O16,4(H3 O4 P1)'
_chemical_name_systematic        'Cucurbit(8)uril tetrakis(phosphoric acid)'
_symmetry_cell_setting           tetragonal
_symmetry_space_group_name_H-M   'I 41/a'
_symmetry_Int_Tables_number      88
_space_group_name_Hall           '-I 4ad'
loop_
_symmetry_equiv_pos_site_id
_symmetry_equiv_pos_as_xyz
1 x,y,z
2 1/2-x,-y,1/2+z
3 3/4-y,1/4+x,1/4+z
4 3/4+y,3/4-x,3/4+z
5 1/2+x,1/2+y,1/2+z
6 -x,1/2-y,z
7 1/4-y,3/4+x,3/4+z
8 1/4+y,1/4-x,1/4+z
9 -x,-y,-z
10 1/2+x,y,1/2-z
11 1/4+y,3/4-x,3/4-z
12 1/4-y,1/4+x,1/4-z
13 1/2-x,1/2-y,1/2-z
14 x,1/2+y,-z
15 3/4+y,1/4-x,1/4-z
16 3/4-y,3/4+x,3/4-z
_cell_length_a                   28.304(8)
_cell_length_b                   28.304(8)
_cell_length_c                   22.126(7)
_cell_angle_alpha                90
_cell_angle_beta                 90
_cell_angle_gamma                90
_cell_volume                     17725.5
_cell_formula_units_Z            8
loop_
_atom_site_label
_atom_site_type_symbol
_atom_site_fract_x
_atom_site_fract_y
_atom_site_fract_z
C1 C 0.37236(14) 0.76252(14) 0.4987(2)
H1 H 0.3845 0.7719 0.5384
C2 C 0.29619(14) 0.86284(14) 0.49681(18)
H2 H 0.3087 0.8721 0.5364
C3 C 0.25799(14) 0.89730(14) 0.47431(18)
H3 H 0.2535 0.9238 0.5023
C4 C 0.17032(14) 0.94577(15) 0.37757(18)
H4 H 0.1667 0.9724 0.4055
C5 C 0.13735(14) 0.95031(14) 0.32191(17)
H5 H 0.1178 0.9788 0.3240
C6 C 0.08883(14) 0.91393(15) 0.17803(18)
H6 H 0.0672 0.9410 0.1766
C7 C 0.08314(15) 0.88160(14) 0.12155(18)
H7 H 0.0578 0.8926 0.0948
C8 C 0.10431(15) 0.78439(15) 0.0237(2)
H8 H 0.0808 0.7966 -0.0048
C9 C 0.31472(15) 0.70395(14) 0.48706(18)
C10 C 0.37943(16) 0.84735(15) 0.4606(2)
H9 H 0.3891 0.8559 0.5012
H10 H 0.4004 0.8634 0.4326
C11 C 0.28906(16) 0.77816(15) 0.5328(2)
H11 H 0.3035 0.7899 0.5697
H12 H 0.2630 0.7579 0.5444
C12 C 0.22361(15) 0.82354(14) 0.48685(17)
C13 C 0.32085(15) 0.89528(14) 0.40577(18)
C14 C 0.25897(14) 0.95430(14) 0.38590(19)
H13 H 0.2833 0.9669 0.3596
H14 H 0.2516 0.9782 0.4158
C15 C 0.16835(14) 0.88792(16) 0.46551(18)
H15 H 0.1462 0.8642 0.4795
H16 H 0.1658 0.9151 0.4921
C16 C 0.11940(15) 0.88101(16) 0.3742(2)
C17 C 0.21579(14) 0.95026(13) 0.28898(17)
C18 C 0.15675(14) 0.96701(14) 0.21069(17)
H17 H 0.1332 0.9918 0.2139
H18 H 0.1842 0.9802 0.1906
C19 C 0.06764(15) 0.90089(18) 0.28785(19)
H19 H 0.0509 0.9307 0.2844
H20 H 0.0468 0.8786 0.3077
C20 C 0.06656(15) 0.83878(16) 0.2093(2)
C21 C 0.15832(14) 0.91392(13) 0.12263(17)
C22 C 0.13746(17) 0.86631(14) 0.03304(19)
H21 H 0.1110 0.8748 0.0073
H22 H 0.1655 0.8813 0.0166
C23 C 0.04941(15) 0.79876(16) 0.1127(2)
H23 H 0.0304 0.7794 0.1395
H24 H 0.0284 0.8132 0.0833
C24 C 0.08762(14) 0.72334(16) 0.0924(2)
N1 N 0.27046(12) 0.81766(12) 0.49965(16)
N2 N 0.21608(12) 0.86892(12) 0.46905(15)
N3 N 0.33205(12) 0.86357(12) 0.45076(16)
N4 N 0.27712(12) 0.91297(12) 0.41621(15)
N5 N 0.21705(11) 0.94463(12) 0.35042(15)
N6 N 0.17026(11) 0.95194(12) 0.27125(14)
N7 N 0.10899(12) 0.90769(13) 0.32477(15)
N8 N 0.07854(12) 0.88361(13) 0.22788(16)
N9 N 0.07238(12) 0.83612(13) 0.14814(17)
N10 N 0.13775(12) 0.92882(12) 0.17381(15)
N11 N 0.12894(12) 0.88506(12) 0.09317(15)
N12 N 0.08278(13) 0.76894(13) 0.08153(17)
N13 N 0.14379(12) 0.81559(11) 0.03041(15)
N14 N 0.32280(12) 0.75060(11) 0.50153(16)
N15 N 0.38478(12) 0.79632(12) 0.45292(17)
N16 N 0.15576(12) 0.90200(12) 0.40431(15)
O1 O 0.34677(15) 0.90520(17) 0.3645(2)
O2 O 0.25038(10) 0.95309(12) 0.25640(13)
O3 O 0.19814(10) 0.92603(11) 0.10451(13)
O4 O 0.07003(12) 0.70142(12) 0.13482(17)
O5 O 0.05163(15) 0.80687(13) 0.24219(17)
O6 O 0.09963(12) 0.84475(13) 0.38909(15)
O7 O 0.19378(16) 0.79233(16) 0.4908(2)
O8 O 0.27682(11) 0.68457(11) 0.48996(15)
C1L C 0.12764(14) 0.73748(14) 0.0013(2)
H1L H 0.1155 0.7281 -0.0384
C2L C 0.20381(14) 0.63716(14) 0.00319(18)
H2L H 0.1913 0.6279 -0.0364
C3L C 0.24201(14) 0.60270(14) 0.02569(18)
H3L H 0.2465 0.5762 -0.0023
C4L C 0.32968(14) 0.55423(15) 0.12243(18)
H4L H 0.3333 0.5276 0.0945
C5L C 0.36265(14) 0.54969(14) 0.17809(17)
H5L H 0.3822 0.5212 0.1760
C6L C 0.41117(14) 0.58607(15) 0.32197(18)
H6L H 0.4328 0.5590 0.3234
C7L C 0.41686(15) 0.61840(14) 0.37845(18)
H7L H 0.4422 0.6074 0.4052
C8L C 0.39569(15) 0.71561(15) 0.4763(2)
H8L H 0.4192 0.7034 0.5048
C9L C 0.18528(15) 0.79605(14) 0.01294(18)
C10L C 0.12057(16) 0.65265(15) 0.0394(2)
H9L H 0.1109 0.6441 -0.0012
H10L H 0.0996 0.6366 0.0674
C11L C 0.21094(16) 0.72184(15) -0.0328(2)
H11L H 0.1965 0.7101 -0.0697
H12L H 0.2370 0.7421 -0.0444
C12L C 0.27639(15) 0.67646(14) 0.01315(17)
C13L C 0.17915(15) 0.60472(14) 0.09423(18)
C14L C 0.24103(14) 0.54570(14) 0.11410(19)
H13L H 0.2167 0.5331 0.1404
H14L H 0.2484 0.5218 0.0842
C15L C 0.33165(14) 0.61208(16) 0.03449(18)
H15L H 0.3538 0.6358 0.0205
H16L H 0.3342 0.5849 0.0079
C16L C 0.38060(15) 0.61899(16) 0.1258(2)
C17L C 0.28421(14) 0.54974(13) 0.21102(17)
C18L C 0.34325(14) 0.53299(14) 0.28931(17)
H17L H 0.3668 0.5082 0.2861
H18L H 0.3158 0.5198 0.3094
C19L C 0.43236(15) 0.59911(18) 0.21215(19)
H19L H 0.4491 0.5693 0.2156
H20L H 0.4532 0.6214 0.1923
C20L C 0.43344(15) 0.66122(16) 0.2907(2)
C21L C 0.34168(14) 0.58608(13) 0.37737(17)
C22L C 0.36254(17) 0.63369(14) 0.46696(19)
H21L H 0.3890 0.6252 0.4927
H22L H 0.3345 0.6187 0.4834
C23L C 0.45059(15) 0.70124(16) 0.3873(2)
H23L H 0.4696 0.7206 0.3605
H24L H 0.4716 0.6868 0.4167
C24L C 0.41238(14) 0.77666(16) 0.4076(2)
N1L N 0.22954(12) 0.68234(12) 0.00035(16)
N2L N 0.28392(12) 0.63108(12) 0.03095(15)
N3L N 0.16795(12) 0.63643(12) 0.04924(16)
N4L N 0.22288(12) 0.58703(12) 0.08379(15)
N5L N 0.28295(11) 0.55537(12) 0.14958(15)
N6L N 0.32974(11) 0.54806(12) 0.22875(14)
N7L N 0.39101(12) 0.59231(13) 0.17523(15)
N8L N 0.42146(12) 0.61639(13) 0.27212(16)
N9L N 0.42762(12) 0.66388(13) 0.35186(17)
N10L N 0.36225(12) 0.57118(12) 0.32619(15)
N11L N 0.37106(12) 0.61494(12) 0.40683(15)
N12L N 0.41722(13) 0.73106(13) 0.41847(17)
N13L N 0.35621(12) 0.68441(11) 0.46959(15)
N14L N 0.17720(12) 0.74940(11) -0.00153(16)
N15L N 0.11522(12) 0.70368(12) 0.04708(17)
N16L N 0.34424(12) 0.59800(12) 0.09569(15)
O1L O 0.15323(15) 0.59480(17) 0.1355(2)
O2L O 0.24962(10) 0.54691(12) 0.24360(13)
O3L O 0.30186(10) 0.57397(11) 0.39549(13)
O4L O 0.42997(12) 0.79858(12) 0.36518(17)
O5L O 0.44837(15) 0.69313(13) 0.25781(17)
O6L O 0.40037(12) 0.65525(13) 0.11091(15)
O7L O 0.30622(16) 0.70767(16) 0.0092(2)
O8L O 0.22318(11) 0.81543(11) 0.01004(15)
O9 O 1.0006(5) 0.8888(5) 0.9840(4)
H25 H 0.9848 0.9143 0.9849
O10 O 1.0461(4) 0.8470(6) 0.8986(5)
H26 H 1.0560 0.8754 0.8978
O11 O 0.9561(4) 0.8625(6) 0.8874(5)
H27 H 0.9709 0.8636 0.8540
O12 O 0.9866(4) 0.8008(5) 0.9646(6)
P1 P 0.99740(19) 0.8498(4) 0.9311(2)
O13 O 0.3282(4) 0.0429(5) 0.4296(5)
H28 H 0.3164 0.0406 0.3944
O14 O 0.3884(4) -0.0090(3) 0.3707(3)
H29 H 0.3740 -0.0353 0.3745
O15 O 0.4103(5) 0.0578(6) 0.3840(7)
O16 O 0.4025(5) 0.0098(5) 0.4833(6)
H30 H 0.4235 -0.0110 0.4759
P2 P 0.3795(3) 0.0247(3) 0.4232(3)
loop_
_geom_bond_atom_site_label_1
_geom_bond_atom_site_label_2
_geom_bond_site_symmetry_1
_geom_bond_site_symmetry_2
C1 H1 1_555 1_555
C2 H2 1_555 1_555
C3 C2 1_555 1_555
H3 C3 1_555 1_555
C4 H4 1_555 1_555
C5 C4 1_555 1_555
H5 C5 1_555 1_555
C6 H6 1_555 1_555
C7 C6 1_555 1_555
H7 C7 1_555 1_555
C8 H8 1_555 1_555
C9 N14 1_555 1_555
C10 H9 1_555 1_555
H10 C10 1_555 1_555
C11 H11 1_555 1_555
H12 C11 1_555 1_555
C12 N1 1_555 1_555
C13 N3 1_555 1_555
C14 H13 1_555 1_555
H14 C14 1_555 1_555
C15 H15 1_555 1_555
H16 C15 1_555 1_555
C16 N7 1_555 1_555
C17 N5 1_555 1_555
C18 H17 1_555 1_555
H18 C18 1_555 1_555
C19 H19 1_555 1_555
H20 C19 1_555 1_555
C20 N8 1_555 1_555
C21 N10 1_555 1_555
C22 H21 1_555 1_555
H22 C22 1_555 1_555
C23 H23 1_555 1_555
H24 C23 1_555 1_555
C24 N12 1_555 1_555
N1 C2 1_555 1_555
N2 C3 1_555 1_555
N3 C2 1_555 1_555
N4 C3 1_555 1_555
N5 C4 1_555 1_555
N6 C5 1_555 1_555
N7 C5 1_555 1_555
N8 C6 1_555 1_555
N9 C7 1_555 1_555
N10 C6 1_555 1_555
N11 C7 1_555 1_555
N12 C8 1_555 1_555
N13 C8 1_555 1_555
N14 C1 1_555 1_555
N15 C1 1_555 1_555
N16 C4 1_555 1_555
O1 C13 1_555 1_555
O2 C17 1_555 1_555
O3 C21 1_555 1_555
O4 C24 1_555 1_555
O5 C20 1_555 1_555
O6 C16 1_555 1_555
O7 C12 1_555 1_555
O8 C9 1_555 1_555
O9 H25 1_555 1_555
O10 H26 1_555 1_555
O11 H27 1_555 1_555
O12 P1 1_555 1_555
P1 O9 1_555 1_555
O13 H28 1_555 1_555
O14 H29 1_555 1_555
O15 P2 1_555 1_555
O16 H30 1_555 1_555
P2 O13 1_555 1_555
C1L C8 1_555 1_555
H1L C1L 1_555 1_555
C2L H2L 1_555 1_555
C3L C2L 1_555 1_555
H3L C3L 1_555 1_555
C4L H4L 1_555 1_555
C5L C4L 1_555 1_555
H5L C5L 1_555 1_555
C6L H6L 1_555 1_555
C7L C6L 1_555 1_555
H7L C7L 1_555 1_555
C8L C1 1_555 1_555
H8L C8L 1_555 1_555
C9L N13 1_555 1_555
C10L H9L 1_555 1_555
H10L C10L 1_555 1_555
C11L H11L 1_555 1_555
H12L C11L 1_555 1_555
C12L N1L 1_555 1_555
C13L N3L 1_555 1_555
C14L H13L 1_555 1_555
H14L C14L 1_555 1_555
C15L H15L 1_555 1_555
H16L C15L 1_555 1_555
C16L N7L 1_555 1_555
C17L N5L 1_555 1_555
C18L H17L 1_555 1_555
H18L C18L 1_555 1_555
C19L H19L 1_555 1_555
H20L C19L 1_555 1_555
C20L N8L 1_555 1_555
C21L N10L 1_555 1_555
C22L H21L 1_555 1_555
H22L C22L 1_555 1_555
C23L H23L 1_555 1_555
H24L C23L 1_555 1_555
C24L N15 1_555 1_555
N1L C2L 1_555 1_555
N2L C3L 1_555 1_555
N3L C2L 1_555 1_555
N4L C3L 1_555 1_555
N5L C4L 1_555 1_555
N6L C5L 1_555 1_555
N7L C5L 1_555 1_555
N8L C6L 1_555 1_555
N9L C7L 1_555 1_555
N10L C6L 1_555 1_555
N11L C7L 1_555 1_555
N12L C8L 1_555 1_555
N13L C9 1_555 1_555
N14L C1L 1_555 1_555
N15L C24 1_555 1_555
N16L C4L 1_555 1_555
O1L C13L 1_555 1_555
O2L C17L 1_555 1_555
O3L C21L 1_555 1_555
O4L C24L 1_555 1_555
O5L C20L 1_555 1_555
O6L C16L 1_555 1_555
O7L C12L 1_555 1_555
O8L C9L 1_555 1_555
C10 N3 1_555 1_555
C10 N15 1_555 1_555
C11 N1 1_555 1_555
C11 N14 1_555 1_555
C12 N2 1_555 1_555
C13 N4 1_555 1_555
C14 N4 1_555 1_555
C14 N5 1_555 1_555
C15 N2 1_555 1_555
C15 N16 1_555 1_555
C16 N16 1_555 1_555
C17 N6 1_555 1_555
C18 N6 1_555 1_555
C18 N10 1_555 1_555
C19 N7 1_555 1_555
C19 N8 1_555 1_555
C20 N9 1_555 1_555
C21 N11 1_555 1_555
C22 N11 1_555 1_555
C22 N13 1_555 1_555
C23 N9 1_555 1_555
C23 N12 1_555 1_555
O10 P1 1_555 1_555
O11 P1 1_555 1_555
O14 P2 1_555 1_555
O16 P2 1_555 1_555
C1L N15L 1_555 1_555
C8L N13L 1_555 1_555
C9L N14L 1_555 1_555
C10L N3L 1_555 1_555
C10L N15L 1_555 1_555
C11L N1L 1_555 1_555
C11L N14L 1_555 1_555
C12L N2L 1_555 1_555
C13L N4L 1_555 1_555
C14L N4L 1_555 1_555
C14L N5L 1_555 1_555
C15L N2L 1_555 1_555
C15L N16L 1_555 1_555
C16L N16L 1_555 1_555
C17L N6L 1_555 1_555
C18L N6L 1_555 1_555
C18L N10L 1_555 1_555
C19L N7L 1_555 1_555
C19L N8L 1_555 1_555
C20L N9L 1_555 1_555
C21L N11L 1_555 1_555
C22L N11L 1_555 1_555
C22L N13L 1_555 1_555
C23L N9L 1_555 1_555
C23L N12L 1_555 1_555
C24L N12L 1_555 1_555

#END
