
#######################################################################
#
#                 Cambridge Crystallographic Data Centre
#                                CCDC 
#
#######################################################################
#
# If this CIF has been generated from an entry in the Cambridge 
# Structural Database, then it will include bibliographic, chemical, 
# crystal, experimental, refinement or atomic coordinate data resulting 
# from the CCDC's data processing and validation procedures.
#
#######################################################################

data_QOTPAQ
_chemical_formula_moiety         'C26 H37 N1 O4 S1'
_chemical_name_systematic        
'(4R,5R)-3,3-Di-n-butyl-7-(N,N-dimethylamino)-2,3,4,5-tetrahydro-5-(4-hydroxyphenyl)-1-benzothiepin-4-ol 1,1-dioxide'
_symmetry_cell_setting           orthorhombic
_symmetry_space_group_name_H-M   'P 21 21 2'
_symmetry_Int_Tables_number      18
_space_group_name_Hall           'P 2 2ab'
loop_
_symmetry_equiv_pos_site_id
_symmetry_equiv_pos_as_xyz
1 x,y,z
2 -x,-y,z
3 1/2+x,1/2-y,-z
4 1/2-x,1/2+y,-z
_cell_length_a                   15.5110(2)
_cell_length_b                   21.4441(2)
_cell_length_c                   7.54440(10)
_cell_angle_alpha                90
_cell_angle_beta                 90
_cell_angle_gamma                90
_cell_volume                     2509.41
_cell_formula_units_Z            4
loop_
_atom_site_label
_atom_site_type_symbol
_atom_site_fract_x
_atom_site_fract_y
_atom_site_fract_z
S1 S 0.8719(1) 0.1285(1) 0.0207(1)
N1 N 1.0162(1) 0.3593(1) -0.2939(3)
O1 O 0.9300(1) 0.1119(1) 0.1642(2)
O2 O 0.7813(1) 0.1324(1) 0.0645(2)
O3 O 0.9228(1) 0.1424(1) -0.4822(2)
O4 O 0.5794(1) 0.3478(1) -0.7146(2)
C1 C 0.9098(1) 0.1985(1) -0.0712(3)
C2 C 0.8870(1) 0.0703(1) -0.1446(3)
C3 C 0.8315(1) 0.0684(1) -0.3153(3)
C4 C 0.8363(1) 0.1298(1) -0.4234(3)
C5 C 0.8017(1) 0.1882(1) -0.3225(3)
C6 C 0.8738(1) 0.2228(1) -0.2274(3)
C7 C 0.9092(1) 0.2770(1) -0.2960(3)
C8 C 0.9809(1) 0.3069(1) -0.2184(3)
C9 C 1.0149(2) 0.2809(1) -0.0631(3)
C10 C 0.9798(2) 0.2277(1) 0.0089(3)
C11 C 0.7352(1) 0.0542(1) -0.2792(3)
C12 C 0.7149(2) -0.0045(1) -0.1748(4)
C13 C 0.6201(2) -0.0210(1) -0.1790(4)
C14 C 0.5979(2) -0.0802(2) -0.0791(6)
C15 C 0.8729(2) 0.0145(1) -0.4247(3)
C16 C 0.8240(2) -0.0105(1) -0.5848(3)
C17 C 0.8804(2) -0.0556(1) -0.6900(3)
C18 C 0.8322(2) -0.0952(1) -0.8224(4)
C19 C 0.7439(1) 0.2291(1) -0.4360(3)
C20 C 0.6623(1) 0.2440(1) -0.3713(3)
C21 C 0.6061(1) 0.2816(1) -0.4638(3)
C22 C 0.6311(1) 0.3072(1) -0.6235(3)
C23 C 0.7105(1) 0.2917(1) -0.6950(3)
C24 C 0.7662(1) 0.2526(1) -0.6020(3)
C25 C 0.9831(2) 0.3821(1) -0.4608(4)
C26 C 1.1009(2) 0.3809(1) -0.2382(4)
H1 H 0.9558(1) 0.1140(1) -0.4466(2)
H2 H 0.5334(1) 0.3533(1) -0.6580(2)
H3 H 0.9480(1) 0.0729(1) -0.1829(3)
H4 H 0.8800(1) 0.0294(1) -0.0854(3)
H5 H 0.7997(1) 0.1243(1) -0.5314(3)
H6 H 0.7638(1) 0.1714(1) -0.2266(3)
H7 H 0.8842(1) 0.2948(1) -0.3993(3)
H8 H 1.0627(2) 0.3003(1) -0.0068(3)
H9 H 1.0036(2) 0.2107(1) 0.1144(3)
H10 H 0.7104(1) 0.0902(1) -0.2147(3)
H11 H 0.7053(1) 0.0515(1) -0.3948(3)
H12 H 0.7485(2) -0.0397(1) -0.2242(4)
H13 H 0.7330(2) 0.0014(1) -0.0501(4)
H14 H 0.6019(2) -0.0258(1) -0.3040(4)
H15 H 0.5868(2) 0.0140(1) -0.1276(4)
H16 H 0.5358(2) -0.0880(2) -0.0877(6)
H17 H 0.6141(2) -0.0755(2) 0.0458(6)
H18 H 0.6294(2) -0.1154(2) -0.1307(6)
H19 H 0.9300(2) 0.0290(1) -0.4662(3)
H20 H 0.8831(2) -0.0209(1) -0.3430(3)
H21 H 0.8065(2) 0.0247(1) -0.6618(3)
H22 H 0.7712(2) -0.0322(1) -0.5446(3)
H23 H 0.9249(2) -0.0313(1) -0.7538(3)
H24 H 0.9105(2) -0.0835(1) -0.6057(3)
H25 H 0.8728(2) -0.1227(1) -0.8840(4)
H26 H 0.8034(2) -0.0681(1) -0.9087(4)
H27 H 0.7890(2) -0.1204(1) -0.7604(4)
H28 H 0.6449(1) 0.2277(1) -0.2598(3)
H29 H 0.5503(1) 0.2900(1) -0.4177(3)
H30 H 0.7270(1) 0.3076(1) -0.8075(3)
H31 H 0.8203(1) 0.2419(1) -0.6526(3)
H32 H 1.0151(2) 0.4196(1) -0.4957(4)
H33 H 0.9219(2) 0.3923(1) -0.4479(4)
H34 H 0.9901(2) 0.3500(1) -0.5519(4)
H35 H 1.1162(2) 0.4186(1) -0.3047(4)
H36 H 1.1437(2) 0.3483(1) -0.2611(4)
H37 H 1.0998(2) 0.3905(1) -0.1111(4)
loop_
_geom_bond_atom_site_label_1
_geom_bond_atom_site_label_2
_geom_bond_site_symmetry_1
_geom_bond_site_symmetry_2
S1 O1 1_555 1_555
N1 C8 1_555 1_555
O2 S1 1_555 1_555
O3 C4 1_555 1_555
O4 C22 1_555 1_555
C1 S1 1_555 1_555
C2 S1 1_555 1_555
C3 C2 1_555 1_555
C4 C3 1_555 1_555
C5 C4 1_555 1_555
C6 C1 1_555 1_555
C7 C6 1_555 1_555
C8 C7 1_555 1_555
C9 C8 1_555 1_555
C10 C1 1_555 1_555
C11 C3 1_555 1_555
C12 C11 1_555 1_555
C13 C12 1_555 1_555
C14 C13 1_555 1_555
C15 C3 1_555 1_555
C16 C15 1_555 1_555
C17 C16 1_555 1_555
C18 C17 1_555 1_555
C19 C5 1_555 1_555
C20 C19 1_555 1_555
C21 C20 1_555 1_555
C22 C21 1_555 1_555
C23 C22 1_555 1_555
C24 C19 1_555 1_555
C25 N1 1_555 1_555
C26 N1 1_555 1_555
H1 O3 1_555 1_555
H2 O4 1_555 1_555
H3 C2 1_555 1_555
H4 C2 1_555 1_555
H5 C4 1_555 1_555
H6 C5 1_555 1_555
H7 C7 1_555 1_555
H8 C9 1_555 1_555
H9 C10 1_555 1_555
H10 C11 1_555 1_555
H11 C11 1_555 1_555
H12 C12 1_555 1_555
H13 C12 1_555 1_555
H14 C13 1_555 1_555
H15 C13 1_555 1_555
H16 C14 1_555 1_555
H17 C14 1_555 1_555
H18 C14 1_555 1_555
H19 C15 1_555 1_555
H20 C15 1_555 1_555
H21 C16 1_555 1_555
H22 C16 1_555 1_555
H23 C17 1_555 1_555
H24 C17 1_555 1_555
H25 C18 1_555 1_555
H26 C18 1_555 1_555
H27 C18 1_555 1_555
H28 C20 1_555 1_555
H29 C21 1_555 1_555
H30 C23 1_555 1_555
H31 C24 1_555 1_555
H32 C25 1_555 1_555
H33 C25 1_555 1_555
H34 C25 1_555 1_555
H35 C26 1_555 1_555
H36 C26 1_555 1_555
H37 C26 1_555 1_555
C5 C6 1_555 1_555
C9 C10 1_555 1_555
C23 C24 1_555 1_555

#END
