
#######################################################################
#
#                 Cambridge Crystallographic Data Centre
#                                CCDC 
#
#######################################################################
#
# If this CIF has been generated from an entry in the Cambridge 
# Structural Database, then it will include bibliographic, chemical, 
# crystal, experimental, refinement or atomic coordinate data resulting 
# from the CCDC's data processing and validation procedures.
#
#######################################################################

data_QOTQOG
_chemical_formula_moiety         'C9 H9 N3 S1'
_chemical_name_systematic        5-(2-Methylphenyl)-1,3,4-thiadiazol-2-amine
_symmetry_cell_setting           monoclinic
_symmetry_space_group_name_H-M   'P 21'
_symmetry_Int_Tables_number      4
_space_group_name_Hall           'P 2yb'
loop_
_symmetry_equiv_pos_site_id
_symmetry_equiv_pos_as_xyz
1 x,y,z
2 -x,1/2+y,-z
_cell_length_a                   10.792(2)
_cell_length_b                   7.3400(15)
_cell_length_c                   11.831(2)
_cell_angle_alpha                90
_cell_angle_beta                 96.15(3)
_cell_angle_gamma                90
_cell_volume                     931.779
_exptl_crystal_colour            colorless
_exptl_crystal_description       block
_chemical_melting_point          '541 K'
_cell_formula_units_Z            4
_exptl_crystal_recrystallization_method acetone
loop_
_atom_site_label
_atom_site_type_symbol
_atom_site_fract_x
_atom_site_fract_y
_atom_site_fract_z
S1 S 0.87687(12) 0.61482(19) 0.83012(11)
N1 N 0.6530(4) 0.6359(8) 0.8777(4)
N2 N 0.7123(4) 0.7860(7) 0.9302(4)
N3 N 0.9083(4) 0.9167(8) 0.9573(4)
H1 H 0.8827 1.0019 0.9990
H2 H 0.9850 0.9135 0.9439
C1 C 0.4713(6) 0.4830(15) 0.6920(7)
H3 H 0.4032 0.4467 0.6378
H4 H 0.5046 0.5967 0.6688
H5 H 0.4422 0.4970 0.7654
C2 C 0.5735(6) 0.3366(11) 0.6984(5)
C3 C 0.5524(9) 0.1754(12) 0.6397(6)
H6 H 0.4748 0.1541 0.5997
C4 C 0.6461(11) 0.0427(13) 0.6393(7)
H7 H 0.6297 -0.0665 0.6008
C5 C 0.7622(10) 0.0745(13) 0.6961(6)
H8 H 0.8256 -0.0109 0.6943
C6 C 0.7826(8) 0.2317(11) 0.7545(5)
H9 H 0.8605 0.2506 0.7943
C7 C 0.6914(6) 0.3683(10) 0.7579(4)
C8 C 0.7246(5) 0.5356(9) 0.8216(4)
C9 C 0.8294(5) 0.7902(9) 0.9137(4)
S2 S 0.37988(11) 0.8934(2) 0.83030(11)
N4 N 0.1506(4) 0.8716(9) 0.8594(4)
N5 N 0.2089(4) 0.7424(9) 0.9293(4)
N6 N 0.4089(4) 0.6193(10) 0.9831(4)
H10 H 0.3816 0.5427 1.0295
H11 H 0.4870 0.6226 0.9745
C10 C 0.2175(8) 0.8875(11) 0.5560(5)
H12 H 0.2077 0.8889 0.4744
H13 H 0.1631 0.7973 0.5827
H14 H 0.3023 0.8586 0.5829
C11 C 0.1846(5) 1.0742(9) 0.6006(4)
C12 C 0.1501(6) 1.2157(11) 0.5268(5)
H15 H 0.1477 1.1966 0.4489
C13 C 0.1192(5) 1.3853(10) 0.5666(5)
H16 H 0.0960 1.4783 0.5152
C14 C 0.1226(6) 1.4175(13) 0.6825(6)
H17 H 0.1014 1.5312 0.7093
C15 C 0.1574(6) 1.2795(9) 0.7564(5)
H18 H 0.1616 1.3012 0.8342
C16 C 0.1866(4) 1.1078(9) 0.7184(4)
C17 C 0.2252(5) 0.9641(9) 0.8013(4)
C18 C 0.3289(5) 0.7347(9) 0.9235(4)
loop_
_geom_bond_atom_site_label_1
_geom_bond_atom_site_label_2
_geom_bond_site_symmetry_1
_geom_bond_site_symmetry_2
S1 C8 1_555 1_555
N1 N2 1_555 1_555
N2 C9 1_555 1_555
N3 H1 1_555 1_555
H2 N3 1_555 1_555
C1 H3 1_555 1_555
H4 C1 1_555 1_555
H5 C1 1_555 1_555
C2 C1 1_555 1_555
C3 C2 1_555 1_555
H6 C3 1_555 1_555
C4 C3 1_555 1_555
H7 C4 1_555 1_555
C5 C4 1_555 1_555
H8 C5 1_555 1_555
C6 C5 1_555 1_555
H9 C6 1_555 1_555
C7 C2 1_555 1_555
C8 N1 1_555 1_555
C9 S1 1_555 1_555
S2 C17 1_555 1_555
N4 N5 1_555 1_555
N5 C18 1_555 1_555
N6 H10 1_555 1_555
H11 N6 1_555 1_555
C10 H12 1_555 1_555
H13 C10 1_555 1_555
H14 C10 1_555 1_555
C11 C10 1_555 1_555
C12 C11 1_555 1_555
H15 C12 1_555 1_555
C13 C12 1_555 1_555
H16 C13 1_555 1_555
C14 C13 1_555 1_555
H17 C14 1_555 1_555
C15 C14 1_555 1_555
H18 C15 1_555 1_555
C16 C11 1_555 1_555
C17 N4 1_555 1_555
C18 S2 1_555 1_555
N3 C9 1_555 1_555
C6 C7 1_555 1_555
C7 C8 1_555 1_555
N6 C18 1_555 1_555
C15 C16 1_555 1_555
C16 C17 1_555 1_555

#END
