
#######################################################################
#
#                 Cambridge Crystallographic Data Centre
#                                CCDC 
#
#######################################################################
#
# If this CIF has been generated from an entry in the Cambridge 
# Structural Database, then it will include bibliographic, chemical, 
# crystal, experimental, refinement or atomic coordinate data resulting 
# from the CCDC's data processing and validation procedures.
#
#######################################################################

data_QOTSUO
_chemical_compound_source        
'fermentation broth of the endophytic fungus (no. B60) from the mangrove tree Acanthus ilicifolius Linn'
_chemical_formula_moiety         'C9 H11 N1 O4'
_chemical_name_systematic        
1,3-bis(Hydroxymethyl)-2-methyl-5-nitrobenzene
_symmetry_cell_setting           triclinic
_symmetry_space_group_name_H-M   'P -1'
_symmetry_Int_Tables_number      2
_space_group_name_Hall           '-P 1'
loop_
_symmetry_equiv_pos_site_id
_symmetry_equiv_pos_as_xyz
1 x,y,z
2 -x,-y,-z
_cell_length_a                   7.8446(14)
_cell_length_b                   8.5168(15)
_cell_length_c                   14.468(3)
_cell_angle_alpha                88.441(3)
_cell_angle_beta                 83.235(3)
_cell_angle_gamma                70.919(3)
_cell_volume                     907.085
_exptl_crystal_colour            colorless
_exptl_crystal_description       block
_cell_formula_units_Z            4
_exptl_crystal_recrystallization_method methanol
loop_
_atom_site_label
_atom_site_type_symbol
_atom_site_fract_x
_atom_site_fract_y
_atom_site_fract_z
O1 O 0.44070(17) 0.32896(16) 0.46483(10)
O2 O 0.3511(2) 0.40887(19) 0.33164(9)
O3 O -0.1770(2) 0.85588(16) 0.29956(9)
H1 H -0.2298 0.9329 0.2672
O4 O 0.2036(2) 0.69240(16) 0.73762(9)
H2 H 0.2366 0.5906 0.7382
N1 N 0.33958(19) 0.42611(17) 0.41573(10)
C1 C 0.1936(2) 0.56914(18) 0.46050(11)
C2 C 0.0668(2) 0.66826(19) 0.40706(10)
H3 H 0.0763 0.6486 0.3434
C3 C -0.0754(2) 0.79809(19) 0.45027(11)
C4 C -0.0879(2) 0.82735(19) 0.54644(11)
C5 C 0.0461(2) 0.7258(2) 0.59802(11)
C6 C 0.1869(2) 0.5955(2) 0.55435(11)
H4 H 0.2757 0.5268 0.5881
C7 C -0.2455(2) 0.9659(2) 0.59360(13)
H5 H -0.3297 0.9199 0.6283
H6 H -0.3055 1.0399 0.5474
H7 H -0.2017 1.0260 0.6351
C8 C -0.2194(2) 0.9051(2) 0.39424(12)
H8 H -0.3363 0.8949 0.4179
H9 H -0.2276 1.0205 0.4002
C9 C 0.0351(3) 0.7536(3) 0.70200(12)
H10 H -0.0165 0.8718 0.7154
H11 H -0.0467 0.7003 0.7340
O5 O 0.05347(17) 0.67026(16) 1.01979(10)
O6 O 0.1121(2) 0.5705(2) 1.15388(10)
O7 O 0.6367(2) 0.10593(16) 1.19732(8)
H12 H 0.6720 0.1759 1.2193
O8 O 0.3462(2) 0.36089(16) 0.74025(9)
H13 H 0.2766 0.3074 0.7385
N2 N 0.14370(19) 0.56592(18) 1.06978(11)
C10 C 0.2989(2) 0.42957(19) 1.02609(11)
C11 C 0.4155(2) 0.32466(19) 1.08240(11)
H14 H 0.3947 0.3377 1.1468
C12 C 0.5646(2) 0.19930(19) 1.04092(11)
C13 C 0.5938(2) 0.18016(19) 0.94371(11)
C14 C 0.4695(2) 0.28691(19) 0.88918(10)
C15 C 0.3220(2) 0.41303(19) 0.93097(11)
H15 H 0.2400 0.4854 0.8951
C16 C 0.7581(3) 0.0456(2) 0.89824(14)
H16 H 0.7204 -0.0179 0.8559
H17 H 0.8183 -0.0261 0.9452
H18 H 0.8400 0.0954 0.8647
C17 C 0.6980(3) 0.0856(2) 1.10093(13)
H19 H 0.7197 -0.0288 1.0829
H20 H 0.8126 0.1072 1.0895
C18 C 0.4981(3) 0.2664(2) 0.78412(12)
H21 H 0.6020 0.2991 0.7599
H22 H 0.5259 0.1500 0.7685
loop_
_geom_bond_atom_site_label_1
_geom_bond_atom_site_label_2
_geom_bond_site_symmetry_1
_geom_bond_site_symmetry_2
O1 N1 1_555 1_555
O2 N1 1_555 1_555
O3 H1 1_555 1_555
O4 H2 1_555 1_555
N1 C1 1_555 1_555
C1 C2 1_555 1_555
C2 H3 1_555 1_555
C3 C2 1_555 1_555
C4 C3 1_555 1_555
C5 C4 1_555 1_555
C6 C1 1_555 1_555
H4 C6 1_555 1_555
C7 C4 1_555 1_555
H5 C7 1_555 1_555
H6 C7 1_555 1_555
H7 C7 1_555 1_555
C8 O3 1_555 1_555
H8 C8 1_555 1_555
H9 C8 1_555 1_555
C9 O4 1_555 1_555
H10 C9 1_555 1_555
H11 C9 1_555 1_555
O5 N2 1_555 1_555
O6 N2 1_555 1_555
O7 H12 1_555 1_555
O8 H13 1_555 1_555
N2 C10 1_555 1_555
C10 C11 1_555 1_555
C11 H14 1_555 1_555
C12 C11 1_555 1_555
C13 C12 1_555 1_555
C14 C13 1_555 1_555
C15 C10 1_555 1_555
H15 C15 1_555 1_555
C16 C13 1_555 1_555
H16 C16 1_555 1_555
H17 C16 1_555 1_555
H18 C16 1_555 1_555
C17 O7 1_555 1_555
H19 C17 1_555 1_555
H20 C17 1_555 1_555
C18 O8 1_555 1_555
H21 C18 1_555 1_555
H22 C18 1_555 1_555
C3 C8 1_555 1_555
C5 C6 1_555 1_555
C5 C9 1_555 1_555
C12 C17 1_555 1_555
C14 C15 1_555 1_555
C14 C18 1_555 1_555

#END
