
#######################################################################
#
#                 Cambridge Crystallographic Data Centre
#                                CCDC 
#
#######################################################################
#
# If this CIF has been generated from an entry in the Cambridge 
# Structural Database, then it will include bibliographic, chemical, 
# crystal, experimental, refinement or atomic coordinate data resulting 
# from the CCDC's data processing and validation procedures.
#
#######################################################################

data_QOTTAV
_chemical_formula_moiety         'C26 H21 N1'
_chemical_name_systematic        N-(Diphenylmethylene)diphenylmethanamine
_symmetry_cell_setting           monoclinic
_symmetry_space_group_name_H-M   'P 21/c'
_symmetry_Int_Tables_number      14
_space_group_name_Hall           '-P 2ybc'
loop_
_symmetry_equiv_pos_site_id
_symmetry_equiv_pos_as_xyz
1 x,y,z
2 -x,1/2+y,1/2-z
3 -x,-y,-z
4 x,1/2-y,1/2+z
_cell_length_a                   27.8614(15)
_cell_length_b                   8.7867(5)
_cell_length_c                   24.5035(14)
_cell_angle_alpha                90
_cell_angle_beta                 94.6240(10)
_cell_angle_gamma                90
_cell_volume                     5979.17
_exptl_crystal_colour            colorless
_exptl_crystal_description       block
_cell_formula_units_Z            12
_exptl_crystal_recrystallization_method methanol/acetone
loop_
_atom_site_label
_atom_site_type_symbol
_atom_site_fract_x
_atom_site_fract_y
_atom_site_fract_z
C1 C 0.05406(7) 0.5441(2) 0.16052(9)
H1 H 0.0190 0.5436 0.1623
C2 C 0.07699(8) 0.4622(2) 0.21026(9)
C3 C 0.04953(9) 0.3917(3) 0.24685(11)
H2 H 0.0161 0.3967 0.2417
C4 C 0.07095(14) 0.3132(3) 0.29147(12)
H3 H 0.0518 0.2654 0.3157
C5 C 0.11945(14) 0.3056(3) 0.29996(12)
H4 H 0.1338 0.2531 0.3299
C6 C 0.14680(11) 0.3756(4) 0.26410(14)
H5 H 0.1802 0.3708 0.2696
C7 C 0.12599(9) 0.4536(3) 0.21975(11)
H6 H 0.1455 0.5013 0.1958
C8 C 0.07093(7) 0.7085(2) 0.15618(9)
C9 C 0.08867(9) 0.7675(3) 0.10991(10)
H7 H 0.0918 0.7047 0.0798
C10 C 0.10202(10) 0.9188(3) 0.10736(13)
H8 H 0.1140 0.9565 0.0757
C11 C 0.09774(9) 1.0123(3) 0.15066(14)
H9 H 0.1065 1.1142 0.1487
C12 C 0.08062(10) 0.9563(3) 0.19702(13)
H10 H 0.0779 1.0200 0.2269
C13 C 0.06721(8) 0.8055(3) 0.20008(10)
H11 H 0.0555 0.7687 0.2320
C14 C 0.03440(7) 0.3735(2) 0.08633(8)
C15 C 0.04992(7) 0.2883(2) 0.03816(8)
C16 C 0.01735(8) 0.2106(2) 0.00294(9)
H12 H -0.0151 0.2109 0.0092
C17 C 0.03266(10) 0.1322(3) -0.04159(10)
H13 H 0.0104 0.0811 -0.0652
C18 C 0.08029(11) 0.1297(3) -0.05095(11)
H14 H 0.0905 0.0759 -0.0806
C19 C 0.11293(10) 0.2069(3) -0.01637(11)
H15 H 0.1454 0.2056 -0.0227
C20 C 0.09801(8) 0.2862(3) 0.02756(9)
H16 H 0.1205 0.3391 0.0504
C21 C -0.01609(7) 0.3525(2) 0.10185(8)
C22 C -0.02790(8) 0.2300(2) 0.13342(9)
H17 H -0.0046 0.1576 0.1439
C23 C -0.07396(9) 0.2143(3) 0.14952(9)
H18 H -0.0815 0.1317 0.1709
C24 C -0.10844(9) 0.3191(3) 0.13419(11)
H19 H -0.1394 0.3082 0.1453
C25 C -0.09762(8) 0.4400(3) 0.10254(12)
H20 H -0.1212 0.5113 0.0919
C26 C -0.05171(8) 0.4563(3) 0.08630(10)
H21 H -0.0446 0.5386 0.0645
N1 N 0.06574(6) 0.4591(2) 0.11192(7)
C27 C 0.27503(8) 0.4917(3) 0.40414(10)
H22 H 0.3101 0.4947 0.4113
C28 C 0.25348(9) 0.5745(3) 0.44974(11)
C29 C 0.28247(11) 0.6294(4) 0.49431(15)
H23 H 0.3155 0.6120 0.4964
C30 C 0.26253(18) 0.7097(4) 0.53558(15)
H24 H 0.2822 0.7468 0.5650
C31 C 0.21436(18) 0.7342(4) 0.53304(16)
H25 H 0.2010 0.7868 0.5610
C32 C 0.18572(12) 0.6822(4) 0.48979(15)
H26 H 0.1528 0.7004 0.4881
C33 C 0.20487(9) 0.6030(3) 0.44844(11)
H27 H 0.1846 0.5679 0.4191
C34 C 0.25992(8) 0.3247(3) 0.39798(12)
C35 C 0.24802(9) 0.2403(3) 0.44236(12)
H28 H 0.2474 0.2864 0.4765
C36 C 0.23695(10) 0.0860(4) 0.43634(17)
H29 H 0.2289 0.0300 0.4665
C37 C 0.23788(11) 0.0167(4) 0.3865(2)
H30 H 0.2308 -0.0864 0.3828
C38 C 0.24931(11) 0.1003(4) 0.34218(16)
H31 H 0.2494 0.0542 0.3080
C39 C 0.26056(9) 0.2518(4) 0.34806(14)
H32 H 0.2688 0.3067 0.3177
C40 C 0.29310(8) 0.6495(3) 0.32990(10)
C41 C 0.27473(8) 0.7299(2) 0.27922(10)
C42 C 0.22533(9) 0.7356(3) 0.26448(12)
H33 H 0.2041 0.6877 0.2863
C43 C 0.20785(11) 0.8114(4) 0.21799(13)
H34 H 0.1748 0.8147 0.2088
C44 C 0.23837(13) 0.8816(3) 0.18533(13)
H35 H 0.2262 0.9329 0.1540
C45 C 0.28668(12) 0.8765(3) 0.19862(12)
H36 H 0.3076 0.9233 0.1761
C46 C 0.30485(9) 0.8021(3) 0.24550(10)
H37 H 0.3379 0.8008 0.2545
C47 C 0.34603(8) 0.6587(3) 0.34633(9)
C48 C 0.36441(9) 0.7734(3) 0.37951(10)
H38 H 0.3435 0.8445 0.3928
C49 C 0.41287(10) 0.7861(3) 0.39366(10)
H39 H 0.4245 0.8654 0.4162
C50 C 0.44402(10) 0.6830(4) 0.37483(13)
H40 H 0.4769 0.6913 0.3846
C51 C 0.42678(10) 0.5669(4) 0.34152(13)
H41 H 0.4479 0.4961 0.3285
C52 C 0.37773(9) 0.5553(3) 0.32729(11)
H42 H 0.3661 0.4766 0.3045
N2 N 0.26274(7) 0.5726(2) 0.35426(8)
C53 C 0.38733(8) 0.5117(3) 0.08477(10)
H43 H 0.3521 0.5088 0.0830
C54 C 0.40302(7) 0.6779(3) 0.08892(11)
C55 C 0.41302(10) 0.7463(3) 0.13911(12)
H44 H 0.4115 0.6891 0.1708
C56 C 0.42531(12) 0.8986(4) 0.14313(15)
H45 H 0.4321 0.9425 0.1774
C57 C 0.42747(10) 0.9850(4) 0.09708(18)
H46 H 0.4355 1.0876 0.0998
C58 C 0.41775(10) 0.9188(3) 0.04717(15)
H47 H 0.4194 0.9765 0.0156
C59 C 0.40539(9) 0.7660(3) 0.04302(11)
H48 H 0.3986 0.7228 0.0086
C60 C 0.40307(8) 0.4294(3) 0.03540(10)
C61 C 0.37025(10) 0.3862(3) -0.00681(13)
H49 H 0.3379 0.4105 -0.0053
C62 C 0.38467(16) 0.3076(4) -0.05120(14)
H50 H 0.3621 0.2797 -0.0794
C63 C 0.43158(17) 0.2708(4) -0.05397(15)
H51 H 0.4412 0.2170 -0.0839
C64 C 0.46459(12) 0.3126(3) -0.01287(14)
H52 H 0.4968 0.2874 -0.0148
C65 C 0.45060(9) 0.3921(3) 0.03161(11)
H53 H 0.4735 0.4208 0.0594
C66 C 0.37840(8) 0.3470(2) 0.16036(9)
C67 C 0.32531(8) 0.3324(3) 0.14746(9)
C68 C 0.30656(9) 0.2222(3) 0.11258(10)
H54 H 0.3272 0.1546 0.0970
C69 C 0.25801(13) 0.2093(4) 0.10006(12)
H55 H 0.2459 0.1329 0.0765
C70 C 0.22748(12) 0.3084(6) 0.12208(18)
H56 H 0.1944 0.3008 0.1134
C71 C 0.24565(13) 0.4193(5) 0.15702(19)
H57 H 0.2249 0.4868 0.1724
C72 C 0.29428(10) 0.4314(3) 0.16936(13)
H58 H 0.3063 0.5078 0.1929
C73 C 0.40112(9) 0.2652(2) 0.20876(10)
C74 C 0.37392(10) 0.1851(3) 0.24388(11)
H59 H 0.3406 0.1822 0.2374
C75 C 0.39605(15) 0.1095(4) 0.28845(13)
H60 H 0.3774 0.0573 0.3121
C76 C 0.44495(16) 0.1103(4) 0.29838(13)
H61 H 0.4596 0.0577 0.3282
C77 C 0.47222(12) 0.1893(4) 0.26403(14)
H62 H 0.5056 0.1905 0.2706
C78 C 0.45077(10) 0.2669(3) 0.21980(11)
H63 H 0.4697 0.3211 0.1970
N3 N 0.40567(7) 0.4291(2) 0.13337(8)
loop_
_geom_bond_atom_site_label_1
_geom_bond_atom_site_label_2
_geom_bond_site_symmetry_1
_geom_bond_site_symmetry_2
C1 H1 1_555 1_555
C2 C1 1_555 1_555
C3 C2 1_555 1_555
H2 C3 1_555 1_555
C4 C3 1_555 1_555
H3 C4 1_555 1_555
C5 C4 1_555 1_555
H4 C5 1_555 1_555
C6 C5 1_555 1_555
H5 C6 1_555 1_555
C7 C2 1_555 1_555
H6 C7 1_555 1_555
C8 C1 1_555 1_555
C9 C8 1_555 1_555
H7 C9 1_555 1_555
C10 C9 1_555 1_555
H8 C10 1_555 1_555
C11 C10 1_555 1_555
H9 C11 1_555 1_555
C12 C11 1_555 1_555
H10 C12 1_555 1_555
C13 C8 1_555 1_555
H11 C13 1_555 1_555
C14 C15 1_555 1_555
C15 C16 1_555 1_555
C16 H12 1_555 1_555
C17 C16 1_555 1_555
H13 C17 1_555 1_555
C18 C17 1_555 1_555
H14 C18 1_555 1_555
C19 C18 1_555 1_555
H15 C19 1_555 1_555
C20 C15 1_555 1_555
H16 C20 1_555 1_555
C21 C14 1_555 1_555
C22 C21 1_555 1_555
H17 C22 1_555 1_555
C23 C22 1_555 1_555
H18 C23 1_555 1_555
C24 C23 1_555 1_555
H19 C24 1_555 1_555
C25 C24 1_555 1_555
H20 C25 1_555 1_555
C26 C21 1_555 1_555
H21 C26 1_555 1_555
N1 C1 1_555 1_555
C27 H22 1_555 1_555
C28 C27 1_555 1_555
C29 C28 1_555 1_555
H23 C29 1_555 1_555
C30 C29 1_555 1_555
H24 C30 1_555 1_555
C31 C30 1_555 1_555
H25 C31 1_555 1_555
C32 C31 1_555 1_555
H26 C32 1_555 1_555
C33 C28 1_555 1_555
H27 C33 1_555 1_555
C34 C27 1_555 1_555
C35 C34 1_555 1_555
H28 C35 1_555 1_555
C36 C35 1_555 1_555
H29 C36 1_555 1_555
C37 C36 1_555 1_555
H30 C37 1_555 1_555
C38 C37 1_555 1_555
H31 C38 1_555 1_555
C39 C34 1_555 1_555
H32 C39 1_555 1_555
C40 C41 1_555 1_555
C41 C42 1_555 1_555
C42 H33 1_555 1_555
C43 C42 1_555 1_555
H34 C43 1_555 1_555
C44 C43 1_555 1_555
H35 C44 1_555 1_555
C45 C44 1_555 1_555
H36 C45 1_555 1_555
C46 C41 1_555 1_555
H37 C46 1_555 1_555
C47 C40 1_555 1_555
C48 C47 1_555 1_555
H38 C48 1_555 1_555
C49 C48 1_555 1_555
H39 C49 1_555 1_555
C50 C49 1_555 1_555
H40 C50 1_555 1_555
C51 C50 1_555 1_555
H41 C51 1_555 1_555
C52 C47 1_555 1_555
H42 C52 1_555 1_555
N2 C27 1_555 1_555
C53 H43 1_555 1_555
C54 C53 1_555 1_555
C55 C54 1_555 1_555
H44 C55 1_555 1_555
C56 C55 1_555 1_555
H45 C56 1_555 1_555
C57 C56 1_555 1_555
H46 C57 1_555 1_555
C58 C57 1_555 1_555
H47 C58 1_555 1_555
C59 C54 1_555 1_555
H48 C59 1_555 1_555
C60 C53 1_555 1_555
C61 C60 1_555 1_555
H49 C61 1_555 1_555
C62 C61 1_555 1_555
H50 C62 1_555 1_555
C63 C62 1_555 1_555
H51 C63 1_555 1_555
C64 C63 1_555 1_555
H52 C64 1_555 1_555
C65 C60 1_555 1_555
H53 C65 1_555 1_555
C66 C67 1_555 1_555
C67 C68 1_555 1_555
C68 H54 1_555 1_555
C69 C68 1_555 1_555
H55 C69 1_555 1_555
C70 C69 1_555 1_555
H56 C70 1_555 1_555
C71 C70 1_555 1_555
H57 C71 1_555 1_555
C72 C67 1_555 1_555
H58 C72 1_555 1_555
C73 C66 1_555 1_555
C74 C73 1_555 1_555
H59 C74 1_555 1_555
C75 C74 1_555 1_555
H60 C75 1_555 1_555
C76 C75 1_555 1_555
H61 C76 1_555 1_555
C77 C76 1_555 1_555
H62 C77 1_555 1_555
C78 C73 1_555 1_555
H63 C78 1_555 1_555
N3 C53 1_555 1_555
C6 C7 1_555 1_555
C12 C13 1_555 1_555
C14 N1 1_555 1_555
C19 C20 1_555 1_555
C25 C26 1_555 1_555
C32 C33 1_555 1_555
C38 C39 1_555 1_555
C40 N2 1_555 1_555
C45 C46 1_555 1_555
C51 C52 1_555 1_555
C58 C59 1_555 1_555
C64 C65 1_555 1_555
C66 N3 1_555 1_555
C71 C72 1_555 1_555
C77 C78 1_555 1_555

#END
