
#######################################################################
#
#                 Cambridge Crystallographic Data Centre
#                                CCDC 
#
#######################################################################
#
# If this CIF has been generated from an entry in the Cambridge 
# Structural Database, then it will include bibliographic, chemical, 
# crystal, experimental, refinement or atomic coordinate data resulting 
# from the CCDC's data processing and validation procedures.
#
#######################################################################

data_QOTVEA
_chemical_name_common            1-Methyl-5-phenylhydantoin
_chemical_formula_moiety         'C10 H10 N2 O2'
_chemical_name_systematic        1-Methyl-5-phenylimidazolidine-2,4-dione
_symmetry_cell_setting           orthorhombic
_symmetry_space_group_name_H-M   'P b c a'
_symmetry_Int_Tables_number      61
_space_group_name_Hall           '-P 2ac 2ab'
loop_
_symmetry_equiv_pos_site_id
_symmetry_equiv_pos_as_xyz
1 x,y,z
2 1/2-x,-y,1/2+z
3 1/2+x,1/2-y,-z
4 -x,1/2+y,1/2-z
5 -x,-y,-z
6 1/2+x,y,1/2-z
7 1/2-x,1/2+y,z
8 x,1/2-y,1/2+z
_cell_length_a                   18.077(5)
_cell_length_b                   14.386(2)
_cell_length_c                   7.035(1)
_cell_angle_alpha                90
_cell_angle_beta                 90
_cell_angle_gamma                90
_cell_volume                     1829.49
_exptl_crystal_colour            colorless
_chemical_melting_point          '178-179 deg.C'
_cell_formula_units_Z            8
_exptl_crystal_recrystallization_method ethanol
loop_
_atom_site_label
_atom_site_type_symbol
_atom_site_fract_x
_atom_site_fract_y
_atom_site_fract_z
O1 O 0.69483(8) 0.12269(10) 0.4806(2)
O2 O 0.57690(8) 0.16891(9) -0.0871(2)
N1 N 0.63290(9) 0.1694(1) 0.2106(2)
N2 N 0.63100(8) 0.03931(10) 0.0448(2)
C1 C 0.66991(10) 0.1083(1) 0.3242(3)
C2 C 0.60974(9) 0.1292(1) 0.0408(3)
C3 C 0.67315(9) 0.0167(1) 0.2142(2)
C4 C 0.64358(9) -0.0640(1) 0.3276(2)
C5 C 0.5687(1) -0.0718(1) 0.3663(3)
C6 C 0.5426(1) -0.1448(1) 0.4746(3)
C7 C 0.5911(1) -0.2103(1) 0.5470(3)
C8 C 0.6658(1) -0.2030(1) 0.5080(3)
C9 C 0.6918(1) -0.1305(1) 0.3980(3)
C10 C 0.6175(1) -0.0256(2) -0.1090(3)
loop_
_geom_bond_atom_site_label_1
_geom_bond_atom_site_label_2
_geom_bond_site_symmetry_1
_geom_bond_site_symmetry_2
O1 C1 1_555 1_555
O2 C2 1_555 1_555
N1 C1 1_555 1_555
N2 C2 1_555 1_555
C1 C3 1_555 1_555
C2 N1 1_555 1_555
C3 N2 1_555 1_555
C4 C3 1_555 1_555
C5 C4 1_555 1_555
C6 C5 1_555 1_555
C7 C6 1_555 1_555
C8 C7 1_555 1_555
C9 C4 1_555 1_555
C10 N2 1_555 1_555
C8 C9 1_555 1_555

#END
