
#######################################################################
#
#                 Cambridge Crystallographic Data Centre
#                                CCDC 
#
#######################################################################
#
# If this CIF has been generated from an entry in the Cambridge 
# Structural Database, then it will include bibliographic, chemical, 
# crystal, experimental, refinement or atomic coordinate data resulting 
# from the CCDC's data processing and validation procedures.
#
#######################################################################

data_QOTXED
_chemical_formula_moiety         'C33 H30 F6 N4 S2'
_chemical_name_systematic        
1,2-bis(2-n-Hexyl-5-(2,2-dicyanovinyl)-3-thienyl)-3,3,4,4,5,5-hexafluorocyclopent-1-ene
_symmetry_cell_setting           monoclinic
_symmetry_space_group_name_H-M   'C 2/c'
_symmetry_Int_Tables_number      15
_space_group_name_Hall           '-C 2yn'
loop_
_symmetry_equiv_pos_site_id
_symmetry_equiv_pos_as_xyz
1 x,y,z
2 1/2+x,1/2+y,z
3 -x,y,1/2-z
4 1/2-x,1/2+y,1/2-z
5 -x,-y,-z
6 1/2-x,1/2-y,-z
7 x,-y,1/2+z
8 1/2+x,1/2-y,1/2+z
_cell_length_a                   25.933(3)
_cell_length_b                   8.5042(10)
_cell_length_c                   17.344(2)
_cell_angle_alpha                90
_cell_angle_beta                 115.4280(10)
_cell_angle_gamma                90
_cell_volume                     3454.49
_exptl_crystal_colour            colorless
_exptl_crystal_description       block
_chemical_melting_point          '390.9-391.2 K'
_cell_formula_units_Z            4
_chemical_properties_physical    light-sensitive
_exptl_crystal_recrystallization_method 'diethyl ether/hexane'
_exptl_crystal_preparation       photochromic
loop_
_atom_site_label
_atom_site_type_symbol
_atom_site_fract_x
_atom_site_fract_y
_atom_site_fract_z
C1 C 0.70166(17) 0.4547(7) -0.0627(4)
H1 H 0.7148 0.3480 -0.0509
H2 H 0.6634 0.4563 -0.1071
H3 H 0.7022 0.5015 -0.0119
C2 C 0.74018(15) 0.5463(5) -0.0909(3)
H4 H 0.7319 0.6577 -0.0922
H5 H 0.7340 0.5139 -0.1479
C3 C 0.80236(12) 0.5145(4) -0.0277(2)
H6 H 0.8088 0.5585 0.0273
H7 H 0.8080 0.4018 -0.0206
C4 C 0.84579(12) 0.5813(4) -0.0542(2)
H8 H 0.8387 0.6935 -0.0620
H9 H 0.8376 0.5380 -0.1101
C5 C 0.90935(10) 0.5607(3) 0.0002(2)
H10 H 0.9300 0.6121 -0.0279
H11 H 0.9184 0.4494 0.0039
F1 F 0.99699(11) 0.1885(2) 0.12060(16)
F2 F 1.08043(12) 0.1892(3) 0.2226(2)
S1 S 1.03044(3) 0.77122(9) 0.10579(5)
F3 F 1.03694(18) 0.0168(5) 0.3011(3)
N1 N 1.26712(16) 0.9547(6) 0.1871(3)
N2 N 1.08839(18) 1.0435(5) 0.0277(3)
C6 C 0.93046(13) 0.6271(4) 0.0913(2)
H12 H 0.9161 0.7332 0.0891
H13 H 0.9163 0.5627 0.1242
C7 C 0.99429(13) 0.6284(3) 0.13299(19)
C8 C 1.03218(12) 0.5222(3) 0.19036(19)
C9 C 1.08944(13) 0.5583(4) 0.21109(19)
H14 H 1.1199 0.4978 0.2480
C10 C 1.09612(12) 0.6914(4) 0.17172(19)
C11 C 1.15018(13) 0.7531(4) 0.1839(2)
H15 H 1.1816 0.7004 0.2242
C12 C 1.16268(14) 0.8761(4) 0.1461(2)
C13 C 1.22106(17) 0.9202(5) 0.1692(3)
C14 C 1.12121(17) 0.9697(5) 0.0813(3)
C15 C 1.01394(13) 0.3850(3) 0.22545(19)
C16 C 1.02584(19) 0.2214(4) 0.2060(3)
C17 C 1.0000 0.1153(6) 0.2500
C1B C 1.29834(17) 0.4547(7) 0.5627(4)
H1B H 1.2852 0.3480 0.5509
H2B H 1.3366 0.4563 0.6071
H3B H 1.2978 0.5015 0.5119
C2B C 1.25982(15) 0.5463(5) 0.5909(3)
H4B H 1.2681 0.6577 0.5922
H5B H 1.2660 0.5139 0.6479
C3B C 1.19764(12) 0.5145(4) 0.5277(2)
H6B H 1.1912 0.5585 0.4727
H7B H 1.1920 0.4018 0.5206
C4B C 1.15421(12) 0.5813(4) 0.5542(2)
H8B H 1.1613 0.6935 0.5620
H9B H 1.1624 0.5380 0.6101
C5B C 1.09065(10) 0.5607(3) 0.4998(2)
H10B H 1.0700 0.6121 0.5279
H11B H 1.0816 0.4494 0.4961
F1B F 1.00301(11) 0.1885(2) 0.37940(16)
F2B F 0.91957(12) 0.1892(3) 0.2774(2)
S1B S 0.96956(3) 0.77122(9) 0.39421(5)
F3B F 0.96306(18) 0.0168(5) 0.1989(3)
N1B N 0.73288(16) 0.9547(6) 0.3129(3)
N2B N 0.91161(18) 1.0435(5) 0.4723(3)
C6B C 1.06954(13) 0.6271(4) 0.4087(2)
H12B H 1.0839 0.7332 0.4109
H13B H 1.0837 0.5627 0.3758
C7B C 1.00571(13) 0.6284(3) 0.36701(19)
C8B C 0.96782(12) 0.5222(3) 0.30964(19)
C9B C 0.91056(13) 0.5583(4) 0.28891(19)
H14B H 0.8801 0.4978 0.2520
C10B C 0.90388(12) 0.6914(4) 0.32828(19)
C11B C 0.84982(13) 0.7531(4) 0.3161(2)
H15B H 0.8184 0.7004 0.2758
C12B C 0.83732(14) 0.8761(4) 0.3539(2)
C13B C 0.77894(17) 0.9202(5) 0.3308(3)
C14B C 0.87879(17) 0.9697(5) 0.4187(3)
C15B C 0.98606(13) 0.3850(3) 0.27455(19)
C16B C 0.97416(19) 0.2214(4) 0.2940(3)
C18? C 0.70963(17) 0.5842(7) -0.0764(3)
H16? H 0.7168 0.6142 -0.0194
H17? H 0.6699 0.5594 -0.1081
H18? H 0.7196 0.6695 -0.1037
C19? C 0.74516(14) 0.4420(5) -0.0735(3)
H19? H 0.7395 0.4175 -0.1312
H20? H 0.7313 0.3532 -0.0526
C20? C 0.80976(11) 0.4604(4) -0.0171(2)
H21? H 0.8157 0.4845 0.0408
H22? H 0.8285 0.3611 -0.0158
C21? C 0.83718(12) 0.5874(4) -0.0478(2)
H23? H 0.8268 0.6907 -0.0352
H24? H 0.8250 0.5791 -0.1089
C22? C 0.90160(10) 0.5617(3) 0.0001(2)
H25? H 0.9197 0.6091 -0.0330
H26? H 0.9089 0.4495 0.0025
F4? F 1.01998(11) 0.2062(2) 0.12751(17)
F5? F 1.08161(12) 0.2002(3) 0.2581(2)
loop_
_geom_bond_atom_site_label_1
_geom_bond_atom_site_label_2
_geom_bond_site_symmetry_1
_geom_bond_site_symmetry_2
C1 H1 1_555 1_555
H2 C1 1_555 1_555
H3 C1 1_555 1_555
C2 C1 1_555 1_555
H4 C2 1_555 1_555
H5 C2 1_555 1_555
C3 C2 1_555 1_555
H6 C3 1_555 1_555
H7 C3 1_555 1_555
C4 C3 1_555 1_555
H8 C4 1_555 1_555
H9 C4 1_555 1_555
C5 C4 1_555 1_555
H10 C5 1_555 1_555
H11 C5 1_555 1_555
F1 C16 1_555 1_555
F2 C16 1_555 1_555
S1 C7 1_555 1_555
F3 C17 1_555 1_555
N1 C13 1_555 1_555
N2 C14 1_555 1_555
C6 C5 1_555 1_555
H12 C6 1_555 1_555
H13 C6 1_555 1_555
C7 C6 1_555 1_555
C8 C7 1_555 1_555
C9 C8 1_555 1_555
H14 C9 1_555 1_555
C10 S1 1_555 1_555
C11 C10 1_555 1_555
H15 C11 1_555 1_555
C12 C11 1_555 1_555
C13 C12 1_555 1_555
C14 C12 1_555 1_555
C15 C8 1_555 1_555
C16 C15 1_555 1_555
C17 C16 1_555 1_555
C1B H1B 1_555 1_555
H2B C1B 1_555 1_555
H3B C1B 1_555 1_555
C2B C1B 1_555 1_555
H4B C2B 1_555 1_555
H5B C2B 1_555 1_555
C3B C2B 1_555 1_555
H6B C3B 1_555 1_555
H7B C3B 1_555 1_555
C4B C3B 1_555 1_555
H8B C4B 1_555 1_555
H9B C4B 1_555 1_555
C5B C4B 1_555 1_555
H10B C5B 1_555 1_555
H11B C5B 1_555 1_555
F1B C16B 1_555 1_555
F2B C16B 1_555 1_555
S1B C7B 1_555 1_555
F3B C17 1_555 1_555
N1B C13B 1_555 1_555
N2B C14B 1_555 1_555
C6B C5B 1_555 1_555
H12B C6B 1_555 1_555
H13B C6B 1_555 1_555
C7B C6B 1_555 1_555
C8B C7B 1_555 1_555
C9B C8B 1_555 1_555
H14B C9B 1_555 1_555
C10B S1B 1_555 1_555
C11B C10B 1_555 1_555
H15B C11B 1_555 1_555
C12B C11B 1_555 1_555
C13B C12B 1_555 1_555
C14B C12B 1_555 1_555
C15B C15 1_555 1_555
C16B C17 1_555 1_555
C9 C10 1_555 1_555
C8B C15B 1_555 1_555
C9B C10B 1_555 1_555
C15B C16B 1_555 1_555

#END
