
#######################################################################
#
#                 Cambridge Crystallographic Data Centre
#                                CCDC 
#
#######################################################################
#
# If this CIF has been generated from an entry in the Cambridge 
# Structural Database, then it will include bibliographic, chemical, 
# crystal, experimental, refinement or atomic coordinate data resulting 
# from the CCDC's data processing and validation procedures.
#
#######################################################################

data_QOTYAB
_chemical_formula_moiety         'C18 H29 N2 1+,C9 H9 O5 S1 1-'
_chemical_name_systematic        
'1-(2,6-diisopropylphenyl)-4-isopropyl-4,5-dihydro-1H-imidazol-3-ium 2-(ethoxycarbonyl)benzenesulfonate'
_symmetry_cell_setting           monoclinic
_symmetry_space_group_name_H-M   'P 21'
_symmetry_Int_Tables_number      4
_space_group_name_Hall           'P 2yb'
loop_
_symmetry_equiv_pos_site_id
_symmetry_equiv_pos_as_xyz
1 x,y,z
2 -x,1/2+y,-z
_cell_length_a                   9.9657(6)
_cell_length_b                   10.1924(7)
_cell_length_c                   13.4051(8)
_cell_angle_alpha                90
_cell_angle_beta                 98.584(6)
_cell_angle_gamma                90
_cell_volume                     1346.36
_exptl_crystal_colour            colorless
_exptl_crystal_description       rod
_cell_formula_units_Z            2
loop_
_atom_site_label
_atom_site_type_symbol
_atom_site_fract_x
_atom_site_fract_y
_atom_site_fract_z
N1 N 0.0348(3) -0.0228(3) 0.26647(19)
C1 C 0.0155(3) -0.0725(3) 0.1751(2)
H1 H 0.0427 -0.1586 0.1598
N2 N -0.0447(3) 0.0082(3) 0.10762(19)
H2 H -0.0677 -0.0116 0.0435
C2 C -0.0700(3) 0.1377(3) 0.1518(2)
H3 H -0.0115 0.2049 0.1251
C3 C -0.0161(3) 0.1135(4) 0.2652(2)
H4 H 0.0577 0.1756 0.2902
H5 H -0.0897 0.1223 0.3069
C4 C 0.1031(3) -0.0860(4) 0.3568(2)
C5 C 0.2446(3) -0.0755(4) 0.3798(2)
C6 C 0.3072(4) -0.1354(4) 0.4677(3)
H6 H 0.4032 -0.1320 0.4842
C7 C 0.2321(4) -0.2001(4) 0.5316(3)
H7 H 0.2767 -0.2396 0.5917
C8 C 0.0923(4) -0.2070(4) 0.5080(3)
H8 H 0.0418 -0.2514 0.5525
C9 C 0.0240(4) -0.1498(4) 0.4199(2)
C10 C 0.3273(3) -0.0048(5) 0.3101(2)
H9 H 0.2625 0.0454 0.2600
C11 C 0.4011(5) -0.1026(5) 0.2514(3)
H10 H 0.4700 -0.1493 0.2981
H11 H 0.4449 -0.0557 0.2012
H12 H 0.3357 -0.1658 0.2172
C12 C 0.4257(4) 0.0938(4) 0.3668(3)
H13 H 0.3756 0.1549 0.4040
H14 H 0.4712 0.1429 0.3185
H15 H 0.4937 0.0471 0.4142
C13 C -0.1292(3) -0.1631(4) 0.3955(3)
H16 H -0.1595 -0.1183 0.3296
C14 C -0.1983(4) -0.0953(5) 0.4763(3)
H17 H -0.2970 -0.1043 0.4592
H18 H -0.1740 -0.0021 0.4795
H19 H -0.1681 -0.1362 0.5420
C15 C -0.1715(4) -0.3069(5) 0.3844(3)
H20 H -0.1226 -0.3495 0.3350
H21 H -0.2694 -0.3124 0.3614
H22 H -0.1495 -0.3511 0.4497
C16 C -0.2179(3) 0.1821(4) 0.1292(3)
H23 H -0.2270 0.2626 0.1704
C17 C -0.3186(3) 0.0816(4) 0.1574(3)
H24 H -0.4106 0.1179 0.1439
H25 H -0.2965 0.0603 0.2293
H26 H -0.3137 0.0018 0.1173
C18 C -0.2536(4) 0.2209(4) 0.0182(3)
H27 H -0.1878 0.2855 0.0012
H28 H -0.3449 0.2590 0.0064
H29 H -0.2510 0.1429 -0.0243
S1 S 0.07040(7) 0.48948(8) 0.18898(5)
O1 O 0.0482(2) 0.4332(3) 0.08740(17)
O2 O 0.0066(2) 0.4141(3) 0.26032(17)
O3 O 0.0412(3) 0.6288(3) 0.1900(2)
C19 C 0.2495(3) 0.4774(4) 0.2284(2)
C20 C 0.3329(3) 0.3944(4) 0.1815(2)
C21 C 0.4729(3) 0.3984(4) 0.2112(3)
H30 H 0.5302 0.3452 0.1774
C22 C 0.5296(3) 0.4791(5) 0.2894(3)
H31 H 0.6250 0.4800 0.3099
C23 C 0.4461(4) 0.5588(4) 0.3377(3)
H32 H 0.4843 0.6127 0.3925
C24 C 0.3073(4) 0.5597(4) 0.3063(2)
H33 H 0.2511 0.6167 0.3380
C25 C 0.2779(3) 0.2909(4) 0.1064(3)
O4 O 0.2196(2) 0.1938(3) 0.12970(18)
O5 O 0.3079(2) 0.3136(3) 0.01474(18)
C26 C 0.2529(4) 0.2176(4) -0.0620(3)
H34 H 0.2467 0.2584 -0.1295
H35 H 0.1600 0.1931 -0.0513
C27 C 0.3383(4) 0.0956(5) -0.0594(3)
H36 H 0.2981 0.0352 -0.1125
H37 H 0.3421 0.0529 0.0065
H38 H 0.4303 0.1190 -0.0705
loop_
_geom_bond_atom_site_label_1
_geom_bond_atom_site_label_2
_geom_bond_site_symmetry_1
_geom_bond_site_symmetry_2
N1 C1 1_555 1_555
C1 H1 1_555 1_555
N2 C1 1_555 1_555
H2 N2 1_555 1_555
C2 N2 1_555 1_555
H3 C2 1_555 1_555
C3 N1 1_555 1_555
H4 C3 1_555 1_555
H5 C3 1_555 1_555
C4 N1 1_555 1_555
C5 C4 1_555 1_555
C6 C5 1_555 1_555
H6 C6 1_555 1_555
C7 C6 1_555 1_555
H7 C7 1_555 1_555
C8 C7 1_555 1_555
H8 C8 1_555 1_555
C9 C4 1_555 1_555
C10 C5 1_555 1_555
H9 C10 1_555 1_555
C11 C10 1_555 1_555
H10 C11 1_555 1_555
H11 C11 1_555 1_555
H12 C11 1_555 1_555
C12 C10 1_555 1_555
H13 C12 1_555 1_555
H14 C12 1_555 1_555
H15 C12 1_555 1_555
C13 C9 1_555 1_555
H16 C13 1_555 1_555
C14 C13 1_555 1_555
H17 C14 1_555 1_555
H18 C14 1_555 1_555
H19 C14 1_555 1_555
C15 C13 1_555 1_555
H20 C15 1_555 1_555
H21 C15 1_555 1_555
H22 C15 1_555 1_555
C16 C2 1_555 1_555
H23 C16 1_555 1_555
C17 C16 1_555 1_555
H24 C17 1_555 1_555
H25 C17 1_555 1_555
H26 C17 1_555 1_555
C18 C16 1_555 1_555
H27 C18 1_555 1_555
H28 C18 1_555 1_555
H29 C18 1_555 1_555
S1 O1 1_555 1_555
O2 S1 1_555 1_555
O3 S1 1_555 1_555
C19 S1 1_555 1_555
C20 C19 1_555 1_555
C21 C20 1_555 1_555
H30 C21 1_555 1_555
C22 C21 1_555 1_555
H31 C22 1_555 1_555
C23 C22 1_555 1_555
H32 C23 1_555 1_555
C24 C19 1_555 1_555
H33 C24 1_555 1_555
C25 C20 1_555 1_555
O4 C25 1_555 1_555
O5 C25 1_555 1_555
C26 O5 1_555 1_555
H34 C26 1_555 1_555
H35 C26 1_555 1_555
C27 C26 1_555 1_555
H36 C27 1_555 1_555
H37 C27 1_555 1_555
H38 C27 1_555 1_555
C2 C3 1_555 1_555
C8 C9 1_555 1_555
C23 C24 1_555 1_555

#END
