
#######################################################################
#
#                 Cambridge Crystallographic Data Centre
#                                CCDC 
#
#######################################################################
#
# If this CIF has been generated from an entry in the Cambridge 
# Structural Database, then it will include bibliographic, chemical, 
# crystal, experimental, refinement or atomic coordinate data resulting 
# from the CCDC's data processing and validation procedures.
#
#######################################################################

data_QOVDUA
_chemical_formula_moiety         'C16 H24 O6 Rb1 1+,I3 1-'
_chemical_name_systematic        '(Benzo-18-crown-6)-rubidium triiodide'
_symmetry_cell_setting           orthorhombic
_symmetry_space_group_name_H-M   'P b c a'
_symmetry_Int_Tables_number      61
_space_group_name_Hall           '-P 2ac 2ab'
loop_
_symmetry_equiv_pos_site_id
_symmetry_equiv_pos_as_xyz
1 x,y,z
2 1/2+x,y,1/2-z
3 1/2-x,1/2+y,z
4 x,1/2-y,1/2+z
5 -x,-y,-z
6 1/2-x,-y,1/2+z
7 1/2+x,1/2-y,-z
8 -x,1/2+y,1/2-z
_cell_length_a                   15.774(3)
_cell_length_b                   17.801(3)
_cell_length_c                   34.632(5)
_cell_angle_alpha                90
_cell_angle_beta                 90
_cell_angle_gamma                90
_cell_volume                     9724.42
_exptl_crystal_colour            yellow
_exptl_crystal_description       polyhedron
_chemical_melting_point          387K
_cell_formula_units_Z            16
_exptl_crystal_recrystallization_method dichloromethane/ethanol
loop_
_atom_site_label
_atom_site_type_symbol
_atom_site_fract_x
_atom_site_fract_y
_atom_site_fract_z
I1 I 0.82000(5) -0.03637(4) 0.39915(2)
I2 I 0.72288(3) 0.08378(3) 0.43272(2)
I3 I 0.62770(4) 0.20947(4) 0.46828(2)
I4 I 0.75364(5) -0.03447(4) 0.64521(2)
I5 I 0.67924(4) 0.09561(4) 0.68291(2)
I6 I 0.61557(4) 0.23442(4) 0.71836(2)
Rb1 Rb 0.69007(5) 0.09338(5) 0.79134(3)
C1 C 0.4859(6) 0.1802(6) 0.8158(3)
O1 O 0.5171(3) 0.1086(4) 0.8159(2)
C2 C 0.4619(6) 0.0510(6) 0.8023(3)
H1 H 0.4517(6) 0.0574(6) 0.7749(3)
H2 H 0.4080(6) 0.0540(6) 0.8157(3)
C3 C 0.5019(6) -0.0232(6) 0.8096(3)
H3 H 0.5160(6) -0.0275(6) 0.8368(3)
H4 H 0.4619(6) -0.0628(6) 0.8033(3)
O2 O 0.5762(4) -0.0325(3) 0.7872(2)
C4 C 0.6142(6) -0.1040(5) 0.7914(3)
H5 H 0.5776(6) -0.1421(5) 0.7802(3)
H6 H 0.6215(6) -0.1154(5) 0.8186(3)
C5 C 0.6972(6) -0.1049(5) 0.7718(3)
H7 H 0.7185(6) -0.1559(5) 0.7704(3)
H8 H 0.6913(6) -0.0858(5) 0.7457(3)
O3 O 0.7546(4) -0.0596(3) 0.7927(2)
C6 C 0.8377(7) -0.0558(5) 0.7784(3)
H9 H 0.8366(7) -0.0355(5) 0.7524(3)
H10 H 0.8611(7) -0.1061(5) 0.7771(3)
C7 C 0.8928(6) -0.0085(5) 0.8029(3)
H11 H 0.8875(6) -0.0236(5) 0.8297(3)
H12 H 0.9515(6) -0.0146(5) 0.7951(3)
O4 O 0.8683(4) 0.0674(3) 0.7987(2)
C8 C 0.9045(6) 0.1146(6) 0.8268(4)
H13 H 0.9655(6) 0.1075(6) 0.8270(4)
H14 H 0.8830(6) 0.1007(6) 0.8521(4)
C9 C 0.8857(7) 0.1926(6) 0.8197(3)
H15 H 0.9144(7) 0.2228(6) 0.8389(3)
H16 H 0.9086(7) 0.2063(6) 0.7946(3)
O5 O 0.7988(4) 0.2104(4) 0.8203(2)
C10 C 0.7652(7) 0.2346(5) 0.8555(3)
H17 H 0.8026(7) 0.2718(5) 0.8668(3)
H18 H 0.7617(7) 0.1923(5) 0.8731(3)
C11 C 0.6800(6) 0.2675(5) 0.8503(3)
H19 H 0.6621(6) 0.2914(5) 0.8742(3)
H20 H 0.6819(6) 0.3056(5) 0.8303(3)
O6 O 0.6208(4) 0.2114(3) 0.8400(2)
C12 C 0.5410(6) 0.2342(6) 0.8295(3)
C13 C 0.5129(7) 0.3078(6) 0.8324(3)
H21 H 0.5478(7) 0.3446(6) 0.8430(3)
C14 C 0.4322(7) 0.3265(6) 0.8194(3)
H22 H 0.4143(7) 0.3762(6) 0.8201(3)
C15 C 0.3815(7) 0.2749(7) 0.8063(3)
H23 H 0.3270(7) 0.2881(7) 0.7986(3)
C16 C 0.4071(6) 0.2004(6) 0.8034(3)
H24 H 0.3707(6) 0.1646(6) 0.7931(3)
Rb2 Rb 0.71850(5) 0.08230(5) 0.54290(3)
C17 C 0.5158(6) 0.1661(5) 0.5733(2)
O7 O 0.5490(3) 0.0951(3) 0.5721(2)
C18 C 0.4930(5) 0.0368(5) 0.5605(3)
H25 H 0.4764(5) 0.0439(5) 0.5338(3)
H26 H 0.4424(5) 0.0375(5) 0.5764(3)
C19 C 0.5380(6) -0.0368(5) 0.5650(3)
H27 H 0.5605(6) -0.0410(5) 0.5910(3)
H28 H 0.4983(6) -0.0777(5) 0.5610(3)
O8 O 0.6053(4) -0.0419(3) 0.5378(2)
C20 C 0.6443(6) -0.1145(5) 0.5386(3)
H29 H 0.6072(6) -0.1514(5) 0.5268(3)
H30 H 0.6550(6) -0.1296(5) 0.5651(3)
C21 C 0.7256(6) -0.1098(5) 0.5168(3)
H31 H 0.7475(6) -0.1600(5) 0.5125(3)
H32 H 0.7155(6) -0.0868(5) 0.4919(3)
O9 O 0.7860(4) -0.0670(3) 0.5375(2)
C22 C 0.8686(6) -0.0641(5) 0.5213(3)
H33 H 0.8653(6) -0.0458(5) 0.4949(3)
H34 H 0.8928(6) -0.1142(5) 0.5208(3)
C23 C 0.9221(6) -0.0147(6) 0.5440(3)
H35 H 0.9168(6) -0.0271(6) 0.5712(3)
H36 H 0.9809(6) -0.0215(6) 0.5365(3)
O10 O 0.8977(4) 0.0613(4) 0.5379(2)
C24 C 0.9380(8) 0.1138(8) 0.5623(5)
H37 H 0.9340(8) 0.0945(8) 0.5884(5)
H38 H 0.9977(8) 0.1140(8) 0.5555(5)
C25 C 0.9140(9) 0.1811(9) 0.5632(5)
H39 H 0.9350(9) 0.2046(9) 0.5398(5)
H40 H 0.9434(9) 0.2047(9) 0.5845(5)
O11 O 0.8277(4) 0.2012(4) 0.5665(2)
C26 C 0.8009(6) 0.2200(6) 0.6042(3)
H41 H 0.8405(6) 0.2551(6) 0.6158(3)
H42 H 0.7988(6) 0.1752(6) 0.6201(3)
C27 C 0.7149(6) 0.2548(5) 0.6019(3)
H43 H 0.7001(6) 0.2769(5) 0.6266(3)
H44 H 0.7149(6) 0.2943(5) 0.5826(3)
O12 O 0.6544(4) 0.1990(3) 0.5918(2)
C28 C 0.5724(7) 0.2211(5) 0.5846(3)
C29 C 0.5441(7) 0.2944(5) 0.5879(3)
H45 H 0.5804(7) 0.3319(5) 0.5968(3)
C30 C 0.4617(9) 0.3114(6) 0.5781(4)
H46 H 0.4432(9) 0.3608(6) 0.5801(4)
C31 C 0.4079(7) 0.2589(8) 0.5658(3)
H47 H 0.3527(7) 0.2719(8) 0.5590(3)
C32 C 0.4348(6) 0.1846(6) 0.5631(3)
H48 H 0.3978(6) 0.1477(6) 0.5544(3)
loop_
_geom_bond_atom_site_label_1
_geom_bond_atom_site_label_2
_geom_bond_site_symmetry_1
_geom_bond_site_symmetry_2
I1 I2 1_555 1_555
I2 I3 1_555 1_555
I4 I5 1_555 1_555
I5 I6 1_555 1_555
Rb1 O1 1_555 1_555
C1 O1 1_555 1_555
O1 C2 1_555 1_555
C2 H1 1_555 1_555
H2 C2 1_555 1_555
C3 C2 1_555 1_555
H3 C3 1_555 1_555
H4 C3 1_555 1_555
O2 Rb1 1_555 1_555
C4 O2 1_555 1_555
H5 C4 1_555 1_555
H6 C4 1_555 1_555
C5 C4 1_555 1_555
H7 C5 1_555 1_555
H8 C5 1_555 1_555
O3 Rb1 1_555 1_555
C6 O3 1_555 1_555
H9 C6 1_555 1_555
H10 C6 1_555 1_555
C7 C6 1_555 1_555
H11 C7 1_555 1_555
H12 C7 1_555 1_555
O4 Rb1 1_555 1_555
C8 O4 1_555 1_555
H13 C8 1_555 1_555
H14 C8 1_555 1_555
C9 C8 1_555 1_555
H15 C9 1_555 1_555
H16 C9 1_555 1_555
O5 Rb1 1_555 1_555
C10 O5 1_555 1_555
H17 C10 1_555 1_555
H18 C10 1_555 1_555
C11 C10 1_555 1_555
H19 C11 1_555 1_555
H20 C11 1_555 1_555
O6 Rb1 1_555 1_555
C12 C1 1_555 1_555
C13 C12 1_555 1_555
H21 C13 1_555 1_555
C14 C13 1_555 1_555
H22 C14 1_555 1_555
C15 C14 1_555 1_555
H23 C15 1_555 1_555
C16 C1 1_555 1_555
H24 C16 1_555 1_555
Rb2 O7 1_555 1_555
C17 O7 1_555 1_555
O7 C18 1_555 1_555
C18 H25 1_555 1_555
H26 C18 1_555 1_555
C19 C18 1_555 1_555
H27 C19 1_555 1_555
H28 C19 1_555 1_555
O8 Rb2 1_555 1_555
C20 O8 1_555 1_555
H29 C20 1_555 1_555
H30 C20 1_555 1_555
C21 C20 1_555 1_555
H31 C21 1_555 1_555
H32 C21 1_555 1_555
O9 Rb2 1_555 1_555
C22 O9 1_555 1_555
H33 C22 1_555 1_555
H34 C22 1_555 1_555
C23 C22 1_555 1_555
H35 C23 1_555 1_555
H36 C23 1_555 1_555
O10 Rb2 1_555 1_555
C24 O10 1_555 1_555
H37 C24 1_555 1_555
H38 C24 1_555 1_555
C25 C24 1_555 1_555
H39 C25 1_555 1_555
H40 C25 1_555 1_555
O11 Rb2 1_555 1_555
C26 O11 1_555 1_555
H41 C26 1_555 1_555
H42 C26 1_555 1_555
C27 C26 1_555 1_555
H43 C27 1_555 1_555
H44 C27 1_555 1_555
O12 Rb2 1_555 1_555
C28 C17 1_555 1_555
C29 C28 1_555 1_555
H45 C29 1_555 1_555
C30 C29 1_555 1_555
H46 C30 1_555 1_555
C31 C30 1_555 1_555
H47 C31 1_555 1_555
C32 C17 1_555 1_555
H48 C32 1_555 1_555
C3 O2 1_555 1_555
C5 O3 1_555 1_555
C7 O4 1_555 1_555
C9 O5 1_555 1_555
C11 O6 1_555 1_555
O6 C12 1_555 1_555
C15 C16 1_555 1_555
C19 O8 1_555 1_555
C21 O9 1_555 1_555
C23 O10 1_555 1_555
C25 O11 1_555 1_555
C27 O12 1_555 1_555
O12 C28 1_555 1_555
C31 C32 1_555 1_555

#END
