
#######################################################################
#
#                 Cambridge Crystallographic Data Centre
#                                CCDC 
#
#######################################################################
#
# If this CIF has been generated from an entry in the Cambridge 
# Structural Database, then it will include bibliographic, chemical, 
# crystal, experimental, refinement or atomic coordinate data resulting 
# from the CCDC's data processing and validation procedures.
#
#######################################################################

data_QOVFUE
_chemical_formula_moiety         'C44 H68 N8 4+,C2 H3 N1,3(H2 O1),4(Cl1 1-)'
_chemical_name_systematic        
'5,10,15,20-tetrakis(Piperidinium-4-yl)-5,10,15,20-tetramethylcalix(4)pyrrole tetrachloride acetonitrile solvate trihydrate'
_symmetry_cell_setting           monoclinic
_symmetry_space_group_name_H-M   'P 21/c'
_symmetry_Int_Tables_number      14
_space_group_name_Hall           '-P 2ybc'
loop_
_symmetry_equiv_pos_site_id
_symmetry_equiv_pos_as_xyz
1 x,y,z
2 -x,1/2+y,1/2-z
3 -x,-y,-z
4 x,1/2-y,1/2+z
_cell_length_a                   11.4305(17)
_cell_length_b                   15.695(2)
_cell_length_c                   30.594(4)
_cell_angle_alpha                90
_cell_angle_beta                 103.645(5)
_cell_angle_gamma                90
_cell_volume                     5333.7
_exptl_crystal_colour            colorless
_exptl_crystal_description       block
_cell_formula_units_Z            4
loop_
_atom_site_label
_atom_site_type_symbol
_atom_site_fract_x
_atom_site_fract_y
_atom_site_fract_z
N1 N 1.0677(3) 0.8057(2) 0.81374(12)
H1 H 1.0045 0.8343 0.7990
N2 N 0.8673(3) 0.8480(2) 0.86544(11)
H2 H 0.8800 0.7931 0.8631
N3 N 0.6588(3) 0.7479(2) 0.78352(11)
H3 H 0.7180 0.7160 0.7986
N4 N 0.8592(3) 0.7022(2) 0.73322(11)
H4 H 0.8485 0.7576 0.7346
N5 N 1.1086(4) 0.8082(3) 1.02775(14)
H5 H 1.1504 0.7889 1.0555
H6 H 1.0297 0.8156 1.0290
N6 N 0.6298(4) 0.6198(3) 0.94283(15)
H7 H 0.6546 0.5687 0.9566
H8 H 0.5655 0.6387 0.9534
N7 N 0.6079(4) 0.7172(3) 0.56702(13)
H9 H 0.5675 0.7340 0.5387
H10 H 0.6851 0.7029 0.5658
N8 N 1.1164(4) 0.8877(3) 0.64024(14)
H11 H 1.1769 0.8573 0.6322
H12 H 1.0997 0.9342 0.6215
C1 C 1.1259(4) 0.7431(3) 0.79518(15)
C2 C 1.2190(4) 0.7164(4) 0.82890(16)
H13 H 1.2760 0.6737 0.8263
C3 C 1.2169(5) 0.7619(4) 0.86791(16)
H14 H 1.2720 0.7556 0.8963
C4 C 1.1221(4) 0.8169(3) 0.85819(14)
C5 C 1.0880(4) 0.8858(3) 0.88730(14)
C6 C 1.1629(5) 0.9657(3) 0.88261(17)
H15 H 1.2488 0.9522 0.8923
H16 H 1.1432 1.0116 0.9014
H17 H 1.1442 0.9841 0.8511
C7 C 1.1239(4) 0.8553(3) 0.93737(15)
H18 H 1.2121 0.8428 0.9444
C8 C 1.1046(5) 0.9214(4) 0.97127(16)
H19 H 1.1425 0.9758 0.9658
H20 H 1.0173 0.9315 0.9675
C9 C 1.1588(5) 0.8915(4) 1.01871(16)
H21 H 1.2472 0.8864 1.0232
H22 H 1.1425 0.9342 1.0403
C10 C 1.1140(5) 0.7425(4) 0.99363(18)
H23 H 1.0690 0.6914 0.9993
H24 H 1.1989 0.7257 0.9963
C11 C 1.0618(5) 0.7744(3) 0.94696(16)
H25 H 0.9748 0.7856 0.9433
H26 H 1.0706 0.7299 0.9250
C12 C 0.9562(4) 0.9089(3) 0.87415(14)
C13 C 0.9004(5) 0.9846(3) 0.87425(17)
H27 H 0.9388 1.0386 0.8790
C14 C 0.7750(5) 0.9701(3) 0.86611(17)
H28 H 0.7145 1.0122 0.8646
C15 C 0.7571(4) 0.8844(3) 0.86087(14)
C16 C 0.6412(4) 0.8330(3) 0.85120(15)
C17 C 0.5410(4) 0.8875(4) 0.86290(17)
H29 H 0.5290 0.9391 0.8443
H30 H 0.5641 0.9036 0.8947
H31 H 0.4660 0.8547 0.8571
C18 C 0.6603(4) 0.7510(3) 0.87971(14)
H32 H 0.7298 0.7205 0.8721
C19 C 0.6942(5) 0.7655(3) 0.93053(15)
H33 H 0.7619 0.8063 0.9382
H34 H 0.6248 0.7906 0.9401
C20 C 0.7300(5) 0.6827(4) 0.95540(17)
H35 H 0.8032 0.6597 0.9477
H36 H 0.7485 0.6931 0.9882
C21 C 0.5900(5) 0.6059(4) 0.89384(18)
H37 H 0.5205 0.5664 0.8875
H38 H 0.6560 0.5793 0.8827
C22 C 0.5545(5) 0.6891(4) 0.86952(17)
H39 H 0.4853 0.7141 0.8792
H40 H 0.5297 0.6787 0.8367
C23 C 0.6038(4) 0.8113(3) 0.80191(15)
C24 C 0.5197(5) 0.8460(4) 0.76785(17)
H41 H 0.4683 0.8924 0.7703
C25 C 0.5220(5) 0.8014(4) 0.72804(17)
H42 H 0.4713 0.8119 0.6992
C26 C 0.6090(4) 0.7408(3) 0.73803(14)
C27 C 0.6369(4) 0.6669(3) 0.71119(14)
C28 C 0.5618(5) 0.5909(3) 0.72084(17)
H43 H 0.5778 0.5814 0.7534
H44 H 0.5837 0.5398 0.7062
H45 H 0.4760 0.6031 0.7091
C29 C 0.5970(4) 0.6901(3) 0.66033(14)
H46 H 0.5108 0.7081 0.6544
C30 C 0.6032(5) 0.6160(3) 0.62883(15)
H47 H 0.5583 0.5667 0.6368
H48 H 0.6881 0.5986 0.6321
C31 C 0.5486(5) 0.6423(4) 0.57996(16)
H49 H 0.5561 0.5944 0.5597
H50 H 0.4619 0.6545 0.5763
C32 C 0.6127(5) 0.7898(3) 0.59837(15)
H51 H 0.5303 0.8120 0.5959
H52 H 0.6617 0.8362 0.5898
C33 C 0.6664(4) 0.7636(3) 0.64644(15)
H53 H 0.6652 0.8127 0.6666
H54 H 0.7514 0.7464 0.6496
C34 C 0.7684(4) 0.6431(3) 0.72435(14)
C35 C 0.8225(4) 0.5659(3) 0.72581(16)
H55 H 0.7823 0.5125 0.7211
C36 C 0.9472(4) 0.5777(3) 0.73533(15)
H56 H 1.0061 0.5340 0.7382
C37 C 0.9694(4) 0.6628(3) 0.73970(14)
C38 C 1.0876(4) 0.7119(3) 0.74730(14)
C39 C 1.1847(4) 0.6507(4) 0.73952(17)
H57 H 1.2611 0.6813 0.7434
H58 H 1.1609 0.6277 0.7089
H59 H 1.1941 0.6039 0.7613
C40 C 1.0708(4) 0.7871(3) 0.71359(14)
H60 H 1.0053 0.8240 0.7199
C41 C 1.0309(4) 0.7589(3) 0.66469(15)
H61 H 1.0943 0.7228 0.6571
H62 H 0.9568 0.7243 0.6607
C42 C 1.0073(5) 0.8334(3) 0.63354(16)
H63 H 0.9848 0.8131 0.6020
H64 H 0.9394 0.8672 0.6393
C43 C 1.1593(5) 0.9176(4) 0.68706(17)
H65 H 1.0979 0.9554 0.6949
H66 H 1.2342 0.9510 0.6899
C44 C 1.1830(4) 0.8429(3) 0.71915(17)
H67 H 1.2069 0.8641 0.7505
H68 H 1.2502 0.8084 0.7133
N9 N 0.2257(8) 0.4768(5) 0.8331(3)
C45 C 0.2417(7) 0.5043(5) 0.8683(3)
C46 C 0.2547(9) 0.5370(6) 0.9125(3)
H69 H 0.1787 0.5304 0.9217
H70 H 0.2761 0.5975 0.9129
H71 H 0.3184 0.5056 0.9333
Cl1 Cl 0.43550(13) 0.70525(11) 0.98333(5)
Cl2 Cl 0.14312(12) 0.17394(10) 0.95104(5)
Cl3 Cl 0.29218(13) 0.77389(15) 0.60651(6)
Cl4 Cl 0.9415(2) 0.54453(12) 0.91827(6)
O1 O 0.8371(3) 0.8890(2) 0.75448(12)
H72 H 0.8092 0.9164 0.7725
H73 H 0.8240 0.9159 0.7308
O2 O 0.8855(3) 0.6646(2) 0.83732(12)
H74 H 0.8850 0.6229 0.8535
H75 H 0.9397 0.6579 0.8243
O3 O 0.6516(6) 0.4472(4) 0.9615(2)
H76 H 0.6690 0.4146 0.9431
H77 H 0.6302 0.4182 0.9805
loop_
_geom_bond_atom_site_label_1
_geom_bond_atom_site_label_2
_geom_bond_site_symmetry_1
_geom_bond_site_symmetry_2
N1 H1 1_555 1_555
N2 H2 1_555 1_555
N3 H3 1_555 1_555
N4 H4 1_555 1_555
N5 H5 1_555 1_555
H6 N5 1_555 1_555
N6 H7 1_555 1_555
H8 N6 1_555 1_555
N7 H9 1_555 1_555
H10 N7 1_555 1_555
N8 H11 1_555 1_555
H12 N8 1_555 1_555
C1 N1 1_555 1_555
C2 C1 1_555 1_555
H13 C2 1_555 1_555
C3 C2 1_555 1_555
H14 C3 1_555 1_555
C4 N1 1_555 1_555
C5 C4 1_555 1_555
C6 C5 1_555 1_555
H15 C6 1_555 1_555
H16 C6 1_555 1_555
H17 C6 1_555 1_555
C7 C5 1_555 1_555
H18 C7 1_555 1_555
C8 C7 1_555 1_555
H19 C8 1_555 1_555
H20 C8 1_555 1_555
C9 N5 1_555 1_555
H21 C9 1_555 1_555
H22 C9 1_555 1_555
C10 N5 1_555 1_555
H23 C10 1_555 1_555
H24 C10 1_555 1_555
C11 C7 1_555 1_555
H25 C11 1_555 1_555
H26 C11 1_555 1_555
C12 N2 1_555 1_555
C13 C12 1_555 1_555
H27 C13 1_555 1_555
C14 C13 1_555 1_555
H28 C14 1_555 1_555
C15 N2 1_555 1_555
C16 C15 1_555 1_555
C17 C16 1_555 1_555
H29 C17 1_555 1_555
H30 C17 1_555 1_555
H31 C17 1_555 1_555
C18 C16 1_555 1_555
H32 C18 1_555 1_555
C19 C18 1_555 1_555
H33 C19 1_555 1_555
H34 C19 1_555 1_555
C20 N6 1_555 1_555
H35 C20 1_555 1_555
H36 C20 1_555 1_555
C21 N6 1_555 1_555
H37 C21 1_555 1_555
H38 C21 1_555 1_555
C22 C18 1_555 1_555
H39 C22 1_555 1_555
H40 C22 1_555 1_555
C23 N3 1_555 1_555
C24 C23 1_555 1_555
H41 C24 1_555 1_555
C25 C24 1_555 1_555
H42 C25 1_555 1_555
C26 N3 1_555 1_555
C27 C26 1_555 1_555
C28 C27 1_555 1_555
H43 C28 1_555 1_555
H44 C28 1_555 1_555
H45 C28 1_555 1_555
C29 C27 1_555 1_555
H46 C29 1_555 1_555
C30 C29 1_555 1_555
H47 C30 1_555 1_555
H48 C30 1_555 1_555
C31 N7 1_555 1_555
H49 C31 1_555 1_555
H50 C31 1_555 1_555
C32 N7 1_555 1_555
H51 C32 1_555 1_555
H52 C32 1_555 1_555
C33 C29 1_555 1_555
H53 C33 1_555 1_555
H54 C33 1_555 1_555
C34 N4 1_555 1_555
C35 C34 1_555 1_555
H55 C35 1_555 1_555
C36 C35 1_555 1_555
H56 C36 1_555 1_555
C37 N4 1_555 1_555
C38 C1 1_555 1_555
C39 C38 1_555 1_555
H57 C39 1_555 1_555
H58 C39 1_555 1_555
H59 C39 1_555 1_555
C40 C38 1_555 1_555
H60 C40 1_555 1_555
C41 C40 1_555 1_555
H61 C41 1_555 1_555
H62 C41 1_555 1_555
C42 N8 1_555 1_555
H63 C42 1_555 1_555
H64 C42 1_555 1_555
C43 N8 1_555 1_555
H65 C43 1_555 1_555
H66 C43 1_555 1_555
C44 C40 1_555 1_555
H67 C44 1_555 1_555
H68 C44 1_555 1_555
N9 C45 1_555 1_555
C45 C46 1_555 1_555
C46 H69 1_555 1_555
H70 C46 1_555 1_555
H71 C46 1_555 1_555
O1 H72 1_555 1_555
H73 O1 1_555 1_555
O2 H74 1_555 1_555
H75 O2 1_555 1_555
O3 H76 1_555 1_555
H77 O3 1_555 1_555
C3 C4 1_555 1_555
C5 C12 1_555 1_555
C8 C9 1_555 1_555
C10 C11 1_555 1_555
C14 C15 1_555 1_555
C16 C23 1_555 1_555
C19 C20 1_555 1_555
C21 C22 1_555 1_555
C25 C26 1_555 1_555
C27 C34 1_555 1_555
C30 C31 1_555 1_555
C32 C33 1_555 1_555
C36 C37 1_555 1_555
C37 C38 1_555 1_555
C41 C42 1_555 1_555
C43 C44 1_555 1_555

#END
