
#######################################################################
#
#                 Cambridge Crystallographic Data Centre
#                                CCDC 
#
#######################################################################
#
# If this CIF has been generated from an entry in the Cambridge 
# Structural Database, then it will include bibliographic, chemical, 
# crystal, experimental, refinement or atomic coordinate data resulting 
# from the CCDC's data processing and validation procedures.
#
#######################################################################

data_QOVGAL
_chemical_formula_moiety         'C13 H15 N1 Se1'
_chemical_name_systematic        1-(1-Benzoselenophen-2-yl)piperidine
_symmetry_cell_setting           monoclinic
_symmetry_space_group_name_H-M   'P 21/c'
_symmetry_Int_Tables_number      14
_space_group_name_Hall           '-P 2ybc'
loop_
_symmetry_equiv_pos_site_id
_symmetry_equiv_pos_as_xyz
1 x,y,z
2 -x,1/2+y,1/2-z
3 -x,-y,-z
4 x,1/2-y,1/2+z
_cell_length_a                   11.3416(9)
_cell_length_b                   11.8544(4)
_cell_length_c                   8.5133(4)
_cell_angle_alpha                90
_cell_angle_beta                 101.407(6)
_cell_angle_gamma                90
_cell_volume                     1121.99
_exptl_crystal_colour            colorless
_exptl_crystal_description       monoclinic
_cell_formula_units_Z            4
loop_
_atom_site_label
_atom_site_type_symbol
_atom_site_fract_x
_atom_site_fract_y
_atom_site_fract_z
Se1 Se 0.41523(3) 0.26068(2) 0.36821(4)
N1 N 0.6410(3) 0.37268(19) 0.4136(3)
C1 C 0.5249(3) 0.3761(2) 0.3312(4)
C2 C 0.4708(3) 0.4497(2) 0.2148(4)
H1 H 0.5113 0.5111 0.1827
C3 C 0.2991(3) 0.3295(2) 0.2080(4)
C4 C 0.8707(3) 0.4017(3) 0.6350(4)
H2 H 0.8502 0.4504 0.7171
H3 H 0.9560 0.3849 0.6633
C5 C 0.3487(3) 0.4257(2) 0.1464(4)
C6 C 0.6654(3) 0.3135(3) 0.5697(4)
H4 H 0.6228 0.2421 0.5595
H5 H 0.6358 0.3587 0.6487
C7 C 0.7983(4) 0.2924(3) 0.6258(4)
H6 H 0.8259 0.2407 0.5525
H7 H 0.8120 0.2573 0.7307
C8 C 0.7091(3) 0.4792(2) 0.4169(4)
H8 H 0.6805 0.5324 0.4875
H9 H 0.6945 0.5116 0.3102
C9 C 0.2724(3) 0.4855(3) 0.0243(4)
H10 H 0.3014 0.5490 -0.0199
C10 C 0.1558(4) 0.4518(3) -0.0308(4)
H11 H 0.1069 0.4929 -0.1113
C11 C 0.1826(3) 0.2952(3) 0.1533(4)
H12 H 0.1529 0.2317 0.1966
C12 C 0.8431(3) 0.4614(3) 0.4739(4)
H13 H 0.8836 0.5339 0.4830
H14 H 0.8740 0.4169 0.3953
C13 C 0.1097(4) 0.3560(3) 0.0328(4)
H15 H 0.0307 0.3335 -0.0056
loop_
_geom_bond_atom_site_label_1
_geom_bond_atom_site_label_2
_geom_bond_site_symmetry_1
_geom_bond_site_symmetry_2
Se1 C1 1_555 1_555
N1 C1 1_555 1_555
C1 C2 1_555 1_555
C2 H1 1_555 1_555
C3 Se1 1_555 1_555
C4 H2 1_555 1_555
H3 C4 1_555 1_555
C5 C2 1_555 1_555
C6 N1 1_555 1_555
H4 C6 1_555 1_555
H5 C6 1_555 1_555
C7 C4 1_555 1_555
H6 C7 1_555 1_555
H7 C7 1_555 1_555
C8 N1 1_555 1_555
H8 C8 1_555 1_555
H9 C8 1_555 1_555
C9 C5 1_555 1_555
H10 C9 1_555 1_555
C10 C9 1_555 1_555
H11 C10 1_555 1_555
C11 C3 1_555 1_555
H12 C11 1_555 1_555
C12 C4 1_555 1_555
H13 C12 1_555 1_555
H14 C12 1_555 1_555
C13 C10 1_555 1_555
H15 C13 1_555 1_555
C3 C5 1_555 1_555
C6 C7 1_555 1_555
C8 C12 1_555 1_555
C11 C13 1_555 1_555

#END
