
#######################################################################
#
#                 Cambridge Crystallographic Data Centre
#                                CCDC 
#
#######################################################################
#
# If this CIF has been generated from an entry in the Cambridge 
# Structural Database, then it will include bibliographic, chemical, 
# crystal, experimental, refinement or atomic coordinate data resulting 
# from the CCDC's data processing and validation procedures.
#
#######################################################################

data_QOVPUN
_chemical_formula_moiety         'C23 H26 O1'
_chemical_name_systematic        
((1RS,3RS)-2,2-dimethyl-3-phenylcyclopropyl)((1SR,3SR)-2,2-dimethyl-3-phenylcyclopropyl)methanone
_symmetry_cell_setting           monoclinic
_symmetry_space_group_name_H-M   'P 21'
_symmetry_Int_Tables_number      4
_space_group_name_Hall           'P 2yb'
loop_
_symmetry_equiv_pos_site_id
_symmetry_equiv_pos_as_xyz
1 x,y,z
2 -x,1/2+y,-z
_cell_length_a                   5.7287(7)
_cell_length_b                   27.517(4)
_cell_length_c                   11.9206(17)
_cell_angle_alpha                90
_cell_angle_beta                 91.881(8)
_cell_angle_gamma                90
_cell_volume                     1878.11
_exptl_crystal_colour            colorless
_exptl_crystal_description       plate
_chemical_melting_point          '336-338 K'
_cell_formula_units_Z            4
_exptl_crystal_recrystallization_method ethanol/water
loop_
_atom_site_label
_atom_site_type_symbol
_atom_site_fract_x
_atom_site_fract_y
_atom_site_fract_z
C1 C 0.9241(13) 0.2555(3) 0.6841(6)
H1 H 0.9749 0.2882 0.6763
C2 C 1.0482(13) 0.2186(3) 0.6358(6)
H2 H 1.1841 0.2261 0.5956
C3 C 0.9779(15) 0.1710(3) 0.6449(6)
H3 H 1.0625 0.1457 0.6101
C4 C 0.7830(15) 0.1604(3) 0.7051(7)
H4 H 0.7360 0.1276 0.7139
C5 C 0.6542(14) 0.1975(3) 0.7534(6)
H5 H 0.5173 0.1900 0.7927
C6 C 0.7264(12) 0.2458(2) 0.7438(5)
C7 C 0.5830(12) 0.2845(2) 0.7963(5)
H6 H 0.4137 0.2835 0.7732
C8 C 0.6792(12) 0.3358(2) 0.8125(5)
H7 H 0.8476 0.3403 0.7956
C9 C 0.5224(12) 0.3767(2) 0.7808(5)
C10 C 0.6435(12) 0.4233(2) 0.7563(5)
H8 H 0.8127 0.4204 0.7393
C11 C 0.5097(12) 0.4620(2) 0.6905(5)
H9 H 0.3411 0.4541 0.6757
C12 C 0.6203(13) 0.4881(2) 0.5979(6)
C13 C 0.8184(12) 0.4727(3) 0.5465(6)
H10 H 0.8902 0.4434 0.5718
C14 C 0.9188(15) 0.4979(3) 0.4594(6)
H11 H 1.0601 0.4868 0.4287
C15 C 0.8106(15) 0.5393(3) 0.4180(6)
H12 H 0.8749 0.5565 0.3572
C16 C 0.6079(17) 0.5556(3) 0.4656(7)
H13 H 0.5325 0.5840 0.4372
C17 C 0.5146(14) 0.5308(2) 0.5541(6)
H14 H 0.3763 0.5426 0.5864
C18 C 0.6286(12) 0.3023(2) 0.9137(5)
C19 C 0.8379(12) 0.2821(3) 0.9771(6)
H15 H 0.7932 0.2525 1.0167
H16 H 0.8965 0.3063 1.0316
H17 H 0.9604 0.2745 0.9245
C20 C 0.4285(13) 0.3153(3) 0.9868(6)
H18 H 0.2988 0.3282 0.9400
H19 H 0.4796 0.3400 1.0415
H20 H 0.3768 0.2862 1.0264
C21 C 0.5715(12) 0.4718(2) 0.8104(6)
C22 C 0.3819(13) 0.4717(3) 0.8966(7)
H21 H 0.3063 0.5037 0.8976
H22 H 0.4517 0.4647 0.9710
H23 H 0.2656 0.4468 0.8769
C23 C 0.7676(14) 0.5067(3) 0.8386(6)
H24 H 0.7054 0.5399 0.8422
H25 H 0.8846 0.5050 0.7806
H26 H 0.8403 0.4980 0.9114
O1 O 0.3116(8) 0.37286(18) 0.7726(4)
C24 C 0.2532(13) 0.1695(3) 0.0332(6)
H27 H 0.1532 0.1951 0.0552
C25 C 0.1880(17) 0.1415(4) -0.0582(7)
H28 H 0.0428 0.1469 -0.0969
C26 C 0.3394(17) 0.1045(3) -0.0938(7)
H29 H 0.3008 0.0856 -0.1583
C27 C 0.5426(17) 0.0966(3) -0.0334(6)
H30 H 0.6426 0.0709 -0.0549
C28 C 0.6064(14) 0.1249(2) 0.0582(6)
H31 H 0.7514 0.1196 0.0972
C29 C 0.4559(13) 0.1618(2) 0.0932(5)
C30 C 0.5358(11) 0.1906(2) 0.1929(5)
H32 H 0.7071 0.1976 0.1948
C31 C 0.3921(12) 0.2309(2) 0.2417(6)
H33 H 0.2307 0.2348 0.2084
C32 C 0.5165(12) 0.2769(2) 0.2732(5)
C33 C 0.3582(12) 0.3180(2) 0.3029(5)
H34 H 0.1903 0.3143 0.2787
C34 C 0.4585(11) 0.3695(2) 0.2971(5)
H35 H 0.6285 0.3706 0.2807
C35 C 0.3206(12) 0.4103(2) 0.2472(5)
C36 C 0.4072(13) 0.4575(3) 0.2663(6)
H36 H 0.5474 0.4626 0.3095
C37 C 0.2826(16) 0.4967(3) 0.2203(6)
H37 H 0.3403 0.5287 0.2322
C38 C 0.0797(16) 0.4902(3) 0.1584(6)
H38 H -0.0026 0.5175 0.1286
C39 C -0.0055(13) 0.4436(3) 0.1394(6)
H39 H -0.1464 0.4387 0.0967
C40 C 0.1191(12) 0.4043(3) 0.1839(6)
H40 H 0.0624 0.3724 0.1699
C41 C 0.4367(12) 0.1843(2) 0.3088(5)
C42 C 0.6060(12) 0.1844(3) 0.4075(6)
H41 H 0.6652 0.1514 0.4204
H42 H 0.5268 0.1957 0.4743
H43 H 0.7365 0.2062 0.3923
C43 C 0.2280(13) 0.1513(3) 0.3208(6)
H44 H 0.1268 0.1535 0.2531
H45 H 0.1405 0.1613 0.3862
H46 H 0.2813 0.1177 0.3309
C44 C 0.4066(12) 0.3478(2) 0.4100(6)
C45 C 0.6020(12) 0.3336(3) 0.4910(6)
H47 H 0.6484 0.3618 0.5367
H48 H 0.7358 0.3223 0.4492
H49 H 0.5489 0.3075 0.5401
C46 C 0.1921(12) 0.3669(3) 0.4677(6)
H50 H 0.2336 0.3962 0.5105
H51 H 0.1344 0.3420 0.5187
H52 H 0.0700 0.3747 0.4111
O2 O 0.7276(8) 0.28059(18) 0.2757(4)
loop_
_geom_bond_atom_site_label_1
_geom_bond_atom_site_label_2
_geom_bond_site_symmetry_1
_geom_bond_site_symmetry_2
C1 H1 1_555 1_555
C2 C1 1_555 1_555
H2 C2 1_555 1_555
C3 C2 1_555 1_555
H3 C3 1_555 1_555
C4 C3 1_555 1_555
H4 C4 1_555 1_555
C5 C4 1_555 1_555
H5 C5 1_555 1_555
C6 C1 1_555 1_555
C7 C6 1_555 1_555
H6 C7 1_555 1_555
C8 C7 1_555 1_555
H7 C8 1_555 1_555
C9 C8 1_555 1_555
C10 C9 1_555 1_555
H8 C10 1_555 1_555
C11 C10 1_555 1_555
H9 C11 1_555 1_555
C12 C11 1_555 1_555
C13 C12 1_555 1_555
H10 C13 1_555 1_555
C14 C13 1_555 1_555
H11 C14 1_555 1_555
C15 C14 1_555 1_555
H12 C15 1_555 1_555
C16 C15 1_555 1_555
H13 C16 1_555 1_555
C17 C12 1_555 1_555
H14 C17 1_555 1_555
C18 C7 1_555 1_555
C19 C18 1_555 1_555
H15 C19 1_555 1_555
H16 C19 1_555 1_555
H17 C19 1_555 1_555
C20 C18 1_555 1_555
H18 C20 1_555 1_555
H19 C20 1_555 1_555
H20 C20 1_555 1_555
C21 C10 1_555 1_555
C22 C21 1_555 1_555
H21 C22 1_555 1_555
H22 C22 1_555 1_555
H23 C22 1_555 1_555
C23 C21 1_555 1_555
H24 C23 1_555 1_555
H25 C23 1_555 1_555
H26 C23 1_555 1_555
O1 C9 1_555 1_555
C24 H27 1_555 1_555
C25 C24 1_555 1_555
H28 C25 1_555 1_555
C26 C25 1_555 1_555
H29 C26 1_555 1_555
C27 C26 1_555 1_555
H30 C27 1_555 1_555
C28 C27 1_555 1_555
H31 C28 1_555 1_555
C29 C24 1_555 1_555
C30 C29 1_555 1_555
H32 C30 1_555 1_555
C31 C30 1_555 1_555
H33 C31 1_555 1_555
C32 C31 1_555 1_555
C33 C32 1_555 1_555
H34 C33 1_555 1_555
C34 C33 1_555 1_555
H35 C34 1_555 1_555
C35 C34 1_555 1_555
C36 C35 1_555 1_555
H36 C36 1_555 1_555
C37 C36 1_555 1_555
H37 C37 1_555 1_555
C38 C37 1_555 1_555
H38 C38 1_555 1_555
C39 C38 1_555 1_555
H39 C39 1_555 1_555
C40 C35 1_555 1_555
H40 C40 1_555 1_555
C41 C30 1_555 1_555
C42 C41 1_555 1_555
H41 C42 1_555 1_555
H42 C42 1_555 1_555
H43 C42 1_555 1_555
C43 C41 1_555 1_555
H44 C43 1_555 1_555
H45 C43 1_555 1_555
H46 C43 1_555 1_555
C44 C33 1_555 1_555
C45 C44 1_555 1_555
H47 C45 1_555 1_555
H48 C45 1_555 1_555
H49 C45 1_555 1_555
C46 C44 1_555 1_555
H50 C46 1_555 1_555
H51 C46 1_555 1_555
H52 C46 1_555 1_555
O2 C32 1_555 1_555
C5 C6 1_555 1_555
C8 C18 1_555 1_555
C11 C21 1_555 1_555
C16 C17 1_555 1_555
C28 C29 1_555 1_555
C31 C41 1_555 1_555
C34 C44 1_555 1_555
C39 C40 1_555 1_555

#END
