
#######################################################################
#
#                 Cambridge Crystallographic Data Centre
#                                CCDC 
#
#######################################################################
#
# If this CIF has been generated from an entry in the Cambridge 
# Structural Database, then it will include bibliographic, chemical, 
# crystal, experimental, refinement or atomic coordinate data resulting 
# from the CCDC's data processing and validation procedures.
#
#######################################################################

data_QOVXEF
_chemical_formula_moiety         'C14 H16 F1 N5 O3'
_chemical_name_systematic        
'1-Cyclopropyl-6-fluoro-7-hydrazino-8-methoxy-4-oxo-1,4-dihydro-3-quinoline carbohydrazide'
_symmetry_cell_setting           triclinic
_symmetry_space_group_name_H-M   'P -1'
_symmetry_Int_Tables_number      2
_space_group_name_Hall           '-P 1'
loop_
_symmetry_equiv_pos_site_id
_symmetry_equiv_pos_as_xyz
1 x,y,z
2 -x,-y,-z
_cell_length_a                   7.9062(9)
_cell_length_b                   10.4189(12)
_cell_length_c                   10.5347(12)
_cell_angle_alpha                62.983(2)
_cell_angle_beta                 70.570(2)
_cell_angle_gamma                76.828(3)
_cell_volume                     726.007
_exptl_crystal_colour            colorless
_cell_formula_units_Z            2
_exptl_crystal_recrystallization_method ethanol
loop_
_atom_site_label
_atom_site_type_symbol
_atom_site_fract_x
_atom_site_fract_y
_atom_site_fract_z
F1 F 0.6149(3) 0.18431(19) -0.04789(19)
N1 N 0.9149(3) 0.8616(3) -0.1295(3)
H1 H 0.9010 0.8257 -0.1841
N2 N 0.9910(4) 0.9951(3) -0.1995(3)
H2 H 0.9034 1.0668 -0.2149
H3 H 1.0472 0.9996 -0.1413
N3 N 0.4757(3) 0.0507(3) 0.2662(3)
H4 H 0.4076 0.0346 0.3538
N4 N 0.4867(4) -0.0520(3) 0.2116(3)
H5 H 0.4258 -0.0162 0.1434
H6 H 0.6019 -0.0725 0.1711
N5 N 0.6925(3) 0.4343(2) 0.2916(2)
O1 O 0.8691(3) 0.8373(2) 0.1017(2)
O2 O 0.8525(3) 0.6353(2) -0.1618(2)
O3 O 0.5002(2) 0.1798(2) 0.4259(2)
C1 C 0.8637(4) 0.7885(3) 0.0162(3)
C2 C 0.7984(3) 0.5798(3) -0.0247(3)
C3 C 0.8000(4) 0.6442(3) 0.0695(3)
C4 C 0.7529(4) 0.5675(3) 0.2187(3)
H7 H 0.7632 0.6105 0.2759
C5 C 0.6643(3) 0.3707(3) 0.2088(3)
C6 C 0.7245(3) 0.4379(3) 0.0539(3)
C7 C 0.7063(4) 0.3713(3) -0.0293(3)
H8 H 0.7456 0.4148 -0.1318
C8 C 0.6314(4) 0.2434(3) 0.0384(3)
C9 C 0.5632(3) 0.1743(3) 0.1932(3)
C10 C 0.5785(3) 0.2430(3) 0.2756(3)
C11 C 0.6893(4) 0.3519(3) 0.4480(3)
H9 H 0.5701 0.3397 0.5187
C12 C 0.8287(4) 0.2309(4) 0.4865(4)
H10 H 0.9168 0.2109 0.4065
H11 H 0.7944 0.1460 0.5776
C13 C 0.8373(5) 0.3650(4) 0.4983(4)
H12 H 0.9301 0.4275 0.4252
H13 H 0.8077 0.3625 0.5964
C14 C 0.3127(4) 0.2299(4) 0.4671(4)
H14 H 0.3025 0.3299 0.4493
H15 H 0.2617 0.1736 0.5700
H16 H 0.2493 0.2194 0.4094
loop_
_geom_bond_atom_site_label_1
_geom_bond_atom_site_label_2
_geom_bond_site_symmetry_1
_geom_bond_site_symmetry_2
F1 C8 1_555 1_555
N1 H1 1_555 1_555
N2 N1 1_555 1_555
H2 N2 1_555 1_555
H3 N2 1_555 1_555
N3 H4 1_555 1_555
N4 N3 1_555 1_555
H5 N4 1_555 1_555
H6 N4 1_555 1_555
N5 C4 1_555 1_555
O1 C1 1_555 1_555
O2 C2 1_555 1_555
O3 C10 1_555 1_555
C1 N1 1_555 1_555
C2 C3 1_555 1_555
C3 C1 1_555 1_555
C4 C3 1_555 1_555
H7 C4 1_555 1_555
C5 N5 1_555 1_555
C6 C2 1_555 1_555
C7 C6 1_555 1_555
H8 C7 1_555 1_555
C8 C7 1_555 1_555
C9 N3 1_555 1_555
C10 C5 1_555 1_555
C11 N5 1_555 1_555
H9 C11 1_555 1_555
C12 C11 1_555 1_555
H10 C12 1_555 1_555
H11 C12 1_555 1_555
C13 C11 1_555 1_555
H12 C13 1_555 1_555
H13 C13 1_555 1_555
C14 O3 1_555 1_555
H14 C14 1_555 1_555
H15 C14 1_555 1_555
H16 C14 1_555 1_555
C5 C6 1_555 1_555
C8 C9 1_555 1_555
C9 C10 1_555 1_555
C12 C13 1_555 1_555

#END
