
#######################################################################
#
#                 Cambridge Crystallographic Data Centre
#                                CCDC 
#
#######################################################################
#
# If this CIF has been generated from an entry in the Cambridge 
# Structural Database, then it will include bibliographic, chemical, 
# crystal, experimental, refinement or atomic coordinate data resulting 
# from the CCDC's data processing and validation procedures.
#
#######################################################################

data_QOVYOQ
_chemical_formula_moiety         'C19 H10 Cl2 F3 N3 O4'
_chemical_name_systematic        
4-Chloro-N-(4-chloro-2-nitrophenyl)-2-nitro-N-(4-(trifluoromethyl)phenyl)aniline
_symmetry_cell_setting           monoclinic
_symmetry_space_group_name_H-M   'P 21/c'
_symmetry_Int_Tables_number      14
_space_group_name_Hall           '-P 2ybc'
loop_
_symmetry_equiv_pos_site_id
_symmetry_equiv_pos_as_xyz
1 x,y,z
2 -x,1/2+y,1/2-z
3 -x,-y,-z
4 x,1/2-y,1/2+z
_cell_length_a                   10.6878(3)
_cell_length_b                   15.0810(4)
_cell_length_c                   12.8358(4)
_cell_angle_alpha                90
_cell_angle_beta                 108.3796(11)
_cell_angle_gamma                90
_cell_volume                     1963.37
_exptl_crystal_colour            amber
_exptl_crystal_description       cube
_chemical_melting_point          141deg.C
_cell_formula_units_Z            4
loop_
_atom_site_label
_atom_site_type_symbol
_atom_site_fract_x
_atom_site_fract_y
_atom_site_fract_z
Cl1 Cl 1.50910(5) 0.53034(5) 0.83093(7)
Cl2 Cl 0.59929(7) 0.77846(4) 0.80057(6)
F1 F 0.69699(17) 0.18342(11) 0.36998(11)
F2 F 0.78204(16) 0.10557(8) 0.51293(14)
F3 F 0.58773(14) 0.15875(10) 0.48244(15)
O1 O 1.00436(16) 0.38945(12) 0.89107(15)
O2 O 1.1530(2) 0.30182(11) 0.87186(18)
O3 O 0.79869(17) 0.56167(13) 0.48703(14)
O4 O 0.59086(16) 0.56702(13) 0.46957(14)
N1 N 1.09775(17) 0.37334(11) 0.85936(14)
N2 N 0.70702(16) 0.57295(11) 0.52345(14)
N3 N 0.92739(15) 0.49422(10) 0.70005(13)
C1 C 0.87262(18) 0.41489(12) 0.64635(15)
C2 C 0.94168(18) 0.36566(13) 0.59034(16)
C3 C 0.88751(19) 0.28793(13) 0.53732(16)
C4 C 0.76478(19) 0.25998(12) 0.53870(15)
C5 C 0.6963(2) 0.30860(14) 0.59360(17)
C6 C 0.74977(19) 0.38573(13) 0.64847(17)
C7 C 0.7073(2) 0.17735(15) 0.47695(18)
C8 C 1.06620(17) 0.50581(12) 0.73818(15)
C9 C 1.15048(18) 0.44502(12) 0.80844(15)
C10 C 1.28631(19) 0.45074(13) 0.83605(17)
C11 C 1.3396(2) 0.52173(14) 0.79649(19)
C12 C 1.2593(2) 0.58592(15) 0.73166(19)
C13 C 1.1235(2) 0.57659(14) 0.70227(18)
C14 C 0.84837(18) 0.56325(12) 0.72005(16)
C15 C 0.73937(18) 0.59833(12) 0.63938(15)
C16 C 0.65932(19) 0.66224(13) 0.66384(18)
C17 C 0.6930(2) 0.69532(13) 0.76814(18)
C18 C 0.8036(2) 0.66505(14) 0.84961(18)
C19 C 0.8784(2) 0.59828(14) 0.82557(17)
H1 H 1.026(2) 0.3868(16) 0.588(2)
H2 H 0.936(2) 0.2535(17) 0.498(2)
H3 H 0.616(3) 0.2919(16) 0.598(2)
H4 H 0.826(3) 0.6911(16) 0.927(2)
H5 H 1.339(3) 0.4075(16) 0.882(2)
H6 H 1.068(3) 0.6197(18) 0.652(2)
H7 H 0.583(3) 0.6840(17) 0.608(2)
H8 H 1.292(3) 0.632(2) 0.704(2)
H9 H 0.699(3) 0.4173(18) 0.691(2)
H10 H 0.952(3) 0.5716(18) 0.884(2)
loop_
_geom_bond_atom_site_label_1
_geom_bond_atom_site_label_2
_geom_bond_site_symmetry_1
_geom_bond_site_symmetry_2
Cl1 C11 1_555 1_555
Cl2 C17 1_555 1_555
F1 C7 1_555 1_555
F2 C7 1_555 1_555
F3 C7 1_555 1_555
O1 N1 1_555 1_555
O2 N1 1_555 1_555
O3 N2 1_555 1_555
O4 N2 1_555 1_555
N1 C9 1_555 1_555
N2 C15 1_555 1_555
N3 C1 1_555 1_555
C1 C2 1_555 1_555
C2 C3 1_555 1_555
C3 C4 1_555 1_555
C4 C5 1_555 1_555
C5 C6 1_555 1_555
C6 C1 1_555 1_555
C7 C4 1_555 1_555
C8 N3 1_555 1_555
C9 C8 1_555 1_555
C10 C9 1_555 1_555
C11 C10 1_555 1_555
C12 C11 1_555 1_555
C13 C8 1_555 1_555
C14 N3 1_555 1_555
C15 C14 1_555 1_555
C16 C15 1_555 1_555
C17 C16 1_555 1_555
C18 C17 1_555 1_555
C19 C14 1_555 1_555
H1 C2 1_555 1_555
H2 C3 1_555 1_555
H3 C5 1_555 1_555
H4 C18 1_555 1_555
H5 C10 1_555 1_555
H6 C13 1_555 1_555
H7 C16 1_555 1_555
H8 C12 1_555 1_555
H9 C6 1_555 1_555
H10 C19 1_555 1_555
C12 C13 1_555 1_555
C18 C19 1_555 1_555

#END
