
#######################################################################
#
#                 Cambridge Crystallographic Data Centre
#                                CCDC 
#
#######################################################################
#
# If this CIF has been generated from an entry in the Cambridge 
# Structural Database, then it will include bibliographic, chemical, 
# crystal, experimental, refinement or atomic coordinate data resulting 
# from the CCDC's data processing and validation procedures.
#
#######################################################################

data_QOWHAM
_chemical_formula_moiety         'C17 H18 N2 O2,H2 O1'
_chemical_name_systematic        
'trans-(4-(2-(4-(Dimethylamino)phenyl)vinyl)-1-pyridiniumyl)acetate monohydrate'
_symmetry_cell_setting           monoclinic
_symmetry_space_group_name_H-M   'P 21'
_symmetry_Int_Tables_number      4
_space_group_name_Hall           'P 2yb'
loop_
_symmetry_equiv_pos_site_id
_symmetry_equiv_pos_as_xyz
1 x,y,z
2 -x,1/2+y,-z
_cell_length_a                   5.8780(6)
_cell_length_b                   8.4735(12)
_cell_length_c                   15.5832(16)
_cell_angle_alpha                90
_cell_angle_beta                 91.907(7)
_cell_angle_gamma                90
_cell_volume                     775.726
_exptl_crystal_colour            'dark red'
_exptl_crystal_description       prism
_cell_formula_units_Z            2
_exptl_crystal_recrystallization_method ethanol
loop_
_atom_site_label
_atom_site_type_symbol
_atom_site_fract_x
_atom_site_fract_y
_atom_site_fract_z
C1 C 0.3194(9) 0.0523(9) 0.6921(3)
H1 H 0.1826 -0.0014 0.6736
H2 H 0.2828 0.1340 0.7320
H3 H 0.4223 -0.0215 0.7194
C2 C 0.6299(8) 0.2178(8) 0.6322(3)
H4 H 0.6787 0.2586 0.5784
H5 H 0.7487 0.1540 0.6580
H6 H 0.5965 0.3038 0.6699
C3 C 0.3140(7) 0.1240(6) 0.5397(2)
C4 C 0.3937(7) 0.2155(6) 0.4710(2)
H7 H 0.5265 0.2743 0.4785
C5 C 0.2760(7) 0.2184(6) 0.3931(2)
H8 H 0.3318 0.2804 0.3492
C6 C 0.0780(6) 0.1328(5) 0.3773(2)
C7 C 0.0056(7) 0.0406(6) 0.4454(2)
H9 H -0.1245 -0.0207 0.4370
C8 C 0.1156(7) 0.0362(6) 0.5230(3)
H10 H 0.0582 -0.0265 0.5663
C9 C -0.0412(7) 0.1432(5) 0.2950(2)
H11 H 0.0260 0.2058 0.2539
C10 C -0.2357(7) 0.0737(6) 0.2711(3)
H12 H -0.3049 0.0111 0.3117
C11 C -0.3499(6) 0.0864(5) 0.1875(2)
C12 C -0.2598(6) 0.1659(5) 0.1177(2)
H13 H -0.1209 0.2176 0.1248
C13 C -0.3703(6) 0.1693(5) 0.0400(3)
H14 H -0.3056 0.2226 -0.0053
C14 C -0.6704(7) 0.0204(5) 0.0923(3)
H15 H -0.8111 -0.0282 0.0835
C15 C -0.5628(7) 0.0147(5) 0.1712(3)
H16 H -0.6323 -0.0383 0.2155
C16 C -0.6954(7) 0.1058(6) -0.0562(2)
H17 H -0.7748 0.0069 -0.0667
H18 H -0.5857 0.1188 -0.1008
C17 C -0.8663(6) 0.2403(5) -0.0623(3)
N1 N 0.4266(6) 0.1222(6) 0.6178(2)
N2 N -0.5728(5) 0.0966(4) 0.02739(19)
O1 O -0.8674(5) 0.3381(4) -0.00312(17)
O2 O -0.9944(5) 0.2378(4) -0.12834(18)
O3 O -0.7858(5) 0.4491(5) 0.16445(17)
H19 H -0.7742 0.4030 0.1156
H20 H -0.8429 0.3800 0.1984
loop_
_geom_bond_atom_site_label_1
_geom_bond_atom_site_label_2
_geom_bond_site_symmetry_1
_geom_bond_site_symmetry_2
C1 H1 1_555 1_555
H2 C1 1_555 1_555
H3 C1 1_555 1_555
C2 H4 1_555 1_555
H5 C2 1_555 1_555
H6 C2 1_555 1_555
C3 C4 1_555 1_555
C4 H7 1_555 1_555
C5 C4 1_555 1_555
H8 C5 1_555 1_555
C6 C5 1_555 1_555
C7 C6 1_555 1_555
H9 C7 1_555 1_555
C8 C3 1_555 1_555
H10 C8 1_555 1_555
C9 C6 1_555 1_555
H11 C9 1_555 1_555
C10 C9 1_555 1_555
H12 C10 1_555 1_555
C11 C10 1_555 1_555
C12 C11 1_555 1_555
H13 C12 1_555 1_555
C13 C12 1_555 1_555
H14 C13 1_555 1_555
C14 H15 1_555 1_555
C15 C11 1_555 1_555
H16 C15 1_555 1_555
C16 H17 1_555 1_555
H18 C16 1_555 1_555
C17 C16 1_555 1_555
N1 C1 1_555 1_555
N2 C13 1_555 1_555
O1 C17 1_555 1_555
O2 C17 1_555 1_555
O3 H19 1_555 1_555
H20 O3 1_555 1_555
C2 N1 1_555 1_555
C3 N1 1_555 1_555
C7 C8 1_555 1_555
C14 C15 1_555 1_555
C14 N2 1_555 1_555
C16 N2 1_555 1_555

#END
