
#######################################################################
#
#                 Cambridge Crystallographic Data Centre
#                                CCDC 
#
#######################################################################
#
# If this CIF has been generated from an entry in the Cambridge 
# Structural Database, then it will include bibliographic, chemical, 
# crystal, experimental, refinement or atomic coordinate data resulting 
# from the CCDC's data processing and validation procedures.
#
#######################################################################

data_QOWHEQ
_chemical_formula_moiety         'C18 H20 N2 O3,H2 O1'
_chemical_name_systematic        
'trans-(4-(2-(4-((2-Hydroxyethyl)(methyl)amino)phenyl)vinyl)-1-pyridiniumyl)acetate monohydrate'
_symmetry_cell_setting           monoclinic
_symmetry_space_group_name_H-M   'P 21/c'
_symmetry_Int_Tables_number      14
_space_group_name_Hall           '-P 2ybc'
loop_
_symmetry_equiv_pos_site_id
_symmetry_equiv_pos_as_xyz
1 x,y,z
2 -x,1/2+y,1/2-z
3 -x,-y,-z
4 x,1/2-y,1/2+z
_cell_length_a                   15.646(16)
_cell_length_b                   10.158(11)
_cell_length_c                   10.456(11)
_cell_angle_alpha                90
_cell_angle_beta                 104.279(18)
_cell_angle_gamma                90
_cell_volume                     1610.45
_cell_formula_units_Z            4
_exptl_crystal_recrystallization_method ethanol
loop_
_atom_site_label
_atom_site_type_symbol
_atom_site_fract_x
_atom_site_fract_y
_atom_site_fract_z
N1 N 0.8828(3) 0.2113(4) 0.8770(4)
N2 N 0.3138(3) 0.0941(4) 0.0815(4)
O1 O 0.9140(3) 0.0716(5) 1.0983(4)
O2 O 1.0291(2) 0.1903(4) 1.1961(4)
O3 O 0.2471(2) 0.3941(4) 0.0919(4)
H1 H 0.2197 0.3974 0.1493
C1 C 0.9676(3) 0.1586(5) 1.1020(5)
C2 C 0.9636(4) 0.2362(6) 0.9766(5)
H2 H 0.9678 0.3294 0.9972
H3 H 1.0136 0.2126 0.9420
C3 C 0.8118(4) 0.2873(6) 0.8700(5)
H4 H 0.8158 0.3555 0.9305
C4 C 0.7367(4) 0.2699(7) 0.7813(6)
H5 H 0.6896 0.3263 0.7796
C5 C 0.7276(5) 0.1709(9) 0.6932(6)
C6 C 0.7999(6) 0.0917(6) 0.7025(6)
H6 H 0.7967 0.0218 0.6440
C7 C 0.8743(4) 0.1128(5) 0.7934(5)
H7 H 0.9217 0.0563 0.7981
C8 C 0.6366(7) 0.1789(10) 0.6037(10)
H8 H 0.5972 0.2381 0.6257
C9 C 0.6099(6) 0.1110(10) 0.5009(10)
H9 H 0.6481 0.0458 0.4863
C10 C 0.5282(4) 0.1220(8) 0.4043(6)
C11 C 0.4569(4) 0.1990(6) 0.3945(5)
H10 H 0.4558 0.2574 0.4625
C12 C 0.3869(4) 0.1940(5) 0.2888(5)
H11 H 0.3399 0.2513 0.2842
C13 C 0.3837(3) 0.1040(5) 0.1858(5)
C14 C 0.4577(3) 0.0225(6) 0.1995(5)
H12 H 0.4590 -0.0399 0.1349
C15 C 0.5278(4) 0.0334(7) 0.3063(6)
H13 H 0.5765 -0.0209 0.3124
C16 C 0.2299(3) 0.1564(5) 0.0762(5)
H14 H 0.2234 0.1665 0.1655
H15 H 0.1832 0.0985 0.0297
C17 C 0.2181(4) 0.2881(6) 0.0102(6)
H16 H 0.2493 0.2879 -0.0593
H17 H 0.1560 0.3004 -0.0311
C18 C 0.3145(4) 0.0026(6) -0.0225(5)
H18 H 0.2593 0.0074 -0.0878
H19 H 0.3228 -0.0849 0.0129
H20 H 0.3618 0.0242 -0.0625
O4 O 0.1109(4) 0.4255(7) 0.1996(6)
H21 H 0.120(6) 0.346(4) 0.240(7)
H22 H 0.085(4) 0.476(5) 0.250(5)
loop_
_geom_bond_atom_site_label_1
_geom_bond_atom_site_label_2
_geom_bond_site_symmetry_1
_geom_bond_site_symmetry_2
N1 C2 1_555 1_555
N2 C13 1_555 1_555
O1 C1 1_555 1_555
O2 C1 1_555 1_555
O3 H1 1_555 1_555
O4 H21 1_555 1_555
C1 C2 1_555 1_555
C2 H2 1_555 1_555
H3 C2 1_555 1_555
C3 N1 1_555 1_555
H4 C3 1_555 1_555
C4 C3 1_555 1_555
H5 C4 1_555 1_555
C5 C4 1_555 1_555
C6 C5 1_555 1_555
H6 C6 1_555 1_555
C7 N1 1_555 1_555
H7 C7 1_555 1_555
C8 C5 1_555 1_555
H8 C8 1_555 1_555
C9 C8 1_555 1_555
H9 C9 1_555 1_555
C10 C9 1_555 1_555
C11 C10 1_555 1_555
H10 C11 1_555 1_555
C12 C11 1_555 1_555
H11 C12 1_555 1_555
C13 C12 1_555 1_555
C14 C13 1_555 1_555
H12 C14 1_555 1_555
C15 C10 1_555 1_555
H13 C15 1_555 1_555
C16 N2 1_555 1_555
H14 C16 1_555 1_555
H15 C16 1_555 1_555
C17 O3 1_555 1_555
H16 C17 1_555 1_555
H17 C17 1_555 1_555
C18 N2 1_555 1_555
H18 C18 1_555 1_555
H19 C18 1_555 1_555
H20 C18 1_555 1_555
H22 O4 1_555 1_555
C6 C7 1_555 1_555
C14 C15 1_555 1_555
C16 C17 1_555 1_555

#END
