
#######################################################################
#
#                 Cambridge Crystallographic Data Centre
#                                CCDC 
#
#######################################################################
#
# If this CIF has been generated from an entry in the Cambridge 
# Structural Database, then it will include bibliographic, chemical, 
# crystal, experimental, refinement or atomic coordinate data resulting 
# from the CCDC's data processing and validation procedures.
#
#######################################################################

data_QOWQUQ
_chemical_formula_moiety         'C22 H19 N3 S1'
_chemical_name_systematic        
2-(1,3-benzothiazol-2-yl)-3-(2,3,6,7-tetrahydro-1H,5H-pyrido[3,2,1-ij]quinolin-9-yl)acrylonitrile
_symmetry_cell_setting           triclinic
_symmetry_space_group_name_H-M   'P -1'
_symmetry_Int_Tables_number      2
_space_group_name_Hall           '-P 1'
loop_
_symmetry_equiv_pos_site_id
_symmetry_equiv_pos_as_xyz
1 x,y,z
2 -x,-y,-z
_cell_length_a                   8.7146(15)
_cell_length_b                   8.851(2)
_cell_length_c                   11.866(2)
_cell_angle_alpha                90.530(17)
_cell_angle_beta                 96.646(9)
_cell_angle_gamma                102.349(16)
_cell_volume                     887.529
_exptl_crystal_colour            red
_exptl_crystal_description       chunk
_cell_formula_units_Z            2
loop_
_atom_site_label
_atom_site_type_symbol
_atom_site_fract_x
_atom_site_fract_y
_atom_site_fract_z
S1 S 0.17733(5) -0.02003(5) -0.09163(3)
N1 N 0.45597(15) 0.08160(16) -0.15596(11)
N2 N 0.91543(15) 0.75855(16) 0.35369(11)
N3 N 0.2109(2) 0.2171(3) 0.15477(17)
C1 C 0.3031(2) 0.2177(2) 0.09434(15)
C2 C 0.41688(18) 0.21544(18) 0.01667(12)
C3 C 0.56242(19) 0.31102(18) 0.02830(12)
H1 H 0.6229 0.2971 -0.0290
C4 C 0.64144(18) 0.42920(18) 0.11144(12)
C5 C 0.57639(18) 0.48097(18) 0.20380(12)
H2 H 0.4710 0.4394 0.2120
C6 C 0.66273(17) 0.59072(17) 0.28239(12)
C7 C 0.82441(18) 0.65516(17) 0.27278(12)
C8 C 0.89214(19) 0.6060(2) 0.17976(13)
C9 C 0.80072(19) 0.4970(2) 0.10359(13)
H3 H 0.8468 0.4660 0.0430
C10 C 1.0649(2) 0.6696(3) 0.16752(16)
H4 H 1.1103 0.5871 0.1405
H5 H 1.0727 0.7488 0.1113
C11 C 1.1587(2) 0.7378(3) 0.27822(17)
H6 H 1.1736 0.6553 0.3288
H7 H 1.2622 0.7955 0.2641
C12 C 1.07194(19) 0.8438(2) 0.33314(15)
H8 H 1.1321 0.8866 0.4045
H9 H 1.0614 0.9288 0.2840
C13 C 0.84498(19) 0.81902(19) 0.44466(13)
H10 H 0.8035 0.9077 0.4187
H11 H 0.9254 0.8532 0.5086
C14 C 0.7127(2) 0.6967(2) 0.48210(13)
H12 H 0.6655 0.7393 0.5417
H13 H 0.7546 0.6100 0.5120
C15 C 0.58827(19) 0.6419(2) 0.38101(13)
H14 H 0.5087 0.5563 0.4027
H15 H 0.5365 0.7254 0.3581
C16 C 0.37492(18) -0.03412(18) -0.23359(12)
C17 C 0.22037(18) -0.10335(18) -0.21381(12)
C18 C 0.1248(2) -0.22105(19) -0.28561(14)
H16 H 0.0225 -0.2660 -0.2715
C19 C 0.1872(2) -0.2682(2) -0.37778(14)
H17 H 0.1261 -0.3465 -0.4268
C20 C 0.3406(2) -0.2004(2) -0.39902(14)
H18 H 0.3797 -0.2340 -0.4622
C21 C 0.4352(2) -0.0851(2) -0.32841(14)
H19 H 0.5375 -0.0414 -0.3431
C22 C 0.36689(18) 0.10080(18) -0.07800(12)
loop_
_geom_bond_atom_site_label_1
_geom_bond_atom_site_label_2
_geom_bond_site_symmetry_1
_geom_bond_site_symmetry_2
S1 C17 1_555 1_555
N1 C16 1_555 1_555
N2 C7 1_555 1_555
N3 C1 1_555 1_555
C1 C2 1_555 1_555
C2 C3 1_555 1_555
C3 H1 1_555 1_555
C4 C3 1_555 1_555
C5 C4 1_555 1_555
H2 C5 1_555 1_555
C6 C5 1_555 1_555
C7 C6 1_555 1_555
C8 C7 1_555 1_555
C9 C4 1_555 1_555
H3 C9 1_555 1_555
C10 C8 1_555 1_555
H4 C10 1_555 1_555
H5 C10 1_555 1_555
C11 C10 1_555 1_555
H6 C11 1_555 1_555
H7 C11 1_555 1_555
C12 N2 1_555 1_555
H8 C12 1_555 1_555
H9 C12 1_555 1_555
C13 N2 1_555 1_555
H10 C13 1_555 1_555
H11 C13 1_555 1_555
C14 C13 1_555 1_555
H12 C14 1_555 1_555
H13 C14 1_555 1_555
C15 C6 1_555 1_555
H14 C15 1_555 1_555
H15 C15 1_555 1_555
C16 C17 1_555 1_555
C17 C18 1_555 1_555
C18 H16 1_555 1_555
C19 C18 1_555 1_555
H17 C19 1_555 1_555
C20 C19 1_555 1_555
H18 C20 1_555 1_555
C21 C16 1_555 1_555
H19 C21 1_555 1_555
C22 S1 1_555 1_555
N1 C22 1_555 1_555
C2 C22 1_555 1_555
C8 C9 1_555 1_555
C11 C12 1_555 1_555
C14 C15 1_555 1_555
C20 C21 1_555 1_555

#END
