
#######################################################################
#
#                 Cambridge Crystallographic Data Centre
#                                CCDC 
#
#######################################################################
#
# If this CIF has been generated from an entry in the Cambridge 
# Structural Database, then it will include bibliographic, chemical, 
# crystal, experimental, refinement or atomic coordinate data resulting 
# from the CCDC's data processing and validation procedures.
#
#######################################################################

data_QOWSEA
_chemical_formula_moiety         '2(C1 H6 N3 1+),C6 H4 O6 S2 2-,3(C6 H6)'
_chemical_name_systematic        
'bis(Guanidinium) 1,4-benzenedisulfonate tris(benzene) clathrate'
_symmetry_cell_setting           monoclinic
_symmetry_space_group_name_H-M   'P 21/n'
_symmetry_Int_Tables_number      14
_space_group_name_Hall           '-P 2yn'
loop_
_symmetry_equiv_pos_site_id
_symmetry_equiv_pos_as_xyz
1 x,y,z
2 1/2+x,1/2-y,1/2+z
3 -x,-y,-z
4 1/2-x,1/2+y,1/2-z
_cell_length_a                   7.6465(6)
_cell_length_b                   11.6218(9)
_cell_length_c                   17.6250(13)
_cell_angle_alpha                90
_cell_angle_beta                 96.2110(10)
_cell_angle_gamma                90
_cell_volume                     1557.07
_exptl_crystal_colour            colorless
_exptl_crystal_description       plate
_cell_formula_units_Z            2
loop_
_atom_site_label
_atom_site_type_symbol
_atom_site_fract_x
_atom_site_fract_y
_atom_site_fract_z
S1 S 0.48951(8) 0.46260(5) 0.17627(4)
O1 O 0.3336(2) 0.52141(15) 0.19771(10)
C1 C 0.4899(3) 0.4823(2) 0.07671(14)
O2 O 0.6515(2) 0.51619(16) 0.21125(10)
C2 C 0.5751(3) 0.4018(2) 0.03512(15)
H5 H 0.6260 0.3350 0.0595
O3 O 0.4867(2) 0.33929(15) 0.18970(10)
C3 C 0.4146(3) 0.5804(2) 0.04185(15)
H8 H 0.3565 0.6347 0.0707
C3B C 0.5854(3) 0.4196(2) -0.04185(15)
C1B C 0.5101(3) 0.5177(2) -0.07671(14)
S1B S 0.51049(8) 0.53740(5) -0.17627(4)
O1B O 0.6664(2) 0.47859(15) -0.19771(10)
O2B O 0.3485(2) 0.48381(16) -0.21125(10)
O3B O 0.5133(2) 0.66071(15) -0.18970(10)
C2B C 0.4249(3) 0.5982(2) -0.03512(15)
H5B H 0.3740 0.6650 -0.0595
H8B H 0.6435 0.3653 -0.0707
N1 N 1.1486(3) 0.2477(2) 0.23221(13)
H1 H 1.2460 0.2816 0.2216
H2 H 1.1505 0.1750 0.2461
N2 N 0.9950(3) 0.41585(19) 0.20635(13)
H3 H 1.0921 0.4500 0.1957
H4 H 0.8955 0.4545 0.2031
N3 N 0.8511(3) 0.2543(2) 0.24232(14)
H6 H 0.7513 0.2926 0.2384
H7 H 0.8536 0.1815 0.2562
C4 C 0.9985(3) 0.3065(2) 0.22723(14)
C5 C 0.9664(4) 0.2191(3) 0.02620(17)
H9 H 0.9487 0.1989 0.0770
C6 C 0.9073(4) 0.1468(3) -0.03319(18)
H10 H 0.8497 0.0768 -0.0235
C7 C 0.9328(4) 0.1773(3) -0.10685(17)
H11 H 0.8924 0.1282 -0.1482
C8 C 1.0170(4) 0.2789(3) -0.12041(17)
H12 H 1.0345 0.2998 -0.1712
C9 C 1.0752(4) 0.3498(3) -0.06117(18)
H13 H 1.1331 0.4198 -0.0707
C10 C 1.0500(4) 0.3195(3) 0.01234(18)
H14 H 1.0908 0.3686 0.0536
C11 C 0.4072(5) 0.0966(3) -0.0199(3)
H15 H 0.3424 0.1644 -0.0340
C12 C 0.4721(6) 0.0806(4) 0.0536(3)
H16 H 0.4525 0.1363 0.0912
C13 C 0.4329(5) 0.0178(4) -0.0735(2)
H17 H 0.3857 0.0299 -0.1250
C13B C 0.5671(5) -0.0178(4) 0.0735(2)
C11B C 0.5928(5) -0.0966(3) 0.0199(3)
H15B H 0.6576 -0.1644 0.0340
C12B C 0.5279(6) -0.0806(4) -0.0536(3)
H16B H 0.5475 -0.1363 -0.0912
H17B H 0.6143 -0.0299 0.1250
loop_
_geom_bond_atom_site_label_1
_geom_bond_atom_site_label_2
_geom_bond_site_symmetry_1
_geom_bond_site_symmetry_2
S1 O1 1_555 1_555
N1 H1 1_555 1_555
H2 N1 1_555 1_555
C1 S1 1_555 1_555
O2 S1 1_555 1_555
N2 H3 1_555 1_555
H4 N2 1_555 1_555
C2 C1 1_555 1_555
H5 C2 1_555 1_555
O3 S1 1_555 1_555
N3 H6 1_555 1_555
H7 N3 1_555 1_555
C3 C1 1_555 1_555
H8 C3 1_555 1_555
C4 N1 1_555 1_555
C5 H9 1_555 1_555
C6 C5 1_555 1_555
H10 C6 1_555 1_555
C7 C6 1_555 1_555
H11 C7 1_555 1_555
C8 C7 1_555 1_555
H12 C8 1_555 1_555
C9 C8 1_555 1_555
H13 C9 1_555 1_555
C10 C5 1_555 1_555
H14 C10 1_555 1_555
C11 H15 1_555 1_555
C12 C11 1_555 1_555
H16 C12 1_555 1_555
C13 C11 1_555 1_555
H17 C13 1_555 1_555
C3B C2 1_555 1_555
C1B C3B 1_555 1_555
S1B C1B 1_555 1_555
O1B S1B 1_555 1_555
O2B S1B 1_555 1_555
O3B S1B 1_555 1_555
C2B C3 1_555 1_555
H5B C2B 1_555 1_555
H8B C3B 1_555 1_555
C13B C12 1_555 1_555
C11B C13B 1_555 1_555
H15B C11B 1_555 1_555
C12B C13 1_555 1_555
H16B C12B 1_555 1_555
H17B C13B 1_555 1_555
N2 C4 1_555 1_555
N3 C4 1_555 1_555
C9 C10 1_555 1_555
C1B C2B 1_555 1_555
C11B C12B 1_555 1_555

#END
