
#######################################################################
#
#                 Cambridge Crystallographic Data Centre
#                                CCDC 
#
#######################################################################
#
# If this CIF has been generated from an entry in the Cambridge 
# Structural Database, then it will include bibliographic, chemical, 
# crystal, experimental, refinement or atomic coordinate data resulting 
# from the CCDC's data processing and validation procedures.
#
#######################################################################

data_QOWSUQ
_chemical_formula_moiety         '2(C1 H6 N3 1+),C6 H4 O6 S2 2-,2(C10 H8)'
_chemical_name_systematic        
'bis(Guanidinium) 1,4-benzenedisulfonate bis(naphthalene) clathrate'
_symmetry_cell_setting           orthorhombic
_symmetry_space_group_name_H-M   'P b c a'
_symmetry_Int_Tables_number      61
_space_group_name_Hall           '-P 2ac 2ab'
loop_
_symmetry_equiv_pos_site_id
_symmetry_equiv_pos_as_xyz
1 x,y,z
2 1/2+x,y,1/2-z
3 1/2-x,1/2+y,z
4 x,1/2-y,1/2+z
5 -x,-y,-z
6 1/2-x,-y,1/2+z
7 1/2+x,1/2-y,-z
8 -x,1/2+y,1/2-z
_cell_length_a                   13.3600(10)
_cell_length_b                   12.6471(10)
_cell_length_c                   18.1682(14)
_cell_angle_alpha                90
_cell_angle_beta                 90
_cell_angle_gamma                90
_cell_volume                     3069.79
_exptl_crystal_colour            colorless
_exptl_crystal_description       plate
_cell_formula_units_Z            4
loop_
_atom_site_label
_atom_site_type_symbol
_atom_site_fract_x
_atom_site_fract_y
_atom_site_fract_z
S1 S 0.08193(3) 0.02748(3) 0.16148(2)
O1 O 0.18038(9) -0.02213(9) 0.16446(7)
C1 C 0.03677(14) 0.01124(12) 0.07042(10)
O2 O 0.00906(9) -0.02422(9) 0.20908(7)
C2 C 0.09761(14) -0.02994(15) 0.01609(10)
H5 H 0.1643 -0.0504 0.0273
O3 O 0.08721(9) 0.14137(9) 0.17471(7)
C3 C -0.06100(14) 0.04131(15) 0.05472(11)
H8 H -0.1025 0.0695 0.0924
C3D C 0.06100(14) -0.04131(15) -0.05472(11)
C1D C -0.03677(14) -0.01124(12) -0.07042(10)
S1D S -0.08193(3) -0.02748(3) -0.16148(2)
O1D O -0.18038(9) 0.02213(9) -0.16446(7)
O2D O -0.00906(9) 0.02422(9) -0.20908(7)
O3D O -0.08721(9) -0.14137(9) -0.17471(7)
C2D C -0.09761(14) 0.02994(15) -0.01609(10)
H5D H -0.1643 0.0504 -0.0273
H8D H 0.1025 -0.0695 -0.0924
N1 N 0.22121(12) -0.24420(12) 0.18904(9)
H1 H 0.2146 -0.1762 0.1799
H2 H 0.2764 -0.2774 0.1762
N2 N 0.06470(11) -0.24702(12) 0.24161(8)
H3 H 0.0578 -0.1790 0.2326
H4 H 0.0163 -0.2821 0.2636
N3 N 0.15825(12) -0.39902(11) 0.23595(9)
H6 H 0.2135 -0.4321 0.2231
H7 H 0.1097 -0.4339 0.2579
C4 C 0.14805(14) -0.29656(14) 0.22213(10)
C5 C 0.33779(16) 0.09008(18) 0.02562(13)
H9 H 0.3414 0.1049 0.0768
C6 C 0.30464(18) 0.16608(18) -0.02103(14)
H10 H 0.2851 0.2331 -0.0023
C7 C 0.29904(18) 0.14618(19) -0.09684(14)
H11 H 0.2753 0.1996 -0.1292
C8 C 0.32732(17) 0.05116(19) -0.12418(12)
H12 H 0.3240 0.0391 -0.1757
C9 C 0.39267(17) -0.13024(18) -0.10399(15)
H13 H 0.3905 -0.1443 -0.1553
C10 C 0.42527(19) -0.2059(2) -0.05717(18)
H14 H 0.4462 -0.2724 -0.0760
C11 C 0.42862(18) -0.1873(2) 0.01908(18)
H15 H 0.4505 -0.2416 0.0514
C12 C 0.40067(16) -0.0922(2) 0.04666(14)
H16 H 0.4038 -0.0803 0.0982
C13 C 0.36177(15) -0.03053(16) -0.07730(11)
C14 C 0.36694(15) -0.01033(17) -0.00022(12)
loop_
_geom_bond_atom_site_label_1
_geom_bond_atom_site_label_2
_geom_bond_site_symmetry_1
_geom_bond_site_symmetry_2
S1 O1 1_555 1_555
N1 H1 1_555 1_555
H2 N1 1_555 1_555
C1 S1 1_555 1_555
O2 S1 1_555 1_555
N2 H3 1_555 1_555
H4 N2 1_555 1_555
C2 C1 1_555 1_555
H5 C2 1_555 1_555
O3 S1 1_555 1_555
N3 H6 1_555 1_555
H7 N3 1_555 1_555
C3 C1 1_555 1_555
H8 C3 1_555 1_555
C4 N1 1_555 1_555
C5 H9 1_555 1_555
C6 C5 1_555 1_555
H10 C6 1_555 1_555
C7 C6 1_555 1_555
H11 C7 1_555 1_555
C8 C7 1_555 1_555
H12 C8 1_555 1_555
C9 H13 1_555 1_555
C10 C9 1_555 1_555
H14 C10 1_555 1_555
C11 C10 1_555 1_555
H15 C11 1_555 1_555
C12 C11 1_555 1_555
H16 C12 1_555 1_555
C13 C8 1_555 1_555
C14 C5 1_555 1_555
C3D C2 1_555 1_555
C1D C3D 1_555 1_555
S1D C1D 1_555 1_555
O1D S1D 1_555 1_555
O2D S1D 1_555 1_555
O3D S1D 1_555 1_555
C2D C3 1_555 1_555
H5D C2D 1_555 1_555
H8D C3D 1_555 1_555
N2 C4 1_555 1_555
N3 C4 1_555 1_555
C9 C13 1_555 1_555
C12 C14 1_555 1_555
C13 C14 1_555 1_555
C1D C2D 1_555 1_555

#END
