
#######################################################################
#
#                 Cambridge Crystallographic Data Centre
#                                CCDC 
#
#######################################################################
#
# If this CIF has been generated from an entry in the Cambridge 
# Structural Database, then it will include bibliographic, chemical, 
# crystal, experimental, refinement or atomic coordinate data resulting 
# from the CCDC's data processing and validation procedures.
#
#######################################################################

data_QOWTED
_chemical_name_common            
(S)-5,7-dimethoxy-2,2,4-trimethyl-1-tosyl-1,2,3,4-tetrahydroquinoline
_chemical_formula_moiety         'C21 H27 N1 O4 S1'
_chemical_name_systematic        
(S)-5,7-dimethoxy-2,2,4-trimethyl-1-((4-methylphenyl)sulfonyl)-1,2,3,4-tetrahydroquinoline
_symmetry_cell_setting           tetragonal
_symmetry_space_group_name_H-M   'P 41'
_symmetry_Int_Tables_number      76
_space_group_name_Hall           'P 4w'
loop_
_symmetry_equiv_pos_site_id
_symmetry_equiv_pos_as_xyz
1 x,y,z
2 -y,x,1/4+z
3 -x,-y,1/2+z
4 y,-x,3/4+z
_cell_length_a                   7.75313(9)
_cell_length_b                   7.75313(9)
_cell_length_c                   66.8972(11)
_cell_angle_alpha                90
_cell_angle_beta                 90
_cell_angle_gamma                90
_cell_volume                     4021.26
_exptl_crystal_colour            colorless
_exptl_crystal_description       block
_cell_formula_units_Z            8
_exptl_crystal_recrystallization_method 'ethyl acetate/petroleum ether'
loop_
_atom_site_label
_atom_site_type_symbol
_atom_site_fract_x
_atom_site_fract_y
_atom_site_fract_z
S1 S 0.21683(16) 0.07043(17) 0.23860(2)
O1 O 0.6176(6) -0.3652(5) 0.29782(6)
O2 O 0.3349(6) 0.1717(5) 0.31613(6)
O3 O 0.2377(5) 0.1859(5) 0.22207(6)
O4 O 0.1109(5) 0.1237(5) 0.25509(6)
N1 N 0.4093(6) 0.0260(6) 0.24771(7)
C1 C 0.4248(7) -0.0251(7) 0.26836(8)
C2 C 0.3738(7) 0.0910(7) 0.28306(8)
H1 H 0.3264 0.1967 0.2794
C3 C 0.3935(7) 0.0498(7) 0.30319(8)
C4 C 0.4707(7) -0.1053(8) 0.30863(9)
H2 H 0.4842 -0.1339 0.3220
C5 C 0.5277(7) -0.2174(7) 0.29367(9)
C6 C 0.5022(7) -0.1831(7) 0.27313(8)
C7 C 0.5754(7) -0.3064(7) 0.25757(8)
H3 H 0.6992 -0.3185 0.2602
C8 C 0.5553(7) -0.2354(7) 0.23625(8)
H4 H 0.6483 -0.2804 0.2281
H5 H 0.4477 -0.2780 0.2307
C9 C 0.5562(7) -0.0394(7) 0.23477(8)
C10 C 0.7215(7) 0.0406(8) 0.24311(8)
H6 H 0.7106 0.1639 0.2432
H7 H 0.8175 0.0082 0.2348
H8 H 0.7403 -0.0002 0.2565
C11 C 0.5424(7) 0.0138(8) 0.21287(8)
H9 H 0.4338 -0.0243 0.2076
H10 H 0.6347 -0.0380 0.2054
H11 H 0.5499 0.1370 0.2118
C12 C 0.4949(9) -0.4883(8) 0.25853(10)
H12 H 0.3719 -0.4795 0.2572
H13 H 0.5229 -0.5409 0.2711
H14 H 0.5398 -0.5576 0.2478
C13 C 0.6210(9) -0.4239(9) 0.31819(9)
H15 H 0.6811 -0.5319 0.3189
H16 H 0.5050 -0.4387 0.3229
H17 H 0.6791 -0.3401 0.3263
C14 C 0.3530(9) 0.1367(9) 0.33703(9)
H18 H 0.2960 0.0302 0.3402
H19 H 0.3019 0.2287 0.3446
H20 H 0.4731 0.1277 0.3403
C15 C 0.1293(7) -0.1234(7) 0.22934(9)
C16 C 0.0961(7) -0.2587(8) 0.24229(9)
H21 H 0.1242 -0.2484 0.2558
C17 C 0.0213(7) -0.4096(7) 0.23528(9)
H22 H 0.0020 -0.5007 0.2440
C18 C -0.0254(7) -0.4259(8) 0.21510(9)
C19 C 0.0063(7) -0.2882(8) 0.20236(9)
H23 H -0.0242 -0.2969 0.1890
C20 C 0.0831(7) -0.1369(8) 0.20930(9)
H24 H 0.1033 -0.0457 0.2006
C21 C -0.1095(9) -0.5877(8) 0.20769(10)
H25 H -0.2138 -0.5589 0.2007
H26 H -0.1362 -0.6610 0.2188
H27 H -0.0325 -0.6467 0.1988
S2 S 0.96963(17) 0.10333(16) 0.39245(2)
O5 O 1.0967(6) -0.3813(6) 0.32299(7)
O6 O 0.8409(6) 0.1862(6) 0.31479(6)
O7 O 1.0422(5) 0.2263(5) 0.37874(6)
O8 O 1.0751(5) 0.0518(5) 0.40903(6)
N2 N 0.9039(6) -0.0646(6) 0.37962(7)
C22 C 0.9377(7) -0.0700(7) 0.35825(8)
C23 C 0.8765(7) 0.0606(7) 0.34616(8)
H28 H 0.8210 0.1555 0.3517
C24 C 0.8989(7) 0.0487(8) 0.32549(8)
C25 C 0.9733(8) -0.0987(8) 0.31720(9)
H29 H 0.9858 -0.1088 0.3034
C26 C 1.0287(8) -0.2309(7) 0.32983(9)
C27 C 1.0164(7) -0.2177(7) 0.35072(8)
C28 C 1.0798(8) -0.3653(8) 0.36376(10)
H30 H 1.0278 -0.4721 0.3588
C29 C 1.0277(9) -0.3449(8) 0.38586(9)
H31 H 1.0088 -0.4585 0.3915
H32 H 1.1226 -0.2922 0.3931
C30 C 0.8659(9) -0.2363(7) 0.38906(9)
C31 C 0.8237(12) -0.2250(9) 0.41147(9)
H33 H 0.9237 -0.1861 0.4186
H34 H 0.7904 -0.3368 0.4163
H35 H 0.7308 -0.1451 0.4135
C32 C 0.7072(9) -0.3123(9) 0.37876(11)
H36 H 0.6100 -0.2379 0.3809
H37 H 0.6831 -0.4242 0.3842
H38 H 0.7288 -0.3224 0.3647
C33 C 1.2750(10) -0.3851(12) 0.36263(14)
H39 H 1.3083 -0.4088 0.3491
H40 H 1.3107 -0.4786 0.3711
H41 H 1.3290 -0.2803 0.3670
C34 C 1.0986(9) -0.4120(9) 0.30184(10)
H42 H 1.1734 -0.3300 0.2955
H43 H 0.9839 -0.3998 0.2966
H44 H 1.1397 -0.5266 0.2993
C35 C 0.8462(9) 0.1731(9) 0.29358(9)
H45 H 0.7974 0.2752 0.2878
H46 H 0.7812 0.0741 0.2894
H47 H 0.9638 0.1610 0.2893
C36 C 0.7769(7) 0.1898(7) 0.40239(8)
C37 C 0.7797(8) 0.2682(8) 0.42105(9)
H48 H 0.8814 0.2716 0.4284
C38 C 0.6316(8) 0.3408(8) 0.42862(9)
H49 H 0.6341 0.3921 0.4412
C39 C 0.4778(8) 0.3391(7) 0.41782(9)
C40 C 0.4757(8) 0.2575(8) 0.39930(9)
H50 H 0.3734 0.2529 0.3921
C41 C 0.6241(7) 0.1825(7) 0.39140(9)
H51 H 0.6214 0.1284 0.3790
C42 C 0.3186(8) 0.4257(9) 0.42590(10)
H52 H 0.3072 0.5381 0.4200
H53 H 0.3279 0.4365 0.4402
H54 H 0.2190 0.3576 0.4227
loop_
_geom_bond_atom_site_label_1
_geom_bond_atom_site_label_2
_geom_bond_site_symmetry_1
_geom_bond_site_symmetry_2
S1 O3 1_555 1_555
O1 C5 1_555 1_555
O2 C3 1_555 1_555
O4 S1 1_555 1_555
N1 S1 1_555 1_555
C1 N1 1_555 1_555
C2 C1 1_555 1_555
H1 C2 1_555 1_555
C3 C2 1_555 1_555
C4 C3 1_555 1_555
H2 C4 1_555 1_555
C5 C4 1_555 1_555
C6 C1 1_555 1_555
C7 C6 1_555 1_555
H3 C7 1_555 1_555
C8 C7 1_555 1_555
H4 C8 1_555 1_555
H5 C8 1_555 1_555
C9 N1 1_555 1_555
C10 C9 1_555 1_555
H6 C10 1_555 1_555
H7 C10 1_555 1_555
H8 C10 1_555 1_555
C11 C9 1_555 1_555
H9 C11 1_555 1_555
H10 C11 1_555 1_555
H11 C11 1_555 1_555
C12 C7 1_555 1_555
H12 C12 1_555 1_555
H13 C12 1_555 1_555
H14 C12 1_555 1_555
C13 O1 1_555 1_555
H15 C13 1_555 1_555
H16 C13 1_555 1_555
H17 C13 1_555 1_555
C14 O2 1_555 1_555
H18 C14 1_555 1_555
H19 C14 1_555 1_555
H20 C14 1_555 1_555
C15 S1 1_555 1_555
C16 C15 1_555 1_555
H21 C16 1_555 1_555
C17 C16 1_555 1_555
H22 C17 1_555 1_555
C18 C17 1_555 1_555
C19 C18 1_555 1_555
H23 C19 1_555 1_555
C20 C15 1_555 1_555
H24 C20 1_555 1_555
C21 C18 1_555 1_555
H25 C21 1_555 1_555
H26 C21 1_555 1_555
H27 C21 1_555 1_555
S2 O7 1_555 1_555
O5 C26 1_555 1_555
O6 C24 1_555 1_555
O8 S2 1_555 1_555
N2 S2 1_555 1_555
C22 N2 1_555 1_555
C23 C22 1_555 1_555
H28 C23 1_555 1_555
C24 C23 1_555 1_555
C25 C24 1_555 1_555
H29 C25 1_555 1_555
C26 C25 1_555 1_555
C27 C22 1_555 1_555
C28 C27 1_555 1_555
H30 C28 1_555 1_555
C29 C28 1_555 1_555
H31 C29 1_555 1_555
H32 C29 1_555 1_555
C30 N2 1_555 1_555
C31 C30 1_555 1_555
H33 C31 1_555 1_555
H34 C31 1_555 1_555
H35 C31 1_555 1_555
C32 C30 1_555 1_555
H36 C32 1_555 1_555
H37 C32 1_555 1_555
H38 C32 1_555 1_555
C33 C28 1_555 1_555
H39 C33 1_555 1_555
H40 C33 1_555 1_555
H41 C33 1_555 1_555
C34 O5 1_555 1_555
H42 C34 1_555 1_555
H43 C34 1_555 1_555
H44 C34 1_555 1_555
C35 O6 1_555 1_555
H45 C35 1_555 1_555
H46 C35 1_555 1_555
H47 C35 1_555 1_555
C36 S2 1_555 1_555
C37 C36 1_555 1_555
H48 C37 1_555 1_555
C38 C37 1_555 1_555
H49 C38 1_555 1_555
C39 C38 1_555 1_555
C40 C39 1_555 1_555
H50 C40 1_555 1_555
C41 C36 1_555 1_555
H51 C41 1_555 1_555
C42 C39 1_555 1_555
H52 C42 1_555 1_555
H53 C42 1_555 1_555
H54 C42 1_555 1_555
C5 C6 1_555 1_555
C8 C9 1_555 1_555
C19 C20 1_555 1_555
C26 C27 1_555 1_555
C29 C30 1_555 1_555
C40 C41 1_555 1_555

#END
