
#######################################################################
#
#                 Cambridge Crystallographic Data Centre
#                                CCDC 
#
#######################################################################
#
# If this CIF has been generated from an entry in the Cambridge 
# Structural Database, then it will include bibliographic, chemical, 
# crystal, experimental, refinement or atomic coordinate data resulting 
# from the CCDC's data processing and validation procedures.
#
#######################################################################

data_QOWTUR
_chemical_formula_moiety         '2(C1 H6 N3 1+),C10 H6 O6 S2 2-,2(C16 H10)'
_chemical_name_systematic        
'bis(Guanidinium) 2,6-naphthalenedisulfonate bis(pyrene) clathrate'
_symmetry_cell_setting           orthorhombic
_symmetry_space_group_name_H-M   'P b c a'
_symmetry_Int_Tables_number      61
_space_group_name_Hall           '-P 2ac 2ab'
loop_
_symmetry_equiv_pos_site_id
_symmetry_equiv_pos_as_xyz
1 x,y,z
2 1/2+x,y,1/2-z
3 1/2-x,1/2+y,z
4 x,1/2-y,1/2+z
5 -x,-y,-z
6 1/2-x,-y,1/2+z
7 1/2+x,1/2-y,-z
8 -x,1/2+y,1/2-z
_cell_length_a                   13.4471(4)
_cell_length_b                   12.1155(4)
_cell_length_c                   23.9856(7)
_cell_angle_alpha                90
_cell_angle_beta                 90
_cell_angle_gamma                90
_cell_volume                     3907.69
_exptl_crystal_colour            colorless
_exptl_crystal_description       prism
_cell_formula_units_Z            4
loop_
_atom_site_label
_atom_site_type_symbol
_atom_site_fract_x
_atom_site_fract_y
_atom_site_fract_z
S1 S 0.07263(3) 0.00539(4) 0.326835(18)
O1 O 0.08040(9) 0.12151(10) 0.31082(5)
O2 O 0.16968(9) -0.04850(10) 0.32749(5)
O3 O -0.00040(9) -0.05408(10) 0.29340(5)
C4 C -0.11194(13) 0.03740(15) 0.45765(8)
H7 H -0.1797 0.0564 0.4632
C6 C -0.05079(12) 0.01429(14) 0.50451(7)
C7 C -0.07482(13) 0.03267(15) 0.40468(8)
H8 H -0.1167 0.0480 0.3737
C10 C 0.08799(13) -0.01838(14) 0.44009(7)
H10 H 0.1556 -0.0372 0.4335
C15 C 0.02651(13) 0.00480(14) 0.39617(7)
C6D C 0.05079(12) -0.01429(14) 0.49549(7)
C4D C 0.11194(13) -0.03740(15) 0.54235(8)
H7D H 0.1797 -0.0564 0.5368
C7D C 0.07482(13) -0.03267(15) 0.59532(8)
H8D H 0.1167 -0.0480 0.6263
C15D C -0.02651(13) -0.00480(14) 0.60383(7)
S1D S -0.07263(3) -0.00539(4) 0.673165(18)
O1D O -0.08040(9) -0.12151(10) 0.68918(5)
O2D O -0.16968(9) 0.04850(10) 0.67251(5)
O3D O 0.00040(9) 0.05408(10) 0.70660(5)
C10D C -0.08799(13) 0.01838(14) 0.55991(7)
H10D H -0.1556 0.0372 0.5665
N1 N -0.16348(12) 0.06326(13) 0.23619(7)
H1 H -0.1185 0.0279 0.2560
H2 H -0.2188 0.0297 0.2264
N2 N -0.21641(12) 0.22015(14) 0.19131(7)
H3 H -0.2066 0.2892 0.1813
H4 H -0.2716 0.1861 0.1817
N3 N -0.06444(11) 0.21787(13) 0.23571(7)
H5 H -0.0194 0.1826 0.2555
H6 H -0.0541 0.2868 0.2257
C17 C -0.14777(14) 0.16725(15) 0.22104(8)
C1 C 0.11967(12) 0.04534(15) 0.00929(8)
C2 C 0.11746(14) 0.06583(17) 0.11164(8)
C3 C 0.13620(12) 0.00022(15) 0.06331(8)
C5 C 0.08393(13) 0.15552(15) 0.00347(8)
C8 C 0.12323(15) 0.0281(2) -0.09153(9)
H9 H 0.1357 -0.0145 -0.1241
C9 C 0.13997(13) -0.01883(16) -0.03905(8)
C11 C 0.06960(14) 0.19840(19) -0.05016(9)
H11 H 0.0463 0.2719 -0.0545
C12 C 0.08102(15) 0.17636(18) 0.10397(10)
H12 H 0.0678 0.2207 0.1358
C13 C 0.06522(15) 0.21828(17) 0.05304(9)
H13 H 0.0410 0.2916 0.0497
C14 C 0.17799(15) -0.12876(18) -0.03144(10)
H14 H 0.1923 -0.1725 -0.0633
C16 C 0.17288(14) -0.10895(17) 0.06915(9)
C18 C 0.08901(16) 0.1348(2) -0.09695(10)
H15 H 0.0786 0.1649 -0.1330
C19 C 0.13600(16) 0.0205(2) 0.16422(9)
H16 H 0.1241 0.0634 0.1967
C20 C 0.19367(15) -0.17105(17) 0.01940(11)
H17 H 0.2192 -0.2439 0.0227
C21 C 0.18969(16) -0.1502(2) 0.12326(11)
H18 H 0.2140 -0.2233 0.1280
C22 C 0.17112(18) -0.0853(2) 0.16952(11)
H19 H 0.1829 -0.1146 0.2057
loop_
_geom_bond_atom_site_label_1
_geom_bond_atom_site_label_2
_geom_bond_site_symmetry_1
_geom_bond_site_symmetry_2
S1 O1 1_555 1_555
O2 S1 1_555 1_555
O3 S1 1_555 1_555
N1 H1 1_555 1_555
H2 N1 1_555 1_555
C1 C3 1_555 1_555
C2 C3 1_555 1_555
N2 H3 1_555 1_555
H4 N2 1_555 1_555
N3 H5 1_555 1_555
H6 N3 1_555 1_555
C3 C16 1_555 1_555
C4 H7 1_555 1_555
C5 C1 1_555 1_555
C6 C4 1_555 1_555
C7 C4 1_555 1_555
H8 C7 1_555 1_555
C8 H9 1_555 1_555
C9 C1 1_555 1_555
C10 H10 1_555 1_555
C11 C5 1_555 1_555
H11 C11 1_555 1_555
C12 C2 1_555 1_555
H12 C12 1_555 1_555
C13 C5 1_555 1_555
H13 C13 1_555 1_555
C14 C9 1_555 1_555
H14 C14 1_555 1_555
C15 S1 1_555 1_555
C16 C20 1_555 1_555
C17 N1 1_555 1_555
C18 C8 1_555 1_555
H15 C18 1_555 1_555
C19 C2 1_555 1_555
H16 C19 1_555 1_555
C20 C14 1_555 1_555
H17 C20 1_555 1_555
C21 C16 1_555 1_555
H18 C21 1_555 1_555
C22 C19 1_555 1_555
H19 C22 1_555 1_555
C6D C6 1_555 1_555
C4D C6D 1_555 1_555
H7D C4D 1_555 1_555
C7D C4D 1_555 1_555
H8D C7D 1_555 1_555
C15D C7D 1_555 1_555
S1D C15D 1_555 1_555
O1D S1D 1_555 1_555
O2D S1D 1_555 1_555
O3D S1D 1_555 1_555
C10D C6 1_555 1_555
H10D C10D 1_555 1_555
N2 C17 1_555 1_555
N3 C17 1_555 1_555
C7 C15 1_555 1_555
C8 C9 1_555 1_555
C10 C6D 1_555 1_555
C10 C15 1_555 1_555
C11 C18 1_555 1_555
C12 C13 1_555 1_555
C21 C22 1_555 1_555
C15D C10D 1_555 1_555

#END
