
#######################################################################
#
#                 Cambridge Crystallographic Data Centre
#                                CCDC 
#
#######################################################################
#
# If this CIF has been generated from an entry in the Cambridge 
# Structural Database, then it will include bibliographic, chemical, 
# crystal, experimental, refinement or atomic coordinate data resulting 
# from the CCDC's data processing and validation procedures.
#
#######################################################################

data_QOWTAX
_chemical_formula_moiety         '2(C1 H6 N3 1+),C10 H6 O6 S2 2-,C6 H6'
_chemical_name_systematic        
'bis(Guanidinium) 2,6-naphthalenedisulfonate benzene clathrate'
_symmetry_cell_setting           triclinic
_symmetry_space_group_name_H-M   'P -1'
_symmetry_Int_Tables_number      2
_space_group_name_Hall           '-P 1'
loop_
_symmetry_equiv_pos_site_id
_symmetry_equiv_pos_as_xyz
1 x,y,z
2 -x,-y,-z
_cell_length_a                   6.2166(3)
_cell_length_b                   7.1847(4)
_cell_length_c                   13.1213(7)
_cell_angle_alpha                74.7250(10)
_cell_angle_beta                 83.3310(10)
_cell_angle_gamma                85.8260(10)
_cell_volume                     560.981
_exptl_crystal_colour            colorless
_exptl_crystal_description       plate
_cell_formula_units_Z            1
loop_
_atom_site_label
_atom_site_type_symbol
_atom_site_fract_x
_atom_site_fract_y
_atom_site_fract_z
S1 S 0.37115(7) 0.30152(6) 0.83627(3)
O1 O 0.13405(19) 0.31666(18) 0.84709(10)
C1 C 0.4553(3) 0.4016(3) 0.69982(14)
O2 O 0.4521(2) 0.10023(19) 0.86021(11)
C2 C 0.3277(3) 0.3863(3) 0.62422(15)
H5 H 0.1915 0.3285 0.6453
O3 O 0.4668(2) 0.41412(19) 0.89546(10)
C3 C 0.3975(3) 0.4559(3) 0.51487(14)
C4 C 0.2713(3) 0.4412(3) 0.43413(15)
H8 H 0.1357 0.3819 0.4535
C5 C 0.6591(3) 0.4893(3) 0.67079(15)
H9 H 0.7458 0.4995 0.7239
C3A C 0.6025(3) 0.5441(3) 0.48513(14)
C2A C 0.6723(3) 0.6137(3) 0.37578(15)
C1A C 0.5447(3) 0.5984(3) 0.30018(14)
S1A S 0.62885(7) 0.69848(6) 0.16373(3)
O1A O 0.86595(19) 0.68334(18) 0.15291(10)
O2A O 0.5479(2) 0.89977(19) 0.13979(11)
O3A O 0.5332(2) 0.58588(19) 0.10454(10)
C5A C 0.3409(3) 0.5107(3) 0.32921(15)
H9A H 0.2542 0.5005 0.2761
H5A H 0.8085 0.6715 0.3547
C4A C 0.7287(3) 0.5588(3) 0.56587(15)
H8A H 0.8643 0.6181 0.5465
N1 N -0.1335(2) 0.6430(2) 0.89659(13)
H1 H -0.0678 0.5314 0.8941
H2 H -0.2759 0.6554 0.9008
N2 N -0.1132(3) 0.9632(2) 0.89648(13)
H3 H -0.0346 1.0616 0.8939
H4 H -0.2555 0.9776 0.9007
N3 N 0.1964(3) 0.7731(2) 0.88764(14)
H6 H 0.2743 0.8720 0.8851
H7 H 0.2610 0.6606 0.8859
C6 C -0.0175(3) 0.7934(3) 0.89397(14)
C7 C -0.0215(7) 1.0310(4) 0.3956(2)
H10 H -0.0363 1.0524 0.3221
C8 C -0.1898(5) 1.0759(4) 0.4615(3)
H11 H -0.3222 1.1294 0.4343
C9 C 0.1687(5) 0.9554(4) 0.4343(3)
H12 H 0.2867 0.9248 0.3878
C9A C -0.1687(5) 1.0446(4) 0.5657(3)
C7A C 0.0215(7) 0.9690(4) 0.6044(2)
H10A H 0.0363 0.9476 0.6779
C8A C 0.1898(5) 0.9241(4) 0.5385(3)
H11A H 0.3222 0.8706 0.5657
H12A H -0.2867 1.0752 0.6122
loop_
_geom_bond_atom_site_label_1
_geom_bond_atom_site_label_2
_geom_bond_site_symmetry_1
_geom_bond_site_symmetry_2
S1 O1 1_555 1_555
N1 H1 1_555 1_555
H2 N1 1_555 1_555
C1 S1 1_555 1_555
O2 S1 1_555 1_555
N2 H3 1_555 1_555
H4 N2 1_555 1_555
C2 C1 1_555 1_555
H5 C2 1_555 1_555
O3 S1 1_555 1_555
N3 H6 1_555 1_555
H7 N3 1_555 1_555
C3 C2 1_555 1_555
C4 C3 1_555 1_555
H8 C4 1_555 1_555
C5 C1 1_555 1_555
H9 C5 1_555 1_555
C6 N1 1_555 1_555
C7 H10 1_555 1_555
C8 C7 1_555 1_555
H11 C8 1_555 1_555
C9 C7 1_555 1_555
H12 C9 1_555 1_555
C3A C3 1_555 1_555
C2A C3A 1_555 1_555
C1A C2A 1_555 1_555
S1A C1A 1_555 1_555
O1A S1A 1_555 1_555
O2A S1A 1_555 1_555
O3A S1A 1_555 1_555
C5A C4 1_555 1_555
H9A C5A 1_555 1_555
H5A C2A 1_555 1_555
C4A C5 1_555 1_555
H8A C4A 1_555 1_555
C9A C8 1_555 1_555
C7A C9A 1_555 1_555
H10A C7A 1_555 1_555
C8A C9 1_555 1_555
H11A C8A 1_555 1_555
H12A C9A 1_555 1_555
N2 C6 1_555 1_555
N3 C6 1_555 1_555
C3A C4A 1_555 1_555
C1A C5A 1_555 1_555
C7A C8A 1_555 1_555

#END
