
#######################################################################
#
#                 Cambridge Crystallographic Data Centre
#                                CCDC 
#
#######################################################################
#
# If this CIF has been generated from an entry in the Cambridge 
# Structural Database, then it will include bibliographic, chemical, 
# crystal, experimental, refinement or atomic coordinate data resulting 
# from the CCDC's data processing and validation procedures.
#
#######################################################################

data_QOWTEB
_chemical_formula_moiety         '2(C1 H6 N3 1+),C10 H6 O6 S2 2-,C8 H10'
_chemical_name_systematic        
'bis(Guanidinium) 2,6-naphthalenedisulfonate p-xylene clathrate'
_symmetry_cell_setting           triclinic
_symmetry_space_group_name_H-M   'P -1'
_symmetry_Int_Tables_number      2
_space_group_name_Hall           '-P 1'
loop_
_symmetry_equiv_pos_site_id
_symmetry_equiv_pos_as_xyz
1 x,y,z
2 -x,-y,-z
_cell_length_a                   7.2609(9)
_cell_length_b                   7.4075(9)
_cell_length_c                   13.1537(16)
_cell_angle_alpha                89.189(2)
_cell_angle_beta                 77.186(2)
_cell_angle_gamma                62.193(2)
_cell_volume                     606.912
_exptl_crystal_colour            colorless
_exptl_crystal_description       plate
_cell_formula_units_Z            1
loop_
_atom_site_label
_atom_site_type_symbol
_atom_site_fract_x
_atom_site_fract_y
_atom_site_fract_z
S1 S 0.11281(7) 0.91986(7) 0.16737(3)
O1 O 0.0193(2) 0.7981(2) 0.13740(10)
O2 O 0.3473(2) 0.8107(2) 0.14086(10)
O3 O 0.0274(2) 1.12128(19) 0.12784(10)
C1 C 0.2538(3) 0.9443(3) 0.53727(15)
H1 H 0.3994 0.9043 0.5041
C2 C 0.0295(3) 0.9649(3) 0.30618(14)
C3 C 0.1733(3) 0.9415(3) 0.36385(14)
H6 H 0.3174 0.9047 0.3292
C5 C 0.1089(3) 0.9718(3) 0.47488(14)
C6 C -0.1889(3) 1.0259(3) 0.35568(15)
H9 H -0.2883 1.0456 0.3149
C6A C 0.1889(3) 0.9741(3) 0.64432(15)
C2A C -0.0295(3) 1.0351(3) 0.69382(14)
S1A S -0.11281(7) 1.08014(7) 0.83263(3)
O1A O -0.0193(2) 1.2019(2) 0.86260(10)
O2A O -0.3473(2) 1.1893(2) 0.85914(10)
O3A O -0.0274(2) 0.87872(19) 0.87216(10)
C3A C -0.1733(3) 1.0585(3) 0.63615(14)
H6A H -0.3174 1.0953 0.6708
C5A C -0.1089(3) 1.0282(3) 0.52512(14)
C1A C -0.2538(3) 1.0557(3) 0.46273(15)
H1A H -0.3994 1.0957 0.4959
H9A H 0.2883 0.9544 0.6851
N1 N 0.5830(3) 0.3577(2) 0.11078(13)
H2 H 0.5163 0.4919 0.1106
H3 H 0.7183 0.2939 0.1138
N2 N 0.5794(3) 0.0491(2) 0.10782(13)
H4 H 0.7144 -0.0149 0.1115
H5 H 0.5103 -0.0209 0.1050
N3 N 0.2754(3) 0.3472(3) 0.10188(13)
H7 H 0.2081 0.4814 0.1017
H8 H 0.2074 0.2761 0.0990
C4 C 0.4799(3) 0.2519(3) 0.10650(14)
C7 C 0.1036(4) 0.4890(3) 0.39695(17)
H10 H 0.1776 0.4804 0.3264
C8 C -0.1057(3) 0.5179(3) 0.41817(17)
C9 C 0.2065(3) 0.4725(3) 0.47675(18)
H11 H 0.3487 0.4543 0.4595
C10 C -0.2173(4) 0.5383(3) 0.33197(18)
H12 H -0.2291 0.6585 0.2959
H13 H -0.3612 0.5549 0.3619
H14 H -0.1346 0.4148 0.2819
C9A C -0.2065(3) 0.5275(3) 0.52325(18)
C7A C -0.1036(4) 0.5110(3) 0.60305(17)
H10A H -0.1776 0.5196 0.6736
C8A C 0.1057(3) 0.4821(3) 0.58183(17)
C10A C 0.2173(4) 0.4617(3) 0.66803(18)
H12A H 0.2291 0.3415 0.7041
H13A H 0.3612 0.4451 0.6381
H14A H 0.1346 0.5852 0.7181
H11A H -0.3487 0.5457 0.5405
loop_
_geom_bond_atom_site_label_1
_geom_bond_atom_site_label_2
_geom_bond_site_symmetry_1
_geom_bond_site_symmetry_2
S1 O1 1_555 1_555
O2 S1 1_555 1_555
O3 S1 1_555 1_555
C1 H1 1_555 1_555
N1 H2 1_555 1_555
H3 N1 1_555 1_555
N2 H4 1_555 1_555
H5 N2 1_555 1_555
C2 S1 1_555 1_555
C3 C2 1_555 1_555
H6 C3 1_555 1_555
N3 H7 1_555 1_555
H8 N3 1_555 1_555
C4 N1 1_555 1_555
C5 C1 1_555 1_555
C6 C2 1_555 1_555
H9 C6 1_555 1_555
C7 H10 1_555 1_555
C8 C7 1_555 1_555
C9 C7 1_555 1_555
H11 C9 1_555 1_555
C10 C8 1_555 1_555
H12 C10 1_555 1_555
H13 C10 1_555 1_555
H14 C10 1_555 1_555
C6A C1 1_555 1_555
C2A C6A 1_555 1_555
S1A C2A 1_555 1_555
O1A S1A 1_555 1_555
O2A S1A 1_555 1_555
O3A S1A 1_555 1_555
C3A C2A 1_555 1_555
H6A C3A 1_555 1_555
C5A C5 1_555 1_555
C1A C6 1_555 1_555
H1A C1A 1_555 1_555
H9A C6A 1_555 1_555
C9A C8 1_555 1_555
C7A C9A 1_555 1_555
H10A C7A 1_555 1_555
C8A C9 1_555 1_555
C10A C8A 1_555 1_555
H12A C10A 1_555 1_555
H13A C10A 1_555 1_555
H14A C10A 1_555 1_555
H11A C9A 1_555 1_555
N2 C4 1_555 1_555
C3 C5 1_555 1_555
N3 C4 1_555 1_555
C3A C5A 1_555 1_555
C5A C1A 1_555 1_555
C7A C8A 1_555 1_555

#END
