
#######################################################################
#
#                 Cambridge Crystallographic Data Centre
#                                CCDC 
#
#######################################################################
#
# If this CIF has been generated from an entry in the Cambridge 
# Structural Database, then it will include bibliographic, chemical, 
# crystal, experimental, refinement or atomic coordinate data resulting 
# from the CCDC's data processing and validation procedures.
#
#######################################################################

data_QOWVOP
_chemical_name_common            
'carbon-bridged Mobius [28]hexaphyrin(1.1.1.1.1.1) hydroquinone diisopropyl ether heptane solvate'
_chemical_formula_moiety         
'C74 H25 F30 N7,1.25(C6 H14 O1),0.25(C7 H16),C6 H6 O2'
_chemical_name_systematic        
'N,N-diethyl-4,9,14,27,36,38-hexakis(pentafluorophenyl)-2,19,22,32,39,40-hexaazadecacyclo[29.4.1.1^3,35^.1^5,8^.1^10,13^.1^18,23^.0^15,19^.0^21,33^.0^22,26^.0^28,32^]tetraconta-1,3,5,7,9,11,13(39),14,16,18(38),23,25,27,29,31(36),33,35(37)-heptadecaen-20-amine hydroquinone diisopropyl ether heptane solvate'
_symmetry_cell_setting           monoclinic
_symmetry_space_group_name_H-M   'C 2/c'
_symmetry_Int_Tables_number      15
_space_group_name_Hall           '-C 2yn'
loop_
_symmetry_equiv_pos_site_id
_symmetry_equiv_pos_as_xyz
1 x,y,z
2 -x,y,1/2-z
3 1/2+x,1/2+y,z
4 1/2-x,1/2+y,1/2-z
5 -x,-y,-z
6 x,-y,1/2+z
7 1/2-x,1/2-y,-z
8 1/2+x,1/2-y,1/2+z
_cell_length_a                   49.4098(12)
_cell_length_b                   14.8089(3)
_cell_length_c                   22.8360(4)
_cell_angle_alpha                90
_cell_angle_beta                 94.5640(10)
_cell_angle_gamma                90
_cell_volume                     16656.2
_exptl_crystal_colour            violet
_exptl_crystal_description       prism
_cell_formula_units_Z            8
loop_
_atom_site_label
_atom_site_type_symbol
_atom_site_fract_x
_atom_site_fract_y
_atom_site_fract_z
C1 C 0.05328(11) 0.6128(5) 0.2191(2)
C2 C 0.04137(12) 0.5482(6) 0.2556(3)
H1 H 0.0261 0.5114 0.2444
C3 C 0.05578(12) 0.5483(5) 0.3095(3)
H2 H 0.0520 0.5120 0.3421
C4 C 0.07728(11) 0.6116(5) 0.3086(2)
C5 C 0.09838(11) 0.6292(4) 0.3515(2)
C6 C 0.11700(11) 0.7000(4) 0.3463(2)
C7 C 0.11194(11) 0.7811(5) 0.3126(2)
H3 H 0.0952 0.7979 0.2920
C8 C 0.13544(10) 0.8295(4) 0.3156(2)
C9 C 0.15473(10) 0.7779(4) 0.3528(2)
C10 C 0.18210(10) 0.8006(4) 0.3649(2)
C11 C 0.19582(10) 0.8783(4) 0.3487(2)
C12 C 0.22366(10) 0.8951(4) 0.3657(2)
H4 H 0.2360 0.8532 0.3846
C13 C 0.22985(10) 0.9821(4) 0.3503(2)
H5 H 0.2471 1.0103 0.3577
C14 C 0.20643(10) 1.0233(4) 0.3215(2)
C15 C 0.20411(10) 1.1172(4) 0.3136(2)
C16 C 0.17992(11) 1.1643(4) 0.2987(2)
C17 C 0.17131(12) 1.2490(5) 0.3195(2)
H6 H 0.1825 1.2938 0.3387
C18 C 0.14359(12) 1.2539(5) 0.3066(2)
H7 H 0.1323 1.3023 0.3171
C19 C 0.13464(11) 1.1760(4) 0.2752(2)
C20 C 0.10841(11) 1.1490(5) 0.2582(2)
C21 C 0.09940(11) 1.0762(5) 0.2241(2)
C22 C 0.07332(11) 1.0342(5) 0.2239(2)
H8 H 0.0589 1.0548 0.2454
C23 C 0.07226(12) 0.9608(5) 0.1886(2)
H9 H 0.0572 0.9212 0.1823
C24 C 0.09715(11) 0.9524(5) 0.1627(2)
C25 C 0.10215(12) 0.8925(6) 0.1177(2)
C26 C 0.08696(12) 0.8122(5) 0.1105(2)
C27 C 0.07748(12) 0.7744(6) 0.0547(2)
H10 H 0.0827 0.7923 0.0172
C28 C 0.06045(13) 0.7110(7) 0.0654(2)
H11 H 0.0496 0.6776 0.0368
C29 C 0.06080(11) 0.6997(6) 0.1292(3)
C30 C 0.04776(12) 0.6340(6) 0.1595(3)
N1 N 0.07444(9) 0.6519(4) 0.25291(19)
H12 H 0.0847 0.6958 0.2412
N2 N 0.14324(9) 0.6998(4) 0.37204(17)
N3 N 0.18592(8) 0.9567(3) 0.31753(17)
N4 N 0.15778(8) 1.1251(3) 0.26860(18)
N5 N 0.11384(9) 1.0238(4) 0.18555(17)
N6 N 0.07677(9) 0.7648(4) 0.15538(19)
C31 C 0.10128(11) 0.5697(5) 0.4029(2)
C32 C 0.09877(12) 0.5994(5) 0.4592(2)
C33 C 0.10151(13) 0.5460(6) 0.5081(3)
C34 C 0.10803(14) 0.4564(6) 0.5029(3)
C35 C 0.11050(14) 0.4215(5) 0.4477(3)
C36 C 0.10702(12) 0.4783(6) 0.3997(3)
F1 F 0.09328(8) 0.6890(3) 0.46696(14)
F2 F 0.09909(9) 0.5808(3) 0.56236(15)
F3 F 0.11257(9) 0.4060(3) 0.55102(18)
F4 F 0.11678(9) 0.3351(3) 0.4418(2)
F5 F 0.10977(7) 0.4399(3) 0.34640(15)
C37 C 0.19964(10) 0.7364(4) 0.4025(2)
C38 C 0.20479(10) 0.7491(4) 0.4619(2)
C39 C 0.22113(11) 0.6936(5) 0.4970(2)
C40 C 0.23314(11) 0.6201(4) 0.4722(2)
C41 C 0.22839(11) 0.6039(5) 0.4127(2)
C42 C 0.21156(11) 0.6616(4) 0.3790(2)
F6 F 0.19394(6) 0.8218(2) 0.48754(12)
F7 F 0.22552(6) 0.7089(3) 0.55507(11)
F8 F 0.24922(7) 0.5645(3) 0.50537(14)
F9 F 0.23918(7) 0.5315(3) 0.38828(14)
F10 F 0.20695(6) 0.6441(2) 0.32153(12)
C43 C 0.22863(10) 1.1739(4) 0.3302(2)
C44 C 0.24657(10) 1.1977(4) 0.2899(2)
C45 C 0.26806(11) 1.2531(5) 0.3030(2)
C46 C 0.27222(11) 1.2900(5) 0.3582(2)
C47 C 0.25476(11) 1.2693(5) 0.3996(2)
C48 C 0.23340(11) 1.2114(5) 0.3853(2)
F11 F 0.24280(6) 1.1646(3) 0.23435(13)
F12 F 0.28504(7) 1.2778(3) 0.26185(14)
F13 F 0.29329(7) 1.3466(3) 0.37142(15)
F14 F 0.25887(7) 1.3055(3) 0.45361(14)
F15 F 0.21667(7) 1.1914(3) 0.42740(13)
C49 C 0.08630(11) 1.2067(5) 0.2799(2)
C50 C 0.06797(11) 1.2517(5) 0.2412(2)
C51 C 0.04703(11) 1.3006(5) 0.2599(3)
C52 C 0.04422(11) 1.3107(5) 0.3187(3)
C53 C 0.06178(12) 1.2654(5) 0.3588(2)
C54 C 0.08237(11) 1.2135(5) 0.3395(2)
F16 F 0.07080(7) 1.2466(3) 0.18312(13)
F17 F 0.02899(7) 1.3426(3) 0.22018(15)
F18 F 0.02365(6) 1.3593(3) 0.33697(15)
F19 F 0.05834(7) 1.2736(3) 0.41639(13)
F20 F 0.09857(7) 1.1710(3) 0.37971(13)
C55 C 0.11938(12) 0.9144(5) 0.0683(2)
C56 C 0.13810(12) 0.8529(5) 0.0499(3)
C57 C 0.15144(14) 0.8646(6) 0.0003(3)
C58 C 0.14724(16) 0.9425(6) -0.0317(3)
C59 C 0.12930(17) 1.0059(6) -0.0148(3)
C60 C 0.11592(14) 0.9911(6) 0.0346(3)
F21 F 0.14317(7) 0.7755(3) 0.08120(16)
F22 F 0.16923(9) 0.8021(3) -0.01550(19)
F23 F 0.16047(10) 0.9562(4) -0.08052(17)
F24 F 0.12542(11) 1.0822(4) -0.04633(18)
F25 F 0.09738(9) 1.0533(3) 0.04881(15)
C61 C 0.02673(17) 0.5888(7) 0.1238(4)
C62 C 0.0308(2) 0.4973(7) 0.1141(5)
C63 C 0.0107(3) 0.4469(7) 0.0829(5)
C64 C -0.0133(3) 0.4879(10) 0.0615(4)
C65 C -0.01738(17) 0.5794(10) 0.0712(4)
C66 C 0.0027(2) 0.6299(7) 0.1023(5)
F26 F 0.0542(3) 0.4587(9) 0.1320(6)
F27 F 0.0147(3) 0.3613(9) 0.0716(5)
F28 F -0.0317(2) 0.4356(11) 0.0329(3)
F29 F -0.04035(14) 0.6158(9) 0.0489(3)
F30 F -0.00240(15) 0.7149(8) 0.1082(3)
C67 C 0.13954(11) 0.9079(5) 0.2836(2)
H13 H 0.1242 0.9257 0.2584
C68 C 0.16109(10) 0.9632(4) 0.2816(2)
C69 C 0.16093(11) 1.0404(4) 0.2383(2)
H14 H 0.1800 1.0424 0.2265
C70 C 0.14332(11) 1.0293(5) 0.1791(2)
H15 H 0.1482 0.9680 0.1649
N7 N 0.14920(9) 1.0885(4) 0.13215(19)
C71 C 0.17389(15) 1.0636(8) 0.1041(3)
H16 H 0.1756 0.9970 0.1061
H17 H 0.1709 1.0798 0.0620
C72 C 0.19904(18) 1.1005(8) 0.1254(3)
H18 H 0.2134 1.0768 0.1025
H19 H 0.2028 1.0839 0.1668
H20 H 0.1984 1.1664 0.1218
C73 C 0.14176(13) 1.1845(6) 0.1370(3)
H21 H 0.1552 1.2149 0.1649
H22 H 0.1238 1.1889 0.1531
C74 C 0.14074(15) 1.2328(6) 0.0786(3)
H23 H 0.1360 1.2963 0.0840
H24 H 0.1270 1.2044 0.0512
H25 H 0.1585 1.2291 0.0626
C75 C 0.17503(11) 0.5036(5) 0.4426(2)
C76 C 0.16774(11) 0.5511(5) 0.4903(2)
H26 H 0.1568 0.6036 0.4848
C77 C 0.17644(11) 0.5226(4) 0.5471(2)
H27 H 0.1711 0.5551 0.5801
C78 C 0.19284(12) 0.4471(5) 0.5554(2)
C79 C 0.20010(13) 0.3984(5) 0.5074(2)
H28 H 0.2111 0.3461 0.5128
C80 C 0.19105(12) 0.4268(5) 0.4510(2)
H29 H 0.1959 0.3933 0.4179
O1 O 0.16692(8) 0.5284(3) 0.38539(14)
H30 H 0.1587 0.5781 0.3855
O2 O 0.20289(9) 0.4175(3) 0.61031(16)
H31 H 0.1923 0.4330 0.6354
O3 O 0.17767(8) 0.4920(3) 0.19547(15)
C81 C 0.15484(12) 0.5296(5) 0.2232(2)
H32 H 0.1585 0.5244 0.2668
C82 C 0.15287(15) 0.6279(6) 0.2073(3)
H33 H 0.1694 0.6592 0.2230
H34 H 0.1370 0.6545 0.2240
H35 H 0.1509 0.6342 0.1644
C83 C 0.12928(13) 0.4764(7) 0.2047(3)
H36 H 0.1246 0.4847 0.1626
H37 H 0.1143 0.4980 0.2267
H38 H 0.1324 0.4121 0.2130
C84 C 0.19022(12) 0.4120(5) 0.2243(2)
H39 H 0.1759 0.3746 0.2412
C85 C 0.21052(13) 0.4424(5) 0.2728(3)
H40 H 0.2253 0.4749 0.2559
H41 H 0.2179 0.3896 0.2945
H42 H 0.2016 0.4825 0.2995
C86 C 0.20289(14) 0.3594(5) 0.1780(3)
H43 H 0.1890 0.3435 0.1467
H44 H 0.2110 0.3041 0.1952
H45 H 0.2170 0.3959 0.1617
O4 O 0.0000 1.1093(19) 0.2500
C87 C 0.0031(5) 1.088(2) 0.3143(10)
H46 H -0.0059 1.0273 0.3129
C88 C -0.0091(4) 1.1276(18) 0.3757(13)
H47 H -0.0273 1.1527 0.3663
H48 H 0.0029 1.1751 0.3926
H49 H -0.0101 1.0784 0.4041
C89 C 0.0325(4) 1.0578(17) 0.3420(14)
H50 H 0.0433 1.0356 0.3107
H51 H 0.0306 1.0097 0.3708
H52 H 0.0417 1.1097 0.3613
C87A C -0.0031(5) 1.088(2) 0.1857(10)
H46A H 0.0059 1.0273 0.1871
C88A C 0.0091(4) 1.1276(18) 0.1243(13)
H47A H 0.0273 1.1527 0.1337
H48A H -0.0029 1.1751 0.1074
H49A H 0.0101 1.0784 0.0959
C89A C -0.0325(4) 1.0578(17) 0.1580(14)
H50A H -0.0433 1.0356 0.1893
H51A H -0.0306 1.0097 0.1292
H52A H -0.0417 1.1097 0.1387
C90 C 0.0000 0.7994(19) 0.2500
H53 H -0.0151 0.7613 0.2620
C91 C 0.0092(7) 0.871(2) 0.2958(14)
H54 H 0.0081 0.9315 0.2778
H55 H -0.0027 0.8692 0.3286
C92 C 0.0375(6) 0.852(2) 0.3183(14)
H56 H 0.0490 0.8525 0.2848
H57 H 0.0383 0.7902 0.3351
C93 C 0.0499(8) 0.920(4) 0.366(2)
H58 H 0.0683 0.9004 0.3799
H59 H 0.0386 0.9207 0.3997
H60 H 0.0506 0.9805 0.3494
H53A H 0.0151 0.7613 0.2380
C91A C -0.0092(7) 0.871(2) 0.2042(14)
H54A H -0.0081 0.9315 0.2222
H55A H 0.0027 0.8692 0.1714
C92A C -0.0375(6) 0.852(2) 0.1817(14)
H56A H -0.0490 0.8525 0.2152
H57A H -0.0383 0.7902 0.1649
C93A C -0.0499(8) 0.920(4) 0.134(2)
H58A H -0.0683 0.9004 0.1201
H59A H -0.0386 0.9207 0.1003
H60A H -0.0506 0.9805 0.1506
C94? C 0.0313(2) 0.5416(10) 0.1281(6)
C95? C 0.0420(2) 0.4557(11) 0.1213(6)
C96? C 0.0273(3) 0.3917(9) 0.0874(6)
C97? C 0.0020(3) 0.4137(12) 0.0603(6)
C98? C -0.0087(2) 0.4996(13) 0.0671(6)
C99? C 0.0060(3) 0.5635(10) 0.1010(5)
F31? F 0.0653(3) 0.4342(10) 0.1503(5)
F32? F 0.0383(2) 0.3102(9) 0.0822(4)
F33? F -0.0105(2) 0.3488(9) 0.0281(3)
F34? F -0.03316(19) 0.5118(12) 0.0427(4)
F35? F -0.0050(3) 0.6392(15) 0.1043(6)
H61? H -0.0151 0.7613 0.2620
loop_
_geom_bond_atom_site_label_1
_geom_bond_atom_site_label_2
_geom_bond_site_symmetry_1
_geom_bond_site_symmetry_2
C1 C2 1_555 1_555
C2 H1 1_555 1_555
C3 C2 1_555 1_555
H2 C3 1_555 1_555
C4 C3 1_555 1_555
C5 C4 1_555 1_555
C6 C5 1_555 1_555
C7 C6 1_555 1_555
H3 C7 1_555 1_555
C8 C7 1_555 1_555
C9 C8 1_555 1_555
C10 C9 1_555 1_555
C11 C10 1_555 1_555
C12 C11 1_555 1_555
H4 C12 1_555 1_555
C13 C12 1_555 1_555
H5 C13 1_555 1_555
C14 C13 1_555 1_555
C15 C14 1_555 1_555
C16 C15 1_555 1_555
C17 C16 1_555 1_555
H6 C17 1_555 1_555
C18 C17 1_555 1_555
H7 C18 1_555 1_555
C19 C18 1_555 1_555
C20 C19 1_555 1_555
C21 C20 1_555 1_555
C22 C21 1_555 1_555
H8 C22 1_555 1_555
C23 C22 1_555 1_555
H9 C23 1_555 1_555
C24 C23 1_555 1_555
C25 C24 1_555 1_555
C26 C25 1_555 1_555
C27 C26 1_555 1_555
H10 C27 1_555 1_555
C28 C27 1_555 1_555
H11 C28 1_555 1_555
C29 C28 1_555 1_555
C30 C1 1_555 1_555
N1 C1 1_555 1_555
H12 N1 1_555 1_555
N2 C6 1_555 1_555
N3 C11 1_555 1_555
N4 C16 1_555 1_555
N5 C21 1_555 1_555
N6 C26 1_555 1_555
C31 C5 1_555 1_555
C32 C31 1_555 1_555
C33 C32 1_555 1_555
C34 C33 1_555 1_555
C35 C34 1_555 1_555
C36 C31 1_555 1_555
F1 C32 1_555 1_555
F2 C33 1_555 1_555
F3 C34 1_555 1_555
F4 C35 1_555 1_555
F5 C36 1_555 1_555
C37 C10 1_555 1_555
C38 C37 1_555 1_555
C39 C38 1_555 1_555
C40 C39 1_555 1_555
C41 C40 1_555 1_555
C42 C37 1_555 1_555
F6 C38 1_555 1_555
F7 C39 1_555 1_555
F8 C40 1_555 1_555
F9 C41 1_555 1_555
F10 C42 1_555 1_555
C43 C15 1_555 1_555
C44 C43 1_555 1_555
C45 C44 1_555 1_555
C46 C45 1_555 1_555
C47 C46 1_555 1_555
C48 C43 1_555 1_555
F11 C44 1_555 1_555
F12 C45 1_555 1_555
F13 C46 1_555 1_555
F14 C47 1_555 1_555
F15 C48 1_555 1_555
C49 C20 1_555 1_555
C50 C49 1_555 1_555
C51 C50 1_555 1_555
C52 C51 1_555 1_555
C53 C52 1_555 1_555
C54 C49 1_555 1_555
F16 C50 1_555 1_555
F17 C51 1_555 1_555
F18 C52 1_555 1_555
F19 C53 1_555 1_555
F20 C54 1_555 1_555
C55 C25 1_555 1_555
C56 C55 1_555 1_555
C57 C56 1_555 1_555
C58 C57 1_555 1_555
C59 C58 1_555 1_555
C60 C55 1_555 1_555
F21 C56 1_555 1_555
F22 C57 1_555 1_555
F23 C58 1_555 1_555
F24 C59 1_555 1_555
F25 C60 1_555 1_555
C61 C30 1_555 1_555
C62 C61 1_555 1_555
C63 C62 1_555 1_555
C64 C63 1_555 1_555
C65 C64 1_555 1_555
C66 C61 1_555 1_555
F26 C62 1_555 1_555
F27 C63 1_555 1_555
F28 C64 1_555 1_555
F29 C65 1_555 1_555
F30 C66 1_555 1_555
C67 C8 1_555 1_555
H13 C67 1_555 1_555
C68 N3 1_555 1_555
C69 N4 1_555 1_555
H14 C69 1_555 1_555
C70 N5 1_555 1_555
H15 C70 1_555 1_555
N7 C70 1_555 1_555
C71 N7 1_555 1_555
H16 C71 1_555 1_555
H17 C71 1_555 1_555
C72 C71 1_555 1_555
H18 C72 1_555 1_555
H19 C72 1_555 1_555
H20 C72 1_555 1_555
C73 N7 1_555 1_555
H21 C73 1_555 1_555
H22 C73 1_555 1_555
C74 C73 1_555 1_555
H23 C74 1_555 1_555
H24 C74 1_555 1_555
H25 C74 1_555 1_555
C75 C76 1_555 1_555
C76 H26 1_555 1_555
C77 C76 1_555 1_555
H27 C77 1_555 1_555
C78 C77 1_555 1_555
C79 C78 1_555 1_555
H28 C79 1_555 1_555
C80 C75 1_555 1_555
H29 C80 1_555 1_555
O1 C75 1_555 1_555
H30 O1 1_555 1_555
O2 C78 1_555 1_555
H31 O2 1_555 1_555
O3 C81 1_555 1_555
C81 H32 1_555 1_555
C82 C81 1_555 1_555
H33 C82 1_555 1_555
H34 C82 1_555 1_555
H35 C82 1_555 1_555
C83 C81 1_555 1_555
H36 C83 1_555 1_555
H37 C83 1_555 1_555
H38 C83 1_555 1_555
C84 O3 1_555 1_555
H39 C84 1_555 1_555
C85 C84 1_555 1_555
H40 C85 1_555 1_555
H41 C85 1_555 1_555
H42 C85 1_555 1_555
C86 C84 1_555 1_555
H43 C86 1_555 1_555
H44 C86 1_555 1_555
H45 C86 1_555 1_555
O4 C87 1_555 1_555
C87 H46 1_555 1_555
C88 C87 1_555 1_555
H47 C88 1_555 1_555
H48 C88 1_555 1_555
H49 C88 1_555 1_555
C89 C87 1_555 1_555
H50 C89 1_555 1_555
H51 C89 1_555 1_555
H52 C89 1_555 1_555
C90 H53 1_555 1_555
C91 C90 1_555 1_555
H54 C91 1_555 1_555
H55 C91 1_555 1_555
C92 C91 1_555 1_555
H56 C92 1_555 1_555
H57 C92 1_555 1_555
C93 C92 1_555 1_555
H58 C93 1_555 1_555
H59 C93 1_555 1_555
H60 C93 1_555 1_555
C87A O4 1_555 1_555
H46A C87A 1_555 1_555
C88A C87A 1_555 1_555
H47A C88A 1_555 1_555
H48A C88A 1_555 1_555
H49A C88A 1_555 1_555
C89A C87A 1_555 1_555
H50A C89A 1_555 1_555
H51A C89A 1_555 1_555
H52A C89A 1_555 1_555
H53A C90 1_555 1_555
C91A C90 1_555 1_555
H54A C91A 1_555 1_555
H55A C91A 1_555 1_555
C92A C91A 1_555 1_555
H56A C92A 1_555 1_555
H57A C92A 1_555 1_555
C93A C92A 1_555 1_555
H58A C93A 1_555 1_555
H59A C93A 1_555 1_555
H60A C93A 1_555 1_555
C4 N1 1_555 1_555
C9 N2 1_555 1_555
C14 N3 1_555 1_555
C19 N4 1_555 1_555
C24 N5 1_555 1_555
C29 C30 1_555 1_555
C29 N6 1_555 1_555
C35 C36 1_555 1_555
C41 C42 1_555 1_555
C47 C48 1_555 1_555
C53 C54 1_555 1_555
C59 C60 1_555 1_555
C65 C66 1_555 1_555
C67 C68 1_555 1_555
C68 C69 1_555 1_555
C69 C70 1_555 1_555
C79 C80 1_555 1_555

#END
