
#######################################################################
#
#                 Cambridge Crystallographic Data Centre
#                                CCDC 
#
#######################################################################
#
# If this CIF has been generated from an entry in the Cambridge 
# Structural Database, then it will include bibliographic, chemical, 
# crystal, experimental, refinement or atomic coordinate data resulting 
# from the CCDC's data processing and validation procedures.
#
#######################################################################

data_QOWWAA
_chemical_formula_moiety         '2(C1 H6 N3 1+),C14 H8 O6 S2 2-,3(C12 H10)'
_chemical_name_systematic        
'bis(Guanidinium) 2,6-anthracenedisulfonate tris(biphenyl) clathrate'
_symmetry_cell_setting           monoclinic
_symmetry_space_group_name_H-M   'P n'
_symmetry_Int_Tables_number      7
_space_group_name_Hall           'P -2yac'
loop_
_symmetry_equiv_pos_site_id
_symmetry_equiv_pos_as_xyz
1 x,y,z
2 1/2+x,-y,1/2+z
_cell_length_a                   7.4697(8)
_cell_length_b                   26.627(3)
_cell_length_c                   11.8358(12)
_cell_angle_alpha                90
_cell_angle_beta                 92.100(2)
_cell_angle_gamma                90
_cell_volume                     2352.51
_exptl_crystal_colour            'pale yellow'
_exptl_crystal_description       plate
_cell_formula_units_Z            2
loop_
_atom_site_label
_atom_site_type_symbol
_atom_site_fract_x
_atom_site_fract_y
_atom_site_fract_z
S1 S 0.85776(13) 0.45460(4) 0.29730(8)
O1 O 1.0140(3) 0.47991(9) 0.2522(2)
C1 C 0.8853(5) 0.39010(14) 0.2675(4)
S2 S 0.85492(13) 0.04878(4) 0.26491(9)
O2 O 0.8497(3) 0.45981(9) 0.4197(2)
C2 C 0.9565(5) 0.37622(15) 0.1627(3)
H5 H 0.9903 0.4013 0.1105
O3 O 0.6922(3) 0.47011(9) 0.2387(2)
C3 C 0.9762(5) 0.32677(15) 0.1375(4)
H8 H 1.0248 0.3177 0.0672
O4 O 0.8639(4) 0.01917(9) 0.3686(2)
C4 C 0.9269(5) 0.28885(15) 0.2122(3)
O5 O 0.6889(3) 0.03950(9) 0.1983(2)
C5 C 0.8492(6) 0.30243(14) 0.3171(3)
O6 O 1.0135(3) 0.04254(9) 0.1975(2)
C6 C 0.8309(5) 0.35442(14) 0.3428(3)
H15 H 0.7810 0.3644 0.4120
C7 C 0.9503(5) 0.23771(15) 0.1886(3)
H16 H 1.0065 0.2283 0.1210
C8 C 0.7932(5) 0.26485(15) 0.3905(3)
H17 H 0.7417 0.2741 0.4597
C9 C 0.8113(5) 0.21438(14) 0.3640(4)
C10 C 0.7496(5) 0.17501(15) 0.4356(3)
H18 H 0.6972 0.1836 0.5050
C11 C 0.7643(6) 0.12584(15) 0.4069(4)
H19 H 0.7178 0.1005 0.4540
C12 C 0.8495(6) 0.11266(14) 0.3060(4)
C13 C 0.9122(5) 0.14802(14) 0.2364(4)
H20 H 0.9698 0.1381 0.1697
C14 C 0.8936(5) 0.20041(15) 0.2610(4)
N1 N 1.0167(5) 0.51264(12) 0.0208(3)
H1 H 1.1186 0.5184 -0.0119
H2 H 1.0167 0.5036 0.0923
N2 N 0.7099(4) 0.51062(12) 0.0140(3)
H3 H 0.6073 0.5151 -0.0236
H4 H 0.7109 0.5016 0.0855
N3 N 0.8621(4) 0.53108(10) -0.1447(3)
H6 H 0.9635 0.5369 -0.1779
H7 H 0.7595 0.5343 -0.1831
C15 C 0.8638(6) 0.51754(14) -0.0375(4)
N4 N 1.0194(4) 0.01855(11) -0.0435(3)
H9 H 1.0235 0.0319 0.0246
H10 H 1.1193 0.0109 -0.0767
N5 N 0.7116(4) 0.02128(11) -0.0468(3)
H11 H 0.6076 0.0157 -0.0818
H12 H 0.7156 0.0345 0.0213
N6 N 0.8566(5) -0.01012(12) -0.1991(3)
H13 H 0.7529 -0.0158 -0.2345
H14 H 0.9570 -0.0177 -0.2318
C16 C 0.8614(6) 0.00986(15) -0.0964(4)
C17 C 0.3579(5) 0.24273(14) 0.5420(4)
C18 C 0.3056(6) 0.26001(16) 0.4343(4)
H21 H 0.2593 0.2368 0.3797
C19 C 0.3197(6) 0.30999(16) 0.4058(4)
H22 H 0.2810 0.3211 0.3326
C20 C 0.3903(6) 0.34404(16) 0.4838(4)
H23 H 0.4017 0.3784 0.4637
C21 C 0.4431(6) 0.32840(17) 0.5889(4)
H24 H 0.4921 0.3518 0.6423
C22 C 0.4255(6) 0.27824(15) 0.6183(4)
H25 H 0.4607 0.2679 0.6927
C23 C 0.3419(5) 0.18888(15) 0.5726(4)
C24 C 0.2294(6) 0.15646(15) 0.5100(4)
H26 H 0.1590 0.1692 0.4480
C25 C 0.2193(7) 0.10633(16) 0.5371(4)
H27 H 0.1431 0.0848 0.4931
C26 C 0.3182(6) 0.08713(16) 0.6269(4)
H28 H 0.3097 0.0525 0.6454
C27 C 0.4299(7) 0.11829(17) 0.6900(4)
H29 H 0.4991 0.1051 0.7521
C28 C 0.4411(6) 0.16835(15) 0.6633(3)
H30 H 0.5184 0.1895 0.7076
C29 C 0.8678(6) 0.31111(14) 0.7582(4)
C30 C 0.9645(6) 0.32812(15) 0.6663(4)
H31 H 1.0286 0.3048 0.6224
C31 C 0.9670(6) 0.37829(16) 0.6395(4)
H32 H 1.0338 0.3892 0.5773
C32 C 0.8753(6) 0.41292(17) 0.7002(4)
H33 H 0.8788 0.4474 0.6802
C33 C 0.7776(6) 0.39748(16) 0.7907(4)
H34 H 0.7134 0.4213 0.8332
C34 C 0.7739(6) 0.34685(15) 0.8192(4)
H35 H 0.7063 0.3363 0.8814
C35 C 0.8632(6) 0.25668(15) 0.7882(4)
C36 C 0.9308(6) 0.21980(15) 0.7186(4)
H36 H 0.9811 0.2294 0.6493
C37 C 0.9270(7) 0.16981(17) 0.7473(4)
H37 H 0.9749 0.1456 0.6977
C38 C 0.8548(6) 0.15428(16) 0.8470(4)
H38 H 0.8537 0.1197 0.8671
C39 C 0.7842(6) 0.19004(17) 0.9167(4)
H39 H 0.7318 0.1800 0.9850
C40 C 0.7887(6) 0.24011(16) 0.8883(4)
H40 H 0.7400 0.2641 0.9381
C41 C 0.3803(6) 0.29205(17) 1.0139(4)
C42 C 0.2892(6) 0.31242(18) 0.9196(4)
H41 H 0.2272 0.2906 0.8682
C43 C 0.2867(6) 0.36334(18) 0.8991(4)
H42 H 0.2234 0.3761 0.8342
C44 C 0.3756(6) 0.39569(17) 0.9722(4)
H43 H 0.3717 0.4309 0.9591
C45 C 0.4703(7) 0.3767(2) 1.0643(4)
H44 H 0.5349 0.3989 1.1138
C46 C 0.4722(6) 0.32612(19) 1.0853(4)
H45 H 0.5375 0.3138 1.1499
C47 C 0.3772(6) 0.23733(17) 1.0388(4)
C48 C 0.3114(6) 0.20202(19) 0.9609(4)
H46 H 0.2699 0.2133 0.8884
C49 C 0.3043(6) 0.1517(2) 0.9844(4)
H47 H 0.2598 0.1286 0.9290
C50 C 0.3631(6) 0.1348(2) 1.0906(5)
H48 H 0.3581 0.1001 1.1084
C51 C 0.4278(6) 0.1683(2) 1.1692(4)
H49 H 0.4691 0.1566 1.2414
C52 C 0.4338(6) 0.2190(2) 1.1444(4)
H50 H 0.4774 0.2418 1.2007
loop_
_geom_bond_atom_site_label_1
_geom_bond_atom_site_label_2
_geom_bond_site_symmetry_1
_geom_bond_site_symmetry_2
S1 O1 1_555 1_555
N1 H1 1_555 1_555
H2 N1 1_555 1_555
C1 S1 1_555 1_555
S2 O4 1_555 1_555
O2 S1 1_555 1_555
N2 H3 1_555 1_555
H4 N2 1_555 1_555
C2 C1 1_555 1_555
H5 C2 1_555 1_555
O3 S1 1_555 1_555
N3 H6 1_555 1_555
H7 N3 1_555 1_555
C3 C2 1_555 1_555
H8 C3 1_555 1_555
N4 H9 1_555 1_555
H10 N4 1_555 1_555
C4 C3 1_555 1_555
O5 S2 1_555 1_555
N5 H11 1_555 1_555
H12 N5 1_555 1_555
C5 C4 1_555 1_555
O6 S2 1_555 1_555
N6 H13 1_555 1_555
H14 N6 1_555 1_555
C6 C1 1_555 1_555
H15 C6 1_555 1_555
C7 C4 1_555 1_555
H16 C7 1_555 1_555
C8 C5 1_555 1_555
H17 C8 1_555 1_555
C9 C8 1_555 1_555
C10 C9 1_555 1_555
H18 C10 1_555 1_555
C11 C10 1_555 1_555
H19 C11 1_555 1_555
C12 S2 1_555 1_555
C13 C12 1_555 1_555
H20 C13 1_555 1_555
C14 C7 1_555 1_555
C15 N1 1_555 1_555
C16 N4 1_555 1_555
C17 C18 1_555 1_555
C18 H21 1_555 1_555
C19 C18 1_555 1_555
H22 C19 1_555 1_555
C20 C19 1_555 1_555
H23 C20 1_555 1_555
C21 C20 1_555 1_555
H24 C21 1_555 1_555
C22 C17 1_555 1_555
H25 C22 1_555 1_555
C23 C17 1_555 1_555
C24 C23 1_555 1_555
H26 C24 1_555 1_555
C25 C24 1_555 1_555
H27 C25 1_555 1_555
C26 C25 1_555 1_555
H28 C26 1_555 1_555
C27 C26 1_555 1_555
H29 C27 1_555 1_555
C28 C23 1_555 1_555
H30 C28 1_555 1_555
C29 C30 1_555 1_555
C30 H31 1_555 1_555
C31 C30 1_555 1_555
H32 C31 1_555 1_555
C32 C31 1_555 1_555
H33 C32 1_555 1_555
C33 C32 1_555 1_555
H34 C33 1_555 1_555
C34 C29 1_555 1_555
H35 C34 1_555 1_555
C35 C29 1_555 1_555
C36 C35 1_555 1_555
H36 C36 1_555 1_555
C37 C36 1_555 1_555
H37 C37 1_555 1_555
C38 C37 1_555 1_555
H38 C38 1_555 1_555
C39 C38 1_555 1_555
H39 C39 1_555 1_555
C40 C35 1_555 1_555
H40 C40 1_555 1_555
C41 C42 1_555 1_555
C42 H41 1_555 1_555
C43 C42 1_555 1_555
H42 C43 1_555 1_555
C44 C43 1_555 1_555
H43 C44 1_555 1_555
C45 C44 1_555 1_555
H44 C45 1_555 1_555
C46 C41 1_555 1_555
H45 C46 1_555 1_555
C47 C41 1_555 1_555
C48 C47 1_555 1_555
H46 C48 1_555 1_555
C49 C48 1_555 1_555
H47 C49 1_555 1_555
C50 C49 1_555 1_555
H48 C50 1_555 1_555
C51 C50 1_555 1_555
H49 C51 1_555 1_555
C52 C47 1_555 1_555
H50 C52 1_555 1_555
N2 C15 1_555 1_555
N3 C15 1_555 1_555
N5 C16 1_555 1_555
C5 C6 1_555 1_555
N6 C16 1_555 1_555
C9 C14 1_555 1_555
C11 C12 1_555 1_555
C13 C14 1_555 1_555
C21 C22 1_555 1_555
C27 C28 1_555 1_555
C33 C34 1_555 1_555
C39 C40 1_555 1_555
C45 C46 1_555 1_555
C51 C52 1_555 1_555

#END
