
#######################################################################
#
#                 Cambridge Crystallographic Data Centre
#                                CCDC 
#
#######################################################################
#
# If this CIF has been generated from an entry in the Cambridge 
# Structural Database, then it will include bibliographic, chemical, 
# crystal, experimental, refinement or atomic coordinate data resulting 
# from the CCDC's data processing and validation procedures.
#
#######################################################################

data_QOWWOO
_chemical_formula_moiety         '2(C1 H6 N3 1+),C8 H16 O6 S2 2-,C6 H14'
_chemical_name_systematic        
'bis(Guanidinium) 1,8-octanedisulfonate hexane clathrate'
_symmetry_cell_setting           orthorhombic
_symmetry_space_group_name_H-M   'P n m a'
_symmetry_Int_Tables_number      62
_space_group_name_Hall           '-P 2ac 2n'
loop_
_symmetry_equiv_pos_site_id
_symmetry_equiv_pos_as_xyz
1 x,y,z
2 1/2+x,y,1/2-z
3 1/2-x,1/2+y,1/2+z
4 x,1/2-y,z
5 -x,-y,-z
6 1/2-x,-y,1/2+z
7 1/2+x,1/2-y,1/2-z
8 -x,1/2+y,-z
_cell_length_a                   14.4260(11)
_cell_length_b                   7.4303(6)
_cell_length_c                   22.4383(17)
_cell_angle_alpha                90
_cell_angle_beta                 90
_cell_angle_gamma                90
_cell_volume                     2405.15
_exptl_crystal_colour            colorless
_exptl_crystal_description       plate
_cell_formula_units_Z            4
loop_
_atom_site_label
_atom_site_type_symbol
_atom_site_fract_x
_atom_site_fract_y
_atom_site_fract_z
N1 N 1.1853(3) 0.2500 0.66594(17)
H1 H 1.2047 0.1475 0.6811
H2 H 1.2028 0.3525 0.6820
N2 N 1.1037(2) 0.4038(4) 0.59536(12)
H3 H 1.0686 0.4047 0.5633
H4 H 1.1215 0.5060 0.6116
C2 C 1.1296(3) 0.2500 0.61904(19)
N2C N 1.1037(2) 0.0962(4) 0.59536(12)
H3C H 1.0686 0.0953 0.5633
H4C H 1.1215 -0.0060 0.6116
N3 N 0.0963(3) 0.2500 0.41083(18)
H5 H 0.0807 0.1475 0.4277
H6 H 0.0831 0.3525 0.4285
N4 N 0.1592(2) 0.0973(4) 0.33268(12)
H7 H 0.1857 0.0975 0.2973
H8 H 0.1460 -0.0054 0.3503
C1 C 0.1395(3) 0.2500 0.3591(2)
N4C N 0.1592(2) 0.4027(4) 0.33268(12)
H7C H 0.1857 0.4025 0.2973
H8C H 0.1460 0.5054 0.3503
S1 S 0.32265(10) 0.2500 0.20807(6)
O1 O 0.2730(2) 0.0895(3) 0.22585(11)
S2 S 0.87045(9) 0.2500 0.54458(5)
O2 O 0.3444(4) 0.2500 0.14445(19)
O3 O 0.8466(3) 0.2500 0.60793(14)
O4 O 0.91994(19) 0.4110(3) 0.52735(10)
C3 C 0.4352(9) 0.192(2) 0.2385(8)
C4 C 0.4249(10) 0.175(3) 0.3029(6)
C5 C 0.5301(13) 0.106(4) 0.3249(10)
C6 C 0.5283(9) 0.056(3) 0.3857(7)
C7 C 0.6278(8) 0.049(3) 0.4136(5)
C8 C 0.6178(8) 0.040(2) 0.4821(6)
C9 C 0.7133(8) 0.043(2) 0.5133(5)
C10 C 0.7669(4) 0.2500 0.5035(3)
O1C O 0.2730(2) 0.4105(3) 0.22585(11)
C3C C 0.4352(9) 0.308(2) 0.2385(8)
C4C C 0.4249(10) 0.325(3) 0.3029(6)
C5C C 0.5301(13) 0.394(4) 0.3249(10)
C6C C 0.5283(9) 0.444(3) 0.3857(7)
C7C C 0.6278(8) 0.451(3) 0.4136(5)
C8C C 0.6178(8) 0.460(2) 0.4821(6)
C9C C 0.7133(8) 0.457(2) 0.5133(5)
O4C O 0.91994(19) 0.0890(3) 0.52735(10)
C11? C 0.410(3) 0.2500 0.229(2)
C12? C 0.414(2) 0.2500 0.2790(18)
C13? C 0.514(3) 0.2500 0.3988(17)
C14? C 0.619(3) 0.2500 0.423(2)
C15? C 0.601(3) 0.165(5) 0.494(2)
C16? C 0.723(4) 0.140(7) 0.516(2)
C17? C 0.666(2) -0.2500 0.5092(14)
C18? C 0.574(2) -0.2500 0.3907(15)
C19? C 0.478(4) -0.2500 0.304(2)
C20? C 0.514(3) -0.2500 0.2611(18)
C21? C 0.623(2) -0.160(5) 0.4559(15)
C22? C 0.465(3) 0.016(5) 0.2651(14)
C23? C 0.558(3) -0.002(6) 0.3057(16)
C24? C 0.549(5) -0.184(9) 0.310(3)
C25? C 0.538(5) -0.133(11) 0.353(4)
C26? C 0.405(6) -0.2500 0.323(4)
C27? C 0.527(3) 0.2500 0.328(2)
loop_
_geom_bond_atom_site_label_1
_geom_bond_atom_site_label_2
_geom_bond_site_symmetry_1
_geom_bond_site_symmetry_2
S1 O1 1_555 1_555
S2 O3 1_555 1_555
O2 S1 1_555 1_555
O4 S2 1_555 1_555
N1 H1 1_555 1_555
H2 N1 1_555 1_555
N2 H3 1_555 1_555
H4 N2 1_555 1_555
N3 H5 1_555 1_555
H6 N3 1_555 1_555
N4 H7 1_555 1_555
H8 N4 1_555 1_555
C1 N3 1_555 1_555
C2 N1 1_555 1_555
C3 S1 1_555 1_555
C4 C3 1_555 1_555
C5 C4 1_555 1_555
C6 C5 1_555 1_555
C7 C6 1_555 1_555
C8 C7 1_555 1_555
C9 C8 1_555 1_555
C10 S2 1_555 1_555
O1C S1 1_555 1_555
C3C S1 1_555 1_555
C4C C3 1_555 1_555
C5C C4C 1_555 1_555
C6C C5C 1_555 1_555
C7C C6C 1_555 1_555
C8C C7C 1_555 1_555
C9C C10 1_555 1_555
O4C S2 1_555 1_555
N2C C2 1_555 1_555
H3C N2C 1_555 1_555
H4C N2C 1_555 1_555
N4C C1 1_555 1_555
H7C N4C 1_555 1_555
H8C N4C 1_555 1_555
N2 C2 1_555 1_555
N4 C1 1_555 1_555
C3 C3C 1_555 1_555
C4 C3C 1_555 1_555
C4 C4C 1_555 1_555
C9 C10 1_555 1_555
C3C C4C 1_555 1_555
C8C C9C 1_555 1_555

#END
