
#######################################################################
#
#                 Cambridge Crystallographic Data Centre
#                                CCDC 
#
#######################################################################
#
# If this CIF has been generated from an entry in the Cambridge 
# Structural Database, then it will include bibliographic, chemical, 
# crystal, experimental, refinement or atomic coordinate data resulting 
# from the CCDC's data processing and validation procedures.
#
#######################################################################

data_QOWXOP
_chemical_formula_moiety         '2(C1 H6 N3 1+),C9 H10 O7 S2 2-,2(C4 H8 O1)'
_chemical_name_systematic        
'bis(Guanidinium) 2-methoxy-4,6-dimethyl-1,5-benzenedisulfonate bis(tetrahydrofuran) clathrate'
_symmetry_cell_setting           orthorhombic
_symmetry_space_group_name_H-M   'P n m a'
_symmetry_Int_Tables_number      62
_space_group_name_Hall           '-P 2ac 2n'
loop_
_symmetry_equiv_pos_site_id
_symmetry_equiv_pos_as_xyz
1 x,y,z
2 1/2+x,y,1/2-z
3 1/2-x,1/2+y,1/2+z
4 x,1/2-y,z
5 -x,-y,-z
6 1/2-x,-y,1/2+z
7 1/2+x,1/2-y,1/2-z
8 -x,1/2+y,-z
_cell_length_a                   21.1037(8)
_cell_length_b                   7.5867(4)
_cell_length_c                   19.3182(8)
_cell_angle_alpha                90
_cell_angle_beta                 90
_cell_angle_gamma                90
_cell_volume                     3092.99
_exptl_crystal_colour            colorless
_exptl_crystal_description       prism
_cell_formula_units_Z            4
loop_
_atom_site_label
_atom_site_type_symbol
_atom_site_fract_x
_atom_site_fract_y
_atom_site_fract_z
N1 N 0.0964(4) 0.2500 0.2318(4)
H1 H 0.0822 0.3505 0.2151
H2 H 0.0819 0.1495 0.2154
N2 N 0.1619(2) 0.0996(6) 0.3069(3)
H3 H 0.1909 0.1004 0.3397
H4 H 0.1476 -0.0012 0.2907
C10 C 0.1399(4) 0.2500 0.2820(5)
N2C N 0.1619(2) 0.4004(6) 0.3069(3)
H3C H 0.1909 0.3996 0.3397
H4C H 0.1476 0.5012 0.2907
N3 N 0.5630(2) 0.4024(6) 0.6457(3)
H5 H 0.5215 0.4043 0.6503
H6 H 0.5843 0.5019 0.6434
N4 N 0.6549(3) 0.2500 0.6301(4)
H7 H 0.6752 0.3504 0.6243
H8 H 0.6757 0.1496 0.6278
C11 C 0.5932(4) 0.2500 0.6424(4)
N3C N 0.5630(2) 0.0976(6) 0.6457(3)
H5C H 0.5215 0.0957 0.6503
H6C H 0.5843 -0.0019 0.6434
O6 O 0.2716(10) -0.2500 0.5504(19)
C12 C 0.251(2) -0.2500 0.6283(13)
H19 H 0.2664 -0.3564 0.6527
H20 H 0.2664 -0.1436 0.6527
C13 C 0.1825(19) -0.2500 0.622(2)
H21 H 0.1655 -0.3554 0.6460
H22 H 0.1655 -0.1446 0.6460
C14 C 0.1627(13) -0.2500 0.5596(15)
H23 H 0.1359 -0.3553 0.5523
H24 H 0.1359 -0.1447 0.5523
C15 C 0.2064(15) -0.2500 0.5151(14)
H25 H 0.2024 -0.1444 0.4853
H26 H 0.2024 -0.3556 0.4853
O7 O 0.0519(12) 0.2500 0.6532(13)
C16 C 0.0271(14) 0.061(5) 0.6432(14)
H27 H 0.0590 -0.0197 0.6230
H28 H 0.0090 0.0096 0.6860
C17 C -0.0154(11) 0.109(4) 0.5995(13)
H29 H -0.0026 0.0518 0.5557
H30 H -0.0542 0.0472 0.6147
C18 C -0.0336(18) 0.2500 0.582(2)
H31 H -0.0304 0.2500 0.5311
H32 H -0.0795 0.2500 0.5929
C17C C -0.0154(11) 0.391(4) 0.5995(13)
C16C C 0.0271(14) 0.439(5) 0.6432(14)
H27C H 0.0590 0.5197 0.6230
H28C H 0.0090 0.4904 0.6860
H29C H -0.0026 0.4482 0.5557
H30C H -0.0542 0.4528 0.6147
S1 S 0.38864(10) 0.2500 0.67916(12)
O1 O 0.42637(17) 0.0913(5) 0.6679(2)
C1 C 0.3276(4) 0.2500 0.6153(4)
S2 S 0.31379(10) 0.2500 0.40079(12)
O2 O 0.3588(2) 0.2500 0.7471(3)
C2 C 0.3467(4) 0.2500 0.5450(5)
O3 O 0.28335(18) 0.0898(5) 0.3750(2)
C3 C 0.2999(4) 0.2500 0.4921(4)
O4 O 0.3814(2) 0.2500 0.3874(3)
C4 C 0.2352(4) 0.2500 0.5145(5)
O5 O 0.1919(3) 0.2500 0.4604(3)
C5 C 0.2198(4) 0.2500 0.5817(5)
H9 H 0.1762 0.2500 0.5939
C6 C 0.2638(4) 0.2500 0.6336(4)
C7 C 0.4167(4) 0.2500 0.5238(5)
H10 H 0.4227 0.1706 0.4843
C8 C 0.2361(4) 0.2500 0.7039(5)
H14 H 0.2479 0.1409 0.7279
C9 C 0.1251(4) 0.2500 0.4777(5)
H16 H 0.1126 0.1322 0.4935
O1C O 0.42637(17) 0.4087(5) 0.6679(2)
O3C O 0.28335(18) 0.4102(5) 0.3750(2)
H16C H 0.1126 0.3678 0.4935
H14C H 0.2479 0.3591 0.7279
H10C H 0.4227 0.3294 0.4843
H11? H 0.4426 0.2097 0.5628
H12? H 0.4294 0.3697 0.5107
H13? H 0.2522 0.3515 0.7299
H15? H 0.1898 0.2576 0.7006
H17? H 0.1003 0.2820 0.4367
H18? H 0.1172 0.3357 0.5147
loop_
_geom_bond_atom_site_label_1
_geom_bond_atom_site_label_2
_geom_bond_site_symmetry_1
_geom_bond_site_symmetry_2
S1 O1 1_555 1_555
N1 H1 1_555 1_555
H2 N1 1_555 1_555
C1 S1 1_555 1_555
S2 O3 1_555 1_555
O2 S1 1_555 1_555
N2 H3 1_555 1_555
H4 N2 1_555 1_555
C2 C1 1_555 1_555
N3 H5 1_555 1_555
H6 N3 1_555 1_555
C3 S2 1_555 1_555
O4 S2 1_555 1_555
N4 H7 1_555 1_555
H8 N4 1_555 1_555
C4 C3 1_555 1_555
O5 C4 1_555 1_555
C5 C4 1_555 1_555
H9 C5 1_555 1_555
C6 C1 1_555 1_555
C7 C2 1_555 1_555
H10 C7 1_555 1_555
C8 C6 1_555 1_555
H14 C8 1_555 1_555
C9 O5 1_555 1_555
H16 C9 1_555 1_555
C10 N1 1_555 1_555
C11 N3 1_555 1_555
O6 C12 1_555 1_555
C12 H19 1_555 1_555
H20 C12 1_555 1_555
O7 C16 1_555 1_555
C13 C12 1_555 1_555
H21 C13 1_555 1_555
H22 C13 1_555 1_555
C14 C13 1_555 1_555
H23 C14 1_555 1_555
H24 C14 1_555 1_555
C15 O6 1_555 1_555
H25 C15 1_555 1_555
H26 C15 1_555 1_555
C16 H27 1_555 1_555
H28 C16 1_555 1_555
C17 C16 1_555 1_555
H29 C17 1_555 1_555
H30 C17 1_555 1_555
C18 C17 1_555 1_555
H31 C18 1_555 1_555
H32 C18 1_555 1_555
O1C S1 1_555 1_555
O3C S2 1_555 1_555
H16C C9 1_555 1_555
H14C C8 1_555 1_555
H10C C7 1_555 1_555
N2C C10 1_555 1_555
H3C N2C 1_555 1_555
H4C N2C 1_555 1_555
N3C C11 1_555 1_555
H5C N3C 1_555 1_555
H6C N3C 1_555 1_555
C17C C18 1_555 1_555
C16C O7 1_555 1_555
H27C C16C 1_555 1_555
H28C C16C 1_555 1_555
H29C C17C 1_555 1_555
H30C C17C 1_555 1_555
N2 C10 1_555 1_555
C2 C3 1_555 1_555
N4 C11 1_555 1_555
C5 C6 1_555 1_555
C14 C15 1_555 1_555
C17C C16C 1_555 1_555

#END
