
#######################################################################
#
#                 Cambridge Crystallographic Data Centre
#                                CCDC 
#
#######################################################################
#
# If this CIF has been generated from an entry in the Cambridge 
# Structural Database, then it will include bibliographic, chemical, 
# crystal, experimental, refinement or atomic coordinate data resulting 
# from the CCDC's data processing and validation procedures.
#
#######################################################################

data_QOXNUN
_chemical_formula_moiety         'C20 H34 Cl2 N1 O5 P1 S1'
_chemical_name_systematic        
"Ethyl 1',1'-diethoxyethyl-(S~S~,R~C~,S~P~)-(+)-2-(t-butylsulfinylamino)-2-(2,4-dichlorophenyl)ethylphosphinate"
_symmetry_cell_setting           orthorhombic
_symmetry_space_group_name_H-M   'P 21 21 21'
_symmetry_Int_Tables_number      19
_space_group_name_Hall           'P 2ac 2ab'
loop_
_symmetry_equiv_pos_site_id
_symmetry_equiv_pos_as_xyz
1 x,y,z
2 1/2-x,-y,1/2+z
3 -x,1/2+y,1/2-z
4 1/2+x,1/2-y,-z
_cell_length_a                   10.2003(8)
_cell_length_b                   11.4455(9)
_cell_length_c                   23.0864(18)
_cell_angle_alpha                90
_cell_angle_beta                 90
_cell_angle_gamma                90
_cell_volume                     2695.28
_exptl_crystal_colour            colorless
_exptl_crystal_description       prismatic
_chemical_melting_point          99-101deg.C
_cell_formula_units_Z            4
loop_
_atom_site_label
_atom_site_type_symbol
_atom_site_fract_x
_atom_site_fract_y
_atom_site_fract_z
P1 P 0.29066(8) 0.56004(7) 0.94260(4)
S1 S -0.09015(8) 0.61880(8) 0.82615(3)
Cl1 Cl 0.01095(11) 0.23407(7) 0.94198(4)
Cl2 Cl -0.23268(14) 0.43940(13) 1.11921(4)
O1 O 0.2346(2) 0.67849(18) 0.93925(10)
O2 O -0.1808(2) 0.6897(3) 0.86106(11)
O3 O 0.2889(3) 0.5039(2) 1.00429(9)
O4 O 0.4947(2) 0.4397(2) 0.91526(12)
O5 O 0.4537(3) 0.5932(3) 0.85691(13)
N1 N 0.0448(3) 0.5883(2) 0.86165(11)
C1 C 0.0578(3) 0.4777(3) 0.89236(12)
H1 H 0.0230 0.4167 0.8669
C2 C -0.0173(3) 0.4695(2) 0.94955(12)
C3 C -0.0409(3) 0.3631(3) 0.97500(14)
C4 C -0.1062(4) 0.3518(3) 1.02681(15)
H2 H -0.1196 0.2788 1.0435
C5 C -0.1512(3) 0.4516(4) 1.05317(14)
C6 C -0.1335(3) 0.5583(3) 1.02897(14)
H3 H -0.1664 0.6249 1.0469
C7 C -0.0666(3) 0.5666(3) 0.97776(13)
H4 H -0.0539 0.6400 0.9614
C8 C 0.2052(3) 0.4536(3) 0.89979(13)
H5 H 0.2454 0.4502 0.8618
H6 H 0.2160 0.3775 0.9177
C9 C 0.4615(3) 0.5576(3) 0.91612(16)
C10 C 0.5504(4) 0.6312(4) 0.9537(2)
H7 H 0.5497 0.6014 0.9926
H8 H 0.5199 0.7106 0.9538
H9 H 0.6381 0.6285 0.9387
C11 C 0.2930(6) 0.5735(4) 1.05606(17)
H10 H 0.3837 0.5875 1.0666
H11 H 0.2525 0.6486 1.0484
C12 C 0.2277(6) 0.5191(5) 1.10317(18)
H12 H 0.1382 0.5040 1.0927
H13 H 0.2301 0.5697 1.1363
H14 H 0.2706 0.4468 1.1123
C13 C 0.6276(4) 0.4159(5) 0.8989(3)
H15 H 0.6547 0.4703 0.8690
H16 H 0.6846 0.4266 0.9322
C14 C 0.6396(6) 0.3012(6) 0.8783(4)
H17 H 0.6172 0.2474 0.9087
H18 H 0.7283 0.2876 0.8662
H19 H 0.5815 0.2901 0.8461
C15 C 0.4838(6) 0.7056(6) 0.8409(3)
H20 H 0.5724 0.7246 0.8530
H21 H 0.4241 0.7599 0.8596
C16 C 0.4727(7) 0.7160(8) 0.7776(3)
H22 H 0.5181 0.6522 0.7595
H23 H 0.5108 0.7885 0.7653
H24 H 0.3819 0.7141 0.7667
C17 C -0.0194(4) 0.7200(3) 0.77274(14)
C18 C -0.1390(5) 0.7700(4) 0.74192(17)
H25 H -0.2014 0.7966 0.7701
H26 H -0.1784 0.7105 0.7183
H27 H -0.1127 0.8344 0.7179
C19 C 0.0552(5) 0.8168(4) 0.80328(19)
H28 H 0.1349 0.7859 0.8192
H29 H 0.0022 0.8482 0.8339
H30 H 0.0756 0.8775 0.7761
C20 C 0.0654(5) 0.6502(4) 0.73296(18)
H31 H 0.1020 0.7005 0.7039
H32 H 0.0139 0.5905 0.7147
H33 H 0.1350 0.6146 0.7547
H34 H 0.080(3) 0.648(2) 0.8804(11)
loop_
_geom_bond_atom_site_label_1
_geom_bond_atom_site_label_2
_geom_bond_site_symmetry_1
_geom_bond_site_symmetry_2
P1 O1 1_555 1_555
S1 O2 1_555 1_555
Cl1 C3 1_555 1_555
Cl2 C5 1_555 1_555
O3 P1 1_555 1_555
O4 C9 1_555 1_555
O5 C9 1_555 1_555
N1 S1 1_555 1_555
C1 N1 1_555 1_555
H1 C1 1_555 1_555
C2 C1 1_555 1_555
C3 C2 1_555 1_555
C4 C3 1_555 1_555
H2 C4 1_555 1_555
C5 C4 1_555 1_555
C6 C5 1_555 1_555
H3 C6 1_555 1_555
C7 C2 1_555 1_555
H4 C7 1_555 1_555
C8 P1 1_555 1_555
H5 C8 1_555 1_555
H6 C8 1_555 1_555
C9 P1 1_555 1_555
C10 C9 1_555 1_555
H7 C10 1_555 1_555
H8 C10 1_555 1_555
H9 C10 1_555 1_555
C11 O3 1_555 1_555
H10 C11 1_555 1_555
H11 C11 1_555 1_555
C12 C11 1_555 1_555
H12 C12 1_555 1_555
H13 C12 1_555 1_555
H14 C12 1_555 1_555
C13 O4 1_555 1_555
H15 C13 1_555 1_555
H16 C13 1_555 1_555
C14 C13 1_555 1_555
H17 C14 1_555 1_555
H18 C14 1_555 1_555
H19 C14 1_555 1_555
C15 O5 1_555 1_555
H20 C15 1_555 1_555
H21 C15 1_555 1_555
C16 C15 1_555 1_555
H22 C16 1_555 1_555
H23 C16 1_555 1_555
H24 C16 1_555 1_555
C17 S1 1_555 1_555
C18 C17 1_555 1_555
H25 C18 1_555 1_555
H26 C18 1_555 1_555
H27 C18 1_555 1_555
C19 C17 1_555 1_555
H28 C19 1_555 1_555
H29 C19 1_555 1_555
H30 C19 1_555 1_555
C20 C17 1_555 1_555
H31 C20 1_555 1_555
H32 C20 1_555 1_555
H33 C20 1_555 1_555
H34 N1 1_555 1_555
C1 C8 1_555 1_555
C6 C7 1_555 1_555

#END
