
#######################################################################
#
#                 Cambridge Crystallographic Data Centre
#                                CCDC 
#
#######################################################################
#
# If this CIF has been generated from an entry in the Cambridge 
# Structural Database, then it will include bibliographic, chemical, 
# crystal, experimental, refinement or atomic coordinate data resulting 
# from the CCDC's data processing and validation procedures.
#
#######################################################################

data_QOXNOH
_chemical_formula_moiety         'C21 H38 N1 O6 P1 S1'
_chemical_name_systematic        
"Ethyl 1',1'-diethoxyethyl-(S~S~,R~C~,S~P~)-(+)-2-(t-butylsulfinylamino)-2-(p-methoxyphenyl)ethylphosphinate"
_symmetry_cell_setting           orthorhombic
_symmetry_space_group_name_H-M   'P 21 21 21'
_symmetry_Int_Tables_number      19
_space_group_name_Hall           'P 2ac 2ab'
loop_
_symmetry_equiv_pos_site_id
_symmetry_equiv_pos_as_xyz
1 x,y,z
2 1/2-x,-y,1/2+z
3 -x,1/2+y,1/2-z
4 1/2+x,1/2-y,-z
_cell_length_a                   6.1078(8)
_cell_length_b                   19.561(3)
_cell_length_c                   22.466(3)
_cell_angle_alpha                90
_cell_angle_beta                 90
_cell_angle_gamma                90
_cell_volume                     2684.12
_exptl_crystal_colour            colorless
_exptl_crystal_description       prismatic
_chemical_melting_point          112-113deg.C
_cell_formula_units_Z            4
loop_
_atom_site_label
_atom_site_type_symbol
_atom_site_fract_x
_atom_site_fract_y
_atom_site_fract_z
P1 P 0.65370(18) 0.51907(5) 0.19187(5)
S1 S 0.18152(19) 0.53540(5) -0.01042(4)
O1 O 0.0242(6) 0.48254(13) -0.02878(15)
O2 O 0.8465(4) 0.51925(13) 0.15330(11)
O3 O 0.6050(5) 0.45033(16) 0.22443(14)
O4 O 0.8579(5) 0.56811(17) 0.28329(13)
O5 O 0.6666(8) 0.6498(2) 0.22876(19)
O6 O 0.4161(6) 0.22094(14) 0.08125(15)
N1 N 0.1986(6) 0.54095(15) 0.06245(14)
C1 C 0.4067(6) 0.53752(19) 0.15334(18)
H1 H 0.2857 0.5188 0.1761
H2 H 0.3881 0.5868 0.1522
C2 C 0.3907(7) 0.51060(19) 0.09027(19)
C3 C 0.3987(6) 0.43276(17) 0.08722(16)
C4 C 0.5711(6) 0.40027(19) 0.06015(17)
H3 H 0.6819 0.4263 0.0431
C5 C 0.5847(7) 0.3287(2) 0.05759(18)
H4 H 0.7037 0.3075 0.0396
C6 C 0.4203(7) 0.2909(2) 0.08197(18)
C7 C 0.2452(7) 0.3220(2) 0.1086(2)
H5 H 0.1339 0.2958 0.1254
C8 C 0.2352(7) 0.3930(2) 0.1105(2)
H6 H 0.1146 0.4139 0.1280
C9 C 0.6662(8) 0.5855(3) 0.2530(2)
C10 C 0.4660(9) 0.5807(4) 0.2905(3)
H7 H 0.4500 0.6218 0.3134
H8 H 0.4788 0.5423 0.3169
H9 H 0.3402 0.5747 0.2654
C11 C 0.9027(11) 0.6076(3) 0.3372(2)
H10 H 1.0280 0.6371 0.3306
H11 H 0.7776 0.6363 0.3464
C12 C 0.9467(11) 0.5627(4) 0.3869(3)
H12 H 0.8124 0.5423 0.4002
H13 H 1.0104 0.5885 0.4189
H14 H 1.0466 0.5275 0.3747
C13 C 0.8653(19) 0.6712(3) 0.1997(3)
H15 H 0.9131 0.6357 0.1725
H16 H 0.9791 0.6777 0.2292
C14 C 0.834(2) 0.7343(4) 0.1670(5)
H17 H 0.7179 0.7284 0.1385
H18 H 0.9665 0.7461 0.1466
H19 H 0.7954 0.7702 0.1942
C15 C 0.7799(14) 0.4054(4) 0.2401(4)
H20 H 0.8275 0.4141 0.2806
H21 H 0.9035 0.4121 0.2136
C16 C 0.698(2) 0.3370(5) 0.2348(5)
H22 H 0.5594 0.3337 0.2548
H23 H 0.7998 0.3057 0.2525
H24 H 0.6793 0.3259 0.1935
C17 C 0.0387(7) 0.61631(18) -0.0259(2)
C18 C 0.0164(11) 0.6165(3) -0.0938(3)
H25 H -0.0705 0.5781 -0.1061
H26 H 0.1590 0.6134 -0.1116
H27 H -0.0532 0.6581 -0.1063
C19 C -0.1765(8) 0.6169(2) 0.0034(3)
H28 H -0.1570 0.6189 0.0458
H29 H -0.2551 0.5760 -0.0068
H30 H -0.2580 0.6561 -0.0096
C20 C 0.1879(9) 0.6736(2) -0.0057(3)
H31 H 0.1363 0.7162 -0.0217
H32 H 0.3339 0.6651 -0.0197
H33 H 0.1881 0.6759 0.0370
C21 C 0.5910(9) 0.1863(2) 0.0551(2)
H34 H 0.6100 0.2019 0.0149
H35 H 0.5612 0.1381 0.0550
H36 H 0.7221 0.1950 0.0774
H37 H 0.067(6) 0.5289(18) 0.0784(17)
H38 H 0.510(5) 0.5240(15) 0.0714(14)
loop_
_geom_bond_atom_site_label_1
_geom_bond_atom_site_label_2
_geom_bond_site_symmetry_1
_geom_bond_site_symmetry_2
P1 O2 1_555 1_555
S1 O1 1_555 1_555
O3 P1 1_555 1_555
O4 C9 1_555 1_555
O5 C9 1_555 1_555
O6 C6 1_555 1_555
N1 S1 1_555 1_555
C1 P1 1_555 1_555
H1 C1 1_555 1_555
H2 C1 1_555 1_555
C2 N1 1_555 1_555
C3 C2 1_555 1_555
C4 C3 1_555 1_555
H3 C4 1_555 1_555
C5 C4 1_555 1_555
H4 C5 1_555 1_555
C6 C5 1_555 1_555
C7 C6 1_555 1_555
H5 C7 1_555 1_555
C8 C3 1_555 1_555
H6 C8 1_555 1_555
C9 P1 1_555 1_555
C10 C9 1_555 1_555
H7 C10 1_555 1_555
H8 C10 1_555 1_555
H9 C10 1_555 1_555
C11 O4 1_555 1_555
H10 C11 1_555 1_555
H11 C11 1_555 1_555
C12 C11 1_555 1_555
H12 C12 1_555 1_555
H13 C12 1_555 1_555
H14 C12 1_555 1_555
C13 O5 1_555 1_555
H15 C13 1_555 1_555
H16 C13 1_555 1_555
C14 C13 1_555 1_555
H17 C14 1_555 1_555
H18 C14 1_555 1_555
H19 C14 1_555 1_555
C15 O3 1_555 1_555
H20 C15 1_555 1_555
H21 C15 1_555 1_555
C16 C15 1_555 1_555
H22 C16 1_555 1_555
H23 C16 1_555 1_555
H24 C16 1_555 1_555
C17 S1 1_555 1_555
C18 C17 1_555 1_555
H25 C18 1_555 1_555
H26 C18 1_555 1_555
H27 C18 1_555 1_555
C19 C17 1_555 1_555
H28 C19 1_555 1_555
H29 C19 1_555 1_555
H30 C19 1_555 1_555
C20 C17 1_555 1_555
H31 C20 1_555 1_555
H32 C20 1_555 1_555
H33 C20 1_555 1_555
C21 O6 1_555 1_555
H34 C21 1_555 1_555
H35 C21 1_555 1_555
H36 C21 1_555 1_555
H37 N1 1_555 1_555
H38 C2 1_555 1_555
C1 C2 1_555 1_555
C7 C8 1_555 1_555

#END
