
#######################################################################
#
#                 Cambridge Crystallographic Data Centre
#                                CCDC 
#
#######################################################################
#
# If this CIF has been generated from an entry in the Cambridge 
# Structural Database, then it will include bibliographic, chemical, 
# crystal, experimental, refinement or atomic coordinate data resulting 
# from the CCDC's data processing and validation procedures.
#
#######################################################################

data_QOXPID
_chemical_formula_moiety         'C20 H11 N7'
_chemical_name_systematic        
3-(Dicyanomethylidene)-2-(4-(dimethylamino)phenyl)-1,4-pentadiene-1,1,5,5-tetracarbonitrile
_symmetry_cell_setting           triclinic
_symmetry_space_group_name_H-M   'P -1'
_symmetry_Int_Tables_number      2
_space_group_name_Hall           '-P 1'
loop_
_symmetry_equiv_pos_site_id
_symmetry_equiv_pos_as_xyz
1 x,y,z
2 -x,-y,-z
_cell_length_a                   7.0331(18)
_cell_length_b                   7.7652(19)
_cell_length_c                   16.756(2)
_cell_angle_alpha                86.996(14)
_cell_angle_beta                 83.408(15)
_cell_angle_gamma                88.385(16)
_cell_volume                     907.577
_exptl_crystal_colour            black
_chemical_melting_point          'above 250deg.C(dec)'
_cell_formula_units_Z            2
_exptl_crystal_recrystallization_method dichloromethane/n-hexane
loop_
_atom_site_label
_atom_site_type_symbol
_atom_site_fract_x
_atom_site_fract_y
_atom_site_fract_z
N1 N 0.5355(6) 1.1331(5) 0.0744(2)
N2 N 0.3619(6) 0.9109(5) 0.3119(2)
N3 N 0.0473(6) 0.1763(5) 0.1629(2)
N4 N 0.2689(6) 0.4883(5) -0.0488(2)
N5 N -0.1980(5) 0.7977(5) 0.1803(2)
N6 N -0.1401(5) 0.6168(6) 0.4206(2)
N7 N 0.7354(5) 0.1757(4) 0.40685(18)
C1 C 0.1902(5) 0.5568(5) 0.2452(2)
C2 C 0.2387(5) 0.5853(5) 0.1550(2)
C3 C 0.3278(5) 0.7418(5) 0.1201(2)
H1 H 0.3469 0.7526 0.0636
C4 C 0.3873(5) 0.8756(5) 0.1602(2)
C5 C 0.4733(5) 1.0173(5) 0.1122(2)
C6 C 0.3715(6) 0.8903(5) 0.2443(3)
C7 C 0.1960(5) 0.4633(5) 0.1051(2)
C8 C 0.1107(6) 0.3046(6) 0.1382(2)
C9 C 0.2361(5) 0.4769(5) 0.0195(3)
C10 C 0.0145(5) 0.6260(5) 0.2735(2)
C11 C -0.1025(5) 0.7191(5) 0.2211(2)
C12 C -0.0688(5) 0.6193(5) 0.3563(3)
C13 C 0.3269(5) 0.4644(5) 0.2875(2)
C14 C 0.4975(5) 0.3966(5) 0.2465(2)
H2 H 0.5205 0.4171 0.1904
C15 C 0.6300(5) 0.3028(5) 0.2847(2)
H3 H 0.7398 0.2590 0.2544
C16 C 0.6057(5) 0.2702(5) 0.3684(2)
C17 C 0.4386(6) 0.3400(5) 0.4111(2)
H4 H 0.4184 0.3221 0.4673
C18 C 0.3062(5) 0.4324(5) 0.3724(2)
H5 H 0.1971 0.4768 0.4030
C19 C 0.9079(6) 0.1019(6) 0.3619(3)
H6 H 0.8717 0.0399 0.3174
H7 H 0.9725 0.0233 0.3974
H8 H 0.9932 0.1940 0.3414
C20 C 0.7225(7) 0.1528(7) 0.4943(3)
H9 H 0.7669 0.2555 0.5163
H10 H 0.8014 0.0542 0.5089
H11 H 0.5905 0.1333 0.5159
loop_
_geom_bond_atom_site_label_1
_geom_bond_atom_site_label_2
_geom_bond_site_symmetry_1
_geom_bond_site_symmetry_2
N1 C5 1_555 1_555
N2 C6 1_555 1_555
N3 C8 1_555 1_555
N4 C9 1_555 1_555
N5 C11 1_555 1_555
N6 C12 1_555 1_555
N7 C16 1_555 1_555
C1 C2 1_555 1_555
C2 C3 1_555 1_555
C3 H1 1_555 1_555
C4 C3 1_555 1_555
C5 C4 1_555 1_555
C6 C4 1_555 1_555
C7 C2 1_555 1_555
C8 C7 1_555 1_555
C9 C7 1_555 1_555
C10 C1 1_555 1_555
C11 C10 1_555 1_555
C12 C10 1_555 1_555
C13 C1 1_555 1_555
C14 C13 1_555 1_555
H2 C14 1_555 1_555
C15 C14 1_555 1_555
H3 C15 1_555 1_555
C16 C15 1_555 1_555
C17 C16 1_555 1_555
H4 C17 1_555 1_555
C18 C13 1_555 1_555
H5 C18 1_555 1_555
C19 N7 1_555 1_555
H6 C19 1_555 1_555
H7 C19 1_555 1_555
H8 C19 1_555 1_555
C20 N7 1_555 1_555
H9 C20 1_555 1_555
H10 C20 1_555 1_555
H11 C20 1_555 1_555
C17 C18 1_555 1_555

#END
