
#######################################################################
#
#                 Cambridge Crystallographic Data Centre
#                                CCDC 
#
#######################################################################
#
# If this CIF has been generated from an entry in the Cambridge 
# Structural Database, then it will include bibliographic, chemical, 
# crystal, experimental, refinement or atomic coordinate data resulting 
# from the CCDC's data processing and validation procedures.
#
#######################################################################

data_QOXWOR
_chemical_formula_moiety         'C24 H56 N2 P8'
_chemical_name_systematic        
2,2,2',2',5,5,5',5'-octa(propan-2-yl)-3,3'-biazatetraphospholidine-2,5-diium-1,4-diide
_symmetry_cell_setting           monoclinic
_symmetry_space_group_name_H-M   'P 21/n'
_symmetry_Int_Tables_number      14
_space_group_name_Hall           '-P 2yn'
loop_
_symmetry_equiv_pos_site_id
_symmetry_equiv_pos_as_xyz
1 x,y,z
2 1/2-x,1/2+y,1/2-z
3 -x,-y,-z
4 1/2+x,1/2-y,1/2+z
_cell_length_a                   15.4287(13)
_cell_length_b                   13.3702(12)
_cell_length_c                   17.2421(15)
_cell_angle_alpha                90
_cell_angle_beta                 109.4820(10)
_cell_angle_gamma                90
_cell_volume                     3353.14
_exptl_crystal_colour            'pale yellow'
_exptl_crystal_description       prism
_cell_formula_units_Z            4
loop_
_atom_site_label
_atom_site_type_symbol
_atom_site_fract_x
_atom_site_fract_y
_atom_site_fract_z
P1 P 0.54022(3) 0.69658(4) 0.21901(3)
P2 P 0.52608(3) 0.79434(3) 0.11214(3)
N1 N 0.58141(11) 0.89636(11) 0.14219(9)
P3 P 0.65988(3) 0.89480(4) 0.23251(3)
P4 P 0.67718(3) 0.74896(4) 0.28719(3)
P5 P 0.44378(3) 0.78130(4) 0.26970(3)
P6 P 0.45946(3) 0.69176(4) 0.38189(3)
N2 N 0.40172(11) 0.58999(11) 0.35820(9)
P7 P 0.32653(3) 0.58518(4) 0.26608(3)
P8 P 0.30482(3) 0.72919(4) 0.20839(3)
C1 C 0.57846(14) 0.72102(14) 0.04916(12)
H1 H 0.6444 0.7127 0.0839
C2 C 0.54192(15) 0.61537(15) 0.02715(13)
H2 H 0.4819 0.6181 -0.0165
H3 H 0.5354 0.5829 0.0758
H4 H 0.5850 0.5770 0.0079
C3 C 0.58027(18) 0.77880(17) -0.02711(14)
H5 H 0.6235 0.7467 -0.0499
H6 H 0.5998 0.8478 -0.0117
H7 H 0.5186 0.7788 -0.0685
C4 C 0.40656(13) 0.82632(14) 0.05639(12)
H8 H 0.3794 0.8467 0.0992
C5 C 0.39804(15) 0.91766(18) 0.00106(14)
H9 H 0.4165 0.8995 -0.0463
H10 H 0.4380 0.9712 0.0323
H11 H 0.3341 0.9409 -0.0183
C6 C 0.34825(15) 0.73848(18) 0.01039(13)
H12 H 0.2830 0.7564 -0.0062
H13 H 0.3599 0.6798 0.0465
H14 H 0.3645 0.7230 -0.0386
C7 C 0.77095(13) 0.93134(15) 0.22371(13)
H15 H 0.7689 1.0044 0.2109
C8 C 0.85148(15) 0.9122(2) 0.30329(14)
H16 H 0.8572 0.8402 0.3145
H17 H 0.8402 0.9469 0.3491
H18 H 0.9085 0.9374 0.2971
C9 C 0.78717(15) 0.87394(17) 0.15313(13)
H19 H 0.8480 0.8908 0.1506
H20 H 0.7399 0.8923 0.1011
H21 H 0.7841 0.8019 0.1624
C10 C 0.62443(14) 0.99192(15) 0.29141(12)
H22 H 0.5644 0.9686 0.2953
C11 C 0.60390(18) 1.09156(16) 0.24564(16)
H23 H 0.5770 1.1379 0.2753
H24 H 0.5605 1.0807 0.1900
H25 H 0.6611 1.1199 0.2422
C12 C 0.68806(19) 1.0046(2) 0.38006(15)
H26 H 0.7432 1.0414 0.3807
H27 H 0.7058 0.9387 0.4051
H28 H 0.6560 1.0420 0.4113
C13 C 0.57871(13) 0.66221(15) 0.44277(11)
H29 H 0.6186 0.7186 0.4367
C14 C 0.60870(14) 0.56757(16) 0.40968(13)
H30 H 0.6750 0.5579 0.4364
H31 H 0.5948 0.5739 0.3501
H32 H 0.5757 0.5100 0.4212
C15 C 0.59424(16) 0.64798(18) 0.53452(13)
H33 H 0.5548 0.5938 0.5417
H34 H 0.5791 0.7101 0.5573
H35 H 0.6588 0.6309 0.5632
C16 C 0.41053(14) 0.77911(15) 0.43810(12)
H36 H 0.3524 0.8041 0.3966
C17 C 0.38103(18) 0.73026(18) 0.50587(14)
H37 H 0.4350 0.7212 0.5553
H38 H 0.3530 0.6650 0.4868
H39 H 0.3363 0.7733 0.5188
C18 C 0.46950(16) 0.87197(16) 0.46845(13)
H40 H 0.4344 0.9217 0.4874
H41 H 0.4871 0.9002 0.4234
H42 H 0.5249 0.8537 0.5140
C19 C 0.21603(13) 0.53761(16) 0.27031(13)
H43 H 0.2179 0.4629 0.2684
C20 C 0.13494(14) 0.57311(19) 0.19628(14)
H44 H 0.0784 0.5403 0.1970
H45 H 0.1463 0.5559 0.1453
H46 H 0.1283 0.6458 0.1993
C21 C 0.20119(16) 0.5673(2) 0.35007(15)
H47 H 0.2007 0.6404 0.3542
H48 H 0.2511 0.5401 0.3968
H49 H 0.1423 0.5405 0.3506
C22 C 0.36794(14) 0.49135(15) 0.20835(12)
H50 H 0.4234 0.5212 0.1997
C23 C 0.40026(16) 0.39477(15) 0.25617(14)
H51 H 0.3476 0.3605 0.2638
H52 H 0.4455 0.4104 0.3100
H53 H 0.4284 0.3514 0.2254
C24 C 0.29905(17) 0.47175(18) 0.12246(13)
H54 H 0.3287 0.4323 0.0904
H55 H 0.2781 0.5356 0.0947
H56 H 0.2462 0.4347 0.1273
loop_
_geom_bond_atom_site_label_1
_geom_bond_atom_site_label_2
_geom_bond_site_symmetry_1
_geom_bond_site_symmetry_2
P1 P2 1_555 1_555
P2 N1 1_555 1_555
N1 P3 1_555 1_555
P3 P4 1_555 1_555
P4 P1 1_555 1_555
P5 P1 1_555 1_555
P6 P5 1_555 1_555
N2 P6 1_555 1_555
P7 N2 1_555 1_555
P8 P5 1_555 1_555
C1 P2 1_555 1_555
H1 C1 1_555 1_555
C2 C1 1_555 1_555
H2 C2 1_555 1_555
H3 C2 1_555 1_555
H4 C2 1_555 1_555
C3 C1 1_555 1_555
H5 C3 1_555 1_555
H6 C3 1_555 1_555
H7 C3 1_555 1_555
C4 P2 1_555 1_555
H8 C4 1_555 1_555
C5 C4 1_555 1_555
H9 C5 1_555 1_555
H10 C5 1_555 1_555
H11 C5 1_555 1_555
C6 C4 1_555 1_555
H12 C6 1_555 1_555
H13 C6 1_555 1_555
H14 C6 1_555 1_555
C7 P3 1_555 1_555
H15 C7 1_555 1_555
C8 C7 1_555 1_555
H16 C8 1_555 1_555
H17 C8 1_555 1_555
H18 C8 1_555 1_555
C9 C7 1_555 1_555
H19 C9 1_555 1_555
H20 C9 1_555 1_555
H21 C9 1_555 1_555
C10 P3 1_555 1_555
H22 C10 1_555 1_555
C11 C10 1_555 1_555
H23 C11 1_555 1_555
H24 C11 1_555 1_555
H25 C11 1_555 1_555
C12 C10 1_555 1_555
H26 C12 1_555 1_555
H27 C12 1_555 1_555
H28 C12 1_555 1_555
C13 P6 1_555 1_555
H29 C13 1_555 1_555
C14 C13 1_555 1_555
H30 C14 1_555 1_555
H31 C14 1_555 1_555
H32 C14 1_555 1_555
C15 C13 1_555 1_555
H33 C15 1_555 1_555
H34 C15 1_555 1_555
H35 C15 1_555 1_555
C16 P6 1_555 1_555
H36 C16 1_555 1_555
C17 C16 1_555 1_555
H37 C17 1_555 1_555
H38 C17 1_555 1_555
H39 C17 1_555 1_555
C18 C16 1_555 1_555
H40 C18 1_555 1_555
H41 C18 1_555 1_555
H42 C18 1_555 1_555
C19 P7 1_555 1_555
H43 C19 1_555 1_555
C20 C19 1_555 1_555
H44 C20 1_555 1_555
H45 C20 1_555 1_555
H46 C20 1_555 1_555
C21 C19 1_555 1_555
H47 C21 1_555 1_555
H48 C21 1_555 1_555
H49 C21 1_555 1_555
C22 P7 1_555 1_555
H50 C22 1_555 1_555
C23 C22 1_555 1_555
H51 C23 1_555 1_555
H52 C23 1_555 1_555
H53 C23 1_555 1_555
C24 C22 1_555 1_555
H54 C24 1_555 1_555
H55 C24 1_555 1_555
H56 C24 1_555 1_555
P7 P8 1_555 1_555

#END
