
#######################################################################
#
#                 Cambridge Crystallographic Data Centre
#                                CCDC 
#
#######################################################################
#
# If this CIF has been generated from an entry in the Cambridge 
# Structural Database, then it will include bibliographic, chemical, 
# crystal, experimental, refinement or atomic coordinate data resulting 
# from the CCDC's data processing and validation procedures.
#
#######################################################################

data_QOXXAE
_chemical_formula_moiety         'C58 H46 P6,0.82(C4 H10 O1)'
_chemical_name_systematic        
'2,2,4,4,9,9,11,11-octaphenyl-2,3,4,9,10,11-hexaphosphatricyclo[10.2.1.1^5,8^]hexadeca-5(16),6,12(15),13-tetraene-2,4,9,11-tetraium-1,3,8,10-tetraide diethyl ether unknown solvate'
_symmetry_cell_setting           triclinic
_symmetry_space_group_name_H-M   'P -1'
_symmetry_Int_Tables_number      2
_space_group_name_Hall           '-P 1'
loop_
_symmetry_equiv_pos_site_id
_symmetry_equiv_pos_as_xyz
1 x,y,z
2 -x,-y,-z
_cell_length_a                   12.6149(11)
_cell_length_b                   13.2909(12)
_cell_length_c                   17.6210(16)
_cell_angle_alpha                86.0290(10)
_cell_angle_beta                 74.7350(10)
_cell_angle_gamma                83.9100(10)
_cell_volume                     2831.45
_exptl_crystal_colour            yellow
_exptl_crystal_description       block
_cell_formula_units_Z            2
loop_
_atom_site_label
_atom_site_type_symbol
_atom_site_fract_x
_atom_site_fract_y
_atom_site_fract_z
C1 C 0.3969(4) 0.7336(4) 0.1317(3)
C2 C 0.2894(4) 0.7175(4) 0.1735(3)
H1 H 0.2678 0.6905 0.2248
C3 C 0.2198(4) 0.7493(4) 0.1246(3)
C4 C 0.2870(4) 0.7854(4) 0.0516(3)
H2 H 0.2619 0.8103 0.0082
C5 C 0.3933(4) 0.7775(4) 0.0557(3)
H3 H 0.4533 0.7971 0.0162
C6 C 0.5215(5) 0.9192(4) 0.1502(3)
H4 H 0.4450 0.9200 0.1632
C7 C 0.2871(4) 0.7922(4) 0.3575(3)
C8 C 0.2540(4) 0.8781(4) 0.3163(3)
H5 H 0.2974 0.9300 0.2933
C9 C 0.1443(4) 0.8727(4) 0.3154(3)
C10 C 0.1086(4) 0.7814(4) 0.3566(3)
H6 H 0.0389 0.7591 0.3649
C11 C 0.1952(5) 0.7323(4) 0.3817(3)
H7 H 0.1943 0.6704 0.4098
C12 C 0.5863(4) 0.8273(4) 0.1415(3)
C13 C 0.7005(4) 0.8270(4) 0.1198(3)
H8 H 0.7445 0.7659 0.1135
C14 C 0.7488(5) 0.9173(5) 0.1076(3)
H9 H 0.8252 0.9168 0.0919
C15 C 0.6843(5) 1.0081(5) 0.1186(4)
H10 H 0.7173 1.0685 0.1119
C16 C 0.5701(5) 1.0094(5) 0.1396(4)
H11 H 0.5264 1.0707 0.1466
C17 C 0.6128(4) 0.6140(4) 0.1041(3)
C18 C 0.7052(5) 0.5682(4) 0.1274(4)
H12 H 0.7208 0.5889 0.1724
C19 C 0.7728(5) 0.4930(5) 0.0843(4)
H13 H 0.8342 0.4634 0.1000
C20 C 0.7501(5) 0.4611(5) 0.0179(4)
H14 H 0.7954 0.4093 -0.0104
C21 C 0.6614(5) 0.5054(5) -0.0063(4)
H15 H 0.6468 0.4838 -0.0513
C22 C 0.5925(5) 0.5828(4) 0.0361(3)
H16 H 0.5328 0.6135 0.0187
C23 C 0.0235(5) 0.6484(4) 0.2056(3)
C24 C 0.0873(6) 0.5563(5) 0.1971(4)
H17 H 0.1604 0.5534 0.1677
C25 C 0.0427(7) 0.4686(6) 0.2320(5)
H18 H 0.0858 0.4070 0.2256
C26 C -0.0654(8) 0.4722(7) 0.2763(5)
H19 H -0.0948 0.4132 0.3003
C27 C -0.1299(7) 0.5634(7) 0.2850(5)
H20 H -0.2030 0.5659 0.3144
C28 C -0.0857(5) 0.6507(6) 0.2499(4)
H21 H -0.1294 0.7120 0.2560
C29 C 0.0313(4) 0.7600(4) 0.0589(3)
C30 C 0.0429(4) 0.8449(4) 0.0073(3)
H22 H 0.0727 0.9009 0.0194
C31 C 0.0104(5) 0.8463(5) -0.0616(3)
H23 H 0.0187 0.9031 -0.0958
C32 C -0.0343(5) 0.7644(5) -0.0800(3)
H24 H -0.0557 0.7657 -0.1268
C33 C -0.0475(5) 0.6797(5) -0.0291(4)
H25 H -0.0786 0.6246 -0.0414
C34 C -0.0146(5) 0.6768(4) 0.0402(3)
H26 H -0.0230 0.6198 0.0741
C35 C 0.4929(5) 0.8664(4) 0.3583(3)
C36 C 0.6054(5) 0.8667(5) 0.3257(3)
H27 H 0.6452 0.8091 0.3019
C37 C 0.6592(5) 0.9508(6) 0.3279(4)
H28 H 0.7347 0.9500 0.3054
C38 C 0.6013(6) 1.0365(6) 0.3635(4)
H29 H 0.6379 1.0931 0.3653
C39 C 0.4898(6) 1.0379(5) 0.3963(4)
H30 H 0.4508 1.0957 0.4202
C40 C 0.4346(5) 0.9527(5) 0.3940(3)
H31 H 0.3590 0.9539 0.4164
C41 C 0.4239(4) 0.6852(4) 0.4522(3)
C42 C 0.4669(5) 0.7260(5) 0.5078(3)
H32 H 0.5002 0.7864 0.4960
C43 C 0.4596(6) 0.6762(6) 0.5805(4)
H33 H 0.4889 0.7025 0.6172
C44 C 0.4092(6) 0.5884(6) 0.5981(4)
H34 H 0.4029 0.5559 0.6474
C45 C 0.3677(6) 0.5477(5) 0.5438(4)
H35 H 0.3343 0.4875 0.5564
C46 C 0.3750(5) 0.5952(4) 0.4704(3)
H36 H 0.3473 0.5668 0.4336
C47 C -0.0295(4) 1.0429(4) 0.3262(3)
C48 C -0.0481(5) 1.0354(5) 0.4075(3)
H37 H -0.0114 0.9828 0.4309
C49 C -0.1210(5) 1.1057(5) 0.4541(4)
H38 H -0.1323 1.1005 0.5085
C50 C -0.1764(5) 1.1829(5) 0.4205(4)
H39 H -0.2246 1.2303 0.4521
C51 C -0.1608(5) 1.1904(5) 0.3397(4)
H40 H -0.1993 1.2424 0.3170
C52 C -0.0881(5) 1.1208(4) 0.2927(3)
H41 H -0.0780 1.1259 0.2384
C53 C 0.1703(4) 1.0435(4) 0.2063(3)
C54 C 0.2243(5) 1.0264(4) 0.1285(3)
H42 H 0.2100 0.9711 0.1043
C55 C 0.2996(5) 1.0914(5) 0.0866(4)
H43 H 0.3360 1.0795 0.0344
C56 C 0.3209(5) 1.1728(5) 0.1212(4)
H44 H 0.3704 1.2171 0.0924
C57 C 0.2682(6) 1.1893(6) 0.2002(4)
H45 H 0.2838 1.2438 0.2244
C58 C 0.1933(5) 1.1250(5) 0.2419(4)
H46 H 0.1578 1.1363 0.2943
P1 P 0.51430(12) 0.64231(11) 0.27872(8)
P2 P -0.02483(12) 0.89626(11) 0.19872(9)
P3 P 0.51912(11) 0.71019(10) 0.16367(8)
P4 P 0.07451(11) 0.76188(10) 0.14997(8)
P5 P 0.42418(11) 0.75386(10) 0.35877(8)
P6 P 0.07199(11) 0.95730(10) 0.26309(8)
O1 O 0.5409(5) 0.6502(5) 0.7597(4)
C59 C 0.4573(8) 0.6660(7) 0.8228(6)
H47 H 0.4823 0.7012 0.8604
H48 H 0.4361 0.6009 0.8472
C60 C 0.3577(8) 0.7259(7) 0.8066(6)
H49 H 0.3013 0.7343 0.8550
H50 H 0.3306 0.6908 0.7707
H51 H 0.3772 0.7912 0.7836
C61 C 0.6241(8) 0.5792(7) 0.7670(6)
H52 H 0.5948 0.5146 0.7849
H53 H 0.6596 0.5993 0.8054
C62 C 0.7036(8) 0.5699(7) 0.6906(5)
H54 H 0.7627 0.5198 0.6949
H55 H 0.7327 0.6339 0.6736
H56 H 0.6679 0.5498 0.6530
loop_
_geom_bond_atom_site_label_1
_geom_bond_atom_site_label_2
_geom_bond_site_symmetry_1
_geom_bond_site_symmetry_2
C1 C2 1_555 1_555
C2 H1 1_555 1_555
C3 C2 1_555 1_555
C4 C3 1_555 1_555
H2 C4 1_555 1_555
C5 C1 1_555 1_555
H3 C5 1_555 1_555
C6 H4 1_555 1_555
C7 C8 1_555 1_555
C8 H5 1_555 1_555
C9 C8 1_555 1_555
C10 C9 1_555 1_555
H6 C10 1_555 1_555
C11 C7 1_555 1_555
H7 C11 1_555 1_555
C12 C6 1_555 1_555
C13 C12 1_555 1_555
H8 C13 1_555 1_555
C14 C13 1_555 1_555
H9 C14 1_555 1_555
C15 C14 1_555 1_555
H10 C15 1_555 1_555
C16 C6 1_555 1_555
H11 C16 1_555 1_555
C17 C18 1_555 1_555
C18 H12 1_555 1_555
C19 C18 1_555 1_555
H13 C19 1_555 1_555
C20 C19 1_555 1_555
H14 C20 1_555 1_555
C21 C20 1_555 1_555
H15 C21 1_555 1_555
C22 C17 1_555 1_555
H16 C22 1_555 1_555
C23 C24 1_555 1_555
C24 H17 1_555 1_555
C25 C24 1_555 1_555
H18 C25 1_555 1_555
C26 C25 1_555 1_555
H19 C26 1_555 1_555
C27 C26 1_555 1_555
H20 C27 1_555 1_555
C28 C23 1_555 1_555
H21 C28 1_555 1_555
C29 C30 1_555 1_555
C30 H22 1_555 1_555
C31 C30 1_555 1_555
H23 C31 1_555 1_555
C32 C31 1_555 1_555
H24 C32 1_555 1_555
C33 C32 1_555 1_555
H25 C33 1_555 1_555
C34 C29 1_555 1_555
H26 C34 1_555 1_555
C35 C36 1_555 1_555
C36 H27 1_555 1_555
C37 C36 1_555 1_555
H28 C37 1_555 1_555
C38 C37 1_555 1_555
H29 C38 1_555 1_555
C39 C38 1_555 1_555
H30 C39 1_555 1_555
C40 C35 1_555 1_555
H31 C40 1_555 1_555
C41 C42 1_555 1_555
C42 H32 1_555 1_555
C43 C42 1_555 1_555
H33 C43 1_555 1_555
C44 C43 1_555 1_555
H34 C44 1_555 1_555
C45 C44 1_555 1_555
H35 C45 1_555 1_555
C46 C41 1_555 1_555
H36 C46 1_555 1_555
C47 C48 1_555 1_555
C48 H37 1_555 1_555
C49 C48 1_555 1_555
H38 C49 1_555 1_555
C50 C49 1_555 1_555
H39 C50 1_555 1_555
C51 C50 1_555 1_555
H40 C51 1_555 1_555
C52 C47 1_555 1_555
H41 C52 1_555 1_555
C53 C54 1_555 1_555
C54 H42 1_555 1_555
C55 C54 1_555 1_555
H43 C55 1_555 1_555
C56 C55 1_555 1_555
H44 C56 1_555 1_555
C57 C56 1_555 1_555
H45 C57 1_555 1_555
C58 C53 1_555 1_555
H46 C58 1_555 1_555
P1 P3 1_555 1_555
P2 P4 1_555 1_555
P3 C1 1_555 1_555
P4 C3 1_555 1_555
P5 C7 1_555 1_555
P6 C9 1_555 1_555
O1 C59 1_555 1_555
C59 H47 1_555 1_555
H48 C59 1_555 1_555
C60 C59 1_555 1_555
H49 C60 1_555 1_555
H50 C60 1_555 1_555
H51 C60 1_555 1_555
C61 O1 1_555 1_555
H52 C61 1_555 1_555
H53 C61 1_555 1_555
C62 C61 1_555 1_555
H54 C62 1_555 1_555
H55 C62 1_555 1_555
H56 C62 1_555 1_555
C4 C5 1_555 1_555
C10 C11 1_555 1_555
C12 P3 1_555 1_555
C15 C16 1_555 1_555
C17 P3 1_555 1_555
C21 C22 1_555 1_555
C23 P4 1_555 1_555
C27 C28 1_555 1_555
C29 P4 1_555 1_555
C33 C34 1_555 1_555
C35 P5 1_555 1_555
C39 C40 1_555 1_555
C41 P5 1_555 1_555
C45 C46 1_555 1_555
C47 P6 1_555 1_555
C51 C52 1_555 1_555
C53 P6 1_555 1_555
C57 C58 1_555 1_555
P1 P5 1_555 1_555
P2 P6 1_555 1_555

#END
