
#######################################################################
#
#                 Cambridge Crystallographic Data Centre
#                                CCDC 
#
#######################################################################
#
# If this CIF has been generated from an entry in the Cambridge 
# Structural Database, then it will include bibliographic, chemical, 
# crystal, experimental, refinement or atomic coordinate data resulting 
# from the CCDC's data processing and validation procedures.
#
#######################################################################

data_QOYBOW
_chemical_formula_moiety         'C20 H16 Br1 F1 O2'
_chemical_name_systematic        
'2-((R)-2-Fluoropropyl)phenyl 6-bromo-2-naphthoate'
_symmetry_cell_setting           orthorhombic
_symmetry_space_group_name_H-M   'P 21 21 21'
_symmetry_Int_Tables_number      19
_space_group_name_Hall           'P 2ac 2ab'
loop_
_symmetry_equiv_pos_site_id
_symmetry_equiv_pos_as_xyz
1 x,y,z
2 1/2-x,-y,1/2+z
3 -x,1/2+y,1/2-z
4 1/2+x,1/2-y,-z
_cell_length_a                   4.7002(8)
_cell_length_b                   8.2106(13)
_cell_length_c                   45.378(8)
_cell_angle_alpha                90
_cell_angle_beta                 90
_cell_angle_gamma                90
_cell_volume                     1751.2
_exptl_crystal_colour            colorless
_exptl_crystal_description       prismatic
_chemical_melting_point          '98-100 deg.C'
_cell_formula_units_Z            4
loop_
_atom_site_label
_atom_site_type_symbol
_atom_site_fract_x
_atom_site_fract_y
_atom_site_fract_z
Br1 Br -0.4220(3) 1.10574(10) 0.02315(2)
F1 F 0.4662(12) 0.3816(6) 0.23347(10)
O1 O 0.2271(13) 0.1900(5) 0.10340(11)
O2 O 0.4253(13) 0.3390(5) 0.13904(10)
C1 C 0.2835(17) 0.3210(9) 0.11335(17)
C2 C 0.1890(19) 0.4776(9) 0.10105(17)
C3 C -0.0041(18) 0.4778(8) 0.07857(15)
H1 H -0.0713 0.3787 0.0715
C4 C -0.1050(17) 0.6228(9) 0.06574(14)
C5 C -0.3110(16) 0.6217(9) 0.04316(15)
H2 H -0.3830 0.5234 0.0363
C6 C -0.404(2) 0.7640(8) 0.03154(14)
H3 H -0.5421 0.7629 0.0169
C7 C -0.2947(17) 0.9114(8) 0.04134(16)
C8 C -0.0953(19) 0.9152(9) 0.06343(15)
H4 H -0.0229 1.0147 0.0697
C9 C -0.0010(19) 0.7731(8) 0.07635(16)
C10 C 0.1974(18) 0.7708(8) 0.09952(16)
H5 H 0.2677 0.8690 0.1067
C11 C 0.2907(16) 0.6274(9) 0.11198(15)
H6 H 0.4200 0.6294 0.1275
C12 C 0.479(2) 0.1944(9) 0.15481(16)
C13 C 0.670(2) 0.0807(11) 0.14446(18)
H7 H 0.7550 0.0944 0.1261
C14 C 0.734(2) -0.0551(11) 0.1617(2)
H8 H 0.8546 -0.1358 0.1546
C15 C 0.615(2) -0.0675(10) 0.1890(2)
H9 H 0.6606 -0.1555 0.2010
C16 C 0.433(2) 0.0472(9) 0.19873(17)
H10 H 0.3500 0.0346 0.2172
C17 C 0.3648(16) 0.1829(8) 0.18218(18)
C18 C 0.1666(16) 0.3119(8) 0.19414(15)
H11 H 0.0556 0.3563 0.1780
H12 H 0.0356 0.2615 0.2079
C19 C 0.3203(18) 0.4494(9) 0.20952(18)
H13 H 0.4577 0.4982 0.1959
C20 C 0.129(2) 0.5794(9) 0.22126(17)
H14 H -0.0088 0.5316 0.2343
H15 H 0.0319 0.6316 0.2052
H16 H 0.2393 0.6585 0.2318
loop_
_geom_bond_atom_site_label_1
_geom_bond_atom_site_label_2
_geom_bond_site_symmetry_1
_geom_bond_site_symmetry_2
Br1 C7 1_555 1_555
F1 C19 1_555 1_555
O1 C1 1_555 1_555
O2 C1 1_555 1_555
C1 C2 1_555 1_555
C2 C3 1_555 1_555
C3 H1 1_555 1_555
C4 C3 1_555 1_555
C5 C4 1_555 1_555
H2 C5 1_555 1_555
C6 C5 1_555 1_555
H3 C6 1_555 1_555
C7 C6 1_555 1_555
C8 C7 1_555 1_555
H4 C8 1_555 1_555
C9 C4 1_555 1_555
C10 C9 1_555 1_555
H5 C10 1_555 1_555
C11 C2 1_555 1_555
H6 C11 1_555 1_555
C12 O2 1_555 1_555
C13 C12 1_555 1_555
H7 C13 1_555 1_555
C14 C13 1_555 1_555
H8 C14 1_555 1_555
C15 C14 1_555 1_555
H9 C15 1_555 1_555
C16 C15 1_555 1_555
H10 C16 1_555 1_555
C17 C12 1_555 1_555
C18 C17 1_555 1_555
H11 C18 1_555 1_555
H12 C18 1_555 1_555
C19 C18 1_555 1_555
H13 C19 1_555 1_555
C20 C19 1_555 1_555
H14 C20 1_555 1_555
H15 C20 1_555 1_555
H16 C20 1_555 1_555
C8 C9 1_555 1_555
C10 C11 1_555 1_555
C16 C17 1_555 1_555

#END
