
#######################################################################
#
#                 Cambridge Crystallographic Data Centre
#                                CCDC 
#
#######################################################################
#
# If this CIF has been generated from an entry in the Cambridge 
# Structural Database, then it will include bibliographic, chemical, 
# crystal, experimental, refinement or atomic coordinate data resulting 
# from the CCDC's data processing and validation procedures.
#
#######################################################################

data_QOYCOW
_chemical_formula_moiety         'C22 H19 N3 O4 S1'
_chemical_name_systematic        
(5aS,8aS,8bS)-1,5,5a,6,7,8,8a,8b-tetrahydro-6,8-dioxo-7-phenyl-1-(p-toluenesulfonyl)-pyrrolo(3,4-g)benzimidazole
_symmetry_cell_setting           orthorhombic
_symmetry_space_group_name_H-M   'P 21 21 21'
_symmetry_Int_Tables_number      19
_space_group_name_Hall           'P 2ac 2ab'
loop_
_symmetry_equiv_pos_site_id
_symmetry_equiv_pos_as_xyz
1 x,y,z
2 1/2-x,-y,1/2+z
3 1/2+x,1/2-y,-z
4 -x,1/2+y,1/2-z
_cell_length_a                   11.2389(11)
_cell_length_b                   11.9684(10)
_cell_length_c                   14.7992(13)
_cell_angle_alpha                90
_cell_angle_beta                 90
_cell_angle_gamma                90
_cell_volume                     1990.66
_exptl_crystal_colour            colorless
_chemical_melting_point          '213-215 deg.C'
_cell_formula_units_Z            4
loop_
_atom_site_label
_atom_site_type_symbol
_atom_site_fract_x
_atom_site_fract_y
_atom_site_fract_z
S1 S 0.1134(1) 0.5124(1) 0.7721(1)
O1 O -0.4001(3) 0.7663(3) 0.9461(2)
O2 O -0.1702(3) 0.6336(3) 0.7173(2)
O3 O 0.1104(3) 0.4311(2) 0.7014(2)
O4 O 0.1241(2) 0.6283(2) 0.7528(2)
N1 N -0.0135(2) 0.4966(3) 0.8267(2)
N2 N -0.1442(3) 0.3917(3) 0.9065(3)
N3 N -0.3086(3) 0.6995(3) 0.8183(2)
C1 C -0.0716(4) 0.3950(3) 0.8403(3)
C2 C -0.1417(3) 0.4988(4) 0.9470(3)
C3 C -0.2074(4) 0.5397(4) 1.0126(3)
C4 C -0.1917(4) 0.6611(4) 1.0344(3)
C5 C -0.1880(3) 0.7304(4) 0.9465(2)
C6 C -0.1111(3) 0.6826(3) 0.8705(3)
C7 C -0.0515(3) 0.5716(3) 0.8996(3)
C8 C -0.1928(4) 0.6668(3) 0.7924(3)
C9 C -0.3113(4) 0.7370(4) 0.9072(3)
C10 C -0.4104(3) 0.6969(3) 0.7600(2)
C11 C -0.4350(4) 0.6027(4) 0.7104(3)
C12 C -0.5338(5) 0.6002(5) 0.6549(3)
C13 C -0.6078(4) 0.6911(5) 0.6511(3)
C14 C -0.5838(4) 0.7851(5) 0.6993(3)
C15 C -0.4836(4) 0.7890(4) 0.7541(3)
C16 C 0.2243(3) 0.4753(3) 0.8495(2)
C17 C 0.3154(3) 0.5499(3) 0.8690(3)
C18 C 0.4044(4) 0.5168(4) 0.9273(3)
C19 C 0.4046(3) 0.4120(4) 0.9672(2)
C20 C 0.3133(3) 0.3401(3) 0.9477(3)
C21 C 0.2234(3) 0.3705(3) 0.8885(3)
C22 C 0.5023(4) 0.3791(4) 1.0315(3)
loop_
_geom_bond_atom_site_label_1
_geom_bond_atom_site_label_2
_geom_bond_site_symmetry_1
_geom_bond_site_symmetry_2
S1 O3 1_555 1_555
O1 C9 1_555 1_555
O2 C8 1_555 1_555
O4 S1 1_555 1_555
N1 S1 1_555 1_555
N2 C1 1_555 1_555
N3 C8 1_555 1_555
C1 N1 1_555 1_555
C2 N2 1_555 1_555
C3 C2 1_555 1_555
C4 C3 1_555 1_555
C5 C4 1_555 1_555
C6 C5 1_555 1_555
C7 N1 1_555 1_555
C8 C6 1_555 1_555
C9 N3 1_555 1_555
C10 N3 1_555 1_555
C11 C10 1_555 1_555
C12 C11 1_555 1_555
C13 C12 1_555 1_555
C14 C13 1_555 1_555
C15 C10 1_555 1_555
C16 S1 1_555 1_555
C17 C16 1_555 1_555
C18 C17 1_555 1_555
C19 C18 1_555 1_555
C20 C19 1_555 1_555
C21 C16 1_555 1_555
C22 C19 1_555 1_555
C2 C7 1_555 1_555
C5 C9 1_555 1_555
C6 C7 1_555 1_555
C14 C15 1_555 1_555
C20 C21 1_555 1_555

#END
