
#######################################################################
#
#                 Cambridge Crystallographic Data Centre
#                                CCDC 
#
#######################################################################
#
# If this CIF has been generated from an entry in the Cambridge 
# Structural Database, then it will include bibliographic, chemical, 
# crystal, experimental, refinement or atomic coordinate data resulting 
# from the CCDC's data processing and validation procedures.
#
#######################################################################

data_QOYCEN
_chemical_formula_moiety         'C24 H18 Cl1 N1 O1'
_chemical_name_systematic        
1-(2-Chlorophenyl)-2-phenyl-5-benzoyl-1,2-dihydropyridine
_symmetry_cell_setting           monoclinic
_symmetry_space_group_name_H-M   'P 21/c'
_symmetry_Int_Tables_number      14
_space_group_name_Hall           '-P 2ybc'
loop_
_symmetry_equiv_pos_site_id
_symmetry_equiv_pos_as_xyz
1 x,y,z
2 -x,1/2+y,1/2-z
3 -x,-y,-z
4 x,1/2-y,1/2+z
_cell_length_a                   10.750(2)
_cell_length_b                   13.323(3)
_cell_length_c                   13.796(3)
_cell_angle_alpha                90
_cell_angle_beta                 101.06(3)
_cell_angle_gamma                90
_cell_volume                     1939.2
_exptl_crystal_colour            yellow
_exptl_crystal_description       block
_chemical_melting_point          '182-185 deg.C'
_cell_formula_units_Z            4
loop_
_atom_site_label
_atom_site_type_symbol
_atom_site_fract_x
_atom_site_fract_y
_atom_site_fract_z
Cl1 Cl 0.56739(9) 0.92810(7) 0.12356(8)
O1 O 1.2006(2) 0.9179(2) 0.19305(19)
N1 N 0.78735(19) 0.78842(17) 0.12766(16)
C1 C 0.6525(4) 0.6414(3) -0.0508(3)
H1 H 0.5780 0.6698 -0.0386
C2 C 0.6496(5) 0.5461(4) -0.0912(3)
H2 H 0.5740 0.5103 -0.1044
C3 C 0.7585(7) 0.5047(4) -0.1116(4)
H3 H 0.7561 0.4415 -0.1404
C4 C 0.8693(5) 0.5555(4) -0.0900(4)
H4 H 0.9429 0.5263 -0.1030
C5 C 0.8743(4) 0.6508(3) -0.0487(3)
H5 H 0.9509 0.6852 -0.0347
C6 C 0.7649(3) 0.6951(2) -0.0283(2)
C7 C 1.1413(3) 0.6842(3) 0.2958(3)
H6 H 1.0923 0.6565 0.2392
C8 C 1.1876(3) 0.6233(3) 0.3760(3)
H7 H 1.1707 0.5548 0.3725
C9 C 1.2582(4) 0.6635(4) 0.4603(4)
H8 H 1.2878 0.6227 0.5146
C10 C 1.2850(4) 0.7639(5) 0.4641(3)
H9 H 1.3335 0.7911 0.5212
C11 C 1.2409(3) 0.8257(3) 0.3842(3)
H10 H 1.2606 0.8937 0.3876
C12 C 1.1676(3) 0.7863(2) 0.2994(2)
C13 C 0.4834(3) 0.7716(3) 0.2177(2)
H11 H 0.4115 0.8101 0.2185
C14 C 0.4942(3) 0.6779(3) 0.2600(3)
H12 H 0.4299 0.6536 0.2901
C15 C 0.5991(3) 0.6198(3) 0.2582(2)
H13 H 0.6058 0.5564 0.2870
C16 C 0.6943(3) 0.6556(2) 0.2135(2)
H14 H 0.7647 0.6156 0.2114
C17 C 0.6866(2) 0.7508(2) 0.1715(2)
C18 C 0.5796(2) 0.8088(2) 0.1739(2)
C19 C 1.1265(3) 0.8528(2) 0.2120(2)
C20 C 0.9048(2) 0.7959(2) 0.1833(2)
H15 H 0.9191 0.7713 0.2476
C21 C 1.0029(2) 0.8381(2) 0.1490(2)
C22 C 0.9741(3) 0.8829(2) 0.0516(2)
H16 H 1.0347 0.9227 0.0304
C23 C 0.8636(3) 0.8684(2) -0.0076(2)
H17 H 0.8456 0.9028 -0.0673
C24 C 0.7662(3) 0.7979(2) 0.0186(2)
H18 H 0.6826 0.8283 -0.0037
Cl2? Cl 0.8303(13) 0.5842(9) 0.2007(10)
loop_
_geom_bond_atom_site_label_1
_geom_bond_atom_site_label_2
_geom_bond_site_symmetry_1
_geom_bond_site_symmetry_2
Cl1 C18 1_555 1_555
O1 C19 1_555 1_555
N1 C17 1_555 1_555
C1 H1 1_555 1_555
C2 C1 1_555 1_555
H2 C2 1_555 1_555
C3 C2 1_555 1_555
H3 C3 1_555 1_555
C4 C3 1_555 1_555
H4 C4 1_555 1_555
C5 C4 1_555 1_555
H5 C5 1_555 1_555
C6 C1 1_555 1_555
C7 H6 1_555 1_555
C8 C7 1_555 1_555
H7 C8 1_555 1_555
C9 C8 1_555 1_555
H8 C9 1_555 1_555
C10 C9 1_555 1_555
H9 C10 1_555 1_555
C11 C10 1_555 1_555
H10 C11 1_555 1_555
C12 C7 1_555 1_555
C13 H11 1_555 1_555
C14 C13 1_555 1_555
H12 C14 1_555 1_555
C15 C14 1_555 1_555
H13 C15 1_555 1_555
C16 C15 1_555 1_555
H14 C16 1_555 1_555
C17 C16 1_555 1_555
C18 C13 1_555 1_555
C19 C12 1_555 1_555
C20 N1 1_555 1_555
H15 C20 1_555 1_555
C21 C19 1_555 1_555
C22 C21 1_555 1_555
H16 C22 1_555 1_555
C23 C22 1_555 1_555
H17 C23 1_555 1_555
C24 N1 1_555 1_555
H18 C24 1_555 1_555
C5 C6 1_555 1_555
C6 C24 1_555 1_555
C11 C12 1_555 1_555
C17 C18 1_555 1_555
C20 C21 1_555 1_555
C23 C24 1_555 1_555

#END
