
#######################################################################
#
#                 Cambridge Crystallographic Data Centre
#                                CCDC 
#
#######################################################################
#
# If this CIF has been generated from an entry in the Cambridge 
# Structural Database, then it will include bibliographic, chemical, 
# crystal, experimental, refinement or atomic coordinate data resulting 
# from the CCDC's data processing and validation procedures.
#
#######################################################################

data_QOYGUH01
_chemical_formula_moiety         'C14 H13 N3 O3'
_chemical_name_systematic        '2-Hydroxyacetophenone 2-nitrophenylhydrazone'
_symmetry_cell_setting           triclinic
_symmetry_space_group_name_H-M   'P -1'
_symmetry_Int_Tables_number      2
_space_group_name_Hall           '-P 1'
loop_
_symmetry_equiv_pos_site_id
_symmetry_equiv_pos_as_xyz
1 x,y,z
2 -x,-y,-z
_cell_length_a                   7.4131(11)
_cell_length_b                   12.370(2)
_cell_length_c                   14.343(3)
_cell_angle_alpha                107.287(7)
_cell_angle_beta                 91.755(1)
_cell_angle_gamma                96.583(1)
_cell_volume                     1244.66
_exptl_crystal_colour            'dark orange'
_exptl_crystal_description       block
_chemical_melting_point          '163-164 deg.C'
_cell_formula_units_Z            4
_exptl_crystal_recrystallization_method ethanol
loop_
_atom_site_label
_atom_site_type_symbol
_atom_site_fract_x
_atom_site_fract_y
_atom_site_fract_z
O1 O 0.2383(9) 0.6637(5) -0.0770(4)
H1 H 0.2526 0.6004 -0.0693
O2 O 0.3101(9) 0.2663(5) 0.1161(5)
O3 O 0.4084(10) 0.1051(6) 0.0465(5)
N1 N 0.2831(8) 0.4132(6) 0.0237(5)
H2 H 0.2759 0.3993 0.0803
N2 N 0.2444(9) 0.5159(6) 0.0166(5)
N3 N 0.3621(10) 0.1955(7) 0.0425(6)
C1 C 0.3329(10) 0.3311(7) -0.0554(6)
C2 C 0.3726(11) 0.2244(7) -0.0476(6)
C3 C 0.4194(10) 0.1409(7) -0.1280(7)
H3 H 0.4434 0.0698 -0.1209
C4 C 0.4318(11) 0.1587(8) -0.2170(7)
H4 H 0.4619 0.1006 -0.2722
C5 C 0.3984(11) 0.2668(7) -0.2251(6)
H5 H 0.4114 0.2820 -0.2858
C6 C 0.3483(11) 0.3484(7) -0.1475(6)
H6 H 0.3231 0.4188 -0.1556
C7 C 0.1809(11) 0.5837(7) 0.0933(6)
C8 C 0.1505(10) 0.6968(7) 0.0898(6)
C9 C 0.1788(10) 0.7314(7) 0.0053(7)
C10 C 0.1529(12) 0.8421(7) 0.0061(7)
H7 H 0.1763 0.8663 -0.0498
C11 C 0.0936(13) 0.9152(8) 0.0878(7)
H8 H 0.0741 0.9897 0.0874
C12 C 0.0617(11) 0.8831(7) 0.1701(8)
H9 H 0.0215 0.9353 0.2261
C13 C 0.0883(11) 0.7744(8) 0.1714(7)
H10 H 0.0640 0.7522 0.2282
C14 C 0.1520(12) 0.5491(7) 0.1846(7)
H11 H 0.0692 0.4774 0.1684
H12 H 0.0988 0.6089 0.2328
H13 H 0.2690 0.5385 0.2120
O4 O 0.3398(9) 0.6540(5) 0.4176(5)
H14 H 0.2890 0.5947 0.4279
O5 O 0.0833(8) 0.2730(5) 0.6205(5)
O6 O -0.0842(10) 0.1123(6) 0.5486(5)
N4 N 0.1761(9) 0.4141(6) 0.5245(5)
H15 H 0.1762 0.4025 0.5822
N5 N 0.2637(9) 0.5144(6) 0.5164(5)
N6 N -0.0019(10) 0.2033(7) 0.5465(6)
C15 C 0.0884(11) 0.3314(7) 0.4452(6)
C16 C 0.0002(11) 0.2262(7) 0.4525(7)
C17 C -0.0903(11) 0.1445(7) 0.3719(7)
H16 H -0.1488 0.0749 0.3785
C18 C -0.0959(11) 0.1633(7) 0.2829(6)
H17 H -0.1570 0.1069 0.2273
C19 C -0.0116(11) 0.2655(7) 0.2742(6)
H18 H -0.0149 0.2788 0.2122
C20 C 0.0753(10) 0.3466(7) 0.3529(6)
H19 H 0.1294 0.4165 0.3450
C21 C 0.3513(11) 0.5826(8) 0.5963(7)
C22 C 0.4392(11) 0.6930(7) 0.5878(6)
C23 C 0.4296(11) 0.7231(7) 0.5007(7)
C24 C 0.5139(12) 0.8294(7) 0.4988(7)
H20 H 0.5090 0.8486 0.4394
C25 C 0.6028(12) 0.9059(8) 0.5804(8)
H21 H 0.6592 0.9778 0.5778
C26 C 0.6105(12) 0.8786(8) 0.6668(8)
H22 H 0.6707 0.9328 0.7240
C27 C 0.5332(11) 0.7751(7) 0.6714(7)
H23 H 0.5421 0.7576 0.7314
C28 C 0.3671(13) 0.5521(8) 0.6899(6)
H24 H 0.2453 0.5315 0.7090
H25 H 0.4299 0.6178 0.7416
H26 H 0.4366 0.4873 0.6801
loop_
_geom_bond_atom_site_label_1
_geom_bond_atom_site_label_2
_geom_bond_site_symmetry_1
_geom_bond_site_symmetry_2
O1 H1 1_555 1_555
O2 N3 1_555 1_555
O3 N3 1_555 1_555
N1 H2 1_555 1_555
N2 N1 1_555 1_555
N3 C2 1_555 1_555
C1 N1 1_555 1_555
C2 C1 1_555 1_555
C3 C2 1_555 1_555
H3 C3 1_555 1_555
C4 C3 1_555 1_555
H4 C4 1_555 1_555
C5 C4 1_555 1_555
H5 C5 1_555 1_555
C6 C1 1_555 1_555
H6 C6 1_555 1_555
C7 N2 1_555 1_555
C8 C7 1_555 1_555
C9 O1 1_555 1_555
C10 C9 1_555 1_555
H7 C10 1_555 1_555
C11 C10 1_555 1_555
H8 C11 1_555 1_555
C12 C11 1_555 1_555
H9 C12 1_555 1_555
C13 C8 1_555 1_555
H10 C13 1_555 1_555
C14 C7 1_555 1_555
H11 C14 1_555 1_555
H12 C14 1_555 1_555
H13 C14 1_555 1_555
O4 H14 1_555 1_555
O5 N6 1_555 1_555
O6 N6 1_555 1_555
N4 H15 1_555 1_555
N5 N4 1_555 1_555
N6 C16 1_555 1_555
C15 N4 1_555 1_555
C16 C15 1_555 1_555
C17 C16 1_555 1_555
H16 C17 1_555 1_555
C18 C17 1_555 1_555
H17 C18 1_555 1_555
C19 C18 1_555 1_555
H18 C19 1_555 1_555
C20 C15 1_555 1_555
H19 C20 1_555 1_555
C21 N5 1_555 1_555
C22 C21 1_555 1_555
C23 O4 1_555 1_555
C24 C23 1_555 1_555
H20 C24 1_555 1_555
C25 C24 1_555 1_555
H21 C25 1_555 1_555
C26 C25 1_555 1_555
H22 C26 1_555 1_555
C27 C22 1_555 1_555
H23 C27 1_555 1_555
C28 C21 1_555 1_555
H24 C28 1_555 1_555
H25 C28 1_555 1_555
H26 C28 1_555 1_555
C5 C6 1_555 1_555
C8 C9 1_555 1_555
C12 C13 1_555 1_555
C19 C20 1_555 1_555
C22 C23 1_555 1_555
C26 C27 1_555 1_555

#END
