
#######################################################################
#
#                 Cambridge Crystallographic Data Centre
#                                CCDC 
#
#######################################################################
#
# If this CIF has been generated from an entry in the Cambridge 
# Structural Database, then it will include bibliographic, chemical, 
# crystal, experimental, refinement or atomic coordinate data resulting 
# from the CCDC's data processing and validation procedures.
#
#######################################################################

data_QOYGUH
_chemical_formula_moiety         'C14 H13 N3 O3'
_chemical_name_systematic        '2-Hydroxyacetophenone 2-nitrophenylhydrazone'
_symmetry_cell_setting           orthorhombic
_symmetry_space_group_name_H-M   'P b c a'
_symmetry_Int_Tables_number      61
_space_group_name_Hall           '-P 2ac 2ab'
loop_
_symmetry_equiv_pos_site_id
_symmetry_equiv_pos_as_xyz
1 x,y,z
2 1/2-x,-y,1/2+z
3 -x,1/2+y,1/2-z
4 1/2+x,1/2-y,-z
5 -x,-y,-z
6 1/2+x,y,1/2-z
7 x,1/2-y,1/2+z
8 1/2-x,1/2+y,z
_cell_length_a                   7.0741(3)
_cell_length_b                   14.1205(8)
_cell_length_c                   24.9098(13)
_cell_angle_alpha                90
_cell_angle_beta                 90
_cell_angle_gamma                90
_cell_volume                     2488.24
_exptl_crystal_colour            red
_exptl_crystal_description       rod
_chemical_melting_point          '161-162 deg.C'
_cell_formula_units_Z            8
_exptl_crystal_recrystallization_method DMSO
loop_
_atom_site_label
_atom_site_type_symbol
_atom_site_fract_x
_atom_site_fract_y
_atom_site_fract_z
O1 O 0.2539(3) 0.62596(14) 0.51381(7)
H1 H 0.2900 0.6046 0.4840
O2 O 0.5015(3) 0.35425(14) 0.32193(8)
O3 O 0.6441(3) 0.40422(14) 0.25028(8)
N1 N 0.3695(3) 0.47341(16) 0.39141(8)
H2 H 0.3767 0.4130 0.3829
N2 N 0.3132(3) 0.49882(16) 0.44197(8)
N3 N 0.5529(3) 0.42009(17) 0.29173(9)
C1 C 0.4146(4) 0.54015(19) 0.35389(10)
C2 C 0.5051(4) 0.51647(19) 0.30501(10)
C3 C 0.5577(4) 0.5862(2) 0.26801(10)
H3 H 0.6228 0.5688 0.2361
C4 C 0.5159(4) 0.6795(2) 0.27746(11)
H4 H 0.5521 0.7269 0.2524
C5 C 0.4193(4) 0.7038(2) 0.32449(11)
H5 H 0.3860 0.7681 0.3306
C6 C 0.3716(4) 0.63652(19) 0.36198(11)
H6 H 0.3086 0.6553 0.3939
C7 C 0.2695(4) 0.43112(19) 0.47481(10)
C8 C 0.2127(4) 0.45768(19) 0.52984(10)
C9 C 0.2056(4) 0.5530(2) 0.54643(10)
C10 C 0.1482(4) 0.5765(2) 0.59823(11)
H7 H 0.1440 0.6410 0.6090
C11 C 0.0974(4) 0.5064(2) 0.63405(11)
H8 H 0.0560 0.5230 0.6691
C12 C 0.1064(4) 0.4124(2) 0.61925(11)
H9 H 0.0741 0.3642 0.6443
C13 C 0.1626(4) 0.3886(2) 0.56792(11)
H10 H 0.1676 0.3237 0.5580
C14 C 0.2749(5) 0.3288(2) 0.45808(12)
H11 H 0.2090 0.3213 0.4237
H12 H 0.2127 0.2900 0.4855
H13 H 0.4067 0.3085 0.4541
loop_
_geom_bond_atom_site_label_1
_geom_bond_atom_site_label_2
_geom_bond_site_symmetry_1
_geom_bond_site_symmetry_2
O1 H1 1_555 1_555
O2 N3 1_555 1_555
O3 N3 1_555 1_555
N1 H2 1_555 1_555
N2 N1 1_555 1_555
N3 C2 1_555 1_555
C1 N1 1_555 1_555
C2 C1 1_555 1_555
C3 C2 1_555 1_555
H3 C3 1_555 1_555
C4 C3 1_555 1_555
H4 C4 1_555 1_555
C5 C4 1_555 1_555
H5 C5 1_555 1_555
C6 C1 1_555 1_555
H6 C6 1_555 1_555
C7 N2 1_555 1_555
C8 C7 1_555 1_555
C9 O1 1_555 1_555
C10 C9 1_555 1_555
H7 C10 1_555 1_555
C11 C10 1_555 1_555
H8 C11 1_555 1_555
C12 C11 1_555 1_555
H9 C12 1_555 1_555
C13 C8 1_555 1_555
H10 C13 1_555 1_555
C14 C7 1_555 1_555
H11 C14 1_555 1_555
H12 C14 1_555 1_555
H13 C14 1_555 1_555
C5 C6 1_555 1_555
C8 C9 1_555 1_555
C12 C13 1_555 1_555

#END
