
#######################################################################
#
#                 Cambridge Crystallographic Data Centre
#                                CCDC 
#
#######################################################################
#
# If this CIF has been generated from an entry in the Cambridge 
# Structural Database, then it will include bibliographic, chemical, 
# crystal, experimental, refinement or atomic coordinate data resulting 
# from the CCDC's data processing and validation procedures.
#
#######################################################################

data_QOYGIV
_chemical_formula_moiety         'C21 H23 N3 O2'
_chemical_name_systematic        
N'-((3Z)-1-Hexyl-2-oxo-1,2-dihydro-3H-indol-3-ylidene)benzohydrazide
_chemical_properties_biological  
'cannabinoid receptor 2 (CB2) agonist; used for the treatment of neuropathic pain'
_symmetry_cell_setting           triclinic
_symmetry_space_group_name_H-M   'P -1'
_symmetry_Int_Tables_number      2
_space_group_name_Hall           '-P 1'
loop_
_symmetry_equiv_pos_site_id
_symmetry_equiv_pos_as_xyz
1 x,y,z
2 -x,-y,-z
_cell_length_a                   7.9246(4)
_cell_length_b                   8.7859(8)
_cell_length_c                   28.0323(12)
_cell_angle_alpha                87.074(1)
_cell_angle_beta                 85.771(1)
_cell_angle_gamma                73.203(1)
_cell_volume                     1862.48
_exptl_crystal_colour            yellow
_exptl_crystal_description       plates
_chemical_melting_point          '103 deg.C'
_cell_formula_units_Z            4
_exptl_crystal_recrystallization_method 'ethyl acetate'
loop_
_atom_site_label
_atom_site_type_symbol
_atom_site_fract_x
_atom_site_fract_y
_atom_site_fract_z
C1 C 0.2845(2) 0.79599(18) 0.48783(6)
C2 C 0.2043(2) 0.94972(17) 0.46149(5)
C3 C 0.2183(2) 1.07538(17) 0.49146(5)
C4 C 0.1698(2) 1.23942(19) 0.48665(6)
H1 H 0.1135 1.2907 0.4599
C5 C 0.2064(3) 1.3260(2) 0.52241(7)
H2 H 0.1760 1.4363 0.5194
C6 C 0.2876(3) 1.2501(2) 0.56244(7)
H3 H 0.3107 1.3107 0.5860
C7 C 0.3359(2) 1.0857(2) 0.56849(6)
H4 H 0.3896 1.0352 0.5957
C8 C 0.3007(2) 1.00029(17) 0.53236(5)
N1 N 0.34023(18) 0.83381(14) 0.52917(5)
O1 O 0.29814(17) 0.66064(13) 0.47491(4)
N2 N 0.13507(18) 0.96943(15) 0.42056(5)
N3 N 0.1357(2) 0.83300(18) 0.39951(5)
C9 C 0.0624(2) 0.8371(2) 0.35643(6)
O2 O 0.0005(2) 0.96025(16) 0.33423(5)
C10 C 0.0681(2) 0.6772(2) 0.33928(6)
C11 C 0.1118(2) 0.5374(2) 0.36689(6)
H5 H 0.1390 0.5401 0.3985
C12 C 0.1154(3) 0.3938(2) 0.34797(7)
H6 H 0.1439 0.3010 0.3669
C13 C 0.0767(3) 0.3890(3) 0.30126(7)
H7 H 0.0796 0.2926 0.2885
C14 C 0.0337(3) 0.5259(3) 0.27338(7)
H8 H 0.0080 0.5221 0.2417
C15 C 0.0283(3) 0.6696(2) 0.29226(6)
H9 H -0.0024 0.7622 0.2732
C16 C 0.4189(2) 0.71696(19) 0.56618(6)
H10 H 0.4983 0.7573 0.5832
H11 H 0.4878 0.6195 0.5512
C17 C 0.2808(2) 0.6805(2) 0.60147(6)
H12 H 0.2123 0.6259 0.5852
H13 H 0.2010 0.7795 0.6129
C18 C 0.3611(3) 0.5780(2) 0.64407(6)
H14 H 0.4710 0.5021 0.6333
H15 H 0.2814 0.5186 0.6569
C19 C 0.3974(3) 0.6744(2) 0.68364(7)
H16 H 0.4841 0.7273 0.6713
H17 H 0.2894 0.7561 0.6925
C20 C 0.4631(4) 0.5778(3) 0.72751(8)
H18 H 0.5713 0.4964 0.7186
H19 H 0.3766 0.5245 0.7396
C21 C 0.4989(4) 0.6717(4) 0.76726(8)
H20 H 0.5777 0.7316 0.7551
H21 H 0.5520 0.6001 0.7926
H22 H 0.3899 0.7433 0.7794
H46 H 0.184(2) 0.747(2) 0.4155(6)
C22 C 0.2868(3) 0.3658(2) -0.01890(7)
C23 C 0.2216(3) 0.5131(2) 0.00985(7)
C24 C 0.2737(3) 0.6371(2) -0.01835(7)
C25 C 0.2532(3) 0.7962(3) -0.01151(8)
H23 H 0.1913 0.8451 0.0157
C26 C 0.3256(4) 0.8812(3) -0.04567(10)
H24 H 0.3126 0.9884 -0.0414
C27 C 0.4165(4) 0.8097(3) -0.08583(10)
H25 H 0.4636 0.8697 -0.1085
C28 C 0.4399(3) 0.6524(3) -0.09347(8)
H26 H 0.5025 0.6045 -0.1208
C29 C 0.3678(3) 0.5674(2) -0.05947(7)
N4 N 0.3750(2) 0.40556(19) -0.05880(6)
O3 O 0.2676(2) 0.23456(17) -0.00808(5)
N5 N 0.1476(2) 0.5248(2) 0.05259(6)
N6 N 0.1163(2) 0.3895(2) 0.07184(6)
C30 C 0.0673(3) 0.3773(3) 0.11951(7)
O4 O 0.0460(2) 0.48697(19) 0.14624(5)
C31 C 0.0446(2) 0.2190(3) 0.13548(6)
C32 C 0.0582(3) 0.0948(3) 0.10538(7)
H27 H 0.0842 0.1077 0.0728
C33 C 0.0340(3) -0.0474(3) 0.12294(8)
H28 H 0.0429 -0.1291 0.1022
C34 C -0.0032(3) -0.0683(3) 0.17084(8)
H29 H -0.0189 -0.1643 0.1827
C35 C -0.0171(3) 0.0514(3) 0.20103(8)
H30 H -0.0426 0.0372 0.2336
C36 C 0.0065(3) 0.1933(3) 0.18360(8)
H31 H -0.0034 0.2742 0.2047
C37 C 0.4815(3) 0.2913(3) -0.09333(7)
H32 H 0.5136 0.1862 -0.0780
H33 H 0.5897 0.3189 -0.1024
C38 C 0.3890(3) 0.2855(3) -0.13771(7)
H34 H 0.3372 0.3929 -0.1500
H35 H 0.2942 0.2374 -0.1299
C39 C 0.5162(3) 0.1903(3) -0.17599(7)
H36 H 0.6090 0.2409 -0.1838
H37 H 0.5711 0.0849 -0.1627
C40 C 0.4363(3) 0.1725(3) -0.22143(7)
H38 H 0.3594 0.1048 -0.2148
H39 H 0.3636 0.2762 -0.2318
C41 C 0.5668(3) 0.1040(3) -0.26155(7)
H40 H 0.6337 -0.0027 -0.2520
H41 H 0.6491 0.1672 -0.2666
C42 C 0.4888(4) 0.0964(3) -0.30838(8)
H42 H 0.4081 0.0330 -0.3041
H43 H 0.5815 0.0494 -0.3318
H44 H 0.4269 0.2019 -0.3192
H45 H 0.146(3) 0.305(3) 0.0547(8)
loop_
_geom_bond_atom_site_label_1
_geom_bond_atom_site_label_2
_geom_bond_site_symmetry_1
_geom_bond_site_symmetry_2
C1 C2 1_555 1_555
C2 C3 1_555 1_555
C3 C4 1_555 1_555
C4 H1 1_555 1_555
C5 C4 1_555 1_555
H2 C5 1_555 1_555
C6 C5 1_555 1_555
H3 C6 1_555 1_555
C7 C6 1_555 1_555
H4 C7 1_555 1_555
C8 C3 1_555 1_555
N1 C1 1_555 1_555
O1 C1 1_555 1_555
N2 C2 1_555 1_555
N3 N2 1_555 1_555
C9 N3 1_555 1_555
O2 C9 1_555 1_555
C10 C9 1_555 1_555
C11 C10 1_555 1_555
H5 C11 1_555 1_555
C12 C11 1_555 1_555
H6 C12 1_555 1_555
C13 C12 1_555 1_555
H7 C13 1_555 1_555
C14 C13 1_555 1_555
H8 C14 1_555 1_555
C15 C10 1_555 1_555
H9 C15 1_555 1_555
C16 N1 1_555 1_555
H10 C16 1_555 1_555
H11 C16 1_555 1_555
C17 C16 1_555 1_555
H12 C17 1_555 1_555
H13 C17 1_555 1_555
C18 C17 1_555 1_555
H14 C18 1_555 1_555
H15 C18 1_555 1_555
C19 C18 1_555 1_555
H16 C19 1_555 1_555
H17 C19 1_555 1_555
C20 C19 1_555 1_555
H18 C20 1_555 1_555
H19 C20 1_555 1_555
C21 C20 1_555 1_555
H20 C21 1_555 1_555
H21 C21 1_555 1_555
H22 C21 1_555 1_555
C22 C23 1_555 1_555
C23 C24 1_555 1_555
C24 C25 1_555 1_555
C25 H23 1_555 1_555
C26 C25 1_555 1_555
H24 C26 1_555 1_555
C27 C26 1_555 1_555
H25 C27 1_555 1_555
C28 C27 1_555 1_555
H26 C28 1_555 1_555
C29 C24 1_555 1_555
N4 C22 1_555 1_555
O3 C22 1_555 1_555
N5 C23 1_555 1_555
N6 N5 1_555 1_555
C30 N6 1_555 1_555
O4 C30 1_555 1_555
C31 C30 1_555 1_555
C32 C31 1_555 1_555
H27 C32 1_555 1_555
C33 C32 1_555 1_555
H28 C33 1_555 1_555
C34 C33 1_555 1_555
H29 C34 1_555 1_555
C35 C34 1_555 1_555
H30 C35 1_555 1_555
C36 C31 1_555 1_555
H31 C36 1_555 1_555
C37 N4 1_555 1_555
H32 C37 1_555 1_555
H33 C37 1_555 1_555
C38 C37 1_555 1_555
H34 C38 1_555 1_555
H35 C38 1_555 1_555
C39 C38 1_555 1_555
H36 C39 1_555 1_555
H37 C39 1_555 1_555
C40 C39 1_555 1_555
H38 C40 1_555 1_555
H39 C40 1_555 1_555
C41 C40 1_555 1_555
H40 C41 1_555 1_555
H41 C41 1_555 1_555
C42 C41 1_555 1_555
H42 C42 1_555 1_555
H43 C42 1_555 1_555
H44 C42 1_555 1_555
H45 N6 1_555 1_555
H46 N3 1_555 1_555
C7 C8 1_555 1_555
C8 N1 1_555 1_555
C14 C15 1_555 1_555
C28 C29 1_555 1_555
C29 N4 1_555 1_555
C35 C36 1_555 1_555

#END
