
#######################################################################
#
#                 Cambridge Crystallographic Data Centre
#                                CCDC 
#
#######################################################################
#
# If this CIF has been generated from an entry in the Cambridge 
# Structural Database, then it will include bibliographic, chemical, 
# crystal, experimental, refinement or atomic coordinate data resulting 
# from the CCDC's data processing and validation procedures.
#
#######################################################################

data_QOYHOC
_chemical_formula_moiety         'C15 H16 N2 O2'
_chemical_name_systematic        
'2-Hydroxyacetophenone 4-methoxyphenylhydrazone'
_symmetry_cell_setting           monoclinic
_symmetry_space_group_name_H-M   'C c'
_symmetry_Int_Tables_number      9
_space_group_name_Hall           'C -2yc'
loop_
_symmetry_equiv_pos_site_id
_symmetry_equiv_pos_as_xyz
1 x,y,z
2 x,-y,1/2+z
3 1/2+x,1/2+y,z
4 1/2+x,1/2-y,1/2+z
_cell_length_a                   11.0224(3)
_cell_length_b                   29.1534(7)
_cell_length_c                   12.5765(4)
_cell_angle_alpha                90
_cell_angle_beta                 103.8725(13)
_cell_angle_gamma                90
_cell_volume                     3923.46
_exptl_crystal_colour            'light brown'
_exptl_crystal_description       block
_chemical_melting_point          '145-147 deg.C'
_cell_formula_units_Z            12
_exptl_crystal_recrystallization_method ethanol
loop_
_atom_site_label
_atom_site_type_symbol
_atom_site_fract_x
_atom_site_fract_y
_atom_site_fract_z
O1 O 0.5307(2) -0.02552(7) 0.78147(16)
H1 H 0.5072 -0.0108 0.7228
O2 O 0.2624(2) 0.19151(7) 0.56643(17)
N1 N 0.4133(2) 0.01458(9) 0.4908(2)
H2 H 0.429(3) 0.0090(11) 0.429(3)
N2 N 0.4628(2) -0.01443(8) 0.57537(18)
C1 C 0.3801(3) 0.05879(10) 0.5160(2)
C2 C 0.3465(3) 0.09099(10) 0.4308(2)
H3 H 0.3498 0.0827 0.3585
C3 C 0.3090(3) 0.13419(10) 0.4514(2)
H4 H 0.2864 0.1555 0.3928
C4 C 0.3034(3) 0.14748(10) 0.5560(2)
C5 C 0.3368(3) 0.11646(10) 0.6410(2)
H5 H 0.3347 0.1252 0.7133
C6 C 0.3736(3) 0.07218(11) 0.6201(2)
H6 H 0.3946 0.0508 0.6786
C7 C 0.4889(3) -0.05653(10) 0.5543(2)
C8 C 0.5456(3) -0.08524(10) 0.6501(2)
C9 C 0.5656(3) -0.06871(10) 0.7590(2)
C10 C 0.6226(3) -0.09592(11) 0.8472(3)
H7 H 0.6370 -0.0840 0.9195
C11 C 0.6588(3) -0.14027(11) 0.8309(3)
H8 H 0.6962 -0.1589 0.8919
C12 C 0.6404(3) -0.15740(12) 0.7262(3)
H9 H 0.6660 -0.1877 0.7147
C13 C 0.5844(3) -0.13013(11) 0.6375(3)
H10 H 0.5721 -0.1424 0.5657
C14 C 0.4628(3) -0.07499(10) 0.4391(2)
H11 H 0.3777 -0.0666 0.3999
H12 H 0.4709 -0.1085 0.4414
H13 H 0.5227 -0.0619 0.4012
C15 C 0.2588(3) 0.20603(11) 0.6735(3)
H14 H 0.1990 0.1871 0.7004
H15 H 0.2328 0.2382 0.6714
H16 H 0.3420 0.2028 0.7226
O3 O 0.9136(2) 0.19650(7) 0.53251(16)
H17 H 0.9353 0.1821 0.5920
O4 O 1.1695(2) -0.02015(7) 0.76594(16)
N3 N 0.9942(2) 0.15501(8) 0.82333(19)
H18 H 0.971(3) 0.1575(10) 0.885(3)
N4 N 0.9534(2) 0.18454(8) 0.73805(18)
C16 C 1.0336(2) 0.11102(10) 0.8016(2)
C17 C 1.0760(3) 0.08161(10) 0.8901(2)
H19 H 1.0752 0.0915 0.9619
C18 C 1.1189(3) 0.03837(11) 0.8748(2)
H20 H 1.1460 0.0185 0.9358
C19 C 1.1229(3) 0.02355(9) 0.7705(2)
C20 C 1.0816(3) 0.05229(10) 0.6826(2)
H21 H 1.0835 0.0424 0.6111
C21 C 1.0369(3) 0.09581(10) 0.6977(2)
H22 H 1.0085 0.1154 0.6364
C22 C 0.9254(2) 0.22651(10) 0.7557(2)
C23 C 0.8775(3) 0.25535(10) 0.6580(2)
C24 C 0.8715(3) 0.23911(10) 0.5515(2)
C25 C 0.8213(3) 0.26618(11) 0.4603(3)
H23 H 0.8171 0.2546 0.3889
C26 C 0.7777(3) 0.30975(11) 0.4732(3)
H24 H 0.7437 0.3281 0.4107
C27 C 0.7834(3) 0.32665(12) 0.5766(3)
H25 H 0.7539 0.3567 0.5855
C28 C 0.8324(3) 0.29967(10) 0.6678(3)
H26 H 0.8354 0.3116 0.7387
C29 C 0.9404(3) 0.24535(10) 0.8696(3)
H27 H 0.8631 0.2405 0.8935
H28 H 0.9585 0.2783 0.8695
H29 H 1.0095 0.2296 0.9198
C30 C 1.1710(3) -0.03697(11) 0.6605(2)
H30 H 1.0865 -0.0356 0.6130
H31 H 1.2004 -0.0688 0.6665
H32 H 1.2273 -0.0181 0.6291
O5 O 0.9046(2) 0.14490(7) 0.03958(16)
H33 H 0.9331 0.1599 0.0971
O6 O 1.1694(2) 0.36560(7) 0.24306(17)
N5 N 1.0274(2) 0.18837(9) 0.3273(2)
H34 H 1.017(3) 0.1873(11) 0.398(3)
N6 N 0.9770(2) 0.15829(8) 0.24579(19)
C31 C 1.0594(3) 0.23280(9) 0.2996(2)
C32 C 1.0990(3) 0.26455(10) 0.3847(2)
H35 H 1.1014 0.2559 0.4580
C33 C 1.1344(3) 0.30825(10) 0.3625(2)
H36 H 1.1609 0.3295 0.4207
C34 C 1.1315(3) 0.32136(10) 0.2552(2)
C35 C 1.0920(3) 0.29024(10) 0.1707(2)
H37 H 1.0890 0.2991 0.0975
C36 C 1.0568(3) 0.24620(10) 0.1925(2)
H38 H 1.0308 0.2250 0.1341
C37 C 0.9511(3) 0.11679(9) 0.2691(2)
C38 C 0.8911(3) 0.08699(10) 0.1762(3)
C39 C 0.8695(3) 0.10247(10) 0.0661(2)
C40 C 0.8130(3) 0.07375(10) -0.0203(3)
H39 H 0.7991 0.0845 -0.0935
C41 C 0.7770(3) 0.02976(11) -0.0005(3)
H40 H 0.7383 0.0104 -0.0596
C42 C 0.7982(3) 0.01426(11) 0.1071(3)
H41 H 0.7742 -0.0160 0.1215
C43 C 0.8537(3) 0.04245(10) 0.1927(3)
H42 H 0.8669 0.0312 0.2654
C44 C 0.9789(3) 0.09868(10) 0.3846(2)
H43 H 1.0493 0.1156 0.4299
H44 H 1.0002 0.0660 0.3846
H45 H 0.9051 0.1026 0.4145
C45 C 1.1712(3) 0.37934(10) 0.1346(3)
H46 H 1.2290 0.3597 0.1071
H47 H 1.1987 0.4113 0.1354
H48 H 1.0870 0.3764 0.0869
loop_
_geom_bond_atom_site_label_1
_geom_bond_atom_site_label_2
_geom_bond_site_symmetry_1
_geom_bond_site_symmetry_2
O1 H1 1_555 1_555
O2 C4 1_555 1_555
N1 H2 1_555 1_555
N2 N1 1_555 1_555
C1 N1 1_555 1_555
C2 C1 1_555 1_555
H3 C2 1_555 1_555
C3 C2 1_555 1_555
H4 C3 1_555 1_555
C4 C3 1_555 1_555
C5 C4 1_555 1_555
H5 C5 1_555 1_555
C6 C1 1_555 1_555
H6 C6 1_555 1_555
C7 N2 1_555 1_555
C8 C7 1_555 1_555
C9 O1 1_555 1_555
C10 C9 1_555 1_555
H7 C10 1_555 1_555
C11 C10 1_555 1_555
H8 C11 1_555 1_555
C12 C11 1_555 1_555
H9 C12 1_555 1_555
C13 C8 1_555 1_555
H10 C13 1_555 1_555
C14 C7 1_555 1_555
H11 C14 1_555 1_555
H12 C14 1_555 1_555
H13 C14 1_555 1_555
C15 O2 1_555 1_555
H14 C15 1_555 1_555
H15 C15 1_555 1_555
H16 C15 1_555 1_555
O3 H17 1_555 1_555
O4 C19 1_555 1_555
N3 H18 1_555 1_555
N4 N3 1_555 1_555
C16 N3 1_555 1_555
C17 C16 1_555 1_555
H19 C17 1_555 1_555
C18 C17 1_555 1_555
H20 C18 1_555 1_555
C19 C18 1_555 1_555
C20 C19 1_555 1_555
H21 C20 1_555 1_555
C21 C16 1_555 1_555
H22 C21 1_555 1_555
C22 N4 1_555 1_555
C23 C22 1_555 1_555
C24 O3 1_555 1_555
C25 C24 1_555 1_555
H23 C25 1_555 1_555
C26 C25 1_555 1_555
H24 C26 1_555 1_555
C27 C26 1_555 1_555
H25 C27 1_555 1_555
C28 C23 1_555 1_555
H26 C28 1_555 1_555
C29 C22 1_555 1_555
H27 C29 1_555 1_555
H28 C29 1_555 1_555
H29 C29 1_555 1_555
C30 O4 1_555 1_555
H30 C30 1_555 1_555
H31 C30 1_555 1_555
H32 C30 1_555 1_555
O5 H33 1_555 1_555
O6 C34 1_555 1_555
N5 H34 1_555 1_555
N6 N5 1_555 1_555
C31 N5 1_555 1_555
C32 C31 1_555 1_555
H35 C32 1_555 1_555
C33 C32 1_555 1_555
H36 C33 1_555 1_555
C34 C33 1_555 1_555
C35 C34 1_555 1_555
H37 C35 1_555 1_555
C36 C31 1_555 1_555
H38 C36 1_555 1_555
C37 N6 1_555 1_555
C38 C37 1_555 1_555
C39 O5 1_555 1_555
C40 C39 1_555 1_555
H39 C40 1_555 1_555
C41 C40 1_555 1_555
H40 C41 1_555 1_555
C42 C41 1_555 1_555
H41 C42 1_555 1_555
C43 C38 1_555 1_555
H42 C43 1_555 1_555
C44 C37 1_555 1_555
H43 C44 1_555 1_555
H44 C44 1_555 1_555
H45 C44 1_555 1_555
C45 O6 1_555 1_555
H46 C45 1_555 1_555
H47 C45 1_555 1_555
H48 C45 1_555 1_555
C5 C6 1_555 1_555
C8 C9 1_555 1_555
C12 C13 1_555 1_555
C20 C21 1_555 1_555
C23 C24 1_555 1_555
C27 C28 1_555 1_555
C35 C36 1_555 1_555
C38 C39 1_555 1_555
C42 C43 1_555 1_555

#END
