
#######################################################################
#
#                 Cambridge Crystallographic Data Centre
#                                CCDC 
#
#######################################################################
#
# If this CIF has been generated from an entry in the Cambridge 
# Structural Database, then it will include bibliographic, chemical, 
# crystal, experimental, refinement or atomic coordinate data resulting 
# from the CCDC's data processing and validation procedures.
#
#######################################################################

data_QOYHES
_chemical_formula_moiety         'C14 H13 N3 O3'
_chemical_name_systematic        '2-Hydroxyacetophenone 4-nitrophenylhydrazone'
_symmetry_cell_setting           monoclinic
_symmetry_space_group_name_H-M   'C c'
_symmetry_Int_Tables_number      9
_space_group_name_Hall           'C -2yc'
loop_
_symmetry_equiv_pos_site_id
_symmetry_equiv_pos_as_xyz
1 x,y,z
2 x,-y,1/2+z
3 1/2+x,1/2+y,z
4 1/2+x,1/2-y,1/2+z
_cell_length_a                   10.5960(4)
_cell_length_b                   9.2912(5)
_cell_length_c                   12.4369(6)
_cell_angle_alpha                90
_cell_angle_beta                 92.806(3)
_cell_angle_gamma                90
_cell_volume                     1222.94
_exptl_crystal_colour            'dark orange'
_exptl_crystal_description       plate
_chemical_melting_point          '244-247 deg.C'
_cell_formula_units_Z            4
_exptl_crystal_recrystallization_method acetonitrile
loop_
_atom_site_label
_atom_site_type_symbol
_atom_site_fract_x
_atom_site_fract_y
_atom_site_fract_z
O1 O 0.5765(2) 0.6018(2) 0.65709(16)
H1 H 0.5577 0.5478 0.6045
O2 O 0.2876(2) -0.1909(2) 0.43104(19)
O3 O 0.3067(2) -0.1316(3) 0.59974(18)
N1 N 0.4941(2) 0.4360(3) 0.3832(2)
H2 H 0.511(3) 0.457(4) 0.313(3)
N2 N 0.5388(2) 0.5351(3) 0.45831(18)
N3 N 0.3178(2) -0.1040(3) 0.5031(2)
C1 C 0.4574(3) 0.3015(3) 0.4160(2)
C2 C 0.4091(3) 0.2060(3) 0.3367(2)
H3 H 0.4072 0.2337 0.2631
C3 C 0.3647(3) 0.0732(3) 0.3647(2)
H4 H 0.3323 0.0087 0.3109
C4 C 0.3675(3) 0.0338(3) 0.4732(2)
C5 C 0.4167(3) 0.1259(3) 0.5527(2)
H5 H 0.4190 0.0971 0.6261
C6 C 0.4621(3) 0.2594(3) 0.5248(2)
H6 H 0.4963 0.3226 0.5788
C7 C 0.5664(3) 0.6634(3) 0.4267(2)
C8 C 0.6174(3) 0.7645(3) 0.5094(2)
C9 C 0.6223(3) 0.7288(3) 0.6206(2)
C10 C 0.6746(3) 0.8239(3) 0.6975(2)
H7 H 0.6774 0.7984 0.7715
C11 C 0.7224(3) 0.9556(4) 0.6659(3)
H8 H 0.7582 1.0199 0.7183
C12 C 0.7179(3) 0.9938(3) 0.5575(3)
H9 H 0.7500 1.0842 0.5359
C13 C 0.6664(3) 0.8990(3) 0.4814(3)
H10 H 0.6642 0.9260 0.4076
C14 C 0.5483(3) 0.7092(4) 0.3102(2)
H11 H 0.4673 0.6724 0.2803
H12 H 0.6171 0.6703 0.2691
H13 H 0.5487 0.8145 0.3059
loop_
_geom_bond_atom_site_label_1
_geom_bond_atom_site_label_2
_geom_bond_site_symmetry_1
_geom_bond_site_symmetry_2
O1 H1 1_555 1_555
O2 N3 1_555 1_555
O3 N3 1_555 1_555
N1 H2 1_555 1_555
N2 N1 1_555 1_555
N3 C4 1_555 1_555
C1 N1 1_555 1_555
C2 C1 1_555 1_555
H3 C2 1_555 1_555
C3 C2 1_555 1_555
H4 C3 1_555 1_555
C4 C3 1_555 1_555
C5 C4 1_555 1_555
H5 C5 1_555 1_555
C6 C1 1_555 1_555
H6 C6 1_555 1_555
C7 N2 1_555 1_555
C8 C7 1_555 1_555
C9 O1 1_555 1_555
C10 C9 1_555 1_555
H7 C10 1_555 1_555
C11 C10 1_555 1_555
H8 C11 1_555 1_555
C12 C11 1_555 1_555
H9 C12 1_555 1_555
C13 C8 1_555 1_555
H10 C13 1_555 1_555
C14 C7 1_555 1_555
H11 C14 1_555 1_555
H12 C14 1_555 1_555
H13 C14 1_555 1_555
C5 C6 1_555 1_555
C8 C9 1_555 1_555
C12 C13 1_555 1_555

#END
