
#######################################################################
#
#                 Cambridge Crystallographic Data Centre
#                                CCDC 
#
#######################################################################
#
# If this CIF has been generated from an entry in the Cambridge 
# Structural Database, then it will include bibliographic, chemical, 
# crystal, experimental, refinement or atomic coordinate data resulting 
# from the CCDC's data processing and validation procedures.
#
#######################################################################

data_QOYHUI
_chemical_formula_moiety         'C14 H14 N2 O1'
_chemical_name_systematic        '2-Hydroxyacetophenone phenylhydrazone'
_symmetry_cell_setting           monoclinic
_symmetry_space_group_name_H-M   'P 21/n'
_symmetry_Int_Tables_number      14
_space_group_name_Hall           '-P 2yn'
loop_
_symmetry_equiv_pos_site_id
_symmetry_equiv_pos_as_xyz
1 x,y,z
2 1/2-x,1/2+y,1/2-z
3 -x,-y,-z
4 1/2+x,1/2-y,1/2+z
_cell_length_a                   13.1738(8)
_cell_length_b                   10.8492(7)
_cell_length_c                   17.3287(7)
_cell_angle_alpha                90
_cell_angle_beta                 110.676(3)
_cell_angle_gamma                90
_cell_volume                     2317.19
_exptl_crystal_colour            colorless
_exptl_crystal_description       plate
_chemical_melting_point          '107-109 deg.C'
_cell_formula_units_Z            8
_exptl_crystal_recrystallization_method ethanol
loop_
_atom_site_label
_atom_site_type_symbol
_atom_site_fract_x
_atom_site_fract_y
_atom_site_fract_z
O1 O -0.16457(16) 0.21223(19) 0.24522(11)
H1 H -0.1112 0.1641 0.2611
N1 N 0.0976(2) 0.0347(2) 0.28156(13)
H2 H 0.159(3) 0.037(3) 0.2730(17)
N2 N 0.01886(17) 0.1222(2) 0.25220(12)
C1 C 0.0977(2) -0.0434(3) 0.34585(16)
C2 C 0.1832(2) -0.1275(3) 0.37486(17)
H3 H 0.2395 -0.1274 0.3525
C3 C 0.1861(2) -0.2104(3) 0.43561(17)
H4 H 0.2441 -0.2679 0.4544
C4 C 0.1062(2) -0.2112(3) 0.46941(16)
H5 H 0.1083 -0.2691 0.5111
C5 C 0.0225(2) -0.1263(3) 0.44175(18)
H6 H -0.0325 -0.1255 0.4654
C6 C 0.0177(2) -0.0423(3) 0.38019(17)
H7 H -0.0402 0.0154 0.3618
C7 C 0.0221(2) 0.1914(3) 0.19206(15)
C8 C -0.0630(2) 0.2852(3) 0.16116(15)
C9 C -0.1524(2) 0.2921(3) 0.18846(16)
C10 C -0.2313(2) 0.3810(3) 0.15828(16)
H8 H -0.2907 0.3838 0.1772
C11 C -0.2249(3) 0.4663(3) 0.10066(18)
H9 H -0.2797 0.5272 0.0802
C12 C -0.1384(3) 0.4627(3) 0.07299(18)
H10 H -0.1332 0.5211 0.0337
C13 C -0.0597(2) 0.3733(3) 0.10318(16)
H11 H -0.0007 0.3716 0.0837
C14 C 0.1079(2) 0.1734(3) 0.15493(17)
H12 H 0.1792 0.1917 0.1963
H13 H 0.0941 0.2289 0.1077
H14 H 0.1065 0.0878 0.1365
O2 O 0.33761(16) 0.01422(19) 0.25345(11)
H15 H 0.3932 0.0591 0.2673
N3 N 0.5913(2) 0.1937(2) 0.26695(14)
H16 H 0.647(3) 0.193(3) 0.2510(17)
N4 N 0.50954(17) 0.1092(2) 0.24078(12)
C15 C 0.5958(2) 0.2749(3) 0.33006(15)
C16 C 0.6770(2) 0.3649(3) 0.35058(16)
H17 H 0.7271 0.3674 0.3224
C17 C 0.6847(3) 0.4502(3) 0.41154(17)
H18 H 0.7395 0.5117 0.4245
C18 C 0.6137(2) 0.4469(3) 0.45355(17)
H19 H 0.6191 0.5055 0.4955
C19 C 0.5337(2) 0.3564(3) 0.43371(16)
H20 H 0.4843 0.3537 0.4625
C20 C 0.5251(2) 0.2708(3) 0.37306(16)
H21 H 0.4706 0.2090 0.3607
C21 C 0.5064(2) 0.0361(2) 0.18036(15)
C22 C 0.4168(2) -0.0538(3) 0.15387(15)
C23 C 0.3376(2) -0.0615(3) 0.19110(15)
C24 C 0.2544(2) -0.1474(3) 0.16446(16)
H22 H 0.2015 -0.1504 0.1900
C25 C 0.2474(2) -0.2290(3) 0.10129(16)
H23 H 0.1910 -0.2886 0.0843
C26 C 0.3236(2) -0.2225(3) 0.06326(16)
H24 H 0.3190 -0.2769 0.0192
C27 C 0.4063(2) -0.1367(3) 0.08952(16)
H25 H 0.4581 -0.1339 0.0629
C28 C 0.5890(2) 0.0444(3) 0.14002(17)
H26 H 0.5831 0.1245 0.1127
H27 H 0.5766 -0.0216 0.0991
H28 H 0.6617 0.0356 0.1818
loop_
_geom_bond_atom_site_label_1
_geom_bond_atom_site_label_2
_geom_bond_site_symmetry_1
_geom_bond_site_symmetry_2
O1 H1 1_555 1_555
N1 H2 1_555 1_555
N2 N1 1_555 1_555
C1 N1 1_555 1_555
C2 C1 1_555 1_555
H3 C2 1_555 1_555
C3 C2 1_555 1_555
H4 C3 1_555 1_555
C4 C3 1_555 1_555
H5 C4 1_555 1_555
C5 C4 1_555 1_555
H6 C5 1_555 1_555
C6 C1 1_555 1_555
H7 C6 1_555 1_555
C7 N2 1_555 1_555
C8 C7 1_555 1_555
C9 O1 1_555 1_555
C10 C9 1_555 1_555
H8 C10 1_555 1_555
C11 C10 1_555 1_555
H9 C11 1_555 1_555
C12 C11 1_555 1_555
H10 C12 1_555 1_555
C13 C8 1_555 1_555
H11 C13 1_555 1_555
C14 C7 1_555 1_555
H12 C14 1_555 1_555
H13 C14 1_555 1_555
H14 C14 1_555 1_555
O2 H15 1_555 1_555
N3 H16 1_555 1_555
N4 N3 1_555 1_555
C15 N3 1_555 1_555
C16 C15 1_555 1_555
H17 C16 1_555 1_555
C17 C16 1_555 1_555
H18 C17 1_555 1_555
C18 C17 1_555 1_555
H19 C18 1_555 1_555
C19 C18 1_555 1_555
H20 C19 1_555 1_555
C20 C15 1_555 1_555
H21 C20 1_555 1_555
C21 N4 1_555 1_555
C22 C21 1_555 1_555
C23 O2 1_555 1_555
C24 C23 1_555 1_555
H22 C24 1_555 1_555
C25 C24 1_555 1_555
H23 C25 1_555 1_555
C26 C25 1_555 1_555
H24 C26 1_555 1_555
C27 C22 1_555 1_555
H25 C27 1_555 1_555
C28 C21 1_555 1_555
H26 C28 1_555 1_555
H27 C28 1_555 1_555
H28 C28 1_555 1_555
C5 C6 1_555 1_555
C8 C9 1_555 1_555
C12 C13 1_555 1_555
C19 C20 1_555 1_555
C22 C23 1_555 1_555
C26 C27 1_555 1_555

#END
