
#######################################################################
#
#                 Cambridge Crystallographic Data Centre
#                                CCDC 
#
#######################################################################
#
# If this CIF has been generated from an entry in the Cambridge 
# Structural Database, then it will include bibliographic, chemical, 
# crystal, experimental, refinement or atomic coordinate data resulting 
# from the CCDC's data processing and validation procedures.
#
#######################################################################

data_QOYRIG
_chemical_formula_moiety         'C12 H25 Se1 Si1 1+,C24 H20 B1 1-'
_chemical_name_systematic        
'2,5-Dimethyl-1-(3-(trimethylsilyl)-2-propen-1-yl)tetrahydroselenophenium tetraphenylborate'
_symmetry_cell_setting           monoclinic
_symmetry_space_group_name_H-M   'P 21'
_symmetry_Int_Tables_number      4
_space_group_name_Hall           'P 2yb'
loop_
_symmetry_equiv_pos_site_id
_symmetry_equiv_pos_as_xyz
1 x,y,z
2 -x,1/2+y,-z
_cell_length_a                   9.2690(19)
_cell_length_b                   10.982(2)
_cell_length_c                   16.726(3)
_cell_angle_alpha                90
_cell_angle_beta                 96.08(3)
_cell_angle_gamma                90
_cell_volume                     1693
_exptl_crystal_colour            white
_chemical_melting_point          '147-149 deg.C'
_cell_formula_units_Z            2
loop_
_atom_site_label
_atom_site_type_symbol
_atom_site_fract_x
_atom_site_fract_y
_atom_site_fract_z
Se1 Se 0.21619(11) 0.02166(9) 1.32117(5)
Si1 Si 0.2063(5) -0.0603(5) 1.0206(2)
C1 C 0.2605(16) -0.1929(16) 0.9652(9)
H1 H 0.1950 -0.2589 0.9718
H2 H 0.3572 -0.2165 0.9855
H3 H 0.2578 -0.1729 0.9092
C2 C 0.3395(13) 0.0707(12) 1.0050(7)
H4 H 0.3295 0.0941 0.9493
H5 H 0.4371 0.0439 1.0203
H6 H 0.3181 0.1391 1.0374
C3 C 0.0356(13) -0.0164(13) 0.9905(8)
H7 H -0.0294 -0.0832 0.9958
H8 H 0.0290 0.0089 0.9353
H9 H 0.0096 0.0503 1.0232
C4 C 0.2427(14) -0.0911(13) 1.1299(7)
H10 H 0.3396 -0.0852 1.1505
C5 C 0.1556(15) -0.1192(13) 1.1813(7)
H11 H 0.0591 -0.1283 1.1604
C6 C 0.1845(14) -0.1390(11) 1.2674(6)
H12 H 0.2700 -0.1897 1.2787
H13 H 0.1030 -0.1803 1.2873
C7 C 0.0173(16) 0.0904(14) 1.2959(8)
H14 H -0.0407 0.0331 1.2610
C8 C -0.0384(16) 0.0937(17) 1.3711(9)
H15 H -0.1435 0.0964 1.3628
H16 H -0.0051 0.1672 1.3994
C9 C 0.0087(10) -0.0165(13) 1.4225(8)
H17 H -0.0270 -0.0114 1.4749
H18 H -0.0259 -0.0914 1.3964
C10 C 0.1716(9) -0.0098(10) 1.4297(6)
H19 H 0.2033 0.0600 1.4637
C11 C 0.248(2) -0.1239(13) 1.4646(8)
H20 H 0.2239 -0.1367 1.5184
H21 H 0.3510 -0.1140 1.4654
H22 H 0.2172 -0.1929 1.4319
C12 C 0.0415(16) 0.2108(15) 1.2461(8)
H23 H -0.0503 0.2495 1.2313
H24 H 0.0856 0.1901 1.1985
H25 H 0.1038 0.2655 1.2786
B1 B 0.3179(10) 0.1810(10) 0.6890(5)
C13 C 0.4227(10) 0.0880(10) 0.7429(6)
C14 C 0.5282(9) 0.1263(10) 0.8050(6)
H26 H 0.5378 0.2090 0.8163
C15 C 0.6165(12) 0.0458(12) 0.8489(7)
H27 H 0.6843 0.0763 0.8888
C16 C 0.6108(12) -0.0723(12) 0.8377(7)
H28 H 0.6726 -0.1240 0.8693
C17 C 0.5111(14) -0.1185(11) 0.7781(8)
H29 H 0.5041 -0.2020 0.7692
C18 C 0.4208(14) -0.0377(11) 0.7313(8)
H30 H 0.3562 -0.0696 0.6903
C19 C 0.3238(8) 0.3158(7) 0.7314(5)
C20 C 0.2631(10) 0.3387(9) 0.8030(6)
H31 H 0.2101 0.2763 0.8237
C21 C 0.2754(13) 0.4430(12) 0.8438(7)
H32 H 0.2336 0.4497 0.8918
C22 C 0.3517(10) 0.5450(10) 0.8154(6)
H33 H 0.3620 0.6191 0.8422
C23 C 0.4078(10) 0.5218(13) 0.7448(5)
H34 H 0.4579 0.5846 0.7228
C24 C 0.3968(10) 0.4170(8) 0.7047(6)
H35 H 0.4395 0.4107 0.6569
C25 C 0.1481(8) 0.1267(8) 0.6859(4)
C26 C 0.0463(9) 0.1298(8) 0.6191(5)
H36 H 0.0728 0.1617 0.5713
C27 C -0.0963(9) 0.0862(9) 0.6212(5)
H37 H -0.1608 0.0893 0.5747
C28 C -0.1417(9) 0.0400(11) 0.6895(5)
H38 H -0.2353 0.0101 0.6907
C29 C -0.0413(10) 0.0394(12) 0.7577(5)
H39 H -0.0700 0.0130 0.8065
C30 C 0.1010(10) 0.0775(10) 0.7542(5)
H40 H 0.1669 0.0693 0.7998
C31 C 0.3674(8) 0.1936(7) 0.5967(5)
C32 C 0.4736(8) 0.1204(8) 0.5672(5)
H41 H 0.5201 0.0622 0.6011
C33 C 0.5125(9) 0.1307(9) 0.4898(5)
H42 H 0.5792 0.0769 0.4715
C34 C 0.4519(11) 0.2209(10) 0.4403(5)
H43 H 0.4819 0.2318 0.3894
C35 C 0.3459(10) 0.2955(9) 0.4663(5)
H44 H 0.3014 0.3552 0.4328
C36 C 0.3090(10) 0.2795(8) 0.5412(5)
H45 H 0.2377 0.3306 0.5575
loop_
_geom_bond_atom_site_label_1
_geom_bond_atom_site_label_2
_geom_bond_site_symmetry_1
_geom_bond_site_symmetry_2
Se1 C6 1_555 1_555
Si1 C1 1_555 1_555
B1 C13 1_555 1_555
C1 H1 1_555 1_555
H2 C1 1_555 1_555
H3 C1 1_555 1_555
C2 Si1 1_555 1_555
H4 C2 1_555 1_555
H5 C2 1_555 1_555
H6 C2 1_555 1_555
C3 Si1 1_555 1_555
H7 C3 1_555 1_555
H8 C3 1_555 1_555
H9 C3 1_555 1_555
C4 Si1 1_555 1_555
H10 C4 1_555 1_555
C5 C4 1_555 1_555
H11 C5 1_555 1_555
C6 C5 1_555 1_555
H12 C6 1_555 1_555
H13 C6 1_555 1_555
C7 Se1 1_555 1_555
H14 C7 1_555 1_555
C8 C7 1_555 1_555
H15 C8 1_555 1_555
H16 C8 1_555 1_555
C9 C8 1_555 1_555
H17 C9 1_555 1_555
H18 C9 1_555 1_555
C10 Se1 1_555 1_555
H19 C10 1_555 1_555
C11 C10 1_555 1_555
H20 C11 1_555 1_555
H21 C11 1_555 1_555
H22 C11 1_555 1_555
C12 C7 1_555 1_555
H23 C12 1_555 1_555
H24 C12 1_555 1_555
H25 C12 1_555 1_555
C13 C14 1_555 1_555
C14 H26 1_555 1_555
C15 C14 1_555 1_555
H27 C15 1_555 1_555
C16 C15 1_555 1_555
H28 C16 1_555 1_555
C17 C16 1_555 1_555
H29 C17 1_555 1_555
C18 C13 1_555 1_555
H30 C18 1_555 1_555
C19 B1 1_555 1_555
C20 C19 1_555 1_555
H31 C20 1_555 1_555
C21 C20 1_555 1_555
H32 C21 1_555 1_555
C22 C21 1_555 1_555
H33 C22 1_555 1_555
C23 C22 1_555 1_555
H34 C23 1_555 1_555
C24 C19 1_555 1_555
H35 C24 1_555 1_555
C25 B1 1_555 1_555
C26 C25 1_555 1_555
H36 C26 1_555 1_555
C27 C26 1_555 1_555
H37 C27 1_555 1_555
C28 C27 1_555 1_555
H38 C28 1_555 1_555
C29 C28 1_555 1_555
H39 C29 1_555 1_555
C30 C25 1_555 1_555
H40 C30 1_555 1_555
C31 B1 1_555 1_555
C32 C31 1_555 1_555
H41 C32 1_555 1_555
C33 C32 1_555 1_555
H42 C33 1_555 1_555
C34 C33 1_555 1_555
H43 C34 1_555 1_555
C35 C34 1_555 1_555
H44 C35 1_555 1_555
C36 C31 1_555 1_555
H45 C36 1_555 1_555
C9 C10 1_555 1_555
C17 C18 1_555 1_555
C23 C24 1_555 1_555
C29 C30 1_555 1_555
C35 C36 1_555 1_555

#END
