
#######################################################################
#
#                 Cambridge Crystallographic Data Centre
#                                CCDC 
#
#######################################################################
#
# If this CIF has been generated from an entry in the Cambridge 
# Structural Database, then it will include bibliographic, chemical, 
# crystal, experimental, refinement or atomic coordinate data resulting 
# from the CCDC's data processing and validation procedures.
#
#######################################################################

data_QOYXUX
_chemical_formula_moiety         'C16 H36 N1 1+,C12 H19 B9 N1 O2 1-'
_chemical_name_systematic        
'tetra-n-butylammonium 7-(phthalimidoethyl)-7,8-dicarba-nido-undecaborate(10)'
_symmetry_cell_setting           monoclinic
_symmetry_space_group_name_H-M   'P 21/n'
_symmetry_Int_Tables_number      14
_space_group_name_Hall           '-P 2yn'
loop_
_symmetry_equiv_pos_site_id
_symmetry_equiv_pos_as_xyz
1 x,y,z
2 1/2+x,1/2-y,1/2+z
3 -x,-y,-z
4 1/2-x,1/2+y,1/2-z
_cell_length_a                   11.267(3)
_cell_length_b                   17.101(4)
_cell_length_c                   17.462(4)
_cell_angle_alpha                90
_cell_angle_beta                 95.638(4)
_cell_angle_gamma                90
_cell_volume                     3348.25
_exptl_crystal_colour            'pale yellow'
_exptl_crystal_description       'irregular shape'
_cell_formula_units_Z            4
loop_
_atom_site_label
_atom_site_type_symbol
_atom_site_fract_x
_atom_site_fract_y
_atom_site_fract_z
B1 B 0.6874(2) 0.33601(16) 0.15520(14)
H1 H 0.659(2) 0.3768(14) 0.2008(14)
B2 B 0.81785(18) 0.27910(14) 0.17686(12)
H2 H 0.8740(19) 0.2725(13) 0.2341(12)
B3 B 0.67667(19) 0.23476(17) 0.16637(13)
H3 H 0.643(2) 0.2012(14) 0.2119(14)
B4 B 0.5887(2) 0.28202(17) 0.09192(14)
H4 H 0.492(2) 0.2777(13) 0.0905(13)
B5 B 0.6742(2) 0.35509(15) 0.05298(13)
H5 H 0.636(2) 0.4114(13) 0.0260(13)
B6 B 0.8186(2) 0.35299(14) 0.10790(13)
H6 H 0.8731(19) 0.4064(13) 0.1181(12)
C1 C 0.79299(15) 0.19754(11) 0.11926(10)
C2 C 0.66653(17) 0.19891(13) 0.07390(12)
H7 H 0.625(2) 0.1487(14) 0.0683(12)
B7 B 0.6564(2) 0.26372(15) 0.00434(13)
H8 H 0.5966(19) 0.2564(13) -0.0480(13)
H9 H 0.777(3) 0.2498(18) -0.0030(16)
B8 B 0.8005(2) 0.31521(15) 0.01331(13)
H10 H 0.839(2) 0.3478(14) -0.0310(13)
B9 B 0.88183(18) 0.26248(13) 0.08990(12)
H11 H 0.977(2) 0.2534(14) 0.0974(13)
C3 C 0.8383(2) 0.11935(12) 0.15016(12)
H12 H 0.778(2) 0.0942(13) 0.1784(13)
H13 H 0.912(2) 0.1275(13) 0.1879(13)
C4 C 0.8685(2) 0.06129(13) 0.08900(14)
H14 H 0.894(2) 0.0110(15) 0.1136(14)
H15 H 0.796(2) 0.0540(14) 0.0512(13)
N1 N 0.96654(15) 0.08708(10) 0.04650(9)
C5 C 0.95261(19) 0.11216(12) -0.02970(11)
O1 O 0.85982(14) 0.11058(11) -0.07075(9)
C6 C 1.08398(19) 0.09599(13) 0.07910(12)
O2 O 1.11949(15) 0.07638(11) 0.14369(9)
C7 C 1.07215(18) 0.13852(12) -0.04796(11)
C8 C 1.1105(2) 0.16646(13) -0.11543(12)
H16 H 1.058(2) 0.1701(14) -0.1588(15)
C9 C 1.2292(2) 0.18681(14) -0.11519(13)
H17 H 1.258(2) 0.2084(15) -0.1634(15)
C10 C 1.3071(2) 0.17930(16) -0.04925(14)
H18 H 1.384(2) 0.1959(15) -0.0480(15)
C11 C 1.2695(2) 0.15024(15) 0.01822(13)
H19 H 1.324(2) 0.1449(14) 0.0623(14)
C12 C 1.15113(18) 0.12958(12) 0.01781(11)
N2 N 0.22716(13) 0.40754(9) 0.18587(9)
C13 C 0.5811(3) 0.5765(2) 0.1263(2)
H20 H 0.574(3) 0.559(2) 0.069(2)
H21 H 0.604(2) 0.6350(19) 0.1324(16)
H22 H 0.636(4) 0.541(2) 0.157(2)
C14 C 0.4587(2) 0.57002(17) 0.15431(15)
H23 H 0.463(2) 0.5966(17) 0.2030(18)
H24 H 0.406(3) 0.6070(18) 0.1224(17)
C15 C 0.41043(19) 0.48543(15) 0.15097(15)
H25 H 0.464(3) 0.4515(18) 0.1789(17)
H26 H 0.401(2) 0.4682(14) 0.0969(14)
C16 C 0.29093(16) 0.48575(12) 0.18341(12)
H27 H 0.3011(18) 0.5047(13) 0.2369(13)
H28 H 0.2338(18) 0.5221(12) 0.1497(12)
C17 C 0.3749(3) 0.17146(18) 0.2376(2)
H29 H 0.424(4) 0.216(3) 0.203(3)
H30 H 0.305(4) 0.139(3) 0.207(2)
H31 H 0.430(3) 0.130(2) 0.275(2)
C18 C 0.3166(3) 0.21580(16) 0.29737(14)
H32 H 0.275(3) 0.163(2) 0.3184(18)
H33 H 0.385(3) 0.2392(18) 0.3307(17)
C19 C 0.2313(2) 0.27820(15) 0.26325(17)
H34 H 0.192(2) 0.2582(15) 0.2150(15)
H35 H 0.175(3) 0.2972(19) 0.3072(19)
C20 C 0.29881(18) 0.35112(13) 0.24049(13)
H36 H 0.3270(19) 0.3811(14) 0.2863(13)
H37 H 0.363(2) 0.3415(14) 0.2128(13)
C21 C -0.0221(3) 0.48515(19) 0.39930(17)
H38 H 0.028(3) 0.442(2) 0.4358(19)
H39 H -0.111(3) 0.4909(17) 0.4135(16)
H40 H 0.022(3) 0.537(2) 0.405(2)
C22 C -0.0198(2) 0.45913(18) 0.31684(15)
H41 H -0.073(3) 0.4956(18) 0.2857(16)
H42 H -0.061(3) 0.411(2) 0.3067(17)
C23 C 0.10721(18) 0.45013(14) 0.29567(12)
H43 H 0.146(2) 0.4147(14) 0.3302(14)
H44 H 0.148(2) 0.4976(14) 0.3003(13)
C24 C 0.10534(16) 0.42215(12) 0.21340(11)
H45 H 0.0595(19) 0.3720(13) 0.2030(12)
H46 H 0.0663(17) 0.4609(12) 0.1769(11)
C25 C 0.0921(3) 0.40775(17) -0.10126(14)
H47 H 0.007(2) 0.4247(16) -0.0954(15)
H48 H 0.097(2) 0.3734(16) -0.1500(16)
H49 H 0.139(3) 0.457(2) -0.1117(18)
C26 C 0.1466(2) 0.36696(14) -0.03048(12)
H50 H 0.098(2) 0.3157(16) -0.0254(14)
H51 H 0.233(2) 0.3527(16) -0.0417(15)
C27 C 0.14937(19) 0.41663(13) 0.04212(12)
H52 H 0.1858(18) 0.4667(13) 0.0339(12)
H53 H 0.072(2) 0.4324(13) 0.0500(13)
C28 C 0.21178(17) 0.36958(13) 0.10719(11)
H54 H 0.1655(19) 0.3203(13) 0.1145(12)
H55 H 0.2906(19) 0.3566(12) 0.0946(12)
loop_
_geom_bond_atom_site_label_1
_geom_bond_atom_site_label_2
_geom_bond_site_symmetry_1
_geom_bond_site_symmetry_2
B1 H1 1_555 1_555
B2 B1 1_555 1_555
H2 B2 1_555 1_555
B3 B1 1_555 1_555
H3 B3 1_555 1_555
B4 B1 1_555 1_555
H4 B4 1_555 1_555
B5 B1 1_555 1_555
H5 B5 1_555 1_555
B6 B1 1_555 1_555
H6 B6 1_555 1_555
C1 B2 1_555 1_555
C2 B3 1_555 1_555
H7 C2 1_555 1_555
B7 B4 1_555 1_555
H8 B7 1_555 1_555
H9 B7 1_555 1_555
B8 B5 1_555 1_555
H10 B8 1_555 1_555
B9 B2 1_555 1_555
H11 B9 1_555 1_555
C3 C1 1_555 1_555
H12 C3 1_555 1_555
H13 C3 1_555 1_555
C4 C3 1_555 1_555
H14 C4 1_555 1_555
H15 C4 1_555 1_555
N1 C4 1_555 1_555
C5 N1 1_555 1_555
O1 C5 1_555 1_555
C6 N1 1_555 1_555
O2 C6 1_555 1_555
C7 C5 1_555 1_555
C8 C7 1_555 1_555
H16 C8 1_555 1_555
C9 C8 1_555 1_555
H17 C9 1_555 1_555
C10 C9 1_555 1_555
H18 C10 1_555 1_555
C11 C10 1_555 1_555
H19 C11 1_555 1_555
C12 C6 1_555 1_555
N2 C16 1_555 1_555
C13 H20 1_555 1_555
H21 C13 1_555 1_555
H22 C13 1_555 1_555
C14 C13 1_555 1_555
H23 C14 1_555 1_555
H24 C14 1_555 1_555
C15 C14 1_555 1_555
H25 C15 1_555 1_555
H26 C15 1_555 1_555
C16 C15 1_555 1_555
H27 C16 1_555 1_555
H28 C16 1_555 1_555
C17 H29 1_555 1_555
H30 C17 1_555 1_555
H31 C17 1_555 1_555
C18 C17 1_555 1_555
H32 C18 1_555 1_555
H33 C18 1_555 1_555
C19 C18 1_555 1_555
H34 C19 1_555 1_555
H35 C19 1_555 1_555
C20 N2 1_555 1_555
H36 C20 1_555 1_555
H37 C20 1_555 1_555
C21 H38 1_555 1_555
H39 C21 1_555 1_555
H40 C21 1_555 1_555
C22 C21 1_555 1_555
H41 C22 1_555 1_555
H42 C22 1_555 1_555
C23 C22 1_555 1_555
H43 C23 1_555 1_555
H44 C23 1_555 1_555
C24 N2 1_555 1_555
H45 C24 1_555 1_555
H46 C24 1_555 1_555
C25 H47 1_555 1_555
H48 C25 1_555 1_555
H49 C25 1_555 1_555
C26 C25 1_555 1_555
H50 C26 1_555 1_555
H51 C26 1_555 1_555
C27 C26 1_555 1_555
H52 C27 1_555 1_555
H53 C27 1_555 1_555
C28 N2 1_555 1_555
H54 C28 1_555 1_555
H55 C28 1_555 1_555
B2 B3 1_555 1_555
B2 B6 1_555 1_555
B3 C1 1_555 1_555
B3 B4 1_555 1_555
B4 C2 1_555 1_555
B4 B5 1_555 1_555
B5 B7 1_555 1_555
B5 B6 1_555 1_555
B6 B9 1_555 1_555
B6 B8 1_555 1_555
C1 B9 1_555 1_555
C1 C2 1_555 1_555
C2 B7 1_555 1_555
B7 B8 1_555 1_555
H9 B8 1_555 1_555
B8 B9 1_555 1_555
C7 C12 1_555 1_555
C11 C12 1_555 1_555
C19 C20 1_555 1_555
C23 C24 1_555 1_555
C27 C28 1_555 1_555

#END
