
#######################################################################
#
#                 Cambridge Crystallographic Data Centre
#                                CCDC 
#
#######################################################################
#
# If this CIF has been generated from an entry in the Cambridge 
# Structural Database, then it will include bibliographic, chemical, 
# crystal, experimental, refinement or atomic coordinate data resulting 
# from the CCDC's data processing and validation procedures.
#
#######################################################################

data_QOYYAE
_chemical_formula_moiety         'C5 H20 B9 N1,H4 N2'
_chemical_name_systematic        
'7-(3-Ammoniopropyl)-7,8-dicarba-nido-undecaborate(10) hydrazine'
_symmetry_cell_setting           orthorhombic
_symmetry_space_group_name_H-M   'C 2 2 21'
_symmetry_Int_Tables_number      20
_space_group_name_Hall           'C 2n 2'
loop_
_symmetry_equiv_pos_site_id
_symmetry_equiv_pos_as_xyz
1 x,y,z
2 -x,-y,1/2+z
3 -x,y,1/2-z
4 x,-y,-z
5 1/2+x,1/2+y,z
6 1/2-x,1/2-y,1/2+z
7 1/2-x,1/2+y,1/2-z
8 1/2+x,1/2-y,-z
_cell_length_a                   10.707(2)
_cell_length_b                   12.477(2)
_cell_length_c                   20.805(4)
_cell_angle_alpha                90
_cell_angle_beta                 90
_cell_angle_gamma                90
_cell_volume                     2779.37
_exptl_crystal_colour            colorless
_exptl_crystal_description       plate
_cell_formula_units_Z            8
_chemical_properties_physical    hygroscopic
loop_
_atom_site_label
_atom_site_type_symbol
_atom_site_fract_x
_atom_site_fract_y
_atom_site_fract_z
B1 B 0.14658(19) 0.79820(14) 0.68526(8)
H1 H 0.138(2) 0.7728(16) 0.7339(10)
B2 B 0.05925(19) 0.73911(16) 0.62288(9)
H2 H -0.0054(19) 0.6755(14) 0.6260(9)
B3 B 0.02772(18) 0.87238(16) 0.64556(9)
H3 H -0.064(2) 0.8966(16) 0.6655(10)
B4 B 0.17143(18) 0.93562(14) 0.66334(9)
H4 H 0.1789(17) 0.9975(15) 0.7004(9)
B5 B 0.29289(17) 0.83870(14) 0.65153(9)
H5 H 0.374(2) 0.8340(17) 0.6796(9)
B6 B 0.22125(18) 0.71842(14) 0.62724(9)
H6 H 0.2554(18) 0.6359(17) 0.6340(10)
C1 C 0.15351(16) 0.75496(12) 0.55569(7)
C2 C 0.04611(17) 0.83920(14) 0.56543(8)
H7 H -0.035(2) 0.8304(17) 0.5395(10)
B7 B 0.09900(19) 0.95997(16) 0.58811(10)
H8 H 0.048(2) 1.0332(17) 0.5793(11)
B8 B 0.2675(2) 0.94209(15) 0.59451(10)
H9 H 0.340(2) 1.0084(17) 0.5876(10)
H10 H 0.228(3) 0.924(2) 0.5489(14)
B9 B 0.2873(2) 0.80698(16) 0.56969(9)
H11 H 0.358(2) 0.7781(18) 0.5458(11)
C3 C 0.14054(16) 0.66910(13) 0.50442(7)
H12 H 0.195(2) 0.6104(17) 0.5128(10)
H13 H 0.0610(18) 0.6365(16) 0.5050(10)
C4 C 0.16050(16) 0.71000(13) 0.43593(7)
H14 H 0.1034(18) 0.7675(15) 0.4277(9)
H15 H 0.2462(19) 0.7389(16) 0.4319(9)
C5 C 0.14442(17) 0.61733(13) 0.38949(7)
H16 H 0.205(2) 0.560(2) 0.3995(12)
H17 H 0.0639(18) 0.5886(15) 0.3919(9)
N1 N 0.16171(15) 0.64916(12) 0.32092(6)
H18 H 0.116(2) 0.7134(18) 0.3108(10)
H19 H 0.239(2) 0.6628(16) 0.3167(9)
H20 H 0.139(2) 0.5989(18) 0.2948(11)
N2 N 0.06731(14) 0.46824(11) 0.25164(7)
H21 H 0.095(2) 0.407(2) 0.2642(11)
H22 H 0.0932(17) 0.4769(16) 0.2115(10)
N2B N -0.06731(14) 0.46824(11) 0.24836(7)
H21B H -0.095(2) 0.407(2) 0.2358(11)
H22B H -0.0932(17) 0.4769(16) 0.2885(10)
N3 N -0.01354(16) 0.83342(12) 0.21608(8)
H23 H 0.058(2) 0.8251(18) 0.1962(10)
H24 H -0.042(2) 0.897(2) 0.2061(11)
N3B N 0.01354(16) 0.83342(12) 0.28392(8)
H23B H -0.058(2) 0.8251(18) 0.3038(10)
H24B H 0.042(2) 0.897(2) 0.2939(11)
loop_
_geom_bond_atom_site_label_1
_geom_bond_atom_site_label_2
_geom_bond_site_symmetry_1
_geom_bond_site_symmetry_2
B1 H1 1_555 1_555
B2 B1 1_555 1_555
H2 B2 1_555 1_555
B3 B1 1_555 1_555
H3 B3 1_555 1_555
B4 B1 1_555 1_555
H4 B4 1_555 1_555
B5 B1 1_555 1_555
H5 B5 1_555 1_555
B6 B1 1_555 1_555
H6 B6 1_555 1_555
C1 B2 1_555 1_555
C2 B2 1_555 1_555
H7 C2 1_555 1_555
B7 B3 1_555 1_555
H8 B7 1_555 1_555
B8 B4 1_555 1_555
H9 B8 1_555 1_555
H10 B8 1_555 1_555
B9 B5 1_555 1_555
H11 B9 1_555 1_555
C3 C1 1_555 1_555
H12 C3 1_555 1_555
H13 C3 1_555 1_555
C4 C3 1_555 1_555
H14 C4 1_555 1_555
H15 C4 1_555 1_555
C5 C4 1_555 1_555
H16 C5 1_555 1_555
H17 C5 1_555 1_555
N1 C5 1_555 1_555
H18 N1 1_555 1_555
H19 N1 1_555 1_555
H20 N1 1_555 1_555
N2 H21 1_555 1_555
H22 N2 1_555 1_555
N3 H23 1_555 1_555
H24 N3 1_555 1_555
N2B N2 1_555 1_555
H21B N2B 1_555 1_555
H22B N2B 1_555 1_555
N3B N3 1_555 1_555
H23B N3B 1_555 1_555
H24B N3B 1_555 1_555
B2 B3 1_555 1_555
B2 B6 1_555 1_555
B3 C2 1_555 1_555
B3 B4 1_555 1_555
B4 B7 1_555 1_555
B4 B5 1_555 1_555
B5 B8 1_555 1_555
B5 B6 1_555 1_555
B6 C1 1_555 1_555
B6 B9 1_555 1_555
C1 C2 1_555 1_555
C1 B9 1_555 1_555
C2 B7 1_555 1_555
B7 B8 1_555 1_555
B8 B9 1_555 1_555

#END
