
#######################################################################
#
#                 Cambridge Crystallographic Data Centre
#                                CCDC 
#
#######################################################################
#
# If this CIF has been generated from an entry in the Cambridge 
# Structural Database, then it will include bibliographic, chemical, 
# crystal, experimental, refinement or atomic coordinate data resulting 
# from the CCDC's data processing and validation procedures.
#
#######################################################################

data_QOZJAS
_chemical_formula_moiety         'C33 H25 N3 O2 S1'
_chemical_name_systematic        
4-methyl-N-(3-(4-phenylquinazolin-2-yl)biphenyl-4-yl)benzenesulfonamide
_symmetry_cell_setting           monoclinic
_symmetry_space_group_name_H-M   'P 21/c'
_symmetry_Int_Tables_number      14
_space_group_name_Hall           '-P 2ybc'
loop_
_symmetry_equiv_pos_site_id
_symmetry_equiv_pos_as_xyz
1 x,y,z
2 -x,1/2+y,1/2-z
3 -x,-y,-z
4 x,1/2-y,1/2+z
_cell_length_a                   12.134(3)
_cell_length_b                   21.533(4)
_cell_length_c                   10.615(2)
_cell_angle_alpha                90
_cell_angle_beta                 103.667(2)
_cell_angle_gamma                90
_cell_volume                     2694.97
_exptl_crystal_colour            colorless
_exptl_crystal_description       block
_cell_formula_units_Z            4
loop_
_atom_site_label
_atom_site_type_symbol
_atom_site_fract_x
_atom_site_fract_y
_atom_site_fract_z
S1 S 0.25617(4) 0.50039(2) 0.32880(4)
N1 N 0.47910(12) 0.63217(7) -0.00456(14)
N2 N 0.48619(13) 0.54626(7) 0.13877(15)
O1 O 0.13591(12) 0.49250(7) 0.30543(14)
C1 C 0.43016(14) 0.58888(8) 0.05930(17)
C2 C 0.30394(14) 0.59043(8) 0.03023(17)
C3 C 0.59022(14) 0.63097(8) 0.01171(16)
N3 N 0.29071(13) 0.51025(7) 0.19023(15)
H1 H 0.3450 0.4879 0.1754
C4 C 0.23774(15) 0.55295(8) 0.09244(17)
C5 C 0.65958(14) 0.58787(8) 0.09686(17)
C6 C 0.13050(15) 0.63127(8) -0.11211(17)
O2 O 0.32980(13) 0.45217(6) 0.39134(14)
C7 C 0.24766(15) 0.62928(9) -0.06988(17)
H2 H 0.2907 0.6550 -0.1100
C8 C 0.60207(15) 0.54577(9) 0.16078(17)
C9 C 0.07535(15) 0.67135(9) -0.22299(18)
C10 C 0.29185(15) 0.56897(9) 0.41872(17)
C11 C 0.11988(15) 0.55494(9) 0.05124(18)
H3 H 0.0760 0.5302 0.0922
C12 C 0.63827(14) 0.67812(8) -0.06306(16)
C13 C 0.61350(17) 0.74031(9) -0.0526(2)
H4 H 0.5684 0.7525 0.0027
C14 C 0.06743(15) 0.59314(9) -0.04960(18)
H5 H -0.0113 0.5934 -0.0762
C15 C 0.77986(16) 0.58655(10) 0.12593(19)
H6 H 0.8191 0.6142 0.0853
C16 C 0.40549(16) 0.58344(9) 0.4688(2)
H7 H 0.4620 0.5584 0.4499
C17 C 0.20808(16) 0.60651(10) 0.44587(19)
H8 H 0.1320 0.5972 0.4118
C18 C 0.23803(17) 0.65801(10) 0.52388(19)
H9 H 0.1815 0.6831 0.5426
C19 C 0.83798(17) 0.54476(11) 0.2132(2)
H10 H 0.9168 0.5444 0.2325
C20 C 0.43383(17) 0.63477(10) 0.5462(2)
H11 H 0.5099 0.6440 0.5801
C21 C 0.35130(18) 0.67317(10) 0.57510(19)
C22 C -0.00549(16) 0.64706(11) -0.3267(2)
H12 H -0.0268 0.6056 -0.3258
C23 C 0.70396(17) 0.66054(11) -0.14735(19)
H13 H 0.7215 0.6189 -0.1552
C24 C 0.72003(19) 0.76644(13) -0.2070(2)
H14 H 0.7482 0.7961 -0.2549
C25 C 0.74349(19) 0.70488(13) -0.2198(2)
H15 H 0.7863 0.6929 -0.2777
C26 C 0.66484(19) 0.50262(10) 0.2495(2)
H16 H 0.6274 0.4744 0.2910
C27 C 0.1046(2) 0.73330(10) -0.2274(2)
H17 H 0.1590 0.7503 -0.1594
C28 C 0.77976(19) 0.50230(11) 0.2743(2)
H18 H 0.8205 0.4736 0.3326
C29 C -0.0249(2) 0.74596(13) -0.4330(2)
H19 H -0.0587 0.7710 -0.5029
C30 C 0.3823(2) 0.72932(12) 0.6607(3)
H20 H 0.4634 0.7327 0.6877
H21 H 0.3514 0.7251 0.7356
H22 H 0.3520 0.7659 0.6134
C31 C -0.05419(18) 0.68431(13) -0.4312(2)
H23 H -0.1072 0.6675 -0.5008
C32 C 0.6553(2) 0.78452(11) -0.1238(2)
H24 H 0.6394 0.8264 -0.1153
C33 C 0.0542(2) 0.77022(12) -0.3314(3)
H25 H 0.0742 0.8119 -0.3323
loop_
_geom_bond_atom_site_label_1
_geom_bond_atom_site_label_2
_geom_bond_site_symmetry_1
_geom_bond_site_symmetry_2
S1 O1 1_555 1_555
N1 C1 1_555 1_555
N2 C1 1_555 1_555
C1 C2 1_555 1_555
C2 C4 1_555 1_555
C3 N1 1_555 1_555
N3 S1 1_555 1_555
H1 N3 1_555 1_555
C4 N3 1_555 1_555
C5 C3 1_555 1_555
C6 C7 1_555 1_555
O2 S1 1_555 1_555
C7 C2 1_555 1_555
H2 C7 1_555 1_555
C8 N2 1_555 1_555
C9 C6 1_555 1_555
C10 S1 1_555 1_555
C11 C4 1_555 1_555
H3 C11 1_555 1_555
C12 C3 1_555 1_555
C13 C12 1_555 1_555
H4 C13 1_555 1_555
C14 C6 1_555 1_555
H5 C14 1_555 1_555
C15 C5 1_555 1_555
H6 C15 1_555 1_555
C16 C10 1_555 1_555
H7 C16 1_555 1_555
C17 C10 1_555 1_555
H8 C17 1_555 1_555
C18 C17 1_555 1_555
H9 C18 1_555 1_555
C19 C15 1_555 1_555
H10 C19 1_555 1_555
C20 C16 1_555 1_555
H11 C20 1_555 1_555
C21 C18 1_555 1_555
C22 C9 1_555 1_555
H12 C22 1_555 1_555
C23 C12 1_555 1_555
H13 C23 1_555 1_555
C24 H14 1_555 1_555
C25 C23 1_555 1_555
H15 C25 1_555 1_555
C26 C8 1_555 1_555
H16 C26 1_555 1_555
C27 C9 1_555 1_555
H17 C27 1_555 1_555
C28 C19 1_555 1_555
H18 C28 1_555 1_555
C29 H19 1_555 1_555
C30 C21 1_555 1_555
H20 C30 1_555 1_555
H21 C30 1_555 1_555
H22 C30 1_555 1_555
C31 C22 1_555 1_555
H23 C31 1_555 1_555
C32 C13 1_555 1_555
H24 C32 1_555 1_555
C33 C27 1_555 1_555
H25 C33 1_555 1_555
C5 C8 1_555 1_555
C11 C14 1_555 1_555
C20 C21 1_555 1_555
C24 C25 1_555 1_555
C24 C32 1_555 1_555
C26 C28 1_555 1_555
C29 C31 1_555 1_555
C29 C33 1_555 1_555

#END
