
#######################################################################
#
#                 Cambridge Crystallographic Data Centre
#                                CCDC 
#
#######################################################################
#
# If this CIF has been generated from an entry in the Cambridge 
# Structural Database, then it will include bibliographic, chemical, 
# crystal, experimental, refinement or atomic coordinate data resulting 
# from the CCDC's data processing and validation procedures.
#
#######################################################################

data_QQQAFY01
_chemical_name_common            N,N'-bis(p-tolyl)urea
_chemical_formula_moiety         'C15 H16 N2 O1'
_chemical_name_systematic        1,3-bis(4-methylphenyl)urea
_symmetry_cell_setting           orthorhombic
_symmetry_space_group_name_H-M   'P n a 21'
_symmetry_Int_Tables_number      33
_space_group_name_Hall           'P 2c -2n'
loop_
_symmetry_equiv_pos_site_id
_symmetry_equiv_pos_as_xyz
1 x,y,z
2 -x,-y,1/2+z
3 1/2+x,1/2-y,z
4 1/2-x,1/2+y,1/2+z
_cell_length_a                   10.011(2)
_cell_length_b                   4.6510(9)
_cell_length_c                   27.973(6)
_cell_angle_alpha                90
_cell_angle_beta                 90
_cell_angle_gamma                90
_cell_volume                     1302.46
_cell_formula_units_Z            4
loop_
_atom_site_label
_atom_site_type_symbol
_atom_site_fract_x
_atom_site_fract_y
_atom_site_fract_z
O1 O 0.8650(4) 0.3204(5) 0.3064(18)
N1 N 0.9227(5) 0.7434(8) 0.3417(2)
N2 N 0.8078(4) 0.7435(8) 0.2716(18)
C1 C 1.1967(7) 0.2963(19) 0.5053(3)
C2 C 1.1244(5) 0.4081(12) 0.4622(2)
C3 C 1.1543(6) 0.3156(15) 0.4170(3)
C4 C 1.0901(5) 0.4225(11) 0.3770(19)
C5 C 0.9897(5) 0.6239(9) 0.3818(17)
C6 C 0.9586(6) 0.7163(13) 0.4278(2)
C7 C 1.0256(6) 0.6116(14) 0.4664(2)
C8 C 0.8648(3) 0.5871(7) 0.3067(2)
C9 C 0.7414(5) 0.6256(9) 0.2316(17)
C10 C 0.6427(5) 0.4212(11) 0.2368(19)
C11 C 0.5761(6) 0.3151(13) 0.1973(2)
C12 C 0.6073(5) 0.4078(12) 0.1519(2)
C13 C 0.7043(6) 0.6115(14) 0.1472(2)
C14 C 0.7729(6) 0.7190(12) 0.1869(3)
C15 C 0.5325(8) 0.2897(17) 0.1080(2)
loop_
_geom_bond_atom_site_label_1
_geom_bond_atom_site_label_2
_geom_bond_site_symmetry_1
_geom_bond_site_symmetry_2
O1 C8 1_555 1_555
N1 C5 1_555 1_555
N2 C8 1_555 1_555
C1 C2 1_555 1_555
C2 C3 1_555 1_555
C3 C4 1_555 1_555
C4 C5 1_555 1_555
C5 C6 1_555 1_555
C6 C7 1_555 1_555
C7 C2 1_555 1_555
C8 N1 1_555 1_555
C9 N2 1_555 1_555
C10 C9 1_555 1_555
C11 C10 1_555 1_555
C12 C11 1_555 1_555
C13 C12 1_555 1_555
C14 C9 1_555 1_555
C15 C12 1_555 1_555
C13 C14 1_555 1_555

#END
