
#######################################################################
#
#                 Cambridge Crystallographic Data Centre
#                                CCDC 
#
#######################################################################
#
# If this CIF has been generated from an entry in the Cambridge 
# Structural Database, then it will include bibliographic, chemical, 
# crystal, experimental, refinement or atomic coordinate data resulting 
# from the CCDC's data processing and validation procedures.
#
#######################################################################

data_QQQBTP04
_chemical_name_common            DL-tryptophan
_chemical_formula_moiety         'C11 H12 N2 O2'
_chemical_name_systematic        2-ammonio-3-(1H-indol-3-yl)propanoate
_symmetry_cell_setting           monoclinic
_symmetry_space_group_name_H-M   'P 21/c'
_symmetry_Int_Tables_number      14
_space_group_name_Hall           '-P 2ybc'
loop_
_symmetry_equiv_pos_site_id
_symmetry_equiv_pos_as_xyz
1 x,y,z
2 -x,1/2+y,1/2-z
3 -x,-y,-z
4 x,1/2-y,1/2+z
_cell_length_a                   18.981(4)
_cell_length_b                   5.7815(12)
_cell_length_c                   9.3478(19)
_cell_angle_alpha                90
_cell_angle_beta                 101.695(7)
_cell_angle_gamma                90
_cell_volume                     1004.52
_exptl_crystal_colour            colorless
_exptl_crystal_description       plate
_cell_formula_units_Z            4
loop_
_atom_site_label
_atom_site_type_symbol
_atom_site_fract_x
_atom_site_fract_y
_atom_site_fract_z
O1 O 0.01982(9) 0.6622(3) 0.36842(17)
O2 O 0.12483(10) 0.8043(3) 0.4919(2)
N1 N 0.31970(12) 0.7720(4) 0.3443(2)
H1 H 0.3405 0.8905 0.3157
N2 N 0.06167(11) 0.2228(3) 0.4197(2)
H2 H 0.0354 0.2329 0.3296
H3 H 0.0336 0.2453 0.4841
H4 H 0.0816 0.0831 0.4331
C1 C 0.34995(14) 0.6277(4) 0.4580(3)
C2 C 0.41799(15) 0.6288(5) 0.5479(3)
H5 H 0.4515 0.7428 0.5394
C3 C 0.43410(15) 0.4531(5) 0.6510(3)
H6 H 0.4792 0.4491 0.7126
C4 C 0.38299(16) 0.2808(5) 0.6636(3)
H7 H 0.3949 0.1655 0.7337
C5 C 0.31580(15) 0.2805(5) 0.5739(3)
H8 H 0.2828 0.1655 0.5830
C6 C 0.29755(13) 0.4551(4) 0.4685(3)
C7 C 0.23504(13) 0.5049(4) 0.3569(3)
C8 C 0.25135(15) 0.6973(4) 0.2839(3)
H9 H 0.2208 0.7667 0.2053
C9 C 0.16601(13) 0.3693(4) 0.3246(3)
H10 H 0.1773 0.2064 0.3187
H11 H 0.1384 0.4163 0.2301
C10 C 0.11932(12) 0.4023(4) 0.4406(2)
H12 H 0.1499 0.3823 0.5377
C11 C 0.08513(13) 0.6438(4) 0.4322(2)
loop_
_geom_bond_atom_site_label_1
_geom_bond_atom_site_label_2
_geom_bond_site_symmetry_1
_geom_bond_site_symmetry_2
O1 C11 1_555 1_555
O2 C11 1_555 1_555
N1 H1 1_555 1_555
N2 H2 1_555 1_555
H3 N2 1_555 1_555
H4 N2 1_555 1_555
C1 N1 1_555 1_555
C2 C1 1_555 1_555
H5 C2 1_555 1_555
C3 C2 1_555 1_555
H6 C3 1_555 1_555
C4 C3 1_555 1_555
H7 C4 1_555 1_555
C5 C4 1_555 1_555
H8 C5 1_555 1_555
C6 C1 1_555 1_555
C7 C6 1_555 1_555
C8 N1 1_555 1_555
H9 C8 1_555 1_555
C9 C7 1_555 1_555
H10 C9 1_555 1_555
H11 C9 1_555 1_555
C10 N2 1_555 1_555
H12 C10 1_555 1_555
C11 C10 1_555 1_555
C5 C6 1_555 1_555
C7 C8 1_555 1_555
C9 C10 1_555 1_555

#END
