
#######################################################################
#
#                 Cambridge Crystallographic Data Centre
#                                CCDC 
#
#######################################################################
#
# If this CIF has been generated from an entry in the Cambridge 
# Structural Database, then it will include bibliographic, chemical, 
# crystal, experimental, refinement or atomic coordinate data resulting 
# from the CCDC's data processing and validation procedures.
#
#######################################################################

data_QQQCIG33
_chemical_name_common            Rubrene
_chemical_formula_moiety         'C42 H28'
_chemical_name_systematic        5,6,11,12-tetraphenyltetracene
_symmetry_cell_setting           orthorhombic
_symmetry_space_group_name_H-M   'C m c a'
_symmetry_Int_Tables_number      64
_space_group_name_Hall           '-C 2ac 2'
loop_
_symmetry_equiv_pos_site_id
_symmetry_equiv_pos_as_xyz
1 x,y,z
2 -x,1/2-y,1/2+z
3 x,-y,-z
4 -x,1/2+y,1/2-z
5 1/2+x,1/2+y,z
6 1/2-x,-y,1/2+z
7 1/2+x,1/2-y,-z
8 1/2-x,y,1/2-z
9 -x,-y,-z
10 x,1/2+y,1/2-z
11 -x,y,z
12 x,1/2-y,1/2+z
13 1/2-x,1/2-y,-z
14 1/2+x,y,1/2-z
15 1/2-x,1/2+y,z
16 1/2+x,-y,1/2+z
_cell_length_a                   26.7972(3)
_cell_length_b                   7.1617(1)
_cell_length_c                   14.1940(2)
_cell_angle_alpha                90
_cell_angle_beta                 90
_cell_angle_gamma                90
_cell_volume                     2724.02
_exptl_crystal_colour            orange
_exptl_crystal_description       Block
_cell_formula_units_Z            4
loop_
_atom_site_label
_atom_site_type_symbol
_atom_site_fract_x
_atom_site_fract_y
_atom_site_fract_z
C1 C 0.02733(1) 0.500000 0.500000
C2 C 0.053201(7) 0.64444(3) 0.54896(1)
C3 C 0.026841(7) 0.79589(3) 0.58762(1)
C4 C 0.052111(8) 0.94712(3) 0.63398(2)
C5 C 0.026533(9) 1.09001(3) 0.67549(2)
C6 C 0.107543(7) 0.63460(3) 0.57268(1)
C7 C 0.142869(8) 0.74855(3) 0.52864(2)
C8 C 0.192103(9) 0.75165(4) 0.55960(2)
C9 C 0.207146(9) 0.63930(4) 0.63455(2)
C10 C 0.17230(1) 0.52455(4) 0.67889(2)
C11 C 0.122830(9) 0.52351(4) 0.64832(2)
H1 H 0.0924(2) 0.9479(8) 0.6360(4)
H2 H 0.0465(2) 1.2015(8) 0.7106(5)
H3 H 0.1316(2) 0.8350(9) 0.4700(4)
H4 H 0.2187(2) 0.8435(9) 0.5247(5)
H5 H 0.2459(2) 0.642(1) 0.6585(5)
H6 H 0.1830(2) 0.436(1) 0.7383(5)
H7 H 0.0958(2) 0.4360(9) 0.6823(4)
C2B C 0.053201(7) 0.35556(3) 0.45104(1)
C3B C 0.026841(7) 0.20411(3) 0.41238(1)
C4B C 0.052111(8) 0.05288(3) 0.36602(2)
C5B C 0.026533(9) -0.09001(3) 0.32451(2)
C6B C 0.107543(7) 0.36540(3) 0.42732(1)
C7B C 0.142869(8) 0.25145(3) 0.47136(2)
C8B C 0.192103(9) 0.24835(4) 0.44040(2)
C9B C 0.207146(9) 0.36070(4) 0.36545(2)
C10B C 0.17230(1) 0.47545(4) 0.32111(2)
C11B C 0.122830(9) 0.47649(4) 0.35168(2)
H1B H 0.0924(2) 0.0521(8) 0.3640(4)
H2B H 0.0465(2) -0.2015(8) 0.2894(5)
H3B H 0.1316(2) 0.1650(9) 0.5300(4)
H4B H 0.2187(2) 0.1565(9) 0.4753(5)
H5B H 0.2459(2) 0.358(1) 0.3415(5)
H6B H 0.1830(2) 0.564(1) 0.2617(5)
H7B H 0.0958(2) 0.5640(9) 0.3177(4)
C1H C -0.02733(1) 0.500000 0.500000
C2H C -0.053201(7) 0.35556(3) 0.45104(1)
C3H C -0.026841(7) 0.20411(3) 0.41238(1)
C4H C -0.052111(8) 0.05288(3) 0.36602(2)
C5H C -0.026533(9) -0.09001(3) 0.32451(2)
C6H C -0.107543(7) 0.36540(3) 0.42732(1)
C7H C -0.142869(8) 0.25145(3) 0.47136(2)
C8H C -0.192103(9) 0.24835(4) 0.44040(2)
C9H C -0.207146(9) 0.36070(4) 0.36545(2)
C10H C -0.17230(1) 0.47545(4) 0.32111(2)
C11H C -0.122830(9) 0.47649(4) 0.35168(2)
H1H H -0.0924(2) 0.0521(8) 0.3640(4)
H2H H -0.0465(2) -0.2015(8) 0.2894(5)
H3H H -0.1316(2) 0.1650(9) 0.5300(4)
H4H H -0.2187(2) 0.1565(9) 0.4753(5)
H5H H -0.2459(2) 0.358(1) 0.3415(5)
H6H H -0.1830(2) 0.564(1) 0.2617(5)
H7H H -0.0958(2) 0.5640(9) 0.3177(4)
C2J C -0.053201(7) 0.64444(3) 0.54896(1)
C3J C -0.026841(7) 0.79589(3) 0.58762(1)
C4J C -0.052111(8) 0.94712(3) 0.63398(2)
C5J C -0.026533(9) 1.09001(3) 0.67549(2)
C6J C -0.107543(7) 0.63460(3) 0.57268(1)
C7J C -0.142869(8) 0.74855(3) 0.52864(2)
C8J C -0.192103(9) 0.75165(4) 0.55960(2)
C9J C -0.207146(9) 0.63930(4) 0.63455(2)
C10J C -0.17230(1) 0.52455(4) 0.67889(2)
C11J C -0.122830(9) 0.52351(4) 0.64832(2)
H1J H -0.0924(2) 0.9479(8) 0.6360(4)
H2J H -0.0465(2) 1.2015(8) 0.7106(5)
H3J H -0.1316(2) 0.8350(9) 0.4700(4)
H4J H -0.2187(2) 0.8435(9) 0.5247(5)
H5J H -0.2459(2) 0.642(1) 0.6585(5)
H6J H -0.1830(2) 0.436(1) 0.7383(5)
H7J H -0.0958(2) 0.4360(9) 0.6823(4)
loop_
_geom_bond_atom_site_label_1
_geom_bond_atom_site_label_2
_geom_bond_site_symmetry_1
_geom_bond_site_symmetry_2
C1 C2 1_555 1_555
C2 C3 1_555 1_555
C3 C4 1_555 1_555
C4 C5 1_555 1_555
C5 H2 1_555 1_555
C6 C2 1_555 1_555
C7 C6 1_555 1_555
C8 C7 1_555 1_555
C9 C8 1_555 1_555
C10 C9 1_555 1_555
C11 C6 1_555 1_555
H1 C4 1_555 1_555
H3 C7 1_555 1_555
H4 C8 1_555 1_555
H5 C9 1_555 1_555
H6 C10 1_555 1_555
H7 C11 1_555 1_555
C2B C1 1_555 1_555
C3B C2B 1_555 1_555
C4B C3B 1_555 1_555
C5B C4B 1_555 1_555
C6B C2B 1_555 1_555
C7B C6B 1_555 1_555
C8B C7B 1_555 1_555
C9B C8B 1_555 1_555
C10B C9B 1_555 1_555
C11B C6B 1_555 1_555
H1B C4B 1_555 1_555
H2B C5B 1_555 1_555
H3B C7B 1_555 1_555
H4B C8B 1_555 1_555
H5B C9B 1_555 1_555
H6B C10B 1_555 1_555
H7B C11B 1_555 1_555
C1H C1 1_555 1_555
C2H C1H 1_555 1_555
C3H C3B 1_555 1_555
C4H C3H 1_555 1_555
C5H C5B 1_555 1_555
C6H C2H 1_555 1_555
C7H C6H 1_555 1_555
C8H C7H 1_555 1_555
C9H C8H 1_555 1_555
C10H C9H 1_555 1_555
C11H C6H 1_555 1_555
H1H C4H 1_555 1_555
H2H C5H 1_555 1_555
H3H C7H 1_555 1_555
H4H C8H 1_555 1_555
H5H C9H 1_555 1_555
H6H C10H 1_555 1_555
H7H C11H 1_555 1_555
C2J C1H 1_555 1_555
C3J C3 1_555 1_555
C4J C3J 1_555 1_555
C5J C5 1_555 1_555
C6J C2J 1_555 1_555
C7J C6J 1_555 1_555
C8J C7J 1_555 1_555
C9J C8J 1_555 1_555
C10J C9J 1_555 1_555
C11J C6J 1_555 1_555
H1J C4J 1_555 1_555
H2J C5J 1_555 1_555
H3J C7J 1_555 1_555
H4J C8J 1_555 1_555
H5J C9J 1_555 1_555
H6J C10J 1_555 1_555
H7J C11J 1_555 1_555
C10 C11 1_555 1_555
C10B C11B 1_555 1_555
C2H C3H 1_555 1_555
C4H C5H 1_555 1_555
C10H C11H 1_555 1_555
C2J C3J 1_555 1_555
C4J C5J 1_555 1_555
C10J C11J 1_555 1_555

#END
