
#######################################################################
#
#                 Cambridge Crystallographic Data Centre
#                                CCDC 
#
#######################################################################
#
# If this CIF has been generated from an entry in the Cambridge 
# Structural Database, then it will include bibliographic, chemical, 
# crystal, experimental, refinement or atomic coordinate data resulting 
# from the CCDC's data processing and validation procedures.
#
#######################################################################

data_QQQFGS10
_chemical_formula_moiety         'C5 H11 N3 O3'
_chemical_name_systematic        '\g-Guanidino-\b-hydroxybutyric acid'
_symmetry_cell_setting           triclinic
_symmetry_space_group_name_H-M   'P -1'
_symmetry_Int_Tables_number      2
_space_group_name_Hall           '-P 1'
loop_
_symmetry_equiv_pos_site_id
_symmetry_equiv_pos_as_xyz
1 x,y,z
2 -x,-y,-z
_cell_length_a                   8.519(3)
_cell_length_b                   9.909(2)
_cell_length_c                   4.879(6)
_cell_angle_alpha                92.69(5)
_cell_angle_beta                 112.00(5)
_cell_angle_gamma                69.90(5)
_cell_volume                     357.025
_exptl_crystal_colour            colorless
_cell_formula_units_Z            2
loop_
_atom_site_label
_atom_site_type_symbol
_atom_site_fract_x
_atom_site_fract_y
_atom_site_fract_z
C1 C 0.2531(5) 0.8015(4) 0.5991(7)
C2 C 0.1131(5) 0.8381(4) 0.2800(8)
C3 C 0.0269(5) 0.7261(4) 0.1457(7)
C4 C -0.1323(5) 0.7963(4) -0.1462(8)
C5 C -0.3454(5) 0.7215(4) -0.5607(8)
N1 N -0.2156(4) 0.6925(3) -0.2915(7)
N2 N -0.4138(5) 0.6207(3) -0.6854(8)
N3 N -0.4110(5) 0.8511(3) -0.7145(7)
O1 O 0.2896(4) 0.6841(3) 0.7384(6)
O2 O 0.3203(4) 0.8958(3) 0.7060(6)
O3 O 0.1519(4) 0.5974(3) 0.0976(6)
H1 H 0.006 0.937 0.274
H2 H 0.178 0.856 0.141
H3 H -0.020 0.692 0.302
H4 H -0.232 0.887 -0.101
H5 H -0.084 0.835 -0.292
H6 H -0.193 0.589 -0.222
H7 H -0.367 0.523 -0.576
H8 H -0.517 0.642 -0.887
H9 H -0.509 0.870 -0.917
H10 H -0.362 0.928 -0.626
H11 H 0.201 0.628 -0.031
loop_
_geom_bond_atom_site_label_1
_geom_bond_atom_site_label_2
_geom_bond_site_symmetry_1
_geom_bond_site_symmetry_2
C1 C2 1_555 1_555
C2 C3 1_555 1_555
C3 C4 1_555 1_555
C4 N1 1_555 1_555
C5 N1 1_555 1_555
N1 H6 1_555 1_555
N2 C5 1_555 1_555
N3 C5 1_555 1_555
O1 C1 1_555 1_555
O2 C1 1_555 1_555
O3 C3 1_555 1_555
H1 C2 1_555 1_555
H2 C2 1_555 1_555
H3 C3 1_555 1_555
H4 C4 1_555 1_555
H5 C4 1_555 1_555
H7 N2 1_555 1_555
H8 N2 1_555 1_555
H9 N3 1_555 1_555
H10 N3 1_555 1_555
H11 O3 1_555 1_555

#END
