
#######################################################################
#
#                 Cambridge Crystallographic Data Centre
#                                CCDC 
#
#######################################################################
#
# If this CIF has been generated from an entry in the Cambridge 
# Structural Database, then it will include bibliographic, chemical, 
# crystal, experimental, refinement or atomic coordinate data resulting 
# from the CCDC's data processing and validation procedures.
#
#######################################################################

data_QQQFSV01
_chemical_name_common            Tetra-p-anisylbutatriene
_chemical_formula_moiety         'C32 H28 O4'
_chemical_name_systematic        
1,1',1'',1'''-Butatriene-1,1,4,4-tetrayltetrakis(4-methoxybenzene)
_symmetry_cell_setting           triclinic
_symmetry_space_group_name_H-M   'P -1'
_symmetry_Int_Tables_number      2
_space_group_name_Hall           '-P 1'
loop_
_symmetry_equiv_pos_site_id
_symmetry_equiv_pos_as_xyz
1 x,y,z
2 -x,-y,-z
_cell_length_a                   9.673(2)
_cell_length_b                   10.768(2)
_cell_length_c                   12.004(3)
_cell_angle_alpha                83.733(5)
_cell_angle_beta                 87.249(5)
_cell_angle_gamma                75.774(5)
_cell_volume                     1204.45
_exptl_crystal_colour            yellow
_exptl_crystal_description       rod
_chemical_melting_point          '535 K'
_cell_formula_units_Z            2
_chemical_properties_physical    Photo-sensitive
_exptl_crystal_recrystallization_method 'dichloromethene, hexane'
loop_
_atom_site_label
_atom_site_type_symbol
_atom_site_fract_x
_atom_site_fract_y
_atom_site_fract_z
O1 O 0.38956(15) 0.98876(13) 0.25820(11)
O2 O 0.54725(14) 0.65232(13) -0.49608(11)
O3 O 0.13114(16) -0.00136(13) -0.25770(11)
C1 C 0.0255(2) 0.12077(18) -0.11240(16)
C2 C 0.0491(2) 0.46274(19) 0.21912(16)
C3 C 0.3617(2) 0.85254(18) 0.00056(16)
C4 C 0.3675(2) 0.93803(19) 0.07665(16)
C5 C 0.5237(2) 0.68737(18) -0.19277(16)
C6 C 0.3717(2) 0.68446(18) 0.15017(16)
C7 C 0.0266(2) 0.20775(18) -0.03668(16)
C8 C 0.0065(2) 0.45420(19) 0.32983(17)
C9 C 0.5783(2) 0.68925(18) -0.30218(16)
C10 C 0.3808(2) 0.61208(18) -0.35834(16)
O4 O -0.04637(17) 0.33878(14) 0.49574(11)
C11 C 0.3291(2) 0.60853(18) -0.24881(16)
C12 C 0.2489(2) 0.23994(19) -0.11459(16)
C13 C 0.3801(2) 0.76879(19) 0.22768(17)
C14 C 0.0761(2) 0.23567(19) 0.21654(16)
C15 C 0.0331(2) 0.22614(19) 0.32911(16)
C16 C 0.3450(2) 0.63556(18) -0.04656(15)
C17 C 0.2497(2) 0.15134(19) -0.19085(16)
C18 C 0.6892(2) 0.6633(2) -0.52383(19)
C19 C 0.3994(2) 0.64663(17) -0.16356(15)
C20 C 0.1452(2) 0.36321(19) 0.04381(16)
C21 C 0.3776(3) 0.9587(2) 0.37556(18)
C22 C 0.1386(2) 0.09071(17) -0.18859(15)
C23 C 0.3780(2) 0.89655(18) 0.19054(16)
C24 C 0.3629(2) 0.72359(17) 0.03519(15)
C25 C 0.5061(2) 0.65162(18) -0.38477(16)
C26 C 0.1394(2) 0.26909(17) -0.03572(15)
C27 C 0.2514(3) -0.0430(2) -0.32901(19)
C28 C -0.0019(2) 0.33556(19) 0.38524(16)
C29 C 0.0853(2) 0.35378(18) 0.15967(15)
C30 C -0.0609(3) 0.2221(3) 0.5561(2)
C31 C 0.2754(2) 0.54433(18) -0.01494(16)
C32 C 0.2118(2) 0.45775(19) 0.01192(16)
H1 H -0.056(2) 0.2290(18) 0.0171(16)
H2 H 0.354(2) 0.8827(19) -0.0773(18)
H3 H 0.030(3) 0.152(3) 0.555(2)
H4 H 0.575(2) 0.715(2) -0.1368(18)
H5 H 0.244(2) 0.5797(19) -0.2316(17)
H6 H 0.701(2) 0.6501(19) -0.6037(18)
H7 H 0.371(2) 0.5951(19) 0.1780(16)
H8 H 0.328(2) 0.1351(19) -0.2419(17)
H9 H -0.049(2) 0.080(2) -0.1096(17)
H10 H 0.057(2) 0.548(2) 0.1815(18)
H11 H 0.101(2) 0.1592(19) 0.1769(16)
H12 H 0.702(3) 0.749(2) -0.5036(19)
H13 H 0.339(3) -0.068(2) -0.2882(19)
H14 H 0.384(2) 0.739(2) 0.3056(18)
H15 H 0.333(2) 0.5876(19) -0.4178(17)
H16 H 0.367(2) 1.027(2) 0.0524(18)
H17 H 0.760(2) 0.590(2) -0.4831(18)
H18 H -0.014(2) 0.526(2) 0.3715(18)
H19 H 0.026(2) 0.143(2) 0.3626(18)
H20 H 0.282(3) 0.946(2) 0.396(2)
H21 H 0.231(3) -0.118(2) -0.367(2)
H22 H 0.667(2) 0.715(2) -0.3200(17)
H23 H 0.264(2) 0.033(2) -0.392(2)
H24 H 0.326(2) 0.280(2) -0.1130(18)
H25 H 0.454(3) 0.881(2) 0.4053(19)
H26 H -0.134(3) 0.188(2) 0.518(2)
H27 H -0.091(3) 0.244(2) 0.632(2)
H28 H 0.388(2) 1.034(2) 0.4089(19)
loop_
_geom_bond_atom_site_label_1
_geom_bond_atom_site_label_2
_geom_bond_site_symmetry_1
_geom_bond_site_symmetry_2
O1 C21 1_555 1_555
O2 C18 1_555 1_555
O3 C22 1_555 1_555
C1 C7 1_555 1_555
C2 C8 1_555 1_555
C3 C4 1_555 1_555
C4 C23 1_555 1_555
C5 C9 1_555 1_555
C6 C13 1_555 1_555
C7 C26 1_555 1_555
C8 C28 1_555 1_555
C9 C25 1_555 1_555
C10 C11 1_555 1_555
O4 C28 1_555 1_555
C11 C19 1_555 1_555
C12 C17 1_555 1_555
C13 C23 1_555 1_555
C14 C15 1_555 1_555
C15 C28 1_555 1_555
C16 C19 1_555 1_555
C17 C22 1_555 1_555
C18 H6 1_555 1_555
C19 C5 1_555 1_555
C20 C26 1_555 1_555
C21 H20 1_555 1_555
C22 C1 1_555 1_555
C23 O1 1_555 1_555
C24 C3 1_555 1_555
C25 O2 1_555 1_555
C26 C12 1_555 1_555
C27 O3 1_555 1_555
C29 C2 1_555 1_555
C30 O4 1_555 1_555
C31 C16 1_555 1_555
C32 C20 1_555 1_555
H1 C7 1_555 1_555
H2 C3 1_555 1_555
H3 C30 1_555 1_555
H4 C5 1_555 1_555
H5 C11 1_555 1_555
H7 C6 1_555 1_555
H8 C17 1_555 1_555
H9 C1 1_555 1_555
H10 C2 1_555 1_555
H11 C14 1_555 1_555
H12 C18 1_555 1_555
H13 C27 1_555 1_555
H14 C13 1_555 1_555
H15 C10 1_555 1_555
H16 C4 1_555 1_555
H17 C18 1_555 1_555
H18 C8 1_555 1_555
H19 C15 1_555 1_555
H21 C27 1_555 1_555
H22 C9 1_555 1_555
H23 C27 1_555 1_555
H24 C12 1_555 1_555
H25 C21 1_555 1_555
H26 C30 1_555 1_555
H27 C30 1_555 1_555
H28 C21 1_555 1_555
C6 C24 1_555 1_555
C10 C25 1_555 1_555
C14 C29 1_555 1_555
C16 C24 1_555 1_555
C20 C29 1_555 1_555
C31 C32 1_555 1_555

#END
