
#######################################################################
#
#                 Cambridge Crystallographic Data Centre
#                                CCDC 
#
#######################################################################
#
# If this CIF has been generated from an entry in the Cambridge 
# Structural Database, then it will include bibliographic, chemical, 
# crystal, experimental, refinement or atomic coordinate data resulting 
# from the CCDC's data processing and validation procedures.
#
#######################################################################

data_QQQGTD01
_chemical_compound_source        'Stem and root bark of Acronychia pedunculata'
_chemical_formula_moiety         'C32 H42 O8'
_chemical_name_systematic        Acrovestone
_symmetry_cell_setting           orthorhombic
_symmetry_space_group_name_H-M   'P b c a'
_symmetry_Int_Tables_number      61
_space_group_name_Hall           '-P 2ac 2ab'
loop_
_symmetry_equiv_pos_site_id
_symmetry_equiv_pos_as_xyz
1 x,y,z
2 1/2-x,1/2+y,z
3 x,1/2-y,1/2+z
4 1/2-x,-y,1/2+z
5 -x,-y,-z
6 1/2+x,1/2-y,-z
7 -x,1/2+y,1/2-z
8 1/2+x,y,1/2-z
_cell_length_a                   19.824(2)
_cell_length_b                   18.230(2)
_cell_length_c                   16.829(2)
_cell_angle_alpha                90
_cell_angle_beta                 90
_cell_angle_gamma                90
_cell_volume                     6081.86
_exptl_crystal_colour            'pale yellow'
_chemical_melting_point          142.5-143.5deg.C
_cell_formula_units_Z            8
loop_
_atom_site_label
_atom_site_type_symbol
_atom_site_fract_x
_atom_site_fract_y
_atom_site_fract_z
C1 C 0.5657(2) 0.5372(2) 0.0684(2)
C2 C 0.5630(2) 0.5940(2) 0.0110(2)
C3 C 0.6132(2) 0.6039(2) -0.0459(2)
C4 C 0.6687(2) 0.5573(2) -0.0433(2)
C5 C 0.6759(2) 0.5007(2) 0.0120(2)
C6 C 0.6231(2) 0.4909(2) 0.0655(2)
C7 C 0.5148(2) 0.5249(2) 0.1293(2)
C8 C 0.4553(2) 0.5738(3) 0.1424(3)
C9 C 0.7382(2) 0.4511(2) 0.0135(2)
C10 C 0.7997(3) 0.4858(4) 0.0401(4)
C12 C 0.7966(2) 0.5086(3) 0.1320(2)
C13 C 0.8097(3) 0.4660(3) 0.2031(4)
C14 C 0.8527(5) 0.5624(5) 0.1233(5)
O1 O 0.5073(1) 0.6375(1) 0.0105(2)
O2 O 0.7155(1) 0.5698(1) -0.1006(2)
O3 O 0.6270(1) 0.4335(1) 0.1159(1)
O4 O 0.5190(1) 0.4697(2) 0.1733(1)
C15 C 0.7747(2) 0.3419(2) -0.1794(2)
C16 C 0.7369(2) 0.2776(2) -0.1636(2)
C17 C 0.6997(2) 0.2688(2) -0.0947(2)
C18 C 0.6992(2) 0.3270(2) -0.0402(2)
C19 C 0.7363(2) 0.3912(2) -0.0504(2)
C20 C 0.7722(2) 0.3975(2) -0.1211(2)
C21 C 0.8178(2) 0.3536(2) -0.2493(2)
C22 C 0.8264(3) 0.2971(4) -0.3145(3)
O5 O 0.7382(1) 0.2213(1) -0.2178(1)
C23 C 0.6796(3) 0.2160(3) -0.2660(3)
O6 O 0.6607(1) 0.3150(1) 0.0256(1)
O7 O 0.8062(1) 0.4614(1) -0.1328(2)
O8 O 0.8498(2) 0.4113(2) -0.2569(2)
C24 C 0.6035(2) 0.6588(2) -0.1133(2)
C25 C 0.5934(2) 0.7362(2) -0.0888(2)
C26 C 0.5427(2) 0.7804(2) -0.1092(2)
C27 C 0.5436(3) 0.8596(3) -0.0828(3)
C28 C 0.4828(3) 0.7588(3) -0.1583(3)
C29 C 0.6601(2) 0.1999(2) -0.0771(2)
C30 C 0.5855(2) 0.2080(2) -0.0918(3)
C31 C 0.5438(2) 0.1569(2) -0.1166(2)
C32 C 0.4697(2) 0.1733(3) -0.1317(3)
C33 C 0.5630(3) 0.0784(3) -0.1289(4)
H1 H 0.4262 0.5533 0.1896
H2 H 0.4720 0.6269 0.1563
H3 H 0.4259 0.5755 0.0906
H4 H 0.8079 0.5331 0.0059
H5 H 0.8399 0.4491 0.0319
H8 H 0.7607 0.5490 0.1183
H10 H 0.7710 0.4274 0.2111
H11 H 0.8560 0.4386 0.1972
H12 H 0.8116 0.5011 0.2525
H13 H 0.8448 0.5943 0.0722
H14 H 0.8542 0.5966 0.1734
H15 H 0.8987 0.5342 0.1181
H16 H 0.5115 0.6732 -0.0303
H17 H 0.7516 0.5359 -0.0948
H18 H 0.5882 0.4328 0.1491
H19 H 0.8594 0.3176 -0.3580
H20 H 0.8464 0.2487 -0.2903
H21 H 0.7793 0.2859 -0.3404
H22 H 0.6848 0.1718 -0.3055
H23 H 0.6372 0.2075 -0.2298
H24 H 0.6735 0.2648 -0.2984
H25 H 0.6629 0.3566 0.0595
H26 H 0.8287 0.4597 -0.1826
H27 H 0.5610 0.6425 -0.1461
H28 H 0.6465 0.6567 -0.1497
H29 H 0.6285 0.7576 -0.0530
H30 H 0.5872 0.8695 -0.0490
H31 H 0.5436 0.8939 -0.1329
H32 H 0.5007 0.8704 -0.0482
H33 H 0.4866 0.7031 -0.1737
H34 H 0.4385 0.7673 -0.1254
H35 H 0.4814 0.7908 -0.2101
H36 H 0.6674 0.1860 -0.0172
H37 H 0.6785 0.1575 -0.1134
H38 H 0.5656 0.2575 -0.0816
H39 H 0.4604 0.2293 -0.1218
H40 H 0.4576 0.1601 -0.1907
H41 H 0.4399 0.1419 -0.0930
H42 H 0.6147 0.0717 -0.1173
H43 H 0.5350 0.0451 -0.0901
H44 H 0.5528 0.0633 -0.1879
C11? C 0.7760(4) 0.4328(4) 0.0817(4)
H6? H 0.8202 0.4054 0.0644
H7? H 0.7471 0.3984 0.1184
H9? H 0.7457 0.5165 0.1468
loop_
_geom_bond_atom_site_label_1
_geom_bond_atom_site_label_2
_geom_bond_site_symmetry_1
_geom_bond_site_symmetry_2
C1 C2 1_555 1_555
C2 C3 1_555 1_555
C3 C4 1_555 1_555
C4 C5 1_555 1_555
C5 C6 1_555 1_555
C6 C1 1_555 1_555
C7 C1 1_555 1_555
C8 C7 1_555 1_555
C9 C5 1_555 1_555
C10 C9 1_555 1_555
C12 C10 1_555 1_555
C13 C12 1_555 1_555
C14 C12 1_555 1_555
O1 C2 1_555 1_555
O2 C4 1_555 1_555
O3 C6 1_555 1_555
O4 C7 1_555 1_555
C15 C16 1_555 1_555
C16 C17 1_555 1_555
C17 C18 1_555 1_555
C18 C19 1_555 1_555
C19 C9 1_555 1_555
C20 C15 1_555 1_555
C21 C15 1_555 1_555
C22 C21 1_555 1_555
O5 C16 1_555 1_555
C23 O5 1_555 1_555
O6 C18 1_555 1_555
O7 C20 1_555 1_555
O8 C21 1_555 1_555
C24 C3 1_555 1_555
C25 C24 1_555 1_555
C26 C25 1_555 1_555
C27 C26 1_555 1_555
C28 C26 1_555 1_555
C29 C17 1_555 1_555
C30 C29 1_555 1_555
C31 C30 1_555 1_555
C32 C31 1_555 1_555
C33 C31 1_555 1_555
H1 C8 1_555 1_555
H2 C8 1_555 1_555
H3 C8 1_555 1_555
H4 C10 1_555 1_555
H5 C10 1_555 1_555
H8 C12 1_555 1_555
H10 C13 1_555 1_555
H11 C13 1_555 1_555
H12 C13 1_555 1_555
H13 C14 1_555 1_555
H14 C14 1_555 1_555
H15 C14 1_555 1_555
H16 O1 1_555 1_555
H17 O2 1_555 1_555
H18 O3 1_555 1_555
H19 C22 1_555 1_555
H20 C22 1_555 1_555
H21 C22 1_555 1_555
H22 C23 1_555 1_555
H23 C23 1_555 1_555
H24 C23 1_555 1_555
H25 O6 1_555 1_555
H26 O7 1_555 1_555
H27 C24 1_555 1_555
H28 C24 1_555 1_555
H29 C25 1_555 1_555
H30 C27 1_555 1_555
H31 C27 1_555 1_555
H32 C27 1_555 1_555
H33 C28 1_555 1_555
H34 C28 1_555 1_555
H35 C28 1_555 1_555
H36 C29 1_555 1_555
H37 C29 1_555 1_555
H38 C30 1_555 1_555
H39 C32 1_555 1_555
H40 C32 1_555 1_555
H41 C32 1_555 1_555
H42 C33 1_555 1_555
H43 C33 1_555 1_555
H44 C33 1_555 1_555
C19 C20 1_555 1_555

#END
