
#######################################################################
#
#                 Cambridge Crystallographic Data Centre
#                                CCDC 
#
#######################################################################
#
# If this CIF has been generated from an entry in the Cambridge 
# Structural Database, then it will include bibliographic, chemical, 
# crystal, experimental, refinement or atomic coordinate data resulting 
# from the CCDC's data processing and validation procedures.
#
#######################################################################

data_QQQHJJ01
_chemical_formula_moiety         'C16 H13 N1'
_chemical_name_systematic        N-phenylnaphthalen-2-amine
_symmetry_cell_setting           orthorhombic
_symmetry_space_group_name_H-M   'P c c n'
_symmetry_Int_Tables_number      56
_space_group_name_Hall           '-P 2ab 2ac'
loop_
_symmetry_equiv_pos_site_id
_symmetry_equiv_pos_as_xyz
1 x,y,z
2 1/2-x,1/2-y,z
3 -x,1/2+y,1/2-z
4 1/2+x,-y,1/2-z
5 -x,-y,-z
6 1/2+x,1/2+y,-z
7 x,1/2-y,1/2+z
8 1/2-x,y,1/2+z
_cell_length_a                   17.381(4)
_cell_length_b                   18.187(4)
_cell_length_c                   7.5121(15)
_cell_angle_alpha                90
_cell_angle_beta                 90
_cell_angle_gamma                90
_cell_volume                     2374.64
_exptl_crystal_colour            colorless
_exptl_crystal_description       needle
_cell_formula_units_Z            8
loop_
_atom_site_label
_atom_site_type_symbol
_atom_site_fract_x
_atom_site_fract_y
_atom_site_fract_z
N1 N 0.18490(17) 0.55946(16) 0.5071(3)
C1 C 0.18284(17) 0.45321(15) 0.6999(3)
H1 H 0.2124 0.4277 0.6173
C2 C 0.11958(16) 0.45772(15) 0.9896(3)
C3 C 0.11928(18) 0.56330(16) 0.7961(4)
H2 H 0.1058 0.6121 0.7758
C4 C 0.16061(16) 0.52328(15) 0.6626(3)
C5 C 0.09955(17) 0.53051(16) 0.9526(4)
H3 H 0.0721 0.5572 1.0369
C6 C 0.16233(16) 0.41834(14) 0.8601(3)
C7 C 0.09828(19) 0.42143(19) 1.1481(4)
H4 H 0.0717 0.4473 1.2355
C8 C 0.14135(19) 0.60946(15) 0.4073(3)
C9 C 0.06107(19) 0.61164(16) 0.4172(4)
H5 H 0.0349 0.5803 0.4942
C10 C 0.18039(19) 0.34373(15) 0.8946(4)
H6 H 0.2086 0.3169 0.8119
C11 C 0.1159(2) 0.34892(19) 1.1760(4)
H7 H 0.1005 0.3255 1.2801
C12 C 0.1789(2) 0.65653(16) 0.2915(4)
H8 H 0.2324 0.6558 0.2846
C13 C 0.0595(3) 0.7074(2) 0.1954(5)
H9 H 0.0322 0.7402 0.1246
C14 C 0.1567(2) 0.31111(18) 1.0481(5)
H10 H 0.1683 0.2618 1.0672
C15 C 0.1372(3) 0.70494(19) 0.1853(5)
H11 H 0.1630 0.7359 0.1068
C16 C 0.0206(2) 0.66087(18) 0.3116(5)
H12 H -0.0328 0.6628 0.3185
H13 H 0.225(2) 0.5416(18) 0.464(4)
loop_
_geom_bond_atom_site_label_1
_geom_bond_atom_site_label_2
_geom_bond_site_symmetry_1
_geom_bond_site_symmetry_2
N1 C4 1_555 1_555
C1 H1 1_555 1_555
C2 C5 1_555 1_555
C3 H2 1_555 1_555
C4 C1 1_555 1_555
C5 C3 1_555 1_555
H3 C5 1_555 1_555
C6 C1 1_555 1_555
C7 C2 1_555 1_555
H4 C7 1_555 1_555
C8 N1 1_555 1_555
C9 C8 1_555 1_555
H5 C9 1_555 1_555
C10 C6 1_555 1_555
H6 C10 1_555 1_555
C11 C7 1_555 1_555
H7 C11 1_555 1_555
C12 C8 1_555 1_555
H8 C12 1_555 1_555
C13 H9 1_555 1_555
C14 C10 1_555 1_555
H10 C14 1_555 1_555
C15 C12 1_555 1_555
H11 C15 1_555 1_555
C16 C9 1_555 1_555
H12 C16 1_555 1_555
H13 N1 1_555 1_555
C2 C6 1_555 1_555
C3 C4 1_555 1_555
C11 C14 1_555 1_555
C13 C15 1_555 1_555
C13 C16 1_555 1_555

#END
