
#######################################################################
#
#                 Cambridge Crystallographic Data Centre
#                                CCDC 
#
#######################################################################
#
# If this CIF has been generated from an entry in the Cambridge 
# Structural Database, then it will include bibliographic, chemical, 
# crystal, experimental, refinement or atomic coordinate data resulting 
# from the CCDC's data processing and validation procedures.
#
#######################################################################

data_QUBDEX
_chemical_formula_moiety         'C44 H48 O8'
_chemical_name_systematic        25,26,27,28-Tetra-butanoyloxycalix[4]arene
_symmetry_cell_setting           monoclinic
_symmetry_space_group_name_H-M   'C 2/c'
_symmetry_Int_Tables_number      15
_space_group_name_Hall           '-C 2yc'
loop_
_symmetry_equiv_pos_site_id
_symmetry_equiv_pos_as_xyz
1 x,y,z
2 1/2+x,1/2+y,z
3 1/2-x,1/2+y,1/2-z
4 -x,y,1/2-z
5 -x,-y,-z
6 1/2-x,1/2-y,-z
7 1/2+x,1/2-y,1/2+z
8 x,-y,1/2+z
_cell_length_a                   18.435(4)
_cell_length_b                   13.774(2)
_cell_length_c                   16.941(3)
_cell_angle_alpha                90
_cell_angle_beta                 116.23(2)
_cell_angle_gamma                90
_cell_volume                     3858.76
_exptl_crystal_colour            colorless
_chemical_melting_point          '309-310 deg.C'
_cell_formula_units_Z            4
_exptl_crystal_recrystallization_method dichloromethane/acetone
loop_
_atom_site_label
_atom_site_type_symbol
_atom_site_fract_x
_atom_site_fract_y
_atom_site_fract_z
O1 O 0.4868(1) 0.0425(1) 0.1580(1)
O2 O 0.5248(2) -0.0723(2) 0.0893(2)
C1 C 0.4169(2) -0.0087(2) 0.1461(2)
C2 C 0.3437(2) 0.0348(2) 0.0924(2)
C3 C 0.2730(2) -0.0122(3) 0.0819(2)
C4 C 0.2769(2) -0.0983(3) 0.1257(3)
C5 C 0.3502(2) -0.1378(2) 0.1801(2)
C6 C 0.4227(2) -0.0942(2) 0.1921(2)
C7 C 0.5000 -0.1466(3) 0.2500
C8 C 0.5378(2) 0.0028(2) 0.1285(2)
C9 C 0.6107(2) 0.0666(3) 0.1553(3)
C10 C 0.6677(3) 0.0378(3) 0.1203(4)
C11 C 0.7414(4) 0.1003(5) 0.1491(6)
C12 C 0.5000 0.4076(3) 0.2500
O3 O 0.4706(1) 0.2706(2) 0.1128(2)
O4 O 0.4029(2) 0.3814(2) 0.0105(2)
C13 C 0.4119(2) 0.2778(2) 0.1448(2)
C14 C 0.4236(2) 0.3474(2) 0.2093(2)
C15 C 0.3632(3) 0.3568(3) 0.2364(3)
C16 C 0.2957(2) 0.2974(3) 0.2022(3)
C17 C 0.2885(2) 0.2261(3) 0.1431(2)
C18 C 0.3473(2) 0.2139(2) 0.1132(2)
C19 C 0.3397(2) 0.1325(2) 0.0501(2)
C20 C 0.4580(2) 0.3268(2) 0.0420(2)
C21 C 0.5209(3) 0.3094(4) 0.0112(3)
C22 C 0.5092(4) 0.3610(4) -0.0705(4)
C23 C 0.5775(3) 0.3561(4) -0.0945(4)
H1 H 0.2220(19) 0.0191(23) 0.0476(20)
H2 H 0.2262(20) -0.1332(24) 0.1141(22)
H3 H 0.3496(19) -0.2007(24) 0.2106(21)
H4 H 0.4846(18) -0.1895(22) 0.2893(19)
H5 H 0.5930(20) 0.1300(27) 0.1498(23)
H6 H 0.5951(40) 0.0972(52) 0.0933(48)
H7 H 0.6381(31) 0.0344(39) 0.0500(36)
H8 H 0.6824(25) -0.0287(34) 0.1289(28)
H9 H 0.7825(28) 0.0695(32) 0.1274(30)
H10 H 0.7220(36) 0.1630(50) 0.1232(42)
H11 H 0.7713(33) 0.1053(38) 0.2097(37)
H12 H 0.5061(23) 0.4502(26) 0.2099(25)
H13 H 0.3751(19) 0.4109(25) 0.2808(22)
H14 H 0.2514(24) 0.3031(27) 0.2167(26)
H15 H 0.2404(21) 0.1806(25) 0.1166(22)
H16 H 0.3834(16) 0.1333(17) 0.0325(17)
H17 H 0.2873(18) 0.1400(20) -0.0010(20)
H18 H 0.5539(30) 0.2737(40) 0.0419(33)
H19 H 0.5644(54) 0.3625(64) 0.0301(62)
H20 H 0.5009(26) 0.4236(35) -0.0616(29)
H21 H 0.4324(32) 0.3611(40) -0.1300(36)
H22 H 0.5661(30) 0.3887(35) -0.1592(36)
H23 H 0.5973(25) 0.2795(33) -0.0903(27)
H24 H 0.6375(30) 0.3886(34) -0.0392(32)
O1C O 0.5132(1) 0.0425(1) 0.3420(1)
O2C O 0.4752(2) -0.0723(2) 0.4107(2)
C1C C 0.5831(2) -0.0087(2) 0.3539(2)
C2C C 0.6563(2) 0.0348(2) 0.4076(2)
C3C C 0.7270(2) -0.0122(3) 0.4181(2)
C4C C 0.7231(2) -0.0983(3) 0.3743(3)
C5C C 0.6498(2) -0.1378(2) 0.3199(2)
C6C C 0.5773(2) -0.0942(2) 0.3079(2)
C8C C 0.4622(2) 0.0028(2) 0.3715(2)
C9C C 0.3893(2) 0.0666(3) 0.3447(3)
C10C C 0.3323(3) 0.0378(3) 0.3797(4)
C11C C 0.2586(4) 0.1003(5) 0.3509(6)
O3C O 0.5294(1) 0.2706(2) 0.3872(2)
O4C O 0.5971(2) 0.3814(2) 0.4895(2)
C13C C 0.5881(2) 0.2778(2) 0.3552(2)
C14C C 0.5764(2) 0.3474(2) 0.2907(2)
C15C C 0.6368(3) 0.3568(3) 0.2636(3)
C16C C 0.7043(2) 0.2974(3) 0.2978(3)
C17C C 0.7115(2) 0.2261(3) 0.3569(2)
C18C C 0.6527(2) 0.2139(2) 0.3868(2)
C19C C 0.6603(2) 0.1325(2) 0.4499(2)
C20C C 0.5420(2) 0.3268(2) 0.4580(2)
C21C C 0.4791(3) 0.3094(4) 0.4888(3)
C22C C 0.4908(4) 0.3610(4) 0.5705(4)
C23C C 0.4225(3) 0.3561(4) 0.5945(4)
H1C H 0.7780(19) 0.0191(23) 0.4524(20)
H2C H 0.7738(20) -0.1332(24) 0.3859(22)
H3C H 0.6504(19) -0.2007(24) 0.2894(21)
H4C H 0.5154(18) -0.1895(22) 0.2107(19)
H5C H 0.4070(20) 0.1300(27) 0.3502(23)
H6C H 0.4049(40) 0.0972(52) 0.4067(48)
H7C H 0.3619(31) 0.0344(39) 0.4500(36)
H8C H 0.3176(25) -0.0287(34) 0.3711(28)
H9C H 0.2175(28) 0.0695(32) 0.3726(30)
H10C H 0.2780(36) 0.1630(50) 0.3768(42)
H11C H 0.2287(33) 0.1053(38) 0.2903(37)
H12C H 0.4939(23) 0.4502(26) 0.2901(25)
H13C H 0.6249(19) 0.4109(25) 0.2192(22)
H14C H 0.7486(24) 0.3031(27) 0.2833(26)
H15C H 0.7596(21) 0.1806(25) 0.3834(22)
H16C H 0.6166(16) 0.1333(17) 0.4675(17)
H17C H 0.7127(18) 0.1400(20) 0.5010(20)
H18C H 0.4461(30) 0.2737(40) 0.4581(33)
H19C H 0.4356(54) 0.3625(64) 0.4699(62)
H20C H 0.4991(26) 0.4236(35) 0.5616(29)
H21C H 0.5676(32) 0.3611(40) 0.6300(36)
H22C H 0.4339(30) 0.3887(35) 0.6592(36)
H23C H 0.4027(25) 0.2795(33) 0.5903(27)
H24C H 0.3625(30) 0.3886(34) 0.5392(32)
loop_
_geom_bond_atom_site_label_1
_geom_bond_atom_site_label_2
_geom_bond_site_symmetry_1
_geom_bond_site_symmetry_2
O1 C1 1_555 1_555
O2 C8 1_555 1_555
C1 C2 1_555 1_555
C2 C3 1_555 1_555
C3 C4 1_555 1_555
C4 C5 1_555 1_555
C5 C6 1_555 1_555
C6 C1 1_555 1_555
C7 C6 1_555 1_555
C8 O1 1_555 1_555
C9 C8 1_555 1_555
C10 C9 1_555 1_555
C11 C10 1_555 1_555
C12 C14 1_555 1_555
O3 C13 1_555 1_555
O4 C20 1_555 1_555
C13 C14 1_555 1_555
C14 C15 1_555 1_555
C15 C16 1_555 1_555
C16 C17 1_555 1_555
C17 C18 1_555 1_555
C18 C13 1_555 1_555
C19 C2 1_555 1_555
C20 O3 1_555 1_555
C21 C20 1_555 1_555
C22 C21 1_555 1_555
C23 C22 1_555 1_555
H1 C3 1_555 1_555
H2 C4 1_555 1_555
H3 C5 1_555 1_555
H4 C7 1_555 1_555
H5 C9 1_555 1_555
H6 C9 1_555 1_555
H7 C10 1_555 1_555
H8 C10 1_555 1_555
H9 C11 1_555 1_555
H10 C11 1_555 1_555
H11 C11 1_555 1_555
H12 C12 1_555 1_555
H13 C15 1_555 1_555
H14 C16 1_555 1_555
H15 C17 1_555 1_555
H16 C19 1_555 1_555
H17 C19 1_555 1_555
H18 C21 1_555 1_555
H19 C21 1_555 1_555
H20 C22 1_555 1_555
H21 C22 1_555 1_555
H22 C23 1_555 1_555
H23 C23 1_555 1_555
H24 C23 1_555 1_555
O1C C1C 1_555 1_555
O2C C8C 1_555 1_555
C1C C2C 1_555 1_555
C2C C3C 1_555 1_555
C3C C4C 1_555 1_555
C4C C5C 1_555 1_555
C5C C6C 1_555 1_555
C6C C7 1_555 1_555
C8C O1C 1_555 1_555
C9C C8C 1_555 1_555
C10C C9C 1_555 1_555
C11C C10C 1_555 1_555
O3C C13C 1_555 1_555
O4C C20C 1_555 1_555
C13C C14C 1_555 1_555
C14C C12 1_555 1_555
C15C C14C 1_555 1_555
C16C C15C 1_555 1_555
C17C C16C 1_555 1_555
C18C C13C 1_555 1_555
C19C C2C 1_555 1_555
C20C O3C 1_555 1_555
C21C C20C 1_555 1_555
C22C C21C 1_555 1_555
C23C C22C 1_555 1_555
H1C C3C 1_555 1_555
H2C C4C 1_555 1_555
H3C C5C 1_555 1_555
H4C C7 1_555 1_555
H5C C9C 1_555 1_555
H6C C9C 1_555 1_555
H7C C10C 1_555 1_555
H8C C10C 1_555 1_555
H9C C11C 1_555 1_555
H10C C11C 1_555 1_555
H11C C11C 1_555 1_555
H12C C12 1_555 1_555
H13C C15C 1_555 1_555
H14C C16C 1_555 1_555
H15C C17C 1_555 1_555
H16C C19C 1_555 1_555
H17C C19C 1_555 1_555
H18C C21C 1_555 1_555
H19C C21C 1_555 1_555
H20C C22C 1_555 1_555
H21C C22C 1_555 1_555
H22C C23C 1_555 1_555
H23C C23C 1_555 1_555
H24C C23C 1_555 1_555
C18 C19 1_555 1_555
C1C C6C 1_555 1_555
C17C C18C 1_555 1_555
C18C C19C 1_555 1_555

#END
