
#######################################################################
#
#                 Cambridge Crystallographic Data Centre
#                                CCDC 
#
#######################################################################
#
# If this CIF has been generated from an entry in the Cambridge 
# Structural Database, then it will include bibliographic, chemical, 
# crystal, experimental, refinement or atomic coordinate data resulting 
# from the CCDC's data processing and validation procedures.
#
#######################################################################

data_QUBFEZ
_chemical_formula_moiety         'C18 H14 N2 O2'
_chemical_name_systematic        
2-Hydroxy-N'-(1-naphthylmethylene)benzohydrazide
_chemical_properties_biological  'antibacterial activity'
_symmetry_cell_setting           orthorhombic
_symmetry_space_group_name_H-M   'P b c a'
_symmetry_Int_Tables_number      61
_space_group_name_Hall           '-P 2ac 2ab'
loop_
_symmetry_equiv_pos_site_id
_symmetry_equiv_pos_as_xyz
1 x,y,z
2 1/2-x,-y,1/2+z
3 -x,1/2+y,1/2-z
4 1/2+x,1/2-y,-z
5 -x,-y,-z
6 1/2+x,y,1/2-z
7 x,1/2-y,1/2+z
8 1/2-x,1/2+y,z
_cell_length_a                   8.3594(7)
_cell_length_b                   12.3025(11)
_cell_length_c                   28.499(3)
_cell_angle_alpha                90
_cell_angle_beta                 90
_cell_angle_gamma                90
_cell_volume                     2930.88
_cell_formula_units_Z            8
loop_
_atom_site_label
_atom_site_type_symbol
_atom_site_fract_x
_atom_site_fract_y
_atom_site_fract_z
O1 O 0.1372(2) 1.0720(1) 0.3407(1)
O2 O 0.1939(2) 0.7464(1) 0.3683(1)
N1 N 0.1918(2) 0.9509(1) 0.3973(1)
N2 N 0.2462(2) 1.0328(1) 0.4259(1)
C1 C 0.1395(2) 0.9777(1) 0.3540(1)
C2 C 0.0794(2) 0.8882(1) 0.3235(1)
C3 C -0.0094(3) 0.9199(2) 0.2842(1)
C4 C -0.0673(3) 0.8447(2) 0.2530(1)
C5 C -0.0384(3) 0.7370(2) 0.2602(1)
C6 C 0.0491(3) 0.7028(2) 0.2983(1)
C7 C 0.1076(2) 0.7784(2) 0.3303(1)
C8 C 0.2858(2) 1.0057(2) 0.4672(1)
C9 C 0.3519(2) 1.0888(2) 0.4990(1)
C10 C 0.4220(3) 1.1796(2) 0.4804(1)
C11 C 0.4876(3) 1.2605(2) 0.5091(1)
C12 C 0.4830(3) 1.2495(2) 0.5567(1)
C13 C 0.4133(2) 1.1580(2) 0.5775(1)
C14 C 0.3454(2) 1.0751(2) 0.5487(1)
C15 C 0.2773(3) 0.9838(2) 0.5709(14)
C16 C 0.2787(4) 0.9743(3) 0.6189(1)
C17 C 0.3456(3) 1.0553(3) 0.6469(1)
C18 C 0.4099(3) 1.1447(3) 0.6271(1)
loop_
_geom_bond_atom_site_label_1
_geom_bond_atom_site_label_2
_geom_bond_site_symmetry_1
_geom_bond_site_symmetry_2
O1 C1 1_555 1_555
O2 C7 1_555 1_555
N1 N2 1_555 1_555
N2 C8 1_555 1_555
C1 N1 1_555 1_555
C2 C1 1_555 1_555
C3 C2 1_555 1_555
C4 C3 1_555 1_555
C5 C4 1_555 1_555
C6 C5 1_555 1_555
C7 C2 1_555 1_555
C8 C9 1_555 1_555
C9 C10 1_555 1_555
C10 C11 1_555 1_555
C11 C12 1_555 1_555
C12 C13 1_555 1_555
C13 C14 1_555 1_555
C14 C9 1_555 1_555
C15 C14 1_555 1_555
C16 C15 1_555 1_555
C17 C16 1_555 1_555
C18 C13 1_555 1_555
C6 C7 1_555 1_555
C17 C18 1_555 1_555

#END
