
#######################################################################
#
#                 Cambridge Crystallographic Data Centre
#                                CCDC 
#
#######################################################################
#
# If this CIF has been generated from an entry in the Cambridge 
# Structural Database, then it will include bibliographic, chemical, 
# crystal, experimental, refinement or atomic coordinate data resulting 
# from the CCDC's data processing and validation procedures.
#
#######################################################################

data_QUBTEO
_chemical_formula_moiety         'C23 H22 N2 O4 S1'
_chemical_name_systematic        
"Ethyl 1',5-dimethyl-2'',3-dioxo-1'',2''-dihydro-3H-dispiro[1-benzothiophene-2,3'-pyrrolidine-2',3''-indole]-4'-carboxylate"
_symmetry_cell_setting           monoclinic
_symmetry_space_group_name_H-M   'P 2/n'
_symmetry_Int_Tables_number      13
_space_group_name_Hall           '-P 2yac'
loop_
_symmetry_equiv_pos_site_id
_symmetry_equiv_pos_as_xyz
1 x,y,z
2 1/2-x,y,1/2-z
3 -x,-y,-z
4 1/2+x,-y,1/2+z
_cell_length_a                   16.311(5)
_cell_length_b                   11.103(5)
_cell_length_c                   23.585(5)
_cell_angle_alpha                90
_cell_angle_beta                 98.354(5)
_cell_angle_gamma                90
_cell_volume                     4225.95
_exptl_crystal_colour            colorless
_exptl_crystal_description       block
_cell_formula_units_Z            8
loop_
_atom_site_label
_atom_site_type_symbol
_atom_site_fract_x
_atom_site_fract_y
_atom_site_fract_z
C1 C 1.03963(16) 0.6232(2) 0.96161(10)
H1 H 1.0658 0.5934 0.9980
H2 H 1.0403 0.5619 0.9330
H3 H 0.9833 0.6449 0.9643
C2 C 1.17418(14) 0.7110(2) 0.94672(10)
H4 H 1.1862 0.6279 0.9383
H5 H 1.2043 0.7319 0.9840
C3 C 1.19796(13) 0.7946(2) 0.90055(9)
H6 H 1.2033 0.7453 0.8668
C4 C 1.27782(15) 0.8619(2) 0.91628(11)
C5 C 1.3651(2) 1.0082(3) 0.87962(19)
H7 H 1.3978 0.9931 0.9167
H8 H 1.3981 0.9863 0.8502
C6 C 1.3442(2) 1.1317(3) 0.87467(16)
H9 H 1.3940 1.1790 0.8789
H10 H 1.3120 1.1533 0.9041
H11 H 1.3126 1.1466 0.8377
C7 C 1.12099(12) 0.87597(18) 0.88528(8)
C8 C 1.11405(12) 0.93915(19) 0.82729(8)
C9 C 1.11184(13) 1.07020(19) 0.83294(9)
C10 C 1.10808(15) 1.1524(2) 0.78791(10)
H12 H 1.1063 1.1251 0.7505
C11 C 1.10697(15) 1.2746(2) 0.79895(11)
C12 C 1.1061(2) 1.3648(3) 0.75117(12)
H13 H 1.1039 1.3231 0.7153
H14 H 1.1555 1.4129 0.7577
H15 H 1.0584 1.4159 0.7500
C13 C 1.10894(16) 1.3109(2) 0.85551(12)
H16 H 1.1073 1.3930 0.8632
C14 C 1.11315(15) 1.2320(2) 0.90078(11)
H17 H 1.1146 1.2597 0.9381
C15 C 1.11514(13) 1.1091(2) 0.88890(9)
C16 C 1.05081(12) 0.78321(18) 0.89070(8)
C17 C 1.04294(14) 0.68991(19) 0.83996(9)
C18 C 0.91621(13) 0.7782(2) 0.83823(8)
C19 C 0.83341(14) 0.8042(2) 0.82256(10)
H18 H 0.8028 0.7689 0.7905
C20 C 0.79785(15) 0.8845(3) 0.85629(11)
H19 H 0.7422 0.9043 0.8465
C21 C 0.84242(16) 0.9360(3) 0.90390(11)
H20 H 0.8168 0.9899 0.9259
C22 C 0.92554(15) 0.9083(2) 0.91941(10)
H21 H 0.9554 0.9418 0.9522
C23 C 0.96336(12) 0.83105(19) 0.88591(8)
N1 N 1.08421(11) 0.72884(17) 0.94574(7)
N2 N 0.96489(11) 0.69805(17) 0.81200(7)
H22 H 0.9471 0.6583 0.7814
O1 O 1.32537(12) 0.8496(2) 0.95875(8)
O2 O 1.09558(10) 0.62012(14) 0.82891(7)
O3 O 1.11019(10) 0.88373(14) 0.78238(6)
O4 O 1.29010(11) 0.93490(18) 0.87355(8)
S1 S 1.12144(4) 0.99348(5) 0.93983(2)
C24 C 0.96287(16) 0.7862(2) 0.53352(10)
H23 H 0.9358 0.8131 0.4968
H24 H 1.0185 0.7620 0.5304
H25 H 0.9640 0.8506 0.5608
C25 C 0.82877(14) 0.7046(2) 0.55249(9)
H26 H 0.7976 0.6823 0.5158
H27 H 0.8181 0.7886 0.5599
C26 C 0.80481(13) 0.62477(19) 0.60028(9)
H28 H 0.8016 0.6765 0.6335
C27 C 0.72363(14) 0.5595(2) 0.58713(10)
C28 C 0.63677(17) 0.4216(3) 0.62987(13)
H29 H 0.5962 0.4496 0.5985
H30 H 0.6141 0.4329 0.6653
C29 C 0.6545(2) 0.2917(3) 0.62196(15)
H31 H 0.6043 0.2462 0.6208
H32 H 0.6943 0.2643 0.6533
H33 H 0.6764 0.2810 0.5867
C30 C 0.88089(12) 0.54207(18) 0.61532(8)
C31 C 0.88814(12) 0.48160(19) 0.67382(8)
C32 C 0.88955(13) 0.35001(19) 0.66913(8)
C33 C 0.89327(14) 0.2689(2) 0.71447(9)
H34 H 0.8957 0.2973 0.7518
C34 C 0.89341(15) 0.1460(2) 0.70409(10)
C35 C 0.8946(2) 0.0567(2) 0.75203(11)
H35 H 0.8968 0.0989 0.7878
H36 H 0.9423 0.0058 0.7533
H37 H 0.8453 0.0084 0.7457
C36 C 0.89070(15) 0.1080(2) 0.64755(10)
H38 H 0.8920 0.0257 0.6403
C37 C 0.88627(15) 0.1860(2) 0.60194(10)
H39 H 0.8840 0.1574 0.5647
C38 C 0.88522(13) 0.30946(18) 0.61322(8)
C39 C 0.95153(12) 0.63320(18) 0.60834(8)
C40 C 0.96067(14) 0.72987(19) 0.65762(9)
C41 C 1.08655(13) 0.6382(2) 0.66030(8)
C42 C 1.16826(14) 0.6109(2) 0.67618(10)
H40 H 1.1991 0.6475 0.7078
C43 C 1.20368(15) 0.5272(3) 0.64379(11)
H41 H 1.2592 0.5068 0.6539
C44 C 1.15838(16) 0.4738(3) 0.59713(11)
H42 H 1.1835 0.4178 0.5759
C45 C 1.07519(15) 0.5024(2) 0.58109(10)
H43 H 1.0449 0.4670 0.5489
C46 C 1.03826(12) 0.58414(19) 0.61354(8)
N3 N 0.91755(11) 0.68408(16) 0.55265(7)
N4 N 1.03867(11) 0.72204(17) 0.68548(7)
H44 H 1.0570 0.7638 0.7154
O5 O 0.67445(11) 0.57029(18) 0.54481(7)
O6 O 0.90884(10) 0.80189(14) 0.66769(7)
O7 O 0.89380(10) 0.53817(14) 0.71813(6)
O8 O 0.71261(10) 0.49014(16) 0.63163(7)
S2 S 0.87786(4) 0.42250(5) 0.56126(2)
loop_
_geom_bond_atom_site_label_1
_geom_bond_atom_site_label_2
_geom_bond_site_symmetry_1
_geom_bond_site_symmetry_2
C1 H1 1_555 1_555
H2 C1 1_555 1_555
H3 C1 1_555 1_555
C2 H4 1_555 1_555
H5 C2 1_555 1_555
C3 C2 1_555 1_555
H6 C3 1_555 1_555
C4 C3 1_555 1_555
C5 H7 1_555 1_555
H8 C5 1_555 1_555
C6 C5 1_555 1_555
H9 C6 1_555 1_555
H10 C6 1_555 1_555
H11 C6 1_555 1_555
C7 C3 1_555 1_555
C8 C7 1_555 1_555
C9 C8 1_555 1_555
C10 C9 1_555 1_555
H12 C10 1_555 1_555
C11 C10 1_555 1_555
C12 C11 1_555 1_555
H13 C12 1_555 1_555
H14 C12 1_555 1_555
H15 C12 1_555 1_555
C13 C11 1_555 1_555
H16 C13 1_555 1_555
C14 C13 1_555 1_555
H17 C14 1_555 1_555
C15 C9 1_555 1_555
C16 C7 1_555 1_555
C17 C16 1_555 1_555
C18 C19 1_555 1_555
C19 H18 1_555 1_555
C20 C19 1_555 1_555
H19 C20 1_555 1_555
C21 C20 1_555 1_555
H20 C21 1_555 1_555
C22 C21 1_555 1_555
H21 C22 1_555 1_555
C23 C16 1_555 1_555
N1 C1 1_555 1_555
N2 C17 1_555 1_555
H22 N2 1_555 1_555
O1 C4 1_555 1_555
O2 C17 1_555 1_555
O3 C8 1_555 1_555
O4 C4 1_555 1_555
S1 C7 1_555 1_555
C24 H23 1_555 1_555
H24 C24 1_555 1_555
H25 C24 1_555 1_555
C25 H26 1_555 1_555
H27 C25 1_555 1_555
C26 C25 1_555 1_555
H28 C26 1_555 1_555
C27 C26 1_555 1_555
C28 H29 1_555 1_555
H30 C28 1_555 1_555
C29 C28 1_555 1_555
H31 C29 1_555 1_555
H32 C29 1_555 1_555
H33 C29 1_555 1_555
C30 C26 1_555 1_555
C31 C30 1_555 1_555
C32 C31 1_555 1_555
C33 C32 1_555 1_555
H34 C33 1_555 1_555
C34 C33 1_555 1_555
C35 C34 1_555 1_555
H35 C35 1_555 1_555
H36 C35 1_555 1_555
H37 C35 1_555 1_555
C36 C34 1_555 1_555
H38 C36 1_555 1_555
C37 C36 1_555 1_555
H39 C37 1_555 1_555
C38 C32 1_555 1_555
C39 C30 1_555 1_555
C40 C39 1_555 1_555
C41 C42 1_555 1_555
C42 H40 1_555 1_555
C43 C42 1_555 1_555
H41 C43 1_555 1_555
C44 C43 1_555 1_555
H42 C44 1_555 1_555
C45 C44 1_555 1_555
H43 C45 1_555 1_555
C46 C39 1_555 1_555
N3 C24 1_555 1_555
N4 C40 1_555 1_555
H44 N4 1_555 1_555
O5 C27 1_555 1_555
O6 C40 1_555 1_555
O7 C31 1_555 1_555
O8 C27 1_555 1_555
S2 C30 1_555 1_555
C2 N1 1_555 1_555
C5 O4 1_555 1_555
C14 C15 1_555 1_555
C15 S1 1_555 1_555
C16 N1 1_555 1_555
C18 C23 1_555 1_555
C18 N2 1_555 1_555
C22 C23 1_555 1_555
C25 N3 1_555 1_555
C28 O8 1_555 1_555
C37 C38 1_555 1_555
C38 S2 1_555 1_555
C39 N3 1_555 1_555
C41 C46 1_555 1_555
C41 N4 1_555 1_555
C45 C46 1_555 1_555

#END
