
#######################################################################
#
#                 Cambridge Crystallographic Data Centre
#                                CCDC 
#
#######################################################################
#
# If this CIF has been generated from an entry in the Cambridge 
# Structural Database, then it will include bibliographic, chemical, 
# crystal, experimental, refinement or atomic coordinate data resulting 
# from the CCDC's data processing and validation procedures.
#
#######################################################################

data_QUBVAM
_chemical_name_common            
20-(1-Naphthyl)-19-oxa-8,17-diazapentacyclo[8.7.3.0$1,10!.0$2,7!.0$12,17!]icosa-2,4,6-triene-9,18-dione
_chemical_formula_moiety         'C27 H24 N2 O3'
_chemical_name_systematic        
15-(Naphthalen-1-yl)-7,7a,8,9,10,11-hexahydro-6a,12a-(methanooxymethano)indolizino[2,3-c]quinoline-6,13(5H)-dione
_symmetry_cell_setting           triclinic
_symmetry_space_group_name_H-M   'P -1'
_symmetry_Int_Tables_number      2
_space_group_name_Hall           '-P 1'
loop_
_symmetry_equiv_pos_site_id
_symmetry_equiv_pos_as_xyz
1 x,y,z
2 -x,-y,-z
_cell_length_a                   9.4184(3)
_cell_length_b                   9.8804(4)
_cell_length_c                   12.5401(5)
_cell_angle_alpha                95.341(2)
_cell_angle_beta                 107.535(2)
_cell_angle_gamma                99.940(2)
_cell_volume                     1082.87
_exptl_crystal_colour            colorless
_exptl_crystal_description       Block
_cell_formula_units_Z            2
loop_
_atom_site_label
_atom_site_type_symbol
_atom_site_fract_x
_atom_site_fract_y
_atom_site_fract_z
N1 N -0.03845(17) 0.39247(17) 0.35495(13)
O1 O 0.17604(14) 0.48033(14) 0.50098(11)
N2 N 0.20514(17) 0.37970(17) 0.19482(12)
O2 O 0.20942(17) 0.07713(15) 0.31755(11)
C1 C 0.12431(19) 0.26604(18) 0.23296(13)
O3 O 0.19536(18) 0.07035(17) 0.13733(12)
C2 C -0.12077(19) 0.30793(18) 0.25108(14)
C3 C 0.10973(19) 0.40178(18) 0.41158(14)
C4 C -0.1323(2) 0.1598(2) 0.08548(15)
H1 H -0.0838 0.1149 0.0427
C5 C 0.1637(2) 0.16082(19) 0.39818(15)
H2 H 0.0541 0.1284 0.3826
C6 C 0.18956(19) 0.30545(18) 0.36204(13)
C7 C -0.04632(19) 0.24314(18) 0.18736(14)
C8 C 0.3652(2) 0.3986(2) 0.26462(16)
H3 H 0.4082 0.3245 0.2370
C9 C -0.2888(2) 0.1423(2) 0.04654(17)
H4 H -0.3453 0.0870 -0.0225
C10 C -0.3607(2) 0.2069(2) 0.11008(18)
H5 H -0.4662 0.1948 0.0841
C11 C 0.3561(2) 0.3777(2) 0.38191(15)
H6 H 0.3823 0.4663 0.4310
H7 H 0.4252 0.3199 0.4164
C12 C -0.2778(2) 0.2894(2) 0.21180(18)
H8 H -0.3274 0.3329 0.2544
C13 C 0.1838(2) 0.3772(3) 0.07473(16)
H9 H 0.0762 0.3627 0.0325
H10 H 0.2234 0.3016 0.0472
C14 C 0.1767(2) 0.1274(2) 0.21866(15)
C15 C 0.1724(3) 0.1607(2) 0.60132(17)
C16 C 0.4345(3) 0.5443(3) 0.1301(2)
H11 H 0.4838 0.6361 0.1231
H12 H 0.4842 0.4771 0.1027
C17 C 0.2675(3) 0.5145(3) 0.0586(2)
H13 H 0.2209 0.5885 0.0796
H14 H 0.2592 0.5123 -0.0206
C18 C 0.0310(3) 0.1993(3) 0.5812(2)
H15 H -0.0232 0.2101 0.5082
C19 C 0.4522(3) 0.5368(3) 0.2539(2)
H16 H 0.5591 0.5482 0.2970
H17 H 0.4139 0.6114 0.2843
C20 C 0.2439(3) 0.1421(2) 0.51715(17)
C21 C 0.2489(4) 0.1394(3) 0.71308(19)
C22 C 0.1817(5) 0.1622(3) 0.7981(2)
H18 H 0.2310 0.1486 0.8714
C23 C -0.0285(4) 0.2215(3) 0.6662(2)
H19 H -0.1213 0.2491 0.6510
C24 C 0.3821(3) 0.1050(3) 0.5444(2)
H20 H 0.4289 0.0949 0.4895
C25 C 0.3883(5) 0.0989(3) 0.7356(2)
H21 H 0.4370 0.0830 0.8083
C26 C 0.4544(4) 0.0820(3) 0.6556(3)
H22 H 0.5477 0.0552 0.6733
C27 C 0.0487(5) 0.2030(4) 0.7754(3)
H23 H 0.0078 0.2191 0.8331
H24 H -0.091(3) 0.440(2) 0.393(2)
loop_
_geom_bond_atom_site_label_1
_geom_bond_atom_site_label_2
_geom_bond_site_symmetry_1
_geom_bond_site_symmetry_2
N1 C2 1_555 1_555
O1 C3 1_555 1_555
N2 C1 1_555 1_555
O2 C5 1_555 1_555
C1 C6 1_555 1_555
O3 C14 1_555 1_555
C2 C7 1_555 1_555
C3 N1 1_555 1_555
C4 H1 1_555 1_555
C5 H2 1_555 1_555
C6 C3 1_555 1_555
C7 C1 1_555 1_555
C8 N2 1_555 1_555
H3 C8 1_555 1_555
C9 C4 1_555 1_555
H4 C9 1_555 1_555
C10 C9 1_555 1_555
H5 C10 1_555 1_555
C11 C6 1_555 1_555
H6 C11 1_555 1_555
H7 C11 1_555 1_555
C12 C2 1_555 1_555
H8 C12 1_555 1_555
C13 N2 1_555 1_555
H9 C13 1_555 1_555
H10 C13 1_555 1_555
C14 O2 1_555 1_555
C15 C18 1_555 1_555
C16 H11 1_555 1_555
H12 C16 1_555 1_555
C17 C13 1_555 1_555
H13 C17 1_555 1_555
H14 C17 1_555 1_555
C18 H15 1_555 1_555
C19 C8 1_555 1_555
H16 C19 1_555 1_555
H17 C19 1_555 1_555
C20 C5 1_555 1_555
C21 C15 1_555 1_555
C22 C21 1_555 1_555
H18 C22 1_555 1_555
C23 C18 1_555 1_555
H19 C23 1_555 1_555
C24 C20 1_555 1_555
H20 C24 1_555 1_555
C25 C21 1_555 1_555
H21 C25 1_555 1_555
C26 C24 1_555 1_555
H22 C26 1_555 1_555
C27 C22 1_555 1_555
H23 C27 1_555 1_555
H24 N1 1_555 1_555
C1 C14 1_555 1_555
C4 C7 1_555 1_555
C5 C6 1_555 1_555
C8 C11 1_555 1_555
C10 C12 1_555 1_555
C15 C20 1_555 1_555
C16 C17 1_555 1_555
C16 C19 1_555 1_555
C23 C27 1_555 1_555
C25 C26 1_555 1_555

#END
