
#######################################################################
#
#                 Cambridge Crystallographic Data Centre
#                                CCDC 
#
#######################################################################
#
# If this CIF has been generated from an entry in the Cambridge 
# Structural Database, then it will include bibliographic, chemical, 
# crystal, experimental, refinement or atomic coordinate data resulting 
# from the CCDC's data processing and validation procedures.
#
#######################################################################

data_QUBWOB
_chemical_formula_moiety         'C22 H18 N4 O1 S1'
_chemical_name_systematic        
2-(1-Benzyl-2-oxo-1,2-dihydro-3H-indol-3-ylidene)-N-phenylhydrazinecarbothioamide
_symmetry_cell_setting           triclinic
_symmetry_space_group_name_H-M   'P -1'
_symmetry_Int_Tables_number      2
_space_group_name_Hall           '-P 1'
loop_
_symmetry_equiv_pos_site_id
_symmetry_equiv_pos_as_xyz
1 x,y,z
2 -x,-y,-z
_cell_length_a                   11.2426(3)
_cell_length_b                   11.4899(3)
_cell_length_c                   30.3720(9)
_cell_angle_alpha                79.1210(10)
_cell_angle_beta                 88.628(2)
_cell_angle_gamma                81.8500(10)
_cell_volume                     3813.91
_exptl_crystal_colour            colorless
_exptl_crystal_description       block
_cell_formula_units_Z            8
loop_
_atom_site_label
_atom_site_type_symbol
_atom_site_fract_x
_atom_site_fract_y
_atom_site_fract_z
C1 C 0.4308(5) 0.1425(4) 0.59335(16)
H1 H 0.4028 0.0746 0.5875
C2 C 0.5234(5) 0.1865(5) 0.56815(18)
H2 H 0.5582 0.1481 0.5457
C3 C 0.5641(5) 0.2871(6) 0.5763(2)
H3 H 0.6265 0.3174 0.5593
C4 C 0.5134(5) 0.3432(4) 0.6094(2)
H4 H 0.5410 0.4117 0.6149
C5 C 0.4210(4) 0.2976(4) 0.63481(15)
H5 H 0.3868 0.3356 0.6575
C6 C 0.3792(4) 0.1967(4) 0.62687(14)
C7 C 0.2791(4) 0.1416(4) 0.65306(13)
H6 H 0.2046 0.1706 0.6366
H7 H 0.2945 0.0556 0.6549
C8 C 0.1921(4) 0.2667(4) 0.71005(15)
C9 C 0.1293(4) 0.3636(4) 0.68257(16)
H8 H 0.1285 0.3693 0.6516
C10 C 0.0681(4) 0.4515(4) 0.70247(19)
H9 H 0.0256 0.5185 0.6846
C11 C 0.0681(4) 0.4433(4) 0.74804(18)
H10 H 0.0255 0.5047 0.7605
C12 C 0.1304(4) 0.3452(4) 0.77597(15)
H11 H 0.1306 0.3396 0.8069
C13 C 0.1917(4) 0.2568(4) 0.75615(14)
C14 C 0.2628(4) 0.1443(3) 0.77424(14)
C15 C 0.3084(4) 0.0874(4) 0.73554(14)
C16 C 0.3670(4) -0.0559(3) 0.87169(13)
C17 C 0.3236(4) -0.0010(3) 0.94674(13)
C18 C 0.2405(5) 0.0756(4) 0.96406(15)
H12 H 0.1903 0.1339 0.9450
C19 C 0.2301(5) 0.0670(5) 1.01031(19)
H13 H 0.1739 0.1201 1.0222
C20 C 0.3022(6) -0.0190(5) 1.03778(17)
H14 H 0.2957 -0.0254 1.0687
C21 C 0.3837(5) -0.0955(5) 1.02036(16)
H15 H 0.4330 -0.1547 1.0395
C22 C 0.3951(5) -0.0873(4) 0.97432(15)
H16 H 0.4513 -0.1407 0.9626
N1 N 0.2633(3) 0.1661(3) 0.69810(11)
N2 N 0.2796(3) 0.1017(3) 0.81601(11)
N3 N 0.3455(3) -0.0072(3) 0.82758(10)
H17 H 0.3739 -0.0458 0.8071
N4 N 0.3272(3) 0.0179(3) 0.89942(10)
H18 H 0.2990 0.0892 0.8863
O1 O 0.3709(3) -0.0088(2) 0.73653(9)
S1 S 0.43742(12) -0.19389(9) 0.88417(4)
C23 C 0.8843(5) 0.2667(5) 0.91713(18)
H19 H 0.8416 0.2037 0.9280
C24 C 0.9653(7) 0.2974(7) 0.9441(2)
H20 H 0.9759 0.2560 0.9734
C25 C 1.0303(7) 0.3868(7) 0.9289(3)
H21 H 1.0868 0.4057 0.9473
C26 C 1.0119(5) 0.4485(5) 0.8865(2)
H22 H 1.0562 0.5103 0.8757
C27 C 0.9285(5) 0.4204(5) 0.85956(17)
H23 H 0.9148 0.4651 0.8308
C28 C 0.8655(4) 0.3277(4) 0.87440(15)
C29 C 0.7754(4) 0.2896(4) 0.84633(13)
H24 H 0.7998 0.2062 0.8445
H25 H 0.6983 0.2952 0.8614
C30 C 0.6915(4) 0.4712(4) 0.78936(15)
C31 C 0.6287(5) 0.5411(5) 0.81688(15)
H26 H 0.6255 0.5147 0.8477
C32 C 0.5713(5) 0.6508(5) 0.7969(2)
H27 H 0.5299 0.7006 0.8147
C33 C 0.5732(4) 0.6895(4) 0.75107(19)
H28 H 0.5332 0.7646 0.7386
C34 C 0.6338(4) 0.6183(4) 0.72355(16)
H29 H 0.6345 0.6435 0.6926
C35 C 0.6929(4) 0.5091(4) 0.74348(14)
C36 C 0.7632(4) 0.4136(3) 0.72551(14)
C37 C 0.8055(4) 0.3168(4) 0.76421(14)
C38 C 0.8705(4) 0.3113(3) 0.62843(13)
C39 C 0.8292(4) 0.4437(3) 0.55339(13)
C40 C 0.7483(5) 0.5406(4) 0.53586(16)
H30 H 0.7012 0.5825 0.5549
C41 C 0.7362(5) 0.5762(4) 0.49040(19)
H31 H 0.6802 0.6416 0.4786
C42 C 0.8067(6) 0.5153(5) 0.46216(17)
H32 H 0.7998 0.5398 0.4312
C43 C 0.8859(5) 0.4197(5) 0.47991(17)
H33 H 0.9324 0.3774 0.4609
C44 C 0.8996(5) 0.3830(4) 0.52544(15)
H34 H 0.9561 0.3178 0.5371
N5 N 0.7603(3) 0.3580(3) 0.80158(11)
N6 N 0.7811(3) 0.4142(3) 0.68355(11)
N7 N 0.8455(3) 0.3161(3) 0.67240(10)
H35 H 0.8710 0.2561 0.6930
N8 N 0.8344(3) 0.4142(3) 0.60078(11)
H36 H 0.8099 0.4730 0.6140
O2 O 0.8680(3) 0.2219(2) 0.76334(9)
S2 S 0.93895(12) 0.18469(9) 0.61623(4)
C45 C 0.9260(5) -0.2562(4) 0.89871(16)
H37 H 0.8977 -0.3298 0.9042
C46 C 1.0188(5) -0.2397(6) 0.92375(17)
H38 H 1.0545 -0.3023 0.9454
C47 C 1.0595(5) -0.1317(6) 0.91714(18)
H39 H 1.1216 -0.1197 0.9347
C48 C 1.0087(5) -0.0414(5) 0.88459(19)
H40 H 1.0366 0.0323 0.8798
C49 C 0.9157(4) -0.0588(4) 0.85858(15)
H41 H 0.8819 0.0032 0.8363
C50 C 0.8730(4) -0.1665(4) 0.86547(13)
C51 C 0.7730(4) -0.1932(4) 0.83898(13)
H42 H 0.7868 -0.2774 0.8371
H43 H 0.6983 -0.1791 0.8550
C52 C 0.6883(4) -0.0110(4) 0.78161(14)
C53 C 0.6259(4) 0.0589(4) 0.80913(15)
H44 H 0.6252 0.0342 0.8401
C54 C 0.5644(4) 0.1675(4) 0.78837(17)
H45 H 0.5214 0.2167 0.8060
C55 C 0.5645(4) 0.2051(4) 0.74273(17)
H46 H 0.5226 0.2792 0.7301
C56 C 0.6266(4) 0.1337(4) 0.71538(14)
H47 H 0.6262 0.1582 0.6844
C57 C 0.6888(4) 0.0256(4) 0.73531(13)
C58 C 0.7596(4) -0.0699(3) 0.71757(14)
C59 C 0.8039(4) -0.1651(4) 0.75693(13)
C60 C 0.8641(4) -0.1789(3) 0.62138(13)
C61 C 0.8310(4) -0.0578(3) 0.54467(13)
C62 C 0.8337(4) 0.0574(4) 0.52315(15)
H48 H 0.8338 0.1171 0.5400
C63 C 0.8365(5) 0.0871(4) 0.47749(16)
H49 H 0.8400 0.1658 0.4635
C64 C 0.8339(5) 0.0012(5) 0.45270(15)
H50 H 0.8343 0.0210 0.4216
C65 C 0.8308(4) -0.1137(4) 0.47322(14)
H51 H 0.8305 -0.1727 0.4561
C66 C 0.8281(4) -0.1441(4) 0.51944(13)
H52 H 0.8243 -0.2229 0.5333
N9 N 0.7595(3) -0.1233(3) 0.79404(11)
N10 N 0.7764(3) -0.0716(3) 0.67580(11)
N11 N 0.8413(3) -0.1703(3) 0.66506(10)
H53 H 0.8688 -0.2286 0.6860
N12 N 0.8267(3) -0.0803(3) 0.59219(10)
H54 H 0.7948 -0.0206 0.6038
O3 O 0.8657(3) -0.2600(2) 0.75620(9)
S3 S 0.93619(13) -0.30667(10) 0.61162(4)
C67 C 0.3862(5) 0.6784(4) 0.59113(17)
H55 H 0.3455 0.6231 0.5812
C68 C 0.4691(6) 0.7320(6) 0.56366(19)
H56 H 0.4823 0.7148 0.5351
C69 C 0.5310(6) 0.8090(6) 0.5779(2)
H57 H 0.5893 0.8431 0.5596
C70 C 0.5094(5) 0.8373(4) 0.6184(2)
H58 H 0.5522 0.8911 0.6282
C71 C 0.4224(4) 0.7856(4) 0.64582(15)
H59 H 0.4054 0.8071 0.6736
C72 C 0.3621(4) 0.7039(4) 0.63229(14)
C73 C 0.2704(4) 0.6419(4) 0.66060(13)
H60 H 0.1929 0.6662 0.6459
H61 H 0.2909 0.5564 0.6621
C74 C 0.1903(4) 0.7660(4) 0.71799(14)
C75 C 0.1282(4) 0.8646(4) 0.69089(15)
H62 H 0.1259 0.8712 0.6599
C76 C 0.0699(4) 0.9528(4) 0.71167(17)
H63 H 0.0280 1.0206 0.6941
C77 C 0.0710(4) 0.9446(4) 0.75736(16)
H64 H 0.0309 1.0064 0.7702
C78 C 0.1319(4) 0.8444(4) 0.78415(14)
H65 H 0.1327 0.8372 0.8152
C79 C 0.1913(4) 0.7556(3) 0.76387(13)
C80 C 0.2605(4) 0.6412(3) 0.78177(13)
C81 C 0.3030(4) 0.5853(4) 0.74258(14)
C82 C 0.3649(4) 0.4344(3) 0.87802(13)
C83 C 0.3328(4) 0.4814(3) 0.95437(13)
C84 C 0.3363(4) 0.5760(4) 0.97534(15)
H66 H 0.3378 0.6521 0.9584
C85 C 0.3376(5) 0.5592(5) 1.02159(17)
H67 H 0.3410 0.6238 1.0357
C86 C 0.3339(5) 0.4479(5) 1.04647(15)
H68 H 0.3334 0.4367 1.0776
C87 C 0.3311(4) 0.3540(4) 1.02593(15)
H69 H 0.3301 0.2780 1.0431
C88 C 0.3296(4) 0.3690(4) 0.98011(13)
H70 H 0.3264 0.3038 0.9664
N13 N 0.2590(3) 0.6647(3) 0.70560(11)
N14 N 0.2770(3) 0.5973(3) 0.82362(10)
N15 N 0.3411(3) 0.4869(3) 0.83436(10)
H71 H 0.3672 0.4493 0.8134
N16 N 0.3292(3) 0.5056(3) 0.90713(10)
H72 H 0.2993 0.5775 0.8953
O4 O 0.3647(3) 0.4898(2) 0.74290(9)
S4 S 0.43512(12) 0.29630(9) 0.88779(4)
loop_
_geom_bond_atom_site_label_1
_geom_bond_atom_site_label_2
_geom_bond_site_symmetry_1
_geom_bond_site_symmetry_2
C1 H1 1_555 1_555
C2 C1 1_555 1_555
H2 C2 1_555 1_555
C3 C2 1_555 1_555
H3 C3 1_555 1_555
C4 C3 1_555 1_555
H4 C4 1_555 1_555
C5 C4 1_555 1_555
H5 C5 1_555 1_555
C6 C1 1_555 1_555
C7 C6 1_555 1_555
H6 C7 1_555 1_555
H7 C7 1_555 1_555
C8 C9 1_555 1_555
C9 H8 1_555 1_555
C10 C9 1_555 1_555
H9 C10 1_555 1_555
C11 C10 1_555 1_555
H10 C11 1_555 1_555
C12 C11 1_555 1_555
H11 C12 1_555 1_555
C13 C8 1_555 1_555
C14 C13 1_555 1_555
C15 C14 1_555 1_555
C16 N3 1_555 1_555
C17 C18 1_555 1_555
C18 H12 1_555 1_555
C19 C18 1_555 1_555
H13 C19 1_555 1_555
C20 C19 1_555 1_555
H14 C20 1_555 1_555
C21 C20 1_555 1_555
H15 C21 1_555 1_555
C22 C17 1_555 1_555
H16 C22 1_555 1_555
N1 C7 1_555 1_555
N2 C14 1_555 1_555
N3 N2 1_555 1_555
H17 N3 1_555 1_555
N4 C16 1_555 1_555
H18 N4 1_555 1_555
O1 C15 1_555 1_555
S1 C16 1_555 1_555
C23 H19 1_555 1_555
C24 C23 1_555 1_555
H20 C24 1_555 1_555
C25 C24 1_555 1_555
H21 C25 1_555 1_555
C26 C25 1_555 1_555
H22 C26 1_555 1_555
C27 C26 1_555 1_555
H23 C27 1_555 1_555
C28 C23 1_555 1_555
C29 C28 1_555 1_555
H24 C29 1_555 1_555
H25 C29 1_555 1_555
C30 C31 1_555 1_555
C31 H26 1_555 1_555
C32 C31 1_555 1_555
H27 C32 1_555 1_555
C33 C32 1_555 1_555
H28 C33 1_555 1_555
C34 C33 1_555 1_555
H29 C34 1_555 1_555
C35 C30 1_555 1_555
C36 C35 1_555 1_555
C37 C36 1_555 1_555
C38 N7 1_555 1_555
C39 C40 1_555 1_555
C40 H30 1_555 1_555
C41 C40 1_555 1_555
H31 C41 1_555 1_555
C42 C41 1_555 1_555
H32 C42 1_555 1_555
C43 C42 1_555 1_555
H33 C43 1_555 1_555
C44 C39 1_555 1_555
H34 C44 1_555 1_555
N5 C29 1_555 1_555
N6 C36 1_555 1_555
N7 N6 1_555 1_555
H35 N7 1_555 1_555
N8 C38 1_555 1_555
H36 N8 1_555 1_555
O2 C37 1_555 1_555
S2 C38 1_555 1_555
C45 H37 1_555 1_555
C46 C45 1_555 1_555
H38 C46 1_555 1_555
C47 C46 1_555 1_555
H39 C47 1_555 1_555
C48 C47 1_555 1_555
H40 C48 1_555 1_555
C49 C48 1_555 1_555
H41 C49 1_555 1_555
C50 C45 1_555 1_555
C51 C50 1_555 1_555
H42 C51 1_555 1_555
H43 C51 1_555 1_555
C52 C53 1_555 1_555
C53 H44 1_555 1_555
C54 C53 1_555 1_555
H45 C54 1_555 1_555
C55 C54 1_555 1_555
H46 C55 1_555 1_555
C56 C55 1_555 1_555
H47 C56 1_555 1_555
C57 C52 1_555 1_555
C58 C57 1_555 1_555
C59 C58 1_555 1_555
C60 N11 1_555 1_555
C61 C62 1_555 1_555
C62 H48 1_555 1_555
C63 C62 1_555 1_555
H49 C63 1_555 1_555
C64 C63 1_555 1_555
H50 C64 1_555 1_555
C65 C64 1_555 1_555
H51 C65 1_555 1_555
C66 C61 1_555 1_555
H52 C66 1_555 1_555
N9 C51 1_555 1_555
N10 C58 1_555 1_555
N11 N10 1_555 1_555
H53 N11 1_555 1_555
N12 C60 1_555 1_555
H54 N12 1_555 1_555
O3 C59 1_555 1_555
S3 C60 1_555 1_555
C67 H55 1_555 1_555
C68 C67 1_555 1_555
H56 C68 1_555 1_555
C69 C68 1_555 1_555
H57 C69 1_555 1_555
C70 C69 1_555 1_555
H58 C70 1_555 1_555
C71 C70 1_555 1_555
H59 C71 1_555 1_555
C72 C67 1_555 1_555
C73 C72 1_555 1_555
H60 C73 1_555 1_555
H61 C73 1_555 1_555
C74 C75 1_555 1_555
C75 H62 1_555 1_555
C76 C75 1_555 1_555
H63 C76 1_555 1_555
C77 C76 1_555 1_555
H64 C77 1_555 1_555
C78 C77 1_555 1_555
H65 C78 1_555 1_555
C79 C74 1_555 1_555
C80 C79 1_555 1_555
C81 C80 1_555 1_555
C82 N15 1_555 1_555
C83 C84 1_555 1_555
C84 H66 1_555 1_555
C85 C84 1_555 1_555
H67 C85 1_555 1_555
C86 C85 1_555 1_555
H68 C86 1_555 1_555
C87 C86 1_555 1_555
H69 C87 1_555 1_555
C88 C83 1_555 1_555
H70 C88 1_555 1_555
N13 C73 1_555 1_555
N14 C80 1_555 1_555
N15 N14 1_555 1_555
H71 N15 1_555 1_555
N16 C82 1_555 1_555
H72 N16 1_555 1_555
O4 C81 1_555 1_555
S4 C82 1_555 1_555
C5 C6 1_555 1_555
C8 N1 1_555 1_555
C12 C13 1_555 1_555
C15 N1 1_555 1_555
C17 N4 1_555 1_555
C21 C22 1_555 1_555
C27 C28 1_555 1_555
C30 N5 1_555 1_555
C34 C35 1_555 1_555
C37 N5 1_555 1_555
C39 N8 1_555 1_555
C43 C44 1_555 1_555
C49 C50 1_555 1_555
C52 N9 1_555 1_555
C56 C57 1_555 1_555
C59 N9 1_555 1_555
C61 N12 1_555 1_555
C65 C66 1_555 1_555
C71 C72 1_555 1_555
C74 N13 1_555 1_555
C78 C79 1_555 1_555
C81 N13 1_555 1_555
C83 N16 1_555 1_555
C87 C88 1_555 1_555

#END
