
#######################################################################
#
#                 Cambridge Crystallographic Data Centre
#                                CCDC 
#
#######################################################################
#
# If this CIF has been generated from an entry in the Cambridge 
# Structural Database, then it will include bibliographic, chemical, 
# crystal, experimental, refinement or atomic coordinate data resulting 
# from the CCDC's data processing and validation procedures.
#
#######################################################################

data_QUBWEP
_chemical_formula_moiety         'N4 S4'
_chemical_name_systematic        'Tetrasulfur tetranitride'
_symmetry_cell_setting           monoclinic
_symmetry_space_group_name_H-M   'P 21/n'
_symmetry_Int_Tables_number      14
_space_group_name_Hall           '-P 2yn'
loop_
_symmetry_equiv_pos_site_id
_symmetry_equiv_pos_as_xyz
1 x,y,z
2 1/2-x,1/2+y,1/2-z
3 -x,-y,-z
4 1/2+x,1/2-y,1/2+z
_cell_length_a                   8.7286(4)
_cell_length_b                   7.0783(4)
_cell_length_c                   8.6377(4)
_cell_angle_alpha                90
_cell_angle_beta                 93.7219(18)
_cell_angle_gamma                90
_cell_volume                     532.543
_exptl_crystal_colour            orange
_exptl_crystal_description       prism
_cell_formula_units_Z            4
loop_
_atom_site_label
_atom_site_type_symbol
_atom_site_fract_x
_atom_site_fract_y
_atom_site_fract_z
S1 S 0.00474(2) 0.92129(3) 0.30497(2)
S2 S 0.15182(2) 0.70830(2) 0.09953(2)
S3 S -0.14978(2) 0.79953(3) 0.05749(2)
S4 S -0.04133(2) 0.54467(3) 0.27227(2)
N1 N 0.01023(7) 0.76476(9) -0.02496(6)
N2 N -0.02796(8) 0.72214(11) 0.39194(7)
N3 N -0.18191(7) 0.60332(10) 0.14674(8)
N4 N 0.16413(7) 0.88368(9) 0.22051(8)
loop_
_geom_bond_atom_site_label_1
_geom_bond_atom_site_label_2
_geom_bond_site_symmetry_1
_geom_bond_site_symmetry_2
S1 N2 1_555 1_555
S2 N1 1_555 1_555
S3 N1 1_555 1_555
S4 N2 1_555 1_555
N3 S3 1_555 1_555
N4 S1 1_555 1_555
S2 N4 1_555 1_555
S4 N3 1_555 1_555

#END
