
#######################################################################
#
#                 Cambridge Crystallographic Data Centre
#                                CCDC 
#
#######################################################################
#
# If this CIF has been generated from an entry in the Cambridge 
# Structural Database, then it will include bibliographic, chemical, 
# crystal, experimental, refinement or atomic coordinate data resulting 
# from the CCDC's data processing and validation procedures.
#
#######################################################################

data_QUCGUS
_chemical_formula_moiety         'C17 H18 Br1 N1 O5'
_chemical_name_systematic        
'Ethyl 2-(4-bromophenyl)-3-nitro-6-oxobicyclo[2.2.2]octane-1-carboxylate'
_symmetry_cell_setting           orthorhombic
_symmetry_space_group_name_H-M   'P 21 21 21'
_symmetry_Int_Tables_number      19
_space_group_name_Hall           'P 2ac 2ab'
loop_
_symmetry_equiv_pos_site_id
_symmetry_equiv_pos_as_xyz
1 x,y,z
2 1/2-x,-y,1/2+z
3 -x,1/2+y,1/2-z
4 1/2+x,1/2-y,-z
_cell_length_a                   6.6023(6)
_cell_length_b                   7.8736(7)
_cell_length_c                   32.754(3)
_cell_angle_alpha                90
_cell_angle_beta                 90
_cell_angle_gamma                90
_cell_volume                     1702.68
_exptl_crystal_colour            colorless
_exptl_crystal_description       prismatic
_cell_formula_units_Z            4
loop_
_atom_site_label
_atom_site_type_symbol
_atom_site_fract_x
_atom_site_fract_y
_atom_site_fract_z
Br1 Br 0.21864(10) 0.63595(8) 0.225162(13)
N1 N -0.3601(5) 0.3002(4) 0.40984(12)
O1 O 0.3319(4) 0.6556(4) 0.43781(8)
O2 O -0.4332(5) 0.3167(5) 0.37620(12)
O3 O -0.4438(4) 0.2230(4) 0.43697(11)
O4 O -0.0697(5) 0.9793(4) 0.42423(10)
O5 O 0.1305(4) 0.8550(3) 0.37937(7)
C1 C 0.1647(5) 0.5934(4) 0.44110(9)
C2 C -0.0316(5) 0.6774(4) 0.42776(9)
C3 C -0.1473(5) 0.5564(4) 0.39706(9)
H1 H -0.2875 0.5968 0.3956
C4 C -0.1531(5) 0.3780(4) 0.41672(10)
H2 H -0.0539 0.3072 0.4024
C5 C -0.0952(5) 0.3799(5) 0.46135(11)
H3 H -0.1173 0.2682 0.4738
C6 C 0.1288(5) 0.4269(5) 0.46221(12)
H4 H 0.1743 0.4346 0.4903
H5 H 0.2068 0.3386 0.4488
C7 C -0.1630(5) 0.6915(4) 0.46645(10)
H6 H -0.0918 0.7583 0.4868
H7 H -0.2881 0.7501 0.4599
C8 C -0.2126(6) 0.5166(5) 0.48421(10)
H8 H -0.1768 0.5138 0.5129
H9 H -0.3567 0.4950 0.4819
C9 C -0.0653(5) 0.5570(4) 0.35418(10)
C10 C 0.1242(5) 0.4909(4) 0.34479(11)
H10 H 0.1970 0.4333 0.3648
C11 C 0.2069(6) 0.5098(5) 0.30596(11)
H11 H 0.3340 0.4653 0.3000
C12 C 0.0998(7) 0.5936(5) 0.27703(11)
C13 C -0.0913(7) 0.6529(6) 0.28434(11)
H12 H -0.1658 0.7041 0.2636
C14 C -0.1722(6) 0.6355(5) 0.32313(11)
H13 H -0.3011 0.6776 0.3284
C15 C 0.0054(5) 0.8544(5) 0.41034(10)
C16 C 0.1796(7) 1.0174(5) 0.36165(12)
H14 H 0.2376 1.0915 0.3822
H15 H 0.0581 1.0707 0.3510
C17 C 0.3248(10) 0.9895(7) 0.32878(18)
H16 H 0.4466 0.9412 0.3398
H17 H 0.3555 1.0959 0.3159
H18 H 0.2677 0.9131 0.3090
loop_
_geom_bond_atom_site_label_1
_geom_bond_atom_site_label_2
_geom_bond_site_symmetry_1
_geom_bond_site_symmetry_2
Br1 C12 1_555 1_555
N1 O2 1_555 1_555
O1 C1 1_555 1_555
O3 N1 1_555 1_555
O4 C15 1_555 1_555
O5 C15 1_555 1_555
C1 C2 1_555 1_555
C2 C3 1_555 1_555
C3 H1 1_555 1_555
C4 N1 1_555 1_555
H2 C4 1_555 1_555
C5 C4 1_555 1_555
H3 C5 1_555 1_555
C6 C1 1_555 1_555
H4 C6 1_555 1_555
H5 C6 1_555 1_555
C7 C2 1_555 1_555
H6 C7 1_555 1_555
H7 C7 1_555 1_555
C8 C5 1_555 1_555
H8 C8 1_555 1_555
H9 C8 1_555 1_555
C9 C3 1_555 1_555
C10 C9 1_555 1_555
H10 C10 1_555 1_555
C11 C10 1_555 1_555
H11 C11 1_555 1_555
C12 C11 1_555 1_555
C13 C12 1_555 1_555
H12 C13 1_555 1_555
C14 C9 1_555 1_555
H13 C14 1_555 1_555
C15 C2 1_555 1_555
C16 O5 1_555 1_555
H14 C16 1_555 1_555
H15 C16 1_555 1_555
C17 C16 1_555 1_555
H16 C17 1_555 1_555
H17 C17 1_555 1_555
H18 C17 1_555 1_555
C3 C4 1_555 1_555
C5 C6 1_555 1_555
C7 C8 1_555 1_555
C13 C14 1_555 1_555

#END
