
#######################################################################
#
#                 Cambridge Crystallographic Data Centre
#                                CCDC 
#
#######################################################################
#
# If this CIF has been generated from an entry in the Cambridge 
# Structural Database, then it will include bibliographic, chemical, 
# crystal, experimental, refinement or atomic coordinate data resulting 
# from the CCDC's data processing and validation procedures.
#
#######################################################################

data_QUCKIJ
_chemical_name_common            
'6-(But-2-en-2-yl)-2,4,7-trichloro-3-hydroxy-8-methoxy-1,9-dimethyl-11H-dibenzo[b,e][1,4]dioxepin-11-one monohydrate'
_chemical_formula_moiety         'C20 H17 Cl3 O5,H2 O1'
_chemical_name_systematic        
'(E)-2,4,7-trichloro-3-hydroxy-8-methoxy-1,9-dimethyl-6-(1-methyl-1-propenyl)-11H-dibenzo[b,e][1,4]dioxepin-11-one monohydrate'
_symmetry_cell_setting           monoclinic
_symmetry_space_group_name_H-M   'P 21/c'
_symmetry_Int_Tables_number      14
_space_group_name_Hall           '-P 2ybc'
loop_
_symmetry_equiv_pos_site_id
_symmetry_equiv_pos_as_xyz
1 x,y,z
2 -x,1/2+y,1/2-z
3 -x,-y,-z
4 x,1/2-y,1/2+z
_cell_length_a                   7.7706(4)
_cell_length_b                   11.0374(5)
_cell_length_c                   23.9428(10)
_cell_angle_alpha                90
_cell_angle_beta                 96.707(2)
_cell_angle_gamma                90
_cell_volume                     2039.45
_exptl_crystal_colour            colorless
_exptl_crystal_description       rod
_cell_formula_units_Z            4
loop_
_atom_site_label
_atom_site_type_symbol
_atom_site_fract_x
_atom_site_fract_y
_atom_site_fract_z
Cl1 Cl 1.19555(8) 1.09399(5) 0.19154(2)
Cl2 Cl 1.27489(9) 1.13429(5) -0.02688(2)
Cl3 Cl 0.51380(6) 0.74321(5) 0.19233(2)
C1 C 1.2062(2) 0.84575(16) 0.07006(7)
C2 C 1.1823(2) 0.90311(15) 0.12065(7)
C3 C 1.2058(2) 1.02676(17) 0.12732(8)
C4 C 1.2405(2) 1.09852(17) 0.08192(8)
C5 C 1.2461(2) 1.04181(17) 0.02995(8)
C6 C 1.2317(2) 0.91718(16) 0.02277(8)
C7 C 1.0090(2) 0.66126(15) 0.12272(7)
C8 C 0.8747(2) 0.57758(16) 0.11380(8)
C9 C 0.7239(2) 0.60330(17) 0.13765(8)
C10 C 0.7088(2) 0.71040(16) 0.16780(7)
C11 C 0.8453(2) 0.79319(15) 0.17737(7)
C12 C 0.9971(2) 0.76342(15) 0.15515(7)
C13 C 1.2414(2) 0.71340(17) 0.06833(8)
C14 C 1.2365(3) 0.8636(2) -0.03500(8)
H1 H 1.1706 0.9138 -0.0624
H2 H 1.1876 0.7837 -0.0361
H3 H 1.3543 0.8594 -0.0432
C15 C 0.8942(3) 0.46381(19) 0.08076(10)
H4 H 0.8695 0.4809 0.0413
H5 H 0.8147 0.4036 0.0913
H6 H 1.0106 0.4342 0.0886
C16 C 0.5569(4) 0.4478(2) 0.17417(12)
H7 H 0.6588 0.4005 0.1852
H8 H 0.4611 0.3948 0.1630
H9 H 0.5310 0.4967 0.2053
C17 C 0.8290(2) 0.91073(16) 0.20689(8)
C18 C 0.9100(4) 0.9166(2) 0.26682(9)
H10 H 0.9067 0.9985 0.2801
H11 H 1.0282 0.8899 0.2691
H12 H 0.8471 0.8652 0.2896
C19 C 0.7478(3) 1.00046(18) 0.17871(9)
H13 H 0.7012 0.9828 0.1421
C20 C 0.7211(4) 1.1273(2) 0.19822(13)
H14 H 0.7663 1.1347 0.2371
H15 H 0.5995 1.1457 0.1938
H16 H 0.7803 1.1829 0.1762
O1 O 1.3465(2) 0.67026(14) 0.04114(6)
O2 O 1.16197(17) 0.63383(11) 0.10058(6)
O3 O 1.14180(15) 0.83871(11) 0.16655(5)
O4 O 1.2591(3) 1.21752(13) 0.09119(7)
H17 H 1.2950 1.2497 0.0639
O5 O 0.58658(19) 0.52480(13) 0.12786(6)
O6 O 0.3826(3) 0.38791(17) 0.02997(9)
H18 H 0.465(5) 0.372(3) 0.0093(15)
H19 H 0.396(4) 0.449(3) 0.0451(14)
loop_
_geom_bond_atom_site_label_1
_geom_bond_atom_site_label_2
_geom_bond_site_symmetry_1
_geom_bond_site_symmetry_2
Cl1 C3 1_555 1_555
Cl2 C5 1_555 1_555
Cl3 C10 1_555 1_555
C1 C2 1_555 1_555
C2 C3 1_555 1_555
C3 C4 1_555 1_555
C4 C5 1_555 1_555
C5 C6 1_555 1_555
C6 C1 1_555 1_555
C7 C8 1_555 1_555
C8 C9 1_555 1_555
C9 C10 1_555 1_555
C10 C11 1_555 1_555
C11 C12 1_555 1_555
C12 C7 1_555 1_555
C13 C1 1_555 1_555
C14 C6 1_555 1_555
H1 C14 1_555 1_555
H2 C14 1_555 1_555
H3 C14 1_555 1_555
C15 C8 1_555 1_555
H4 C15 1_555 1_555
H5 C15 1_555 1_555
H6 C15 1_555 1_555
C16 H7 1_555 1_555
H8 C16 1_555 1_555
H9 C16 1_555 1_555
C17 C11 1_555 1_555
C18 C17 1_555 1_555
H10 C18 1_555 1_555
H11 C18 1_555 1_555
H12 C18 1_555 1_555
C19 C17 1_555 1_555
H13 C19 1_555 1_555
C20 C19 1_555 1_555
H14 C20 1_555 1_555
H15 C20 1_555 1_555
H16 C20 1_555 1_555
O1 C13 1_555 1_555
O2 C7 1_555 1_555
O3 C2 1_555 1_555
O4 C4 1_555 1_555
H17 O4 1_555 1_555
O5 C9 1_555 1_555
O6 H18 1_555 1_555
H19 O6 1_555 1_555
C12 O3 1_555 1_555
C13 O2 1_555 1_555
C16 O5 1_555 1_555

#END
