
#######################################################################
#
#                 Cambridge Crystallographic Data Centre
#                                CCDC 
#
#######################################################################
#
# If this CIF has been generated from an entry in the Cambridge 
# Structural Database, then it will include bibliographic, chemical, 
# crystal, experimental, refinement or atomic coordinate data resulting 
# from the CCDC's data processing and validation procedures.
#
#######################################################################

data_QUCKOP
_chemical_formula_moiety         'C16 H17 N3 O1'
_chemical_name_systematic        
N'-(4-(Dimethylamino)benzylidene)benzohydrazide
_symmetry_cell_setting           orthorhombic
_symmetry_space_group_name_H-M   'P 21 21 21'
_symmetry_Int_Tables_number      19
_space_group_name_Hall           'P 2ac 2ab'
loop_
_symmetry_equiv_pos_site_id
_symmetry_equiv_pos_as_xyz
1 x,y,z
2 1/2-x,-y,1/2+z
3 1/2+x,1/2-y,-z
4 -x,1/2+y,1/2-z
_cell_length_a                   5.131(3)
_cell_length_b                   8.446(4)
_cell_length_c                   32.502(16)
_cell_angle_alpha                90
_cell_angle_beta                 90
_cell_angle_gamma                90
_cell_volume                     1408.52
_exptl_crystal_colour            red
_exptl_crystal_description       block
_cell_formula_units_Z            4
_exptl_crystal_recrystallization_method ethanol
loop_
_atom_site_label
_atom_site_type_symbol
_atom_site_fract_x
_atom_site_fract_y
_atom_site_fract_z
N1 N 0.8782(6) 0.6093(3) 0.16374(9)
H1 H 1.0323 0.6000 0.1738
N2 N 0.8356(6) 0.5902(4) 0.12192(9)
N3 N 1.0131(7) 0.4725(4) -0.07166(10)
O1 O 0.4487(5) 0.6576(3) 0.17584(7)
C1 C 0.6729(8) 0.6429(4) 0.18839(11)
C2 C 0.7361(7) 0.6580(4) 0.23326(10)
C3 C 0.9403(7) 0.5772(4) 0.25149(12)
H2 H 1.0500 0.5149 0.2355
C4 C 0.9818(8) 0.5887(5) 0.29326(12)
H3 H 1.1166 0.5321 0.3055
C5 C 0.8242(9) 0.6838(5) 0.31681(12)
H4 H 0.8557 0.6944 0.3448
C6 C 0.6207(9) 0.7630(4) 0.29898(12)
H5 H 0.5119 0.8259 0.3150
C7 C 0.5770(8) 0.7494(4) 0.25716(12)
H6 H 0.4379 0.8029 0.2452
C8 C 1.0327(7) 0.5383(4) 0.10171(11)
H7 H 1.1840 0.5108 0.1157
C9 C 1.0231(7) 0.5218(4) 0.05744(11)
C10 C 0.8437(8) 0.5959(4) 0.03323(11)
H8 H 0.7180 0.6588 0.0458
C11 C 0.8400(9) 0.5818(4) -0.00856(11)
H9 H 0.7136 0.6358 -0.0235
C12 C 1.0201(9) 0.4892(5) -0.02920(12)
C13 C 1.2002(8) 0.4120(5) -0.00492(13)
H10 H 1.3229 0.3462 -0.0172
C14 C 1.2020(7) 0.4303(5) 0.03710(12)
H11 H 1.3297 0.3786 0.0523
C15 C 1.2059(9) 0.3741(5) -0.09163(11)
H12 H 1.2164 0.2740 -0.0777
H13 H 1.3725 0.4257 -0.0906
H14 H 1.1568 0.3574 -0.1198
C16 C 0.8855(10) 0.5890(4) -0.09662(11)
H15 H 0.7058 0.5968 -0.0887
H16 H 0.8963 0.5584 -0.1250
H17 H 0.9690 0.6897 -0.0929
loop_
_geom_bond_atom_site_label_1
_geom_bond_atom_site_label_2
_geom_bond_site_symmetry_1
_geom_bond_site_symmetry_2
N1 H1 1_555 1_555
N2 N1 1_555 1_555
N3 C12 1_555 1_555
O1 C1 1_555 1_555
C1 N1 1_555 1_555
C2 C1 1_555 1_555
C3 C2 1_555 1_555
H2 C3 1_555 1_555
C4 C3 1_555 1_555
H3 C4 1_555 1_555
C5 C4 1_555 1_555
H4 C5 1_555 1_555
C6 C5 1_555 1_555
H5 C6 1_555 1_555
C7 C2 1_555 1_555
H6 C7 1_555 1_555
C8 N2 1_555 1_555
H7 C8 1_555 1_555
C9 C8 1_555 1_555
C10 C9 1_555 1_555
H8 C10 1_555 1_555
C11 C10 1_555 1_555
H9 C11 1_555 1_555
C12 C11 1_555 1_555
C13 C12 1_555 1_555
H10 C13 1_555 1_555
C14 C9 1_555 1_555
H11 C14 1_555 1_555
C15 N3 1_555 1_555
H12 C15 1_555 1_555
H13 C15 1_555 1_555
H14 C15 1_555 1_555
C16 N3 1_555 1_555
H15 C16 1_555 1_555
H16 C16 1_555 1_555
H17 C16 1_555 1_555
C6 C7 1_555 1_555
C13 C14 1_555 1_555

#END
