
#######################################################################
#
#                 Cambridge Crystallographic Data Centre
#                                CCDC 
#
#######################################################################
#
# If this CIF has been generated from an entry in the Cambridge 
# Structural Database, then it will include bibliographic, chemical, 
# crystal, experimental, refinement or atomic coordinate data resulting 
# from the CCDC's data processing and validation procedures.
#
#######################################################################

data_QUCNIM
_chemical_formula_moiety         'C14 H11 Br1 N2 O3,H2 O1'
_chemical_name_systematic        
"(E)-N'-(4-Bromobenzylidene)-3,4-dihydroxybenzohydrazide monohydrate"
_symmetry_cell_setting           monoclinic
_symmetry_space_group_name_H-M   'P 21/c'
_symmetry_Int_Tables_number      14
_space_group_name_Hall           '-P 2ybc'
loop_
_symmetry_equiv_pos_site_id
_symmetry_equiv_pos_as_xyz
1 x,y,z
2 -x,1/2+y,1/2-z
3 -x,-y,-z
4 x,1/2-y,1/2+z
_cell_length_a                   7.8119(5)
_cell_length_b                   13.8504(9)
_cell_length_c                   13.0764(9)
_cell_angle_alpha                90
_cell_angle_beta                 91.7080(10)
_cell_angle_gamma                90
_cell_volume                     1414.21
_exptl_crystal_colour            'light yellow'
_exptl_crystal_description       block
_cell_formula_units_Z            4
loop_
_atom_site_label
_atom_site_type_symbol
_atom_site_fract_x
_atom_site_fract_y
_atom_site_fract_z
Br1 Br 1.08523(6) 0.16874(3) 0.20512(4)
O1 O 0.2102(4) 1.04968(18) -0.1288(2)
H1 H 0.2496 1.0583 -0.1855
O2 O 0.4375(4) 0.94026(17) -0.23369(19)
H2 H 0.4882 0.8962 -0.2617
O3 O 0.4997(3) 0.72271(16) 0.16417(17)
N1 N 0.5896(3) 0.66104(17) 0.0155(2)
H5 H 0.5932 0.6652 -0.0500
N2 N 0.6628(3) 0.58384(19) 0.0659(2)
C1 C 0.4411(4) 0.8144(2) 0.0139(2)
C2 C 0.4779(4) 0.8365(2) -0.0866(3)
H6 H 0.5545 0.7982 -0.1215
C3 C 0.4030(5) 0.9141(2) -0.1350(3)
C4 C 0.2885(4) 0.9734(2) -0.0836(3)
C5 C 0.2535(4) 0.9517(2) 0.0159(3)
H7 H 0.1770 0.9901 0.0508
C6 C 0.3290(4) 0.8743(2) 0.0652(3)
H8 H 0.3050 0.8619 0.1331
C7 C 0.5118(4) 0.7306(2) 0.0699(3)
C8 C 0.7358(4) 0.5211(2) 0.0103(3)
H9 H 0.7339 0.5285 -0.0604
C9 C 0.8220(4) 0.4381(2) 0.0570(3)
C10 C 0.8858(4) 0.3655(2) -0.0043(3)
H10 H 0.8742 0.3708 -0.0750
C11 C 0.9666(4) 0.2852(2) 0.0382(3)
H11 H 1.0085 0.2367 -0.0034
C12 C 0.9835(4) 0.2786(2) 0.1423(3)
C13 C 0.9267(5) 0.3516(3) 0.2044(3)
H12 H 0.9435 0.3474 0.2750
C14 C 0.8455(4) 0.4301(2) 0.1623(3)
H13 H 0.8056 0.4786 0.2045
O4 O 0.4061(3) 0.12989(17) 0.70360(19)
H3 H 0.4361 0.1660 0.7536
H4 H 0.4622 0.0787 0.7172
loop_
_geom_bond_atom_site_label_1
_geom_bond_atom_site_label_2
_geom_bond_site_symmetry_1
_geom_bond_site_symmetry_2
Br1 C12 1_555 1_555
O1 H1 1_555 1_555
O2 H2 1_555 1_555
O3 C7 1_555 1_555
O4 H3 1_555 1_555
H4 O4 1_555 1_555
N1 H5 1_555 1_555
N2 N1 1_555 1_555
C1 C2 1_555 1_555
C2 H6 1_555 1_555
C3 O2 1_555 1_555
C4 O1 1_555 1_555
C5 C4 1_555 1_555
H7 C5 1_555 1_555
C6 C1 1_555 1_555
H8 C6 1_555 1_555
C7 N1 1_555 1_555
C8 N2 1_555 1_555
H9 C8 1_555 1_555
C9 C8 1_555 1_555
C10 C9 1_555 1_555
H10 C10 1_555 1_555
C11 C10 1_555 1_555
H11 C11 1_555 1_555
C12 C11 1_555 1_555
C13 C12 1_555 1_555
H12 C13 1_555 1_555
C14 C9 1_555 1_555
H13 C14 1_555 1_555
C1 C7 1_555 1_555
C2 C3 1_555 1_555
C3 C4 1_555 1_555
C5 C6 1_555 1_555
C13 C14 1_555 1_555

#END
