
#######################################################################
#
#                 Cambridge Crystallographic Data Centre
#                                CCDC 
#
#######################################################################
#
# If this CIF has been generated from an entry in the Cambridge 
# Structural Database, then it will include bibliographic, chemical, 
# crystal, experimental, refinement or atomic coordinate data resulting 
# from the CCDC's data processing and validation procedures.
#
#######################################################################

data_QUCPUB01
_chemical_formula_moiety         'C21 H22 O3'
_chemical_name_systematic        't-butyl 3-(2-benzoyl-6-methylphenyl)acrylate'
_symmetry_cell_setting           triclinic
_symmetry_space_group_name_H-M   'P -1'
_symmetry_Int_Tables_number      2
_space_group_name_Hall           '-P 1'
loop_
_symmetry_equiv_pos_site_id
_symmetry_equiv_pos_as_xyz
1 x,y,z
2 -x,-y,-z
_cell_length_a                   8.49270(10)
_cell_length_b                   11.0891(4)
_cell_length_c                   11.33290(10)
_cell_angle_alpha                73.378(18)
_cell_angle_beta                 73.320(16)
_cell_angle_gamma                68.496(17)
_cell_volume                     931.429
_exptl_crystal_colour            colorless
_exptl_crystal_description       blocks
_chemical_melting_point          '82-86 deg.C'
_cell_formula_units_Z            2
_exptl_crystal_recrystallization_method 'hexane/ethyl acetate'
loop_
_atom_site_label
_atom_site_type_symbol
_atom_site_fract_x
_atom_site_fract_y
_atom_site_fract_z
C1 C 0.49535(14) 0.15614(10) 0.21562(10)
C2 C 0.62249(14) 0.18665(11) 0.11296(11)
C3 C 0.78131(16) 0.17864(12) 0.13233(13)
C4 C 0.81376(17) 0.14034(12) 0.25337(14)
C5 C 0.68776(18) 0.10995(13) 0.35552(14)
C6 C 0.52841(17) 0.11802(12) 0.33715(12)
C7 C 0.32594(14) 0.15823(10) 0.19869(10)
C8 C 0.28151(13) 0.21039(11) 0.06988(10)
C9 C 0.26734(13) 0.34086(10) 0.00241(9)
C10 C 0.23439(14) 0.37899(11) -0.12066(10)
C11 C 0.21509(15) 0.28630(12) -0.17211(11)
C12 C 0.22819(16) 0.15779(12) -0.10503(12)
C13 C 0.25988(15) 0.12002(12) 0.01613(11)
C14 C 0.21795(17) 0.51833(12) -0.19401(11)
C15 C 0.28741(14) 0.43970(10) 0.05602(10)
C16 C 0.21603(14) 0.46178(10) 0.17238(10)
C17 C 0.25155(14) 0.56253(10) 0.21428(9)
C18 C 0.15416(15) 0.68699(11) 0.38361(10)
C19 C 0.1439(2) 0.82076(13) 0.29614(14)
C20 C 0.32197(18) 0.62606(14) 0.43194(13)
C21 C -0.0018(2) 0.69547(18) 0.49209(14)
O1 O 0.13890(10) 0.59295(8) 0.32022(7)
O2 O 0.22775(11) 0.11088(8) 0.28607(7)
O3 O 0.36743(11) 0.60977(9) 0.16023(8)
H1 H 0.6022(19) 0.2149(14) 0.0263(14)
H2 H 0.873(2) 0.2007(15) 0.0579(14)
H3 H 0.925(2) 0.1366(16) 0.2657(15)
H4 H 0.707(2) 0.0848(17) 0.4431(17)
H5 H 0.4390(19) 0.0975(14) 0.4076(14)
H6 H 0.192(2) 0.3133(15) -0.2572(15)
H7 H 0.2143(19) 0.0933(14) -0.1437(13)
H8 H 0.2726(19) 0.0264(15) 0.0657(13)
H9 H 0.328(2) 0.5402(15) -0.2067(15)
H10 H 0.1951(19) 0.5279(15) -0.2804(14)
H11 H 0.121(2) 0.5852(15) -0.1479(14)
H12 H 0.3619(19) 0.4956(14) -0.0006(13)
H13 H 0.1371(19) 0.4162(15) 0.2317(14)
H14 H 0.254(3) 0.8162(19) 0.2269(19)
H15 H 0.042(3) 0.851(2) 0.259(2)
H16 H 0.131(2) 0.8878(17) 0.3471(16)
H17 H 0.328(2) 0.5327(19) 0.4847(17)
H18 H 0.427(2) 0.6221(16) 0.3618(15)
H19 H 0.324(2) 0.6818(17) 0.4885(16)
H20 H -0.107(2) 0.7389(18) 0.4552(17)
H21 H -0.001(2) 0.7537(17) 0.5439(16)
H22 H 0.003(3) 0.604(2) 0.5448(19)
loop_
_geom_bond_atom_site_label_1
_geom_bond_atom_site_label_2
_geom_bond_site_symmetry_1
_geom_bond_site_symmetry_2
C1 C2 1_555 1_555
C2 C3 1_555 1_555
C3 C4 1_555 1_555
C4 C5 1_555 1_555
C5 C6 1_555 1_555
C6 C1 1_555 1_555
C7 C1 1_555 1_555
C8 C7 1_555 1_555
C9 C8 1_555 1_555
C10 C9 1_555 1_555
C11 C10 1_555 1_555
C12 C11 1_555 1_555
C13 C8 1_555 1_555
C14 C10 1_555 1_555
C15 C9 1_555 1_555
C16 C15 1_555 1_555
C17 C16 1_555 1_555
C18 C19 1_555 1_555
C19 H14 1_555 1_555
C20 C18 1_555 1_555
C21 C18 1_555 1_555
O1 C17 1_555 1_555
O2 C7 1_555 1_555
O3 C17 1_555 1_555
H1 C2 1_555 1_555
H2 C3 1_555 1_555
H3 C4 1_555 1_555
H4 C5 1_555 1_555
H5 C6 1_555 1_555
H6 C11 1_555 1_555
H7 C12 1_555 1_555
H8 C13 1_555 1_555
H9 C14 1_555 1_555
H10 C14 1_555 1_555
H11 C14 1_555 1_555
H12 C15 1_555 1_555
H13 C16 1_555 1_555
H15 C19 1_555 1_555
H16 C19 1_555 1_555
H17 C20 1_555 1_555
H18 C20 1_555 1_555
H19 C20 1_555 1_555
H20 C21 1_555 1_555
H21 C21 1_555 1_555
H22 C21 1_555 1_555
C12 C13 1_555 1_555
C18 O1 1_555 1_555

#END
