
#######################################################################
#
#                 Cambridge Crystallographic Data Centre
#                                CCDC 
#
#######################################################################
#
# If this CIF has been generated from an entry in the Cambridge 
# Structural Database, then it will include bibliographic, chemical, 
# crystal, experimental, refinement or atomic coordinate data resulting 
# from the CCDC's data processing and validation procedures.
#
#######################################################################

data_QUCQAH
_chemical_formula_moiety         'C17 H33 O1 Se1 Si1 1+,Br1 1-'
_chemical_name_systematic        
'exo-[3-Hydroxy-4,7,7-trimethylbicyclo[2.2.1]hept-2-yl](methyl)[3-(trimethylsilyl)prop-2-enyl]selenonium bromide'
_symmetry_cell_setting           monoclinic
_symmetry_space_group_name_H-M   'P 21'
_symmetry_Int_Tables_number      4
_space_group_name_Hall           'P 2yb'
loop_
_symmetry_equiv_pos_site_id
_symmetry_equiv_pos_as_xyz
1 x,y,z
2 -x,1/2+y,-z
_cell_length_a                   7.4872(12)
_cell_length_b                   10.1296(17)
_cell_length_c                   14.419(2)
_cell_angle_alpha                90
_cell_angle_beta                 103.117(2)
_cell_angle_gamma                90
_cell_volume                     1065.04
_chemical_melting_point          '146-148 deg.C'
_cell_formula_units_Z            2
loop_
_atom_site_label
_atom_site_type_symbol
_atom_site_fract_x
_atom_site_fract_y
_atom_site_fract_z
Br1 Br 0.68476(7) 0.50080(6) 0.90604(4)
C1 C 0.4899(9) 0.0870(6) 0.7411(5)
C2 C 0.5765(10) 0.1385(8) 0.8413(5)
H1 H 0.4910 0.1998 0.8612
C3 C 0.5915(6) 0.0126(8) 0.9021(3)
H2 H 0.5051 0.0203 0.9437
C4 C 0.5254(11) -0.1007(7) 0.8308(6)
H3 H 0.5660 -0.1899 0.8521
C5 C 0.3135(8) -0.0752(6) 0.8071(5)
H4 H 0.2468 -0.1487 0.7724
H5 H 0.2695 -0.0599 0.8645
C6 C 0.2952(8) 0.0482(7) 0.7457(4)
H6 H 0.2373 0.1186 0.7738
H7 H 0.2218 0.0302 0.6824
C7 C 0.5803(9) -0.0506(6) 0.7415(5)
C8 C 0.5018(10) -0.1352(7) 0.6553(5)
H8 H 0.3759 -0.1117 0.6303
H9 H 0.5094 -0.2265 0.6735
H10 H 0.5705 -0.1209 0.6075
C9 C 0.7898(7) -0.0536(7) 0.7530(4)
H11 H 0.8222 -0.1256 0.7167
H12 H 0.8483 -0.0652 0.8190
H13 H 0.8296 0.0280 0.7305
C10 C 0.4971(11) 0.1897(7) 0.6665(5)
H14 H 0.4855 0.2760 0.6921
H15 H 0.3984 0.1753 0.6120
H16 H 0.6121 0.1834 0.6479
C11 C 0.8153(10) 0.1294(7) 1.0775(5)
H17 H 0.8703 0.2109 1.0622
H18 H 0.6859 0.1462 1.0724
C12 C 0.8998(9) 0.0941(7) 1.1770(5)
H19 H 1.0264 0.1048 1.1937
C13 C 0.8313(9) 0.0520(7) 1.2437(4)
H20 H 0.7050 0.0391 1.2291
C14 C 0.7928(10) -0.1592(7) 1.0558(5)
H21 H 0.6857 -0.1438 1.0804
H22 H 0.8964 -0.1744 1.1077
H23 H 0.7732 -0.2351 1.0149
C15 C 0.7931(6) -0.0036(10) 1.4460(4)
H24 H 0.7861 -0.0944 1.4638
H25 H 0.6739 0.0263 1.4131
H26 H 0.8352 0.0489 1.5022
C16 C 1.0541(9) -0.1472(7) 1.3713(4)
H27 H 1.1853 -0.1395 1.3876
H28 H 1.0161 -0.1883 1.3100
H29 H 1.0148 -0.2001 1.4182
C17 C 1.1473(8) 0.1204(7) 1.4001(4)
H30 H 1.2310 0.0860 1.4554
H31 H 1.1068 0.2065 1.4141
H32 H 1.2079 0.1264 1.3484
O1 O 0.7523(6) 0.2019(5) 0.8523(3)
H33 H 0.742(9) 0.282(8) 0.867(5)
Se1 Se 0.83985(7) -0.00396(9) 0.98305(4)
Si1 Si 0.9539(2) 0.0127(2) 1.36770(11)
loop_
_geom_bond_atom_site_label_1
_geom_bond_atom_site_label_2
_geom_bond_site_symmetry_1
_geom_bond_site_symmetry_2
C1 C2 1_555 1_555
C2 H1 1_555 1_555
C3 C2 1_555 1_555
H2 C3 1_555 1_555
C4 C3 1_555 1_555
H3 C4 1_555 1_555
C5 C4 1_555 1_555
H4 C5 1_555 1_555
H5 C5 1_555 1_555
C6 C1 1_555 1_555
H6 C6 1_555 1_555
H7 C6 1_555 1_555
C7 C1 1_555 1_555
C8 C7 1_555 1_555
H8 C8 1_555 1_555
H9 C8 1_555 1_555
H10 C8 1_555 1_555
C9 C7 1_555 1_555
H11 C9 1_555 1_555
H12 C9 1_555 1_555
H13 C9 1_555 1_555
C10 C1 1_555 1_555
H14 C10 1_555 1_555
H15 C10 1_555 1_555
H16 C10 1_555 1_555
C11 H17 1_555 1_555
H18 C11 1_555 1_555
C12 C11 1_555 1_555
H19 C12 1_555 1_555
C13 C12 1_555 1_555
H20 C13 1_555 1_555
C14 H21 1_555 1_555
H22 C14 1_555 1_555
H23 C14 1_555 1_555
C15 H24 1_555 1_555
H25 C15 1_555 1_555
H26 C15 1_555 1_555
C16 H27 1_555 1_555
H28 C16 1_555 1_555
H29 C16 1_555 1_555
C17 H30 1_555 1_555
H31 C17 1_555 1_555
H32 C17 1_555 1_555
O1 C2 1_555 1_555
H33 O1 1_555 1_555
Se1 C3 1_555 1_555
Si1 C13 1_555 1_555
C4 C7 1_555 1_555
C5 C6 1_555 1_555
C11 Se1 1_555 1_555
C14 Se1 1_555 1_555
C15 Si1 1_555 1_555
C16 Si1 1_555 1_555
C17 Si1 1_555 1_555

#END
