
#######################################################################
#
#                 Cambridge Crystallographic Data Centre
#                                CCDC 
#
#######################################################################
#
# If this CIF has been generated from an entry in the Cambridge 
# Structural Database, then it will include bibliographic, chemical, 
# crystal, experimental, refinement or atomic coordinate data resulting 
# from the CCDC's data processing and validation procedures.
#
#######################################################################

data_QUCSEO
_chemical_formula_moiety         'C38 H31 N1'
_chemical_name_systematic        1,3-bis(1,3-Diphenylprop-2-en-1-yl)-1H-indole
_symmetry_cell_setting           orthorhombic
_symmetry_space_group_name_H-M   'P 21 21 21'
_symmetry_Int_Tables_number      19
_space_group_name_Hall           'P 2ac 2ab'
loop_
_symmetry_equiv_pos_site_id
_symmetry_equiv_pos_as_xyz
1 x,y,z
2 1/2-x,-y,1/2+z
3 -x,1/2+y,1/2-z
4 1/2+x,1/2-y,-z
_cell_length_a                   5.6892(7)
_cell_length_b                   20.690(3)
_cell_length_c                   24.132(3)
_cell_angle_alpha                90
_cell_angle_beta                 90
_cell_angle_gamma                90
_cell_volume                     2840.57
_exptl_crystal_description       block
_cell_formula_units_Z            4
loop_
_atom_site_label
_atom_site_type_symbol
_atom_site_fract_x
_atom_site_fract_y
_atom_site_fract_z
C1 C 0.5950(3) 1.01195(7) 0.08505(6)
H1 H 0.5521 0.9879 0.0541
N1 N 0.7746(3) 0.99569(6) 0.12050(6)
C2 C 0.4868(3) 1.06826(7) 0.10112(6)
C3 C 0.7824(3) 1.04346(7) 0.16123(6)
C4 C 0.6013(3) 1.08827(7) 0.15046(6)
C5 C 0.5669(4) 1.14012(8) 0.18723(7)
H2 H 0.4443 1.1692 0.1820
C6 C 0.7184(5) 1.14660(10) 0.23085(8)
H3 H 0.6970 1.1807 0.2554
C7 C 0.9031(5) 1.10403(11) 0.23970(8)
H4 H 1.0057 1.1112 0.2691
C8 C 0.9374(4) 1.05118(9) 0.20569(7)
H5 H 1.0585 1.0219 0.2121
C9 C 0.2844(3) 1.09908(7) 0.07157(6)
H6 H 0.1386 1.0834 0.0885
C10 C 0.2879(3) 1.17251(7) 0.07611(6)
C11 C 0.4770(3) 1.20832(9) 0.05604(7)
H7 H 0.6050 1.1874 0.0402
C12 C 0.4741(4) 1.27486(9) 0.05971(9)
H8 H 0.6006 1.2986 0.0462
C13 C 0.2867(4) 1.30643(9) 0.08310(9)
H9 H 0.2870 1.3513 0.0859
C14 C 0.0988(4) 1.27143(9) 0.10237(9)
H10 H -0.0290 1.2928 0.1180
C15 C 0.0977(3) 1.20487(9) 0.09882(7)
H11 H -0.0312 1.1817 0.1117
C16 C 0.2831(3) 1.07994(8) 0.01136(7)
H12 H 0.4164 1.0891 -0.0095
C17 C 0.1058(4) 1.05095(8) -0.01393(7)
H13 H -0.0251 1.0418 0.0077
C18 C 0.0927(4) 1.03168(8) -0.07237(8)
C19 C 0.2633(5) 1.04700(12) -0.11091(9)
H14 H 0.3924 1.0717 -0.1004
C20 C 0.2432(6) 1.02580(15) -0.16537(10)
H15 H 0.3602 1.0360 -0.1908
C21 C 0.0559(6) 0.99055(15) -0.18179(12)
H16 H 0.0437 0.9766 -0.2183
C22 C -0.1156(6) 0.97551(14) -0.14433(12)
H17 H -0.2453 0.9514 -0.1554
C23 C -0.0971(5) 0.99604(12) -0.09015(10)
H18 H -0.2153 0.9856 -0.0651
C24 C 0.9195(4) 0.93688(8) 0.12018(8)
H19 H 1.0850 0.9487 0.1251
C25 C 0.8416(14) 0.8897(4) 0.1688(3)
C26 C 0.6259(15) 0.8983(3) 0.1948(4)
H20 H 0.5216 0.9295 0.1818
C27 C 0.5660(17) 0.8604(4) 0.2402(3)
H21 H 0.4217 0.8661 0.2576
C28 C 0.722(2) 0.8138(3) 0.2596(2)
H22 H 0.6818 0.7885 0.2899
C29 C 0.9376(19) 0.8052(3) 0.2336(3)
H23 H 1.0418 0.7741 0.2465
C30 C 0.9975(14) 0.8432(4) 0.1882(3)
H24 H 1.1418 0.8374 0.1708
C31 C 0.8928(4) 0.89796(8) 0.06768(8)
H25 H 0.7470 0.8794 0.0606
C32 C 1.0609(4) 0.88848(9) 0.03140(9)
H26 H 1.2016 0.9099 0.0384
C33 C 1.0555(4) 0.84875(9) -0.01847(9)
C34 C 0.8769(5) 0.80441(11) -0.02941(10)
H27 H 0.7547 0.7995 -0.0042
C35 C 0.8789(6) 0.76793(13) -0.07693(11)
H28 H 0.7565 0.7392 -0.0836
C36 C 1.0544(7) 0.77291(15) -0.11418(12)
H29 H 1.0535 0.7477 -0.1461
C37 C 1.2355(7) 0.81578(17) -0.10449(13)
H30 H 1.3572 0.8195 -0.1300
C38 C 1.2372(5) 0.85384(13) -0.05635(12)
H31 H 1.3603 0.8824 -0.0499
C39? C 0.7746(3) 0.99569(6) 0.12050(6)
N2? N 0.4868(3) 1.06826(7) 0.10112(6)
C40? C 0.8926(19) 0.8977(4) 0.1706(3)
C41? C 0.692(2) 0.8975(3) 0.2034(4)
H32? H 0.5749 0.9282 0.1976
C42? C 0.665(2) 0.8513(4) 0.2447(3)
H33? H 0.5306 0.8511 0.2666
C43? C 0.840(3) 0.8053(3) 0.2533(3)
H34? H 0.8218 0.7744 0.2809
C44? C 1.041(3) 0.8056(3) 0.2205(4)
H35? H 1.1572 0.7748 0.2263
C45? C 1.067(2) 0.8518(5) 0.1792(4)
H36? H 1.2015 0.8520 0.1573
loop_
_geom_bond_atom_site_label_1
_geom_bond_atom_site_label_2
_geom_bond_site_symmetry_1
_geom_bond_site_symmetry_2
C1 H1 1_555 1_555
N1 C1 1_555 1_555
C2 C1 1_555 1_555
C3 N1 1_555 1_555
C4 C2 1_555 1_555
C5 C4 1_555 1_555
H2 C5 1_555 1_555
C6 C5 1_555 1_555
H3 C6 1_555 1_555
C7 C6 1_555 1_555
H4 C7 1_555 1_555
C8 C3 1_555 1_555
H5 C8 1_555 1_555
C9 C2 1_555 1_555
H6 C9 1_555 1_555
C10 C9 1_555 1_555
C11 C10 1_555 1_555
H7 C11 1_555 1_555
C12 C11 1_555 1_555
H8 C12 1_555 1_555
C13 C12 1_555 1_555
H9 C13 1_555 1_555
C14 C13 1_555 1_555
H10 C14 1_555 1_555
C15 C10 1_555 1_555
H11 C15 1_555 1_555
C16 C9 1_555 1_555
H12 C16 1_555 1_555
C17 C16 1_555 1_555
H13 C17 1_555 1_555
C18 C17 1_555 1_555
C19 C18 1_555 1_555
H14 C19 1_555 1_555
C20 C19 1_555 1_555
H15 C20 1_555 1_555
C21 C20 1_555 1_555
H16 C21 1_555 1_555
C22 C21 1_555 1_555
H17 C22 1_555 1_555
C23 C18 1_555 1_555
H18 C23 1_555 1_555
C24 N1 1_555 1_555
H19 C24 1_555 1_555
C25 C24 1_555 1_555
C26 C25 1_555 1_555
H20 C26 1_555 1_555
C27 C26 1_555 1_555
H21 C27 1_555 1_555
C28 C27 1_555 1_555
H22 C28 1_555 1_555
C29 C28 1_555 1_555
H23 C29 1_555 1_555
C30 C25 1_555 1_555
H24 C30 1_555 1_555
C31 C24 1_555 1_555
H25 C31 1_555 1_555
C32 C31 1_555 1_555
H26 C32 1_555 1_555
C33 C32 1_555 1_555
C34 C33 1_555 1_555
H27 C34 1_555 1_555
C35 C34 1_555 1_555
H28 C35 1_555 1_555
C36 C35 1_555 1_555
H29 C36 1_555 1_555
C37 C36 1_555 1_555
H30 C37 1_555 1_555
C38 C33 1_555 1_555
H31 C38 1_555 1_555
C3 C4 1_555 1_555
C7 C8 1_555 1_555
C14 C15 1_555 1_555
C22 C23 1_555 1_555
C29 C30 1_555 1_555
C37 C38 1_555 1_555

#END
