
#######################################################################
#
#                 Cambridge Crystallographic Data Centre
#                                CCDC 
#
#######################################################################
#
# If this CIF has been generated from an entry in the Cambridge 
# Structural Database, then it will include bibliographic, chemical, 
# crystal, experimental, refinement or atomic coordinate data resulting 
# from the CCDC's data processing and validation procedures.
#
#######################################################################

data_QUCWUH
_chemical_formula_moiety         'C19 H15 Br1 N4 O2 S1,C3 H7 N1 O1'
_chemical_name_systematic        
'5-Amino-3-(4-bromophenyl)-4-cyano-N-(phenylcarbamoyl)-2,3-dihydrothiophene-2-carboxamide N,N-dimethylformamide'
_symmetry_cell_setting           triclinic
_symmetry_space_group_name_H-M   'P -1'
_symmetry_Int_Tables_number      2
_space_group_name_Hall           '-P 1'
loop_
_symmetry_equiv_pos_site_id
_symmetry_equiv_pos_as_xyz
1 x,y,z
2 -x,-y,-z
_cell_length_a                   10.2287(13)
_cell_length_b                   10.5667(14)
_cell_length_c                   11.1165(14)
_cell_angle_alpha                96.006(2)
_cell_angle_beta                 97.183(2)
_cell_angle_gamma                101.032(2)
_cell_volume                     1159.81
_exptl_crystal_colour            colorless
_exptl_crystal_description       block
_cell_formula_units_Z            2
loop_
_atom_site_label
_atom_site_type_symbol
_atom_site_fract_x
_atom_site_fract_y
_atom_site_fract_z
Br1 Br 1.28918(3) 0.73964(3) 0.61776(3)
C1 C 1.2926(2) 0.3793(2) 0.4339(2)
H1 H 1.3470 0.3455 0.3834
C2 C 1.3246(2) 0.5107(2) 0.4794(2)
H2 H 1.3985 0.5650 0.4580
C3 C 1.2455(2) 0.5597(2) 0.5568(2)
C4 C 1.1342(3) 0.4809(2) 0.5878(2)
H3 H 1.0811 0.5148 0.6397
C5 C 1.1025(2) 0.3492(2) 0.5399(2)
H4 H 1.0278 0.2954 0.5605
C6 C 1.18009(19) 0.29740(19) 0.46261(17)
C7 C 1.1400(2) 0.15471(19) 0.40815(17)
H5 H 1.0848 0.1068 0.4613
C8 C 1.2589(2) 0.09216(19) 0.39248(18)
C9 C 1.3394(2) 0.0678(2) 0.49732(18)
C10 C 1.2887(2) 0.0739(2) 0.27607(18)
C11 C 1.05691(19) 0.1396(2) 0.27910(17)
H6 H 1.0214 0.2183 0.2693
C12 C 0.94032(19) 0.0211(2) 0.25573(18)
C13 C 0.71963(19) -0.0565(2) 0.11773(18)
C14 C 0.5845(2) -0.2705(2) 0.14491(19)
C15 C 0.5834(2) -0.3680(2) 0.2205(2)
H7 H 0.6526 -0.3594 0.2855
C16 C 0.4807(3) -0.4772(3) 0.1998(2)
H8 H 0.4819 -0.5423 0.2499
C17 C 0.3754(2) -0.4898(3) 0.1044(3)
H9 H 0.3055 -0.5627 0.0907
C18 C 0.3759(2) -0.3933(3) 0.0303(2)
H10 H 0.3059 -0.4021 -0.0340
C19 C 0.4792(2) -0.2822(3) 0.0494(2)
H11 H 0.4776 -0.2174 -0.0009
N1 N 1.3997(2) 0.0502(2) 0.58653(17)
N2 N 1.39171(18) 0.02940(19) 0.23602(16)
H12 H 1.4512 0.0075 0.2870
H13 H 1.3984 0.0227 0.1594
N3 N 0.84068(17) 0.03202(17) 0.16584(15)
H14 H 0.8538 0.1033 0.1340
N4 N 0.69748(18) -0.16610(18) 0.17075(16)
H15 H 0.7599 -0.1735 0.2274
O1 O 0.93807(16) -0.07189(15) 0.31348(14)
O2 O 0.64574(16) -0.02769(18) 0.03450(15)
S1 S 1.17138(5) 0.12028(5) 0.16687(4)
C20 C 0.1370(2) 0.7625(2) 0.0510(2)
H16 H 0.2213 0.8179 0.0674
C21 C -0.0389(3) 0.6164(4) 0.1239(3)
H17 H -0.0860 0.6208 0.0447
H18 H -0.0886 0.6441 0.1859
H19 H -0.0297 0.5285 0.1301
C22 C 0.1775(3) 0.7181(3) 0.2601(2)
H20 H 0.2681 0.7588 0.2533
H21 H 0.1769 0.6350 0.2878
H22 H 0.1427 0.7722 0.3178
N5 N 0.0934(2) 0.7005(2) 0.14068(18)
O3 O 0.07315(18) 0.75196(18) -0.05309(16)
loop_
_geom_bond_atom_site_label_1
_geom_bond_atom_site_label_2
_geom_bond_site_symmetry_1
_geom_bond_site_symmetry_2
Br1 C3 1_555 1_555
C1 H1 1_555 1_555
C2 C1 1_555 1_555
H2 C2 1_555 1_555
C3 C2 1_555 1_555
C4 C3 1_555 1_555
H3 C4 1_555 1_555
C5 C4 1_555 1_555
H4 C5 1_555 1_555
C6 C1 1_555 1_555
C7 C6 1_555 1_555
H5 C7 1_555 1_555
C8 C7 1_555 1_555
C9 C8 1_555 1_555
C10 C8 1_555 1_555
C11 C7 1_555 1_555
H6 C11 1_555 1_555
C12 C11 1_555 1_555
C13 N3 1_555 1_555
C14 C15 1_555 1_555
C15 H7 1_555 1_555
C16 C15 1_555 1_555
H8 C16 1_555 1_555
C17 C16 1_555 1_555
H9 C17 1_555 1_555
C18 C17 1_555 1_555
H10 C18 1_555 1_555
C19 C14 1_555 1_555
H11 C19 1_555 1_555
N1 C9 1_555 1_555
N2 C10 1_555 1_555
H12 N2 1_555 1_555
H13 N2 1_555 1_555
N3 C12 1_555 1_555
H14 N3 1_555 1_555
N4 C13 1_555 1_555
H15 N4 1_555 1_555
O1 C12 1_555 1_555
O2 C13 1_555 1_555
S1 C10 1_555 1_555
C20 H16 1_555 1_555
C21 H17 1_555 1_555
H18 C21 1_555 1_555
H19 C21 1_555 1_555
C22 H20 1_555 1_555
H21 C22 1_555 1_555
H22 C22 1_555 1_555
N5 C20 1_555 1_555
O3 C20 1_555 1_555
C5 C6 1_555 1_555
C11 S1 1_555 1_555
C14 N4 1_555 1_555
C18 C19 1_555 1_555
C21 N5 1_555 1_555
C22 N5 1_555 1_555

#END
