
#######################################################################
#
#                 Cambridge Crystallographic Data Centre
#                                CCDC 
#
#######################################################################
#
# If this CIF has been generated from an entry in the Cambridge 
# Structural Database, then it will include bibliographic, chemical, 
# crystal, experimental, refinement or atomic coordinate data resulting 
# from the CCDC's data processing and validation procedures.
#
#######################################################################

data_QUCXUI
_chemical_formula_moiety         'C19 H16 N4 O2 S1,C3 H7 N1 O1'
_chemical_name_systematic        
'5-Amino-4-cyano-3-phenyl-N-(phenylcarbamoyl)-2,3-dihydrothiophene-2-carboxamide N,N-dimethylformamide'
_symmetry_cell_setting           triclinic
_symmetry_space_group_name_H-M   'P -1'
_symmetry_Int_Tables_number      2
_space_group_name_Hall           '-P 1'
loop_
_symmetry_equiv_pos_site_id
_symmetry_equiv_pos_as_xyz
1 x,y,z
2 -x,-y,-z
_cell_length_a                   9.1700(12)
_cell_length_b                   9.9925(13)
_cell_length_c                   13.4932(17)
_cell_angle_alpha                71.691(2)
_cell_angle_beta                 72.874(2)
_cell_angle_gamma                68.446(2)
_cell_volume                     1069.04
_exptl_crystal_colour            colorless
_exptl_crystal_description       block
_cell_formula_units_Z            2
loop_
_atom_site_label
_atom_site_type_symbol
_atom_site_fract_x
_atom_site_fract_y
_atom_site_fract_z
C1 C 0.4310(2) 0.66931(18) -0.20394(12)
H1 H 0.5316 0.6832 -0.2284
C2 C 0.3542(2) 0.65464(18) -0.27318(12)
H2 H 0.4040 0.6601 -0.3445
C3 C 0.2049(2) 0.63208(18) -0.23787(13)
H3 H 0.1561 0.6208 -0.2849
C4 C 0.12882(19) 0.62649(18) -0.13143(13)
H4 H 0.0283 0.6125 -0.1072
C5 C 0.20346(19) 0.64187(17) -0.06165(12)
H5 H 0.1525 0.6381 0.0094
C6 C 0.35459(18) 0.66291(16) -0.09715(11)
C7 C 0.56587(18) 0.68945(16) -0.03060(11)
C8 C 0.48747(17) 0.72719(15) 0.15497(11)
C9 C 0.54520(17) 0.77825(15) 0.22750(11)
H6 H 0.6622 0.7400 0.2174
C10 C 0.46788(17) 0.73520(16) 0.34673(11)
H7 H 0.4409 0.6440 0.3599
C11 C 0.31430(17) 0.86062(16) 0.36365(11)
C12 C 0.18953(17) 0.84275(16) 0.45328(11)
C13 C 0.30750(17) 0.99201(16) 0.28970(11)
C14 C 0.58169(17) 0.70952(16) 0.41850(11)
C15 C 0.60268(18) 0.82782(17) 0.44096(12)
H8 H 0.5447 0.9242 0.4133
C16 C 0.71000(19) 0.80230(18) 0.50450(13)
H9 H 0.7242 0.8818 0.5183
C17 C 0.79614(19) 0.65823(18) 0.54743(12)
H10 H 0.8669 0.6414 0.5903
C18 C 0.77578(18) 0.53982(17) 0.52582(12)
H11 H 0.8325 0.4434 0.5545
C19 C 0.66972(17) 0.56623(16) 0.46083(11)
H12 H 0.6578 0.4867 0.4456
N1 N 0.41861(15) 0.68037(14) -0.02021(10)
H13 H 0.3558 0.6859 0.0409
N2 N 0.58997(15) 0.71792(13) 0.05837(9)
H14 H 0.6804 0.7312 0.0512
N3 N 0.19208(15) 1.12216(14) 0.28653(10)
H15 H 0.1073 1.1309 0.3360
H16 H 0.2028 1.1970 0.2350
N4 N 0.08919(16) 0.82442(14) 0.52658(10)
O1 O 0.67554(13) 0.67712(12) -0.10860(8)
O2 O 0.35886(13) 0.70143(12) 0.18098(8)
S1 S 0.48098(4) 0.98130(4) 0.18699(3)
C20 C 0.9861(2) 0.69158(19) 0.23464(14)
H17 H 0.9626 0.6360 0.1980
H18 H 0.9256 0.6802 0.3065
H19 H 1.0984 0.6558 0.2355
C21 C 0.9720(2) 0.9490(2) 0.22437(17)
H20 H 0.9406 1.0477 0.1814
H21 H 1.0838 0.9198 0.2252
H22 H 0.9107 0.9462 0.2958
C22 C 0.87681(19) 0.89648(19) 0.09444(13)
H23 H 0.8504 0.9976 0.0643
N5 N 0.94303(16) 0.84780(15) 0.17980(11)
O3 O 0.84748(14) 0.81950(14) 0.05200(9)
loop_
_geom_bond_atom_site_label_1
_geom_bond_atom_site_label_2
_geom_bond_site_symmetry_1
_geom_bond_site_symmetry_2
C1 H1 1_555 1_555
C2 C1 1_555 1_555
H2 C2 1_555 1_555
C3 C2 1_555 1_555
H3 C3 1_555 1_555
C4 C3 1_555 1_555
H4 C4 1_555 1_555
C5 C4 1_555 1_555
H5 C5 1_555 1_555
C6 C1 1_555 1_555
C7 N1 1_555 1_555
C8 C9 1_555 1_555
C9 H6 1_555 1_555
C10 C9 1_555 1_555
H7 C10 1_555 1_555
C11 C10 1_555 1_555
C12 C11 1_555 1_555
C13 C11 1_555 1_555
C14 C10 1_555 1_555
C15 C14 1_555 1_555
H8 C15 1_555 1_555
C16 C15 1_555 1_555
H9 C16 1_555 1_555
C17 C16 1_555 1_555
H10 C17 1_555 1_555
C18 C17 1_555 1_555
H11 C18 1_555 1_555
C19 C14 1_555 1_555
H12 C19 1_555 1_555
N1 C6 1_555 1_555
H13 N1 1_555 1_555
N2 C7 1_555 1_555
H14 N2 1_555 1_555
N3 C13 1_555 1_555
H15 N3 1_555 1_555
H16 N3 1_555 1_555
N4 C12 1_555 1_555
O1 C7 1_555 1_555
O2 C8 1_555 1_555
S1 C9 1_555 1_555
C20 H17 1_555 1_555
H18 C20 1_555 1_555
H19 C20 1_555 1_555
C21 H20 1_555 1_555
H21 C21 1_555 1_555
H22 C21 1_555 1_555
C22 H23 1_555 1_555
N5 C20 1_555 1_555
O3 C22 1_555 1_555
C5 C6 1_555 1_555
C8 N2 1_555 1_555
C13 S1 1_555 1_555
C18 C19 1_555 1_555
C21 N5 1_555 1_555
C22 N5 1_555 1_555

#END
