
#######################################################################
#
#                 Cambridge Crystallographic Data Centre
#                                CCDC 
#
#######################################################################
#
# If this CIF has been generated from an entry in the Cambridge 
# Structural Database, then it will include bibliographic, chemical, 
# crystal, experimental, refinement or atomic coordinate data resulting 
# from the CCDC's data processing and validation procedures.
#
#######################################################################

data_QUDBAU
_chemical_name_common            
"bis(6,7-dihydrodipyrido[1,2-a:2',1'-c]pyrazinediium) di-sodium S6-corona[3]arene[3]pyridazine pentahydrate"
_chemical_formula_moiety         
'C45 H24 N6 O12 S6 6-,2(C12 H12 N2 2+),2(Na1 1+),5(H2 O1)'
_chemical_name_systematic        
"bis(6,7-dihydrodipyrido[1,2-a:2',1'-c]pyrazinediium) di-sodium 2,7,15,20,28,33-hexathia-40,41,44,45,48,49-hexaazadecacyclo[32.5.2.2^3,6^.2^8,14^.2^16,19^.2^21,27^.2^29,32^.0^9,13^.0^22,26^.0^35,39^]henpentaconta-1(39),3,5,8,13,16,18,21,26,29,31,34,40,42,44,46,48,50-octadecaene-4,17,30,42,46,50-hexacarboxylate unknown solvate pentahydrate"
_symmetry_cell_setting           triclinic
_symmetry_space_group_name_H-M   'P -1'
_symmetry_Int_Tables_number      2
_space_group_name_Hall           '-P 1'
loop_
_symmetry_equiv_pos_site_id
_symmetry_equiv_pos_as_xyz
1 x,y,z
2 -x,-y,-z
_cell_length_a                   16.134(3)
_cell_length_b                   22.741(5)
_cell_length_c                   23.945(5)
_cell_angle_alpha                116.87(3)
_cell_angle_beta                 94.55(3)
_cell_angle_gamma                95.60(3)
_cell_volume                     7723.81
_exptl_crystal_colour            yellow
_exptl_crystal_description       rod
_cell_formula_units_Z            4
_exptl_crystal_recrystallization_method water/tetrahydrofuran
loop_
_atom_site_label
_atom_site_type_symbol
_atom_site_fract_x
_atom_site_fract_y
_atom_site_fract_z
C46 C 1.1714(8) 0.2989(5) 0.6212(5)
C47 C 1.0903(6) 0.3223(4) 0.6208(4)
C48 C 1.0665(7) 0.3629(5) 0.6786(5)
H25 H 1.0146 0.3776 0.6794
C49 C 1.1147(6) 0.3813(4) 0.7323(5)
C50 C 1.1939(6) 0.3593(4) 0.7335(4)
C51 C 1.2202(6) 0.3159(5) 0.6786(5)
H26 H 1.2696 0.2983 0.6795
C52 C 1.0360(7) 0.3063(6) 0.5606(6)
C53 C 1.2624(11) 0.3806(8) 0.7984(7)
C54 C 1.1055(9) 0.5127(6) 0.8120(5)
C55 C 1.0735(7) 0.5727(5) 0.8603(5)
C56 C 1.0996(7) 0.6304(5) 0.8621(5)
C57 C 1.1327(8) 0.6389(6) 0.8189(5)
C58 C 1.0229(8) 0.5754(6) 0.9141(5)
H27 H 0.9668 0.5502 0.8972
H28 H 1.0517 0.5586 0.9398
C59 C 1.0198(9) 0.6510(7) 0.9525(6)
H29 H 1.0478 0.6681 0.9954
H30 H 0.9620 0.6594 0.9541
C60 C 1.0666(10) 0.6858(7) 0.9170(6)
H31 H 1.0280 0.7068 0.9013
H32 H 1.1127 0.7195 0.9454
C61 C 1.4113(8) 0.7052(6) 0.8678(6)
C62 C 1.4560(7) 0.7618(6) 0.8604(6)
C63 C 1.4092(9) 0.7904(8) 0.8341(7)
H33 H 1.4378 0.8185 0.8210
C64 C 1.3224(7) 0.7821(6) 0.8244(6)
C65 C 1.2806(6) 0.7276(5) 0.8320(6)
C66 C 1.3235(6) 0.6921(6) 0.8533(5)
H34 H 1.2940 0.6580 0.8585
C67 C 1.4565(14) 0.6644(11) 0.8982(8)
C68 C 1.2765(10) 0.8152(9) 0.7916(7)
C69 C 1.6170(9) 0.7161(7) 0.8258(7)
C70 C 1.6943(7) 0.7171(5) 0.8513(5)
C71 C 1.7387(7) 0.6675(6) 0.8043(5)
C72 C 1.7035(6) 0.6330(4) 0.7472(5)
C73 C 1.7465(8) 0.7452(6) 0.9134(6)
H35 H 1.7186 0.7307 0.9405
H36 H 1.7529 0.7935 0.9331
C74 C 1.8349(11) 0.7229(9) 0.9074(7)
H37 H 1.8781 0.7593 0.9146
H38 H 1.8492 0.7055 0.9366
C75 C 1.8232(6) 0.6679(5) 0.8385(5)
H39 H 1.8686 0.6758 0.8173
H40 H 1.8249 0.6250 0.8375
C76 C 1.7000(4) 0.4971(4) 0.6648(4)
C77 C 1.6591(5) 0.4845(5) 0.7080(4)
H41 H 1.6591 0.5199 0.7479
C78 C 1.6186(5) 0.4228(4) 0.6955(4)
C79 C 1.6295(5) 0.3655(4) 0.6367(4)
C80 C 1.6670(6) 0.3781(4) 0.5941(4)
H42 H 1.6630 0.3432 0.5534
C81 C 1.7136(4) 0.4425(4) 0.6068(3)
C82 C 1.7592(6) 0.4466(6) 0.5586(5)
C83 C 1.5762(10) 0.4095(7) 0.7442(8)
C84 C 1.4860(5) 0.2728(3) 0.6017(4)
C85 C 1.4365(6) 0.2196(5) 0.6055(5)
C86 C 1.3496(6) 0.2100(4) 0.5879(5)
C87 C 1.3095(6) 0.2543(4) 0.5653(6)
C88 C 1.4651(8) 0.1686(6) 0.6252(6)
H43 H 1.5041 0.1896 0.6642
H44 H 1.4900 0.1346 0.5923
C89 C 1.3734(10) 0.1391(7) 0.6346(6)
H45 H 1.3708 0.0919 0.6218
H46 H 1.3658 0.1616 0.6788
C90 C 1.3066(8) 0.1496(5) 0.5961(6)
H47 H 1.2577 0.1607 0.6178
H48 H 1.2899 0.1103 0.5556
N7 N 1.3601(5) 0.3078(4) 0.5714(4)
N8 N 1.4496(6) 0.3141(4) 0.5835(4)
N9 N 1.1653(6) 0.5818(5) 0.7708(5)
N10 N 1.1441(5) 0.5224(4) 0.7669(4)
N11 N 1.6209(7) 0.6368(6) 0.7289(5)
N12 N 1.5788(8) 0.6817(7) 0.7719(7)
O13 O 1.0456(4) 0.2584(4) 0.5108(4)
O14 O 0.9722(5) 0.3362(4) 0.5639(4)
O15 O 1.2899(9) 0.3325(7) 0.8028(6)
O16 O 1.2838(6) 0.4413(5) 0.8316(4)
O17 O 1.2056(6) 0.8022(4) 0.7705(4)
O18 O 1.3230(8) 0.8739(6) 0.8044(9)
O19 O 1.4487(12) 0.6854(11) 0.9558(11)
O20 O 1.5103(11) 0.6365(7) 0.8721(6)
O21 O 1.8199(4) 0.4948(3) 0.5788(3)
O22 O 1.7354(5) 0.4065(4) 0.5009(4)
O23 O 1.5238(9) 0.3698(10) 0.7328(7)
O24 O 1.6266(11) 0.4260(8) 0.7988(8)
S7 S 1.20430(19) 0.24649(13) 0.54576(15)
S8 S 1.0825(2) 0.43618(14) 0.80857(14)
S9 S 1.16643(17) 0.71078(13) 0.81134(13)
S10 S 1.5666(2) 0.78259(19) 0.88430(19)
S11 S 1.75382(15) 0.57727(12) 0.68275(12)
S12 S 1.59265(19) 0.28213(14) 0.61818(16)
Na1 Na 1.1488(3) 0.6961(2) 0.6737(2)
O25 O 0.9293(10) 0.0216(7) 0.2303(6)
O26 O 0.7893(7) 0.1113(5) 0.3243(5)
O27 O 1.0098(5) 0.1527(4) 0.2261(4)
O28 O 0.9286(5) 0.2351(4) 0.3587(3)
Na2 Na 1.0693(7) 0.3210(5) 0.4369(5)
Na3 Na 0.8813(3) 0.1366(2) 0.2600(2)
O29 O 1.0064(5) 0.6368(3) 0.6717(3)
O30 O 1.1821(4) 0.5816(3) 0.6530(3)
O31 O 0.9776(5) 0.4732(4) 0.6167(3)
O32 O 1.0792(4) 0.4579(3) 0.4835(3)
O33 O 1.1144(4) 0.6203(4) 0.5510(3)
Na4 Na 1.0504(2) 0.54406(18) 0.58087(17)
O34 O 1.2627(5) 0.7337(5) 0.6334(4)
C91 C 0.7215(6) 0.5271(4) 0.3220(4)
H49 H 0.7783 0.5355 0.3195
C92 C 0.6659(9) 0.4973(6) 0.2702(6)
H50 H 0.6842 0.4877 0.2316
C93 C 0.5788(6) 0.4792(5) 0.2712(4)
H51 H 0.5401 0.4573 0.2345
C94 C 0.5563(5) 0.4967(4) 0.3306(4)
H52 H 0.5021 0.4803 0.3327
C95 C 0.6056(5) 0.5348(4) 0.3849(4)
C96 C 0.5828(6) 0.5567(4) 0.4479(4)
C97 C 0.5039(5) 0.5648(4) 0.4559(4)
H53 H 0.4641 0.5531 0.4209
C98 C 0.4792(7) 0.5912(5) 0.5169(5)
H54 H 0.4252 0.6013 0.5234
C99 C 0.5359(6) 0.6008(4) 0.5642(4)
H55 H 0.5194 0.6139 0.6039
C100 C 0.6221(5) 0.5920(3) 0.5571(4)
H56 H 0.6620 0.6007 0.5912
C101 C 0.7317(5) 0.5587(4) 0.4843(4)
H57 H 0.7700 0.5834 0.5234
H58 H 0.7359 0.5118 0.4681
C102 C 0.7552(6) 0.5807(4) 0.4385(5)
H59 H 0.8111 0.5710 0.4288
H60 H 0.7561 0.6285 0.4560
N13 N 0.6938(5) 0.5457(3) 0.3799(4)
N14 N 0.6415(5) 0.5700(4) 0.4971(4)
C103 C 0.8623(9) 0.9604(7) 0.7307(6)
H61 H 0.8694 0.9341 0.7507
C104 C 0.8342(11) 1.0224(7) 0.7660(8)
H62 H 0.8174 1.0368 0.8057
C105 C 0.8357(10) 1.0599(7) 0.7306(8)
H63 H 0.8250 1.1036 0.7517
C106 C 0.8507(8) 1.0388(6) 0.6712(6)
H64 H 0.8452 1.0654 0.6513
C107 C 0.8754(8) 0.9748(6) 0.6390(6)
C108 C 0.9013(8) 0.9493(6) 0.5772(6)
C109 C 0.8658(10) 0.9702(7) 0.5345(8)
H65 H 0.8283 1.0010 0.5449
C110 C 0.8924(10) 0.9402(8) 0.4752(8)
H66 H 0.8663 0.9484 0.4438
C111 C 0.9557(9) 0.8983(8) 0.4582(7)
H67 H 0.9785 0.8854 0.4206
C112 C 0.9799(12) 0.8788(7) 0.5028(8)
H68 H 1.0138 0.8455 0.4916
C113 C 0.9095(7) 0.8709(5) 0.6378(5)
H69 H 0.8649 0.8389 0.6059
H70 H 0.9250 0.8540 0.6673
C114 C 0.9882(8) 0.8799(5) 0.6056(5)
H71 H 1.0333 0.9119 0.6371
H72 H 1.0087 0.8378 0.5832
N15 N 0.8790(6) 0.9371(4) 0.6725(5)
N16 N 0.9583(6) 0.9043(4) 0.5616(4)
C1 C 0.9921(9) -0.2557(5) 0.1150(5)
C2 C 0.9151(9) -0.2594(7) 0.1045(6)
H1 H 0.8781 -0.2925 0.1060
C3 C 0.8839(8) -0.2063(6) 0.0890(5)
C4 C 0.9465(7) -0.1653(6) 0.0809(5)
C5 C 1.0314(9) -0.1646(5) 0.0897(5)
H2 H 1.0701 -0.1349 0.0847
C6 C 1.0565(7) -0.2148(5) 0.1079(5)
C7 C 1.1427(10) -0.2162(7) 0.1118(9)
C8 C 0.7973(15) -0.1972(19) 0.0852(14)
C9 C 1.0028(9) -0.0525(6) 0.0645(6)
C10 C 1.0583(10) -0.0687(6) 0.0145(6)
C11 C 1.1207(7) -0.0175(5) 0.0273(5)
C12 C 1.1495(10) 0.0344(6) 0.0891(6)
C13 C 1.0422(10) -0.1229(7) -0.0522(6)
H3 H 1.0413 -0.1665 -0.0541
H4 H 0.9896 -0.1217 -0.0740
C14 C 1.1150(13) -0.1063(8) -0.0787(7)
H5 H 1.0953 -0.1021 -0.1160
H6 H 1.1490 -0.1419 -0.0915
C15 C 1.1692(8) -0.0402(5) -0.0296(5)
H7 H 1.2251 -0.0475 -0.0186
H8 H 1.1738 -0.0077 -0.0453
C16 C 1.2569(9) 0.1328(6) 0.1857(6)
C17 C 1.2174(6) 0.1867(5) 0.2209(5)
H9 H 1.1826 0.2028 0.1999
C18 C 1.2282(6) 0.2171(4) 0.2859(4)
C19 C 1.2905(10) 0.1967(6) 0.3181(6)
C20 C 1.3264(7) 0.1466(6) 0.2840(6)
H10 H 1.3640 0.1330 0.3056
C21 C 1.3151(8) 0.1117(6) 0.2202(6)
C22 C 1.1824(8) 0.2763(6) 0.3203(6)
C23 C 1.3532(12) 0.0485(7) 0.1861(7)
C24 C 1.3513(6) 0.1737(4) 0.4150(5)
C25 C 1.4338(7) 0.1814(4) 0.4290(5)
C26 C 1.4652(5) 0.1313(4) 0.4400(4)
C27 C 1.4064(5) 0.0831(4) 0.4386(5)
C28 C 1.5133(6) 0.2331(5) 0.4352(5)
H11 H 1.5082 0.2442 0.4006
H12 H 1.5189 0.2738 0.4748
C29 C 1.5907(8) 0.1953(6) 0.4328(6)
H13 H 1.6078 0.1765 0.3910
H14 H 1.6381 0.2250 0.4634
C30 C 1.5576(8) 0.1397(6) 0.4494(6)
H15 H 1.5768 0.0983 0.4224
H16 H 1.5782 0.1521 0.4930
C31 C 1.3583(9) -0.0394(6) 0.4391(6)
C32 C 1.3293(6) -0.0969(5) 0.3777(5)
C33 C 1.2608(7) -0.1431(5) 0.3737(5)
H17 H 1.2377 -0.1777 0.3343
C34 C 1.2281(5) -0.1383(4) 0.4252(4)
C35 C 1.2621(5) -0.0850(4) 0.4854(4)
C36 C 1.3235(6) -0.0393(4) 0.4893(5)
H18 H 1.3444 -0.0047 0.5293
C37 C 1.3662(7) -0.1056(5) 0.3165(5)
C38 C 1.2279(7) -0.0708(6) 0.5511(6)
C39 C 1.1118(6) -0.2386(5) 0.3373(5)
C40 C 1.1253(6) -0.3037(5) 0.2931(5)
C41 C 1.1045(7) -0.3281(5) 0.2315(5)
C42 C 1.0562(10) -0.2903(6) 0.2072(6)
C43 C 1.1707(9) -0.3529(6) 0.3067(7)
H19 H 1.1468 -0.3613 0.3387
H20 H 1.2302 -0.3364 0.3204
C44 C 1.1555(9) -0.4159(6) 0.2425(7)
H21 H 1.2060 -0.4368 0.2357
H22 H 1.1105 -0.4473 0.2426
C45 C 1.1331(8) -0.3999(5) 0.1905(6)
H23 H 1.0874 -0.4319 0.1597
H24 H 1.1810 -0.3967 0.1694
N1 N 1.0427(6) -0.2300(5) 0.2494(4)
N2 N 1.0637(6) -0.2058(4) 0.3115(5)
N3 N 1.0299(6) -0.0007(5) 0.1220(5)
N4 N 1.0980(7) 0.0452(5) 0.1325(5)
N5 N 1.3256(5) 0.0784(3) 0.4278(4)
N6 N 1.2951(6) 0.1268(4) 0.4159(4)
O1 O 1.1857(11) -0.2199(10) 0.1536(8)
O2 O 1.1855(8) -0.2065(10) 0.0802(9)
O3 O 0.7372(12) -0.2581(15) 0.0646(15)
O4 O 0.7611(9) -0.1708(9) 0.0670(6)
O5 O 1.3089(7) -0.0056(5) 0.1538(5)
O6 O 1.4345(9) 0.0585(6) 0.1993(7)
O7 O 1.2054(4) 0.3157(3) 0.3784(3)
O8 O 1.1113(6) 0.2766(3) 0.2889(4)
O9 O 1.3825(6) -0.0551(4) 0.3087(4)
O10 O 1.3624(6) -0.1622(4) 0.2765(4)
O11 O 1.2346(8) -0.0163(5) 0.5947(4)
O12 O 1.1852(5) -0.1286(4) 0.5453(4)
S1 S 1.0246(3) -0.32579(18) 0.12754(17)
S2 S 0.9096(2) -0.10293(16) 0.05819(16)
S3 S 1.2360(2) 0.09257(16) 0.10124(15)
S4 S 1.30212(17) 0.23836(12) 0.40410(12)
S5 S 1.44737(19) 0.01799(14) 0.45013(15)
S6 S 1.14212(19) -0.20218(14) 0.41636(13)
O35? O 1.5542(18) 0.4624(15) 0.7852(13)
loop_
_geom_bond_atom_site_label_1
_geom_bond_atom_site_label_2
_geom_bond_site_symmetry_1
_geom_bond_site_symmetry_2
C1 C2 1_555 1_555
C2 H1 1_555 1_555
C3 C2 1_555 1_555
C4 C3 1_555 1_555
C5 C4 1_555 1_555
H2 C5 1_555 1_555
C6 C1 1_555 1_555
C7 C6 1_555 1_555
C8 C3 1_555 1_555
C9 C10 1_555 1_555
C10 C11 1_555 1_555
C11 C12 1_555 1_555
C12 N4 1_555 1_555
C13 C10 1_555 1_555
H3 C13 1_555 1_555
H4 C13 1_555 1_555
C14 C13 1_555 1_555
H5 C14 1_555 1_555
H6 C14 1_555 1_555
C15 C11 1_555 1_555
H7 C15 1_555 1_555
H8 C15 1_555 1_555
C16 C17 1_555 1_555
C17 H9 1_555 1_555
C18 C17 1_555 1_555
C19 C18 1_555 1_555
C20 C19 1_555 1_555
H10 C20 1_555 1_555
C21 C16 1_555 1_555
C22 C18 1_555 1_555
C23 C21 1_555 1_555
C24 C25 1_555 1_555
C25 C26 1_555 1_555
C26 C27 1_555 1_555
C27 N5 1_555 1_555
C28 C25 1_555 1_555
H11 C28 1_555 1_555
H12 C28 1_555 1_555
C29 C28 1_555 1_555
H13 C29 1_555 1_555
H14 C29 1_555 1_555
C30 C26 1_555 1_555
H15 C30 1_555 1_555
H16 C30 1_555 1_555
C31 C32 1_555 1_555
C32 C33 1_555 1_555
C33 H17 1_555 1_555
C34 C33 1_555 1_555
C35 C34 1_555 1_555
C36 C31 1_555 1_555
H18 C36 1_555 1_555
C37 C32 1_555 1_555
C38 C35 1_555 1_555
C39 C40 1_555 1_555
C40 C41 1_555 1_555
C41 C42 1_555 1_555
C42 N1 1_555 1_555
C43 C40 1_555 1_555
H19 C43 1_555 1_555
H20 C43 1_555 1_555
C44 C43 1_555 1_555
H21 C44 1_555 1_555
H22 C44 1_555 1_555
C45 C41 1_555 1_555
H23 C45 1_555 1_555
H24 C45 1_555 1_555
N1 N2 1_555 1_555
N2 C39 1_555 1_555
N3 C9 1_555 1_555
N4 N3 1_555 1_555
N5 N6 1_555 1_555
N6 C24 1_555 1_555
O1 C7 1_555 1_555
O2 C7 1_555 1_555
O3 C8 1_555 1_555
O4 C8 1_555 1_555
O5 C23 1_555 1_555
O6 C23 1_555 1_555
O7 C22 1_555 1_555
O8 C22 1_555 1_555
O9 C37 1_555 1_555
O10 C37 1_555 1_555
O11 C38 1_555 1_555
O12 C38 1_555 1_555
S1 C1 1_555 1_555
S2 C4 1_555 1_555
S3 C12 1_555 1_555
S4 C19 1_555 1_555
S5 C27 1_555 1_555
S6 C34 1_555 1_555
C46 C47 1_555 1_555
C47 C48 1_555 1_555
C48 H25 1_555 1_555
C49 C48 1_555 1_555
C50 C49 1_555 1_555
C51 C46 1_555 1_555
H26 C51 1_555 1_555
C52 C47 1_555 1_555
C53 C50 1_555 1_555
C54 C55 1_555 1_555
C55 C56 1_555 1_555
C56 C57 1_555 1_555
C57 N9 1_555 1_555
C58 C55 1_555 1_555
H27 C58 1_555 1_555
H28 C58 1_555 1_555
C59 C58 1_555 1_555
H29 C59 1_555 1_555
H30 C59 1_555 1_555
C60 C56 1_555 1_555
H31 C60 1_555 1_555
H32 C60 1_555 1_555
C61 C62 1_555 1_555
C62 C63 1_555 1_555
C63 H33 1_555 1_555
C64 C63 1_555 1_555
C65 C64 1_555 1_555
C66 C61 1_555 1_555
H34 C66 1_555 1_555
C67 C61 1_555 1_555
C68 C64 1_555 1_555
C69 C70 1_555 1_555
C70 C71 1_555 1_555
C71 C72 1_555 1_555
C72 N11 1_555 1_555
C73 C70 1_555 1_555
H35 C73 1_555 1_555
H36 C73 1_555 1_555
C74 C73 1_555 1_555
H37 C74 1_555 1_555
H38 C74 1_555 1_555
C75 C71 1_555 1_555
H39 C75 1_555 1_555
H40 C75 1_555 1_555
C76 C77 1_555 1_555
C77 H41 1_555 1_555
C78 C77 1_555 1_555
C79 C78 1_555 1_555
C80 C79 1_555 1_555
H42 C80 1_555 1_555
C81 C76 1_555 1_555
C82 C81 1_555 1_555
C83 C78 1_555 1_555
C84 C85 1_555 1_555
C85 C86 1_555 1_555
C86 C87 1_555 1_555
C87 N7 1_555 1_555
C88 C85 1_555 1_555
H43 C88 1_555 1_555
H44 C88 1_555 1_555
C89 C88 1_555 1_555
H45 C89 1_555 1_555
H46 C89 1_555 1_555
C90 C86 1_555 1_555
H47 C90 1_555 1_555
H48 C90 1_555 1_555
N7 N8 1_555 1_555
N8 C84 1_555 1_555
N9 N10 1_555 1_555
N10 C54 1_555 1_555
N11 N12 1_555 1_555
N12 C69 1_555 1_555
O13 C52 1_555 1_555
O14 C52 1_555 1_555
O15 C53 1_555 1_555
O16 C53 1_555 1_555
O17 C68 1_555 1_555
O18 C68 1_555 1_555
O19 C67 1_555 1_555
O20 C67 1_555 1_555
O21 C82 1_555 1_555
O22 C82 1_555 1_555
O23 C83 1_555 1_555
O24 C83 1_555 1_555
S7 C46 1_555 1_555
S8 C49 1_555 1_555
S9 C57 1_555 1_555
S10 C62 1_555 1_555
S11 C72 1_555 1_555
S12 C79 1_555 1_555
C91 H49 1_555 1_555
C92 C91 1_555 1_555
H50 C92 1_555 1_555
C93 C92 1_555 1_555
H51 C93 1_555 1_555
C94 C93 1_555 1_555
H52 C94 1_555 1_555
C95 C94 1_555 1_555
C96 C95 1_555 1_555
C97 C96 1_555 1_555
H53 C97 1_555 1_555
C98 C97 1_555 1_555
H54 C98 1_555 1_555
C99 C98 1_555 1_555
H55 C99 1_555 1_555
C100 C99 1_555 1_555
H56 C100 1_555 1_555
C101 H57 1_555 1_555
H58 C101 1_555 1_555
C102 C101 1_555 1_555
H59 C102 1_555 1_555
H60 C102 1_555 1_555
N13 C91 1_555 1_555
N14 C96 1_555 1_555
C103 H61 1_555 1_555
C104 C103 1_555 1_555
H62 C104 1_555 1_555
C105 C104 1_555 1_555
H63 C105 1_555 1_555
C106 C105 1_555 1_555
H64 C106 1_555 1_555
C107 C106 1_555 1_555
C108 C107 1_555 1_555
C109 C108 1_555 1_555
H65 C109 1_555 1_555
C110 C109 1_555 1_555
H66 C110 1_555 1_555
C111 C110 1_555 1_555
H67 C111 1_555 1_555
C112 C111 1_555 1_555
H68 C112 1_555 1_555
C113 H69 1_555 1_555
H70 C113 1_555 1_555
C114 C113 1_555 1_555
H71 C114 1_555 1_555
H72 C114 1_555 1_555
N15 C103 1_555 1_555
N16 C108 1_555 1_555
C5 C6 1_555 1_555
C9 S2 1_555 1_555
C14 C15 1_555 1_555
C16 S3 1_555 1_555
C20 C21 1_555 1_555
C24 S4 1_555 1_555
C29 C30 1_555 1_555
C31 S5 1_555 1_555
C35 C36 1_555 1_555
C39 S6 1_555 1_555
C42 S1 1_555 1_555
C44 C45 1_555 1_555
C50 C51 1_555 1_555
C54 S8 1_555 1_555
C59 C60 1_555 1_555
C65 C66 1_555 1_555
C65 S9 1_555 1_555
C69 S10 1_555 1_555
C74 C75 1_555 1_555
C76 S11 1_555 1_555
C80 C81 1_555 1_555
C84 S12 1_555 1_555
C87 S7 1_555 1_555
C89 C90 1_555 1_555
C95 N13 1_555 1_555
C100 N14 1_555 1_555
C101 N14 1_555 1_555
C102 N13 1_555 1_555
C107 N15 1_555 1_555
C112 N16 1_555 1_555
C113 N15 1_555 1_555
C114 N16 1_555 1_555

#END
