
#######################################################################
#
#                 Cambridge Crystallographic Data Centre
#                                CCDC 
#
#######################################################################
#
# If this CIF has been generated from an entry in the Cambridge 
# Structural Database, then it will include bibliographic, chemical, 
# crystal, experimental, refinement or atomic coordinate data resulting 
# from the CCDC's data processing and validation procedures.
#
#######################################################################

data_QUDGON
_chemical_formula_moiety         'C22 H21 N1 O6 S1,C1 H2 Cl2'
_chemical_name_systematic        
'ethyl 2-methoxy-10-methyl-7-oxo-9-phenyl-7,10-dihydro-10aH-pyrido[1,2-b][1,2]benzothiazole-10a-carboxylate 5,5-dioxide dichloromethane solvate'
_symmetry_cell_setting           orthorhombic
_symmetry_space_group_name_H-M   'P 21 21 21'
_symmetry_Int_Tables_number      19
_space_group_name_Hall           'P 2ac 2ab'
loop_
_symmetry_equiv_pos_site_id
_symmetry_equiv_pos_as_xyz
1 x,y,z
2 1/2-x,-y,1/2+z
3 -x,1/2+y,1/2-z
4 1/2+x,1/2-y,-z
_cell_length_a                   8.0175(3)
_cell_length_b                   15.0061(6)
_cell_length_c                   19.3440(6)
_cell_angle_alpha                90
_cell_angle_beta                 90
_cell_angle_gamma                90
_cell_volume                     2327.3
_exptl_crystal_colour            colorless
_exptl_crystal_description       block
_cell_formula_units_Z            4
loop_
_atom_site_label
_atom_site_type_symbol
_atom_site_fract_x
_atom_site_fract_y
_atom_site_fract_z
C1 C 1.0198(4) 0.52985(18) 0.25387(15)
C2 C 0.9359(4) 0.57115(17) 0.31338(14)
H1 H 0.9253 0.5374 0.3547
C3 C 0.8733(3) 0.65475(17) 0.31224(13)
C4 C 0.8903(3) 0.71051(18) 0.24700(13)
H2 H 0.8966 0.7748 0.2604
C5 C 1.0536(4) 0.68429(17) 0.21172(13)
C6 C 1.2076(4) 0.70665(19) 0.25684(14)
C7 C 1.3455(5) 0.8200(2) 0.3194(2)
H3 H 1.448 0.8056 0.2932
H4 H 1.3522 0.791 0.3653
C8 C 1.3284(5) 0.9181(3) 0.3274(2)
H5 H 1.316 0.9457 0.2817
H6 H 1.4281 0.942 0.3501
H7 H 1.2299 0.9314 0.3556
C9 C 1.0811(3) 0.72399(18) 0.14060(13)
C10 C 1.1299(4) 0.66207(18) 0.09120(15)
C11 C 1.1675(4) 0.6866(2) 0.02395(15)
H8 H 1.2012 0.6434 -0.0091
C12 C 1.1544(4) 0.7761(2) 0.00611(14)
H9 H 1.1798 0.7949 -0.0396
C13 C 1.1036(3) 0.83867(18) 0.05576(14)
C14 C 1.0668(4) 0.81304(17) 0.12352(14)
H10 H 1.0328 0.8557 0.1569
C15 C 0.7808(4) 0.69247(18) 0.37192(13)
C16 C 0.7782(4) 0.78432(18) 0.38440(14)
H11 H 0.8326 0.8237 0.3533
C17 C 0.6961(4) 0.8184(2) 0.44224(15)
H12 H 0.6964 0.8807 0.4507
C18 C 0.6144(4) 0.7617(2) 0.48732(15)
H13 H 0.5582 0.7852 0.5265
C19 C 0.6145(4) 0.6705(2) 0.47519(16)
H14 H 0.5578 0.6315 0.5059
C20 C 0.6973(4) 0.6364(2) 0.41822(15)
H15 H 0.6974 0.5739 0.4104
C21 C 0.7369(4) 0.6968(2) 0.20085(15)
H16 H 0.7387 0.6364 0.1817
H17 H 0.7387 0.7403 0.1631
H18 H 0.6354 0.705 0.2283
C22 C 1.1313(5) 0.9594(2) -0.02432(15)
H19 H 1.2496 0.9474 -0.033
H20 H 1.1111 1.0237 -0.0265
H21 H 1.0635 0.9293 -0.0594
N1 N 1.0535(3) 0.58775(15) 0.19964(12)
O1 O 1.0557(3) 0.45064(14) 0.24991(10)
O2 O 1.3240(3) 0.65751(16) 0.26440(12)
O3 O 1.1971(3) 0.78864(15) 0.28171(12)
O4 O 1.0868(3) 0.92691(13) 0.04291(10)
O5 O 1.3055(3) 0.52404(14) 0.13296(12)
O6 O 1.0250(3) 0.49498(14) 0.09016(11)
S1 S 1.13796(9) 0.55405(4) 0.12457(4)
C23 C 0.5901(5) 0.9799(3) 0.16576(19)
H22 H 0.5269 1.0309 0.185
H23 H 0.6644 0.9567 0.2025
Cl1 Cl 0.44915(12) 0.89525(6) 0.14003(5)
Cl2 Cl 0.71138(12) 1.01652(7) 0.09521(5)
loop_
_geom_bond_atom_site_label_1
_geom_bond_atom_site_label_2
_geom_bond_site_symmetry_1
_geom_bond_site_symmetry_2
C1 C2 1_555 1_555
C2 H1 1_555 1_555
C3 C2 1_555 1_555
C4 C3 1_555 1_555
H2 C4 1_555 1_555
C5 C4 1_555 1_555
C6 C5 1_555 1_555
C7 H3 1_555 1_555
H4 C7 1_555 1_555
C8 C7 1_555 1_555
H5 C8 1_555 1_555
H6 C8 1_555 1_555
H7 C8 1_555 1_555
C9 C5 1_555 1_555
C10 C9 1_555 1_555
C11 C10 1_555 1_555
H8 C11 1_555 1_555
C12 C11 1_555 1_555
H9 C12 1_555 1_555
C13 C12 1_555 1_555
C14 C9 1_555 1_555
H10 C14 1_555 1_555
C15 C3 1_555 1_555
C16 C15 1_555 1_555
H11 C16 1_555 1_555
C17 C16 1_555 1_555
H12 C17 1_555 1_555
C18 C17 1_555 1_555
H13 C18 1_555 1_555
C19 C18 1_555 1_555
H14 C19 1_555 1_555
C20 C15 1_555 1_555
H15 C20 1_555 1_555
C21 C4 1_555 1_555
H16 C21 1_555 1_555
H17 C21 1_555 1_555
H18 C21 1_555 1_555
C22 H19 1_555 1_555
H20 C22 1_555 1_555
H21 C22 1_555 1_555
N1 C1 1_555 1_555
O1 C1 1_555 1_555
O2 C6 1_555 1_555
O3 C6 1_555 1_555
O4 C13 1_555 1_555
O5 S1 1_555 1_555
O6 S1 1_555 1_555
S1 C10 1_555 1_555
C23 H22 1_555 1_555
H23 C23 1_555 1_555
Cl1 C23 1_555 1_555
Cl2 C23 1_555 1_555
C5 N1 1_555 1_555
C7 O3 1_555 1_555
C13 C14 1_555 1_555
C19 C20 1_555 1_555
C22 O4 1_555 1_555
N1 S1 1_555 1_555

#END
