
#######################################################################
#
#                 Cambridge Crystallographic Data Centre
#                                CCDC 
#
#######################################################################
#
# If this CIF has been generated from an entry in the Cambridge 
# Structural Database, then it will include bibliographic, chemical, 
# crystal, experimental, refinement or atomic coordinate data resulting 
# from the CCDC's data processing and validation procedures.
#
#######################################################################

data_QUDGIH
_chemical_formula_moiety         'C21 H19 N1 O5 S1'
_chemical_name_systematic        
'ethyl 9-(4-methylphenyl)-7-oxo-7,10-dihydro-10aH-pyrido[1,2-b][1,2]benzothiazole-10a-carboxylate 5,5-dioxide'
_symmetry_cell_setting           monoclinic
_symmetry_space_group_name_H-M   'P 21'
_symmetry_Int_Tables_number      4
_space_group_name_Hall           'P 2yb'
loop_
_symmetry_equiv_pos_site_id
_symmetry_equiv_pos_as_xyz
1 x,y,z
2 -x,1/2+y,-z
_cell_length_a                   10.4851(7)
_cell_length_b                   9.1183(7)
_cell_length_c                   11.3321(9)
_cell_angle_alpha                90
_cell_angle_beta                 117.328(3)
_cell_angle_gamma                90
_cell_volume                     962.503
_exptl_crystal_colour            colorless
_exptl_crystal_description       block
_cell_formula_units_Z            2
loop_
_atom_site_label
_atom_site_type_symbol
_atom_site_fract_x
_atom_site_fract_y
_atom_site_fract_z
C1 C 0.3693(3) 0.3701(4) 0.0500(3)
C2 C 0.4428(3) 0.3401(4) 0.1936(3)
H1 H 0.4616 0.4195 0.2537
C3 C 0.4843(3) 0.2041(3) 0.2429(3)
C4 C 0.4475(3) 0.0755(3) 0.1479(3)
H2 H 0.4409 -0.0155 0.1924
H3 H 0.5235 0.0622 0.1201
C5 C 0.3046(3) 0.1058(3) 0.0272(3)
C6 C 0.2613(3) -0.0036(4) -0.0859(3)
C7 C 0.2494(3) -0.1552(4) -0.0796(3)
H4 H 0.2735 -0.2023 0.0027
C8 C 0.2016(3) -0.2362(4) -0.1959(3)
H5 H 0.1951 -0.3399 -0.1923
C9 C 0.1628(3) -0.1683(4) -0.3182(3)
H6 H 0.1269 -0.2256 -0.3969
C10 C 0.1764(3) -0.0181(4) -0.3252(3)
H7 H 0.1521 0.0292 -0.4074
C11 C 0.2268(3) 0.0609(3) -0.2074(3)
C12 C 0.5693(3) 0.1733(3) 0.3863(3)
C13 C 0.6702(3) 0.0610(4) 0.4288(3)
H8 H 0.6823 0.0029 0.3651
C14 C 0.7532(4) 0.0326(4) 0.5628(3)
H9 H 0.8241 -0.0422 0.5897
C15 C 0.7344(4) 0.1117(4) 0.6583(3)
C16 C 0.8259(4) 0.0781(5) 0.8042(4)
H10 H 0.9212 0.1219 0.8345
H11 H 0.8355 -0.0284 0.817
H12 H 0.7803 0.119 0.8555
C17 C 0.6310(4) 0.2205(4) 0.6158(3)
H13 H 0.6145 0.2735 0.6797
C18 C 0.5503(3) 0.2541(4) 0.4817(3)
H14 H 0.4825 0.3319 0.4552
C19 C 0.1841(3) 0.1178(3) 0.0701(3)
C20 C 0.0768(4) -0.0075(4) 0.1860(3)
H15 H 0.0549 -0.1107 0.1969
H16 H -0.0134 0.0404 0.1223
C21 C 0.1358(4) 0.0700(5) 0.3177(4)
H17 H 0.1493 0.1742 0.3052
H18 H 0.2283 0.0265 0.3787
H19 H 0.0684 0.0599 0.3549
N1 N 0.3150(3) 0.2466(3) -0.0300(2)
O1 O 0.3603(2) 0.4911(2) 0.0014(2)
O2 O 0.1069(2) 0.2228(2) 0.0484(2)
O3 O 0.1815(2) -0.0032(3) 0.1337(2)
O4 O 0.1331(3) 0.3339(3) -0.2643(2)
O5 O 0.3797(2) 0.2825(2) -0.2183(2)
S1 S 0.26102(8) 0.24927(8) -0.19370(7)
loop_
_geom_bond_atom_site_label_1
_geom_bond_atom_site_label_2
_geom_bond_site_symmetry_1
_geom_bond_site_symmetry_2
C1 C2 1_555 1_555
C2 H1 1_555 1_555
C3 C2 1_555 1_555
C4 C3 1_555 1_555
H2 C4 1_555 1_555
H3 C4 1_555 1_555
C5 C4 1_555 1_555
C6 C5 1_555 1_555
C7 C6 1_555 1_555
H4 C7 1_555 1_555
C8 C7 1_555 1_555
H5 C8 1_555 1_555
C9 C8 1_555 1_555
H6 C9 1_555 1_555
C10 C9 1_555 1_555
H7 C10 1_555 1_555
C11 C6 1_555 1_555
C12 C3 1_555 1_555
C13 C12 1_555 1_555
H8 C13 1_555 1_555
C14 C13 1_555 1_555
H9 C14 1_555 1_555
C15 C14 1_555 1_555
C16 C15 1_555 1_555
H10 C16 1_555 1_555
H11 C16 1_555 1_555
H12 C16 1_555 1_555
C17 C15 1_555 1_555
H13 C17 1_555 1_555
C18 C12 1_555 1_555
H14 C18 1_555 1_555
C19 C5 1_555 1_555
C20 H15 1_555 1_555
H16 C20 1_555 1_555
C21 C20 1_555 1_555
H17 C21 1_555 1_555
H18 C21 1_555 1_555
H19 C21 1_555 1_555
N1 C1 1_555 1_555
O1 C1 1_555 1_555
O2 C19 1_555 1_555
O3 C19 1_555 1_555
O4 S1 1_555 1_555
O5 S1 1_555 1_555
S1 C11 1_555 1_555
C5 N1 1_555 1_555
C10 C11 1_555 1_555
C17 C18 1_555 1_555
C20 O3 1_555 1_555
N1 S1 1_555 1_555

#END
