
#######################################################################
#
#                 Cambridge Crystallographic Data Centre
#                                CCDC 
#
#######################################################################
#
# If this CIF has been generated from an entry in the Cambridge 
# Structural Database, then it will include bibliographic, chemical, 
# crystal, experimental, refinement or atomic coordinate data resulting 
# from the CCDC's data processing and validation procedures.
#
#######################################################################

data_QUDHOM
_chemical_formula_moiety         'C53 H63 N1 O12 S1'
_chemical_name_systematic        N-Tosyl-calix[4]crown-6-azacrown-5
_symmetry_cell_setting           triclinic
_symmetry_space_group_name_H-M   'P -1'
_symmetry_Int_Tables_number      2
_space_group_name_Hall           '-P 1'
loop_
_symmetry_equiv_pos_site_id
_symmetry_equiv_pos_as_xyz
1 x,y,z
2 -x,-y,-z
_cell_length_a                   10.538(2)
_cell_length_b                   10.946(2)
_cell_length_c                   21.437(3)
_cell_angle_alpha                91.696(3)
_cell_angle_beta                 90.812(3)
_cell_angle_gamma                108.573(3)
_cell_volume                     2342.2
_exptl_crystal_colour            colorless
_exptl_crystal_description       irregular
_cell_formula_units_Z            2
_exptl_crystal_recrystallization_method methanol/dichloromethane
loop_
_atom_site_label
_atom_site_type_symbol
_atom_site_fract_x
_atom_site_fract_y
_atom_site_fract_z
S1 S 0.93081(14) 0.74998(13) -0.00401(6)
N1 N 0.8545(4) 0.7335(4) -0.07225(19)
O1 O 0.6160(3) 0.5552(3) -0.29598(16)
O2 O 0.7931(3) 0.7706(3) -0.21099(16)
O3 O 0.8735(3) 0.6314(3) 0.02765(15)
O4 O 0.9243(3) 0.8669(3) 0.02536(15)
O5 O 0.6122(3) 0.4923(3) -0.06716(16)
O6 O 0.4396(3) 0.2759(3) -0.16248(16)
O7 O 0.5837(3) 0.2178(3) -0.28593(16)
O8 O 0.4618(4) -0.0237(4) -0.40757(17)
O9 O 0.2008(4) -0.2436(4) -0.43700(19)
O10 O -0.0636(4) -0.1822(3) -0.40954(16)
O11 O -0.0607(4) 0.0926(4) -0.41301(17)
O12 O 0.2435(4) 0.2635(3) -0.32399(16)
C1 C 0.6749(6) 0.6899(5) -0.3085(3)
H1 H 0.6215 0.7138 -0.3402
H2 H 0.7641 0.7050 -0.3243
C2 C 0.6825(6) 0.7716(5) -0.2506(2)
H3 H 0.6930 0.8594 -0.2619
H4 H 0.5998 0.7393 -0.2282
C3 C 0.8098(6) 0.8617(5) -0.1602(2)
H5 H 0.7243 0.8495 -0.1408
H6 H 0.8408 0.9484 -0.1757
C4 C 0.9099(5) 0.8461(5) -0.1122(2)
H7 H 0.9868 0.8366 -0.1337
H8 H 0.9407 0.9239 -0.0858
C5 C 1.0984(5) 0.7677(5) -0.0177(2)
C6 C 1.1407(5) 0.6607(5) -0.0234(2)
H9 H 1.0795 0.5793 -0.0183
C7 C 1.2715(5) 0.6719(5) -0.0366(2)
H10 H 1.2984 0.5988 -0.0385
C8 C 1.3642(5) 0.7933(5) -0.0469(2)
C9 C 1.3208(5) 0.8984(5) -0.0416(2)
H11 H 1.3817 0.9793 -0.0482
C10 C 1.1916(5) 0.8905(5) -0.0269(2)
H12 H 1.1664 0.9644 -0.0232
C11 C 1.5045(5) 0.8022(5) -0.0659(2)
H13 H 1.5064 0.7912 -0.1104
H14 H 1.5307 0.7359 -0.0463
H15 H 1.5653 0.8851 -0.0529
C12 C 0.8271(5) 0.6047(5) -0.1059(3)
H16 H 0.8580 0.5485 -0.0798
H17 H 0.8780 0.6165 -0.1439
C13 C 0.6802(5) 0.5399(5) -0.1226(2)
H18 H 0.6428 0.6013 -0.1408
H19 H 0.6699 0.4694 -0.1528
C14 C 0.4727(5) 0.4309(5) -0.0764(3)
H20 H 0.4403 0.4760 -0.1081
H21 H 0.4284 0.4393 -0.0379
C15 C 0.4320(5) 0.2897(5) -0.0960(2)
H22 H 0.4909 0.2498 -0.0757
H23 H 0.3413 0.2465 -0.0832
C16 C 0.5881(5) 0.1132(5) -0.3255(2)
H24 H 0.5975 0.0432 -0.3012
H25 H 0.6628 0.1403 -0.3535
C17 C 0.4584(5) 0.0718(5) -0.3615(2)
H26 H 0.3849 0.0367 -0.3337
H27 H 0.4448 0.1453 -0.3815
C18 C 0.3616(5) -0.0402(6) -0.4555(3)
H28 H 0.3821 -0.0884 -0.4904
H29 H 0.3655 0.0441 -0.4700
C19 C 0.2213(6) -0.1088(5) -0.4355(3)
H30 H 0.2085 -0.0796 -0.3936
H31 H 0.1573 -0.0899 -0.4635
C20 C 0.0759(6) -0.3153(6) -0.4110(3)
H32 H 0.0795 -0.2938 -0.3667
H33 H 0.0655 -0.4064 -0.4157
C21 C -0.0455(6) -0.2929(5) -0.4394(3)
H34 H -0.0336 -0.2798 -0.4838
H35 H -0.1238 -0.3676 -0.4340
C22 C -0.1587(6) -0.1377(5) -0.4410(3)
H36 H -0.2446 -0.2054 -0.4436
H37 H -0.1299 -0.1155 -0.4832
C23 C -0.1726(6) -0.0216(5) -0.4066(3)
H38 H -0.2529 -0.0057 -0.4219
H39 H -0.1839 -0.0398 -0.3627
C24 C 0.0329(7) 0.1197(6) -0.3622(3)
H40 H 0.0691 0.0490 -0.3585
H41 H -0.0122 0.1270 -0.3238
C25 C 0.1410(7) 0.2378(6) -0.3706(3)
H42 H 0.1797 0.2332 -0.4110
H43 H 0.1050 0.3090 -0.3706
C26 C 0.5970(6) 0.4772(5) -0.3505(2)
C27 C 0.4845(6) 0.4594(5) -0.3897(3)
C28 C 0.4766(6) 0.3896(5) -0.4456(3)
H44 H 0.4019 0.3756 -0.4719
C29 C 0.5764(6) 0.3407(5) -0.4631(3)
H45 H 0.5713 0.2986 -0.5019
C30 C 0.6840(6) 0.3544(5) -0.4231(3)
H46 H 0.7494 0.3183 -0.4347
C31 C 0.6971(5) 0.4215(5) -0.3653(3)
C32 C 0.8156(5) 0.4379(5) -0.3226(2)
H47 H 0.8548 0.5295 -0.3129
H48 H 0.8809 0.4119 -0.3464
C33 C 0.8008(5) 0.3699(5) -0.2614(2)
C34 C 0.6937(5) 0.2644(5) -0.2454(3)
C35 C 0.6901(5) 0.2061(5) -0.1876(2)
C36 C 0.7997(5) 0.2544(5) -0.1468(2)
H49 H 0.7996 0.2162 -0.1086
C37 C 0.9082(6) 0.3575(5) -0.1617(3)
H50 H 0.9802 0.3891 -0.1336
C38 C 0.9091(5) 0.4137(5) -0.2189(3)
H51 H 0.9834 0.4821 -0.2293
C39 C 0.5793(5) 0.0865(5) -0.1689(3)
H52 H 0.6049 0.0126 -0.1825
H53 H 0.5795 0.0874 -0.1237
C40 C 0.4373(5) 0.0614(5) -0.1907(2)
C41 C 0.3693(5) 0.1521(5) -0.1859(2)
C42 C 0.2360(5) 0.1248(5) -0.2045(2)
C43 C 0.1686(6) -0.0004(5) -0.2274(2)
H54 H 0.0790 -0.0213 -0.2397
C44 C 0.2300(6) -0.0936(5) -0.2323(2)
H55 H 0.1831 -0.1762 -0.2477
C45 C 0.3642(6) -0.0616(5) -0.2137(2)
H56 H 0.4062 -0.1244 -0.2167
C46 C 0.1620(5) 0.2219(5) -0.1971(2)
H57 H 0.1489 0.2334 -0.1528
H58 H 0.0739 0.1847 -0.2166
C47 C 0.2254(5) 0.3549(5) -0.2232(2)
C48 C 0.2596(5) 0.3717(5) -0.2858(2)
C49 C 0.3187(5) 0.4964(5) -0.3092(2)
C50 C 0.3261(5) 0.6016(5) -0.2699(3)
H59 H 0.3579 0.6841 -0.2854
C51 C 0.2875(5) 0.5871(5) -0.2085(3)
H60 H 0.2942 0.6591 -0.1829
C52 C 0.2387(5) 0.4640(5) -0.1853(3)
H61 H 0.2144 0.4543 -0.1438
C53 C 0.3725(5) 0.5170(5) -0.3746(2)
H62 H 0.4060 0.6090 -0.3810
H63 H 0.2987 0.4799 -0.4042
loop_
_geom_bond_atom_site_label_1
_geom_bond_atom_site_label_2
_geom_bond_site_symmetry_1
_geom_bond_site_symmetry_2
S1 N1 1_555 1_555
N1 C4 1_555 1_555
O1 C1 1_555 1_555
O2 C2 1_555 1_555
O3 S1 1_555 1_555
O4 S1 1_555 1_555
O5 C13 1_555 1_555
O6 C15 1_555 1_555
O7 C16 1_555 1_555
O8 C17 1_555 1_555
O9 C19 1_555 1_555
O10 C21 1_555 1_555
O11 C23 1_555 1_555
O12 C25 1_555 1_555
C1 H1 1_555 1_555
H2 C1 1_555 1_555
C2 C1 1_555 1_555
H3 C2 1_555 1_555
H4 C2 1_555 1_555
C3 O2 1_555 1_555
H5 C3 1_555 1_555
H6 C3 1_555 1_555
C4 C3 1_555 1_555
H7 C4 1_555 1_555
H8 C4 1_555 1_555
C5 S1 1_555 1_555
C6 C5 1_555 1_555
H9 C6 1_555 1_555
C7 C6 1_555 1_555
H10 C7 1_555 1_555
C8 C7 1_555 1_555
C9 C8 1_555 1_555
H11 C9 1_555 1_555
C10 C5 1_555 1_555
H12 C10 1_555 1_555
C11 C8 1_555 1_555
H13 C11 1_555 1_555
H14 C11 1_555 1_555
H15 C11 1_555 1_555
C12 N1 1_555 1_555
H16 C12 1_555 1_555
H17 C12 1_555 1_555
C13 C12 1_555 1_555
H18 C13 1_555 1_555
H19 C13 1_555 1_555
C14 O5 1_555 1_555
H20 C14 1_555 1_555
H21 C14 1_555 1_555
C15 C14 1_555 1_555
H22 C15 1_555 1_555
H23 C15 1_555 1_555
C16 H24 1_555 1_555
H25 C16 1_555 1_555
C17 C16 1_555 1_555
H26 C17 1_555 1_555
H27 C17 1_555 1_555
C18 O8 1_555 1_555
H28 C18 1_555 1_555
H29 C18 1_555 1_555
C19 C18 1_555 1_555
H30 C19 1_555 1_555
H31 C19 1_555 1_555
C20 O9 1_555 1_555
H32 C20 1_555 1_555
H33 C20 1_555 1_555
C21 C20 1_555 1_555
H34 C21 1_555 1_555
H35 C21 1_555 1_555
C22 O10 1_555 1_555
H36 C22 1_555 1_555
H37 C22 1_555 1_555
C23 C22 1_555 1_555
H38 C23 1_555 1_555
H39 C23 1_555 1_555
C24 O11 1_555 1_555
H40 C24 1_555 1_555
H41 C24 1_555 1_555
C25 C24 1_555 1_555
H42 C25 1_555 1_555
H43 C25 1_555 1_555
C26 O1 1_555 1_555
C27 C26 1_555 1_555
C28 C27 1_555 1_555
H44 C28 1_555 1_555
C29 C28 1_555 1_555
H45 C29 1_555 1_555
C30 C29 1_555 1_555
H46 C30 1_555 1_555
C31 C26 1_555 1_555
C32 C31 1_555 1_555
H47 C32 1_555 1_555
H48 C32 1_555 1_555
C33 C32 1_555 1_555
C34 O7 1_555 1_555
C35 C34 1_555 1_555
C36 C35 1_555 1_555
H49 C36 1_555 1_555
C37 C36 1_555 1_555
H50 C37 1_555 1_555
C38 C33 1_555 1_555
H51 C38 1_555 1_555
C39 C35 1_555 1_555
H52 C39 1_555 1_555
H53 C39 1_555 1_555
C40 C39 1_555 1_555
C41 O6 1_555 1_555
C42 C41 1_555 1_555
C43 C42 1_555 1_555
H54 C43 1_555 1_555
C44 C43 1_555 1_555
H55 C44 1_555 1_555
C45 C40 1_555 1_555
H56 C45 1_555 1_555
C46 C42 1_555 1_555
H57 C46 1_555 1_555
H58 C46 1_555 1_555
C47 C46 1_555 1_555
C48 O12 1_555 1_555
C49 C48 1_555 1_555
C50 C49 1_555 1_555
H59 C50 1_555 1_555
C51 C50 1_555 1_555
H60 C51 1_555 1_555
C52 C47 1_555 1_555
H61 C52 1_555 1_555
C53 C27 1_555 1_555
H62 C53 1_555 1_555
H63 C53 1_555 1_555
C9 C10 1_555 1_555
C30 C31 1_555 1_555
C33 C34 1_555 1_555
C37 C38 1_555 1_555
C40 C41 1_555 1_555
C44 C45 1_555 1_555
C47 C48 1_555 1_555
C49 C53 1_555 1_555
C51 C52 1_555 1_555

#END
