
#######################################################################
#
#                 Cambridge Crystallographic Data Centre
#                                CCDC 
#
#######################################################################
#
# If this CIF has been generated from an entry in the Cambridge 
# Structural Database, then it will include bibliographic, chemical, 
# crystal, experimental, refinement or atomic coordinate data resulting 
# from the CCDC's data processing and validation procedures.
#
#######################################################################

data_QUDKAD
_chemical_formula_moiety         'C22 H36 Br2 O2'
_chemical_name_systematic        1,4-dibromo-2,5-bis(octyloxy)benzene
_symmetry_cell_setting           triclinic
_symmetry_space_group_name_H-M   'P -1'
_symmetry_Int_Tables_number      2
_space_group_name_Hall           '-P 1'
loop_
_symmetry_equiv_pos_site_id
_symmetry_equiv_pos_as_xyz
1 x,y,z
2 -x,-y,-z
_cell_length_a                   6.7829(5)
_cell_length_b                   9.6771(6)
_cell_length_c                   9.6955(7)
_cell_angle_alpha                74.616(6)
_cell_angle_beta                 85.043(6)
_cell_angle_gamma                73.541(6)
_cell_volume                     588.411
_exptl_crystal_description       plate
_cell_formula_units_Z            1
loop_
_atom_site_label
_atom_site_type_symbol
_atom_site_fract_x
_atom_site_fract_y
_atom_site_fract_z
Br1 Br -0.06960(3) 0.68538(2) 0.48516(3)
O1 O 0.3181(3) 1.01194(19) 0.65364(19)
C1 C -0.0284(3) 0.8677(2) 0.4920(2)
C2 C 0.1335(3) 0.8674(2) 0.5701(2)
C3 C 0.1648(3) 1.0002(2) 0.5798(2)
C4 C 0.4638(3) 0.8768(3) 0.7225(2)
C5 C 0.6126(3) 0.9189(3) 0.8015(2)
C6 C 1.0855(4) 0.6823(3) 1.0401(3)
C7 C 1.2365(4) 0.7179(3) 1.1239(3)
C8 C 1.3950(4) 0.5804(3) 1.2032(3)
C9 C 1.5393(5) 0.6171(4) 1.2914(4)
C10 C 0.7727(3) 0.7816(3) 0.8810(2)
C11 C 0.9225(3) 0.8195(3) 0.9641(3)
H1 H 0.2221(3) 0.7773(2) 0.6164(2)
H2 H 0.3940(3) 0.8114(3) 0.7891(2)
H3 H 0.5370(3) 0.8255(3) 0.6520(2)
H4 H 0.6813(3) 0.9840(3) 0.7336(2)
H5 H 0.5367(3) 0.9730(3) 0.8692(2)
H6 H 1.1612(4) 0.6320(3) 0.9697(3)
H7 H 1.0179(4) 0.6144(3) 1.1052(3)
H8 H 1.3071(4) 0.7834(3) 1.0583(3)
H9 H 1.1604(4) 0.7709(3) 1.1923(3)
H10 H 1.3246(4) 0.5130(3) 1.2661(3)
H11 H 1.4754(4) 0.5297(3) 1.1345(3)
H12 H 1.604(4) 0.688(3) 1.2306(8)
H13 H 1.4622(9) 0.659(3) 1.365(2)
H14 H 1.642(3) 0.5278(7) 1.334(3)
H15 H 0.7030(3) 0.7157(3) 0.9470(2)
H16 H 0.8493(3) 0.7286(3) 0.8127(2)
H17 H 0.8464(3) 0.8700(3) 1.0342(3)
H18 H 0.9896(3) 0.8874(3) 0.8985(3)
Br1A Br 0.06960(3) 1.31462(2) 0.51484(3)
O1A O -0.3181(3) 0.98806(19) 0.34636(19)
C1A C 0.0284(3) 1.1323(2) 0.5080(2)
C2A C -0.1335(3) 1.1326(2) 0.4299(2)
C3A C -0.1648(3) 0.9998(2) 0.4202(2)
C4A C -0.4638(3) 1.1232(3) 0.2775(2)
C5A C -0.6126(3) 1.0811(3) 0.1985(2)
C6A C -1.0855(4) 1.3177(3) -0.0401(3)
C7A C -1.2365(4) 1.2821(3) -0.1239(3)
C8A C -1.3950(4) 1.4196(3) -0.2032(3)
C9A C -1.5393(5) 1.3829(4) -0.2914(4)
C10A C -0.7727(3) 1.2184(3) 0.1190(2)
C11A C -0.9225(3) 1.1805(3) 0.0359(3)
H1A H -0.2221(3) 1.2227(2) 0.3836(2)
H2A H -0.3940(3) 1.1886(3) 0.2109(2)
H3A H -0.5370(3) 1.1745(3) 0.3480(2)
H4A H -0.6813(3) 1.0160(3) 0.2664(2)
H5A H -0.5367(3) 1.0270(3) 0.1308(2)
H6A H -1.1612(4) 1.3680(3) 0.0303(3)
H7A H -1.0179(4) 1.3856(3) -0.1052(3)
H8A H -1.3071(4) 1.2166(3) -0.0583(3)
H9A H -1.1604(4) 1.2291(3) -0.1923(3)
H10A H -1.3246(4) 1.4870(3) -0.2661(3)
H11A H -1.4754(4) 1.4703(3) -0.1345(3)
H12A H -1.604(4) 1.312(3) -0.2306(8)
H13A H -1.4622(9) 1.341(3) -0.365(2)
H14A H -1.642(3) 1.4722(7) -0.334(3)
H15A H -0.7030(3) 1.2843(3) 0.0530(2)
H16A H -0.8493(3) 1.2714(3) 0.1873(2)
H17A H -0.8464(3) 1.1300(3) -0.0342(3)
H18A H -0.9896(3) 1.1126(3) 0.1015(3)
loop_
_geom_bond_atom_site_label_1
_geom_bond_atom_site_label_2
_geom_bond_site_symmetry_1
_geom_bond_site_symmetry_2
Br1 C1 1_555 1_555
O1 C3 1_555 1_555
C1 C2 1_555 1_555
C2 C3 1_555 1_555
C3 C1A 1_555 1_555
C4 O1 1_555 1_555
C5 C4 1_555 1_555
C6 C7 1_555 1_555
C7 C8 1_555 1_555
C8 C9 1_555 1_555
C9 H12 1_555 1_555
C10 C5 1_555 1_555
C11 C6 1_555 1_555
H1 C2 1_555 1_555
H2 C4 1_555 1_555
H3 C4 1_555 1_555
H4 C5 1_555 1_555
H5 C5 1_555 1_555
H6 C6 1_555 1_555
H7 C6 1_555 1_555
H8 C7 1_555 1_555
H9 C7 1_555 1_555
H10 C8 1_555 1_555
H11 C8 1_555 1_555
H13 C9 1_555 1_555
H14 C9 1_555 1_555
H15 C10 1_555 1_555
H16 C10 1_555 1_555
H17 C11 1_555 1_555
H18 C11 1_555 1_555
Br1A C1A 1_555 1_555
O1A C3A 1_555 1_555
C1A C2A 1_555 1_555
C2A C3A 1_555 1_555
C3A C1 1_555 1_555
C4A O1A 1_555 1_555
C5A C4A 1_555 1_555
C6A C7A 1_555 1_555
C7A C8A 1_555 1_555
C8A C9A 1_555 1_555
C9A H12A 1_555 1_555
C10A C5A 1_555 1_555
C11A C6A 1_555 1_555
H1A C2A 1_555 1_555
H2A C4A 1_555 1_555
H3A C4A 1_555 1_555
H4A C5A 1_555 1_555
H5A C5A 1_555 1_555
H6A C6A 1_555 1_555
H7A C6A 1_555 1_555
H8A C7A 1_555 1_555
H9A C7A 1_555 1_555
H10A C8A 1_555 1_555
H11A C8A 1_555 1_555
H13A C9A 1_555 1_555
H14A C9A 1_555 1_555
H15A C10A 1_555 1_555
H16A C10A 1_555 1_555
H17A C11A 1_555 1_555
H18A C11A 1_555 1_555
C10 C11 1_555 1_555
C10A C11A 1_555 1_555

#END
