
#######################################################################
#
#                 Cambridge Crystallographic Data Centre
#                                CCDC 
#
#######################################################################
#
# If this CIF has been generated from an entry in the Cambridge 
# Structural Database, then it will include bibliographic, chemical, 
# crystal, experimental, refinement or atomic coordinate data resulting 
# from the CCDC's data processing and validation procedures.
#
#######################################################################

data_QUDMUY
_chemical_formula_moiety         'C16 H15 N3 O2'
_chemical_name_systematic        
1-(2-Methoxyphenyl)-4-(4-methoxyphenyl)-1H-1,2,3-triazole
_symmetry_cell_setting           monoclinic
_symmetry_space_group_name_H-M   'P 21/n'
_symmetry_Int_Tables_number      14
_space_group_name_Hall           '-P 2yn'
loop_
_symmetry_equiv_pos_site_id
_symmetry_equiv_pos_as_xyz
1 x,y,z
2 1/2-x,1/2+y,1/2-z
3 -x,-y,-z
4 1/2+x,1/2-y,1/2+z
_cell_length_a                   13.0874(16)
_cell_length_b                   7.4431(9)
_cell_length_c                   14.9811(18)
_cell_angle_alpha                90
_cell_angle_beta                 108.472(2)
_cell_angle_gamma                90
_cell_volume                     1384.14
_exptl_crystal_colour            colorless
_exptl_crystal_description       prismatic
_cell_formula_units_Z            4
loop_
_atom_site_label
_atom_site_type_symbol
_atom_site_fract_x
_atom_site_fract_y
_atom_site_fract_z
O1 O 1.28942(8) 0.12155(16) 0.09466(7)
O2 O 0.65512(7) 0.13447(15) 0.19395(7)
N1 N 0.84609(9) 0.09425(16) 0.33588(8)
N2 N 0.92707(10) 0.16622(19) 0.40672(9)
N3 N 1.01067(9) 0.17641(19) 0.37725(9)
C1 C 0.87937(11) 0.05940(19) 0.26159(10)
H1 H 0.8390 0.0104 0.2041
C2 C 0.98457(10) 0.11094(19) 0.28808(9)
C3 C 1.06297(10) 0.1075(2) 0.23628(10)
C4 C 1.04477(10) 0.0126(2) 0.15368(10)
H2 H 0.9818 -0.0544 0.1310
C5 C 1.11698(11) 0.0137(2) 0.10326(10)
H3 H 1.1023 -0.0507 0.0474
C6 C 1.21127(11) 0.1116(2) 0.13692(10)
C7 C 1.23138(11) 0.2063(2) 0.21969(11)
H4 H 1.2945 0.2729 0.2423
C8 C 1.15892(11) 0.2035(2) 0.26919(11)
H5 H 1.1743 0.2666 0.3255
C9 C 0.74521(11) 0.05745(19) 0.35121(10)
C10 C 0.74676(13) 0.0037(2) 0.43938(11)
H6 H 0.8120 -0.0124 0.4869
C11 C 0.65016(14) -0.0266(2) 0.45697(13)
H7 H 0.6502 -0.0615 0.5166
C12 C 0.55479(14) -0.0047(2) 0.38592(14)
H8 H 0.4902 -0.0255 0.3978
C13 C 0.55280(12) 0.0478(2) 0.29716(13)
H9 H 0.4872 0.0613 0.2497
C14 C 0.64840(11) 0.0803(2) 0.27835(10)
C15 C 1.26809(13) 0.0430(2) 0.00474(11)
H10 H 1.2636 -0.0851 0.0099
H11 H 1.3251 0.0726 -0.0202
H12 H 1.2010 0.0883 -0.0365
C16 C 0.55661(12) 0.1610(2) 0.11844(11)
H13 H 0.5180 0.0495 0.1043
H14 H 0.5726 0.2028 0.0637
H15 H 0.5132 0.2486 0.1368
loop_
_geom_bond_atom_site_label_1
_geom_bond_atom_site_label_2
_geom_bond_site_symmetry_1
_geom_bond_site_symmetry_2
O1 C6 1_555 1_555
O2 C14 1_555 1_555
N1 N2 1_555 1_555
N2 N3 1_555 1_555
N3 C2 1_555 1_555
C1 N1 1_555 1_555
H1 C1 1_555 1_555
C2 C1 1_555 1_555
C3 C2 1_555 1_555
C4 C3 1_555 1_555
H2 C4 1_555 1_555
C5 C4 1_555 1_555
H3 C5 1_555 1_555
C6 C5 1_555 1_555
C7 C6 1_555 1_555
H4 C7 1_555 1_555
C8 C3 1_555 1_555
H5 C8 1_555 1_555
C9 N1 1_555 1_555
C10 C9 1_555 1_555
H6 C10 1_555 1_555
C11 C10 1_555 1_555
H7 C11 1_555 1_555
C12 C11 1_555 1_555
H8 C12 1_555 1_555
C13 C12 1_555 1_555
H9 C13 1_555 1_555
C14 C9 1_555 1_555
C15 O1 1_555 1_555
H10 C15 1_555 1_555
H11 C15 1_555 1_555
H12 C15 1_555 1_555
C16 O2 1_555 1_555
H13 C16 1_555 1_555
H14 C16 1_555 1_555
H15 C16 1_555 1_555
C7 C8 1_555 1_555
C13 C14 1_555 1_555

#END
