
#######################################################################
#
#                 Cambridge Crystallographic Data Centre
#                                CCDC 
#
#######################################################################
#
# If this CIF has been generated from an entry in the Cambridge 
# Structural Database, then it will include bibliographic, chemical, 
# crystal, experimental, refinement or atomic coordinate data resulting 
# from the CCDC's data processing and validation procedures.
#
#######################################################################

data_QUDNIN
_chemical_formula_moiety         'C16 H14 I1 N3 O2'
_chemical_name_systematic        
4-(5-Iodo-2-methoxyphenyl)-1-(2-methoxyphenyl)-1H-1,2,3-triazole
_symmetry_cell_setting           triclinic
_symmetry_space_group_name_H-M   'P 1'
_symmetry_Int_Tables_number      1
_space_group_name_Hall           'P 1'
loop_
_symmetry_equiv_pos_site_id
_symmetry_equiv_pos_as_xyz
1 x,y,z
_cell_length_a                   4.1191(8)
_cell_length_b                   7.3004(15)
_cell_length_c                   13.126(3)
_cell_angle_alpha                95.669(4)
_cell_angle_beta                 90.190(3)
_cell_angle_gamma                92.231(3)
_cell_volume                     392.475
_exptl_crystal_colour            colorless
_exptl_crystal_description       prismatic
_cell_formula_units_Z            1
loop_
_atom_site_label
_atom_site_type_symbol
_atom_site_fract_x
_atom_site_fract_y
_atom_site_fract_z
I1 I 0.7948 0.8183 0.8733
O1 O 1.1133(19) 0.1547(10) 0.5597(6)
O2 O 0.3185(19) 0.0605(10) 0.2870(6)
N1 N 0.630(2) 0.3945(11) 0.3330(6)
N2 N 0.577(3) 0.5741(12) 0.3633(7)
N3 N 0.662(3) 0.6035(12) 0.4584(7)
C1 C 0.757(2) 0.3120(12) 0.4114(7)
H1 H 0.8163 0.1902 0.4107
C2 C 0.7807(19) 0.4462(12) 0.4914(7)
C3 C 0.8846(19) 0.4435(11) 0.5969(6)
C4 C 1.057(2) 0.2935(13) 0.6320(7)
C5 C 1.149(3) 0.3013(15) 0.7342(8)
H2 H 1.2566 0.2031 0.7568
C6 C 1.086(2) 0.4489(15) 0.8026(7)
H3 H 1.1567 0.4525 0.8701
C7 C 0.917(2) 0.5920(14) 0.7710(7)
C8 C 0.819(2) 0.5930(13) 0.6683(7)
H4 H 0.7113 0.6928 0.6478
C9 C 0.565(2) 0.3272(13) 0.2303(6)
C10 C 0.658(3) 0.4322(18) 0.1524(9)
H5 H 0.7695 0.5449 0.1678
C11 C 0.586(4) 0.3701(18) 0.0521(10)
H6 H 0.6507 0.4407 0.0000
C12 C 0.417(3) 0.203(2) 0.0278(8)
H7 H 0.3609 0.1630 -0.0397
C13 C 0.333(3) 0.0965(15) 0.1054(8)
H8 H 0.2291 -0.0181 0.0890
C14 C 0.399(2) 0.1549(13) 0.2071(7)
C15 C 1.284(3) 0.0014(14) 0.5883(11)
H9 H 1.5021 0.0405 0.6079
H10 H 1.2878 -0.0917 0.5313
H11 H 1.1760 -0.0480 0.6449
C16 C 0.130(3) -0.1073(16) 0.2689(12)
H12 H -0.0660 -0.0855 0.2327
H13 H 0.0749 -0.1527 0.3331
H14 H 0.2524 -0.1967 0.2286
loop_
_geom_bond_atom_site_label_1
_geom_bond_atom_site_label_2
_geom_bond_site_symmetry_1
_geom_bond_site_symmetry_2
I1 C7 1_555 1_555
O1 C4 1_555 1_555
O2 C14 1_555 1_555
N1 N2 1_555 1_555
N2 N3 1_555 1_555
N3 C2 1_555 1_555
C1 N1 1_555 1_555
H1 C1 1_555 1_555
C2 C1 1_555 1_555
C3 C2 1_555 1_555
C4 C3 1_555 1_555
C5 C4 1_555 1_555
H2 C5 1_555 1_555
C6 C5 1_555 1_555
H3 C6 1_555 1_555
C7 C6 1_555 1_555
C8 C3 1_555 1_555
H4 C8 1_555 1_555
C9 N1 1_555 1_555
C10 C9 1_555 1_555
H5 C10 1_555 1_555
C11 C10 1_555 1_555
H6 C11 1_555 1_555
C12 C11 1_555 1_555
H7 C12 1_555 1_555
C13 C12 1_555 1_555
H8 C13 1_555 1_555
C14 C9 1_555 1_555
C15 O1 1_555 1_555
H9 C15 1_555 1_555
H10 C15 1_555 1_555
H11 C15 1_555 1_555
C16 O2 1_555 1_555
H12 C16 1_555 1_555
H13 C16 1_555 1_555
H14 C16 1_555 1_555
C7 C8 1_555 1_555
C13 C14 1_555 1_555

#END
