
#######################################################################
#
#                 Cambridge Crystallographic Data Centre
#                                CCDC 
#
#######################################################################
#
# If this CIF has been generated from an entry in the Cambridge 
# Structural Database, then it will include bibliographic, chemical, 
# crystal, experimental, refinement or atomic coordinate data resulting 
# from the CCDC's data processing and validation procedures.
#
#######################################################################

data_QUDNAF
_chemical_formula_moiety         'C16 H15 N3 O2'
_chemical_name_systematic        1,4-bis(4-methoxyphenyl)-1H-1,2,3-triazole
_symmetry_cell_setting           monoclinic
_symmetry_space_group_name_H-M   'C c'
_symmetry_Int_Tables_number      9
_space_group_name_Hall           'C -2yc'
loop_
_symmetry_equiv_pos_site_id
_symmetry_equiv_pos_as_xyz
1 x,y,z
2 x,-y,1/2+z
3 1/2+x,1/2+y,z
4 1/2+x,1/2-y,1/2+z
_cell_length_a                   31.737(6)
_cell_length_b                   5.6510(11)
_cell_length_c                   7.6190(15)
_cell_angle_alpha                90
_cell_angle_beta                 96.54(3)
_cell_angle_gamma                90
_cell_volume                     1357.54
_cell_formula_units_Z            4
loop_
_atom_site_label
_atom_site_type_symbol
_atom_site_fract_x
_atom_site_fract_y
_atom_site_fract_z
C1 C 0.22334(15) 0.2069(2) 0.0054(8)
H1 H 0.2238 0.0423 0.0044
C2 C 0.25539(9) 0.3532(6) -0.0136(5)
C3 C 0.29889(10) 0.3027(7) -0.0422(5)
C4 C 0.30981(10) 0.0950(7) -0.1229(6)
H2 H 0.2890 -0.0162 -0.1587
C5 C 0.35196(12) 0.0517(6) -0.1505(5)
H3 H 0.3594 -0.0883 -0.2032
C6 C 0.38265(9) 0.2222(7) -0.0977(5)
C7 C 0.37134(11) 0.4230(7) -0.0138(6)
H4 H 0.3922 0.5324 0.0252
C8 C 0.33068(12) 0.4673(7) 0.0142(6)
H5 H 0.3239 0.6059 0.0705
C9 C 0.43958(13) -0.0193(9) -0.1806(7)
H6 H 0.4413 -0.1316 -0.0854
H7 H 0.4671 0.0008 -0.2190
H8 H 0.4202 -0.0763 -0.2771
C10 C 0.14584(9) 0.3000(6) 0.0517(5)
C11 C 0.13464(11) 0.0933(7) 0.1320(5)
H9 H 0.1554 -0.0188 0.1671
C12 C 0.09320(11) 0.0510(6) 0.1609(5)
H10 H 0.0862 -0.0881 0.2160
C13 C 0.06203(10) 0.2153(7) 0.1081(5)
C14 C 0.07281(11) 0.4253(7) 0.0257(6)
H11 H 0.0521 0.5373 -0.0097
C15 C 0.11473(12) 0.4642(6) -0.0026(5)
H12 H 0.1220 0.6022 -0.0587
C16 C 0.00429(15) -0.0209(9) 0.1850(7)
H13 H 0.0131 -0.1442 0.1106
H14 H -0.0261 -0.0144 0.1738
H15 H 0.0149 -0.0531 0.3057
N1 N 0.18917(10) 0.3525(6) 0.0271(5)
N2 N 0.20247(10) 0.5815(6) 0.0148(6)
N3 N 0.24259(10) 0.5806(5) -0.0095(6)
O1 O 0.42504(7) 0.2008(6) -0.1217(4)
O2 O 0.02042(7) 0.1987(6) 0.1334(5)
loop_
_geom_bond_atom_site_label_1
_geom_bond_atom_site_label_2
_geom_bond_site_symmetry_1
_geom_bond_site_symmetry_2
C1 H1 1_555 1_555
C2 C1 1_555 1_555
C3 C2 1_555 1_555
C4 C3 1_555 1_555
H2 C4 1_555 1_555
C5 C4 1_555 1_555
H3 C5 1_555 1_555
C6 C5 1_555 1_555
C7 C6 1_555 1_555
H4 C7 1_555 1_555
C8 C3 1_555 1_555
H5 C8 1_555 1_555
C9 H6 1_555 1_555
H7 C9 1_555 1_555
H8 C9 1_555 1_555
C10 C11 1_555 1_555
C11 H9 1_555 1_555
C12 C11 1_555 1_555
H10 C12 1_555 1_555
C13 C12 1_555 1_555
C14 C13 1_555 1_555
H11 C14 1_555 1_555
C15 C10 1_555 1_555
H12 C15 1_555 1_555
C16 H13 1_555 1_555
H14 C16 1_555 1_555
H15 C16 1_555 1_555
N1 C1 1_555 1_555
N2 N1 1_555 1_555
N3 C2 1_555 1_555
O1 C6 1_555 1_555
O2 C13 1_555 1_555
C7 C8 1_555 1_555
C9 O1 1_555 1_555
C10 N1 1_555 1_555
C14 C15 1_555 1_555
C16 O2 1_555 1_555
N2 N3 1_555 1_555

#END
