
#######################################################################
#
#                 Cambridge Crystallographic Data Centre
#                                CCDC 
#
#######################################################################
#
# If this CIF has been generated from an entry in the Cambridge 
# Structural Database, then it will include bibliographic, chemical, 
# crystal, experimental, refinement or atomic coordinate data resulting 
# from the CCDC's data processing and validation procedures.
#
#######################################################################

data_QUDNOT
_chemical_formula_moiety         'C20 H21 I2 N3 O3'
_chemical_name_systematic        
1-(4-Iodo-2,5-dimethoxyphenyl)-4-(5-iodo-2-isobutoxyphenyl)-1H-1,2,3-triazole
_symmetry_cell_setting           triclinic
_symmetry_space_group_name_H-M   'P -1'
_symmetry_Int_Tables_number      2
_space_group_name_Hall           '-P 1'
loop_
_symmetry_equiv_pos_site_id
_symmetry_equiv_pos_as_xyz
1 x,y,z
2 -x,-y,-z
_cell_length_a                   9.0219(8)
_cell_length_b                   9.3670(8)
_cell_length_c                   13.8973(12)
_cell_angle_alpha                105.905(2)
_cell_angle_beta                 90.768(2)
_cell_angle_gamma                104.240(2)
_cell_volume                     1090.65
_exptl_crystal_colour            colorless
_exptl_crystal_description       prismatic
_cell_formula_units_Z            2
loop_
_atom_site_label
_atom_site_type_symbol
_atom_site_fract_x
_atom_site_fract_y
_atom_site_fract_z
I1 I 0.64949(4) 1.19370(4) 0.39102(2)
I2 I 1.42375(4) 0.87911(4) 1.13607(2)
N1 N 0.9958(4) 1.0281(4) 0.7220(2)
N2 N 1.1445(4) 1.1035(4) 0.7560(3)
N3 N 1.1803(4) 1.0481(4) 0.8266(2)
O1 O 0.8172(4) 0.8005(3) 0.5682(2)
O2 O 0.8759(4) 1.4079(3) 0.5764(2)
O3 O 0.8048(3) 0.7256(3) 0.8781(2)
C1 C 0.9386(5) 0.9276(4) 0.7736(3)
H1 H 0.8400 0.8629 0.7654
C2 C 1.0564(4) 0.9411(4) 0.8402(3)
C3 C 1.0651(4) 0.8615(4) 0.9178(3)
C4 C 1.2027(5) 0.8959(5) 0.9755(3)
H2 H 1.2877 0.9676 0.9649
C5 C 1.2141(4) 0.8221(4) 1.0505(3)
C6 C 1.0897(5) 0.7178(5) 1.0666(3)
H3 H 1.0981 0.6697 1.1160
C7 C 0.9506(5) 0.6824(5) 1.0105(3)
H4 H 0.8660 0.6117 1.0226
C8 C 0.9383(4) 0.7532(4) 0.9360(3)
C9 C 0.9191(4) 1.0677(4) 0.6456(3)
C10 C 0.8264(5) 0.9471(4) 0.5676(3)
C11 C 0.7516(5) 0.9899(5) 0.4953(3)
H5 H 0.6886 0.9143 0.4428
C12 C 0.7696(5) 1.1407(5) 0.5008(3)
C13 C 0.8635(5) 1.2579(5) 0.5772(3)
C14 C 0.9368(4) 1.2176(4) 0.6503(3)
H6 H 0.9987 1.2941 0.7029
C15 C 0.7289(6) 0.6812(5) 0.4870(3)
H7 H 0.6238 0.6859 0.4871
H8 H 0.7352 0.5837 0.4940
H9 H 0.7679 0.6932 0.4250
C16 C 0.9668(6) 1.5271(5) 0.6554(4)
H10 H 0.9271 1.5199 0.7181
H11 H 0.9646 1.6245 0.6462
H12 H 1.0705 1.5183 0.6558
C17 C 0.6681(5) 0.6293(6) 0.9020(3)
H13 H 0.6466 0.6724 0.9705
H14 H 0.6807 0.5271 0.8949
C18 C 0.5373(5) 0.6222(6) 0.8282(4)
H15 H 0.5298 0.7268 0.8339
C19 C 0.3876(6) 0.5307(7) 0.8586(5)
H16 H 0.3827 0.4230 0.8369
H17 H 0.3010 0.5488 0.8276
H18 H 0.3860 0.5633 0.9303
C20 C 0.5640(6) 0.5464(8) 0.7213(4)
H19 H 0.6631 0.5977 0.7064
H20 H 0.4861 0.5528 0.6762
H21 H 0.5598 0.4404 0.7136
loop_
_geom_bond_atom_site_label_1
_geom_bond_atom_site_label_2
_geom_bond_site_symmetry_1
_geom_bond_site_symmetry_2
I1 C12 1_555 1_555
I2 C5 1_555 1_555
N1 N2 1_555 1_555
N2 N3 1_555 1_555
N3 C2 1_555 1_555
O1 C10 1_555 1_555
O2 C13 1_555 1_555
O3 C8 1_555 1_555
C1 N1 1_555 1_555
H1 C1 1_555 1_555
C2 C1 1_555 1_555
C3 C2 1_555 1_555
C4 C3 1_555 1_555
H2 C4 1_555 1_555
C5 C4 1_555 1_555
C6 C5 1_555 1_555
H3 C6 1_555 1_555
C7 C6 1_555 1_555
H4 C7 1_555 1_555
C8 C3 1_555 1_555
C9 N1 1_555 1_555
C10 C9 1_555 1_555
C11 C10 1_555 1_555
H5 C11 1_555 1_555
C12 C11 1_555 1_555
C13 C12 1_555 1_555
C14 C9 1_555 1_555
H6 C14 1_555 1_555
C15 O1 1_555 1_555
H7 C15 1_555 1_555
H8 C15 1_555 1_555
H9 C15 1_555 1_555
C16 O2 1_555 1_555
H10 C16 1_555 1_555
H11 C16 1_555 1_555
H12 C16 1_555 1_555
C17 O3 1_555 1_555
H13 C17 1_555 1_555
H14 C17 1_555 1_555
C18 C17 1_555 1_555
H15 C18 1_555 1_555
C19 C18 1_555 1_555
H16 C19 1_555 1_555
H17 C19 1_555 1_555
H18 C19 1_555 1_555
C20 C18 1_555 1_555
H19 C20 1_555 1_555
H20 C20 1_555 1_555
H21 C20 1_555 1_555
C7 C8 1_555 1_555
C13 C14 1_555 1_555

#END
