
#######################################################################
#
#                 Cambridge Crystallographic Data Centre
#                                CCDC 
#
#######################################################################
#
# If this CIF has been generated from an entry in the Cambridge 
# Structural Database, then it will include bibliographic, chemical, 
# crystal, experimental, refinement or atomic coordinate data resulting 
# from the CCDC's data processing and validation procedures.
#
#######################################################################

data_QUDNEJ
_chemical_formula_moiety         'C30 H32 N6 O2'
_chemical_name_systematic        
1,1'-(1,4-Phenylene)bis(4-(2-isobutoxyphenyl)-1H-1,2,3-triazole)
_symmetry_cell_setting           triclinic
_symmetry_space_group_name_H-M   'P -1'
_symmetry_Int_Tables_number      2
_space_group_name_Hall           '-P 1'
loop_
_symmetry_equiv_pos_site_id
_symmetry_equiv_pos_as_xyz
1 x,y,z
2 -x,-y,-z
_cell_length_a                   6.0065(18)
_cell_length_b                   7.828(2)
_cell_length_c                   14.679(4)
_cell_angle_alpha                101.280(5)
_cell_angle_beta                 94.111(5)
_cell_angle_gamma                97.453(5)
_cell_volume                     667.788
_exptl_crystal_colour            colorless
_exptl_crystal_description       prismatic
_cell_formula_units_Z            1
loop_
_atom_site_label
_atom_site_type_symbol
_atom_site_fract_x
_atom_site_fract_y
_atom_site_fract_z
N1 N 0.2328(3) 0.7535(3) 0.41738(13)
N2 N 0.4607(3) 0.7750(3) 0.42240(16)
N3 N 0.5236(3) 0.9013(3) 0.37944(16)
O1 O -0.0025(3) 1.0061(2) 0.22070(12)
C1 C 0.1531(4) 0.8671(3) 0.37051(15)
H1 H 0.0027 0.8789 0.3573
C2 C 0.3381(4) 0.9619(3) 0.34627(16)
C3 C 0.3574(4) 1.1095(3) 0.29750(16)
C4 C 0.5536(4) 1.2334(4) 0.31362(19)
H2 H 0.6750 1.2181 0.3527
C5 C 0.5696(5) 1.3774(4) 0.2726(2)
H3 H 0.7016 1.4581 0.2836
C6 C 0.3916(6) 1.4021(4) 0.2156(2)
H4 H 0.4015 1.5020 0.1899
C7 C 0.1963(5) 1.2799(4) 0.19568(19)
H5 H 0.0772 1.2957 0.1556
C8 C 0.1818(4) 1.1345(3) 0.23626(17)
C9 C 0.1130(4) 0.6239(3) 0.45946(15)
C10 C 0.1964(4) 0.4689(3) 0.46066(18)
H6 H 0.3283 0.4481 0.4336
C11 C -0.0838(4) 0.6552(3) 0.49801(17)
H7 H -0.1403 0.7597 0.4961
C12 C -0.1626(4) 0.9910(3) 0.14184(17)
H8 H -0.0860 1.0016 0.0868
H9 H -0.2575 1.0827 0.1531
C13 C -0.3033(4) 0.8114(3) 0.12811(18)
H10 H -0.3604 0.7999 0.1878
C14 C -0.1617(5) 0.6671(4) 0.1013(2)
H11 H -0.1035 0.6755 0.0428
H12 H -0.2529 0.5546 0.0953
H13 H -0.0385 0.6795 0.1486
C15 C -0.5045(5) 0.7973(5) 0.0573(2)
H14 H -0.5924 0.8888 0.0783
H15 H -0.5958 0.6846 0.0507
H16 H -0.4529 0.8096 -0.0018
N1A N -0.2328(3) 0.2465(3) 0.58262(13)
N2A N -0.4607(3) 0.2250(3) 0.57760(16)
N3A N -0.5236(3) 0.0987(3) 0.62056(16)
O1A O 0.0025(3) -0.0061(2) 0.77930(12)
C1A C -0.1531(4) 0.1329(3) 0.62949(15)
H1A H -0.0027 0.1211 0.6427
C2A C -0.3381(4) 0.0381(3) 0.65373(16)
C3A C -0.3574(4) -0.1095(3) 0.70250(16)
C4A C -0.5536(4) -0.2334(4) 0.68638(19)
H2A H -0.6750 -0.2181 0.6473
C5A C -0.5696(5) -0.3774(4) 0.7274(2)
H3A H -0.7016 -0.4581 0.7164
C6A C -0.3916(6) -0.4021(4) 0.7844(2)
H4A H -0.4015 -0.5020 0.8101
C7A C -0.1963(5) -0.2799(4) 0.80432(19)
H5A H -0.0772 -0.2957 0.8444
C8A C -0.1818(4) -0.1345(3) 0.76374(17)
C9A C -0.1130(4) 0.3761(3) 0.54054(15)
C10A C -0.1964(4) 0.5311(3) 0.53934(18)
H6A H -0.3283 0.5519 0.5664
C11A C 0.0838(4) 0.3448(3) 0.50199(17)
H7A H 0.1403 0.2403 0.5039
C12A C 0.1626(4) 0.0090(3) 0.85816(17)
H8A H 0.0860 -0.0016 0.9132
H9A H 0.2575 -0.0827 0.8469
C13A C 0.3033(4) 0.1886(3) 0.87189(18)
H10A H 0.3604 0.2001 0.8122
C14A C 0.1617(5) 0.3329(4) 0.8987(2)
H11A H 0.1035 0.3245 0.9572
H12A H 0.2529 0.4454 0.9047
H13A H 0.0385 0.3205 0.8514
C15A C 0.5045(5) 0.2027(5) 0.9427(2)
H14A H 0.5924 0.1112 0.9217
H15A H 0.5958 0.3154 0.9493
H16A H 0.4529 0.1904 1.0018
loop_
_geom_bond_atom_site_label_1
_geom_bond_atom_site_label_2
_geom_bond_site_symmetry_1
_geom_bond_site_symmetry_2
N1 N2 1_555 1_555
N2 N3 1_555 1_555
N3 C2 1_555 1_555
O1 C8 1_555 1_555
C1 N1 1_555 1_555
H1 C1 1_555 1_555
C2 C1 1_555 1_555
C3 C2 1_555 1_555
C4 C3 1_555 1_555
H2 C4 1_555 1_555
C5 C4 1_555 1_555
H3 C5 1_555 1_555
C6 C5 1_555 1_555
H4 C6 1_555 1_555
C7 C6 1_555 1_555
H5 C7 1_555 1_555
C8 C3 1_555 1_555
C9 N1 1_555 1_555
C10 C9 1_555 1_555
H6 C10 1_555 1_555
C11 C9 1_555 1_555
H7 C11 1_555 1_555
C12 O1 1_555 1_555
H8 C12 1_555 1_555
H9 C12 1_555 1_555
C13 C12 1_555 1_555
H10 C13 1_555 1_555
C14 C13 1_555 1_555
H11 C14 1_555 1_555
H12 C14 1_555 1_555
H13 C14 1_555 1_555
C15 C13 1_555 1_555
H14 C15 1_555 1_555
H15 C15 1_555 1_555
H16 C15 1_555 1_555
N1A N2A 1_555 1_555
N2A N3A 1_555 1_555
N3A C2A 1_555 1_555
O1A C8A 1_555 1_555
C1A N1A 1_555 1_555
H1A C1A 1_555 1_555
C2A C1A 1_555 1_555
C3A C2A 1_555 1_555
C4A C3A 1_555 1_555
H2A C4A 1_555 1_555
C5A C4A 1_555 1_555
H3A C5A 1_555 1_555
C6A C5A 1_555 1_555
H4A C6A 1_555 1_555
C7A C6A 1_555 1_555
H5A C7A 1_555 1_555
C8A C3A 1_555 1_555
C9A N1A 1_555 1_555
C10A C11 1_555 1_555
H6A C10A 1_555 1_555
C11A C10 1_555 1_555
H7A C11A 1_555 1_555
C12A O1A 1_555 1_555
H8A C12A 1_555 1_555
H9A C12A 1_555 1_555
C13A C12A 1_555 1_555
H10A C13A 1_555 1_555
C14A C13A 1_555 1_555
H11A C14A 1_555 1_555
H12A C14A 1_555 1_555
H13A C14A 1_555 1_555
C15A C13A 1_555 1_555
H14A C15A 1_555 1_555
H15A C15A 1_555 1_555
H16A C15A 1_555 1_555
C7 C8 1_555 1_555
C7A C8A 1_555 1_555
C9A C10A 1_555 1_555
C9A C11A 1_555 1_555

#END
