
#######################################################################
#
#                 Cambridge Crystallographic Data Centre
#                                CCDC 
#
#######################################################################
#
# If this CIF has been generated from an entry in the Cambridge 
# Structural Database, then it will include bibliographic, chemical, 
# crystal, experimental, refinement or atomic coordinate data resulting 
# from the CCDC's data processing and validation procedures.
#
#######################################################################

data_QUDPAH
_chemical_formula_moiety         'C32 H36 N6 O4'
_chemical_name_systematic        
4,4'-(2,5-Dimethoxy-1,4-phenylene)bis(1-(2-isobutoxyphenyl)-1H-1,2,3-triazole)
_symmetry_cell_setting           monoclinic
_symmetry_space_group_name_H-M   'P 21/n'
_symmetry_Int_Tables_number      14
_space_group_name_Hall           '-P 2yn'
loop_
_symmetry_equiv_pos_site_id
_symmetry_equiv_pos_as_xyz
1 x,y,z
2 1/2-x,1/2+y,1/2-z
3 -x,-y,-z
4 1/2+x,1/2-y,1/2+z
_cell_length_a                   4.9870(7)
_cell_length_b                   15.866(2)
_cell_length_c                   18.134(2)
_cell_angle_alpha                90
_cell_angle_beta                 96.121(3)
_cell_angle_gamma                90
_cell_volume                     1426.65
_exptl_crystal_colour            colorless
_exptl_crystal_description       prismatic
_cell_formula_units_Z            2
loop_
_atom_site_label
_atom_site_type_symbol
_atom_site_fract_x
_atom_site_fract_y
_atom_site_fract_z
C1 C 0.156(4) 0.9415(10) 0.1075(8)
C2 C 0.137(4) 0.8587(10) 0.1405(7)
H1 H 0.2372 0.8111 0.1315
N1 N -0.0105(18) 0.9925(8) 0.1329(5)
N2 N -0.143(2) 0.9513(8) 0.1787(5)
N3 N -0.059(3) 0.8649(8) 0.1872(9)
C3 C -0.1706(3) 0.80974(8) 0.23148(7)
C4 C -0.3480(3) 0.84007(9) 0.27908(8)
H2 H -0.3913 0.8971 0.2783
C5 C -0.4613(4) 0.78733(10) 0.32754(9)
H3 H -0.5804 0.8086 0.3590
C6 C -0.3970(4) 0.70326(10) 0.32902(9)
H4 H -0.4711 0.6677 0.3622
C7 C -0.2246(4) 0.67108(9) 0.28198(9)
H5 H -0.1828 0.6139 0.2835
C8 C -0.1125(3) 0.72348(8) 0.23222(8)
C9 C 0.3403(3) 0.96718(8) 0.05199(7)
C10 C 0.4802(3) 0.91327(8) 0.00904(8)
C11 C 0.6360(3) 0.94666(8) -0.04207(8)
H6 H 0.7280 0.9103 -0.0708
C12 C 0.1187(3) 0.60759(9) 0.18246(9)
H7 H -0.0454 0.5744 0.1761
H8 H 0.2186 0.5921 0.2293
C13 C 0.2861(3) 0.59054(9) 0.11988(9)
H9 H 0.4498 0.6250 0.1275
C14 C 0.1376(4) 0.61303(11) 0.04539(9)
H10 H -0.0311 0.5834 0.0389
H11 H 0.2451 0.5973 0.0067
H12 H 0.1046 0.6726 0.0433
C15 C 0.3686(5) 0.49810(10) 0.12199(11)
H13 H 0.2109 0.4634 0.1125
H14 H 0.4590 0.4848 0.1700
H15 H 0.4879 0.4877 0.0848
C16 C 0.6229(4) 0.77398(9) -0.01541(10)
H16 H 0.5750 0.7759 -0.0681
H17 H 0.6023 0.7175 0.0020
H18 H 0.8071 0.7914 -0.0042
O1 O 0.0541(2) 0.69530(6) 0.18244(6)
O2 O 0.4526(3) 0.82878(6) 0.01996(6)
C1B C 0.844(4) 1.0585(10) -0.1075(8)
C2B C 0.863(4) 1.1413(10) -0.1405(7)
H1B H 0.7628 1.1889 -0.1315
N1B N 1.0105(18) 1.0075(8) -0.1329(5)
N2B N 1.143(2) 1.0487(8) -0.1787(5)
N3B N 1.059(3) 1.1351(8) -0.1872(9)
C3B C 1.1706(3) 1.19026(8) -0.23148(7)
C4B C 1.3480(3) 1.15993(9) -0.27908(8)
H2B H 1.3913 1.1029 -0.2783
C5B C 1.4613(4) 1.21267(10) -0.32754(9)
H3B H 1.5804 1.1914 -0.3590
C6B C 1.3970(4) 1.29674(10) -0.32902(9)
H4B H 1.4711 1.3323 -0.3622
C7B C 1.2246(4) 1.32892(9) -0.28198(9)
H5B H 1.1828 1.3861 -0.2835
C8B C 1.1125(3) 1.27652(8) -0.23222(8)
C9B C 0.6597(3) 1.03282(8) -0.05199(7)
C10B C 0.5198(3) 1.08673(8) -0.00904(8)
C11B C 0.3640(3) 1.05334(8) 0.04207(8)
H6B H 0.2720 1.0897 0.0708
C12B C 0.8813(3) 1.39241(9) -0.18246(9)
H7B H 1.0454 1.4256 -0.1761
H8B H 0.7814 1.4079 -0.2293
C13B C 0.7139(3) 1.40946(9) -0.11988(9)
H9B H 0.5502 1.3750 -0.1275
C14B C 0.8624(4) 1.38697(11) -0.04539(9)
H10B H 1.0311 1.4166 -0.0389
H11B H 0.7549 1.4027 -0.0067
H12B H 0.8954 1.3274 -0.0433
C15B C 0.6314(5) 1.50190(10) -0.12199(11)
H13B H 0.7891 1.5366 -0.1125
H14B H 0.5410 1.5152 -0.1700
H15B H 0.5121 1.5123 -0.0848
C16B C 0.3771(4) 1.22602(9) 0.01541(10)
H16B H 0.4250 1.2241 0.0681
H17B H 0.3977 1.2825 -0.0020
H18B H 0.1929 1.2086 0.0042
O1B O 0.9459(2) 1.30470(6) -0.18244(6)
O2B O 0.5474(3) 1.17122(6) -0.01996(6)
C17? C -0.044(5) 0.8726(11) 0.1796(12)
C18? C 0.122(3) 0.8605(10) 0.1271(7)
H19? H 0.1799 0.8093 0.1096
N4? N -0.087(2) 0.9516(8) 0.1950(5)
N5? N 0.0514(19) 0.9925(8) 0.1484(5)
N6? N 0.185(3) 0.9338(8) 0.1063(7)
loop_
_geom_bond_atom_site_label_1
_geom_bond_atom_site_label_2
_geom_bond_site_symmetry_1
_geom_bond_site_symmetry_2
C1 C2 1_555 1_555
C2 H1 1_555 1_555
N1 C1 1_555 1_555
N2 N1 1_555 1_555
N3 C2 1_555 1_555
C3 N3 1_555 1_555
C4 C3 1_555 1_555
H2 C4 1_555 1_555
C5 C4 1_555 1_555
H3 C5 1_555 1_555
C6 C5 1_555 1_555
H4 C6 1_555 1_555
C7 C6 1_555 1_555
H5 C7 1_555 1_555
C8 C3 1_555 1_555
C9 C1 1_555 1_555
C10 C9 1_555 1_555
C11 C10 1_555 1_555
H6 C11 1_555 1_555
C12 H7 1_555 1_555
H8 C12 1_555 1_555
C13 C12 1_555 1_555
H9 C13 1_555 1_555
C14 C13 1_555 1_555
H10 C14 1_555 1_555
H11 C14 1_555 1_555
H12 C14 1_555 1_555
C15 C13 1_555 1_555
H13 C15 1_555 1_555
H14 C15 1_555 1_555
H15 C15 1_555 1_555
C16 H16 1_555 1_555
H17 C16 1_555 1_555
H18 C16 1_555 1_555
O1 C8 1_555 1_555
O2 C10 1_555 1_555
C1B C2B 1_555 1_555
C2B H1B 1_555 1_555
N1B C1B 1_555 1_555
N2B N1B 1_555 1_555
N3B C2B 1_555 1_555
C3B N3B 1_555 1_555
C4B C3B 1_555 1_555
H2B C4B 1_555 1_555
C5B C4B 1_555 1_555
H3B C5B 1_555 1_555
C6B C5B 1_555 1_555
H4B C6B 1_555 1_555
C7B C6B 1_555 1_555
H5B C7B 1_555 1_555
C8B C3B 1_555 1_555
C9B C11 1_555 1_555
C10B C9B 1_555 1_555
C11B C9 1_555 1_555
H6B C11B 1_555 1_555
C12B H7B 1_555 1_555
H8B C12B 1_555 1_555
C13B C12B 1_555 1_555
H9B C13B 1_555 1_555
C14B C13B 1_555 1_555
H10B C14B 1_555 1_555
H11B C14B 1_555 1_555
H12B C14B 1_555 1_555
C15B C13B 1_555 1_555
H13B C15B 1_555 1_555
H14B C15B 1_555 1_555
H15B C15B 1_555 1_555
C16B H16B 1_555 1_555
H17B C16B 1_555 1_555
H18B C16B 1_555 1_555
O1B C8B 1_555 1_555
O2B C10B 1_555 1_555
N2 N3 1_555 1_555
C7 C8 1_555 1_555
C12 O1 1_555 1_555
C16 O2 1_555 1_555
C1B C9B 1_555 1_555
N2B N3B 1_555 1_555
C7B C8B 1_555 1_555
C10B C11B 1_555 1_555
C12B O1B 1_555 1_555
C16B O2B 1_555 1_555

#END
