
#######################################################################
#
#                 Cambridge Crystallographic Data Centre
#                                CCDC 
#
#######################################################################
#
# If this CIF has been generated from an entry in the Cambridge 
# Structural Database, then it will include bibliographic, chemical, 
# crystal, experimental, refinement or atomic coordinate data resulting 
# from the CCDC's data processing and validation procedures.
#
#######################################################################

data_QUDQOX
_chemical_formula_moiety         'C28 H31 N3 O2'
_chemical_name_systematic        
3',6'-bis(Diethylamino)spiro[isoindole-1,9'-xanthen]-3(2H)-one
_symmetry_cell_setting           triclinic
_symmetry_space_group_name_H-M   'P -1'
_symmetry_Int_Tables_number      2
_space_group_name_Hall           '-P 1'
loop_
_symmetry_equiv_pos_site_id
_symmetry_equiv_pos_as_xyz
1 x,y,z
2 -x,-y,-z
_cell_length_a                   8.6027(6)
_cell_length_b                   11.7885(6)
_cell_length_c                   12.0379(7)
_cell_angle_alpha                73.125(5)
_cell_angle_beta                 79.870(5)
_cell_angle_gamma                87.886(5)
_cell_volume                     1149.89
_exptl_crystal_colour            colorless
_exptl_crystal_description       block
_cell_formula_units_Z            2
loop_
_atom_site_label
_atom_site_type_symbol
_atom_site_fract_x
_atom_site_fract_y
_atom_site_fract_z
O1 O 0.42487(15) 0.53876(10) 0.37761(10)
O2 O 0.68836(15) 1.03803(11) 0.00833(10)
C1 C 0.6786(2) 0.64920(16) 0.08905(15)
H1 H 0.7287 0.7181 0.0382
C2 C 0.6791(2) 0.94843(15) 0.09383(15)
N1 N 0.55423(18) 0.87233(12) 0.13849(12)
H2 H 0.4662 0.8844 0.1127
N2 N 0.64733(19) 0.33455(13) 0.10140(13)
C3 C 0.6947(2) 0.54719(16) 0.05506(15)
H3 H 0.7526 0.5491 -0.0184
C4 C 0.6243(2) 0.43897(16) 0.13062(15)
C5 C 0.9868(2) 0.78085(17) 0.32668(17)
H4 H 1.0501 0.7403 0.3801
N3 N 0.11976(18) 0.70453(13) 0.65932(13)
C6 C 0.0360(2) 0.80617(17) 0.68579(16)
H5 H 0.1131 0.8659 0.6818
H6 H -0.0215 0.7810 0.7660
C7 C 0.5175(2) 0.54839(15) 0.26905(14)
C8 C 0.5329(2) 0.44347(15) 0.23841(15)
H7 H 0.4821 0.3750 0.2897
C9 C 0.5815(2) 0.76665(15) 0.23540(14)
C10 C 0.8358(2) 0.73689(16) 0.33383(16)
H8 H 0.7973 0.6681 0.3918
C11 C 0.8014(2) 0.90295(15) 0.16766(15)
C12 C 0.5967(2) 0.22038(16) 0.18680(16)
H9 H 0.5990 0.2253 0.2656
H10 H 0.6707 0.1601 0.1722
C13 C 0.3898(2) 0.64118(15) 0.40983(15)
C14 C 0.9513(2) 0.94779(17) 0.16038(16)
H11 H 0.9882 1.0178 0.1036
C15 C 0.4576(2) 0.75120(15) 0.34579(15)
C16 C 0.0506(2) 0.58706(16) 0.72257(15)
H12 H 0.0093 0.5856 0.8033
H13 H 0.1338 0.5291 0.7246
C17 C 0.7237(2) 0.33116(17) -0.01605(16)
H14 H 0.7007 0.4037 -0.0735
H15 H 0.6794 0.2655 -0.0342
C18 C 1.0444(2) 0.88495(17) 0.24041(17)
H16 H 1.1458 0.9124 0.2365
C19 C 0.5898(2) 0.65403(15) 0.19700(15)
C20 C 0.2792(2) 0.62511(15) 0.51239(15)
H17 H 0.2371 0.5498 0.5521
C21 C 0.4107(2) 0.84521(16) 0.39226(16)
H18 H 0.4562 0.9197 0.3534
C22 C 0.7449(2) 0.79856(15) 0.25222(15)
C23 C -0.0814(2) 0.54920(18) 0.67051(18)
H19 H -0.0450 0.5565 0.5886
H20 H -0.1710 0.5991 0.6784
H21 H -0.1113 0.4683 0.7118
C24 C 0.2998(2) 0.83257(16) 0.49330(16)
H22 H 0.2707 0.8983 0.5197
C25 C 0.9018(2) 0.31748(18) -0.02721(17)
H23 H 0.9452 0.3123 -0.1047
H24 H 0.9254 0.2466 0.0305
H25 H 0.9472 0.3848 -0.0144
C26 C 0.2300(2) 0.72017(16) 0.55713(15)
C27 C 0.4316(2) 0.18358(18) 0.18075(18)
H26 H 0.4316 0.1695 0.1061
H27 H 0.3591 0.2456 0.1893
H28 H 0.3997 0.1124 0.2431
C28 C -0.0791(3) 0.86224(19) 0.60397(18)
H29 H -0.0238 0.8870 0.5242
H30 H -0.1264 0.9297 0.6252
H31 H -0.1600 0.8054 0.6108
loop_
_geom_bond_atom_site_label_1
_geom_bond_atom_site_label_2
_geom_bond_site_symmetry_1
_geom_bond_site_symmetry_2
O1 C7 1_555 1_555
O2 C2 1_555 1_555
C1 H1 1_555 1_555
C2 N1 1_555 1_555
N1 H2 1_555 1_555
N2 C4 1_555 1_555
C3 C1 1_555 1_555
H3 C3 1_555 1_555
C4 C3 1_555 1_555
C5 H4 1_555 1_555
N3 C6 1_555 1_555
C6 H5 1_555 1_555
H6 C6 1_555 1_555
C7 C8 1_555 1_555
C8 C4 1_555 1_555
H7 C8 1_555 1_555
C9 N1 1_555 1_555
C10 C5 1_555 1_555
H8 C10 1_555 1_555
C11 C2 1_555 1_555
C12 N2 1_555 1_555
H9 C12 1_555 1_555
H10 C12 1_555 1_555
C13 O1 1_555 1_555
C14 C11 1_555 1_555
H11 C14 1_555 1_555
C15 C9 1_555 1_555
C16 N3 1_555 1_555
H12 C16 1_555 1_555
H13 C16 1_555 1_555
C17 N2 1_555 1_555
H14 C17 1_555 1_555
H15 C17 1_555 1_555
C18 C5 1_555 1_555
H16 C18 1_555 1_555
C19 C1 1_555 1_555
C20 C13 1_555 1_555
H17 C20 1_555 1_555
C21 C15 1_555 1_555
H18 C21 1_555 1_555
C22 C9 1_555 1_555
C23 C16 1_555 1_555
H19 C23 1_555 1_555
H20 C23 1_555 1_555
H21 C23 1_555 1_555
C24 C21 1_555 1_555
H22 C24 1_555 1_555
C25 C17 1_555 1_555
H23 C25 1_555 1_555
H24 C25 1_555 1_555
H25 C25 1_555 1_555
C26 N3 1_555 1_555
C27 C12 1_555 1_555
H26 C27 1_555 1_555
H27 C27 1_555 1_555
H28 C27 1_555 1_555
C28 C6 1_555 1_555
H29 C28 1_555 1_555
H30 C28 1_555 1_555
H31 C28 1_555 1_555
C7 C19 1_555 1_555
C9 C19 1_555 1_555
C10 C22 1_555 1_555
C11 C22 1_555 1_555
C13 C15 1_555 1_555
C14 C18 1_555 1_555
C20 C26 1_555 1_555
C24 C26 1_555 1_555

#END
