
#######################################################################
#
#                 Cambridge Crystallographic Data Centre
#                                CCDC 
#
#######################################################################
#
# If this CIF has been generated from an entry in the Cambridge 
# Structural Database, then it will include bibliographic, chemical, 
# crystal, experimental, refinement or atomic coordinate data resulting 
# from the CCDC's data processing and validation procedures.
#
#######################################################################

data_QUDTAL
_chemical_formula_moiety         'C22 H25 Cl2 N1 O9 S1'
_chemical_name_systematic        
'(S,S)-2-((2-(2,6-Dichlorophenyl)-4-oxo-1,3-thiazolidin-3-yl)methyl)-6-methoxytetrahydro-2H-pyran-3,4,5-triyl triacetate'
_symmetry_cell_setting           monoclinic
_symmetry_space_group_name_H-M   'C 2'
_symmetry_Int_Tables_number      5
_space_group_name_Hall           'C 2y'
loop_
_symmetry_equiv_pos_site_id
_symmetry_equiv_pos_as_xyz
1 x,y,z
2 -x,y,-z
3 1/2+x,1/2+y,z
4 1/2-x,1/2+y,-z
_cell_length_a                   26.264(4)
_cell_length_b                   11.0210(17)
_cell_length_c                   21.461(3)
_cell_angle_alpha                90
_cell_angle_beta                 125.046(3)
_cell_angle_gamma                90
_cell_volume                     5085.71
_exptl_crystal_colour            colorless
_exptl_crystal_description       block
_cell_formula_units_Z            8
loop_
_atom_site_label
_atom_site_type_symbol
_atom_site_fract_x
_atom_site_fract_y
_atom_site_fract_z
Cl1 Cl 0.84422(10) 1.21416(18) 0.54810(12)
Cl2 Cl 0.75479(10) 0.7876(2) 0.39364(12)
S1 S 0.77907(9) 0.9743(2) 0.58210(11)
N1 N 0.8857(2) 0.9500(5) 0.6005(3)
C1 C 0.8076(3) 1.1259(7) 0.4661(5)
C2 C 0.7993(3) 0.9998(7) 0.4690(4)
C3 C 0.7690(3) 0.9428(7) 0.3997(5)
C4 C 0.7480(3) 0.9997(10) 0.3332(5)
H1 H 0.7266 0.9561 0.2879
C5 C 0.7582(4) 1.1222(10) 0.3325(5)
H2 H 0.7451 1.1611 0.2872
C6 C 0.7878(4) 1.1860(8) 0.3995(5)
H3 H 0.7944 1.2690 0.4000
C7 C 0.8479(3) 1.0192(8) 0.6710(4)
H4 H 0.8459 1.1047 0.6801
H5 H 0.8522 0.9729 0.7122
C8 C 0.9025(3) 0.9950(6) 0.6666(4)
C9 C 0.8206(3) 0.9322(6) 0.5403(4)
H6 H 0.8138 0.8454 0.5282
C10 C 0.9325(3) 0.9190(6) 0.5871(4)
H7 H 0.9676 0.9738 0.6157
H8 H 0.9151 0.9292 0.5335
C11 C 0.9550(3) 0.7894(6) 0.6104(4)
H9 H 0.9649 0.7732 0.6612
C12 C 1.0112(3) 0.7624(6) 0.6089(4)
H10 H 1.0012 0.7783 0.5581
C13 C 1.0309(3) 0.6312(6) 0.6312(4)
H11 H 1.0455 0.6163 0.6840
C14 C 0.9757(3) 0.5525(6) 0.5772(4)
H12 H 0.9665 0.5601 0.5261
C15 C 0.9178(3) 0.5855(6) 0.5733(4)
H13 H 0.8825 0.5385 0.5328
C16 C 0.8710(3) 0.5639(7) 0.6378(4)
H14 H 0.8574 0.6468 0.6303
H15 H 0.8781 0.5341 0.6842
H16 H 0.8396 0.5156 0.5959
C17 C 1.1323(4) 0.9991(8) 0.7021(5)
H17 H 1.1722 0.9599 0.7288
H18 H 1.1208 1.0138 0.7366
H19 H 1.1345 1.0749 0.6817
C18 C 1.0844(4) 0.9187(8) 0.6381(6)
C19 C 1.1776(3) 0.5382(8) 0.6601(4)
H20 H 1.2157 0.5729 0.7020
H21 H 1.1640 0.5819 0.6143
H22 H 1.1844 0.4547 0.6542
C20 C 1.1297(4) 0.5459(7) 0.6753(5)
C21 C 0.9959(4) 0.2218(8) 0.5841(5)
H23 H 0.9748 0.1609 0.5453
H24 H 0.9907 0.2054 0.6240
H25 H 1.0394 0.2209 0.6045
C22 C 0.9692(4) 0.3443(7) 0.5504(6)
O1 O 0.9557(2) 1.0216(5) 0.7181(3)
O4 O 0.90591(19) 0.7120(4) 0.5558(2)
O12 O 1.0614(2) 0.8403(4) 0.6643(3)
O13 O 1.0700(3) 0.9220(7) 0.5760(4)
O14 O 1.1344(2) 0.5047(6) 0.7296(3)
O15 O 1.0793(2) 0.6088(4) 0.6206(3)
O16 O 0.9946(2) 0.4296(5) 0.6031(3)
O17 O 0.9305(3) 0.3613(5) 0.4841(3)
O18 O 0.9277(2) 0.5567(4) 0.6425(3)
Cl3 Cl 0.86277(11) 0.5196(2) 1.11113(13)
Cl4 Cl 0.80633(11) 0.08238(19) 0.96883(13)
S2 S 0.70720(10) 0.3169(2) 0.92683(13)
N2 N 0.7975(3) 0.3493(5) 0.9104(3)
C23 C 0.8697(3) 0.3642(8) 1.1110(5)
C24 C 0.8352(3) 0.2986(7) 1.0430(4)
C25 C 0.8467(4) 0.1762(8) 1.0484(4)
C26 C 0.8899(4) 0.1204(8) 1.1166(6)
H26 H 0.8967 0.0374 1.1180
C27 C 0.9224(4) 0.1863(10) 1.1817(5)
H27 H 0.9515 0.1487 1.2278
C28 C 0.9121(4) 0.3085(9) 1.1791(5)
H28 H 0.9340 0.3540 1.2236
C29 C 0.6978(4) 0.2588(8) 0.8436(4)
H29 H 0.6952 0.1710 0.8429
H30 H 0.6598 0.2900 0.7986
C30 C 0.7527(4) 0.2973(7) 0.8440(5)
C31 C 0.7875(3) 0.3646(7) 0.9692(4)
H31 H 0.7904 0.4514 0.9806
C32 C 0.8556(3) 0.3875(6) 0.9228(4)
H32 H 0.8660 0.3319 0.8966
H33 H 0.8885 0.3830 0.9768
C33 C 0.8527(3) 0.5173(6) 0.8946(4)
H34 H 0.8148 0.5260 0.8430
C34 C 0.9080(3) 0.5422(6) 0.8928(4)
H35 H 0.9466 0.5250 0.9425
C35 C 0.9070(3) 0.6735(6) 0.8710(4)
H36 H 0.8728 0.6871 0.8176
C36 C 0.9003(3) 0.7554(7) 0.9224(4)
H37 H 0.9378 0.7494 0.9745
C37 C 0.8440(3) 0.7225(7) 0.9214(4)
H38 H 0.8428 0.7737 0.9579
C38 C 0.9161(5) 1.0838(8) 0.9096(6)
H39 H 0.9281 1.1485 0.9455
H40 H 0.8741 1.0965 0.8664
H41 H 0.9433 1.0825 0.8932
C39 C 0.9205(4) 0.9649(9) 0.9465(7)
C40 C 1.0270(3) 0.7735(8) 0.8449(4)
H42 H 1.0245 0.7948 0.7998
H43 H 1.0521 0.7021 0.8673
H44 H 1.0453 0.8392 0.8807
C41 C 0.9643(4) 0.7497(7) 0.8249(5)
C42 C 0.9375(4) 0.3185(7) 0.7907(5)
H45 H 0.9471 0.3651 0.7609
H46 H 0.8943 0.2970 0.7598
H47 H 0.9623 0.2461 0.8086
C43 C 0.9511(5) 0.3911(8) 0.8563(6)
C44 C 0.7360(4) 0.7482(9) 0.8470(5)
H48 H 0.7279 0.6699 0.8592
H49 H 0.7017 0.7714 0.7969
H50 H 0.7412 0.8068 0.8833
O2 O 0.7580(3) 0.2812(5) 0.7932(3)
O3 O 0.8497(2) 0.5984(4) 0.9436(3)
O5 O 0.7913(2) 0.7426(4) 0.8495(3)
O6 O 0.9169(3) 0.7724(6) 0.7645(3)
O7 O 0.9655(2) 0.6983(4) 0.8829(3)
O8 O 0.9981(14) 0.397(7) 0.915(2)
O9 O 0.9040(2) 0.4679(4) 0.8356(2)
O10 O 0.8950(2) 0.8773(5) 0.8944(3)
O11 O 0.9446(3) 0.9502(6) 1.0123(4)
O19? O 0.992(3) 0.360(5) 0.924(4)
loop_
_geom_bond_atom_site_label_1
_geom_bond_atom_site_label_2
_geom_bond_site_symmetry_1
_geom_bond_site_symmetry_2
Cl1 C1 1_555 1_555
Cl2 C3 1_555 1_555
Cl3 C23 1_555 1_555
Cl4 C25 1_555 1_555
S1 C7 1_555 1_555
S2 C29 1_555 1_555
N1 C8 1_555 1_555
N2 C30 1_555 1_555
C1 C2 1_555 1_555
C2 C3 1_555 1_555
C3 C4 1_555 1_555
C4 H1 1_555 1_555
C5 C4 1_555 1_555
H2 C5 1_555 1_555
C6 C1 1_555 1_555
H3 C6 1_555 1_555
C7 H4 1_555 1_555
H5 C7 1_555 1_555
C8 C7 1_555 1_555
C9 S1 1_555 1_555
H6 C9 1_555 1_555
C10 N1 1_555 1_555
H7 C10 1_555 1_555
H8 C10 1_555 1_555
C11 C10 1_555 1_555
H9 C11 1_555 1_555
C12 C11 1_555 1_555
H10 C12 1_555 1_555
C13 C12 1_555 1_555
H11 C13 1_555 1_555
C14 C13 1_555 1_555
H12 C14 1_555 1_555
C15 C14 1_555 1_555
H13 C15 1_555 1_555
C16 H14 1_555 1_555
H15 C16 1_555 1_555
H16 C16 1_555 1_555
C17 H17 1_555 1_555
H18 C17 1_555 1_555
H19 C17 1_555 1_555
C18 C17 1_555 1_555
C19 H20 1_555 1_555
H21 C19 1_555 1_555
H22 C19 1_555 1_555
C20 C19 1_555 1_555
C21 H23 1_555 1_555
H24 C21 1_555 1_555
H25 C21 1_555 1_555
C22 C21 1_555 1_555
C23 C24 1_555 1_555
C24 C25 1_555 1_555
C25 C26 1_555 1_555
C26 H26 1_555 1_555
C27 C26 1_555 1_555
H27 C27 1_555 1_555
C28 C23 1_555 1_555
H28 C28 1_555 1_555
C29 H29 1_555 1_555
H30 C29 1_555 1_555
C30 C29 1_555 1_555
C31 S2 1_555 1_555
H31 C31 1_555 1_555
C32 N2 1_555 1_555
H32 C32 1_555 1_555
H33 C32 1_555 1_555
C33 C32 1_555 1_555
H34 C33 1_555 1_555
C34 C33 1_555 1_555
H35 C34 1_555 1_555
C35 C34 1_555 1_555
H36 C35 1_555 1_555
C36 C35 1_555 1_555
H37 C36 1_555 1_555
C37 C36 1_555 1_555
H38 C37 1_555 1_555
C38 H39 1_555 1_555
H40 C38 1_555 1_555
H41 C38 1_555 1_555
C39 C38 1_555 1_555
C40 H42 1_555 1_555
H43 C40 1_555 1_555
H44 C40 1_555 1_555
C41 C40 1_555 1_555
C42 H45 1_555 1_555
H46 C42 1_555 1_555
H47 C42 1_555 1_555
C43 C42 1_555 1_555
C44 H48 1_555 1_555
H49 C44 1_555 1_555
H50 C44 1_555 1_555
O1 C8 1_555 1_555
O2 C30 1_555 1_555
O3 C33 1_555 1_555
O4 C11 1_555 1_555
O5 C37 1_555 1_555
O6 C41 1_555 1_555
O7 C35 1_555 1_555
O8 C43 1_555 1_555
O9 C34 1_555 1_555
O10 C36 1_555 1_555
O11 C39 1_555 1_555
O12 C12 1_555 1_555
O13 C18 1_555 1_555
O14 C20 1_555 1_555
O15 C13 1_555 1_555
O16 C14 1_555 1_555
O17 C22 1_555 1_555
O18 C15 1_555 1_555
N1 C9 1_555 1_555
N2 C31 1_555 1_555
C2 C9 1_555 1_555
C5 C6 1_555 1_555
C15 O4 1_555 1_555
C16 O18 1_555 1_555
C18 O12 1_555 1_555
C20 O15 1_555 1_555
C22 O16 1_555 1_555
C24 C31 1_555 1_555
C27 C28 1_555 1_555
C37 O3 1_555 1_555
C39 O10 1_555 1_555
C41 O7 1_555 1_555
C43 O9 1_555 1_555
C44 O5 1_555 1_555

#END
