
#######################################################################
#
#                 Cambridge Crystallographic Data Centre
#                                CCDC 
#
#######################################################################
#
# If this CIF has been generated from an entry in the Cambridge 
# Structural Database, then it will include bibliographic, chemical, 
# crystal, experimental, refinement or atomic coordinate data resulting 
# from the CCDC's data processing and validation procedures.
#
#######################################################################

data_QUDTEP
_chemical_formula_moiety         'C22 H26 Cl1 N1 O9 S1'
_chemical_name_systematic        
'(S,S)-2-((2-(2-Chlorophenyl)-4-oxo-1,3-thiazolidin-3-yl)methyl)-6-methoxytetrahydro-2H-pyran-3,4,5-triyl triacetate'
_symmetry_cell_setting           orthorhombic
_symmetry_space_group_name_H-M   'P 21 21 21'
_symmetry_Int_Tables_number      19
_space_group_name_Hall           'P 2ac 2ab'
loop_
_symmetry_equiv_pos_site_id
_symmetry_equiv_pos_as_xyz
1 x,y,z
2 1/2-x,-y,1/2+z
3 -x,1/2+y,1/2-z
4 1/2+x,1/2-y,-z
_cell_length_a                   12.5650(6)
_cell_length_b                   13.8821(7)
_cell_length_c                   28.8454(13)
_cell_angle_alpha                90
_cell_angle_beta                 90
_cell_angle_gamma                90
_cell_volume                     5031.46
_exptl_crystal_colour            colorless
_exptl_crystal_description       block
_cell_formula_units_Z            8
loop_
_atom_site_label
_atom_site_type_symbol
_atom_site_fract_x
_atom_site_fract_y
_atom_site_fract_z
Cl1 Cl 1.10427(9) 1.08742(11) 0.57192(6)
S2 S 0.88814(11) 1.18495(9) 0.50572(4)
O10 O 0.5930(2) 1.1447(2) 0.53587(13)
O11 O 0.81325(15) 0.88583(14) 0.53138(6)
O12 O 0.76023(18) 0.81102(17) 0.46272(7)
O13 O 0.96471(19) 0.60580(17) 0.52701(9)
O14 O 0.79905(16) 0.63031(15) 0.50192(7)
O15 O 0.5488(2) 0.5770(2) 0.52229(12)
O16 O 0.65400(18) 0.64578(15) 0.57523(7)
O17 O 0.55061(15) 0.83376(14) 0.57981(6)
O18 O 0.5609(3) 0.7887(4) 0.65267(10)
N2 N 0.7539(2) 1.07721(18) 0.55055(9)
C17 C 1.0116(3) 1.1367(3) 0.60969(14)
C18 C 1.0481(4) 1.1786(4) 0.65002(18)
H23 H 1.1205 1.1787 0.6568
C19 C 0.9780(5) 1.2198(4) 0.67966(17)
H24 H 1.0021 1.2485 0.7068
C20 C 0.8717(4) 1.2192(3) 0.66966(15)
H25 H 0.8237 1.2469 0.6903
C21 C 0.8347(3) 1.1774(3) 0.62881(12)
H26 H 0.7621 1.1773 0.6225
C22 C 0.9040(3) 1.1365(2) 0.59780(12)
C23 C 0.8677(3) 1.0967(2) 0.55181(11)
H27 H 0.9073 1.0377 0.5447
C24 C 0.7544(4) 1.2267(3) 0.51292(19)
H28 H 0.7531 1.2824 0.5332
H29 H 0.7248 1.2452 0.4832
C25 C 0.6897(4) 1.1463(3) 0.53369(14)
C26 C 0.7107(2) 0.9943(2) 0.57513(10)
H30 H 0.6395 1.0096 0.5859
H31 H 0.7544 0.9815 0.6022
C27 C 0.7061(2) 0.9043(2) 0.54548(9)
H32 H 0.6618 0.9163 0.5181
C28 C 0.6629(2) 0.8183(2) 0.57204(9)
H33 H 0.6995 0.8132 0.6019
C29 C 0.6772(2) 0.7255(2) 0.54508(10)
H34 H 0.6292 0.7246 0.5183
C30 C 0.7916(2) 0.7166(2) 0.52902(10)
H35 H 0.8378 0.7104 0.5562
C31 C 0.8239(2) 0.8052(2) 0.50211(10)
H36 H 0.8985 0.7989 0.4927
C32 C 0.7858(4) 0.8895(3) 0.43324(13)
H37 H 0.7900 0.9475 0.4512
H38 H 0.7316 0.8962 0.4100
H39 H 0.8531 0.8777 0.4186
C33 C 0.8897(3) 0.5784(2) 0.50573(11)
C34 C 0.8809(3) 0.4865(2) 0.47946(13)
H40 H 0.9508 0.4638 0.4716
H41 H 0.8408 0.4972 0.4516
H42 H 0.8454 0.4393 0.4982
C35 C 0.5898(3) 0.5755(2) 0.55954(15)
C36 C 0.5783(3) 0.4981(3) 0.59493(18)
H43 H 0.5215 0.4556 0.5861
H44 H 0.5625 0.5264 0.6245
H45 H 0.6435 0.4623 0.5970
C37 C 0.5099(3) 0.8171(3) 0.62198(11)
C38 C 0.3948(3) 0.8372(3) 0.62424(13)
H46 H 0.3621 0.7949 0.6464
H47 H 0.3635 0.8271 0.5943
H48 H 0.3837 0.9029 0.6336
S1 S 0.49733(9) 0.59779(9) 0.85496(4)
O1 O 0.7020(2) 0.7997(2) 0.84006(9)
O2 O 0.8743(2) 0.50044(19) 0.73412(9)
O3 O 0.8454(3) 0.4374(2) 0.59628(11)
O4 O 0.94998(19) 0.51900(17) 0.64462(8)
O5 O 1.0990(2) 0.7488(2) 0.66719(10)
O6 O 0.93988(16) 0.72067(16) 0.63593(7)
O7 O 0.86099(16) 0.81175(16) 0.72072(7)
O8 O 0.7895(7) 0.9103(3) 0.6723(2)
O9 O 0.71890(16) 0.58429(16) 0.71614(8)
N1 N 0.6150(2) 0.6914(2) 0.79549(9)
C1 C 0.5511(3) 0.6032(2) 0.79586(11)
H1 H 0.5989 0.5481 0.7915
C2 C 0.5907(4) 0.6829(4) 0.87706(14)
H2 H 0.5548 0.7299 0.8964
H3 H 0.6442 0.6505 0.8956
C3 C 0.6420(3) 0.7319(3) 0.83609(12)
C4 C 0.6595(2) 0.7272(2) 0.75226(10)
H4 H 0.6789 0.7942 0.7564
H5 H 0.6047 0.7246 0.7286
C5 C 0.7555(2) 0.6729(2) 0.73508(10)
H6 H 0.8035 0.6598 0.7611
C6 C 0.8147(2) 0.7289(2) 0.69820(10)
H7 H 0.7647 0.7501 0.6742
C7 C 0.9031(2) 0.6702(2) 0.67638(10)
H8 H 0.9615 0.6610 0.6984
C8 C 0.8600(2) 0.5737(2) 0.66037(11)
H9 H 0.8112 0.5840 0.6343
C9 C 0.8000(3) 0.5237(2) 0.69970(12)
H10 H 0.7681 0.4641 0.6879
C10 C 0.8309(4) 0.4415(4) 0.76974(18)
H11 H 0.8034 0.4815 0.7941
H12 H 0.8855 0.4003 0.7820
H13 H 0.7745 0.4028 0.7572
C11 C 0.9310(3) 0.4544(3) 0.61022(14)
C12 C 1.0334(4) 0.4108(3) 0.59405(16)
H14 H 1.0207 0.3463 0.5835
H15 H 1.0833 0.4096 0.6192
H16 H 1.0618 0.4486 0.5691
C13 C 1.0388(2) 0.7575(2) 0.63550(11)
C14 C 1.0600(3) 0.8094(3) 0.59203(13)
H17 H 1.1290 0.8388 0.5935
H18 H 1.0069 0.8582 0.5876
H19 H 1.0579 0.7649 0.5666
C15 C 0.8397(4) 0.8986(3) 0.70486(16)
C16 C 0.8845(4) 0.9771(3) 0.7329(2)
H20 H 0.9537 0.9938 0.7213
H21 H 0.8904 0.9565 0.7646
H22 H 0.8386 1.0323 0.7312
Cl2 Cl 0.52903(11) 0.42025(8) 0.73388(6)
C39 C 0.4497(5) 0.5208(5) 0.7293(2)
C40 C 0.3668(6) 0.5226(4) 0.69741(19)
H49 H 0.3574 0.4713 0.6771
C41 C 0.2980(4) 0.6009(5) 0.69590(17)
H50 H 0.2426 0.6020 0.6745
C42 C 0.3120(5) 0.6775(4) 0.7263(2)
H51 H 0.2660 0.7299 0.7253
C43 C 0.3949(6) 0.6758(4) 0.7582(2)
H52 H 0.4043 0.7271 0.7786
C44 C 0.4637(4) 0.5975(6) 0.7598(2)
C45? C 0.389(2) 0.6902(16) 0.7530(10)
C46? C 0.311(2) 0.6722(19) 0.7199(10)
C47? C 0.304(2) 0.582(2) 0.6992(9)
C48? C 0.375(3) 0.5098(11) 0.7115(9)
C49? C 0.453(3) 0.5278(19) 0.7446(9)
C50? C 0.460(2) 0.618(2) 0.7654(9)
Cl3? Cl 0.4007(6) 0.7888(5) 0.7916(3)
H53? H 0.2632 0.7205 0.7116
H54? H 0.2520 0.5700 0.6770
H55? H 0.3708 0.4495 0.6976
H56? H 0.5009 0.4794 0.7529
loop_
_geom_bond_atom_site_label_1
_geom_bond_atom_site_label_2
_geom_bond_site_symmetry_1
_geom_bond_site_symmetry_2
Cl1 C17 1_555 1_555
S1 C1 1_555 1_555
S2 C23 1_555 1_555
O1 C3 1_555 1_555
O2 C9 1_555 1_555
O3 C11 1_555 1_555
O4 C8 1_555 1_555
O5 C13 1_555 1_555
O6 C7 1_555 1_555
O7 C6 1_555 1_555
O8 C15 1_555 1_555
O9 C5 1_555 1_555
O10 C25 1_555 1_555
O11 C27 1_555 1_555
O12 C31 1_555 1_555
O13 C33 1_555 1_555
O14 C30 1_555 1_555
O15 C35 1_555 1_555
O16 C29 1_555 1_555
O17 C28 1_555 1_555
O18 C37 1_555 1_555
N1 C1 1_555 1_555
N2 C23 1_555 1_555
C1 H1 1_555 1_555
C2 S1 1_555 1_555
H2 C2 1_555 1_555
H3 C2 1_555 1_555
C3 N1 1_555 1_555
C4 N1 1_555 1_555
H4 C4 1_555 1_555
H5 C4 1_555 1_555
C5 C4 1_555 1_555
H6 C5 1_555 1_555
C6 C5 1_555 1_555
H7 C6 1_555 1_555
C7 C6 1_555 1_555
H8 C7 1_555 1_555
C8 C7 1_555 1_555
H9 C8 1_555 1_555
C9 O9 1_555 1_555
H10 C9 1_555 1_555
C10 O2 1_555 1_555
H11 C10 1_555 1_555
H12 C10 1_555 1_555
H13 C10 1_555 1_555
C11 O4 1_555 1_555
C12 C11 1_555 1_555
H14 C12 1_555 1_555
H15 C12 1_555 1_555
H16 C12 1_555 1_555
C13 O6 1_555 1_555
C14 C13 1_555 1_555
H17 C14 1_555 1_555
H18 C14 1_555 1_555
H19 C14 1_555 1_555
C15 O7 1_555 1_555
C16 C15 1_555 1_555
H20 C16 1_555 1_555
H21 C16 1_555 1_555
H22 C16 1_555 1_555
C17 C18 1_555 1_555
C18 H23 1_555 1_555
C19 C18 1_555 1_555
H24 C19 1_555 1_555
C20 C19 1_555 1_555
H25 C20 1_555 1_555
C21 C20 1_555 1_555
H26 C21 1_555 1_555
C22 C17 1_555 1_555
C23 C22 1_555 1_555
H27 C23 1_555 1_555
C24 S2 1_555 1_555
H28 C24 1_555 1_555
H29 C24 1_555 1_555
C25 N2 1_555 1_555
C26 N2 1_555 1_555
H30 C26 1_555 1_555
H31 C26 1_555 1_555
C27 C26 1_555 1_555
H32 C27 1_555 1_555
C28 C27 1_555 1_555
H33 C28 1_555 1_555
C29 C28 1_555 1_555
H34 C29 1_555 1_555
C30 C29 1_555 1_555
H35 C30 1_555 1_555
C31 O11 1_555 1_555
H36 C31 1_555 1_555
C32 O12 1_555 1_555
H37 C32 1_555 1_555
H38 C32 1_555 1_555
H39 C32 1_555 1_555
C33 O14 1_555 1_555
C34 C33 1_555 1_555
H40 C34 1_555 1_555
H41 C34 1_555 1_555
H42 C34 1_555 1_555
C35 O16 1_555 1_555
C36 C35 1_555 1_555
H43 C36 1_555 1_555
H44 C36 1_555 1_555
H45 C36 1_555 1_555
C37 O17 1_555 1_555
C38 C37 1_555 1_555
H46 C38 1_555 1_555
H47 C38 1_555 1_555
H48 C38 1_555 1_555
Cl2 C39 1_555 1_555
C39 C40 1_555 1_555
C40 H49 1_555 1_555
C41 C40 1_555 1_555
H50 C41 1_555 1_555
C42 C41 1_555 1_555
H51 C42 1_555 1_555
C43 C42 1_555 1_555
H52 C43 1_555 1_555
C44 C1 1_555 1_555
C2 C3 1_555 1_555
C8 C9 1_555 1_555
C21 C22 1_555 1_555
C24 C25 1_555 1_555
C30 C31 1_555 1_555
C39 C44 1_555 1_555
C43 C44 1_555 1_555

#END
