
#######################################################################
#
#                 Cambridge Crystallographic Data Centre
#                                CCDC 
#
#######################################################################
#
# If this CIF has been generated from an entry in the Cambridge 
# Structural Database, then it will include bibliographic, chemical, 
# crystal, experimental, refinement or atomic coordinate data resulting 
# from the CCDC's data processing and validation procedures.
#
#######################################################################

data_QUDTOZ
_chemical_name_common            
'2,8,14,20-Tetraethyl-4,10,16,22-tetramethoxy-6,12,18,24-tetrakis(2-aminophenylaminoethoxy)calix[4]arene acetonitrile ethanol clathrate'
_chemical_formula_moiety         'C72 H88 N8 O8,C2 H3 N1,C2 H6 O1'
_chemical_name_systematic        
"N^1^,N^1^',N^1^'',N^1^'''-((2,8,14,20-tetraethyl-6,12,18,24-tetramethoxypentacyclo[19.3.1.1^3,7^.1^9,13^.1^15,19^]octacosa-1(25),3(28),4,6,9(27),10,12,15(26),16,18,21,23-dodecaene-4,10,16,22-tetrayl)tetrakis(oxyethane-2,1-diyl))tetrabenzene-1,2-diamine acetonitrile ethanol clathrate"
_symmetry_cell_setting           triclinic
_symmetry_space_group_name_H-M   'P -1'
_symmetry_Int_Tables_number      2
_space_group_name_Hall           '-P 1'
loop_
_symmetry_equiv_pos_site_id
_symmetry_equiv_pos_as_xyz
1 x,y,z
2 -x,-y,-z
_cell_length_a                   15.2189(5)
_cell_length_b                   15.8530(5)
_cell_length_c                   16.5455(5)
_cell_angle_alpha                74.357(3)
_cell_angle_beta                 83.113(2)
_cell_angle_gamma                64.094(2)
_cell_volume                     3457.71
_exptl_crystal_colour            colorless
_exptl_crystal_description       block
_cell_formula_units_Z            2
loop_
_atom_site_label
_atom_site_type_symbol
_atom_site_fract_x
_atom_site_fract_y
_atom_site_fract_z
C1 C 0.1873(3) 0.0922(3) 0.2100(2)
C2 C 0.1560(3) 0.1190(3) 0.2862(3)
H1 H 0.1020 0.1087 0.3143
C3 C 0.2007(3) 0.1599(3) 0.3224(2)
C4 C 0.2776(3) 0.1762(3) 0.2791(2)
C5 C 0.3100(3) 0.1535(3) 0.2023(2)
H2 H 0.3627 0.1656 0.1734
C6 C 0.2629(3) 0.1121(3) 0.1684(2)
C7 C 0.1690(3) 0.1868(3) 0.4068(2)
H3 H 0.2297 0.1647 0.4393
C8 C 0.1153(3) 0.2962(3) 0.3943(2)
C9 C 0.0298(3) 0.3492(3) 0.3484(2)
H4 H 0.0069 0.3157 0.3229
C10 C -0.0248(3) 0.4486(3) 0.3370(2)
C11 C 0.0124(3) 0.4963(3) 0.3730(2)
C12 C 0.0957(3) 0.4460(3) 0.4211(2)
H5 H 0.1178 0.4797 0.4474
C13 C 0.1479(3) 0.3468(3) 0.4319(2)
C14 C -0.1259(3) 0.5002(3) 0.2959(2)
H6 H -0.1488 0.5707 0.2919
C15 C -0.1245(3) 0.4898(3) 0.2061(2)
C16 C -0.1424(3) 0.4189(3) 0.1870(2)
H7 H -0.1523 0.3721 0.2321
C17 C -0.1466(3) 0.4120(3) 0.1050(2)
C18 C -0.1292(3) 0.4813(3) 0.0405(2)
C19 C -0.1101(3) 0.5528(3) 0.0568(3)
H8 H -0.0975 0.5982 0.0121
C20 C -0.1096(3) 0.5573(3) 0.1397(2)
C21 C -0.1764(3) 0.3408(3) 0.0830(2)
H9 H -0.2152 0.3758 0.0301
C22 C -0.0901(3) 0.2526(3) 0.0640(2)
C23 C -0.0118(3) 0.1954(3) 0.1189(2)
H10 H -0.0103 0.2161 0.1673
C24 C 0.0642(3) 0.1101(3) 0.1072(2)
C25 C 0.0618(3) 0.0825(3) 0.0347(2)
C26 C -0.0150(3) 0.1356(3) -0.0211(2)
H11 H -0.0159 0.1148 -0.0696
C27 C -0.0912(3) 0.2199(3) -0.0062(2)
C28 C 0.1418(3) 0.0426(3) 0.1736(3)
H12 H 0.1959 -0.0022 0.1441
C29 C 0.1058(4) 0.1386(3) 0.4609(3)
H13 H 0.0827 0.1656 0.5109
H14 H 0.0476 0.1554 0.4281
C30 C 0.1590(4) 0.0283(3) 0.4901(3)
H15 H 0.1782 0.0004 0.4411
H16 H 0.1154 0.0031 0.5260
H17 H 0.2174 0.0107 0.5219
C31 C -0.1982(3) 0.4678(3) 0.3544(3)
H18 H -0.1810 0.3996 0.3556
H19 H -0.1905 0.4706 0.4120
C32 C -0.3044(4) 0.5280(4) 0.3289(3)
H20 H -0.3216 0.5961 0.3254
H21 H -0.3460 0.5060 0.3709
H22 H -0.3142 0.5208 0.2741
C33 C -0.2426(3) 0.3076(3) 0.1482(3)
H23 H -0.2529 0.2572 0.1315
H24 H -0.2090 0.2781 0.2031
C34 C -0.3418(4) 0.3891(3) 0.1582(3)
H25 H -0.3324 0.4391 0.1755
H26 H -0.3801 0.3633 0.2010
H27 H -0.3767 0.4173 0.1046
C35 C 0.1005(3) -0.0209(3) 0.2381(3)
H28 H 0.0511 0.0193 0.2729
H29 H 0.0670 -0.0445 0.2077
C36 C 0.1774(4) -0.1075(4) 0.2955(3)
H30 H 0.2272 -0.1474 0.2616
H31 H 0.1464 -0.1460 0.3333
H32 H 0.2081 -0.0849 0.3286
C37 C 0.3588(4) 0.1172(4) 0.0420(3)
H33 H 0.3294 0.1880 0.0258
H34 H 0.3734 0.0922 -0.0085
H35 H 0.4193 0.0935 0.0730
C38 C 0.2595(4) 0.3458(3) 0.5240(3)
H36 H 0.2730 0.3965 0.4833
H37 H 0.3185 0.3005 0.5570
H38 H 0.2066 0.3751 0.5616
C39 C -0.0858(4) 0.7031(3) 0.0949(3)
H39 H -0.0278 0.6766 0.0606
H40 H -0.0804 0.7507 0.1191
H41 H -0.1443 0.7345 0.0597
C40 C -0.1742(4) 0.2401(3) -0.1296(3)
H42 H -0.1192 0.2397 -0.1673
H43 H -0.2357 0.2829 -0.1597
H44 H -0.1702 0.1744 -0.1103
C41 C 0.4028(3) 0.2314(3) 0.2791(3)
H45 H 0.3823 0.2817 0.2258
H46 H 0.4554 0.1716 0.2669
C42 C 0.4377(4) 0.2652(3) 0.3402(3)
H47 H 0.4894 0.2856 0.3137
H48 H 0.3828 0.3216 0.3554
C43 C 0.5091(3) 0.2070(3) 0.4820(3)
C44 C 0.5051(4) 0.2964(4) 0.4790(3)
H49 H 0.4799 0.3480 0.4307
C45 C 0.5379(4) 0.3110(4) 0.5467(3)
H50 H 0.5334 0.3732 0.5451
C46 C 0.5769(4) 0.2362(4) 0.6158(3)
H51 H 0.5997 0.2465 0.6618
C47 C 0.5830(4) 0.1464(4) 0.6185(3)
H52 H 0.6097 0.0948 0.6665
C48 C 0.5502(3) 0.1305(3) 0.5515(3)
C49 C 0.0122(3) 0.6463(3) 0.3782(3)
H53 H 0.0822 0.6156 0.3633
H54 H 0.0073 0.6433 0.4390
C50 C -0.0329(4) 0.7493(3) 0.3291(3)
H55 H 0.0053 0.7829 0.3383
H56 H -0.0297 0.7512 0.2686
C51 C -0.1803(3) 0.9009(3) 0.3239(3)
C52 C -0.1320(4) 0.9557(3) 0.2814(3)
H57 H -0.0649 0.9244 0.2677
C53 C -0.1797(4) 1.0561(3) 0.2583(3)
H58 H -0.1453 1.0930 0.2292
C54 C -0.2770(4) 1.1018(4) 0.2777(3)
H59 H -0.3103 1.1703 0.2619
C55 C -0.3260(4) 1.0470(4) 0.3207(3)
H60 H -0.3933 1.0785 0.3338
C56 C -0.2787(3) 0.9471(3) 0.3448(3)
C57 C -0.1500(3) 0.5553(3) -0.1090(2)
H61 H -0.0899 0.5656 -0.1242
H62 H -0.2018 0.6142 -0.0948
C58 C -0.1821(3) 0.5330(3) -0.1808(3)
H63 H -0.1957 0.5876 -0.2310
H64 H -0.1295 0.4744 -0.1949
C59 C -0.3100(3) 0.4877(3) -0.2074(3)
C60 C -0.2804(4) 0.4875(3) -0.2907(3)
H65 H -0.2299 0.5069 -0.3133
C61 C -0.3242(5) 0.4592(4) -0.3407(3)
H66 H -0.3034 0.4586 -0.3971
C62 C -0.3984(5) 0.4318(4) -0.3079(4)
H67 H -0.4298 0.4143 -0.3425
C63 C -0.4273(4) 0.4297(4) -0.2254(4)
H68 H -0.4778 0.4100 -0.2036
C64 C -0.3832(3) 0.4560(3) -0.1740(3)
C65 C 0.1733(4) -0.0036(4) -0.0590(3)
H69 H 0.1875 0.0535 -0.0825
H70 H 0.1249 -0.0013 -0.0956
C66 C 0.2657(4) -0.0955(4) -0.0541(3)
H71 H 0.2494 -0.1518 -0.0362
H72 H 0.2962 -0.0955 -0.1104
C67 C 0.4241(3) -0.1857(3) 0.0199(3)
C68 C 0.4666(4) -0.2430(3) -0.0374(3)
H73 H 0.4331 -0.2290 -0.0876
C69 C 0.5576(4) -0.3205(4) -0.0211(4)
H74 H 0.5867 -0.3591 -0.0604
C70 C 0.6058(4) -0.3414(4) 0.0522(4)
H75 H 0.6676 -0.3952 0.0636
C71 C 0.5652(4) -0.2853(4) 0.1084(4)
H76 H 0.5991 -0.3006 0.1587
C72 C 0.4758(4) -0.2070(4) 0.0932(3)
N1 N 0.4761(3) 0.1876(3) 0.4157(2)
H77 H 0.429(4) 0.166(4) 0.433(3)
N2 N 0.5531(3) 0.0394(3) 0.5555(3)
H78 H 0.571(4) 0.023(4) 0.505(3)
H79 H 0.592(4) -0.005(4) 0.592(3)
N3 N -0.1332(3) 0.7999(3) 0.3524(2)
H80 H -0.174(4) 0.760(4) 0.361(3)
N4 N -0.3282(4) 0.8905(4) 0.3875(3)
H81 H -0.287(4) 0.831(4) 0.435(3)
H82 H -0.393(4) 0.929(4) 0.403(3)
N5 N -0.2697(3) 0.5173(3) -0.1557(2)
H83 H -0.263(3) 0.481(3) -0.103(3)
N6 N -0.4088(4) 0.4502(4) -0.0895(3)
H84 H -0.363(5) 0.421(5) -0.059(4)
H85 H -0.454(5) 0.428(4) -0.075(3)
N7 N 0.3346(3) -0.1043(3) 0.0049(3)
H86 H 0.304(4) -0.088(4) 0.045(3)
N8 N 0.4299(4) -0.1515(4) 0.1523(3)
H87 H 0.477(5) -0.173(4) 0.193(4)
H88 H 0.398(5) -0.090(5) 0.127(4)
O1 O 0.3219(2) 0.2134(2) 0.31872(17)
O2 O 0.2922(2) 0.0848(2) 0.09384(17)
O3 O -0.0382(2) 0.59565(19) 0.35917(17)
O4 O 0.2311(2) 0.2949(2) 0.48046(16)
O5 O -0.1321(2) 0.47267(19) -0.03958(16)
O6 O -0.0927(2) 0.6270(2) 0.16053(18)
O7 O 0.1360(2) -0.00356(19) 0.02347(17)
O8 O -0.1703(2) 0.2743(2) -0.05878(17)
O9 O -0.3626(8) 0.8006(7) 0.2590(5)
H89 H -0.3501 0.8067 0.3046
C73 C -0.3292(10) 0.8508(10) 0.1957(5)
H90 H -0.3178 0.8253 0.1451
H91 H -0.2678 0.8498 0.2110
C74 C -0.4156(9) 0.9570(8) 0.1809(7)
H92 H -0.4780 0.9538 0.1778
H93 H -0.4043 0.9976 0.1283
H94 H -0.4177 0.9849 0.2277
N9 N -0.0979(6) 0.1834(5) 0.3512(4)
C75 C -0.1660(6) 0.2024(5) 0.3886(5)
C76 C -0.2475(7) 0.2277(6) 0.4349(6)
H95 H -0.2315 0.2260 0.4911
H96 H -0.2766 0.1823 0.4393
H97 H -0.2941 0.2932 0.4082
C77? C -0.189(2) 0.256(2) 0.4914(17)
C78? C -0.2475(7) 0.2277(6) 0.4349(6)
H98? H -0.2702 0.1808 0.4707
H99? H -0.2037 0.1993 0.3915
H100? H -0.3037 0.2860 0.4083
N10? N -0.164(2) 0.283(3) 0.5329(18)
loop_
_geom_bond_atom_site_label_1
_geom_bond_atom_site_label_2
_geom_bond_site_symmetry_1
_geom_bond_site_symmetry_2
C1 C2 1_555 1_555
C2 H1 1_555 1_555
C3 C2 1_555 1_555
C4 C3 1_555 1_555
C5 C4 1_555 1_555
H2 C5 1_555 1_555
C6 C1 1_555 1_555
C7 C3 1_555 1_555
H3 C7 1_555 1_555
C8 C7 1_555 1_555
C9 C8 1_555 1_555
H4 C9 1_555 1_555
C10 C9 1_555 1_555
C11 C10 1_555 1_555
C12 C11 1_555 1_555
H5 C12 1_555 1_555
C13 C8 1_555 1_555
C14 C10 1_555 1_555
H6 C14 1_555 1_555
C15 C14 1_555 1_555
C16 C15 1_555 1_555
H7 C16 1_555 1_555
C17 C16 1_555 1_555
C18 C17 1_555 1_555
C19 C18 1_555 1_555
H8 C19 1_555 1_555
C20 C15 1_555 1_555
C21 C17 1_555 1_555
H9 C21 1_555 1_555
C22 C21 1_555 1_555
C23 C22 1_555 1_555
H10 C23 1_555 1_555
C24 C23 1_555 1_555
C25 C24 1_555 1_555
C26 C25 1_555 1_555
H11 C26 1_555 1_555
C27 C22 1_555 1_555
C28 C1 1_555 1_555
H12 C28 1_555 1_555
C29 C7 1_555 1_555
H13 C29 1_555 1_555
H14 C29 1_555 1_555
C30 C29 1_555 1_555
H15 C30 1_555 1_555
H16 C30 1_555 1_555
H17 C30 1_555 1_555
C31 C14 1_555 1_555
H18 C31 1_555 1_555
H19 C31 1_555 1_555
C32 C31 1_555 1_555
H20 C32 1_555 1_555
H21 C32 1_555 1_555
H22 C32 1_555 1_555
C33 C21 1_555 1_555
H23 C33 1_555 1_555
H24 C33 1_555 1_555
C34 C33 1_555 1_555
H25 C34 1_555 1_555
H26 C34 1_555 1_555
H27 C34 1_555 1_555
C35 C28 1_555 1_555
H28 C35 1_555 1_555
H29 C35 1_555 1_555
C36 C35 1_555 1_555
H30 C36 1_555 1_555
H31 C36 1_555 1_555
H32 C36 1_555 1_555
C37 H33 1_555 1_555
H34 C37 1_555 1_555
H35 C37 1_555 1_555
C38 H36 1_555 1_555
H37 C38 1_555 1_555
H38 C38 1_555 1_555
C39 H39 1_555 1_555
H40 C39 1_555 1_555
H41 C39 1_555 1_555
C40 H42 1_555 1_555
H43 C40 1_555 1_555
H44 C40 1_555 1_555
C41 H45 1_555 1_555
H46 C41 1_555 1_555
C42 C41 1_555 1_555
H47 C42 1_555 1_555
H48 C42 1_555 1_555
C43 C44 1_555 1_555
C44 H49 1_555 1_555
C45 C44 1_555 1_555
H50 C45 1_555 1_555
C46 C45 1_555 1_555
H51 C46 1_555 1_555
C47 C46 1_555 1_555
H52 C47 1_555 1_555
C48 C43 1_555 1_555
C49 H53 1_555 1_555
H54 C49 1_555 1_555
C50 C49 1_555 1_555
H55 C50 1_555 1_555
H56 C50 1_555 1_555
C51 C52 1_555 1_555
C52 H57 1_555 1_555
C53 C52 1_555 1_555
H58 C53 1_555 1_555
C54 C53 1_555 1_555
H59 C54 1_555 1_555
C55 C54 1_555 1_555
H60 C55 1_555 1_555
C56 C51 1_555 1_555
C57 H61 1_555 1_555
H62 C57 1_555 1_555
C58 C57 1_555 1_555
H63 C58 1_555 1_555
H64 C58 1_555 1_555
C59 C60 1_555 1_555
C60 H65 1_555 1_555
C61 C60 1_555 1_555
H66 C61 1_555 1_555
C62 C61 1_555 1_555
H67 C62 1_555 1_555
C63 C62 1_555 1_555
H68 C63 1_555 1_555
C64 C59 1_555 1_555
C65 H69 1_555 1_555
H70 C65 1_555 1_555
C66 C65 1_555 1_555
H71 C66 1_555 1_555
H72 C66 1_555 1_555
C67 C68 1_555 1_555
C68 H73 1_555 1_555
C69 C68 1_555 1_555
H74 C69 1_555 1_555
C70 C69 1_555 1_555
H75 C70 1_555 1_555
C71 C70 1_555 1_555
H76 C71 1_555 1_555
C72 C67 1_555 1_555
N1 C42 1_555 1_555
H77 N1 1_555 1_555
N2 C48 1_555 1_555
H78 N2 1_555 1_555
H79 N2 1_555 1_555
N3 C50 1_555 1_555
H80 N3 1_555 1_555
N4 C56 1_555 1_555
H81 N4 1_555 1_555
H82 N4 1_555 1_555
N5 C58 1_555 1_555
H83 N5 1_555 1_555
N6 C64 1_555 1_555
H84 N6 1_555 1_555
H85 N6 1_555 1_555
N7 C66 1_555 1_555
H86 N7 1_555 1_555
N8 C72 1_555 1_555
H87 N8 1_555 1_555
H88 N8 1_555 1_555
O1 C4 1_555 1_555
O2 C6 1_555 1_555
O3 C11 1_555 1_555
O4 C13 1_555 1_555
O5 C18 1_555 1_555
O6 C20 1_555 1_555
O7 C25 1_555 1_555
O8 C27 1_555 1_555
O9 H89 1_555 1_555
C73 O9 1_555 1_555
H90 C73 1_555 1_555
H91 C73 1_555 1_555
C74 C73 1_555 1_555
H92 C74 1_555 1_555
H93 C74 1_555 1_555
H94 C74 1_555 1_555
N9 C75 1_555 1_555
C75 C76 1_555 1_555
C76 H95 1_555 1_555
H96 C76 1_555 1_555
H97 C76 1_555 1_555
C5 C6 1_555 1_555
C12 C13 1_555 1_555
C19 C20 1_555 1_555
C24 C28 1_555 1_555
C26 C27 1_555 1_555
C37 O2 1_555 1_555
C38 O4 1_555 1_555
C39 O6 1_555 1_555
C40 O8 1_555 1_555
C41 O1 1_555 1_555
C43 N1 1_555 1_555
C47 C48 1_555 1_555
C49 O3 1_555 1_555
C51 N3 1_555 1_555
C55 C56 1_555 1_555
C57 O5 1_555 1_555
C59 N5 1_555 1_555
C63 C64 1_555 1_555
C65 O7 1_555 1_555
C67 N7 1_555 1_555
C71 C72 1_555 1_555

#END
