
#######################################################################
#
#                 Cambridge Crystallographic Data Centre
#                                CCDC 
#
#######################################################################
#
# If this CIF has been generated from an entry in the Cambridge 
# Structural Database, then it will include bibliographic, chemical, 
# crystal, experimental, refinement or atomic coordinate data resulting 
# from the CCDC's data processing and validation procedures.
#
#######################################################################

data_QUDVUI
_chemical_formula_moiety         'C17 H14 Br1 F1 O2'
_chemical_name_systematic        
7-bromo-2-fluoro-2-(hydroxy(phenyl)methyl)-3,4-dihydronaphthalen-1(2H)-one
_symmetry_cell_setting           orthorhombic
_symmetry_space_group_name_H-M   'P 21 21 21'
_symmetry_Int_Tables_number      19
_space_group_name_Hall           'P 2ac 2ab'
loop_
_symmetry_equiv_pos_site_id
_symmetry_equiv_pos_as_xyz
1 x,y,z
2 1/2-x,-y,1/2+z
3 -x,1/2+y,1/2-z
4 1/2+x,1/2-y,-z
_cell_length_a                   6.4774(12)
_cell_length_b                   11.632(2)
_cell_length_c                   20.077(4)
_cell_angle_alpha                90
_cell_angle_beta                 90
_cell_angle_gamma                90
_cell_volume                     1512.7
_exptl_crystal_colour            colorless
_exptl_crystal_description       needle
_cell_formula_units_Z            4
loop_
_atom_site_label
_atom_site_type_symbol
_atom_site_fract_x
_atom_site_fract_y
_atom_site_fract_z
Br1 Br 0.2261(2) 1.20748(6) 1.17249(4)
C1 C 0.1282(13) 1.0743(5) 1.0586(4)
H1 H 0.0072 1.0566 1.0813
C2 C 0.277(2) 1.1442(6) 1.0874(3)
C3 C 0.4528(15) 1.1721(6) 1.0537(5)
H2 H 0.5500 1.2198 1.0737
C4 C 0.4883(13) 1.1308(6) 0.9906(5)
H3 H 0.6092 1.1497 0.9681
C5 C 0.3416(16) 1.0606(6) 0.9605(4)
C6 C 0.1641(16) 1.0312(6) 0.9945(4)
C7 C 0.0036(15) 0.9579(6) 0.9634(4)
C8 C 0.0730(12) 0.8906(6) 0.9025(4)
C9 C 0.1944(13) 0.9676(5) 0.8560(3)
H4 H 0.1060 1.0293 0.8404
H5 H 0.2384 0.9235 0.8175
C10 C 0.3828(12) 1.0187(5) 0.8902(4)
H6 H 0.4909 0.9610 0.8916
H7 H 0.4332 1.0826 0.8637
C11 C 0.2004(11) 0.7858(5) 0.9265(3)
H8 H 0.3314 0.8137 0.9448
C12 C 0.2473(15) 0.6991(6) 0.8716(3)
C13 C 0.4415(13) 0.6952(6) 0.8431(4)
H9 H 0.5425 0.7475 0.8560
C14 C 0.4845(14) 0.6134(7) 0.7955(4)
H10 H 0.6153 0.6102 0.7765
C15 C 0.335(2) 0.5364(7) 0.7758(4)
H11 H 0.3641 0.4827 0.7427
C16 C 0.1447(18) 0.5389(7) 0.8049(4)
H12 H 0.0448 0.4856 0.7925
C17 C 0.1007(13) 0.6197(7) 0.8523(4)
H13 H -0.0296 0.6212 0.8718
F1 F -0.1032(7) 0.8520(3) 0.8700(2)
O1 O -0.1715(9) 0.9528(4) 0.9848(3)
O2 O 0.0830(7) 0.7351(4) 0.9794(2)
H14 H 0.1362 0.6752 0.9967
loop_
_geom_bond_atom_site_label_1
_geom_bond_atom_site_label_2
_geom_bond_site_symmetry_1
_geom_bond_site_symmetry_2
Br1 C2 1_555 1_555
C1 H1 1_555 1_555
C2 C1 1_555 1_555
C3 C2 1_555 1_555
H2 C3 1_555 1_555
C4 C3 1_555 1_555
H3 C4 1_555 1_555
C5 C4 1_555 1_555
C6 C1 1_555 1_555
C7 C6 1_555 1_555
C8 C7 1_555 1_555
C9 C8 1_555 1_555
H4 C9 1_555 1_555
H5 C9 1_555 1_555
C10 C5 1_555 1_555
H6 C10 1_555 1_555
H7 C10 1_555 1_555
C11 C8 1_555 1_555
H8 C11 1_555 1_555
C12 C11 1_555 1_555
C13 C12 1_555 1_555
H9 C13 1_555 1_555
C14 C13 1_555 1_555
H10 C14 1_555 1_555
C15 C14 1_555 1_555
H11 C15 1_555 1_555
C16 C15 1_555 1_555
H12 C16 1_555 1_555
C17 C12 1_555 1_555
H13 C17 1_555 1_555
F1 C8 1_555 1_555
O1 C7 1_555 1_555
O2 C11 1_555 1_555
H14 O2 1_555 1_555
C5 C6 1_555 1_555
C9 C10 1_555 1_555
C16 C17 1_555 1_555

#END
