
#######################################################################
#
#                 Cambridge Crystallographic Data Centre
#                                CCDC 
#
#######################################################################
#
# If this CIF has been generated from an entry in the Cambridge 
# Structural Database, then it will include bibliographic, chemical, 
# crystal, experimental, refinement or atomic coordinate data resulting 
# from the CCDC's data processing and validation procedures.
#
#######################################################################

data_QUDVAO
_chemical_formula_moiety         'C19 H24 O3'
_chemical_name_systematic        2-(nonyloxy)-1,4-naphthoquinone
_symmetry_cell_setting           monoclinic
_symmetry_space_group_name_H-M   'C 2/c'
_symmetry_Int_Tables_number      15
_space_group_name_Hall           '-C 2yn'
loop_
_symmetry_equiv_pos_site_id
_symmetry_equiv_pos_as_xyz
1 x,y,z
2 -x,y,1/2-z
3 1/2+x,1/2+y,z
4 1/2-x,1/2+y,1/2-z
5 -x,-y,-z
6 x,-y,1/2+z
7 1/2-x,1/2-y,-z
8 1/2+x,1/2-y,1/2+z
_cell_length_a                   25.881(5)
_cell_length_b                   13.754(4)
_cell_length_c                   9.3343(18)
_cell_angle_alpha                90
_cell_angle_beta                 97.164(15)
_cell_angle_gamma                90
_cell_volume                     3296.77
_exptl_crystal_colour            yellow
_exptl_crystal_description       rod
_cell_formula_units_Z            8
loop_
_atom_site_label
_atom_site_type_symbol
_atom_site_fract_x
_atom_site_fract_y
_atom_site_fract_z
O1 O 0.40441(4) 0.52646(8) 0.50349(11)
C1 C 0.32064(6) 0.74464(11) 0.43965(16)
C2 C 0.29979(6) 0.73143(12) 0.29473(16)
C3 C 0.35567(6) 0.67017(11) 0.51454(16)
O2 O 0.37258(4) 0.67646(8) 0.64218(11)
C4 C 0.35005(6) 0.57393(12) 0.28798(16)
H1 H 0.3602 0.5192 0.2362
C5 C 0.37026(6) 0.58582(11) 0.42694(16)
C6 C 0.53875(6) 0.14864(12) 0.47829(16)
H2 H 0.5110 0.1145 0.4150
H3 H 0.5636 0.1756 0.4163
C7 C 0.45865(6) 0.38456(12) 0.53192(17)
H4 H 0.4400 0.3554 0.6078
H5 H 0.4857 0.4288 0.5793
C8 C 0.42077(6) 0.44159(12) 0.42842(16)
H6 H 0.4376 0.4619 0.3437
H7 H 0.3902 0.4008 0.3940
C9 C 0.58998(6) -0.00967(11) 0.50950(16)
H8 H 0.6145 0.0154 0.4450
H9 H 0.5616 -0.0437 0.4486
O3 O 0.29322(5) 0.62775(9) 0.09021(12)
C10 C 0.30834(6) 0.82745(12) 0.51370(18)
H10 H 0.3222 0.8360 0.6121
C11 C 0.48436(6) 0.30418(12) 0.45252(16)
H11 H 0.4571 0.2688 0.3890
H12 H 0.5083 0.3341 0.3905
C12 C 0.51460(7) 0.23198(12) 0.55429(17)
H13 H 0.4909 0.2046 0.6192
H14 H 0.5426 0.2672 0.6150
C13 C 0.56703(6) 0.07580(12) 0.58299(16)
H15 H 0.5954 0.1098 0.6442
H16 H 0.5423 0.0508 0.6471
C14 C 0.31296(6) 0.64296(12) 0.21512(17)
C15 C 0.26675(6) 0.80210(13) 0.22705(18)
H17 H 0.2521 0.7935 0.1294
C16 C 0.61844(7) -0.08251(12) 0.61341(17)
H18 H 0.6460 -0.0481 0.6770
H19 H 0.5936 -0.1099 0.6752
C17 C 0.27595(6) 0.89760(12) 0.44412(19)
H20 H 0.2679 0.9546 0.4944
C18 C 0.25527(6) 0.88458(13) 0.30129(19)
H21 H 0.2330 0.9328 0.2540
C19 C 0.64296(7) -0.16526(14) 0.5381(2)
H22 H 0.6580 -0.2125 0.6101
H23 H 0.6704 -0.1395 0.4853
H24 H 0.6163 -0.1972 0.4703
loop_
_geom_bond_atom_site_label_1
_geom_bond_atom_site_label_2
_geom_bond_site_symmetry_1
_geom_bond_site_symmetry_2
O1 C5 1_555 1_555
C1 C2 1_555 1_555
C2 C14 1_555 1_555
C3 C1 1_555 1_555
O2 C3 1_555 1_555
C4 H1 1_555 1_555
C5 C3 1_555 1_555
C6 H2 1_555 1_555
H3 C6 1_555 1_555
C7 H4 1_555 1_555
H5 C7 1_555 1_555
C8 O1 1_555 1_555
H6 C8 1_555 1_555
H7 C8 1_555 1_555
C9 H8 1_555 1_555
H9 C9 1_555 1_555
O3 C14 1_555 1_555
C10 C1 1_555 1_555
H10 C10 1_555 1_555
C11 C7 1_555 1_555
H11 C11 1_555 1_555
H12 C11 1_555 1_555
C12 C6 1_555 1_555
H13 C12 1_555 1_555
H14 C12 1_555 1_555
C13 C6 1_555 1_555
H15 C13 1_555 1_555
H16 C13 1_555 1_555
C14 C4 1_555 1_555
C15 C2 1_555 1_555
H17 C15 1_555 1_555
C16 C9 1_555 1_555
H18 C16 1_555 1_555
H19 C16 1_555 1_555
C17 C10 1_555 1_555
H20 C17 1_555 1_555
C18 C15 1_555 1_555
H21 C18 1_555 1_555
C19 C16 1_555 1_555
H22 C19 1_555 1_555
H23 C19 1_555 1_555
H24 C19 1_555 1_555
C4 C5 1_555 1_555
C7 C8 1_555 1_555
C9 C13 1_555 1_555
C11 C12 1_555 1_555
C17 C18 1_555 1_555

#END
