
#######################################################################
#
#                 Cambridge Crystallographic Data Centre
#                                CCDC 
#
#######################################################################
#
# If this CIF has been generated from an entry in the Cambridge 
# Structural Database, then it will include bibliographic, chemical, 
# crystal, experimental, refinement or atomic coordinate data resulting 
# from the CCDC's data processing and validation procedures.
#
#######################################################################

data_QUDVAN
_chemical_name_common            
'2,8,14,20-Tetraethyl-4,10,16,22-tetramethoxy-6,12,18,24-tetrakis(2-aminophenylaminoethoxy)calix[4]arene tris(pyridine) clathrate'
_chemical_formula_moiety         'C72 H88 N8 O8,3(C5 H5 N1)'
_chemical_name_systematic        
"N^1^,N^1^',N^1^'',N^1^'''-((2,8,14,20-tetraethyl-6,12,18,24-tetramethoxypentacyclo[19.3.1.1^3,7^.1^9,13^.1^15,19^]octacosa-1(25),3(28),4,6,9(27),10,12,15(26),16,18,21,23-dodecaene-4,10,16,22-tetrayl)tetrakis(oxyethane-2,1-diyl))tetrabenzene-1,2-diamine tris(pyridine) clathrate"
_symmetry_cell_setting           monoclinic
_symmetry_space_group_name_H-M   'P 21/c'
_symmetry_Int_Tables_number      14
_space_group_name_Hall           '-P 2ybc'
loop_
_symmetry_equiv_pos_site_id
_symmetry_equiv_pos_as_xyz
1 x,y,z
2 -x,1/2+y,1/2-z
3 -x,-y,-z
4 x,1/2-y,1/2+z
_cell_length_a                   13.6942(3)
_cell_length_b                   22.2544(4)
_cell_length_c                   25.7929(5)
_cell_angle_alpha                90
_cell_angle_beta                 96.9849(9)
_cell_angle_gamma                90
_cell_volume                     7802.21
_exptl_crystal_colour            yellow
_exptl_crystal_description       block
_cell_formula_units_Z            4
loop_
_atom_site_label
_atom_site_type_symbol
_atom_site_fract_x
_atom_site_fract_y
_atom_site_fract_z
C1 C 0.2651(2) 0.90543(13) 0.64947(12)
C2 C 0.2297(2) 0.95968(13) 0.66656(12)
H1 H 0.1624 0.9691 0.6566
C3 C 0.2868(2) 1.00088(13) 0.69731(11)
C4 C 0.3854(2) 0.98529(13) 0.71196(11)
C5 C 0.4249(2) 0.93257(13) 0.69399(11)
H2 H 0.4926 0.9235 0.7030
C6 C 0.3647(2) 0.89348(13) 0.66290(12)
C7 C 0.2467(2) 1.05920(13) 0.71663(12)
H3 H 0.2690 1.0617 0.7550
C8 C 0.2877(2) 1.11429(13) 0.69137(12)
C9 C 0.2848(2) 1.11991(13) 0.63776(12)
H4 H 0.2647 1.0860 0.6168
C10 C 0.3097(2) 1.17226(13) 0.61269(12)
C11 C 0.3399(2) 1.22092(13) 0.64487(12)
C12 C 0.3470(2) 1.21620(14) 0.69902(13)
H5 H 0.3699 1.2494 0.7202
C13 C 0.3210(2) 1.16358(14) 0.72205(12)
C14 C 0.2948(2) 1.18002(13) 0.55379(12)
H6 H 0.3404 1.2128 0.5456
C15 C 0.3207(2) 1.12516(13) 0.52293(11)
C16 C 0.2521(2) 1.08035(13) 0.50768(11)
H7 H 0.1891 1.0832 0.5193
C17 C 0.27057(19) 1.03142(12) 0.47619(11)
C18 C 0.3646(2) 1.02739(12) 0.46100(11)
C19 C 0.4359(2) 1.07091(13) 0.47531(11)
H8 H 0.4995 1.0674 0.4645
C20 C 0.4133(2) 1.11953(12) 0.50561(11)
C21 C 0.1917(2) 0.98782(13) 0.45382(12)
H9 H 0.2040 0.9801 0.4170
C22 C 0.1951(2) 0.92651(13) 0.48073(12)
C23 C 0.2036(2) 0.92036(13) 0.53457(12)
H10 H 0.2159 0.9554 0.5553
C24 C 0.1953(2) 0.86595(13) 0.55990(12)
C25 C 0.1776(2) 0.81508(13) 0.52831(13)
C26 C 0.1718(2) 0.81887(14) 0.47439(13)
H11 H 0.1613 0.7837 0.4536
C27 C 0.1812(2) 0.87410(14) 0.45086(12)
C28 C 0.1983(2) 0.85966(14) 0.61897(12)
H12 H 0.2271 0.8192 0.6282
C29 C 0.1338(2) 1.06276(15) 0.70967(14)
H13 H 0.1098 1.0576 0.6722
H14 H 0.1079 1.0289 0.7288
C30 C 0.0921(3) 1.12086(18) 0.72854(16)
H15 H 0.1177 1.1275 0.7653
H16 H 0.0202 1.1182 0.7251
H17 H 0.1115 1.1544 0.7074
C31 C 0.1893(3) 1.20352(16) 0.53765(14)
H18 H 0.1421 1.1721 0.5455
H19 H 0.1785 1.2390 0.5593
C32 C 0.1668(4) 1.2209(2) 0.48049(16)
H20 H 0.2183 1.2479 0.4709
H21 H 0.1030 1.2414 0.4749
H22 H 0.1647 1.1847 0.4588
C33 C 0.0876(2) 1.01424(15) 0.45067(13)
H23 H 0.0696 1.0188 0.4865
H24 H 0.0875 1.0547 0.4348
C34 C 0.0113(2) 0.97619(18) 0.41929(15)
H25 H 0.0270 0.9729 0.3833
H26 H -0.0536 0.9948 0.4192
H27 H 0.0106 0.9360 0.4349
C35 C 0.0932(2) 0.85861(16) 0.63379(13)
H28 H 0.0633 0.8988 0.6272
H29 H 0.0536 0.8295 0.6110
C36 C 0.0885(3) 0.8418(2) 0.68990(17)
H30 H 0.1201 0.8026 0.6971
H31 H 0.0196 0.8394 0.6964
H32 H 0.1227 0.8722 0.7128
C37 C 0.5002(3) 0.82914(16) 0.65183(15)
H33 H 0.5352 0.8609 0.6353
H34 H 0.5138 0.7902 0.6364
H35 H 0.5225 0.8283 0.6894
C38 C 0.3663(3) 1.20189(17) 0.80794(14)
H36 H 0.4340 1.2084 0.8006
H37 H 0.3665 1.1896 0.8445
H38 H 0.3287 1.2392 0.8017
C39 C 0.5741(2) 1.16061(15) 0.50339(15)
H39 H 0.6071 1.1236 0.5165
H40 H 0.6136 1.1954 0.5164
H41 H 0.5665 1.1605 0.4651
C40 C 0.1424(3) 0.83139(17) 0.36587(14)
H42 H 0.1904 0.7985 0.3704
H43 H 0.1334 0.8440 0.3292
H44 H 0.0794 0.8176 0.3760
C41 C 0.5315(2) 1.00686(14) 0.77119(12)
H45 H 0.5814 1.0053 0.7465
H46 H 0.5264 0.9666 0.7870
C42 C 0.5594(2) 1.05319(15) 0.81292(12)
H47 H 0.6271 1.0453 0.8297
H48 H 0.5582 1.0937 0.7969
C43 C 0.4915(2) 1.09832(14) 0.88830(12)
C44 C 0.5651(2) 1.14130(14) 0.89570(12)
H49 H 0.6190 1.1394 0.8758
C45 C 0.5611(3) 1.18703(15) 0.93190(14)
H50 H 0.6117 1.2165 0.9363
C46 C 0.4847(3) 1.18984(16) 0.96112(15)
H51 H 0.4820 1.2215 0.9856
C47 C 0.4110(3) 1.14675(16) 0.95543(14)
H52 H 0.3586 1.1487 0.9764
C48 C 0.4133(2) 1.10068(14) 0.91914(13)
C49 C 0.3764(3) 1.32652(15) 0.65091(14)
H53 H 0.4406 1.3239 0.6731
H54 H 0.3240 1.3314 0.6738
C50 C 0.3761(3) 1.37892(15) 0.61386(15)
H55 H 0.3950 1.4161 0.6337
H56 H 0.4247 1.3719 0.5890
C51 C 0.2594(2) 1.43494(15) 0.55141(13)
C52 C 0.3212(3) 1.48450(15) 0.55184(14)
H57 H 0.3802 1.4855 0.5754
C53 C 0.2980(3) 1.53222(16) 0.51847(15)
H58 H 0.3410 1.5657 0.5190
C54 C 0.2123(3) 1.53123(17) 0.48446(15)
H59 H 0.1965 1.5639 0.4613
C55 C 0.1493(3) 1.48242(17) 0.48413(15)
H60 H 0.0896 1.4824 0.4611
C56 C 0.1717(3) 1.43411(16) 0.51659(14)
C57 C 0.4610(2) 0.97903(14) 0.40007(12)
H61 H 0.5245 0.9777 0.4230
H62 H 0.4591 1.0161 0.3788
C58 C 0.4503(2) 0.92455(14) 0.36530(12)
H63 H 0.5064 0.9225 0.3445
H64 H 0.4512 0.8878 0.3870
C59 C 0.3384(2) 0.88186(14) 0.29237(12)
C60 C 0.4022(3) 0.83535(15) 0.28590(14)
H65 H 0.4619 0.8323 0.3087
C61 C 0.3810(3) 0.79290(17) 0.24661(15)
H66 H 0.4262 0.7614 0.2424
C62 C 0.2946(4) 0.79686(19) 0.21397(16)
H67 H 0.2792 0.7677 0.1873
C63 C 0.2299(3) 0.84294(19) 0.21968(14)
H68 H 0.1698 0.8448 0.1971
C64 C 0.2505(2) 0.88687(16) 0.25767(13)
C65 C 0.1561(3) 0.70769(14) 0.52458(14)
H69 H 0.2131 0.7026 0.5047
H70 H 0.0955 0.7094 0.4994
C66 C 0.1507(2) 0.65596(15) 0.56144(14)
H71 H 0.1630 0.6181 0.5432
H72 H 0.2031 0.6604 0.5912
C67 C 0.0349(3) 0.60088(15) 0.60968(14)
C68 C 0.0986(3) 0.55179(16) 0.61697(15)
H73 H 0.1608 0.5531 0.6042
C69 C 0.0710(4) 0.50109(18) 0.64283(18)
H74 H 0.1135 0.4672 0.6466
C70 C -0.0169(4) 0.4994(2) 0.66289(18)
H75 H -0.0335 0.4653 0.6822
C71 C -0.0811(4) 0.5470(2) 0.65509(17)
H76 H -0.1429 0.5449 0.6683
C72 C -0.0572(3) 0.59793(19) 0.62830(15)
N1 N 0.49152(19) 1.05132(12) 0.85198(10)
H77 H 0.4304(15) 1.0433(15) 0.8382(13)
N2 N 0.3361(2) 1.05965(15) 0.90983(13)
H78 H 0.349(3) 1.0222(14) 0.8945(15)
H79 H 0.299(3) 1.0577(17) 0.9387(13)
N3 N 0.2789(2) 1.38601(14) 0.58539(13)
H80 H 0.251(3) 1.3529(19) 0.5730(16)
N4 N 0.1153(3) 1.38209(17) 0.51354(15)
H81 H 0.102(3) 1.367(2) 0.5453(11)
H82 H 0.057(2) 1.388(2) 0.4930(15)
N5 N 0.35801(19) 0.92732(12) 0.33021(10)
H83 H 0.3076(19) 0.9317(15) 0.3474(12)
N6 N 0.1860(2) 0.93349(16) 0.26433(13)
H84 H 0.219(3) 0.9690(12) 0.2740(16)
H85 H 0.139(2) 0.9381(18) 0.2370(12)
N7 N 0.0563(2) 0.65218(13) 0.58110(12)
H86 H 0.038(3) 0.6851(12) 0.5986(13)
N8 N -0.1231(3) 0.64581(19) 0.61993(16)
H87 H -0.118(3) 0.658(2) 0.5860(8)
H88 H -0.095(3) 0.6731(17) 0.6443(15)
O1 O 0.43822(14) 1.02513(9) 0.74480(8)
O2 O 0.39825(16) 0.84060(9) 0.64378(9)
O3 O 0.35957(16) 1.27366(9) 0.61981(8)
O4 O 0.32255(18) 1.15661(10) 0.77499(9)
O5 O 0.38081(14) 0.97835(8) 0.43084(8)
O6 O 0.47958(14) 1.16400(9) 0.52107(9)
O7 O 0.16658(18) 0.76158(9) 0.55443(9)
O8 O 0.17754(16) 0.88089(10) 0.39789(8)
C73 C -0.0058(4) 0.7242(2) 0.3133(2)
H89 H -0.0184 0.7517 0.2851
C74 C -0.0736(4) 0.7163(2) 0.3488(2)
H90 H -0.1337 0.7380 0.3443
N9 N -0.0554(3) 0.6790(2) 0.3886(2)
C75 C 0.0268(4) 0.6491(3) 0.3937(3)
H91 H 0.0388 0.6219 0.4222
C76 C 0.0945(4) 0.6541(3) 0.3619(2)
H92 H 0.1538 0.6316 0.3680
C77 C 0.0786(4) 0.6919(2) 0.3199(2)
H93 H 0.1257 0.6954 0.2959
N10 N 0.2382(4) 1.4242(2) 0.7857(2)
C78 C 0.2545(5) 1.4189(3) 0.8374(2)
H94 H 0.2790 1.4533 0.8566
C79 C 0.2393(4) 1.3696(3) 0.8647(2)
H95 H 0.2528 1.3695 0.9017
C80 C 0.2046(4) 1.3196(3) 0.8389(3)
H96 H 0.1921 1.2839 0.8572
C81 C 0.1879(5) 1.3222(3) 0.7853(3)
H97 H 0.1663 1.2876 0.7656
C82 C 0.2029(5) 1.3751(3) 0.7605(3)
H98 H 0.1873 1.3769 0.7236
N11 N 0.3490(3) 0.9252(2) 0.8742(2)
C83 C 0.3704(4) 0.8814(3) 0.9085(2)
H99 H 0.3862 0.8921 0.9442
C84 C 0.3711(4) 0.8237(3) 0.8963(2)
H100 H 0.3873 0.7943 0.9227
C85 C 0.3487(4) 0.8073(2) 0.8466(3)
H101 H 0.3478 0.7659 0.8374
C86 C 0.3274(4) 0.8496(3) 0.8091(2)
H102 H 0.3131 0.8390 0.7734
C87 C 0.3273(4) 0.9080(3) 0.8249(3)
H103 H 0.3109 0.9381 0.7991
C88? C 0.1251(12) 1.4233(9) 0.8082(7)
C89? C 0.1902(15) 1.3986(11) 0.8443(7)
C90? C 0.2746(13) 1.3770(11) 0.8293(7)
C91? C 0.2925(13) 1.3815(11) 0.7782(7)
C92? C 0.2215(16) 1.4070(13) 0.7433(7)
H104? H 0.0689 1.4423 0.8192
H105? H 0.1777 1.3961 0.8797
H106? H 0.3220 1.3587 0.8543
H107? H 0.3523 1.3673 0.7675
H108? H 0.2340 1.4135 0.7083
N12? N 0.1346(12) 1.4229(10) 0.7577(7)
loop_
_geom_bond_atom_site_label_1
_geom_bond_atom_site_label_2
_geom_bond_site_symmetry_1
_geom_bond_site_symmetry_2
C1 C2 1_555 1_555
C2 H1 1_555 1_555
C3 C2 1_555 1_555
C4 C3 1_555 1_555
C5 C4 1_555 1_555
H2 C5 1_555 1_555
C6 C1 1_555 1_555
C7 C3 1_555 1_555
H3 C7 1_555 1_555
C8 C7 1_555 1_555
C9 C8 1_555 1_555
H4 C9 1_555 1_555
C10 C9 1_555 1_555
C11 C10 1_555 1_555
C12 C11 1_555 1_555
H5 C12 1_555 1_555
C13 C8 1_555 1_555
C14 C10 1_555 1_555
H6 C14 1_555 1_555
C15 C14 1_555 1_555
C16 C15 1_555 1_555
H7 C16 1_555 1_555
C17 C16 1_555 1_555
C18 C17 1_555 1_555
C19 C18 1_555 1_555
H8 C19 1_555 1_555
C20 C15 1_555 1_555
C21 C17 1_555 1_555
H9 C21 1_555 1_555
C22 C21 1_555 1_555
C23 C22 1_555 1_555
H10 C23 1_555 1_555
C24 C23 1_555 1_555
C25 C24 1_555 1_555
C26 C25 1_555 1_555
H11 C26 1_555 1_555
C27 C22 1_555 1_555
C28 C1 1_555 1_555
H12 C28 1_555 1_555
C29 C7 1_555 1_555
H13 C29 1_555 1_555
H14 C29 1_555 1_555
C30 C29 1_555 1_555
H15 C30 1_555 1_555
H16 C30 1_555 1_555
H17 C30 1_555 1_555
C31 C14 1_555 1_555
H18 C31 1_555 1_555
H19 C31 1_555 1_555
C32 C31 1_555 1_555
H20 C32 1_555 1_555
H21 C32 1_555 1_555
H22 C32 1_555 1_555
C33 C21 1_555 1_555
H23 C33 1_555 1_555
H24 C33 1_555 1_555
C34 C33 1_555 1_555
H25 C34 1_555 1_555
H26 C34 1_555 1_555
H27 C34 1_555 1_555
C35 C28 1_555 1_555
H28 C35 1_555 1_555
H29 C35 1_555 1_555
C36 C35 1_555 1_555
H30 C36 1_555 1_555
H31 C36 1_555 1_555
H32 C36 1_555 1_555
C37 H33 1_555 1_555
H34 C37 1_555 1_555
H35 C37 1_555 1_555
C38 H36 1_555 1_555
H37 C38 1_555 1_555
H38 C38 1_555 1_555
C39 H39 1_555 1_555
H40 C39 1_555 1_555
H41 C39 1_555 1_555
C40 H42 1_555 1_555
H43 C40 1_555 1_555
H44 C40 1_555 1_555
C41 H45 1_555 1_555
H46 C41 1_555 1_555
C42 C41 1_555 1_555
H47 C42 1_555 1_555
H48 C42 1_555 1_555
C43 C44 1_555 1_555
C44 H49 1_555 1_555
C45 C44 1_555 1_555
H50 C45 1_555 1_555
C46 C45 1_555 1_555
H51 C46 1_555 1_555
C47 C46 1_555 1_555
H52 C47 1_555 1_555
C48 C43 1_555 1_555
C49 H53 1_555 1_555
H54 C49 1_555 1_555
C50 C49 1_555 1_555
H55 C50 1_555 1_555
H56 C50 1_555 1_555
C51 C52 1_555 1_555
C52 H57 1_555 1_555
C53 C52 1_555 1_555
H58 C53 1_555 1_555
C54 C53 1_555 1_555
H59 C54 1_555 1_555
C55 C54 1_555 1_555
H60 C55 1_555 1_555
C56 C51 1_555 1_555
C57 H61 1_555 1_555
H62 C57 1_555 1_555
C58 C57 1_555 1_555
H63 C58 1_555 1_555
H64 C58 1_555 1_555
C59 C60 1_555 1_555
C60 H65 1_555 1_555
C61 C60 1_555 1_555
H66 C61 1_555 1_555
C62 C61 1_555 1_555
H67 C62 1_555 1_555
C63 C62 1_555 1_555
H68 C63 1_555 1_555
C64 C59 1_555 1_555
C65 H69 1_555 1_555
H70 C65 1_555 1_555
C66 C65 1_555 1_555
H71 C66 1_555 1_555
H72 C66 1_555 1_555
C67 C68 1_555 1_555
C68 H73 1_555 1_555
C69 C68 1_555 1_555
H74 C69 1_555 1_555
C70 C69 1_555 1_555
H75 C70 1_555 1_555
C71 C70 1_555 1_555
H76 C71 1_555 1_555
C72 C67 1_555 1_555
N1 C42 1_555 1_555
H77 N1 1_555 1_555
N2 C48 1_555 1_555
H78 N2 1_555 1_555
H79 N2 1_555 1_555
N3 C50 1_555 1_555
H80 N3 1_555 1_555
N4 C56 1_555 1_555
H81 N4 1_555 1_555
H82 N4 1_555 1_555
N5 C58 1_555 1_555
H83 N5 1_555 1_555
N6 C64 1_555 1_555
H84 N6 1_555 1_555
H85 N6 1_555 1_555
N7 C66 1_555 1_555
H86 N7 1_555 1_555
N8 C72 1_555 1_555
H87 N8 1_555 1_555
H88 N8 1_555 1_555
O1 C4 1_555 1_555
O2 C6 1_555 1_555
O3 C11 1_555 1_555
O4 C13 1_555 1_555
O5 C18 1_555 1_555
O6 C20 1_555 1_555
O7 C25 1_555 1_555
O8 C27 1_555 1_555
C73 H89 1_555 1_555
C74 C73 1_555 1_555
H90 C74 1_555 1_555
N9 C74 1_555 1_555
C75 N9 1_555 1_555
H91 C75 1_555 1_555
C76 C75 1_555 1_555
H92 C76 1_555 1_555
C77 C73 1_555 1_555
H93 C77 1_555 1_555
N10 C78 1_555 1_555
C78 H94 1_555 1_555
C79 C78 1_555 1_555
H95 C79 1_555 1_555
C80 C79 1_555 1_555
H96 C80 1_555 1_555
C81 C80 1_555 1_555
H97 C81 1_555 1_555
C82 N10 1_555 1_555
H98 C82 1_555 1_555
N11 C83 1_555 1_555
C83 H99 1_555 1_555
C84 C83 1_555 1_555
H100 C84 1_555 1_555
C85 C84 1_555 1_555
H101 C85 1_555 1_555
C86 C85 1_555 1_555
H102 C86 1_555 1_555
C87 N11 1_555 1_555
H103 C87 1_555 1_555
C5 C6 1_555 1_555
C12 C13 1_555 1_555
C19 C20 1_555 1_555
C24 C28 1_555 1_555
C26 C27 1_555 1_555
C37 O2 1_555 1_555
C38 O4 1_555 1_555
C39 O6 1_555 1_555
C40 O8 1_555 1_555
C41 O1 1_555 1_555
C43 N1 1_555 1_555
C47 C48 1_555 1_555
C49 O3 1_555 1_555
C51 N3 1_555 1_555
C55 C56 1_555 1_555
C57 O5 1_555 1_555
C59 N5 1_555 1_555
C63 C64 1_555 1_555
C65 O7 1_555 1_555
C67 N7 1_555 1_555
C71 C72 1_555 1_555
C76 C77 1_555 1_555
C81 C82 1_555 1_555
C86 C87 1_555 1_555

#END
