
#######################################################################
#
#                 Cambridge Crystallographic Data Centre
#                                CCDC 
#
#######################################################################
#
# If this CIF has been generated from an entry in the Cambridge 
# Structural Database, then it will include bibliographic, chemical, 
# crystal, experimental, refinement or atomic coordinate data resulting 
# from the CCDC's data processing and validation procedures.
#
#######################################################################

data_QUDWOD
_chemical_name_common            'bis(nevirapinium) naphthalene-1,5-disulfonate'
_chemical_formula_moiety         '2(C15 H15 N4 O1 1+),C10 H6 O6 S2 2-'
_chemical_name_systematic        
"bis(11-cyclopropyl-4-methyl-6-oxo-6,11-dihydro-5H-dipyrido[3,2-b:2',3'-e][1,4]diazepin-1-ium) naphthalene-1,5-disulfonate"
_symmetry_cell_setting           monoclinic
_symmetry_space_group_name_H-M   'P 21/c'
_symmetry_Int_Tables_number      14
_space_group_name_Hall           '-P 2ybc'
loop_
_symmetry_equiv_pos_site_id
_symmetry_equiv_pos_as_xyz
1 x,y,z
2 -x,1/2+y,1/2-z
3 -x,-y,-z
4 x,1/2-y,1/2+z
_cell_length_a                   9.0130(8)
_cell_length_b                   26.580(2)
_cell_length_c                   8.3602(6)
_cell_angle_alpha                90
_cell_angle_beta                 114.789(2)
_cell_angle_gamma                90
_cell_volume                     1818.27
_exptl_crystal_colour            colorless
_exptl_crystal_description       block
_cell_formula_units_Z            2
loop_
_atom_site_label
_atom_site_type_symbol
_atom_site_fract_x
_atom_site_fract_y
_atom_site_fract_z
N1 N 0.4298(3) 0.19060(8) 0.3814(3)
H1 H 0.3699 0.2083 0.2913
N2 N 0.7654(3) 0.16549(8) 0.5792(3)
N3 N 0.8410(3) 0.15700(9) 0.8799(3)
N4 N 0.7292(3) 0.09869(8) 0.3807(3)
H2 H 0.8317 0.0925 0.4378
O1 O 0.3596(2) 0.24381(7) 0.5450(2)
C1 C 0.4449(3) 0.20867(10) 0.5388(3)
C2 C 0.5694(3) 0.18655(10) 0.7035(3)
C3 C 0.7223(3) 0.16944(9) 0.7251(3)
C4 C 0.8075(4) 0.16056(11) 1.0209(4)
H3 H 0.8896 0.1525 1.1305
C5 C 0.6594(4) 0.17543(11) 1.0133(4)
H4 H 0.6409 0.1767 1.1147
C6 C 0.5387(4) 0.18849(10) 0.8526(4)
H5 H 0.4367 0.1986 0.8437
C7 C 0.6631(3) 0.13671(9) 0.4360(3)
C8 C 0.4982(3) 0.14683(9) 0.3434(3)
C9 C 0.4020(3) 0.11689(10) 0.1998(3)
C10 C 0.4785(4) 0.07814(10) 0.1502(4)
H6 H 0.4174 0.0577 0.0550
C11 C 0.6412(4) 0.07006(10) 0.2399(4)
H7 H 0.6919 0.0448 0.2042
C12 C 0.9380(3) 0.16744(10) 0.6174(3)
H8 H 1.0044 0.1377 0.6719
C13 C 1.0173(4) 0.21733(11) 0.6677(4)
H9 H 1.1308 0.2183 0.7524
H10 H 0.9512 0.2452 0.6757
C14 C 0.9803(4) 0.19654(11) 0.4896(4)
H11 H 1.0711 0.1847 0.4663
H12 H 0.8914 0.2117 0.3895
C15 C 0.2236(3) 0.12704(13) 0.0985(4)
H13 H 0.2091 0.1580 0.0348
H14 H 0.1726 0.1296 0.1786
H15 H 0.1745 0.1000 0.0171
O2 O 0.0281(2) 0.06754(8) 0.4425(3)
O3 O 0.2772(3) 0.11535(7) 0.5723(3)
O4 O 0.2291(3) 0.04612(8) 0.7323(3)
S1 S 0.20043(9) 0.06701(3) 0.56280(11)
C16 C 0.1953(4) 0.00010(10) 0.3155(4)
H16 H 0.0829 0.0051 0.2681
C17 C 0.2940(3) 0.02525(10) 0.4647(4)
C18 C 0.4661(3) 0.01737(9) 0.5413(3)
C19 C 0.5746(4) 0.04186(10) 0.6985(4)
H17 H 0.5327 0.0641 0.7549
C20 C 0.7376(4) 0.03328(11) 0.7673(4)
H18 H 0.8060 0.0496 0.8703
O2B O 0.9719(2) -0.06754(8) 0.5575(3)
O3B O 0.7228(3) -0.11535(7) 0.4277(3)
O4B O 0.7709(3) -0.04612(8) 0.2677(3)
S1B S 0.79957(9) -0.06701(3) 0.43720(11)
C16B C 0.8047(4) -0.00010(10) 0.6845(4)
H16B H 0.9171 -0.0051 0.7319
C17B C 0.7060(3) -0.02525(10) 0.5353(4)
C18B C 0.5339(3) -0.01737(9) 0.4587(3)
C19B C 0.4254(4) -0.04186(10) 0.3015(4)
H17B H 0.4673 -0.0641 0.2451
C20B C 0.2624(4) -0.03328(11) 0.2327(4)
H18B H 0.1940 -0.0496 0.1297
loop_
_geom_bond_atom_site_label_1
_geom_bond_atom_site_label_2
_geom_bond_site_symmetry_1
_geom_bond_site_symmetry_2
N1 H1 1_555 1_555
N2 C3 1_555 1_555
N3 C3 1_555 1_555
N4 H2 1_555 1_555
O1 C1 1_555 1_555
C1 N1 1_555 1_555
C2 C1 1_555 1_555
C3 C2 1_555 1_555
C4 N3 1_555 1_555
H3 C4 1_555 1_555
C5 C4 1_555 1_555
H4 C5 1_555 1_555
C6 C2 1_555 1_555
H5 C6 1_555 1_555
C7 N2 1_555 1_555
C8 N1 1_555 1_555
C9 C8 1_555 1_555
C10 C9 1_555 1_555
H6 C10 1_555 1_555
C11 N4 1_555 1_555
H7 C11 1_555 1_555
C12 N2 1_555 1_555
H8 C12 1_555 1_555
C13 C12 1_555 1_555
H9 C13 1_555 1_555
H10 C13 1_555 1_555
C14 C12 1_555 1_555
H11 C14 1_555 1_555
H12 C14 1_555 1_555
C15 C9 1_555 1_555
H13 C15 1_555 1_555
H14 C15 1_555 1_555
H15 C15 1_555 1_555
O2 S1 1_555 1_555
O3 S1 1_555 1_555
O4 S1 1_555 1_555
S1 C17 1_555 1_555
C16 H16 1_555 1_555
C17 C16 1_555 1_555
C18 C17 1_555 1_555
C19 C18 1_555 1_555
H17 C19 1_555 1_555
C20 C19 1_555 1_555
H18 C20 1_555 1_555
O2B S1B 1_555 1_555
O3B S1B 1_555 1_555
O4B S1B 1_555 1_555
S1B C17B 1_555 1_555
C16B C20 1_555 1_555
H16B C16B 1_555 1_555
C17B C16B 1_555 1_555
C18B C18 1_555 1_555
C19B C18B 1_555 1_555
H17B C19B 1_555 1_555
C20B C16 1_555 1_555
H18B C20B 1_555 1_555
N4 C7 1_555 1_555
C5 C6 1_555 1_555
C7 C8 1_555 1_555
C10 C11 1_555 1_555
C13 C14 1_555 1_555
C17B C18B 1_555 1_555
C19B C20B 1_555 1_555

#END
