
#######################################################################
#
#                 Cambridge Crystallographic Data Centre
#                                CCDC 
#
#######################################################################
#
# If this CIF has been generated from an entry in the Cambridge 
# Structural Database, then it will include bibliographic, chemical, 
# crystal, experimental, refinement or atomic coordinate data resulting 
# from the CCDC's data processing and validation procedures.
#
#######################################################################

data_QUDWET
_chemical_formula_moiety         'C15 H15 N4 O1 1+,C2 Cl3 O2 1-'
_chemical_name_systematic        
"11-cyclopropyl-4-methyl-6-oxo-6,11-dihydro-5H-dipyrido[3,2-b:2',3'-e][1,4]diazepin-10-ium trichloroacetate"
_symmetry_cell_setting           triclinic
_symmetry_space_group_name_H-M   'P -1'
_symmetry_Int_Tables_number      2
_space_group_name_Hall           '-P 1'
loop_
_symmetry_equiv_pos_site_id
_symmetry_equiv_pos_as_xyz
1 x,y,z
2 -x,-y,-z
_cell_length_a                   9.1466(14)
_cell_length_b                   9.4940(17)
_cell_length_c                   11.9477(17)
_cell_angle_alpha                111.079(2)
_cell_angle_beta                 90.0890(10)
_cell_angle_gamma                95.0780(10)
_cell_volume                     963.666
_exptl_crystal_colour            colorless
_exptl_crystal_description       block
_cell_formula_units_Z            2
loop_
_atom_site_label
_atom_site_type_symbol
_atom_site_fract_x
_atom_site_fract_y
_atom_site_fract_z
Cl1 Cl 0.6422(4) 0.2992(3) 0.36699(17)
Cl2 Cl 0.6355(3) 0.0613(2) 0.1397(3)
Cl3 Cl 0.3942(4) 0.2466(5) 0.2036(4)
O1 O 0.7265(6) 0.4743(6) 0.2212(4)
O2 O 0.6420(6) 0.3094(5) 0.0470(4)
C1 C 0.6601(6) 0.3578(7) 0.1594(6)
C2 C 0.5853(7) 0.2466(7) 0.2164(5)
N1 N 0.0068(4) 0.6144(4) 0.3989(3)
H1 H 0.0011 0.6272 0.4737
N2 N 0.1959(4) 0.7083(4) 0.2434(3)
N3 N 0.2088(5) 0.5212(5) 0.0513(4)
H2 H 0.2611 0.5870 0.0305
N4 N 0.0633(5) 0.9197(4) 0.2763(3)
O3 O 0.0451(4) 0.3713(4) 0.3612(3)
C3 C 0.0410(5) 0.4791(6) 0.3263(4)
C4 C 0.0776(5) 0.4538(5) 0.1997(4)
C5 C 0.1599(5) 0.5608(5) 0.1639(4)
C6 C 0.1768(6) 0.3811(6) -0.0283(5)
H3 H 0.2123 0.3568 -0.1052
C7 C 0.0929(6) 0.2713(6) -0.0002(5)
H4 H 0.0683 0.1753 -0.0575
C8 C 0.0470(6) 0.3085(6) 0.1156(4)
H5 H -0.0056 0.2349 0.1379
C9 C 0.0745(5) 0.7921(5) 0.2977(4)
C10 C -0.0213(5) 0.7402(5) 0.3670(4)
C11 C -0.1450(5) 0.8178(5) 0.4112(4)
C12 C -0.1554(6) 0.9488(6) 0.3867(5)
H6 H -0.2353 1.0047 0.4136
C13 C -0.0502(6) 0.9974(6) 0.3234(5)
H7 H -0.0585 1.0888 0.3129
C14 C -0.2545(6) 0.7643(6) 0.4831(5)
H8 H -0.2163 0.7924 0.5639
H9 H -0.2735 0.6560 0.4480
H10 H -0.3441 0.8100 0.4838
C15 C 0.3239(5) 0.7953(6) 0.2245(5)
H11 H 0.3135 0.8463 0.1671
C16 C 0.4680(6) 0.7385(7) 0.2329(5)
H12 H 0.5441 0.7536 0.1807
H13 H 0.4681 0.6449 0.2482
C17 C 0.4252(6) 0.8745(7) 0.3317(5)
H14 H 0.4749 0.9723 0.3394
H15 H 0.3988 0.8635 0.4069
Cl4? Cl 0.406(9) 0.168(8) 0.194(6)
Cl5? Cl 0.565(5) 0.362(5) 0.364(3)
Cl6? Cl 0.656(6) 0.105(6) 0.249(6)
loop_
_geom_bond_atom_site_label_1
_geom_bond_atom_site_label_2
_geom_bond_site_symmetry_1
_geom_bond_site_symmetry_2
Cl1 C2 1_555 1_555
Cl2 C2 1_555 1_555
Cl3 C2 1_555 1_555
O1 C1 1_555 1_555
O2 C1 1_555 1_555
C1 C2 1_555 1_555
N1 H1 1_555 1_555
N2 C5 1_555 1_555
N3 H2 1_555 1_555
N4 C9 1_555 1_555
O3 C3 1_555 1_555
C3 N1 1_555 1_555
C4 C3 1_555 1_555
C5 N3 1_555 1_555
C6 N3 1_555 1_555
H3 C6 1_555 1_555
C7 C6 1_555 1_555
H4 C7 1_555 1_555
C8 C4 1_555 1_555
H5 C8 1_555 1_555
C9 N2 1_555 1_555
C10 N1 1_555 1_555
C11 C10 1_555 1_555
C12 C11 1_555 1_555
H6 C12 1_555 1_555
C13 N4 1_555 1_555
H7 C13 1_555 1_555
C14 C11 1_555 1_555
H8 C14 1_555 1_555
H9 C14 1_555 1_555
H10 C14 1_555 1_555
C15 N2 1_555 1_555
H11 C15 1_555 1_555
C16 C15 1_555 1_555
H12 C16 1_555 1_555
H13 C16 1_555 1_555
C17 C15 1_555 1_555
H14 C17 1_555 1_555
H15 C17 1_555 1_555
C4 C5 1_555 1_555
C7 C8 1_555 1_555
C9 C10 1_555 1_555
C12 C13 1_555 1_555
C16 C17 1_555 1_555

#END
