
#######################################################################
#
#                 Cambridge Crystallographic Data Centre
#                                CCDC 
#
#######################################################################
#
# If this CIF has been generated from an entry in the Cambridge 
# Structural Database, then it will include bibliographic, chemical, 
# crystal, experimental, refinement or atomic coordinate data resulting 
# from the CCDC's data processing and validation procedures.
#
#######################################################################

data_QUFKAF
_chemical_formula_moiety         'C16 H19 N1 O3'
_chemical_name_systematic        4-Nitro-3-phenyloctahydronaphthalen-1(2H)-one
_symmetry_cell_setting           monoclinic
_symmetry_space_group_name_H-M   'P 21/c'
_symmetry_Int_Tables_number      14
_space_group_name_Hall           '-P 2ybc'
loop_
_symmetry_equiv_pos_site_id
_symmetry_equiv_pos_as_xyz
1 x,y,z
2 -x,1/2+y,1/2-z
3 -x,-y,-z
4 x,1/2-y,1/2+z
_cell_length_a                   13.9327(12)
_cell_length_b                   5.8545(5)
_cell_length_c                   18.9127(15)
_cell_angle_alpha                90
_cell_angle_beta                 109.456(5)
_cell_angle_gamma                90
_cell_volume                     1454.6
_exptl_crystal_colour            colorless
_exptl_crystal_description       block
_cell_formula_units_Z            4
loop_
_atom_site_label
_atom_site_type_symbol
_atom_site_fract_x
_atom_site_fract_y
_atom_site_fract_z
C1 C 0.2735(4) 0.3940(9) 0.0365(3)
H1 H 0.3085 0.2462 0.0460
C2 C 0.2240(4) 0.4251(9) 0.0941(3)
H2 H 0.1888 0.5725 0.0839
C3 C 0.1412(3) 0.2395(9) 0.0829(3)
H3 H 0.1733 0.0913 0.0958
H4 H 0.1025 0.2699 0.1161
C4 C 0.2023(3) 0.3928(9) -0.0448(3)
H5 H 0.1679 0.5413 -0.0529
C5 C 0.1179(3) 0.2134(9) -0.0549(3)
H6 H 0.1515 0.0640 -0.0474
C6 C 0.0437(4) 0.2156(12) -0.1353(3)
H7 H -0.0028 0.0878 -0.1418
H8 H 0.0037 0.3548 -0.1431
C7 C 0.0708(4) 0.2354(10) 0.0036(3)
C8 C 0.1752(4) 0.3797(11) -0.1820(3)
H9 H 0.1446 0.5300 -0.1932
H10 H 0.2116 0.3490 -0.2167
C9 C 0.2501(4) 0.3752(12) -0.1010(3)
H11 H 0.2886 0.2339 -0.0933
H12 H 0.2978 0.5004 -0.0946
C10 C 0.0926(4) 0.2019(12) -0.1920(3)
H13 H 0.0414 0.2210 -0.2410
H14 H 0.1221 0.0511 -0.1903
C11 C 0.2955(3) 0.4328(9) 0.1743(2)
C12 C 0.3634(4) 0.2609(9) 0.2055(3)
H15 H 0.3671 0.1356 0.1763
C13 C 0.2925(4) 0.6180(9) 0.2196(3)
H16 H 0.2469 0.7368 0.2004
C14 C 0.4258(4) 0.2704(11) 0.2788(3)
H17 H 0.4708 0.1513 0.2987
C15 C 0.3581(5) 0.6262(11) 0.2943(3)
H18 H 0.3573 0.7515 0.3243
C16 C 0.4225(4) 0.4500(12) 0.3222(3)
H19 H 0.4650 0.4533 0.3719
O1 O -0.0249(3) 0.2496(7) -0.0109(2)
O2 O 0.4396(3) 0.5124(9) 0.0574(2)
O3 O 0.3274(4) 0.7760(9) 0.0410(2)
N1 N 0.3541(4) 0.5767(11) 0.0453(2)
loop_
_geom_bond_atom_site_label_1
_geom_bond_atom_site_label_2
_geom_bond_site_symmetry_1
_geom_bond_site_symmetry_2
C1 H1 1_555 1_555
C2 C1 1_555 1_555
H2 C2 1_555 1_555
C3 C2 1_555 1_555
H3 C3 1_555 1_555
H4 C3 1_555 1_555
C4 C1 1_555 1_555
H5 C4 1_555 1_555
C5 C4 1_555 1_555
H6 C5 1_555 1_555
C6 C5 1_555 1_555
H7 C6 1_555 1_555
H8 C6 1_555 1_555
C7 C3 1_555 1_555
C8 H9 1_555 1_555
H10 C8 1_555 1_555
C9 C4 1_555 1_555
H11 C9 1_555 1_555
H12 C9 1_555 1_555
C10 C6 1_555 1_555
H13 C10 1_555 1_555
H14 C10 1_555 1_555
C11 C2 1_555 1_555
C12 C11 1_555 1_555
H15 C12 1_555 1_555
C13 C11 1_555 1_555
H16 C13 1_555 1_555
C14 C12 1_555 1_555
H17 C14 1_555 1_555
C15 C13 1_555 1_555
H18 C15 1_555 1_555
C16 C14 1_555 1_555
H19 C16 1_555 1_555
O1 C7 1_555 1_555
O2 N1 1_555 1_555
O3 N1 1_555 1_555
N1 C1 1_555 1_555
C5 C7 1_555 1_555
C8 C9 1_555 1_555
C8 C10 1_555 1_555
C15 C16 1_555 1_555

#END
