
#######################################################################
#
#                 Cambridge Crystallographic Data Centre
#                                CCDC 
#
#######################################################################
#
# If this CIF has been generated from an entry in the Cambridge 
# Structural Database, then it will include bibliographic, chemical, 
# crystal, experimental, refinement or atomic coordinate data resulting 
# from the CCDC's data processing and validation procedures.
#
#######################################################################

data_QUFTOC
_chemical_formula_moiety         'C16 H17 N1 O4 S1'
_chemical_name_systematic        
N-(2-(1,3-benzodioxol-5-yl)ethyl)-4-methylbenzenesulfonamide
_symmetry_cell_setting           monoclinic
_symmetry_space_group_name_H-M   'P 21/n'
_symmetry_Int_Tables_number      14
_space_group_name_Hall           '-P 2yn'
loop_
_symmetry_equiv_pos_site_id
_symmetry_equiv_pos_as_xyz
1 x,y,z
2 1/2-x,1/2+y,1/2-z
3 -x,-y,-z
4 1/2+x,1/2-y,1/2+z
_cell_length_a                   12.3265(2)
_cell_length_b                   9.96026(16)
_cell_length_c                   12.7021(3)
_cell_angle_alpha                90
_cell_angle_beta                 100.5980(18)
_cell_angle_gamma                90
_cell_volume                     1532.9
_exptl_crystal_colour            yellow
_exptl_crystal_description       block
_cell_formula_units_Z            4
loop_
_atom_site_label
_atom_site_type_symbol
_atom_site_fract_x
_atom_site_fract_y
_atom_site_fract_z
S1 S 0.01040(4) 0.17100(5) 0.62290(4)
O1 O 0.10241(14) -0.39697(19) 0.99233(14)
O2 O 0.07337(17) -0.43875(18) 0.81134(15)
O3 O 0.04945(13) 0.23231(16) 0.72422(12)
O4 O 0.08943(10) 0.12122(14) 0.56207(12)
N1 N -0.06387(14) 0.04327(17) 0.64128(15)
H1 H -0.0777(17) -0.003(2) 0.5849(18)
C1 C 0.1333(2) -0.4786(3) 0.9109(2)
H2 H 0.2117 -0.4692 0.9115
H3 H 0.1181 -0.5721 0.9239
C2 C 0.02598(17) -0.3080(2) 0.93953(17)
C3 C -0.0287(2) -0.2082(3) 0.98013(18)
H4 H -0.0176 -0.1910 1.0533
C4 C -0.10220(19) -0.1330(2) 0.90745(18)
H5 H -0.1404 -0.0633 0.9331
C5 C -0.12075(16) -0.1574(2) 0.79891(16)
C6 C -0.06264(17) -0.2603(2) 0.76031(16)
H6 H -0.0725 -0.2786 0.6874
C7 C 0.00883(17) -0.3334(2) 0.83196(17)
C8 C -0.20189(18) -0.0740(2) 0.7228(2)
H7 H -0.2671 -0.0597 0.7541
H8 H -0.2244 -0.1242 0.6569
C9 C -0.15798(18) 0.0611(2) 0.6958(2)
H9 H -0.2159 0.1108 0.6499
H10 H -0.1351 0.1124 0.7610
C10 C -0.07539(13) 0.28694(17) 0.54277(14)
C11 C -0.08585(15) 0.41631(18) 0.57810(15)
H11 H -0.0486 0.4434 0.6451
C12 C -0.15261(15) 0.50503(18) 0.51218(16)
H12 H -0.1592 0.5927 0.5354
C13 C -0.20962(14) 0.46749(17) 0.41312(15)
C14 C -0.28241(19) 0.5655(2) 0.34252(19)
H13 H -0.2651 0.5636 0.2719
H14 H -0.2702 0.6543 0.3717
H15 H -0.3583 0.5411 0.3389
C15 C -0.19811(16) 0.33719(18) 0.37970(15)
H16 H -0.2365 0.3099 0.3132
C16 C -0.13115(16) 0.24717(18) 0.44277(15)
H17 H -0.1233 0.1602 0.4186
loop_
_geom_bond_atom_site_label_1
_geom_bond_atom_site_label_2
_geom_bond_site_symmetry_1
_geom_bond_site_symmetry_2
S1 O3 1_555 1_555
O1 C1 1_555 1_555
O2 C1 1_555 1_555
O4 S1 1_555 1_555
N1 S1 1_555 1_555
H1 N1 1_555 1_555
C1 H2 1_555 1_555
H3 C1 1_555 1_555
C2 O1 1_555 1_555
C3 C2 1_555 1_555
H4 C3 1_555 1_555
C4 C3 1_555 1_555
H5 C4 1_555 1_555
C5 C4 1_555 1_555
C6 C5 1_555 1_555
H6 C6 1_555 1_555
C7 O2 1_555 1_555
C8 C5 1_555 1_555
H7 C8 1_555 1_555
H8 C8 1_555 1_555
C9 N1 1_555 1_555
H9 C9 1_555 1_555
H10 C9 1_555 1_555
C10 S1 1_555 1_555
C11 C10 1_555 1_555
H11 C11 1_555 1_555
C12 C11 1_555 1_555
H12 C12 1_555 1_555
C13 C12 1_555 1_555
C14 C13 1_555 1_555
H13 C14 1_555 1_555
H14 C14 1_555 1_555
H15 C14 1_555 1_555
C15 C13 1_555 1_555
H16 C15 1_555 1_555
C16 C10 1_555 1_555
H17 C16 1_555 1_555
C2 C7 1_555 1_555
C6 C7 1_555 1_555
C8 C9 1_555 1_555
C15 C16 1_555 1_555

#END
