
#######################################################################
#
#                 Cambridge Crystallographic Data Centre
#                                CCDC 
#
#######################################################################
#
# If this CIF has been generated from an entry in the Cambridge 
# Structural Database, then it will include bibliographic, chemical, 
# crystal, experimental, refinement or atomic coordinate data resulting 
# from the CCDC's data processing and validation procedures.
#
#######################################################################

data_QUGHUX
_chemical_name_common            
1,8-oxybis(ethyleneethoxyethyleneseleno)-10-hydroxy-10-hydro-anthracene-9-one
_chemical_formula_moiety         'C22 H24 O6 Se1'
_chemical_name_systematic        
25-hydroxy-6,9,15,18-tetraoxa-12-selenatetracyclo[21.3.1.0^5,26^.0^19,24^]heptacosa-1(26),2,4,19,21,23-hexaen-27-one
_symmetry_cell_setting           monoclinic
_symmetry_space_group_name_H-M   'P 21/c'
_symmetry_Int_Tables_number      14
_space_group_name_Hall           '-P 2ybc'
loop_
_symmetry_equiv_pos_site_id
_symmetry_equiv_pos_as_xyz
1 x,y,z
2 -x,1/2+y,1/2-z
3 -x,-y,-z
4 x,1/2-y,1/2+z
_cell_length_a                   12.3365(8)
_cell_length_b                   11.5354(8)
_cell_length_c                   14.4592(9)
_cell_angle_alpha                90
_cell_angle_beta                 99.2400(10)
_cell_angle_gamma                90
_cell_volume                     2030.94
_exptl_crystal_colour            colorless
_exptl_crystal_description       needle
_cell_formula_units_Z            4
loop_
_atom_site_label
_atom_site_type_symbol
_atom_site_fract_x
_atom_site_fract_y
_atom_site_fract_z
Se1 Se 0.586136(16) 0.232017(17) -0.186202(14)
O1 O 0.86892(10) 0.18749(11) 0.05801(9)
O2 O 0.64963(11) 0.11559(11) 0.02040(9)
O3 O 0.86859(11) 0.27805(11) -0.13403(9)
H1 H 0.8335 0.2300 -0.1093
O4 O 0.85050(11) 0.53018(11) -0.13379(9)
O5 O 0.62330(11) 0.50680(12) -0.19124(9)
O6 O 1.27213(13) 0.27728(13) -0.10458(12)
C1 C 0.94887(15) 0.33213(15) -0.06338(12)
H2 H 0.9101 0.3728 -0.0189
C2 C 1.12903(16) 0.22102(15) -0.02418(13)
C3 C 1.01109(15) 0.41994(15) -0.11132(12)
C4 C 1.02030(15) 0.23946(15) -0.01120(12)
C5 C 0.97579(15) 0.16636(15) 0.05058(12)
C6 C 1.14654(16) 0.06149(16) 0.08393(14)
H3 H 1.1881 0.0021 0.1154
C7 C 1.19181(16) 0.13084(16) 0.02275(13)
H4 H 1.2634 0.1181 0.0125
C8 C 1.12056(16) 0.40483(16) -0.12208(12)
C9 C 1.18081(16) 0.29880(17) -0.08576(13)
C10 C 0.67379(17) 0.60931(16) -0.15021(14)
H5 H 0.6821 0.6045 -0.0825
H6 H 0.6285 0.6762 -0.1707
C11 C 0.95621(16) 0.52088(16) -0.14865(13)
C12 C 0.81943(16) 0.12014(16) 0.12353(13)
H7 H 0.8545 0.1366 0.1871
H8 H 0.8272 0.0380 0.1116
C13 C 1.11990(17) 0.58606(17) -0.20375(13)
H9 H 1.1562 0.6416 -0.2340
C14 C 1.17530(17) 0.48842(17) -0.16776(13)
H10 H 1.2486 0.4779 -0.1737
C15 C 0.70033(16) 0.15297(17) 0.11074(13)
H11 H 0.6652 0.1163 0.1586
H12 H 0.6930 0.2363 0.1162
C16 C 0.78368(16) 0.62153(16) -0.17983(14)
H13 H 0.7773 0.6142 -0.2473
H14 H 0.8155 0.6965 -0.1613
C17 C 1.01018(17) 0.60260(16) -0.19546(13)
H15 H 0.9730 0.6681 -0.2212
C18 C 0.54057(16) 0.15621(17) -0.00532(14)
H16 H 0.5368 0.2385 0.0078
H17 H 0.4918 0.1156 0.0300
C19 C 1.03936(16) 0.07931(16) 0.09923(13)
H18 H 1.0101 0.0332 0.1419
C20 C 0.50687(16) 0.13411(17) -0.10880(14)
H19 H 0.4287 0.1482 -0.1257
H20 H 0.5203 0.0533 -0.1218
C21 C 0.53165(18) 0.47107(19) -0.15060(16)
H21 H 0.4769 0.5321 -0.1564
H22 H 0.5542 0.4542 -0.0846
C22 C 0.48471(17) 0.36410(18) -0.20155(16)
H23 H 0.4656 0.3818 -0.2677
H24 H 0.4178 0.3425 -0.1786
loop_
_geom_bond_atom_site_label_1
_geom_bond_atom_site_label_2
_geom_bond_site_symmetry_1
_geom_bond_site_symmetry_2
Se1 C20 1_555 1_555
O1 C5 1_555 1_555
O2 C15 1_555 1_555
O3 H1 1_555 1_555
O4 C11 1_555 1_555
O5 C10 1_555 1_555
O6 C9 1_555 1_555
C1 O3 1_555 1_555
H2 C1 1_555 1_555
C2 C4 1_555 1_555
C3 C1 1_555 1_555
C4 C1 1_555 1_555
C5 C4 1_555 1_555
C6 H3 1_555 1_555
C7 C2 1_555 1_555
H4 C7 1_555 1_555
C8 C3 1_555 1_555
C9 C2 1_555 1_555
C10 H5 1_555 1_555
H6 C10 1_555 1_555
C11 C3 1_555 1_555
C12 O1 1_555 1_555
H7 C12 1_555 1_555
H8 C12 1_555 1_555
C13 H9 1_555 1_555
C14 C8 1_555 1_555
H10 C14 1_555 1_555
C15 C12 1_555 1_555
H11 C15 1_555 1_555
H12 C15 1_555 1_555
C16 O4 1_555 1_555
H13 C16 1_555 1_555
H14 C16 1_555 1_555
C17 C11 1_555 1_555
H15 C17 1_555 1_555
C18 O2 1_555 1_555
H16 C18 1_555 1_555
H17 C18 1_555 1_555
C19 C5 1_555 1_555
H18 C19 1_555 1_555
C20 C18 1_555 1_555
H19 C20 1_555 1_555
H20 C20 1_555 1_555
C21 O5 1_555 1_555
H21 C21 1_555 1_555
H22 C21 1_555 1_555
C22 Se1 1_555 1_555
H23 C22 1_555 1_555
H24 C22 1_555 1_555
C6 C7 1_555 1_555
C6 C19 1_555 1_555
C8 C9 1_555 1_555
C10 C16 1_555 1_555
C13 C14 1_555 1_555
C13 C17 1_555 1_555
C21 C22 1_555 1_555

#END
