
#######################################################################
#
#                 Cambridge Crystallographic Data Centre
#                                CCDC 
#
#######################################################################
#
# If this CIF has been generated from an entry in the Cambridge 
# Structural Database, then it will include bibliographic, chemical, 
# crystal, experimental, refinement or atomic coordinate data resulting 
# from the CCDC's data processing and validation procedures.
#
#######################################################################

data_QUGKEK
_chemical_name_common            
"1-benzyl 1'-t-butyl 3-methyl 2'-oxospiro[aziridine -2,3'-indoline] -1,1',3-tricarboxylate"
_chemical_formula_moiety         'C24 H24 N2 O7'
_chemical_name_systematic        
"1-benzyl 1'-t-butyl 3-methyl 2'-oxo-1H-spiro[aziridine-2,3'-indole]-1,1',3(2'H)-tricarboxylate"
_symmetry_cell_setting           triclinic
_symmetry_space_group_name_H-M   'P -1'
_symmetry_Int_Tables_number      2
_space_group_name_Hall           '-P 1'
loop_
_symmetry_equiv_pos_site_id
_symmetry_equiv_pos_as_xyz
1 x,y,z
2 -x,-y,-z
_cell_length_a                   6.647(8)
_cell_length_b                   12.469(15)
_cell_length_c                   14.173(16)
_cell_angle_alpha                87.147(15)
_cell_angle_beta                 79.429(16)
_cell_angle_gamma                89.310(15)
_cell_volume                     1153.31
_exptl_crystal_colour            colorless
_exptl_crystal_description       needle
_cell_formula_units_Z            2
loop_
_atom_site_label
_atom_site_type_symbol
_atom_site_fract_x
_atom_site_fract_y
_atom_site_fract_z
O1 O 0.7631(11) -0.2577(4) 0.8312(4)
O2 O 1.0111(11) 0.1483(5) 0.5789(4)
O3 O 1.1866(10) 0.0460(5) 0.6748(4)
O4 O 0.6603(10) 0.3344(5) 0.7970(5)
O5 O 0.3802(9) 0.2492(4) 0.7669(4)
O6 O 0.7805(10) -0.0786(5) 0.7215(4)
O7 O 0.7132(10) -0.2447(4) 0.9932(4)
N1 N 0.7532(9) -0.0921(5) 0.8909(4)
C1 C 0.5361(16) -0.4111(9) 0.8818(13)
H1 H 0.5088 -0.3869 0.9477
H2 H 0.5270 -0.4896 0.8832
H3 H 0.4348 -0.3794 0.8463
C2 C 0.7462(13) -0.3766(7) 0.8333(7)
C3 C 0.7409(10) -0.2056(6) 0.9121(6)
C4 C 0.7728(11) -0.0404(6) 0.7991(6)
C5 C 0.7799(12) 0.0809(6) 0.8145(6)
N2 N 0.9055(10) 0.1491(5) 0.7397(5)
C6 C 1.0429(14) 0.1050(7) 0.6635(6)
C7 C 1.1654(16) 0.1208(7) 0.4951(7)
H4 H 1.1052 0.1296 0.4362
H5 H 1.2061 0.0446 0.5023
C8 C 1.3541(17) 0.1917(7) 0.4845(7)
C9 C 1.3585(18) 0.2874(8) 0.5324(8)
H6 H 1.2393 0.3096 0.5748
C10 C 1.5329(19) 0.3500(8) 0.5190(8)
H7 H 1.5326 0.4128 0.5542
C11 C 1.705(2) 0.3232(10) 0.4562(9)
H8 H 1.8238 0.3670 0.4474
C12 C 0.6870(13) 0.1518(6) 0.7432(6)
H9 H 0.6368 0.1139 0.6915
C13 C 0.5785(14) 0.2556(7) 0.7723(6)
C14 C 0.2575(14) 0.3441(6) 0.7934(7)
H10 H 0.2601 0.3586 0.8605
H11 H 0.1160 0.3317 0.7859
H12 H 0.3136 0.4057 0.7517
C15 C 0.9077(18) -0.4288(10) 0.8763(12)
H13 H 1.0388 -0.3937 0.8505
H14 H 0.9164 -0.5047 0.8611
H15 H 0.8763 -0.4231 0.9462
C16 C 0.7522(10) -0.0131(6) 0.9632(5)
C17 C 0.7725(10) 0.0908(5) 0.9196(5)
C18 C 0.7833(11) 0.1802(6) 0.9734(6)
H16 H 0.7992 0.2503 0.9436
C19 C 0.7700(10) 0.1636(6) 1.0727(6)
H17 H 0.7764 0.2231 1.1114
C20 C 0.7475(11) 0.0600(6) 1.1150(6)
H18 H 0.7370 0.0509 1.1827
C21 C 0.7398(10) -0.0291(6) 1.0635(5)
H19 H 0.7265 -0.0990 1.0939
C22 C 1.5307(18) 0.1644(9) 0.4200(7)
H20 H 1.5321 0.1004 0.3862
C23 C 1.704(2) 0.2287(10) 0.4041(9)
H21 H 1.8212 0.2097 0.3588
C24 C 0.773(4) -0.3989(10) 0.7267(9)
H22 H 0.9052 -0.3709 0.6930
H23 H 0.6625 -0.3636 0.6994
H24 H 0.7679 -0.4765 0.7194
loop_
_geom_bond_atom_site_label_1
_geom_bond_atom_site_label_2
_geom_bond_site_symmetry_1
_geom_bond_site_symmetry_2
O1 C2 1_555 1_555
O2 C6 1_555 1_555
O3 C6 1_555 1_555
O4 C13 1_555 1_555
O5 C13 1_555 1_555
O6 C4 1_555 1_555
O7 C3 1_555 1_555
N1 C3 1_555 1_555
C1 H1 1_555 1_555
H2 C1 1_555 1_555
H3 C1 1_555 1_555
C2 C1 1_555 1_555
C3 O1 1_555 1_555
C4 N1 1_555 1_555
C5 C4 1_555 1_555
N2 C5 1_555 1_555
C6 N2 1_555 1_555
C7 O2 1_555 1_555
H4 C7 1_555 1_555
H5 C7 1_555 1_555
C8 C7 1_555 1_555
C9 C8 1_555 1_555
H6 C9 1_555 1_555
C10 C9 1_555 1_555
H7 C10 1_555 1_555
C11 C10 1_555 1_555
H8 C11 1_555 1_555
C12 C5 1_555 1_555
H9 C12 1_555 1_555
C13 C12 1_555 1_555
C14 O5 1_555 1_555
H10 C14 1_555 1_555
H11 C14 1_555 1_555
H12 C14 1_555 1_555
C15 C2 1_555 1_555
H13 C15 1_555 1_555
H14 C15 1_555 1_555
H15 C15 1_555 1_555
C16 N1 1_555 1_555
C17 C5 1_555 1_555
C18 C17 1_555 1_555
H16 C18 1_555 1_555
C19 C18 1_555 1_555
H17 C19 1_555 1_555
C20 C19 1_555 1_555
H18 C20 1_555 1_555
C21 C16 1_555 1_555
H19 C21 1_555 1_555
C22 C8 1_555 1_555
H20 C22 1_555 1_555
C23 C11 1_555 1_555
H21 C23 1_555 1_555
C24 C2 1_555 1_555
H22 C24 1_555 1_555
H23 C24 1_555 1_555
H24 C24 1_555 1_555
N2 C12 1_555 1_555
C16 C17 1_555 1_555
C20 C21 1_555 1_555
C22 C23 1_555 1_555

#END
