
#######################################################################
#
#                 Cambridge Crystallographic Data Centre
#                                CCDC 
#
#######################################################################
#
# If this CIF has been generated from an entry in the Cambridge 
# Structural Database, then it will include bibliographic, chemical, 
# crystal, experimental, refinement or atomic coordinate data resulting 
# from the CCDC's data processing and validation procedures.
#
#######################################################################

data_QUGRAN
_chemical_formula_moiety         'C81 H48 B3 N9 O3,1.43(C1 H2 Cl2),0.79(C6 H14)'
_chemical_name_systematic        
'tris(\m~2~-5,10-Diphenyl-15-oxidosubporphyrinato)-tri-boron(iii) dichloromethane n-hexane solvate'
_symmetry_cell_setting           monoclinic
_symmetry_space_group_name_H-M   'C c'
_symmetry_Int_Tables_number      9
_space_group_name_Hall           'C -2yc'
loop_
_symmetry_equiv_pos_site_id
_symmetry_equiv_pos_as_xyz
1 x,y,z
2 x,-y,1/2+z
3 1/2+x,1/2+y,z
4 1/2+x,1/2-y,1/2+z
_cell_length_a                   12.353(3)
_cell_length_b                   21.810(5)
_cell_length_c                   25.803(5)
_cell_angle_alpha                90
_cell_angle_beta                 98.097(4)
_cell_angle_gamma                90
_cell_volume                     6882.51
_exptl_crystal_colour            yellow
_exptl_crystal_description       Prism
_cell_formula_units_Z            4
loop_
_atom_site_label
_atom_site_type_symbol
_atom_site_fract_x
_atom_site_fract_y
_atom_site_fract_z
N1 N 0.8072(2) 0.31824(11) 0.06954(9)
O1 O 0.49968(16) 0.48419(9) 0.10315(8)
N2 N 0.3400(2) 0.25535(11) 0.01374(9)
O2 O 0.63071(16) 0.26908(9) 0.05746(8)
O3 O 0.23061(16) 0.30519(9) 0.07688(8)
N3 N 0.6778(2) 0.35178(12) 0.12385(9)
C1 C 0.3074(2) 0.38227(14) 0.13657(11)
N4 N 0.3202(2) 0.45904(11) 0.05183(9)
C2 C 0.7485(2) 0.33594(14) 0.16776(11)
C3 C 0.3143(2) 0.63131(14) 0.14942(11)
H1 H 0.3102 0.6615 0.1756
N5 N 0.3445(2) 0.44116(11) 0.14425(9)
C4 C 0.6295(2) 0.40792(14) 0.18954(11)
H2 H 0.5918 0.4361 0.2087
N6 N 0.2083(2) 0.19935(11) 0.05397(9)
C5 C 0.5234(2) 0.26320(13) 0.05925(11)
N7 N 0.3377(2) 0.54258(12) 0.11049(9)
C6 C 0.3306(2) 0.56690(14) 0.15865(11)
C7 C 0.3169(2) 0.58460(14) 0.07079(12)
C8 C 0.4624(3) 0.26666(15) -0.04197(12)
H3 H 0.5279 0.2761 -0.0557
N8 N 0.3770(2) 0.22851(12) 0.10437(9)
N9 N 0.6539(2) 0.37840(12) 0.03290(9)
C9 C 0.2402(3) 0.70195(16) -0.06779(13)
H4 H 0.2094 0.7417 -0.0663
C10 C 0.4861(2) 0.24113(14) 0.10549(11)
C11 C 0.2364(3) 0.59675(16) 0.25872(14)
H5 H 0.1887 0.6095 0.2285
C12 C 0.3802(3) 0.53203(17) 0.29934(12)
H6 H 0.4312 0.4998 0.2972
C13 C 0.8556(2) 0.32435(14) 0.02555(11)
C14 C 0.4482(2) 0.26717(14) 0.01207(12)
C15 C 0.2368(3) 0.45981(14) -0.03058(11)
H7 H 0.2099 0.4728 -0.0651
C16 C 0.7131(3) 0.36936(15) 0.21019(11)
H8 H 0.7420 0.3656 0.2462
C17 C 0.5581(2) 0.43450(14) 0.09250(11)
C18 C 0.7994(2) 0.35689(14) -0.01796(11)
C19 C 0.2909(2) 0.49779(14) 0.01072(11)
C20 C 0.8782(2) 0.29902(14) 0.11185(11)
C21 C 0.3638(3) 0.25004(15) -0.07069(12)
H9 H 0.3496 0.2458 -0.1077
C22 C 0.8290(3) 0.35894(16) -0.16157(12)
H10 H 0.7866 0.3484 -0.1940
C23 C 0.5397(3) 0.21525(15) 0.15292(12)
H11 H 0.6156 0.2180 0.1655
C24 C 0.2810(2) 0.40089(13) 0.04170(11)
C25 C 0.8478(3) 0.36595(14) -0.06694(11)
C26 C 0.2308(3) 0.40069(14) -0.01099(12)
H12 H 0.1986 0.3662 -0.0297
C27 C 0.0782(3) 0.13607(15) 0.01693(13)
H13 H 0.0244 0.1174 -0.0081
C28 C 0.2810(3) 0.36165(14) 0.18580(12)
H14 H 0.2583 0.3214 0.1935
C29 C 0.9206(3) 0.28595(15) 0.21061(11)
C30 C 0.5781(3) 0.46402(15) -0.00369(12)
H15 H 0.5332 0.4993 -0.0102
C31 C 0.2796(2) 0.36028(13) 0.08474(11)
C32 C 0.1863(2) 0.20734(15) -0.03941(12)
C33 C 0.5849(2) 0.42555(14) 0.04137(11)
C34 C 0.2555(3) 0.15973(15) 0.14100(12)
C35 C 0.1515(2) 0.18366(14) 0.00646(12)
C36 C 0.9795(3) 0.28608(15) 0.09154(12)
H16 H 1.0443 0.2699 0.1109
C37 C 0.8795(3) 0.25094(15) 0.24879(11)
H17 H 0.8043 0.2399 0.2441
C38 C 0.3056(3) 0.64224(15) 0.09682(12)
H18 H 0.2942 0.6811 0.0803
C39 C 0.9474(3) 0.23195(16) 0.29367(12)
H19 H 0.9193 0.2071 0.3189
C40 C 1.0297(3) 0.30365(17) 0.21902(13)
H20 H 1.0587 0.3279 0.1936
C41 C 0.2882(3) 0.68514(16) -0.11129(13)
H21 H 0.2913 0.7134 -0.1390
C42 C 0.9652(2) 0.30127(14) 0.03984(12)
H22 H 1.0186 0.2973 0.0169
C43 C 0.2867(3) 0.24027(14) -0.03475(12)
C44 C 0.7012(2) 0.38777(14) -0.01128(11)
C45 C 0.3303(2) 0.46226(14) 0.19263(11)
C46 C 0.2862(2) 0.60409(14) -0.02715(11)
C47 C 0.4624(3) 0.18538(15) 0.17741(12)
H23 H 0.4753 0.1647 0.2101
C48 C 0.9964(3) 0.39561(18) -0.11305(13)
H24 H 1.0684 0.4113 -0.1123
C49 C 0.6478(3) 0.44112(15) -0.03615(12)
H25 H 0.6588 0.4575 -0.0691
C50 C 0.7856(3) 0.35250(15) -0.11540(12)
H26 H 0.7123 0.3387 -0.1165
C51 C 0.3582(3) 0.19118(14) 0.14427(11)
C52 C 0.3151(3) 0.55174(15) 0.25407(12)
C53 C 0.6096(2) 0.39813(14) 0.13439(12)
C54 C 0.2281(3) 0.12021(15) 0.18381(12)
C55 C 0.8468(2) 0.30438(14) 0.16244(11)
C56 C 0.1853(3) 0.16129(14) 0.09308(12)
C57 C 0.2943(3) 0.41039(15) 0.22025(11)
H27 H 0.2819 0.4098 0.2558
C58 C 0.3300(2) 0.52685(14) 0.20181(11)
C59 C 0.2990(2) 0.56263(14) 0.01895(12)
C60 C 0.2979(3) 0.07311(17) 0.20543(13)
H28 H 0.3655 0.0664 0.1928
C61 C 1.0965(3) 0.2862(2) 0.26431(14)
H29 H 1.1706 0.2993 0.2701
C62 C 0.2369(3) 0.66181(15) -0.02693(12)
H30 H 0.2009 0.6734 0.0017
C63 C 0.3723(4) 0.55842(18) 0.34735(14)
H31 H 0.4190 0.5452 0.3777
C64 C 0.3317(3) 0.62619(16) -0.11380(12)
H32 H 0.3613 0.6133 -0.1441
C65 C 0.3313(3) 0.58674(16) -0.07183(12)
H33 H 0.3622 0.5470 -0.0733
C66 C 0.1000(3) 0.0920(2) 0.24245(15)
H34 H 0.0330 0.0988 0.2557
C67 C 0.0417(3) 0.1613(3) -0.19514(15)
H35 H 0.0117 0.1511 -0.2300
C68 C 0.2690(4) 0.03664(17) 0.24477(14)
H36 H 0.3171 0.0051 0.2593
C69 C 0.9534(3) 0.38765(16) -0.06652(12)
H37 H 0.9968 0.3972 -0.0341
C70 C 0.2959(4) 0.60431(19) 0.35124(14)
H38 H 0.2908 0.6228 0.3841
C71 C 0.0818(4) 0.2346(2) -0.12665(14)
H39 H 0.0788 0.2757 -0.1148
C72 C 0.0985(3) 0.12178(15) 0.06943(13)
H40 H 0.0621 0.0914 0.0869
C73 C 0.1701(4) 0.0456(2) 0.26334(14)
H41 H 0.1503 0.0200 0.2903
C74 C 0.1279(3) 0.12817(18) 0.20247(14)
H42 H 0.0786 0.1588 0.1875
C75 C 0.9347(3) 0.38076(19) -0.16055(13)
H43 H 0.9647 0.3855 -0.1922
C76 C 0.1325(3) 0.18965(17) -0.09270(13)
C77 C 1.0560(3) 0.24957(19) 0.30128(13)
H44 H 1.1029 0.2367 0.3317
B1 B 0.2889(3) 0.24978(15) 0.06257(12)
C78 C 0.0911(4) 0.1167(3) -0.1625(2)
H45 H 0.0947 0.0759 -0.1750
B2 B 0.6886(3) 0.32813(15) 0.07060(12)
C79 C 0.0354(4) 0.2196(2) -0.17800(15)
H46 H -0.0001 0.2502 -0.2005
B3 B 0.3798(3) 0.48063(15) 0.10259(12)
C80 C 0.1364(3) 0.1306(2) -0.11092(17)
H47 H 0.1698 0.0993 -0.0886
C81 C 0.2271(3) 0.62308(17) 0.30686(15)
H48 H 0.1737 0.6539 0.3094
C82 C 0.0395(5) 0.4139(3) 0.3594(2)
Cl1 Cl 0.0942(3) 0.46621(9) 0.31804(9)
Cl2 Cl -0.1035(2) 0.40283(14) 0.34625(8)
C85 C 1.0071(12) 0.5072(6) 0.0524(5)
H53 H 1.0282 0.4651 0.0437
H54 H 1.0690 0.5260 0.0756
C86 C 0.9413(12) 0.4571(5) 0.1338(7)
H55 H 0.8958 0.4639 0.1620
H56 H 0.9434 0.4131 0.1246
C87 C 1.0487(14) 0.4854(11) 0.1440(9)
H57 H 1.0521 0.5202 0.1203
H58 H 1.1047 0.4553 0.1383
H59 H 1.0619 0.4998 0.1804
C88 C 0.9077(18) 0.5058(9) 0.0792(7)
H60 H 0.8443 0.4895 0.0555
H61 H 0.8897 0.5475 0.0905
C89 C 0.9787(12) 0.5471(6) -0.0002(4)
H62 H 1.0472 0.5585 -0.0136
H63 H 0.9340 0.5222 -0.0273
C90 C 0.9211(15) 0.6002(7) 0.0095(6)
H64 H 0.8492 0.5889 0.0184
H65 H 0.9119 0.6262 -0.0218
H66 H 0.9621 0.6227 0.0388
Cl3? Cl -0.088(2) 0.4154(14) 0.3491(12)
Cl4? Cl 0.0715(15) 0.4641(10) 0.3102(11)
C83? C 0.892(2) 0.5915(14) -0.0002(10)
H49? H 0.8259 0.5904 0.0176
H50? H 0.8839 0.6264 -0.0250
Cl5? Cl 1.0169(4) 0.6039(2) 0.0501(2)
Cl6? Cl 0.8994(5) 0.5278(2) -0.03271(18)
Cl7? Cl 0.8379(3) 0.4765(2) 0.09647(16)
Cl8? Cl 1.0499(10) 0.4789(5) 0.1586(4)
C84? C 0.978(2) 0.4534(9) 0.0987(11)
H51? H 0.9834 0.4083 0.0962
H52? H 1.0100 0.4719 0.0692
loop_
_geom_bond_atom_site_label_1
_geom_bond_atom_site_label_2
_geom_bond_site_symmetry_1
_geom_bond_site_symmetry_2
N1 C13 1_555 1_555
O1 C17 1_555 1_555
N2 C14 1_555 1_555
O2 C5 1_555 1_555
O3 C31 1_555 1_555
N3 C2 1_555 1_555
C1 N5 1_555 1_555
N4 C19 1_555 1_555
C2 C16 1_555 1_555
C3 H1 1_555 1_555
N5 C45 1_555 1_555
C4 H2 1_555 1_555
N6 C35 1_555 1_555
C5 C10 1_555 1_555
N7 C6 1_555 1_555
C6 C3 1_555 1_555
C7 N7 1_555 1_555
C8 H3 1_555 1_555
N8 C10 1_555 1_555
N9 C33 1_555 1_555
C9 H4 1_555 1_555
C10 C23 1_555 1_555
C11 H5 1_555 1_555
C12 H6 1_555 1_555
C13 C18 1_555 1_555
C14 C5 1_555 1_555
C15 H7 1_555 1_555
C16 C4 1_555 1_555
H8 C16 1_555 1_555
C17 C33 1_555 1_555
C18 C25 1_555 1_555
C19 C15 1_555 1_555
C20 N1 1_555 1_555
C21 C8 1_555 1_555
H9 C21 1_555 1_555
C22 H10 1_555 1_555
C23 H11 1_555 1_555
C24 N4 1_555 1_555
C25 C50 1_555 1_555
C26 C15 1_555 1_555
H12 C26 1_555 1_555
C27 H13 1_555 1_555
C28 C1 1_555 1_555
H14 C28 1_555 1_555
C29 C37 1_555 1_555
C30 H15 1_555 1_555
C31 C1 1_555 1_555
C32 C35 1_555 1_555
C33 C30 1_555 1_555
C34 C51 1_555 1_555
C35 C27 1_555 1_555
C36 C20 1_555 1_555
H16 C36 1_555 1_555
C37 H17 1_555 1_555
C38 C3 1_555 1_555
H18 C38 1_555 1_555
C39 C37 1_555 1_555
H19 C39 1_555 1_555
C40 C29 1_555 1_555
H20 C40 1_555 1_555
C41 C9 1_555 1_555
H21 C41 1_555 1_555
C42 C13 1_555 1_555
H22 C42 1_555 1_555
C43 N2 1_555 1_555
C44 N9 1_555 1_555
C45 C57 1_555 1_555
C46 C59 1_555 1_555
C47 C23 1_555 1_555
H23 C47 1_555 1_555
C48 H24 1_555 1_555
C49 C30 1_555 1_555
H25 C49 1_555 1_555
C50 C22 1_555 1_555
H26 C50 1_555 1_555
C51 N8 1_555 1_555
C52 C11 1_555 1_555
C53 N3 1_555 1_555
C54 C34 1_555 1_555
C55 C2 1_555 1_555
C56 N6 1_555 1_555
C57 C28 1_555 1_555
H27 C57 1_555 1_555
C58 C6 1_555 1_555
C59 C7 1_555 1_555
C60 C54 1_555 1_555
H28 C60 1_555 1_555
C61 C40 1_555 1_555
H29 C61 1_555 1_555
C62 C9 1_555 1_555
H30 C62 1_555 1_555
C63 C12 1_555 1_555
H31 C63 1_555 1_555
C64 C41 1_555 1_555
H32 C64 1_555 1_555
C65 C46 1_555 1_555
H33 C65 1_555 1_555
C66 H34 1_555 1_555
C67 H35 1_555 1_555
C68 C60 1_555 1_555
H36 C68 1_555 1_555
C69 C25 1_555 1_555
H37 C69 1_555 1_555
C70 C63 1_555 1_555
H38 C70 1_555 1_555
C71 H39 1_555 1_555
C72 C27 1_555 1_555
H40 C72 1_555 1_555
C73 C66 1_555 1_555
H41 C73 1_555 1_555
C74 C54 1_555 1_555
H42 C74 1_555 1_555
C75 C22 1_555 1_555
H43 C75 1_555 1_555
C76 C32 1_555 1_555
C77 C39 1_555 1_555
H44 C77 1_555 1_555
B1 N2 1_555 1_555
C78 C67 1_555 1_555
H45 C78 1_555 1_555
B2 N1 1_555 1_555
C79 C67 1_555 1_555
H46 C79 1_555 1_555
B3 O1 1_555 1_555
C80 C76 1_555 1_555
H47 C80 1_555 1_555
C81 C11 1_555 1_555
H48 C81 1_555 1_555
C82 Cl1 1_555 1_555
Cl2 C82 1_555 1_555
C85 H53 1_555 1_555
H54 C85 1_555 1_555
C86 H55 1_555 1_555
H56 C86 1_555 1_555
C87 C86 1_555 1_555
H57 C87 1_555 1_555
H58 C87 1_555 1_555
H59 C87 1_555 1_555
C88 C85 1_555 1_555
H60 C88 1_555 1_555
H61 C88 1_555 1_555
C89 C85 1_555 1_555
H62 C89 1_555 1_555
H63 C89 1_555 1_555
C90 C89 1_555 1_555
H64 C90 1_555 1_555
H65 C90 1_555 1_555
H66 C90 1_555 1_555
O2 B2 1_555 1_555
O3 B1 1_555 1_555
N3 B2 1_555 1_555
N4 B3 1_555 1_555
N5 B3 1_555 1_555
C4 C53 1_555 1_555
N6 B1 1_555 1_555
N7 B3 1_555 1_555
C7 C38 1_555 1_555
C8 C14 1_555 1_555
N8 B1 1_555 1_555
N9 B2 1_555 1_555
C12 C52 1_555 1_555
C17 C53 1_555 1_555
C18 C44 1_555 1_555
C19 C59 1_555 1_555
C20 C55 1_555 1_555
C21 C43 1_555 1_555
C24 C26 1_555 1_555
C24 C31 1_555 1_555
C29 C55 1_555 1_555
C32 C43 1_555 1_555
C34 C56 1_555 1_555
C36 C42 1_555 1_555
C44 C49 1_555 1_555
C45 C58 1_555 1_555
C46 C62 1_555 1_555
C47 C51 1_555 1_555
C48 C69 1_555 1_555
C48 C75 1_555 1_555
C52 C58 1_555 1_555
C56 C72 1_555 1_555
C61 C77 1_555 1_555
C64 C65 1_555 1_555
C66 C74 1_555 1_555
C68 C73 1_555 1_555
C70 C81 1_555 1_555
C71 C76 1_555 1_555
C71 C79 1_555 1_555
C78 C80 1_555 1_555
C86 C88 1_555 1_555

#END
