
#######################################################################
#
#                 Cambridge Crystallographic Data Centre
#                                CCDC 
#
#######################################################################
#
# If this CIF has been generated from an entry in the Cambridge 
# Structural Database, then it will include bibliographic, chemical, 
# crystal, experimental, refinement or atomic coordinate data resulting 
# from the CCDC's data processing and validation procedures.
#
#######################################################################

data_QUHLOW
_chemical_formula_moiety         'C25 H40 O5'
_chemical_name_systematic        
'3-hydroxy-17-methoxy-4,4,8,10,14-pentamethyl-15-oxogonan-12-yl acetate'
_symmetry_cell_setting           orthorhombic
_symmetry_space_group_name_H-M   'P 21 21 21'
_symmetry_Int_Tables_number      19
_space_group_name_Hall           'P 2ac 2ab'
loop_
_symmetry_equiv_pos_site_id
_symmetry_equiv_pos_as_xyz
1 x,y,z
2 1/2+x,1/2-y,-z
3 -x,1/2+y,1/2-z
4 1/2-x,-y,1/2+z
_cell_length_a                   7.3472(5)
_cell_length_b                   11.4681(8)
_cell_length_c                   26.6223(19)
_cell_angle_alpha                90
_cell_angle_beta                 90
_cell_angle_gamma                90
_cell_volume                     2243.15
_exptl_crystal_colour            colorless
_exptl_crystal_description       needle
_cell_formula_units_Z            4
_chemical_properties_physical    
'Air-sensitive, Moisture-sensitive, Heat-sensitive, Light-sensitive'
loop_
_atom_site_label
_atom_site_type_symbol
_atom_site_fract_x
_atom_site_fract_y
_atom_site_fract_z
O1 O 0.3852(9) 0.5529(6) 0.7949(2)
O2 O -0.0092(10) 0.5375(5) 0.7426(2)
O3 O 0.4338(9) 0.7413(6) 0.8110(2)
O4 O 0.2244(10) 0.6618(5) 1.1285(2)
H1 H 0.1297 0.6653 1.1461
O5 O -0.2990(10) 0.3046(6) 0.8421(3)
C1 C 0.1331(14) 0.4282(8) 1.0975(3)
H2 H 0.1114 0.4391 1.1335
H3 H 0.2643 0.4225 1.0913
H4 H 0.0734 0.3564 1.0863
C2 C 0.2346(12) 0.5485(8) 0.8325(3)
H5 H 0.1618 0.6220 0.8309
C3 C 0.3558(14) 0.6383(9) 1.0483(3)
H6 H 0.4300 0.5725 1.0610
H7 H 0.4246 0.7113 1.0540
C4 C 0.0948(14) 0.2901(8) 0.9081(4)
H8 H 0.0232 0.2380 0.8867
H9 H 0.0935 0.2608 0.9427
H10 H 0.2205 0.2932 0.8959
C5 C -0.1332(15) 0.5602(9) 1.0912(4)
H11 H -0.2101 0.4905 1.0891
H12 H -0.1909 0.6243 1.0728
H13 H -0.1181 0.5825 1.1265
C6 C 0.4622(13) 0.6574(9) 0.7852(4)
C7 C 0.1184(12) 0.4475(7) 0.8186(3)
H14 H 0.1908 0.3764 0.8272
C8 C 0.0090(15) 0.4174(8) 0.9067(3)
C9 C -0.1523(13) 0.4181(9) 0.9422(3)
H15 H -0.2306 0.3499 0.9350
H16 H -0.2253 0.4894 0.9364
C10 C -0.0914(15) 0.4143(8) 0.9979(3)
H17 H -0.2003 0.4174 1.0198
H18 H -0.0279 0.3397 1.0045
C11 C 0.0543(12) 0.5339(8) 1.0680(4)
C12 C -0.0481(14) 0.4446(8) 0.8527(3)
C13 C -0.1711(14) 0.3537(8) 0.8259(4)
C14 C -0.1644(12) 0.5592(8) 0.8479(4)
H19 H -0.2844 0.5468 0.8631
H20 H -0.1791 0.5792 0.8123
H21 H -0.1022 0.6231 0.8653
C15 C 0.3050(14) 0.5301(8) 0.8856(3)
H22 H 0.3841 0.4602 0.8862
H23 H 0.3800 0.5980 0.8954
C16 C 0.0509(16) 0.4291(8) 0.7641(3)
H24 H 0.1493 0.3939 0.7430
C17 C 0.5754(14) 0.6532(9) 0.7387(3)
H25 H 0.5081 0.6887 0.7108
H26 H 0.6035 0.5719 0.7304
H27 H 0.6889 0.6963 0.7442
C18 C 0.1755(13) 0.6432(8) 1.0769(3)
H28 H 0.1068 0.7132 1.0650
C19 C 0.3215(14) 0.6223(8) 0.9919(3)
H29 H 0.4402 0.6188 0.9743
H30 H 0.2552 0.6913 0.9791
C20 C 0.1531(12) 0.5145(7) 0.9233(3)
H31 H 0.0830 0.5890 0.9207
C21 C 0.0341(13) 0.5147(7) 1.0110(3)
H32 H -0.0313 0.5857 0.9987
C22 C 0.2093(14) 0.5095(7) 0.9788(3)
C23 C -0.1043(15) 0.3439(8) 0.7706(3)
H33 H -0.0625 0.2635 0.7635
H34 H -0.2046 0.3630 0.7472
C24 C 0.3348(14) 0.4022(8) 0.9903(4)
H35 H 0.2662 0.3441 1.0095
H36 H 0.4403 0.4279 1.0100
H37 H 0.3764 0.3676 0.9587
C25 C -0.0280(19) 0.5248(9) 0.6888(3)
H38 H 0.0883 0.4997 0.6744
H39 H -0.0635 0.5998 0.6741
H40 H -0.1217 0.4664 0.6814
loop_
_geom_bond_atom_site_label_1
_geom_bond_atom_site_label_2
_geom_bond_site_symmetry_1
_geom_bond_site_symmetry_2
O1 C2 1_555 1_555
O2 C16 1_555 1_555
O3 C6 1_555 1_555
O4 H1 1_555 1_555
O5 C13 1_555 1_555
C1 H2 1_555 1_555
H3 C1 1_555 1_555
H4 C1 1_555 1_555
C2 H5 1_555 1_555
C3 H6 1_555 1_555
H7 C3 1_555 1_555
C4 H8 1_555 1_555
H9 C4 1_555 1_555
H10 C4 1_555 1_555
C5 H11 1_555 1_555
H12 C5 1_555 1_555
H13 C5 1_555 1_555
C6 O1 1_555 1_555
C7 C2 1_555 1_555
H14 C7 1_555 1_555
C8 C4 1_555 1_555
C9 C8 1_555 1_555
H15 C9 1_555 1_555
H16 C9 1_555 1_555
C10 C9 1_555 1_555
H17 C10 1_555 1_555
H18 C10 1_555 1_555
C11 C1 1_555 1_555
C12 C7 1_555 1_555
C13 C12 1_555 1_555
C14 C12 1_555 1_555
H19 C14 1_555 1_555
H20 C14 1_555 1_555
H21 C14 1_555 1_555
C15 C2 1_555 1_555
H22 C15 1_555 1_555
H23 C15 1_555 1_555
C16 C7 1_555 1_555
H24 C16 1_555 1_555
C17 C6 1_555 1_555
H25 C17 1_555 1_555
H26 C17 1_555 1_555
H27 C17 1_555 1_555
C18 O4 1_555 1_555
H28 C18 1_555 1_555
C19 C3 1_555 1_555
H29 C19 1_555 1_555
H30 C19 1_555 1_555
C20 C8 1_555 1_555
H31 C20 1_555 1_555
C21 C10 1_555 1_555
H32 C21 1_555 1_555
C22 C19 1_555 1_555
C23 C13 1_555 1_555
H33 C23 1_555 1_555
H34 C23 1_555 1_555
C24 C22 1_555 1_555
H35 C24 1_555 1_555
H36 C24 1_555 1_555
H37 C24 1_555 1_555
C25 O2 1_555 1_555
H38 C25 1_555 1_555
H39 C25 1_555 1_555
H40 C25 1_555 1_555
C3 C18 1_555 1_555
C5 C11 1_555 1_555
C8 C12 1_555 1_555
C11 C18 1_555 1_555
C11 C21 1_555 1_555
C15 C20 1_555 1_555
C16 C23 1_555 1_555
C20 C22 1_555 1_555
C21 C22 1_555 1_555

#END
