
#######################################################################
#
#                 Cambridge Crystallographic Data Centre
#                                CCDC 
#
#######################################################################
#
# If this CIF has been generated from an entry in the Cambridge 
# Structural Database, then it will include bibliographic, chemical, 
# crystal, experimental, refinement or atomic coordinate data resulting 
# from the CCDC's data processing and validation procedures.
#
#######################################################################

data_QUHLAH
_chemical_formula_moiety         
'C52 H48 P4 S4 Te1 2+,C26 H24 Cl10 P2 S2 Te2 2-,6(C1 H2 Cl2)'
_chemical_name_systematic        
'bis(1,2-bis(Diphenylthiophosphinoyl)ethane)-tellurium(ii) (\m~2~-1,2-bis(diphenylthiophosphinoyl)ethane)-decachloro-di-tellurium(iv) dichloromethane solvate'
_symmetry_cell_setting           triclinic
_symmetry_space_group_name_H-M   'P -1'
_symmetry_Int_Tables_number      2
_space_group_name_Hall           '-P 1'
loop_
_symmetry_equiv_pos_site_id
_symmetry_equiv_pos_as_xyz
1 x,y,z
2 -x,-y,-z
_cell_length_a                   12.246(1)
_cell_length_b                   13.405(1)
_cell_length_c                   18.091(2)
_cell_angle_alpha                101.587(1)
_cell_angle_beta                 93.089(1)
_cell_angle_gamma                113.189(1)
_cell_volume                     2644.9
_exptl_crystal_colour            orange
_cell_formula_units_Z            1
loop_
_atom_site_label
_atom_site_type_symbol
_atom_site_fract_x
_atom_site_fract_y
_atom_site_fract_z
Te1 Te 0.0000 0.0000 0.0000
S1 S -0.0582(3) -0.0518(2) 0.13168(17)
S2 S 0.2293(3) 0.1132(2) 0.07094(18)
P1 P -0.0617(3) 0.0893(2) 0.19476(17)
P2 P 0.2317(3) 0.2674(2) 0.09925(18)
C1 C -0.0769(10) 0.0737(10) 0.2907(6)
C2 C -0.0507(11) -0.0078(11) 0.3160(7)
H1 H -0.0238 -0.0543 0.2822
C3 C -0.0632(12) -0.0217(11) 0.3887(8)
H2 H -0.0437 -0.0764 0.4053
C4 C -0.1049(12) 0.0455(11) 0.4382(7)
H3 H -0.1149 0.0358 0.4883
C5 C -0.1318(12) 0.1270(11) 0.4139(7)
H4 H -0.1612 0.1718 0.4472
C6 C -0.1155(11) 0.1423(10) 0.3409(7)
H5 H -0.1307 0.1997 0.3251
C7 C -0.1855(10) 0.1170(10) 0.1595(7)
C8 C -0.1798(11) 0.2247(11) 0.1778(8)
H6 H -0.1095 0.2847 0.2070
C9 C -0.2775(12) 0.2445(12) 0.1531(8)
H7 H -0.2733 0.3184 0.1642
C10 C -0.3794(13) 0.1572(13) 0.1127(9)
H8 H -0.4468 0.1707 0.0976
C11 C -0.3861(12) 0.0479(12) 0.0934(8)
H9 H -0.4568 -0.0121 0.0646
C12 C -0.2870(12) 0.0288(11) 0.1173(7)
H10 H -0.2895 -0.0445 0.1045
C13 C 0.0746(10) 0.2144(10) 0.2054(6)
H11 H 0.0740 0.2719 0.2491
H12 H 0.1437 0.1971 0.2183
C14 C 0.0950(11) 0.2654(10) 0.1339(7)
H13 H 0.1001 0.3426 0.1478
H14 H 0.0258 0.2205 0.0930
C15 C 0.2590(11) 0.3342(10) 0.0210(7)
C16 C 0.3613(12) 0.3431(12) -0.0110(8)
H15 H 0.4113 0.3110 0.0066
C17 C 0.3913(13) 0.3988(12) -0.0690(9)
H16 H 0.4617 0.4048 -0.0909
C18 C 0.3197(14) 0.4449(12) -0.0944(8)
H17 H 0.3402 0.4825 -0.1342
C19 C 0.2161(13) 0.4371(11) -0.0621(8)
H18 H 0.1673 0.4705 -0.0795
C20 C 0.1843(13) 0.3802(10) -0.0040(7)
H19 H 0.1135 0.3732 0.0177
C21 C 0.3498(11) 0.3577(10) 0.1754(7)
C22 C 0.4328(11) 0.3229(11) 0.2057(8)
H20 H 0.4259 0.2489 0.1869
C23 C 0.5252(12) 0.3975(12) 0.2634(8)
H21 H 0.5801 0.3728 0.2843
C24 C 0.5393(13) 0.5037(13) 0.2907(9)
H22 H 0.6051 0.5545 0.3286
C25 C 0.4529(12) 0.5377(11) 0.2613(8)
H23 H 0.4580 0.6106 0.2820
C26 C 0.3625(13) 0.4663(11) 0.2034(8)
H24 H 0.3082 0.4914 0.1823
S1A S 0.0582(3) 0.0518(2) -0.13168(17)
S2A S -0.2293(3) -0.1132(2) -0.07094(18)
P1A P 0.0617(3) -0.0893(2) -0.19476(17)
P2A P -0.2317(3) -0.2674(2) -0.09925(18)
C1A C 0.0769(10) -0.0737(10) -0.2907(6)
C2A C 0.0507(11) 0.0078(11) -0.3160(7)
H1A H 0.0238 0.0543 -0.2822
C3A C 0.0632(12) 0.0217(11) -0.3887(8)
H2A H 0.0437 0.0764 -0.4053
C4A C 0.1049(12) -0.0455(11) -0.4382(7)
H3A H 0.1149 -0.0358 -0.4883
C5A C 0.1318(12) -0.1270(11) -0.4139(7)
H4A H 0.1612 -0.1718 -0.4472
C6A C 0.1155(11) -0.1423(10) -0.3409(7)
H5A H 0.1307 -0.1997 -0.3251
C7A C 0.1855(10) -0.1170(10) -0.1595(7)
C8A C 0.1798(11) -0.2247(11) -0.1778(8)
H6A H 0.1095 -0.2847 -0.2070
C9A C 0.2775(12) -0.2445(12) -0.1531(8)
H7A H 0.2733 -0.3184 -0.1642
C10A C 0.3794(13) -0.1572(13) -0.1127(9)
H8A H 0.4468 -0.1707 -0.0976
C11A C 0.3861(12) -0.0479(12) -0.0934(8)
H9A H 0.4568 0.0121 -0.0646
C12A C 0.2870(12) -0.0288(11) -0.1173(7)
H10A H 0.2895 0.0445 -0.1045
C13A C -0.0746(10) -0.2144(10) -0.2054(6)
H11A H -0.0740 -0.2719 -0.2491
H12A H -0.1437 -0.1971 -0.2183
C14A C -0.0950(11) -0.2654(10) -0.1339(7)
H13A H -0.1001 -0.3426 -0.1478
H14A H -0.0258 -0.2205 -0.0930
C15A C -0.2590(11) -0.3342(10) -0.0210(7)
C16A C -0.3613(12) -0.3431(12) 0.0110(8)
H15A H -0.4113 -0.3110 -0.0066
C17A C -0.3913(13) -0.3988(12) 0.0690(9)
H16A H -0.4617 -0.4048 0.0909
C18A C -0.3197(14) -0.4449(12) 0.0944(8)
H17A H -0.3402 -0.4825 0.1342
C19A C -0.2161(13) -0.4371(11) 0.0621(8)
H18A H -0.1673 -0.4705 0.0795
C20A C -0.1843(13) -0.3802(10) 0.0040(7)
H19A H -0.1135 -0.3732 -0.0177
C21A C -0.3498(11) -0.3577(10) -0.1754(7)
C22A C -0.4328(11) -0.3229(11) -0.2057(8)
H20A H -0.4259 -0.2489 -0.1869
C23A C -0.5252(12) -0.3975(12) -0.2634(8)
H21A H -0.5801 -0.3728 -0.2843
C24A C -0.5393(13) -0.5037(13) -0.2907(9)
H22A H -0.6051 -0.5545 -0.3286
C25A C -0.4529(12) -0.5377(11) -0.2613(8)
H23A H -0.4580 -0.6106 -0.2820
C26A C -0.3625(13) -0.4663(11) -0.2034(8)
H24A H -0.3082 -0.4914 -0.1823
Te2 Te 0.05722(7) 0.63386(6) 0.27044(4)
Cl1 Cl 0.2731(3) 0.7294(3) 0.25300(19)
Cl2 Cl 0.0222(3) 0.4933(3) 0.14324(18)
Cl3 Cl 0.0078(3) 0.7449(2) 0.20177(18)
Cl4 Cl 0.0900(3) 0.7779(3) 0.38835(19)
Cl5 Cl -0.1598(3) 0.5375(3) 0.2846(2)
S3 S 0.1214(3) 0.4754(3) 0.34375(18)
P3 P 0.1623(3) 0.4956(3) 0.45478(18)
C27 C 0.0320(10) 0.4613(10) 0.5047(8)
H25 H -0.0243 0.3821 0.4835
H26 H 0.0578 0.4713 0.5595
C28 C 0.2354(11) 0.4069(10) 0.4719(7)
C29 C 0.1984(11) 0.3355(11) 0.5203(7)
H27 H 0.1289 0.3287 0.5435
C30 C 0.2625(13) 0.2732(11) 0.5353(9)
H28 H 0.2393 0.2269 0.5702
C31 C 0.3599(13) 0.2809(12) 0.4982(9)
H29 H 0.4015 0.2360 0.5053
C32 C 0.3973(14) 0.3522(13) 0.4515(10)
H30 H 0.4674 0.3594 0.4288
C33 C 0.3353(13) 0.4140(12) 0.4364(8)
H31 H 0.3606 0.4611 0.4022
C34 C 0.2645(10) 0.6366(10) 0.5036(7)
C35 C 0.2864(11) 0.6630(11) 0.5849(7)
H32 H 0.2462 0.6082 0.6118
C36 C 0.3665(11) 0.7692(11) 0.6244(8)
H33 H 0.3869 0.7862 0.6782
C37 C 0.4166(12) 0.8500(11) 0.5845(8)
H34 H 0.4656 0.9246 0.6120
C38 C 0.3972(12) 0.8254(11) 0.5055(9)
H35 H 0.4366 0.8805 0.4787
C39 C 0.3194(11) 0.7189(11) 0.4673(8)
H36 H 0.3031 0.7019 0.4132
Te2A Te -0.05722(7) 0.36614(6) 0.72956(4)
Cl1A Cl -0.2731(3) 0.2706(3) 0.74700(19)
Cl2A Cl -0.0222(3) 0.5067(3) 0.85676(18)
Cl3A Cl -0.0078(3) 0.2551(2) 0.79823(18)
Cl4A Cl -0.0900(3) 0.2221(3) 0.61165(19)
Cl5A Cl 0.1598(3) 0.4625(3) 0.7154(2)
S3A S -0.1214(3) 0.5246(3) 0.65625(18)
P3A P -0.1623(3) 0.5044(3) 0.54522(18)
C27A C -0.0320(10) 0.5387(10) 0.4953(8)
H25A H 0.0243 0.6179 0.5165
H26A H -0.0578 0.5287 0.4405
C28A C -0.2354(11) 0.5931(10) 0.5281(7)
C29A C -0.1984(11) 0.6645(11) 0.4797(7)
H27A H -0.1289 0.6713 0.4565
C30A C -0.2625(13) 0.7268(11) 0.4647(9)
H28A H -0.2393 0.7731 0.4298
C31A C -0.3599(13) 0.7191(12) 0.5018(9)
H29A H -0.4015 0.7640 0.4947
C32A C -0.3973(14) 0.6478(13) 0.5485(10)
H30A H -0.4674 0.6406 0.5712
C33A C -0.3353(13) 0.5860(12) 0.5636(8)
H31A H -0.3606 0.5389 0.5978
C34A C -0.2645(10) 0.3634(10) 0.4964(7)
C35A C -0.2864(11) 0.3370(11) 0.4151(7)
H32A H -0.2462 0.3918 0.3882
C36A C -0.3665(11) 0.2308(11) 0.3756(8)
H33A H -0.3869 0.2138 0.3218
C37A C -0.4166(12) 0.1500(11) 0.4155(8)
H34A H -0.4656 0.0754 0.3880
C38A C -0.3972(12) 0.1746(11) 0.4945(9)
H35A H -0.4366 0.1195 0.5213
C39A C -0.3194(11) 0.2811(11) 0.5327(8)
H36A H -0.3031 0.2981 0.5868
Cl6 Cl 0.8223(4) 0.1830(3) -0.0373(2)
Cl7 Cl 0.6287(4) 0.2577(3) -0.0601(2)
C40 C 0.7883(13) 0.2963(12) -0.0449(10)
H37 H 0.8240 0.3261 -0.0879
H38 H 0.8249 0.3564 0.0024
Cl8 Cl 0.2715(4) 0.1067(3) 0.3157(2)
Cl9 Cl 0.4057(3) 0.0242(3) 0.2106(2)
C41 C 0.2653(12) -0.0061(11) 0.2459(10)
H39 H 0.2012 -0.0241 0.2033
H40 H 0.2450 -0.0723 0.2676
Cl10 Cl 0.5791(4) 0.8617(3) 0.3638(2)
Cl11 Cl 0.6530(4) 0.8055(3) 0.2166(3)
C42 C 0.5924(12) 0.8880(12) 0.2727(9)
H41 H 0.5121 0.8725 0.2467
H42 H 0.6445 0.9680 0.2779
loop_
_geom_bond_atom_site_label_1
_geom_bond_atom_site_label_2
_geom_bond_site_symmetry_1
_geom_bond_site_symmetry_2
Te1 S1 1_555 1_555
S1 P1 1_555 1_555
S2 Te1 1_555 1_555
P1 C1 1_555 1_555
P2 S2 1_555 1_555
C1 C2 1_555 1_555
C2 H1 1_555 1_555
C3 C2 1_555 1_555
H2 C3 1_555 1_555
C4 C3 1_555 1_555
H3 C4 1_555 1_555
C5 C4 1_555 1_555
H4 C5 1_555 1_555
C6 C1 1_555 1_555
H5 C6 1_555 1_555
C7 P1 1_555 1_555
C8 C7 1_555 1_555
H6 C8 1_555 1_555
C9 C8 1_555 1_555
H7 C9 1_555 1_555
C10 C9 1_555 1_555
H8 C10 1_555 1_555
C11 C10 1_555 1_555
H9 C11 1_555 1_555
C12 C7 1_555 1_555
H10 C12 1_555 1_555
C13 P1 1_555 1_555
H11 C13 1_555 1_555
H12 C13 1_555 1_555
C14 P2 1_555 1_555
H13 C14 1_555 1_555
H14 C14 1_555 1_555
C15 P2 1_555 1_555
C16 C15 1_555 1_555
H15 C16 1_555 1_555
C17 C16 1_555 1_555
H16 C17 1_555 1_555
C18 C17 1_555 1_555
H17 C18 1_555 1_555
C19 C18 1_555 1_555
H18 C19 1_555 1_555
C20 C15 1_555 1_555
H19 C20 1_555 1_555
C21 P2 1_555 1_555
C22 C21 1_555 1_555
H20 C22 1_555 1_555
C23 C22 1_555 1_555
H21 C23 1_555 1_555
C24 C23 1_555 1_555
H22 C24 1_555 1_555
C25 C24 1_555 1_555
H23 C25 1_555 1_555
C26 C21 1_555 1_555
H24 C26 1_555 1_555
Te2 Cl1 1_555 1_555
Cl2 Te2 1_555 1_555
Cl3 Te2 1_555 1_555
Cl4 Te2 1_555 1_555
Cl5 Te2 1_555 1_555
S3 Te2 1_555 1_555
P3 S3 1_555 1_555
C27 P3 1_555 1_555
H25 C27 1_555 1_555
H26 C27 1_555 1_555
C28 P3 1_555 1_555
C29 C28 1_555 1_555
H27 C29 1_555 1_555
C30 C29 1_555 1_555
H28 C30 1_555 1_555
C31 C30 1_555 1_555
H29 C31 1_555 1_555
C32 C31 1_555 1_555
H30 C32 1_555 1_555
C33 C28 1_555 1_555
H31 C33 1_555 1_555
C34 P3 1_555 1_555
C35 C34 1_555 1_555
H32 C35 1_555 1_555
C36 C35 1_555 1_555
H33 C36 1_555 1_555
C37 C36 1_555 1_555
H34 C37 1_555 1_555
C38 C37 1_555 1_555
H35 C38 1_555 1_555
C39 C34 1_555 1_555
H36 C39 1_555 1_555
Cl6 C40 1_555 1_555
Cl7 C40 1_555 1_555
Cl8 C41 1_555 1_555
Cl9 C41 1_555 1_555
Cl10 C42 1_555 1_555
Cl11 C42 1_555 1_555
C40 H37 1_555 1_555
H38 C40 1_555 1_555
C41 H39 1_555 1_555
H40 C41 1_555 1_555
C42 H41 1_555 1_555
H42 C42 1_555 1_555
S1A Te1 1_555 1_555
S2A Te1 1_555 1_555
P1A S1A 1_555 1_555
P2A S2A 1_555 1_555
C1A P1A 1_555 1_555
C2A C1A 1_555 1_555
H1A C2A 1_555 1_555
C3A C2A 1_555 1_555
H2A C3A 1_555 1_555
C4A C3A 1_555 1_555
H3A C4A 1_555 1_555
C5A C4A 1_555 1_555
H4A C5A 1_555 1_555
C6A C1A 1_555 1_555
H5A C6A 1_555 1_555
C7A P1A 1_555 1_555
C8A C7A 1_555 1_555
H6A C8A 1_555 1_555
C9A C8A 1_555 1_555
H7A C9A 1_555 1_555
C10A C9A 1_555 1_555
H8A C10A 1_555 1_555
C11A C10A 1_555 1_555
H9A C11A 1_555 1_555
C12A C7A 1_555 1_555
H10A C12A 1_555 1_555
C13A P1A 1_555 1_555
H11A C13A 1_555 1_555
H12A C13A 1_555 1_555
C14A P2A 1_555 1_555
H13A C14A 1_555 1_555
H14A C14A 1_555 1_555
C15A P2A 1_555 1_555
C16A C15A 1_555 1_555
H15A C16A 1_555 1_555
C17A C16A 1_555 1_555
H16A C17A 1_555 1_555
C18A C17A 1_555 1_555
H17A C18A 1_555 1_555
C19A C18A 1_555 1_555
H18A C19A 1_555 1_555
C20A C15A 1_555 1_555
H19A C20A 1_555 1_555
C21A P2A 1_555 1_555
C22A C21A 1_555 1_555
H20A C22A 1_555 1_555
C23A C22A 1_555 1_555
H21A C23A 1_555 1_555
C24A C23A 1_555 1_555
H22A C24A 1_555 1_555
C25A C24A 1_555 1_555
H23A C25A 1_555 1_555
C26A C21A 1_555 1_555
H24A C26A 1_555 1_555
Te2A Cl1A 1_555 1_555
Cl2A Te2A 1_555 1_555
Cl3A Te2A 1_555 1_555
Cl4A Te2A 1_555 1_555
Cl5A Te2A 1_555 1_555
S3A Te2A 1_555 1_555
P3A S3A 1_555 1_555
C27A C27 1_555 1_555
H25A C27A 1_555 1_555
H26A C27A 1_555 1_555
C28A P3A 1_555 1_555
C29A C28A 1_555 1_555
H27A C29A 1_555 1_555
C30A C29A 1_555 1_555
H28A C30A 1_555 1_555
C31A C30A 1_555 1_555
H29A C31A 1_555 1_555
C32A C31A 1_555 1_555
H30A C32A 1_555 1_555
C33A C28A 1_555 1_555
H31A C33A 1_555 1_555
C34A P3A 1_555 1_555
C35A C34A 1_555 1_555
H32A C35A 1_555 1_555
C36A C35A 1_555 1_555
H33A C36A 1_555 1_555
C37A C36A 1_555 1_555
H34A C37A 1_555 1_555
C38A C37A 1_555 1_555
H35A C38A 1_555 1_555
C39A C34A 1_555 1_555
H36A C39A 1_555 1_555
C5 C6 1_555 1_555
C11 C12 1_555 1_555
C13 C14 1_555 1_555
C19 C20 1_555 1_555
C25 C26 1_555 1_555
C32 C33 1_555 1_555
C38 C39 1_555 1_555
C5A C6A 1_555 1_555
C11A C12A 1_555 1_555
C13A C14A 1_555 1_555
C19A C20A 1_555 1_555
C25A C26A 1_555 1_555
P3A C27A 1_555 1_555
C32A C33A 1_555 1_555
C38A C39A 1_555 1_555

#END
