
#######################################################################
#
#                 Cambridge Crystallographic Data Centre
#                                CCDC 
#
#######################################################################
#
# If this CIF has been generated from an entry in the Cambridge 
# Structural Database, then it will include bibliographic, chemical, 
# crystal, experimental, refinement or atomic coordinate data resulting 
# from the CCDC's data processing and validation procedures.
#
#######################################################################

data_QUHLEL
_chemical_formula_moiety         'C25 H22 Br2 P2 Se2 Te1'
_chemical_name_systematic        
Dibromo-(bis(diphenylselenophosphinoyl)methane)-tellurium(ii)
_symmetry_cell_setting           monoclinic
_symmetry_space_group_name_H-M   'P 21/n'
_symmetry_Int_Tables_number      14
_space_group_name_Hall           '-P 2yn'
loop_
_symmetry_equiv_pos_site_id
_symmetry_equiv_pos_as_xyz
1 x,y,z
2 1/2-x,1/2+y,1/2-z
3 -x,-y,-z
4 1/2+x,1/2-y,1/2+z
_cell_length_a                   12.731(1)
_cell_length_b                   9.501(1)
_cell_length_c                   22.317(1)
_cell_angle_alpha                90
_cell_angle_beta                 97.755(2)
_cell_angle_gamma                90
_cell_volume                     2674.71
_exptl_crystal_colour            orange
_cell_formula_units_Z            4
loop_
_atom_site_label
_atom_site_type_symbol
_atom_site_fract_x
_atom_site_fract_y
_atom_site_fract_z
Te1 Te 1.27967(4) 0.06604(6) -0.36531(2)
Br1 Br 1.35636(8) 0.15638(11) -0.46480(4)
Br2 Br 1.46979(7) 0.09799(10) -0.29118(4)
Se1 Se 1.19769(7) -0.06780(10) -0.26750(4)
Se2 Se 1.07500(7) 0.04006(10) -0.42536(4)
P1 P 1.06131(17) 0.0578(2) -0.25745(9)
P2 P 1.02631(17) 0.2238(2) -0.37948(10)
C1 C 0.9369(7) -0.0274(10) -0.2843(4)
C2 C 0.8445(7) 0.0345(12) -0.2717(4)
H1 H 0.8463 0.1174 -0.2478
C3 C 0.7470(7) -0.0279(15) -0.2951(5)
H2 H 0.6824 0.0127 -0.2867
C4 C 0.7453(9) -0.1459(14) -0.3298(6)
H3 H 0.6794 -0.1869 -0.3459
C5 C 0.8386(9) -0.2060(13) -0.3416(5)
H4 H 0.8371 -0.2893 -0.3652
C6 C 0.9336(8) -0.1461(10) -0.3193(4)
H5 H 0.9977 -0.1872 -0.3282
C7 C 1.0579(7) 0.0999(10) -0.1791(4)
C8 C 1.0404(7) 0.2354(10) -0.1595(4)
H6 H 1.0318 0.3108 -0.1878
C9 C 1.0353(7) 0.2611(11) -0.0986(4)
H7 H 1.0244 0.3542 -0.0853
C10 C 1.0459(7) 0.1541(10) -0.0582(4)
H8 H 1.0407 0.1720 -0.0169
C11 C 1.0642(8) 0.0186(11) -0.0770(4)
H9 H 1.0730 -0.0558 -0.0483
C12 C 1.0698(7) -0.0090(10) -0.1375(4)
H10 H 1.0817 -0.1023 -0.1503
C13 C 1.0662(7) 0.2239(9) -0.2976(4)
H11 H 1.1398 0.2598 -0.2897
H12 H 1.0206 0.2920 -0.2796
C14 C 0.8832(7) 0.2385(9) -0.3888(4)
C15 C 0.8367(7) 0.3483(10) -0.3610(4)
H13 H 0.8797 0.4168 -0.3384
C16 C 0.7272(7) 0.3575(11) -0.3663(4)
H14 H 0.6954 0.4327 -0.3472
C17 C 0.6633(7) 0.2579(11) -0.3992(4)
H15 H 0.5884 0.2627 -0.4016
C18 C 0.7102(7) 0.1530(12) -0.4281(4)
H16 H 0.6666 0.0868 -0.4517
C19 C 0.8193(7) 0.1401(10) -0.4240(4)
H17 H 0.8503 0.0665 -0.4445
C20 C 1.0817(7) 0.3834(9) -0.4052(4)
C21 C 1.1133(7) 0.3850(11) -0.4630(4)
H18 H 1.1055 0.3035 -0.4879
C22 C 1.1570(8) 0.5092(12) -0.4834(4)
H19 H 1.1780 0.5121 -0.5227
C23 C 1.1696(8) 0.6269(10) -0.4469(5)
H20 H 1.1983 0.7104 -0.4615
C24 C 1.1410(7) 0.6249(11) -0.3894(4)
H21 H 1.1510 0.7055 -0.3641
C25 C 1.0969(7) 0.5020(10) -0.3692(4)
H22 H 1.0768 0.4998 -0.3297
loop_
_geom_bond_atom_site_label_1
_geom_bond_atom_site_label_2
_geom_bond_site_symmetry_1
_geom_bond_site_symmetry_2
Te1 Br1 1_555 1_555
Br2 Te1 1_555 1_555
Se1 Te1 1_555 1_555
Se2 Te1 1_555 1_555
P1 Se1 1_555 1_555
P2 Se2 1_555 1_555
C1 P1 1_555 1_555
C2 C1 1_555 1_555
H1 C2 1_555 1_555
C3 C2 1_555 1_555
H2 C3 1_555 1_555
C4 C3 1_555 1_555
H3 C4 1_555 1_555
C5 C4 1_555 1_555
H4 C5 1_555 1_555
C6 C1 1_555 1_555
H5 C6 1_555 1_555
C7 P1 1_555 1_555
C8 C7 1_555 1_555
H6 C8 1_555 1_555
C9 C8 1_555 1_555
H7 C9 1_555 1_555
C10 C9 1_555 1_555
H8 C10 1_555 1_555
C11 C10 1_555 1_555
H9 C11 1_555 1_555
C12 C7 1_555 1_555
H10 C12 1_555 1_555
C13 P1 1_555 1_555
H11 C13 1_555 1_555
H12 C13 1_555 1_555
C14 P2 1_555 1_555
C15 C14 1_555 1_555
H13 C15 1_555 1_555
C16 C15 1_555 1_555
H14 C16 1_555 1_555
C17 C16 1_555 1_555
H15 C17 1_555 1_555
C18 C17 1_555 1_555
H16 C18 1_555 1_555
C19 C14 1_555 1_555
H17 C19 1_555 1_555
C20 P2 1_555 1_555
C21 C20 1_555 1_555
H18 C21 1_555 1_555
C22 C21 1_555 1_555
H19 C22 1_555 1_555
C23 C22 1_555 1_555
H20 C23 1_555 1_555
C24 C23 1_555 1_555
H21 C24 1_555 1_555
C25 C20 1_555 1_555
H22 C25 1_555 1_555
P2 C13 1_555 1_555
C5 C6 1_555 1_555
C11 C12 1_555 1_555
C18 C19 1_555 1_555
C24 C25 1_555 1_555

#END
