
#######################################################################
#
#                 Cambridge Crystallographic Data Centre
#                                CCDC 
#
#######################################################################
#
# If this CIF has been generated from an entry in the Cambridge 
# Structural Database, then it will include bibliographic, chemical, 
# crystal, experimental, refinement or atomic coordinate data resulting 
# from the CCDC's data processing and validation procedures.
#
#######################################################################

data_QUHNOY
_chemical_formula_moiety         'C26 H29 N2 P1'
_chemical_name_systematic        
N-cyclopentyl-1,1-bis(4-methylphenyl)-N'-phenylphosphinecarboximidamide
_symmetry_cell_setting           monoclinic
_symmetry_space_group_name_H-M   'P 21'
_symmetry_Int_Tables_number      4
_space_group_name_Hall           'P 2yb'
loop_
_symmetry_equiv_pos_site_id
_symmetry_equiv_pos_as_xyz
1 x,y,z
2 -x,1/2+y,-z
_cell_length_a                   6.1617(8)
_cell_length_b                   10.5098(13)
_cell_length_c                   17.3476(17)
_cell_angle_alpha                90
_cell_angle_beta                 98.607(10)
_cell_angle_gamma                90
_cell_volume                     1110.75
_exptl_crystal_colour            colorless
_exptl_crystal_description       block
_cell_formula_units_Z            2
_chemical_properties_physical    Air-sensitive
loop_
_atom_site_label
_atom_site_type_symbol
_atom_site_fract_x
_atom_site_fract_y
_atom_site_fract_z
P1 P 0.13949(17) 0.57117(11) 0.22617(5)
N1 N 0.2826(6) 0.5116(3) 0.38141(17)
N2 N 0.4382(6) 0.3917(4) 0.29407(19)
H1 H 0.4721 0.3885 0.2466
C1 C 0.1804(7) 0.4618(4) 0.1469(2)
C2 C 0.0212(7) 0.3689(5) 0.1261(2)
H2 H -0.1076 0.3685 0.1501
C3 C 0.0477(8) 0.2773(5) 0.0711(3)
H3 H -0.0631 0.2149 0.0579
C4 C 0.2331(7) 0.2753(4) 0.0351(2)
C5 C 0.3883(7) 0.3691(5) 0.0538(2)
H4 H 0.5143 0.3708 0.0282
C6 C 0.3641(7) 0.4609(5) 0.1092(2)
H5 H 0.4742 0.5240 0.1215
C7 C 0.2673(9) 0.1734(5) -0.0231(2)
H6 H 0.2818 0.2130 -0.0733
H7 H 0.1412 0.1155 -0.0299
H8 H 0.4011 0.1256 -0.0041
C8 C 0.3243(7) 0.7017(4) 0.2108(2)
C9 C 0.2368(8) 0.7986(5) 0.1608(2)
H9 H 0.0870 0.7952 0.1378
C10 C 0.3653(8) 0.8993(5) 0.1444(3)
H10 H 0.3018 0.9645 0.1104
C11 C 0.5865(8) 0.9081(4) 0.1765(2)
C12 C 0.6696(8) 0.8137(4) 0.2275(2)
H11 H 0.8179 0.8189 0.2520
C13 C 0.5428(7) 0.7114(4) 0.2440(2)
H12 H 0.6064 0.6469 0.2786
C14 C 0.7279(10) 1.0154(5) 0.1550(3)
H13 H 0.7802 0.9955 0.1058
H14 H 0.8538 1.0265 0.1962
H15 H 0.6417 1.0941 0.1491
C15 C 0.3012(6) 0.4863(4) 0.3111(2)
C16 C 0.1421(7) 0.6102(4) 0.4001(2)
C17 C 0.2135(7) 0.7364(4) 0.4071(2)
H16 H 0.3521 0.7591 0.3935
C18 C 0.0824(7) 0.8281(5) 0.4336(2)
H17 H 0.1304 0.9141 0.4370
C19 C -0.1160(7) 0.7969(5) 0.4551(2)
H18 H -0.2022 0.8600 0.4755
C20 C -0.1895(7) 0.6730(5) 0.4468(2)
H19 H -0.3298 0.6512 0.4592
C21 C -0.0597(6) 0.5808(5) 0.42049(19)
H20 H -0.1102 0.4953 0.4163
C22 C 0.5314(7) 0.2959(4) 0.3499(2)
H21 H 0.5623 0.3345 0.4031
C23 C 0.3835(8) 0.1794(5) 0.3521(3)
H22 H 0.2744 0.1942 0.3876
H23 H 0.3045 0.1603 0.2993
C24 C 0.5351(8) 0.0709(6) 0.3814(3)
H24 H 0.4932 -0.0075 0.3511
H25 H 0.5280 0.0538 0.4371
C25 C 0.7662(8) 0.1132(4) 0.3705(3)
H26 H 0.8601 0.1227 0.4218
H27 H 0.8342 0.0497 0.3394
C26 C 0.7410(7) 0.2404(5) 0.3281(3)
H28 H 0.8678 0.2966 0.3456
H29 H 0.7284 0.2282 0.2710
loop_
_geom_bond_atom_site_label_1
_geom_bond_atom_site_label_2
_geom_bond_site_symmetry_1
_geom_bond_site_symmetry_2
P1 C1 1_555 1_555
N1 C15 1_555 1_555
N2 H1 1_555 1_555
C1 C2 1_555 1_555
C2 H2 1_555 1_555
C3 C2 1_555 1_555
H3 C3 1_555 1_555
C4 C3 1_555 1_555
C5 C4 1_555 1_555
H4 C5 1_555 1_555
C6 C1 1_555 1_555
H5 C6 1_555 1_555
C7 C4 1_555 1_555
H6 C7 1_555 1_555
H7 C7 1_555 1_555
H8 C7 1_555 1_555
C8 P1 1_555 1_555
C9 C8 1_555 1_555
H9 C9 1_555 1_555
C10 C9 1_555 1_555
H10 C10 1_555 1_555
C11 C10 1_555 1_555
C12 C11 1_555 1_555
H11 C12 1_555 1_555
C13 C8 1_555 1_555
H12 C13 1_555 1_555
C14 C11 1_555 1_555
H13 C14 1_555 1_555
H14 C14 1_555 1_555
H15 C14 1_555 1_555
C15 P1 1_555 1_555
C16 N1 1_555 1_555
C17 C16 1_555 1_555
H16 C17 1_555 1_555
C18 C17 1_555 1_555
H17 C18 1_555 1_555
C19 C18 1_555 1_555
H18 C19 1_555 1_555
C20 C19 1_555 1_555
H19 C20 1_555 1_555
C21 C16 1_555 1_555
H20 C21 1_555 1_555
C22 N2 1_555 1_555
H21 C22 1_555 1_555
C23 C22 1_555 1_555
H22 C23 1_555 1_555
H23 C23 1_555 1_555
C24 C23 1_555 1_555
H24 C24 1_555 1_555
H25 C24 1_555 1_555
C25 C24 1_555 1_555
H26 C25 1_555 1_555
H27 C25 1_555 1_555
C26 C22 1_555 1_555
H28 C26 1_555 1_555
H29 C26 1_555 1_555
N2 C15 1_555 1_555
C5 C6 1_555 1_555
C12 C13 1_555 1_555
C20 C21 1_555 1_555
C25 C26 1_555 1_555

#END
