
#######################################################################
#
#                 Cambridge Crystallographic Data Centre
#                                CCDC 
#
#######################################################################
#
# If this CIF has been generated from an entry in the Cambridge 
# Structural Database, then it will include bibliographic, chemical, 
# crystal, experimental, refinement or atomic coordinate data resulting 
# from the CCDC's data processing and validation procedures.
#
#######################################################################

data_QUHQAN
_chemical_formula_moiety         'C25 H30 B1 N1 O2'
_chemical_name_systematic        
2,8-dimethyl-9,13-diphenyl-2,3,5a,8,9,9a-hexahydro-5H-10,4-(epoxyethano)[1,2,3]oxaborazolo[2,3-a]isoindol-4-ium
_symmetry_cell_setting           monoclinic
_symmetry_space_group_name_H-M   'P 21'
_symmetry_Int_Tables_number      4
_space_group_name_Hall           'P 2yb'
loop_
_symmetry_equiv_pos_site_id
_symmetry_equiv_pos_as_xyz
1 x,y,z
2 -x,1/2+y,-z
_cell_length_a                   9.835(4)
_cell_length_b                   10.412(4)
_cell_length_c                   10.568(4)
_cell_angle_alpha                90
_cell_angle_beta                 97.195(6)
_cell_angle_gamma                90
_cell_volume                     1073.66
_exptl_crystal_colour            yellow
_exptl_crystal_description       block
_cell_formula_units_Z            2
loop_
_atom_site_label
_atom_site_type_symbol
_atom_site_fract_x
_atom_site_fract_y
_atom_site_fract_z
B1 B 0.5108(3) 0.5154(3) 0.6661(3)
N1 N 0.4162(2) 0.6517(2) 0.6248(2)
O1 O 0.40260(17) 0.41936(18) 0.65544(18)
O2 O 0.60007(17) 0.51000(18) 0.56896(17)
C1 C 0.8916(3) 0.1779(3) 0.8204(3)
H1 H 0.9743 0.1437 0.8021
C2 C 0.7899(3) 0.0974(3) 0.8516(3)
H2 H 0.8045 0.0093 0.8577
C3 C 0.6669(3) 0.1490(3) 0.8735(3)
H3 H 0.5967 0.0952 0.8924
C4 C 0.6462(3) 0.2796(3) 0.8676(3)
H4 H 0.5614 0.3122 0.8818
C5 C 0.7481(3) 0.3642(3) 0.8410(3)
C6 C 0.8716(3) 0.3098(3) 0.8161(3)
H5 H 0.9419 0.3629 0.7963
C7 C 0.7318(3) 0.5079(3) 0.8447(3)
H6 H 0.7888 0.5429 0.7833
C8 C 0.7894(3) 0.5638(3) 0.9766(3)
H7 H 0.8893 0.5672 0.9794
C9 C 0.7413(3) 0.6993(3) 0.9962(3)
H8 H 0.7795 0.7420 1.0694
C10 C 0.6491(3) 0.7621(3) 0.9175(3)
H9 H 0.6211 0.8437 0.9390
C11 C 0.5900(3) 0.7022(3) 0.7941(3)
H10 H 0.6517 0.7236 0.7313
C12 C 0.5860(3) 0.5554(2) 0.8028(3)
H11 H 0.5278 0.5311 0.8677
C13 C 0.7586(3) 0.4808(3) 1.0891(3)
H12 H 0.7969 0.5205 1.1676
H13 H 0.7983 0.3972 1.0826
H14 H 0.6612 0.4726 1.0878
C14 C 0.4464(3) 0.7406(3) 0.7360(3)
H15 H 0.3811 0.7289 0.7966
H16 H 0.4440 0.8295 0.7084
C15 C 0.2718(3) 0.6028(3) 0.6009(3)
H17 H 0.2566 0.5767 0.5111
C16 C 0.2798(3) 0.4799(3) 0.6792(3)
H18 H 0.2819 0.4992 0.7692
H19 H 0.2015 0.4253 0.6528
C17 C 0.4741(3) 0.6967(3) 0.5081(3)
H20 H 0.5410 0.7643 0.5291
H21 H 0.4021 0.7288 0.4449
C18 C 0.5420(3) 0.5774(3) 0.4582(3)
H22 H 0.4732 0.5239 0.4080
C19 C 0.6544(3) 0.6130(3) 0.3796(3)
H23 H 0.7227 0.6629 0.4306
H24 H 0.6164 0.6624 0.3070
H25 H 0.6955 0.5363 0.3513
C20 C 0.1614(3) 0.6997(3) 0.6192(3)
C21 C 0.0753(3) 0.6841(3) 0.7125(3)
H26 H 0.0875 0.6145 0.7678
C22 C -0.0289(3) 0.7714(3) 0.7240(3)
H27 H -0.0861 0.7597 0.7867
C23 C -0.0482(3) 0.8746(3) 0.6438(3)
H28 H -0.1187 0.9325 0.6513
C24 C 0.0372(3) 0.8923(3) 0.5522(3)
H29 H 0.0256 0.9630 0.4981
C25 C 0.1404(3) 0.8051(3) 0.5404(3)
H30 H 0.1973 0.8178 0.4776
loop_
_geom_bond_atom_site_label_1
_geom_bond_atom_site_label_2
_geom_bond_site_symmetry_1
_geom_bond_site_symmetry_2
B1 N1 1_555 1_555
N1 C14 1_555 1_555
O1 B1 1_555 1_555
O2 B1 1_555 1_555
C1 H1 1_555 1_555
C2 C1 1_555 1_555
H2 C2 1_555 1_555
C3 C2 1_555 1_555
H3 C3 1_555 1_555
C4 C3 1_555 1_555
H4 C4 1_555 1_555
C5 C4 1_555 1_555
C6 C1 1_555 1_555
H5 C6 1_555 1_555
C7 C5 1_555 1_555
H6 C7 1_555 1_555
C8 C7 1_555 1_555
H7 C8 1_555 1_555
C9 C8 1_555 1_555
H8 C9 1_555 1_555
C10 C9 1_555 1_555
H9 C10 1_555 1_555
C11 C10 1_555 1_555
H10 C11 1_555 1_555
C12 B1 1_555 1_555
H11 C12 1_555 1_555
C13 C8 1_555 1_555
H12 C13 1_555 1_555
H13 C13 1_555 1_555
H14 C13 1_555 1_555
C14 C11 1_555 1_555
H15 C14 1_555 1_555
H16 C14 1_555 1_555
C15 N1 1_555 1_555
H17 C15 1_555 1_555
C16 O1 1_555 1_555
H18 C16 1_555 1_555
H19 C16 1_555 1_555
C17 N1 1_555 1_555
H20 C17 1_555 1_555
H21 C17 1_555 1_555
C18 O2 1_555 1_555
H22 C18 1_555 1_555
C19 C18 1_555 1_555
H23 C19 1_555 1_555
H24 C19 1_555 1_555
H25 C19 1_555 1_555
C20 C15 1_555 1_555
C21 C20 1_555 1_555
H26 C21 1_555 1_555
C22 C21 1_555 1_555
H27 C22 1_555 1_555
C23 C22 1_555 1_555
H28 C23 1_555 1_555
C24 C23 1_555 1_555
H29 C24 1_555 1_555
C25 C20 1_555 1_555
H30 C25 1_555 1_555
C5 C6 1_555 1_555
C7 C12 1_555 1_555
C11 C12 1_555 1_555
C15 C16 1_555 1_555
C17 C18 1_555 1_555
C24 C25 1_555 1_555

#END
