
#######################################################################
#
#                 Cambridge Crystallographic Data Centre
#                                CCDC 
#
#######################################################################
#
# If this CIF has been generated from an entry in the Cambridge 
# Structural Database, then it will include bibliographic, chemical, 
# crystal, experimental, refinement or atomic coordinate data resulting 
# from the CCDC's data processing and validation procedures.
#
#######################################################################

data_QUHWAS01
_chemical_formula_moiety         'C21 H23 N1 O1'
_chemical_name_systematic        
exo-(s)-N-(Bicyclo[2.2.1]hept-2-ylmethyl)-N-phenylbenzamide
_symmetry_cell_setting           triclinic
_symmetry_space_group_name_H-M   'P 1'
_symmetry_Int_Tables_number      1
_space_group_name_Hall           'P 1'
loop_
_symmetry_equiv_pos_site_id
_symmetry_equiv_pos_as_xyz
1 x,y,z
_cell_length_a                   9.388(16)
_cell_length_b                   9.44(2)
_cell_length_c                   9.484(17)
_cell_angle_alpha                88.28(9)
_cell_angle_beta                 81.19(5)
_cell_angle_gamma                89.14(9)
_cell_volume                     830.161
_exptl_crystal_colour            colorless
_exptl_crystal_description       needle
_cell_formula_units_Z            2
loop_
_atom_site_label
_atom_site_type_symbol
_atom_site_fract_x
_atom_site_fract_y
_atom_site_fract_z
O1 O 0.2049(2) 0.2271(2) 0.7636(2)
N2 N 0.2380(2) 0.2312(2) 0.9962(2)
C1 C 0.1590(3) 0.4479(3) 0.8749(3)
C2 C 0.3801(3) 0.4167(3) 1.0837(3)
H1 H 0.4254 0.4359 0.9886
C4 C 0.2775(3) 0.3106(3) 1.1107(3)
C8 C 0.1973(3) 0.5312(3) 0.7517(3)
H4 H 0.2602 0.4938 0.6733
C9 C 0.4169(3) 0.4948(3) 1.1936(3)
H5 H 0.4855 0.5685 1.1736
C10 C 0.2155(3) 0.2803(3) 1.2517(3)
H6 H 0.1470 0.2065 1.2722
C11 C 0.0478(3) 0.7220(3) 0.8541(3)
H7 H 0.0100 0.8154 0.8465
C12 C 0.4027(3) 0.0174(3) 0.9919(3)
H8 H 0.4534 0.0620 1.0645
C14 C 0.0626(3) 0.5030(3) 0.9872(3)
H10 H 0.0350 0.4470 1.0716
C15 C 0.6538(3) -0.1553(3) 0.8921(3)
H11 H 0.7246 -0.2048 0.8216
H12 H 0.6776 -0.1751 0.9890
C19 C 0.4033(3) -0.1463(3) 1.0153(3)
H15 H 0.4436 -0.1737 1.1029
H16 H 0.3047 -0.1844 1.0230
C21 C 0.2493(3) 0.0752(3) 1.0049(3)
H18 H 0.2026 0.0356 0.9282
H19 H 0.1950 0.0415 1.0974
C22 C 0.3532(3) 0.4651(3) 1.3336(3)
H20 H 0.3779 0.5185 1.4095
C25 C 0.2056(3) 0.2947(3) 0.8727(3)
C26 C 0.6514(3) 0.0065(3) 0.8580(3)
H23 H 0.6801 0.0608 0.9367
H24 H 0.7165 0.0306 0.7685
C27 C 0.2538(3) 0.3574(3) 1.3614(3)
H25 H 0.2114 0.3361 1.4571
C32 C 0.0067(3) 0.6392(3) 0.9762(3)
H31 H -0.0598 0.6757 1.0526
C33 C 0.4940(3) 0.0361(3) 0.8425(3)
H32 H 0.4769 0.1276 0.7914
C35 C 0.1445(3) 0.6678(3) 0.7428(3)
H34 H 0.1746 0.7252 0.6599
C36 C 0.4572(3) -0.0964(3) 0.7672(3)
H35 H 0.5175 -0.1077 0.6729
H36 H 0.3537 -0.1011 0.7580
C40 C 0.4996(3) -0.2002(3) 0.8822(3)
H42 H 0.4884 -0.3028 0.8631
N1 N 0.8664(2) 0.7337(2) 0.3480(2)
O2 O 0.6437(2) 0.7258(2) 0.2831(2)
C3 C 0.9424(3) 0.9175(3) 0.4998(3)
H2 H 0.8444 0.9331 0.5393
C5 C 0.8658(3) 1.1490(3) 0.1207(3)
H3 H 0.9454 1.1885 0.0588
C6 C 0.7505(3) 0.7953(3) 0.2997(3)
C7 C 0.9783(3) 0.8149(3) 0.3967(3)
C13 C 1.1219(3) 0.7897(3) 0.3420(3)
H9 H 1.1471 0.7195 0.2725
C16 C 0.6274(3) 1.1728(3) 0.2514(3)
H13 H 0.5442 1.2294 0.2806
C17 C 0.6315(3) 1.0321(3) 0.2970(3)
H14 H 0.5501 0.9918 0.3556
C18 C 0.7549(3) 0.9495(3) 0.2571(3)
C20 C 1.0495(3) 0.9963(3) 0.5445(3)
H17 H 1.0248 1.0674 0.6131
C23 C 0.8379(3) 0.5355(3) 0.5294(3)
H21 H 0.9100 0.5793 0.5818
C24 C 0.7446(3) 1.2310(3) 0.1632(3)
H22 H 0.7416 1.3275 0.1319
C28 C 0.8715(3) 1.0085(3) 0.1686(3)
H26 H 0.9556 0.9528 0.1406
C29 C 0.8378(3) 0.3747(3) 0.5575(4)
H27 H 0.9080 0.3195 0.4896
C30 C 1.2284(3) 0.8678(3) 0.3895(3)
H28 H 1.3268 0.8497 0.3531
C31 C 0.8714(3) 0.5790(3) 0.3715(3)
H29 H 0.9685 0.5430 0.3321
H30 H 0.8009 0.5346 0.3194
C34 C 1.1932(3) 0.9713(3) 0.4891(3)
H33 H 1.2669 1.0253 0.5197
C37 C 0.6236(3) 0.4411(4) 0.6706(4)
H37 H 0.5162 0.4422 0.6965
C38 C 0.7028(4) 0.3995(4) 0.7928(3)
H38 H 0.6531 0.3220 0.8526
H39 H 0.7128 0.4814 0.8533
C39 C 0.8496(4) 0.3502(5) 0.7155(4)
H40 H 0.9284 0.4068 0.7429
H41 H 0.8671 0.2487 0.7373
C41 C 0.6859(4) 0.5787(4) 0.5989(4)
H43 H 0.6895 0.6527 0.6700
H44 H 0.6279 0.6145 0.5263
C42 C 0.6793(4) 0.3392(4) 0.5589(3)
H45 H 0.6462 0.3617 0.4665
H46 H 0.6569 0.2396 0.5888
loop_
_geom_bond_atom_site_label_1
_geom_bond_atom_site_label_2
_geom_bond_site_symmetry_1
_geom_bond_site_symmetry_2
O1 C25 1_555 1_555
N1 C6 1_555 1_555
O2 C6 1_555 1_555
N2 C4 1_555 1_555
C1 C8 1_555 1_555
C2 H1 1_555 1_555
C3 H2 1_555 1_555
C4 C2 1_555 1_555
C5 H3 1_555 1_555
C6 C18 1_555 1_555
C7 N1 1_555 1_555
C8 H4 1_555 1_555
C9 C2 1_555 1_555
H5 C9 1_555 1_555
C10 C4 1_555 1_555
H6 C10 1_555 1_555
C11 H7 1_555 1_555
C12 H8 1_555 1_555
C13 C7 1_555 1_555
H9 C13 1_555 1_555
C14 C1 1_555 1_555
H10 C14 1_555 1_555
C15 H11 1_555 1_555
H12 C15 1_555 1_555
C16 H13 1_555 1_555
C17 C16 1_555 1_555
H14 C17 1_555 1_555
C18 C17 1_555 1_555
C19 C12 1_555 1_555
H15 C19 1_555 1_555
H16 C19 1_555 1_555
C20 C3 1_555 1_555
H17 C20 1_555 1_555
C21 N2 1_555 1_555
H18 C21 1_555 1_555
H19 C21 1_555 1_555
C22 C9 1_555 1_555
H20 C22 1_555 1_555
C23 H21 1_555 1_555
C24 C5 1_555 1_555
H22 C24 1_555 1_555
C25 N2 1_555 1_555
C26 C15 1_555 1_555
H23 C26 1_555 1_555
H24 C26 1_555 1_555
C27 C10 1_555 1_555
H25 C27 1_555 1_555
C28 C5 1_555 1_555
H26 C28 1_555 1_555
C29 C23 1_555 1_555
H27 C29 1_555 1_555
C30 C13 1_555 1_555
H28 C30 1_555 1_555
C31 N1 1_555 1_555
H29 C31 1_555 1_555
H30 C31 1_555 1_555
C32 C11 1_555 1_555
H31 C32 1_555 1_555
C33 C12 1_555 1_555
H32 C33 1_555 1_555
C34 C20 1_555 1_555
H33 C34 1_555 1_555
C35 C8 1_555 1_555
H34 C35 1_555 1_555
C36 C33 1_555 1_555
H35 C36 1_555 1_555
H36 C36 1_555 1_555
C37 H37 1_555 1_555
C38 C37 1_555 1_555
H38 C38 1_555 1_555
H39 C38 1_555 1_555
C39 C29 1_555 1_555
H40 C39 1_555 1_555
H41 C39 1_555 1_555
C40 C15 1_555 1_555
H42 C40 1_555 1_555
C41 C23 1_555 1_555
H43 C41 1_555 1_555
H44 C41 1_555 1_555
C42 C29 1_555 1_555
H45 C42 1_555 1_555
H46 C42 1_555 1_555
C1 C25 1_555 1_555
C3 C7 1_555 1_555
C11 C35 1_555 1_555
C12 C21 1_555 1_555
C14 C32 1_555 1_555
C16 C24 1_555 1_555
C18 C28 1_555 1_555
C19 C40 1_555 1_555
C22 C27 1_555 1_555
C23 C31 1_555 1_555
C26 C33 1_555 1_555
C30 C34 1_555 1_555
C36 C40 1_555 1_555
C37 C41 1_555 1_555
C37 C42 1_555 1_555
C38 C39 1_555 1_555

#END
