
#######################################################################
#
#                 Cambridge Crystallographic Data Centre
#                                CCDC 
#
#######################################################################
#
# If this CIF has been generated from an entry in the Cambridge 
# Structural Database, then it will include bibliographic, chemical, 
# crystal, experimental, refinement or atomic coordinate data resulting 
# from the CCDC's data processing and validation procedures.
#
#######################################################################

data_QUHXOG
_chemical_formula_moiety         'C14 H32 N2 O10 P2,4(H2 O1)'
_chemical_name_systematic        
"N,N'-bis(phosphonomethyl)-1,10-diaza-18-crown-6 tetrahydrate"
_symmetry_cell_setting           triclinic
_symmetry_space_group_name_H-M   'P -1'
_symmetry_Int_Tables_number      2
_space_group_name_Hall           '-P 1'
loop_
_symmetry_equiv_pos_site_id
_symmetry_equiv_pos_as_xyz
1 x,y,z
2 -x,-y,-z
_cell_length_a                   8.1829(8)
_cell_length_b                   8.3092(10)
_cell_length_c                   9.1429(10)
_cell_angle_alpha                85.286(9)
_cell_angle_beta                 84.736(9)
_cell_angle_gamma                73.158(7)
_cell_volume                     591.474
_exptl_crystal_colour            colorless
_exptl_crystal_description       plate
_cell_formula_units_Z            1
loop_
_atom_site_label
_atom_site_type_symbol
_atom_site_fract_x
_atom_site_fract_y
_atom_site_fract_z
P1 P 0.8425(1) 0.8471(1) 0.0697(1)
O1 O 0.7683(2) 1.0443(2) 0.0656(3)
O2 O 0.7688(2) 0.7752(2) -0.0426(2)
O3 O 1.0344(2) 0.7975(2) 0.0729(3)
O4 O 0.2747(2) 0.8601(2) 0.4583(2)
O5 O 0.2962(2) 0.5917(2) 0.6691(2)
N1 N 0.5911(2) 0.7640(2) 0.2780(2)
C1 C 0.7700(2) 0.7798(2) 0.2540(2)
C2 C 0.4623(3) 0.9352(2) 0.2674(2)
C3 C 0.2823(3) 0.9294(3) 0.3106(2)
C4 C 0.1409(3) 0.7827(3) 0.4905(2)
C5 C 0.1414(3) 0.7244(3) 0.6504(2)
C6 C 0.3130(3) 0.5252(3) 0.8178(2)
C7 C 0.5512(3) 0.6414(3) 0.1848(2)
H1 H 0.7814 0.8589 0.3221
H2 H 0.4920 1.0090 0.3308
H3 H 0.2041 1.0421 0.3032
H4 H 0.2489 0.8604 0.2450
H5 H 0.1591 0.6877 0.4299
H6 H 0.0316 0.8626 0.4703
H7 H 0.1369 0.8167 0.7105
H8 H 0.0427 0.6837 0.6796
H9 H 0.2051 0.5100 0.8606
H10 H 0.3458 0.6016 0.8761
H11 H 0.4429 0.6227 0.2221
H12 H 0.5384 0.6903 0.0849
H13 H 0.8380 1.0938 0.0220
H17 H 0.5783 0.7266 0.3724
H18 H 0.8481 0.6712 0.2810
C7A C 0.4488(3) 0.3586(3) 0.8152(2)
N1A N 0.4089(2) 0.2360(2) 0.7220(2)
C1A C 0.2300(2) 0.2202(2) 0.7460(2)
P1A P 0.1575(1) 0.1529(1) 0.9303(1)
O1A O 0.2317(2) -0.0443(2) 0.9344(3)
H13A H 0.1620 -0.0938 0.9780
O2A O 0.2312(2) 0.2248(2) 1.0426(2)
O3A O -0.0344(2) 0.2025(2) 0.9271(3)
H1A H 0.2186 0.1411 0.6779
H18A H 0.1519 0.3288 0.7190
C2A C 0.5377(3) 0.0648(2) 0.7326(2)
C3A C 0.7177(3) 0.0706(3) 0.6894(2)
O4A O 0.7253(2) 0.1399(2) 0.5417(2)
C4A C 0.8591(3) 0.2173(3) 0.5095(2)
C5A C 0.8586(3) 0.2756(3) 0.3496(2)
O5A O 0.7038(2) 0.4083(2) 0.3309(2)
C6A C 0.6870(3) 0.4748(3) 0.1822(2)
H9A H 0.7949 0.4900 0.1394
H10A H 0.6542 0.3984 0.1239
H7A H 0.8631 0.1833 0.2895
H8A H 0.9573 0.3163 0.3204
H5A H 0.8409 0.3123 0.5701
H6A H 0.9684 0.1374 0.5297
H3A H 0.7959 -0.0421 0.6968
H4A H 0.7511 0.1396 0.7550
H2A H 0.5080 -0.0090 0.6692
H17A H 0.4217 0.2734 0.6276
H11A H 0.5571 0.3773 0.7779
H12A H 0.4616 0.3097 0.9151
O6 O 0.6030(2) 0.6955(2) 0.5770(2)
H14 H 0.6750 0.6306 0.6327
H15 H 0.5074 0.6759 0.6009
O7 O 0.1876(2) 0.4851(2) 0.2112(2)
H16 H 0.1944 0.4084 0.1529
loop_
_geom_bond_atom_site_label_1
_geom_bond_atom_site_label_2
_geom_bond_site_symmetry_1
_geom_bond_site_symmetry_2
P1 O1 1_555 1_555
O1 H13 1_555 1_555
O2 P1 1_555 1_555
O3 P1 1_555 1_555
O4 C3 1_555 1_555
O5 C5 1_555 1_555
O6 H14 1_555 1_555
O7 H16 1_555 1_555
N1 C1 1_555 1_555
C1 P1 1_555 1_555
C2 N1 1_555 1_555
C3 C2 1_555 1_555
C4 O4 1_555 1_555
C5 C4 1_555 1_555
C6 O5 1_555 1_555
C7 N1 1_555 1_555
H1 C1 1_555 1_555
H2 C2 1_555 1_555
H3 C3 1_555 1_555
H4 C3 1_555 1_555
H5 C4 1_555 1_555
H6 C4 1_555 1_555
H7 C5 1_555 1_555
H8 C5 1_555 1_555
H9 C6 1_555 1_555
H10 C6 1_555 1_555
H11 C7 1_555 1_555
H12 C7 1_555 1_555
H15 O6 1_555 1_555
H17 N1 1_555 1_555
H18 C1 1_555 1_555
C7A C6 1_555 1_555
N1A C7A 1_555 1_555
C1A N1A 1_555 1_555
P1A C1A 1_555 1_555
O1A P1A 1_555 1_555
H13A O1A 1_555 1_555
O2A P1A 1_555 1_555
O3A P1A 1_555 1_555
H1A C1A 1_555 1_555
H18A C1A 1_555 1_555
C2A N1A 1_555 1_555
C3A C2A 1_555 1_555
O4A C3A 1_555 1_555
C4A O4A 1_555 1_555
C5A C4A 1_555 1_555
O5A C5A 1_555 1_555
C6A C7 1_555 1_555
H9A C6A 1_555 1_555
H10A C6A 1_555 1_555
H7A C5A 1_555 1_555
H8A C5A 1_555 1_555
H5A C4A 1_555 1_555
H6A C4A 1_555 1_555
H3A C3A 1_555 1_555
H4A C3A 1_555 1_555
H2A C2A 1_555 1_555
H17A N1A 1_555 1_555
H11A C7A 1_555 1_555
H12A C7A 1_555 1_555
O5A C6A 1_555 1_555

#END
