
#######################################################################
#
#                 Cambridge Crystallographic Data Centre
#                                CCDC 
#
#######################################################################
#
# If this CIF has been generated from an entry in the Cambridge 
# Structural Database, then it will include bibliographic, chemical, 
# crystal, experimental, refinement or atomic coordinate data resulting 
# from the CCDC's data processing and validation procedures.
#
#######################################################################

data_QUJJEL
_chemical_formula_moiety         'C19 H24 N2 O3'
_chemical_name_systematic        
'Ethyl 4-(cyclohexylamino)-5-oxo-1-phenyl-2,5-dihydro-1H-pyrrole-3-carboxylate'
_symmetry_cell_setting           monoclinic
_symmetry_space_group_name_H-M   'P 21/n'
_symmetry_Int_Tables_number      14
_space_group_name_Hall           '-P 2yn'
loop_
_symmetry_equiv_pos_site_id
_symmetry_equiv_pos_as_xyz
1 x,y,z
2 1/2-x,1/2+y,1/2-z
3 -x,-y,-z
4 1/2+x,1/2-y,1/2+z
_cell_length_a                   12.072(2)
_cell_length_b                   8.4495(16)
_cell_length_c                   17.219(3)
_cell_angle_alpha                90
_cell_angle_beta                 96.364(2)
_cell_angle_gamma                90
_cell_volume                     1745.56
_exptl_crystal_colour            colorless
_exptl_crystal_description       block
_chemical_melting_point          '107-108 deg.C'
_cell_formula_units_Z            4
loop_
_atom_site_label
_atom_site_type_symbol
_atom_site_fract_x
_atom_site_fract_y
_atom_site_fract_z
C1 C 0.22143(12) 1.0262(2) 0.88743(9)
H1 H 0.2413 1.1159 0.8556
C2 C 0.15626(14) 0.9069(2) 0.83435(10)
H2 H 0.2007 0.8746 0.7935
H3 H 0.1413 0.8137 0.8644
C3 C 0.04700(15) 0.9764(3) 0.79770(11)
H4 H 0.0619 1.0643 0.7642
H5 H 0.0060 0.8967 0.7657
C4 C -0.02287(15) 1.0332(3) 0.85999(12)
H6 H -0.0908 1.0813 0.8354
H7 H -0.0434 0.9436 0.8906
C5 C 0.04049(15) 1.1518(3) 0.91301(12)
H8 H -0.0040 1.1811 0.9543
H9 H 0.0531 1.2465 0.8834
C6 C 0.15181(14) 1.0868(2) 0.94903(11)
H10 H 0.1925 1.1695 0.9791
H11 H 0.1389 1.0013 0.9845
C7 C 0.60759(13) 0.9353(2) 0.74297(9)
C8 C 0.56982(16) 1.0332(2) 0.68107(10)
H12 H 0.5046 1.0912 0.6823
C9 C 0.62982(19) 1.0440(3) 0.61747(11)
H13 H 0.6040 1.1095 0.5760
C10 C 0.72660(18) 0.9603(3) 0.61410(11)
H14 H 0.7659 0.9684 0.5708
C11 C 0.76415(16) 0.8652(3) 0.67528(11)
H15 H 0.8298 0.8084 0.6736
C12 C 0.70617(14) 0.8520(2) 0.73976(10)
H16 H 0.7332 0.7871 0.7812
C13 C 0.41725(12) 0.91803(19) 0.89622(9)
C14 C 0.50257(12) 0.8273(2) 0.92841(9)
C15 C 0.59187(13) 0.8183(2) 0.87543(9)
H17 H 0.6615 0.8612 0.9003
H18 H 0.6039 0.7100 0.8597
C16 C 0.44566(13) 0.9784(2) 0.81910(9)
C17 C 0.50517(13) 0.7531(2) 1.00391(9)
C18 C 0.60598(15) 0.5897(2) 1.09862(9)
H19 H 0.5428 0.5206 1.1028
H20 H 0.6073 0.6698 1.1391
C19 C 0.71143(16) 0.4969(2) 1.10786(11)
H21 H 0.7081 0.4156 1.0687
H22 H 0.7210 0.4493 1.1588
H23 H 0.7732 0.5658 1.1020
H24 H 0.3199(13) 0.913(2) 0.9734(10)
N1 N 0.32358(11) 0.95848(18) 0.92729(9)
N2 N 0.54768(10) 0.91509(17) 0.80875(7)
O1 O 0.38997(10) 1.06724(16) 0.77476(7)
O2 O 0.43261(9) 0.76811(15) 1.04722(6)
O3 O 0.59657(9) 0.66382(14) 1.02215(6)
loop_
_geom_bond_atom_site_label_1
_geom_bond_atom_site_label_2
_geom_bond_site_symmetry_1
_geom_bond_site_symmetry_2
C1 H1 1_555 1_555
C2 C1 1_555 1_555
H2 C2 1_555 1_555
H3 C2 1_555 1_555
C3 C2 1_555 1_555
H4 C3 1_555 1_555
H5 C3 1_555 1_555
C4 C3 1_555 1_555
H6 C4 1_555 1_555
H7 C4 1_555 1_555
C5 C4 1_555 1_555
H8 C5 1_555 1_555
H9 C5 1_555 1_555
C6 C1 1_555 1_555
H10 C6 1_555 1_555
H11 C6 1_555 1_555
C7 C8 1_555 1_555
C8 H12 1_555 1_555
C9 C8 1_555 1_555
H13 C9 1_555 1_555
C10 C9 1_555 1_555
H14 C10 1_555 1_555
C11 C10 1_555 1_555
H15 C11 1_555 1_555
C12 C7 1_555 1_555
H16 C12 1_555 1_555
C13 C14 1_555 1_555
C14 C15 1_555 1_555
C15 H17 1_555 1_555
H18 C15 1_555 1_555
C16 C13 1_555 1_555
C17 C14 1_555 1_555
C18 H19 1_555 1_555
H20 C18 1_555 1_555
C19 C18 1_555 1_555
H21 C19 1_555 1_555
H22 C19 1_555 1_555
H23 C19 1_555 1_555
H24 N1 1_555 1_555
N1 C1 1_555 1_555
N2 C7 1_555 1_555
O1 C16 1_555 1_555
O2 C17 1_555 1_555
O3 C17 1_555 1_555
C5 C6 1_555 1_555
C11 C12 1_555 1_555
C13 N1 1_555 1_555
C15 N2 1_555 1_555
C16 N2 1_555 1_555
C18 O3 1_555 1_555

#END
