
#######################################################################
#
#                 Cambridge Crystallographic Data Centre
#                                CCDC 
#
#######################################################################
#
# If this CIF has been generated from an entry in the Cambridge 
# Structural Database, then it will include bibliographic, chemical, 
# crystal, experimental, refinement or atomic coordinate data resulting 
# from the CCDC's data processing and validation procedures.
#
#######################################################################

data_QUJKIR
_chemical_formula_moiety         'C19 H18 Cl1 N1 O3'
_chemical_name_systematic        
3-(3-Chlorophenyl)-1-hydroxy-2-methyl-6-phenyl-8-oxa-6-azabicyclo[3.2.1]octan-7-one
_symmetry_cell_setting           monoclinic
_symmetry_space_group_name_H-M   'P 21'
_symmetry_Int_Tables_number      4
_space_group_name_Hall           'P 2yb'
loop_
_symmetry_equiv_pos_site_id
_symmetry_equiv_pos_as_xyz
1 x,y,z
2 -x,1/2+y,-z
_cell_length_a                   10.572(3)
_cell_length_b                   6.8163(19)
_cell_length_c                   11.398(3)
_cell_angle_alpha                90
_cell_angle_beta                 97.963(6)
_cell_angle_gamma                90
_cell_volume                     813.442
_exptl_crystal_colour            colorless
_exptl_crystal_description       prismatic
_cell_formula_units_Z            2
loop_
_atom_site_label
_atom_site_type_symbol
_atom_site_fract_x
_atom_site_fract_y
_atom_site_fract_z
Cl1 Cl 0.67919(8) 0.39772(16) 0.90227(7)
N1 N 0.17386(17) 0.7581(3) 0.38083(18)
O1 O 0.00657(13) 0.9215(3) 0.45033(17)
O2 O 0.32959(14) 0.9736(3) 0.44636(15)
O3 O 0.21071(16) 1.2024(3) 0.52319(19)
H1 H 0.1339 1.2250 0.5169
C1 C 0.11940(19) 0.8920(4) 0.4455(2)
C2 C 0.2300(2) 1.0032(4) 0.5172(2)
C3 C 0.31419(19) 0.7735(4) 0.4134(2)
H2 H 0.3581 0.7444 0.3452
C4 C 0.3655(2) 0.6468(4) 0.5185(2)
H3 H 0.4550 0.6763 0.5428
H4 H 0.3585 0.5095 0.4961
C5 C 0.2903(2) 0.6846(3) 0.6215(2)
H5 H 0.2054 0.6272 0.5991
C6 C 0.2700(2) 0.9089(4) 0.6381(2)
H6 H 0.1992 0.9249 0.6844
C7 C 0.3857(3) 1.0140(4) 0.7041(3)
H7 H 0.4590 0.9890 0.6653
H8 H 0.4014 0.9667 0.7841
H9 H 0.3694 1.1526 0.7045
C8 C 0.1137(2) 0.6283(4) 0.2945(2)
C9 C -0.0005(3) 0.6807(6) 0.2291(3)
H10 H -0.0396 0.7988 0.2437
C10 C -0.0568(3) 0.5556(7) 0.1412(3)
H11 H -0.1341 0.5909 0.0969
C11 C -0.0012(3) 0.3818(7) 0.1184(3)
H12 H -0.0398 0.2985 0.0594
C12 C 0.1129(4) 0.3324(6) 0.1841(3)
H13 H 0.1523 0.2152 0.1685
C13 C 0.1698(3) 0.4520(5) 0.2721(3)
H14 H 0.2462 0.4146 0.3170
C14 C 0.3462(2) 0.5880(4) 0.7353(2)
C15 C 0.4736(2) 0.5433(4) 0.7632(2)
H15 H 0.5303 0.5732 0.7102
C16 C 0.5175(3) 0.4538(4) 0.8701(2)
C17 C 0.4363(3) 0.4104(5) 0.9516(2)
H16 H 0.4669 0.3503 1.0232
C18 C 0.3108(3) 0.4576(5) 0.9247(3)
H17 H 0.2549 0.4308 0.9790
C19 C 0.2654(3) 0.5443(5) 0.8184(3)
H18 H 0.1790 0.5744 0.8016
loop_
_geom_bond_atom_site_label_1
_geom_bond_atom_site_label_2
_geom_bond_site_symmetry_1
_geom_bond_site_symmetry_2
Cl1 C16 1_555 1_555
N1 C1 1_555 1_555
O1 C1 1_555 1_555
O2 C2 1_555 1_555
O3 H1 1_555 1_555
C1 C2 1_555 1_555
C2 O3 1_555 1_555
C3 N1 1_555 1_555
H2 C3 1_555 1_555
C4 C3 1_555 1_555
H3 C4 1_555 1_555
H4 C4 1_555 1_555
C5 C4 1_555 1_555
H5 C5 1_555 1_555
C6 C2 1_555 1_555
H6 C6 1_555 1_555
C7 C6 1_555 1_555
H7 C7 1_555 1_555
H8 C7 1_555 1_555
H9 C7 1_555 1_555
C8 N1 1_555 1_555
C9 C8 1_555 1_555
H10 C9 1_555 1_555
C10 C9 1_555 1_555
H11 C10 1_555 1_555
C11 C10 1_555 1_555
H12 C11 1_555 1_555
C12 C11 1_555 1_555
H13 C12 1_555 1_555
C13 C8 1_555 1_555
H14 C13 1_555 1_555
C14 C5 1_555 1_555
C15 C14 1_555 1_555
H15 C15 1_555 1_555
C16 C15 1_555 1_555
C17 C16 1_555 1_555
H16 C17 1_555 1_555
C18 C17 1_555 1_555
H17 C18 1_555 1_555
C19 C14 1_555 1_555
H18 C19 1_555 1_555
O2 C3 1_555 1_555
C5 C6 1_555 1_555
C12 C13 1_555 1_555
C18 C19 1_555 1_555

#END
