
#######################################################################
#
#                 Cambridge Crystallographic Data Centre
#                                CCDC 
#
#######################################################################
#
# If this CIF has been generated from an entry in the Cambridge 
# Structural Database, then it will include bibliographic, chemical, 
# crystal, experimental, refinement or atomic coordinate data resulting 
# from the CCDC's data processing and validation procedures.
#
#######################################################################

data_QUJNIU
_chemical_formula_moiety         'C20 H29 N1 O2 S1 Si1'
_chemical_name_systematic        
N-(2-(diethylsilyl)-3-phenylpropyl)-4-methylbenzenesulfonamide
_symmetry_cell_setting           triclinic
_symmetry_space_group_name_H-M   'P -1'
_symmetry_Int_Tables_number      2
_space_group_name_Hall           '-P 1'
loop_
_symmetry_equiv_pos_site_id
_symmetry_equiv_pos_as_xyz
1 x,y,z
2 -x,-y,-z
_cell_length_a                   5.7610(2)
_cell_length_b                   11.5885(4)
_cell_length_c                   16.4407(5)
_cell_angle_alpha                70.7195(19)
_cell_angle_beta                 84.232(2)
_cell_angle_gamma                76.8691(19)
_cell_volume                     1008.57
_cell_formula_units_Z            2
loop_
_atom_site_label
_atom_site_type_symbol
_atom_site_fract_x
_atom_site_fract_y
_atom_site_fract_z
S1 S 0.26520(7) 0.14617(4) 0.05030(3)
Si1 Si 0.69621(9) -0.01199(5) 0.35716(4)
O1 O 0.2072(2) 0.08445(12) -0.00599(9)
O2 O 0.0774(2) 0.19577(13) 0.10132(9)
N1 N 0.4636(3) 0.04493(15) 0.11332(11)
H1 H 0.5164 -0.0286 0.1062
H2 H 0.498(4) 0.080(2) 0.3699(15)
C1 C 0.3964(3) 0.27149(17) -0.01474(12)
C2 C 0.6254(3) 0.24764(18) -0.04953(13)
H3 H 0.7172 0.1648 -0.0357
C3 C 0.7170(3) 0.34694(19) -0.10466(13)
H4 H 0.8729 0.3311 -0.1291
C4 C 0.5871(3) 0.46950(19) -0.12532(13)
C5 C 0.3578(4) 0.49077(19) -0.08959(14)
H5 H 0.2658 0.5736 -0.1035
C6 C 0.2619(3) 0.39302(18) -0.03405(13)
H6 H 0.1062 0.4087 -0.0094
C7 C 0.6923(4) 0.5757(2) -0.18443(15)
H7 H 0.8546 0.5432 -0.2023
H8 H 0.6968 0.6351 -0.1541
H9 H 0.5941 0.6180 -0.2354
C8 C 0.5592(4) 0.07355(18) 0.18335(13)
H10 H 0.4327 0.1292 0.2062
H11 H 0.6921 0.1175 0.1602
C9 C 0.6485(3) -0.04756(18) 0.25612(13)
H12 H 0.5172 -0.0952 0.2704
C10 C 0.8684(4) -0.13153(19) 0.22541(14)
H13 H 0.8493 -0.1229 0.1644
H14 H 1.0144 -0.1019 0.2287
C11 C 0.8984(3) -0.26728(19) 0.27865(13)
C12 C 0.7381(4) -0.3374(2) 0.27177(16)
H15 H 0.6131 -0.2996 0.2319
C13 C 0.7586(5) -0.4614(2) 0.32229(18)
H16 H 0.6482 -0.5077 0.3164
C14 C 0.9360(5) -0.5175(2) 0.38040(17)
H17 H 0.9470 -0.6019 0.4158
C15 C 1.1010(5) -0.4503(2) 0.38759(16)
H18 H 1.2264 -0.4891 0.4273
C16 C 1.0813(4) -0.3262(2) 0.33640(14)
H19 H 1.1951 -0.2810 0.3411
C17 C 0.5171(4) -0.2238(2) 0.47342(17)
H20 H 0.5461 -0.2938 0.5271
H21 H 0.5139 -0.2559 0.4255
H22 H 0.3637 -0.1686 0.4783
C18 C 0.7161(4) -0.1507(2) 0.45680(14)
H23 H 0.8697 -0.2089 0.4541
H24 H 0.7203 -0.1221 0.5070
C19 C 0.9640(4) 0.0583(2) 0.34895(18)
H25 H 1.0269 0.0335 0.4075
H26 H 1.0885 0.0211 0.3136
C20 C 0.9266(5) 0.1979(2) 0.31127(18)
H27 H 1.0775 0.2239 0.3103
H28 H 0.8077 0.2367 0.3465
H29 H 0.8700 0.2242 0.2524
loop_
_geom_bond_atom_site_label_1
_geom_bond_atom_site_label_2
_geom_bond_site_symmetry_1
_geom_bond_site_symmetry_2
S1 O1 1_555 1_555
Si1 H2 1_555 1_555
O2 S1 1_555 1_555
N1 S1 1_555 1_555
H1 N1 1_555 1_555
C1 S1 1_555 1_555
C2 C1 1_555 1_555
H3 C2 1_555 1_555
C3 C2 1_555 1_555
H4 C3 1_555 1_555
C4 C3 1_555 1_555
C5 C4 1_555 1_555
H5 C5 1_555 1_555
C6 C1 1_555 1_555
H6 C6 1_555 1_555
C7 C4 1_555 1_555
H7 C7 1_555 1_555
H8 C7 1_555 1_555
H9 C7 1_555 1_555
C8 N1 1_555 1_555
H10 C8 1_555 1_555
H11 C8 1_555 1_555
C9 Si1 1_555 1_555
H12 C9 1_555 1_555
C10 C9 1_555 1_555
H13 C10 1_555 1_555
H14 C10 1_555 1_555
C11 C10 1_555 1_555
C12 C11 1_555 1_555
H15 C12 1_555 1_555
C13 C12 1_555 1_555
H16 C13 1_555 1_555
C14 C13 1_555 1_555
H17 C14 1_555 1_555
C15 C14 1_555 1_555
H18 C15 1_555 1_555
C16 C11 1_555 1_555
H19 C16 1_555 1_555
C17 H20 1_555 1_555
H21 C17 1_555 1_555
H22 C17 1_555 1_555
C18 Si1 1_555 1_555
H23 C18 1_555 1_555
H24 C18 1_555 1_555
C19 Si1 1_555 1_555
H25 C19 1_555 1_555
H26 C19 1_555 1_555
C20 C19 1_555 1_555
H27 C20 1_555 1_555
H28 C20 1_555 1_555
H29 C20 1_555 1_555
C5 C6 1_555 1_555
C8 C9 1_555 1_555
C15 C16 1_555 1_555
C17 C18 1_555 1_555

#END
