
#######################################################################
#
#                 Cambridge Crystallographic Data Centre
#                                CCDC 
#
#######################################################################
#
# If this CIF has been generated from an entry in the Cambridge 
# Structural Database, then it will include bibliographic, chemical, 
# crystal, experimental, refinement or atomic coordinate data resulting 
# from the CCDC's data processing and validation procedures.
#
#######################################################################

data_QUJWOI
_chemical_formula_moiety         'C22 H23 N1 O4'
_chemical_name_systematic        
2-(Cyclopropylcarbonyl)-6,7-dimethoxy-1-phenyl-1,2,3,4-tetrahydroisoquinoline-1-carbaldehyde
_symmetry_cell_setting           triclinic
_symmetry_space_group_name_H-M   'P -1'
_symmetry_Int_Tables_number      2
_space_group_name_Hall           '-P 1'
loop_
_symmetry_equiv_pos_site_id
_symmetry_equiv_pos_as_xyz
1 x,y,z
2 -x,-y,-z
_cell_length_a                   7.344(3)
_cell_length_b                   11.003(4)
_cell_length_c                   12.773(5)
_cell_angle_alpha                67.651(7)
_cell_angle_beta                 79.301(7)
_cell_angle_gamma                89.878(7)
_cell_volume                     935.346
_exptl_crystal_colour            colorless
_exptl_crystal_description       prismatic
_chemical_melting_point          '169-171 deg.C (dec.)'
_cell_formula_units_Z            2
loop_
_atom_site_label
_atom_site_type_symbol
_atom_site_fract_x
_atom_site_fract_y
_atom_site_fract_z
N1 N 0.3932(6) 0.8348(4) 0.8505(3)
O1 O -0.0624(5) 0.9092(4) 0.9293(4)
O2 O 0.2388(6) 0.7344(4) 1.0338(3)
O3 O 0.0820(5) 1.3478(4) 0.5805(4)
O4 O 0.4112(6) 1.4005(3) 0.4521(3)
C1 C 0.2255(6) 0.8971(5) 0.8118(4)
C2 C 0.5422(8) 0.8391(6) 0.7556(5)
H1 H 0.6419 0.7887 0.7869
H2 H 0.4952 0.7984 0.7095
C3 C 0.6144(9) 0.9722(6) 0.6829(7)
H3 H 0.6887 0.9729 0.6115
H4 H 0.6952 1.0028 0.7213
C4 C 0.4639(7) 1.0664(5) 0.6548(5)
C5 C 0.2871(7) 1.0341(5) 0.7186(4)
C6 C 0.1547(7) 1.1291(5) 0.6946(5)
H5 H 0.0347 1.1091 0.7387
C7 C 0.2007(7) 1.2492(5) 0.6079(5)
C8 C 0.3784(7) 1.2806(5) 0.5403(4)
C9 C 0.5089(7) 1.1883(5) 0.5653(5)
H6 H 0.6289 1.2086 0.5212
C10 C 0.1022(8) 0.9226(5) 0.9106(5)
H7 H 0.1587 0.9499 0.9581
C11 C 0.3878(8) 0.7606(6) 0.9635(5)
C12 C 0.5615(9) 0.7166(7) 0.9994(6)
H8 H 0.6756 0.7471 0.9401
C13 C 0.5742(13) 0.7031(11) 1.1192(7)
H9 H 0.6931 0.7275 1.1312
H10 H 0.4667 0.7228 1.1653
C14 C 0.5591(12) 0.5849(10) 1.0960(8)
H11 H 0.4423 0.5312 1.1276
H12 H 0.6686 0.5359 1.0936
C15 C 0.1217(6) 0.8120(5) 0.7696(4)
C16 C 0.0586(8) 0.6836(5) 0.8427(5)
H13 H 0.0793 0.6511 0.9178
C17 C -0.0341(9) 0.6031(6) 0.8063(6)
H14 H -0.0748 0.5171 0.8565
C18 C -0.0666(9) 0.6503(6) 0.6951(6)
H15 H -0.1302 0.5967 0.6703
C19 C -0.0054(8) 0.7743(6) 0.6233(5)
H16 H -0.0256 0.8060 0.5481
C20 C 0.0862(7) 0.8546(5) 0.6592(4)
H17 H 0.1257 0.9404 0.6078
C21 C -0.0945(8) 1.3271(6) 0.6514(7)
H18 H -0.1597 1.2513 0.6519
H19 H -0.1630 1.4031 0.6224
H20 H -0.0819 1.3127 0.7287
C22 C 0.5944(9) 1.4355(6) 0.3866(5)
H21 H 0.6794 1.4263 0.4374
H22 H 0.6034 1.5253 0.3326
H23 H 0.6247 1.3788 0.3455
loop_
_geom_bond_atom_site_label_1
_geom_bond_atom_site_label_2
_geom_bond_site_symmetry_1
_geom_bond_site_symmetry_2
N1 C1 1_555 1_555
O1 C10 1_555 1_555
O2 C11 1_555 1_555
O3 C7 1_555 1_555
O4 C8 1_555 1_555
C1 C5 1_555 1_555
C2 N1 1_555 1_555
H1 C2 1_555 1_555
H2 C2 1_555 1_555
C3 C2 1_555 1_555
H3 C3 1_555 1_555
H4 C3 1_555 1_555
C4 C3 1_555 1_555
C5 C4 1_555 1_555
C6 C5 1_555 1_555
H5 C6 1_555 1_555
C7 C6 1_555 1_555
C8 C7 1_555 1_555
C9 C4 1_555 1_555
H6 C9 1_555 1_555
C10 C1 1_555 1_555
H7 C10 1_555 1_555
C11 N1 1_555 1_555
C12 C11 1_555 1_555
H8 C12 1_555 1_555
C13 C12 1_555 1_555
H9 C13 1_555 1_555
H10 C13 1_555 1_555
C14 C12 1_555 1_555
H11 C14 1_555 1_555
H12 C14 1_555 1_555
C15 C1 1_555 1_555
C16 C15 1_555 1_555
H13 C16 1_555 1_555
C17 C16 1_555 1_555
H14 C17 1_555 1_555
C18 C17 1_555 1_555
H15 C18 1_555 1_555
C19 C18 1_555 1_555
H16 C19 1_555 1_555
C20 C15 1_555 1_555
H17 C20 1_555 1_555
C21 O3 1_555 1_555
H18 C21 1_555 1_555
H19 C21 1_555 1_555
H20 C21 1_555 1_555
C22 O4 1_555 1_555
H21 C22 1_555 1_555
H22 C22 1_555 1_555
H23 C22 1_555 1_555
C8 C9 1_555 1_555
C13 C14 1_555 1_555
C19 C20 1_555 1_555

#END
