
#######################################################################
#
#                 Cambridge Crystallographic Data Centre
#                                CCDC 
#
#######################################################################
#
# If this CIF has been generated from an entry in the Cambridge 
# Structural Database, then it will include bibliographic, chemical, 
# crystal, experimental, refinement or atomic coordinate data resulting 
# from the CCDC's data processing and validation procedures.
#
#######################################################################

data_QUJYEB
_chemical_name_common            1,8,13-tris(Dodecyloxy)triptycene
_chemical_formula_moiety         'C56 H86 O3'
_chemical_name_systematic        
3,13,16-tris(Dodecyloxy)pentacyclo[6.6.6.0^2,7^.0^9,14^.0^15,20^]icosa-2,4,6,9,11,13,15,17,19-nonaene
_symmetry_cell_setting           monoclinic
_symmetry_space_group_name_H-M   'P 21'
_symmetry_Int_Tables_number      4
_space_group_name_Hall           'P 2yb'
loop_
_symmetry_equiv_pos_site_id
_symmetry_equiv_pos_as_xyz
1 x,y,z
2 -x,1/2+y,-z
_cell_length_a                   13.9304(6)
_cell_length_b                   8.0204(3)
_cell_length_c                   22.1710(10)
_cell_angle_alpha                90
_cell_angle_beta                 100.280(7)
_cell_angle_gamma                90
_cell_volume                     2437.34
_exptl_crystal_colour            colorless
_exptl_crystal_description       platelet
_chemical_melting_point          '210 deg.C'
_cell_formula_units_Z            2
_exptl_crystal_recrystallization_method chloroform
loop_
_atom_site_label
_atom_site_type_symbol
_atom_site_fract_x
_atom_site_fract_y
_atom_site_fract_z
O1 O 0.56107(13) 0.8177(3) 0.94393(9)
O2 O 0.86177(13) 0.8266(3) 0.91552(8)
O3 O 0.71069(14) 0.3633(3) 0.91794(9)
C1 C 0.5862(2) 0.8144(5) 1.00663(13)
C2 C 0.5304(2) 0.8803(4) 1.04678(14)
C3 C 0.5628(2) 0.8672(5) 1.10946(15)
C4 C 0.6505(2) 0.7926(4) 1.13368(14)
C5 C 0.7064(2) 0.7280(4) 1.09277(14)
C6 C 0.8043(2) 0.6378(4) 1.10946(14)
C7 C 0.8753(2) 0.7331(4) 1.07718(14)
C8 C 0.9625(2) 0.8069(5) 1.10400(14)
C9 C 1.0182(2) 0.8910(5) 1.06684(14)
C10 C 0.9873(2) 0.8973(5) 1.00389(15)
C11 C 0.8994(2) 0.8245(4) 0.97751(13)
C12 C 0.8430(2) 0.7427(4) 1.01397(13)
C13 C 0.7446(2) 0.6585(4) 0.99285(14)
C14 C 0.6745(2) 0.7381(4) 1.02995(14)
C15 C 0.75795(19) 0.4809(4) 1.01482(14)
C16 C 0.74167(19) 0.3358(5) 0.97993(14)
C17 C 0.7558(2) 0.1809(4) 1.00695(15)
C18 C 0.7869(2) 0.1712(5) 1.07049(15)
C19 C 0.8042(2) 0.3118(5) 1.10595(15)
C20 C 0.78941(19) 0.4675(5) 1.07900(15)
C21 C 0.4665(2) 0.8838(5) 0.91753(14)
C22 C 0.4462(2) 0.8380(5) 0.85076(13)
C23 C 0.5173(2) 0.9037(5) 0.81186(14)
C24 C 0.4937(2) 0.8440(5) 0.74611(15)
C25 C 0.5594(2) 0.9043(5) 0.70305(14)
C26 C 0.5264(2) 0.8450(5) 0.63769(14)
C27 C 0.5879(2) 0.9034(5) 0.59143(15)
C28 C 0.5487(2) 0.8483(5) 0.52637(14)
C29 C 0.6080(2) 0.9052(5) 0.47907(14)
C30 C 0.5668(2) 0.8534(5) 0.41387(14)
C31 C 0.6253(2) 0.9115(5) 0.36653(14)
C32 C 0.5832(3) 0.8628(5) 0.30179(15)
C33 C 0.9214(2) 0.8988(5) 0.87630(13)
C34 C 0.8684(2) 0.8803(5) 0.81135(13)
C35 C 0.9227(2) 0.9600(5) 0.76511(14)
C36 C 0.8730(2) 0.9337(5) 0.69882(14)
C37 C 0.9300(2) 1.0002(5) 0.65169(14)
C38 C 0.8865(2) 0.9512(5) 0.58616(14)
C39 C 0.9464(2) 1.0082(5) 0.53917(14)
C40 C 0.9045(2) 0.9548(5) 0.47424(14)
C41 C 0.9631(2) 1.0116(5) 0.42637(15)
C42 C 0.9185(2) 0.9627(5) 0.36150(15)
C43 C 0.9737(3) 1.0296(6) 0.31280(17)
C44 C 0.9213(4) 0.9921(7) 0.24789(19)
C45 C 0.7090(3) 0.2200(5) 0.87805(15)
C46 C 0.6839(2) 0.2871(5) 0.81277(14)
C47 C 0.7556(2) 0.4140(5) 0.79767(15)
C48 C 0.7280(3) 0.4921(5) 0.73377(15)
C49 C 0.7349(2) 0.3782(5) 0.67961(13)
C50 C 0.7279(2) 0.4757(5) 0.61998(14)
C51 C 0.7427(2) 0.3727(5) 0.56467(13)
C52 C 0.7426(2) 0.4762(5) 0.50732(14)
C53 C 0.7614(2) 0.3788(5) 0.45215(13)
C54 C 0.7626(2) 0.4846(5) 0.39537(14)
C55 C 0.7842(2) 0.3881(5) 0.34060(14)
C56 C 0.7862(2) 0.4946(6) 0.28409(15)
H1 H 0.47025 0.93406 1.03142
H2 H 0.52352 0.91106 1.13656
H3 H 0.67203 0.78531 1.17673
H4 H 0.82725 0.63008 1.15475
H5 H 0.98417 0.80054 1.14707
H6 H 1.07735 0.94392 1.08489
H7 H 1.02634 0.95155 0.97879
H8 H 0.72137 0.66712 0.9476
H9 H 0.74449 0.0825 0.9829
H10 H 0.79636 0.06474 1.08944
H11 H 0.82625 0.30231 1.14891
H12 H 0.46607 1.00655 0.92227
H13 H 0.4157 0.83613 0.93851
H14 H 0.38021 0.87872 0.83288
H15 H 0.445 0.71485 0.84762
H16 H 0.51619 1.02713 0.81239
H17 H 0.58414 0.86731 0.83007
H18 H 0.42607 0.87842 0.72898
H19 H 0.49507 0.72062 0.74637
H20 H 0.62659 0.8642 0.71806
H21 H 0.56078 1.02774 0.70352
H22 H 0.45847 0.88283 0.62361
H23 H 0.52581 0.72153 0.63773
H24 H 0.59152 1.02669 0.59253
H25 H 0.65509 0.85994 0.60377
H26 H 0.48136 0.89111 0.51441
H27 H 0.54532 0.72505 0.52552
H28 H 0.61288 1.02833 0.48063
H29 H 0.67486 0.85984 0.49034
H30 H 0.56257 0.73024 0.41224
H31 H 0.49968 0.89777 0.40276
H32 H 0.63069 1.03455 0.3687
H33 H 0.69205 0.86525 0.37712
H34 H 0.51691 0.90762 0.29073
H35 H 0.5811 0.74096 0.29843
H36 H 0.62399 0.90798 0.27398
H37 H 0.98515 0.84105 0.88162
H38 H 0.93311 1.01813 0.88639
H39 H 0.80309 0.93217 0.80756
H40 H 0.85894 0.76023 0.8017
H41 H 0.98945 0.91302 0.77076
H42 H 0.92872 1.08123 0.77339
H43 H 0.86203 0.81279 0.69173
H44 H 0.80841 0.98868 0.6925
H45 H 0.99775 0.95793 0.66153
H46 H 0.9326 1.12329 0.65461
H47 H 0.87999 0.82837 0.58391
H48 H 0.82024 0.99946 0.57551
H49 H 0.95115 1.13131 0.5405
H50 H 1.01324 0.9628 0.55052
H51 H 0.83743 0.99941 0.46317
H52 H 0.90007 0.83162 0.47303
H53 H 0.96959 1.1345 0.42848
H54 H 1.02945 0.96352 0.43644
H55 H 0.85053 1.00426 0.35242
H56 H 0.91613 0.83954 0.35872
H57 H 0.98171 1.15176 0.31785
H58 H 1.03958 0.97907 0.31905
H59 H 0.85697 1.04558 0.24092
H60 H 0.91329 0.87128 0.24261
H61 H 0.95973 1.03529 0.21839
H62 H 0.65912 0.13875 0.88591
H63 H 0.77336 0.16414 0.88482
H64 H 0.68124 0.19271 0.78374
H65 H 0.6183 0.33843 0.8068
H66 H 0.82027 0.36014 0.8009
H67 H 0.76191 0.50415 0.82865
H68 H 0.66027 0.53398 0.72907
H69 H 0.77088 0.58961 0.73164
H70 H 0.79764 0.31722 0.68775
H71 H 0.68156 0.29508 0.67522
H72 H 0.66286 0.52918 0.61068
H73 H 0.7773 0.5657 0.62622
H74 H 0.80554 0.31255 0.57476
H75 H 0.69012 0.2883 0.55612
H76 H 0.67863 0.53249 0.4965
H77 H 0.79307 0.56389 0.51673
H78 H 0.71041 0.29228 0.44221
H79 H 0.82504 0.32123 0.46302
H80 H 0.6984 0.53973 0.38382
H81 H 0.81239 0.57315 0.40564
H82 H 0.7341 0.30023 0.33005
H83 H 0.84818 0.33217 0.35222
H84 H 0.7236 0.55241 0.27262
H85 H 0.79741 0.42326 0.25015
H86 H 0.83883 0.57686 0.2931
loop_
_geom_bond_atom_site_label_1
_geom_bond_atom_site_label_2
_geom_bond_site_symmetry_1
_geom_bond_site_symmetry_2
O1 C1 1_555 1_555
O2 C11 1_555 1_555
O3 C16 1_555 1_555
C1 C2 1_555 1_555
C2 C3 1_555 1_555
C3 C4 1_555 1_555
C4 C5 1_555 1_555
C5 C6 1_555 1_555
C6 C7 1_555 1_555
C7 C8 1_555 1_555
C8 C9 1_555 1_555
C9 C10 1_555 1_555
C10 C11 1_555 1_555
C11 C12 1_555 1_555
C12 C7 1_555 1_555
C13 C12 1_555 1_555
C14 C1 1_555 1_555
C15 C13 1_555 1_555
C16 C15 1_555 1_555
C17 C16 1_555 1_555
C18 C17 1_555 1_555
C19 C18 1_555 1_555
C20 C6 1_555 1_555
C21 O1 1_555 1_555
C22 C21 1_555 1_555
C23 C22 1_555 1_555
C24 C23 1_555 1_555
C25 C24 1_555 1_555
C26 C25 1_555 1_555
C27 C26 1_555 1_555
C28 C27 1_555 1_555
C29 C28 1_555 1_555
C30 C29 1_555 1_555
C31 C30 1_555 1_555
C32 C31 1_555 1_555
C33 O2 1_555 1_555
C34 C33 1_555 1_555
C35 C34 1_555 1_555
C36 C35 1_555 1_555
C37 C36 1_555 1_555
C38 C37 1_555 1_555
C39 C38 1_555 1_555
C40 C39 1_555 1_555
C41 C40 1_555 1_555
C42 C41 1_555 1_555
C43 C42 1_555 1_555
C44 C43 1_555 1_555
C45 O3 1_555 1_555
C46 C45 1_555 1_555
C47 C46 1_555 1_555
C48 C47 1_555 1_555
C49 C48 1_555 1_555
C50 C49 1_555 1_555
C51 C50 1_555 1_555
C52 C51 1_555 1_555
C53 C52 1_555 1_555
C54 C53 1_555 1_555
C55 C54 1_555 1_555
C56 C55 1_555 1_555
H1 C2 1_555 1_555
H2 C3 1_555 1_555
H3 C4 1_555 1_555
H4 C6 1_555 1_555
H5 C8 1_555 1_555
H6 C9 1_555 1_555
H7 C10 1_555 1_555
H8 C13 1_555 1_555
H9 C17 1_555 1_555
H10 C18 1_555 1_555
H11 C19 1_555 1_555
H12 C21 1_555 1_555
H13 C21 1_555 1_555
H14 C22 1_555 1_555
H15 C22 1_555 1_555
H16 C23 1_555 1_555
H17 C23 1_555 1_555
H18 C24 1_555 1_555
H19 C24 1_555 1_555
H20 C25 1_555 1_555
H21 C25 1_555 1_555
H22 C26 1_555 1_555
H23 C26 1_555 1_555
H24 C27 1_555 1_555
H25 C27 1_555 1_555
H26 C28 1_555 1_555
H27 C28 1_555 1_555
H28 C29 1_555 1_555
H29 C29 1_555 1_555
H30 C30 1_555 1_555
H31 C30 1_555 1_555
H32 C31 1_555 1_555
H33 C31 1_555 1_555
H34 C32 1_555 1_555
H35 C32 1_555 1_555
H36 C32 1_555 1_555
H37 C33 1_555 1_555
H38 C33 1_555 1_555
H39 C34 1_555 1_555
H40 C34 1_555 1_555
H41 C35 1_555 1_555
H42 C35 1_555 1_555
H43 C36 1_555 1_555
H44 C36 1_555 1_555
H45 C37 1_555 1_555
H46 C37 1_555 1_555
H47 C38 1_555 1_555
H48 C38 1_555 1_555
H49 C39 1_555 1_555
H50 C39 1_555 1_555
H51 C40 1_555 1_555
H52 C40 1_555 1_555
H53 C41 1_555 1_555
H54 C41 1_555 1_555
H55 C42 1_555 1_555
H56 C42 1_555 1_555
H57 C43 1_555 1_555
H58 C43 1_555 1_555
H59 C44 1_555 1_555
H60 C44 1_555 1_555
H61 C44 1_555 1_555
H62 C45 1_555 1_555
H63 C45 1_555 1_555
H64 C46 1_555 1_555
H65 C46 1_555 1_555
H66 C47 1_555 1_555
H67 C47 1_555 1_555
H68 C48 1_555 1_555
H69 C48 1_555 1_555
H70 C49 1_555 1_555
H71 C49 1_555 1_555
H72 C50 1_555 1_555
H73 C50 1_555 1_555
H74 C51 1_555 1_555
H75 C51 1_555 1_555
H76 C52 1_555 1_555
H77 C52 1_555 1_555
H78 C53 1_555 1_555
H79 C53 1_555 1_555
H80 C54 1_555 1_555
H81 C54 1_555 1_555
H82 C55 1_555 1_555
H83 C55 1_555 1_555
H84 C56 1_555 1_555
H85 C56 1_555 1_555
H86 C56 1_555 1_555
C5 C14 1_555 1_555
C13 C14 1_555 1_555
C15 C20 1_555 1_555
C19 C20 1_555 1_555

#END
