
#######################################################################
#
#                 Cambridge Crystallographic Data Centre
#                                CCDC 
#
#######################################################################
#
# If this CIF has been generated from an entry in the Cambridge 
# Structural Database, then it will include bibliographic, chemical, 
# crystal, experimental, refinement or atomic coordinate data resulting 
# from the CCDC's data processing and validation procedures.
#
#######################################################################

data_QUKBUU
_chemical_formula_moiety         'C17 H25 N1 O5'
_chemical_name_systematic        
4-(1,4,7,10-Tetraoxa-13-azacyclopentadecan-13-yl)benzaldehyde
_symmetry_cell_setting           monoclinic
_symmetry_space_group_name_H-M   'P 21/c'
_symmetry_Int_Tables_number      14
_space_group_name_Hall           '-P 2ybc'
loop_
_symmetry_equiv_pos_site_id
_symmetry_equiv_pos_as_xyz
1 x,y,z
2 -x,1/2+y,1/2-z
3 -x,-y,-z
4 x,1/2-y,1/2+z
_cell_length_a                   24.2125(7)
_cell_length_b                   15.3431(4)
_cell_length_c                   8.8104(3)
_cell_angle_alpha                90
_cell_angle_beta                 92.637(1)
_cell_angle_gamma                90
_cell_volume                     3269.55
_exptl_crystal_description       block
_cell_formula_units_Z            8
_exptl_crystal_recrystallization_method dichloromethane/hexane
loop_
_atom_site_label
_atom_site_type_symbol
_atom_site_fract_x
_atom_site_fract_y
_atom_site_fract_z
O1 O 0.22417(5) 0.54026(8) 0.42980(16)
O2 O 0.30346(5) 0.38750(8) 0.40849(15)
O3 O 0.24693(5) 0.24164(8) 0.27960(15)
O4 O 0.14624(5) 0.32620(8) 0.16589(16)
O5 O -0.04027(7) 0.38157(13) 0.9939(2)
N1 N 0.08613(6) 0.44236(10) 0.37228(18)
C1 C 0.05643(7) 0.41812(11) 0.4935(2)
C2 C 0.01082(7) 0.36013(12) 0.4761(2)
C3 C -0.02000(8) 0.33920(12) 0.5982(2)
C4 C -0.00800(7) 0.37374(12) 0.7428(2)
C5 C 0.03784(8) 0.42919(12) 0.7611(2)
C6 C 0.06993(7) 0.45002(12) 0.6418(2)
C7 C 0.13065(7) 0.50681(12) 0.3880(2)
C8 C 0.18660(7) 0.46942(12) 0.4390(2)
C9 C 0.27714(8) 0.52618(14) 0.5035(2)
C10 C 0.31645(8) 0.47743(13) 0.4060(2)
C11 C 0.32746(8) 0.33841(13) 0.2910(2)
C12 C 0.30547(8) 0.24651(14) 0.2985(2)
C13 C 0.22845(7) 0.24550(13) 0.1235(2)
C14 C 0.16652(8) 0.24450(12) 0.1144(2)
C15 C 0.08799(8) 0.32525(13) 0.1727(2)
C16 C 0.06862(8) 0.41478(13) 0.2184(2)
C17 C -0.04277(8) 0.35320(13) 0.8676(2)
H1 H -0.0712 0.3118 0.8461
H3 H 0.0019(8) 0.3379(11) 0.380(2)
H4 H -0.0515(9) 0.3022(13) 0.587(2)
H5 H 0.0471(9) 0.4520(13) 0.862(3)
H6 H 0.1018(9) 0.4856(13) 0.658(2)
H7 H 0.1192(8) 0.5539(13) 0.462(2)
H8 H 0.1343(8) 0.5345(13) 0.291(2)
H9 H 0.1864(7) 0.4492(12) 0.550(2)
H10 H 0.1966(7) 0.4219(12) 0.373(2)
H11 H 0.2724(8) 0.4973(13) 0.601(3)
H12 H 0.2911(8) 0.5841(14) 0.526(2)
H13 H 0.3131(9) 0.5011(13) 0.299(3)
H14 H 0.3546(9) 0.4895(13) 0.443(3)
H15 H 0.3678(9) 0.3388(13) 0.306(3)
H16 H 0.3178(7) 0.3660(11) 0.191(2)
H17 H 0.3231(8) 0.2108(13) 0.221(3)
H18 H 0.3149(8) 0.2206(12) 0.396(2)
H19 H 0.2418(8) 0.1943(13) 0.074(2)
H20 H 0.2418(8) 0.2988(13) 0.078(2)
H21 H 0.1533(8) 0.2342(12) 0.016(3)
H22 H 0.1516(8) 0.1950(13) 0.184(2)
H23 H 0.0760(8) 0.2788(13) 0.251(2)
H24 H 0.0714(8) 0.3094(12) 0.074(2)
H25 H 0.0833(8) 0.4583(13) 0.145(2)
H26 H 0.0281(9) 0.4156(13) 0.210(2)
O6 O 0.28629(5) 0.46492(8) 0.97196(17)
O7 O 0.18862(5) 0.54456(9) 0.79420(16)
O8 O 0.24299(5) 0.70848(8) 0.79719(16)
O9 O 0.35229(5) 0.69504(8) 0.70377(16)
O10 O 0.54499(6) 0.61903(10) 1.53095(17)
N2 N 0.41879(6) 0.56115(10) 0.87622(18)
C18 C 0.44997(7) 0.58226(11) 1.0040(2)
C19 C 0.49549(7) 0.64058(12) 0.9986(2)
C20 C 0.52643(8) 0.66117(12) 1.1276(2)
C21 C 0.51521(7) 0.62587(12) 1.2690(2)
C22 C 0.47049(7) 0.56802(12) 1.2760(2)
C23 C 0.43856(7) 0.54756(12) 1.1486(2)
C24 C 0.37348(7) 0.49845(12) 0.8816(2)
C25 C 0.31987(7) 0.53724(12) 0.9348(2)
C26 C 0.23369(8) 0.48775(13) 1.0279(2)
C27 C 0.18780(8) 0.47849(13) 0.9078(2)
C28 C 0.16376(9) 0.62414(14) 0.8388(3)
C29 C 0.18701(9) 0.69704(15) 0.7483(3)
C30 C 0.26910(9) 0.77599(13) 0.7176(3)
C31 C 0.32975(8) 0.77373(13) 0.7598(3)
C32 C 0.41104(8) 0.69404(14) 0.7154(3)
C33 C 0.43038(8) 0.60055(13) 0.7296(2)
C34 C 0.54955(8) 0.64741(12) 1.4027(2)
H2 H 0.5786 0.6878 1.3892
H27 H 0.5059(9) 0.6641(14) 0.896(3)
H28 H 0.5581(8) 0.7007(13) 1.123(2)
H29 H 0.4628(8) 0.5430(13) 1.372(3)
H30 H 0.4077(8) 0.5079(12) 1.160(2)
H31 H 0.3842(8) 0.4488(13) 0.950(2)
H32 H 0.3666(9) 0.4754(13) 0.779(3)
H33 H 0.3257(9) 0.5721(14) 1.025(3)
H34 H 0.3006(8) 0.5737(13) 0.857(2)
H35 H 0.2365(8) 0.5495(13) 1.074(2)
H36 H 0.2267(9) 0.4463(14) 1.113(3)
H37 H 0.1951(8) 0.4204(14) 0.854(2)
H38 H 0.1519(9) 0.4786(13) 0.957(3)
H39 H 0.1721(8) 0.6327(13) 0.952(3)
H40 H 0.1238(9) 0.6192(13) 0.819(3)
H41 H 0.1849(9) 0.6818(13) 0.640(3)
H42 H 0.1665(9) 0.7512(14) 0.766(3)
H43 H 0.2515(10) 0.8325(15) 0.744(3)
H44 H 0.2626(8) 0.7675(13) 0.605(3)
H45 H 0.3476(8) 0.8258(13) 0.711(2)
H46 H 0.3368(11) 0.7789(16) 0.877(3)
H47 H 0.4249(8) 0.7311(13) 0.802(3)
H48 H 0.4260(9) 0.7206(13) 0.611(3)
H49 H 0.4106(8) 0.5681(12) 0.651(2)
H50 H 0.4702(9) 0.5987(12) 0.709(2)
H51? H -0.0308 0.3801 0.9619
H52? H 0.5421 0.6225 1.4996
O11? O -0.0802(3) 0.3127(5) 0.8758(8)
O12? O 0.5891(12) 0.694(2) 1.394(4)
loop_
_geom_bond_atom_site_label_1
_geom_bond_atom_site_label_2
_geom_bond_site_symmetry_1
_geom_bond_site_symmetry_2
O1 C8 1_555 1_555
O2 C10 1_555 1_555
O3 C12 1_555 1_555
O4 C14 1_555 1_555
O5 C17 1_555 1_555
O6 C25 1_555 1_555
O7 C27 1_555 1_555
O8 C29 1_555 1_555
O9 C31 1_555 1_555
O10 C34 1_555 1_555
N1 C1 1_555 1_555
N2 C18 1_555 1_555
C1 C2 1_555 1_555
C2 C3 1_555 1_555
C3 C4 1_555 1_555
C4 C5 1_555 1_555
C5 C6 1_555 1_555
C6 C1 1_555 1_555
C7 N1 1_555 1_555
C8 C7 1_555 1_555
C9 O1 1_555 1_555
C10 C9 1_555 1_555
C11 O2 1_555 1_555
C12 C11 1_555 1_555
C13 O3 1_555 1_555
C14 C13 1_555 1_555
C15 O4 1_555 1_555
C16 N1 1_555 1_555
C17 C4 1_555 1_555
H1 C17 1_555 1_555
C18 C19 1_555 1_555
C19 C20 1_555 1_555
C20 C21 1_555 1_555
C21 C22 1_555 1_555
C22 C23 1_555 1_555
C23 C18 1_555 1_555
C24 N2 1_555 1_555
C25 C24 1_555 1_555
C26 O6 1_555 1_555
C27 C26 1_555 1_555
C28 O7 1_555 1_555
C29 C28 1_555 1_555
C30 O8 1_555 1_555
C31 C30 1_555 1_555
C32 O9 1_555 1_555
C33 N2 1_555 1_555
C34 C21 1_555 1_555
H2 C34 1_555 1_555
H3 C2 1_555 1_555
H4 C3 1_555 1_555
H5 C5 1_555 1_555
H6 C6 1_555 1_555
H7 C7 1_555 1_555
H8 C7 1_555 1_555
H9 C8 1_555 1_555
H10 C8 1_555 1_555
H11 C9 1_555 1_555
H12 C9 1_555 1_555
H13 C10 1_555 1_555
H14 C10 1_555 1_555
H15 C11 1_555 1_555
H16 C11 1_555 1_555
H17 C12 1_555 1_555
H18 C12 1_555 1_555
H19 C13 1_555 1_555
H20 C13 1_555 1_555
H21 C14 1_555 1_555
H22 C14 1_555 1_555
H23 C15 1_555 1_555
H24 C15 1_555 1_555
H25 C16 1_555 1_555
H26 C16 1_555 1_555
H27 C19 1_555 1_555
H28 C20 1_555 1_555
H29 C22 1_555 1_555
H30 C23 1_555 1_555
H31 C24 1_555 1_555
H32 C24 1_555 1_555
H33 C25 1_555 1_555
H34 C25 1_555 1_555
H35 C26 1_555 1_555
H36 C26 1_555 1_555
H37 C27 1_555 1_555
H38 C27 1_555 1_555
H39 C28 1_555 1_555
H40 C28 1_555 1_555
H41 C29 1_555 1_555
H42 C29 1_555 1_555
H43 C30 1_555 1_555
H44 C30 1_555 1_555
H45 C31 1_555 1_555
H46 C31 1_555 1_555
H47 C32 1_555 1_555
H48 C32 1_555 1_555
H49 C33 1_555 1_555
H50 C33 1_555 1_555
C15 C16 1_555 1_555
C32 C33 1_555 1_555

#END
