
#######################################################################
#
#                 Cambridge Crystallographic Data Centre
#                                CCDC 
#
#######################################################################
#
# If this CIF has been generated from an entry in the Cambridge 
# Structural Database, then it will include bibliographic, chemical, 
# crystal, experimental, refinement or atomic coordinate data resulting 
# from the CCDC's data processing and validation procedures.
#
#######################################################################

data_QUKBAA
_chemical_name_common            
N-Butyl-7-(diethylamino)coumarin-3-carboxamide
_chemical_formula_moiety         'C18 H24 N2 O3'
_chemical_name_systematic        
N-Butyl-7-(diethylamino)-2-oxo-2H-chromene-3-carboxamide
_symmetry_cell_setting           monoclinic
_symmetry_space_group_name_H-M   'C 2/c'
_symmetry_Int_Tables_number      15
_space_group_name_Hall           '-C 2yn'
loop_
_symmetry_equiv_pos_site_id
_symmetry_equiv_pos_as_xyz
1 x,y,z
2 -x,y,1/2-z
3 1/2+x,1/2+y,z
4 1/2-x,1/2+y,1/2-z
5 -x,-y,-z
6 x,-y,1/2+z
7 1/2-x,1/2-y,-z
8 1/2+x,1/2-y,1/2+z
_cell_length_a                   22.603(6)
_cell_length_b                   9.002(4)
_cell_length_c                   18.276(5)
_cell_angle_alpha                90
_cell_angle_beta                 109.532(7)
_cell_angle_gamma                90
_cell_volume                     3504.67
_chemical_melting_point          '107-109 deg.C'
_cell_formula_units_Z            8
_exptl_crystal_recrystallization_method methanol
loop_
_atom_site_label
_atom_site_type_symbol
_atom_site_fract_x
_atom_site_fract_y
_atom_site_fract_z
C1 C -0.0968(4) 1.5101(10) -0.1683(7)
H1 H -0.1199 1.4559 -0.2142
H2 H -0.1142 1.6080 -0.1706
H3 H -0.0996 1.4592 -0.1233
C2 C -0.0303(4) 1.5212(8) -0.1631(5)
H4 H -0.0089 1.5942 -0.1242
H5 H -0.0276 1.5528 -0.2127
C3 C 0.0015(5) 1.3661(8) -0.1407(5)
H6 H -0.0295 1.2891 -0.1621
H7 H 0.0342 1.3554 -0.1638
C4 C 0.0280(2) 1.3453(6) -0.0601(4)
H8 H -0.0050 1.3514 -0.0372
H9 H 0.0576 1.4249 -0.0383
C5 C 0.1220(2) 1.1851(5) -0.0243(3)
C6 C 0.15116(18) 1.0404(4) 0.0088(2)
C7 C 0.21418(18) 1.0256(4) 0.0315(2)
H10 H 0.2377 1.1037 0.0223
C8 C 0.24592(18) 0.8967(4) 0.0687(2)
C9 C 0.31126(18) 0.8760(5) 0.0956(3)
H11 H 0.3369 0.9496 0.0867
C10 C 0.3378(2) 0.7507(5) 0.1343(3)
H12 H 0.3812 0.7402 0.1510
C11 C 0.3010(2) 0.6366(5) 0.1496(3)
C12 C 0.2357(2) 0.6558(5) 0.1211(3)
H13 H 0.2096 0.5819 0.1286
C13 C 0.21037(18) 0.7821(4) 0.0824(2)
C14 C 0.1139(2) 0.9164(5) 0.0188(3)
C15 C 0.3947(2) 0.4836(6) 0.2166(4)
H14 H 0.4120 0.5234 0.1788
H15 H 0.4014 0.3770 0.2192
C16 C 0.4289(3) 0.5500(8) 0.2945(4)
H16 H 0.4283 0.6564 0.2903
H17 H 0.4715 0.5157 0.3122
H18 H 0.4087 0.5206 0.3308
C17 C 0.2904(3) 0.4140(7) 0.2273(4)
H19 H 0.3174 0.3709 0.2755
H20 H 0.2573 0.4700 0.2375
C18 C 0.2638(4) 0.2971(7) 0.1681(5)
H21 H 0.2389 0.3426 0.1202
H22 H 0.2381 0.2314 0.1859
H23 H 0.2974 0.2418 0.1599
N1 N 0.06052(16) 1.2014(4) -0.0391(3)
H24 H 0.0388 1.1246 -0.0362
N2 N 0.3279(2) 0.5128(5) 0.1907(3)
O1 O 0.14569(12) 0.7928(3) 0.05638(19)
O2 O 0.05741(14) 0.9073(4) -0.0020(2)
O3 O 0.15506(14) 1.2857(3) -0.0342(2)
loop_
_geom_bond_atom_site_label_1
_geom_bond_atom_site_label_2
_geom_bond_site_symmetry_1
_geom_bond_site_symmetry_2
C1 H1 1_555 1_555
H2 C1 1_555 1_555
H3 C1 1_555 1_555
C2 C1 1_555 1_555
H4 C2 1_555 1_555
H5 C2 1_555 1_555
C3 C2 1_555 1_555
H6 C3 1_555 1_555
H7 C3 1_555 1_555
C4 C3 1_555 1_555
H8 C4 1_555 1_555
H9 C4 1_555 1_555
C5 C6 1_555 1_555
C6 C7 1_555 1_555
C7 H10 1_555 1_555
C8 C7 1_555 1_555
C9 C8 1_555 1_555
H11 C9 1_555 1_555
C10 C9 1_555 1_555
H12 C10 1_555 1_555
C11 C10 1_555 1_555
C12 C11 1_555 1_555
H13 C12 1_555 1_555
C13 C8 1_555 1_555
C14 C6 1_555 1_555
C15 H14 1_555 1_555
H15 C15 1_555 1_555
C16 C15 1_555 1_555
H16 C16 1_555 1_555
H17 C16 1_555 1_555
H18 C16 1_555 1_555
C17 H19 1_555 1_555
H20 C17 1_555 1_555
C18 C17 1_555 1_555
H21 C18 1_555 1_555
H22 C18 1_555 1_555
H23 C18 1_555 1_555
N1 C4 1_555 1_555
H24 N1 1_555 1_555
N2 C11 1_555 1_555
O1 C13 1_555 1_555
O2 C14 1_555 1_555
O3 C5 1_555 1_555
C5 N1 1_555 1_555
C12 C13 1_555 1_555
C14 O1 1_555 1_555
C15 N2 1_555 1_555
C17 N2 1_555 1_555

#END
