
#######################################################################
#
#                 Cambridge Crystallographic Data Centre
#                                CCDC 
#
#######################################################################
#
# If this CIF has been generated from an entry in the Cambridge 
# Structural Database, then it will include bibliographic, chemical, 
# crystal, experimental, refinement or atomic coordinate data resulting 
# from the CCDC's data processing and validation procedures.
#
#######################################################################

data_QUKCEF
_chemical_formula_moiety         'C15 H21 N1 O6,C1 H2 Cl2'
_chemical_name_systematic        
'2,3,5,6,8,9,12,13-Octahydro-11H-1,4,7,10,13-benzotetraoxazacyclopentadecine-16-carboxylic acid dichloromethane solvate'
_symmetry_cell_setting           triclinic
_symmetry_space_group_name_H-M   'P -1'
_symmetry_Int_Tables_number      2
_space_group_name_Hall           '-P 1'
loop_
_symmetry_equiv_pos_site_id
_symmetry_equiv_pos_as_xyz
1 x,y,z
2 -x,-y,-z
_cell_length_a                   8.3696(7)
_cell_length_b                   11.1611(10)
_cell_length_c                   11.7965(10)
_cell_angle_alpha                106.926(2)
_cell_angle_beta                 109.505(2)
_cell_angle_gamma                104.921(2)
_cell_volume                     913.628
_exptl_crystal_colour            colorless
_exptl_crystal_description       block
_cell_formula_units_Z            2
_exptl_crystal_recrystallization_method dichloromethane/hexane
loop_
_atom_site_label
_atom_site_type_symbol
_atom_site_fract_x
_atom_site_fract_y
_atom_site_fract_z
Cl1 Cl 0.42181(9) 0.80263(7) 0.12375(7)
Cl2 Cl 0.78417(10) 0.87463(8) 0.33116(9)
C16 C 0.5480(4) 0.7752(3) 0.2595(3)
H22 H 0.519(5) 0.687(4) 0.228(3)
H23 H 0.510(5) 0.809(4) 0.330(4)
O1 O 0.6687(2) 0.62930(17) 0.46829(17)
O2 O 0.5473(2) 0.47900(17) 0.19843(17)
O3 O 0.1940(2) 0.49004(18) 0.15074(18)
O4 O 0.1427(2) 0.65764(18) 0.36229(17)
O5 O 1.3330(2) 0.86527(18) 0.85313(18)
O6 O 1.3062(4) 1.0358(3) 0.9917(3)
H1 H 1.4182 1.0546 1.0364
N1 N 0.4995(3) 0.7820(2) 0.5333(2)
C1 C 0.3736(4) 0.8397(3) 0.5634(3)
C2 C 0.6765(3) 0.8189(2) 0.6234(2)
C3 C 0.7657(3) 0.9299(3) 0.7446(2)
C4 C 0.9502(3) 0.9653(2) 0.8277(3)
C5 C 1.0465(3) 0.8889(2) 0.7920(2)
C6 C 0.9558(3) 0.7735(2) 0.6692(2)
C7 C 0.7741(3) 0.7387(2) 0.5873(2)
C8 C 0.7513(3) 0.5403(2) 0.4214(3)
C9 C 0.6017(4) 0.4260(2) 0.2934(3)
C10 C 0.3817(4) 0.3856(3) 0.0814(3)
C11 C 0.2087(4) 0.3628(3) 0.1022(3)
C12 C 0.0213(3) 0.4739(3) 0.1534(3)
C13 C 0.0274(4) 0.6111(3) 0.2250(3)
C14 C 0.2104(4) 0.8013(3) 0.4350(3)
C15 C 1.2400(3) 0.9273(2) 0.8789(2)
H2 H 0.454(4) 0.702(3) 0.472(3)
H3 H 0.428(4) 0.931(3) 0.607(3)
H4 H 0.329(4) 0.816(3) 0.624(3)
H5 H 0.702(5) 0.982(4) 0.775(3)
H6 H 1.023(5) 1.045(4) 0.903(4)
H7 H 1.032(4) 0.717(3) 0.642(3)
H8 H 0.803(5) 0.498(3) 0.498(3)
H9 H 0.863(4) 0.597(3) 0.418(3)
H10 H 0.654(4) 0.366(3) 0.275(3)
H11 H 0.503(4) 0.379(3) 0.310(3)
H12 H 0.392(4) 0.292(4) 0.046(3)
H13 H 0.373(4) 0.423(3) 0.016(3)
H14 H 0.099(4) 0.301(3) 0.009(3)
H15 H 0.213(4) 0.325(3) 0.165(3)
H16 H -0.016(4) 0.413(3) 0.201(3)
H17 H -0.061(5) 0.438(4) 0.070(4)
H18 H 0.072(4) 0.675(3) 0.195(3)
H19 H -0.097(5) 0.610(3) 0.211(3)
H20 H 0.114(4) 0.828(3) 0.459(3)
H21 H 0.250(4) 0.846(3) 0.382(3)
loop_
_geom_bond_atom_site_label_1
_geom_bond_atom_site_label_2
_geom_bond_site_symmetry_1
_geom_bond_site_symmetry_2
Cl1 C16 1_555 1_555
Cl2 C16 1_555 1_555
O1 C7 1_555 1_555
O2 C9 1_555 1_555
O3 C11 1_555 1_555
O4 C13 1_555 1_555
O5 C15 1_555 1_555
O6 H1 1_555 1_555
N1 C1 1_555 1_555
C1 C14 1_555 1_555
C2 N1 1_555 1_555
C3 C2 1_555 1_555
C4 C3 1_555 1_555
C5 C4 1_555 1_555
C6 C5 1_555 1_555
C7 C2 1_555 1_555
C8 O1 1_555 1_555
C9 C8 1_555 1_555
C10 O2 1_555 1_555
C11 C10 1_555 1_555
C12 O3 1_555 1_555
C13 C12 1_555 1_555
C14 O4 1_555 1_555
C15 O6 1_555 1_555
C16 H22 1_555 1_555
H2 N1 1_555 1_555
H3 C1 1_555 1_555
H4 C1 1_555 1_555
H5 C3 1_555 1_555
H6 C4 1_555 1_555
H7 C6 1_555 1_555
H8 C8 1_555 1_555
H9 C8 1_555 1_555
H10 C9 1_555 1_555
H11 C9 1_555 1_555
H12 C10 1_555 1_555
H13 C10 1_555 1_555
H14 C11 1_555 1_555
H15 C11 1_555 1_555
H16 C12 1_555 1_555
H17 C12 1_555 1_555
H18 C13 1_555 1_555
H19 C13 1_555 1_555
H20 C14 1_555 1_555
H21 C14 1_555 1_555
H23 C16 1_555 1_555
C5 C15 1_555 1_555
C6 C7 1_555 1_555

#END
