
#######################################################################
#
#                 Cambridge Crystallographic Data Centre
#                                CCDC 
#
#######################################################################
#
# If this CIF has been generated from an entry in the Cambridge 
# Structural Database, then it will include bibliographic, chemical, 
# crystal, experimental, refinement or atomic coordinate data resulting 
# from the CCDC's data processing and validation procedures.
#
#######################################################################

data_QUKGAF
_chemical_formula_moiety         'C72 H78 F6 N6 Na2 O24 S2'
_chemical_name_systematic        
(\m~2~-2-(2-((2-(((6-(((2-(2-((5-(2-(Methoxy)ethoxy)-1-naphthyl)oxy)ethoxy)ethyl)imino)methyl)pyridin-2-yl)methyl)oxy)ethyl)oxy)ethyl)-7-(2-((2-(((6-(((2-(2-((5-(2-(methoxy)ethoxy)-1-naphthyl)oxy)ethoxy)ethyl)imino)methyl)pyridin-2-yl)methyl)oxy)ethyl)oxy)ethyl)benzo[lmn][3,8]phenanthroline-1,3,6,8(2H,7H)-tetrone)-diaqua-bis(trifluoromethanesulfonato-O)-di-sodium
_symmetry_cell_setting           triclinic
_symmetry_space_group_name_H-M   'P -1'
_symmetry_Int_Tables_number      2
_space_group_name_Hall           '-P 1'
loop_
_symmetry_equiv_pos_site_id
_symmetry_equiv_pos_as_xyz
1 x,y,z
2 -x,-y,-z
_cell_length_a                   9.4185(8)
_cell_length_b                   11.2053(15)
_cell_length_c                   19.525(3)
_cell_angle_alpha                82.785(4)
_cell_angle_beta                 79.497(7)
_cell_angle_gamma                68.680(6)
_cell_volume                     1883.47
_exptl_crystal_colour            red
_exptl_crystal_description       prism
_cell_formula_units_Z            1
loop_
_atom_site_label
_atom_site_type_symbol
_atom_site_fract_x
_atom_site_fract_y
_atom_site_fract_z
C1 C 0.9697(11) 0.2509(17) -0.1532(9)
H1 H 1.0325 0.1920 -0.1205
H2 H 0.9671 0.3372 -0.1496
C2 C 0.7656(11) 0.2048(9) -0.0754(8)
C3 C 0.8509(11) 0.1692(10) -0.0211(10)
H3 H 0.9504 0.1712 -0.0285
C4 C 0.7912(12) 0.1306(9) 0.0442(7)
H4 H 0.8525 0.1061 0.0795
C5 C 0.6473(10) 0.1270(7) 0.0586(5)
H5 H 0.6090 0.1025 0.1033
C6 C 0.5550(8) 0.1614(6) 0.0042(5)
C7 C 0.3980(8) 0.1613(7) 0.0160(5)
C8 C 0.3121(9) 0.1968(8) -0.0377(6)
H6 H 0.2125 0.1951 -0.0308
C9 C 0.3768(12) 0.2358(8) -0.1034(5)
H7 H 0.3175 0.2613 -0.1395
C10 C 0.5182(12) 0.2374(8) -0.1159(5)
H8 H 0.5569 0.2631 -0.1603
C11 C 0.6118(8) 0.2004(7) -0.0625(6)
C12 C 0.1993(9) 0.1307(8) 0.1015(5)
H9 H 0.1792 0.0762 0.0725
H10 H 0.1308 0.2181 0.0931
C13 C 0.1678(10) 0.0881(10) 0.1768(6)
H11 H 0.0660 0.0816 0.1862
H12 H 0.2420 0.0033 0.1856
C14 C 0.3142(11) 0.1355(9) 0.2470(6)
H13 H 0.3734 0.1872 0.2227
H14 H 0.3732 0.0462 0.2386
C15 C 0.2843(12) 0.1539(12) 0.3258(6)
H15 H 0.2084 0.1162 0.3484
H16 H 0.3790 0.1086 0.3452
C16 C 0.0961(12) 0.3357(13) 0.3726(5)
H17 H 0.0352 0.2846 0.3832
C17 C 0.0318(11) 0.4666(16) 0.3932(4)
C18 C -0.1158(13) 0.5088(18) 0.4308(5)
H18 H -0.1744 0.4559 0.4417
C19 C -0.1704(18) 0.632(2) 0.4509(8)
H19 H -0.2692 0.6630 0.4757
C20 C -0.0870(19) 0.7092(19) 0.4362(7)
H20 H -0.1268 0.7926 0.4506
C21 C 0.0681(14) 0.6590(16) 0.3970(6)
C22 C 0.171(2) 0.7400(13) 0.3776(7)
H21 H 0.1320 0.8067 0.3420
H22 H 0.1744 0.7802 0.4182
C23 C 0.411(2) 0.7313(13) 0.3314(7)
H23 H 0.3950 0.7924 0.3655
H24 H 0.3878 0.7785 0.2872
C24 C 0.5769(17) 0.6397(14) 0.3232(6)
H25 H 0.6458 0.6867 0.3052
H26 H 0.6027 0.5977 0.3681
C25 C 0.7465(12) 0.4764(11) 0.2537(5)
H27 H 0.8000 0.4435 0.2938
H28 H 0.7948 0.5319 0.2244
C26 C 0.7581(8) 0.3657(9) 0.2128(4)
H29 H 0.8659 0.3163 0.1988
H30 H 0.7120 0.3096 0.2429
C27 C 0.5291(7) 0.4105(6) 0.1566(4)
C28 C 0.7660(8) 0.4439(6) 0.0887(3)
C29 C 0.3128(7) 0.4446(6) 0.0946(3)
H31 H 0.2612 0.4200 0.1360
C30 C 0.4558(7) 0.4464(6) 0.0927(3)
C31 C 0.5353(6) 0.4833(5) 0.0298(3)
C32 C 0.6866(6) 0.4839(5) 0.0264(3)
C33 C 0.7587(6) 0.5203(6) -0.0345(4)
H32 H 0.8573 0.5220 -0.0365
N1 N 0.2295(9) 0.2885(9) 0.3412(4)
N2 N 0.1229(10) 0.5411(11) 0.3762(4)
N3 N 0.6809(6) 0.4088(5) 0.1500(3)
O1 O 0.8097(8) 0.2440(8) -0.1434(5)
O2 O 0.3543(5) 0.1248(5) 0.0830(3)
O3 O 0.1756(7) 0.1716(7) 0.2224(3)
O4 O 0.3129(11) 0.6600(7) 0.3534(4)
O5 O 0.5938(8) 0.5452(6) 0.2754(3)
O6 O 0.4633(5) 0.3836(5) 0.2122(2)
O7 O 0.8934(5) 0.4409(5) 0.0897(2)
Na1 Na 0.3897(3) 0.4337(3) 0.33015(14)
C34 C 0.6429(13) 0.0860(9) 0.4666(5)
O8 O 0.5891(14) 0.2628(13) 0.3689(6)
O9 O 0.8545(12) 0.1194(14) 0.3720(7)
O10 O 0.7294(19) 0.2794(12) 0.4586(7)
S1 S 0.7125(10) 0.2015(9) 0.4091(4)
F1 F 0.6341(19) -0.0030(11) 0.4310(8)
F2 F 0.735(2) 0.0281(14) 0.5133(6)
F3 F 0.5038(16) 0.1429(11) 0.5006(9)
O14 O 1.1956(18) 0.181(2) -0.2438(10)
C36 C 1.235(3) 0.039(2) -0.2528(12)
H33 H 1.3441 -0.0013 -0.2641
H34 H 1.1853 0.0300 -0.2897
H35 H 1.1987 -0.0008 -0.2101
C37 C 1.0232(18) 0.209(2) -0.2275(7)
H36 H 1.0009 0.1324 -0.2318
H37 H 0.9700 0.2762 -0.2599
O16 O 0.468(2) 0.438(3) 0.4527(11)
C1A C 0.0303(11) 0.7491(17) 0.1532(9)
H1A H -0.0325 0.8080 0.1205
H2A H 0.0329 0.6628 0.1496
C2A C 0.2344(11) 0.7952(9) 0.0754(8)
C3A C 0.1491(11) 0.8308(10) 0.0211(10)
H3A H 0.0496 0.8288 0.0285
C4A C 0.2088(12) 0.8694(9) -0.0442(7)
H4A H 0.1475 0.8939 -0.0795
C5A C 0.3527(10) 0.8730(7) -0.0586(5)
H5A H 0.3910 0.8975 -0.1033
C6A C 0.4450(8) 0.8386(6) -0.0042(5)
C7A C 0.6020(8) 0.8387(7) -0.0160(5)
C8A C 0.6879(9) 0.8032(8) 0.0377(6)
H6A H 0.7875 0.8049 0.0308
C9A C 0.6232(12) 0.7642(8) 0.1034(5)
H7A H 0.6825 0.7387 0.1395
C10A C 0.4818(12) 0.7626(8) 0.1159(5)
H8A H 0.4431 0.7369 0.1603
C11A C 0.3882(8) 0.7996(7) 0.0625(6)
C12A C 0.8007(9) 0.8693(8) -0.1015(5)
H9A H 0.8208 0.9238 -0.0725
H10A H 0.8692 0.7819 -0.0931
C13A C 0.8322(10) 0.9119(10) -0.1768(6)
H11A H 0.9340 0.9184 -0.1862
H12A H 0.7580 0.9967 -0.1856
C14A C 0.6858(11) 0.8645(9) -0.2470(6)
H13A H 0.6266 0.8128 -0.2227
H14A H 0.6268 0.9538 -0.2386
C15A C 0.7157(12) 0.8461(12) -0.3258(6)
H15A H 0.7916 0.8838 -0.3484
H16A H 0.6210 0.8914 -0.3452
C16A C 0.9039(12) 0.6643(13) -0.3726(5)
H17A H 0.9648 0.7154 -0.3832
C17A C 0.9682(11) 0.5334(16) -0.3932(4)
C18A C 1.1158(13) 0.4912(18) -0.4308(5)
H18A H 1.1744 0.5441 -0.4417
C19A C 1.1704(18) 0.368(2) -0.4509(8)
H19A H 1.2692 0.3370 -0.4757
C20A C 1.0870(19) 0.2908(19) -0.4362(7)
H20A H 1.1268 0.2074 -0.4506
C21A C 0.9319(14) 0.3410(16) -0.3970(6)
C22A C 0.829(2) 0.2600(13) -0.3776(7)
H21A H 0.8680 0.1933 -0.3420
H22A H 0.8256 0.2198 -0.4182
C23A C 0.589(2) 0.2687(13) -0.3314(7)
H23A H 0.6050 0.2076 -0.3655
H24A H 0.6122 0.2215 -0.2872
C24A C 0.4231(17) 0.3603(14) -0.3232(6)
H25A H 0.3542 0.3133 -0.3052
H26A H 0.3973 0.4023 -0.3681
C25A C 0.2535(12) 0.5236(11) -0.2537(5)
H27A H 0.2000 0.5565 -0.2938
H28A H 0.2052 0.4681 -0.2244
C26A C 0.2419(8) 0.6343(9) -0.2128(4)
H29A H 0.1341 0.6837 -0.1988
H30A H 0.2880 0.6904 -0.2429
C27A C 0.4709(7) 0.5895(6) -0.1566(4)
C28A C 0.2340(8) 0.5561(6) -0.0887(3)
C29A C 0.6872(7) 0.5554(6) -0.0946(3)
H31A H 0.7388 0.5800 -0.1360
C30A C 0.5442(7) 0.5536(6) -0.0927(3)
C31A C 0.4647(6) 0.5167(5) -0.0298(3)
C32A C 0.3134(6) 0.5161(5) -0.0264(3)
C33A C 0.2413(6) 0.4797(6) 0.0345(4)
H32A H 0.1427 0.4780 0.0365
N1A N 0.7705(9) 0.7115(9) -0.3412(4)
N2A N 0.8771(10) 0.4589(11) -0.3762(4)
N3A N 0.3191(6) 0.5912(5) -0.1500(3)
O1A O 0.1903(8) 0.7560(8) 0.1434(5)
O2A O 0.6457(5) 0.8752(5) -0.0830(3)
O3A O 0.8244(7) 0.8284(7) -0.2224(3)
O4A O 0.6871(11) 0.3400(7) -0.3534(4)
O5A O 0.4062(8) 0.4548(6) -0.2754(3)
O6A O 0.5367(5) 0.6164(5) -0.2122(2)
O7A O 0.1066(5) 0.5591(5) -0.0897(2)
Na1A Na 0.6103(3) 0.5663(3) -0.33015(14)
C34A C 0.3571(13) 0.9140(9) -0.4666(5)
O8A O 0.4109(14) 0.7372(13) -0.3689(6)
O9A O 0.1455(12) 0.8806(14) -0.3720(7)
O10A O 0.2706(19) 0.7206(12) -0.4586(7)
S1A S 0.2875(10) 0.7985(9) -0.4091(4)
F1A F 0.3659(19) 1.0030(11) -0.4310(8)
F2A F 0.265(2) 0.9719(14) -0.5133(6)
F3A F 0.4962(16) 0.8571(11) -0.5006(9)
O14A O -0.1956(18) 0.819(2) 0.2438(10)
C36A C -0.235(3) 0.961(2) 0.2528(12)
H33A H -0.3441 1.0013 0.2641
H34A H -0.1853 0.9700 0.2897
H35A H -0.1987 1.0008 0.2101
C37A C -0.0232(18) 0.791(2) 0.2275(7)
H36A H -0.0009 0.8676 0.2318
H37A H 0.0300 0.7238 0.2599
O16A O 0.532(2) 0.562(3) -0.4527(11)
S2? S 0.6408(9) 0.2543(10) 0.4372(5)
O11? O 0.544(2) 0.241(2) 0.5019(8)
C35? C 0.764(2) 0.0881(12) 0.4229(9)
O12? O 0.565(3) 0.292(2) 0.3761(9)
O13? O 0.751(2) 0.314(2) 0.4415(17)
F4? F 0.682(4) 0.0164(14) 0.4178(13)
F5? F 0.844(3) 0.0362(19) 0.4751(13)
F6? F 0.864(3) 0.079(2) 0.3651(13)
O15? O 1.121(2) 0.091(2) -0.1877(9)
C38? C 1.235(3) 0.039(2) -0.2528(12)
H38? H 1.3165 -0.0364 -0.2395
H39? H 1.2763 0.1031 -0.2749
H40? H 1.1822 0.0178 -0.2846
C39? C 1.0232(18) 0.209(2) -0.2275(7)
H41? H 0.9461 0.1960 -0.2496
H42? H 1.0799 0.2567 -0.2581
loop_
_geom_bond_atom_site_label_1
_geom_bond_atom_site_label_2
_geom_bond_site_symmetry_1
_geom_bond_site_symmetry_2
C1 H1 1_555 1_555
H2 C1 1_555 1_555
C2 C3 1_555 1_555
C3 H3 1_555 1_555
C4 C3 1_555 1_555
H4 C4 1_555 1_555
C5 C4 1_555 1_555
H5 C5 1_555 1_555
C6 C5 1_555 1_555
C7 C6 1_555 1_555
C8 C7 1_555 1_555
H6 C8 1_555 1_555
C9 C8 1_555 1_555
H7 C9 1_555 1_555
C10 C9 1_555 1_555
H8 C10 1_555 1_555
C11 C2 1_555 1_555
C12 H9 1_555 1_555
H10 C12 1_555 1_555
C13 C12 1_555 1_555
H11 C13 1_555 1_555
H12 C13 1_555 1_555
C14 H13 1_555 1_555
H14 C14 1_555 1_555
C15 C14 1_555 1_555
H15 C15 1_555 1_555
H16 C15 1_555 1_555
C16 H17 1_555 1_555
C17 C16 1_555 1_555
C18 C17 1_555 1_555
H18 C18 1_555 1_555
C19 C18 1_555 1_555
H19 C19 1_555 1_555
C20 C19 1_555 1_555
H20 C20 1_555 1_555
C21 C20 1_555 1_555
C22 C21 1_555 1_555
H21 C22 1_555 1_555
H22 C22 1_555 1_555
C23 H23 1_555 1_555
H24 C23 1_555 1_555
C24 C23 1_555 1_555
H25 C24 1_555 1_555
H26 C24 1_555 1_555
C25 H27 1_555 1_555
H28 C25 1_555 1_555
C26 C25 1_555 1_555
H29 C26 1_555 1_555
H30 C26 1_555 1_555
C27 C30 1_555 1_555
C28 C32 1_555 1_555
C29 H31 1_555 1_555
C30 C29 1_555 1_555
C31 C30 1_555 1_555
C32 C31 1_555 1_555
C33 C32 1_555 1_555
H32 C33 1_555 1_555
N1 C15 1_555 1_555
N2 C17 1_555 1_555
N3 C26 1_555 1_555
O1 C1 1_555 1_555
O2 C7 1_555 1_555
O3 C13 1_555 1_555
O4 C22 1_555 1_555
O5 C24 1_555 1_555
O6 C27 1_555 1_555
O7 C28 1_555 1_555
Na1 N1 1_555 1_555
C34 S1 1_555 1_555
O8 Na1 1_555 1_555
O9 S1 1_555 1_555
O10 S1 1_555 1_555
S1 O8 1_555 1_555
F1 C34 1_555 1_555
F2 C34 1_555 1_555
F3 C34 1_555 1_555
O14 C36 1_555 1_555
C36 H33 1_555 1_555
H34 C36 1_555 1_555
H35 C36 1_555 1_555
C37 C1 1_555 1_555
H36 C37 1_555 1_555
H37 C37 1_555 1_555
O16 Na1 1_555 1_555
C1A H1A 1_555 1_555
H2A C1A 1_555 1_555
C2A C3A 1_555 1_555
C3A H3A 1_555 1_555
C4A C3A 1_555 1_555
H4A C4A 1_555 1_555
C5A C4A 1_555 1_555
H5A C5A 1_555 1_555
C6A C5A 1_555 1_555
C7A C6A 1_555 1_555
C8A C7A 1_555 1_555
H6A C8A 1_555 1_555
C9A C8A 1_555 1_555
H7A C9A 1_555 1_555
C10A C9A 1_555 1_555
H8A C10A 1_555 1_555
C11A C2A 1_555 1_555
C12A H9A 1_555 1_555
H10A C12A 1_555 1_555
C13A C12A 1_555 1_555
H11A C13A 1_555 1_555
H12A C13A 1_555 1_555
C14A H13A 1_555 1_555
H14A C14A 1_555 1_555
C15A C14A 1_555 1_555
H15A C15A 1_555 1_555
H16A C15A 1_555 1_555
C16A H17A 1_555 1_555
C17A C16A 1_555 1_555
C18A C17A 1_555 1_555
H18A C18A 1_555 1_555
C19A C18A 1_555 1_555
H19A C19A 1_555 1_555
C20A C19A 1_555 1_555
H20A C20A 1_555 1_555
C21A C20A 1_555 1_555
C22A C21A 1_555 1_555
H21A C22A 1_555 1_555
H22A C22A 1_555 1_555
C23A H23A 1_555 1_555
H24A C23A 1_555 1_555
C24A C23A 1_555 1_555
H25A C24A 1_555 1_555
H26A C24A 1_555 1_555
C25A H27A 1_555 1_555
H28A C25A 1_555 1_555
C26A C25A 1_555 1_555
H29A C26A 1_555 1_555
H30A C26A 1_555 1_555
C27A C30A 1_555 1_555
C28A C32A 1_555 1_555
C29A C33 1_555 1_555
H31A C29A 1_555 1_555
C30A C29A 1_555 1_555
C31A C31 1_555 1_555
C32A C31A 1_555 1_555
C33A C29 1_555 1_555
H32A C33A 1_555 1_555
N1A C15A 1_555 1_555
N2A C17A 1_555 1_555
N3A C26A 1_555 1_555
O1A C1A 1_555 1_555
O2A C7A 1_555 1_555
O3A C13A 1_555 1_555
O4A C22A 1_555 1_555
O5A C24A 1_555 1_555
O6A C27A 1_555 1_555
O7A C28A 1_555 1_555
Na1A N1A 1_555 1_555
C34A S1A 1_555 1_555
O8A Na1A 1_555 1_555
O9A S1A 1_555 1_555
O10A S1A 1_555 1_555
S1A O8A 1_555 1_555
F1A C34A 1_555 1_555
F2A C34A 1_555 1_555
F3A C34A 1_555 1_555
O14A C36A 1_555 1_555
C36A H33A 1_555 1_555
H34A C36A 1_555 1_555
H35A C36A 1_555 1_555
C37A C1A 1_555 1_555
H36A C37A 1_555 1_555
H37A C37A 1_555 1_555
O16A Na1A 1_555 1_555
C2 O1 1_555 1_555
C6 C11 1_555 1_555
C10 C11 1_555 1_555
C12 O2 1_555 1_555
C14 O3 1_555 1_555
C16 N1 1_555 1_555
C21 N2 1_555 1_555
C23 O4 1_555 1_555
C25 O5 1_555 1_555
C27 N3 1_555 1_555
C28 N3 1_555 1_555
N2 Na1 1_555 1_555
O4 Na1 1_555 1_555
O5 Na1 1_555 1_555
O6 Na1 1_555 1_555
O14 C37 1_555 1_555
C2A O1A 1_555 1_555
C6A C11A 1_555 1_555
C10A C11A 1_555 1_555
C12A O2A 1_555 1_555
C14A O3A 1_555 1_555
C16A N1A 1_555 1_555
C21A N2A 1_555 1_555
C23A O4A 1_555 1_555
C25A O5A 1_555 1_555
C27A N3A 1_555 1_555
C28A N3A 1_555 1_555
C30A C31A 1_555 1_555
C32A C33A 1_555 1_555
N2A Na1A 1_555 1_555
O4A Na1A 1_555 1_555
O5A Na1A 1_555 1_555
O6A Na1A 1_555 1_555
O14A C37A 1_555 1_555

#END
