
#######################################################################
#
#                 Cambridge Crystallographic Data Centre
#                                CCDC 
#
#######################################################################
#
# If this CIF has been generated from an entry in the Cambridge 
# Structural Database, then it will include bibliographic, chemical, 
# crystal, experimental, refinement or atomic coordinate data resulting 
# from the CCDC's data processing and validation procedures.
#
#######################################################################

data_QUKPIX
_chemical_formula_moiety         'C17 H18 O3'
_chemical_name_systematic        
3-methyl-5-(3-methyl-3,3a,8,8a-tetrahydro-2H-indeno[2,1-b]furan-2-yl)furan-2(5H)-one
_symmetry_cell_setting           monoclinic
_symmetry_space_group_name_H-M   'P c'
_symmetry_Int_Tables_number      7
_space_group_name_Hall           'P -2yc'
loop_
_symmetry_equiv_pos_site_id
_symmetry_equiv_pos_as_xyz
1 x,y,z
2 x,-y,1/2+z
_cell_length_a                   5.4194(8)
_cell_length_b                   15.5640(9)
_cell_length_c                   8.6810(8)
_cell_angle_alpha                90
_cell_angle_beta                 106.867(13)
_cell_angle_gamma                90
_cell_volume                     700.721
_exptl_crystal_colour            colorless
_exptl_crystal_description       block
_cell_formula_units_Z            2
loop_
_atom_site_label
_atom_site_type_symbol
_atom_site_fract_x
_atom_site_fract_y
_atom_site_fract_z
O1 O -1.2687(9) -0.1960(2) -0.6236(5)
O2 O -1.4285(8) -0.1640(2) -0.9676(5)
O3 O -1.7876(10) -0.0887(3) -1.0707(6)
C1 C -1.2455(13) -0.2702(3) -0.5215(7)
H1 H -1.4115 -0.2830 -0.5028
C2 C -1.0344(13) -0.2570(4) -0.3586(7)
H2 H -0.9561 -0.2007 -0.3539
H3 H -1.1065 -0.2629 -0.2691
C3 C -0.8409(11) -0.3264(4) -0.3546(6)
C4 C -0.6126(13) -0.3448(4) -0.2326(7)
H4 H -0.5630 -0.3112 -0.1401
C5 C -0.4628(14) -0.4134(5) -0.2517(8)
H5 H -0.3111 -0.4254 -0.1712
C6 C -0.5313(13) -0.4643(4) -0.3855(9)
H6 H -0.4283 -0.5106 -0.3951
C7 C -0.7575(13) -0.4463(3) -0.5083(8)
H7 H -0.8056 -0.4803 -0.6003
C8 C -0.9099(12) -0.3769(4) -0.4916(7)
C9 C -1.1604(12) -0.3459(3) -0.6088(7)
H8 H -1.2903 -0.3917 -0.6311
C10 C -1.1397(12) -0.3054(3) -0.7679(7)
H9 H -1.3075 -0.3119 -0.8489
C11 C -1.1047(12) -0.2108(4) -0.7236(7)
H10 H -0.9255 -0.2011 -0.6600
C12 C -1.1734(12) -0.1475(4) -0.8613(8)
H11 H -1.0492 -0.1542 -0.9230
C13 C -1.1818(16) -0.0566(4) -0.8195(8)
H12 H -1.0447 -0.0268 -0.7508
C14 C -1.4109(15) -0.0219(4) -0.8922(8)
C15 C -1.5656(14) -0.0906(4) -0.9857(7)
C16 C -1.5149(18) 0.0661(4) -0.8880(10)
H13 H -1.6914 0.0626 -0.8872
H14 H -1.5054 0.0974 -0.9814
H15 H -1.4152 0.0952 -0.7928
C17 C -0.9340(14) -0.3403(5) -0.8404(7)
H16 H -0.9569 -0.4011 -0.8568
H17 H -0.7660 -0.3291 -0.7682
H18 H -0.9502 -0.3126 -0.9417
loop_
_geom_bond_atom_site_label_1
_geom_bond_atom_site_label_2
_geom_bond_site_symmetry_1
_geom_bond_site_symmetry_2
O1 C1 1_555 1_555
O2 C12 1_555 1_555
O3 C15 1_555 1_555
C1 H1 1_555 1_555
C2 C1 1_555 1_555
H2 C2 1_555 1_555
H3 C2 1_555 1_555
C3 C2 1_555 1_555
C4 C3 1_555 1_555
H4 C4 1_555 1_555
C5 C4 1_555 1_555
H5 C5 1_555 1_555
C6 C5 1_555 1_555
H6 C6 1_555 1_555
C7 C6 1_555 1_555
H7 C7 1_555 1_555
C8 C3 1_555 1_555
C9 C1 1_555 1_555
H8 C9 1_555 1_555
C10 C9 1_555 1_555
H9 C10 1_555 1_555
C11 O1 1_555 1_555
H10 C11 1_555 1_555
C12 C11 1_555 1_555
H11 C12 1_555 1_555
C13 C12 1_555 1_555
H12 C13 1_555 1_555
C14 C13 1_555 1_555
C15 O2 1_555 1_555
C16 C14 1_555 1_555
H13 C16 1_555 1_555
H14 C16 1_555 1_555
H15 C16 1_555 1_555
C17 C10 1_555 1_555
H16 C17 1_555 1_555
H17 C17 1_555 1_555
H18 C17 1_555 1_555
C7 C8 1_555 1_555
C8 C9 1_555 1_555
C10 C11 1_555 1_555
C14 C15 1_555 1_555

#END
