
#######################################################################
#
#                 Cambridge Crystallographic Data Centre
#                                CCDC 
#
#######################################################################
#
# If this CIF has been generated from an entry in the Cambridge 
# Structural Database, then it will include bibliographic, chemical, 
# crystal, experimental, refinement or atomic coordinate data resulting 
# from the CCDC's data processing and validation procedures.
#
#######################################################################

data_QUKPOD
_chemical_formula_moiety         'C12 H12 O2'
_chemical_name_systematic        
3-methyl-3,3a,8,8a-tetrahydro-2H-indeno[2,1-b]furan-2-one
_symmetry_cell_setting           orthorhombic
_symmetry_space_group_name_H-M   'P 21 21 21'
_symmetry_Int_Tables_number      19
_space_group_name_Hall           'P 2ac 2ab'
loop_
_symmetry_equiv_pos_site_id
_symmetry_equiv_pos_as_xyz
1 x,y,z
2 1/2-x,-y,1/2+z
3 1/2+x,1/2-y,-z
4 -x,1/2+y,1/2-z
_cell_length_a                   8.4667(4)
_cell_length_b                   9.3336(4)
_cell_length_c                   12.0373(6)
_cell_angle_alpha                90
_cell_angle_beta                 90
_cell_angle_gamma                90
_cell_volume                     951.245
_exptl_crystal_colour            colorless
_exptl_crystal_description       block
_cell_formula_units_Z            4
loop_
_atom_site_label
_atom_site_type_symbol
_atom_site_fract_x
_atom_site_fract_y
_atom_site_fract_z
O1 O 0.16420(17) 0.04158(15) 0.60010(13)
O2 O 0.1849(2) 0.06298(17) 0.78346(14)
C1 C -0.3013(2) -0.1102(2) 0.63515(17)
H1 H -0.3038 -0.1791 0.6909
C2 C 0.1418(2) -0.0060(2) 0.70478(18)
C3 C -0.4308(3) 0.0741(2) 0.5276(2)
H2 H -0.5211 0.1271 0.5118
C4 C -0.1608(3) 0.0167(2) 0.49127(15)
C5 C -0.1645(2) -0.0867(2) 0.57468(15)
C6 C -0.0002(3) 0.0194(3) 0.43669(17)
H3 H 0.0365 0.1170 0.4264
H4 H -0.0025 -0.0285 0.3652
C7 C -0.0048(2) -0.1593(2) 0.58683(16)
H5 H -0.0060 -0.2574 0.5578
C8 C 0.0652(2) -0.1522(2) 0.70370(16)
H6 H -0.0182 -0.1580 0.7599
C9 C -0.4348(2) -0.0290(2) 0.61112(19)
H7 H -0.5273 -0.0438 0.6511
C10 C -0.2935(3) 0.0984(2) 0.46773(18)
H8 H -0.2903 0.1684 0.4128
C11 C 0.1927(3) -0.2660(2) 0.7250(2)
H9 H 0.2739 -0.2580 0.6696
H10 H 0.1461 -0.3597 0.7213
H11 H 0.2378 -0.2516 0.7973
C12 C 0.1038(2) -0.0607(2) 0.51838(17)
H12 H 0.1886 -0.1138 0.4813
loop_
_geom_bond_atom_site_label_1
_geom_bond_atom_site_label_2
_geom_bond_site_symmetry_1
_geom_bond_site_symmetry_2
O1 C2 1_555 1_555
O2 C2 1_555 1_555
C1 H1 1_555 1_555
C2 C8 1_555 1_555
C3 H2 1_555 1_555
C4 C5 1_555 1_555
C5 C1 1_555 1_555
C6 C4 1_555 1_555
H3 C6 1_555 1_555
H4 C6 1_555 1_555
C7 C5 1_555 1_555
H5 C7 1_555 1_555
C8 C7 1_555 1_555
H6 C8 1_555 1_555
C9 C1 1_555 1_555
H7 C9 1_555 1_555
C10 C3 1_555 1_555
H8 C10 1_555 1_555
C11 C8 1_555 1_555
H9 C11 1_555 1_555
H10 C11 1_555 1_555
H11 C11 1_555 1_555
C12 O1 1_555 1_555
H12 C12 1_555 1_555
C3 C9 1_555 1_555
C4 C10 1_555 1_555
C6 C12 1_555 1_555
C7 C12 1_555 1_555

#END
