
#######################################################################
#
#                 Cambridge Crystallographic Data Centre
#                                CCDC 
#
#######################################################################
#
# If this CIF has been generated from an entry in the Cambridge 
# Structural Database, then it will include bibliographic, chemical, 
# crystal, experimental, refinement or atomic coordinate data resulting 
# from the CCDC's data processing and validation procedures.
#
#######################################################################

data_QUKYIE
_chemical_compound_source        'Curcuma zedoaria'
_chemical_name_common            Curcolonol
_chemical_formula_moiety         'C15 H20 O4'
_chemical_name_systematic        
10,13-Dihydroxy-1,6,10-trimethyl-4-oxatricyclo(7.4.0.0^3,7^)trideca-3(7),5-dien-8-one
_symmetry_cell_setting           monoclinic
_symmetry_space_group_name_H-M   'C 2/c'
_symmetry_Int_Tables_number      15
_space_group_name_Hall           '-C 2yn'
loop_
_symmetry_equiv_pos_site_id
_symmetry_equiv_pos_as_xyz
1 x,y,z
2 1/2+x,1/2+y,z
3 x,-y,1/2+z
4 1/2+x,1/2-y,1/2+z
5 -x,-y,-z
6 1/2-x,1/2-y,-z
7 -x,y,1/2-z
8 1/2-x,1/2+y,1/2-z
_cell_length_a                   15.8978(21)
_cell_length_b                   11.9660(17)
_cell_length_c                   13.6483(20)
_cell_angle_alpha                90
_cell_angle_beta                 95.931(11)
_cell_angle_gamma                90
_cell_volume                     2582.46
_cell_formula_units_Z            8
loop_
_atom_site_label
_atom_site_type_symbol
_atom_site_fract_x
_atom_site_fract_y
_atom_site_fract_z
O1 O 0.30953(11) 0.21019(17) 0.36223(13)
O2 O 0.31033(10) -0.12778(13) 0.08112(11)
O3 O 0.18990(10) 0.00199(16) -0.03647(12)
O4 O 0.01719(10) 0.21916(15) 0.13307(13)
C1 C 0.29870(14) 0.11696(21) 0.29715(16)
C2 C 0.38567(15) 0.07882(22) 0.27634(17)
C3 C 0.37861(14) -0.02812(21) 0.21568(17)
C4 C 0.32545(13) -0.01488(19) 0.11697(16)
C5 C 0.23842(13) 0.03614(18) 0.13491(15)
C6 C 0.17742(13) 0.04892(19) 0.04037(16)
C7 C 0.10307(13) 0.11597(19) 0.05072(16)
C8 C 0.09133(13) 0.16324(20) 0.13849(17)
C9 C 0.14922(14) 0.15893(20) 0.23033(16)
C10 C 0.24030(13) 0.14193(18) 0.20237(15)
C11 C 0.02972(14) 0.14455(20) -0.01659(18)
C12 C -0.01919(15) 0.20536(24) 0.03675(20)
C13 C 0.01204(16) 0.11426(23) -0.12259(19)
C14 C 0.37476(15) 0.04653(22) 0.04390(18)
C15 C 0.26923(15) 0.24753(20) 0.15171(18)
H1 H 0.261 0.256 0.365
H2 H 0.286 -0.124 0.015
H3 H 0.274 0.057 0.330
H4 H 0.410 0.136 0.239
H5 H 0.421 0.068 0.337
H6 H 0.353 -0.084 0.253
H7 H 0.434 -0.054 0.205
H8 H 0.213 -0.020 0.172
H9 H 0.146 0.226 0.268
H10 H 0.134 0.099 0.271
H11 H -0.073 0.237 0.012
H12 H -0.041 0.144 -0.150
H13 H 0.055 0.142 -0.160
H14 H 0.010 0.035 -0.131
H15 H 0.428 0.010 0.037
H16 H 0.343 0.050 -0.020
H17 H 0.387 0.122 0.066
H18 H 0.269 0.310 0.196
H19 H 0.325 0.238 0.132
H20 H 0.231 0.264 0.094
loop_
_geom_bond_atom_site_label_1
_geom_bond_atom_site_label_2
_geom_bond_site_symmetry_1
_geom_bond_site_symmetry_2
O1 C1 1_555 1_555
O2 C4 1_555 1_555
O3 C6 1_555 1_555
O4 C8 1_555 1_555
C1 C2 1_555 1_555
C2 C3 1_555 1_555
C3 C4 1_555 1_555
C4 C5 1_555 1_555
C5 C6 1_555 1_555
C6 C7 1_555 1_555
C7 C8 1_555 1_555
C8 C9 1_555 1_555
C9 C10 1_555 1_555
C10 C1 1_555 1_555
C11 C7 1_555 1_555
C12 O4 1_555 1_555
C13 C11 1_555 1_555
C14 C4 1_555 1_555
C15 C10 1_555 1_555
H1 O1 1_555 1_555
H2 O2 1_555 1_555
H3 C1 1_555 1_555
H4 C2 1_555 1_555
H5 C2 1_555 1_555
H6 C3 1_555 1_555
H7 C3 1_555 1_555
H8 C5 1_555 1_555
H9 C9 1_555 1_555
H10 C9 1_555 1_555
H11 C12 1_555 1_555
H12 C13 1_555 1_555
H13 C13 1_555 1_555
H14 C13 1_555 1_555
H15 C14 1_555 1_555
H16 C14 1_555 1_555
H17 C14 1_555 1_555
H18 C15 1_555 1_555
H19 C15 1_555 1_555
H20 C15 1_555 1_555
C5 C10 1_555 1_555
C11 C12 1_555 1_555

#END
