
#######################################################################
#
#                 Cambridge Crystallographic Data Centre
#                                CCDC 
#
#######################################################################
#
# If this CIF has been generated from an entry in the Cambridge 
# Structural Database, then it will include bibliographic, chemical, 
# crystal, experimental, refinement or atomic coordinate data resulting 
# from the CCDC's data processing and validation procedures.
#
#######################################################################

data_QUKZON
_chemical_compound_source        'Abies fabri'
_chemical_formula_moiety         'C17 H22 O4'
_chemical_name_systematic        '13-oxo-8,14-epoxypodocarp-11-en-15-oic acid'
_symmetry_cell_setting           monoclinic
_symmetry_space_group_name_H-M   'P 21'
_symmetry_Int_Tables_number      4
_space_group_name_Hall           'P 2yb'
loop_
_symmetry_equiv_pos_site_id
_symmetry_equiv_pos_as_xyz
1 x,y,z
2 -x,1/2+y,-z
_cell_length_a                   7.43780(10)
_cell_length_b                   11.7962(2)
_cell_length_c                   8.31400(10)
_cell_angle_alpha                90
_cell_angle_beta                 92.4730(10)
_cell_angle_gamma                90
_cell_volume                     728.773
_exptl_crystal_colour            colorless
_exptl_crystal_description       block
_cell_formula_units_Z            2
loop_
_atom_site_label
_atom_site_type_symbol
_atom_site_fract_x
_atom_site_fract_y
_atom_site_fract_z
O1 O 1.29428(13) 0.20063(10) 0.46026(12)
O2 O 0.94484(16) 0.04845(9) 0.59862(14)
O3 O 0.29189(16) 0.23778(10) 1.01576(13)
O4 O 0.44818(14) 0.31751(11) 1.21972(11)
H1 H 0.3858 0.2735 1.2739
C1 C 0.5804(2) 0.40688(13) 0.60029(16)
H2 H 0.6428 0.4464 0.5136
H3 H 0.4881 0.3567 0.5488
C2 C 0.4867(2) 0.49511(13) 0.70261(17)
H4 H 0.5765 0.5498 0.7476
H5 H 0.3974 0.5376 0.6345
C3 C 0.3928(2) 0.43693(12) 0.83904(16)
H6 H 0.3023 0.3831 0.7931
H7 H 0.3286 0.4945 0.9014
C4 C 0.52626(18) 0.37235(11) 0.95317(15)
C5 C 0.63148(18) 0.28556(11) 0.85102(15)
H8 H 0.5394 0.2295 0.8106
C6 C 0.76960(19) 0.21637(11) 0.95171(15)
H9 H 0.8722 0.2656 0.9856
H10 H 0.7135 0.1881 1.0498
C7 C 0.8380(2) 0.11615(12) 0.85515(17)
H11 H 0.9445 0.0834 0.9136
H12 H 0.7435 0.0570 0.8487
C8 C 0.8887(2) 0.14665(12) 0.68629(17)
C9 C 0.76163(19) 0.22573(12) 0.59413(16)
H13 H 0.6458 0.1837 0.5757
C10 C 0.71798(18) 0.33363(11) 0.69709(15)
C11 C 0.8260(2) 0.25613(14) 0.43145(17)
H14 H 0.7404 0.2881 0.3565
C12 C 0.9929(2) 0.24214(14) 0.38281(17)
H15 H 1.0203 0.2634 0.2764
C13 C 1.1338(2) 0.19494(13) 0.48949(16)
C14 C 1.0768(2) 0.13553(13) 0.63714(18)
H16 H 1.1714 0.1186 0.7229
C15 C 0.6456(2) 0.45516(12) 1.05192(17)
H17 H 0.5716 0.4977 1.1257
H18 H 0.7033 0.5080 0.9792
H19 H 0.7382 0.4127 1.1139
C16 C 0.40909(19) 0.30170(11) 1.06411(16)
C17 C 0.89149(19) 0.40228(13) 0.73042(16)
H20 H 0.9464 0.4199 0.6283
H21 H 0.9760 0.3577 0.7984
H22 H 0.8627 0.4729 0.7857
loop_
_geom_bond_atom_site_label_1
_geom_bond_atom_site_label_2
_geom_bond_site_symmetry_1
_geom_bond_site_symmetry_2
O1 C13 1_555 1_555
O2 C8 1_555 1_555
O3 C16 1_555 1_555
O4 H1 1_555 1_555
C1 H2 1_555 1_555
H3 C1 1_555 1_555
C2 C1 1_555 1_555
H4 C2 1_555 1_555
H5 C2 1_555 1_555
C3 C2 1_555 1_555
H6 C3 1_555 1_555
H7 C3 1_555 1_555
C4 C3 1_555 1_555
C5 C4 1_555 1_555
H8 C5 1_555 1_555
C6 C5 1_555 1_555
H9 C6 1_555 1_555
H10 C6 1_555 1_555
C7 C6 1_555 1_555
H11 C7 1_555 1_555
H12 C7 1_555 1_555
C8 C7 1_555 1_555
C9 C8 1_555 1_555
H13 C9 1_555 1_555
C10 C1 1_555 1_555
C11 C9 1_555 1_555
H14 C11 1_555 1_555
C12 C11 1_555 1_555
H15 C12 1_555 1_555
C13 C12 1_555 1_555
C14 O2 1_555 1_555
H16 C14 1_555 1_555
C15 C4 1_555 1_555
H17 C15 1_555 1_555
H18 C15 1_555 1_555
H19 C15 1_555 1_555
C16 O4 1_555 1_555
C17 C10 1_555 1_555
H20 C17 1_555 1_555
H21 C17 1_555 1_555
H22 C17 1_555 1_555
C4 C16 1_555 1_555
C5 C10 1_555 1_555
C8 C14 1_555 1_555
C9 C10 1_555 1_555
C13 C14 1_555 1_555

#END
