
#######################################################################
#
#                 Cambridge Crystallographic Data Centre
#                                CCDC 
#
#######################################################################
#
# If this CIF has been generated from an entry in the Cambridge 
# Structural Database, then it will include bibliographic, chemical, 
# crystal, experimental, refinement or atomic coordinate data resulting 
# from the CCDC's data processing and validation procedures.
#
#######################################################################

data_QUKZEC
_chemical_formula_moiety         'C14 H12 O4 Si1'
_chemical_name_systematic        4H,4'H-2,2'-Spirobi[[1,3,2]benzodioxasiline]
_symmetry_cell_setting           monoclinic
_symmetry_space_group_name_H-M   'P 21/n'
_symmetry_Int_Tables_number      14
_space_group_name_Hall           '-P 2yn'
loop_
_symmetry_equiv_pos_site_id
_symmetry_equiv_pos_as_xyz
1 x,y,z
2 1/2-x,1/2+y,1/2-z
3 -x,-y,-z
4 1/2+x,1/2-y,1/2+z
_cell_length_a                   13.6917(7)
_cell_length_b                   5.8780(2)
_cell_length_c                   15.7413(8)
_cell_angle_alpha                90
_cell_angle_beta                 106.201(5)
_cell_angle_gamma                90
_cell_volume                     1216.55
_exptl_crystal_colour            colorless
_exptl_crystal_description       needle
_chemical_melting_point          '82-84 deg.C'
_cell_formula_units_Z            4
loop_
_atom_site_label
_atom_site_type_symbol
_atom_site_fract_x
_atom_site_fract_y
_atom_site_fract_z
Si1 Si 0.96123(11) 0.2857(3) 0.14708(10)
O1 O 0.9506(3) 0.0868(7) 0.2150(3)
O2 O 0.8457(3) 0.3450(7) 0.0874(3)
C1 C 0.8700(4) -0.0760(11) 0.1834(4)
H1 H 0.8672 -0.1766 0.2316
H2 H 0.8847 -0.1678 0.1373
C2 C 0.7681(4) 0.0373(10) 0.1475(4)
C3 C 0.7600(4) 0.2441(10) 0.1008(3)
C4 C 0.6675(4) 0.3446(11) 0.0658(4)
H3 H 0.6630 0.4829 0.0362
C5 C 0.5798(4) 0.2383(12) 0.0748(4)
H4 H 0.5166 0.3050 0.0501
C6 C 0.5858(5) 0.0363(11) 0.1197(4)
H5 H 0.5271 -0.0334 0.1256
C7 C 0.6792(4) -0.0623(11) 0.1559(4)
H6 H 0.6830 -0.1986 0.1867
O3 O 1.0222(3) 0.4975(7) 0.2016(3)
O4 O 1.0230(3) 0.2099(7) 0.0761(3)
C8 C 1.0884(4) 0.6228(10) 0.1604(4)
H7 H 1.1253 0.7379 0.2010
H8 H 1.0477 0.6990 0.1077
C9 C 1.1622(4) 0.4650(10) 0.1361(3)
C10 C 1.1258(4) 0.2619(10) 0.0932(3)
C11 C 1.1900(4) 0.1096(11) 0.0700(4)
H9 H 1.1645 -0.0267 0.0427
C12 C 1.2917(4) 0.1585(11) 0.0870(4)
H10 H 1.3344 0.0587 0.0687
C13 C 1.3301(4) 0.3536(12) 0.1311(4)
H11 H 1.3997 0.3815 0.1457
C14 C 1.2651(4) 0.5123(11) 0.1544(4)
H12 H 1.2910 0.6481 0.1819
loop_
_geom_bond_atom_site_label_1
_geom_bond_atom_site_label_2
_geom_bond_site_symmetry_1
_geom_bond_site_symmetry_2
Si1 O1 1_555 1_555
O1 C1 1_555 1_555
O2 Si1 1_555 1_555
C1 H1 1_555 1_555
H2 C1 1_555 1_555
C2 C1 1_555 1_555
C3 O2 1_555 1_555
C4 C3 1_555 1_555
H3 C4 1_555 1_555
C5 C4 1_555 1_555
H4 C5 1_555 1_555
C6 C5 1_555 1_555
H5 C6 1_555 1_555
C7 C2 1_555 1_555
H6 C7 1_555 1_555
O3 Si1 1_555 1_555
O4 Si1 1_555 1_555
C8 O3 1_555 1_555
H7 C8 1_555 1_555
H8 C8 1_555 1_555
C9 C8 1_555 1_555
C10 O4 1_555 1_555
C11 C10 1_555 1_555
H9 C11 1_555 1_555
C12 C11 1_555 1_555
H10 C12 1_555 1_555
C13 C12 1_555 1_555
H11 C13 1_555 1_555
C14 C9 1_555 1_555
H12 C14 1_555 1_555
C2 C3 1_555 1_555
C6 C7 1_555 1_555
C9 C10 1_555 1_555
C13 C14 1_555 1_555

#END
