
#######################################################################
#
#                 Cambridge Crystallographic Data Centre
#                                CCDC 
#
#######################################################################
#
# If this CIF has been generated from an entry in the Cambridge 
# Structural Database, then it will include bibliographic, chemical, 
# crystal, experimental, refinement or atomic coordinate data resulting 
# from the CCDC's data processing and validation procedures.
#
#######################################################################

data_QULFUA
_chemical_compound_source        'Rhododendron micranthum'
_chemical_formula_moiety         'C22 H34 O6'
_chemical_name_systematic        
'3,5,6,10-tetrahydroxygrayanotox-16-en-14-yl acetate'
_symmetry_cell_setting           orthorhombic
_symmetry_space_group_name_H-M   'P 21 21 21'
_symmetry_Int_Tables_number      19
_space_group_name_Hall           'P 2ac 2ab'
loop_
_symmetry_equiv_pos_site_id
_symmetry_equiv_pos_as_xyz
1 x,y,z
2 1/2+x,1/2-y,-z
3 -x,1/2+y,1/2-z
4 1/2-x,-y,1/2+z
_cell_length_a                   6.39910(10)
_cell_length_b                   11.27600(10)
_cell_length_c                   29.0342(4)
_cell_angle_alpha                90
_cell_angle_beta                 90
_cell_angle_gamma                90
_cell_volume                     2095
_exptl_crystal_colour            colorless
_exptl_crystal_description       block
_cell_formula_units_Z            4
loop_
_atom_site_label
_atom_site_type_symbol
_atom_site_fract_x
_atom_site_fract_y
_atom_site_fract_z
C1 C 0.3636(2) 0.66215(12) 0.84047(5)
H1 H 0.4351 0.5854 0.8416
C2 C 0.4814(2) 0.73555(15) 0.80305(6)
H2 H 0.5311 0.8099 0.8158
H3 H 0.6002 0.6914 0.7914
C3 C 0.3250(2) 0.75824(14) 0.76502(5)
H4 H 0.3945 0.7646 0.7351
C4 C 0.1791(2) 0.64960(14) 0.76660(5)
C5 C 0.1434(2) 0.63586(12) 0.81984(4)
C6 C 0.0760(2) 0.51209(12) 0.83485(5)
H5 H 0.1875 0.4565 0.8265
C7 C 0.0328(2) 0.49805(12) 0.88620(5)
H6 H -0.0185 0.4179 0.8905
H7 H -0.0825 0.5507 0.8934
C8 C 0.2004(2) 0.51872(12) 0.92345(4)
C9 C 0.2650(2) 0.65129(12) 0.92926(5)
H8 H 0.1340 0.6953 0.9330
C10 C 0.3865(2) 0.71525(12) 0.88920(5)
C11 C 0.3840(3) 0.66598(14) 0.97544(5)
H9 H 0.4474 0.7441 0.9762
H10 H 0.2844 0.6616 1.0006
C12 C 0.5541(2) 0.57289(15) 0.98318(5)
H11 H 0.5980 0.5751 1.0151
H12 H 0.6743 0.5919 0.9642
C13 C 0.4775(2) 0.44690(14) 0.97134(5)
H13 H 0.5853 0.3869 0.9770
C14 C 0.4031(2) 0.44585(12) 0.92134(5)
H14 H 0.5061 0.4805 0.9003
C15 C 0.1023(2) 0.47253(14) 0.96950(5)
H15 H 0.0364 0.5371 0.9861
H16 H -0.0023 0.4124 0.9632
C16 C 0.2790(3) 0.42099(14) 0.99740(5)
C17 C 0.2641(4) 0.3623(2) 1.03630(7)
H17 H 0.3836 0.3323 1.0503
H18 H 0.1340 0.3507 1.0499
C18 C -0.0175(3) 0.67068(18) 0.73774(6)
H19 H -0.0954 0.7355 0.7505
H20 H -0.1022 0.6004 0.7379
H21 H 0.0218 0.6893 0.7067
C19 C 0.2969(3) 0.54241(17) 0.74636(6)
H22 H 0.2072 0.4742 0.7466
H23 H 0.4190 0.5266 0.7646
H24 H 0.3378 0.5597 0.7153
C20 C 0.3303(3) 0.84676(13) 0.89210(7)
H25 H 0.3698 0.8771 0.9217
H26 H 0.1824 0.8563 0.8879
H27 H 0.4033 0.8895 0.8685
C21 C 0.4469(3) 0.27361(14) 0.87385(5)
C22 C 0.3678(4) 0.15215(16) 0.86499(7)
H28 H 0.3394 0.1430 0.8327
H29 H 0.2416 0.1396 0.8822
H30 H 0.4710 0.0952 0.8743
O1 O 0.2142(2) 0.86567(10) 0.77606(4)
H31 H 0.1728 0.8969 0.7522
O2 O -0.01248(16) 0.71742(9) 0.83564(4)
H32 H 0.0086 0.7828 0.8242
O3 O -0.10964(19) 0.47851(10) 0.81010(4)
H33 H -0.1849 0.4385 0.8269
O4 O 0.60768(17) 0.70368(11) 0.89993(4)
H34 H 0.6770 0.7180 0.8768
O5 O 0.34950(17) 0.32424(8) 0.90898(4)
O6 O 0.5827(3) 0.32014(14) 0.85219(6)
loop_
_geom_bond_atom_site_label_1
_geom_bond_atom_site_label_2
_geom_bond_site_symmetry_1
_geom_bond_site_symmetry_2
C1 H1 1_555 1_555
C2 C1 1_555 1_555
H2 C2 1_555 1_555
H3 C2 1_555 1_555
C3 C2 1_555 1_555
H4 C3 1_555 1_555
C4 C3 1_555 1_555
C5 C1 1_555 1_555
C6 C5 1_555 1_555
H5 C6 1_555 1_555
C7 C6 1_555 1_555
H6 C7 1_555 1_555
H7 C7 1_555 1_555
C8 C7 1_555 1_555
C9 C8 1_555 1_555
H8 C9 1_555 1_555
C10 C1 1_555 1_555
C11 C9 1_555 1_555
H9 C11 1_555 1_555
H10 C11 1_555 1_555
C12 C11 1_555 1_555
H11 C12 1_555 1_555
H12 C12 1_555 1_555
C13 C12 1_555 1_555
H13 C13 1_555 1_555
C14 C8 1_555 1_555
H14 C14 1_555 1_555
C15 C8 1_555 1_555
H15 C15 1_555 1_555
H16 C15 1_555 1_555
C16 C13 1_555 1_555
C17 C16 1_555 1_555
H17 C17 1_555 1_555
H18 C17 1_555 1_555
C18 C4 1_555 1_555
H19 C18 1_555 1_555
H20 C18 1_555 1_555
H21 C18 1_555 1_555
C19 C4 1_555 1_555
H22 C19 1_555 1_555
H23 C19 1_555 1_555
H24 C19 1_555 1_555
C20 C10 1_555 1_555
H25 C20 1_555 1_555
H26 C20 1_555 1_555
H27 C20 1_555 1_555
C21 C22 1_555 1_555
C22 H28 1_555 1_555
H29 C22 1_555 1_555
H30 C22 1_555 1_555
O1 C3 1_555 1_555
H31 O1 1_555 1_555
O2 C5 1_555 1_555
H32 O2 1_555 1_555
O3 C6 1_555 1_555
H33 O3 1_555 1_555
O4 C10 1_555 1_555
H34 O4 1_555 1_555
O5 C14 1_555 1_555
O6 C21 1_555 1_555
C4 C5 1_555 1_555
C9 C10 1_555 1_555
C13 C14 1_555 1_555
C15 C16 1_555 1_555
C21 O5 1_555 1_555

#END
