
#######################################################################
#
#                 Cambridge Crystallographic Data Centre
#                                CCDC 
#
#######################################################################
#
# If this CIF has been generated from an entry in the Cambridge 
# Structural Database, then it will include bibliographic, chemical, 
# crystal, experimental, refinement or atomic coordinate data resulting 
# from the CCDC's data processing and validation procedures.
#
#######################################################################

data_QULPAP
_chemical_formula_moiety         'C19 H21 N1 O3 S1'
_chemical_name_systematic        
'4-Methyl-2-(((Z)-3-oxo-1-phenyl-3-(2-thienyl)-1-propenyl)amino)pentanoic acid'
_symmetry_cell_setting           orthorhombic
_symmetry_space_group_name_H-M   'P 21 21 21'
_symmetry_Int_Tables_number      19
_space_group_name_Hall           'P 2ac 2ab'
loop_
_symmetry_equiv_pos_site_id
_symmetry_equiv_pos_as_xyz
1 x,y,z
2 1/2-x,-y,1/2+z
3 -x,1/2+y,1/2-z
4 1/2+x,1/2-y,-z
_cell_length_a                   10.324(1)
_cell_length_b                   11.614(2)
_cell_length_c                   14.986(2)
_cell_angle_alpha                90
_cell_angle_beta                 90
_cell_angle_gamma                90
_cell_volume                     1796.87
_chemical_melting_point          '138-142 deg.C(dec.)'
_cell_formula_units_Z            4
loop_
_atom_site_label
_atom_site_type_symbol
_atom_site_fract_x
_atom_site_fract_y
_atom_site_fract_z
S1 S 0.44376(9) 0.52223(8) 0.25457(7)
O1 O 0.35541(17) 0.31617(14) 0.35850(12)
O2 O 0.1224(2) 0.19093(17) 0.52318(14)
O3 O -0.0180(2) 0.04634(17) 0.52618(15)
C1 C 0.4099(3) 0.6024(3) 0.1663(2)
C2 C 0.3222(3) 0.5614(3) 0.1097(2)
C3 C 0.25750(19) 0.44244(13) 0.13195(11)
C4 C 0.3390(2) 0.41771(19) 0.22232(16)
C5 C 0.3190(2) 0.31540(19) 0.27794(15)
C6 C 0.2550(2) 0.21947(18) 0.23941(17)
C7 C 0.2095(2) 0.12468(19) 0.28486(14)
N1 N 0.2319(2) 0.10655(18) 0.37130(13)
C8 C 0.1628(2) 0.02750(19) 0.42989(15)
C9 C 0.0863(2) 0.0984(2) 0.49722(15)
C10 C 0.2570(3) -0.0529(2) 0.48007(16)
C11 C 0.3241(2) -0.1425(2) 0.42225(17)
C12 C 0.4389(3) -0.1939(3) 0.4716(3)
C13 C 0.2315(3) -0.2367(3) 0.3928(2)
C14 C 0.1318(2) 0.03808(18) 0.23397(14)
C15 C 0.0056(3) 0.0647(2) 0.20870(18)
C16 C -0.0651(3) -0.0113(3) 0.1587(2)
C17 C -0.0121(3) -0.1150(2) 0.13244(19)
C18 C 0.1122(3) -0.1413(3) 0.15671(18)
C19 C 0.1847(3) -0.0661(2) 0.20726(16)
H1 H -0.060(4) 0.090(4) 0.560(3)
H2 H 0.451(3) 0.674(3) 0.165(2)
H3 H 0.284(4) 0.603(3) 0.052(2)
H4 H 0.236(2) 0.226(2) 0.1812(18)
H5 H 0.274(2) 0.157(2) 0.3983(16)
H6 H 0.105(2) -0.018(2) 0.3953(15)
H7 H 0.323(3) -0.003(3) 0.511(2)
H8 H 0.209(3) -0.093(3) 0.5310(19)
H9 H 0.354(2) -0.108(2) 0.3710(17)
H10 H 0.496(4) -0.133(3) 0.482(3)
H11 H 0.413(4) -0.223(4) 0.528(3)
H12 H 0.486(3) -0.251(3) 0.429(2)
H13 H 0.146(3) -0.208(3) 0.365(2)
H14 H 0.275(3) -0.289(3) 0.353(2)
H15 H 0.209(3) -0.282(3) 0.448(2)
H16 H -0.025(3) 0.131(2) 0.2265(18)
H17 H -0.150(3) 0.010(3) 0.139(2)
H18 H -0.057(3) -0.162(3) 0.093(2)
H19 H 0.148(3) -0.204(3) 0.142(2)
H20 H 0.276(3) -0.081(2) 0.2216(18)
C20? C 0.44376(9) 0.52223(8) 0.25457(7)
S2? S 0.25750(19) 0.44244(13) 0.13195(11)
loop_
_geom_bond_atom_site_label_1
_geom_bond_atom_site_label_2
_geom_bond_site_symmetry_1
_geom_bond_site_symmetry_2
S1 C1 1_555 1_555
O1 C5 1_555 1_555
O2 C9 1_555 1_555
O3 C9 1_555 1_555
C1 C2 1_555 1_555
C2 C3 1_555 1_555
C3 C4 1_555 1_555
C4 S1 1_555 1_555
C5 C4 1_555 1_555
C6 C5 1_555 1_555
C7 C6 1_555 1_555
N1 C7 1_555 1_555
C8 N1 1_555 1_555
C9 C8 1_555 1_555
C10 C8 1_555 1_555
C11 C10 1_555 1_555
C12 C11 1_555 1_555
C13 C11 1_555 1_555
C14 C7 1_555 1_555
C15 C14 1_555 1_555
C16 C15 1_555 1_555
C17 C16 1_555 1_555
C18 C17 1_555 1_555
C19 C14 1_555 1_555
H1 O3 1_555 1_555
H2 C1 1_555 1_555
H3 C2 1_555 1_555
H4 C6 1_555 1_555
H5 N1 1_555 1_555
H6 C8 1_555 1_555
H7 C10 1_555 1_555
H8 C10 1_555 1_555
H9 C11 1_555 1_555
H10 C12 1_555 1_555
H11 C12 1_555 1_555
H12 C12 1_555 1_555
H13 C13 1_555 1_555
H14 C13 1_555 1_555
H15 C13 1_555 1_555
H16 C15 1_555 1_555
H17 C16 1_555 1_555
H18 C17 1_555 1_555
H19 C18 1_555 1_555
H20 C19 1_555 1_555
C18 C19 1_555 1_555

#END
