
#######################################################################
#
#                 Cambridge Crystallographic Data Centre
#                                CCDC 
#
#######################################################################
#
# If this CIF has been generated from an entry in the Cambridge 
# Structural Database, then it will include bibliographic, chemical, 
# crystal, experimental, refinement or atomic coordinate data resulting 
# from the CCDC's data processing and validation procedures.
#
#######################################################################

data_QULRIA
_chemical_formula_moiety         'C29 H44 O4'
_chemical_name_systematic        
1-(3-(2-(3-hydroxy-4,4,10,12,14-pentamethyl-13,17-epoxygon-7-en-17-yl)propyl)oxiran-2-yl)ethanone
_symmetry_cell_setting           triclinic
_symmetry_space_group_name_H-M   'P 1'
_symmetry_Int_Tables_number      1
_space_group_name_Hall           'P 1'
loop_
_symmetry_equiv_pos_site_id
_symmetry_equiv_pos_as_xyz
1 x,y,z
_cell_length_a                   7.3570(3)
_cell_length_b                   11.5004(5)
_cell_length_c                   15.8083(6)
_cell_angle_alpha                101.789(2)
_cell_angle_beta                 102.383(2)
_cell_angle_gamma                90.2280(10)
_cell_volume                     1277.24
_exptl_crystal_colour            colorless
_exptl_crystal_description       sheet
_cell_formula_units_Z            2
loop_
_atom_site_label
_atom_site_type_symbol
_atom_site_fract_x
_atom_site_fract_y
_atom_site_fract_z
O1 O 0.2725(5) 1.1150(4) 1.1225(3)
H1 H 0.1929 1.1651 1.1326
O2 O 0.2987(4) 0.7514(3) 0.6982(2)
O3 O 0.3727(5) 0.7303(3) 0.3462(2)
O4 O 0.7978(5) 0.5749(4) 0.3418(3)
C1 C 0.2247(7) 1.0070(5) 1.1452(4)
H2 H 0.2313 1.0232 1.2104
C2 C 0.0264(7) 0.9570(5) 1.0968(3)
C3 C 0.0176(6) 0.9138(4) 0.9949(3)
H3 H 0.0285 0.9883 0.9726
C4 C -0.1707(7) 0.8558(5) 0.9439(4)
H4 H -0.1980 0.7866 0.9683
H5 H -0.2685 0.9133 0.9519
C5 C -0.1764(6) 0.8155(5) 0.8471(4)
H6 H -0.2948 0.7968 0.8079
C6 C -0.0259(6) 0.8042(4) 0.8124(3)
C7 C -0.0345(6) 0.7758(4) 0.7133(3)
C8 C 0.1395(6) 0.8282(4) 0.6954(3)
C9 C 0.1778(6) 0.7532(4) 0.6132(3)
C10 C 0.2648(6) 0.7955(4) 0.5451(3)
H7 H 0.3647 0.8578 0.5776
C11 C 0.3570(7) 0.6910(4) 0.4948(3)
H8 H 0.4396 0.6529 0.5382
H9 H 0.2588 0.6310 0.4588
C12 C 0.4678(6) 0.7289(4) 0.4355(3)
H10 H 0.5657 0.7939 0.4641
C13 C 0.5081(7) 0.6416(5) 0.3605(3)
H11 H 0.4556 0.5588 0.3530
C14 C 0.6837(7) 0.6513(5) 0.3302(3)
C15 C 0.7166(8) 0.7526(5) 0.2897(4)
H12 H 0.8430 0.7511 0.2790
H13 H 0.7027 0.8274 0.3300
H14 H 0.6260 0.7464 0.2335
C16 C 0.3745(7) 0.9200(6) 1.1250(4)
H15 H 0.3529 0.8454 1.1442
H16 H 0.4990 0.9552 1.1580
C17 C 0.3675(7) 0.8931(5) 1.0251(4)
H17 H 0.3943 0.9680 1.0073
H18 H 0.4664 0.8382 1.0129
C18 C 0.1809(6) 0.8381(4) 0.9690(3)
C19 C 0.1692(6) 0.8338(4) 0.8679(3)
H19 H 0.2448 0.7658 0.8477
C20 C -0.1100(7) 1.0566(5) 1.1084(4)
H20 H -0.2381 1.0225 1.0895
H21 H -0.0923 1.1138 1.0723
H22 H -0.0866 1.0971 1.1709
C21 C -0.0270(7) 0.8622(5) 1.1432(4)
H23 H -0.0213 0.8977 1.2056
H24 H 0.0599 0.7980 1.1391
H25 H -0.1539 0.8301 1.1146
C22 C 0.1908(6) 0.9529(4) 0.7455(3)
H26 H 0.0755 0.9991 0.7390
C23 C 0.2526(6) 0.9430(4) 0.8454(3)
H27 H 0.3901 0.9413 0.8610
H28 H 0.2168 1.0154 0.8829
C24 C 0.3409(7) 1.0207(4) 0.7194(4)
H29 H 0.4509 0.9730 0.7190
H30 H 0.3750 1.0962 0.7622
H31 H 0.2935 1.0365 0.6602
C25 C 0.0472(6) 0.6451(5) 0.5863(3)
H32 H 0.1145 0.5724 0.5700
H33 H -0.0539 0.6518 0.5352
C26 C -0.0322(7) 0.6415(5) 0.6688(4)
H34 H 0.0488 0.5978 0.7089
H35 H -0.1594 0.6034 0.6516
C27 C 0.1217(7) 0.8516(5) 0.4822(4)
H36 H 0.0281 0.7905 0.4458
H37 H 0.1845 0.8863 0.4437
H38 H 0.0607 0.9140 0.5166
C28 C -0.2053(6) 0.8273(5) 0.6621(4)
H39 H -0.3187 0.7847 0.6651
H40 H -0.1968 0.8182 0.6001
H41 H -0.2096 0.9118 0.6884
C29 C 0.1615(7) 0.7083(4) 0.9780(4)
H42 H 0.2577 0.6625 0.9540
H43 H 0.0380 0.6742 0.9452
H44 H 0.1763 0.7057 1.0407
O5 O 0.5947(5) 0.3777(3) 0.3776(3)
H45 H 0.6802 0.4201 0.3696
O6 O 0.0923(7) 0.3228(4) 1.1971(3)
O7 O 0.5329(4) 0.2839(3) 0.8131(2)
O8 O 0.4527(5) 0.5089(3) 1.1601(2)
C30 C 0.6430(7) 0.2547(5) 0.3626(4)
H46 H 0.6417 0.2271 0.2982
C31 C 0.8370(6) 0.2367(5) 0.4163(3)
C32 C 0.8371(6) 0.2610(4) 0.5176(3)
H47 H 0.8257 0.3488 0.5351
C33 C 0.6724(6) 0.2046(4) 0.5444(3)
C34 C 0.6742(6) 0.2625(4) 0.6427(3)
H48 H 0.5968 0.2073 0.6636
C35 C 0.5871(6) 0.3852(4) 0.6592(3)
H49 H 0.4500 0.3734 0.6399
H50 H 0.6293 0.4346 0.6219
C36 C 0.6363(6) 0.4547(4) 0.7574(3)
H51 H 0.7487 0.5082 0.7649
C37 C 0.6902(6) 0.3649(4) 0.8140(3)
C38 C 0.6481(6) 0.3425(4) 0.8969(3)
C39 C 0.5588(6) 0.4261(4) 0.9609(3)
H52 H 0.4464 0.4572 0.9262
C40 C 0.4955(7) 0.3602(5) 1.0254(3)
H53 H 0.4298 0.2842 0.9914
H54 H 0.6072 0.3408 1.0666
C41 C 0.3689(7) 0.4285(5) 1.0790(4)
H55 H 0.2533 0.4556 1.0438
C42 C 0.3528(7) 0.4020(5) 1.1630(4)
H56 H 0.4316 0.3376 1.1824
C43 C 0.1710(8) 0.4124(5) 1.1899(4)
C44 C 0.4780(7) 0.5326(5) 0.7767(4)
H57 H 0.3700 0.4824 0.7767
H58 H 0.4440 0.5798 0.7311
H59 H 0.5179 0.5860 0.8349
C45 C 0.7841(7) 0.2533(5) 0.9305(4)
H60 H 0.7185 0.1904 0.9486
H61 H 0.8827 0.2934 0.9813
C46 C 0.8670(7) 0.2008(5) 0.8493(4)
H62 H 0.9944 0.1745 0.8685
H63 H 0.7880 0.1322 0.8107
C47 C 0.8704(7) 0.3032(5) 0.8004(3)
C48 C 1.0325(6) 0.3902(6) 0.8506(4)
H64 H 1.0163 0.4214 0.9109
H65 H 1.0362 0.4560 0.8201
H66 H 1.1494 0.3492 0.8532
C49 C 0.8684(6) 0.2696(4) 0.7021(3)
C50 C 1.0210(6) 0.2579(4) 0.6711(3)
H67 H 1.1370 0.2636 0.7125
C51 C 1.0231(6) 0.2359(5) 0.5741(3)
H68 H 1.0517 0.1520 0.5539
H69 H 1.1231 0.2873 0.5656
C52 C 0.0842(7) 0.5308(5) 1.2021(4)
H70 H -0.0471 0.5195 1.2035
H71 H 0.0931 0.5685 1.1527
H72 H 0.1501 0.5818 1.2579
C53 C 0.6919(7) 0.5311(5) 1.0112(4)
H73 H 0.6369 0.5792 1.0571
H74 H 0.7145 0.5798 0.9701
H75 H 0.8101 0.5018 1.0389
C54 C 0.6876(7) 0.0689(5) 0.5407(4)
H76 H 0.5919 0.0408 0.5674
H77 H 0.8112 0.0539 0.5735
H78 H 0.6694 0.0264 0.4788
C55 C 0.4880(6) 0.2236(5) 0.4827(3)
H79 H 0.3866 0.1774 0.4951
H80 H 0.4604 0.3088 0.4964
C56 C 0.4881(7) 0.1873(5) 0.3841(3)
H81 H 0.5051 0.1008 0.3685
H82 H 0.3667 0.2040 0.3487
C57 C 0.9807(7) 0.3262(5) 0.4020(4)
H83 H 1.1073 0.3032 0.4243
H84 H 0.9631 0.4063 0.4341
H85 H 0.9624 0.3257 0.3387
C58 C 0.8935(8) 0.1115(5) 0.3775(4)
H86 H 0.9008 0.1064 0.3157
H87 H 0.8004 0.0520 0.3803
H88 H 1.0154 0.0963 0.4119
loop_
_geom_bond_atom_site_label_1
_geom_bond_atom_site_label_2
_geom_bond_site_symmetry_1
_geom_bond_site_symmetry_2
O1 H1 1_555 1_555
O2 C8 1_555 1_555
O3 C12 1_555 1_555
O4 C14 1_555 1_555
C1 O1 1_555 1_555
H2 C1 1_555 1_555
C2 C1 1_555 1_555
C3 C2 1_555 1_555
H3 C3 1_555 1_555
C4 C3 1_555 1_555
H4 C4 1_555 1_555
H5 C4 1_555 1_555
C5 C4 1_555 1_555
H6 C5 1_555 1_555
C6 C5 1_555 1_555
C7 C6 1_555 1_555
C8 C7 1_555 1_555
C9 O2 1_555 1_555
C10 C9 1_555 1_555
H7 C10 1_555 1_555
C11 C10 1_555 1_555
H8 C11 1_555 1_555
H9 C11 1_555 1_555
C12 C11 1_555 1_555
H10 C12 1_555 1_555
C13 O3 1_555 1_555
H11 C13 1_555 1_555
C14 C13 1_555 1_555
C15 C14 1_555 1_555
H12 C15 1_555 1_555
H13 C15 1_555 1_555
H14 C15 1_555 1_555
C16 C1 1_555 1_555
H15 C16 1_555 1_555
H16 C16 1_555 1_555
C17 C16 1_555 1_555
H17 C17 1_555 1_555
H18 C17 1_555 1_555
C18 C3 1_555 1_555
C19 C6 1_555 1_555
H19 C19 1_555 1_555
C20 C2 1_555 1_555
H20 C20 1_555 1_555
H21 C20 1_555 1_555
H22 C20 1_555 1_555
C21 C2 1_555 1_555
H23 C21 1_555 1_555
H24 C21 1_555 1_555
H25 C21 1_555 1_555
C22 C8 1_555 1_555
H26 C22 1_555 1_555
C23 C19 1_555 1_555
H27 C23 1_555 1_555
H28 C23 1_555 1_555
C24 C22 1_555 1_555
H29 C24 1_555 1_555
H30 C24 1_555 1_555
H31 C24 1_555 1_555
C25 C9 1_555 1_555
H32 C25 1_555 1_555
H33 C25 1_555 1_555
C26 C7 1_555 1_555
H34 C26 1_555 1_555
H35 C26 1_555 1_555
C27 C10 1_555 1_555
H36 C27 1_555 1_555
H37 C27 1_555 1_555
H38 C27 1_555 1_555
C28 C7 1_555 1_555
H39 C28 1_555 1_555
H40 C28 1_555 1_555
H41 C28 1_555 1_555
C29 C18 1_555 1_555
H42 C29 1_555 1_555
H43 C29 1_555 1_555
H44 C29 1_555 1_555
O5 H45 1_555 1_555
O6 C43 1_555 1_555
O7 C37 1_555 1_555
O8 C41 1_555 1_555
C30 O5 1_555 1_555
H46 C30 1_555 1_555
C31 C30 1_555 1_555
C32 C31 1_555 1_555
H47 C32 1_555 1_555
C33 C32 1_555 1_555
C34 C33 1_555 1_555
H48 C34 1_555 1_555
C35 C34 1_555 1_555
H49 C35 1_555 1_555
H50 C35 1_555 1_555
C36 C35 1_555 1_555
H51 C36 1_555 1_555
C37 C36 1_555 1_555
C38 O7 1_555 1_555
C39 C38 1_555 1_555
H52 C39 1_555 1_555
C40 C39 1_555 1_555
H53 C40 1_555 1_555
H54 C40 1_555 1_555
C41 C40 1_555 1_555
H55 C41 1_555 1_555
C42 O8 1_555 1_555
H56 C42 1_555 1_555
C43 C42 1_555 1_555
C44 C36 1_555 1_555
H57 C44 1_555 1_555
H58 C44 1_555 1_555
H59 C44 1_555 1_555
C45 C38 1_555 1_555
H60 C45 1_555 1_555
H61 C45 1_555 1_555
C46 C45 1_555 1_555
H62 C46 1_555 1_555
H63 C46 1_555 1_555
C47 C37 1_555 1_555
C48 C47 1_555 1_555
H64 C48 1_555 1_555
H65 C48 1_555 1_555
H66 C48 1_555 1_555
C49 C34 1_555 1_555
C50 C49 1_555 1_555
H67 C50 1_555 1_555
C51 C32 1_555 1_555
H68 C51 1_555 1_555
H69 C51 1_555 1_555
C52 C43 1_555 1_555
H70 C52 1_555 1_555
H71 C52 1_555 1_555
H72 C52 1_555 1_555
C53 C39 1_555 1_555
H73 C53 1_555 1_555
H74 C53 1_555 1_555
H75 C53 1_555 1_555
C54 C33 1_555 1_555
H76 C54 1_555 1_555
H77 C54 1_555 1_555
H78 C54 1_555 1_555
C55 C33 1_555 1_555
H79 C55 1_555 1_555
H80 C55 1_555 1_555
C56 C30 1_555 1_555
H81 C56 1_555 1_555
H82 C56 1_555 1_555
C57 C31 1_555 1_555
H83 C57 1_555 1_555
H84 C57 1_555 1_555
H85 C57 1_555 1_555
C58 C31 1_555 1_555
H86 C58 1_555 1_555
H87 C58 1_555 1_555
H88 C58 1_555 1_555
C8 C9 1_555 1_555
C12 C13 1_555 1_555
C17 C18 1_555 1_555
C18 C19 1_555 1_555
C22 C23 1_555 1_555
C25 C26 1_555 1_555
C37 C38 1_555 1_555
C41 C42 1_555 1_555
C46 C47 1_555 1_555
C47 C49 1_555 1_555
C50 C51 1_555 1_555
C55 C56 1_555 1_555

#END
