
#######################################################################
#
#                 Cambridge Crystallographic Data Centre
#                                CCDC 
#
#######################################################################
#
# If this CIF has been generated from an entry in the Cambridge 
# Structural Database, then it will include bibliographic, chemical, 
# crystal, experimental, refinement or atomic coordinate data resulting 
# from the CCDC's data processing and validation procedures.
#
#######################################################################

data_QULSAS
_chemical_formula_moiety         'C45 H54 N9 O6 P1 S1,C2 H3 N1'
_chemical_name_systematic        
'tris(2-((7-(diethylamino)-2-oxo-2H-chromen-3-yl)methylene)-1-methylhydrazino)phosphine thioxide acetonitrile solvate'
_symmetry_cell_setting           monoclinic
_symmetry_space_group_name_H-M   'P 21/n'
_symmetry_Int_Tables_number      14
_space_group_name_Hall           '-P 2yn'
loop_
_symmetry_equiv_pos_site_id
_symmetry_equiv_pos_as_xyz
1 x,y,z
2 1/2-x,1/2+y,1/2-z
3 -x,-y,-z
4 1/2+x,1/2-y,1/2+z
_cell_length_a                   16.330(3)
_cell_length_b                   19.742(4)
_cell_length_c                   30.383(6)
_cell_angle_alpha                90
_cell_angle_beta                 95.117(4)
_cell_angle_gamma                90
_cell_volume                     9756.04
_exptl_crystal_colour            yellow
_exptl_crystal_description       block
_chemical_melting_point          '230 deg.C(dec.)'
_cell_formula_units_Z            8
loop_
_atom_site_label
_atom_site_type_symbol
_atom_site_fract_x
_atom_site_fract_y
_atom_site_fract_z
C1 C 1.1852(2) 0.4422(2) 0.94377(12)
H1 H 1.1679 0.4817 0.9601
H2 H 1.2445 0.4444 0.9413
H3 H 1.1722 0.4007 0.9595
C2 C 1.0147(2) 0.43659(18) 0.92757(13)
H4 H 1.0404 0.4438 0.9565
C3 C 0.9256(2) 0.42835(18) 0.91968(12)
C4 C 0.8856(2) 0.41488(18) 0.87981(12)
H5 H 0.9163 0.4108 0.8548
C5 C 0.7995(2) 0.40667(18) 0.87426(12)
C6 C 0.7529(3) 0.3942(2) 0.83435(14)
H6 H 0.7803 0.3888 0.8083
C7 C 0.6689(3) 0.3896(2) 0.83149(14)
H7 H 0.6395 0.3809 0.8037
C8 C 0.6250(2) 0.3976(2) 0.86947(14)
C9 C 0.4935(3) 0.3756(3) 0.82526(18)
H9 H 0.4416 0.3558 0.8339
C10 C 0.4924(5) 0.3111(4) 0.8107(3)
H10 H 0.4568 0.3079 0.7830
H11 H 0.4713 0.2814 0.8329
H12 H 0.5484 0.2972 0.8055
C11 C 0.4936(3) 0.4151(2) 0.90253(15)
H13 H 0.4475 0.4442 0.8905
H14 H 0.5289 0.4426 0.9238
C12 C 0.4598(4) 0.3571(3) 0.92630(18)
H15 H 0.4255 0.3292 0.9053
H16 H 0.4264 0.3742 0.9491
H17 H 0.5051 0.3298 0.9401
C13 C 0.6708(2) 0.40760(19) 0.91011(13)
H18 H 0.6442 0.4108 0.9366
C14 C 0.7549(2) 0.41276(18) 0.91120(12)
C15 C 0.8801(2) 0.43397(19) 0.95829(13)
C16 C 1.0881(2) 0.48199(19) 0.79574(13)
H19 H 1.0768 0.4786 0.7636
H20 H 1.1295 0.5171 0.8029
H21 H 1.0374 0.4938 0.8090
C17 C 1.0005(2) 0.36138(18) 0.78706(12)
H22 H 0.9819 0.4008 0.7713
C18 C 0.9506(2) 0.29954(18) 0.78578(11)
C19 C 0.9717(2) 0.24334(19) 0.80989(12)
H23 H 1.0214 0.2431 0.8287
C20 C 0.9212(2) 0.18522(18) 0.80746(12)
C21 C 0.9397(2) 0.12455(19) 0.83070(12)
H24 H 0.9897 0.1213 0.8491
C22 C 0.8874(2) 0.07020(19) 0.82739(12)
H25 H 0.9013 0.0306 0.8442
C23 C 0.7817(3) -0.0457(2) 0.82074(14)
H26 H 0.7300 -0.0708 0.8237
H27 H 0.8055 -0.0335 0.8508
C24 C 0.8414(3) -0.0916(2) 0.79937(15)
H28 H 0.8152 -0.1091 0.7714
H29 H 0.8569 -0.1295 0.8192
H30 H 0.8907 -0.0658 0.7937
C25 C 0.6881(3) 0.0153(2) 0.76593(14)
H31 H 0.6778 -0.0316 0.7553
H32 H 0.6962 0.0440 0.7400
C26 C 0.6141(3) 0.0400(3) 0.7871(2)
H33 H 0.6056 0.0117 0.8129
H34 H 0.5655 0.0373 0.7658
H35 H 0.6228 0.0871 0.7966
C27 C 0.7943(2) 0.13171(18) 0.77587(12)
H36 H 0.7448 0.1350 0.7570
C28 C 0.8477(2) 0.18574(18) 0.78019(11)
C29 C 0.8750(2) 0.29994(18) 0.75687(12)
C30 C 0.8133(2) 0.07141(18) 0.79957(12)
C31 C 1.2637(2) 0.29397(19) 0.84105(13)
H37 H 1.2972 0.2637 0.8608
H38 H 1.2996 0.3242 0.8259
H39 H 1.2302 0.2670 0.8191
C32 C 1.1499(2) 0.23861(19) 0.89317(12)
H40 H 1.1854 0.2109 0.8778
C33 C 1.0895(2) 0.20898(18) 0.92003(12)
C34 C 1.0306(2) 0.2453(2) 0.93760(13)
H41 H 1.0234 0.2917 0.9298
C35 C 0.9789(2) 0.2156(2) 0.96761(14)
C36 C 0.9210(3) 0.2509(2) 0.99031(15)
H42 H 0.9096 0.2969 0.9829
C37 C 0.8804(3) 0.2211(2) 1.02273(16)
H43 H 0.8408 0.2462 1.0370
C38 C 0.8972(3) 0.1527(2) 1.03507(14)
C39 C 0.8162(3) 0.1633(2) 1.10026(15)
H44 H 0.8341 0.2112 1.0996
H45 H 0.8305 0.1460 1.1305
C40 C 0.7248(3) 0.1604(3) 1.09027(18)
H46 H 0.7102 0.1750 1.0598
H47 H 0.6985 0.1903 1.1105
H48 H 0.7058 0.1138 1.0940
C41 C 0.8812(3) 0.0549(2) 1.08279(14)
H49 H 0.8807 0.0264 1.0560
H50 H 0.8380 0.0377 1.1008
C42 C 0.9642(3) 0.0478(3) 1.10917(17)
H51 H 1.0076 0.0625 1.0911
H52 H 0.9731 0.0003 1.1177
H53 H 0.9653 0.0760 1.1358
C43 C 0.9505(2) 0.11650(19) 1.01069(13)
H54 H 0.9595 0.0697 1.0165
C44 C 0.9901(2) 0.14763(19) 0.97848(13)
C45 C 1.0968(3) 0.1370(2) 0.92859(13)
N1 N 1.14169(18) 0.44164(15) 0.89950(10)
N2 N 1.05730(18) 0.43369(15) 0.89383(10)
N3 N 0.5413(2) 0.3945(2) 0.86654(12)
N4 N 1.11852(18) 0.41744(14) 0.81325(10)
N5 N 1.06965(18) 0.36047(14) 0.80999(10)
N6 N 0.7627(2) 0.01630(15) 0.79585(10)
N7 N 1.20997(19) 0.33419(15) 0.86675(10)
N8 N 1.15330(18) 0.30337(15) 0.89108(10)
N9 N 0.8613(2) 0.12441(16) 1.06949(11)
O1 O 0.90902(17) 0.44416(14) 0.99566(9)
O2 O 0.79611(16) 0.42523(13) 0.95220(8)
O3 O 0.85010(16) 0.34658(13) 0.73333(9)
O4 O 0.82538(15) 0.24314(12) 0.75646(8)
O5 O 1.04417(18) 0.10925(13) 0.95689(9)
O6 O 1.1427(2) 0.09877(14) 0.91236(11)
P1 P 1.18988(6) 0.41565(5) 0.85648(3)
S1 S 1.28573(6) 0.46825(5) 0.84730(3)
C46 C 0.5823(2) 0.57160(18) 0.80138(13)
H55 H 0.5319 0.5584 0.8144
H56 H 0.6238 0.5360 0.8069
H57 H 0.5703 0.5778 0.7695
C47 C 0.4954(2) 0.69181(18) 0.79603(11)
H58 H 0.4769 0.6530 0.7796
C48 C 0.4451(2) 0.75378(18) 0.79538(11)
C49 C 0.4668(2) 0.80993(18) 0.81935(11)
H59 H 0.5164 0.8100 0.8383
C50 C 0.4167(2) 0.86839(19) 0.81660(12)
C51 C 0.4359(3) 0.9296(2) 0.83857(13)
H60 H 0.4850 0.9327 0.8577
C52 C 0.3858(3) 0.9848(2) 0.83307(13)
H61 H 0.4009 1.0255 0.8484
C53 C 0.3124(3) 0.9829(2) 0.80528(13)
C54 C 0.2879(3) 1.1050(2) 0.81720(15)
H62 H 0.3132 1.0984 0.8478
H63 H 0.2381 1.1332 0.8187
C55 C 0.3478(3) 1.1419(2) 0.79082(18)
H64 H 0.3978 1.1147 0.7899
H65 H 0.3617 1.1856 0.8047
H66 H 0.3228 1.1493 0.7607
C56 C 0.1891(3) 1.0387(2) 0.76802(14)
H67 H 0.1965 1.0075 0.7432
H68 H 0.1797 1.0847 0.7556
C57 C 0.1143(3) 1.0171(3) 0.79064(19)
H69 H 0.1221 0.9707 0.8017
H70 H 0.0655 1.0190 0.7695
H71 H 0.1070 1.0476 0.8154
C58 C 0.2906(2) 0.92136(19) 0.78437(12)
H72 H 0.2401 0.9173 0.7665
C59 C 0.3430(2) 0.86705(18) 0.78997(12)
C60 C 0.3701(2) 0.75264(19) 0.76685(13)
C61 C 0.6814(2) 0.5775(2) 0.94639(12)
H73 H 0.6701 0.6122 0.9681
H74 H 0.7406 0.5760 0.9433
H75 H 0.6631 0.5333 0.9564
C62 C 0.5108(2) 0.58714(18) 0.93244(12)
H76 H 0.5359 0.5698 0.9595
C63 C 0.4222(2) 0.59776(18) 0.92543(12)
C64 C 0.3839(2) 0.62919(18) 0.88952(12)
H77 H 0.4160 0.6458 0.8673
C65 C 0.2981(2) 0.63781(19) 0.88424(12)
C66 C 0.2538(3) 0.6651(2) 0.84704(13)
H78 H 0.2826 0.6811 0.8233
C67 C 0.1697(3) 0.6696(2) 0.84401(14)
H79 H 0.1416 0.6892 0.8184
C68 C 0.1237(2) 0.6456(2) 0.87804(13)
C69 C -0.0062(3) 0.6748(3) 0.83441(19)
H80 H -0.0306 0.6465 0.8116
C70 C -0.0112(4) 0.7465(3) 0.8323(2)
H81 H -0.0391 0.7634 0.8574
H82 H -0.0423 0.7601 0.8047
H83 H 0.0444 0.7656 0.8335
C71 C -0.0101(3) 0.6125(3) 0.90457(17)
H84 H 0.0269 0.5850 0.9251
H85 H -0.0481 0.5810 0.8876
C72 C -0.0593(4) 0.6588(3) 0.93113(18)
H86 H -0.0230 0.6932 0.9456
H87 H -0.0849 0.6324 0.9535
H88 H -0.1021 0.6810 0.9115
C73 C 0.1680(2) 0.61904(19) 0.91621(13)
H89 H 0.1399 0.6040 0.9405
C74 C 0.2518(2) 0.61530(17) 0.91777(12)
C75 C 0.3739(2) 0.57387(19) 0.95999(13)
C76 C 0.7454(2) 0.75997(19) 0.85521(13)
H90 H 0.7075 0.7874 0.8357
H91 H 0.7820 0.7345 0.8374
H92 H 0.7781 0.7897 0.8758
C77 C 0.6269(2) 0.79923(19) 0.91063(12)
H93 H 0.6585 0.8319 0.8965
C78 C 0.5630(2) 0.81975(19) 0.93882(12)
C79 C 0.5098(2) 0.7747(2) 0.95546(13)
H94 H 0.5129 0.7283 0.9476
C80 C 0.4508(3) 0.79509(18) 0.98375(13)
C81 C 0.3955(3) 0.7516(2) 1.00217(14)
H95 H 0.3955 0.7050 0.9944
C82 C 0.3413(3) 0.7736(2) 1.03090(15)
H96 H 0.3044 0.7424 1.0424
C83 C 0.3399(3) 0.8433(2) 1.04383(14)
C84 C 0.2312(4) 0.8192(3) 1.0928(2)
H97 H 0.2071 0.7881 1.0695
H98 H 0.1858 0.8459 1.1036
C85 C 0.2719(6) 0.7776(3) 1.1307(2)
H99 H 0.3114 0.7461 1.1194
H100 H 0.2298 0.7519 1.1447
H101 H 0.3005 0.8078 1.1526
C86 C 0.2839(3) 0.9353(2) 1.08652(14)
H102 H 0.3389 0.9563 1.0861
H103 H 0.2679 0.9376 1.1172
C87 C 0.2222(3) 0.9752(3) 1.05619(16)
H104 H 0.2350 0.9697 1.0255
H105 H 0.2253 1.0233 1.0642
H106 H 0.1666 0.9583 1.0594
C88 C 0.3936(3) 0.8882(2) 1.02423(13)
H107 H 0.3929 0.9352 1.0308
C89 C 0.4469(2) 0.86323(19) 0.99551(13)
C90 C 0.5548(3) 0.8909(2) 0.94821(12)
N10 N 0.61297(18) 0.63425(15) 0.82104(10)
N11 N 0.56398(18) 0.69166(14) 0.81917(9)
N12 N 0.2640(2) 1.03904(17) 0.79821(11)
N13 N 0.63749(18) 0.59393(15) 0.90399(10)
N14 N 0.55334(18) 0.60248(15) 0.90013(10)
N15 N 0.0390(2) 0.64765(19) 0.87403(12)
N16 N 0.69850(18) 0.71291(15) 0.88009(10)
N17 N 0.63871(19) 0.73552(15) 0.90570(10)
N18 N 0.2883(2) 0.86543(16) 1.07329(12)
O7 O 0.31977(15) 0.80926(12) 0.76650(8)
O8 O 0.34540(17) 0.70659(13) 0.74293(9)
O9 O 0.29031(15) 0.58581(13) 0.95512(8)
O10 O 0.40046(16) 0.54561(15) 0.99357(9)
O11 O 0.49732(17) 0.90944(13) 0.97725(9)
O12 O 0.59419(18) 0.93655(14) 0.93420(9)
P2 P 0.68425(6) 0.63202(5) 0.86401(3)
S2 S 0.78317(6) 0.58668(5) 0.85099(3)
C91 C 0.6676(4) 0.9502(3) 0.04686(18)
H108 H 0.6181 0.9784 0.0456
H109 H 0.6889 0.9492 0.0177
H110 H 0.7095 0.9691 0.0685
C92 C 0.6478(4) 0.8827(3) 0.05963(19)
N19 N 0.6327(4) 0.8286(3) 0.07041(19)
C93 C 0.7635(5) 0.7427(3) 0.9978(2)
H111 H 0.7263 0.7585 1.0192
H112 H 0.8072 0.7151 1.0130
H113 H 0.7327 0.7153 0.9751
C94 C 0.7988(5) 0.7993(4) 0.9777(3)
N20 N 0.8247(5) 0.8457(4) 0.9614(3)
H8? H 0.5240 0.3381 0.8125
C95? C 0.4725(7) 0.4172(6) 0.7924(4)
H114? H 0.4409 0.3924 0.7686
H115? H 0.5221 0.4361 0.7812
H116? H 0.4388 0.4540 0.8028
loop_
_geom_bond_atom_site_label_1
_geom_bond_atom_site_label_2
_geom_bond_site_symmetry_1
_geom_bond_site_symmetry_2
C1 H1 1_555 1_555
H2 C1 1_555 1_555
H3 C1 1_555 1_555
C2 H4 1_555 1_555
C3 C2 1_555 1_555
C4 C3 1_555 1_555
H5 C4 1_555 1_555
C5 C4 1_555 1_555
C6 C5 1_555 1_555
H6 C6 1_555 1_555
C7 C6 1_555 1_555
H7 C7 1_555 1_555
C8 C7 1_555 1_555
C9 H9 1_555 1_555
C10 C9 1_555 1_555
H10 C10 1_555 1_555
H11 C10 1_555 1_555
H12 C10 1_555 1_555
C11 H13 1_555 1_555
H14 C11 1_555 1_555
C12 C11 1_555 1_555
H15 C12 1_555 1_555
H16 C12 1_555 1_555
H17 C12 1_555 1_555
C13 C8 1_555 1_555
H18 C13 1_555 1_555
C14 C5 1_555 1_555
C15 C3 1_555 1_555
C16 H19 1_555 1_555
H20 C16 1_555 1_555
H21 C16 1_555 1_555
C17 H22 1_555 1_555
C18 C17 1_555 1_555
C19 C18 1_555 1_555
H23 C19 1_555 1_555
C20 C19 1_555 1_555
C21 C20 1_555 1_555
H24 C21 1_555 1_555
C22 C21 1_555 1_555
H25 C22 1_555 1_555
C23 H26 1_555 1_555
H27 C23 1_555 1_555
C24 C23 1_555 1_555
H28 C24 1_555 1_555
H29 C24 1_555 1_555
H30 C24 1_555 1_555
C25 H31 1_555 1_555
H32 C25 1_555 1_555
C26 C25 1_555 1_555
H33 C26 1_555 1_555
H34 C26 1_555 1_555
H35 C26 1_555 1_555
C27 H36 1_555 1_555
C28 C20 1_555 1_555
C29 C18 1_555 1_555
C30 C22 1_555 1_555
C31 H37 1_555 1_555
H38 C31 1_555 1_555
H39 C31 1_555 1_555
C32 H40 1_555 1_555
C33 C32 1_555 1_555
C34 C33 1_555 1_555
H41 C34 1_555 1_555
C35 C34 1_555 1_555
C36 C35 1_555 1_555
H42 C36 1_555 1_555
C37 C36 1_555 1_555
H43 C37 1_555 1_555
C38 C37 1_555 1_555
C39 H44 1_555 1_555
H45 C39 1_555 1_555
C40 C39 1_555 1_555
H46 C40 1_555 1_555
H47 C40 1_555 1_555
H48 C40 1_555 1_555
C41 H49 1_555 1_555
H50 C41 1_555 1_555
C42 C41 1_555 1_555
H51 C42 1_555 1_555
H52 C42 1_555 1_555
H53 C42 1_555 1_555
C43 C38 1_555 1_555
H54 C43 1_555 1_555
C44 C35 1_555 1_555
C45 C33 1_555 1_555
C46 H55 1_555 1_555
H56 C46 1_555 1_555
H57 C46 1_555 1_555
C47 H58 1_555 1_555
C48 C47 1_555 1_555
C49 C48 1_555 1_555
H59 C49 1_555 1_555
C50 C49 1_555 1_555
C51 C50 1_555 1_555
H60 C51 1_555 1_555
C52 C51 1_555 1_555
H61 C52 1_555 1_555
C53 C52 1_555 1_555
C54 H62 1_555 1_555
H63 C54 1_555 1_555
C55 C54 1_555 1_555
H64 C55 1_555 1_555
H65 C55 1_555 1_555
H66 C55 1_555 1_555
C56 H67 1_555 1_555
H68 C56 1_555 1_555
C57 C56 1_555 1_555
H69 C57 1_555 1_555
H70 C57 1_555 1_555
H71 C57 1_555 1_555
C58 C53 1_555 1_555
H72 C58 1_555 1_555
C59 C50 1_555 1_555
C60 C48 1_555 1_555
C61 H73 1_555 1_555
H74 C61 1_555 1_555
H75 C61 1_555 1_555
C62 H76 1_555 1_555
C63 C62 1_555 1_555
C64 C63 1_555 1_555
H77 C64 1_555 1_555
C65 C64 1_555 1_555
C66 C65 1_555 1_555
H78 C66 1_555 1_555
C67 C66 1_555 1_555
H79 C67 1_555 1_555
C68 C67 1_555 1_555
C69 H80 1_555 1_555
C70 C69 1_555 1_555
H81 C70 1_555 1_555
H82 C70 1_555 1_555
H83 C70 1_555 1_555
C71 H84 1_555 1_555
H85 C71 1_555 1_555
C72 C71 1_555 1_555
H86 C72 1_555 1_555
H87 C72 1_555 1_555
H88 C72 1_555 1_555
C73 C68 1_555 1_555
H89 C73 1_555 1_555
C74 C65 1_555 1_555
C75 C63 1_555 1_555
C76 H90 1_555 1_555
H91 C76 1_555 1_555
H92 C76 1_555 1_555
C77 H93 1_555 1_555
C78 C77 1_555 1_555
C79 C78 1_555 1_555
H94 C79 1_555 1_555
C80 C79 1_555 1_555
C81 C80 1_555 1_555
H95 C81 1_555 1_555
C82 C81 1_555 1_555
H96 C82 1_555 1_555
C83 C82 1_555 1_555
C84 H97 1_555 1_555
H98 C84 1_555 1_555
C85 C84 1_555 1_555
H99 C85 1_555 1_555
H100 C85 1_555 1_555
H101 C85 1_555 1_555
C86 H102 1_555 1_555
H103 C86 1_555 1_555
C87 C86 1_555 1_555
H104 C87 1_555 1_555
H105 C87 1_555 1_555
H106 C87 1_555 1_555
C88 C83 1_555 1_555
H107 C88 1_555 1_555
C89 C80 1_555 1_555
C90 C78 1_555 1_555
C91 H108 1_555 1_555
H109 C91 1_555 1_555
H110 C91 1_555 1_555
C92 C91 1_555 1_555
C93 H111 1_555 1_555
H112 C93 1_555 1_555
H113 C93 1_555 1_555
C94 C93 1_555 1_555
N1 C1 1_555 1_555
N2 C2 1_555 1_555
N3 C8 1_555 1_555
N4 C16 1_555 1_555
N5 C17 1_555 1_555
N6 C23 1_555 1_555
N7 C31 1_555 1_555
N8 C32 1_555 1_555
N9 C38 1_555 1_555
N10 C46 1_555 1_555
N11 C47 1_555 1_555
N12 C53 1_555 1_555
N13 C61 1_555 1_555
N14 C62 1_555 1_555
N15 C68 1_555 1_555
N16 C76 1_555 1_555
N17 C77 1_555 1_555
N18 C83 1_555 1_555
N19 C92 1_555 1_555
N20 C94 1_555 1_555
O1 C15 1_555 1_555
O2 C14 1_555 1_555
O3 C29 1_555 1_555
O4 C28 1_555 1_555
O5 C44 1_555 1_555
O6 C45 1_555 1_555
O7 C59 1_555 1_555
O8 C60 1_555 1_555
O9 C74 1_555 1_555
O10 C75 1_555 1_555
O11 C89 1_555 1_555
O12 C90 1_555 1_555
P1 N1 1_555 1_555
P2 N10 1_555 1_555
S1 P1 1_555 1_555
S2 P2 1_555 1_555
C9 N3 1_555 1_555
C11 N3 1_555 1_555
C13 C14 1_555 1_555
C15 O2 1_555 1_555
C25 N6 1_555 1_555
C27 C28 1_555 1_555
C27 C30 1_555 1_555
C29 O4 1_555 1_555
C30 N6 1_555 1_555
C39 N9 1_555 1_555
C41 N9 1_555 1_555
C43 C44 1_555 1_555
C45 O5 1_555 1_555
C54 N12 1_555 1_555
C56 N12 1_555 1_555
C58 C59 1_555 1_555
C60 O7 1_555 1_555
C69 N15 1_555 1_555
C71 N15 1_555 1_555
C73 C74 1_555 1_555
C75 O9 1_555 1_555
C84 N18 1_555 1_555
C86 N18 1_555 1_555
C88 C89 1_555 1_555
C90 O11 1_555 1_555
N1 N2 1_555 1_555
N4 N5 1_555 1_555
N4 P1 1_555 1_555
N7 N8 1_555 1_555
N7 P1 1_555 1_555
N10 N11 1_555 1_555
N13 N14 1_555 1_555
N13 P2 1_555 1_555
N16 N17 1_555 1_555
N16 P2 1_555 1_555

#END
