
#######################################################################
#
#                 Cambridge Crystallographic Data Centre
#                                CCDC 
#
#######################################################################
#
# If this CIF has been generated from an entry in the Cambridge 
# Structural Database, then it will include bibliographic, chemical, 
# crystal, experimental, refinement or atomic coordinate data resulting 
# from the CCDC's data processing and validation procedures.
#
#######################################################################

data_QULWUR
_chemical_formula_moiety         'C13 H12 Br1 N1 O3'
_chemical_name_systematic        
5'-bromo-1',3-dimethyl-3H-spiro[furan-2,3'-indole]-2',5(1'H,4H)-dione
_symmetry_cell_setting           orthorhombic
_symmetry_space_group_name_H-M   'P 21 21 21'
_symmetry_Int_Tables_number      19
_space_group_name_Hall           'P 2ac 2ab'
loop_
_symmetry_equiv_pos_site_id
_symmetry_equiv_pos_as_xyz
1 x,y,z
2 1/2-x,-y,1/2+z
3 1/2+x,1/2-y,-z
4 -x,1/2+y,1/2-z
_cell_length_a                   9.5256(7)
_cell_length_b                   9.8263(10)
_cell_length_c                   14.0527(11)
_cell_angle_alpha                90
_cell_angle_beta                 90
_cell_angle_gamma                90
_cell_volume                     1315.35
_exptl_crystal_colour            colorless
_exptl_crystal_description       block
_cell_formula_units_Z            4
loop_
_atom_site_label
_atom_site_type_symbol
_atom_site_fract_x
_atom_site_fract_y
_atom_site_fract_z
Br1 Br 1.01618(10) 1.32607(10) 0.78249(8)
O1 O 0.5363(5) 0.9613(5) 0.7107(3)
O2 O 0.4451(6) 0.7954(5) 0.8704(4)
O3 O 0.3662(7) 0.9542(8) 0.6034(4)
C1 C 0.7764(7) 1.1560(7) 0.7915(5)
H1 H 0.7444 1.2057 0.7395
C2 C 0.4342(8) 1.1069(8) 0.8258(5)
H2 H 0.4671 1.1961 0.8039
C3 C 0.5536(7) 1.0037(7) 0.8079(4)
N1 N 0.6506(7) 0.8779(6) 0.9333(4)
C4 C 0.4028(8) 0.9877(8) 0.6803(5)
C5 C 0.9558(8) 1.1116(8) 0.9093(5)
H3 H 1.0433 1.1321 0.9349
C6 C 0.6970(8) 1.0530(7) 0.8302(5)
C7 C 0.7465(8) 0.9793(7) 0.9091(5)
C8 C 0.5388(8) 0.8779(7) 0.8731(5)
C9 C 0.3249(9) 1.0596(9) 0.7575(5)
H4 H 0.2730 1.1363 0.7320
H5 H 0.2596 0.9983 0.7886
C10 C 0.8741(9) 1.0075(8) 0.9490(5)
H6 H 0.9060 0.9586 1.0014
C11 C 0.9061(7) 1.1832(8) 0.8327(5)
C12 C 0.3891(10) 1.1222(11) 0.9288(6)
H7 H 0.4674 1.1528 0.9662
H8 H 0.3572 1.0359 0.9525
H9 H 0.3144 1.1874 0.9330
C13 C 0.6679(12) 0.7815(11) 1.0108(6)
H10 H 0.7534 0.8009 1.0443
H11 H 0.6717 0.6908 0.9856
H12 H 0.5899 0.7890 1.0538
loop_
_geom_bond_atom_site_label_1
_geom_bond_atom_site_label_2
_geom_bond_site_symmetry_1
_geom_bond_site_symmetry_2
Br1 C11 1_555 1_555
O1 C3 1_555 1_555
O2 C8 1_555 1_555
O3 C4 1_555 1_555
C1 H1 1_555 1_555
C2 H2 1_555 1_555
C3 C2 1_555 1_555
N1 C7 1_555 1_555
C4 O1 1_555 1_555
C5 H3 1_555 1_555
C6 C1 1_555 1_555
C7 C6 1_555 1_555
C8 C3 1_555 1_555
C9 C2 1_555 1_555
H4 C9 1_555 1_555
H5 C9 1_555 1_555
C10 C5 1_555 1_555
H6 C10 1_555 1_555
C11 C1 1_555 1_555
C12 C2 1_555 1_555
H7 C12 1_555 1_555
H8 C12 1_555 1_555
H9 C12 1_555 1_555
C13 N1 1_555 1_555
H10 C13 1_555 1_555
H11 C13 1_555 1_555
H12 C13 1_555 1_555
C3 C6 1_555 1_555
N1 C8 1_555 1_555
C4 C9 1_555 1_555
C5 C11 1_555 1_555
C7 C10 1_555 1_555

#END
