
#######################################################################
#
#                 Cambridge Crystallographic Data Centre
#                                CCDC 
#
#######################################################################
#
# If this CIF has been generated from an entry in the Cambridge 
# Structural Database, then it will include bibliographic, chemical, 
# crystal, experimental, refinement or atomic coordinate data resulting 
# from the CCDC's data processing and validation procedures.
#
#######################################################################

data_QULYOL
_chemical_formula_moiety         'C22 H24 O1'
_chemical_name_systematic        
spiro[pentacyclo[5.5.0.0^2,6^.0^3,10^.0^5,9^]dodecane-12,8'-pentacyclo[5.4.0.0^2,6^.0^3,10^.0^5,9^]undecan]-11-one
_symmetry_cell_setting           monoclinic
_symmetry_space_group_name_H-M   'P 21/n'
_symmetry_Int_Tables_number      14
_space_group_name_Hall           '-P 2yn'
loop_
_symmetry_equiv_pos_site_id
_symmetry_equiv_pos_as_xyz
1 x,y,z
2 1/2-x,1/2+y,1/2-z
3 -x,-y,-z
4 1/2+x,1/2-y,1/2+z
_cell_length_a                   6.604(2)
_cell_length_b                   18.955(7)
_cell_length_c                   12.352(3)
_cell_angle_alpha                90
_cell_angle_beta                 104.26(2)
_cell_angle_gamma                90
_cell_volume                     1498.57
_cell_formula_units_Z            4
loop_
_atom_site_label
_atom_site_type_symbol
_atom_site_fract_x
_atom_site_fract_y
_atom_site_fract_z
C1 C 0.9943(4) 0.0565(1) 0.3523(2)
C2 C 0.9711(4) -0.0202(1) 0.3073(2)
C3 C 0.7367(4) -0.0370(1) 0.2756(2)
C4 C 0.6959(4) -0.0648(1) 0.1577(2)
C5 C 0.7929(4) -0.0015(1) 0.1136(2)
C6 C 1.0099(3) 0.0058(1) 0.1941(2)
C7 C 1.0320(3) 0.0831(1) 0.2399(2)
C8 C 0.8478(3) 0.1220(1) 0.1604(2)
C9 C 0.6825(3) 0.0633(1) 0.1481(2)
C10 C 0.6443(3) 0.0381(1) 0.2640(2)
C11 C 0.7801(4) 0.0748(1) 0.3657(2)
C12 C 0.7773(3) 0.1932(1) 0.1951(2)
C13 C 0.8895(3) 0.2576(1) 0.1691(2)
C14 C 0.7722(3) 0.2879(1) 0.0515(2)
C15 C 0.6378(3) 0.2333(1) -0.0230(2)
C16 C 0.7953(3) 0.1815(1) -0.0472(2)
C17 C 0.9928(3) 0.2270(1) -0.0420(2)
C18 C 0.9542(4) 0.3015(1) -0.0036(2)
C19 C 1.1425(4) 0.3142(1) 0.0941(2)
C20 C 1.1114(3) 0.2473(1) 0.1567(2)
C21 C 1.1046(3) 0.1901(1) 0.0686(2)
C22 C 0.9227(3) 0.1370(1) 0.0535(2)
O1 O 0.6218(2) 0.2002(1) 0.2300(1)
H1 H 1.1078(32) 0.0670(11) 0.4180(17)
H2 H 1.0611(33) -0.0570(12) 0.3478(18)
H3 H 0.6869(30) -0.0651(10) 0.3325(17)
H4 H 0.7794(38) -0.1103(13) 0.1536(20)
H5 H 0.5373(39) -0.0715(13) 0.1214(21)
H6 H 0.7901(33) -0.0022(11) 0.0340(18)
H7 H 1.1260(29) -0.0134(10) 0.1668(16)
H8 H 1.1641(30) 0.1065(10) 0.2453(16)
H9 H 0.5468(32) 0.0740(10) 0.0912(16)
H10 H 0.4956(30) 0.0399(10) 0.2627(17)
H11 H 0.7577(36) 0.1260(13) 0.3714(19)
H12 H 0.7589(35) 0.0525(12) 0.4353(20)
H13 H 0.8873(28) 0.2936(9) 0.2258(15)
H14 H 0.6962(30) 0.3304(11) 0.0631(16)
H15 H 0.5674(30) 0.2575(11) -0.0952(17)
H16 H 0.5318(26) 0.2116(9) 0.0106(15)
H17 H 0.7410(31) 0.1540(11) -0.1165(18)
H18 H 1.0624(30) 0.2260(11) -0.1043(17)
H19 H 0.9244(32) 0.3387(11) -0.0596(17)
H20 H 1.1352(32) 0.3588(11) 0.1389(18)
H21 H 1.2746(34) 0.3144(12) 0.0697(18)
H22 H 1.2133(29) 0.2394(10) 0.2279(16)
H23 H 1.2317(28) 0.1690(10) 0.0706(15)
H24 H 0.9585(30) 0.0924(11) 0.0239(16)
loop_
_geom_bond_atom_site_label_1
_geom_bond_atom_site_label_2
_geom_bond_site_symmetry_1
_geom_bond_site_symmetry_2
C1 C2 1_555 1_555
C2 C3 1_555 1_555
C3 C4 1_555 1_555
C4 C5 1_555 1_555
C5 C6 1_555 1_555
C6 C2 1_555 1_555
C7 C1 1_555 1_555
C8 C7 1_555 1_555
C9 C5 1_555 1_555
C10 C3 1_555 1_555
C11 C1 1_555 1_555
C12 C8 1_555 1_555
C13 C12 1_555 1_555
C14 C13 1_555 1_555
C15 C14 1_555 1_555
C16 C15 1_555 1_555
C17 C16 1_555 1_555
C18 C14 1_555 1_555
C19 C18 1_555 1_555
C20 C13 1_555 1_555
C21 C17 1_555 1_555
C22 C8 1_555 1_555
O1 C12 1_555 1_555
H1 C1 1_555 1_555
H2 C2 1_555 1_555
H3 C3 1_555 1_555
H4 C4 1_555 1_555
H5 C4 1_555 1_555
H6 C5 1_555 1_555
H7 C6 1_555 1_555
H8 C7 1_555 1_555
H9 C9 1_555 1_555
H10 C10 1_555 1_555
H11 C11 1_555 1_555
H12 C11 1_555 1_555
H13 C13 1_555 1_555
H14 C14 1_555 1_555
H15 C15 1_555 1_555
H16 C15 1_555 1_555
H17 C16 1_555 1_555
H18 C17 1_555 1_555
H19 C18 1_555 1_555
H20 C19 1_555 1_555
H21 C19 1_555 1_555
H22 C20 1_555 1_555
H23 C21 1_555 1_555
H24 C22 1_555 1_555
C6 C7 1_555 1_555
C8 C9 1_555 1_555
C9 C10 1_555 1_555
C10 C11 1_555 1_555
C16 C22 1_555 1_555
C17 C18 1_555 1_555
C19 C20 1_555 1_555
C20 C21 1_555 1_555
C21 C22 1_555 1_555

#END
