
#######################################################################
#
#                 Cambridge Crystallographic Data Centre
#                                CCDC 
#
#######################################################################
#
# If this CIF has been generated from an entry in the Cambridge 
# Structural Database, then it will include bibliographic, chemical, 
# crystal, experimental, refinement or atomic coordinate data resulting 
# from the CCDC's data processing and validation procedures.
#
#######################################################################

data_QUMBUX
_chemical_formula_moiety         'C22 H12 O2 S1,0.25(C1 H2 Cl2)'
_chemical_name_systematic        
'Phenanthro[3,4,5-mnab]thioxanthene 7,7-dioxide dichloromethane solvate'
_symmetry_cell_setting           triclinic
_symmetry_space_group_name_H-M   'P -1'
_symmetry_Int_Tables_number      2
_space_group_name_Hall           '-P 1'
loop_
_symmetry_equiv_pos_site_id
_symmetry_equiv_pos_as_xyz
1 x,y,z
2 -x,-y,-z
_cell_length_a                   7.69150(10)
_cell_length_b                   12.5019(2)
_cell_length_c                   16.8126(3)
_cell_angle_alpha                97.6660(10)
_cell_angle_beta                 96.4710(10)
_cell_angle_gamma                97.1850(10)
_cell_volume                     1575.82
_exptl_crystal_colour            yellow
_exptl_crystal_description       prism
_cell_formula_units_Z            4
loop_
_atom_site_label
_atom_site_type_symbol
_atom_site_fract_x
_atom_site_fract_y
_atom_site_fract_z
C23 C 0.35266(18) 0.98156(12) 0.28125(10)
C24 C 0.27392(18) 0.87392(11) 0.24633(9)
C25 C 0.26889(19) 0.84731(12) 0.16033(9)
C26 C 0.41724(18) 1.05809(12) 0.23161(10)
C27 C 0.09822(18) 0.69359(12) 0.25996(9)
C28 C 0.4682(2) 1.10494(15) 0.09965(13)
H13 H 0.4556 1.0867 0.0436
C29 C 0.3256(2) 0.92034(13) 0.11275(10)
H14 H 0.3147 0.8993 0.0570
C30 C 0.20494(19) 0.79953(12) 0.29509(9)
C31 C 0.4019(2) 1.02884(13) 0.14691(11)
C32 C 0.49944(19) 1.16457(13) 0.26820(12)
C33 C 0.3683(2) 1.01327(13) 0.36590(10)
C34 C 0.5090(2) 1.19411(14) 0.35332(13)
H15 H 0.5600 1.2640 0.3773
C35 C 0.2302(2) 0.83273(14) 0.37887(10)
H16 H 0.1921 0.7838 0.4125
C36 C -0.0034(2) 0.63211(13) 0.30684(11)
H17 H 0.0011 0.6568 0.3618
C37 C 0.08460(19) 0.65090(12) 0.17797(10)
C38 C 0.3101(2) 0.93592(15) 0.41291(11)
H18 H 0.3255 0.9545 0.4689
C39 C -0.0242(2) 0.55481(14) 0.14364(11)
H19 H -0.0309 0.5296 0.0886
C40 C 0.5519(3) 1.20672(15) 0.13589(15)
H20 H 0.5986 1.2559 0.1042
C41 C 0.4457(2) 1.12279(15) 0.39999(12)
H21 H 0.4521 1.1448 0.4554
C42 C 0.5669(2) 1.23603(14) 0.21836(15)
H22 H 0.6233 1.3051 0.2416
C43 C -0.1095(2) 0.53611(14) 0.27312(13)
H23 H -0.1740 0.4967 0.3059
C44 C -0.1218(2) 0.49738(14) 0.19178(13)
H24 H -0.1953 0.4330 0.1696
O3 O 0.38826(16) 0.66534(10) 0.12733(8)
O4 O 0.1378(2) 0.69923(12) 0.03493(8)
S2 S 0.22494(5) 0.70983(3) 0.11608(2)
C1 C -0.06057(18) 1.08532(11) 0.23073(9)
C2 C -0.13244(19) 1.00265(12) 0.35026(10)
C3 C 0.20095(18) 1.37064(11) 0.29615(9)
C4 C 0.00622(18) 1.19036(11) 0.36548(9)
C5 C -0.13445(17) 0.99536(11) 0.26563(9)
C6 C -0.0633(2) 1.07531(13) 0.14580(9)
C7 C 0.19702(18) 1.39509(11) 0.37952(9)
C8 C -0.2775(2) 0.81724(13) 0.33391(13)
H1 H -0.3257 0.7582 0.3565
C9 C 0.01596(17) 1.18534(11) 0.28040(8)
C10 C -0.21044(19) 0.89558(12) 0.21504(11)
C11 C -0.0608(2) 1.10426(12) 0.39906(9)
H2 H -0.0601 1.1114 0.4549
C12 C 0.09738(18) 1.27225(11) 0.24569(9)
C13 C -0.1405(2) 0.97377(15) 0.09667(11)
H3 H -0.1424 0.9668 0.0408
C14 C 0.0068(2) 1.16516(14) 0.11280(10)
H4 H -0.0001 1.1609 0.0569
C15 C 0.3161(2) 1.44349(12) 0.26305(10)
H5 H 0.3246 1.4306 0.2080
C16 C 0.2985(2) 1.48578(13) 0.42742(10)
H6 H 0.2915 1.4995 0.4826
C17 C -0.2103(2) 0.88849(14) 0.12977(11)
H7 H -0.2592 0.8239 0.0963
C18 C 0.4099(2) 1.55511(14) 0.39196(12)
H8 H 0.4795 1.6157 0.4232
C19 C 0.0859(2) 1.25998(13) 0.16131(9)
H9 H 0.1333 1.3178 0.1372
C20 C -0.2815(2) 0.80868(13) 0.25116(13)
H10 H -0.3324 0.7437 0.2187
C21 C -0.2029(2) 0.91257(13) 0.38357(12)
H11 H -0.1993 0.9170 0.4394
C22 C 0.4171(2) 1.53360(13) 0.30993(12)
H12 H 0.4911 1.5806 0.2858
O1 O -0.11174(17) 1.36348(10) 0.42618(9)
O2 O 0.1351(2) 1.30366(11) 0.50615(7)
S1 S 0.04991(5) 1.31694(3) 0.42836(2)
H25? H 0.369(5) 0.558(3) -0.024(2)
H26? H 0.430(6) 0.474(4) -0.081(3)
C45? C 0.4520(6) 0.5128(3) -0.0294(2)
Cl1? Cl 0.3350(2) 0.41326(18) 0.00947(12)
Cl2? Cl 0.4172(4) 0.41385(16) 0.03404(13)
loop_
_geom_bond_atom_site_label_1
_geom_bond_atom_site_label_2
_geom_bond_site_symmetry_1
_geom_bond_site_symmetry_2
C1 C5 1_555 1_555
C2 C5 1_555 1_555
C3 C7 1_555 1_555
C4 C9 1_555 1_555
C5 C10 1_555 1_555
C6 C1 1_555 1_555
C7 C16 1_555 1_555
C8 H1 1_555 1_555
C9 C1 1_555 1_555
C10 C17 1_555 1_555
C11 C2 1_555 1_555
H2 C11 1_555 1_555
C12 C3 1_555 1_555
C13 C6 1_555 1_555
H3 C13 1_555 1_555
C14 C6 1_555 1_555
H4 C14 1_555 1_555
C15 C3 1_555 1_555
H5 C15 1_555 1_555
C16 H6 1_555 1_555
C17 C13 1_555 1_555
H7 C17 1_555 1_555
C18 C16 1_555 1_555
H8 C18 1_555 1_555
C19 C12 1_555 1_555
H9 C19 1_555 1_555
C20 C8 1_555 1_555
H10 C20 1_555 1_555
C21 C2 1_555 1_555
H11 C21 1_555 1_555
C22 C15 1_555 1_555
H12 C22 1_555 1_555
O1 S1 1_555 1_555
O2 S1 1_555 1_555
S1 C4 1_555 1_555
C23 C24 1_555 1_555
C24 C25 1_555 1_555
C25 C29 1_555 1_555
C26 C23 1_555 1_555
C27 C30 1_555 1_555
C28 H13 1_555 1_555
C29 H14 1_555 1_555
C30 C24 1_555 1_555
C31 C26 1_555 1_555
C32 C26 1_555 1_555
C33 C23 1_555 1_555
C34 C32 1_555 1_555
H15 C34 1_555 1_555
C35 C30 1_555 1_555
H16 C35 1_555 1_555
C36 C27 1_555 1_555
H17 C36 1_555 1_555
C37 C27 1_555 1_555
C38 C33 1_555 1_555
H18 C38 1_555 1_555
C39 C37 1_555 1_555
H19 C39 1_555 1_555
C40 C28 1_555 1_555
H20 C40 1_555 1_555
C41 C33 1_555 1_555
H21 C41 1_555 1_555
C42 C32 1_555 1_555
H22 C42 1_555 1_555
C43 C36 1_555 1_555
H23 C43 1_555 1_555
C44 C39 1_555 1_555
H24 C44 1_555 1_555
O3 S2 1_555 1_555
O4 S2 1_555 1_555
S2 C25 1_555 1_555
C4 C11 1_555 1_555
C7 S1 1_555 1_555
C8 C21 1_555 1_555
C9 C12 1_555 1_555
C10 C20 1_555 1_555
C14 C19 1_555 1_555
C18 C22 1_555 1_555
C28 C31 1_555 1_555
C29 C31 1_555 1_555
C34 C41 1_555 1_555
C35 C38 1_555 1_555
C37 S2 1_555 1_555
C40 C42 1_555 1_555
C43 C44 1_555 1_555

#END
