
#######################################################################
#
#                 Cambridge Crystallographic Data Centre
#                                CCDC 
#
#######################################################################
#
# If this CIF has been generated from an entry in the Cambridge 
# Structural Database, then it will include bibliographic, chemical, 
# crystal, experimental, refinement or atomic coordinate data resulting 
# from the CCDC's data processing and validation procedures.
#
#######################################################################

data_QUMDIN
_chemical_name_common            
"Curcumin 4,4'-bipyridine 1,1'-dioxide methanol solvate"
_chemical_formula_moiety         'C21 H20 O6,C10 H8 N2 O2,2(C1 H4 O1)'
_chemical_name_systematic        
"1,7-bis(4-Hydroxy-3-methoxyphenyl)hepta-1,6-diene-3,5-dione 4,4'-bipyridine 1,1'-dioxide methanol solvate"
_symmetry_cell_setting           orthorhombic
_symmetry_space_group_name_H-M   'P c c n'
_symmetry_Int_Tables_number      56
_space_group_name_Hall           '-P 2ab 2ac'
loop_
_symmetry_equiv_pos_site_id
_symmetry_equiv_pos_as_xyz
1 x,y,z
2 1/2-x,1/2-y,z
3 -x,1/2+y,1/2-z
4 1/2+x,-y,1/2-z
5 -x,-y,-z
6 1/2+x,1/2+y,-z
7 x,1/2-y,1/2+z
8 1/2-x,y,1/2+z
_cell_length_a                   18.5630(9)
_cell_length_b                   9.5014(5)
_cell_length_c                   17.4834(8)
_cell_angle_alpha                90
_cell_angle_beta                 90
_cell_angle_gamma                90
_cell_volume                     3083.63
_exptl_crystal_colour            red
_exptl_crystal_description       rod
_cell_formula_units_Z            4
loop_
_atom_site_label
_atom_site_type_symbol
_atom_site_fract_x
_atom_site_fract_y
_atom_site_fract_z
C1 C 0.3566(2) 0.3363(4) 0.72829(16)
H1 H 0.3849 0.2519 0.7314
H2 H 0.3620 0.3774 0.6785
H3 H 0.3068 0.3140 0.7369
C2 C 0.37746(13) 0.3918(2) 0.85910(12)
C3 C 0.40618(14) 0.4907(2) 0.91068(13)
C4 C 0.40535(16) 0.4612(2) 0.98745(14)
H4 H 0.4244 0.5258 1.0219
C5 C 0.37667(15) 0.3369(2) 1.01416(14)
H5 H 0.3760 0.3191 1.0665
C6 C 0.34860(12) 0.2374(2) 0.96389(13)
C7 C 0.34967(12) 0.2672(2) 0.88567(13)
H6 H 0.3313 0.2019 0.8512
C8 C 0.32078(13) 0.1068(2) 0.99531(14)
H7 H 0.3193 0.1015 1.0484
C9 C 0.29712(14) -0.0059(2) 0.95817(14)
H8 H 0.2964 -0.0050 0.9050
C10 C 0.27242(13) -0.1302(2) 0.99813(14)
C11 C 0.2500 -0.2500 0.9587(2)
H9 H 0.2106 -0.2219 0.9256
O1 O 0.38029(12) 0.4334(2) 0.78472(10)
O2 O 0.43521(14) 0.61289(19) 0.88636(10)
H10 H 0.4256 0.6245 0.8410
O3 O 0.27220(13) -0.12787(19) 1.07208(11)
H9A H 0.2894 -0.2781 0.9256
C1A C 0.1434(2) -0.8363(4) 0.72829(16)
H1A H 0.1151 -0.7519 0.7314
H2A H 0.1380 -0.8774 0.6785
H3A H 0.1932 -0.8140 0.7369
C2A C 0.12254(13) -0.8918(2) 0.85910(12)
C3A C 0.09382(14) -0.9907(2) 0.91068(13)
C4A C 0.09465(16) -0.9612(2) 0.98745(14)
H4A H 0.0756 -1.0258 1.0219
C5A C 0.12333(15) -0.8369(2) 1.01416(14)
H5A H 0.1240 -0.8191 1.0665
C6A C 0.15140(12) -0.7374(2) 0.96389(13)
C7A C 0.15033(12) -0.7672(2) 0.88567(13)
H6A H 0.1687 -0.7019 0.8512
C8A C 0.17922(13) -0.6068(2) 0.99531(14)
H7A H 0.1807 -0.6015 1.0484
C9A C 0.20288(14) -0.4941(2) 0.95817(14)
H8A H 0.2036 -0.4950 0.9050
C10A C 0.22758(13) -0.3698(2) 0.99813(14)
O1A O 0.11971(12) -0.9334(2) 0.78472(10)
O2A O 0.06479(14) -1.11289(19) 0.88636(10)
H10A H 0.0744 -1.1245 0.8410
O3A O 0.22780(13) -0.37213(19) 1.07208(11)
C12 C 0.45485(17) 0.7804(3) 0.11889(15)
H12 H 0.4344 0.6916 0.1237
C13 C 0.46444(16) 0.8366(3) 0.04760(15)
H13 H 0.4507 0.7850 0.0048
C14 C 0.49433(12) 0.9692(2) 0.03810(12)
C15 C 0.51316(15) 1.0386(2) 0.10493(14)
H14 H 0.5333 1.1281 0.1018
C16 C 0.50298(17) 0.9793(3) 0.17491(15)
H15 H 0.5161 1.0289 0.2186
N1 N 0.47429(13) 0.8505(2) 0.18183(11)
O4 O 0.46585(14) 0.79116(19) 0.24901(11)
C12D C 0.54515(17) 1.2196(3) -0.11889(15)
H12D H 0.5656 1.3084 -0.1237
C13D C 0.53556(16) 1.1634(3) -0.04760(15)
H13D H 0.5493 1.2150 -0.0048
C14D C 0.50567(12) 1.0308(2) -0.03810(12)
C15D C 0.48684(15) 0.9614(2) -0.10493(14)
H14D H 0.4667 0.8719 -0.1018
C16D C 0.49702(17) 1.0207(3) -0.17491(15)
H15D H 0.4839 0.9711 -0.2186
N1D N 0.52571(13) 1.1495(2) -0.18183(11)
O4D O 0.53415(14) 1.20884(19) -0.24901(11)
C17 C 0.1673(4) 0.9844(7) 0.1834(5)
H16 H 0.1176 1.0115 0.1870
H17 H 0.1750 0.9335 0.1367
H18 H 0.1970 1.0671 0.1838
O5 O 0.1852(5) 0.8986(11) 0.2457(4)
H19 H 0.2243 0.9232 0.2631
H11? H 0.2106 -0.2219 0.9256
loop_
_geom_bond_atom_site_label_1
_geom_bond_atom_site_label_2
_geom_bond_site_symmetry_1
_geom_bond_site_symmetry_2
C1 H1 1_555 1_555
H2 C1 1_555 1_555
H3 C1 1_555 1_555
C2 C3 1_555 1_555
C3 C4 1_555 1_555
C4 H4 1_555 1_555
C5 C4 1_555 1_555
H5 C5 1_555 1_555
C6 C5 1_555 1_555
C7 C2 1_555 1_555
H6 C7 1_555 1_555
C8 C6 1_555 1_555
H7 C8 1_555 1_555
C9 C8 1_555 1_555
H8 C9 1_555 1_555
C10 C9 1_555 1_555
C11 C10 1_555 1_555
H9 C11 1_555 1_555
O1 C1 1_555 1_555
O2 C3 1_555 1_555
H10 O2 1_555 1_555
O3 C10 1_555 1_555
C12 H12 1_555 1_555
C13 C12 1_555 1_555
H13 C13 1_555 1_555
C14 C13 1_555 1_555
C15 C14 1_555 1_555
H14 C15 1_555 1_555
C16 C15 1_555 1_555
H15 C16 1_555 1_555
N1 C12 1_555 1_555
O4 N1 1_555 1_555
C17 H16 1_555 1_555
H17 C17 1_555 1_555
H18 C17 1_555 1_555
O5 C17 1_555 1_555
H19 O5 1_555 1_555
H9A C11 1_555 1_555
C1A H1A 1_555 1_555
H2A C1A 1_555 1_555
H3A C1A 1_555 1_555
C2A C3A 1_555 1_555
C3A C4A 1_555 1_555
C4A H4A 1_555 1_555
C5A C4A 1_555 1_555
H5A C5A 1_555 1_555
C6A C5A 1_555 1_555
C7A C2A 1_555 1_555
H6A C7A 1_555 1_555
C8A C6A 1_555 1_555
H7A C8A 1_555 1_555
C9A C8A 1_555 1_555
H8A C9A 1_555 1_555
C10A C11 1_555 1_555
O1A C1A 1_555 1_555
O2A C3A 1_555 1_555
H10A O2A 1_555 1_555
O3A C10A 1_555 1_555
C12D H12D 1_555 1_555
C13D C12D 1_555 1_555
H13D C13D 1_555 1_555
C14D C14 1_555 1_555
C15D C14D 1_555 1_555
H14D C15D 1_555 1_555
C16D C15D 1_555 1_555
H15D C16D 1_555 1_555
N1D C12D 1_555 1_555
O4D N1D 1_555 1_555
C2 O1 1_555 1_555
C6 C7 1_555 1_555
C16 N1 1_555 1_555
C2A O1A 1_555 1_555
C6A C7A 1_555 1_555
C9A C10A 1_555 1_555
C13D C14D 1_555 1_555
C16D N1D 1_555 1_555

#END
