
#######################################################################
#
#                 Cambridge Crystallographic Data Centre
#                                CCDC 
#
#######################################################################
#
# If this CIF has been generated from an entry in the Cambridge 
# Structural Database, then it will include bibliographic, chemical, 
# crystal, experimental, refinement or atomic coordinate data resulting 
# from the CCDC's data processing and validation procedures.
#
#######################################################################

data_QUMFEJ
_chemical_formula_moiety         'C26 H54 Li3 N3 O4 S1'
_chemical_name_systematic        
"(\m~3~-tris(t-Butylamido)sulfur-N,N,N',N',N'',N'')-(\m~3~-ethylene oxide-O,O,O)-tris(tetrahydrofuran-O)-tri-lithium"
_symmetry_cell_setting           monoclinic
_symmetry_space_group_name_H-M   'P 21/c'
_symmetry_Int_Tables_number      14
_space_group_name_Hall           '-P 2ybc'
loop_
_symmetry_equiv_pos_site_id
_symmetry_equiv_pos_as_xyz
1 x,y,z
2 x,1/2-y,1/2+z
3 -x,-y,-z
4 -x,1/2+y,1/2-z
_cell_length_a                   15.8605(11)
_cell_length_b                   13.7107(10)
_cell_length_c                   14.9729(11)
_cell_angle_alpha                90
_cell_angle_beta                 91.444(2)
_cell_angle_gamma                90
_cell_volume                     3254.95
_exptl_crystal_colour            colorless
_exptl_crystal_description       block
_cell_formula_units_Z            4
loop_
_atom_site_label
_atom_site_type_symbol
_atom_site_fract_x
_atom_site_fract_y
_atom_site_fract_z
S1 S 0.75404(4) 0.40849(3) 0.20164(3)
N1 N 0.82923(14) 0.49125(14) 0.21905(15)
C1 C 0.90014(19) 0.49143(18) 0.15767(18)
C2 C 0.8739(2) 0.5211(3) 0.0611(2)
H1 H 0.8349 0.4724 0.0358
H2 H 0.9241 0.5249 0.0245
H3 H 0.8460 0.5849 0.0620
C3 C 0.9629(2) 0.5658(2) 0.1945(2)
H4 H 0.9354 0.6296 0.1985
H5 H 1.0108 0.5704 0.1546
H6 H 0.9829 0.5454 0.2540
C4 C 0.9458(2) 0.3927(2) 0.1523(2)
H7 H 0.9596 0.3694 0.2128
H8 H 0.9978 0.4004 0.1191
H9 H 0.9090 0.3452 0.1217
N2 N 0.76584(14) 0.34224(12) 0.29406(11)
C5 C 0.75257(19) 0.23526(14) 0.28626(14)
C6 C 0.8099(3) 0.1876(2) 0.2209(3)
H10 H 0.7987 0.2145 0.1611
H11 H 0.7996 0.1172 0.2201
H12 H 0.8687 0.2002 0.2388
C7 C 0.7731(3) 0.19479(19) 0.3785(2)
H13 H 0.8318 0.2098 0.3950
H14 H 0.7650 0.1239 0.3782
H15 H 0.7356 0.2245 0.4219
C8 C 0.6613(2) 0.2090(2) 0.2617(3)
H16 H 0.6236 0.2395 0.3044
H17 H 0.6544 0.1380 0.2637
H18 H 0.6474 0.2326 0.2013
N3 N 0.66900(14) 0.47358(15) 0.22640(15)
C9 C 0.60964(19) 0.49640(19) 0.1509(2)
C10 C 0.5710(3) 0.4049(2) 0.1096(3)
H19 H 0.6148 0.3675 0.0798
H20 H 0.5268 0.4232 0.0659
H21 H 0.5465 0.3649 0.1566
C11 C 0.5385(2) 0.5551(2) 0.1934(2)
H22 H 0.5168 0.5189 0.2443
H23 H 0.4929 0.5656 0.1490
H24 H 0.5605 0.6183 0.2139
C12 C 0.6487(2) 0.5585(3) 0.0799(2)
H25 H 0.6764 0.6151 0.1079
H26 H 0.6047 0.5808 0.0376
H27 H 0.6905 0.5200 0.0481
Li1 Li 0.7489(3) 0.5838(2) 0.2789(2)
Li2 Li 0.8419(3) 0.4402(3) 0.3521(3)
Li3 Li 0.6759(3) 0.4319(3) 0.3542(3)
O1 O 0.94070(12) 0.40263(13) 0.42681(14)
C13 C 1.0059(2) 0.3385(2) 0.39988(19)
H28 H 1.0544 0.3763 0.3782
H29 H 0.9850 0.2955 0.3510
C14 C 1.0323(2) 0.2783(2) 0.4802(2)
H30 H 1.0936 0.2643 0.4806
H31 H 1.0008 0.2160 0.4821
C15 C 1.0096(2) 0.34411(19) 0.5569(2)
H32 H 0.9999 0.3061 0.6119
H33 H 1.0542 0.3932 0.5691
C16 C 0.92983(19) 0.3912(2) 0.5227(2)
H34 H 0.8805 0.3495 0.5346
H35 H 0.9216 0.4554 0.5514
O2 O 0.57998(13) 0.39828(16) 0.42759(15)
C17 C 0.5887(2) 0.3784(3) 0.5223(2)
H36 H 0.6088 0.4371 0.5550
H37 H 0.6291 0.3245 0.5336
C18 C 0.5022(2) 0.3504(2) 0.5508(2)
H38 H 0.4683 0.4085 0.5657
H39 H 0.5047 0.3059 0.6029
C19 C 0.4670(2) 0.2995(2) 0.4687(3)
H40 H 0.4882 0.2317 0.4647
H41 H 0.4046 0.2987 0.4678
C20 C 0.5003(2) 0.3620(3) 0.3951(2)
H42 H 0.5075 0.3231 0.3402
H43 H 0.4612 0.4166 0.3816
O3 O 0.7423(10) 0.7274(14) 0.280(3)
C21 C 0.8156(8) 0.7864(9) 0.2785(9)
H44 H 0.8385 0.7868 0.2176
H45 H 0.8592 0.7592 0.3199
C22 C 0.7941(6) 0.8893(7) 0.3063(9)
H46 H 0.8300 0.9108 0.3577
H47 H 0.8008 0.9357 0.2562
C23 C 0.7045(7) 0.8810(8) 0.3313(9)
H48 H 0.6995 0.8926 0.3962
H49 H 0.6706 0.9311 0.2991
C24 C 0.6724(7) 0.7856(9) 0.3092(9)
H50 H 0.6286 0.7903 0.2611
H51 H 0.6469 0.7555 0.3622
O5 O 0.7551(4) 0.5289(9) 0.4003(5)
C29 C 0.7525(4) 0.5897(3) 0.4685(2)
H60 H 0.7475 0.6569 0.4535
C30 C 0.7558(3) 0.5697(3) 0.5541(2)
H61 H 0.7608 0.5040 0.5736
H62 H 0.7533 0.6209 0.5967
O4? O 0.7433(9) 0.7288(12) 0.276(3)
C25? C 0.8154(8) 0.7861(10) 0.3001(10)
H52? H 0.8476 0.8026 0.2463
H53? H 0.8530 0.7501 0.3424
C26? C 0.7831(6) 0.8756(8) 0.3424(10)
H54? H 0.8215 0.9313 0.3328
H55? H 0.7765 0.8660 0.4074
C27? C 0.6994(6) 0.8923(7) 0.2966(10)
H56? H 0.7056 0.9293 0.2403
H57? H 0.6605 0.9278 0.3357
C28? C 0.6693(7) 0.7901(8) 0.2787(9)
H58? H 0.6316 0.7684 0.3265
H59? H 0.6378 0.7870 0.2209
O6? O 0.770(2) 0.530(4) 0.406(2)
C31? C 0.7604(16) 0.5599(10) 0.4906(11)
H63? H 0.7565 0.5116 0.5357
C32? C 0.7565(11) 0.6510(9) 0.5149(9)
H64? H 0.7601 0.7013 0.4715
H65? H 0.7499 0.6672 0.5760
loop_
_geom_bond_atom_site_label_1
_geom_bond_atom_site_label_2
_geom_bond_site_symmetry_1
_geom_bond_site_symmetry_2
S1 N1 1_555 1_555
N1 C1 1_555 1_555
C1 C2 1_555 1_555
C2 H1 1_555 1_555
H2 C2 1_555 1_555
H3 C2 1_555 1_555
C3 C1 1_555 1_555
H4 C3 1_555 1_555
H5 C3 1_555 1_555
H6 C3 1_555 1_555
C4 C1 1_555 1_555
H7 C4 1_555 1_555
H8 C4 1_555 1_555
H9 C4 1_555 1_555
N2 S1 1_555 1_555
C5 N2 1_555 1_555
C6 C5 1_555 1_555
H10 C6 1_555 1_555
H11 C6 1_555 1_555
H12 C6 1_555 1_555
C7 C5 1_555 1_555
H13 C7 1_555 1_555
H14 C7 1_555 1_555
H15 C7 1_555 1_555
C8 C5 1_555 1_555
H16 C8 1_555 1_555
H17 C8 1_555 1_555
H18 C8 1_555 1_555
N3 S1 1_555 1_555
C9 N3 1_555 1_555
C10 C9 1_555 1_555
H19 C10 1_555 1_555
H20 C10 1_555 1_555
H21 C10 1_555 1_555
C11 C9 1_555 1_555
H22 C11 1_555 1_555
H23 C11 1_555 1_555
H24 C11 1_555 1_555
C12 C9 1_555 1_555
H25 C12 1_555 1_555
H26 C12 1_555 1_555
H27 C12 1_555 1_555
Li1 N1 1_555 1_555
Li2 N1 1_555 1_555
Li3 N2 1_555 1_555
O1 Li2 1_555 1_555
C13 O1 1_555 1_555
H28 C13 1_555 1_555
H29 C13 1_555 1_555
C14 C13 1_555 1_555
H30 C14 1_555 1_555
H31 C14 1_555 1_555
C15 C14 1_555 1_555
H32 C15 1_555 1_555
H33 C15 1_555 1_555
C16 O1 1_555 1_555
H34 C16 1_555 1_555
H35 C16 1_555 1_555
O2 Li3 1_555 1_555
C17 O2 1_555 1_555
H36 C17 1_555 1_555
H37 C17 1_555 1_555
C18 C17 1_555 1_555
H38 C18 1_555 1_555
H39 C18 1_555 1_555
C19 C18 1_555 1_555
H40 C19 1_555 1_555
H41 C19 1_555 1_555
C20 O2 1_555 1_555
H42 C20 1_555 1_555
H43 C20 1_555 1_555
O3 Li1 1_555 1_555
C21 O3 1_555 1_555
H44 C21 1_555 1_555
H45 C21 1_555 1_555
C22 C21 1_555 1_555
H46 C22 1_555 1_555
H47 C22 1_555 1_555
C23 C22 1_555 1_555
H48 C23 1_555 1_555
H49 C23 1_555 1_555
C24 O3 1_555 1_555
H50 C24 1_555 1_555
H51 C24 1_555 1_555
O5 Li1 1_555 1_555
C29 O5 1_555 1_555
H60 C29 1_555 1_555
C30 C29 1_555 1_555
H61 C30 1_555 1_555
H62 C30 1_555 1_555
N2 Li2 1_555 1_555
N3 Li1 1_555 1_555
N3 Li3 1_555 1_555
Li2 O5 1_555 1_555
Li3 O5 1_555 1_555
C15 C16 1_555 1_555
C19 C20 1_555 1_555
C23 C24 1_555 1_555

#END
