
#######################################################################
#
#                 Cambridge Crystallographic Data Centre
#                                CCDC 
#
#######################################################################
#
# If this CIF has been generated from an entry in the Cambridge 
# Structural Database, then it will include bibliographic, chemical, 
# crystal, experimental, refinement or atomic coordinate data resulting 
# from the CCDC's data processing and validation procedures.
#
#######################################################################

data_QUMJAK
_chemical_formula_moiety         'C54 H41 Cl4 N5 O9'
_chemical_name_systematic        
4,19,25,40-Tetrachloro-47,47,49,49-tetramethoxy-44-(4-methoxybenzyl)-46,48-dioxa-6,17,27,38,44-pentaazapentadecacyclo[20.20.3.1^2,21^.1^4,19^.1^23,42^.1^25,40^.0^1,22^.0^3,20^.0^5,18^.0^7,16^.0^9,14^.0^24,41^.0^26,39^.0^28,37^.0^30,35^]nonatetraconta-5(18),6,8,10,12,14,16,26(39),27,29,31,33,35,37-tetradecaene-43,45-dione
_symmetry_cell_setting           triclinic
_symmetry_space_group_name_H-M   'P -1'
_symmetry_Int_Tables_number      2
_space_group_name_Hall           '-P 1'
loop_
_symmetry_equiv_pos_site_id
_symmetry_equiv_pos_as_xyz
1 x,y,z
2 -x,-y,-z
_cell_length_a                   14.784(2)
_cell_length_b                   16.376(3)
_cell_length_c                   23.988(4)
_cell_angle_alpha                105.364(2)
_cell_angle_beta                 90.004(2)
_cell_angle_gamma                110.558(2)
_cell_volume                     5215.43
_cell_formula_units_Z            4
loop_
_atom_site_label
_atom_site_type_symbol
_atom_site_fract_x
_atom_site_fract_y
_atom_site_fract_z
C1 C 0.6978(5) 0.1906(5) 0.2156(3)
C2 C 0.7743(5) 0.1962(5) 0.1711(3)
C3 C 0.8711(4) 0.2455(5) 0.2124(3)
H1 H 0.8890 0.3117 0.2250
C4 C 0.9568(4) 0.2174(4) 0.1915(3)
H2 H 0.9680 0.2172 0.1512
C5 C 1.0487(4) 0.2720(5) 0.2353(3)
C6 C 1.1392(4) 0.2494(5) 0.2165(3)
H3 H 1.1528 0.2509 0.1768
C7 C 1.2276(4) 0.3089(5) 0.2632(3)
H4 H 1.2351 0.3732 0.2756
C8 C 1.3237(4) 0.2950(5) 0.2484(3)
C9 C 1.3706(4) 0.3108(5) 0.3114(3)
C10 C 1.2829(4) 0.2298(5) 0.3210(3)
C11 C 1.1986(4) 0.2616(4) 0.3122(3)
C12 C 1.1011(4) 0.1866(4) 0.2853(3)
H5 H 1.0834 0.1351 0.3019
C13 C 1.0217(4) 0.2280(4) 0.2861(3)
C14 C 0.9208(4) 0.1559(4) 0.2626(3)
H6 H 0.9019 0.1059 0.2806
C15 C 0.8458(4) 0.2021(4) 0.2644(3)
H7 H 0.8537 0.2484 0.3014
C16 C 0.7387(4) 0.1372(4) 0.2471(3)
C17 C 0.7571(4) 0.0980(5) 0.1490(3)
C18 C 0.7328(4) 0.0596(6) 0.1969(3)
C19 C 0.7261(4) -0.0754(6) 0.1405(3)
C20 C 0.7112(5) -0.1659(7) 0.1324(4)
H8 H 0.6971 -0.1900 0.1638
C21 C 0.7166(5) -0.2238(7) 0.0774(5)
C22 C 0.7031(7) -0.3161(9) 0.0691(6)
H9 H 0.6922 -0.3414 0.1000
C23 C 0.7065(9) -0.3691(9) 0.0128(7)
H10 H 0.6997 -0.4296 0.0066
C24 C 0.7200(9) -0.3314(11) -0.0328(6)
H11 H 0.7160 -0.3693 -0.0700
C25 C 0.7387(7) -0.2430(9) -0.0267(5)
H12 H 0.7535 -0.2188 -0.0580
C26 C 0.7351(5) -0.1865(7) 0.0305(4)
C27 C 0.7527(5) -0.0945(6) 0.0380(4)
H13 H 0.7669 -0.0707 0.0066
C28 C 0.7491(4) -0.0372(6) 0.0929(3)
C29 C 1.3053(4) 0.1950(5) 0.2238(3)
C30 C 1.2800(4) 0.1538(5) 0.2699(3)
C31 C 1.2528(4) 0.0167(5) 0.2092(3)
C32 C 1.2271(5) -0.0760(6) 0.1991(3)
H14 H 1.2101 -0.1015 0.2297
C33 C 1.2263(5) -0.1332(6) 0.1428(3)
C34 C 1.2036(6) -0.2280(6) 0.1311(4)
H15 H 1.1882 -0.2555 0.1609
C35 C 1.2043(6) -0.2781(6) 0.0772(4)
H16 H 1.1886 -0.3404 0.0701
C36 C 1.2276(6) -0.2398(7) 0.0318(4)
H17 H 1.2276 -0.2764 -0.0052
C37 C 1.2508(5) -0.1483(6) 0.0408(3)
H18 H 1.2664 -0.1236 0.0098
C38 C 1.2513(5) -0.0903(6) 0.0971(3)
C39 C 1.2756(5) 0.0015(6) 0.1074(3)
H19 H 1.2909 0.0274 0.0769
C40 C 1.2778(4) 0.0566(5) 0.1629(3)
C41 C 0.5236(5) 0.1184(6) 0.2158(3)
H20 H 0.5201 0.0658 0.2276
H21 H 0.4659 0.1046 0.1912
H22 H 0.5292 0.1677 0.2495
C42 C 0.6720(7) 0.3339(6) 0.2339(4)
H23 H 0.7268 0.3816 0.2267
H24 H 0.6369 0.3600 0.2625
H25 H 0.6301 0.3004 0.1984
C43 C 1.4537(6) 0.4755(5) 0.3513(4)
H26 H 1.5131 0.4654 0.3430
H27 H 1.4635 0.5196 0.3885
H28 H 1.4345 0.4976 0.3218
C44 C 1.5072(5) 0.2956(6) 0.3555(3)
H29 H 1.5086 0.3459 0.3875
H30 H 1.5724 0.2999 0.3486
H31 H 1.4731 0.2396 0.3645
C45 C 1.0300(4) 0.3053(5) 0.3389(3)
C46 C 1.0652(4) 0.3734(5) 0.2618(3)
C47 C 1.0769(6) 0.4733(6) 0.3619(4)
H32 H 1.1100 0.5188 0.3424
H33 H 1.1213 0.4802 0.3940
C48 C 0.9893(7) 0.4920(5) 0.3861(4)
C49 C 0.9944(9) 0.5469(7) 0.4415(4)
H34 H 1.0534 0.5734 0.4646
C50 C 0.9116(12) 0.5646(9) 0.4645(5)
H35 H 0.9160 0.6020 0.5019
C51 C 0.8293(9) 0.5257(8) 0.4308(6)
C52 C 0.8195(9) 0.4726(7) 0.3781(5)
H36 H 0.7593 0.4464 0.3562
C53 C 0.8983(8) 0.4556(7) 0.3552(4)
H37 H 0.8902 0.4182 0.3174
C54 C 0.7441(13) 0.5992(11) 0.4999(7)
H38 H 0.7572 0.5788 0.5319
H39 H 0.6818 0.6054 0.5019
H40 H 0.7934 0.6570 0.5018
H45 H 1.1918 0.3040 0.3479
Cl1 Cl 0.77060(14) 0.24904(15) 0.11682(8)
Cl2 Cl 0.68190(12) 0.10897(14) 0.30768(8)
Cl3 Cl 1.28506(13) 0.20864(13) 0.38984(7)
Cl4 Cl 1.39176(12) 0.36295(13) 0.20606(9)
N1 N 0.7641(4) 0.0530(5) 0.0980(3)
N2 N 0.7185(4) -0.0233(5) 0.1951(2)
N3 N 1.3038(3) 0.1499(5) 0.1711(3)
N4 N 1.2541(3) 0.0688(4) 0.2654(2)
N5 N 1.0552(4) 0.3844(4) 0.3215(2)
O1 O 0.9292(3) 0.1282(3) 0.20120(17)
O2 O 1.1168(3) 0.1634(3) 0.22528(17)
O3 O 0.6081(3) 0.1443(4) 0.18408(19)
O4 O 0.7054(3) 0.2735(4) 0.2550(2)
O5 O 1.3772(3) 0.3895(4) 0.3524(2)
O6 O 1.4589(3) 0.2977(3) 0.3049(2)
O7 O 1.0201(3) 0.3034(3) 0.3884(2)
O8 O 1.0834(3) 0.4310(3) 0.2385(2)
O9 O 0.7438(7) 0.5420(7) 0.4525(4)
C55 C 0.3169(5) 0.7470(5) 0.2981(3)
C56 C 0.4038(5) 0.8382(5) 0.2965(3)
C57 C 0.4897(4) 0.8289(5) 0.3273(3)
H41 H 0.4948 0.8535 0.3696
C58 C 0.5870(4) 0.8641(5) 0.3027(3)
H42 H 0.6005 0.9226 0.2945
C59 C 0.6676(4) 0.8625(4) 0.3413(3)
C60 C 0.7704(4) 0.8965(5) 0.3214(3)
H43 H 0.7866 0.9541 0.3117
C61 C 0.8448(4) 0.8976(5) 0.3649(3)
H44 H 0.8341 0.9236 0.4049
C62 C 0.9525(5) 0.9384(5) 0.3538(3)
C63 C 0.9960(5) 0.8765(6) 0.3770(3)
C64 C 0.9252(5) 0.7873(5) 0.3338(3)
C65 C 0.8244(4) 0.7937(5) 0.3513(3)
H46 H 0.8045 0.7713 0.3851
C66 C 0.7424(4) 0.7531(5) 0.3019(3)
H47 H 0.7356 0.6927 0.2772
C67 C 0.6469(5) 0.7600(5) 0.3265(3)
C68 C 0.5580(4) 0.7181(5) 0.2792(3)
H48 H 0.5499 0.6584 0.2528
C69 C 0.4678(4) 0.7249(5) 0.3082(3)
H49 H 0.4593 0.7002 0.3416
C70 C 0.3724(5) 0.6836(5) 0.2659(3)
C71 C 0.9444(4) 0.8108(5) 0.2777(3)
C72 C 0.9626(4) 0.9068(5) 0.2896(3)
C73 C 0.9796(4) 0.8983(5) 0.1965(3)
C74 C 0.9594(5) 0.8022(5) 0.1830(3)
C75 C 0.9578(5) 0.7510(6) 0.1257(3)
H50 H 0.9441 0.6888 0.1164
C76 C 0.9777(5) 0.7975(6) 0.0827(3)
C77 C 0.9795(6) 0.7454(7) 0.0244(4)
H51 H 0.9638 0.6828 0.0149
C78 C 1.0052(7) 0.7914(8) -0.0168(4)
H52 H 1.0074 0.7586 -0.0546
C79 C 1.0275(6) 0.8827(8) -0.0051(4)
H53 H 1.0439 0.9112 -0.0344
C80 C 1.0255(5) 0.9304(7) 0.0486(4)
H54 H 1.0414 0.9928 0.0561
C81 C 1.0003(4) 0.8912(5) 0.0952(3)
C82 C 1.0004(5) 0.9402(5) 0.1513(3)
H55 H 1.0145 1.0025 0.1597
C83 C 0.4109(5) 0.8129(6) 0.2315(3)
C84 C 0.3922(5) 0.7175(6) 0.2123(4)
C85 C 0.4275(5) 0.7279(7) 0.1219(4)
C86 C 0.4309(7) 0.6791(10) 0.0638(4)
H56 H 0.4159 0.6166 0.0509
C87 C 0.4605(7) 0.7390(10) 0.0278(4)
C88 C 0.4655(9) 0.6998(12) -0.0318(5)
H57 H 0.4507 0.6374 -0.0453
C89 C 0.4912(13) 0.7508(15) -0.0701(9)
H58 H 0.4951 0.7224 -0.1086
C90 C 0.5112(10) 0.8411(16) -0.0534(7)
H59 H 0.5247 0.8731 -0.0810
C91 C 0.5120(7) 0.8876(9) 0.0046(5)
H60 H 0.5297 0.9505 0.0163
C92 C 0.4838(6) 0.8341(11) 0.0469(5)
C93 C 0.4835(5) 0.8893(9) 0.1064(3)
H61 H 0.5006 0.9521 0.1189
C94 C 0.4498(5) 0.8241(7) 0.1430(4)
C95 C 1.1654(6) 0.9687(6) 0.3893(4)
H62 H 1.1739 1.0060 0.3635
H63 H 1.2247 0.9592 0.3955
H64 H 1.1488 0.9984 0.4258
C96 C 1.0169(8) 0.8397(7) 0.4656(4)
H65 H 0.9636 0.8025 0.4814
H66 H 1.0654 0.8817 0.4966
H67 H 1.0446 0.8019 0.4394
C97 C 0.2558(6) 0.7869(7) 0.3910(4)
H68 H 0.3047 0.8423 0.4138
H69 H 0.2203 0.7531 0.4162
H70 H 0.2122 0.8010 0.3688
C98 C 0.1523(6) 0.6632(6) 0.2577(4)
H71 H 0.1594 0.6171 0.2255
H72 H 0.0959 0.6756 0.2488
H73 H 0.1449 0.6423 0.2918
C99 C 0.6612(5) 0.8905(6) 0.4058(3)
C100 C 0.6273(4) 0.7338(7) 0.3838(3)
C101 C 0.6266(5) 0.8167(6) 0.4865(3)
H74 H 0.6663 0.8761 0.5116
H75 H 0.6494 0.7722 0.4952
C102 C 0.5238(6) 0.7961(7) 0.4996(3)
C103 C 0.4871(7) 0.8610(7) 0.5214(4)
H76 H 0.5276 0.9218 0.5295
C104 C 0.3871(10) 0.8390(11) 0.5325(4)
H77 H 0.3641 0.8858 0.5467
C105 C 0.3291(9) 0.7567(12) 0.5232(5)
C106 C 0.3650(9) 0.6874(10) 0.5032(6)
H78 H 0.3247 0.6269 0.4969
C107 C 0.4634(8) 0.7103(8) 0.4927(4)
H79 H 0.4875 0.6638 0.4804
C108 C 0.1896(9) 0.7806(13) 0.5486(5)
H80 H 0.2207 0.8218 0.5856
H81 H 0.1232 0.7470 0.5524
H82 H 0.1916 0.8144 0.5211
Cl5 Cl 0.99893(13) 1.05648(13) 0.38476(8)
Cl6 Cl 0.93453(14) 0.68362(15) 0.33482(9)
Cl7 Cl 0.31501(14) 0.56698(15) 0.25264(11)
Cl8 Cl 0.38927(15) 0.94190(15) 0.32412(9)
N6 N 0.9420(4) 0.7586(4) 0.2265(3)
N7 N 0.9796(4) 0.9514(4) 0.2526(3)
N8 N 0.4399(4) 0.8664(4) 0.1998(3)
N9 N 0.3972(4) 0.6713(5) 0.1601(3)
N10 N 0.6387(4) 0.8157(5) 0.4266(3)
O10 O 0.7671(3) 0.8219(3) 0.27279(18)
O11 O 0.5788(3) 0.7909(3) 0.25235(19)
O12 O 0.9828(3) 0.8892(4) 0.4350(2)
O13 O 1.0894(3) 0.8833(4) 0.3644(2)
O14 O 0.3013(3) 0.7335(4) 0.3521(2)
O15 O 0.2367(3) 0.7445(4) 0.2678(2)
O16 O 0.6108(3) 0.6623(4) 0.3919(2)
O17 O 0.6739(4) 0.9663(4) 0.4353(2)
O18 O 0.2341(6) 0.7251(9) 0.5306(4)
loop_
_geom_bond_atom_site_label_1
_geom_bond_atom_site_label_2
_geom_bond_site_symmetry_1
_geom_bond_site_symmetry_2
C1 C2 1_555 1_555
C2 C3 1_555 1_555
C3 H1 1_555 1_555
C4 C3 1_555 1_555
H2 C4 1_555 1_555
C5 C4 1_555 1_555
C6 C5 1_555 1_555
H3 C6 1_555 1_555
C7 C6 1_555 1_555
H4 C7 1_555 1_555
C8 C7 1_555 1_555
C9 C8 1_555 1_555
C10 C9 1_555 1_555
C11 C7 1_555 1_555
C12 C11 1_555 1_555
H5 C12 1_555 1_555
C13 C5 1_555 1_555
C14 C13 1_555 1_555
H6 C14 1_555 1_555
C15 C3 1_555 1_555
H7 C15 1_555 1_555
C16 C1 1_555 1_555
C17 C2 1_555 1_555
C18 C16 1_555 1_555
C19 C20 1_555 1_555
C20 H8 1_555 1_555
C21 C20 1_555 1_555
C22 C21 1_555 1_555
H9 C22 1_555 1_555
C23 C22 1_555 1_555
H10 C23 1_555 1_555
C24 C23 1_555 1_555
H11 C24 1_555 1_555
C25 C24 1_555 1_555
H12 C25 1_555 1_555
C26 C21 1_555 1_555
C27 C26 1_555 1_555
H13 C27 1_555 1_555
C28 C19 1_555 1_555
C29 C8 1_555 1_555
C30 C10 1_555 1_555
C31 C32 1_555 1_555
C32 H14 1_555 1_555
C33 C32 1_555 1_555
C34 C33 1_555 1_555
H15 C34 1_555 1_555
C35 C34 1_555 1_555
H16 C35 1_555 1_555
C36 C35 1_555 1_555
H17 C36 1_555 1_555
C37 C36 1_555 1_555
H18 C37 1_555 1_555
C38 C33 1_555 1_555
C39 C38 1_555 1_555
H19 C39 1_555 1_555
C40 C31 1_555 1_555
C41 H20 1_555 1_555
H21 C41 1_555 1_555
H22 C41 1_555 1_555
C42 H23 1_555 1_555
H24 C42 1_555 1_555
H25 C42 1_555 1_555
C43 H26 1_555 1_555
H27 C43 1_555 1_555
H28 C43 1_555 1_555
C44 H29 1_555 1_555
H30 C44 1_555 1_555
H31 C44 1_555 1_555
C45 C13 1_555 1_555
C46 C5 1_555 1_555
C47 H32 1_555 1_555
H33 C47 1_555 1_555
C48 C47 1_555 1_555
C49 C48 1_555 1_555
H34 C49 1_555 1_555
C50 C49 1_555 1_555
H35 C50 1_555 1_555
C51 C50 1_555 1_555
C52 C51 1_555 1_555
H36 C52 1_555 1_555
C53 C48 1_555 1_555
H37 C53 1_555 1_555
C54 H38 1_555 1_555
H39 C54 1_555 1_555
H40 C54 1_555 1_555
C55 C56 1_555 1_555
C56 C57 1_555 1_555
C57 H41 1_555 1_555
C58 C57 1_555 1_555
H42 C58 1_555 1_555
C59 C58 1_555 1_555
C60 C59 1_555 1_555
H43 C60 1_555 1_555
C61 C60 1_555 1_555
H44 C61 1_555 1_555
H45 C11 1_555 1_555
C62 C61 1_555 1_555
C63 C62 1_555 1_555
C64 C63 1_555 1_555
C65 C61 1_555 1_555
H46 C65 1_555 1_555
C66 C65 1_555 1_555
H47 C66 1_555 1_555
C67 C59 1_555 1_555
C68 C67 1_555 1_555
H48 C68 1_555 1_555
C69 C57 1_555 1_555
H49 C69 1_555 1_555
C70 C55 1_555 1_555
C71 C64 1_555 1_555
C72 C62 1_555 1_555
C73 C74 1_555 1_555
C74 C75 1_555 1_555
C75 H50 1_555 1_555
C76 C75 1_555 1_555
C77 C76 1_555 1_555
H51 C77 1_555 1_555
C78 C77 1_555 1_555
H52 C78 1_555 1_555
C79 C78 1_555 1_555
H53 C79 1_555 1_555
C80 C79 1_555 1_555
H54 C80 1_555 1_555
C81 C76 1_555 1_555
C82 C73 1_555 1_555
H55 C82 1_555 1_555
C83 C56 1_555 1_555
C84 C70 1_555 1_555
C85 C86 1_555 1_555
C86 H56 1_555 1_555
C87 C86 1_555 1_555
C88 C87 1_555 1_555
H57 C88 1_555 1_555
C89 C88 1_555 1_555
H58 C89 1_555 1_555
C90 C89 1_555 1_555
H59 C90 1_555 1_555
C91 C90 1_555 1_555
H60 C91 1_555 1_555
C92 C87 1_555 1_555
C93 C92 1_555 1_555
H61 C93 1_555 1_555
C94 C85 1_555 1_555
C95 H62 1_555 1_555
H63 C95 1_555 1_555
H64 C95 1_555 1_555
C96 H65 1_555 1_555
H66 C96 1_555 1_555
H67 C96 1_555 1_555
C97 H68 1_555 1_555
H69 C97 1_555 1_555
H70 C97 1_555 1_555
C98 H71 1_555 1_555
H72 C98 1_555 1_555
H73 C98 1_555 1_555
C99 C59 1_555 1_555
C100 C67 1_555 1_555
C101 H74 1_555 1_555
H75 C101 1_555 1_555
C102 C101 1_555 1_555
C103 C102 1_555 1_555
H76 C103 1_555 1_555
C104 C103 1_555 1_555
H77 C104 1_555 1_555
C105 C104 1_555 1_555
C106 C105 1_555 1_555
H78 C106 1_555 1_555
C107 C102 1_555 1_555
H79 C107 1_555 1_555
C108 H80 1_555 1_555
H81 C108 1_555 1_555
H82 C108 1_555 1_555
Cl1 C2 1_555 1_555
Cl2 C16 1_555 1_555
Cl3 C10 1_555 1_555
Cl4 C8 1_555 1_555
Cl5 C62 1_555 1_555
Cl6 C64 1_555 1_555
Cl7 C70 1_555 1_555
Cl8 C56 1_555 1_555
N1 C17 1_555 1_555
N2 C18 1_555 1_555
N3 C29 1_555 1_555
N4 C30 1_555 1_555
N5 C45 1_555 1_555
N6 C71 1_555 1_555
N7 C72 1_555 1_555
N8 C83 1_555 1_555
N9 C84 1_555 1_555
N10 C99 1_555 1_555
O1 C4 1_555 1_555
O2 C6 1_555 1_555
O3 C1 1_555 1_555
O4 C1 1_555 1_555
O5 C9 1_555 1_555
O6 C9 1_555 1_555
O7 C45 1_555 1_555
O8 C46 1_555 1_555
O9 C51 1_555 1_555
O10 C60 1_555 1_555
O11 C58 1_555 1_555
O12 C63 1_555 1_555
O13 C63 1_555 1_555
O14 C55 1_555 1_555
O15 C55 1_555 1_555
O16 C100 1_555 1_555
O17 C99 1_555 1_555
O18 C105 1_555 1_555
C10 C11 1_555 1_555
C12 C13 1_555 1_555
C12 O2 1_555 1_555
C14 C15 1_555 1_555
C14 O1 1_555 1_555
C15 C16 1_555 1_555
C17 C18 1_555 1_555
C19 N2 1_555 1_555
C25 C26 1_555 1_555
C27 C28 1_555 1_555
C28 N1 1_555 1_555
C29 C30 1_555 1_555
C31 N4 1_555 1_555
C37 C38 1_555 1_555
C39 C40 1_555 1_555
C40 N3 1_555 1_555
C41 O3 1_555 1_555
C42 O4 1_555 1_555
C43 O5 1_555 1_555
C44 O6 1_555 1_555
C46 N5 1_555 1_555
C47 N5 1_555 1_555
C52 C53 1_555 1_555
C54 O9 1_555 1_555
C64 C65 1_555 1_555
C66 C67 1_555 1_555
C66 O10 1_555 1_555
C68 C69 1_555 1_555
C68 O11 1_555 1_555
C69 C70 1_555 1_555
C71 C72 1_555 1_555
C73 N7 1_555 1_555
C74 N6 1_555 1_555
C80 C81 1_555 1_555
C81 C82 1_555 1_555
C83 C84 1_555 1_555
C85 N9 1_555 1_555
C91 C92 1_555 1_555
C93 C94 1_555 1_555
C94 N8 1_555 1_555
C95 O13 1_555 1_555
C96 O12 1_555 1_555
C97 O14 1_555 1_555
C98 O15 1_555 1_555
C100 N10 1_555 1_555
C101 N10 1_555 1_555
C106 C107 1_555 1_555
C108 O18 1_555 1_555

#END
