
#######################################################################
#
#                 Cambridge Crystallographic Data Centre
#                                CCDC 
#
#######################################################################
#
# If this CIF has been generated from an entry in the Cambridge 
# Structural Database, then it will include bibliographic, chemical, 
# crystal, experimental, refinement or atomic coordinate data resulting 
# from the CCDC's data processing and validation procedures.
#
#######################################################################

data_QUMJAJ
_chemical_formula_moiety         'C14 H21 N1 O1'
_chemical_name_systematic        4,7-Di-t-butyl-2H-azepin-2-one
_symmetry_cell_setting           monoclinic
_symmetry_space_group_name_H-M   'P 21/c'
_symmetry_Int_Tables_number      14
_space_group_name_Hall           '-P 2ybc'
loop_
_symmetry_equiv_pos_site_id
_symmetry_equiv_pos_as_xyz
1 x,y,z
2 -x,1/2+y,1/2-z
3 -x,-y,-z
4 x,1/2-y,1/2+z
_cell_length_a                   9.055(8)
_cell_length_b                   23.19(1)
_cell_length_c                   13.374(4)
_cell_angle_alpha                90
_cell_angle_beta                 98.69(5)
_cell_angle_gamma                90
_cell_volume                     2776.11
_exptl_crystal_colour            colorless
_exptl_crystal_description       needles
_chemical_melting_point          80.5-81.5deg.C
_cell_formula_units_Z            8
loop_
_atom_site_label
_atom_site_type_symbol
_atom_site_fract_x
_atom_site_fract_y
_atom_site_fract_z
O1 O 0.0723(3) 0.2556(1) 0.8202(2)
N1 N 0.0938(4) 0.3263(1) 0.7047(3)
C1 C 0.1543(6) 0.2835(2) 0.7751(3)
C2 C 0.3154(6) 0.2805(2) 0.7935(4)
C3 C 0.3971(5) 0.2673(2) 0.7237(3)
C4 C 0.3255(5) 0.2575(2) 0.6197(3)
C5 C 0.2024(5) 0.2823(2) 0.5707(3)
C6 C 0.1143(4) 0.3254(2) 0.6118(3)
C7 C 0.5651(5) 0.2587(2) 0.7472(3)
C8 C 0.6292(7) 0.2771(3) 0.8533(4)
C9 C 0.6392(6) 0.2945(3) 0.6705(7)
C10 C 0.6058(6) 0.1957(2) 0.7333(6)
C11 C 0.0423(5) 0.3723(2) 0.5406(3)
C12 C -0.0167(8) 0.4209(3) 0.6011(5)
C13 C -0.0885(7) 0.3456(3) 0.4710(5)
C14 C 0.1541(7) 0.3965(3) 0.4796(4)
H1 H 0.358(4) 0.289(2) 0.857(3)
H2 H 0.380(3) 0.233(1) 0.585(2)
H3 H 0.173(3) 0.270(1) 0.502(2)
H4 H 0.738 0.270 0.867
H5 H 0.606 0.318 0.862
H6 H 0.580 0.237 0.889
H7 H 0.740 0.291 0.686
H8 H 0.607 0.332 0.699
H9 H 0.594 0.291 0.605
H10 H 0.576 0.183 0.665
H11 H 0.718 0.194 0.750
H12 H 0.561 0.179 0.786
H13 H 0.069 0.439 0.646
H14 H -0.089 0.404 0.636
H15 H -0.064 0.447 0.554
H16 H -0.137 0.373 0.426
H17 H -0.055 0.314 0.434
H18 H -0.160 0.330 0.511
H19 H 0.109 0.426 0.440
H20 H 0.254 0.407 0.523
H21 H 0.190 0.367 0.442
O2 O 0.4464(3) 0.1264(1) 0.4944(2)
N2 N 0.4315(4) 0.0497(2) 0.6018(3)
C15 C 0.3666(6) 0.0937(2) 0.5330(3)
C16 C 0.2086(7) 0.0933(3) 0.5117(5)
C17 C 0.1206(5) 0.1033(2) 0.5771(3)
C18 C 0.1829(5) 0.1127(2) 0.6831(4)
C19 C 0.3048(5) 0.0888(2) 0.7336(3)
C20 C 0.4055(4) 0.0474(2) 0.6967(3)
C21 C -0.0485(5) 0.1084(2) 0.5492(4)
C22 C -0.0988(6) 0.0891(4) 0.4396(5)
C23 C -0.1271(6) 0.0720(3) 0.6210(6)
C24 C -0.0907(5) 0.1715(2) 0.5586(4)
C25 C 0.4887(5) 0.0043(2) 0.7712(3)
C26 C 0.3734(6) -0.0272(2) 0.8246(4)
C27 C 0.6006(7) 0.0379(2) 0.8468(4)
C28 C 0.5702(6) -0.0406(2) 0.7173(4)
H22 H 0.186(5) 0.095(2) 0.472(3)
H23 H 0.119(4) 0.135(2) 0.721(3)
H24 H 0.326(3) 0.093(1) 0.810(2)
H25 H -0.202 0.093 0.429
H26 H -0.058 0.113 0.391
H27 H -0.079 0.051 0.436
H28 H -0.100 0.032 0.608
H29 H -0.101 0.091 0.688
H30 H -0.248 0.076 0.596
H31 H -0.060 0.190 0.623
H32 H -0.196 0.175 0.538
H33 H -0.035 0.191 0.499
H34 H 0.322 0.001 0.866
H35 H 0.434 -0.055 0.875
H36 H 0.287 -0.044 0.774
H37 H 0.664 0.012 0.893
H38 H 0.686 0.048 0.809
H39 H 0.547 0.066 0.890
H40 H 0.646 -0.024 0.688
H41 H 0.616 -0.071 0.768
H42 H 0.499 -0.062 0.664
loop_
_geom_bond_atom_site_label_1
_geom_bond_atom_site_label_2
_geom_bond_site_symmetry_1
_geom_bond_site_symmetry_2
O1 C1 1_555 1_555
N1 C1 1_555 1_555
C1 C2 1_555 1_555
C2 C3 1_555 1_555
C3 C4 1_555 1_555
C4 C5 1_555 1_555
C5 C6 1_555 1_555
C6 N1 1_555 1_555
C7 C3 1_555 1_555
C8 C7 1_555 1_555
C9 C7 1_555 1_555
C10 C7 1_555 1_555
C11 C6 1_555 1_555
C12 C11 1_555 1_555
C13 C11 1_555 1_555
C14 C11 1_555 1_555
O2 C15 1_555 1_555
N2 C15 1_555 1_555
C15 C16 1_555 1_555
C16 C17 1_555 1_555
C17 C18 1_555 1_555
C18 C19 1_555 1_555
C19 C20 1_555 1_555
C20 N2 1_555 1_555
C21 C17 1_555 1_555
C22 C21 1_555 1_555
C23 C21 1_555 1_555
C24 C21 1_555 1_555
C25 C20 1_555 1_555
C26 C25 1_555 1_555
C27 C25 1_555 1_555
C28 C25 1_555 1_555
H1 C2 1_555 1_555
H2 C4 1_555 1_555
H3 C5 1_555 1_555
H4 C8 1_555 1_555
H5 C8 1_555 1_555
H6 C8 1_555 1_555
H7 C9 1_555 1_555
H8 C9 1_555 1_555
H9 C9 1_555 1_555
H10 C10 1_555 1_555
H11 C10 1_555 1_555
H12 C10 1_555 1_555
H13 C12 1_555 1_555
H14 C12 1_555 1_555
H15 C12 1_555 1_555
H16 C13 1_555 1_555
H17 C13 1_555 1_555
H18 C13 1_555 1_555
H19 C14 1_555 1_555
H20 C14 1_555 1_555
H21 C14 1_555 1_555
H22 C16 1_555 1_555
H23 C18 1_555 1_555
H24 C19 1_555 1_555
H25 C22 1_555 1_555
H26 C22 1_555 1_555
H27 C22 1_555 1_555
H28 C23 1_555 1_555
H29 C23 1_555 1_555
H30 C23 1_555 1_555
H31 C24 1_555 1_555
H32 C24 1_555 1_555
H33 C24 1_555 1_555
H34 C26 1_555 1_555
H35 C26 1_555 1_555
H36 C26 1_555 1_555
H37 C27 1_555 1_555
H38 C27 1_555 1_555
H39 C27 1_555 1_555
H40 C28 1_555 1_555
H41 C28 1_555 1_555
H42 C28 1_555 1_555

#END
