
#######################################################################
#
#                 Cambridge Crystallographic Data Centre
#                                CCDC 
#
#######################################################################
#
# If this CIF has been generated from an entry in the Cambridge 
# Structural Database, then it will include bibliographic, chemical, 
# crystal, experimental, refinement or atomic coordinate data resulting 
# from the CCDC's data processing and validation procedures.
#
#######################################################################

data_QUMLOZ
_chemical_formula_moiety         'C11 H16 N2 O1'
_chemical_name_systematic        
all-cis-1-(N-Acetylamino)-2-cyano-4,6-dimethyl-5-cyclohexene
_symmetry_cell_setting           monoclinic
_symmetry_space_group_name_H-M   'P 21/c'
_symmetry_Int_Tables_number      14
_space_group_name_Hall           '-P 2ybc'
loop_
_symmetry_equiv_pos_site_id
_symmetry_equiv_pos_as_xyz
1 x,y,z
2 x,1/2-y,1/2+z
3 -x,-y,-z
4 -x,1/2+y,1/2-z
_cell_length_a                   8.643(2)
_cell_length_b                   15.147(3)
_cell_length_c                   9.364(2)
_cell_angle_alpha                90
_cell_angle_beta                 113.28(3)
_cell_angle_gamma                90
_cell_volume                     1126.09
_exptl_crystal_colour            colorless
_exptl_crystal_description       prism
_chemical_melting_point          187deg.C
_cell_formula_units_Z            4
_exptl_crystal_recrystallization_method 'ethyl acetate'
loop_
_atom_site_label
_atom_site_type_symbol
_atom_site_fract_x
_atom_site_fract_y
_atom_site_fract_z
C1 C -0.1506(3) 0.2218(2) 0.7350(3)
C2 C -0.3083(4) 0.1958(2) 0.5971(3)
H1 H -0.3023(4) 0.2179(2) 0.5034(3)
H2 H -0.4051(4) 0.2203(2) 0.6088(3)
H3 H -0.3176(4) 0.1326(2) 0.5917(3)
C3 C 0.1158(3) 0.3051(2) 0.8192(3)
H4 H 0.1261(34) 0.2756(17) 0.9095(36)
C4 C 0.2654(3) 0.2861(2) 0.7778(3)
C5 C 0.3498(4) 0.3509(2) 0.7454(3)
H5 H 0.4503(39) 0.3308(21) 0.7290(32)
C6 C 0.3075(4) 0.4471(2) 0.7357(4)
H6 H 0.3819(36) 0.4761(18) 0.8331(34)
C7 C 0.1269(4) 0.4594(2) 0.7211(4)
H7 H 0.1077(32) 0.5210(20) 0.7379(31)
H8 H 0.0505(38) 0.4372(21) 0.6161(37)
C8 C 0.0990(4) 0.4041(2) 0.8452(3)
H9 H 0.1800(33) 0.4202(16) 0.9442(31)
C9 C -0.0658(4) 0.4249(2) 0.8506(4)
C10 C 0.3126(4) 0.1904(2) 0.7834(4)
H10 H 0.2344(4) 0.1555(2) 0.8089(4)
H11 H 0.4242(4) 0.1820(2) 0.8610(4)
H12 H 0.3092(4) 0.1727(2) 0.6838(4)
C11 C 0.3369(4) 0.4923(2) 0.6044(4)
H13 H 0.3085(4) 0.5537(2) 0.6020(4)
H14 H 0.2677(4) 0.4652(2) 0.5074(4)
H15 H 0.4533(4) 0.4866(2) 0.6205(4)
N1 N -0.0395(3) 0.2694(2) 0.6996(3)
N2 N -0.1931(4) 0.4433(2) 0.8531(4)
H16 H -0.0562(37) 0.2827(19) 0.6031(40)
O1 O -0.1280(3) 0.20126(14) 0.8685(2)
loop_
_geom_bond_atom_site_label_1
_geom_bond_atom_site_label_2
_geom_bond_site_symmetry_1
_geom_bond_site_symmetry_2
C1 C2 1_555 1_555
C2 H1 1_555 1_555
H2 C2 1_555 1_555
H3 C2 1_555 1_555
C3 H4 1_555 1_555
C4 C3 1_555 1_555
C5 C4 1_555 1_555
H5 C5 1_555 1_555
C6 C5 1_555 1_555
H6 C6 1_555 1_555
C7 C6 1_555 1_555
H7 C7 1_555 1_555
H8 C7 1_555 1_555
C8 C3 1_555 1_555
H9 C8 1_555 1_555
C9 C8 1_555 1_555
C10 C4 1_555 1_555
H10 C10 1_555 1_555
H11 C10 1_555 1_555
H12 C10 1_555 1_555
C11 C6 1_555 1_555
H13 C11 1_555 1_555
H14 C11 1_555 1_555
H15 C11 1_555 1_555
N1 C1 1_555 1_555
N2 C9 1_555 1_555
H16 N1 1_555 1_555
O1 C1 1_555 1_555
C3 N1 1_555 1_555
C7 C8 1_555 1_555

#END
