
#######################################################################
#
#                 Cambridge Crystallographic Data Centre
#                                CCDC 
#
#######################################################################
#
# If this CIF has been generated from an entry in the Cambridge 
# Structural Database, then it will include bibliographic, chemical, 
# crystal, experimental, refinement or atomic coordinate data resulting 
# from the CCDC's data processing and validation procedures.
#
#######################################################################

data_QUMNOB
_chemical_name_common            
"5,11,17,23-tetrakis(3,5-di-t-butylbenzyl)-6,10:12,16:18,22:24,4-O,O'-tetrakis(quinoxaline-2,3-diyl)calix[4]resorcinarene chloroform solvate"
_chemical_formula_moiety         'C120 H120 N8 O8,2(C1 H1 Cl3)'
_chemical_name_systematic        
"2,3:2',3':2'',3'':2''',3'''-(2,8,14,20-tetrakis((3,5-Di-t-butylphenyl)methyl)pentacyclo(19.3.1.1^3,7^.1^9,13^.1^15,19^)octacosa-1(25),3,5,7(28),9,11,13(27),15,17,19(26),21,23-dodecaen-4,24:6,10:12,16:18,22-octayloctaoxy)tetraquinoxaline chloroform solvate"
_symmetry_cell_setting           tetragonal
_symmetry_space_group_name_H-M   'P 4/n'
_symmetry_Int_Tables_number      85
_space_group_name_Hall           '-P 4a'
loop_
_symmetry_equiv_pos_site_id
_symmetry_equiv_pos_as_xyz
1 x,y,z
2 1/2-y,x,z
3 y,1/2-x,z
4 1/2+x,1/2+y,-z
5 -x,-y,-z
6 1/2+y,-x,-z
7 -y,1/2+x,-z
8 1/2-x,1/2-y,z
_cell_length_a                   20.927(29)
_cell_length_b                   20.927(29)
_cell_length_c                   13.790(15)
_cell_angle_alpha                90
_cell_angle_beta                 90
_cell_angle_gamma                90
_cell_volume                     6039.18
_exptl_crystal_colour            colorless
_exptl_crystal_description       prism
_chemical_melting_point          'above 300deg.C'
_cell_formula_units_Z            2
loop_
_atom_site_label
_atom_site_type_symbol
_atom_site_fract_x
_atom_site_fract_y
_atom_site_fract_z
C1 C 0.4382(3) 0.1724(4) 0.1157(4)
H1 H 0.4643(4) 0.1624(5) 0.1710(5)
C2 C 0.3979(3) 0.1263(3) 0.0768(5)
C3 C 0.3602(3) 0.1407(3) -0.0032(5)
C4 C 0.3629(3) 0.2013(4) -0.0444(5)
H2 H 0.3368(4) 0.2112(5) -0.0997(5)
C5 C 0.4031(4) 0.2474(3) -0.0055(5)
C6 C 0.4409(3) 0.2330(3) 0.0746(5)
C7 C 0.3166(5) 0.0914(5) -0.0471(7)
H3 H 0.3314(5) 0.0503(5) -0.0256(7)
C8 C 0.3169(5) 0.0890(5) -0.1599(7)
H4 H 0.3590(5) 0.0975(5) -0.1840(7)
H5 H 0.2890(5) 0.1224(5) -0.1820(7)
C9 C 0.2935(3) 0.0265(3) -0.2011(5)
C10 C 0.3370(3) -0.0215(4) -0.2228(6)
H6 H 0.3820(3) -0.0141(5) -0.2150(8)
C11 C 0.3154(4) -0.0805(3) -0.2559(6)
C12 C 0.2503(4) -0.0913(3) -0.2672(5)
H7 H 0.2354(6) -0.1321(3) -0.2900(7)
C13 C 0.2068(3) -0.0432(4) -0.2454(6)
C14 C 0.2284(3) 0.0157(3) -0.2124(5)
H8 H 0.1983(4) 0.0489(4) -0.1975(8)
O1 O 0.3957(3) 0.0648(3) 0.1143(6)
C15 C 0.3664(6) 0.0577(5) 0.2033(10)
N1 N 0.3941(5) 0.0710(5) 0.2808(8)
C16 C 0.3633(5) 0.0611(4) 0.3644(6)
C17 C 0.3920(4) 0.0742(5) 0.4531(7)
H9 H 0.4345(5) 0.0915(8) 0.4550(11)
C18 C 0.3593(6) 0.0622(6) 0.5390(6)
H10 H 0.3792(8) 0.0713(9) 0.6002(7)
C19 C 0.2978(6) 0.0371(6) 0.5361(7)
H11 H 0.2753(8) 0.0289(8) 0.5954(8)
C20 C 0.2690(4) 0.0240(5) 0.4475(9)
H12 H 0.2266(5) 0.0067(7) 0.4455(13)
C21 C 0.3018(5) 0.0360(4) 0.3616(7)
N2 N 0.2704(5) 0.0219(5) 0.2772(8)
C22 C 0.3013(6) 0.0327(6) 0.2001(9)
O2 O 0.4843(4) 0.2773(3) 0.1121(6)
C23 C 0.3642(7) -0.1339(7) -0.2759(11)
C24 C 0.1359(6) -0.0558(6) -0.2563(10)
C25 C 0.1079(12) -0.0100(11) -0.3341(17)
H13 H 0.1181(12) 0.0333(11) -0.3173(17)
H14 H 0.0624(12) -0.0151(11) -0.3368(17)
H15 H 0.1260(12) -0.0200(11) -0.3962(17)
C26 C 0.1184(9) -0.1213(8) -0.2866(16)
H16 H 0.0727(9) -0.1248(8) -0.2907(16)
H17 H 0.1343(9) -0.1514(8) -0.2399(16)
H18 H 0.1369(9) -0.1302(8) -0.3489(16)
C27 C 0.1002(13) -0.0387(13) -0.1639(15)
H19 H 0.1118(13) 0.0037(13) -0.1439(15)
H20 H 0.1111(13) -0.0685(13) -0.1138(15)
H21 H 0.0550(13) -0.0404(13) -0.1758(15)
C31 C 0.4265(8) -0.1080(9) -0.3157(14)
H31 H 0.4410(8) -0.0735(9) -0.2755(14)
H32 H 0.4199(8) -0.0928(9) -0.3806(14)
H33 H 0.4579(8) -0.1414(9) -0.3162(14)
C32 C 0.3403(11) -0.1847(11) -0.3436(17)
H34 H 0.3014(11) -0.2025(11) -0.3186(17)
H35 H 0.3719(11) -0.2177(11) -0.3494(17)
H36 H 0.3324(11) -0.1663(11) -0.4062(17)
C33 C 0.3790(12) -0.1642(12) -0.1784(14)
H37 H 0.3406(12) -0.1816(12) -0.1512(14)
H38 H 0.3960(12) -0.1323(12) -0.1354(14)
H39 H 0.4098(12) -0.1977(12) -0.1870(14)
C22A C 0.4673(6) 0.3013(6) 0.2001(9)
C15A C 0.4423(5) 0.3664(6) 0.2033(10)
O1A O 0.4352(3) 0.3957(3) 0.1143(6)
C2A C 0.3737(3) 0.3979(3) 0.0768(5)
C1A C 0.3276(4) 0.4382(3) 0.1157(4)
H1A H 0.3376(5) 0.4643(4) 0.1710(5)
C6A C 0.2670(3) 0.4409(3) 0.0746(5)
C5A C 0.2526(3) 0.4031(4) -0.0055(5)
C4A C 0.2987(4) 0.3629(3) -0.0444(5)
C3A C 0.3593(3) 0.3602(3) -0.0032(5)
C7A C 0.4086(5) 0.3166(5) -0.0471(7)
H3A H 0.4497(5) 0.3314(5) -0.0256(7)
C8A C 0.4110(5) 0.3169(5) -0.1599(7)
H4A H 0.4025(5) 0.3590(5) -0.1840(7)
H5A H 0.3776(5) 0.2890(5) -0.1820(7)
C9A C 0.4735(3) 0.2935(3) -0.2011(5)
C10A C 0.5215(4) 0.3370(3) -0.2228(6)
H6A H 0.5141(5) 0.3820(3) -0.2150(8)
C11A C 0.5805(3) 0.3154(4) -0.2559(6)
C12A C 0.5913(3) 0.2503(4) -0.2672(5)
H7A H 0.6321(3) 0.2354(6) -0.2900(7)
C13A C 0.5432(4) 0.2068(3) -0.2454(6)
C14A C 0.4843(3) 0.2284(3) -0.2124(5)
H8A H 0.4511(4) 0.1983(4) -0.1975(8)
C24A C 0.5558(6) 0.1359(6) -0.2563(10)
C25A C 0.5100(11) 0.1079(12) -0.3341(17)
H13A H 0.4667(11) 0.1181(12) -0.3173(17)
H14A H 0.5151(11) 0.0624(12) -0.3368(17)
H15A H 0.5200(11) 0.1260(12) -0.3962(17)
C26A C 0.6213(8) 0.1184(9) -0.2866(16)
H16A H 0.6248(8) 0.0727(9) -0.2907(16)
H17A H 0.6514(8) 0.1343(9) -0.2399(16)
H18A H 0.6302(8) 0.1369(9) -0.3489(16)
C27A C 0.5387(13) 0.1002(13) -0.1639(15)
H19A H 0.4963(13) 0.1118(13) -0.1439(15)
H20A H 0.5685(13) 0.1111(13) -0.1138(15)
H21A H 0.5404(13) 0.0550(13) -0.1758(15)
C23A C 0.6339(7) 0.3642(7) -0.2759(11)
C31A C 0.6080(9) 0.4265(8) -0.3157(14)
H31A H 0.5735(9) 0.4410(8) -0.2755(14)
H32A H 0.5928(9) 0.4199(8) -0.3806(14)
H33A H 0.6414(9) 0.4579(8) -0.3162(14)
C32A C 0.6847(11) 0.3403(11) -0.3436(17)
H34A H 0.7025(11) 0.3014(11) -0.3186(17)
H35A H 0.7177(11) 0.3719(11) -0.3494(17)
H36A H 0.6663(11) 0.3324(11) -0.4062(17)
C33A C 0.6642(12) 0.3790(12) -0.1784(14)
H37A H 0.6816(12) 0.3406(12) -0.1512(14)
H38A H 0.6323(12) 0.3960(12) -0.1354(14)
H39A H 0.6977(12) 0.4098(12) -0.1870(14)
H2A H 0.2888(5) 0.3368(4) -0.0997(5)
C7G C 0.1834(5) 0.4086(5) -0.0471(7)
C3G C 0.1398(3) 0.3593(3) -0.0032(5)
C2G C 0.1021(3) 0.3737(3) 0.0768(5)
C1G C 0.0618(3) 0.3276(4) 0.1157(4)
H1G H 0.0357(4) 0.3376(5) 0.1710(5)
C6G C 0.0591(3) 0.2670(3) 0.0746(5)
C5G C 0.0969(4) 0.2526(3) -0.0055(5)
C4G C 0.1371(3) 0.2987(4) -0.0444(5)
H2G H 0.1632(4) 0.2888(5) -0.0997(5)
C7B C 0.0914(5) 0.1834(5) -0.0471(7)
C3B C 0.1407(3) 0.1398(3) -0.0032(5)
C2B C 0.1263(3) 0.1021(3) 0.0768(5)
C1B C 0.1724(4) 0.0618(3) 0.1157(4)
H1B H 0.1624(5) 0.0357(4) 0.1710(5)
C6B C 0.2330(3) 0.0591(3) 0.0746(5)
C5B C 0.2474(3) 0.0969(4) -0.0055(5)
C4B C 0.2013(4) 0.1371(3) -0.0444(5)
H2B H 0.2112(5) 0.1632(4) -0.0997(5)
O2B O 0.2773(3) 0.0157(4) 0.1121(6)
O1B O 0.0648(3) 0.1043(3) 0.1143(6)
C15B C 0.0577(5) 0.1336(6) 0.2033(10)
N1B N 0.0710(5) 0.1059(5) 0.2808(8)
C16B C 0.0611(4) 0.1367(5) 0.3644(6)
C17B C 0.0742(5) 0.1080(4) 0.4531(7)
H9B H 0.0915(8) 0.0655(5) 0.4550(11)
C18B C 0.0622(6) 0.1407(6) 0.5390(6)
H10B H 0.0713(9) 0.1208(8) 0.6002(7)
C19B C 0.0371(6) 0.2022(6) 0.5361(7)
H11B H 0.0289(8) 0.2247(8) 0.5954(8)
C20B C 0.0240(5) 0.2310(4) 0.4475(9)
H12B H 0.0067(7) 0.2734(5) 0.4455(13)
C21B C 0.0360(4) 0.1982(5) 0.3616(7)
N2B N 0.0219(5) 0.2296(5) 0.2772(8)
C22B C 0.0327(6) 0.1987(6) 0.2001(9)
O2G O 0.0157(4) 0.2227(3) 0.1121(6)
H3B H 0.0503(5) 0.1686(5) -0.0256(7)
C8B C 0.0890(5) 0.1831(5) -0.1599(7)
H4B H 0.0975(5) 0.1410(5) -0.1840(7)
H5B H 0.1224(5) 0.2110(5) -0.1820(7)
C9B C 0.0265(3) 0.2065(3) -0.2011(5)
C10B C -0.0215(4) 0.1630(3) -0.2228(6)
H6B H -0.0141(5) 0.1180(3) -0.2150(8)
C11B C -0.0805(3) 0.1846(4) -0.2559(6)
C12B C -0.0913(3) 0.2497(4) -0.2672(5)
H7B H -0.1321(3) 0.2646(6) -0.2900(7)
C13B C -0.0432(4) 0.2932(3) -0.2454(6)
C14B C 0.0157(3) 0.2716(3) -0.2124(5)
H8B H 0.0489(4) 0.3017(4) -0.1975(8)
C24B C -0.0558(6) 0.3641(6) -0.2563(10)
C25B C -0.0100(11) 0.3921(12) -0.3341(17)
H13B H 0.0333(11) 0.3819(12) -0.3173(17)
H14B H -0.0151(11) 0.4376(12) -0.3368(17)
H15B H -0.0200(11) 0.3740(12) -0.3962(17)
C26B C -0.1213(8) 0.3816(9) -0.2866(16)
H16B H -0.1248(8) 0.4273(9) -0.2907(16)
H17B H -0.1514(8) 0.3657(9) -0.2399(16)
H18B H -0.1302(8) 0.3631(9) -0.3489(16)
C27B C -0.0387(13) 0.3998(13) -0.1639(15)
H19B H 0.0037(13) 0.3882(13) -0.1439(15)
H20B H -0.0685(13) 0.3889(13) -0.1138(15)
H21B H -0.0404(13) 0.4450(13) -0.1758(15)
C23B C -0.1339(7) 0.1358(7) -0.2759(11)
C31B C -0.1080(9) 0.0735(8) -0.3157(14)
H31B H -0.0735(9) 0.0590(8) -0.2755(14)
H32B H -0.0928(9) 0.0801(8) -0.3806(14)
H33B H -0.1414(9) 0.0421(8) -0.3162(14)
C32B C -0.1847(11) 0.1597(11) -0.3436(17)
H34B H -0.2025(11) 0.1986(11) -0.3186(17)
H35B H -0.2177(11) 0.1281(11) -0.3494(17)
H36B H -0.1663(11) 0.1676(11) -0.4062(17)
C33B C -0.1642(12) 0.1210(12) -0.1784(14)
H37B H -0.1816(12) 0.1594(12) -0.1512(14)
H38B H -0.1323(12) 0.1040(12) -0.1354(14)
H39B H -0.1977(12) 0.0902(12) -0.1870(14)
O1G O 0.1043(3) 0.4352(3) 0.1143(6)
C15G C 0.1336(6) 0.4423(5) 0.2033(10)
N1G N 0.1059(5) 0.4290(5) 0.2808(8)
C16G C 0.1367(5) 0.4389(4) 0.3644(6)
C17G C 0.1080(4) 0.4258(5) 0.4531(7)
H9G H 0.0655(5) 0.4085(8) 0.4550(11)
C18G C 0.1407(6) 0.4378(6) 0.5390(6)
H10G H 0.1208(8) 0.4287(9) 0.6002(7)
C19G C 0.2022(6) 0.4629(6) 0.5361(7)
H11G H 0.2247(8) 0.4711(8) 0.5954(8)
C20G C 0.2310(4) 0.4760(5) 0.4475(9)
H12G H 0.2734(5) 0.4933(7) 0.4455(13)
C21G C 0.1982(5) 0.4640(4) 0.3616(7)
N2G N 0.2296(5) 0.4781(5) 0.2772(8)
C22G C 0.1987(6) 0.4673(6) 0.2001(9)
O2A O 0.2227(3) 0.4843(4) 0.1121(6)
H3G H 0.1686(5) 0.4497(5) -0.0256(7)
C8G C 0.1831(5) 0.4110(5) -0.1599(7)
H4G H 0.1410(5) 0.4025(5) -0.1840(7)
H5G H 0.2110(5) 0.3776(5) -0.1820(7)
C9G C 0.2065(3) 0.4735(3) -0.2011(5)
C10G C 0.1630(3) 0.5215(4) -0.2228(6)
H6G H 0.1180(3) 0.5141(5) -0.2150(8)
C11G C 0.1846(4) 0.5805(3) -0.2559(6)
C12G C 0.2497(4) 0.5913(3) -0.2672(5)
H7G H 0.2646(6) 0.6321(3) -0.2900(7)
C13G C 0.2932(3) 0.5432(4) -0.2454(6)
C14G C 0.2716(3) 0.4843(3) -0.2124(5)
H8G H 0.3017(4) 0.4511(4) -0.1975(8)
C24G C 0.3641(6) 0.5558(6) -0.2563(10)
C25G C 0.3921(12) 0.5100(11) -0.3341(17)
H13G H 0.3819(12) 0.4667(11) -0.3173(17)
H14G H 0.4376(12) 0.5151(11) -0.3368(17)
H15G H 0.3740(12) 0.5200(11) -0.3962(17)
C26G C 0.3816(9) 0.6213(8) -0.2866(16)
H16G H 0.4273(9) 0.6248(8) -0.2907(16)
H17G H 0.3657(9) 0.6514(8) -0.2399(16)
H18G H 0.3631(9) 0.6302(8) -0.3489(16)
C27G C 0.3998(13) 0.5387(13) -0.1639(15)
H19G H 0.3882(13) 0.4963(13) -0.1439(15)
H20G H 0.3889(13) 0.5685(13) -0.1138(15)
H21G H 0.4450(13) 0.5404(13) -0.1758(15)
C23G C 0.1358(7) 0.6339(7) -0.2759(11)
C31G C 0.0735(8) 0.6080(9) -0.3157(14)
H31G H 0.0590(8) 0.5735(9) -0.2755(14)
H32G H 0.0801(8) 0.5928(9) -0.3806(14)
H33G H 0.0421(8) 0.6414(9) -0.3162(14)
C32G C 0.1597(11) 0.6847(11) -0.3436(17)
H34G H 0.1986(11) 0.7025(11) -0.3186(17)
H35G H 0.1281(11) 0.7177(11) -0.3494(17)
H36G H 0.1676(11) 0.6663(11) -0.4062(17)
C33G C 0.1210(12) 0.6642(12) -0.1784(14)
H37G H 0.1594(12) 0.6816(12) -0.1512(14)
H38G H 0.1040(12) 0.6323(12) -0.1354(14)
H39G H 0.0902(12) 0.6977(12) -0.1870(14)
N1A N 0.4290(5) 0.3941(5) 0.2808(8)
C16A C 0.4389(4) 0.3633(5) 0.3644(6)
C17A C 0.4258(5) 0.3920(4) 0.4531(7)
H9A H 0.4085(8) 0.4345(5) 0.4550(11)
C18A C 0.4378(6) 0.3593(6) 0.5390(6)
H10A H 0.4287(9) 0.3792(8) 0.6002(7)
C19A C 0.4629(6) 0.2978(6) 0.5361(7)
H11A H 0.4711(8) 0.2753(8) 0.5954(8)
C20A C 0.4760(5) 0.2690(4) 0.4475(9)
H12A H 0.4933(7) 0.2266(5) 0.4455(13)
C21A C 0.4640(4) 0.3018(5) 0.3616(7)
N2A N 0.4781(5) 0.2704(5) 0.2772(8)
C28? C 0.0913(12) -0.0024(11) -0.2343(23)
H22? H 0.0996(12) 0.0134(11) -0.1702(23)
H23? H 0.0480(12) -0.0176(11) -0.2380(23)
H24? H 0.0974(12) 0.0313(11) -0.2805(23)
C29? C 0.1195(19) -0.1104(14) -0.1856(23)
H25? H 0.1274(19) -0.0967(14) -0.1203(23)
H26? H 0.1456(19) -0.1469(14) -0.1999(23)
H27? H 0.0753(19) -0.1217(14) -0.1925(23)
C30? C 0.1218(19) -0.0806(19) -0.3564(18)
H28? H 0.1506(19) -0.1150(19) -0.3714(18)
H29? H 0.1273(19) -0.0469(19) -0.4028(18)
H30? H 0.0786(19) -0.0959(19) -0.3590(18)
C34? C 0.3396(18) -0.1976(15) -0.2447(30)
H40? H 0.2940(18) -0.1985(15) -0.2516(30)
H41? H 0.3507(18) -0.2048(15) -0.1780(30)
H42? H 0.3583(18) -0.2303(15) -0.2843(30)
C35? C 0.3581(25) -0.1356(28) -0.3901(20)
H43? H 0.3143(25) -0.1426(28) -0.4078(20)
H44? H 0.3840(25) -0.1696(28) -0.4154(20)
H45? H 0.3723(25) -0.0956(28) -0.4165(20)
C36? C 0.4335(14) -0.1285(26) -0.2560(35)
H46? H 0.4489(14) -0.0880(26) -0.2792(35)
H47? H 0.4558(14) -0.1623(26) -0.2886(35)
H48? H 0.4409(14) -0.1315(26) -0.1875(35)
Cl1? Cl 0.3073(11) 0.2230(17) 0.3067(20)
Cl2? Cl 0.2609(18) 0.2608(53) 0.1639(20)
Cl3? Cl 0.2711(28) 0.2990(27) -0.3678(46)
loop_
_geom_bond_atom_site_label_1
_geom_bond_atom_site_label_2
_geom_bond_site_symmetry_1
_geom_bond_site_symmetry_2
C1 H1 1_555 1_555
C2 C1 1_555 1_555
C3 C2 1_555 1_555
C4 C3 1_555 1_555
H2 C4 1_555 1_555
C5 C4 1_555 1_555
C6 C1 1_555 1_555
C7 C3 1_555 1_555
H3 C7 1_555 1_555
C8 C7 1_555 1_555
H4 C8 1_555 1_555
H5 C8 1_555 1_555
C9 C8 1_555 1_555
C10 C9 1_555 1_555
H6 C10 1_555 1_555
C11 C10 1_555 1_555
C12 C11 1_555 1_555
H7 C12 1_555 1_555
C13 C12 1_555 1_555
C14 C9 1_555 1_555
H8 C14 1_555 1_555
O1 C2 1_555 1_555
C15 O1 1_555 1_555
N1 C15 1_555 1_555
C16 N1 1_555 1_555
C17 C16 1_555 1_555
H9 C17 1_555 1_555
C18 C17 1_555 1_555
H10 C18 1_555 1_555
C19 C18 1_555 1_555
H11 C19 1_555 1_555
C20 C19 1_555 1_555
H12 C20 1_555 1_555
C21 C16 1_555 1_555
N2 C21 1_555 1_555
C22 C15 1_555 1_555
O2 C6 1_555 1_555
C23 C11 1_555 1_555
C24 C13 1_555 1_555
C25 C24 1_555 1_555
H13 C25 1_555 1_555
H14 C25 1_555 1_555
H15 C25 1_555 1_555
C26 C24 1_555 1_555
H16 C26 1_555 1_555
H17 C26 1_555 1_555
H18 C26 1_555 1_555
C27 C24 1_555 1_555
H19 C27 1_555 1_555
H20 C27 1_555 1_555
H21 C27 1_555 1_555
C31 C23 1_555 1_555
H31 C31 1_555 1_555
H32 C31 1_555 1_555
H33 C31 1_555 1_555
C32 C23 1_555 1_555
H34 C32 1_555 1_555
H35 C32 1_555 1_555
H36 C32 1_555 1_555
C33 C23 1_555 1_555
H37 C33 1_555 1_555
H38 C33 1_555 1_555
H39 C33 1_555 1_555
C22A O2 1_555 1_555
C15A C22A 1_555 1_555
O1A C15A 1_555 1_555
C2A O1A 1_555 1_555
C1A C2A 1_555 1_555
H1A C1A 1_555 1_555
C6A C1A 1_555 1_555
C5A C6A 1_555 1_555
C4A C5A 1_555 1_555
C3A C2A 1_555 1_555
C7A C5 1_555 1_555
H3A C7A 1_555 1_555
C8A C7A 1_555 1_555
H4A C8A 1_555 1_555
H5A C8A 1_555 1_555
C9A C8A 1_555 1_555
C10A C9A 1_555 1_555
H6A C10A 1_555 1_555
C11A C10A 1_555 1_555
C12A C11A 1_555 1_555
H7A C12A 1_555 1_555
C13A C12A 1_555 1_555
C14A C9A 1_555 1_555
H8A C14A 1_555 1_555
C24A C13A 1_555 1_555
C25A C24A 1_555 1_555
H13A C25A 1_555 1_555
H14A C25A 1_555 1_555
H15A C25A 1_555 1_555
C26A C24A 1_555 1_555
H16A C26A 1_555 1_555
H17A C26A 1_555 1_555
H18A C26A 1_555 1_555
C27A C24A 1_555 1_555
H19A C27A 1_555 1_555
H20A C27A 1_555 1_555
H21A C27A 1_555 1_555
C23A C11A 1_555 1_555
C31A C23A 1_555 1_555
H31A C31A 1_555 1_555
H32A C31A 1_555 1_555
H33A C31A 1_555 1_555
C32A C23A 1_555 1_555
H34A C32A 1_555 1_555
H35A C32A 1_555 1_555
H36A C32A 1_555 1_555
C33A C23A 1_555 1_555
H37A C33A 1_555 1_555
H38A C33A 1_555 1_555
H39A C33A 1_555 1_555
H2A C4A 1_555 1_555
C7G C5A 1_555 1_555
C3G C7G 1_555 1_555
C2G C3G 1_555 1_555
C1G C2G 1_555 1_555
H1G C1G 1_555 1_555
C6G C1G 1_555 1_555
C5G C6G 1_555 1_555
C4G C3G 1_555 1_555
H2G C4G 1_555 1_555
C7B C5G 1_555 1_555
C3B C7B 1_555 1_555
C2B C3B 1_555 1_555
C1B C2B 1_555 1_555
H1B C1B 1_555 1_555
C6B C1B 1_555 1_555
C5B C7 1_555 1_555
C4B C3B 1_555 1_555
H2B C4B 1_555 1_555
O2B C22 1_555 1_555
O1B C2B 1_555 1_555
C15B O1B 1_555 1_555
N1B C15B 1_555 1_555
C16B N1B 1_555 1_555
C17B C16B 1_555 1_555
H9B C17B 1_555 1_555
C18B C17B 1_555 1_555
H10B C18B 1_555 1_555
C19B C18B 1_555 1_555
H11B C19B 1_555 1_555
C20B C19B 1_555 1_555
H12B C20B 1_555 1_555
C21B C16B 1_555 1_555
N2B C21B 1_555 1_555
C22B C15B 1_555 1_555
O2G C6G 1_555 1_555
H3B C7B 1_555 1_555
C8B C7B 1_555 1_555
H4B C8B 1_555 1_555
H5B C8B 1_555 1_555
C9B C8B 1_555 1_555
C10B C9B 1_555 1_555
H6B C10B 1_555 1_555
C11B C10B 1_555 1_555
C12B C11B 1_555 1_555
H7B C12B 1_555 1_555
C13B C12B 1_555 1_555
C14B C9B 1_555 1_555
H8B C14B 1_555 1_555
C24B C13B 1_555 1_555
C25B C24B 1_555 1_555
H13B C25B 1_555 1_555
H14B C25B 1_555 1_555
H15B C25B 1_555 1_555
C26B C24B 1_555 1_555
H16B C26B 1_555 1_555
H17B C26B 1_555 1_555
H18B C26B 1_555 1_555
C27B C24B 1_555 1_555
H19B C27B 1_555 1_555
H20B C27B 1_555 1_555
H21B C27B 1_555 1_555
C23B C11B 1_555 1_555
C31B C23B 1_555 1_555
H31B C31B 1_555 1_555
H32B C31B 1_555 1_555
H33B C31B 1_555 1_555
C32B C23B 1_555 1_555
H34B C32B 1_555 1_555
H35B C32B 1_555 1_555
H36B C32B 1_555 1_555
C33B C23B 1_555 1_555
H37B C33B 1_555 1_555
H38B C33B 1_555 1_555
H39B C33B 1_555 1_555
O1G C2G 1_555 1_555
C15G O1G 1_555 1_555
N1G C15G 1_555 1_555
C16G N1G 1_555 1_555
C17G C16G 1_555 1_555
H9G C17G 1_555 1_555
C18G C17G 1_555 1_555
H10G C18G 1_555 1_555
C19G C18G 1_555 1_555
H11G C19G 1_555 1_555
C20G C19G 1_555 1_555
H12G C20G 1_555 1_555
C21G C16G 1_555 1_555
N2G C21G 1_555 1_555
C22G C15G 1_555 1_555
O2A C6A 1_555 1_555
H3G C7G 1_555 1_555
C8G C7G 1_555 1_555
H4G C8G 1_555 1_555
H5G C8G 1_555 1_555
C9G C8G 1_555 1_555
C10G C9G 1_555 1_555
H6G C10G 1_555 1_555
C11G C10G 1_555 1_555
C12G C11G 1_555 1_555
H7G C12G 1_555 1_555
C13G C12G 1_555 1_555
C14G C9G 1_555 1_555
H8G C14G 1_555 1_555
C24G C13G 1_555 1_555
C25G C24G 1_555 1_555
H13G C25G 1_555 1_555
H14G C25G 1_555 1_555
H15G C25G 1_555 1_555
C26G C24G 1_555 1_555
H16G C26G 1_555 1_555
H17G C26G 1_555 1_555
H18G C26G 1_555 1_555
C27G C24G 1_555 1_555
H19G C27G 1_555 1_555
H20G C27G 1_555 1_555
H21G C27G 1_555 1_555
C23G C11G 1_555 1_555
C31G C23G 1_555 1_555
H31G C31G 1_555 1_555
H32G C31G 1_555 1_555
H33G C31G 1_555 1_555
C32G C23G 1_555 1_555
H34G C32G 1_555 1_555
H35G C32G 1_555 1_555
H36G C32G 1_555 1_555
C33G C23G 1_555 1_555
H37G C33G 1_555 1_555
H38G C33G 1_555 1_555
H39G C33G 1_555 1_555
N1A C15A 1_555 1_555
C16A N1A 1_555 1_555
C17A C16A 1_555 1_555
H9A C17A 1_555 1_555
C18A C17A 1_555 1_555
H10A C18A 1_555 1_555
C19A C18A 1_555 1_555
H11A C19A 1_555 1_555
C20A C19A 1_555 1_555
H12A C20A 1_555 1_555
C21A C16A 1_555 1_555
N2A C22A 1_555 1_555
C5 C6 1_555 1_555
C13 C14 1_555 1_555
C20 C21 1_555 1_555
N2 C22 1_555 1_555
C4A C3A 1_555 1_555
C3A C7A 1_555 1_555
C13A C14A 1_555 1_555
C5G C4G 1_555 1_555
C6B C5B 1_555 1_555
C6B O2B 1_555 1_555
C5B C4B 1_555 1_555
C20B C21B 1_555 1_555
N2B C22B 1_555 1_555
C22B O2G 1_555 1_555
C13B C14B 1_555 1_555
C20G C21G 1_555 1_555
N2G C22G 1_555 1_555
C22G O2A 1_555 1_555
C13G C14G 1_555 1_555
C20A C21A 1_555 1_555
C21A N2A 1_555 1_555

#END
