
#######################################################################
#
#                 Cambridge Crystallographic Data Centre
#                                CCDC 
#
#######################################################################
#
# If this CIF has been generated from an entry in the Cambridge 
# Structural Database, then it will include bibliographic, chemical, 
# crystal, experimental, refinement or atomic coordinate data resulting 
# from the CCDC's data processing and validation procedures.
#
#######################################################################

data_QUMNIV
_chemical_compound_source        'Euphorbia decipiens'
_chemical_name_common            
'Butanoic acid rel-(2R,3R,3aS,4aS,5S,8R,8aS,9R,10R,10aS)-3,5,10a-tris(acetyloxy)-2,3,3a,4,5,8,8a,9,10,10a-decahydro-9,10-dihydroxy-2,9-dimethyl-8-(1-methylethenyl)-1H-10,4a-(epoxymethano)benz(f)azulen-4-yl ester'
_chemical_formula_moiety         'C30 H42 O11'
_chemical_name_systematic        'Decipinone C'
_symmetry_cell_setting           orthorhombic
_symmetry_space_group_name_H-M   'P 21 21 21'
_symmetry_Int_Tables_number      19
_space_group_name_Hall           'P 2ac 2ab'
loop_
_symmetry_equiv_pos_site_id
_symmetry_equiv_pos_as_xyz
1 x,y,z
2 1/2-x,-y,1/2+z
3 1/2+x,1/2-y,-z
4 -x,1/2+y,1/2-z
_cell_length_a                   8.877(2)
_cell_length_b                   15.820(2)
_cell_length_c                   21.696(7)
_cell_angle_alpha                90
_cell_angle_beta                 90
_cell_angle_gamma                90
_cell_volume                     3046.86
_exptl_crystal_colour            colorless
_exptl_crystal_description       prism
_chemical_melting_point          232-234deg.C
_cell_formula_units_Z            4
_exptl_crystal_recrystallization_method methanol
loop_
_atom_site_label
_atom_site_type_symbol
_atom_site_fract_x
_atom_site_fract_y
_atom_site_fract_z
O1 O 0.0000(3) 1.13393(14) 0.54337(10)
O2 O -0.1371(5) 1.2520(2) 0.5407(2)
O3 O -0.2531(3) 1.01963(14) 0.63171(10)
O4 O -0.1402(4) 1.12880(19) 0.67799(14)
O5 O -0.1620(3) 0.83069(15) 0.52496(11)
O6 O -0.0819(3) 0.94946(16) 0.73015(10)
O7 O -0.2461(6) 0.9282(3) 0.80574(16)
O8 O 0.2456(3) 0.82510(14) 0.54347(12)
H1 H 0.2783 0.7809 0.5290
O9 O 0.0122(3) 0.81022(17) 0.45347(11)
H2 H 0.0842 0.8315 0.4356
O10 O 0.1440(2) 0.98345(14) 0.51313(10)
O11 O 0.2543(4) 0.92265(18) 0.43017(13)
C1 C -0.0606(5) 0.9809(2) 0.43625(15)
H3 H 0.0186 0.9754 0.4057
H4 H -0.1470 0.9483 0.4227
C2 C -0.1042(5) 1.0746(2) 0.44472(15)
H5 H -0.2033 1.0833 0.4259
C3 C -0.1209(4) 1.0866(2) 0.51577(15)
H6 H -0.2179 1.1131 0.5253
C4 C -0.1167(3) 0.9974(2) 0.54060(14)
H7 H -0.2152 0.9740 0.5294
C5 C -0.1091(4) 0.9864(2) 0.61002(14)
H8 H -0.0251 1.0189 0.6273
C6 C -0.0973(4) 0.8925(2) 0.62860(14)
C7 C -0.1523(4) 0.8817(2) 0.69544(15)
H9 H -0.2622 0.8874 0.6972
C8 C -0.1055(6) 0.7991(3) 0.72286(18)
H10 H -0.1736 0.7677 0.7460
C9 C 0.0318(6) 0.7713(3) 0.71409(19)
H11 H 0.0601 0.7206 0.7325
C10 C 0.1444(4) 0.8172(3) 0.67595(18)
H12 H 0.2081 0.7732 0.6576
C11 C 0.0716(4) 0.8644(2) 0.62070(14)
H13 H 0.1298 0.9166 0.6154
C12 C 0.0914(4) 0.8140(2) 0.56042(16)
C13 C -0.0109(4) 0.8517(2) 0.50988(15)
C14 C -0.0052(4) 0.9493(2) 0.49967(14)
C15 C 0.0052(6) 1.1356(3) 0.41506(18)
H14 H 0.0057 1.1270 0.3713
H15 H 0.1044 1.1260 0.4312
H16 H -0.0252 1.1926 0.4239
C16 C -0.0260(6) 1.2163(3) 0.5560(2)
C17 C 0.1036(7) 1.2522(3) 0.5889(3)
H17 H 0.0702 1.2976 0.6149
H18 H 0.1753 1.2735 0.5596
H19 H 0.1500 1.2092 0.6136
C18 C -0.2522(6) 1.0931(3) 0.66321(17)
C19 C -0.4113(7) 1.1208(4) 0.6752(3)
H20 H -0.4828 1.0786 0.6613
H21 H -0.4329 1.1741 0.6549
C20 C -0.4164(12) 1.1314(8) 0.7522(5)
H22 H -0.3992 1.0773 0.7721
H23 H -0.3399 1.1709 0.7659
C21 C -0.575(2) 1.1650(13) 0.7676(8)
H24 H -0.5905 1.2182 0.7473
H25 H -0.5841 1.1725 0.8113
H26 H -0.6493 1.1252 0.7537
C24 C -0.2043(4) 0.8393(2) 0.58895(15)
H32 H -0.2111 0.7832 0.6069
H33 H -0.3039 0.8644 0.5908
C25 C -0.1380(7) 0.9649(3) 0.78572(18)
C26 C -0.0502(9) 1.0294(4) 0.8181(2)
H34 H 0.0293 1.0028 0.8410
H35 H -0.1146 1.0599 0.8459
H36 H -0.0076 1.0680 0.7887
C27 C 0.2498(6) 0.8710(3) 0.7147(2)
C28 C 0.2389(8) 0.8798(4) 0.7737(3)
H37 H 0.3123 0.9095 0.7952
H38 H 0.1576 0.8564 0.7947
C29 C 0.3771(8) 0.9072(5) 0.6796(4)
H39 H 0.4162 0.8654 0.6518
H40 H 0.4549 0.9244 0.7077
H41 H 0.3428 0.9553 0.6566
C30 C 0.0599(5) 0.7193(2) 0.56538(19)
H42 H 0.1431 0.6920 0.5854
H43 H 0.0469 0.6961 0.5249
H44 H -0.0301 0.7105 0.5890
C31 C 0.2612(5) 0.9670(3) 0.4753(2)
C32 C 0.3974(5) 1.0124(3) 0.4964(3)
H45 H 0.3789 1.0721 0.4957
H46 H 0.4802 0.9993 0.4695
H47 H 0.4216 0.9951 0.5376
C22? C -0.4588(16) 1.1828(11) 0.7143(6)
H27? H -0.5469 1.2110 0.6977
H28? H -0.3800 1.2244 0.7204
C23? C -0.496(3) 1.1414(19) 0.7724(13)
H29? H -0.5527 1.0911 0.7644
H30? H -0.5539 1.1791 0.7976
H31? H -0.4042 1.1268 0.7936
loop_
_geom_bond_atom_site_label_1
_geom_bond_atom_site_label_2
_geom_bond_site_symmetry_1
_geom_bond_site_symmetry_2
O1 C3 1_555 1_555
O2 C16 1_555 1_555
O3 C5 1_555 1_555
O4 C18 1_555 1_555
O5 C13 1_555 1_555
O6 C7 1_555 1_555
O7 C25 1_555 1_555
O8 H1 1_555 1_555
O9 H2 1_555 1_555
O10 C14 1_555 1_555
O11 C31 1_555 1_555
C1 H3 1_555 1_555
H4 C1 1_555 1_555
C2 C1 1_555 1_555
H5 C2 1_555 1_555
C3 C2 1_555 1_555
H6 C3 1_555 1_555
C4 C3 1_555 1_555
H7 C4 1_555 1_555
C5 C4 1_555 1_555
H8 C5 1_555 1_555
C6 C5 1_555 1_555
C7 C6 1_555 1_555
H9 C7 1_555 1_555
C8 C7 1_555 1_555
H10 C8 1_555 1_555
C9 C8 1_555 1_555
H11 C9 1_555 1_555
C10 C9 1_555 1_555
H12 C10 1_555 1_555
C11 C6 1_555 1_555
H13 C11 1_555 1_555
C12 O8 1_555 1_555
C13 O9 1_555 1_555
C14 C1 1_555 1_555
C15 C2 1_555 1_555
H14 C15 1_555 1_555
H15 C15 1_555 1_555
H16 C15 1_555 1_555
C16 O1 1_555 1_555
C17 C16 1_555 1_555
H17 C17 1_555 1_555
H18 C17 1_555 1_555
H19 C17 1_555 1_555
C18 O3 1_555 1_555
C19 C18 1_555 1_555
H20 C19 1_555 1_555
H21 C19 1_555 1_555
C20 C19 1_555 1_555
H22 C20 1_555 1_555
H23 C20 1_555 1_555
C21 C20 1_555 1_555
H24 C21 1_555 1_555
H25 C21 1_555 1_555
H26 C21 1_555 1_555
C24 O5 1_555 1_555
H32 C24 1_555 1_555
H33 C24 1_555 1_555
C25 O6 1_555 1_555
C26 C25 1_555 1_555
H34 C26 1_555 1_555
H35 C26 1_555 1_555
H36 C26 1_555 1_555
C27 C10 1_555 1_555
C28 C27 1_555 1_555
H37 C28 1_555 1_555
H38 C28 1_555 1_555
C29 C27 1_555 1_555
H39 C29 1_555 1_555
H40 C29 1_555 1_555
H41 C29 1_555 1_555
C30 C12 1_555 1_555
H42 C30 1_555 1_555
H43 C30 1_555 1_555
H44 C30 1_555 1_555
C31 O10 1_555 1_555
C32 C31 1_555 1_555
H45 C32 1_555 1_555
H46 C32 1_555 1_555
H47 C32 1_555 1_555
C4 C14 1_555 1_555
C6 C24 1_555 1_555
C10 C11 1_555 1_555
C11 C12 1_555 1_555
C12 C13 1_555 1_555
C13 C14 1_555 1_555

#END
