
#######################################################################
#
#                 Cambridge Crystallographic Data Centre
#                                CCDC 
#
#######################################################################
#
# If this CIF has been generated from an entry in the Cambridge 
# Structural Database, then it will include bibliographic, chemical, 
# crystal, experimental, refinement or atomic coordinate data resulting 
# from the CCDC's data processing and validation procedures.
#
#######################################################################

data_QUMNER
_chemical_compound_source        'Euphorbia decipiens'
_chemical_name_common            
'rel-(2R,3R,3aS,4S,4aS,5S,8R,8aS,9R,10R,10aS)-2,3,3a,4,5,8,8a,9,10,10a-Decahydro-2,9-dimethyl-8-(methylethenyl)-1H-10,4a-(epoxymethano)benz(f)azulene-3,4,5,9,10,10a-hexol-3,5,10a-triacetate 4-benzoate'
_chemical_formula_moiety         'C33 H40 O11'
_chemical_name_systematic        'Decipinone B'
_symmetry_cell_setting           orthorhombic
_symmetry_space_group_name_H-M   'P 21 21 21'
_symmetry_Int_Tables_number      19
_space_group_name_Hall           'P 2ac 2ab'
loop_
_symmetry_equiv_pos_site_id
_symmetry_equiv_pos_as_xyz
1 x,y,z
2 1/2-x,-y,1/2+z
3 1/2+x,1/2-y,-z
4 -x,1/2+y,1/2-z
_cell_length_a                   8.893(4)
_cell_length_b                   17.509(2)
_cell_length_c                   20.276(4)
_cell_angle_alpha                90
_cell_angle_beta                 90
_cell_angle_gamma                90
_cell_volume                     3157.13
_exptl_crystal_colour            colorless
_exptl_crystal_description       plate
_chemical_melting_point          190-192deg.C
_cell_formula_units_Z            4
_exptl_crystal_recrystallization_method methanol
loop_
_atom_site_label
_atom_site_type_symbol
_atom_site_fract_x
_atom_site_fract_y
_atom_site_fract_z
O1 O -0.0249(7) -0.0199(3) 0.2322(3)
O2 O 0.0937(12) 0.0459(4) 0.3115(4)
O3 O 0.2466(7) 0.0255(3) 0.1113(3)
O4 O 0.1186(9) 0.1215(3) 0.1597(4)
O5 O 0.1885(7) -0.1831(3) 0.0497(4)
O6 O 0.0926(7) 0.0880(3) 0.0031(3)
O7 O 0.2740(11) 0.1589(4) -0.0410(5)
O8 O -0.2184(7) -0.1751(3) 0.0231(3)
H1 H -0.2483 -0.2103 0.0000
O9 O 0.0183(8) -0.2712(3) 0.0723(4)
H2 H -0.0479 -0.2818 0.0990
O10 O -0.1364(7) -0.1250(3) 0.1472(3)
O11 O -0.2394(9) -0.2438(3) 0.1544(4)
C1 C 0.0656(12) -0.2023(5) 0.1958(5)
H3 H 0.1548 -0.2317 0.1849
H4 H -0.0141 -0.2373 0.2083
C2 C 0.0985(13) -0.1455(5) 0.2516(5)
H5 H 0.1986 -0.1579 0.2688
C3 C 0.1093(11) -0.0653(4) 0.2199(5)
H6 H 0.1998 -0.0384 0.2348
C4 C 0.1183(11) -0.0835(4) 0.1468(4)
H7 H 0.2202 -0.1036 0.1409
C5 C 0.1092(10) -0.0187(4) 0.0989(4)
H8 H 0.0197 0.0125 0.1073
C6 C 0.1123(9) -0.0466(4) 0.0262(5)
C7 C 0.1707(11) 0.0193(5) -0.0191(5)
H9 H 0.2787 0.0260 -0.0114
C8 C 0.1470(14) 0.0047(6) -0.0897(5)
H10 H 0.2221 0.0148 -0.1203
C9 C 0.0147(15) -0.0237(6) -0.1084(6)
H11 H -0.0020 -0.0314 -0.1532
C10 C -0.1080(11) -0.0436(5) -0.0613(5)
H12 H -0.1611 -0.0868 -0.0813
C11 C -0.0485(9) -0.0738(4) 0.0067(4)
H13 H -0.1168 -0.0536 0.0404
C12 C -0.0626(11) -0.1612(5) 0.0098(5)
C13 C 0.0334(12) -0.1906(5) 0.0679(5)
C14 C 0.0174(11) -0.1526(5) 0.1377(5)
C15 C -0.0091(15) -0.1510(5) 0.3087(6)
H14 H -0.1087 -0.1385 0.2940
H15 H 0.0210 -0.1160 0.3427
H16 H -0.0082 -0.2021 0.3259
C16 C -0.0185(16) 0.0348(6) 0.2791(5)
C17 C -0.1585(14) 0.0791(5) 0.2825(6)
H17 H -0.1585 0.1095 0.3219
H18 H -0.2428 0.0448 0.2833
H19 H -0.1657 0.1118 0.2447
C18 C 0.2350(14) 0.0946(5) 0.1413(5)
C19 C 0.3831(13) 0.1304(5) 0.1478(5)
C20 C 0.3923(16) 0.1984(7) 0.1798(7)
H20 H 0.3074 0.2203 0.1988
C21 C 0.531(2) 0.2344(9) 0.1837(9)
H21 H 0.5373 0.2812 0.2052
C22 C 0.6553(15) 0.2043(7) 0.1578(7)
H22 H 0.7466 0.2298 0.1619
C23 C 0.6482(13) 0.1363(7) 0.1254(6)
H23 H 0.7334 0.1153 0.1059
C24 C 0.5107(13) 0.0993(6) 0.1223(5)
H24 H 0.5055 0.0517 0.1020
C25 C 0.2293(11) -0.1120(4) 0.0190(5)
H25 H 0.2459 -0.1213 -0.0277
H26 H 0.3239 -0.0950 0.0376
C26 C 0.1575(15) 0.1556(6) -0.0118(6)
C27 C 0.0634(13) 0.2203(4) 0.0139(6)
H27 H 0.1178 0.2674 0.0094
H28 H 0.0408 0.2117 0.0596
H29 H -0.0285 0.2233 -0.0107
C28 C -0.2250(13) 0.0201(6) -0.0554(5)
C29 C -0.3694(12) -0.0059(7) -0.0257(6)
H30 H -0.4386 0.0361 -0.0241
H31 H -0.3514 -0.0244 0.0181
H32 H -0.4113 -0.0461 -0.0521
C30 C -0.2073(15) 0.0897(6) -0.0774(6)
H33 H -0.2861 0.1245 -0.0747
H34 H -0.1159 0.1045 -0.0957
C31 C -0.0169(11) -0.2037(5) -0.0536(4)
H35 H -0.0289 -0.2576 -0.0472
H36 H 0.0863 -0.1926 -0.0637
H37 H -0.0796 -0.1872 -0.0894
C32 C -0.2490(13) -0.1758(6) 0.1547(5)
C33 C -0.3947(11) -0.1317(6) 0.1644(6)
H38 H -0.4737 -0.1665 0.1761
H39 H -0.4205 -0.1059 0.1241
H40 H -0.3818 -0.0948 0.1989
loop_
_geom_bond_atom_site_label_1
_geom_bond_atom_site_label_2
_geom_bond_site_symmetry_1
_geom_bond_site_symmetry_2
O1 C3 1_555 1_555
O2 C16 1_555 1_555
O3 C5 1_555 1_555
O4 C18 1_555 1_555
O5 C13 1_555 1_555
O6 C7 1_555 1_555
O7 C26 1_555 1_555
O8 H1 1_555 1_555
O9 H2 1_555 1_555
O10 C14 1_555 1_555
O11 C32 1_555 1_555
C1 H3 1_555 1_555
H4 C1 1_555 1_555
C2 C1 1_555 1_555
H5 C2 1_555 1_555
C3 C2 1_555 1_555
H6 C3 1_555 1_555
C4 C3 1_555 1_555
H7 C4 1_555 1_555
C5 C4 1_555 1_555
H8 C5 1_555 1_555
C6 C5 1_555 1_555
C7 C6 1_555 1_555
H9 C7 1_555 1_555
C8 C7 1_555 1_555
H10 C8 1_555 1_555
C9 C8 1_555 1_555
H11 C9 1_555 1_555
C10 C9 1_555 1_555
H12 C10 1_555 1_555
C11 C6 1_555 1_555
H13 C11 1_555 1_555
C12 O8 1_555 1_555
C13 O9 1_555 1_555
C14 C1 1_555 1_555
C15 C2 1_555 1_555
H14 C15 1_555 1_555
H15 C15 1_555 1_555
H16 C15 1_555 1_555
C16 O1 1_555 1_555
C17 C16 1_555 1_555
H17 C17 1_555 1_555
H18 C17 1_555 1_555
H19 C17 1_555 1_555
C18 O3 1_555 1_555
C19 C18 1_555 1_555
C20 C19 1_555 1_555
H20 C20 1_555 1_555
C21 C20 1_555 1_555
H21 C21 1_555 1_555
C22 C21 1_555 1_555
H22 C22 1_555 1_555
C23 C22 1_555 1_555
H23 C23 1_555 1_555
C24 C19 1_555 1_555
H24 C24 1_555 1_555
C25 O5 1_555 1_555
H25 C25 1_555 1_555
H26 C25 1_555 1_555
C26 O6 1_555 1_555
C27 C26 1_555 1_555
H27 C27 1_555 1_555
H28 C27 1_555 1_555
H29 C27 1_555 1_555
C28 C10 1_555 1_555
C29 C28 1_555 1_555
H30 C29 1_555 1_555
H31 C29 1_555 1_555
H32 C29 1_555 1_555
C30 C28 1_555 1_555
H33 C30 1_555 1_555
H34 C30 1_555 1_555
C31 C12 1_555 1_555
H35 C31 1_555 1_555
H36 C31 1_555 1_555
H37 C31 1_555 1_555
C32 O10 1_555 1_555
C33 C32 1_555 1_555
H38 C33 1_555 1_555
H39 C33 1_555 1_555
H40 C33 1_555 1_555
C4 C14 1_555 1_555
C6 C25 1_555 1_555
C10 C11 1_555 1_555
C11 C12 1_555 1_555
C12 C13 1_555 1_555
C13 C14 1_555 1_555
C23 C24 1_555 1_555

#END
