
#######################################################################
#
#                 Cambridge Crystallographic Data Centre
#                                CCDC 
#
#######################################################################
#
# If this CIF has been generated from an entry in the Cambridge 
# Structural Database, then it will include bibliographic, chemical, 
# crystal, experimental, refinement or atomic coordinate data resulting 
# from the CCDC's data processing and validation procedures.
#
#######################################################################

data_QUMZII
_chemical_formula_moiety         'C33 H31 N7 O2'
_chemical_name_systematic        
14,26-Dimethyl-20-(pent-4-en-1-yl)-2,8-dioxa-14,20,26,31,32,33,34-hepta-azahexacyclo[25.3.1.1^3,7^.1^9,13^.1^15,19^.1^21,25^]pentatriaconta-1(31),3(35),4,6,9(34),10,12,15(33),16,18,21(32),22,24,27,29-pentadecaene
_symmetry_cell_setting           monoclinic
_symmetry_space_group_name_H-M   'P 21/c'
_symmetry_Int_Tables_number      14
_space_group_name_Hall           '-P 2ybc'
loop_
_symmetry_equiv_pos_site_id
_symmetry_equiv_pos_as_xyz
1 x,y,z
2 -x,1/2+y,1/2-z
3 -x,-y,-z
4 x,1/2-y,1/2+z
_cell_length_a                   12.116(2)
_cell_length_b                   25.215(5)
_cell_length_c                   9.987(2)
_cell_angle_alpha                90
_cell_angle_beta                 110.53(3)
_cell_angle_gamma                90
_cell_volume                     2857.3
_exptl_crystal_colour            colorless
_exptl_crystal_description       plate
_chemical_melting_point          '194-195 deg.C'
_cell_formula_units_Z            4
loop_
_atom_site_label
_atom_site_type_symbol
_atom_site_fract_x
_atom_site_fract_y
_atom_site_fract_z
O1 O 0.04060(13) 0.13054(6) 0.05481(16)
O2 O -0.04345(13) 0.08144(7) 0.47964(16)
N1 N 0.17295(15) 0.19112(7) 0.04892(18)
N2 N 0.31049(16) 0.25030(7) 0.0196(2)
N3 N 0.42415(15) 0.18008(7) 0.14723(19)
N4 N 0.53203(16) 0.11002(8) 0.2866(2)
N5 N 0.43994(15) 0.07834(7) 0.44003(19)
N6 N 0.35826(16) 0.05018(7) 0.60567(18)
N7 N 0.15742(16) 0.06756(7) 0.54551(18)
C1 C -0.06048(18) 0.07845(9) 0.3347(2)
C2 C -0.15358(19) 0.04765(9) 0.2538(2)
H1 H -0.1981 0.0279 0.2981
C3 C -0.1817(2) 0.04572(9) 0.1073(2)
H2 H -0.2457 0.0243 0.0509
C4 C -0.11792(19) 0.07457(9) 0.0421(2)
H3 H -0.1375 0.0732 -0.0586
C5 C -0.02524(18) 0.10546(8) 0.1255(2)
C6 C 0.00540(19) 0.10782(9) 0.2724(2)
H4 H 0.0698 0.1290 0.3290
C7 C 0.08390(18) 0.18106(8) 0.0923(2)
C8 C 0.0342(2) 0.21732(9) 0.1580(3)
H5 H -0.0310 0.2083 0.1854
C9 C 0.0837(2) 0.26728(9) 0.1821(3)
H6 H 0.0530 0.2935 0.2279
C10 C 0.1776(2) 0.27926(9) 0.1397(3)
H7 H 0.2127 0.3135 0.1562
C11 C 0.21943(18) 0.24018(8) 0.0725(2)
C12 C 0.40039(18) 0.21334(9) 0.0363(2)
C13 C 0.46519(19) 0.21342(9) -0.0550(2)
H8 H 0.4462 0.2371 -0.1340
C14 C 0.5573(2) 0.17826(10) -0.0272(3)
H9 H 0.6042 0.1781 -0.0860
C15 C 0.5819(2) 0.14324(10) 0.0858(3)
H10 H 0.6449 0.1186 0.1057
C16 C 0.51168(19) 0.14530(9) 0.1690(2)
C17 C 0.43553(19) 0.08571(8) 0.3059(2)
C18 C 0.34119(19) 0.06828(9) 0.1883(2)
H11 H 0.3385 0.0752 0.0938
C19 C 0.2525(2) 0.04094(9) 0.2123(2)
H12 H 0.1880 0.0282 0.1336
C20 C 0.2559(2) 0.03171(9) 0.3505(2)
H13 H 0.1965 0.0116 0.3690
C21 C 0.34964(19) 0.05303(8) 0.4600(2)
C22 C 0.26537(19) 0.06697(8) 0.6470(2)
C23 C 0.2828(2) 0.08220(9) 0.7874(2)
H14 H 0.3598 0.0834 0.8576
C24 C 0.1849(2) 0.09556(9) 0.8215(2)
H15 H 0.1945 0.1057 0.9166
C25 C 0.0739(2) 0.09432(9) 0.7190(2)
H16 H 0.0056 0.1022 0.7412
C26 C 0.06716(19) 0.08102(9) 0.5824(2)
C27 C 0.64370(19) 0.11430(10) 0.4064(2)
H17 H 0.7085 0.1168 0.3679
H18 H 0.6558 0.0814 0.4637
C28 C 0.6522(2) 0.16108(11) 0.5044(3)
H19 H 0.6390 0.1943 0.4482
H20 H 0.5900 0.1582 0.5471
C29 C 0.7715(2) 0.16310(15) 0.6220(3)
H21 H 0.8354 0.1607 0.5820
H22 H 0.7803 0.1336 0.6905
C30 C 0.3246(2) 0.30379(9) -0.0265(3)
H23 H 0.3913 0.3047 -0.0604
H24 H 0.3394 0.3283 0.0540
H25 H 0.2526 0.3144 -0.1043
C31 C 0.4765(2) 0.05015(10) 0.7134(2)
H26 H 0.4710 0.0482 0.8089
H27 H 0.5175 0.0828 0.7052
H28 H 0.5204 0.0195 0.6985
C32 C 0.7750(6) 0.2183(3) 0.6975(7)
H29 H 0.7543 0.2495 0.6410
C33 C 0.8057(6) 0.2219(3) 0.8361(7)
H30 H 0.8264 0.1908 0.8935
H31 H 0.8072 0.2555 0.8797
C34? C 0.8080(6) 0.1949(3) 0.7537(9)
C35? C 0.7428(8) 0.2354(3) 0.7601(10)
H32? H 0.8772 0.1863 0.8321
H33? H 0.6739 0.2436 0.6810
H34? H 0.7643 0.2566 0.8439
loop_
_geom_bond_atom_site_label_1
_geom_bond_atom_site_label_2
_geom_bond_site_symmetry_1
_geom_bond_site_symmetry_2
O1 C5 1_555 1_555
O2 C1 1_555 1_555
N1 C7 1_555 1_555
N2 C11 1_555 1_555
N3 C12 1_555 1_555
N4 C16 1_555 1_555
N5 C17 1_555 1_555
N6 C21 1_555 1_555
N7 C22 1_555 1_555
C1 C2 1_555 1_555
C2 H1 1_555 1_555
C3 C2 1_555 1_555
H2 C3 1_555 1_555
C4 C3 1_555 1_555
H3 C4 1_555 1_555
C5 C4 1_555 1_555
C6 C1 1_555 1_555
H4 C6 1_555 1_555
C7 O1 1_555 1_555
C8 C7 1_555 1_555
H5 C8 1_555 1_555
C9 C8 1_555 1_555
H6 C9 1_555 1_555
C10 C9 1_555 1_555
H7 C10 1_555 1_555
C11 N1 1_555 1_555
C12 N2 1_555 1_555
C13 C12 1_555 1_555
H8 C13 1_555 1_555
C14 C13 1_555 1_555
H9 C14 1_555 1_555
C15 C14 1_555 1_555
H10 C15 1_555 1_555
C16 N3 1_555 1_555
C17 N4 1_555 1_555
C18 C17 1_555 1_555
H11 C18 1_555 1_555
C19 C18 1_555 1_555
H12 C19 1_555 1_555
C20 C19 1_555 1_555
H13 C20 1_555 1_555
C21 N5 1_555 1_555
C22 N6 1_555 1_555
C23 C22 1_555 1_555
H14 C23 1_555 1_555
C24 C23 1_555 1_555
H15 C24 1_555 1_555
C25 C24 1_555 1_555
H16 C25 1_555 1_555
C26 O2 1_555 1_555
C27 N4 1_555 1_555
H17 C27 1_555 1_555
H18 C27 1_555 1_555
C28 C27 1_555 1_555
H19 C28 1_555 1_555
H20 C28 1_555 1_555
C29 C28 1_555 1_555
H21 C29 1_555 1_555
H22 C29 1_555 1_555
C30 N2 1_555 1_555
H23 C30 1_555 1_555
H24 C30 1_555 1_555
H25 C30 1_555 1_555
C31 N6 1_555 1_555
H26 C31 1_555 1_555
H27 C31 1_555 1_555
H28 C31 1_555 1_555
C32 C29 1_555 1_555
H29 C32 1_555 1_555
C33 C32 1_555 1_555
H30 C33 1_555 1_555
H31 C33 1_555 1_555
N7 C26 1_555 1_555
C5 C6 1_555 1_555
C10 C11 1_555 1_555
C15 C16 1_555 1_555
C20 C21 1_555 1_555
C25 C26 1_555 1_555

#END
