
#######################################################################
#
#                 Cambridge Crystallographic Data Centre
#                                CCDC 
#
#######################################################################
#
# If this CIF has been generated from an entry in the Cambridge 
# Structural Database, then it will include bibliographic, chemical, 
# crystal, experimental, refinement or atomic coordinate data resulting 
# from the CCDC's data processing and validation procedures.
#
#######################################################################

data_QUMZOO
_chemical_formula_moiety         'C66 H62 N14 O4,2(C1 H1 Cl3)'
_chemical_name_systematic        
'14,26,44,56-Tetramethyl-20,50-bis(pent-4-en-1-yl)-2,8,32,38-tetraoxa-14,20,26,44,50,56,61,62,63,64,66,67,68,69-tetradecaazaundecacyclo[55.3.1.1^3,7^.1^9,13^.1^15,19^.1^21,25^.1^27,31^.1^33,37^.1^39,43^.1^45,49^.1^51,55^]heptaconta-1(61),3(70),4,6,9(69),10,12,15(68),16,18,21(67),22,24,27(66),28,30,33(65),34,36,39(64),40,42,45(63),46,48,51(62),52,54,57,59-triacontaene chloroform solvate'
_symmetry_cell_setting           triclinic
_symmetry_space_group_name_H-M   'P -1'
_symmetry_Int_Tables_number      2
_space_group_name_Hall           '-P 1'
loop_
_symmetry_equiv_pos_site_id
_symmetry_equiv_pos_as_xyz
1 x,y,z
2 -x,-y,-z
_cell_length_a                   9.963(2)
_cell_length_b                   13.000(3)
_cell_length_c                   13.423(3)
_cell_angle_alpha                88.74(3)
_cell_angle_beta                 75.33(3)
_cell_angle_gamma                72.43(3)
_cell_volume                     1600.6
_exptl_crystal_colour            colorless
_exptl_crystal_description       plate
_cell_formula_units_Z            1
loop_
_atom_site_label
_atom_site_type_symbol
_atom_site_fract_x
_atom_site_fract_y
_atom_site_fract_z
Cl1 Cl -0.6090(3) 0.1264(2) 0.7646(2)
Cl2 Cl -0.3568(6) 0.1180(8) 0.8354(4)
Cl3 Cl -0.545(2) -0.0355(9) 0.8758(9)
C34 C -0.5209(7) 0.0902(5) 0.8591(5)
H32 H -0.5859 0.1284 0.9259
O1 O 0.0431(4) 0.0589(3) 0.7311(3)
O2 O -0.0108(4) 0.1718(3) 1.0766(3)
N1 N 0.8341(5) 0.7413(3) -0.0425(3)
N2 N 0.6560(5) 0.6528(3) -0.0022(3)
N3 N 0.5956(4) 0.5540(3) 0.1369(3)
N4 N 0.5078(4) 0.4612(3) 0.2756(3)
N5 N 0.4202(4) 0.3461(3) 0.3899(3)
N6 N 0.3174(5) 0.2408(3) 0.5093(3)
N7 N 0.1837(4) 0.1463(3) 0.6178(3)
C1 C 0.7474(6) 0.6929(4) -0.1803(4)
H1 H 0.6883 0.6586 -0.2036
C2 C 0.8354(6) 0.7426(5) -0.2476(4)
H2 H 0.8337 0.7451 -0.3181
C3 C 0.9252(6) 0.7883(4) -0.2143(4)
H3 H 0.9872 0.8216 -0.2600
C4 C 0.9201(5) 0.7831(4) -0.1105(4)
C5 C 0.7492(5) 0.6953(4) -0.0766(4)
C6 C 0.5183(6) 0.6520(5) -0.0238(5)
H4 H 0.5020 0.6967 -0.0819
H5 H 0.4374 0.6810 0.0374
H6 H 0.5241 0.5776 -0.0411
C7 C 0.6978(5) 0.5925(4) 0.0792(4)
C8 C 0.8363(6) 0.5699(4) 0.0966(4)
H7 H 0.9078 0.5982 0.0548
C9 C 0.8660(5) 0.5057(4) 0.1761(4)
H8 H 0.9594 0.4885 0.1893
C10 C 0.7595(5) 0.4657(4) 0.2374(4)
H9 H 0.7780 0.4216 0.2928
C11 C 0.6271(5) 0.4927(4) 0.2146(4)
C12 C 0.3731(5) 0.5492(4) 0.3208(4)
H10 H 0.2892 0.5205 0.3352
H11 H 0.3580 0.6055 0.2704
C13 C 0.3786(6) 0.6001(4) 0.4205(4)
H12 H 0.3725 0.5478 0.4750
H13 H 0.4740 0.6132 0.4095
C14 C 0.2582(6) 0.7061(4) 0.4588(4)
H14 H 0.2822 0.7395 0.5149
H15 H 0.2588 0.7555 0.4016
C15 C 0.1085(6) 0.6988(4) 0.4975(4)
H16 H 0.0322 0.7654 0.5140
C16 C 0.0696(7) 0.6109(5) 0.5115(5)
H17 H 0.1414 0.5420 0.4963
H18 H -0.0304 0.6159 0.5369
C17 C 0.5260(5) 0.3575(4) 0.3098(3)
C18 C 0.6432(5) 0.2701(4) 0.2586(4)
H19 H 0.7138 0.2799 0.1998
C19 C 0.6532(5) 0.1695(4) 0.2961(4)
H20 H 0.7320 0.1086 0.2633
C20 C 0.5480(5) 0.1567(4) 0.3818(4)
H21 H 0.5558 0.0883 0.4105
C21 C 0.4322(5) 0.2465(4) 0.4238(4)
C22 C 0.2608(6) 0.3260(4) 0.5928(4)
H22 H 0.1823 0.3109 0.6457
H23 H 0.2229 0.3960 0.5649
H24 H 0.3395 0.3280 0.6235
C23 C 0.2629(5) 0.1539(4) 0.5216(4)
C24 C 0.2815(5) 0.0811(4) 0.4401(4)
H25 H 0.3390 0.0864 0.3731
C25 C 0.2143(5) 0.0018(4) 0.4596(4)
H26 H 0.2248 -0.0483 0.4055
C26 C 0.1312(5) -0.0053(4) 0.5580(4)
H27 H 0.0838 -0.0593 0.5732
C27 C 0.1208(5) 0.0699(4) 0.6324(4)
C28 C -0.0053(5) 0.1447(4) 0.8056(4)
C29 C 0.0214(5) 0.1192(4) 0.9004(4)
H28 H 0.0766 0.0483 0.9112
C30 C -0.0337(6) 0.1989(4) 0.9796(4)
C31 C -0.1150(6) 0.3016(4) 0.9657(4)
H29 H -0.1538 0.3552 1.0211
C32 C -0.1395(6) 0.3257(4) 0.8688(4)
H30 H -0.1953 0.3965 0.8579
C33 C -0.0832(5) 0.2473(4) 0.7882(4)
H31 H -0.0982 0.2642 0.7219
O1A O 0.9569(4) 0.9411(3) 0.2689(3)
O2A O 1.0108(4) 0.8282(3) -0.0766(3)
N1A N 0.1659(5) 0.2587(3) 1.0425(3)
N2A N 0.3440(5) 0.3472(3) 1.0022(3)
N3A N 0.4044(4) 0.4460(3) 0.8631(3)
N4A N 0.4922(4) 0.5388(3) 0.7244(3)
N5A N 0.5798(4) 0.6539(3) 0.6101(3)
N6A N 0.6826(5) 0.7592(3) 0.4907(3)
N7A N 0.8163(4) 0.8537(3) 0.3822(3)
C1A C 0.2526(6) 0.3071(4) 1.1803(4)
H1A H 0.3117 0.3414 1.2036
C2A C 0.1646(6) 0.2574(5) 1.2476(4)
H2A H 0.1663 0.2549 1.3181
C3A C 0.0748(6) 0.2117(4) 1.2143(4)
H3A H 0.0128 0.1784 1.2600
C4A C 0.0799(5) 0.2169(4) 1.1105(4)
C5A C 0.2508(5) 0.3047(4) 1.0766(4)
C6A C 0.4817(6) 0.3480(5) 1.0238(5)
H4A H 0.4980 0.3033 1.0819
H5A H 0.5626 0.3190 0.9626
H6A H 0.4759 0.4224 1.0411
C7A C 0.3022(5) 0.4075(4) 0.9208(4)
C8A C 0.1637(6) 0.4301(4) 0.9034(4)
H7A H 0.0922 0.4018 0.9452
C9A C 0.1340(5) 0.4943(4) 0.8239(4)
H8A H 0.0406 0.5115 0.8107
C10A C 0.2405(5) 0.5343(4) 0.7626(4)
H9A H 0.2220 0.5784 0.7072
C11A C 0.3729(5) 0.5073(4) 0.7854(4)
C12A C 0.6269(5) 0.4508(4) 0.6792(4)
H10A H 0.7108 0.4795 0.6648
H11A H 0.6420 0.3945 0.7296
C13A C 0.6214(6) 0.3999(4) 0.5795(4)
H12A H 0.6275 0.4522 0.5250
H13A H 0.5260 0.3868 0.5905
C14A C 0.7418(6) 0.2939(4) 0.5412(4)
H14A H 0.7178 0.2605 0.4851
H15A H 0.7412 0.2445 0.5984
C15A C 0.8915(6) 0.3012(4) 0.5025(4)
H16A H 0.9678 0.2346 0.4860
C16A C 0.9304(7) 0.3891(5) 0.4885(5)
H17A H 0.8586 0.4580 0.5037
H18A H 1.0304 0.3841 0.4631
C17A C 0.4740(5) 0.6425(4) 0.6902(3)
C18A C 0.3568(5) 0.7299(4) 0.7414(4)
H19A H 0.2862 0.7201 0.8002
C19A C 0.3468(5) 0.8305(4) 0.7039(4)
H20A H 0.2680 0.8914 0.7367
C20A C 0.4520(5) 0.8433(4) 0.6182(4)
H21A H 0.4442 0.9117 0.5895
C21A C 0.5678(5) 0.7535(4) 0.5762(4)
C22A C 0.7392(6) 0.6740(4) 0.4072(4)
H22A H 0.8177 0.6891 0.3543
H23A H 0.7771 0.6040 0.4351
H24A H 0.6605 0.6720 0.3765
C23A C 0.7371(5) 0.8461(4) 0.4784(4)
C24A C 0.7185(5) 0.9189(4) 0.5599(4)
H25A H 0.6610 0.9136 0.6269
C25A C 0.7857(5) 0.9982(4) 0.5404(4)
H26A H 0.7752 1.0483 0.5945
C26A C 0.8688(5) 1.0053(4) 0.4420(4)
H27A H 0.9162 1.0593 0.4268
C27A C 0.8792(5) 0.9301(4) 0.3676(4)
C28A C 1.0053(5) 0.8553(4) 0.1944(4)
C29A C 0.9786(5) 0.8808(4) 0.0996(4)
H28A H 0.9234 0.9517 0.0888
C30A C 1.0337(6) 0.8011(4) 0.0204(4)
C31A C 1.1150(6) 0.6984(4) 0.0343(4)
H29A H 1.1538 0.6448 -0.0211
C32A C 1.1395(6) 0.6743(4) 0.1312(4)
H30A H 1.1953 0.6035 0.1421
C33A C 1.0832(5) 0.7527(4) 0.2118(4)
H31A H 1.0982 0.7358 0.2781
Cl4? Cl -0.5245 0.1475 0.7350
Cl5? Cl -0.4823(11) -0.0503(3) 0.8709(4)
Cl6? Cl -0.3370(12) 0.060(3) 0.855(2)
loop_
_geom_bond_atom_site_label_1
_geom_bond_atom_site_label_2
_geom_bond_site_symmetry_1
_geom_bond_site_symmetry_2
Cl1 C34 1_555 1_555
Cl2 C34 1_555 1_555
Cl3 C34 1_555 1_555
O1 C27 1_555 1_555
O2 C30 1_555 1_555
N1 C4 1_555 1_555
N2 C5 1_555 1_555
N3 C7 1_555 1_555
N4 C11 1_555 1_555
N5 C17 1_555 1_555
N6 C21 1_555 1_555
N7 C23 1_555 1_555
C1 H1 1_555 1_555
C2 C1 1_555 1_555
H2 C2 1_555 1_555
C3 C2 1_555 1_555
H3 C3 1_555 1_555
C4 C3 1_555 1_555
C5 N1 1_555 1_555
C6 N2 1_555 1_555
H4 C6 1_555 1_555
H5 C6 1_555 1_555
H6 C6 1_555 1_555
C7 N2 1_555 1_555
C8 C7 1_555 1_555
H7 C8 1_555 1_555
C9 C8 1_555 1_555
H8 C9 1_555 1_555
C10 C9 1_555 1_555
H9 C10 1_555 1_555
C11 N3 1_555 1_555
C12 N4 1_555 1_555
H10 C12 1_555 1_555
H11 C12 1_555 1_555
C13 C12 1_555 1_555
H12 C13 1_555 1_555
H13 C13 1_555 1_555
C14 C13 1_555 1_555
H14 C14 1_555 1_555
H15 C14 1_555 1_555
C15 C14 1_555 1_555
H16 C15 1_555 1_555
C16 C15 1_555 1_555
H17 C16 1_555 1_555
H18 C16 1_555 1_555
C17 N4 1_555 1_555
C18 C17 1_555 1_555
H19 C18 1_555 1_555
C19 C18 1_555 1_555
H20 C19 1_555 1_555
C20 C19 1_555 1_555
H21 C20 1_555 1_555
C21 N5 1_555 1_555
C22 N6 1_555 1_555
H22 C22 1_555 1_555
H23 C22 1_555 1_555
H24 C22 1_555 1_555
C23 N6 1_555 1_555
C24 C23 1_555 1_555
H25 C24 1_555 1_555
C25 C24 1_555 1_555
H26 C25 1_555 1_555
C26 C25 1_555 1_555
H27 C26 1_555 1_555
C27 N7 1_555 1_555
C28 O1 1_555 1_555
C29 C28 1_555 1_555
H28 C29 1_555 1_555
C30 C29 1_555 1_555
C31 C30 1_555 1_555
H29 C31 1_555 1_555
C32 C31 1_555 1_555
H30 C32 1_555 1_555
C33 C28 1_555 1_555
H31 C33 1_555 1_555
C34 H32 1_555 1_555
O1A C27A 1_555 1_555
O2A C4 1_555 1_555
N1A C4A 1_555 1_555
N2A C5A 1_555 1_555
N3A C7A 1_555 1_555
N4A C11A 1_555 1_555
N5A C17A 1_555 1_555
N6A C21A 1_555 1_555
N7A C23A 1_555 1_555
C1A H1A 1_555 1_555
C2A C1A 1_555 1_555
H2A C2A 1_555 1_555
C3A C2A 1_555 1_555
H3A C3A 1_555 1_555
C4A O2 1_555 1_555
C5A N1A 1_555 1_555
C6A N2A 1_555 1_555
H4A C6A 1_555 1_555
H5A C6A 1_555 1_555
H6A C6A 1_555 1_555
C7A N2A 1_555 1_555
C8A C7A 1_555 1_555
H7A C8A 1_555 1_555
C9A C8A 1_555 1_555
H8A C9A 1_555 1_555
C10A C9A 1_555 1_555
H9A C10A 1_555 1_555
C11A N3A 1_555 1_555
C12A N4A 1_555 1_555
H10A C12A 1_555 1_555
H11A C12A 1_555 1_555
C13A C12A 1_555 1_555
H12A C13A 1_555 1_555
H13A C13A 1_555 1_555
C14A C13A 1_555 1_555
H14A C14A 1_555 1_555
H15A C14A 1_555 1_555
C15A C14A 1_555 1_555
H16A C15A 1_555 1_555
C16A C15A 1_555 1_555
H17A C16A 1_555 1_555
H18A C16A 1_555 1_555
C17A N4A 1_555 1_555
C18A C17A 1_555 1_555
H19A C18A 1_555 1_555
C19A C18A 1_555 1_555
H20A C19A 1_555 1_555
C20A C19A 1_555 1_555
H21A C20A 1_555 1_555
C21A N5A 1_555 1_555
C22A N6A 1_555 1_555
H22A C22A 1_555 1_555
H23A C22A 1_555 1_555
H24A C22A 1_555 1_555
C23A N6A 1_555 1_555
C24A C23A 1_555 1_555
H25A C24A 1_555 1_555
C25A C24A 1_555 1_555
H26A C25A 1_555 1_555
C26A C25A 1_555 1_555
H27A C26A 1_555 1_555
C27A N7A 1_555 1_555
C28A O1A 1_555 1_555
C29A C28A 1_555 1_555
H28A C29A 1_555 1_555
C30A O2A 1_555 1_555
C31A C30A 1_555 1_555
H29A C31A 1_555 1_555
C32A C31A 1_555 1_555
H30A C32A 1_555 1_555
C33A C28A 1_555 1_555
H31A C33A 1_555 1_555
C1 C5 1_555 1_555
C10 C11 1_555 1_555
C20 C21 1_555 1_555
C26 C27 1_555 1_555
C32 C33 1_555 1_555
C1A C5A 1_555 1_555
C3A C4A 1_555 1_555
C10A C11A 1_555 1_555
C20A C21A 1_555 1_555
C26A C27A 1_555 1_555
C29A C30A 1_555 1_555
C32A C33A 1_555 1_555

#END
