
#######################################################################
#
#                 Cambridge Crystallographic Data Centre
#                                CCDC 
#
#######################################################################
#
# If this CIF has been generated from an entry in the Cambridge 
# Structural Database, then it will include bibliographic, chemical, 
# crystal, experimental, refinement or atomic coordinate data resulting 
# from the CCDC's data processing and validation procedures.
#
#######################################################################

data_QUMZOP
_chemical_formula_moiety         'C34 H27 N6 1+,Cl1 1-'
_chemical_name_systematic        
'1-(bis(2-(1-naphthylmethylene)hydrazino)methylene)-2-(1-naphthylmethylene)hydrazinium chloride unknown solvate'
_symmetry_cell_setting           monoclinic
_symmetry_space_group_name_H-M   'C 2/c'
_symmetry_Int_Tables_number      15
_space_group_name_Hall           '-C 2yn'
loop_
_symmetry_equiv_pos_site_id
_symmetry_equiv_pos_as_xyz
1 x,y,z
2 -x,y,1/2-z
3 1/2+x,1/2+y,z
4 1/2-x,1/2+y,1/2-z
5 -x,-y,-z
6 x,-y,1/2+z
7 1/2-x,1/2-y,-z
8 1/2+x,1/2-y,1/2+z
_cell_length_a                   16.582(2)
_cell_length_b                   18.022(3)
_cell_length_c                   22.278(3)
_cell_angle_alpha                90
_cell_angle_beta                 104.490(4)
_cell_angle_gamma                90
_cell_volume                     6445.81
_exptl_crystal_colour            yellow
_exptl_crystal_description       block
_cell_formula_units_Z            8
loop_
_atom_site_label
_atom_site_type_symbol
_atom_site_fract_x
_atom_site_fract_y
_atom_site_fract_z
C1 C 0.7727(3) 0.1976(3) -0.0852(2)
H1 H 0.7205 0.1764 -0.0893
C2 C 0.7789(3) 0.2626(3) -0.1235(2)
C3 C 0.8541(3) 0.2720(4) -0.1402(2)
H2 H 0.8976 0.2384 -0.1272
C4 C 0.8622(4) 0.3326(4) -0.1764(3)
H3 H 0.9120 0.3387 -0.1878
C5 C 0.8037(4) 0.3812(4) -0.1954(3)
H4 H 0.8133 0.4218 -0.2185
C6 C 0.7220(4) 0.3730(4) -0.1806(3)
C7 C 0.6602(5) 0.4231(4) -0.2006(3)
H5 H 0.6691 0.4645 -0.2231
C8 C 0.5831(4) 0.4124(4) -0.1873(3)
H6 H 0.5402 0.4463 -0.2011
C9 C 0.5706(4) 0.3497(4) -0.1528(3)
H7 H 0.5187 0.3421 -0.1450
C10 C 0.6313(3) 0.3013(3) -0.1313(2)
H8 H 0.6222 0.2608 -0.1080
C11 C 0.7128(3) 0.3121(3) -0.1445(2)
C12 C 0.7681(3) -0.0476(3) 0.0908(2)
H9 H 0.8110 -0.0793 0.1102
C13 C 0.6880(4) -0.0590(3) 0.1022(3)
C14 C 0.6268(4) -0.0068(4) 0.0793(4)
H10 H 0.6374 0.0319 0.0546
C15 C 0.5488(4) -0.0118(4) 0.0932(5)
H11 H 0.5086 0.0237 0.0768
C16 C 0.5291(4) -0.0669(3) 0.1299(3)
H12 H 0.4780 -0.0676 0.1401
C17 C 0.5902(4) -0.1226(4) 0.1518(3)
C18 C 0.5699(4) -0.1819(4) 0.1879(3)
H13 H 0.5198 -0.1820 0.1995
C19 C 0.6255(5) -0.2383(5) 0.2050(4)
H14 H 0.6101 -0.2809 0.2229
C20 C 0.7063(4) -0.2326(4) 0.1956(3)
H15 H 0.7456 -0.2683 0.2131
C21 C 0.7288(4) -0.1776(4) 0.1622(3)
H16 H 0.7811 -0.1767 0.1539
C22 C 0.6670(3) -0.1187(3) 0.1394(2)
C23 C 1.0932(3) 0.0757(3) 0.0623(2)
H17 H 1.0981 0.1139 0.0354
C24 C 1.1691(3) 0.0441(3) 0.1049(2)
C25 C 1.1644(4) -0.0172(3) 0.1380(2)
H18 H 1.1129 -0.0394 0.1351
C26 C 1.2351(3) -0.0479(3) 0.1763(2)
H19 H 1.2305 -0.0916 0.1974
C27 C 1.3118(3) -0.0157(4) 0.1841(3)
H20 H 1.3585 -0.0360 0.2112
C28 C 1.3186(3) 0.0518(3) 0.1488(3)
C29 C 1.3961(4) 0.0871(5) 0.1569(4)
H21 H 1.4436 0.0672 0.1835
C30 C 1.4004(4) 0.1499(4) 0.1257(4)
H22 H 1.4508 0.1751 0.1324
C31 C 1.3321(4) 0.1776(4) 0.0844(4)
H23 H 1.3384 0.2195 0.0616
C32 C 1.2557(3) 0.1467(3) 0.0750(3)
H24 H 1.2102 0.1682 0.0474
C33 C 1.2453(3) 0.0793(3) 0.1087(2)
C34 C 0.8804(3) 0.0682(3) 0.0194(2)
N1 N 0.8333(2) 0.1690(2) -0.0474(2)
N2 N 0.8158(2) 0.1091(2) -0.01570(18)
N3 N 0.7847(3) 0.0032(2) 0.0560(2)
N4 N 0.8641(3) 0.0128(2) 0.0529(2)
N5 N 1.0220(2) 0.0510(2) 0.06266(17)
N6 N 0.9563(3) 0.0881(2) 0.01837(19)
Cl1 Cl 0.03878(7) 0.14675(7) 0.91418(5)
loop_
_geom_bond_atom_site_label_1
_geom_bond_atom_site_label_2
_geom_bond_site_symmetry_1
_geom_bond_site_symmetry_2
C1 H1 1_555 1_555
C2 C1 1_555 1_555
C3 C2 1_555 1_555
H2 C3 1_555 1_555
C4 C3 1_555 1_555
H3 C4 1_555 1_555
C5 C4 1_555 1_555
H4 C5 1_555 1_555
C6 C5 1_555 1_555
C7 C6 1_555 1_555
H5 C7 1_555 1_555
C8 C7 1_555 1_555
H6 C8 1_555 1_555
C9 C8 1_555 1_555
H7 C9 1_555 1_555
C10 C9 1_555 1_555
H8 C10 1_555 1_555
C11 C2 1_555 1_555
C12 H9 1_555 1_555
C13 C12 1_555 1_555
C14 C13 1_555 1_555
H10 C14 1_555 1_555
C15 C14 1_555 1_555
H11 C15 1_555 1_555
C16 C15 1_555 1_555
H12 C16 1_555 1_555
C17 C16 1_555 1_555
C18 C17 1_555 1_555
H13 C18 1_555 1_555
C19 C18 1_555 1_555
H14 C19 1_555 1_555
C20 C19 1_555 1_555
H15 C20 1_555 1_555
C21 C20 1_555 1_555
H16 C21 1_555 1_555
C22 C13 1_555 1_555
C23 H17 1_555 1_555
C24 C23 1_555 1_555
C25 C24 1_555 1_555
H18 C25 1_555 1_555
C26 C25 1_555 1_555
H19 C26 1_555 1_555
C27 C26 1_555 1_555
H20 C27 1_555 1_555
C28 C27 1_555 1_555
C29 C28 1_555 1_555
H21 C29 1_555 1_555
C30 C29 1_555 1_555
H22 C30 1_555 1_555
C31 C30 1_555 1_555
H23 C31 1_555 1_555
C32 C31 1_555 1_555
H24 C32 1_555 1_555
C33 C24 1_555 1_555
C34 N2 1_555 1_555
N1 C1 1_555 1_555
N2 N1 1_555 1_555
N3 C12 1_555 1_555
N4 C34 1_555 1_555
N5 C23 1_555 1_555
N6 C34 1_555 1_555
C6 C11 1_555 1_555
C10 C11 1_555 1_555
C17 C22 1_555 1_555
C21 C22 1_555 1_555
C28 C33 1_555 1_555
C32 C33 1_555 1_555
N3 N4 1_555 1_555
N5 N6 1_555 1_555

#END
