
#######################################################################
#
#                 Cambridge Crystallographic Data Centre
#                                CCDC 
#
#######################################################################
#
# If this CIF has been generated from an entry in the Cambridge 
# Structural Database, then it will include bibliographic, chemical, 
# crystal, experimental, refinement or atomic coordinate data resulting 
# from the CCDC's data processing and validation procedures.
#
#######################################################################

data_QUNFAI
_chemical_formula_moiety         'C22 H20 O5'
_chemical_name_systematic        
'ethyl (4-(4-methoxyphenyl)-3,4-dihydro-2H-pyrano[2,3-b][1]benzofuran-2-ylidene)acetate'
_symmetry_cell_setting           monoclinic
_symmetry_space_group_name_H-M   'P 21'
_symmetry_Int_Tables_number      4
_space_group_name_Hall           'P 2yb'
loop_
_symmetry_equiv_pos_site_id
_symmetry_equiv_pos_as_xyz
1 x,y,z
2 -x,1/2+y,-z
_cell_length_a                   6.0814(7)
_cell_length_b                   13.466(2)
_cell_length_c                   11.1915(17)
_cell_angle_alpha                90
_cell_angle_beta                 91.148(10)
_cell_angle_gamma                90
_cell_volume                     916.312
_exptl_crystal_colour            colorless
_exptl_crystal_description       block
_cell_formula_units_Z            2
loop_
_atom_site_label
_atom_site_type_symbol
_atom_site_fract_x
_atom_site_fract_y
_atom_site_fract_z
O1 O 0.6279(4) 0.57761(16) 0.1867(2)
O2 O 0.9097(4) 0.54429(16) 0.0646(2)
O3 O 0.4828(4) -0.01970(18) 0.3637(2)
O4 O 0.0335(4) 0.51599(19) 0.3815(3)
O5 O 0.0337(4) 0.68268(18) 0.3910(2)
C1 C 0.4920(5) 0.3666(2) 0.1634(3)
H1 H 0.3643 0.3725 0.1062
C2 C 0.4447(5) 0.4332(2) 0.2737(3)
H2 H 0.2987 0.4152 0.3048
H3 H 0.5557 0.4185 0.3371
C3 C 0.4475(6) 0.5415(3) 0.2489(3)
C4 C 0.7354(5) 0.5076(3) 0.1238(3)
C5 C 0.6904(5) 0.4118(2) 0.1053(3)
C6 C 0.8539(5) 0.3791(3) 0.0214(3)
C7 C 0.9843(5) 0.4636(3) 0.0005(3)
C8 C 1.1591(5) 0.4657(3) -0.0755(3)
H4 H 1.2441 0.5240 -0.0869
C9 C 1.2039(6) 0.3779(3) -0.1346(3)
H5 H 1.3217 0.3758 -0.1890
C10 C 1.0790(6) 0.2924(3) -0.1156(3)
H6 H 1.1146 0.2330 -0.1568
C11 C 0.9038(6) 0.2925(3) -0.0377(3)
H7 H 0.8201 0.2340 -0.0254
C12 C 0.5054(5) 0.2599(2) 0.2044(3)
C13 C 0.6780(5) 0.2219(3) 0.2738(3)
H8 H 0.8057 0.2613 0.2872
C14 C 0.6681(5) 0.1282(2) 0.3238(3)
H9 H 0.7882 0.1039 0.3708
C15 C 0.4827(5) 0.0693(3) 0.3053(3)
C16 C 0.3132(5) 0.1043(3) 0.2327(3)
H10 H 0.1876 0.0641 0.2171
C17 C 0.3268(5) 0.1977(3) 0.1832(3)
H11 H 0.2099 0.2203 0.1326
C18 C 0.2878(6) -0.0782(3) 0.3544(4)
H12 H 0.2595 -0.0958 0.2705
H13 H 0.1632 -0.0402 0.3845
H14 H 0.3067 -0.1390 0.4017
C19 C 0.3093(5) 0.6115(3) 0.2843(3)
H15 H 0.3393 0.6780 0.2616
C20 C 0.1132(5) 0.5937(3) 0.3560(3)
C21 C -0.1638(5) 0.6780(3) 0.4630(3)
H16 H -0.1322 0.6429 0.5392
H17 H -0.2825 0.6420 0.4193
C22 C -0.2312(8) 0.7821(3) 0.4864(5)
H18 H -0.2569 0.8166 0.4103
H19 H -0.1144 0.8161 0.5321
H20 H -0.3667 0.7824 0.5324
loop_
_geom_bond_atom_site_label_1
_geom_bond_atom_site_label_2
_geom_bond_site_symmetry_1
_geom_bond_site_symmetry_2
O1 C3 1_555 1_555
O2 C4 1_555 1_555
O3 C15 1_555 1_555
O4 C20 1_555 1_555
O5 C20 1_555 1_555
C1 H1 1_555 1_555
C2 C1 1_555 1_555
H2 C2 1_555 1_555
H3 C2 1_555 1_555
C3 C2 1_555 1_555
C4 O1 1_555 1_555
C5 C1 1_555 1_555
C6 C5 1_555 1_555
C7 O2 1_555 1_555
C8 C7 1_555 1_555
H4 C8 1_555 1_555
C9 C8 1_555 1_555
H5 C9 1_555 1_555
C10 C9 1_555 1_555
H6 C10 1_555 1_555
C11 C6 1_555 1_555
H7 C11 1_555 1_555
C12 C1 1_555 1_555
C13 C12 1_555 1_555
H8 C13 1_555 1_555
C14 C13 1_555 1_555
H9 C14 1_555 1_555
C15 C14 1_555 1_555
C16 C15 1_555 1_555
H10 C16 1_555 1_555
C17 C12 1_555 1_555
H11 C17 1_555 1_555
C18 O3 1_555 1_555
H12 C18 1_555 1_555
H13 C18 1_555 1_555
H14 C18 1_555 1_555
C19 C3 1_555 1_555
H15 C19 1_555 1_555
C20 C19 1_555 1_555
C21 O5 1_555 1_555
H16 C21 1_555 1_555
H17 C21 1_555 1_555
C22 C21 1_555 1_555
H18 C22 1_555 1_555
H19 C22 1_555 1_555
H20 C22 1_555 1_555
C4 C5 1_555 1_555
C6 C7 1_555 1_555
C10 C11 1_555 1_555
C16 C17 1_555 1_555

#END
