
#######################################################################
#
#                 Cambridge Crystallographic Data Centre
#                                CCDC 
#
#######################################################################
#
# If this CIF has been generated from an entry in the Cambridge 
# Structural Database, then it will include bibliographic, chemical, 
# crystal, experimental, refinement or atomic coordinate data resulting 
# from the CCDC's data processing and validation procedures.
#
#######################################################################

data_QUNRIC01
_chemical_formula_moiety         'C12 H10 N4 O7'
_chemical_name_systematic        
5-(2,4-dinitrophenyl)-1,3-dimethylpyrimidine-2,4,6(1H,3H,5H)-trione
_symmetry_cell_setting           monoclinic
_symmetry_space_group_name_H-M   'P 21/c'
_symmetry_Int_Tables_number      14
_space_group_name_Hall           '-P 2ybc'
loop_
_symmetry_equiv_pos_site_id
_symmetry_equiv_pos_as_xyz
1 x,y,z
2 -x,1/2+y,1/2-z
3 -x,-y,-z
4 x,1/2-y,1/2+z
_cell_length_a                   8.0585(6)
_cell_length_b                   16.316(4)
_cell_length_c                   10.532(3)
_cell_angle_alpha                90
_cell_angle_beta                 110.567(16)
_cell_angle_gamma                90
_cell_volume                     1296.51
_exptl_crystal_colour            yellow
_exptl_crystal_description       block
_cell_formula_units_Z            4
loop_
_atom_site_label
_atom_site_type_symbol
_atom_site_fract_x
_atom_site_fract_y
_atom_site_fract_z
C1 C 0.3985(2) 0.00438(11) 0.69469(17)
C2 C 0.2760(2) 0.02496(11) 0.56976(17)
H1 H 0.2708 -0.0029 0.4914
C3 C 0.1612(2) 0.08871(11) 0.56594(17)
C4 C 0.1651(2) 0.13248(11) 0.68111(16)
C5 C 0.2929(2) 0.10906(11) 0.80374(17)
H2 H 0.3002 0.1371 0.8824
C6 C 0.4093(2) 0.04514(11) 0.81172(17)
H3 H 0.4931 0.0301 0.8946
C7 C 0.0421(2) 0.27163(11) 0.58307(17)
C8 C 0.0453(2) 0.20341(11) 0.68165(16)
H4 H 0.0979 0.2281 0.7718
C9 C -0.1378(2) 0.17557(11) 0.67339(16)
C10 C -0.2396(2) 0.31527(11) 0.60195(16)
C11 C -0.0764(2) 0.41012(11) 0.51212(19)
H5 H -0.1788 0.4421 0.5064
H6 H -0.0690 0.4048 0.4235
H7 H 0.0283 0.4368 0.5714
C12 C -0.4290(2) 0.22170(13) 0.6696(2)
H8 H -0.5010 0.2702 0.6490
H9 H -0.4051 0.2064 0.7624
H10 H -0.4906 0.1779 0.6112
N1 N 0.52281(18) -0.06336(10) 0.70266(16)
N2 N 0.03288(18) 0.10940(9) 0.43114(14)
N3 N -0.09122(17) 0.32830(9) 0.56579(14)
N4 N -0.26100(17) 0.23788(9) 0.64870(14)
O1 O 0.64736(16) -0.07244(9) 0.80892(13)
O2 O 0.49400(17) -0.10677(9) 0.60193(14)
O3 O 0.06826(18) 0.08883(10) 0.33283(13)
O4 O -0.10372(14) 0.14608(8) 0.42375(12)
O5 O 0.15231(14) 0.27845(7) 0.52998(12)
O6 O -0.16897(15) 0.10581(8) 0.69682(12)
O7 O -0.34952(15) 0.36847(8) 0.58634(12)
H11? H 0.0324 0.4137 0.4945
H12? H -0.0773 0.4510 0.5774
H13? H -0.1746 0.4190 0.4294
H14? H -0.4301 0.1662 0.6994
H15? H -0.5260 0.2299 0.5860
H16? H -0.4406 0.2585 0.7372
loop_
_geom_bond_atom_site_label_1
_geom_bond_atom_site_label_2
_geom_bond_site_symmetry_1
_geom_bond_site_symmetry_2
C1 C2 1_555 1_555
C2 H1 1_555 1_555
C3 C2 1_555 1_555
C4 C3 1_555 1_555
C5 C4 1_555 1_555
H2 C5 1_555 1_555
C6 C1 1_555 1_555
H3 C6 1_555 1_555
C7 C8 1_555 1_555
C8 C4 1_555 1_555
H4 C8 1_555 1_555
C9 C8 1_555 1_555
C10 N3 1_555 1_555
C11 H5 1_555 1_555
H6 C11 1_555 1_555
H7 C11 1_555 1_555
C12 H8 1_555 1_555
H9 C12 1_555 1_555
H10 C12 1_555 1_555
N1 C1 1_555 1_555
N2 C3 1_555 1_555
N3 C7 1_555 1_555
N4 C9 1_555 1_555
O1 N1 1_555 1_555
O2 N1 1_555 1_555
O3 N2 1_555 1_555
O4 N2 1_555 1_555
O5 C7 1_555 1_555
O6 C9 1_555 1_555
O7 C10 1_555 1_555
C5 C6 1_555 1_555
C10 N4 1_555 1_555
C11 N3 1_555 1_555
C12 N4 1_555 1_555

#END
