
#######################################################################
#
#                 Cambridge Crystallographic Data Centre
#                                CCDC 
#
#######################################################################
#
# If this CIF has been generated from an entry in the Cambridge 
# Structural Database, then it will include bibliographic, chemical, 
# crystal, experimental, refinement or atomic coordinate data resulting 
# from the CCDC's data processing and validation procedures.
#
#######################################################################

data_QUNSOJ
_chemical_formula_moiety         'C32 H21 N3 O1'
_chemical_name_systematic        2,4-bis(9-Anthryl)-6-methoxy-1,3,5-triazine
_symmetry_cell_setting           monoclinic
_symmetry_space_group_name_H-M   'P 21/c'
_symmetry_Int_Tables_number      14
_space_group_name_Hall           '-P 2ybc'
loop_
_symmetry_equiv_pos_site_id
_symmetry_equiv_pos_as_xyz
1 x,y,z
2 -x,1/2+y,1/2-z
3 -x,-y,-z
4 x,1/2-y,1/2+z
_cell_length_a                   7.930(3)
_cell_length_b                   17.081(7)
_cell_length_c                   18.143(6)
_cell_angle_alpha                90
_cell_angle_beta                 104.463(15)
_cell_angle_gamma                90
_cell_volume                     2379.63
_cell_formula_units_Z            4
loop_
_atom_site_label
_atom_site_type_symbol
_atom_site_fract_x
_atom_site_fract_y
_atom_site_fract_z
O1 O 0.6817(2) 0.89757(10) 0.85060(9)
N1 N 0.8713(2) 0.84973(11) 0.95857(10)
N2 N 0.8594(2) 0.71264(11) 0.98197(10)
N3 N 0.6610(2) 0.76999(12) 0.87489(11)
C1 C 0.4986(3) 0.60811(15) 0.92355(14)
C2 C 0.4309(4) 0.65405(16) 0.97544(16)
H1 H 0.4819 0.7021 0.9917
C3 C 0.2938(4) 0.62904(19) 1.00162(19)
H2 H 0.2528 0.6599 1.0356
C4 C 0.2133(4) 0.5566(2) 0.9777(2)
H3 H 0.1197 0.5401 0.9960
C5 C 0.2717(4) 0.5109(2) 0.9278(2)
H4 H 0.2169 0.4634 0.9124
C6 C 0.4155(4) 0.53446(17) 0.89872(17)
C7 C 0.4809(4) 0.48855(17) 0.84826(18)
H5 H 0.4255 0.4416 0.8313
C8 C 0.6253(4) 0.51015(17) 0.82233(16)
C9 C 0.7092(3) 0.58325(14) 0.84752(14)
C10 C 0.6428(3) 0.63146(14) 0.89714(14)
C11 C 0.8575(4) 0.60392(16) 0.82088(15)
H6 H 0.9147 0.6508 0.8368
C12 C 0.9178(4) 0.55650(19) 0.77246(17)
H7 H 1.0146 0.5714 0.7556
C13 C 0.8341(5) 0.4854(2) 0.7481(2)
H8 H 0.8762 0.4538 0.7150
C14 C 0.6935(5) 0.46182(19) 0.77182(19)
H9 H 0.6408 0.4141 0.7553
C15 C 0.7259(3) 0.70911(14) 0.91936(13)
C16 C 0.7421(3) 0.83779(14) 0.89718(13)
C17 C 0.9263(3) 0.78417(14) 0.99937(12)
C18 C 0.7628(4) 0.97320(15) 0.86860(17)
H10 H 0.7139 1.0095 0.8286
H11 H 0.8858 0.9686 0.8736
H12 H 0.7427 0.9918 0.9156
C19 C 1.0745(3) 0.79277(13) 1.06874(12)
C20 C 1.0560(3) 0.76325(14) 1.13932(13)
C21 C 1.2020(3) 0.76838(14) 1.20477(13)
C22 C 1.3574(3) 0.80101(15) 1.19720(14)
H13 H 1.4515 0.8031 1.2397
C23 C 1.3777(3) 0.83074(14) 1.12825(14)
C24 C 1.2330(3) 0.82776(13) 1.06199(13)
C25 C 1.2617(3) 0.85877(15) 0.99300(14)
H14 H 1.1715 0.8571 0.9490
C26 C 1.4169(3) 0.89070(16) 0.98966(16)
H15 H 1.4308 0.9104 0.9438
C27 C 1.5573(3) 0.89419(17) 1.05548(18)
H16 H 1.6627 0.9165 1.0529
C28 C 1.5377(3) 0.86502(16) 1.12215(17)
H17 H 1.6308 0.8674 1.1650
C29 C 1.1829(4) 0.74068(16) 1.27659(14)
H18 H 1.2771 0.7432 1.3190
C30 C 1.0303(4) 0.71094(16) 1.28371(14)
H19 H 1.0201 0.6935 1.3310
C31 C 0.8853(3) 0.70595(15) 1.21983(14)
H20 H 0.7805 0.6856 1.2256
C32 C 0.8982(3) 0.73068(15) 1.15026(14)
H21 H 0.8021 0.7263 1.1088
loop_
_geom_bond_atom_site_label_1
_geom_bond_atom_site_label_2
_geom_bond_site_symmetry_1
_geom_bond_site_symmetry_2
O1 C16 1_555 1_555
N1 C16 1_555 1_555
N2 C15 1_555 1_555
N3 C15 1_555 1_555
C1 C2 1_555 1_555
C2 H1 1_555 1_555
C3 C2 1_555 1_555
H2 C3 1_555 1_555
C4 C3 1_555 1_555
H3 C4 1_555 1_555
C5 C4 1_555 1_555
H4 C5 1_555 1_555
C6 C1 1_555 1_555
C7 C6 1_555 1_555
H5 C7 1_555 1_555
C8 C7 1_555 1_555
C9 C8 1_555 1_555
C10 C1 1_555 1_555
C11 C9 1_555 1_555
H6 C11 1_555 1_555
C12 C11 1_555 1_555
H7 C12 1_555 1_555
C13 C12 1_555 1_555
H8 C13 1_555 1_555
C14 C8 1_555 1_555
H9 C14 1_555 1_555
C15 C10 1_555 1_555
C16 N3 1_555 1_555
C17 N1 1_555 1_555
C18 O1 1_555 1_555
H10 C18 1_555 1_555
H11 C18 1_555 1_555
H12 C18 1_555 1_555
C19 C17 1_555 1_555
C20 C19 1_555 1_555
C21 C20 1_555 1_555
C22 C21 1_555 1_555
H13 C22 1_555 1_555
C23 C22 1_555 1_555
C24 C19 1_555 1_555
C25 C24 1_555 1_555
H14 C25 1_555 1_555
C26 C25 1_555 1_555
H15 C26 1_555 1_555
C27 C26 1_555 1_555
H16 C27 1_555 1_555
C28 C23 1_555 1_555
H17 C28 1_555 1_555
C29 C21 1_555 1_555
H18 C29 1_555 1_555
C30 C29 1_555 1_555
H19 C30 1_555 1_555
C31 C30 1_555 1_555
H20 C31 1_555 1_555
C32 C20 1_555 1_555
H21 C32 1_555 1_555
N2 C17 1_555 1_555
C5 C6 1_555 1_555
C9 C10 1_555 1_555
C13 C14 1_555 1_555
C23 C24 1_555 1_555
C27 C28 1_555 1_555
C31 C32 1_555 1_555

#END
