
#######################################################################
#
#                 Cambridge Crystallographic Data Centre
#                                CCDC 
#
#######################################################################
#
# If this CIF has been generated from an entry in the Cambridge 
# Structural Database, then it will include bibliographic, chemical, 
# crystal, experimental, refinement or atomic coordinate data resulting 
# from the CCDC's data processing and validation procedures.
#
#######################################################################

data_QUNSID
_chemical_formula_moiety         'C19 H15 N3 O2'
_chemical_name_systematic        2-(9-Anthryl)-4,6-dimethoxy-1,3,5-triazine
_symmetry_cell_setting           triclinic
_symmetry_space_group_name_H-M   'P -1'
_symmetry_Int_Tables_number      2
_space_group_name_Hall           '-P 1'
loop_
_symmetry_equiv_pos_site_id
_symmetry_equiv_pos_as_xyz
1 x,y,z
2 -x,-y,-z
_cell_length_a                   8.2169(8)
_cell_length_b                   9.6220(9)
_cell_length_c                   11.5715(11)
_cell_angle_alpha                65.807(2)
_cell_angle_beta                 72.714(2)
_cell_angle_gamma                89.496(2)
_cell_volume                     790.1
_exptl_crystal_colour            yellow
_exptl_crystal_description       block
_cell_formula_units_Z            2
loop_
_atom_site_label
_atom_site_type_symbol
_atom_site_fract_x
_atom_site_fract_y
_atom_site_fract_z
C1 C 0.1146(2) 0.61685(19) 0.70076(16)
H1 H 0.0780 0.7014 0.6434
C2 C 0.1227(2) 0.4863(2) 0.68264(18)
H2 H 0.0918 0.4824 0.6129
C3 C 0.1772(3) 0.3568(2) 0.76777(19)
H3 H 0.1815 0.2679 0.7541
C4 C 0.2233(2) 0.35995(19) 0.86912(18)
H4 H 0.2591 0.2731 0.9246
C5 C 0.2182(2) 0.49428(17) 0.89272(15)
C6 C 0.16146(18) 0.62631(17) 0.80674(14)
C7 C 0.15836(18) 0.76006(17) 0.82869(15)
C8 C 0.20755(18) 0.76534(17) 0.93323(15)
C9 C 0.2629(2) 0.63163(18) 1.01848(16)
C10 C 0.2665(2) 0.50078(18) 0.99590(16)
H5 H 0.3024 0.4143 1.0517
C11 C 0.3129(2) 0.6379(2) 1.12460(18)
H6 H 0.3493 0.5518 1.1805
C12 C 0.3084(3) 0.7657(2) 1.1452(2)
H7 H 0.3425 0.7677 1.2144
C13 C 0.2523(3) 0.8967(2) 1.06247(19)
H8 H 0.2491 0.9844 1.0778
C14 C 0.2028(2) 0.89671(19) 0.96076(17)
H9 H 0.1650 0.9842 0.9080
C15 C 0.10633(19) 0.89989(17) 0.73605(15)
C16 C -0.0923(2) 1.02243(18) 0.65111(15)
C17 C 0.1736(2) 1.13847(18) 0.57298(15)
C18 C -0.3786(2) 0.9011(2) 0.7343(2)
H10 H -0.4866 0.9221 0.7190
H11 H -0.3902 0.8817 0.8248
H12 H -0.3443 0.8125 0.7195
C19 C 0.4581(3) 1.2678(2) 0.4890(2)
H13 H 0.5224 1.3654 0.4236
H14 H 0.5091 1.1874 0.4679
H15 H 0.4594 1.2525 0.5760
N1 N -0.05848(16) 0.89530(14) 0.74047(12)
N2 N 0.22835(16) 1.01933(14) 0.65444(13)
N3 N 0.01666(17) 1.14806(15) 0.56446(13)
O1 O -0.25070(14) 1.03101(14) 0.64383(12)
O2 O 0.28358(16) 1.26512(13) 0.48802(12)
loop_
_geom_bond_atom_site_label_1
_geom_bond_atom_site_label_2
_geom_bond_site_symmetry_1
_geom_bond_site_symmetry_2
C1 H1 1_555 1_555
C2 C1 1_555 1_555
H2 C2 1_555 1_555
C3 C2 1_555 1_555
H3 C3 1_555 1_555
C4 C3 1_555 1_555
H4 C4 1_555 1_555
C5 C4 1_555 1_555
C6 C1 1_555 1_555
C7 C6 1_555 1_555
C8 C7 1_555 1_555
C9 C8 1_555 1_555
C10 C5 1_555 1_555
H5 C10 1_555 1_555
C11 C9 1_555 1_555
H6 C11 1_555 1_555
C12 C11 1_555 1_555
H7 C12 1_555 1_555
C13 C12 1_555 1_555
H8 C13 1_555 1_555
C14 C8 1_555 1_555
H9 C14 1_555 1_555
C15 C7 1_555 1_555
C16 N1 1_555 1_555
C17 N2 1_555 1_555
C18 H10 1_555 1_555
H11 C18 1_555 1_555
H12 C18 1_555 1_555
C19 H13 1_555 1_555
H14 C19 1_555 1_555
H15 C19 1_555 1_555
N1 C15 1_555 1_555
N2 C15 1_555 1_555
N3 C16 1_555 1_555
O1 C16 1_555 1_555
O2 C17 1_555 1_555
C5 C6 1_555 1_555
C9 C10 1_555 1_555
C13 C14 1_555 1_555
C17 N3 1_555 1_555
C18 O1 1_555 1_555
C19 O2 1_555 1_555

#END
