
#######################################################################
#
#                 Cambridge Crystallographic Data Centre
#                                CCDC 
#
#######################################################################
#
# If this CIF has been generated from an entry in the Cambridge 
# Structural Database, then it will include bibliographic, chemical, 
# crystal, experimental, refinement or atomic coordinate data resulting 
# from the CCDC's data processing and validation procedures.
#
#######################################################################

data_QUNZOQ
_chemical_formula_moiety         'C40 H48 O12,4(C3 H8 O1)'
_chemical_name_systematic        
'2,8,14,20-Tetrapropyl-4,5,6,10,11,12,16,17,18,22,23,24-dodecahydroxycalix(4)arene propan-2-ol solvate'
_symmetry_cell_setting           orthorhombic
_symmetry_space_group_name_H-M   'P 21 21 2'
_symmetry_Int_Tables_number      18
_space_group_name_Hall           'P 2 2ab'
loop_
_symmetry_equiv_pos_site_id
_symmetry_equiv_pos_as_xyz
1 x,y,z
2 -x,-y,z
3 1/2-x,1/2+y,-z
4 1/2+x,1/2-y,-z
_cell_length_a                   21.9460(4)
_cell_length_b                   27.5113(4)
_cell_length_c                   17.5593(3)
_cell_angle_alpha                90
_cell_angle_beta                 90
_cell_angle_gamma                90
_cell_volume                     10601.7
_exptl_crystal_colour            colorless
_exptl_crystal_description       block
_cell_formula_units_Z            8
_exptl_crystal_recrystallization_method 'dichloromethane/ isopropanol'
loop_
_atom_site_label
_atom_site_type_symbol
_atom_site_fract_x
_atom_site_fract_y
_atom_site_fract_z
C1 C 0.73325(18) 0.65204(14) -0.0423(2)
C2 C 0.76091(19) 0.69756(16) -0.0460(2)
C3 C 0.7339(2) 0.73540(16) -0.0857(3)
C4 C 0.67904(18) 0.72818(14) -0.1238(2)
C5 C 0.65171(17) 0.68233(14) -0.1244(2)
C6 C 0.67924(18) 0.64566(14) -0.0814(2)
H1 H 0.6598 0.6148 -0.0789
C7 C 0.59456(18) 0.67278(13) -0.1706(2)
H2 H 0.5936 0.6978 -0.2118
C8 C 0.53693(17) 0.68021(13) -0.1233(2)
C9 C 0.50572(17) 0.72431(14) -0.1264(2)
C10 C 0.45270(18) 0.73179(13) -0.0846(2)
C11 C 0.43007(17) 0.69451(14) -0.0382(2)
C12 C 0.45985(17) 0.64987(13) -0.0341(2)
C13 C 0.51366(17) 0.64425(13) -0.0756(2)
H3 H 0.5354 0.6145 -0.0710
C14 C 0.43489(17) 0.60899(13) 0.0152(2)
H4 H 0.3904 0.6157 0.0213
C15 C 0.46184(17) 0.60990(13) 0.0949(2)
C16 C 0.43241(18) 0.63529(14) 0.1524(2)
C17 C 0.45836(19) 0.63926(14) 0.2247(2)
C18 C 0.51283(18) 0.61632(15) 0.2407(2)
C19 C 0.54249(18) 0.58873(13) 0.1848(2)
C20 C 0.51684(17) 0.58729(13) 0.1124(2)
H5 H 0.5377 0.5702 0.0732
C21 C 0.60123(17) 0.56244(13) 0.2045(2)
H6 H 0.6025 0.5597 0.2612
C22 C 0.65730(17) 0.59231(13) 0.1807(2)
C23 C 0.68480(18) 0.62378(13) 0.2329(2)
C24 C 0.73762(19) 0.64878(14) 0.2132(2)
C25 C 0.76289(18) 0.64362(14) 0.1416(2)
C26 C 0.73509(17) 0.61400(13) 0.0874(2)
C27 C 0.68302(17) 0.58905(13) 0.1083(2)
H7 H 0.6639 0.5688 0.0717
C28 C 0.76162(18) 0.61190(14) 0.0070(2)
H8 H 0.8060 0.6195 0.0116
C29 C 0.5957(2) 0.62305(14) -0.2104(2)
H9 H 0.6355 0.6190 -0.2363
H10 H 0.5923 0.5972 -0.1714
C30 C 0.5451(3) 0.61654(19) -0.2683(3)
H11 H 0.5495 0.6413 -0.3088
H12 H 0.5053 0.6218 -0.2431
C31 C 0.5460(4) 0.5656(2) -0.3046(4)
H13 H 0.5785 0.5641 -0.3412
H14 H 0.5079 0.5594 -0.3297
H15 H 0.5525 0.5415 -0.2659
C32 C 0.43944(19) 0.55875(14) -0.0225(2)
H16 H 0.4828 0.5514 -0.0326
H17 H 0.4239 0.5339 0.0134
C33 C 0.4039(2) 0.55523(16) -0.0970(3)
H18 H 0.3618 0.5672 -0.0887
H19 H 0.4233 0.5764 -0.1356
C34 C 0.4014(3) 0.5044(2) -0.1266(3)
H20 H 0.4410 0.4949 -0.1442
H21 H 0.3729 0.5029 -0.1679
H22 H 0.3885 0.4829 -0.0866
C35 C 0.6027(2) 0.51004(13) 0.1730(3)
H23 H 0.5645 0.4933 0.1874
H24 H 0.6044 0.5113 0.1167
C36 C 0.6570(2) 0.48039(16) 0.2023(3)
H25 H 0.6566 0.4482 0.1770
H26 H 0.6951 0.4971 0.1872
C37 C 0.6579(4) 0.4729(3) 0.2856(4)
H27 H 0.6616 0.5038 0.3106
H28 H 0.6918 0.4527 0.2992
H29 H 0.6206 0.4575 0.3011
C38 C 0.7569(2) 0.56105(15) -0.0292(2)
H30 H 0.7766 0.5371 0.0049
H31 H 0.7134 0.5521 -0.0340
C39 C 0.7870(3) 0.55848(19) -0.1080(3)
H32 H 0.7647 0.5802 -0.1432
H33 H 0.8293 0.5707 -0.1039
C40 C 0.7885(5) 0.5082(3) -0.1416(5)
H34 H 0.8047 0.4858 -0.1051
H35 H 0.8138 0.5085 -0.1862
H36 H 0.7479 0.4985 -0.1554
O1 O 0.81565(15) 0.70460(12) -0.0094(2)
H37 H 0.8225 0.7338 -0.0058
O2 O 0.76433(15) 0.77890(12) -0.0859(2)
H38 H 0.7395 0.8016 -0.0751
O3 O 0.65627(15) 0.76766(11) -0.1617(2)
H39 H 0.6195 0.7642 -0.1681
O4 O 0.52878(14) 0.76079(11) -0.17185(18)
H40 H 0.5020 0.7809 -0.1804
O5 O 0.42014(14) 0.77377(11) -0.0906(2)
H41 H 0.4429 0.7971 -0.0844
O6 O 0.37650(13) 0.70495(11) -0.00084(18)
H42 H 0.3769 0.6904 0.0400
O7 O 0.37790(14) 0.65802(11) 0.13657(17)
H43 H 0.3476 0.6608 0.1663
O8 O 0.42741(14) 0.66618(12) 0.27983(18)
H44 H 0.4501 0.6872 0.2969
O9 O 0.53979(14) 0.62030(12) 0.31108(17)
H45 H 0.5252 0.6304 0.3530
O10 O 0.66278(14) 0.63267(11) 0.30504(17)
H46 H 0.6263 0.6264 0.3064
O11 O 0.76321(16) 0.67924(12) 0.26665(19)
H47 H 0.7817 0.7011 0.2450
O12 O 0.81672(14) 0.66784(12) 0.13102(19)
H48 H 0.8184 0.6780 0.0872
C41 C 0.64622(18) 0.81265(14) 0.3684(2)
C42 C 0.67057(18) 0.76539(14) 0.3685(2)
C43 C 0.7234(2) 0.75492(14) 0.4090(2)
C44 C 0.75212(19) 0.79117(15) 0.4510(2)
C45 C 0.72899(18) 0.83870(14) 0.4523(2)
C46 C 0.67612(18) 0.84772(14) 0.4112(2)
H49 H 0.6596 0.8796 0.4123
C47 C 0.76148(18) 0.87939(14) 0.4957(2)
H50 H 0.8054 0.8698 0.4989
C48 C 0.73825(18) 0.88259(13) 0.5775(2)
C49 C 0.76812(19) 0.85836(14) 0.6355(3)
C50 C 0.7464(2) 0.85840(15) 0.7093(2)
C51 C 0.6946(2) 0.88502(15) 0.7267(2)
C52 C 0.66463(18) 0.91254(13) 0.6718(2)
C53 C 0.68635(18) 0.90948(14) 0.5974(2)
H51 H 0.6651 0.9263 0.5584
C54 C 0.60907(18) 0.94212(13) 0.6919(2)
H52 H 0.6101 0.9463 0.7485
C55 C 0.55040(18) 0.91478(13) 0.6744(2)
C56 C 0.52479(19) 0.88441(15) 0.7298(2)
C57 C 0.4717(2) 0.85986(16) 0.7154(2)
C58 C 0.44183(19) 0.86439(14) 0.6453(2)
C59 C 0.46749(18) 0.89306(13) 0.5879(2)
C60 C 0.52149(17) 0.91747(13) 0.6043(2)
H53 H 0.5394 0.9369 0.5655
C61 C 0.43637(18) 0.89532(13) 0.5102(2)
H54 H 0.3919 0.8899 0.5194
C62 C 0.45831(17) 0.85335(13) 0.4601(2)
C63 C 0.42546(18) 0.80961(14) 0.4577(2)
C64 C 0.44700(18) 0.77085(15) 0.4151(3)
C65 C 0.49994(19) 0.77535(14) 0.3720(2)
C66 C 0.53294(18) 0.81834(14) 0.3715(2)
C67 C 0.51162(17) 0.85609(13) 0.4171(2)
H55 H 0.5346 0.8853 0.4189
C68 C 0.58926(18) 0.82348(14) 0.3225(2)
H56 H 0.5865 0.7980 0.2821
C69 C 0.7596(2) 0.92884(16) 0.4540(3)
H57 H 0.7167 0.9398 0.4504
H58 H 0.7822 0.9531 0.4845
C70 C 0.7869(3) 0.9269(2) 0.3740(3)
H59 H 0.8287 0.9135 0.3767
H60 H 0.7621 0.9050 0.3418
C71 C 0.7889(5) 0.9765(3) 0.3383(5)
H61 H 0.7547 0.9956 0.3547
H62 H 0.7878 0.9730 0.2839
H63 H 0.8260 0.9925 0.3528
C72 C 0.6108(2) 0.99394(14) 0.6580(3)
H64 H 0.6128 0.9914 0.6018
H65 H 0.5724 1.0108 0.6712
C73 C 0.6633(3) 1.02442(17) 0.6849(4)
H66 H 0.6634 1.0555 0.6564
H67 H 0.7018 1.0073 0.6732
C74 C 0.6610(5) 1.0354(3) 0.7701(5)
H68 H 0.6226 1.0499 0.7832
H69 H 0.6934 1.0574 0.7826
H70 H 0.6661 1.0057 0.7980
C75 C 0.44218(19) 0.94480(13) 0.4701(2)
H71 H 0.4302 0.9709 0.5059
H72 H 0.4853 0.9502 0.4558
C76 C 0.4028(3) 0.94804(18) 0.3990(3)
H73 H 0.3606 0.9383 0.4118
H74 H 0.4184 0.9252 0.3602
C77 C 0.4022(3) 0.9995(2) 0.3661(4)
H75 H 0.3902 1.0220 0.4051
H76 H 0.3739 1.0012 0.3245
H77 H 0.4423 1.0078 0.3482
C78 C 0.5935(2) 0.87313(14) 0.2812(2)
H78 H 0.5928 0.8994 0.3197
H79 H 0.6331 0.8750 0.2542
C79 C 0.5427(3) 0.8819(2) 0.2243(3)
H80 H 0.5438 0.8561 0.1850
H81 H 0.5030 0.8796 0.2510
C80 C 0.5473(4) 0.9305(2) 0.1863(5)
H82 H 0.5307 0.9548 0.2195
H83 H 0.5247 0.9300 0.1395
H84 H 0.5892 0.9378 0.1758
O13 O 0.64005(15) 0.72991(10) 0.32898(19)
H85 H 0.6614 0.7055 0.3264
O14 O 0.74643(16) 0.70797(10) 0.41026(19)
H86 H 0.7783 0.7100 0.4376
O15 O 0.80413(15) 0.77821(12) 0.48903(19)
H87 H 0.8068 0.7939 0.5286
O16 O 0.82051(15) 0.83269(13) 0.6176(2)
H88 H 0.8360 0.8222 0.6568
O17 O 0.77769(15) 0.83322(12) 0.76520(19)
H89 H 0.7534 0.8228 0.7967
O18 O 0.67228(15) 0.88580(14) 0.79985(17)
H90 H 0.6837 0.8614 0.8226
O19 O 0.55056(15) 0.87672(13) 0.80064(18)
H91 H 0.5876 0.8805 0.7979
O20 O 0.44921(15) 0.82896(13) 0.7697(2)
H92 H 0.4176 0.8165 0.7542
O21 O 0.38831(14) 0.83971(12) 0.64018(19)
H93 H 0.3825 0.8315 0.5958
O22 O 0.37281(14) 0.80621(12) 0.4981(2)
H94 H 0.3545 0.7815 0.4856
O23 O 0.41427(14) 0.72827(11) 0.4173(2)
H95 H 0.4361 0.7062 0.4330
O24 O 0.51537(15) 0.73445(10) 0.33004(19)
H96 H 0.5524 0.7337 0.3238
C81 C 0.7026(4) 0.8911(2) 0.9966(4)
H97 H 0.6663 0.9121 1.0065
C82 C 0.7267(7) 0.8715(5) 1.0706(6)
H98 H 0.7000 0.8471 1.0909
H99 H 0.7305 0.8976 1.1065
H100 H 0.7661 0.8575 1.0613
C83 C 0.7510(4) 0.9203(3) 0.9549(4)
H101 H 0.7803 0.8987 0.9325
H102 H 0.7711 0.9416 0.9901
H103 H 0.7318 0.9392 0.9157
O25 O 0.68576(18) 0.85131(13) 0.9479(2)
H104 H 0.6576 0.8365 0.9716
C84 C 0.8155(6) 0.7061(4) 0.7182(7)
H105 H 0.8339 0.7163 0.6686
C85 C 0.7906(9) 0.6577(5) 0.7053(11)
H106 H 0.7619 0.6506 0.7450
H107 H 0.8228 0.6341 0.7062
H108 H 0.7705 0.6567 0.6569
C86 C 0.8687(6) 0.7080(5) 0.7779(8)
H109 H 0.8874 0.7395 0.7768
H110 H 0.8986 0.6837 0.7657
H111 H 0.8526 0.7019 0.8278
O26 O 0.7699(3) 0.7403(2) 0.7341(4)
H112 H 0.7458 0.7371 0.7716
C87 C 0.5905(5) 0.7438(3) 0.5570(4)
H113 H 0.5960 0.7638 0.5100
C88 C 0.6476(4) 0.7475(3) 0.6053(5)
H114 H 0.6468 0.7227 0.6437
H115 H 0.6494 0.7789 0.6292
H116 H 0.6827 0.7432 0.5735
C89 C 0.5353(5) 0.7611(4) 0.5986(5)
H117 H 0.5031 0.7665 0.5626
H118 H 0.5440 0.7908 0.6251
H119 H 0.5229 0.7367 0.6345
O27 O 0.5795(2) 0.6938(2) 0.5353(3)
H120 H 0.6121 0.6793 0.5322
C90 C 0.4749(4) 0.6160(3) 0.4936(4)
H121 H 0.5120 0.5985 0.5123
C91 C 0.4402(4) 0.6360(4) 0.5616(4)
H122 H 0.4697 0.6509 0.5944
H123 H 0.4197 0.6104 0.5885
H124 H 0.4110 0.6599 0.5456
C92 C 0.4360(4) 0.5810(3) 0.4493(5)
H125 H 0.4109 0.5981 0.4134
H126 H 0.4106 0.5630 0.4838
H127 H 0.4623 0.5590 0.4225
O28 O 0.49272(18) 0.65255(14) 0.4444(2)
H128 H 0.5140 0.6729 0.4681
C93 C 0.6955(4) 0.5994(3) 0.5110(9)
H129 H 0.7018 0.5954 0.5671
C94 C 0.6448(5) 0.5651(4) 0.4856(8)
H130 H 0.6311 0.5736 0.4354
H131 H 0.6115 0.5684 0.5208
H132 H 0.6590 0.5321 0.4858
C95 C 0.7518(5) 0.5824(4) 0.4702(10)
H133 H 0.7460 0.5502 0.4506
H134 H 0.7853 0.5824 0.5054
H135 H 0.7605 0.6042 0.4289
O29 O 0.6811(3) 0.6437(2) 0.4976(5)
H136 H 0.7010 0.6633 0.4696
C96 C 0.4766(4) 0.8905(3) 0.9740(4)
H137 H 0.5119 0.9113 0.9893
C97 C 0.4337(4) 0.9200(4) 0.9255(6)
H138 H 0.4505 0.9227 0.8752
H139 H 0.4285 0.9518 0.9468
H140 H 0.3950 0.9039 0.9229
C98 C 0.4443(4) 0.8717(5) 1.0458(6)
H141 H 0.4086 0.8537 1.0315
H142 H 0.4327 0.8988 1.0770
H143 H 0.4714 0.8510 1.0739
O30 O 0.49875(17) 0.84798(13) 0.93597(19)
H144 H 0.5090 0.8551 0.8924
C99 C 0.5899(3) 0.7543(2) 0.0554(3)
H145 H 0.5884 0.7310 0.0116
C100 C 0.5338(4) 0.7480(3) 0.1013(4)
H146 H 0.5361 0.7680 0.1461
H147 H 0.5294 0.7146 0.1159
H148 H 0.4994 0.7577 0.0712
C101 C 0.6459(4) 0.7453(3) 0.0986(4)
H149 H 0.6806 0.7537 0.0681
H150 H 0.6480 0.7115 0.1120
H151 H 0.6457 0.7646 0.1441
O31 O 0.5934(2) 0.80324(16) 0.0255(3)
H152 H 0.5591 0.8169 0.0320
C102 C 0.8404(3) 0.7868(2) 0.2622(4)
H153 H 0.8302 0.7838 0.3175
C103 C 0.7848(4) 0.8046(3) 0.2223(6)
H154 H 0.7952 0.8143 0.1714
H155 H 0.7688 0.8320 0.2496
H156 H 0.7547 0.7794 0.2205
C104 C 0.8912(4) 0.8210(3) 0.2557(6)
H157 H 0.9221 0.8132 0.2924
H158 H 0.8764 0.8533 0.2647
H159 H 0.9082 0.8191 0.2054
O32 O 0.85683(16) 0.73950(13) 0.2353(2)
H160 H 0.8582 0.7397 0.1886
loop_
_geom_bond_atom_site_label_1
_geom_bond_atom_site_label_2
_geom_bond_site_symmetry_1
_geom_bond_site_symmetry_2
C1 C2 1_555 1_555
C2 C3 1_555 1_555
C3 C4 1_555 1_555
C4 C5 1_555 1_555
C5 C6 1_555 1_555
C6 C1 1_555 1_555
H1 C6 1_555 1_555
C7 C5 1_555 1_555
H2 C7 1_555 1_555
C8 C7 1_555 1_555
C9 C8 1_555 1_555
C10 C9 1_555 1_555
C11 C10 1_555 1_555
C12 C11 1_555 1_555
C13 C8 1_555 1_555
H3 C13 1_555 1_555
C14 C12 1_555 1_555
H4 C14 1_555 1_555
C15 C14 1_555 1_555
C16 C15 1_555 1_555
C17 C16 1_555 1_555
C18 C17 1_555 1_555
C19 C18 1_555 1_555
C20 C15 1_555 1_555
H5 C20 1_555 1_555
C21 C19 1_555 1_555
H6 C21 1_555 1_555
C22 C21 1_555 1_555
C23 C22 1_555 1_555
C24 C23 1_555 1_555
C25 C24 1_555 1_555
C26 C25 1_555 1_555
C27 C22 1_555 1_555
H7 C27 1_555 1_555
C28 C1 1_555 1_555
H8 C28 1_555 1_555
C29 C7 1_555 1_555
H9 C29 1_555 1_555
H10 C29 1_555 1_555
C30 C29 1_555 1_555
H11 C30 1_555 1_555
H12 C30 1_555 1_555
C31 C30 1_555 1_555
H13 C31 1_555 1_555
H14 C31 1_555 1_555
H15 C31 1_555 1_555
C32 C14 1_555 1_555
H16 C32 1_555 1_555
H17 C32 1_555 1_555
C33 C32 1_555 1_555
H18 C33 1_555 1_555
H19 C33 1_555 1_555
C34 C33 1_555 1_555
H20 C34 1_555 1_555
H21 C34 1_555 1_555
H22 C34 1_555 1_555
C35 C21 1_555 1_555
H23 C35 1_555 1_555
H24 C35 1_555 1_555
C36 C35 1_555 1_555
H25 C36 1_555 1_555
H26 C36 1_555 1_555
C37 C36 1_555 1_555
H27 C37 1_555 1_555
H28 C37 1_555 1_555
H29 C37 1_555 1_555
C38 C28 1_555 1_555
H30 C38 1_555 1_555
H31 C38 1_555 1_555
C39 C38 1_555 1_555
H32 C39 1_555 1_555
H33 C39 1_555 1_555
C40 C39 1_555 1_555
H34 C40 1_555 1_555
H35 C40 1_555 1_555
H36 C40 1_555 1_555
O1 C2 1_555 1_555
H37 O1 1_555 1_555
O2 C3 1_555 1_555
H38 O2 1_555 1_555
O3 C4 1_555 1_555
H39 O3 1_555 1_555
O4 C9 1_555 1_555
H40 O4 1_555 1_555
O5 C10 1_555 1_555
H41 O5 1_555 1_555
O6 C11 1_555 1_555
H42 O6 1_555 1_555
O7 C16 1_555 1_555
H43 O7 1_555 1_555
O8 C17 1_555 1_555
H44 O8 1_555 1_555
O9 C18 1_555 1_555
H45 O9 1_555 1_555
O10 C23 1_555 1_555
H46 O10 1_555 1_555
O11 C24 1_555 1_555
H47 O11 1_555 1_555
O12 C25 1_555 1_555
H48 O12 1_555 1_555
C41 C42 1_555 1_555
C42 C43 1_555 1_555
C43 C44 1_555 1_555
C44 C45 1_555 1_555
C45 C46 1_555 1_555
C46 C41 1_555 1_555
H49 C46 1_555 1_555
C47 C45 1_555 1_555
H50 C47 1_555 1_555
C48 C47 1_555 1_555
C49 C48 1_555 1_555
C50 C49 1_555 1_555
C51 C50 1_555 1_555
C52 C51 1_555 1_555
C53 C48 1_555 1_555
H51 C53 1_555 1_555
C54 C52 1_555 1_555
H52 C54 1_555 1_555
C55 C54 1_555 1_555
C56 C55 1_555 1_555
C57 C56 1_555 1_555
C58 C57 1_555 1_555
C59 C58 1_555 1_555
C60 C55 1_555 1_555
H53 C60 1_555 1_555
C61 C59 1_555 1_555
H54 C61 1_555 1_555
C62 C61 1_555 1_555
C63 C62 1_555 1_555
C64 C63 1_555 1_555
C65 C64 1_555 1_555
C66 C65 1_555 1_555
C67 C62 1_555 1_555
H55 C67 1_555 1_555
C68 C41 1_555 1_555
H56 C68 1_555 1_555
C69 C47 1_555 1_555
H57 C69 1_555 1_555
H58 C69 1_555 1_555
C70 C69 1_555 1_555
H59 C70 1_555 1_555
H60 C70 1_555 1_555
C71 C70 1_555 1_555
H61 C71 1_555 1_555
H62 C71 1_555 1_555
H63 C71 1_555 1_555
C72 C54 1_555 1_555
H64 C72 1_555 1_555
H65 C72 1_555 1_555
C73 C72 1_555 1_555
H66 C73 1_555 1_555
H67 C73 1_555 1_555
C74 C73 1_555 1_555
H68 C74 1_555 1_555
H69 C74 1_555 1_555
H70 C74 1_555 1_555
C75 C61 1_555 1_555
H71 C75 1_555 1_555
H72 C75 1_555 1_555
C76 C75 1_555 1_555
H73 C76 1_555 1_555
H74 C76 1_555 1_555
C77 C76 1_555 1_555
H75 C77 1_555 1_555
H76 C77 1_555 1_555
H77 C77 1_555 1_555
C78 C68 1_555 1_555
H78 C78 1_555 1_555
H79 C78 1_555 1_555
C79 C78 1_555 1_555
H80 C79 1_555 1_555
H81 C79 1_555 1_555
C80 C79 1_555 1_555
H82 C80 1_555 1_555
H83 C80 1_555 1_555
H84 C80 1_555 1_555
O13 C42 1_555 1_555
H85 O13 1_555 1_555
O14 C43 1_555 1_555
H86 O14 1_555 1_555
O15 C44 1_555 1_555
H87 O15 1_555 1_555
O16 C49 1_555 1_555
H88 O16 1_555 1_555
O17 C50 1_555 1_555
H89 O17 1_555 1_555
O18 C51 1_555 1_555
H90 O18 1_555 1_555
O19 C56 1_555 1_555
H91 O19 1_555 1_555
O20 C57 1_555 1_555
H92 O20 1_555 1_555
O21 C58 1_555 1_555
H93 O21 1_555 1_555
O22 C63 1_555 1_555
H94 O22 1_555 1_555
O23 C64 1_555 1_555
H95 O23 1_555 1_555
O24 C65 1_555 1_555
H96 O24 1_555 1_555
C81 H97 1_555 1_555
C82 C81 1_555 1_555
H98 C82 1_555 1_555
H99 C82 1_555 1_555
H100 C82 1_555 1_555
C83 C81 1_555 1_555
H101 C83 1_555 1_555
H102 C83 1_555 1_555
H103 C83 1_555 1_555
O25 C81 1_555 1_555
H104 O25 1_555 1_555
C84 H105 1_555 1_555
C85 C84 1_555 1_555
H106 C85 1_555 1_555
H107 C85 1_555 1_555
H108 C85 1_555 1_555
C86 C84 1_555 1_555
H109 C86 1_555 1_555
H110 C86 1_555 1_555
H111 C86 1_555 1_555
O26 C84 1_555 1_555
H112 O26 1_555 1_555
C87 H113 1_555 1_555
C88 C87 1_555 1_555
H114 C88 1_555 1_555
H115 C88 1_555 1_555
H116 C88 1_555 1_555
C89 C87 1_555 1_555
H117 C89 1_555 1_555
H118 C89 1_555 1_555
H119 C89 1_555 1_555
O27 C87 1_555 1_555
H120 O27 1_555 1_555
C90 H121 1_555 1_555
C91 C90 1_555 1_555
H122 C91 1_555 1_555
H123 C91 1_555 1_555
H124 C91 1_555 1_555
C92 C90 1_555 1_555
H125 C92 1_555 1_555
H126 C92 1_555 1_555
H127 C92 1_555 1_555
O28 C90 1_555 1_555
H128 O28 1_555 1_555
C93 H129 1_555 1_555
C94 C93 1_555 1_555
H130 C94 1_555 1_555
H131 C94 1_555 1_555
H132 C94 1_555 1_555
C95 C93 1_555 1_555
H133 C95 1_555 1_555
H134 C95 1_555 1_555
H135 C95 1_555 1_555
O29 C93 1_555 1_555
H136 O29 1_555 1_555
C96 H137 1_555 1_555
C97 C96 1_555 1_555
H138 C97 1_555 1_555
H139 C97 1_555 1_555
H140 C97 1_555 1_555
C98 C96 1_555 1_555
H141 C98 1_555 1_555
H142 C98 1_555 1_555
H143 C98 1_555 1_555
O30 C96 1_555 1_555
H144 O30 1_555 1_555
C99 H145 1_555 1_555
C100 C99 1_555 1_555
H146 C100 1_555 1_555
H147 C100 1_555 1_555
H148 C100 1_555 1_555
C101 C99 1_555 1_555
H149 C101 1_555 1_555
H150 C101 1_555 1_555
H151 C101 1_555 1_555
O31 C99 1_555 1_555
H152 O31 1_555 1_555
C102 H153 1_555 1_555
C103 C102 1_555 1_555
H154 C103 1_555 1_555
H155 C103 1_555 1_555
H156 C103 1_555 1_555
C104 C102 1_555 1_555
H157 C104 1_555 1_555
H158 C104 1_555 1_555
H159 C104 1_555 1_555
O32 C102 1_555 1_555
H160 O32 1_555 1_555
C12 C13 1_555 1_555
C19 C20 1_555 1_555
C26 C27 1_555 1_555
C26 C28 1_555 1_555
C52 C53 1_555 1_555
C59 C60 1_555 1_555
C66 C67 1_555 1_555
C66 C68 1_555 1_555

#END
