
#######################################################################
#
#                 Cambridge Crystallographic Data Centre
#                                CCDC 
#
#######################################################################
#
# If this CIF has been generated from an entry in the Cambridge 
# Structural Database, then it will include bibliographic, chemical, 
# crystal, experimental, refinement or atomic coordinate data resulting 
# from the CCDC's data processing and validation procedures.
#
#######################################################################

data_QUPHIU
_chemical_formula_moiety         'C24 H12 N4 O4,C4 H9 N1 O1,2(H2 O1)'
_chemical_name_systematic        
'2,7-di(pyridin-4-yl)benzo[lmn][3,8]phenanthroline-1,3,6,8(2H,7H)-tetrone N,N-dimethylformamide dihydrate'
_symmetry_cell_setting           triclinic
_symmetry_space_group_name_H-M   'P -1'
_symmetry_Int_Tables_number      2
_space_group_name_Hall           '-P 1'
loop_
_symmetry_equiv_pos_site_id
_symmetry_equiv_pos_as_xyz
1 x,y,z
2 -x,-y,-z
_cell_length_a                   9.4099(19)
_cell_length_b                   9.6738(19)
_cell_length_c                   14.038(3)
_cell_angle_alpha                84.83(3)
_cell_angle_beta                 89.18(3)
_cell_angle_gamma                86.68(3)
_cell_volume                     1270.48
_exptl_crystal_colour            black
_exptl_crystal_description       Block
_cell_formula_units_Z            2
loop_
_atom_site_label
_atom_site_type_symbol
_atom_site_fract_x
_atom_site_fract_y
_atom_site_fract_z
O1 O 0.3898(3) 1.0406(3) 0.31116(19)
O2 O 0.1060(3) 0.6977(3) 0.2477(2)
O3 O 0.0708(3) 0.9774(3) -0.23305(18)
O4 O 0.4420(3) 1.2394(3) -0.18226(19)
N1 N 0.2402(5) 0.7370(5) 0.5734(3)
N2 N 0.2467(3) 0.8697(3) 0.2792(2)
N3 N 0.2535(3) 1.1116(4) -0.2068(2)
N4 N 0.2476(5) 1.2756(6) -0.4945(3)
C1 C 0.3549(6) 0.7171(6) 0.5187(4)
H1 H 0.4355 0.6723 0.5475
C2 C 0.1278(6) 0.7990(6) 0.5292(3)
H2 H 0.0458 0.8130 0.5656
C3 C 0.1224(5) 0.8444(5) 0.4334(3)
H3 H 0.0403 0.8884 0.4062
C4 C 0.3623(5) 0.7584(5) 0.4222(3)
H4 H 0.4457 0.7431 0.3874
C5 C 0.2444(4) 0.8219(4) 0.3795(3)
C6 C 0.3277(4) 0.9841(4) 0.2522(3)
C7 C 0.1684(4) 0.7984(4) 0.2176(3)
C8 C 0.3342(4) 1.0284(4) 0.1491(3)
C9 C 0.1681(4) 0.8530(4) 0.1156(3)
C10 C 0.0868(4) 0.7933(4) 0.0520(3)
H5 H 0.0338 0.7181 0.0730
C11 C 0.2508(4) 0.9647(4) 0.0848(3)
C12 C 0.4224(4) 1.1318(4) 0.1167(3)
H6 H 0.4776 1.1731 0.1594
C13 C 0.4277(4) 1.1738(4) 0.0182(3)
H7 H 0.4892 1.2416 -0.0042
C14 C 0.2525(4) 1.0126(4) -0.0133(2)
C15 C 0.0834(4) 0.8449(4) -0.0447(3)
H8 H 0.0257 0.8058 -0.0871
C16 C 0.1650(4) 0.9532(4) -0.0769(2)
C17 C 0.3444(4) 1.1172(4) -0.0450(3)
C18 C 0.3534(4) 1.1631(4) -0.1477(3)
C19 C 0.1563(4) 1.0101(4) -0.1773(3)
C20 C 0.2512(4) 1.1665(5) -0.3055(3)
C21 C 0.2076(5) 1.3036(5) -0.3283(3)
H9 H 0.1789 1.3614 -0.2812
C22 C 0.2936(5) 1.0852(5) -0.3764(3)
H10 H 0.3248 0.9927 -0.3624
C23 C 0.2889(6) 1.1445(7) -0.4694(3)
H11 H 0.3166 1.0886 -0.5177
C24 C 0.2083(6) 1.3517(6) -0.4236(4)
H12 H 0.1790 1.4443 -0.4394
O5 O 0.1343(4) 0.4067(4) 0.0951(2)
N5 N 0.2977(8) 0.4369(5) 0.1874(6)
C25 C 0.1064(6) 0.3368(6) 0.2701(3)
H13 H 0.1562 0.2618 0.3077
H14 H 0.0265 0.3021 0.2399
H15 H 0.0735 0.4068 0.3108
C26 C 0.1999(10) 0.3953(6) 0.1989(7)
C27 C 0.3709(6) 0.4344(7) 0.2920(4)
H16 H 0.3002 0.4598 0.3382
H17 H 0.4447 0.4992 0.2890
H18 H 0.4111 0.3426 0.3105
C28 C 0.3827(5) 0.5039(5) 0.1078(4)
H19 H 0.3368 0.4956 0.0481
H20 H 0.4763 0.4589 0.1070
H21 H 0.3898 0.6005 0.1168
O6 O 0.6930(4) 0.2983(5) 0.2132(3)
H22 H 0.730(7) 0.288(7) 0.270(2)
H23 H 0.740(7) 0.369(5) 0.191(4)
O7 O 0.8470(4) 0.5136(5) 0.1018(3)
H24 H 0.931(3) 0.479(7) 0.108(4)
H25 H 0.837(6) 0.554(7) 0.047(2)
loop_
_geom_bond_atom_site_label_1
_geom_bond_atom_site_label_2
_geom_bond_site_symmetry_1
_geom_bond_site_symmetry_2
O1 C6 1_555 1_555
O2 C7 1_555 1_555
O3 C19 1_555 1_555
O4 C18 1_555 1_555
N1 C1 1_555 1_555
N2 C5 1_555 1_555
N3 C18 1_555 1_555
N4 C23 1_555 1_555
C1 H1 1_555 1_555
C2 N1 1_555 1_555
H2 C2 1_555 1_555
C3 C2 1_555 1_555
H3 C3 1_555 1_555
C4 C1 1_555 1_555
H4 C4 1_555 1_555
C5 C3 1_555 1_555
C6 N2 1_555 1_555
C7 N2 1_555 1_555
C8 C6 1_555 1_555
C9 C7 1_555 1_555
C10 C9 1_555 1_555
H5 C10 1_555 1_555
C11 C8 1_555 1_555
C12 C8 1_555 1_555
H6 C12 1_555 1_555
C13 C12 1_555 1_555
H7 C13 1_555 1_555
C14 C11 1_555 1_555
C15 C10 1_555 1_555
H8 C15 1_555 1_555
C16 C14 1_555 1_555
C17 C13 1_555 1_555
C18 C17 1_555 1_555
C19 N3 1_555 1_555
C20 N3 1_555 1_555
C21 C20 1_555 1_555
H9 C21 1_555 1_555
C22 C20 1_555 1_555
H10 C22 1_555 1_555
C23 C22 1_555 1_555
H11 C23 1_555 1_555
C24 N4 1_555 1_555
H12 C24 1_555 1_555
O5 C26 1_555 1_555
N5 C26 1_555 1_555
C25 H13 1_555 1_555
H14 C25 1_555 1_555
H15 C25 1_555 1_555
C26 C25 1_555 1_555
C27 N5 1_555 1_555
H16 C27 1_555 1_555
H17 C27 1_555 1_555
H18 C27 1_555 1_555
C28 N5 1_555 1_555
H19 C28 1_555 1_555
H20 C28 1_555 1_555
H21 C28 1_555 1_555
O6 H22 1_555 1_555
H23 O6 1_555 1_555
O7 H24 1_555 1_555
H25 O7 1_555 1_555
C4 C5 1_555 1_555
C9 C11 1_555 1_555
C14 C17 1_555 1_555
C15 C16 1_555 1_555
C16 C19 1_555 1_555
C21 C24 1_555 1_555

#END
