
#######################################################################
#
#                 Cambridge Crystallographic Data Centre
#                                CCDC 
#
#######################################################################
#
# If this CIF has been generated from an entry in the Cambridge 
# Structural Database, then it will include bibliographic, chemical, 
# crystal, experimental, refinement or atomic coordinate data resulting 
# from the CCDC's data processing and validation procedures.
#
#######################################################################

data_QUPJIW
_chemical_formula_moiety         'C16 H18 N4 O2 S1'
_chemical_name_systematic        
N-(1-azido-1-phenylpropan-2-yl)-4-methylbenzenesulfonamide
_symmetry_cell_setting           monoclinic
_symmetry_space_group_name_H-M   'P 21'
_symmetry_Int_Tables_number      4
_space_group_name_Hall           'P 2yb'
loop_
_symmetry_equiv_pos_site_id
_symmetry_equiv_pos_as_xyz
1 x,y,z
2 -x,1/2+y,-z
_cell_length_a                   8.2251(1)
_cell_length_b                   10.3695(1)
_cell_length_c                   9.9358(1)
_cell_angle_alpha                90
_cell_angle_beta                 94.2510(7)
_cell_angle_gamma                90
_cell_volume                     845.095
_exptl_crystal_colour            brown
_exptl_crystal_description       cubic
_cell_formula_units_Z            2
loop_
_atom_site_label
_atom_site_type_symbol
_atom_site_fract_x
_atom_site_fract_y
_atom_site_fract_z
S1 S 1.06349(4) 0.25293(4) 0.01311(4)
O1 O 1.01938(18) 0.37474(14) -0.04499(14)
O2 O 1.19737(17) 0.18322(18) -0.03400(16)
N1 N 0.90673(18) 0.15876(14) -0.00912(14)
H1 H 0.9149 0.0855 -0.0487
N2 N 0.5966(3) 0.02622(19) -0.06892(19)
N3 N 0.4845(3) -0.0098(2) -0.14708(18)
N4 N 0.3858(4) -0.0547(4) -0.2171(3)
C1 C 0.6935(3) 0.1634(3) -0.3031(2)
H2 H 0.7397 0.0825 -0.2864
C2 C 0.6967(3) 0.2174(3) -0.4287(3)
H3 H 0.7454 0.1737 -0.4969
C3 C 0.6273(4) 0.3373(4) -0.4537(3)
H4 H 0.6265 0.3733 -0.5395
C4 C 0.5599(4) 0.4028(3) -0.3527(3)
H5 H 0.5156 0.4843 -0.3691
C5 C 0.5573(3) 0.3486(2) -0.2269(2)
H6 H 0.5113 0.3938 -0.1583
C6 C 0.62238(19) 0.22782(18) -0.20113(17)
C7 C 0.6092(2) 0.16938(18) -0.06412(19)
H7 H 0.5093 0.2026 -0.0286
C8 C 0.7506(2) 0.19979(18) 0.03904(17)
H8 H 0.7548 0.2936 0.0507
C9 C 0.7214(3) 0.1401(2) 0.17621(19)
H9 H 0.7281 0.0478 0.1702
H10 H 0.6151 0.1641 0.2015
H11 H 0.8026 0.1708 0.2430
C10 C 1.0963(2) 0.27603(19) 0.18896(18)
C11 C 1.0278(3) 0.3802(2) 0.2494(2)
H12 H 0.9742 0.4440 0.1974
C12 C 1.0400(3) 0.3884(3) 0.3896(2)
H13 H 0.9940 0.4587 0.4307
C13 C 1.1181(3) 0.2958(3) 0.4690(2)
C14 C 1.1882(4) 0.1949(4) 0.4055(3)
H14 H 1.2447 0.1326 0.4575
C15 C 1.1775(3) 0.1827(3) 0.2659(2)
H15 H 1.2245 0.1126 0.2251
C16 C 1.1252(4) 0.3038(5) 0.6212(3)
H16 H 1.1253 0.3927 0.6484
H17 H 1.2229 0.2628 0.6588
H18 H 1.0319 0.2612 0.6532
loop_
_geom_bond_atom_site_label_1
_geom_bond_atom_site_label_2
_geom_bond_site_symmetry_1
_geom_bond_site_symmetry_2
S1 O1 1_555 1_555
O2 S1 1_555 1_555
N1 S1 1_555 1_555
H1 N1 1_555 1_555
N2 N3 1_555 1_555
N3 N4 1_555 1_555
C1 H2 1_555 1_555
C2 C1 1_555 1_555
H3 C2 1_555 1_555
C3 C2 1_555 1_555
H4 C3 1_555 1_555
C4 C3 1_555 1_555
H5 C4 1_555 1_555
C5 C4 1_555 1_555
H6 C5 1_555 1_555
C6 C1 1_555 1_555
C7 N2 1_555 1_555
H7 C7 1_555 1_555
C8 N1 1_555 1_555
H8 C8 1_555 1_555
C9 C8 1_555 1_555
H9 C9 1_555 1_555
H10 C9 1_555 1_555
H11 C9 1_555 1_555
C10 S1 1_555 1_555
C11 C10 1_555 1_555
H12 C11 1_555 1_555
C12 C11 1_555 1_555
H13 C12 1_555 1_555
C13 C12 1_555 1_555
C14 C13 1_555 1_555
H14 C14 1_555 1_555
C15 C10 1_555 1_555
H15 C15 1_555 1_555
C16 C13 1_555 1_555
H16 C16 1_555 1_555
H17 C16 1_555 1_555
H18 C16 1_555 1_555
C5 C6 1_555 1_555
C6 C7 1_555 1_555
C7 C8 1_555 1_555
C14 C15 1_555 1_555

#END
