
#######################################################################
#
#                 Cambridge Crystallographic Data Centre
#                                CCDC 
#
#######################################################################
#
# If this CIF has been generated from an entry in the Cambridge 
# Structural Database, then it will include bibliographic, chemical, 
# crystal, experimental, refinement or atomic coordinate data resulting 
# from the CCDC's data processing and validation procedures.
#
#######################################################################

data_QUPKAP03
_chemical_formula_moiety         'C12 H10 N2,C10 H2 N4'
_chemical_name_systematic        
"benzene-1,2,4,5-tetracarbonitrile 4,4'-ethene-1,2-diyldipyridine"
_symmetry_cell_setting           triclinic
_symmetry_space_group_name_H-M   'P -1'
_symmetry_Int_Tables_number      2
_space_group_name_Hall           '-P 1'
loop_
_symmetry_equiv_pos_site_id
_symmetry_equiv_pos_as_xyz
1 x,y,z
2 -x,-y,-z
_cell_length_a                   6.8223(7)
_cell_length_b                   7.1555(7)
_cell_length_c                   10.4797(12)
_cell_angle_alpha                76.740(5)
_cell_angle_beta                 79.212(6)
_cell_angle_gamma                75.945(9)
_cell_volume                     478.335
_exptl_crystal_colour            colorless
_exptl_crystal_description       Platelet
_cell_formula_units_Z            1
loop_
_atom_site_label
_atom_site_type_symbol
_atom_site_fract_x
_atom_site_fract_y
_atom_site_fract_z
N1 N -0.0035(2) 0.4817(2) 0.25309(14)
C1 C 0.0586(3) 0.3255(3) 0.34435(18)
H1 H 0.0005(3) 0.2169(3) 0.35569(18)
C2 C 0.2027(3) 0.3145(3) 0.42273(18)
H2 H 0.2396(3) 0.2008(3) 0.48459(18)
C3 C 0.0815(3) 0.6347(3) 0.24087(18)
H3 H 0.0403(3) 0.7470(3) 0.17893(18)
C4 C 0.2275(3) 0.6354(3) 0.31529(19)
H4 H 0.2833(3) 0.7457(3) 0.30261(19)
C5 C 0.2916(2) 0.4697(3) 0.40995(17)
C6 C 0.4460(3) 0.4347(2) 0.50269(19)
H5 H 0.4651(3) 0.3184(2) 0.56491(19)
N1A N 1.0035(2) 0.5183(2) 0.74691(14)
C1A C 0.9414(3) 0.6745(3) 0.65565(18)
H1A H 0.9995(3) 0.7831(3) 0.64431(18)
C2A C 0.7973(3) 0.6855(3) 0.57727(18)
H2A H 0.7604(3) 0.7992(3) 0.51541(18)
C3A C 0.9185(3) 0.3653(3) 0.75913(18)
H3A H 0.9597(3) 0.2530(3) 0.82107(18)
C4A C 0.7725(3) 0.3646(3) 0.68471(19)
H4A H 0.7167(3) 0.2543(3) 0.69739(19)
C5A C 0.7084(2) 0.5303(3) 0.59005(17)
C6A C 0.5540(3) 0.5653(2) 0.49731(19)
H5A H 0.5349(3) 0.6816(2) 0.43509(19)
N2 N 0.6501(3) 0.0281(3) 0.27481(18)
N3 N 0.7903(3) 0.9366(3) -0.0605(2)
C8 C 0.6092(3) 0.1623(2) 0.19507(17)
C9 C 0.5549(2) 0.3338(2) 0.09537(14)
C10 C 0.6549(2) 0.4870(2) 0.07441(15)
H7 H 0.7577(2) 0.4788(2) 0.12376(15)
C11 C 0.6007(2) 0.6530(2) -0.02081(15)
C12 C 0.7069(3) 0.8114(3) -0.04302(18)
N2A N 0.3499(3) 0.9719(3) -0.27481(18)
N3A N 0.2097(3) 0.0634(3) 0.0605(2)
C8A C 0.3908(3) 0.8377(2) -0.19507(17)
C9A C 0.4451(2) 0.6662(2) -0.09537(14)
C10A C 0.3451(2) 0.5130(2) -0.07441(15)
H7A H 0.2423(2) 0.5212(2) -0.12376(15)
C11A C 0.3993(2) 0.3470(2) 0.02081(15)
C12A C 0.2931(3) 0.1886(3) 0.04302(18)
C7? C 0.4498(8) 0.5506(6) 0.4516(5)
H6? H 0.4757(8) 0.6727(6) 0.4081(5)
loop_
_geom_bond_atom_site_label_1
_geom_bond_atom_site_label_2
_geom_bond_site_symmetry_1
_geom_bond_site_symmetry_2
N1 C1 1_555 1_555
C1 H1 1_555 1_555
C2 C1 1_555 1_555
H2 C2 1_555 1_555
C3 N1 1_555 1_555
H3 C3 1_555 1_555
C4 C3 1_555 1_555
H4 C4 1_555 1_555
C5 C2 1_555 1_555
C6 C5 1_555 1_555
H5 C6 1_555 1_555
N2 C8 1_555 1_555
N3 C12 1_555 1_555
C8 C9 1_555 1_555
C9 C10 1_555 1_555
C10 H7 1_555 1_555
C11 C10 1_555 1_555
C12 C11 1_555 1_555
N1A C1A 1_555 1_555
C1A H1A 1_555 1_555
C2A C1A 1_555 1_555
H2A C2A 1_555 1_555
C3A N1A 1_555 1_555
H3A C3A 1_555 1_555
C4A C3A 1_555 1_555
H4A C4A 1_555 1_555
C5A C2A 1_555 1_555
C6A C6 1_555 1_555
H5A C6A 1_555 1_555
N2A C8A 1_555 1_555
N3A C12A 1_555 1_555
C8A C9A 1_555 1_555
C9A C11 1_555 1_555
C10A C9A 1_555 1_555
H7A C10A 1_555 1_555
C11A C9 1_555 1_555
C12A C11A 1_555 1_555
C4 C5 1_555 1_555
C4A C5A 1_555 1_555
C5A C6A 1_555 1_555
C10A C11A 1_555 1_555

#END
