
#######################################################################
#
#                 Cambridge Crystallographic Data Centre
#                                CCDC 
#
#######################################################################
#
# If this CIF has been generated from an entry in the Cambridge 
# Structural Database, then it will include bibliographic, chemical, 
# crystal, experimental, refinement or atomic coordinate data resulting 
# from the CCDC's data processing and validation procedures.
#
#######################################################################

data_QUPMOE
_chemical_formula_moiety         'C44 H56 O4'
_chemical_name_systematic        
tetraspiro-(cycloheptane-1,5'-calix[4]furan-10'-1''-cycloheptane-15',1'''-cycloheptane-20',1''''-cycloheptane)
_symmetry_cell_setting           triclinic
_symmetry_space_group_name_H-M   'P -1'
_symmetry_Int_Tables_number      2
_space_group_name_Hall           '-P 1'
loop_
_symmetry_equiv_pos_site_id
_symmetry_equiv_pos_as_xyz
1 x,y,z
2 -x,-y,-z
_cell_length_a                   12.3562(3)
_cell_length_b                   12.6876(3)
_cell_length_c                   12.8733(3)
_cell_angle_alpha                113.2500(10)
_cell_angle_beta                 96.6300(10)
_cell_angle_gamma                95.5330(10)
_cell_volume                     1819.43
_exptl_crystal_colour            colorless
_exptl_crystal_description       prism
_chemical_melting_point          '233-234 deg.C'
_cell_formula_units_Z            2
_exptl_crystal_recrystallization_method n-hexane/toluene
loop_
_atom_site_label
_atom_site_type_symbol
_atom_site_fract_x
_atom_site_fract_y
_atom_site_fract_z
C1 C 0.74296(14) 1.12579(16) 0.29543(16)
C2 C 0.79619(16) 1.13412(19) 0.39543(17)
H1 H 0.8116 1.2002 0.4640
C3 C 0.82482(16) 1.02343(19) 0.37735(17)
H2 H 0.8622 1.0032 0.4320
C4 C 0.78792(14) 0.95335(16) 0.26671(16)
C5 C 0.78739(15) 0.82695(16) 0.19300(17)
C6 C 0.84267(17) 0.81494(18) 0.08825(18)
H3 H 0.7887 0.8217 0.0311
H4 H 0.9017 0.8801 0.1121
C7 C 0.89041(19) 0.7038(2) 0.0308(2)
H5 H 0.8874 0.6871 -0.0499
H6 H 0.8449 0.6399 0.0360
C8 C 1.0094(2) 0.7105(3) 0.0839(3)
H7 H 1.0383 0.6437 0.0338
H8 H 1.0525 0.7792 0.0852
C9 C 1.0280(2) 0.7145(3) 0.2037(4)
H9 H 1.0021 0.6378 0.1989
H10 H 1.1068 0.7312 0.2315
C10 C 0.97318(18) 0.8019(2) 0.2924(3)
H11 H 0.9947 0.8783 0.2943
H12 H 0.9998 0.8047 0.3674
C11 C 0.84701(16) 0.7732(2) 0.2681(2)
H13 H 0.8205 0.7995 0.3409
H14 H 0.8264 0.6895 0.2306
C12 C 0.66984(15) 0.76622(16) 0.15262(16)
C13 C 0.60799(17) 0.70048(18) 0.05050(17)
H15 H 0.6293 0.6828 -0.0207
C14 C 0.50351(16) 0.66256(18) 0.07101(17)
H16 H 0.4440 0.6152 0.0158
C15 C 0.50709(14) 0.70783(15) 0.18481(15)
C16 C 0.42815(14) 0.70481(15) 0.26421(15)
C17 C 0.48612(16) 0.67241(17) 0.35796(17)
H17 H 0.5586 0.7193 0.3873
H18 H 0.4445 0.6933 0.4207
C18 C 0.49995(18) 0.54591(19) 0.3214(2)
H19 H 0.5053 0.5128 0.2406
H20 H 0.5684 0.5415 0.3637
C19 C 0.4056(2) 0.4745(2) 0.3415(2)
H21 H 0.4252 0.3984 0.3277
H22 H 0.3978 0.5112 0.4216
C20 C 0.2948(2) 0.4584(2) 0.2686(2)
H23 H 0.2393 0.4243 0.2986
H24 H 0.2967 0.4023 0.1916
C21 C 0.25644(16) 0.56581(18) 0.25967(19)
H25 H 0.1799 0.5459 0.2226
H26 H 0.2602 0.6252 0.3364
C22 C 0.32399(15) 0.61571(17) 0.19305(17)
H27 H 0.2766 0.6528 0.1571
H28 H 0.3467 0.5519 0.1322
C23 C 0.39718(14) 0.82370(16) 0.32322(15)
C24 C 0.38926(15) 0.89012(17) 0.43187(16)
H29 H 0.4024 0.8710 0.4944
C25 C 0.35687(16) 0.99578(17) 0.43391(16)
H30 H 0.3447 1.0583 0.4979
C26 C 0.34730(14) 0.98799(15) 0.32663(15)
C27 C 0.31442(14) 1.06725(15) 0.27124(15)
C28 C 0.20778(15) 1.00539(18) 0.18308(17)
H31 H 0.2281 0.9497 0.1141
H32 H 0.1626 0.9619 0.2141
C29 C 0.13720(17) 1.0830(2) 0.1491(2)
H33 H 0.1854 1.1486 0.1503
H34 H 0.0989 1.0393 0.0710
C30 C 0.05283(19) 1.1281(3) 0.2260(3)
H35 H 0.0025 1.1621 0.1893
H36 H 0.0102 1.0624 0.2308
C31 C 0.09714(19) 1.2170(2) 0.3468(3)
H37 H 0.0366 1.2305 0.3899
H38 H 0.1244 1.2897 0.3433
C32 C 0.18849(18) 1.1844(2) 0.4119(2)
H39 H 0.1645 1.1080 0.4089
H40 H 0.2016 1.2391 0.4917
C33 C 0.29658(15) 1.18317(16) 0.36514(17)
H41 H 0.3568 1.2064 0.4290
H42 H 0.3019 1.2418 0.3345
C34 C 0.40294(14) 1.09481(15) 0.21108(15)
C35 C 0.40303(16) 1.09314(17) 0.10602(16)
H43 H 0.3429 1.0681 0.0469
C36 C 0.51214(16) 1.13684(18) 0.10198(18)
H44 H 0.5366 1.1458 0.0399
C37 C 0.57286(15) 1.16261(16) 0.20418(16)
C38 C 0.69309(15) 1.20939(16) 0.25460(17)
C39 C 0.75466(17) 1.21799(19) 0.1592(2)
H45 H 0.8316 1.2133 0.1793
H46 H 0.7251 1.1506 0.0885
C40 C 0.7497(2) 1.3259(2) 0.1354(3)
H47 H 0.7537 1.3057 0.0551
H48 H 0.6792 1.3516 0.1491
C41 C 0.8410(3) 1.4249(2) 0.2081(3)
H49 H 0.9106 1.3954 0.2033
H50 H 0.8434 1.4821 0.1756
C42 C 0.8312(3) 1.4850(2) 0.3327(3)
H51 H 0.7696 1.5277 0.3382
H52 H 0.8974 1.5412 0.3721
C43 C 0.8149(2) 1.4060(2) 0.3961(3)
H53 H 0.8235 1.4542 0.4776
H54 H 0.8724 1.3576 0.3847
C44 C 0.70237(17) 1.32750(17) 0.3576(2)
H55 H 0.6477 1.3699 0.3385
H56 H 0.6833 1.3130 0.4222
O1 O 0.73739(9) 1.01486(10) 0.21378(10)
O2 O 0.60956(10) 0.77264(11) 0.23702(10)
O3 O 0.37116(10) 0.88197(10) 0.25532(10)
O4 O 0.50741(9) 1.13872(10) 0.27432(10)
loop_
_geom_bond_atom_site_label_1
_geom_bond_atom_site_label_2
_geom_bond_site_symmetry_1
_geom_bond_site_symmetry_2
C1 C2 1_555 1_555
C2 H1 1_555 1_555
C3 C2 1_555 1_555
H2 C3 1_555 1_555
C4 C3 1_555 1_555
C5 C4 1_555 1_555
C6 C5 1_555 1_555
H3 C6 1_555 1_555
H4 C6 1_555 1_555
C7 C6 1_555 1_555
H5 C7 1_555 1_555
H6 C7 1_555 1_555
C8 C7 1_555 1_555
H7 C8 1_555 1_555
H8 C8 1_555 1_555
C9 C8 1_555 1_555
H9 C9 1_555 1_555
H10 C9 1_555 1_555
C10 C9 1_555 1_555
H11 C10 1_555 1_555
H12 C10 1_555 1_555
C11 C5 1_555 1_555
H13 C11 1_555 1_555
H14 C11 1_555 1_555
C12 C5 1_555 1_555
C13 C12 1_555 1_555
H15 C13 1_555 1_555
C14 C13 1_555 1_555
H16 C14 1_555 1_555
C15 C14 1_555 1_555
C16 C15 1_555 1_555
C17 C16 1_555 1_555
H17 C17 1_555 1_555
H18 C17 1_555 1_555
C18 C17 1_555 1_555
H19 C18 1_555 1_555
H20 C18 1_555 1_555
C19 C18 1_555 1_555
H21 C19 1_555 1_555
H22 C19 1_555 1_555
C20 C19 1_555 1_555
H23 C20 1_555 1_555
H24 C20 1_555 1_555
C21 C20 1_555 1_555
H25 C21 1_555 1_555
H26 C21 1_555 1_555
C22 C16 1_555 1_555
H27 C22 1_555 1_555
H28 C22 1_555 1_555
C23 C16 1_555 1_555
C24 C23 1_555 1_555
H29 C24 1_555 1_555
C25 C24 1_555 1_555
H30 C25 1_555 1_555
C26 C25 1_555 1_555
C27 C26 1_555 1_555
C28 C27 1_555 1_555
H31 C28 1_555 1_555
H32 C28 1_555 1_555
C29 C28 1_555 1_555
H33 C29 1_555 1_555
H34 C29 1_555 1_555
C30 C29 1_555 1_555
H35 C30 1_555 1_555
H36 C30 1_555 1_555
C31 C30 1_555 1_555
H37 C31 1_555 1_555
H38 C31 1_555 1_555
C32 C31 1_555 1_555
H39 C32 1_555 1_555
H40 C32 1_555 1_555
C33 C27 1_555 1_555
H41 C33 1_555 1_555
H42 C33 1_555 1_555
C34 C27 1_555 1_555
C35 C34 1_555 1_555
H43 C35 1_555 1_555
C36 C35 1_555 1_555
H44 C36 1_555 1_555
C37 C36 1_555 1_555
C38 C1 1_555 1_555
C39 C38 1_555 1_555
H45 C39 1_555 1_555
H46 C39 1_555 1_555
C40 C39 1_555 1_555
H47 C40 1_555 1_555
H48 C40 1_555 1_555
C41 C40 1_555 1_555
H49 C41 1_555 1_555
H50 C41 1_555 1_555
C42 C41 1_555 1_555
H51 C42 1_555 1_555
H52 C42 1_555 1_555
C43 C42 1_555 1_555
H53 C43 1_555 1_555
H54 C43 1_555 1_555
C44 C38 1_555 1_555
H55 C44 1_555 1_555
H56 C44 1_555 1_555
O1 C1 1_555 1_555
O2 C12 1_555 1_555
O3 C23 1_555 1_555
O4 C34 1_555 1_555
C4 O1 1_555 1_555
C10 C11 1_555 1_555
C15 O2 1_555 1_555
C21 C22 1_555 1_555
C26 O3 1_555 1_555
C32 C33 1_555 1_555
C37 C38 1_555 1_555
C37 O4 1_555 1_555
C43 C44 1_555 1_555

#END
