
#######################################################################
#
#                 Cambridge Crystallographic Data Centre
#                                CCDC 
#
#######################################################################
#
# If this CIF has been generated from an entry in the Cambridge 
# Structural Database, then it will include bibliographic, chemical, 
# crystal, experimental, refinement or atomic coordinate data resulting 
# from the CCDC's data processing and validation procedures.
#
#######################################################################

data_QUPNOF
_chemical_formula_moiety         'C52 H80 S4'
_chemical_name_systematic        
5,5,10,10,15,15,20,20-octabutylcalix[4]thiophene
_symmetry_cell_setting           triclinic
_symmetry_space_group_name_H-M   'P -1'
_symmetry_Int_Tables_number      2
_space_group_name_Hall           '-P 1'
loop_
_symmetry_equiv_pos_site_id
_symmetry_equiv_pos_as_xyz
1 x,y,z
2 -x,-y,-z
_cell_length_a                   8.9122(2)
_cell_length_b                   14.8833(4)
_cell_length_c                   20.4299(5)
_cell_angle_alpha                105.385(2)
_cell_angle_beta                 98.135(2)
_cell_angle_gamma                92.298(2)
_cell_volume                     2577.91
_exptl_crystal_colour            colorless
_exptl_crystal_description       prism
_chemical_melting_point          '286.5-287.5 deg.C'
_cell_formula_units_Z            2
_exptl_crystal_recrystallization_method n-hexane/toluene
loop_
_atom_site_label
_atom_site_type_symbol
_atom_site_fract_x
_atom_site_fract_y
_atom_site_fract_z
C1 C 0.1497(4) 0.0306(3) 0.15956(18)
C2 C 0.1819(5) 0.0201(3) 0.0951(2)
H1 H 0.2033 -0.0379 0.0665
C3 C 0.1805(5) 0.1037(3) 0.0746(2)
H2 H 0.2012 0.1069 0.0309
C4 C 0.1470(4) 0.1791(3) 0.12303(18)
C5 C 0.1345(5) 0.2798(3) 0.12192(18)
C6 C -0.0326(5) 0.3027(3) 0.1225(2)
H3 H -0.0658 0.2909 0.1639
H4 H -0.0385 0.3701 0.1263
C7 C -0.1419(6) 0.2469(4) 0.0595(2)
H5 H -0.1333 0.2747 0.0211
H6 H -0.1114 0.1822 0.0459
C8 C -0.3068(6) 0.2438(5) 0.0706(3)
H7 H -0.3237 0.3019 0.1048
H8 H -0.3746 0.2392 0.0269
C9 C -0.3334(14) 0.1649(9) 0.1022(6)
H9 H -0.4394 0.1612 0.1097
H10 H -0.2656 0.1764 0.1462
H11 H -0.3126 0.1059 0.0711
C10 C 0.1923(5) 0.2946(3) 0.0572(2)
H12 H 0.2975 0.2757 0.0575
H13 H 0.1284 0.2527 0.0160
C11 C 0.1912(7) 0.3942(4) 0.0510(3)
H14 H 0.0848 0.4110 0.0450
H15 H 0.2459 0.4374 0.0941
C12 C 0.2643(10) 0.4068(4) -0.0086(3)
H16 H 0.3706 0.3897 -0.0024
H17 H 0.2098 0.3630 -0.0515
C13 C 0.2649(12) 0.5041(5) -0.0164(4)
H18 H 0.3135 0.5068 -0.0561
H19 H 0.3214 0.5478 0.0252
H20 H 0.1600 0.5213 -0.0236
C14 C 0.2341(5) 0.3420(3) 0.18640(19)
C15 C 0.1965(5) 0.4073(3) 0.2399(2)
H21 H 0.0959 0.4253 0.2424
C16 C 0.3235(5) 0.4468(3) 0.2927(2)
H22 H 0.3150 0.4933 0.3338
C17 C 0.4566(4) 0.4118(3) 0.27835(19)
C18 C 0.6154(4) 0.4303(3) 0.32130(19)
C19 C 0.7299(5) 0.4643(3) 0.2811(2)
H23 H 0.8322 0.4736 0.3092
H24 H 0.7332 0.4142 0.2385
C20 C 0.6965(6) 0.5532(3) 0.2620(3)
H25 H 0.5923 0.5451 0.2357
H26 H 0.6986 0.6042 0.3047
C21 C 0.8042(7) 0.5820(4) 0.2204(3)
H27 H 0.7996 0.5320 0.1770
H28 H 0.9088 0.5882 0.2459
C22 C 0.7733(9) 0.6726(5) 0.2032(3)
H29 H 0.8481 0.6866 0.1757
H30 H 0.7810 0.7232 0.2458
H31 H 0.6708 0.6670 0.1770
C23 C 0.6073(4) 0.5048(3) 0.38977(19)
H32 H 0.5716 0.5621 0.3788
H33 H 0.5298 0.4813 0.4128
C24 C 0.7549(5) 0.5316(3) 0.4404(2)
H34 H 0.7975 0.4744 0.4484
H35 H 0.8296 0.5630 0.4204
C25 C 0.7301(5) 0.5962(3) 0.5081(2)
H36 H 0.6844 0.6523 0.4993
H37 H 0.6561 0.5640 0.5279
C26 C 0.8729(7) 0.6274(5) 0.5606(3)
H38 H 0.8476 0.6687 0.6029
H39 H 0.9459 0.6611 0.5422
H40 H 0.9178 0.5725 0.5706
C27 C 0.6615(4) 0.3392(3) 0.33565(18)
C28 C 0.7806(5) 0.2898(3) 0.3202(2)
H41 H 0.8571 0.3090 0.2976
C29 C 0.7811(5) 0.2054(3) 0.3409(2)
H42 H 0.8579 0.1631 0.3334
C30 C 0.6624(4) 0.1916(3) 0.37211(18)
C31 C 0.6169(4) 0.1113(3) 0.40015(19)
C32 C 0.6072(5) 0.1508(3) 0.4782(2)
H43 H 0.5292 0.1966 0.4830
H44 H 0.5727 0.0989 0.4957
C33 C 0.7551(6) 0.1977(5) 0.5225(2)
H45 H 0.8036 0.2389 0.4992
H46 H 0.8253 0.1494 0.5281
C34 C 0.7289(7) 0.2565(5) 0.5945(3)
H47 H 0.6483 0.2986 0.5879
H48 H 0.6900 0.2133 0.6188
C35 C 0.8607(10) 0.3129(7) 0.6387(4)
H49 H 0.8322 0.3454 0.6830
H50 H 0.8969 0.3589 0.6167
H51 H 0.9417 0.2724 0.6461
C36 C 0.7337(5) 0.0368(3) 0.3880(2)
H52 H 0.7373 0.0153 0.3381
H53 H 0.8355 0.0667 0.4112
C37 C 0.7011(6) -0.0478(3) 0.4133(3)
H54 H 0.7012 -0.0269 0.4636
H55 H 0.5983 -0.0770 0.3912
C38 C 0.8141(7) -0.1195(5) 0.3987(3)
H56 H 0.9171 -0.0899 0.4202
H57 H 0.8131 -0.1408 0.3484
C39 C 0.7834(8) -0.2050(4) 0.4250(4)
H58 H 0.8605 -0.2492 0.4133
H59 H 0.6823 -0.2354 0.4033
H60 H 0.7879 -0.1849 0.4750
C40 C 0.4596(5) 0.0684(3) 0.36290(18)
C41 C 0.3296(5) 0.0563(3) 0.3869(2)
H61 H 0.3228 0.0727 0.4346
C42 C 0.2023(5) 0.0166(3) 0.3346(2)
H62 H 0.1034 0.0037 0.3438
C43 C 0.2380(4) -0.0006(3) 0.27077(19)
C44 C 0.1386(5) -0.0393(3) 0.20046(19)
C45 C 0.1973(5) -0.1326(3) 0.1627(2)
H63 H 0.1319 -0.1571 0.1174
H64 H 0.3013 -0.1192 0.1541
C46 C 0.2017(7) -0.2082(3) 0.1994(3)
H65 H 0.0971 -0.2264 0.2047
H66 H 0.2621 -0.1837 0.2458
C47 C 0.2721(8) -0.2948(5) 0.1597(3)
H67 H 0.2064 -0.3214 0.1147
H68 H 0.3725 -0.2746 0.1506
C48 C 0.2919(12) -0.3671(7) 0.1941(5)
H69 H 0.3356 -0.4197 0.1651
H70 H 0.1931 -0.3884 0.2029
H71 H 0.3605 -0.3424 0.2378
C49 C -0.0292(5) -0.0535(3) 0.2108(2)
H72 H -0.0346 -0.0961 0.2405
H73 H -0.0620 0.0074 0.2353
C50 C -0.1401(5) -0.0936(4) 0.1440(2)
H74 H -0.1126 -0.0639 0.1089
H75 H -0.1293 -0.1615 0.1272
C51 C -0.3037(8) -0.0791(5) 0.1519(3)
H76 H -0.3300 -0.1082 0.1875
H77 H -0.3137 -0.0112 0.1686
C52 C -0.4122(12) -0.1166(7) 0.0900(5)
H78 H -0.5151 -0.1048 0.1000
H79 H -0.4049 -0.1842 0.0733
H80 H -0.3903 -0.0865 0.0548
S1 S 0.11779(13) 0.14583(7) 0.19516(5)
S2 S 0.42649(12) 0.32862(8) 0.19982(5)
S3 S 0.54574(12) 0.28245(8) 0.37581(6)
S4 S 0.42769(12) 0.03125(9) 0.27423(5)
C53? C -0.4183(18) 0.1891(11) 0.0154(8)
H81? H -0.5190 0.1932 0.0296
H82? H -0.3937 0.1237 0.0039
H83? H -0.4185 0.2130 -0.0249
loop_
_geom_bond_atom_site_label_1
_geom_bond_atom_site_label_2
_geom_bond_site_symmetry_1
_geom_bond_site_symmetry_2
C1 C2 1_555 1_555
C2 H1 1_555 1_555
C3 C2 1_555 1_555
H2 C3 1_555 1_555
C4 C3 1_555 1_555
C5 C4 1_555 1_555
C6 C5 1_555 1_555
H3 C6 1_555 1_555
H4 C6 1_555 1_555
C7 C6 1_555 1_555
H5 C7 1_555 1_555
H6 C7 1_555 1_555
C8 C7 1_555 1_555
H7 C8 1_555 1_555
H8 C8 1_555 1_555
C9 C8 1_555 1_555
H9 C9 1_555 1_555
H10 C9 1_555 1_555
H11 C9 1_555 1_555
C10 C5 1_555 1_555
H12 C10 1_555 1_555
H13 C10 1_555 1_555
C11 C10 1_555 1_555
H14 C11 1_555 1_555
H15 C11 1_555 1_555
C12 C11 1_555 1_555
H16 C12 1_555 1_555
H17 C12 1_555 1_555
C13 C12 1_555 1_555
H18 C13 1_555 1_555
H19 C13 1_555 1_555
H20 C13 1_555 1_555
C14 C5 1_555 1_555
C15 C14 1_555 1_555
H21 C15 1_555 1_555
C16 C15 1_555 1_555
H22 C16 1_555 1_555
C17 C16 1_555 1_555
C18 C17 1_555 1_555
C19 C18 1_555 1_555
H23 C19 1_555 1_555
H24 C19 1_555 1_555
C20 C19 1_555 1_555
H25 C20 1_555 1_555
H26 C20 1_555 1_555
C21 C20 1_555 1_555
H27 C21 1_555 1_555
H28 C21 1_555 1_555
C22 C21 1_555 1_555
H29 C22 1_555 1_555
H30 C22 1_555 1_555
H31 C22 1_555 1_555
C23 C18 1_555 1_555
H32 C23 1_555 1_555
H33 C23 1_555 1_555
C24 C23 1_555 1_555
H34 C24 1_555 1_555
H35 C24 1_555 1_555
C25 C24 1_555 1_555
H36 C25 1_555 1_555
H37 C25 1_555 1_555
C26 C25 1_555 1_555
H38 C26 1_555 1_555
H39 C26 1_555 1_555
H40 C26 1_555 1_555
C27 C18 1_555 1_555
C28 C27 1_555 1_555
H41 C28 1_555 1_555
C29 C28 1_555 1_555
H42 C29 1_555 1_555
C30 C29 1_555 1_555
C31 C30 1_555 1_555
C32 C31 1_555 1_555
H43 C32 1_555 1_555
H44 C32 1_555 1_555
C33 C32 1_555 1_555
H45 C33 1_555 1_555
H46 C33 1_555 1_555
C34 C33 1_555 1_555
H47 C34 1_555 1_555
H48 C34 1_555 1_555
C35 C34 1_555 1_555
H49 C35 1_555 1_555
H50 C35 1_555 1_555
H51 C35 1_555 1_555
C36 C31 1_555 1_555
H52 C36 1_555 1_555
H53 C36 1_555 1_555
C37 C36 1_555 1_555
H54 C37 1_555 1_555
H55 C37 1_555 1_555
C38 C37 1_555 1_555
H56 C38 1_555 1_555
H57 C38 1_555 1_555
C39 C38 1_555 1_555
H58 C39 1_555 1_555
H59 C39 1_555 1_555
H60 C39 1_555 1_555
C40 C31 1_555 1_555
C41 C40 1_555 1_555
H61 C41 1_555 1_555
C42 C41 1_555 1_555
H62 C42 1_555 1_555
C43 C42 1_555 1_555
C44 C1 1_555 1_555
C45 C44 1_555 1_555
H63 C45 1_555 1_555
H64 C45 1_555 1_555
C46 C45 1_555 1_555
H65 C46 1_555 1_555
H66 C46 1_555 1_555
C47 C46 1_555 1_555
H67 C47 1_555 1_555
H68 C47 1_555 1_555
C48 C47 1_555 1_555
H69 C48 1_555 1_555
H70 C48 1_555 1_555
H71 C48 1_555 1_555
C49 C44 1_555 1_555
H72 C49 1_555 1_555
H73 C49 1_555 1_555
C50 C49 1_555 1_555
H74 C50 1_555 1_555
H75 C50 1_555 1_555
C51 C50 1_555 1_555
H76 C51 1_555 1_555
H77 C51 1_555 1_555
C52 C51 1_555 1_555
H78 C52 1_555 1_555
H79 C52 1_555 1_555
H80 C52 1_555 1_555
S1 C1 1_555 1_555
S2 C14 1_555 1_555
S3 C27 1_555 1_555
S4 C40 1_555 1_555
C4 S1 1_555 1_555
C17 S2 1_555 1_555
C30 S3 1_555 1_555
C43 C44 1_555 1_555
C43 S4 1_555 1_555

#END
