
#######################################################################
#
#                 Cambridge Crystallographic Data Centre
#                                CCDC 
#
#######################################################################
#
# If this CIF has been generated from an entry in the Cambridge 
# Structural Database, then it will include bibliographic, chemical, 
# crystal, experimental, refinement or atomic coordinate data resulting 
# from the CCDC's data processing and validation procedures.
#
#######################################################################

data_QUPNEV
_chemical_formula_moiety         'C48 H64 S4'
_chemical_name_systematic        
tetraspiro-(cyclooctane-1,5'-calix[4]thiophene-10'-1''-cyclooctane-15',1'''-cyclooctane-20',1''''-cyclooctane)
_symmetry_cell_setting           tetragonal
_symmetry_space_group_name_H-M   'P 43'
_symmetry_Int_Tables_number      78
_space_group_name_Hall           'P 4cw'
loop_
_symmetry_equiv_pos_site_id
_symmetry_equiv_pos_as_xyz
1 x,y,z
2 -x,-y,1/2+z
3 -y,x,3/4+z
4 y,-x,1/4+z
_cell_length_a                   14.0646(4)
_cell_length_b                   14.0646(4)
_cell_length_c                   21.5443(17)
_cell_angle_alpha                90
_cell_angle_beta                 90
_cell_angle_gamma                90
_cell_volume                     4261.74
_exptl_crystal_colour            colorless
_exptl_crystal_description       prism
_chemical_melting_point          '361-362 deg.C'
_cell_formula_units_Z            4
_exptl_crystal_recrystallization_method n-hexane/toluene
loop_
_atom_site_label
_atom_site_type_symbol
_atom_site_fract_x
_atom_site_fract_y
_atom_site_fract_z
C1 C 0.1821(6) 0.7801(6) 0.1138(4)
C2 C 0.2326(7) 0.7962(7) 0.0618(4)
H1 H 0.2060 0.8244 0.0257
C3 C 0.3299(6) 0.7672(7) 0.0657(4)
H2 H 0.3747 0.7750 0.0330
C4 C 0.3509(6) 0.7274(6) 0.1212(4)
C5 C 0.4457(6) 0.6847(6) 0.1430(4)
C6 C 0.4788(6) 0.7392(6) 0.2019(4)
H3 H 0.4273 0.7362 0.2331
H4 H 0.5346 0.7056 0.2194
C7 C 0.5054(6) 0.8428(6) 0.1923(4)
H5 H 0.4784 0.8646 0.1524
H6 H 0.4759 0.8811 0.2257
C8 C 0.6107(7) 0.8615(7) 0.1921(6)
H7 H 0.6188 0.9311 0.1880
H8 H 0.6346 0.8441 0.2338
C9 C 0.6760(7) 0.8169(8) 0.1464(6)
H9 H 0.7405 0.8422 0.1544
H10 H 0.6570 0.8394 0.1046
C10 C 0.6835(8) 0.7104(9) 0.1435(7)
H11 H 0.6747 0.6863 0.1863
H12 H 0.7497 0.6951 0.1314
C11 C 0.6193(6) 0.6534(7) 0.1023(5)
H13 H 0.6121 0.5895 0.1209
H14 H 0.6517 0.6451 0.0618
C12 C 0.5197(6) 0.6931(6) 0.0897(4)
H15 H 0.4937 0.6602 0.0529
H16 H 0.5262 0.7612 0.0789
C13 C 0.4290(6) 0.5805(6) 0.1593(4)
C14 C 0.4627(6) 0.5294(6) 0.2080(4)
H17 H 0.5021 0.5551 0.2397
C15 C 0.4323(6) 0.4331(6) 0.2061(4)
H18 H 0.4511 0.3879 0.2365
C16 C 0.3756(6) 0.4105(6) 0.1588(4)
C17 C 0.3301(6) 0.3159(6) 0.1380(4)
C18 C 0.3781(6) 0.2800(6) 0.0790(4)
H19 H 0.3699 0.3286 0.0462
H20 H 0.3447 0.2219 0.0651
C19 C 0.4840(7) 0.2574(7) 0.0846(5)
H21 H 0.5158 0.2796 0.0462
H22 H 0.5101 0.2953 0.1194
C20 C 0.5115(9) 0.1556(9) 0.0947(8)
H23 H 0.5187 0.1279 0.0528
H24 H 0.5761 0.1575 0.1129
C21 C 0.4621(9) 0.0887(8) 0.1288(8)
H25 H 0.4982 0.0858 0.1682
H26 H 0.4769 0.0284 0.1072
C22 C 0.3696(9) 0.0757(8) 0.1477(8)
H27 H 0.3710 0.0193 0.1752
H28 H 0.3346 0.0560 0.1100
C23 C 0.3057(6) 0.1459(6) 0.1798(4)
H29 H 0.2875 0.1178 0.2202
H30 H 0.2469 0.1510 0.1548
C24 C 0.3403(6) 0.2463(6) 0.1924(4)
H31 H 0.4082 0.2433 0.2043
H32 H 0.3047 0.2720 0.2283
C25 C 0.2247(5) 0.3338(6) 0.1244(4)
C26 C 0.1712(7) 0.3038(7) 0.0773(4)
H33 H 0.1956 0.2649 0.0450
C27 C 0.0747(6) 0.3342(7) 0.0788(4)
H34 H 0.0292 0.3203 0.0475
C28 C 0.0557(6) 0.3860(6) 0.1311(4)
C29 C -0.0372(6) 0.4337(6) 0.1502(4)
C30 C -0.0740(6) 0.3857(6) 0.2118(4)
H35 H -0.0242 0.3920 0.2440
H36 H -0.1307 0.4208 0.2265
C31 C -0.0999(7) 0.2809(7) 0.2055(5)
H37 H -0.0552 0.2518 0.1755
H38 H -0.0887 0.2501 0.2461
C32 C -0.1958(9) 0.2577(8) 0.1858(7)
H39 H -0.1875 0.2190 0.1478
H40 H -0.2198 0.2133 0.2179
C33 C -0.2734(9) 0.3177(9) 0.1727(10)
H41 H -0.2884 0.3475 0.2131
H42 H -0.3265 0.2732 0.1644
C34 C -0.2874(8) 0.3920(10) 0.1290(7)
H43 H -0.3430 0.4290 0.1437
H44 H -0.3070 0.3613 0.0897
C35 C -0.2115(6) 0.4633(7) 0.1125(5)
H45 H -0.2052 0.5085 0.1476
H46 H -0.2337 0.5001 0.0761
C36 C -0.1114(6) 0.4234(7) 0.0975(4)
H47 H -0.1178 0.3551 0.0871
H48 H -0.0869 0.4563 0.0602
C37 C -0.0190(6) 0.5389(6) 0.1639(4)
C38 C -0.0329(6) 0.5900(6) 0.2160(4)
H49 H -0.0602 0.5650 0.2529
C39 C -0.0018(6) 0.6860(6) 0.2094(4)
H50 H -0.0053 0.7309 0.2423
C40 C 0.0327(6) 0.7083(6) 0.1532(4)
C41 C 0.0783(6) 0.7995(6) 0.1292(4)
C42 C 0.0731(6) 0.8751(6) 0.1814(4)
H51 H 0.0057 0.8824 0.1937
H52 H 0.1079 0.8503 0.2179
C43 C 0.1126(7) 0.9738(6) 0.1660(5)
H53 H 0.1425 0.9994 0.2040
H54 H 0.1638 0.9656 0.1349
C44 C 0.0454(8) 1.0474(8) 0.1418(8)
H55 H 0.0271 1.0848 0.1789
H56 H 0.0857 1.0903 0.1165
C45 C -0.0350(10) 1.0385(9) 0.1092(10)
H57 H -0.0165 1.0602 0.0672
H58 H -0.0757 1.0899 0.1260
C46 C -0.1005(9) 0.9647(8) 0.0970(8)
H59 H -0.1435 0.9897 0.0645
H60 H -0.1396 0.9589 0.1350
C47 C -0.0773(7) 0.8611(7) 0.0772(5)
H61 H -0.1058 0.8176 0.1082
H62 H -0.1094 0.8488 0.0371
C48 C 0.0287(7) 0.8339(7) 0.0698(4)
H63 H 0.0336 0.7832 0.0381
H64 H 0.0635 0.8900 0.0539
S1 S 0.25307(15) 0.72559(17) 0.16800(9)
S2 S 0.35946(17) 0.51045(15) 0.11225(9)
S3 S 0.15523(16) 0.39628(18) 0.17625(10)
S4 S 0.03028(18) 0.60888(16) 0.10552(9)
loop_
_geom_bond_atom_site_label_1
_geom_bond_atom_site_label_2
_geom_bond_site_symmetry_1
_geom_bond_site_symmetry_2
C1 C2 1_555 1_555
C2 H1 1_555 1_555
C3 C2 1_555 1_555
H2 C3 1_555 1_555
C4 C3 1_555 1_555
C5 C4 1_555 1_555
C6 C5 1_555 1_555
H3 C6 1_555 1_555
H4 C6 1_555 1_555
C7 C6 1_555 1_555
H5 C7 1_555 1_555
H6 C7 1_555 1_555
C8 C7 1_555 1_555
H7 C8 1_555 1_555
H8 C8 1_555 1_555
C9 C8 1_555 1_555
H9 C9 1_555 1_555
H10 C9 1_555 1_555
C10 C9 1_555 1_555
H11 C10 1_555 1_555
H12 C10 1_555 1_555
C11 C10 1_555 1_555
H13 C11 1_555 1_555
H14 C11 1_555 1_555
C12 C5 1_555 1_555
H15 C12 1_555 1_555
H16 C12 1_555 1_555
C13 C5 1_555 1_555
C14 C13 1_555 1_555
H17 C14 1_555 1_555
C15 C14 1_555 1_555
H18 C15 1_555 1_555
C16 C15 1_555 1_555
C17 C16 1_555 1_555
C18 C17 1_555 1_555
H19 C18 1_555 1_555
H20 C18 1_555 1_555
C19 C18 1_555 1_555
H21 C19 1_555 1_555
H22 C19 1_555 1_555
C20 C19 1_555 1_555
H23 C20 1_555 1_555
H24 C20 1_555 1_555
C21 C20 1_555 1_555
H25 C21 1_555 1_555
H26 C21 1_555 1_555
C22 C21 1_555 1_555
H27 C22 1_555 1_555
H28 C22 1_555 1_555
C23 C22 1_555 1_555
H29 C23 1_555 1_555
H30 C23 1_555 1_555
C24 C17 1_555 1_555
H31 C24 1_555 1_555
H32 C24 1_555 1_555
C25 C17 1_555 1_555
C26 C25 1_555 1_555
H33 C26 1_555 1_555
C27 C26 1_555 1_555
H34 C27 1_555 1_555
C28 C27 1_555 1_555
C29 C28 1_555 1_555
C30 C29 1_555 1_555
H35 C30 1_555 1_555
H36 C30 1_555 1_555
C31 C30 1_555 1_555
H37 C31 1_555 1_555
H38 C31 1_555 1_555
C32 C31 1_555 1_555
H39 C32 1_555 1_555
H40 C32 1_555 1_555
C33 C32 1_555 1_555
H41 C33 1_555 1_555
H42 C33 1_555 1_555
C34 C33 1_555 1_555
H43 C34 1_555 1_555
H44 C34 1_555 1_555
C35 C34 1_555 1_555
H45 C35 1_555 1_555
H46 C35 1_555 1_555
C36 C29 1_555 1_555
H47 C36 1_555 1_555
H48 C36 1_555 1_555
C37 C29 1_555 1_555
C38 C37 1_555 1_555
H49 C38 1_555 1_555
C39 C38 1_555 1_555
H50 C39 1_555 1_555
C40 C39 1_555 1_555
C41 C1 1_555 1_555
C42 C41 1_555 1_555
H51 C42 1_555 1_555
H52 C42 1_555 1_555
C43 C42 1_555 1_555
H53 C43 1_555 1_555
H54 C43 1_555 1_555
C44 C43 1_555 1_555
H55 C44 1_555 1_555
H56 C44 1_555 1_555
C45 C44 1_555 1_555
H57 C45 1_555 1_555
H58 C45 1_555 1_555
C46 C45 1_555 1_555
H59 C46 1_555 1_555
H60 C46 1_555 1_555
C47 C46 1_555 1_555
H61 C47 1_555 1_555
H62 C47 1_555 1_555
C48 C41 1_555 1_555
H63 C48 1_555 1_555
H64 C48 1_555 1_555
S1 C1 1_555 1_555
S2 C13 1_555 1_555
S3 C25 1_555 1_555
S4 C37 1_555 1_555
C4 S1 1_555 1_555
C11 C12 1_555 1_555
C16 S2 1_555 1_555
C23 C24 1_555 1_555
C28 S3 1_555 1_555
C35 C36 1_555 1_555
C40 C41 1_555 1_555
C40 S4 1_555 1_555
C47 C48 1_555 1_555

#END
