
#######################################################################
#
#                 Cambridge Crystallographic Data Centre
#                                CCDC 
#
#######################################################################
#
# If this CIF has been generated from an entry in the Cambridge 
# Structural Database, then it will include bibliographic, chemical, 
# crystal, experimental, refinement or atomic coordinate data resulting 
# from the CCDC's data processing and validation procedures.
#
#######################################################################

data_QUPREA
_chemical_formula_moiety         'C56 H54 N4 Na2 O2'
_chemical_name_systematic        
bis(\m~2~-\h^3^-2-(((triphenylmethyl)imino)methyl)-1H-pyrrol-1-yl)-bis(tetrahydrofuran)-di-sodium
_symmetry_cell_setting           monoclinic
_symmetry_space_group_name_H-M   'P 21/c'
_symmetry_Int_Tables_number      14
_space_group_name_Hall           '-P 2ybc'
loop_
_symmetry_equiv_pos_site_id
_symmetry_equiv_pos_as_xyz
1 x,y,z
2 -x,1/2+y,1/2-z
3 -x,-y,-z
4 x,1/2-y,1/2+z
_cell_length_a                   9.3375(5)
_cell_length_b                   17.8616(9)
_cell_length_c                   15.0867(10)
_cell_angle_alpha                90
_cell_angle_beta                 111.528(5)
_cell_angle_gamma                90
_cell_volume                     2340.67
_exptl_crystal_colour            colorless
_exptl_crystal_description       needle
_cell_formula_units_Z            2
loop_
_atom_site_label
_atom_site_type_symbol
_atom_site_fract_x
_atom_site_fract_y
_atom_site_fract_z
Na1 Na 0.92326(9) 0.91856(4) 0.41972(5)
O1 O 0.72079(18) 0.83319(9) 0.38261(12)
N1 N 0.81199(17) 1.02984(9) 0.44905(11)
N2 N 0.92412(16) 1.00459(8) 0.29225(10)
C1 C 0.8417(2) 1.08474(10) 0.39355(13)
C2 C 0.8069(2) 1.15576(11) 0.41997(14)
H1 H 0.8176 1.2015 0.3936
C3 C 0.7529(2) 1.14414(11) 0.49377(14)
H2 H 0.7208 1.1804 0.5267
C4 C 0.7570(2) 1.06681(11) 0.50778(13)
H3 H 0.7254 1.0434 0.5526
C5 C 0.8895(2) 1.06984(10) 0.31505(13)
H4 H 0.8961 1.1103 0.2779
C6 C 0.96017(19) 0.99931(10) 0.20386(12)
C7 C 0.93253(19) 0.91704(10) 0.17194(13)
C8 C 1.0032(2) 0.86094(11) 0.23851(14)
H5 H 1.0641 0.8743 0.3005
C9 C 0.9839(3) 0.78607(11) 0.21365(16)
H6 H 1.0312 0.7496 0.2590
C10 C 0.8942(2) 0.76513(11) 0.12129(17)
H7 H 0.8793 0.7148 0.1048
C11 C 0.8274(2) 0.81973(12) 0.05437(16)
H8 H 0.7689 0.8060 -0.0079
C12 C 0.8467(2) 0.89531(11) 0.07906(14)
H9 H 0.8016 0.9315 0.0329
C13 C 1.1317(2) 1.01750(10) 0.22547(13)
C14 C 1.2177(2) 1.06285(12) 0.30096(14)
H10 H 1.1735 1.0811 0.3428
C15 C 1.3695(2) 1.08127(13) 0.31482(16)
H11 H 1.4260 1.1113 0.3661
C16 C 1.4364(2) 1.05544(14) 0.25323(17)
H12 H 1.5374 1.0683 0.2623
C17 C 1.3521(2) 1.01024(13) 0.17766(17)
H13 H 1.3964 0.9925 0.1357
C18 C 1.2012(2) 0.99131(12) 0.16438(15)
H14 H 1.1458 0.9605 0.1136
C19 C 0.8557(2) 1.05232(10) 0.12715(12)
C20 C 0.9110(2) 1.10686(11) 0.08231(14)
H15 H 1.0163 1.1110 0.0963
C21 C 0.8103(3) 1.15531(12) 0.01669(16)
H16 H 0.8489 1.1914 -0.0130
C22 C 0.6538(3) 1.15063(12) -0.00494(16)
H17 H 0.5872 1.1836 -0.0485
C23 C 0.5969(2) 1.09657(12) 0.03862(15)
H18 H 0.4914 1.0930 0.0243
C24 C 0.6960(2) 1.04775(11) 0.10346(14)
H19 H 0.6561 1.0112 0.1319
C25 C 0.5876(3) 0.85566(17) 0.4025(2)
H20 H 0.5808 0.9098 0.4040
H21 H 0.5924 0.8358 0.4633
C26 C 0.4517(3) 0.8238(2) 0.3225(3)
H22 H 0.3752 0.8051 0.3464
H23 H 0.4044 0.8617 0.2747
C27 C 0.5119(4) 0.7641(3) 0.2831(3)
H24 H 0.4552 0.7600 0.2150
H25 H 0.5048 0.7169 0.3129
C28 C 0.6743(3) 0.78343(18) 0.3026(2)
H26 H 0.7376 0.7387 0.3172
H27 H 0.6844 0.8077 0.2477
Na1B Na 1.07674(9) 1.08144(4) 0.58028(5)
O1B O 1.27921(18) 1.16681(9) 0.61739(12)
N1B N 1.18801(17) 0.97016(9) 0.55095(11)
N2B N 1.07588(16) 0.99541(8) 0.70775(10)
C1B C 1.1583(2) 0.91526(10) 0.60645(13)
C2B C 1.1931(2) 0.84424(11) 0.58003(14)
H1B H 1.1824 0.7985 0.6064
C3B C 1.2471(2) 0.85586(11) 0.50623(14)
H2B H 1.2792 0.8196 0.4733
C4B C 1.2430(2) 0.93319(11) 0.49222(13)
H3B H 1.2746 0.9566 0.4474
C5B C 1.1105(2) 0.93016(10) 0.68495(13)
H4B H 1.1039 0.8897 0.7221
C6B C 1.03983(19) 1.00069(10) 0.79614(12)
C7B C 1.06747(19) 1.08296(10) 0.82806(13)
C8B C 0.9968(2) 1.13906(11) 0.76149(14)
H5B H 0.9359 1.1257 0.6995
C9B C 1.0161(3) 1.21393(11) 0.78635(16)
H6B H 0.9688 1.2504 0.7410
C10B C 1.1058(2) 1.23487(11) 0.87871(17)
H7B H 1.1207 1.2852 0.8952
C11B C 1.1726(2) 1.18027(12) 0.94563(16)
H8B H 1.2311 1.1940 1.0079
C12B C 1.1533(2) 1.10469(11) 0.92094(14)
H9B H 1.1984 1.0685 0.9671
C13B C 0.8683(2) 0.98250(10) 0.77453(13)
C14B C 0.7823(2) 0.93715(12) 0.69904(14)
H10B H 0.8265 0.9189 0.6572
C15B C 0.6305(2) 0.91873(13) 0.68518(16)
H11B H 0.5740 0.8887 0.6339
C16B C 0.5636(2) 0.94456(14) 0.74677(17)
H12B H 0.4626 0.9317 0.7377
C17B C 0.6479(2) 0.98976(13) 0.82234(17)
H13B H 0.6036 1.0075 0.8643
C18B C 0.7988(2) 1.00869(12) 0.83562(15)
H14B H 0.8542 1.0395 0.8864
C19B C 1.1443(2) 0.94768(10) 0.87285(12)
C20B C 1.0890(2) 0.89314(11) 0.91769(14)
H15B H 0.9837 0.8890 0.9037
C21B C 1.1897(3) 0.84469(12) 0.98331(16)
H16B H 1.1511 0.8086 1.0130
C22B C 1.3462(3) 0.84937(12) 1.00494(16)
H17B H 1.4128 0.8164 1.0485
C23B C 1.4031(2) 0.90343(12) 0.96138(15)
H18B H 1.5086 0.9070 0.9757
C24B C 1.3040(2) 0.95225(11) 0.89654(14)
H19B H 1.3439 0.9888 0.8681
C25B C 1.4124(3) 1.14434(17) 0.5975(2)
H20B H 1.4192 1.0902 0.5960
H21B H 1.4076 1.1642 0.5367
C26B C 1.5483(3) 1.1762(2) 0.6775(3)
H22B H 1.6248 1.1949 0.6536
H23B H 1.5956 1.1383 0.7253
C27B C 1.4881(4) 1.2359(3) 0.7169(3)
H24B H 1.5448 1.2400 0.7850
H25B H 1.4952 1.2831 0.6871
C28B C 1.3257(3) 1.21657(18) 0.6974(2)
H26B H 1.2624 1.2613 0.6828
H27B H 1.3156 1.1923 0.7523
loop_
_geom_bond_atom_site_label_1
_geom_bond_atom_site_label_2
_geom_bond_site_symmetry_1
_geom_bond_site_symmetry_2
Na1 O1 1_555 1_555
O1 C25 1_555 1_555
N1 Na1 1_555 1_555
N2 Na1 1_555 1_555
C1 N1 1_555 1_555
C2 C1 1_555 1_555
H1 C2 1_555 1_555
C3 C2 1_555 1_555
H2 C3 1_555 1_555
C4 N1 1_555 1_555
H3 C4 1_555 1_555
C5 N2 1_555 1_555
H4 C5 1_555 1_555
C6 N2 1_555 1_555
C7 C6 1_555 1_555
C8 C7 1_555 1_555
H5 C8 1_555 1_555
C9 C8 1_555 1_555
H6 C9 1_555 1_555
C10 C9 1_555 1_555
H7 C10 1_555 1_555
C11 C10 1_555 1_555
H8 C11 1_555 1_555
C12 C7 1_555 1_555
H9 C12 1_555 1_555
C13 C6 1_555 1_555
C14 C13 1_555 1_555
H10 C14 1_555 1_555
C15 C14 1_555 1_555
H11 C15 1_555 1_555
C16 C15 1_555 1_555
H12 C16 1_555 1_555
C17 C16 1_555 1_555
H13 C17 1_555 1_555
C18 C13 1_555 1_555
H14 C18 1_555 1_555
C19 C6 1_555 1_555
C20 C19 1_555 1_555
H15 C20 1_555 1_555
C21 C20 1_555 1_555
H16 C21 1_555 1_555
C22 C21 1_555 1_555
H17 C22 1_555 1_555
C23 C22 1_555 1_555
H18 C23 1_555 1_555
C24 C19 1_555 1_555
H19 C24 1_555 1_555
C25 H20 1_555 1_555
H21 C25 1_555 1_555
C26 C25 1_555 1_555
H22 C26 1_555 1_555
H23 C26 1_555 1_555
C27 C26 1_555 1_555
H24 C27 1_555 1_555
H25 C27 1_555 1_555
C28 O1 1_555 1_555
H26 C28 1_555 1_555
H27 C28 1_555 1_555
Na1B N1 1_555 1_555
O1B Na1B 1_555 1_555
N1B Na1 1_555 1_555
N2B Na1B 1_555 1_555
C1B Na1 1_555 1_555
C2B C1B 1_555 1_555
H1B C2B 1_555 1_555
C3B C2B 1_555 1_555
H2B C3B 1_555 1_555
C4B Na1 1_555 1_555
H3B C4B 1_555 1_555
C5B N2B 1_555 1_555
H4B C5B 1_555 1_555
C6B N2B 1_555 1_555
C7B C6B 1_555 1_555
C8B C7B 1_555 1_555
H5B C8B 1_555 1_555
C9B C8B 1_555 1_555
H6B C9B 1_555 1_555
C10B C9B 1_555 1_555
H7B C10B 1_555 1_555
C11B C10B 1_555 1_555
H8B C11B 1_555 1_555
C12B C7B 1_555 1_555
H9B C12B 1_555 1_555
C13B C6B 1_555 1_555
C14B C13B 1_555 1_555
H10B C14B 1_555 1_555
C15B C14B 1_555 1_555
H11B C15B 1_555 1_555
C16B C15B 1_555 1_555
H12B C16B 1_555 1_555
C17B C16B 1_555 1_555
H13B C17B 1_555 1_555
C18B C13B 1_555 1_555
H14B C18B 1_555 1_555
C19B C6B 1_555 1_555
C20B C19B 1_555 1_555
H15B C20B 1_555 1_555
C21B C20B 1_555 1_555
H16B C21B 1_555 1_555
C22B C21B 1_555 1_555
H17B C22B 1_555 1_555
C23B C22B 1_555 1_555
H18B C23B 1_555 1_555
C24B C19B 1_555 1_555
H19B C24B 1_555 1_555
C25B O1B 1_555 1_555
H20B C25B 1_555 1_555
H21B C25B 1_555 1_555
C26B C25B 1_555 1_555
H22B C26B 1_555 1_555
H23B C26B 1_555 1_555
C27B C26B 1_555 1_555
H24B C27B 1_555 1_555
H25B C27B 1_555 1_555
C28B O1B 1_555 1_555
H26B C28B 1_555 1_555
H27B C28B 1_555 1_555
C1 C5 1_555 1_555
C1 Na1B 1_555 1_555
C3 C4 1_555 1_555
C4 Na1B 1_555 1_555
C11 C12 1_555 1_555
C17 C18 1_555 1_555
C23 C24 1_555 1_555
C27 C28 1_555 1_555
Na1B N1B 1_555 1_555
N1B C1B 1_555 1_555
N1B C4B 1_555 1_555
C1B C5B 1_555 1_555
C3B C4B 1_555 1_555
C11B C12B 1_555 1_555
C17B C18B 1_555 1_555
C23B C24B 1_555 1_555
C27B C28B 1_555 1_555

#END
