
#######################################################################
#
#                 Cambridge Crystallographic Data Centre
#                                CCDC 
#
#######################################################################
#
# If this CIF has been generated from an entry in the Cambridge 
# Structural Database, then it will include bibliographic, chemical, 
# crystal, experimental, refinement or atomic coordinate data resulting 
# from the CCDC's data processing and validation procedures.
#
#######################################################################

data_QUPRUQ
_chemical_formula_moiety         'C56 H54 Mg1 N4 O2'
_chemical_name_systematic        
bis(tetrahydrofuran)-bis(2-(tritylcarbonoimidoyl)-1H-pyrrol-1-yl)-magnesium
_symmetry_cell_setting           triclinic
_symmetry_space_group_name_H-M   'P -1'
_symmetry_Int_Tables_number      2
_space_group_name_Hall           '-P 1'
loop_
_symmetry_equiv_pos_site_id
_symmetry_equiv_pos_as_xyz
1 x,y,z
2 -x,-y,-z
_cell_length_a                   9.9208(12)
_cell_length_b                   9.9609(15)
_cell_length_c                   12.4778(12)
_cell_angle_alpha                108.752(11)
_cell_angle_beta                 92.798(9)
_cell_angle_gamma                106.729(12)
_cell_volume                     1104.52
_exptl_crystal_colour            colorless
_exptl_crystal_description       block
_cell_formula_units_Z            1
loop_
_atom_site_label
_atom_site_type_symbol
_atom_site_fract_x
_atom_site_fract_y
_atom_site_fract_z
Mg1 Mg 0.5000 0.5000 0.0000
O1 O 0.34534(12) 0.59288(13) -0.04687(10)
N1 N 0.36909(14) 0.24696(14) -0.15296(11)
C1 C 0.38645(17) 0.15955(17) -0.27150(13)
C2 C 0.53008(17) 0.13229(17) -0.25480(14)
C3 C 0.34269(18) 0.37809(18) -0.31490(14)
H1 H 0.3282 0.4165 -0.2395
C4 C 0.30871(17) 0.41819(18) 0.18498(14)
H2 H 0.3517 0.5054 0.2476
C5 C 0.16109(18) 0.19551(19) 0.07826(15)
H3 H 0.0876 0.1046 0.0521
C6 C 0.38349(19) 0.26638(19) -0.53998(15)
H4 H 0.3974 0.2283 -0.6155
C7 C 0.6675(2) 0.0165(2) -0.16866(15)
H5 H 0.6725 -0.0424 -0.1249
C8 C 0.2289(2) 0.7276(2) -0.12529(17)
H6 H 0.2163 0.8146 -0.0688
H7 H 0.2195 0.7366 -0.2002
C9 C 0.32546(19) 0.45070(19) -0.39006(15)
H8 H 0.3000 0.5372 -0.3645
C10 C 0.28890(19) -0.12597(18) -0.38416(14)
H9 H 0.3810 -0.1305 -0.3756
C11 C 0.64904(18) 0.18826(19) -0.30105(15)
H10 H 0.6440 0.2457 -0.3460
C12 C 0.27901(17) 0.17963(18) -0.10023(14)
H11 H 0.2218 0.0814 -0.1397
C13 C 0.54273(19) 0.04643(19) -0.18772(14)
H12 H 0.4650 0.0085 -0.1551
C14 C 0.12427(18) 0.01142(19) -0.34845(15)
H13 H 0.1055 0.1010 -0.3164
C15 C 0.7759(2) 0.1598(2) -0.28122(16)
H14 H 0.8544 0.1985 -0.3128
C16 C 0.38112(17) 0.24929(18) -0.35017(14)
C17 C 0.34584(18) 0.39549(19) -0.50301(15)
H15 H 0.3344 0.4445 -0.5532
C18 C 0.1775(2) -0.25475(19) -0.44849(15)
H16 H 0.1964 -0.3438 -0.4832
C19 C 0.7854(2) 0.0746(2) -0.21498(16)
H17 H 0.8702 0.0562 -0.2014
C20 C 0.1217(2) 0.5838(2) -0.12449(19)
H18 H 0.0323 0.5987 -0.1053
H19 H 0.1039 0.5038 -0.1980
C21 C 0.0131(2) -0.1170(2) -0.41091(16)
H20 H -0.0793 -0.1134 -0.4192
C22 C 0.0400(2) -0.2513(2) -0.46111(16)
H21 H -0.0342 -0.3379 -0.5028
C23 C 0.40045(18) 0.19379(19) -0.46499(15)
H22 H 0.4251 0.1068 -0.4911
C24 C 0.26365(17) 0.24960(18) 0.01584(14)
C25 C 0.19063(19) 0.30426(19) 0.18695(15)
H23 H 0.1414 0.3011 0.2481
N2 N 0.35454(14) 0.38960(15) 0.08309(11)
C26 C 0.26409(17) 0.00897(18) -0.33272(13)
C27 C 0.3728(2) 0.71127(19) -0.09528(15)
H24 H 0.4169 0.6851 -0.1634
H25 H 0.4360 0.8044 -0.0401
C28 C 0.1962(2) 0.5509(2) -0.03227(18)
H26 H 0.1839 0.6097 0.0432
H27 H 0.1595 0.4456 -0.0422
O1A O 0.65466(12) 0.40712(13) 0.04687(10)
N1A N 0.63091(14) 0.75304(14) 0.15296(11)
C1A C 0.61355(17) 0.84045(17) 0.27150(13)
C2A C 0.46992(17) 0.86771(17) 0.25480(14)
C3A C 0.65731(18) 0.62191(18) 0.31490(14)
H1A H 0.6718 0.5835 0.2395
C4A C 0.69129(17) 0.58181(18) -0.18498(14)
H2A H 0.6483 0.4946 -0.2476
C5A C 0.83891(18) 0.80449(19) -0.07826(15)
H3A H 0.9124 0.8954 -0.0521
C6A C 0.61651(19) 0.73362(19) 0.53998(15)
H4A H 0.6026 0.7717 0.6155
C7A C 0.3325(2) 0.9835(2) 0.16866(15)
H5A H 0.3275 1.0424 0.1249
C8A C 0.7711(2) 0.2724(2) 0.12529(17)
H6A H 0.7837 0.1854 0.0688
H7A H 0.7805 0.2634 0.2002
C9A C 0.67454(19) 0.54930(19) 0.39006(15)
H8A H 0.7000 0.4628 0.3645
C10A C 0.71110(19) 1.12597(18) 0.38416(14)
H9A H 0.6190 1.1305 0.3756
C11A C 0.35096(18) 0.81174(19) 0.30105(15)
H10A H 0.3560 0.7543 0.3460
C12A C 0.72099(17) 0.82037(18) 0.10023(14)
H11A H 0.7782 0.9186 0.1397
C13A C 0.45727(19) 0.95357(19) 0.18772(14)
H12A H 0.5350 0.9915 0.1551
C14A C 0.87573(18) 0.98858(19) 0.34845(15)
H13A H 0.8945 0.8990 0.3164
C15A C 0.2241(2) 0.8402(2) 0.28122(16)
H14A H 0.1456 0.8015 0.3128
C16A C 0.61888(17) 0.75071(18) 0.35017(14)
C17A C 0.65416(18) 0.60451(19) 0.50301(15)
H15A H 0.6656 0.5555 0.5532
C18A C 0.8225(2) 1.25475(19) 0.44849(15)
H16A H 0.8036 1.3438 0.4832
C19A C 0.2146(2) 0.9254(2) 0.21498(16)
H17A H 0.1298 0.9438 0.2014
C20A C 0.8783(2) 0.4162(2) 0.12449(19)
H18A H 0.9677 0.4013 0.1053
H19A H 0.8961 0.4962 0.1980
C21A C 0.9869(2) 1.1170(2) 0.41091(16)
H20A H 1.0793 1.1134 0.4192
C22A C 0.9600(2) 1.2513(2) 0.46111(16)
H21A H 1.0342 1.3379 0.5028
C23A C 0.59955(18) 0.80621(19) 0.46499(15)
H22A H 0.5749 0.8932 0.4911
C24A C 0.73635(17) 0.75040(18) -0.01584(14)
C25A C 0.80937(19) 0.69574(19) -0.18695(15)
H23A H 0.8586 0.6989 -0.2481
N2A N 0.64546(14) 0.61040(15) -0.08309(11)
C26A C 0.73591(17) 0.99103(18) 0.33272(13)
C27A C 0.6272(2) 0.28873(19) 0.09528(15)
H24A H 0.5831 0.3149 0.1634
H25A H 0.5640 0.1956 0.0401
C28A C 0.8038(2) 0.4491(2) 0.03227(18)
H26A H 0.8161 0.3903 -0.0432
H27A H 0.8405 0.5544 0.0422
loop_
_geom_bond_atom_site_label_1
_geom_bond_atom_site_label_2
_geom_bond_site_symmetry_1
_geom_bond_site_symmetry_2
Mg1 O1 1_555 1_555
O1 C27 1_555 1_555
N1 Mg1 1_555 1_555
C1 N1 1_555 1_555
C2 C1 1_555 1_555
C3 H1 1_555 1_555
C4 H2 1_555 1_555
C5 H3 1_555 1_555
C6 H4 1_555 1_555
C7 H5 1_555 1_555
C8 H6 1_555 1_555
H7 C8 1_555 1_555
C9 C3 1_555 1_555
H8 C9 1_555 1_555
C10 H9 1_555 1_555
C11 C2 1_555 1_555
H10 C11 1_555 1_555
C12 N1 1_555 1_555
H11 C12 1_555 1_555
C13 C2 1_555 1_555
H12 C13 1_555 1_555
C14 H13 1_555 1_555
C15 C11 1_555 1_555
H14 C15 1_555 1_555
C16 C1 1_555 1_555
C17 C6 1_555 1_555
H15 C17 1_555 1_555
C18 C10 1_555 1_555
H16 C18 1_555 1_555
C19 C7 1_555 1_555
H17 C19 1_555 1_555
C20 C8 1_555 1_555
H18 C20 1_555 1_555
H19 C20 1_555 1_555
C21 C14 1_555 1_555
H20 C21 1_555 1_555
C22 C18 1_555 1_555
H21 C22 1_555 1_555
C23 C6 1_555 1_555
H22 C23 1_555 1_555
C24 C5 1_555 1_555
C25 C4 1_555 1_555
H23 C25 1_555 1_555
N2 Mg1 1_555 1_555
C26 C1 1_555 1_555
C27 C8 1_555 1_555
H24 C27 1_555 1_555
H25 C27 1_555 1_555
C28 O1 1_555 1_555
H26 C28 1_555 1_555
H27 C28 1_555 1_555
O1A Mg1 1_555 1_555
N1A Mg1 1_555 1_555
C1A N1A 1_555 1_555
C2A C1A 1_555 1_555
C3A H1A 1_555 1_555
C4A H2A 1_555 1_555
C5A H3A 1_555 1_555
C6A H4A 1_555 1_555
C7A H5A 1_555 1_555
C8A H6A 1_555 1_555
H7A C8A 1_555 1_555
C9A C3A 1_555 1_555
H8A C9A 1_555 1_555
C10A H9A 1_555 1_555
C11A C2A 1_555 1_555
H10A C11A 1_555 1_555
C12A N1A 1_555 1_555
H11A C12A 1_555 1_555
C13A C2A 1_555 1_555
H12A C13A 1_555 1_555
C14A H13A 1_555 1_555
C15A C11A 1_555 1_555
H14A C15A 1_555 1_555
C16A C1A 1_555 1_555
C17A C6A 1_555 1_555
H15A C17A 1_555 1_555
C18A C10A 1_555 1_555
H16A C18A 1_555 1_555
C19A C7A 1_555 1_555
H17A C19A 1_555 1_555
C20A C8A 1_555 1_555
H18A C20A 1_555 1_555
H19A C20A 1_555 1_555
C21A C14A 1_555 1_555
H20A C21A 1_555 1_555
C22A C18A 1_555 1_555
H21A C22A 1_555 1_555
C23A C6A 1_555 1_555
H22A C23A 1_555 1_555
C24A C5A 1_555 1_555
C25A C4A 1_555 1_555
H23A C25A 1_555 1_555
N2A Mg1 1_555 1_555
C26A C1A 1_555 1_555
C27A O1A 1_555 1_555
H24A C27A 1_555 1_555
H25A C27A 1_555 1_555
C28A O1A 1_555 1_555
H26A C28A 1_555 1_555
H27A C28A 1_555 1_555
C3 C16 1_555 1_555
C4 N2 1_555 1_555
C5 C25 1_555 1_555
C7 C13 1_555 1_555
C9 C17 1_555 1_555
C10 C26 1_555 1_555
C12 C24 1_555 1_555
C14 C26 1_555 1_555
C15 C19 1_555 1_555
C16 C23 1_555 1_555
C20 C28 1_555 1_555
C21 C22 1_555 1_555
C24 N2 1_555 1_555
C3A C16A 1_555 1_555
C4A N2A 1_555 1_555
C5A C25A 1_555 1_555
C7A C13A 1_555 1_555
C8A C27A 1_555 1_555
C9A C17A 1_555 1_555
C10A C26A 1_555 1_555
C12A C24A 1_555 1_555
C14A C26A 1_555 1_555
C15A C19A 1_555 1_555
C16A C23A 1_555 1_555
C20A C28A 1_555 1_555
C21A C22A 1_555 1_555
C24A N2A 1_555 1_555

#END
