
#######################################################################
#
#                 Cambridge Crystallographic Data Centre
#                                CCDC 
#
#######################################################################
#
# If this CIF has been generated from an entry in the Cambridge 
# Structural Database, then it will include bibliographic, chemical, 
# crystal, experimental, refinement or atomic coordinate data resulting 
# from the CCDC's data processing and validation procedures.
#
#######################################################################

data_QUPSEB
_chemical_formula_moiety         'C56 H54 N4 O2 Sr1,C4 H8 O1'
_chemical_name_systematic        
'bis(2-(((triphenylmethyl)imino)methyl)-1H-pyrrol-1-yl)-bis(tetrahydrofuran)-strontium tetrahydrofuran solvate'
_symmetry_cell_setting           triclinic
_symmetry_space_group_name_H-M   'P -1'
_symmetry_Int_Tables_number      2
_space_group_name_Hall           '-P 1'
loop_
_symmetry_equiv_pos_site_id
_symmetry_equiv_pos_as_xyz
1 x,y,z
2 -x,-y,-z
_cell_length_a                   11.5131(13)
_cell_length_b                   13.2509(13)
_cell_length_c                   18.1457(15)
_cell_angle_alpha                75.334(8)
_cell_angle_beta                 78.968(9)
_cell_angle_gamma                71.140(10)
_cell_volume                     2516.11
_exptl_crystal_colour            colorless
_exptl_crystal_description       plates
_cell_formula_units_Z            2
loop_
_atom_site_label
_atom_site_type_symbol
_atom_site_fract_x
_atom_site_fract_y
_atom_site_fract_z
Sr1 Sr 0.80801(5) 0.18078(5) 0.22746(3)
O1 O 0.9645(5) 0.2628(4) 0.2621(3)
O2 O 0.9932(5) 0.0415(4) 0.1674(3)
N1 N 0.8660(5) 0.0320(4) 0.3474(3)
N2 N 0.6848(5) 0.0328(4) 0.2522(3)
N3 N 0.8553(5) 0.2981(4) 0.0973(3)
N4 N 0.6704(5) 0.3889(4) 0.2174(3)
C1 C 0.9362(6) -0.0007(5) 0.4063(4)
H1 H 0.9925 0.0334 0.4112
C2 C 0.9138(7) -0.0914(6) 0.4584(4)
H2 H 0.9502 -0.1271 0.5031
C3 C 0.8262(7) -0.1179(6) 0.4302(4)
H3 H 0.7923 -0.1751 0.4522
C4 C 0.7991(6) -0.0422(5) 0.3626(3)
C5 C 0.7104(6) -0.0382(5) 0.3147(3)
H4 H 0.6684 -0.0908 0.3300
C6 C 0.5918(6) 0.0200(5) 0.2108(4)
C7 C 0.6533(6) -0.0667(5) 0.1603(4)
C8 C 0.5882(7) -0.0715(6) 0.1039(4)
H5 H 0.5124 -0.0201 0.0951
C9 C 0.6357(8) -0.1525(6) 0.0611(4)
H6 H 0.5903 -0.1569 0.0254
C10 C 0.7509(8) -0.2268(6) 0.0719(5)
H7 H 0.7838 -0.2804 0.0429
C11 C 0.8169(8) -0.2207(6) 0.1262(4)
H8 H 0.8944 -0.2703 0.1333
C12 C 0.7689(7) -0.1414(5) 0.1703(4)
H9 H 0.8141 -0.1383 0.2066
C13 C 0.4851(6) -0.0108(5) 0.2678(4)
C14 C 0.4530(6) -0.1047(5) 0.2747(4)
H10 H 0.4950 -0.1523 0.2420
C15 C 0.3590(7) -0.1293(6) 0.3296(4)
H11 H 0.3386 -0.1929 0.3330
C16 C 0.2950(7) -0.0610(6) 0.3795(4)
H12 H 0.2317 -0.0779 0.4159
C17 C 0.3273(6) 0.0343(6) 0.3742(4)
H13 H 0.2855 0.0812 0.4073
C18 C 0.4215(6) 0.0582(6) 0.3194(4)
H14 H 0.4432 0.1210 0.3166
C19 C 0.5451(6) 0.1306(5) 0.1545(3)
C20 C 0.4206(6) 0.1841(5) 0.1477(4)
H15 H 0.3606 0.1557 0.1802
C21 C 0.3849(7) 0.2787(6) 0.0936(4)
H16 H 0.3014 0.3124 0.0891
C22 C 0.4723(7) 0.3238(6) 0.0461(4)
H17 H 0.4476 0.3886 0.0106
C23 C 0.5972(7) 0.2719(6) 0.0518(4)
H18 H 0.6570 0.3013 0.0200
C24 C 0.6313(6) 0.1755(6) 0.1056(4)
H19 H 0.7149 0.1401 0.1087
C25 C 0.9353(6) 0.2968(6) 0.0323(4)
H20 H 0.9926 0.2336 0.0202
C26 C 0.9235(6) 0.3990(6) -0.0145(4)
H21 H 0.9687 0.4164 -0.0617
C27 C 0.8296(6) 0.4702(5) 0.0242(4)
H22 H 0.7994 0.5452 0.0077
C28 C 0.7897(6) 0.4081(5) 0.0917(3)
C29 C 0.6956(6) 0.4474(5) 0.1514(3)
H23 H 0.6498 0.5204 0.1415
C30 C 0.5692(6) 0.4457(5) 0.2717(4)
C31 C 0.5310(6) 0.3551(5) 0.3338(4)
C32 C 0.6244(6) 0.2706(5) 0.3718(4)
H24 H 0.7066 0.2700 0.3572
C33 C 0.5965(7) 0.1892(6) 0.4299(4)
H25 H 0.6594 0.1333 0.4534
C34 C 0.4734(7) 0.1911(6) 0.4533(4)
H26 H 0.4538 0.1364 0.4925
C35 C 0.3812(7) 0.2739(6) 0.4185(4)
H27 H 0.2992 0.2753 0.4348
C36 C 0.4088(6) 0.3566(5) 0.3587(4)
H28 H 0.3453 0.4124 0.3358
C37 C 0.4616(6) 0.5226(5) 0.2284(3)
C38 C 0.4027(6) 0.4803(5) 0.1879(4)
H29 H 0.4278 0.4058 0.1892
C39 C 0.3083(7) 0.5471(6) 0.1461(4)
H30 H 0.2695 0.5171 0.1203
C40 C 0.2702(7) 0.6593(6) 0.1420(4)
H31 H 0.2061 0.7042 0.1139
C41 C 0.3287(8) 0.7023(6) 0.1800(5)
H32 H 0.3045 0.7772 0.1770
C42 C 0.4239(7) 0.6356(6) 0.2229(4)
H33 H 0.4628 0.6663 0.2481
C43 C 0.6185(7) 0.5093(5) 0.3138(4)
C44 C 0.5518(7) 0.5409(6) 0.3797(4)
H34 H 0.4819 0.5181 0.4006
C45 C 0.5862(8) 0.6067(6) 0.4165(4)
H35 H 0.5391 0.6272 0.4609
C46 C 0.6907(9) 0.6408(8) 0.3862(5)
H36 H 0.7142 0.6847 0.4097
C47 C 0.7593(9) 0.6082(7) 0.3203(5)
H37 H 0.8304 0.6294 0.3000
C48 C 0.7235(7) 0.5443(6) 0.2843(4)
H38 H 0.7702 0.5244 0.2396
C49 C 1.0153(7) -0.0005(7) 0.0995(5)
H39 H 0.9614 0.0487 0.0623
H40 H 0.9997 -0.0710 0.1112
C50 C 1.1516(7) -0.0116(6) 0.0673(4)
H41 H 1.1957 -0.0860 0.0624
H42 H 1.1583 0.0365 0.0176
C51 C 1.2020(7) 0.0214(7) 0.1268(5)
H43 H 1.2841 -0.0261 0.1362
H44 H 1.2051 0.0961 0.1103
C52 C 1.1104(7) 0.0086(7) 0.1971(4)
H45 H 1.1294 -0.0665 0.2251
H46 H 1.1101 0.0549 0.2309
C53 C 1.0435(9) 0.3171(8) 0.2066(6)
H47 H 0.9970 0.3689 0.1667
H48 H 1.1106 0.2645 0.1830
C54 C 1.0935(11) 0.3749(11) 0.2488(8)
H49 H 1.1810 0.3651 0.2326
H50 H 1.0505 0.4523 0.2395
C55 C 1.0722(11) 0.3255(11) 0.3293(8)
H51 H 1.0498 0.3799 0.3606
H52 H 1.1461 0.2693 0.3458
C56 C 0.9710(12) 0.2783(10) 0.3364(6)
H53 H 0.9860 0.2091 0.3728
H54 H 0.8936 0.3269 0.3546
O3 O 0.1463(19) 0.6964(16) 0.3728(12)
C57 C 0.0761(14) 0.6310(14) 0.3504(9)
H55 H -0.0121 0.6673 0.3552
H56 H 0.1037 0.6217 0.2979
C58 C 0.1025(12) 0.5318(10) 0.4010(7)
H57 H 0.0306 0.5050 0.4141
H58 H 0.1697 0.4790 0.3776
C59 C 0.135(2) 0.5451(19) 0.4639(12)
H59 H 0.2101 0.4882 0.4767
H60 H 0.0706 0.5358 0.5060
C60 C 0.154(2) 0.6449(19) 0.4577(14)
H61 H 0.2340 0.6360 0.4719
H62 H 0.0900 0.6884 0.4897
loop_
_geom_bond_atom_site_label_1
_geom_bond_atom_site_label_2
_geom_bond_site_symmetry_1
_geom_bond_site_symmetry_2
Sr1 O1 1_555 1_555
O1 C53 1_555 1_555
O2 Sr1 1_555 1_555
N1 Sr1 1_555 1_555
N2 Sr1 1_555 1_555
N3 Sr1 1_555 1_555
N4 Sr1 1_555 1_555
C1 N1 1_555 1_555
H1 C1 1_555 1_555
C2 C1 1_555 1_555
H2 C2 1_555 1_555
C3 C2 1_555 1_555
H3 C3 1_555 1_555
C4 N1 1_555 1_555
C5 N2 1_555 1_555
H4 C5 1_555 1_555
C6 N2 1_555 1_555
C7 C6 1_555 1_555
C8 C7 1_555 1_555
H5 C8 1_555 1_555
C9 C8 1_555 1_555
H6 C9 1_555 1_555
C10 C9 1_555 1_555
H7 C10 1_555 1_555
C11 C10 1_555 1_555
H8 C11 1_555 1_555
C12 C7 1_555 1_555
H9 C12 1_555 1_555
C13 C6 1_555 1_555
C14 C13 1_555 1_555
H10 C14 1_555 1_555
C15 C14 1_555 1_555
H11 C15 1_555 1_555
C16 C15 1_555 1_555
H12 C16 1_555 1_555
C17 C16 1_555 1_555
H13 C17 1_555 1_555
C18 C13 1_555 1_555
H14 C18 1_555 1_555
C19 C6 1_555 1_555
C20 C19 1_555 1_555
H15 C20 1_555 1_555
C21 C20 1_555 1_555
H16 C21 1_555 1_555
C22 C21 1_555 1_555
H17 C22 1_555 1_555
C23 C22 1_555 1_555
H18 C23 1_555 1_555
C24 C19 1_555 1_555
H19 C24 1_555 1_555
C25 N3 1_555 1_555
H20 C25 1_555 1_555
C26 C25 1_555 1_555
H21 C26 1_555 1_555
C27 C26 1_555 1_555
H22 C27 1_555 1_555
C28 N3 1_555 1_555
C29 N4 1_555 1_555
H23 C29 1_555 1_555
C30 N4 1_555 1_555
C31 C30 1_555 1_555
C32 C31 1_555 1_555
H24 C32 1_555 1_555
C33 C32 1_555 1_555
H25 C33 1_555 1_555
C34 C33 1_555 1_555
H26 C34 1_555 1_555
C35 C34 1_555 1_555
H27 C35 1_555 1_555
C36 C31 1_555 1_555
H28 C36 1_555 1_555
C37 C30 1_555 1_555
C38 C37 1_555 1_555
H29 C38 1_555 1_555
C39 C38 1_555 1_555
H30 C39 1_555 1_555
C40 C39 1_555 1_555
H31 C40 1_555 1_555
C41 C40 1_555 1_555
H32 C41 1_555 1_555
C42 C37 1_555 1_555
H33 C42 1_555 1_555
C43 C30 1_555 1_555
C44 C43 1_555 1_555
H34 C44 1_555 1_555
C45 C44 1_555 1_555
H35 C45 1_555 1_555
C46 C45 1_555 1_555
H36 C46 1_555 1_555
C47 C46 1_555 1_555
H37 C47 1_555 1_555
C48 C43 1_555 1_555
H38 C48 1_555 1_555
C49 O2 1_555 1_555
H39 C49 1_555 1_555
H40 C49 1_555 1_555
C50 C49 1_555 1_555
H41 C50 1_555 1_555
H42 C50 1_555 1_555
C51 C50 1_555 1_555
H43 C51 1_555 1_555
H44 C51 1_555 1_555
C52 O2 1_555 1_555
H45 C52 1_555 1_555
H46 C52 1_555 1_555
C53 H47 1_555 1_555
H48 C53 1_555 1_555
C54 C53 1_555 1_555
H49 C54 1_555 1_555
H50 C54 1_555 1_555
C55 C54 1_555 1_555
H51 C55 1_555 1_555
H52 C55 1_555 1_555
C56 O1 1_555 1_555
H53 C56 1_555 1_555
H54 C56 1_555 1_555
O3 C57 1_555 1_555
C57 H55 1_555 1_555
H56 C57 1_555 1_555
C58 C57 1_555 1_555
H57 C58 1_555 1_555
H58 C58 1_555 1_555
C59 C58 1_555 1_555
H59 C59 1_555 1_555
H60 C59 1_555 1_555
C60 O3 1_555 1_555
H61 C60 1_555 1_555
H62 C60 1_555 1_555
C3 C4 1_555 1_555
C4 C5 1_555 1_555
C11 C12 1_555 1_555
C17 C18 1_555 1_555
C23 C24 1_555 1_555
C27 C28 1_555 1_555
C28 C29 1_555 1_555
C35 C36 1_555 1_555
C41 C42 1_555 1_555
C47 C48 1_555 1_555
C51 C52 1_555 1_555
C55 C56 1_555 1_555
C59 C60 1_555 1_555

#END
