
#######################################################################
#
#                 Cambridge Crystallographic Data Centre
#                                CCDC 
#
#######################################################################
#
# If this CIF has been generated from an entry in the Cambridge 
# Structural Database, then it will include bibliographic, chemical, 
# crystal, experimental, refinement or atomic coordinate data resulting 
# from the CCDC's data processing and validation procedures.
#
#######################################################################

data_QUPTEB
_chemical_name_common            
'1,5-Dimexylbiguanidium chloride methanol solvate'
_chemical_formula_moiety         'C18 H24 N5 1+,Cl1 1-,C1 H4 O1'
_chemical_name_systematic        
'1,5-bis(3,5-Dimethylphenyl)biguanidium chloride methanol solvate'
_symmetry_cell_setting           monoclinic
_symmetry_space_group_name_H-M   'P 21/c'
_symmetry_Int_Tables_number      14
_space_group_name_Hall           '-P 2ybc'
loop_
_symmetry_equiv_pos_site_id
_symmetry_equiv_pos_as_xyz
1 x,y,z
2 -x,1/2+y,1/2-z
3 -x,-y,-z
4 x,1/2-y,1/2+z
_cell_length_a                   12.3594(6)
_cell_length_b                   15.7342(10)
_cell_length_c                   11.1135(6)
_cell_angle_alpha                90
_cell_angle_beta                 110.845(3)
_cell_angle_gamma                90
_cell_volume                     2019.73
_exptl_crystal_colour            colorless
_exptl_crystal_description       block
_chemical_melting_point          '234 deg.C (dec.)'
_cell_formula_units_Z            4
_exptl_crystal_recrystallization_method methanol
loop_
_atom_site_label
_atom_site_type_symbol
_atom_site_fract_x
_atom_site_fract_y
_atom_site_fract_z
Cl1 Cl 0.48876(6) 0.67455(4) -0.00381(6)
N1 N 0.59223(18) 0.86204(13) 0.07358(19)
H1 H 0.5555 0.8160 0.0352
N2 N 0.62697(16) 0.94809(13) 0.25265(18)
N3 N 0.65742(17) 1.02251(13) 0.44229(19)
H2 H 0.6274 1.0601 0.4801
N4 N 0.4866(2) 0.84038(14) 0.2006(2)
H3 H 0.4695 0.8504 0.2697
H4 H 0.4502 0.8000 0.1466
N5 N 0.47519(17) 1.01721(14) 0.2939(2)
H5 H 0.4254 1.0035 0.2174
H6 H 0.4521 1.0469 0.3475
C1 C 0.6668(2) 0.89806(16) 0.0162(2)
C2 C 0.6994(2) 0.84313(17) -0.0632(2)
H7 H 0.6738 0.7858 -0.0720
C3 C 0.7689(2) 0.87104(18) -0.1297(2)
C4 C 0.8072(2) 0.95423(19) -0.1127(3)
H8 H 0.8559 0.9737 -0.1565
C5 C 0.7765(2) 1.01050(18) -0.0333(2)
C6 C 0.7038(2) 0.98179(16) 0.0302(2)
H9 H 0.6799 1.0196 0.0826
C7 C 0.7994(3) 0.8113(2) -0.2183(3)
H10 H 0.7840 0.7527 -0.1993
H11 H 0.8817 0.8174 -0.2057
H12 H 0.7525 0.8248 -0.3078
C8 C 0.8207(3) 1.1001(2) -0.0161(3)
H13 H 0.8038 1.1265 -0.1007
H14 H 0.9046 1.0999 0.0305
H15 H 0.7827 1.1324 0.0330
C9 C 0.5681(2) 0.88665(15) 0.1777(2)
C10 C 0.5858(2) 0.99299(15) 0.3285(2)
C11 C 0.7752(2) 1.00112(15) 0.5097(2)
C12 C 0.8205(2) 0.92171(16) 0.5035(2)
H16 H 0.7735 0.8793 0.4485
C13 C 0.9355(2) 0.90383(16) 0.5781(2)
C14 C 1.0020(2) 0.96700(17) 0.6574(2)
H17 H 1.0805 0.9553 0.7079
C15 C 0.9570(2) 1.04698(16) 0.6650(2)
C16 C 0.8424(2) 1.06356(16) 0.5903(2)
H18 H 0.8099 1.1177 0.5942
C17 C 0.9850(2) 0.81695(17) 0.5739(3)
H19 H 0.9233 0.7744 0.5552
H20 H 1.0451 0.8044 0.6574
H21 H 1.0188 0.8155 0.5065
C18 C 1.0300(2) 1.11412(19) 0.7531(3)
H22 H 0.9898 1.1689 0.7332
H23 H 1.1045 1.1184 0.7408
H24 H 1.0432 1.0988 0.8427
C19 C 0.3043(3) 0.8185(2) -0.2611(4)
H25 H 0.2605 0.8714 -0.2695
H26 H 0.2951 0.7969 -0.3469
H27 H 0.3864 0.8293 -0.2127
O1 O 0.2627(3) 0.7583(2) -0.1960(3)
H28 H 0.342(4) 0.717(3) -0.110(5)
loop_
_geom_bond_atom_site_label_1
_geom_bond_atom_site_label_2
_geom_bond_site_symmetry_1
_geom_bond_site_symmetry_2
N1 H1 1_555 1_555
N2 C9 1_555 1_555
N3 H2 1_555 1_555
N4 H3 1_555 1_555
H4 N4 1_555 1_555
N5 H5 1_555 1_555
H6 N5 1_555 1_555
C1 N1 1_555 1_555
C2 C1 1_555 1_555
H7 C2 1_555 1_555
C3 C2 1_555 1_555
C4 C3 1_555 1_555
H8 C4 1_555 1_555
C5 C4 1_555 1_555
C6 C1 1_555 1_555
H9 C6 1_555 1_555
C7 C3 1_555 1_555
H10 C7 1_555 1_555
H11 C7 1_555 1_555
H12 C7 1_555 1_555
C8 C5 1_555 1_555
H13 C8 1_555 1_555
H14 C8 1_555 1_555
H15 C8 1_555 1_555
C9 N1 1_555 1_555
C10 N2 1_555 1_555
C11 N3 1_555 1_555
C12 C11 1_555 1_555
H16 C12 1_555 1_555
C13 C12 1_555 1_555
C14 C13 1_555 1_555
H17 C14 1_555 1_555
C15 C14 1_555 1_555
C16 C11 1_555 1_555
H18 C16 1_555 1_555
C17 C13 1_555 1_555
H19 C17 1_555 1_555
H20 C17 1_555 1_555
H21 C17 1_555 1_555
C18 C15 1_555 1_555
H22 C18 1_555 1_555
H23 C18 1_555 1_555
H24 C18 1_555 1_555
C19 H25 1_555 1_555
H26 C19 1_555 1_555
H27 C19 1_555 1_555
O1 C19 1_555 1_555
H28 O1 1_555 1_555
N3 C10 1_555 1_555
N4 C9 1_555 1_555
N5 C10 1_555 1_555
C5 C6 1_555 1_555
C15 C16 1_555 1_555

#END
