
#######################################################################
#
#                 Cambridge Crystallographic Data Centre
#                                CCDC 
#
#######################################################################
#
# If this CIF has been generated from an entry in the Cambridge 
# Structural Database, then it will include bibliographic, chemical, 
# crystal, experimental, refinement or atomic coordinate data resulting 
# from the CCDC's data processing and validation procedures.
#
#######################################################################

data_QUQDOX
_chemical_formula_moiety         'C24 H20 Cl1 N1 O2'
_chemical_name_systematic        
3-(1-chloro-2,3,3-triphenylprop-1-en-1-yl)-1,3-oxazolidin-2-one
_symmetry_cell_setting           monoclinic
_symmetry_space_group_name_H-M   'P 21/n'
_symmetry_Int_Tables_number      14
_space_group_name_Hall           '-P 2yn'
loop_
_symmetry_equiv_pos_site_id
_symmetry_equiv_pos_as_xyz
1 x,y,z
2 1/2-x,1/2+y,1/2-z
3 -x,-y,-z
4 1/2+x,1/2-y,1/2+z
_cell_length_a                   8.7898(8)
_cell_length_b                   21.266(2)
_cell_length_c                   10.9725(11)
_cell_angle_alpha                90
_cell_angle_beta                 106.651(2)
_cell_angle_gamma                90
_cell_volume                     1965.02
_exptl_crystal_colour            colorless
_exptl_crystal_description       block
_cell_formula_units_Z            4
loop_
_atom_site_label
_atom_site_type_symbol
_atom_site_fract_x
_atom_site_fract_y
_atom_site_fract_z
Cl1 Cl 0.30648(7) 0.25015(2) 0.15025(6)
C1 C 0.1607(2) 0.13763(8) 0.12932(17)
C2 C 0.0724(2) 0.08153(8) 0.16659(17)
H1 H 0.0052 0.0651 0.0856
C3 C 0.1953(2) 0.19037(8) 0.19597(18)
C4 C -0.0422(2) 0.09560(9) 0.24465(18)
C5 C 0.2021(2) 0.12916(8) 0.00707(18)
C6 C 0.1868(2) 0.02802(8) 0.22261(17)
C7 C 0.1357(2) 0.16899(10) -0.09436(19)
H2 H 0.0709 0.2020 -0.0842
C8 C 0.3411(2) 0.03826(10) 0.29558(19)
H3 H 0.3790 0.0791 0.3120
C9 C 0.2500(3) 0.20559(10) 0.4220(2)
C10 C 0.1329(2) -0.03331(9) 0.2003(2)
H4 H 0.0294 -0.0409 0.1511
C11 C 0.2995(3) 0.08087(10) -0.0117(2)
H5 H 0.3468 0.0539 0.0551
C12 C 0.1647(2) 0.16016(12) -0.2100(2)
H6 H 0.1189 0.1872 -0.2771
C13 C 0.3848(3) -0.07261(10) 0.3227(2)
H7 H 0.4508 -0.1063 0.3566
C14 C -0.0075(3) 0.08099(11) 0.3733(2)
H8 H 0.0894 0.0626 0.4150
C15 C 0.3266(3) 0.07254(12) -0.1284(2)
H9 H 0.3909 0.0396 -0.1398
C16 C 0.4402(3) -0.01222(10) 0.3446(2)
H10 H 0.5446 -0.0050 0.3925
C17 C 0.2600(3) 0.11221(12) -0.2276(2)
H11 H 0.2792 0.1066 -0.3060
C18 C 0.2309(3) -0.08312(10) 0.2502(2)
H12 H 0.1930 -0.1241 0.2348
C19 C -0.1886(2) 0.12145(11) 0.1856(2)
H13 H -0.2153 0.1305 0.0991
C20 C -0.1162(3) 0.09365(13) 0.4396(2)
H14 H -0.0915 0.0839 0.5257
C21 C 0.0355(3) 0.26283(14) 0.4316(2)
H15 H 0.0239 0.3066 0.4522
H16 H -0.0480 0.2386 0.4512
C22 C -0.2963(3) 0.13413(13) 0.2527(3)
H17 H -0.3939 0.1520 0.2110
C23 C -0.2616(3) 0.12075(12) 0.3792(3)
H18 H -0.3341 0.1297 0.4241
N1 N 0.14852(17) 0.20752(7) 0.30296(14)
O1 O 0.3764(2) 0.17896(9) 0.45708(16)
O2 O 0.1883(2) 0.23958(8) 0.50101(15)
C24 C 0.0281(3) 0.25586(10) 0.2944(2)
H19 H -0.0759 0.2419 0.2437
H20 H 0.0554 0.2947 0.2594
loop_
_geom_bond_atom_site_label_1
_geom_bond_atom_site_label_2
_geom_bond_site_symmetry_1
_geom_bond_site_symmetry_2
Cl1 C3 1_555 1_555
C1 C2 1_555 1_555
C2 H1 1_555 1_555
C3 C1 1_555 1_555
C4 C2 1_555 1_555
C5 C1 1_555 1_555
C6 C2 1_555 1_555
C7 C5 1_555 1_555
H2 C7 1_555 1_555
C8 C6 1_555 1_555
H3 C8 1_555 1_555
C9 N1 1_555 1_555
C10 C6 1_555 1_555
H4 C10 1_555 1_555
C11 C5 1_555 1_555
H5 C11 1_555 1_555
C12 C7 1_555 1_555
H6 C12 1_555 1_555
C13 H7 1_555 1_555
C14 C4 1_555 1_555
H8 C14 1_555 1_555
C15 C11 1_555 1_555
H9 C15 1_555 1_555
C16 C8 1_555 1_555
H10 C16 1_555 1_555
C17 C12 1_555 1_555
H11 C17 1_555 1_555
C18 C10 1_555 1_555
H12 C18 1_555 1_555
C19 C4 1_555 1_555
H13 C19 1_555 1_555
C20 C14 1_555 1_555
H14 C20 1_555 1_555
C21 H15 1_555 1_555
H16 C21 1_555 1_555
C22 C19 1_555 1_555
H17 C22 1_555 1_555
C23 C20 1_555 1_555
H18 C23 1_555 1_555
N1 C3 1_555 1_555
O1 C9 1_555 1_555
O2 C9 1_555 1_555
C24 C21 1_555 1_555
H19 C24 1_555 1_555
H20 C24 1_555 1_555
C13 C16 1_555 1_555
C13 C18 1_555 1_555
C15 C17 1_555 1_555
C21 O2 1_555 1_555
C22 C23 1_555 1_555
N1 C24 1_555 1_555

#END
