
#######################################################################
#
#                 Cambridge Crystallographic Data Centre
#                                CCDC 
#
#######################################################################
#
# If this CIF has been generated from an entry in the Cambridge 
# Structural Database, then it will include bibliographic, chemical, 
# crystal, experimental, refinement or atomic coordinate data resulting 
# from the CCDC's data processing and validation procedures.
#
#######################################################################

data_QUQDEL
_chemical_formula_moiety         'C16 H17 Cl2 N1 O3'
_chemical_name_systematic        
(1R)-2-Carboxymethyl-3-(3,4-dichlorophenyl)-7\b-hydroxy-8-methyl-8-azabicyclo(3.2.1)oct-2-ene
_chemical_properties_biological  
'less potent DAT inhibitor than the (1S) enantiomer'
_symmetry_cell_setting           monoclinic
_symmetry_space_group_name_H-M   'C 2'
_symmetry_Int_Tables_number      5
_space_group_name_Hall           'C 2y'
loop_
_symmetry_equiv_pos_site_id
_symmetry_equiv_pos_as_xyz
1 x,y,z
2 -x,y,-z
3 1/2+x,1/2+y,z
4 1/2-x,1/2+y,-z
_cell_length_a                   18.382(1)
_cell_length_b                   6.860(1)
_cell_length_c                   16.131(1)
_cell_angle_alpha                90
_cell_angle_beta                 124.65(1)
_cell_angle_gamma                90
_cell_volume                     1673.36
_exptl_crystal_colour            colorless
_exptl_crystal_description       plate
_chemical_melting_point          129.0-131.0deg.C
_cell_formula_units_Z            4
_exptl_crystal_recrystallization_method dichloromethane/heptane
loop_
_atom_site_label
_atom_site_type_symbol
_atom_site_fract_x
_atom_site_fract_y
_atom_site_fract_z
Cl1 Cl 0.81073(6) 0.9088(2) 0.72281(6)
O1 O 0.54739(16) 0.7639(6) 0.13264(18)
C1 C 0.40856(19) 0.6068(5) 0.1301(2)
H1 H 0.4224 0.5715 0.0817
Cl2 Cl 0.64607(9) 1.1920(2) 0.60372(11)
O2 O 0.60814(19) 0.9174(6) 0.2779(2)
C2 C 0.48820(18) 0.6991(5) 0.2246(2)
C3 C 0.5546(2) 0.8062(6) 0.2173(2)
C4 C 0.6111(3) 0.8602(13) 0.1199(3)
H2 H 0.6013 0.8200 0.0573
H3 H 0.6700 0.8251 0.1745
H4 H 0.6040 0.9989 0.1194
C5 C 0.49648(19) 0.6891(6) 0.3129(2)
C6 C 0.57526(19) 0.7528(5) 0.4120(2)
C7 C 0.6482(2) 0.6301(6) 0.4647(3)
H5 H 0.6486 0.5137 0.4355
C8 C 0.7194(2) 0.6786(7) 0.5592(3)
H6 H 0.7673 0.5941 0.5937
C9 C 0.7204(2) 0.8519(6) 0.6036(2)
C10 C 0.6484(2) 0.9747(6) 0.5513(3)
C11 C 0.5761(2) 0.9250(6) 0.4566(3)
H7 H 0.5277 1.0082 0.4228
C12 C 0.4256(2) 0.5951(8) 0.3180(3)
H8 H 0.4058 0.6863 0.3472
H9 H 0.4500 0.4822 0.3618
C13 C 0.3461(2) 0.5315(8) 0.2140(3)
H10 H 0.3078 0.4434 0.2207
C14 C 0.2937(2) 0.7051(9) 0.1475(3)
H11 H 0.3023 0.8180 0.1884
H12 H 0.2311 0.6748 0.1050
O3 O 0.26908(16) 0.6945(5) -0.01969(18)
H13 H 0.229(3) 0.777(8) -0.048(3)
C15 C 0.32951(19) 0.7446(5) 0.0830(2)
H14 H 0.3486 0.8805 0.0898
N1 N 0.37571(17) 0.4382(5) 0.1554(2)
C16 C 0.4368(3) 0.2760(7) 0.2030(3)
H15 H 0.4522 0.2284 0.1589
H16 H 0.4093 0.1735 0.2165
H17 H 0.4892 0.3189 0.2651
loop_
_geom_bond_atom_site_label_1
_geom_bond_atom_site_label_2
_geom_bond_site_symmetry_1
_geom_bond_site_symmetry_2
Cl1 C9 1_555 1_555
O1 C3 1_555 1_555
C1 H1 1_555 1_555
Cl2 C10 1_555 1_555
O2 C3 1_555 1_555
C2 C1 1_555 1_555
C3 C2 1_555 1_555
C4 O1 1_555 1_555
H2 C4 1_555 1_555
H3 C4 1_555 1_555
H4 C4 1_555 1_555
C5 C2 1_555 1_555
C6 C5 1_555 1_555
C7 C6 1_555 1_555
H5 C7 1_555 1_555
C8 C7 1_555 1_555
H6 C8 1_555 1_555
C9 C8 1_555 1_555
C10 C9 1_555 1_555
C11 C6 1_555 1_555
H7 C11 1_555 1_555
C12 C5 1_555 1_555
H8 C12 1_555 1_555
H9 C12 1_555 1_555
C13 C12 1_555 1_555
H10 C13 1_555 1_555
C14 C13 1_555 1_555
H11 C14 1_555 1_555
H12 C14 1_555 1_555
O3 H13 1_555 1_555
C15 C1 1_555 1_555
H14 C15 1_555 1_555
N1 C1 1_555 1_555
C16 N1 1_555 1_555
H15 C16 1_555 1_555
H16 C16 1_555 1_555
H17 C16 1_555 1_555
C10 C11 1_555 1_555
C13 N1 1_555 1_555
C14 C15 1_555 1_555
O3 C15 1_555 1_555

#END
