
#######################################################################
#
#                 Cambridge Crystallographic Data Centre
#                                CCDC 
#
#######################################################################
#
# If this CIF has been generated from an entry in the Cambridge 
# Structural Database, then it will include bibliographic, chemical, 
# crystal, experimental, refinement or atomic coordinate data resulting 
# from the CCDC's data processing and validation procedures.
#
#######################################################################

data_QUQDIP
_chemical_formula_moiety         'C16 H19 Cl2 N1 O3'
_chemical_name_systematic        
(1S)-2\b-Carboxymethyl-3\a-(3,4-dichlorophenyl)-7\b-hydroxy-8-methyl-8-azabicyclo(3.2.1)octane
_chemical_properties_biological  'potent DAT inhibitor'
_symmetry_cell_setting           monoclinic
_symmetry_space_group_name_H-M   'P 21'
_symmetry_Int_Tables_number      4
_space_group_name_Hall           'P 2yb'
loop_
_symmetry_equiv_pos_site_id
_symmetry_equiv_pos_as_xyz
1 x,y,z
2 -x,1/2+y,-z
_cell_length_a                   15.000(1)
_cell_length_b                   7.018(1)
_cell_length_c                   15.886(1)
_cell_angle_alpha                90
_cell_angle_beta                 99.34(1)
_cell_angle_gamma                90
_cell_volume                     1650.15
_exptl_crystal_colour            colorless
_exptl_crystal_description       prism
_chemical_melting_point          148.5-150.0deg.C
_cell_formula_units_Z            4
_exptl_crystal_recrystallization_method dichloromethane/heptane
loop_
_atom_site_label
_atom_site_type_symbol
_atom_site_fract_x
_atom_site_fract_y
_atom_site_fract_z
Cl1 Cl 0.50555(8) 0.3903(3) 0.90798(9)
Cl2 Cl 0.62876(11) 0.6728(3) 0.82458(14)
C1 C 1.0123(3) 0.1429(7) 0.7955(2)
H1 H 1.0265 0.0415 0.7574
C2 C 0.9099(3) 0.1389(7) 0.8028(2)
H2 H 0.8775 0.2310 0.7626
C3 C 0.8945(3) 0.1887(7) 0.8943(3)
H3 H 0.9079 0.0732 0.9287
C4 C 0.7972(3) 0.2396(7) 0.8975(2)
C5 C 0.7607(3) 0.4133(8) 0.8653(3)
H4 H 0.7968 0.5000 0.8421
C6 C 0.6709(3) 0.4568(8) 0.8677(3)
C7 C 0.6167(3) 0.3325(8) 0.9017(3)
C8 C 0.6511(3) 0.1602(10) 0.9330(3)
H5 H 0.6143 0.0743 0.9559
C9 C 0.7407(3) 0.1145(8) 0.9305(3)
H6 H 0.7631 -0.0027 0.9516
C10 C 0.9600(3) 0.3423(9) 0.9349(3)
H7 H 0.9613 0.3423 0.9961
H8 H 0.9386 0.4661 0.9132
C11 C 1.0575(3) 0.3090(10) 0.9156(3)
H9 H 1.1017 0.3244 0.9678
C12 C 1.0801(4) 0.4413(10) 0.8467(4)
H10 H 1.1449 0.4573 0.8509
H11 H 1.0523 0.5653 0.8503
O1 O 1.1054(3) 0.3074(5) 0.7083(2)
H12 H 1.109(4) 0.395(11) 0.690(4)
C13 C 1.0401(3) 0.3385(7) 0.7639(3)
H13 H 0.9874 0.4072 0.7341
N1 N 1.0630(2) 0.1156(7) 0.8814(2)
C14 C 1.1550(3) 0.0465(12) 0.8831(3)
H14 H 1.1532 -0.0802 0.8600
H15 H 1.1861 0.0450 0.9408
H16 H 1.1861 0.1292 0.8494
C15 C 0.8742(3) -0.0584(7) 0.7797(3)
O2 O 0.8751(3) -0.1908(6) 0.8271(2)
O3 O 0.8423(2) -0.0720(5) 0.69621(19)
C16 C 0.8068(4) -0.2555(9) 0.6670(3)
H17 H 0.7855 -0.2503 0.6067
H18 H 0.7577 -0.2887 0.6961
H19 H 0.8536 -0.3498 0.6786
Cl3 Cl 1.60311(9) -0.4620(3) 0.53707(10)
Cl4 Cl 1.66140(9) -0.8185(3) 0.65573(9)
C17 C 1.1886(3) -0.1935(7) 0.6466(3)
H20 H 1.1732 -0.1274 0.6966
C18 C 1.2854(3) -0.2817(7) 0.6664(2)
H21 H 1.3266 -0.2037 0.6389
C19 C 1.2881(3) -0.4870(7) 0.6337(2)
H22 H 1.2579 -0.5661 0.6713
C20 C 1.3819(3) -0.5656(7) 0.6384(3)
C21 C 1.4447(3) -0.4847(9) 0.5934(3)
H23 H 1.4291 -0.3769 0.5602
C22 C 1.5296(3) -0.5626(10) 0.5975(3)
C23 C 1.5546(3) -0.7196(10) 0.6482(3)
C24 C 1.4937(3) -0.8038(10) 0.6920(3)
H24 H 1.5095 -0.9126 0.7244
C25 C 1.4090(3) -0.7254(9) 0.6876(3)
H25 H 1.3684 -0.7814 0.7185
C26 C 1.2327(3) -0.5061(7) 0.5435(3)
H26 H 1.2693 -0.4643 0.5019
H27 H 1.2177 -0.6392 0.5323
C27 C 1.1459(3) -0.3898(7) 0.5326(2)
H28 H 1.0965 -0.4605 0.4985
C28 C 1.1563(4) -0.1934(9) 0.4932(3)
H29 H 1.1003 -0.1544 0.4580
H30 H 1.2037 -0.1954 0.4583
O4 O 1.1109(2) 0.0791(5) 0.5670(2)
H31 H 1.116(4) 0.125(12) 0.610(4)
C29 C 1.1809(3) -0.0575(7) 0.5689(3)
H32 H 1.2388 0.0053 0.5667
N2 N 1.1242(2) -0.3489(6) 0.6195(2)
C30 C 1.0297(3) -0.2928(8) 0.6181(3)
H33 H 1.0197 -0.2674 0.6752
H34 H 0.9906 -0.3942 0.5942
H35 H 1.0169 -0.1802 0.5839
C31 C 1.3168(3) -0.2772(8) 0.7626(3)
O5 O 1.3623(3) -0.1205(6) 0.7852(2)
O6 O 1.3016(3) -0.3978(7) 0.8107(2)
C32 C 1.3925(4) -0.0980(11) 0.8765(3)
H36 H 1.4257 0.0189 0.8869
H37 H 1.4307 -0.2032 0.8974
H38 H 1.3410 -0.0950 0.9054
loop_
_geom_bond_atom_site_label_1
_geom_bond_atom_site_label_2
_geom_bond_site_symmetry_1
_geom_bond_site_symmetry_2
Cl1 C7 1_555 1_555
Cl2 C6 1_555 1_555
C1 H1 1_555 1_555
C2 C1 1_555 1_555
H2 C2 1_555 1_555
C3 C2 1_555 1_555
H3 C3 1_555 1_555
C4 C3 1_555 1_555
C5 C4 1_555 1_555
H4 C5 1_555 1_555
C6 C5 1_555 1_555
C7 C6 1_555 1_555
C8 C7 1_555 1_555
H5 C8 1_555 1_555
C9 C4 1_555 1_555
H6 C9 1_555 1_555
C10 C3 1_555 1_555
H7 C10 1_555 1_555
H8 C10 1_555 1_555
C11 C10 1_555 1_555
H9 C11 1_555 1_555
C12 C11 1_555 1_555
H10 C12 1_555 1_555
H11 C12 1_555 1_555
O1 H12 1_555 1_555
C13 C1 1_555 1_555
H13 C13 1_555 1_555
N1 C1 1_555 1_555
C14 N1 1_555 1_555
H14 C14 1_555 1_555
H15 C14 1_555 1_555
H16 C14 1_555 1_555
C15 C2 1_555 1_555
O2 C15 1_555 1_555
O3 C15 1_555 1_555
C16 O3 1_555 1_555
H17 C16 1_555 1_555
H18 C16 1_555 1_555
H19 C16 1_555 1_555
Cl3 C22 1_555 1_555
Cl4 C23 1_555 1_555
C17 H20 1_555 1_555
C18 C17 1_555 1_555
H21 C18 1_555 1_555
C19 C18 1_555 1_555
H22 C19 1_555 1_555
C20 C19 1_555 1_555
C21 C20 1_555 1_555
H23 C21 1_555 1_555
C22 C21 1_555 1_555
C23 C22 1_555 1_555
C24 C23 1_555 1_555
H24 C24 1_555 1_555
C25 C20 1_555 1_555
H25 C25 1_555 1_555
C26 C19 1_555 1_555
H26 C26 1_555 1_555
H27 C26 1_555 1_555
C27 C26 1_555 1_555
H28 C27 1_555 1_555
C28 C27 1_555 1_555
H29 C28 1_555 1_555
H30 C28 1_555 1_555
O4 H31 1_555 1_555
C29 C17 1_555 1_555
H32 C29 1_555 1_555
N2 C17 1_555 1_555
C30 N2 1_555 1_555
H33 C30 1_555 1_555
H34 C30 1_555 1_555
H35 C30 1_555 1_555
C31 C18 1_555 1_555
O5 C31 1_555 1_555
O6 C31 1_555 1_555
C32 O5 1_555 1_555
H36 C32 1_555 1_555
H37 C32 1_555 1_555
H38 C32 1_555 1_555
C8 C9 1_555 1_555
C11 N1 1_555 1_555
C12 C13 1_555 1_555
O1 C13 1_555 1_555
C24 C25 1_555 1_555
C27 N2 1_555 1_555
C28 C29 1_555 1_555
O4 C29 1_555 1_555

#END
