
#######################################################################
#
#                 Cambridge Crystallographic Data Centre
#                                CCDC 
#
#######################################################################
#
# If this CIF has been generated from an entry in the Cambridge 
# Structural Database, then it will include bibliographic, chemical, 
# crystal, experimental, refinement or atomic coordinate data resulting 
# from the CCDC's data processing and validation procedures.
#
#######################################################################

data_QUQDUD
_chemical_formula_moiety         'C24 H20 Br1 N1 O2'
_chemical_name_systematic        
3-(1-bromo-2,3,3-triphenylprop-1-en-1-yl)-1,3-oxazolidin-2-one
_symmetry_cell_setting           monoclinic
_symmetry_space_group_name_H-M   'C c'
_symmetry_Int_Tables_number      9
_space_group_name_Hall           'C -2yc'
loop_
_symmetry_equiv_pos_site_id
_symmetry_equiv_pos_as_xyz
1 x,y,z
2 x,-y,1/2+z
3 1/2+x,1/2+y,z
4 1/2+x,1/2-y,1/2+z
_cell_length_a                   15.3958(19)
_cell_length_b                   9.1841(11)
_cell_length_c                   16.013(2)
_cell_angle_alpha                90
_cell_angle_beta                 116.983(2)
_cell_angle_gamma                90
_cell_volume                     2017.71
_exptl_crystal_colour            colorless
_exptl_crystal_description       block
_cell_formula_units_Z            4
loop_
_atom_site_label
_atom_site_type_symbol
_atom_site_fract_x
_atom_site_fract_y
_atom_site_fract_z
Br1 Br 0.20952(2) 0.61419(3) 0.27576(2)
C1 C 0.0533(3) 1.1008(3) 0.2233(3)
H1 H 0.1088 1.0428 0.2497
C2 C -0.1188(3) 1.1272(4) 0.1537(3)
H2 H -0.1808 1.0872 0.1317
C3 C -0.0371(2) 1.0374(3) 0.1922(2)
C4 C -0.0166(3) 1.3373(4) 0.1786(3)
H3 H -0.0098 1.4371 0.1733
C5 C 0.0632(3) 1.2501(4) 0.2160(3)
H4 H 0.1250 1.2905 0.2369
C6 C -0.1079(3) 1.2766(4) 0.1483(3)
H5 H -0.1626 1.3362 0.1241
C7 C -0.0516(2) 0.8731(3) 0.1966(2)
H6 H -0.1052 0.8490 0.1352
C8 C -0.0884(2) 0.8282(3) 0.2663(2)
C9 C -0.1418(2) 0.7004(4) 0.2505(3)
H7 H -0.1556 0.6458 0.1970
C10 C -0.0707(3) 0.9081(4) 0.3464(3)
H8 H -0.0353 0.9943 0.3589
C11 C -0.1054(4) 0.8599(5) 0.4074(3)
H9 H -0.0937 0.9146 0.4603
C12 C -0.1570(3) 0.7323(5) 0.3907(3)
H10 H -0.1796 0.7001 0.4323
C13 C -0.1746(3) 0.6535(5) 0.3129(3)
H11 H -0.2093 0.5668 0.3016
C14 C 0.0357(2) 0.7701(3) 0.1078(2)
C15 C 0.0358(2) 0.7871(3) 0.2007(2)
C16 C -0.0401(3) 0.6957(3) 0.0360(2)
H12 H -0.0906 0.6571 0.0458
C17 C 0.1095(3) 0.8309(4) 0.0915(3)
H13 H 0.1600 0.8827 0.1384
C18 C 0.0324(4) 0.7375(4) -0.0651(3)
H14 H 0.0314 0.7256 -0.1232
C19 C 0.1065(3) 0.8128(5) 0.0038(3)
H15 H 0.1556 0.8526 -0.0078
C20 C -0.0406(3) 0.6792(4) -0.0491(3)
H16 H -0.0910 0.6279 -0.0965
C21 C 0.1061(2) 0.7317(3) 0.2783(2)
C22 C 0.1833(3) 0.8375(4) 0.4325(2)
C23 C 0.1017(4) 0.6183(5) 0.4180(3)
H17 H 0.1410 0.5356 0.4183
H18 H 0.0337 0.5897 0.3910
O1 O 0.1998(2) 0.8010(4) 0.5197(2)
C24 C 0.1367(4) 0.6833(6) 0.5154(3)
H19 H 0.0821 0.7186 0.5243
H20 H 0.1719 0.6113 0.5633
N1 N 0.11642(19) 0.7435(3) 0.36953(19)
O2 O 0.2244(2) 0.9372(3) 0.4170(2)
loop_
_geom_bond_atom_site_label_1
_geom_bond_atom_site_label_2
_geom_bond_site_symmetry_1
_geom_bond_site_symmetry_2
Br1 C21 1_555 1_555
C1 H1 1_555 1_555
C2 H2 1_555 1_555
C3 C1 1_555 1_555
C4 H3 1_555 1_555
C5 C1 1_555 1_555
H4 C5 1_555 1_555
C6 C2 1_555 1_555
H5 C6 1_555 1_555
C7 C3 1_555 1_555
H6 C7 1_555 1_555
C8 C7 1_555 1_555
C9 C8 1_555 1_555
H7 C9 1_555 1_555
C10 C8 1_555 1_555
H8 C10 1_555 1_555
C11 C10 1_555 1_555
H9 C11 1_555 1_555
C12 C11 1_555 1_555
H10 C12 1_555 1_555
C13 C9 1_555 1_555
H11 C13 1_555 1_555
C14 C15 1_555 1_555
C15 C7 1_555 1_555
C16 C14 1_555 1_555
H12 C16 1_555 1_555
C17 C14 1_555 1_555
H13 C17 1_555 1_555
C18 H14 1_555 1_555
C19 C17 1_555 1_555
H15 C19 1_555 1_555
C20 C16 1_555 1_555
H16 C20 1_555 1_555
C21 C15 1_555 1_555
C22 O1 1_555 1_555
C23 H17 1_555 1_555
H18 C23 1_555 1_555
O1 C24 1_555 1_555
C24 C23 1_555 1_555
H19 C24 1_555 1_555
H20 C24 1_555 1_555
N1 C21 1_555 1_555
O2 C22 1_555 1_555
C2 C3 1_555 1_555
C4 C5 1_555 1_555
C4 C6 1_555 1_555
C12 C13 1_555 1_555
C18 C19 1_555 1_555
C18 C20 1_555 1_555
C22 N1 1_555 1_555
C23 N1 1_555 1_555

#END
