
#######################################################################
#
#                 Cambridge Crystallographic Data Centre
#                                CCDC 
#
#######################################################################
#
# If this CIF has been generated from an entry in the Cambridge 
# Structural Database, then it will include bibliographic, chemical, 
# crystal, experimental, refinement or atomic coordinate data resulting 
# from the CCDC's data processing and validation procedures.
#
#######################################################################

data_QUQQIE
_chemical_name_common            
"(2R,3R,4R)-3'-Methyl-4-(nitromethyl)-1',2-diphenyl spiro[chroman-3,4'-pyrazol]-5'(1'H)-one diethyl ether solvate"
_chemical_formula_moiety         'C25 H21 N3 O4,C4 H10 O1'
_chemical_name_systematic        
"5'-methyl-4-(nitromethyl)-2,2'-diphenyl-4H-spiro[chromene-3,4'-pyrazol]-3'(2'H)-one diethyl ether solvate"
_symmetry_cell_setting           monoclinic
_symmetry_space_group_name_H-M   'P 21'
_symmetry_Int_Tables_number      4
_space_group_name_Hall           'P 2yb'
loop_
_symmetry_equiv_pos_site_id
_symmetry_equiv_pos_as_xyz
1 x,y,z
2 -x,1/2+y,-z
_cell_length_a                   9.007(4)
_cell_length_b                   13.691(4)
_cell_length_c                   11.577(4)
_cell_angle_alpha                90
_cell_angle_beta                 112.6366(10)
_cell_angle_gamma                90
_cell_volume                     1317.64
_exptl_crystal_colour            colorless
_exptl_crystal_description       prism
_chemical_melting_point          '427-428 K'
_cell_formula_units_Z            2
_exptl_crystal_recrystallization_method 'Vapour Deposition'
loop_
_atom_site_label
_atom_site_type_symbol
_atom_site_fract_x
_atom_site_fract_y
_atom_site_fract_z
O1 O 0.61964(16) 0.47599(11) 1.08648(12)
O2 O 0.73126(16) 0.42653(11) 0.75420(12)
O3 O 1.12253(18) 0.15579(13) 1.05753(16)
O4 O 1.15365(17) 0.31140(12) 1.04905(15)
N1 N 0.54251(18) 0.30362(12) 0.73084(14)
N2 N 0.48170(17) 0.25249(12) 0.80998(15)
N3 N 1.07072(18) 0.23927(13) 1.03917(14)
C1 C 0.6087(2) 0.47211(13) 0.95989(16)
H1 H 0.6826 0.5228 0.9494
C2 C 0.66206(19) 0.37082(13) 0.92881(15)
C3 C 0.83954(19) 0.35271(13) 1.01996(15)
H2 H 0.9088 0.4006 0.9984
C4 C 0.8586(2) 0.37251(14) 1.15441(16)
C5 C 0.7501(2) 0.43444(15) 1.17847(17)
C6 C 0.7642(3) 0.45276(18) 1.3010(2)
H3 H 0.6892 0.4946 1.3157
C7 C 0.8861(3) 0.41048(19) 1.40056(19)
H4 H 0.8955 0.4235 1.4837
C8 C 0.9956(3) 0.34883(18) 1.37931(18)
H5 H 1.0800 0.3196 1.4478
C9 C 0.9809(2) 0.33017(16) 1.25750(17)
H6 H 1.0557 0.2876 1.2437
C10 C 0.65320(19) 0.37328(13) 0.79423(16)
C11 C 0.54651(19) 0.28857(13) 0.92059(17)
C12 C 0.5076(2) 0.24847(16) 1.02511(19)
H7 H 0.4332 0.1934 0.9946
H8 H 0.4572 0.2995 1.0572
H9 H 0.6066 0.2262 1.0924
C13 C 0.4372(2) 0.49987(13) 0.87685(17)
C14 C 0.4055(3) 0.53886(18) 0.7591(2)
H10 H 0.4902 0.5457 0.7299
C15 C 0.2511(4) 0.5678(2) 0.6838(2)
H11 H 0.2307 0.5946 0.6035
C16 C 0.1267(3) 0.5583(2) 0.7243(3)
H12 H 0.0213 0.5788 0.6724
C17 C 0.1562(3) 0.51871(18) 0.8407(3)
H13 H 0.0704 0.5115 0.8686
C18 C 0.3114(2) 0.48923(15) 0.9177(2)
H14 H 0.3311 0.4620 0.9978
C19 C 0.4902(2) 0.27377(16) 0.60348(18)
C20 C 0.3888(3) 0.1937(2) 0.5633(2)
H15 H 0.3525 0.1601 0.6194
C21 C 0.3406(3) 0.1632(3) 0.4381(3)
H16 H 0.2725 0.1078 0.4099
C22 C 0.3907(3) 0.2124(3) 0.3558(2)
H17 H 0.3565 0.1917 0.2712
C23 C 0.4897(4) 0.2908(3) 0.3967(2)
H18 H 0.5251 0.3242 0.3401
C24 C 0.5404(3) 0.3232(2) 0.5204(2)
H19 H 0.6086 0.3786 0.5473
C25 C 0.89081(19) 0.25042(15) 0.99792(16)
H20 H 0.8517 0.2026 1.0438
H21 H 0.8391 0.2349 0.9076
O5 O 0.87968(19) 0.16142(12) 0.73513(14)
C26 C 0.7346(4) 0.0323(2) 0.7786(3)
H22 H 0.6598 0.0780 0.7929
H23 H 0.8257 0.0202 0.8576
H24 H 0.6791 -0.0294 0.7460
C27 C 0.7947(3) 0.07526(19) 0.6856(2)
H25 H 0.8661 0.0280 0.6674
H26 H 0.7029 0.0898 0.6064
C28 C 0.9583(3) 0.2007(2) 0.6591(2)
H27 H 0.8770 0.2213 0.5772
H28 H 1.0272 0.1501 0.6440
C29 C 1.0578(3) 0.2856(2) 0.7231(2)
H29 H 1.1114 0.3125 0.6708
H30 H 1.1390 0.2648 0.8037
H31 H 0.9890 0.3358 0.7373
loop_
_geom_bond_atom_site_label_1
_geom_bond_atom_site_label_2
_geom_bond_site_symmetry_1
_geom_bond_site_symmetry_2
O1 C1 1_555 1_555
O2 C10 1_555 1_555
O3 N3 1_555 1_555
O4 N3 1_555 1_555
N1 N2 1_555 1_555
N2 C11 1_555 1_555
N3 C25 1_555 1_555
C1 H1 1_555 1_555
C2 C1 1_555 1_555
C3 C2 1_555 1_555
H2 C3 1_555 1_555
C4 C3 1_555 1_555
C5 O1 1_555 1_555
C6 C5 1_555 1_555
H3 C6 1_555 1_555
C7 C6 1_555 1_555
H4 C7 1_555 1_555
C8 C7 1_555 1_555
H5 C8 1_555 1_555
C9 C4 1_555 1_555
H6 C9 1_555 1_555
C10 N1 1_555 1_555
C11 C2 1_555 1_555
C12 C11 1_555 1_555
H7 C12 1_555 1_555
H8 C12 1_555 1_555
H9 C12 1_555 1_555
C13 C1 1_555 1_555
C14 C13 1_555 1_555
H10 C14 1_555 1_555
C15 C14 1_555 1_555
H11 C15 1_555 1_555
C16 C15 1_555 1_555
H12 C16 1_555 1_555
C17 C16 1_555 1_555
H13 C17 1_555 1_555
C18 C13 1_555 1_555
H14 C18 1_555 1_555
C19 N1 1_555 1_555
C20 C19 1_555 1_555
H15 C20 1_555 1_555
C21 C20 1_555 1_555
H16 C21 1_555 1_555
C22 C21 1_555 1_555
H17 C22 1_555 1_555
C23 C22 1_555 1_555
H18 C23 1_555 1_555
C24 C19 1_555 1_555
H19 C24 1_555 1_555
C25 C3 1_555 1_555
H20 C25 1_555 1_555
H21 C25 1_555 1_555
O5 C27 1_555 1_555
C26 H22 1_555 1_555
H23 C26 1_555 1_555
H24 C26 1_555 1_555
C27 C26 1_555 1_555
H25 C27 1_555 1_555
H26 C27 1_555 1_555
C28 O5 1_555 1_555
H27 C28 1_555 1_555
H28 C28 1_555 1_555
C29 C28 1_555 1_555
H29 C29 1_555 1_555
H30 C29 1_555 1_555
H31 C29 1_555 1_555
C2 C10 1_555 1_555
C4 C5 1_555 1_555
C8 C9 1_555 1_555
C17 C18 1_555 1_555
C23 C24 1_555 1_555

#END
