
#######################################################################
#
#                 Cambridge Crystallographic Data Centre
#                                CCDC 
#
#######################################################################
#
# If this CIF has been generated from an entry in the Cambridge 
# Structural Database, then it will include bibliographic, chemical, 
# crystal, experimental, refinement or atomic coordinate data resulting 
# from the CCDC's data processing and validation procedures.
#
#######################################################################

data_QUQSUR
_chemical_formula_moiety         'C30 H38 K2 N20 O14 2+,2(I1 1-),5(H2 O1)'
_chemical_name_systematic        
'(\m~2~-Cucurbit[5]uril)-tetra-aqua-di-potassium(i) bis(iodide) monohydrate clathrate pentahydrate'
_symmetry_cell_setting           orthorhombic
_symmetry_space_group_name_H-M   'P 21 21 21'
_symmetry_Int_Tables_number      19
_space_group_name_Hall           'P 2ac 2ab'
loop_
_symmetry_equiv_pos_site_id
_symmetry_equiv_pos_as_xyz
1 x,y,z
2 1/2-x,-y,1/2+z
3 1/2+x,1/2-y,-z
4 -x,1/2+y,1/2-z
_cell_length_a                   11.9647(15)
_cell_length_b                   15.1070(18)
_cell_length_c                   26.637(3)
_cell_angle_alpha                90
_cell_angle_beta                 90
_cell_angle_gamma                90
_cell_volume                     4814.66
_exptl_crystal_colour            yellow
_cell_formula_units_Z            4
loop_
_atom_site_label
_atom_site_type_symbol
_atom_site_fract_x
_atom_site_fract_y
_atom_site_fract_z
O1 O 1.2158(4) 0.4165(6) 0.4354(3)
O4 O 0.2473(7) 0.6337(8) 0.3611(4)
O5 O 1.2093(7) 0.3118(6) 0.3149(6)
O7 O 0.2317(6) 0.4866(12) 0.2788(4)
C1 C 0.6336(6) 0.6598(4) 0.3383(3)
C2 C 0.6626(5) 0.6403(5) 0.2479(3)
H1 H 0.5833 0.6537 0.2468
H2 H 0.7000 0.6800 0.2247
C3 C 0.5975(4) 0.4872(4) 0.2354(2)
C4 C 0.5763(4) 0.3276(4) 0.21726(19)
H3 H 0.5951 0.2957 0.1868
H4 H 0.4974 0.3424 0.2158
C5 C 0.5280(4) 0.2717(3) 0.30089(17)
C6 C 0.4996(4) 0.1864(3) 0.37842(19)
H5 H 0.4222 0.2039 0.3741
H6 H 0.5009 0.1230 0.3841
C7 C 0.5059(4) 0.3109(3) 0.43726(17)
C8 C 0.5377(4) 0.4153(4) 0.5071(2)
H7 H 0.4596 0.4292 0.5015
H8 H 0.5471 0.4019 0.5424
C9 C 0.5686(4) 0.5568(4) 0.4627(2)
C10 C 0.6418(6) 0.6964(4) 0.4292(3)
H9 H 0.5636 0.7110 0.4245
H10 H 0.6770 0.7462 0.4459
C11 C 0.8176(4) 0.2521(3) 0.45366(19)
C12 C 0.8137(4) 0.3628(4) 0.52094(19)
H11 H 0.7837 0.3592 0.5547
H12 H 0.8932 0.3506 0.5229
C13 C 0.8806(4) 0.4921(4) 0.4752(2)
C14 C 0.9180(6) 0.6398(4) 0.4406(3)
H13 H 0.9950 0.6205 0.4439
H14 H 0.9117 0.6974 0.4565
C15 C 0.9473(4) 0.6066(4) 0.3515(2)
C16 C 0.9397(5) 0.5910(4) 0.2591(3)
H15 H 1.0176 0.5744 0.2623
H16 H 0.9346 0.6352 0.2328
C17 C 0.9117(4) 0.4292(4) 0.2522(2)
C18 C 0.8564(5) 0.2755(4) 0.2293(2)
H17 H 0.8352 0.2537 0.1964
H18 H 0.9355 0.2638 0.2338
C19 C 0.8379(4) 0.2084(3) 0.31402(18)
C20 C 0.7756(4) 0.1336(3) 0.3914(2)
H19 H 0.7338 0.0791 0.3957
H20 H 0.8542 0.1199 0.3955
C21 C 0.6460(4) 0.2702(4) 0.49404(19)
H21 H 0.6276 0.2478 0.5276
C22 C 0.6323(4) 0.1974(3) 0.45357(19)
H22 H 0.6133 0.1400 0.4685
C23 C 0.6530(4) 0.1545(3) 0.3135(2)
H23 H 0.6342 0.0917 0.3097
C24 C 0.6779(4) 0.1990(3) 0.2623(2)
H24 H 0.6686 0.1575 0.2344
C25 C 0.7548(4) 0.4178(4) 0.2016(2)
H25 H 0.7606 0.4017 0.1660
C26 C 0.7821(5) 0.5157(4) 0.2095(2)
H26 H 0.8011 0.5455 0.1779
C27 C 0.8135(5) 0.6925(4) 0.3108(3)
H27 H 0.8286 0.7479 0.2928
C28 C 0.8054(5) 0.7078(4) 0.3681(3)
H28 H 0.8216 0.7696 0.3765
C29 C 0.7453(5) 0.5988(4) 0.4934(3)
H29 H 0.7580 0.6447 0.5188
C30 C 0.7114(5) 0.5109(4) 0.5177(2)
H30 H 0.7059 0.5156 0.5543
N1 N 0.8469(4) 0.5784(3) 0.46649(19)
N2 N 0.7985(4) 0.4516(3) 0.50254(18)
N3 N 0.7616(3) 0.2952(3) 0.49063(16)
N4 N 0.7423(3) 0.1957(3) 0.42994(16)
N5 N 0.7573(4) 0.1668(3) 0.34077(18)
N6 N 0.7939(3) 0.2283(3) 0.26712(16)
N7 N 0.8376(4) 0.3708(3) 0.23123(18)
N8 N 0.8757(4) 0.5129(3) 0.24362(18)
N9 N 0.9044(4) 0.6304(3) 0.3053(2)
N10 N 0.8920(4) 0.6490(3) 0.3878(2)
N11 N 0.6407(3) 0.4079(3) 0.21943(16)
N12 N 0.6793(4) 0.5493(3) 0.2309(2)
N13 N 0.7039(4) 0.6582(3) 0.2988(2)
N14 N 0.6923(4) 0.6857(3) 0.3807(3)
N15 N 0.6493(4) 0.6206(3) 0.4615(2)
N16 N 0.6044(4) 0.4918(3) 0.49477(18)
N17 N 0.5668(3) 0.3381(3) 0.47799(16)
N18 N 0.5437(3) 0.2302(3) 0.42210(16)
N19 N 0.5595(3) 0.2054(3) 0.33276(17)
N20 N 0.5959(3) 0.2708(3) 0.26005(16)
O10 O 0.5333(4) 0.6432(3) 0.3369(2)
O11 O 0.5023(3) 0.5005(3) 0.25053(15)
O12 O 0.4484(3) 0.3217(2) 0.30723(14)
O13 O 0.4273(3) 0.3520(3) 0.41844(15)
O14 O 0.4795(3) 0.5594(3) 0.44203(17)
O15 O 1.0265(3) 0.5542(3) 0.35662(16)
O16 O 0.9684(3) 0.4596(3) 0.46110(15)
O17 O 0.9967(3) 0.4081(3) 0.27577(14)
O18 O 0.9165(3) 0.2579(2) 0.44362(14)
O19 O 0.9327(3) 0.2240(2) 0.32712(14)
K1 K 1.03005(11) 0.37295(9) 0.37866(5)
K2 K 0.40562(11) 0.49390(9) 0.34715(6)
O2 O 0.2308(7) 0.5877(5) 0.6866(4)
O3 O 1.1429(5) 0.1737(5) 0.3767(2)
O6 O 0.7382(15) 0.4256(8) 0.3630(5)
O8 O 0.2393(10) 0.5453(9) 0.5171(4)
O9 O 0.3154(16) 0.6984(15) 0.4584(12)
I1 I 0.47923(16) 0.57298(19) 0.61387(14)
I2 I 0.4928(4) -0.07119(15) 0.40552(7)
I3? I 0.4832(3) 0.5846(4) 0.6220(2)
I4? I 0.5246(9) -0.0696(2) 0.40453(15)
loop_
_geom_bond_atom_site_label_1
_geom_bond_atom_site_label_2
_geom_bond_site_symmetry_1
_geom_bond_site_symmetry_2
O1 K1 1_555 1_555
O4 K2 1_555 1_555
O5 K1 1_555 1_555
O7 K2 1_555 1_555
C1 N13 1_555 1_555
C2 H1 1_555 1_555
H2 C2 1_555 1_555
C3 N11 1_555 1_555
C4 H3 1_555 1_555
H4 C4 1_555 1_555
C5 N19 1_555 1_555
C6 H5 1_555 1_555
H6 C6 1_555 1_555
C7 N17 1_555 1_555
C8 H7 1_555 1_555
H8 C8 1_555 1_555
C9 N15 1_555 1_555
C10 H9 1_555 1_555
H10 C10 1_555 1_555
C11 N3 1_555 1_555
C12 H11 1_555 1_555
H12 C12 1_555 1_555
C13 N1 1_555 1_555
C14 H13 1_555 1_555
H14 C14 1_555 1_555
C15 N9 1_555 1_555
C16 H15 1_555 1_555
H16 C16 1_555 1_555
C17 N7 1_555 1_555
C18 H17 1_555 1_555
H18 C18 1_555 1_555
C19 N5 1_555 1_555
C20 H19 1_555 1_555
H20 C20 1_555 1_555
C21 H21 1_555 1_555
C22 C21 1_555 1_555
H22 C22 1_555 1_555
C23 H23 1_555 1_555
C24 C23 1_555 1_555
H24 C24 1_555 1_555
C25 H25 1_555 1_555
C26 C25 1_555 1_555
H26 C26 1_555 1_555
C27 H27 1_555 1_555
C28 C27 1_555 1_555
H28 C28 1_555 1_555
C29 H29 1_555 1_555
C30 C29 1_555 1_555
H30 C30 1_555 1_555
N1 C14 1_555 1_555
N2 C12 1_555 1_555
N3 C12 1_555 1_555
N4 C11 1_555 1_555
N5 C20 1_555 1_555
N6 C18 1_555 1_555
N7 C18 1_555 1_555
N8 C16 1_555 1_555
N9 C16 1_555 1_555
N10 C14 1_555 1_555
N11 C4 1_555 1_555
N12 C2 1_555 1_555
N13 C2 1_555 1_555
N14 C1 1_555 1_555
N15 C10 1_555 1_555
N16 C8 1_555 1_555
N17 C8 1_555 1_555
N18 C6 1_555 1_555
N19 C6 1_555 1_555
N20 C4 1_555 1_555
O10 C1 1_555 1_555
O11 C3 1_555 1_555
O12 C5 1_555 1_555
O13 C7 1_555 1_555
O14 C9 1_555 1_555
O15 C15 1_555 1_555
O16 C13 1_555 1_555
O17 C17 1_555 1_555
O18 C11 1_555 1_555
O19 C19 1_555 1_555
K1 O15 1_555 1_555
K2 O10 1_555 1_555
C3 N12 1_555 1_555
C5 N20 1_555 1_555
C7 N18 1_555 1_555
C9 N16 1_555 1_555
C10 N14 1_555 1_555
C13 N2 1_555 1_555
C15 N10 1_555 1_555
C17 N8 1_555 1_555
C19 N6 1_555 1_555
C20 N4 1_555 1_555
C21 N3 1_555 1_555
C21 N17 1_555 1_555
C22 N4 1_555 1_555
C22 N18 1_555 1_555
C23 N5 1_555 1_555
C23 N19 1_555 1_555
C24 N6 1_555 1_555
C24 N20 1_555 1_555
C25 N7 1_555 1_555
C25 N11 1_555 1_555
C26 N8 1_555 1_555
C26 N12 1_555 1_555
C27 N9 1_555 1_555
C27 N13 1_555 1_555
C28 N10 1_555 1_555
C28 N14 1_555 1_555
C29 N1 1_555 1_555
C29 N15 1_555 1_555
C30 N2 1_555 1_555
C30 N16 1_555 1_555
O11 K2 1_555 1_555
O12 K2 1_555 1_555
O13 K2 1_555 1_555
O14 K2 1_555 1_555
O16 K1 1_555 1_555
O17 K1 1_555 1_555
O18 K1 1_555 1_555
O19 K1 1_555 1_555

#END
