
#######################################################################
#
#                 Cambridge Crystallographic Data Centre
#                                CCDC 
#
#######################################################################
#
# If this CIF has been generated from an entry in the Cambridge 
# Structural Database, then it will include bibliographic, chemical, 
# crystal, experimental, refinement or atomic coordinate data resulting 
# from the CCDC's data processing and validation procedures.
#
#######################################################################

data_QUQSAX
_chemical_formula_moiety         
'C30 H40 K2 N20 O15 2+,2(Br1 1-),2(C6 H6 O2),5(H2 O1)'
_chemical_name_systematic        
'(\m~2~-Cucurbit[5]uril)-penta-aqua-di-potassium(i) dibromide monohydrate clathrate bis(benzene-1,3-diol) tetrahydrate'
_symmetry_cell_setting           orthorhombic
_symmetry_space_group_name_H-M   'P 21 21 21'
_symmetry_Int_Tables_number      19
_space_group_name_Hall           'P 2ac 2ab'
loop_
_symmetry_equiv_pos_site_id
_symmetry_equiv_pos_as_xyz
1 x,y,z
2 1/2-x,-y,1/2+z
3 1/2+x,1/2-y,-z
4 -x,1/2+y,1/2-z
_cell_length_a                   11.8668(9)
_cell_length_b                   15.8040(11)
_cell_length_c                   30.323(2)
_cell_angle_alpha                90
_cell_angle_beta                 90
_cell_angle_gamma                90
_cell_volume                     5686.86
_exptl_crystal_colour            brown
_cell_formula_units_Z            4
loop_
_atom_site_label
_atom_site_type_symbol
_atom_site_fract_x
_atom_site_fract_y
_atom_site_fract_z
O1 O 0.2998(4) -0.0843(3) 0.57452(14)
O2 O 0.7307(3) -0.1118(3) 0.38363(14)
O4 O 0.7329(3) -0.1153(3) 0.26967(14)
O5 O -0.2345(3) 0.0897(3) 0.26978(15)
O8 O -0.1238(4) 0.2427(4) 0.36269(14)
O9 O -0.2246(8) 0.0770(7) 0.3893(4)
K1 K 0.55458(9) -0.08906(7) 0.32523(3)
K2 K -0.06183(10) 0.06401(7) 0.32777(4)
C1 C 0.0115(4) -0.2259(3) 0.37266(15)
H1 H -0.0668 -0.2083 0.3732
H2 H 0.0144 -0.2848 0.3816
C2 C 0.0420(4) -0.0962(3) 0.41656(14)
C3 C 0.1139(4) 0.0168(3) 0.46525(15)
H3 H 0.1327 0.0134 0.4963
H4 H 0.0372 0.0375 0.4630
C4 C 0.1506(4) 0.1339(3) 0.41334(15)
C5 C 0.2198(4) 0.2602(3) 0.37397(16)
H5 H 0.1412 0.2770 0.3742
H6 H 0.2639 0.3078 0.3845
C6 C 0.1800(4) 0.1724(3) 0.21958(16)
H7 H 0.1028 0.1925 0.2209
H8 H 0.2172 0.2021 0.1957
C7 C 0.0961(4) 0.0305(3) 0.22476(15)
C8 C 0.0451(4) -0.1195(3) 0.22088(15)
H9 H -0.0303 -0.0961 0.2228
H10 H 0.0482 -0.1550 0.1948
C9 C 0.0157(4) -0.1589(3) 0.29870(16)
C10 C 0.3159(4) -0.1941(3) 0.21445(16)
H11 H 0.3926 -0.2152 0.2147
H12 H 0.2761 -0.2221 0.1906
C11 C 0.3229(4) -0.2356(3) 0.29301(16)
C12 C 0.2868(4) -0.2864(3) 0.36893(16)
H13 H 0.2448 -0.3350 0.3794
H14 H 0.3658 -0.3019 0.3682
C13 C 0.3576(4) -0.1623(3) 0.41012(15)
C14 C 0.3918(4) -0.0493(3) 0.46481(15)
H15 H 0.3719 -0.0492 0.4958
H16 H 0.4686 -0.0698 0.4624
C15 C 0.4643(4) 0.0655(3) 0.41824(15)
C16 C 0.4937(4) 0.1959(3) 0.37441(16)
H17 H 0.4936 0.2546 0.3837
H18 H 0.5714 0.1769 0.3737
C17 C 0.4838(4) 0.1316(3) 0.30020(16)
C18 C 0.4513(4) 0.0978(3) 0.22164(15)
H19 H 0.5269 0.0746 0.2229
H20 H 0.4479 0.1356 0.1964
C19 C 0.4022(4) -0.0532(3) 0.22164(15)
C20 C 0.1364(4) -0.2750(3) 0.30797(16)
H21 H 0.1111 -0.3340 0.3087
C21 C 0.1779(4) 0.2120(3) 0.29871(16)
C22 C 0.2246(4) -0.0558(3) 0.18769(15)
H22 H 0.2052 -0.0740 0.1577
C23 C 0.2700(4) 0.0361(3) 0.18864(15)
H23 H 0.2858 0.0572 0.1589
C24 C 0.3534(4) 0.2173(3) 0.26349(16)
H24 H 0.3729 0.2614 0.2421
C25 C 0.3658(4) 0.2489(3) 0.31138(15)
H25 H 0.3929 0.3075 0.3124
C26 C 0.3349(4) 0.1758(3) 0.43070(16)
H26 H 0.3528 0.2252 0.4490
C27 C 0.3017(4) 0.0973(3) 0.45958(16)
H27 H 0.3018 0.1113 0.4911
C28 C 0.2051(4) -0.1292(3) 0.45662(15)
H28 H 0.2043 -0.1443 0.4880
C41 C 0.1451(4) -0.2413(3) 0.26020(15)
H37 H 0.1250 -0.2849 0.2386
C42 C 0.1734(4) -0.2055(3) 0.42743(16)
H38 H 0.1569 -0.2559 0.4451
N1 N 0.2346(3) 0.1900(3) 0.40422(13)
N2 N 0.1892(3) 0.0771(3) 0.44407(13)
N3 N 0.1189(3) -0.0673(3) 0.44652(13)
N4 N 0.0741(3) -0.1756(3) 0.40407(13)
N5 N 0.0541(3) -0.2186(2) 0.32774(13)
N6 N 0.0659(3) -0.1717(3) 0.25962(12)
N7 N 0.1257(3) -0.0504(3) 0.21602(13)
N8 N 0.1789(3) 0.0832(3) 0.20959(13)
N9 N 0.2359(3) 0.1937(3) 0.26054(13)
N10 N 0.2524(3) 0.2417(3) 0.32915(14)
N11 N 0.4309(4) 0.1464(3) 0.26131(13)
N12 N 0.4478(3) 0.1906(2) 0.33063(13)
N13 N 0.4326(4) 0.1461(3) 0.40680(13)
N14 N 0.3881(3) 0.0357(3) 0.44898(13)
N15 N 0.3181(3) -0.1076(3) 0.44194(13)
N16 N 0.2721(3) -0.2178(3) 0.39962(14)
N17 N 0.2501(3) -0.2662(3) 0.32450(14)
N18 N 0.2622(3) -0.2160(3) 0.25598(14)
N19 N 0.3181(3) -0.1046(3) 0.20583(12)
N20 N 0.3722(3) 0.0292(3) 0.21485(13)
O11 O 0.0564(3) 0.1336(2) 0.39722(11)
O12 O 0.0756(3) 0.2047(2) 0.30372(11)
O13 O 0.0092(3) 0.0539(2) 0.24299(11)
O14 O -0.0557(3) -0.1050(2) 0.30788(11)
O15 O -0.0412(3) -0.0575(2) 0.40388(11)
O16 O 0.5456(3) 0.0264(2) 0.40426(11)
O17 O 0.4514(3) -0.1626(2) 0.39443(11)
O18 O 0.4252(3) -0.2282(2) 0.29753(11)
O19 O 0.4897(3) -0.0780(2) 0.23846(11)
O20 O 0.5546(3) 0.0772(2) 0.30731(11)
O3 O 0.1945(4) -0.9308(3) 0.57533(16)
O6 O 0.3167(4) 0.2151(3) 0.12419(14)
O7 O -0.2469(4) -0.0123(4) 0.19072(17)
O10 O 0.2554(17) -0.0148(9) 0.3274(5)
Br1 Br 0.03897(6) -0.46835(4) 0.38022(2)
Br2 Br 0.44430(15) 0.44099(11) 0.38321(7)
C29 C 0.4280(4) -0.2464(3) 0.51248(16)
H29 H 0.4508 -0.1968 0.5263
C30 C 0.4926(4) -0.2793(3) 0.47902(17)
H30 H 0.5588 -0.2525 0.4704
C31 C 0.4582(4) -0.3529(3) 0.45823(16)
C32 C 0.3615(4) -0.3959(3) 0.47134(17)
H31 H 0.3403 -0.4462 0.4578
C33 C 0.2977(4) -0.3615(4) 0.50515(16)
C34 C 0.3288(5) -0.2861(4) 0.52612(17)
H32 H 0.2847 -0.2631 0.5485
O21 O 0.5235(3) -0.3822(3) 0.42387(14)
H39 H 0.4957 -0.4258 0.4140
O22 O 0.2001(3) -0.3994(3) 0.51969(14)
H40 H 0.1892 -0.4431 0.5057
C35 C 0.1212(5) -0.6180(4) 0.48157(16)
C36 C 0.0291(4) -0.6609(3) 0.46452(16)
H33 H -0.0156 -0.6367 0.4427
C37 C 0.0055(4) -0.7406(4) 0.48075(17)
H34 H -0.0562 -0.7700 0.4696
C38 C 0.0715(4) -0.7781(3) 0.51332(16)
H35 H 0.0535 -0.8313 0.5243
C39 C 0.1646(4) -0.7346(3) 0.52909(17)
C40 C 0.1907(5) -0.6543(4) 0.51347(18)
H36 H 0.2533 -0.6254 0.5241
O23 O 0.1482(4) -0.5370(3) 0.46793(14)
H41 H 0.2045 -0.5207 0.4811
O24 O 0.2336(3) -0.7669(3) 0.56103(13)
H42 H 0.2118 -0.8142 0.5680
Br3? Br 0.4509(18) 0.464(4) 0.3767(9)
loop_
_geom_bond_atom_site_label_1
_geom_bond_atom_site_label_2
_geom_bond_site_symmetry_1
_geom_bond_site_symmetry_2
O2 K1 1_555 1_555
O4 K1 1_555 1_555
O5 K2 1_555 1_555
O8 K2 1_555 1_555
O9 K2 1_555 1_555
K1 O16 1_555 1_555
K2 O11 1_555 1_555
C1 H1 1_555 1_555
H2 C1 1_555 1_555
C2 N3 1_555 1_555
C3 H3 1_555 1_555
H4 C3 1_555 1_555
C4 N1 1_555 1_555
C5 H5 1_555 1_555
H6 C5 1_555 1_555
C6 H7 1_555 1_555
H8 C6 1_555 1_555
C7 N7 1_555 1_555
C8 H9 1_555 1_555
H10 C8 1_555 1_555
C9 N5 1_555 1_555
C10 H11 1_555 1_555
H12 C10 1_555 1_555
C11 N17 1_555 1_555
C12 H13 1_555 1_555
H14 C12 1_555 1_555
C13 N15 1_555 1_555
C14 H15 1_555 1_555
H16 C14 1_555 1_555
C15 N13 1_555 1_555
C16 H17 1_555 1_555
H18 C16 1_555 1_555
C17 N11 1_555 1_555
C18 H19 1_555 1_555
H20 C18 1_555 1_555
C19 N19 1_555 1_555
C20 H21 1_555 1_555
C21 N9 1_555 1_555
C22 H22 1_555 1_555
C23 C22 1_555 1_555
H23 C23 1_555 1_555
C24 H24 1_555 1_555
C25 C24 1_555 1_555
H25 C25 1_555 1_555
C26 H26 1_555 1_555
C27 C26 1_555 1_555
H27 C27 1_555 1_555
C28 H28 1_555 1_555
C29 H29 1_555 1_555
C30 C29 1_555 1_555
H30 C30 1_555 1_555
C31 C30 1_555 1_555
C32 C31 1_555 1_555
H31 C32 1_555 1_555
C33 C32 1_555 1_555
C34 C29 1_555 1_555
H32 C34 1_555 1_555
C35 C36 1_555 1_555
C36 H33 1_555 1_555
C37 C36 1_555 1_555
H34 C37 1_555 1_555
C38 C37 1_555 1_555
H35 C38 1_555 1_555
C39 C38 1_555 1_555
C40 C35 1_555 1_555
H36 C40 1_555 1_555
C41 C20 1_555 1_555
H37 C41 1_555 1_555
C42 C28 1_555 1_555
H38 C42 1_555 1_555
N1 C5 1_555 1_555
N2 C3 1_555 1_555
N3 C3 1_555 1_555
N4 C1 1_555 1_555
N5 C1 1_555 1_555
N6 C8 1_555 1_555
N7 C8 1_555 1_555
N8 C6 1_555 1_555
N9 C6 1_555 1_555
N10 C5 1_555 1_555
N11 C18 1_555 1_555
N12 C16 1_555 1_555
N13 C16 1_555 1_555
N14 C14 1_555 1_555
N15 C14 1_555 1_555
N16 C12 1_555 1_555
N17 C12 1_555 1_555
N18 C10 1_555 1_555
N19 C10 1_555 1_555
N20 C18 1_555 1_555
O11 C4 1_555 1_555
O12 K2 1_555 1_555
O13 K2 1_555 1_555
O14 K2 1_555 1_555
O15 K2 1_555 1_555
O16 C15 1_555 1_555
O17 K1 1_555 1_555
O18 K1 1_555 1_555
O19 K1 1_555 1_555
O20 K1 1_555 1_555
O21 C31 1_555 1_555
H39 O21 1_555 1_555
O22 C33 1_555 1_555
H40 O22 1_555 1_555
O23 C35 1_555 1_555
H41 O23 1_555 1_555
O24 C39 1_555 1_555
H42 O24 1_555 1_555
C2 N4 1_555 1_555
C2 O15 1_555 1_555
C4 N2 1_555 1_555
C7 N8 1_555 1_555
C7 O13 1_555 1_555
C9 N6 1_555 1_555
C9 O14 1_555 1_555
C11 N18 1_555 1_555
C11 O18 1_555 1_555
C13 N16 1_555 1_555
C13 O17 1_555 1_555
C15 N14 1_555 1_555
C17 N12 1_555 1_555
C17 O20 1_555 1_555
C19 N20 1_555 1_555
C19 O19 1_555 1_555
C20 N5 1_555 1_555
C20 N17 1_555 1_555
C21 N10 1_555 1_555
C21 O12 1_555 1_555
C22 N7 1_555 1_555
C22 N19 1_555 1_555
C23 N8 1_555 1_555
C23 N20 1_555 1_555
C24 N9 1_555 1_555
C24 N11 1_555 1_555
C25 N10 1_555 1_555
C25 N12 1_555 1_555
C26 N1 1_555 1_555
C26 N13 1_555 1_555
C27 N2 1_555 1_555
C27 N14 1_555 1_555
C28 N3 1_555 1_555
C28 N15 1_555 1_555
C33 C34 1_555 1_555
C39 C40 1_555 1_555
C41 N6 1_555 1_555
C41 N18 1_555 1_555
C42 N4 1_555 1_555
C42 N16 1_555 1_555

#END
