
#######################################################################
#
#                 Cambridge Crystallographic Data Centre
#                                CCDC 
#
#######################################################################
#
# If this CIF has been generated from an entry in the Cambridge 
# Structural Database, then it will include bibliographic, chemical, 
# crystal, experimental, refinement or atomic coordinate data resulting 
# from the CCDC's data processing and validation procedures.
#
#######################################################################

data_QUQTOM
_chemical_formula_moiety         'C18 H17 Cl1 O6'
_chemical_name_systematic        
'Ethyl 4-(4-chlorophenyl)-2-hydroxy-7-methyl-5-oxo-3,4-dihydro-2H,5H-pyrano[4,3-b]pyran-2-carboxylate'
_symmetry_cell_setting           orthorhombic
_symmetry_space_group_name_H-M   'P 21 21 21'
_symmetry_Int_Tables_number      19
_space_group_name_Hall           'P 2ac 2ab'
loop_
_symmetry_equiv_pos_site_id
_symmetry_equiv_pos_as_xyz
1 x,y,z
2 1/2-x,-y,1/2+z
3 1/2+x,1/2-y,-z
4 -x,1/2+y,1/2-z
_cell_length_a                   9.3049(4)
_cell_length_b                   10.3622(5)
_cell_length_c                   19.7121(8)
_cell_angle_alpha                90
_cell_angle_beta                 90
_cell_angle_gamma                90
_cell_volume                     1900.63
_exptl_crystal_colour            colorless
_exptl_crystal_description       chunk
_cell_formula_units_Z            4
loop_
_atom_site_label
_atom_site_type_symbol
_atom_site_fract_x
_atom_site_fract_y
_atom_site_fract_z
Cl1 Cl -0.19035(14) 0.00538(18) 0.75672(8)
O1 O 0.4766(2) 0.3993(2) 0.52977(10)
H1 H 0.5475 0.4392 0.5167
O2 O 0.6004(2) 0.23795(19) 0.58660(11)
O3 O 0.4544(2) -0.0801(2) 0.48736(12)
O4 O 0.2277(2) -0.0227(2) 0.49593(13)
O5 O 0.5252(3) 0.5559(2) 0.63673(13)
C1 C 0.3631(3) 0.3044(3) 0.62357(16)
H2 H 0.3007 0.3786 0.6291
H3 H 0.3808 0.2680 0.6681
C2 C 0.3978(3) 0.1107(3) 0.55185(15)
C3 C 0.1664(3) 0.1452(3) 0.62050(15)
C4 C 0.5038(3) 0.3476(3) 0.59308(15)
C5 C 0.2876(3) 0.2038(3) 0.57937(14)
H4 H 0.2446 0.2491 0.5407
C6 C 0.5993(3) -0.0601(3) 0.49755(18)
C7 C 0.3517(3) 0.0042(3) 0.51193(16)
C8 C 0.6440(3) 0.0423(3) 0.53214(17)
H5 H 0.7416 0.0558 0.5393
O6 O 0.6770(4) 0.4115(3) 0.67706(19)
C9 C 0.5418(3) 0.1309(3) 0.55798(15)
C10 C 0.0352(3) 0.2083(3) 0.62350(16)
H6 H 0.0208 0.2817 0.5972
C11 C -0.0745(3) 0.1649(4) 0.66462(18)
H7 H -0.1621 0.2081 0.6657
C12 C 0.1852(4) 0.0370(4) 0.66073(19)
H8 H 0.2725 -0.0068 0.6598
C13 C 0.6878(4) -0.1622(4) 0.4643(3)
H9 H 0.7872 -0.1373 0.4652
H10 H 0.6571 -0.1728 0.4182
H11 H 0.6761 -0.2421 0.4883
C14 C 0.5825(3) 0.4396(3) 0.64048(18)
C15 C 0.0761(4) -0.0067(5) 0.7022(2)
H12 H 0.0900 -0.0795 0.7290
C16 C -0.0529(4) 0.0575(5) 0.7039(2)
C17 C 0.5926(5) 0.6543(3) 0.6800(3)
H13 H 0.6914 0.6697 0.6666
H14 H 0.5905 0.6285 0.7274
C18 C 0.4992(7) 0.7747(5) 0.6680(4)
H15 H 0.4992 0.7957 0.6206
H16 H 0.5374 0.8459 0.6934
H17 H 0.4026 0.7576 0.6826
loop_
_geom_bond_atom_site_label_1
_geom_bond_atom_site_label_2
_geom_bond_site_symmetry_1
_geom_bond_site_symmetry_2
Cl1 C16 1_555 1_555
O1 H1 1_555 1_555
O2 C4 1_555 1_555
O3 C6 1_555 1_555
O4 C7 1_555 1_555
O5 C14 1_555 1_555
C1 H2 1_555 1_555
H3 C1 1_555 1_555
C2 C5 1_555 1_555
C3 C5 1_555 1_555
C4 O1 1_555 1_555
C5 C1 1_555 1_555
H4 C5 1_555 1_555
C6 C8 1_555 1_555
C7 O3 1_555 1_555
C8 H5 1_555 1_555
O6 C14 1_555 1_555
C9 O2 1_555 1_555
C10 C3 1_555 1_555
H6 C10 1_555 1_555
C11 C10 1_555 1_555
H7 C11 1_555 1_555
C12 C3 1_555 1_555
H8 C12 1_555 1_555
C13 C6 1_555 1_555
H9 C13 1_555 1_555
H10 C13 1_555 1_555
H11 C13 1_555 1_555
C14 C4 1_555 1_555
C15 C12 1_555 1_555
H12 C15 1_555 1_555
C16 C11 1_555 1_555
C17 O5 1_555 1_555
H13 C17 1_555 1_555
H14 C17 1_555 1_555
C18 C17 1_555 1_555
H15 C18 1_555 1_555
H16 C18 1_555 1_555
H17 C18 1_555 1_555
C1 C4 1_555 1_555
C2 C7 1_555 1_555
C2 C9 1_555 1_555
C8 C9 1_555 1_555
C15 C16 1_555 1_555

#END
