
#######################################################################
#
#                 Cambridge Crystallographic Data Centre
#                                CCDC 
#
#######################################################################
#
# If this CIF has been generated from an entry in the Cambridge 
# Structural Database, then it will include bibliographic, chemical, 
# crystal, experimental, refinement or atomic coordinate data resulting 
# from the CCDC's data processing and validation procedures.
#
#######################################################################

data_QUQTAY
_chemical_name_common            'naphthospironone A'
_chemical_formula_moiety         'C20 H18 O9'
_chemical_name_systematic        
1,6,9,10-Tetrahydroxy-12-methyl-8H,14H-spiro[13-oxatetracyclo[7.6.1.0^2,7^.0^10,15^]hexadeca-2,4,6-triene-16,2'-pyran]-6',8,14(3'H)-trione
_symmetry_cell_setting           orthorhombic
_symmetry_space_group_name_H-M   'P 21 21 21'
_symmetry_Int_Tables_number      19
_space_group_name_Hall           'P 2ac 2ab'
loop_
_symmetry_equiv_pos_site_id
_symmetry_equiv_pos_as_xyz
1 x,y,z
2 1/2-x,-y,1/2+z
3 -x,1/2+y,1/2-z
4 1/2+x,1/2-y,-z
_cell_length_a                   11.4904(11)
_cell_length_b                   11.7218(11)
_cell_length_c                   13.5314(12)
_cell_angle_alpha                90
_cell_angle_beta                 90
_cell_angle_gamma                90
_cell_volume                     1822.52
_exptl_crystal_colour            colorless
_exptl_crystal_description       block
_cell_formula_units_Z            4
loop_
_atom_site_label
_atom_site_type_symbol
_atom_site_fract_x
_atom_site_fract_y
_atom_site_fract_z
O1 O 0.36429(16) 0.53720(14) -0.00556(12)
O2 O 0.28944(12) 0.63138(11) 0.11940(10)
O3 O 0.06199(15) 0.55387(14) 0.08637(12)
H1 H -0.0004 0.5231 0.0987
O4 O -0.09084(15) 0.57475(14) 0.23148(13)
O5 O -0.16045(16) 0.65440(17) 0.40213(14)
H2 H -0.1646 0.6176 0.3507
O6 O 0.33006(13) 0.77165(14) 0.28569(11)
H3 H 0.3673 0.8098 0.2459
O7 O 0.37108(15) 0.89432(17) 0.12718(13)
O8 O 0.25045(14) 0.90003(14) 0.00320(11)
O9 O -0.03257(13) 0.81029(14) 0.13558(11)
H4 H -0.0585 0.8456 0.0881
C1 C 0.31717(19) 0.53199(18) 0.07387(16)
C2 C 0.2940(3) 0.42470(19) 0.12549(19)
H5 H 0.3054 0.3557 0.0930
C3 C 0.2572(3) 0.42517(19) 0.2176(2)
H6 H 0.2471 0.3560 0.2501
C4 C 0.2314(2) 0.53250(19) 0.27122(16)
H7 H 0.2971 0.5519 0.3130
H8 H 0.1643 0.5209 0.3136
C5 C 0.20694(17) 0.63117(16) 0.20100(13)
C6 C 0.08360(18) 0.63945(15) 0.15627(14)
C7 C -0.00387(19) 0.63495(17) 0.24080(16)
C8 C 0.02315(18) 0.70214(17) 0.32742(15)
C9 C -0.0568(2) 0.70925(19) 0.40596(17)
C10 C -0.0301(2) 0.7744(2) 0.48870(17)
H9 H -0.0825 0.7796 0.5409
C11 C 0.0744(2) 0.8312(2) 0.49282(16)
H10 H 0.0913 0.8756 0.5479
C12 C 0.1558(2) 0.82392(17) 0.41652(14)
H11 H 0.2265 0.8621 0.4215
C13 C 0.13077(17) 0.75972(17) 0.33361(13)
C14 C 0.21845(15) 0.75117(16) 0.24819(13)
C15 C 0.17587(17) 0.83114(15) 0.16299(13)
H12 H 0.1396 0.8978 0.1940
C16 C 0.27417(18) 0.87489(17) 0.09715(16)
C17 C 0.1332(2) 0.8797(2) -0.03468(15)
H13 H 0.0798 0.9371 -0.0079
C18 C 0.0956(2) 0.7625(2) -0.00185(15)
H14 H 0.1545 0.7069 -0.0194
H15 H 0.0236 0.7416 -0.0346
C19 C 0.07766(16) 0.76319(16) 0.11052(14)
C20 C 0.1406(3) 0.8923(3) -0.14638(18)
H16 H 0.1661 0.9681 -0.1625
H17 H 0.0654 0.8790 -0.1749
H18 H 0.1951 0.8379 -0.1722
loop_
_geom_bond_atom_site_label_1
_geom_bond_atom_site_label_2
_geom_bond_site_symmetry_1
_geom_bond_site_symmetry_2
O1 C1 1_555 1_555
O2 C1 1_555 1_555
O3 H1 1_555 1_555
O4 C7 1_555 1_555
O5 H2 1_555 1_555
O6 H3 1_555 1_555
O7 C16 1_555 1_555
O8 C16 1_555 1_555
O9 H4 1_555 1_555
C1 C2 1_555 1_555
C2 H5 1_555 1_555
C3 C2 1_555 1_555
H6 C3 1_555 1_555
C4 C3 1_555 1_555
H7 C4 1_555 1_555
H8 C4 1_555 1_555
C5 O2 1_555 1_555
C6 O3 1_555 1_555
C7 C6 1_555 1_555
C8 C7 1_555 1_555
C9 O5 1_555 1_555
C10 C9 1_555 1_555
H9 C10 1_555 1_555
C11 C10 1_555 1_555
H10 C11 1_555 1_555
C12 C11 1_555 1_555
H11 C12 1_555 1_555
C13 C8 1_555 1_555
C14 O6 1_555 1_555
C15 C14 1_555 1_555
H12 C15 1_555 1_555
C16 C15 1_555 1_555
C17 O8 1_555 1_555
H13 C17 1_555 1_555
C18 C17 1_555 1_555
H14 C18 1_555 1_555
H15 C18 1_555 1_555
C19 O9 1_555 1_555
C20 C17 1_555 1_555
H16 C20 1_555 1_555
H17 C20 1_555 1_555
H18 C20 1_555 1_555
C4 C5 1_555 1_555
C5 C6 1_555 1_555
C5 C14 1_555 1_555
C6 C19 1_555 1_555
C8 C9 1_555 1_555
C12 C13 1_555 1_555
C13 C14 1_555 1_555
C15 C19 1_555 1_555
C18 C19 1_555 1_555

#END
