
#######################################################################
#
#                 Cambridge Crystallographic Data Centre
#                                CCDC 
#
#######################################################################
#
# If this CIF has been generated from an entry in the Cambridge 
# Structural Database, then it will include bibliographic, chemical, 
# crystal, experimental, refinement or atomic coordinate data resulting 
# from the CCDC's data processing and validation procedures.
#
#######################################################################

data_QURJOE
_chemical_name_common            
8-(p-(hydroxylmethane)phenyl)-4,4-difluoro-4-bora-3a,4a-diaza-s-indacene
_chemical_formula_moiety         'C16 H13 B1 F2 N2 O1'
_chemical_name_systematic        
(4-(5,5-difluoro-5H-6,5-dipyrrolo[1,2-c:2',1'-f][1,3,2]diazaborinin-10-yl)phenyl)methanol
_symmetry_cell_setting           triclinic
_symmetry_space_group_name_H-M   'P -1'
_symmetry_Int_Tables_number      2
_space_group_name_Hall           '-P 1'
loop_
_symmetry_equiv_pos_site_id
_symmetry_equiv_pos_as_xyz
1 x,y,z
2 -x,-y,-z
_cell_length_a                   8.029(3)
_cell_length_b                   8.162(3)
_cell_length_c                   11.071(4)
_cell_angle_alpha                87.789(7)
_cell_angle_beta                 84.424(6)
_cell_angle_gamma                72.550(6)
_cell_volume                     688.815
_exptl_crystal_colour            red
_exptl_crystal_description       prism
_cell_formula_units_Z            2
loop_
_atom_site_label
_atom_site_type_symbol
_atom_site_fract_x
_atom_site_fract_y
_atom_site_fract_z
B1 B 1.2050(7) 1.1468(7) 0.4001(5)
F1 F 1.3393(3) 1.1992(4) 0.3380(3)
F2 F 1.2001(4) 1.1776(4) 0.5216(2)
N1 N 1.2335(5) 0.9550(5) 0.3780(3)
N2 N 1.0298(5) 1.2435(5) 0.3497(3)
C1 C 0.5733(12) 0.6956(9) -0.0158(7)
H1 H 0.5385 0.6164 0.0416
H2 H 0.4670 0.7853 -0.0320
O1 O 0.6306(8) 0.6153(8) -0.1130(6)
H3 H 0.6545 0.6808 -0.1652
C2 C 1.3561(6) 0.8207(7) 0.4227(5)
H4 H 1.4365 0.8285 0.4757
C3 C 1.3433(6) 0.6695(7) 0.3773(5)
H5 H 1.4138 0.5594 0.3940
C4 C 1.2098(6) 0.7100(6) 0.3040(5)
H6 H 1.1727 0.6328 0.2619
C5 C 1.1384(6) 0.8890(6) 0.3035(4)
C6 C 0.9891(5) 0.9974(6) 0.2545(4)
C7 C 0.9348(6) 1.1721(6) 0.2792(4)
C8 C 0.7946(6) 1.3078(6) 0.2396(4)
H7 H 0.7108 1.2981 0.1902
C9 C 0.8050(6) 1.4566(6) 0.2878(4)
H8 H 0.7290 1.5664 0.2777
C10 C 0.9499(7) 1.4127(6) 0.3541(4)
H9 H 0.9866 1.4903 0.3960
C11 C 0.8853(6) 0.9235(6) 0.1805(4)
C12 C 0.9618(6) 0.8173(6) 0.0822(4)
H10 H 1.0813 0.7933 0.0598
C13 C 0.8613(7) 0.7471(6) 0.0173(4)
H11 H 0.9139 0.6772 -0.0487
C14 C 0.6846(7) 0.7795(6) 0.0494(4)
C15 C 0.6078(6) 0.8850(6) 0.1462(4)
H12 H 0.4881 0.9089 0.1678
C16 C 0.7065(6) 0.9552(6) 0.2111(4)
H13 H 0.6527 1.0253 0.2767
H14? H 0.5842 0.7304 -0.1002
H15? H 0.6324 0.5732 -0.0131
O2? O 0.4206(15) 0.7112(13) 0.0088(10)
H16? H 0.4053 0.6776 0.0785
loop_
_geom_bond_atom_site_label_1
_geom_bond_atom_site_label_2
_geom_bond_site_symmetry_1
_geom_bond_site_symmetry_2
B1 F1 1_555 1_555
F2 B1 1_555 1_555
N1 B1 1_555 1_555
N2 B1 1_555 1_555
C1 H1 1_555 1_555
H2 C1 1_555 1_555
O1 C1 1_555 1_555
H3 O1 1_555 1_555
C2 N1 1_555 1_555
H4 C2 1_555 1_555
C3 C2 1_555 1_555
H5 C3 1_555 1_555
C4 C3 1_555 1_555
H6 C4 1_555 1_555
C5 N1 1_555 1_555
C6 C5 1_555 1_555
C7 N2 1_555 1_555
C8 C7 1_555 1_555
H7 C8 1_555 1_555
C9 C8 1_555 1_555
H8 C9 1_555 1_555
C10 N2 1_555 1_555
H9 C10 1_555 1_555
C11 C6 1_555 1_555
C12 C11 1_555 1_555
H10 C12 1_555 1_555
C13 C12 1_555 1_555
H11 C13 1_555 1_555
C14 C1 1_555 1_555
C15 C14 1_555 1_555
H12 C15 1_555 1_555
C16 C11 1_555 1_555
H13 C16 1_555 1_555
C4 C5 1_555 1_555
C6 C7 1_555 1_555
C9 C10 1_555 1_555
C13 C14 1_555 1_555
C15 C16 1_555 1_555

#END
