
#######################################################################
#
#                 Cambridge Crystallographic Data Centre
#                                CCDC 
#
#######################################################################
#
# If this CIF has been generated from an entry in the Cambridge 
# Structural Database, then it will include bibliographic, chemical, 
# crystal, experimental, refinement or atomic coordinate data resulting 
# from the CCDC's data processing and validation procedures.
#
#######################################################################

data_QURKEV
_chemical_name_common            
8-(p-methoxyphenyl)-4,4-difluoro-4-bora-3a,4a-diaza-s-indacene
_chemical_formula_moiety         'C16 H13 B1 F2 N2 O1'
_chemical_name_systematic        
5,5-difluoro-10-(4-methoxyphenyl)-5H-4,5-dipyrrolo[1,2-c:2',1'-f][1,3,2]diazaborinine
_symmetry_cell_setting           orthorhombic
_symmetry_space_group_name_H-M   'P n a 21'
_symmetry_Int_Tables_number      33
_space_group_name_Hall           'P 2c -2n'
loop_
_symmetry_equiv_pos_site_id
_symmetry_equiv_pos_as_xyz
1 x,y,z
2 -x,-y,1/2+z
3 1/2-x,1/2+y,1/2+z
4 1/2+x,1/2-y,z
_cell_length_a                   8.500(3)
_cell_length_b                   20.577(7)
_cell_length_c                   8.374(3)
_cell_angle_alpha                90
_cell_angle_beta                 90
_cell_angle_gamma                90
_cell_volume                     1464.65
_exptl_crystal_colour            red
_exptl_crystal_description       needle
_chemical_melting_point          '425 K'
_cell_formula_units_Z            4
loop_
_atom_site_label
_atom_site_type_symbol
_atom_site_fract_x
_atom_site_fract_y
_atom_site_fract_z
B1 B -0.0981(9) 0.6067(4) 0.1668(11)
N1 N -0.1585(5) 0.6752(2) 0.1285(5)
N2 N -0.0366(5) 0.6088(2) 0.3390(7)
O1 O 0.0587(5) 0.9491(2) 0.7408(6)
F1 F -0.2207(4) 0.56235(15) 0.1536(5)
F2 F 0.0211(5) 0.58977(17) 0.0632(6)
C1 C -0.2440(8) 0.6929(3) -0.0002(8)
H1 H -0.2712 0.6656 -0.0842
C2 C -0.2850(7) 0.7577(3) 0.0115(7)
H2 H -0.3448 0.7810 -0.0619
C3 C -0.2218(6) 0.7819(3) 0.1509(7)
H3 H -0.2308 0.8242 0.1891
C4 C -0.1416(6) 0.7305(3) 0.2238(6)
C5 C -0.0667(6) 0.7261(2) 0.3718(6)
C6 C -0.0152(6) 0.6657(3) 0.4282(7)
C7 C 0.0622(7) 0.6472(3) 0.5694(9)
H4 H 0.0910 0.6748 0.6523
C8 C 0.0878(8) 0.5821(3) 0.5642(11)
H5 H 0.1381 0.5572 0.6416
C9 C 0.0249(8) 0.5598(3) 0.4220(11)
H6 H 0.0255 0.5167 0.3890
C10 C -0.0368(6) 0.7853(2) 0.4682(6)
C11 C 0.0298(6) 0.8394(2) 0.3957(7)
H7 H 0.0520 0.8384 0.2870
C12 C 0.0636(7) 0.8950(3) 0.4831(8)
H8 H 0.1091 0.9308 0.4336
C13 C 0.0295(7) 0.8965(3) 0.6426(8)
C14 C -0.0418(7) 0.8437(3) 0.7170(7)
H9 H -0.0687 0.8459 0.8245
C15 C -0.0723(6) 0.7881(3) 0.6313(7)
H10 H -0.1167 0.7522 0.6818
C16 C 0.1318(9) 1.0052(3) 0.6700(12)
H11 H 0.1450 1.0383 0.7497
H12 H 0.0664 1.0214 0.5855
H13 H 0.2327 0.9932 0.6276
loop_
_geom_bond_atom_site_label_1
_geom_bond_atom_site_label_2
_geom_bond_site_symmetry_1
_geom_bond_site_symmetry_2
B1 N1 1_555 1_555
N1 C1 1_555 1_555
N2 B1 1_555 1_555
O1 C13 1_555 1_555
F1 B1 1_555 1_555
F2 B1 1_555 1_555
C1 H1 1_555 1_555
C2 C1 1_555 1_555
H2 C2 1_555 1_555
C3 C2 1_555 1_555
H3 C3 1_555 1_555
C4 N1 1_555 1_555
C5 C4 1_555 1_555
C6 N2 1_555 1_555
C7 C6 1_555 1_555
H4 C7 1_555 1_555
C8 C7 1_555 1_555
H5 C8 1_555 1_555
C9 N2 1_555 1_555
H6 C9 1_555 1_555
C10 C5 1_555 1_555
C11 C10 1_555 1_555
H7 C11 1_555 1_555
C12 C11 1_555 1_555
H8 C12 1_555 1_555
C13 C12 1_555 1_555
C14 C13 1_555 1_555
H9 C14 1_555 1_555
C15 C10 1_555 1_555
H10 C15 1_555 1_555
C16 O1 1_555 1_555
H11 C16 1_555 1_555
H12 C16 1_555 1_555
H13 C16 1_555 1_555
C3 C4 1_555 1_555
C5 C6 1_555 1_555
C8 C9 1_555 1_555
C14 C15 1_555 1_555

#END
