
#######################################################################
#
#                 Cambridge Crystallographic Data Centre
#                                CCDC 
#
#######################################################################
#
# If this CIF has been generated from an entry in the Cambridge 
# Structural Database, then it will include bibliographic, chemical, 
# crystal, experimental, refinement or atomic coordinate data resulting 
# from the CCDC's data processing and validation procedures.
#
#######################################################################

data_QURKIZ
_chemical_name_common            
8-(m-methoxyphenyl)-4,4-difluoro-4-bora-3a,4a-diaza-s-indacene
_chemical_formula_moiety         'C16 H13 B1 F2 N2 O1'
_chemical_name_systematic        
5,5-difluoro-10-(3-methoxyphenyl)-5H-4,5-dipyrrolo[1,2-c:2',1'-f][1,3,2]diazaborinine
_symmetry_cell_setting           triclinic
_symmetry_space_group_name_H-M   'P -1'
_symmetry_Int_Tables_number      2
_space_group_name_Hall           '-P 1'
loop_
_symmetry_equiv_pos_site_id
_symmetry_equiv_pos_as_xyz
1 x,y,z
2 -x,-y,-z
_cell_length_a                   8.040(11)
_cell_length_b                   10.954(15)
_cell_length_c                   17.19(2)
_cell_angle_alpha                89.12(2)
_cell_angle_beta                 88.662(19)
_cell_angle_gamma                71.173(18)
_cell_volume                     1432.49
_exptl_crystal_colour            orange
_exptl_crystal_description       needle
_chemical_melting_point          '432 K'
_cell_formula_units_Z            4
loop_
_atom_site_label
_atom_site_type_symbol
_atom_site_fract_x
_atom_site_fract_y
_atom_site_fract_z
B1 B 1.0380(14) -0.0607(9) 0.7740(6)
N1 N 0.9124(8) 0.0258(6) 0.8332(4)
N2 N 1.0266(8) 0.0200(6) 0.7010(4)
F1 F 1.2084(6) -0.0968(4) 0.8033(3)
F2 F 0.9945(6) -0.1704(4) 0.7620(3)
O1 O 0.7076(7) 0.6476(5) 0.8584(3)
C1 C 0.8641(12) -0.0064(8) 0.9037(5)
H1 H 0.9087 -0.0882 0.9259
C2 C 0.7394(11) 0.0967(8) 0.9396(4)
H2 H 0.6852 0.0963 0.9880
C3 C 0.7121(10) 0.2008(7) 0.8888(4)
H3 H 0.6359 0.2840 0.8967
C4 C 0.8207(9) 0.1568(7) 0.8237(4)
C5 C 0.8386(9) 0.2210(7) 0.7539(4)
C6 C 0.9425(10) 0.1512(7) 0.6929(5)
C7 C 0.9821(10) 0.1886(9) 0.6170(5)
H4 H 0.9448 0.2715 0.5959
C8 C 1.0852(12) 0.0798(11) 0.5811(6)
H5 H 1.1297 0.0747 0.5304
C9 C 1.1121(12) -0.0222(10) 0.6334(6)
H6 H 1.1793 -0.1071 0.6232
C10 C 0.7525(9) 0.3616(7) 0.7460(4)
C11 C 0.7660(9) 0.4448(7) 0.8049(4)
H7 H 0.8298 0.4118 0.8492
C12 C 0.6839(10) 0.5767(7) 0.7967(5)
C13 C 0.5884(10) 0.6291(7) 0.7316(5)
H8 H 0.5330 0.7176 0.7268
C14 C 0.5779(10) 0.5452(8) 0.6737(4)
H9 H 0.5159 0.5790 0.6291
C15 C 0.6559(9) 0.4137(8) 0.6799(4)
H10 H 0.6445 0.3600 0.6405
C16 C 0.6261(11) 0.7836(7) 0.8553(5)
H11 H 0.6527 0.8214 0.9015
H12 H 0.5012 0.8034 0.8519
H13 H 0.6695 0.8180 0.8104
B2 B 0.4043(13) 0.2753(9) 0.5374(5)
N3 N 0.4656(7) 0.1725(5) 0.6012(3)
N4 N 0.2788(8) 0.3946(6) 0.5802(3)
F3 F 0.5448(6) 0.3054(4) 0.5052(2)
F4 F 0.3145(6) 0.2376(4) 0.4805(2)
O2 O 0.2285(8) 0.5372(6) 0.9547(3)
C17 C 0.5804(10) 0.0545(8) 0.5895(4)
H14 H 0.6281 0.0219 0.5414
C18 C 0.6181(10) -0.0122(7) 0.6598(5)
H15 H 0.6927 -0.0962 0.6671
C19 C 0.5239(9) 0.0697(7) 0.7160(4)
H16 H 0.5245 0.0516 0.7690
C20 C 0.4260(9) 0.1858(6) 0.6802(4)
C21 C 0.3084(8) 0.3002(6) 0.7086(4)
C22 C 0.2328(9) 0.4038(7) 0.6595(4)
C23 C 0.1046(9) 0.5254(7) 0.6711(5)
H17 H 0.0482 0.5570 0.7180
C24 C 0.0784(11) 0.5881(8) 0.6012(5)
H18 H 0.0022 0.6708 0.5916
C25 C 0.1870(12) 0.5054(8) 0.5466(5)
H19 H 0.1944 0.5248 0.4940
C26 C 0.2667(9) 0.3129(7) 0.7933(4)
C27 C 0.2713(8) 0.4215(7) 0.8331(4)
H20 H 0.3039 0.4854 0.8069
C28 C 0.2277(10) 0.4347(8) 0.9114(5)
C29 C 0.1811(10) 0.3397(8) 0.9507(4)
H21 H 0.1521 0.3483 1.0034
C30 C 0.1777(10) 0.2327(8) 0.9116(5)
H22 H 0.1448 0.1691 0.9381
C31 C 0.2720(17) 0.6366(9) 0.9174(5)
H23 H 0.2674 0.7025 0.9543
H24 H 0.1901 0.6723 0.8768
H25 H 0.3886 0.6035 0.8954
C32 C 0.2223(9) 0.2178(7) 0.8335(4)
H26 H 0.2225 0.1435 0.8080
loop_
_geom_bond_atom_site_label_1
_geom_bond_atom_site_label_2
_geom_bond_site_symmetry_1
_geom_bond_site_symmetry_2
B1 N1 1_555 1_555
N1 C1 1_555 1_555
N2 B1 1_555 1_555
F1 B1 1_555 1_555
F2 B1 1_555 1_555
O1 C12 1_555 1_555
C1 H1 1_555 1_555
C2 C1 1_555 1_555
H2 C2 1_555 1_555
C3 C2 1_555 1_555
H3 C3 1_555 1_555
C4 N1 1_555 1_555
C5 C4 1_555 1_555
C6 N2 1_555 1_555
C7 C6 1_555 1_555
H4 C7 1_555 1_555
C8 C7 1_555 1_555
H5 C8 1_555 1_555
C9 N2 1_555 1_555
H6 C9 1_555 1_555
C10 C5 1_555 1_555
C11 C10 1_555 1_555
H7 C11 1_555 1_555
C12 C11 1_555 1_555
C13 C12 1_555 1_555
H8 C13 1_555 1_555
C14 C13 1_555 1_555
H9 C14 1_555 1_555
C15 C10 1_555 1_555
H10 C15 1_555 1_555
C16 O1 1_555 1_555
H11 C16 1_555 1_555
H12 C16 1_555 1_555
H13 C16 1_555 1_555
B2 N3 1_555 1_555
N3 C17 1_555 1_555
N4 B2 1_555 1_555
F3 B2 1_555 1_555
F4 B2 1_555 1_555
O2 C28 1_555 1_555
C17 H14 1_555 1_555
C18 C17 1_555 1_555
H15 C18 1_555 1_555
C19 C18 1_555 1_555
H16 C19 1_555 1_555
C20 N3 1_555 1_555
C21 C20 1_555 1_555
C22 N4 1_555 1_555
C23 C22 1_555 1_555
H17 C23 1_555 1_555
C24 C23 1_555 1_555
H18 C24 1_555 1_555
C25 N4 1_555 1_555
H19 C25 1_555 1_555
C26 C21 1_555 1_555
C27 C26 1_555 1_555
H20 C27 1_555 1_555
C28 C27 1_555 1_555
C29 C28 1_555 1_555
H21 C29 1_555 1_555
C30 C29 1_555 1_555
H22 C30 1_555 1_555
C31 O2 1_555 1_555
H23 C31 1_555 1_555
H24 C31 1_555 1_555
H25 C31 1_555 1_555
C32 C26 1_555 1_555
H26 C32 1_555 1_555
C3 C4 1_555 1_555
C5 C6 1_555 1_555
C8 C9 1_555 1_555
C14 C15 1_555 1_555
C19 C20 1_555 1_555
C21 C22 1_555 1_555
C24 C25 1_555 1_555
C30 C32 1_555 1_555

#END
