
#######################################################################
#
#                 Cambridge Crystallographic Data Centre
#                                CCDC 
#
#######################################################################
#
# If this CIF has been generated from an entry in the Cambridge 
# Structural Database, then it will include bibliographic, chemical, 
# crystal, experimental, refinement or atomic coordinate data resulting 
# from the CCDC's data processing and validation procedures.
#
#######################################################################

data_QURLUM
_chemical_formula_moiety         'C14 H15 N1 O2'
_chemical_name_systematic        
16-oxa-8-azatetracyclo[7.4.3.0^1,9^.0^2,7^]hexadeca-2,4,6-trien-15-one
_symmetry_cell_setting           triclinic
_symmetry_space_group_name_H-M   'P -1'
_symmetry_Int_Tables_number      2
_space_group_name_Hall           '-P 1'
loop_
_symmetry_equiv_pos_site_id
_symmetry_equiv_pos_as_xyz
1 x,y,z
2 -x,-y,-z
_cell_length_a                   6.9930(4)
_cell_length_b                   10.7442(7)
_cell_length_c                   16.0699(8)
_cell_angle_alpha                79.767(5)
_cell_angle_beta                 78.714(5)
_cell_angle_gamma                84.649(5)
_cell_volume                     1163.07
_cell_formula_units_Z            4
loop_
_atom_site_label
_atom_site_type_symbol
_atom_site_fract_x
_atom_site_fract_y
_atom_site_fract_z
C1 C 0.9086(5) 0.6566(4) 0.2502(2)
C2 C 0.7506(6) 0.4668(4) 0.2830(3)
C3 C 0.8484(6) 0.4711(4) 0.3573(3)
H1 H 0.9700 0.4156 0.3544
H2 H 0.7606 0.4440 0.4127
C4 C 0.8931(5) 0.6090(4) 0.3481(2)
C5 C 1.0746(5) 0.6327(4) 0.3827(3)
H3 H 1.0692 0.7229 0.3893
H4 H 1.0715 0.5808 0.4403
C6 C 1.2660(5) 0.6011(4) 0.3247(3)
H5 H 1.3773 0.6204 0.3490
H6 H 1.2778 0.5096 0.3209
C7 C 1.2701(5) 0.6785(4) 0.2362(3)
H7 H 1.3983 0.6632 0.1995
H8 H 1.2534 0.7698 0.2407
C8 C 1.1088(5) 0.6439(5) 0.1951(3)
H9 H 1.1101 0.6995 0.1388
H10 H 1.1352 0.5555 0.1843
C9 C 0.7201(5) 0.6917(3) 0.3840(2)
C10 C 0.6112(5) 0.6835(4) 0.4661(2)
H11 H 0.6351 0.6147 0.5096
C11 C 0.4664(6) 0.7773(4) 0.4841(3)
H12 H 0.3895 0.7727 0.5402
C12 C 0.4341(6) 0.8779(4) 0.4202(3)
H13 H 0.3356 0.9421 0.4335
C13 C 0.5418(5) 0.8872(4) 0.3372(3)
H14 H 0.5183 0.9563 0.2938
C14 C 0.6856(5) 0.7916(4) 0.3199(2)
N1 N 0.8178(4) 0.7814(3) 0.2432(2)
H15 H 0.8407 0.8419 0.1984
O1 O 0.7817(4) 0.5714(3) 0.22429(19)
O2 O 0.6568(4) 0.3830(3) 0.2742(3)
C15 C 0.3908(6) 0.2166(4) 0.1225(3)
C16 C 0.4522(7) 0.0033(4) 0.1137(3)
C17 C 0.2442(7) 0.0343(5) 0.1018(3)
H16 H 0.1582 -0.0322 0.1354
H17 H 0.2337 0.0440 0.0404
C18 C 0.1921(6) 0.1601(4) 0.1357(3)
C19 C 0.0385(7) 0.2492(5) 0.0928(3)
H18 H -0.0700 0.1989 0.0888
H19 H -0.0160 0.3133 0.1298
C20 C 0.1206(7) 0.3153(5) 0.0053(3)
H20 H 0.0182 0.3737 -0.0177
H21 H 0.1632 0.2523 -0.0337
C21 C 0.2945(8) 0.3903(5) 0.0080(3)
H22 H 0.3413 0.4385 -0.0498
H23 H 0.2534 0.4515 0.0484
C22 C 0.4589(7) 0.3002(5) 0.0369(3)
H24 H 0.5098 0.2459 -0.0073
H25 H 0.5669 0.3499 0.0422
C23 C 0.2502(6) 0.2125(4) 0.2645(3)
C24 C 0.2242(7) 0.2155(4) 0.3517(3)
H26 H 0.3045 0.2626 0.3744
C25 C 0.0707(8) 0.1444(5) 0.4062(3)
H27 H 0.0469 0.1440 0.4665
C26 C -0.0406(7) 0.0778(5) 0.3719(3)
H28 H -0.1427 0.0316 0.4087
C27 C -0.0093(7) 0.0756(4) 0.2859(3)
H29 H -0.0882 0.0275 0.2632
C28 C 0.1336(6) 0.1417(4) 0.2329(3)
N2 N 0.3788(5) 0.2763(3) 0.1956(2)
H30 H 0.4420 0.3426 0.1974
O3 O 0.5288(4) 0.1040(3) 0.12775(19)
O4 O 0.5468(5) -0.0954(3) 0.1099(2)
loop_
_geom_bond_atom_site_label_1
_geom_bond_atom_site_label_2
_geom_bond_site_symmetry_1
_geom_bond_site_symmetry_2
C1 C4 1_555 1_555
C2 C3 1_555 1_555
C3 H1 1_555 1_555
H2 C3 1_555 1_555
C4 C3 1_555 1_555
C5 C4 1_555 1_555
H3 C5 1_555 1_555
H4 C5 1_555 1_555
C6 C5 1_555 1_555
H5 C6 1_555 1_555
H6 C6 1_555 1_555
C7 C6 1_555 1_555
H7 C7 1_555 1_555
H8 C7 1_555 1_555
C8 C1 1_555 1_555
H9 C8 1_555 1_555
H10 C8 1_555 1_555
C9 C4 1_555 1_555
C10 C9 1_555 1_555
H11 C10 1_555 1_555
C11 C10 1_555 1_555
H12 C11 1_555 1_555
C12 C11 1_555 1_555
H13 C12 1_555 1_555
C13 C12 1_555 1_555
H14 C13 1_555 1_555
C14 C9 1_555 1_555
N1 C1 1_555 1_555
H15 N1 1_555 1_555
O1 C1 1_555 1_555
O2 C2 1_555 1_555
C15 C18 1_555 1_555
C16 C17 1_555 1_555
C17 H16 1_555 1_555
H17 C17 1_555 1_555
C18 C17 1_555 1_555
C19 C18 1_555 1_555
H18 C19 1_555 1_555
H19 C19 1_555 1_555
C20 C19 1_555 1_555
H20 C20 1_555 1_555
H21 C20 1_555 1_555
C21 C20 1_555 1_555
H22 C21 1_555 1_555
H23 C21 1_555 1_555
C22 C15 1_555 1_555
H24 C22 1_555 1_555
H25 C22 1_555 1_555
C23 C24 1_555 1_555
C24 H26 1_555 1_555
C25 C24 1_555 1_555
H27 C25 1_555 1_555
C26 C25 1_555 1_555
H28 C26 1_555 1_555
C27 C26 1_555 1_555
H29 C27 1_555 1_555
C28 C18 1_555 1_555
N2 C15 1_555 1_555
H30 N2 1_555 1_555
O3 C15 1_555 1_555
O4 C16 1_555 1_555
C2 O1 1_555 1_555
C7 C8 1_555 1_555
C13 C14 1_555 1_555
C14 N1 1_555 1_555
C16 O3 1_555 1_555
C21 C22 1_555 1_555
C23 C28 1_555 1_555
C23 N2 1_555 1_555
C27 C28 1_555 1_555

#END
