
#######################################################################
#
#                 Cambridge Crystallographic Data Centre
#                                CCDC 
#
#######################################################################
#
# If this CIF has been generated from an entry in the Cambridge 
# Structural Database, then it will include bibliographic, chemical, 
# crystal, experimental, refinement or atomic coordinate data resulting 
# from the CCDC's data processing and validation procedures.
#
#######################################################################

data_QURNOG
_chemical_formula_moiety         'C32 H37 N5 O2'
_chemical_name_systematic        
bis(4-(4,4,5,5-Tetramethyl-2-imidazoline-1-oxyl)phenyl)-phenylamine
_symmetry_cell_setting           monoclinic
_symmetry_space_group_name_H-M   'C 2/c'
_symmetry_Int_Tables_number      15
_space_group_name_Hall           '-C 2yn'
loop_
_symmetry_equiv_pos_site_id
_symmetry_equiv_pos_as_xyz
1 x,y,z
2 1/2+x,1/2+y,z
3 -x,y,1/2-z
4 1/2-x,1/2+y,1/2-z
5 -x,-y,-z
6 1/2-x,1/2-y,-z
7 x,-y,1/2+z
8 1/2+x,1/2-y,1/2+z
_cell_length_a                   16.9914(4)
_cell_length_b                   13.7435(5)
_cell_length_c                   12.4621(5)
_cell_angle_alpha                90
_cell_angle_beta                 106.553(2)
_cell_angle_gamma                90
_cell_volume                     2789.56
_exptl_crystal_colour            'dark red'
_exptl_crystal_description       block
_chemical_melting_point          263-264deg.C
_cell_formula_units_Z            4
_exptl_crystal_recrystallization_method dichloromethane/hexane
loop_
_atom_site_label
_atom_site_type_symbol
_atom_site_fract_x
_atom_site_fract_y
_atom_site_fract_z
C1 C 0.5000 -0.16112(17) 0.2500
H1 H 0.5000 -0.2288 0.2500
C2 C 0.50584(10) -0.11013(12) 0.34774(14)
H2 H 0.5100 -0.1439 0.4138
C3 C 0.50560(9) -0.00930(11) 0.34810(12)
H3 H 0.5092 0.0240 0.4143
C4 C 0.5000 0.04258(14) 0.2500
C5 C 0.46275(9) 0.19865(10) 0.15022(11)
C6 C 0.38473(9) 0.17397(10) 0.08304(12)
H4 H 0.3561 0.1230 0.1036
C7 C 0.34984(9) 0.22548(11) -0.01439(12)
H5 H 0.2980 0.2081 -0.0594
C8 C 0.39120(9) 0.30284(11) -0.04600(12)
C9 C 0.46866(10) 0.32818(12) 0.02232(13)
H6 H 0.4968 0.3802 0.0028
C10 C 0.50399(10) 0.27604(12) 0.11929(13)
H7 H 0.5559 0.2931 0.1641
C11 C 0.34961(10) 0.35457(12) -0.15046(13)
N1 N 0.5000 0.14565(13) 0.2500
O1 O 0.40894(16) 0.50709(17) -0.1155(2)
N2 N 0.28886(15) 0.31000(19) -0.2350(2)
N3 N 0.36062(15) 0.44771(18) -0.1787(2)
C12 C 0.26815(17) 0.3769(2) -0.3334(2)
C13 C 0.29822(19) 0.4788(2) -0.2836(2)
C14 C 0.3196(7) 0.3367(10) -0.4063(11)
H8 H 0.2989 0.2740 -0.4349
H9 H 0.3145 0.3810 -0.4675
H10 H 0.3764 0.3309 -0.3644
C15 C 0.17983(12) 0.3811(2) -0.38361(19)
H11 H 0.1529 0.4059 -0.3312
H12 H 0.1605 0.3165 -0.4057
H13 H 0.1678 0.4225 -0.4484
C16 C 0.34802(18) 0.53739(17) -0.35616(18)
H14 H 0.3651 0.5991 -0.3211
H15 H 0.3954 0.5010 -0.3599
H16 H 0.3126 0.5477 -0.4305
C17 C 0.23536(12) 0.53372(15) -0.24313(16)
H17 H 0.2103 0.4912 -0.2013
H18 H 0.2619 0.5865 -0.1962
H19 H 0.1941 0.5591 -0.3065
C3B C 0.49440(9) -0.00930(11) 0.15190(12)
C2B C 0.49416(10) -0.11013(12) 0.15226(14)
H2B H 0.4900 -0.1439 0.0862
H3B H 0.4908 0.0240 0.0857
C5B C 0.53725(9) 0.19865(10) 0.34978(11)
C6B C 0.61527(9) 0.17397(10) 0.41696(12)
H4B H 0.6439 0.1230 0.3964
C7B C 0.65016(9) 0.22548(11) 0.51439(12)
H5B H 0.7020 0.2081 0.5594
C8B C 0.60880(9) 0.30284(11) 0.54600(12)
C9B C 0.53134(10) 0.32818(12) 0.47768(13)
H6B H 0.5032 0.3802 0.4972
C10B C 0.49601(10) 0.27604(12) 0.38071(13)
H7B H 0.4441 0.2931 0.3359
C11B C 0.65039(10) 0.35457(12) 0.65046(13)
N2B N 0.71114(15) 0.31000(19) 0.7350(2)
C12B C 0.73185(17) 0.3769(2) 0.8334(2)
C13B C 0.70178(19) 0.4788(2) 0.7836(2)
N3B N 0.63938(15) 0.44771(18) 0.6787(2)
O1B O 0.59106(16) 0.50709(17) 0.6155(2)
C16B C 0.65198(18) 0.53739(17) 0.85616(18)
H14B H 0.6349 0.5991 0.8211
H15B H 0.6046 0.5010 0.8599
H16B H 0.6874 0.5477 0.9305
C17B C 0.76464(12) 0.53372(15) 0.74313(16)
H17B H 0.7897 0.4912 0.7013
H18B H 0.7381 0.5865 0.6962
H19B H 0.8059 0.5591 0.8065
C14B C 0.6804(7) 0.3367(10) 0.9063(11)
H8B H 0.7011 0.2740 0.9349
H9B H 0.6855 0.3810 0.9675
H10B H 0.6236 0.3309 0.8644
C15B C 0.82017(12) 0.3811(2) 0.88361(19)
H11B H 0.8471 0.4059 0.8312
H12B H 0.8395 0.3165 0.9057
H13B H 0.8322 0.4225 0.9484
C18? C 0.3409(8) 0.3532(11) -0.4040(13)
H20? H 0.3919 0.3588 -0.4223
H21? H 0.3389 0.2916 -0.3685
H22? H 0.2961 0.3576 -0.4712
C19? C 0.3392(2) 0.4343(3) -0.3191(3)
C20? C 0.2592(2) 0.4326(3) -0.2838(3)
O2? O 0.47601(15) 0.4094(2) -0.1931(2)
N4? N 0.27760(18) 0.3645(2) -0.1852(3)
N5? N 0.39852(18) 0.4072(2) -0.2096(2)
H23? H 0.1944 0.3155 -0.3961
H24? H 0.1309 0.3809 -0.3598
H25? H 0.1703 0.4176 -0.4518
H26? H 0.3970 0.5432 -0.3794
H27? H 0.3012 0.5530 -0.4178
H28? H 0.3508 0.5814 -0.2954
H29? H 0.2814 0.5595 -0.1865
H30? H 0.2209 0.5773 -0.3059
H31? H 0.1895 0.5266 -0.2132
loop_
_geom_bond_atom_site_label_1
_geom_bond_atom_site_label_2
_geom_bond_site_symmetry_1
_geom_bond_site_symmetry_2
C1 H1 1_555 1_555
C2 C1 1_555 1_555
H2 C2 1_555 1_555
C3 C2 1_555 1_555
H3 C3 1_555 1_555
C4 C3 1_555 1_555
C5 C6 1_555 1_555
C6 H4 1_555 1_555
C7 C6 1_555 1_555
H5 C7 1_555 1_555
C8 C7 1_555 1_555
C9 C8 1_555 1_555
H6 C9 1_555 1_555
C10 C5 1_555 1_555
H7 C10 1_555 1_555
C11 C8 1_555 1_555
N1 C4 1_555 1_555
O1 N3 1_555 1_555
N2 C11 1_555 1_555
N3 C11 1_555 1_555
C12 N2 1_555 1_555
C13 N3 1_555 1_555
C14 C12 1_555 1_555
H8 C14 1_555 1_555
H9 C14 1_555 1_555
H10 C14 1_555 1_555
C15 C12 1_555 1_555
H11 C15 1_555 1_555
H12 C15 1_555 1_555
H13 C15 1_555 1_555
C16 C13 1_555 1_555
H14 C16 1_555 1_555
H15 C16 1_555 1_555
H16 C16 1_555 1_555
C17 C13 1_555 1_555
H17 C17 1_555 1_555
H18 C17 1_555 1_555
H19 C17 1_555 1_555
C3B C4 1_555 1_555
C2B C1 1_555 1_555
H2B C2B 1_555 1_555
H3B C3B 1_555 1_555
C5B N1 1_555 1_555
C6B C5B 1_555 1_555
H4B C6B 1_555 1_555
C7B C6B 1_555 1_555
H5B C7B 1_555 1_555
C8B C7B 1_555 1_555
C9B C8B 1_555 1_555
H6B C9B 1_555 1_555
C10B C5B 1_555 1_555
H7B C10B 1_555 1_555
C11B C8B 1_555 1_555
N2B C11B 1_555 1_555
C12B N2B 1_555 1_555
C13B C12B 1_555 1_555
N3B C11B 1_555 1_555
O1B N3B 1_555 1_555
C16B C13B 1_555 1_555
H14B C16B 1_555 1_555
H15B C16B 1_555 1_555
H16B C16B 1_555 1_555
C17B C13B 1_555 1_555
H17B C17B 1_555 1_555
H18B C17B 1_555 1_555
H19B C17B 1_555 1_555
C14B C12B 1_555 1_555
H8B C14B 1_555 1_555
H9B C14B 1_555 1_555
H10B C14B 1_555 1_555
C15B C12B 1_555 1_555
H11B C15B 1_555 1_555
H12B C15B 1_555 1_555
H13B C15B 1_555 1_555
C5 N1 1_555 1_555
C9 C10 1_555 1_555
C12 C13 1_555 1_555
C3B C2B 1_555 1_555
C9B C10B 1_555 1_555
C13B N3B 1_555 1_555

#END
