
#######################################################################
#
#                 Cambridge Crystallographic Data Centre
#                                CCDC 
#
#######################################################################
#
# If this CIF has been generated from an entry in the Cambridge 
# Structural Database, then it will include bibliographic, chemical, 
# crystal, experimental, refinement or atomic coordinate data resulting 
# from the CCDC's data processing and validation procedures.
#
#######################################################################

data_QURNUM
_chemical_formula_moiety         'C32 H37 N5 O4,0.75(C1 H2 Cl2)'
_chemical_name_systematic        
'bis(4-(4,4,5,5-Tetramethyl-2-imidazoline-1,3-dioxyl)phenyl)-phenylamine dichloromethane solvate'
_symmetry_cell_setting           orthorhombic
_symmetry_space_group_name_H-M   'P b c a'
_symmetry_Int_Tables_number      61
_space_group_name_Hall           '-P 2ac 2ab'
loop_
_symmetry_equiv_pos_site_id
_symmetry_equiv_pos_as_xyz
1 x,y,z
2 1/2-x,-y,1/2+z
3 -x,1/2+y,1/2-z
4 1/2+x,1/2-y,-z
5 -x,-y,-z
6 1/2+x,y,1/2-z
7 x,1/2-y,1/2+z
8 1/2-x,1/2+y,z
_cell_length_a                   19.5970(6)
_cell_length_b                   13.3096(4)
_cell_length_c                   48.4691(14)
_cell_angle_alpha                90
_cell_angle_beta                 90
_cell_angle_gamma                90
_cell_volume                     12642.1
_exptl_crystal_colour            black
_exptl_crystal_description       block
_cell_formula_units_Z            16
_exptl_crystal_recrystallization_method dichloromethane/hexane
loop_
_atom_site_label
_atom_site_type_symbol
_atom_site_fract_x
_atom_site_fract_y
_atom_site_fract_z
Cl1 Cl 0.51938(5) 0.67393(8) 0.193387(19)
Cl2 Cl 0.48440(5) 0.82860(8) 0.15280(3)
C1 C 0.4687(2) 0.7754(4) 0.18700(9)
H1 H 0.4814(16) 0.8296(13) 0.1981(4)
H2 H 0.4234(7) 0.757(2) 0.1858(6)
O1 O 0.32202(8) 0.01075(12) 0.09327(3)
O2 O 0.32804(9) 0.33745(12) 0.05975(4)
O3 O -0.07209(8) 0.59131(13) 0.01231(4)
O4 O -0.26001(8) 0.42709(13) 0.04905(4)
N1 N 0.01410(9) 0.18340(15) 0.08007(4)
N2 N 0.34321(9) 0.09636(13) 0.08462(4)
N3 N 0.34582(9) 0.25133(13) 0.06930(4)
N4 N -0.13362(9) 0.56633(14) 0.01809(4)
N5 N -0.22248(9) 0.48980(14) 0.03596(4)
C2 C -0.08500(13) -0.06267(19) 0.11700(5)
C3 C -0.10537(13) -0.02968(19) 0.09127(6)
C4 C -0.07247(12) 0.05126(19) 0.07915(5)
C5 C -0.01996(11) 0.10035(17) 0.09275(5)
C6 C -0.00073(12) 0.06813(19) 0.11885(5)
C7 C -0.03316(13) -0.01396(19) 0.13078(5)
C8 C 0.08604(11) 0.18180(17) 0.07769(4)
C9 C 0.12408(12) 0.26995(17) 0.08036(4)
C10 C 0.19449(12) 0.26775(17) 0.07914(4)
C11 C 0.22955(11) 0.17677(16) 0.07564(4)
C12 C 0.19116(11) 0.08847(17) 0.07262(4)
C13 C 0.12056(11) 0.09117(17) 0.07338(4)
C14 C 0.30390(11) 0.17452(16) 0.07627(4)
C15 C 0.41930(11) 0.21892(17) 0.06867(5)
C16 C 0.41662(11) 0.12663(17) 0.08796(5)
C17 C 0.46504(15) 0.3032(2) 0.07862(8)
C18 C 0.43396(16) 0.1932(2) 0.03855(6)
C19 C 0.42535(16) 0.1514(2) 0.11848(6)
C20 C 0.46362(14) 0.0413(2) 0.07985(7)
C21 C -0.02564(11) 0.26270(17) 0.06919(4)
C22 C -0.00702(12) 0.31210(17) 0.04491(5)
C23 C -0.04774(11) 0.38706(17) 0.03408(4)
C24 C -0.10900(11) 0.41379(16) 0.04682(4)
C25 C -0.12747(12) 0.36468(17) 0.07125(4)
C26 C -0.08600(12) 0.29118(18) 0.08246(5)
C27 C -0.15354(11) 0.48872(16) 0.03435(4)
C28 C -0.19302(11) 0.61113(17) 0.00288(5)
C29 C -0.25239(12) 0.58143(17) 0.02245(4)
C30 C -0.18353(14) 0.72344(19) -0.00130(5)
C31 C -0.19518(14) 0.5571(2) -0.02480(5)
C32 C -0.26480(15) 0.6579(2) 0.04549(5)
C33 C -0.31852(14) 0.5540(2) 0.00803(6)
H3 H -0.1056(15) -0.116(2) 0.1249(6)
H4 H -0.1384(15) -0.063(2) 0.0809(6)
H5 H -0.0848(14) 0.074(2) 0.0621(6)
H6 H 0.0356(14) 0.102(2) 0.1285(5)
H7 H -0.0190(13) -0.0346(19) 0.1486(5)
H8 H 0.1025(13) 0.3326(19) 0.0833(5)
H9 H 0.2179(13) 0.3278(19) 0.0809(5)
H10 H 0.2135(13) 0.028(2) 0.0702(5)
H11 H 0.0950(12) 0.0294(19) 0.0705(5)
H12 H 0.4510(15) 0.328(2) 0.0975(7)
H13 H 0.4642(16) 0.357(3) 0.0665(7)
H14 H 0.5112(17) 0.281(2) 0.0796(6)
H15 H 0.4041(15) 0.136(2) 0.0331(6)
H16 H 0.4257(14) 0.252(2) 0.0266(6)
H17 H 0.4801(16) 0.175(2) 0.0365(6)
H18 H 0.3953(16) 0.208(2) 0.1243(6)
H19 H 0.4721(17) 0.169(2) 0.1226(6)
H20 H 0.4134(14) 0.091(2) 0.1296(6)
H21 H 0.4545(15) 0.014(2) 0.0613(6)
H22 H 0.5093(15) 0.064(2) 0.0801(5)
H23 H 0.4618(15) -0.010(2) 0.0941(6)
H24 H 0.0332(13) 0.2931(18) 0.0356(5)
H25 H -0.0355(12) 0.4181(18) 0.0170(5)
H26 H -0.1685(13) 0.3809(19) 0.0803(5)
H27 H -0.0986(12) 0.2593(19) 0.0993(5)
H28 H -0.2320(14) 0.584(2) -0.0364(6)
H29 H -0.2034(13) 0.483(2) -0.0223(5)
H30 H -0.1504(14) 0.5684(19) -0.0352(5)
H31 H -0.2265(14) 0.752(2) -0.0098(5)
H32 H -0.1448(15) 0.737(2) -0.0141(6)
H33 H -0.1731(14) 0.755(2) 0.0165(6)
H34 H -0.3123(15) 0.497(2) -0.0050(6)
H35 H -0.3539(15) 0.537(2) 0.0221(6)
H36 H -0.3346(16) 0.611(3) -0.0027(7)
H37 H -0.2935(14) 0.628(2) 0.0602(6)
H38 H -0.2870(14) 0.718(2) 0.0391(6)
H39 H -0.2230(15) 0.681(2) 0.0539(6)
O5 O 0.92066(8) 1.34652(12) 0.33792(3)
O6 O 0.71818(8) 1.26910(13) 0.29282(3)
O7 O 0.91004(10) 0.68968(16) 0.14540(4)
O8 O 0.72959(9) 0.68226(14) 0.20753(4)
N6 N 0.97203(9) 0.98336(14) 0.25136(4)
N7 N 0.85802(9) 1.34641(13) 0.33015(4)
N8 N 0.76297(10) 1.31080(14) 0.30845(4)
N9 N 0.85412(10) 0.66827(15) 0.15782(4)
N10 N 0.76883(10) 0.66606(14) 0.18677(4)
C34 C 1.18617(14) 0.9770(2) 0.25886(5)
C35 C 1.14859(14) 0.8898(2) 0.26194(6)
C36 C 1.07821(13) 0.89079(19) 0.25879(5)
C37 C 1.04463(11) 0.98053(17) 0.25325(4)
C38 C 1.08249(12) 1.06844(18) 0.25037(5)
C39 C 1.15301(13) 1.0656(2) 0.25296(6)
C40 C 0.93734(11) 0.91439(16) 0.23409(4)
C41 C 0.96570(12) 0.88349(17) 0.20921(5)
C42 C 0.93137(11) 0.81681(16) 0.19214(4)
C43 C 0.86696(11) 0.77911(15) 0.19955(4)
C44 C 0.83897(12) 0.81054(16) 0.22483(4)
C45 C 0.87391(11) 0.87557(16) 0.24191(5)
C46 C 0.83087(11) 0.70730(16) 0.18189(4)
C47 C 0.81108(13) 0.58281(18) 0.14768(5)
C48 C 0.74322(12) 0.60488(18) 0.16285(5)
C49 C 0.84699(18) 0.4878(2) 0.15729(8)
C50 C 0.80691(19) 0.5855(3) 0.11630(6)
C51 C 0.70550(16) 0.5132(2) 0.17371(6)
C52 C 0.69415(16) 0.6728(2) 0.14693(6)
C53 C 0.93548(11) 1.05704(16) 0.26627(4)
C54 C 0.95989(12) 1.09065(17) 0.29177(5)
C55 C 0.92571(11) 1.16460(16) 0.30632(4)
C56 C 0.86469(11) 1.20496(16) 0.29616(4)
C57 C 0.83952(12) 1.16934(16) 0.27091(4)
C58 C 0.87516(11) 1.09814(16) 0.25602(4)
C59 C 0.82944(11) 1.28480(16) 0.31116(4)
C60 C 0.81152(12) 1.42998(17) 0.33858(4)
C61 C 0.74167(12) 1.38480(17) 0.33032(4)
C62 C 0.83287(18) 1.5207(2) 0.32123(7)
C63 C 0.82013(15) 1.4519(2) 0.36913(5)
C64 C 0.69069(16) 1.4596(2) 0.31875(6)
C65 C 0.70877(14) 1.3229(2) 0.35329(5)
H40 H 1.2319(16) 0.976(2) 0.2610(6)
H41 H 1.1690(15) 0.829(2) 0.2665(6)
H42 H 1.0526(14) 0.831(2) 0.2600(5)
H43 H 1.0590(14) 1.132(2) 0.2462(5)
H44 H 1.1782(15) 1.125(2) 0.2504(6)
H45 H 1.0098(14) 0.908(2) 0.2034(5)
H46 H 0.9527(12) 0.7983(17) 0.1750(5)
H47 H 0.7971(13) 0.7853(19) 0.2301(5)
H48 H 0.8538(12) 0.8925(18) 0.2597(5)
H49 H 0.8218(16) 0.429(2) 0.1503(6)
H50 H 0.891(2) 0.486(3) 0.1488(7)
H51 H 0.8485(15) 0.485(2) 0.1771(7)
H52 H 0.8541(19) 0.570(3) 0.1091(7)
H53 H 0.792(2) 0.653(3) 0.1102(8)
H54 H 0.7735(16) 0.533(3) 0.1107(6)
H55 H 0.7355(16) 0.474(2) 0.1852(6)
H56 H 0.6620(16) 0.535(2) 0.1826(6)
H57 H 0.6943(16) 0.473(2) 0.1587(7)
H58 H 0.6738(15) 0.639(2) 0.1319(6)
H59 H 0.6581(18) 0.692(3) 0.1603(7)
H60 H 0.7190(14) 0.731(2) 0.1392(6)
H61 H 0.9993(13) 1.0638(19) 0.2990(5)
H62 H 0.9437(12) 1.1879(18) 0.3236(5)
H63 H 0.7990(13) 1.1957(19) 0.2633(5)
H64 H 0.8587(12) 1.0792(18) 0.2387(5)
H65 H 0.8068(17) 1.576(3) 0.3259(7)
H66 H 0.8277(15) 1.509(2) 0.3013(7)
H67 H 0.8809(16) 1.539(2) 0.3255(6)
H68 H 0.7848(16) 1.501(2) 0.3747(6)
H69 H 0.8641(17) 1.478(2) 0.3726(6)
H70 H 0.8137(15) 1.391(2) 0.3802(6)
H71 H 0.7091(14) 1.496(2) 0.3025(6)
H72 H 0.6810(15) 1.512(2) 0.3324(6)
H73 H 0.6488(16) 1.425(2) 0.3150(6)
H74 H 0.6890(16) 1.367(2) 0.3666(6)
H75 H 0.6713(15) 1.283(2) 0.3459(6)
H76 H 0.7414(14) 1.275(2) 0.3612(5)
Cl3? Cl 0.47878(6) 0.60118(8) 0.00408(3)
C66? C 0.4834(3) 0.4909(6) 0.01570(12)
H77? H 0.521(2) 0.474(3) 0.0274(14)
H78? H 0.4410(14) 0.461(3) 0.0222(12)
loop_
_geom_bond_atom_site_label_1
_geom_bond_atom_site_label_2
_geom_bond_site_symmetry_1
_geom_bond_site_symmetry_2
Cl1 C1 1_555 1_555
Cl2 C1 1_555 1_555
C1 H1 1_555 1_555
H2 C1 1_555 1_555
O1 N2 1_555 1_555
O2 N3 1_555 1_555
O3 N4 1_555 1_555
O4 N5 1_555 1_555
N1 C5 1_555 1_555
N2 C14 1_555 1_555
N3 C14 1_555 1_555
N4 C27 1_555 1_555
N5 C27 1_555 1_555
C2 C3 1_555 1_555
C3 C4 1_555 1_555
C4 C5 1_555 1_555
C5 C6 1_555 1_555
C6 C7 1_555 1_555
C7 C2 1_555 1_555
C8 N1 1_555 1_555
C9 C8 1_555 1_555
C10 C9 1_555 1_555
C11 C10 1_555 1_555
C12 C11 1_555 1_555
C13 C8 1_555 1_555
C14 C11 1_555 1_555
C15 N3 1_555 1_555
C16 N2 1_555 1_555
C17 C15 1_555 1_555
C18 C15 1_555 1_555
C19 C16 1_555 1_555
C20 C16 1_555 1_555
C21 N1 1_555 1_555
C22 C21 1_555 1_555
C23 C22 1_555 1_555
C24 C23 1_555 1_555
C25 C24 1_555 1_555
C26 C21 1_555 1_555
C27 C24 1_555 1_555
C28 N4 1_555 1_555
C29 N5 1_555 1_555
C30 C28 1_555 1_555
C31 C28 1_555 1_555
C32 C29 1_555 1_555
C33 C29 1_555 1_555
H3 C2 1_555 1_555
H4 C3 1_555 1_555
H5 C4 1_555 1_555
H6 C6 1_555 1_555
H7 C7 1_555 1_555
H8 C9 1_555 1_555
H9 C10 1_555 1_555
H10 C12 1_555 1_555
H11 C13 1_555 1_555
H12 C17 1_555 1_555
H13 C17 1_555 1_555
H14 C17 1_555 1_555
H15 C18 1_555 1_555
H16 C18 1_555 1_555
H17 C18 1_555 1_555
H18 C19 1_555 1_555
H19 C19 1_555 1_555
H20 C19 1_555 1_555
H21 C20 1_555 1_555
H22 C20 1_555 1_555
H23 C20 1_555 1_555
H24 C22 1_555 1_555
H25 C23 1_555 1_555
H26 C25 1_555 1_555
H27 C26 1_555 1_555
H28 C31 1_555 1_555
H29 C31 1_555 1_555
H30 C31 1_555 1_555
H31 C30 1_555 1_555
H32 C30 1_555 1_555
H33 C30 1_555 1_555
H34 C33 1_555 1_555
H35 C33 1_555 1_555
H36 C33 1_555 1_555
H37 C32 1_555 1_555
H38 C32 1_555 1_555
H39 C32 1_555 1_555
O5 N7 1_555 1_555
O6 N8 1_555 1_555
O7 N9 1_555 1_555
O8 N10 1_555 1_555
N6 C37 1_555 1_555
N7 C59 1_555 1_555
N8 C59 1_555 1_555
N9 C46 1_555 1_555
N10 C46 1_555 1_555
C34 C35 1_555 1_555
C35 C36 1_555 1_555
C36 C37 1_555 1_555
C37 C38 1_555 1_555
C38 C39 1_555 1_555
C39 C34 1_555 1_555
C40 N6 1_555 1_555
C41 C40 1_555 1_555
C42 C41 1_555 1_555
C43 C42 1_555 1_555
C44 C43 1_555 1_555
C45 C40 1_555 1_555
C46 C43 1_555 1_555
C47 N9 1_555 1_555
C48 N10 1_555 1_555
C49 C47 1_555 1_555
C50 C47 1_555 1_555
C51 C48 1_555 1_555
C52 C48 1_555 1_555
C53 N6 1_555 1_555
C54 C53 1_555 1_555
C55 C54 1_555 1_555
C56 C55 1_555 1_555
C57 C56 1_555 1_555
C58 C53 1_555 1_555
C59 C56 1_555 1_555
C60 N7 1_555 1_555
C61 N8 1_555 1_555
C62 C60 1_555 1_555
C63 C60 1_555 1_555
C64 C61 1_555 1_555
C65 C61 1_555 1_555
H40 C34 1_555 1_555
H41 C35 1_555 1_555
H42 C36 1_555 1_555
H43 C38 1_555 1_555
H44 C39 1_555 1_555
H45 C41 1_555 1_555
H46 C42 1_555 1_555
H47 C44 1_555 1_555
H48 C45 1_555 1_555
H49 C49 1_555 1_555
H50 C49 1_555 1_555
H51 C49 1_555 1_555
H52 C50 1_555 1_555
H53 C50 1_555 1_555
H54 C50 1_555 1_555
H55 C51 1_555 1_555
H56 C51 1_555 1_555
H57 C51 1_555 1_555
H58 C52 1_555 1_555
H59 C52 1_555 1_555
H60 C52 1_555 1_555
H61 C54 1_555 1_555
H62 C55 1_555 1_555
H63 C57 1_555 1_555
H64 C58 1_555 1_555
H65 C62 1_555 1_555
H66 C62 1_555 1_555
H67 C62 1_555 1_555
H68 C63 1_555 1_555
H69 C63 1_555 1_555
H70 C63 1_555 1_555
H71 C64 1_555 1_555
H72 C64 1_555 1_555
H73 C64 1_555 1_555
H74 C65 1_555 1_555
H75 C65 1_555 1_555
H76 C65 1_555 1_555
C12 C13 1_555 1_555
C15 C16 1_555 1_555
C25 C26 1_555 1_555
C28 C29 1_555 1_555
C44 C45 1_555 1_555
C47 C48 1_555 1_555
C57 C58 1_555 1_555
C60 C61 1_555 1_555

#END
