
#######################################################################
#
#                 Cambridge Crystallographic Data Centre
#                                CCDC 
#
#######################################################################
#
# If this CIF has been generated from an entry in the Cambridge 
# Structural Database, then it will include bibliographic, chemical, 
# crystal, experimental, refinement or atomic coordinate data resulting 
# from the CCDC's data processing and validation procedures.
#
#######################################################################

data_QURQOK01
_chemical_formula_moiety         'C2 H6 N1 O2 1+,C2 H5 N1 O2,Cl1 O4 1-'
_chemical_name_systematic        'Glycinium glycine perchlorate'
_symmetry_cell_setting           triclinic
_symmetry_space_group_name_H-M   'P -1'
_symmetry_Int_Tables_number      2
_space_group_name_Hall           '-P 1'
loop_
_symmetry_equiv_pos_site_id
_symmetry_equiv_pos_as_xyz
1 x,y,z
2 -x,-y,-z
_cell_length_a                   8.6581(3)
_cell_length_b                   14.7732(9)
_cell_length_c                   19.1263(10)
_cell_angle_alpha                98.942(5)
_cell_angle_beta                 93.099(4)
_cell_angle_gamma                105.479(4)
_cell_volume                     2317.26
_exptl_crystal_colour            colorless
_exptl_crystal_description       block
_cell_formula_units_Z            10
loop_
_atom_site_label
_atom_site_type_symbol
_atom_site_fract_x
_atom_site_fract_y
_atom_site_fract_z
Cl1 Cl 1.26227(6) -0.02222(4) 0.93473(3)
O1 O 1.32564(17) -0.07540(11) 0.98097(8)
O2 O 1.38958(16) 0.03107(11) 0.89960(8)
O3 O 1.14472(16) -0.08956(11) 0.88188(8)
O4 O 1.18922(17) 0.04208(12) 0.97531(8)
Cl2 Cl 0.93573(6) -0.30566(4) 0.73752(3)
O5 O 1.01580(17) -0.36143(12) 0.77458(9)
O6 O 1.04370(17) -0.25420(11) 0.69354(10)
O7 O 0.79943(16) -0.36965(11) 0.69334(8)
O8 O 0.88532(18) -0.23930(12) 0.78743(9)
Cl3 Cl 1.12981(6) -0.10884(4) 0.52923(3)
O9 O 1.21882(17) -0.15783(12) 0.56732(9)
O10 O 1.22217(17) -0.06569(11) 0.47653(9)
O11 O 0.98355(16) -0.17581(11) 0.49464(8)
O12 O 1.09236(18) -0.03382(11) 0.57752(8)
Cl4 Cl 0.69897(6) -0.08901(4) 0.66260(3)
O13 O 0.83904(16) -0.01403(11) 0.69495(8)
O14 O 0.74794(18) -0.16354(11) 0.61894(8)
O15 O 0.59831(16) -0.05166(12) 0.62013(8)
O16 O 0.61216(16) -0.12951(11) 0.71779(8)
Cl5 Cl 0.53524(6) 0.27541(4) 1.13491(3)
O17 O 0.60952(18) 0.23286(12) 1.18483(9)
O18 O 0.65065(16) 0.31765(11) 1.08989(8)
O19 O 0.40624(17) 0.20314(11) 1.09177(9)
O20 O 0.47433(17) 0.34952(11) 1.17202(8)
O21 O 1.26824(16) -0.49274(11) 0.68042(9)
O22 O 1.07822(16) -0.46052(11) 0.61221(8)
N1 N 1.4916(2) -0.33485(15) 0.67543(12)
C1 C 1.3254(2) -0.33957(15) 0.64974(12)
H1 H 1.3240 -0.3221 0.6018
H2 H 1.2867 -0.2931 0.6821
C2 C 1.2137(2) -0.43914(15) 0.64636(12)
H3 H 1.536(2) -0.3732(17) 0.6424(13)
H4 H 1.493(3) -0.3631(18) 0.7167(14)
H5 H 1.556(3) -0.276(2) 0.6866(14)
O23 O 0.73951(16) 0.45943(11) 0.51936(8)
O24 O 0.57495(16) 0.53441(11) 0.57388(8)
N2 N 0.9572(2) 0.61950(15) 0.50509(12)
C3 C 0.7949(2) 0.62600(15) 0.52324(12)
H6 H 0.8077 0.6785 0.5641
H7 H 0.7388 0.6417 0.4823
C4 C 0.6929(2) 0.53481(15) 0.54181(11)
H8 H 1.011(3) 0.6049(18) 0.5472(14)
H9 H 1.017(3) 0.6763(18) 0.4967(12)
H10 H 0.645(3) 0.3855(19) 0.5251(13)
H11 H 0.950(3) 0.573(2) 0.4662(15)
O25 O 0.89880(17) 0.15287(11) 0.87570(9)
O26 O 1.08744(16) 0.09068(10) 0.83009(8)
N3 N 0.6830(2) -0.01459(15) 0.87009(12)
C5 C 0.8521(2) -0.01460(15) 0.86204(12)
H12 H 0.8550 -0.0618 0.8197
H13 H 0.8963 -0.0342 0.9042
C6 C 0.9562(2) 0.08264(15) 0.85411(11)
H14 H 0.641(2) 0.0067(14) 0.8321(11)
H15 H 0.680(3) 0.0258(19) 0.9105(14)
H16 H 0.973(3) 0.215(2) 0.8705(14)
H17 H 0.627(3) -0.070(2) 0.8758(16)
O27 O 0.57136(15) 0.07411(10) 0.76586(8)
O28 O 0.36181(16) 0.11580(11) 0.72090(9)
N4 N 0.1482(2) -0.04866(16) 0.72682(12)
C7 C 0.3216(2) -0.04597(15) 0.73353(12)
H18 H 0.3452 -0.0850 0.6907
H19 H 0.3448 -0.0740 0.7753
C8 C 0.4291(2) 0.05506(15) 0.74190(11)
H20 H 0.125(3) -0.0274(17) 0.6870(13)
H21 H 0.118(3) -0.0066(19) 0.7671(14)
H22 H 0.092(3) -0.102(2) 0.7273(14)
H23 H 0.447(2) 0.1813(17) 0.7287(12)
O29 O 0.73651(16) 0.27285(10) 0.58903(8)
O30 O 0.54460(16) 0.30411(11) 0.52194(8)
N5 N 0.3222(2) 0.14530(16) 0.53101(12)
C9 C 0.4914(2) 0.14998(15) 0.55165(12)
H24 H 0.5269 0.1050 0.5165
H25 H 0.4998 0.1305 0.5986
C10 C 0.6002(2) 0.25012(15) 0.55533(11)
H26 H 0.285(2) 0.1871(16) 0.5669(12)
H27 H 0.314(3) 0.1692(19) 0.4888(15)
H28 H 0.259(3) 0.090(2) 0.5223(16)
O31 O 0.82267(16) 0.35452(11) 0.96753(8)
O32 O 0.63133(16) 0.40668(11) 0.91702(9)
N6 N 0.4042(2) 0.24213(15) 0.90247(12)
C11 C 0.5738(2) 0.24188(15) 0.92051(12)
H29 H 0.6092 0.2049 0.8798
H30 H 0.5784 0.2096 0.9619
C12 C 0.6879(2) 0.34108(16) 0.93771(11)
H31 H 0.718(2) 0.4795(16) 0.9242(11)
H32 H 0.373(3) 0.2795(18) 0.9417(14)
H33 H 0.338(3) 0.1831(19) 0.8927(13)
H34 H 0.399(3) 0.2705(19) 0.8639(14)
O33 O 0.55811(16) 0.27138(10) 0.72502(8)
O34 O 0.40349(16) 0.34775(11) 0.78609(8)
N7 N 0.7733(2) 0.43014(15) 0.70649(12)
C13 C 0.6173(2) 0.43839(15) 0.73191(12)
H35 H 0.5554 0.4575 0.6945
H36 H 0.6387 0.4890 0.7746
C14 C 0.5175(2) 0.34607(15) 0.74999(11)
H37 H 0.829(3) 0.4137(17) 0.7418(13)
H38 H 0.828(2) 0.4860(17) 0.6977(11)
H39 H 0.754(3) 0.379(2) 0.6681(17)
O35 O 0.07544(16) 0.35262(11) 0.68277(9)
O36 O 0.24449(16) 0.27836(11) 0.63200(8)
N8 N -0.1426(2) 0.19348(15) 0.69712(12)
C15 C 0.0189(2) 0.18585(15) 0.67924(12)
H40 H 0.0057 0.1340 0.6379
H41 H 0.0735 0.1687 0.7200
C16 C 0.1238(2) 0.27790(16) 0.66192(11)
H42 H -0.193(3) 0.2062(19) 0.6569(14)
H43 H -0.133(3) 0.2413(19) 0.7361(14)
H44 H 0.156(2) 0.4191(17) 0.6760(12)
H45 H -0.208(3) 0.138(2) 0.7068(14)
O37 O -0.08948(16) 0.35575(11) 0.81420(8)
O38 O 0.09364(16) 0.30731(10) 0.87396(8)
N9 N 0.3173(2) 0.47437(15) 0.89322(12)
C17 C 0.1495(2) 0.47170(15) 0.86883(13)
H46 H 0.1509 0.5031 0.8267
H47 H 0.1055 0.5079 0.9070
C18 C 0.0410(2) 0.37048(16) 0.84988(11)
H48 H 0.366(3) 0.4420(17) 0.8536(13)
H49 H 0.316(2) 0.4419(17) 0.9308(13)
H50 H 0.375(2) 0.5309(17) 0.9030(12)
O39 O 0.82573(17) 0.56363(11) 0.92123(9)
O40 O 0.66681(16) 0.62696(11) 0.98983(8)
N10 N 1.0508(2) 0.72459(16) 0.92749(12)
C19 C 0.8953(2) 0.73152(15) 0.95286(12)
H51 H 0.9146 0.7711 1.0010
H52 H 0.8420 0.7628 0.9206
C20 C 0.7865(2) 0.63313(16) 0.95532(12)
H53 H 1.111(3) 0.7028(17) 0.9627(13)
H54 H 1.101(3) 0.775(2) 0.9167(14)
H55 H 1.029(3) 0.677(2) 0.8837(17)
loop_
_geom_bond_atom_site_label_1
_geom_bond_atom_site_label_2
_geom_bond_site_symmetry_1
_geom_bond_site_symmetry_2
Cl1 O1 1_555 1_555
O2 Cl1 1_555 1_555
O3 Cl1 1_555 1_555
O4 Cl1 1_555 1_555
Cl2 O5 1_555 1_555
O6 Cl2 1_555 1_555
O7 Cl2 1_555 1_555
O8 Cl2 1_555 1_555
Cl3 O9 1_555 1_555
O10 Cl3 1_555 1_555
O11 Cl3 1_555 1_555
O12 Cl3 1_555 1_555
Cl4 O13 1_555 1_555
O14 Cl4 1_555 1_555
O15 Cl4 1_555 1_555
O16 Cl4 1_555 1_555
Cl5 O17 1_555 1_555
O18 Cl5 1_555 1_555
O19 Cl5 1_555 1_555
O20 Cl5 1_555 1_555
O21 C2 1_555 1_555
O22 C2 1_555 1_555
N1 C1 1_555 1_555
C1 H1 1_555 1_555
H2 C1 1_555 1_555
C2 C1 1_555 1_555
H3 N1 1_555 1_555
H4 N1 1_555 1_555
H5 N1 1_555 1_555
O23 C4 1_555 1_555
O24 C4 1_555 1_555
N2 C3 1_555 1_555
C3 H6 1_555 1_555
H7 C3 1_555 1_555
C4 C3 1_555 1_555
H8 N2 1_555 1_555
H9 N2 1_555 1_555
H10 O23 1_555 1_555
H11 N2 1_555 1_555
O25 C6 1_555 1_555
O26 C6 1_555 1_555
N3 C5 1_555 1_555
C5 H12 1_555 1_555
H13 C5 1_555 1_555
C6 C5 1_555 1_555
H14 N3 1_555 1_555
H15 N3 1_555 1_555
H16 O25 1_555 1_555
H17 N3 1_555 1_555
O27 C8 1_555 1_555
O28 C8 1_555 1_555
N4 C7 1_555 1_555
C7 H18 1_555 1_555
H19 C7 1_555 1_555
C8 C7 1_555 1_555
H20 N4 1_555 1_555
H21 N4 1_555 1_555
H22 N4 1_555 1_555
H23 O28 1_555 1_555
O29 C10 1_555 1_555
O30 C10 1_555 1_555
N5 C9 1_555 1_555
C9 H24 1_555 1_555
H25 C9 1_555 1_555
C10 C9 1_555 1_555
H26 N5 1_555 1_555
H27 N5 1_555 1_555
H28 N5 1_555 1_555
O31 C12 1_555 1_555
O32 C12 1_555 1_555
N6 C11 1_555 1_555
C11 H29 1_555 1_555
H30 C11 1_555 1_555
C12 C11 1_555 1_555
H31 O32 1_555 1_555
H32 N6 1_555 1_555
H33 N6 1_555 1_555
H34 N6 1_555 1_555
O33 C14 1_555 1_555
O34 C14 1_555 1_555
N7 C13 1_555 1_555
C13 H35 1_555 1_555
H36 C13 1_555 1_555
C14 C13 1_555 1_555
H37 N7 1_555 1_555
H38 N7 1_555 1_555
H39 N7 1_555 1_555
O35 C16 1_555 1_555
O36 C16 1_555 1_555
N8 C15 1_555 1_555
C15 H40 1_555 1_555
H41 C15 1_555 1_555
C16 C15 1_555 1_555
H42 N8 1_555 1_555
H43 N8 1_555 1_555
H44 O35 1_555 1_555
H45 N8 1_555 1_555
O37 C18 1_555 1_555
O38 C18 1_555 1_555
N9 C17 1_555 1_555
C17 H46 1_555 1_555
H47 C17 1_555 1_555
C18 C17 1_555 1_555
H48 N9 1_555 1_555
H49 N9 1_555 1_555
H50 N9 1_555 1_555
O39 C20 1_555 1_555
O40 C20 1_555 1_555
N10 C19 1_555 1_555
C19 H51 1_555 1_555
H52 C19 1_555 1_555
C20 C19 1_555 1_555
H53 N10 1_555 1_555
H54 N10 1_555 1_555
H55 N10 1_555 1_555

#END
