
#######################################################################
#
#                 Cambridge Crystallographic Data Centre
#                                CCDC 
#
#######################################################################
#
# If this CIF has been generated from an entry in the Cambridge 
# Structural Database, then it will include bibliographic, chemical, 
# crystal, experimental, refinement or atomic coordinate data resulting 
# from the CCDC's data processing and validation procedures.
#
#######################################################################

data_QURSIG
_chemical_formula_moiety         'C9 H12 N2 O2'
_chemical_name_systematic        (L)-N-(2-Pyridylmethyl)alanine
_symmetry_cell_setting           orthorhombic
_symmetry_space_group_name_H-M   'P 21 21 21'
_symmetry_Int_Tables_number      19
_space_group_name_Hall           'P 2ac 2ab'
loop_
_symmetry_equiv_pos_site_id
_symmetry_equiv_pos_as_xyz
1 x,y,z
2 1/2-x,-y,1/2+z
3 1/2+x,1/2-y,-z
4 -x,1/2+y,1/2-z
_cell_length_a                   5.3353(4)
_cell_length_b                   8.7009(6)
_cell_length_c                   19.9470(17)
_cell_angle_alpha                90
_cell_angle_beta                 90
_cell_angle_gamma                90
_cell_volume                     925.978
_exptl_crystal_colour            colorless
_exptl_crystal_description       rod-like
_cell_formula_units_Z            4
loop_
_atom_site_label
_atom_site_type_symbol
_atom_site_fract_x
_atom_site_fract_y
_atom_site_fract_z
C1 C 0.6248(2) 0.48256(15) 0.22460(7)
N1 N 0.21648(19) 0.55496(11) 0.27468(5)
H1 H 0.2799 0.6496 0.2813
H2 H 0.0513 0.5649 0.2665
O1 O 0.71928(18) 0.59879(12) 0.25165(6)
C2 C 0.3402(2) 0.48430(16) 0.21498(7)
H3 H 0.2803 0.3785 0.2097
N2 N 0.0289(3) 0.38015(16) 0.43301(7)
O2 O 0.7428(2) 0.36967(11) 0.20333(6)
C3 C 0.2721(3) 0.5764(2) 0.15276(7)
H4 H 0.0938 0.5739 0.1464
H5 H 0.3536 0.5325 0.1144
H6 H 0.3259 0.6809 0.1583
C4 C 0.2525(3) 0.46182(16) 0.33634(7)
H7 H 0.4210 0.4786 0.3530
H8 H 0.2375 0.3539 0.3248
C5 C 0.0683(3) 0.49820(17) 0.39147(7)
C6 C -0.0502(3) 0.63832(19) 0.39898(8)
H9 H -0.0161 0.7190 0.3698
C7 C -0.2202(4) 0.6567(2) 0.45055(9)
H10 H -0.3038 0.7495 0.4564
C8 C -0.2634(4) 0.5360(3) 0.49293(9)
H11 H -0.3779 0.5450 0.5279
C9 C -0.1357(5) 0.4024(3) 0.48304(9)
H12 H -0.1642 0.3218 0.5127
loop_
_geom_bond_atom_site_label_1
_geom_bond_atom_site_label_2
_geom_bond_site_symmetry_1
_geom_bond_site_symmetry_2
C1 O1 1_555 1_555
N1 H1 1_555 1_555
H2 N1 1_555 1_555
C2 C1 1_555 1_555
H3 C2 1_555 1_555
N2 C5 1_555 1_555
O2 C1 1_555 1_555
C3 C2 1_555 1_555
H4 C3 1_555 1_555
H5 C3 1_555 1_555
H6 C3 1_555 1_555
C4 N1 1_555 1_555
H7 C4 1_555 1_555
H8 C4 1_555 1_555
C5 C4 1_555 1_555
C6 C5 1_555 1_555
H9 C6 1_555 1_555
C7 C6 1_555 1_555
H10 C7 1_555 1_555
C8 C7 1_555 1_555
H11 C8 1_555 1_555
C9 N2 1_555 1_555
H12 C9 1_555 1_555
N1 C2 1_555 1_555
C8 C9 1_555 1_555

#END
