
#######################################################################
#
#                 Cambridge Crystallographic Data Centre
#                                CCDC 
#
#######################################################################
#
# If this CIF has been generated from an entry in the Cambridge 
# Structural Database, then it will include bibliographic, chemical, 
# crystal, experimental, refinement or atomic coordinate data resulting 
# from the CCDC's data processing and validation procedures.
#
#######################################################################

data_QUSCUC01
_chemical_formula_moiety         'C21 H13 N3 S3'
_chemical_name_systematic        
2,2-bis(Benzothiazol-2-yl)-2,3-dihydrobenzothiazole
_symmetry_cell_setting           monoclinic
_symmetry_space_group_name_H-M   'P 21'
_symmetry_Int_Tables_number      4
_space_group_name_Hall           'P 2yb'
loop_
_symmetry_equiv_pos_site_id
_symmetry_equiv_pos_as_xyz
1 x,y,z
2 -x,1/2+y,-z
_cell_length_a                   14.559(3)
_cell_length_b                   8.4147(15)
_cell_length_c                   15.738(3)
_cell_angle_alpha                90
_cell_angle_beta                 107.481(3)
_cell_angle_gamma                90
_cell_volume                     1839.01
_exptl_crystal_colour            tan
_cell_formula_units_Z            4
loop_
_atom_site_label
_atom_site_type_symbol
_atom_site_fract_x
_atom_site_fract_y
_atom_site_fract_z
S1 S 0.57060(7) 0.16269(11) 0.37673(5)
S2 S 0.34042(7) 0.16374(14) 0.27594(6)
S3 S 0.64414(7) 0.06864(13) 0.16717(6)
N1 N 0.5889(3) 0.3432(4) 0.2476(2)
H1 H 0.581(3) 0.374(5) 0.219(2)
N2 N 0.3853(2) 0.3605(4) 0.16773(18)
N3 N 0.4869(2) -0.0497(4) 0.18682(19)
C1 C 0.5269(3) 0.2127(5) 0.2570(2)
C2 C 0.6126(3) 0.3580(5) 0.4007(2)
C3 C 0.6195(3) 0.4363(5) 0.3237(2)
C4 C 0.6556(3) 0.5869(6) 0.3288(2)
H2 H 0.6599 0.6390 0.2766
C5 C 0.6866(3) 0.6654(6) 0.4125(2)
H3 H 0.7107 0.7710 0.4169
C6 C 0.6810(3) 0.5837(7) 0.4887(2)
H4 H 0.7030 0.6343 0.5451
C7 C 0.6450(3) 0.4349(6) 0.4836(2)
H5 H 0.6415 0.3824 0.5360
C8 C 0.4207(3) 0.2553(5) 0.2289(2)
C9 C 0.2511(3) 0.2725(6) 0.2074(3)
C10 C 0.2860(3) 0.3737(5) 0.1529(2)
C11 C 0.2265(3) 0.4761(7) 0.0929(3)
H6 H 0.2515 0.5417 0.0559
C12 C 0.1289(3) 0.4823(7) 0.0868(3)
H7 H 0.0874 0.5548 0.0470
C13 C 0.0930(3) 0.3829(7) 0.1388(3)
H8 H 0.0260 0.3864 0.1323
C14 C 0.1489(3) 0.2802(7) 0.1989(3)
H9 H 0.1220 0.2150 0.2346
C15 C 0.5438(3) 0.0696(5) 0.2041(2)
C16 C 0.6068(3) -0.1196(5) 0.1235(2)
C17 C 0.5247(3) -0.1636(5) 0.1406(2)
C18 C 0.4791(3) -0.3100(5) 0.1087(2)
H10 H 0.4200 -0.3406 0.1178
C19 C 0.5265(3) -0.4062(5) 0.0631(2)
H11 H 0.5002 -0.5081 0.0439
C20 C 0.6067(4) -0.3632(6) 0.0448(2)
H12 H 0.6325 -0.4319 0.0098
C21 C 0.6545(3) -0.2193(6) 0.0756(3)
H13 H 0.7134 -0.1905 0.0656
S4 S 0.07073(9) 0.33715(15) 0.87713(8)
S5 S -0.15948(9) 0.33607(14) 0.77603(7)
S6 S 0.14369(9) 0.43157(18) 0.66723(11)
N4 N 0.0872(3) 0.1540(6) 0.7468(2)
H14 H 0.052(2) 0.097(3) 0.6879(18)
N5 N -0.1143(3) 0.1429(5) 0.6674(2)
N6 N -0.0117(2) 0.5544(5) 0.6875(2)
C22 C 0.0273(3) 0.2876(6) 0.7573(3)
C23 C 0.1173(3) 0.1392(6) 0.9026(3)
C24 C 0.1194(3) 0.0638(6) 0.8261(3)
C25 C 0.1588(3) -0.0920(6) 0.8322(3)
H15 H 0.1650 -0.1456 0.7811
C26 C 0.1869(3) -0.1604(7) 0.9131(4)
H16 H 0.2126 -0.2649 0.9177
C27 C 0.1807(4) -0.0891(7) 0.9890(4)
H17 H 0.1998 -0.1442 1.0443
C28 C 0.1443(4) 0.0724(7) 0.9839(3)
H18 H 0.1398 0.1277 1.0352
C29 C -0.0795(3) 0.2443(6) 0.7289(2)
C30 C -0.2540(3) 0.2224(5) 0.7052(2)
C31 C -0.2134(3) 0.1263(5) 0.6531(2)
C32 C -0.2754(3) 0.0222(6) 0.5915(2)
H19 H -0.2514 -0.0456 0.5548
C33 C -0.3703(3) 0.0214(6) 0.5863(3)
H20 H -0.4127 -0.0482 0.5452
C34 C -0.4073(3) 0.1203(6) 0.6396(3)
H21 H -0.4740 0.1174 0.6341
C35 C -0.3466(3) 0.2228(6) 0.7006(3)
H22 H -0.3705 0.2905 0.7374
C36 C 0.0423(3) 0.4264(6) 0.7051(3)
C37 C 0.1114(3) 0.6180(7) 0.6228(3)
C38 C 0.0229(3) 0.6628(6) 0.6402(3)
C39 C -0.0155(3) 0.8100(7) 0.6121(3)
H23 H -0.0720 0.8434 0.6255
C40 C 0.0253(3) 0.9078(7) 0.5660(3)
H24 H -0.0038 1.0065 0.5439
C41 C 0.1143(4) 0.8594(8) 0.5510(4)
H25 H 0.1467 0.9296 0.5224
C42 C 0.1511(4) 0.7147(8) 0.5775(4)
H26 H 0.2071 0.6810 0.5634
loop_
_geom_bond_atom_site_label_1
_geom_bond_atom_site_label_2
_geom_bond_site_symmetry_1
_geom_bond_site_symmetry_2
S1 C1 1_555 1_555
S2 C8 1_555 1_555
S3 C15 1_555 1_555
N1 H1 1_555 1_555
N2 C8 1_555 1_555
N3 C15 1_555 1_555
C1 N1 1_555 1_555
C2 S1 1_555 1_555
C3 N1 1_555 1_555
C4 C3 1_555 1_555
H2 C4 1_555 1_555
C5 C4 1_555 1_555
H3 C5 1_555 1_555
C6 C5 1_555 1_555
H4 C6 1_555 1_555
C7 C2 1_555 1_555
H5 C7 1_555 1_555
C8 C1 1_555 1_555
C9 S2 1_555 1_555
C10 N2 1_555 1_555
C11 C10 1_555 1_555
H6 C11 1_555 1_555
C12 C11 1_555 1_555
H7 C12 1_555 1_555
C13 C12 1_555 1_555
H8 C13 1_555 1_555
C14 C9 1_555 1_555
H9 C14 1_555 1_555
C15 C1 1_555 1_555
C16 S3 1_555 1_555
C17 N3 1_555 1_555
C18 C17 1_555 1_555
H10 C18 1_555 1_555
C19 C18 1_555 1_555
H11 C19 1_555 1_555
C20 C19 1_555 1_555
H12 C20 1_555 1_555
C21 C16 1_555 1_555
H13 C21 1_555 1_555
S4 C22 1_555 1_555
S5 C29 1_555 1_555
S6 C36 1_555 1_555
N4 H14 1_555 1_555
N5 C29 1_555 1_555
N6 C36 1_555 1_555
C22 N4 1_555 1_555
C23 S4 1_555 1_555
C24 N4 1_555 1_555
C25 C24 1_555 1_555
H15 C25 1_555 1_555
C26 C25 1_555 1_555
H16 C26 1_555 1_555
C27 C26 1_555 1_555
H17 C27 1_555 1_555
C28 C23 1_555 1_555
H18 C28 1_555 1_555
C29 C22 1_555 1_555
C30 S5 1_555 1_555
C31 N5 1_555 1_555
C32 C31 1_555 1_555
H19 C32 1_555 1_555
C33 C32 1_555 1_555
H20 C33 1_555 1_555
C34 C33 1_555 1_555
H21 C34 1_555 1_555
C35 C30 1_555 1_555
H22 C35 1_555 1_555
C36 C22 1_555 1_555
C37 S6 1_555 1_555
C38 N6 1_555 1_555
C39 C38 1_555 1_555
H23 C39 1_555 1_555
C40 C39 1_555 1_555
H24 C40 1_555 1_555
C41 C40 1_555 1_555
H25 C41 1_555 1_555
C42 C37 1_555 1_555
H26 C42 1_555 1_555
C2 C3 1_555 1_555
C6 C7 1_555 1_555
C9 C10 1_555 1_555
C13 C14 1_555 1_555
C16 C17 1_555 1_555
C20 C21 1_555 1_555
C23 C24 1_555 1_555
C27 C28 1_555 1_555
C30 C31 1_555 1_555
C34 C35 1_555 1_555
C37 C38 1_555 1_555
C41 C42 1_555 1_555

#END
