
#######################################################################
#
#                 Cambridge Crystallographic Data Centre
#                                CCDC 
#
#######################################################################
#
# If this CIF has been generated from an entry in the Cambridge 
# Structural Database, then it will include bibliographic, chemical, 
# crystal, experimental, refinement or atomic coordinate data resulting 
# from the CCDC's data processing and validation procedures.
#
#######################################################################

data_QUSYEK01
_chemical_name_common            
'4-trifluoromethoxyanilinium 18-crown-6 hexafluorophosphate'
_chemical_formula_moiety         'C12 H24 O6,C7 H7 F3 N1 O1 1+,F6 P1 1-'
_chemical_name_systematic        
'4-trifluoromethoxyanilinium 1,4,7,10,13,16-hexaoxacyclooctadecane hexafluorophosphate'
_symmetry_cell_setting           monoclinic
_symmetry_space_group_name_H-M   'P 21/n'
_symmetry_Int_Tables_number      14
_space_group_name_Hall           '-P 2yn'
loop_
_symmetry_equiv_pos_site_id
_symmetry_equiv_pos_as_xyz
1 x,y,z
2 1/2-x,1/2+y,1/2-z
3 -x,-y,-z
4 1/2+x,1/2-y,1/2+z
_cell_length_a                   11.081(4)
_cell_length_b                   17.017(6)
_cell_length_c                   13.734(5)
_cell_angle_alpha                90
_cell_angle_beta                 90.013(6)
_cell_angle_gamma                90
_cell_volume                     2589.76
_exptl_crystal_colour            colorless
_exptl_crystal_description       block
_cell_formula_units_Z            4
loop_
_atom_site_label
_atom_site_type_symbol
_atom_site_fract_x
_atom_site_fract_y
_atom_site_fract_z
C1 C 0.05182(18) 0.25278(11) 0.51790(16)
H1 H 0.0481 0.3001 0.5571
H2 H -0.0183 0.2517 0.4756
C2 C 0.1652(2) 0.25268(12) 0.45795(16)
H3 H 0.1719 0.2036 0.4225
H4 H 0.1629 0.2953 0.4111
C3 C 0.37693(18) 0.25305(12) 0.46952(16)
H5 H 0.3848 0.2946 0.4216
H6 H 0.3773 0.2031 0.4356
C4 C 0.48120(19) 0.25647(12) 0.54023(16)
H7 H 0.5570 0.2545 0.5051
H8 H 0.4784 0.3052 0.5768
C5 C 0.58018(16) 0.18027(12) 0.66059(15)
H9 H 0.5953 0.2263 0.7004
H10 H 0.6485 0.1729 0.6173
C6 C 0.56516(17) 0.10954(11) 0.72415(15)
H11 H 0.5424 0.0645 0.6849
H12 H 0.6407 0.0976 0.7567
C7 C 0.45750(18) 0.06057(11) 0.85969(15)
H13 H 0.5264 0.0564 0.9030
H14 H 0.4511 0.0120 0.8230
C8 C 0.34513(18) 0.07357(12) 0.91750(15)
H15 H 0.3390 0.0344 0.9685
H16 H 0.3473 0.1251 0.9477
C9 C 0.13182(17) 0.06918(12) 0.90474(15)
H17 H 0.1198 0.1202 0.9348
H18 H 0.1320 0.0296 0.9556
C10 C 0.03218(19) 0.05296(12) 0.83381(17)
H19 H 0.0489 0.0047 0.7986
H20 H -0.0435 0.0465 0.8684
C11 C -0.05409(17) 0.09908(11) 0.68638(16)
H21 H -0.1335 0.0844 0.7098
H22 H -0.0212 0.0553 0.6498
C12 C -0.06348(16) 0.17011(12) 0.62208(16)
H23 H -0.1227 0.1610 0.5713
H24 H -0.0890 0.2152 0.6600
O1 O 0.05210(12) 0.18481(7) 0.57972(10)
O2 O 0.26678(12) 0.26203(7) 0.52136(9)
O3 O 0.47264(11) 0.19104(8) 0.60508(10)
O4 O 0.47343(11) 0.12539(7) 0.79469(11)
O5 O 0.24364(12) 0.06799(7) 0.85407(9)
O6 O 0.02298(12) 0.11700(8) 0.76700(10)
C13 C 0.24577(16) 0.26758(9) 0.76026(12)
C14 C 0.13423(17) 0.30194(11) 0.77667(14)
H25 H 0.0637 0.2751 0.7612
C15 C 0.12898(17) 0.37682(11) 0.81649(15)
H26 H 0.0551 0.4011 0.8277
C16 C 0.23544(17) 0.41457(9) 0.83918(13)
C17 C 0.34689(17) 0.37997(11) 0.82547(15)
H27 H 0.4174 0.4062 0.8426
C18 C 0.35133(16) 0.30525(10) 0.78563(15)
H28 H 0.4253 0.2806 0.7760
C19 C 0.2295(2) 0.50670(10) 0.96607(15)
F1 F 0.3521(3) 0.49134(16) 0.9983(2)
F2 F 0.1666(4) 0.46227(16) 1.0202(2)
F3 F 0.2165(10) 0.5811(3) 0.9847(17)
N1 N 0.25161(12) 0.19043(7) 0.71209(11)
H29 H 0.1771 0.1732 0.7006
H30 H 0.2899 0.1565 0.7505
H31 H 0.2913 0.1950 0.6560
O7 O 0.22945(13) 0.49403(7) 0.87073(9)
F7 F 0.13279(12) 0.10997(8) 0.24778(11)
F8 F 0.31496(14) 0.06576(7) 0.30021(9)
F9 F 0.40076(10) 0.10940(7) 0.16209(9)
F10 F 0.29097(11) 0.19245(6) 0.25604(8)
F11 F 0.24339(11) 0.02627(6) 0.15385(9)
F12 F 0.22151(12) 0.15421(7) 0.10964(9)
P1 P 0.26660(4) 0.10923(2) 0.20535(4)
F4? F 0.2893(5) 0.4694(3) 1.0240(4)
F5? F 0.1064(6) 0.4842(3) 0.9926(4)
F6? F 0.2243(19) 0.5829(6) 0.979(3)
loop_
_geom_bond_atom_site_label_1
_geom_bond_atom_site_label_2
_geom_bond_site_symmetry_1
_geom_bond_site_symmetry_2
C1 H1 1_555 1_555
H2 C1 1_555 1_555
C2 C1 1_555 1_555
H3 C2 1_555 1_555
H4 C2 1_555 1_555
C3 H5 1_555 1_555
H6 C3 1_555 1_555
C4 C3 1_555 1_555
H7 C4 1_555 1_555
H8 C4 1_555 1_555
C5 H9 1_555 1_555
H10 C5 1_555 1_555
C6 C5 1_555 1_555
H11 C6 1_555 1_555
H12 C6 1_555 1_555
C7 H13 1_555 1_555
H14 C7 1_555 1_555
C8 C7 1_555 1_555
H15 C8 1_555 1_555
H16 C8 1_555 1_555
C9 H17 1_555 1_555
H18 C9 1_555 1_555
C10 C9 1_555 1_555
H19 C10 1_555 1_555
H20 C10 1_555 1_555
C11 H21 1_555 1_555
H22 C11 1_555 1_555
C12 C11 1_555 1_555
H23 C12 1_555 1_555
H24 C12 1_555 1_555
O1 C1 1_555 1_555
O2 C2 1_555 1_555
O3 C4 1_555 1_555
O4 C6 1_555 1_555
O5 C8 1_555 1_555
O6 C10 1_555 1_555
C13 C14 1_555 1_555
C14 H25 1_555 1_555
C15 C14 1_555 1_555
H26 C15 1_555 1_555
C16 C15 1_555 1_555
C17 C16 1_555 1_555
H27 C17 1_555 1_555
C18 C13 1_555 1_555
H28 C18 1_555 1_555
C19 F1 1_555 1_555
F2 C19 1_555 1_555
F3 C19 1_555 1_555
N1 C13 1_555 1_555
H29 N1 1_555 1_555
H30 N1 1_555 1_555
H31 N1 1_555 1_555
O7 C16 1_555 1_555
F7 P1 1_555 1_555
F8 P1 1_555 1_555
F9 P1 1_555 1_555
F10 P1 1_555 1_555
F11 P1 1_555 1_555
F12 P1 1_555 1_555
C3 O2 1_555 1_555
C5 O3 1_555 1_555
C7 O4 1_555 1_555
C9 O5 1_555 1_555
C11 O6 1_555 1_555
C12 O1 1_555 1_555
C17 C18 1_555 1_555
C19 O7 1_555 1_555

#END
