
#######################################################################
#
#                 Cambridge Crystallographic Data Centre
#                                CCDC 
#
#######################################################################
#
# If this CIF has been generated from an entry in the Cambridge 
# Structural Database, then it will include bibliographic, chemical, 
# crystal, experimental, refinement or atomic coordinate data resulting 
# from the CCDC's data processing and validation procedures.
#
#######################################################################

data_QUSYEK
_chemical_name_common            
'4-trifluoromethoxyanilinium 18-crown-6 hexafluorophosphate'
_chemical_formula_moiety         'C12 H24 O6,C7 H7 F3 N1 O1 1+,F6 P1 1-'
_chemical_name_systematic        
'4-trifluoromethoxyanilinium 1,4,7,10,13,16-hexaoxacyclooctadecane hexafluorophosphate'
_symmetry_cell_setting           orthorhombic
_symmetry_space_group_name_H-M   'P n m a'
_symmetry_Int_Tables_number      62
_space_group_name_Hall           '-P 2ac 2n'
loop_
_symmetry_equiv_pos_site_id
_symmetry_equiv_pos_as_xyz
1 x,y,z
2 1/2-x,-y,1/2+z
3 -x,1/2+y,-z
4 1/2+x,1/2-y,1/2-z
5 -x,-y,-z
6 1/2+x,y,1/2-z
7 x,1/2-y,z
8 1/2-x,1/2+y,1/2+z
_cell_length_a                   17.274(6)
_cell_length_b                   11.117(4)
_cell_length_c                   13.782(5)
_cell_angle_alpha                90
_cell_angle_beta                 90
_cell_angle_gamma                90
_cell_volume                     2646.63
_exptl_crystal_colour            colorless
_exptl_crystal_description       block
_cell_formula_units_Z            4
loop_
_atom_site_label
_atom_site_type_symbol
_atom_site_fract_x
_atom_site_fract_y
_atom_site_fract_z
N1 N 0.1963(2) 0.2500 0.2834(3)
H1 H 0.1803 0.3254 0.2916
H2 H 0.2025 0.2153 0.3411
H3 H 0.1613 0.2093 0.2493
C1 C 0.2707(3) 0.2500 0.2309(4)
O1 O 0.4984(4) 0.2500 0.1259(4)
C2 C 0.5118(4) 0.2500 0.0330(5)
C3 C 0.3062(3) 0.1415(4) 0.2102(4)
H4 H 0.2809 0.0694 0.2229
C4 C 0.3796(3) 0.1412(5) 0.1704(5)
H5 H 0.4042 0.0693 0.1550
C5 C 0.4155(4) 0.2500 0.1543(6)
F4 F 0.4967(6) 0.3763(8) 0.0027(7)
H1F H 0.1803 0.1746 0.2916
H2F H 0.2025 0.2847 0.3411
H3F H 0.1613 0.2907 0.2493
C3F C 0.3062(3) 0.3585(4) 0.2102(4)
H4F H 0.2809 0.4306 0.2229
C4F C 0.3796(3) 0.3588(5) 0.1704(5)
H5F H 0.4042 0.4307 0.1550
F4F F 0.4967(6) 0.1237(8) 0.0027(7)
O2 O 0.0667(3) 0.2500 0.1485(3)
O3 O 0.1213(2) 0.0265(3) 0.2189(3)
O4 O 0.1916(2) 0.0392(3) 0.4040(3)
O5 O 0.2661(3) 0.2500 0.4716(3)
C6 C 0.0567(3) 0.0383(5) 0.1580(5)
H6 H 0.0103 0.0497 0.1966
H7 H 0.0503 -0.0340 0.1195
C7 C 0.0685(4) 0.1437(5) 0.0932(4)
H8 H 0.1181 0.1368 0.0605
H9 H 0.0282 0.1460 0.0443
C8 C 0.1086(3) -0.0581(5) 0.2948(5)
H10 H 0.0955 -0.1355 0.2669
H11 H 0.0652 -0.0318 0.3342
C9 C 0.1768(4) -0.0713(5) 0.3562(5)
H12 H 0.1682 -0.1342 0.4037
H13 H 0.2211 -0.0936 0.3168
C10 C 0.2579(4) 0.0364(7) 0.4657(5)
H14 H 0.3046 0.0353 0.4267
H15 H 0.2569 -0.0361 0.5049
C11 C 0.2582(4) 0.1422(7) 0.5289(5)
H16 H 0.2103 0.1454 0.5656
H17 H 0.3008 0.1366 0.5745
O3F O 0.1213(2) 0.4735(3) 0.2189(3)
O4F O 0.1916(2) 0.4608(3) 0.4040(3)
C6F C 0.0567(3) 0.4617(5) 0.1580(5)
H6F H 0.0103 0.4503 0.1966
H7F H 0.0503 0.5340 0.1195
C7F C 0.0685(4) 0.3563(5) 0.0932(4)
H8F H 0.1181 0.3632 0.0605
H9F H 0.0282 0.3540 0.0443
C8F C 0.1086(3) 0.5581(5) 0.2948(5)
H10F H 0.0955 0.6355 0.2669
H11F H 0.0652 0.5318 0.3342
C9F C 0.1768(4) 0.5713(5) 0.3562(5)
H12F H 0.1682 0.6342 0.4037
H13F H 0.2211 0.5936 0.3168
C10F C 0.2579(4) 0.4636(7) 0.4657(5)
H14F H 0.3046 0.4647 0.4267
H15F H 0.2569 0.5361 0.5049
C11F C 0.2582(4) 0.3578(7) 0.5289(5)
H16F H 0.2103 0.3546 0.5656
H17F H 0.3008 0.3634 0.5745
P1 P 0.10541(9) 0.2500 0.79551(11)
F1 F 0.0261(3) 0.2500 0.8521(4)
F2 F 0.1578(3) 0.2500 0.8901(4)
F3 F 0.1054(4) 0.1050(6) 0.8368(10)
F3F F 0.1054(4) 0.3950(6) 0.8368(10)
F5? F 0.4665(6) 0.1947(11) -0.0218(9)
F6? F 0.5807(3) 0.236(3) 0.0090(4)
F7? F 0.1083(5) 0.1295(10) 0.7574(13)
F8? F 0.0597(5) 0.1931(9) 0.7049(5)
F9? F 0.1839(4) 0.2172(11) 0.7393(4)
loop_
_geom_bond_atom_site_label_1
_geom_bond_atom_site_label_2
_geom_bond_site_symmetry_1
_geom_bond_site_symmetry_2
P1 F1 1_555 1_555
F2 P1 1_555 1_555
F3 P1 1_555 1_555
N1 H1 1_555 1_555
H2 N1 1_555 1_555
H3 N1 1_555 1_555
C1 N1 1_555 1_555
O1 C2 1_555 1_555
C2 F4 1_555 1_555
C3 C1 1_555 1_555
H4 C3 1_555 1_555
C4 C3 1_555 1_555
H5 C4 1_555 1_555
C5 O1 1_555 1_555
O2 C7 1_555 1_555
O3 C6 1_555 1_555
O4 C9 1_555 1_555
O5 C11 1_555 1_555
C6 H6 1_555 1_555
H7 C6 1_555 1_555
C7 C6 1_555 1_555
H8 C7 1_555 1_555
H9 C7 1_555 1_555
C8 O3 1_555 1_555
H10 C8 1_555 1_555
H11 C8 1_555 1_555
C9 C8 1_555 1_555
H12 C9 1_555 1_555
H13 C9 1_555 1_555
C10 O4 1_555 1_555
H14 C10 1_555 1_555
H15 C10 1_555 1_555
C11 C10 1_555 1_555
H16 C11 1_555 1_555
H17 C11 1_555 1_555
F3F P1 1_555 1_555
H1F N1 1_555 1_555
H2F N1 1_555 1_555
H3F N1 1_555 1_555
C3F C1 1_555 1_555
H4F C3F 1_555 1_555
C4F C5 1_555 1_555
H5F C4F 1_555 1_555
F4F C2 1_555 1_555
O3F C6F 1_555 1_555
O4F C9F 1_555 1_555
C6F H6F 1_555 1_555
H7F C6F 1_555 1_555
C7F O2 1_555 1_555
H8F C7F 1_555 1_555
H9F C7F 1_555 1_555
C8F O3F 1_555 1_555
H10F C8F 1_555 1_555
H11F C8F 1_555 1_555
C9F C8F 1_555 1_555
H12F C9F 1_555 1_555
H13F C9F 1_555 1_555
C10F O4F 1_555 1_555
H14F C10F 1_555 1_555
H15F C10F 1_555 1_555
C11F O5 1_555 1_555
H16F C11F 1_555 1_555
H17F C11F 1_555 1_555
C4 C5 1_555 1_555
C3F C4F 1_555 1_555
C6F C7F 1_555 1_555
C10F C11F 1_555 1_555

#END
