
#######################################################################
#
#                 Cambridge Crystallographic Data Centre
#                                CCDC 
#
#######################################################################
#
# If this CIF has been generated from an entry in the Cambridge 
# Structural Database, then it will include bibliographic, chemical, 
# crystal, experimental, refinement or atomic coordinate data resulting 
# from the CCDC's data processing and validation procedures.
#
#######################################################################

data_QUTNEA
_chemical_formula_moiety         'C28 H25 N1 O1 S1'
_chemical_name_systematic        
(5-(biphenyl-4-yl)-2-(piperidin-1-yl)-3-thienyl)(phenyl)methanone
_symmetry_cell_setting           monoclinic
_symmetry_space_group_name_H-M   'P 21'
_symmetry_Int_Tables_number      4
_space_group_name_Hall           'P 2yb'
loop_
_symmetry_equiv_pos_site_id
_symmetry_equiv_pos_as_xyz
1 x,y,z
2 -x,1/2+y,-z
_cell_length_a                   6.9949(9)
_cell_length_b                   10.2229(14)
_cell_length_c                   15.438(2)
_cell_angle_alpha                90
_cell_angle_beta                 95.443(3)
_cell_angle_gamma                90
_cell_volume                     1098.97
_exptl_crystal_colour            yellow
_exptl_crystal_description       block
_cell_formula_units_Z            2
loop_
_atom_site_label
_atom_site_type_symbol
_atom_site_fract_x
_atom_site_fract_y
_atom_site_fract_z
S1 S 0.69410(10) 0.75432(7) 0.83252(4)
O1 O 0.9177(3) 1.0307(2) 0.62770(14)
N1 N 0.9311(3) 0.7661(2) 0.70352(13)
C1 C 1.1292(4) 0.8124(3) 0.72024(17)
H1 H 1.1857 0.7780 0.7754
H2 H 1.1307 0.9071 0.7237
C2 C 1.2446(4) 0.7682(3) 0.64835(19)
H3 H 1.3763 0.7975 0.6604
H4 H 1.1927 0.8075 0.5939
C3 C 1.2408(5) 0.6210(3) 0.6395(2)
H5 H 1.3032 0.5956 0.5886
H6 H 1.3112 0.5819 0.6902
C4 C 1.0367(4) 0.5716(3) 0.6311(2)
H7 H 1.0379 0.4767 0.6330
H8 H 0.9741 0.5979 0.5750
C5 C 0.9229(4) 0.6227(3) 0.7022(2)
H9 H 0.7905 0.5942 0.6919
H10 H 0.9756 0.5883 0.7580
C6 C 0.7970(3) 0.8307(3) 0.74780(16)
C7 C 0.7244(3) 0.9555(2) 0.73468(15)
C8 C 0.5872(3) 0.9872(3) 0.79410(15)
H11 H 0.5252 1.0677 0.7939
C9 C 0.5545(3) 0.8903(3) 0.85097(15)
C10 C 0.4158(3) 0.8841(3) 0.91627(15)
C11 C 0.3012(4) 0.9908(3) 0.93187(17)
H12 H 0.3172 1.0690 0.9025
C12 C 0.1637(4) 0.9828(3) 0.99034(16)
H13 H 0.0883 1.0556 0.9993
C13 C 0.1357(4) 0.8683(3) 1.03593(15)
C14 C 0.2541(4) 0.7630(3) 1.02200(15)
H14 H 0.2411 0.6858 1.0528
C15 C 0.3903(4) 0.7704(3) 0.96352(15)
H15 H 0.4671 0.6980 0.9554
C16 C -0.0157(4) 0.8579(3) 1.09653(15)
C17 C -0.1887(4) 0.9228(3) 1.08075(17)
H16 H -0.2099 0.9754 1.0316
C18 C -0.3307(4) 0.9111(3) 1.13649(19)
H17 H -0.4454 0.9566 1.1250
C19 C -0.3038(4) 0.8329(3) 1.20863(18)
H18 H -0.3997 0.8253 1.2461
C20 C -0.1347(4) 0.7661(3) 1.22513(16)
H19 H -0.1164 0.7119 1.2736
C21 C 0.0090(4) 0.7788(3) 1.17010(16)
H20 H 0.1239 0.7338 1.1824
C22 C 0.7687(4) 1.0398(3) 0.66174(16)
C23 C 0.6228(4) 1.1379(2) 0.62581(15)
C24 C 0.4287(4) 1.1097(3) 0.61314(16)
H21 H 0.3826 1.0319 0.6344
C25 C 0.3033(4) 1.1963(3) 0.56919(17)
H22 H 0.1738 1.1752 0.5592
C26 C 0.3685(5) 1.3135(3) 0.54013(19)
H23 H 0.2839 1.3718 0.5104
C27 C 0.5605(5) 1.3440(3) 0.5554(2)
H24 H 0.6045 1.4247 0.5378
C28 C 0.6876(4) 1.2565(3) 0.59622(17)
H25 H 0.8177 1.2768 0.6041
loop_
_geom_bond_atom_site_label_1
_geom_bond_atom_site_label_2
_geom_bond_site_symmetry_1
_geom_bond_site_symmetry_2
S1 C6 1_555 1_555
O1 C22 1_555 1_555
N1 C1 1_555 1_555
C1 H1 1_555 1_555
H2 C1 1_555 1_555
C2 C1 1_555 1_555
H3 C2 1_555 1_555
H4 C2 1_555 1_555
C3 C2 1_555 1_555
H5 C3 1_555 1_555
H6 C3 1_555 1_555
C4 C3 1_555 1_555
H7 C4 1_555 1_555
H8 C4 1_555 1_555
C5 N1 1_555 1_555
H9 C5 1_555 1_555
H10 C5 1_555 1_555
C6 N1 1_555 1_555
C7 C6 1_555 1_555
C8 C7 1_555 1_555
H11 C8 1_555 1_555
C9 S1 1_555 1_555
C10 C9 1_555 1_555
C11 C10 1_555 1_555
H12 C11 1_555 1_555
C12 C11 1_555 1_555
H13 C12 1_555 1_555
C13 C12 1_555 1_555
C14 C13 1_555 1_555
H14 C14 1_555 1_555
C15 C10 1_555 1_555
H15 C15 1_555 1_555
C16 C13 1_555 1_555
C17 C16 1_555 1_555
H16 C17 1_555 1_555
C18 C17 1_555 1_555
H17 C18 1_555 1_555
C19 C18 1_555 1_555
H18 C19 1_555 1_555
C20 C19 1_555 1_555
H19 C20 1_555 1_555
C21 C16 1_555 1_555
H20 C21 1_555 1_555
C22 C7 1_555 1_555
C23 C22 1_555 1_555
C24 C23 1_555 1_555
H21 C24 1_555 1_555
C25 C24 1_555 1_555
H22 C25 1_555 1_555
C26 C25 1_555 1_555
H23 C26 1_555 1_555
C27 C26 1_555 1_555
H24 C27 1_555 1_555
C28 C23 1_555 1_555
H25 C28 1_555 1_555
C4 C5 1_555 1_555
C8 C9 1_555 1_555
C14 C15 1_555 1_555
C20 C21 1_555 1_555
C27 C28 1_555 1_555

#END
