
#######################################################################
#
#                 Cambridge Crystallographic Data Centre
#                                CCDC 
#
#######################################################################
#
# If this CIF has been generated from an entry in the Cambridge 
# Structural Database, then it will include bibliographic, chemical, 
# crystal, experimental, refinement or atomic coordinate data resulting 
# from the CCDC's data processing and validation procedures.
#
#######################################################################

data_QUTNOK
_chemical_formula_moiety         'C29 H23 N3 O5'
_chemical_name_systematic        
'4,5-bis(((Benzyloxy)carbonyl)amino)acridine 10-oxide'
_symmetry_cell_setting           orthorhombic
_symmetry_space_group_name_H-M   'P n a 21'
_symmetry_Int_Tables_number      33
_space_group_name_Hall           'P 2c -2n'
loop_
_symmetry_equiv_pos_site_id
_symmetry_equiv_pos_as_xyz
1 x,y,z
2 -x,-y,1/2+z
3 1/2+x,1/2-y,z
4 1/2-x,1/2+y,1/2+z
_cell_length_a                   31.732(17)
_cell_length_b                   5.016(3)
_cell_length_c                   14.549(8)
_cell_angle_alpha                90
_cell_angle_beta                 90
_cell_angle_gamma                90
_cell_volume                     2315.73
_exptl_crystal_colour            yellow
_exptl_crystal_description       platy
_chemical_melting_point          '479 K'
_cell_formula_units_Z            4
_exptl_crystal_recrystallization_method 'ethyl acetate'
loop_
_atom_site_label
_atom_site_type_symbol
_atom_site_fract_x
_atom_site_fract_y
_atom_site_fract_z
N1 N 0.07619(8) 1.0039(5) 0.26123(17)
N2 N 0.13395(8) 0.5713(6) 0.29669(18)
H1 H 0.1359 0.6741 0.2479
N3 N 0.08413(9) 1.3227(6) 0.0985(2)
H2 H 0.0997 1.1817 0.1102
O1 O 0.10593(7) 0.9466(5) 0.20051(15)
O2 O 0.16402(7) 0.1929(5) 0.35960(17)
O3 O 0.18340(7) 0.3607(4) 0.22138(16)
O4 O 0.07714(8) 1.6540(5) -0.01124(18)
O5 O 0.13185(9) 1.3628(6) -0.00863(19)
C1 C 0.07469(10) 0.8576(6) 0.3416(2)
C2 C 0.10395(10) 0.6475(6) 0.3627(2)
C3 C 0.10135(12) 0.5260(7) 0.4467(2)
H3 H 0.1213 0.3919 0.4621
C4 C 0.07031(13) 0.5932(8) 0.5102(3)
H4 H 0.0697 0.5058 0.5681
C5 C 0.04087(12) 0.7819(7) 0.4909(2)
H5 H 0.0194 0.8202 0.5343
C6 C 0.04203(10) 0.9209(7) 0.4068(2)
C7 C 0.01278(11) 1.1145(7) 0.3853(2)
H6 H -0.0095 1.1489 0.4272
C8 C 0.01483(10) 1.2596(7) 0.3050(2)
C9 C -0.01484(11) 1.4640(7) 0.2850(2)
H7 H -0.0375 1.4969 0.3263
C10 C -0.01115(11) 1.6105(7) 0.2085(2)
H8 H -0.0312 1.7469 0.1963
C11 C 0.02182(11) 1.5661(7) 0.1458(2)
H9 H 0.0238 1.6753 0.0926
C12 C 0.05119(10) 1.3690(6) 0.1594(2)
C13 C 0.04793(10) 1.2060(6) 0.2411(2)
C14 C 0.16041(10) 0.3575(7) 0.2991(2)
C15 C 0.09545(12) 1.4666(8) 0.0230(2)
C16 C 0.21152(12) 0.1346(7) 0.2104(3)
H10 H 0.1956 -0.0346 0.2156
H11 H 0.2337 0.1373 0.2583
C17 C 0.23074(12) 0.1588(8) 0.1172(3)
C18 C 0.26107(14) 0.3464(10) 0.0990(3)
H12 H 0.2698 0.4627 0.1469
C19 C 0.27917(15) 0.3713(11) 0.0138(3)
H13 H 0.3001 0.5032 0.0032
C20 C 0.26693(16) 0.2048(9) -0.0559(3)
H14 H 0.2791 0.2217 -0.1153
C21 C 0.2374(2) 0.0160(11) -0.0393(4)
H15 H 0.2295 -0.1033 -0.0870
C22 C 0.21873(17) -0.0053(9) 0.0459(4)
H16 H 0.1973 -0.1346 0.0556
C23 C 0.15121(14) 1.4919(10) -0.0858(3)
H17 H 0.1821 1.4993 -0.0760
H18 H 0.1407 1.6773 -0.0900
C24 C 0.14222(11) 1.3495(8) -0.1747(3)
C25 C 0.11394(12) 1.1377(8) -0.1833(3)
H19 H 0.0991 1.0755 -0.1309
C26 C 0.10744(12) 1.0175(8) -0.2682(4)
H20 H 0.0883 0.8726 -0.2731
C27 C 0.12817(13) 1.1051(9) -0.3444(4)
H21 H 0.1235 1.0228 -0.4023
C28 C 0.15622(13) 1.3163(9) -0.3362(3)
H22 H 0.1708 1.3780 -0.3892
C29 C 0.16325(11) 1.4374(8) -0.2531(3)
H23 H 0.1825 1.5818 -0.2490
loop_
_geom_bond_atom_site_label_1
_geom_bond_atom_site_label_2
_geom_bond_site_symmetry_1
_geom_bond_site_symmetry_2
N1 O1 1_555 1_555
N2 H1 1_555 1_555
N3 H2 1_555 1_555
O2 C14 1_555 1_555
O3 C14 1_555 1_555
O4 C15 1_555 1_555
O5 C15 1_555 1_555
C1 N1 1_555 1_555
C2 N2 1_555 1_555
C3 C2 1_555 1_555
H3 C3 1_555 1_555
C4 C3 1_555 1_555
H4 C4 1_555 1_555
C5 C4 1_555 1_555
H5 C5 1_555 1_555
C6 C1 1_555 1_555
C7 C6 1_555 1_555
H6 C7 1_555 1_555
C8 C7 1_555 1_555
C9 C8 1_555 1_555
H7 C9 1_555 1_555
C10 C9 1_555 1_555
H8 C10 1_555 1_555
C11 C10 1_555 1_555
H9 C11 1_555 1_555
C12 N3 1_555 1_555
C13 N1 1_555 1_555
C14 N2 1_555 1_555
C15 N3 1_555 1_555
C16 O3 1_555 1_555
H10 C16 1_555 1_555
H11 C16 1_555 1_555
C17 C16 1_555 1_555
C18 C17 1_555 1_555
H12 C18 1_555 1_555
C19 C18 1_555 1_555
H13 C19 1_555 1_555
C20 C19 1_555 1_555
H14 C20 1_555 1_555
C21 C20 1_555 1_555
H15 C21 1_555 1_555
C22 C17 1_555 1_555
H16 C22 1_555 1_555
C23 O5 1_555 1_555
H17 C23 1_555 1_555
H18 C23 1_555 1_555
C24 C23 1_555 1_555
C25 C24 1_555 1_555
H19 C25 1_555 1_555
C26 C25 1_555 1_555
H20 C26 1_555 1_555
C27 C26 1_555 1_555
H21 C27 1_555 1_555
C28 C27 1_555 1_555
H22 C28 1_555 1_555
C29 C24 1_555 1_555
H23 C29 1_555 1_555
C1 C2 1_555 1_555
C5 C6 1_555 1_555
C8 C13 1_555 1_555
C11 C12 1_555 1_555
C12 C13 1_555 1_555
C21 C22 1_555 1_555
C28 C29 1_555 1_555

#END
