
#######################################################################
#
#                 Cambridge Crystallographic Data Centre
#                                CCDC 
#
#######################################################################
#
# If this CIF has been generated from an entry in the Cambridge 
# Structural Database, then it will include bibliographic, chemical, 
# crystal, experimental, refinement or atomic coordinate data resulting 
# from the CCDC's data processing and validation procedures.
#
#######################################################################

data_QUVPEE01
_chemical_formula_moiety         '3(C7 H15 Cl1 N2 2+),4(B1 F4 1-),2(Cl1 1-)'
_chemical_name_systematic        
'tris(1-(chloromethyl)-1,4-diazoniabicyclo[2.2.2]octane) tetrakis(tetrafluoroborate) dichloride'
_symmetry_cell_setting           monoclinic
_symmetry_space_group_name_H-M   'P 21/c'
_symmetry_Int_Tables_number      14
_space_group_name_Hall           '-P 2ybc'
loop_
_symmetry_equiv_pos_site_id
_symmetry_equiv_pos_as_xyz
1 x,y,z
2 -x,1/2+y,1/2-z
3 -x,-y,-z
4 x,1/2-y,1/2+z
_cell_length_a                   7.184(3)
_cell_length_b                   25.579(10)
_cell_length_c                   20.074(8)
_cell_angle_alpha                90
_cell_angle_beta                 91.348(6)
_cell_angle_gamma                90
_cell_volume                     3687.77
_cell_formula_units_Z            4
loop_
_atom_site_label
_atom_site_type_symbol
_atom_site_fract_x
_atom_site_fract_y
_atom_site_fract_z
Cl1 Cl 0.2485(2) 0.49570(6) 1.01997(8)
N1 N 0.2436(7) 0.40794(19) 0.9447(2)
N2 N 0.2525(8) 0.3092(2) 0.9462(3)
C1 C 0.2410(9) 0.4672(2) 0.9391(3)
H1 H 0.1264 0.4785 0.9148
H2 H 0.3495 0.4791 0.9137
C2 C 0.0797(10) 0.3279(3) 0.9780(3)
H3 H 0.0730 0.3135 1.0237
H4 H -0.0305 0.3155 0.9521
C3 C 0.4170(9) 0.3299(3) 0.9830(3)
H5 H 0.5318 0.3150 0.9643
H6 H 0.4118 0.3195 1.0304
C4 C 0.2307(12) 0.3869(3) 0.8732(3)
H7 H 0.1074 0.3954 0.8529
H8 H 0.3278 0.4032 0.8459
C5 C 0.4218(10) 0.3890(3) 0.9777(4)
H9 H 0.4359 0.4046 1.0226
H10 H 0.5295 0.4000 0.9511
C6 C 0.0787(9) 0.3881(2) 0.9810(4)
H11 H -0.0374 0.4018 0.9600
H12 H 0.0850 0.4000 1.0279
C7 C 0.2579(12) 0.3278(3) 0.8751(3)
H13 H 0.1583 0.3105 0.8483
H14 H 0.3792 0.3186 0.8558
Cl2 Cl 0.2685(2) 0.19305(6) 0.96724(8)
Cl3 Cl 0.6991(2) 0.54587(7) 0.52424(8)
N3 N 0.7075(7) 0.5622(2) 0.6584(2)
N4 N 0.7646(8) 0.6248(2) 0.7542(3)
C8 C 0.6726(11) 0.5206(3) 0.6054(3)
H15 H 0.5449 0.5066 0.6096
H16 H 0.7611 0.4913 0.6127
C9 C 0.8926(9) 0.5883(3) 0.6520(3)
H17 H 0.8886 0.6131 0.6141
H18 H 0.9899 0.5619 0.6436
C10 C 0.7022(11) 0.5734(3) 0.7820(3)
H19 H 0.5743 0.5766 0.7990
H20 H 0.7861 0.5627 0.8194
C11 C 0.5566(8) 0.6011(3) 0.6586(3)
H21 H 0.4392 0.5847 0.6727
H22 H 0.5365 0.6158 0.6134
C12 C 0.7069(10) 0.5326(3) 0.7256(3)
H23 H 0.5965 0.5096 0.7275
H24 H 0.8200 0.5107 0.7304
C13 C 0.9383(9) 0.6177(3) 0.7168(4)
H25 H 1.0299 0.5976 0.7441
H26 H 0.9932 0.6522 0.7066
C14 C 0.6167(9) 0.6449(3) 0.7084(3)
H27 H 0.6636 0.6755 0.6836
H28 H 0.5083 0.6563 0.7343
Cl4 Cl 0.2292(2) 0.28499(6) 0.14687(8)
Cl5 Cl 0.1963(2) 0.59124(7) 0.51113(8)
C15 C 0.2265(10) 0.6601(2) 0.5021(3)
H29 H 0.1194 0.6786 0.5214
H30 H 0.3409 0.6713 0.5266
N5 N 0.2792(7) 0.7038(2) 0.3106(3)
C16 C 0.2745(9) 0.7517(2) 0.3550(3)
H31 H 0.1557 0.7707 0.3482
H32 H 0.3785 0.7755 0.3448
N6 N 0.2411(7) 0.67457(19) 0.4290(2)
C17 C 0.4429(9) 0.6725(3) 0.3287(3)
H33 H 0.5537 0.6952 0.3349
H34 H 0.4682 0.6465 0.2936
C18 C 0.2936(9) 0.7315(3) 0.4276(3)
H35 H 0.4234 0.7360 0.4442
H36 H 0.2108 0.7518 0.4567
C19 C 0.1009(9) 0.6752(3) 0.3186(3)
H37 H 0.1075 0.6410 0.2956
H38 H -0.0020 0.6955 0.2976
C20 C 0.3953(9) 0.6448(3) 0.3953(3)
H39 H 0.3547 0.6084 0.3861
H40 H 0.5073 0.6435 0.4249
C21 C 0.0602(9) 0.6663(3) 0.3925(3)
H41 H -0.0345 0.6914 0.4079
H42 H 0.0138 0.6303 0.3998
F1 F 0.1082(6) 0.54148(19) 0.1665(2)
F2 F 0.4194(7) 0.54020(19) 0.1590(2)
F3 F 0.2881(9) 0.5834(2) 0.2424(3)
B1 B 0.2705(11) 0.5700(4) 0.1767(4)
F4 F 0.2573(9) 0.6145(3) 0.1364(4)
F5 F 0.2566(5) 0.68239(14) 0.64616(17)
F6 F 0.2525(6) 0.75928(14) 0.58798(17)
F7 F 0.0885(6) 0.75202(17) 0.6851(2)
F8 F 0.4023(5) 0.75475(15) 0.68891(18)
B2 B 0.2506(10) 0.7374(3) 0.6525(4)
F9 F 0.2765(6) 0.63296(14) 0.81713(17)
F10 F 0.3772(6) 0.57169(16) 0.8903(2)
F11 F 0.2460(6) 0.64644(14) 0.92975(17)
F12 F 0.0689(6) 0.58413(19) 0.8757(2)
B3 B 0.2455(9) 0.6084(3) 0.8784(3)
F13 F 0.2107(7) 0.41141(19) 0.7222(2)
F14 F 0.2499(7) 0.49922(18) 0.7023(3)
F15 F 0.0278(7) 0.45349(19) 0.6445(3)
F16 F 0.3327(8) 0.4392(2) 0.6281(2)
B4 B 0.2059(12) 0.4513(3) 0.6748(4)
loop_
_geom_bond_atom_site_label_1
_geom_bond_atom_site_label_2
_geom_bond_site_symmetry_1
_geom_bond_site_symmetry_2
Cl1 C1 1_555 1_555
N1 C1 1_555 1_555
N2 C2 1_555 1_555
C1 H1 1_555 1_555
H2 C1 1_555 1_555
C2 H3 1_555 1_555
H4 C2 1_555 1_555
C3 N2 1_555 1_555
H5 C3 1_555 1_555
H6 C3 1_555 1_555
C4 N1 1_555 1_555
H7 C4 1_555 1_555
H8 C4 1_555 1_555
C5 N1 1_555 1_555
H9 C5 1_555 1_555
H10 C5 1_555 1_555
C6 N1 1_555 1_555
H11 C6 1_555 1_555
H12 C6 1_555 1_555
C7 N2 1_555 1_555
H13 C7 1_555 1_555
H14 C7 1_555 1_555
Cl3 C8 1_555 1_555
N3 C8 1_555 1_555
N4 C10 1_555 1_555
C8 H15 1_555 1_555
H16 C8 1_555 1_555
C9 N3 1_555 1_555
H17 C9 1_555 1_555
H18 C9 1_555 1_555
C10 H19 1_555 1_555
H20 C10 1_555 1_555
C11 N3 1_555 1_555
H21 C11 1_555 1_555
H22 C11 1_555 1_555
C12 N3 1_555 1_555
H23 C12 1_555 1_555
H24 C12 1_555 1_555
C13 N4 1_555 1_555
H25 C13 1_555 1_555
H26 C13 1_555 1_555
C14 N4 1_555 1_555
H27 C14 1_555 1_555
H28 C14 1_555 1_555
Cl5 C15 1_555 1_555
C15 H29 1_555 1_555
H30 C15 1_555 1_555
N5 C16 1_555 1_555
C16 H31 1_555 1_555
H32 C16 1_555 1_555
N6 C15 1_555 1_555
C17 N5 1_555 1_555
H33 C17 1_555 1_555
H34 C17 1_555 1_555
C18 C16 1_555 1_555
H35 C18 1_555 1_555
H36 C18 1_555 1_555
C19 N5 1_555 1_555
H37 C19 1_555 1_555
H38 C19 1_555 1_555
C20 N6 1_555 1_555
H39 C20 1_555 1_555
H40 C20 1_555 1_555
C21 N6 1_555 1_555
H41 C21 1_555 1_555
H42 C21 1_555 1_555
F1 B1 1_555 1_555
F2 B1 1_555 1_555
F3 B1 1_555 1_555
B1 F4 1_555 1_555
F5 B2 1_555 1_555
F6 B2 1_555 1_555
F7 B2 1_555 1_555
F8 B2 1_555 1_555
F9 B3 1_555 1_555
F10 B3 1_555 1_555
F11 B3 1_555 1_555
F12 B3 1_555 1_555
F13 B4 1_555 1_555
F14 B4 1_555 1_555
F15 B4 1_555 1_555
F16 B4 1_555 1_555
C2 C6 1_555 1_555
C3 C5 1_555 1_555
C4 C7 1_555 1_555
C9 C13 1_555 1_555
C10 C12 1_555 1_555
C11 C14 1_555 1_555
N6 C18 1_555 1_555
C17 C20 1_555 1_555
C19 C21 1_555 1_555

#END
