
#######################################################################
#
#                 Cambridge Crystallographic Data Centre
#                                CCDC 
#
#######################################################################
#
# If this CIF has been generated from an entry in the Cambridge 
# Structural Database, then it will include bibliographic, chemical, 
# crystal, experimental, refinement or atomic coordinate data resulting 
# from the CCDC's data processing and validation procedures.
#
#######################################################################

data_QUWFEV
_chemical_compound_source        'Plant Leonurus macranthus'
_chemical_formula_moiety         'C26 H40 O9'
_chemical_name_systematic        
"(4'-acetoxy-5-(2-acetoxyethyl)-6'-hydroxy-2',5,5',8a'-tetramethyl-3'-oxodecahydro-2'H,3H-spiro[furan-2,1'-naphthalen]-5'-yl)methyl acetate"
_symmetry_cell_setting           orthorhombic
_symmetry_space_group_name_H-M   'P 21 21 21'
_symmetry_Int_Tables_number      19
_space_group_name_Hall           'P 2ac 2ab'
loop_
_symmetry_equiv_pos_site_id
_symmetry_equiv_pos_as_xyz
1 x,y,z
2 1/2-x,-y,1/2+z
3 1/2+x,1/2-y,-z
4 -x,1/2+y,1/2-z
_cell_length_a                   7.9069(4)
_cell_length_b                   8.1826(3)
_cell_length_c                   38.9732(16)
_cell_angle_alpha                90
_cell_angle_beta                 90
_cell_angle_gamma                90
_cell_volume                     2521.53
_exptl_crystal_colour            colorless
_exptl_crystal_description       plate
_chemical_melting_point          '159 deg.C'
_cell_formula_units_Z            4
_exptl_crystal_recrystallization_method methanol
loop_
_atom_site_label
_atom_site_type_symbol
_atom_site_fract_x
_atom_site_fract_y
_atom_site_fract_z
O1 O 0.58430(14) 0.34873(13) 0.15376(3)
O2 O 1.09910(15) -0.16553(16) 0.11376(4)
O3 O 0.79122(16) -0.03815(14) 0.01006(3)
O4 O 0.79412(16) 0.69370(14) 0.22138(3)
O5 O 0.81847(14) -0.13060(13) 0.12063(3)
O6 O 0.89289(16) 0.12107(17) 0.18327(3)
O7 O 0.77069(17) 0.41823(14) 0.04961(3)
H1 H 0.7404 0.4891 0.0353
O8 O 1.03877(18) 0.71257(19) 0.19250(3)
O9 O 0.7038(2) -0.29810(16) 0.00711(3)
C1 C 0.7590(2) -0.0400(2) 0.04690(4)
H2 H 0.8318 -0.1226 0.0581
H3 H 0.6394 -0.0689 0.0513
C2 C 0.9611(2) -0.2226(2) 0.11627(4)
C3 C 0.7907(2) 0.08031(19) 0.16207(4)
C4 C 0.4679(2) 0.2810(2) 0.08319(4)
H4 H 0.3432 0.2795 0.0855
H5 H 0.5084 0.3895 0.0908
C5 C 0.5123(2) 0.1916(2) 0.14593(4)
C6 C 0.7397(2) 0.14867(19) 0.09984(4)
H6 H 0.7734 0.2632 0.1056
C7 C 0.5442(2) 0.1482(2) 0.10681(4)
C8 C 0.5660(2) 0.0676(2) 0.20748(4)
H7 H 0.6313 -0.0173 0.2193
H8 H 0.4450 0.0491 0.2113
H9 H 0.5977 0.1751 0.2165
C9 C 0.5145(2) 0.2569(2) 0.04538(4)
H10 H 0.4704 0.1502 0.0374
H11 H 0.4603 0.3436 0.0315
C10 C 0.6036(2) 0.0611(2) 0.16892(4)
H12 H 0.5692 -0.0494 0.1605
C11 C 0.7866(3) -0.1580(2) -0.04460(5)
H13 H 0.7317 -0.0580 -0.0528
H14 H 0.7396 -0.2526 -0.0568
H15 H 0.9085 -0.1514 -0.0489
C12 C 0.4544(2) -0.0164(2) 0.09973(4)
H16 H 0.3536 -0.0251 0.1142
H17 H 0.5317 -0.1067 0.1049
H18 H 0.4211 -0.0217 0.0755
C13 C 0.7557(2) -0.1766(2) -0.00675(4)
C14 C 0.7041(2) 0.2623(2) 0.03981(4)
H19 H 0.7285 0.2434 0.0150
C15 C 0.9543(2) 0.7469(2) 0.21722(4)
C16 C 0.5556(2) 0.5340(2) 0.20202(4)
H20 H 0.4858 0.6241 0.2113
H21 H 0.5679 0.4504 0.2202
C17 C 0.84379(19) 0.04585(19) 0.12507(4)
H22 H 0.9665 0.0722 0.1222
C18 C 0.7976(2) 0.1304(2) 0.06141(4)
C19 C 0.9902(2) 0.1607(2) 0.05821(4)
H23 H 1.0517 0.0703 0.0690
H24 H 1.0195 0.2634 0.0697
H25 H 1.0212 0.1676 0.0339
C20 C 0.3222(2) 0.2074(2) 0.15531(4)
H26 H 0.2538 0.2334 0.1347
H27 H 0.2794 0.1049 0.1656
C21 C 1.0119(3) 0.8495(2) 0.24681(5)
H28 H 0.9231 0.9280 0.2528
H29 H 1.1150 0.9086 0.2404
H30 H 1.0353 0.7791 0.2666
C22 C 0.9214(2) -0.4011(2) 0.11327(4)
H31 H 0.9522 -0.4398 0.0903
H32 H 0.8001 -0.4183 0.1170
H33 H 0.9858 -0.4621 0.1305
C23 C 0.4649(2) 0.4578(2) 0.17099(4)
C24 C 0.7283(2) 0.5992(2) 0.19264(4)
H34 H 0.8057 0.5075 0.1874
H35 H 0.7199 0.6694 0.1720
C25 C 0.3158(2) 0.3478(2) 0.18128(4)
H36 H 0.3298 0.3066 0.2050
H37 H 0.2074 0.4078 0.1797
C26 C 0.4084(2) 0.5904(2) 0.14570(4)
H38 H 0.5081 0.6411 0.1352
H39 H 0.3429 0.6736 0.1579
H40 H 0.3382 0.5411 0.1277
loop_
_geom_bond_atom_site_label_1
_geom_bond_atom_site_label_2
_geom_bond_site_symmetry_1
_geom_bond_site_symmetry_2
O1 C5 1_555 1_555
O2 C2 1_555 1_555
O3 C1 1_555 1_555
O4 C15 1_555 1_555
O5 C2 1_555 1_555
O6 C3 1_555 1_555
O7 H1 1_555 1_555
O8 C15 1_555 1_555
O9 C13 1_555 1_555
C1 H2 1_555 1_555
H3 C1 1_555 1_555
C2 C22 1_555 1_555
C3 C10 1_555 1_555
C4 H4 1_555 1_555
H5 C4 1_555 1_555
C5 C7 1_555 1_555
C6 H6 1_555 1_555
C7 C4 1_555 1_555
C8 H7 1_555 1_555
H8 C8 1_555 1_555
H9 C8 1_555 1_555
C9 C4 1_555 1_555
H10 C9 1_555 1_555
H11 C9 1_555 1_555
C10 C5 1_555 1_555
H12 C10 1_555 1_555
C11 H13 1_555 1_555
H14 C11 1_555 1_555
H15 C11 1_555 1_555
C12 C7 1_555 1_555
H16 C12 1_555 1_555
H17 C12 1_555 1_555
H18 C12 1_555 1_555
C13 O3 1_555 1_555
C14 O7 1_555 1_555
H19 C14 1_555 1_555
C15 C21 1_555 1_555
C16 H20 1_555 1_555
H21 C16 1_555 1_555
C17 O5 1_555 1_555
H22 C17 1_555 1_555
C18 C1 1_555 1_555
C19 C18 1_555 1_555
H23 C19 1_555 1_555
H24 C19 1_555 1_555
H25 C19 1_555 1_555
C20 C5 1_555 1_555
H26 C20 1_555 1_555
H27 C20 1_555 1_555
C21 H28 1_555 1_555
H29 C21 1_555 1_555
H30 C21 1_555 1_555
C22 H31 1_555 1_555
H32 C22 1_555 1_555
H33 C22 1_555 1_555
C23 O1 1_555 1_555
C24 O4 1_555 1_555
H34 C24 1_555 1_555
H35 C24 1_555 1_555
C25 C20 1_555 1_555
H36 C25 1_555 1_555
H37 C25 1_555 1_555
C26 C23 1_555 1_555
H38 C26 1_555 1_555
H39 C26 1_555 1_555
H40 C26 1_555 1_555
C3 C17 1_555 1_555
C6 C7 1_555 1_555
C6 C17 1_555 1_555
C6 C18 1_555 1_555
C8 C10 1_555 1_555
C9 C14 1_555 1_555
C11 C13 1_555 1_555
C14 C18 1_555 1_555
C16 C23 1_555 1_555
C16 C24 1_555 1_555
C23 C25 1_555 1_555

#END
