
#######################################################################
#
#                 Cambridge Crystallographic Data Centre
#                                CCDC 
#
#######################################################################
#
# If this CIF has been generated from an entry in the Cambridge 
# Structural Database, then it will include bibliographic, chemical, 
# crystal, experimental, refinement or atomic coordinate data resulting 
# from the CCDC's data processing and validation procedures.
#
#######################################################################

data_QUWFOF
_chemical_formula_moiety         'C32 H23 N1'
_chemical_name_systematic        2,6,7-triphenyl-7H-dibenzo[b,d]azepine
_symmetry_cell_setting           monoclinic
_symmetry_space_group_name_H-M   'P 21/c'
_symmetry_Int_Tables_number      14
_space_group_name_Hall           '-P 2ybc'
loop_
_symmetry_equiv_pos_site_id
_symmetry_equiv_pos_as_xyz
1 x,y,z
2 -x,1/2+y,1/2-z
3 -x,-y,-z
4 x,1/2-y,1/2+z
_cell_length_a                   13.278(2)
_cell_length_b                   18.856(4)
_cell_length_c                   9.2087(17)
_cell_angle_alpha                90
_cell_angle_beta                 98.440(3)
_cell_angle_gamma                90
_cell_volume                     2280.61
_exptl_crystal_colour            colorless
_exptl_crystal_description       block
_cell_formula_units_Z            4
loop_
_atom_site_label
_atom_site_type_symbol
_atom_site_fract_x
_atom_site_fract_y
_atom_site_fract_z
N1 N 0.17094(12) 0.01115(8) 0.62176(17)
C1 C -0.01370(16) 0.29649(11) 0.2768(2)
H1 H -0.0336 0.2578 0.2166
C2 C -0.05176(17) 0.36279(13) 0.2363(3)
H2 H -0.0975 0.3683 0.1504
C3 C -0.02234(19) 0.42029(13) 0.3221(3)
H3 H -0.0474 0.4651 0.2945
C4 C 0.04445(19) 0.41160(12) 0.4496(3)
H4 H 0.0649 0.4507 0.5081
C5 C 0.08135(17) 0.34517(11) 0.4915(3)
H5 H 0.1256 0.3399 0.5790
C6 C 0.05367(14) 0.28612(10) 0.4053(2)
C7 C 0.09185(14) 0.21444(10) 0.4511(2)
C8 C 0.18140(14) 0.20508(10) 0.5478(2)
H6 H 0.2204 0.2449 0.5773
C9 C 0.21608(14) 0.13905(10) 0.6031(2)
C10 C 0.15540(14) 0.07920(10) 0.5593(2)
C11 C 0.06653(14) 0.08814(10) 0.4590(2)
H7 H 0.0270 0.0487 0.4284
C12 C 0.03632(15) 0.15354(10) 0.4049(2)
H8 H -0.0222 0.1575 0.3362
C13 C 0.31243(14) 0.13478(10) 0.7063(2)
C14 C 0.34053(16) 0.18999(10) 0.8059(2)
H9 H 0.2965 0.2281 0.8095
C15 C 0.43197(17) 0.18895(12) 0.8986(2)
H10 H 0.4494 0.2264 0.9630
C16 C 0.49765(17) 0.13246(12) 0.8960(2)
H11 H 0.5594 0.1316 0.9585
C17 C 0.47086(15) 0.07716(11) 0.7999(2)
H12 H 0.5147 0.0387 0.7996
C18 C 0.38011(14) 0.07765(9) 0.7039(2)
C19 C 0.35419(14) 0.01593(9) 0.6003(2)
H13 H 0.4096 -0.0186 0.6205
C20 C 0.25892(14) -0.01821(10) 0.6445(2)
C21 C 0.26703(14) -0.08744(10) 0.7234(2)
C22 C 0.20504(16) -0.10115(11) 0.8292(2)
H14 H 0.1601 -0.0664 0.8519
C23 C 0.20915(18) -0.16534(12) 0.9010(2)
H15 H 0.1683 -0.1734 0.9732
C24 C 0.2739(2) -0.21764(13) 0.8660(3)
H16 H 0.2758 -0.2613 0.9133
C25 C 0.33538(19) -0.20543(11) 0.7615(3)
H17 H 0.3787 -0.2409 0.7374
C26 C 0.33298(16) -0.14007(10) 0.6918(2)
H18 H 0.3763 -0.1316 0.6229
C27 C 0.34229(14) 0.03343(10) 0.4371(2)
C28 C 0.38557(16) 0.09336(11) 0.3854(2)
H19 H 0.4221 0.1244 0.4518
C29 C 0.37547(19) 0.10786(12) 0.2368(3)
H20 H 0.4048 0.1486 0.2043
C30 C 0.32243(18) 0.06247(14) 0.1373(3)
H21 H 0.3155 0.0724 0.0374
C31 C 0.27963(16) 0.00240(14) 0.1858(3)
H22 H 0.2436 -0.0286 0.1188
C32 C 0.29022(15) -0.01201(11) 0.3348(2)
H23 H 0.2617 -0.0532 0.3666
loop_
_geom_bond_atom_site_label_1
_geom_bond_atom_site_label_2
_geom_bond_site_symmetry_1
_geom_bond_site_symmetry_2
N1 C10 1_555 1_555
C1 H1 1_555 1_555
C2 C1 1_555 1_555
H2 C2 1_555 1_555
C3 C2 1_555 1_555
H3 C3 1_555 1_555
C4 C3 1_555 1_555
H4 C4 1_555 1_555
C5 C4 1_555 1_555
H5 C5 1_555 1_555
C6 C1 1_555 1_555
C7 C6 1_555 1_555
C8 C7 1_555 1_555
H6 C8 1_555 1_555
C9 C8 1_555 1_555
C10 C9 1_555 1_555
C11 C10 1_555 1_555
H7 C11 1_555 1_555
C12 C7 1_555 1_555
H8 C12 1_555 1_555
C13 C9 1_555 1_555
C14 C13 1_555 1_555
H9 C14 1_555 1_555
C15 C14 1_555 1_555
H10 C15 1_555 1_555
C16 C15 1_555 1_555
H11 C16 1_555 1_555
C17 C16 1_555 1_555
H12 C17 1_555 1_555
C18 C13 1_555 1_555
C19 C18 1_555 1_555
H13 C19 1_555 1_555
C20 N1 1_555 1_555
C21 C20 1_555 1_555
C22 C21 1_555 1_555
H14 C22 1_555 1_555
C23 C22 1_555 1_555
H15 C23 1_555 1_555
C24 C23 1_555 1_555
H16 C24 1_555 1_555
C25 C24 1_555 1_555
H17 C25 1_555 1_555
C26 C21 1_555 1_555
H18 C26 1_555 1_555
C27 C19 1_555 1_555
C28 C27 1_555 1_555
H19 C28 1_555 1_555
C29 C28 1_555 1_555
H20 C29 1_555 1_555
C30 C29 1_555 1_555
H21 C30 1_555 1_555
C31 C30 1_555 1_555
H22 C31 1_555 1_555
C32 C27 1_555 1_555
H23 C32 1_555 1_555
C5 C6 1_555 1_555
C11 C12 1_555 1_555
C17 C18 1_555 1_555
C19 C20 1_555 1_555
C25 C26 1_555 1_555
C31 C32 1_555 1_555

#END
