
#######################################################################
#
#                 Cambridge Crystallographic Data Centre
#                                CCDC 
#
#######################################################################
#
# If this CIF has been generated from an entry in the Cambridge 
# Structural Database, then it will include bibliographic, chemical, 
# crystal, experimental, refinement or atomic coordinate data resulting 
# from the CCDC's data processing and validation procedures.
#
#######################################################################

data_QUWGIA
_chemical_formula_moiety         'C23 H19 N1 O2'
_chemical_name_systematic        
'ethyl 6-phenyl-7H-dibenzo[b,d]azepine-7-carboxylate'
_symmetry_cell_setting           monoclinic
_symmetry_space_group_name_H-M   'P 21/c'
_symmetry_Int_Tables_number      14
_space_group_name_Hall           '-P 2ybc'
loop_
_symmetry_equiv_pos_site_id
_symmetry_equiv_pos_as_xyz
1 x,y,z
2 -x,1/2+y,1/2-z
3 -x,-y,-z
4 x,1/2-y,1/2+z
_cell_length_a                   11.267(5)
_cell_length_b                   7.858(3)
_cell_length_c                   20.434(9)
_cell_angle_alpha                90
_cell_angle_beta                 94.792(7)
_cell_angle_gamma                90
_cell_volume                     1802.82
_exptl_crystal_colour            colorless
_exptl_crystal_description       block
_cell_formula_units_Z            4
loop_
_atom_site_label
_atom_site_type_symbol
_atom_site_fract_x
_atom_site_fract_y
_atom_site_fract_z
C1 C 0.36060(13) 0.1824(2) 0.10456(8)
C2 C 0.32023(14) 0.25819(19) 0.04032(8)
C3 C 0.30949(13) 0.2300(2) 0.16228(8)
C4 C 0.19914(14) 0.2880(2) 0.02049(7)
C5 C -0.00421(13) 0.24471(19) 0.15338(8)
C6 C -0.08002(14) 0.1139(2) 0.13021(9)
H1 H -0.0595 0.0462 0.0956
C7 C 0.40453(16) 0.2980(2) -0.00431(9)
H2 H 0.4847 0.2777 0.0077
C8 C 0.45126(14) 0.0593(2) 0.10939(10)
H3 H 0.4868 0.0273 0.0718
C9 C 0.16685(16) 0.3515(2) -0.04289(8)
H4 H 0.0868 0.3657 -0.0569
C10 C 0.34862(16) 0.1540(2) 0.22191(9)
H5 H 0.3147 0.1859 0.2600
C11 C 0.37213(19) 0.3661(3) -0.06525(9)
H6 H 0.4301 0.3939 -0.0933
C12 C 0.48873(16) -0.0151(3) 0.16859(11)
H7 H 0.5487 -0.0968 0.1705
C13 C 0.25318(19) 0.3929(3) -0.08456(9)
H8 H 0.2310 0.4390 -0.1257
C14 C 0.43749(17) 0.0313(3) 0.22500(11)
H9 H 0.4624 -0.0195 0.2649
C15 C -0.03568(15) 0.3423(3) 0.20595(9)
H10 H 0.0148 0.4283 0.2227
C16 C -0.18614(16) 0.0839(3) 0.15848(10)
H11 H -0.2359 -0.0039 0.1428
C17 C -0.14294(17) 0.3119(3) 0.23368(10)
H12 H -0.1639 0.3784 0.2685
C18 C -0.21788(16) 0.1836(3) 0.20959(10)
H13 H -0.2896 0.1645 0.2278
N1 N 0.10172(11) 0.25025(16) 0.05750(6)
O1 O 0.35287(10) 0.58428(16) 0.14022(6)
C19 C 0.10385(13) 0.28514(19) 0.11882(7)
C20 C 0.21182(13) 0.36186(19) 0.15853(7)
H14 H 0.1892 0.3791 0.2033
C21 C 0.25204(13) 0.5340(2) 0.13392(7)
C22 C 0.18678(19) 0.7957(2) 0.08536(13)
H15 H 0.2464 0.8482 0.1159
H16 H 0.1155 0.8653 0.0836
C23 C 0.2316(3) 0.7884(3) 0.01922(12)
H17 H 0.3068 0.7301 0.0218
H18 H 0.2417 0.9019 0.0032
H19 H 0.1754 0.7284 -0.0102
O2 O 0.15950(10) 0.62461(15) 0.10870(7)
loop_
_geom_bond_atom_site_label_1
_geom_bond_atom_site_label_2
_geom_bond_site_symmetry_1
_geom_bond_site_symmetry_2
C1 C2 1_555 1_555
C2 C4 1_555 1_555
C3 C1 1_555 1_555
C4 C9 1_555 1_555
C5 C6 1_555 1_555
C6 H1 1_555 1_555
C7 C2 1_555 1_555
H2 C7 1_555 1_555
C8 C1 1_555 1_555
H3 C8 1_555 1_555
C9 H4 1_555 1_555
C10 C3 1_555 1_555
H5 C10 1_555 1_555
C11 C7 1_555 1_555
H6 C11 1_555 1_555
C12 C8 1_555 1_555
H7 C12 1_555 1_555
C13 C9 1_555 1_555
H8 C13 1_555 1_555
C14 C10 1_555 1_555
H9 C14 1_555 1_555
C15 C5 1_555 1_555
H10 C15 1_555 1_555
C16 C6 1_555 1_555
H11 C16 1_555 1_555
C17 C15 1_555 1_555
H12 C17 1_555 1_555
C18 C16 1_555 1_555
H13 C18 1_555 1_555
N1 C4 1_555 1_555
O1 C21 1_555 1_555
C19 C5 1_555 1_555
C20 C3 1_555 1_555
H14 C20 1_555 1_555
C21 C20 1_555 1_555
C22 H15 1_555 1_555
H16 C22 1_555 1_555
C23 C22 1_555 1_555
H17 C23 1_555 1_555
H18 C23 1_555 1_555
H19 C23 1_555 1_555
O2 C21 1_555 1_555
C11 C13 1_555 1_555
C12 C14 1_555 1_555
C17 C18 1_555 1_555
N1 C19 1_555 1_555
C19 C20 1_555 1_555
C22 O2 1_555 1_555

#END
