
#######################################################################
#
#                 Cambridge Crystallographic Data Centre
#                                CCDC 
#
#######################################################################
#
# If this CIF has been generated from an entry in the Cambridge 
# Structural Database, then it will include bibliographic, chemical, 
# crystal, experimental, refinement or atomic coordinate data resulting 
# from the CCDC's data processing and validation procedures.
#
#######################################################################

data_QUWGEW
_chemical_formula_moiety         'C28 H23 N1 O1'
_chemical_name_systematic        
10-methoxy-2-methyl-6,7-diphenyl-7H-dibenzo[b,d]azepine
_symmetry_cell_setting           monoclinic
_symmetry_space_group_name_H-M   'P 21/c'
_symmetry_Int_Tables_number      14
_space_group_name_Hall           '-P 2ybc'
loop_
_symmetry_equiv_pos_site_id
_symmetry_equiv_pos_as_xyz
1 x,y,z
2 -x,1/2+y,1/2-z
3 -x,-y,-z
4 x,1/2-y,1/2+z
_cell_length_a                   17.133(5)
_cell_length_b                   10.069(3)
_cell_length_c                   27.583(7)
_cell_angle_alpha                90
_cell_angle_beta                 116.183(14)
_cell_angle_gamma                90
_cell_volume                     4270.14
_exptl_crystal_colour            colorless
_exptl_crystal_description       block
_cell_formula_units_Z            8
loop_
_atom_site_label
_atom_site_type_symbol
_atom_site_fract_x
_atom_site_fract_y
_atom_site_fract_z
O1 O 1.1695(3) 0.8282(4) 0.67617(17)
N1 N 0.8831(3) 0.4453(4) 0.67916(18)
C1 C 0.8821(3) 0.5657(6) 0.7058(2)
C2 C 0.9229(3) 0.6836(5) 0.70234(19)
C3 C 0.8679(3) 0.4420(5) 0.6296(2)
C4 C 0.9278(4) 0.6423(5) 0.6136(2)
C5 C 0.9652(3) 0.6950(5) 0.6664(2)
C6 C 0.9229(3) 0.7911(5) 0.7343(2)
H1 H 0.9514 0.8682 0.7325
C7 C 0.8437(3) 0.5637(5) 0.5937(2)
H2 H 0.8284 0.5346 0.5567
C8 C 0.8837(3) 0.7903(6) 0.7681(2)
C9 C 0.7657(4) 0.6364(6) 0.5934(2)
C10 C 1.0451(4) 0.7581(5) 0.6843(2)
H3 H 1.0706 0.7944 0.7188
C11 C 0.8458(3) 0.5622(5) 0.7421(2)
H4 H 0.8212 0.4832 0.7463
C12 C 0.8810(3) 0.3115(5) 0.6082(2)
C13 C 1.0881(4) 0.7683(5) 0.6516(3)
C14 C 0.8974(4) 0.2004(6) 0.6402(2)
H5 H 0.8989 0.2062 0.6743
C15 C 0.6994(4) 0.5693(6) 0.5980(2)
H6 H 0.7035 0.4776 0.6022
C16 C 0.8449(3) 0.6715(6) 0.7723(2)
H7 H 0.8184 0.6659 0.7952
C17 C 1.0498(4) 0.7197(5) 0.5992(2)
H8 H 1.0770 0.7282 0.5767
C18 C 0.9697(4) 0.6580(5) 0.5815(2)
H9 H 0.9431 0.6257 0.5463
C19 C 0.7567(4) 0.7732(6) 0.5851(2)
H10 H 0.7992 0.8214 0.5804
C20 C 0.6263(4) 0.6331(7) 0.5965(2)
H11 H 0.5824 0.5848 0.5995
C21 C 0.8795(4) 0.2957(6) 0.5583(3)
H12 H 0.8688 0.3694 0.5359
C22 C 0.8831(4) 0.9090(5) 0.8012(2)
H13 H 0.9373 0.9135 0.8332
H14 H 0.8362 0.9006 0.8111
H15 H 0.8754 0.9884 0.7803
C23 C 0.6201(5) 0.7693(8) 0.5905(3)
H16 H 0.5730 0.8142 0.5910
C24 C 0.9093(4) 0.0655(7) 0.5717(3)
H17 H 0.9186 -0.0169 0.5599
C25 C 0.6836(5) 0.8377(7) 0.5840(2)
H18 H 0.6781 0.9291 0.5786
C26 C 0.9119(4) 0.0785(6) 0.6211(3)
H19 H 0.9237 0.0041 0.6432
C27 C 0.8934(4) 0.1726(7) 0.5399(3)
H20 H 0.8915 0.1651 0.5058
C28 C 1.2190(4) 0.8391(7) 0.6459(3)
H21 H 1.2260 0.7527 0.6336
H22 H 1.2752 0.8759 0.6684
H23 H 1.1891 0.8960 0.6153
O2 O 0.3417(3) 0.6885(4) 0.87392(17)
N2 N 0.6197(3) 1.0683(4) 0.84434(18)
C29 C 0.5774(4) 0.8778(5) 0.9152(2)
C30 C 0.6372(3) 1.0757(5) 0.8945(2)
C31 C 0.5345(4) 0.8249(5) 0.8633(2)
C32 C 0.6608(3) 0.9533(5) 0.9312(2)
H24 H 0.6780 0.9859 0.9680
C33 C 0.4548(4) 0.7592(5) 0.8487(2)
H25 H 0.4252 0.7230 0.8143
C34 C 0.5728(3) 0.8309(5) 0.82476(19)
C35 C 0.6144(3) 0.9453(6) 0.8182(2)
C36 C 0.6286(4) 1.2085(6) 0.9156(2)
C37 C 0.6469(4) 0.9443(6) 0.7798(2)
H26 H 0.6710 1.0216 0.7738
C38 C 0.5682(3) 0.7198(6) 0.7927(2)
H27 H 0.5391 0.6446 0.7956
C39 C 0.6049(4) 0.7174(6) 0.7571(2)
C40 C 0.7382(4) 0.8753(6) 0.93255(19)
C41 C 0.8064(4) 0.9348(6) 0.9282(2)
H28 H 0.8059 1.0264 0.9237
C42 C 0.4204(4) 0.7484(5) 0.8853(3)
C43 C 0.4641(4) 0.7989(6) 0.9374(2)
H29 H 0.4416 0.7890 0.9624
C44 C 0.6441(3) 0.8316(6) 0.7505(2)
H30 H 0.6686 0.8325 0.7263
C45 C 0.5411(4) 0.8637(5) 0.9509(2)
H31 H 0.5703 0.8995 0.9854
C46 C 0.8766(4) 0.8612(8) 0.9305(2)
H32 H 0.9215 0.9037 0.9264
C47 C 0.6038(4) 0.5924(5) 0.7266(2)
H33 H 0.6623 0.5692 0.7338
H34 H 0.5701 0.6072 0.6886
H35 H 0.5784 0.5213 0.7380
C48 C 0.5865(4) 1.3093(6) 0.8791(2)
H36 H 0.5654 1.2940 0.8422
C49 C 0.7432(4) 0.7404(6) 0.9415(2)
H37 H 0.6983 0.6976 0.9455
C50 C 0.5760(5) 1.4331(6) 0.8975(3)
H38 H 0.5472 1.4998 0.8728
C51 C 0.8129(5) 0.6675(7) 0.9447(3)
H39 H 0.8145 0.5766 0.9508
C52 C 0.6601(4) 1.2356(6) 0.9692(3)
H40 H 0.6897 1.1701 0.9945
C53 C 0.6482(5) 1.3612(8) 0.9867(3)
H41 H 0.6689 1.3782 1.0235
C54 C 0.6067(5) 1.4577(7) 0.9504(3)
H42 H 0.5994 1.5413 0.9622
C55 C 0.2907(4) 0.6392(7) 0.8217(3)
H43 H 0.2799 0.7090 0.7958
H44 H 0.2364 0.6071 0.8193
H45 H 0.3210 0.5679 0.8142
C56 C 0.8803(5) 0.7268(8) 0.9389(3)
H46 H 0.9272 0.6772 0.9405
loop_
_geom_bond_atom_site_label_1
_geom_bond_atom_site_label_2
_geom_bond_site_symmetry_1
_geom_bond_site_symmetry_2
O1 C13 1_555 1_555
N1 C1 1_555 1_555
C1 C2 1_555 1_555
C2 C5 1_555 1_555
C3 N1 1_555 1_555
C4 C5 1_555 1_555
C5 C10 1_555 1_555
C6 C2 1_555 1_555
H1 C6 1_555 1_555
C7 C3 1_555 1_555
H2 C7 1_555 1_555
C8 C6 1_555 1_555
C9 C7 1_555 1_555
C10 H3 1_555 1_555
C11 C1 1_555 1_555
H4 C11 1_555 1_555
C12 C3 1_555 1_555
C13 C10 1_555 1_555
C14 C12 1_555 1_555
H5 C14 1_555 1_555
C15 C9 1_555 1_555
H6 C15 1_555 1_555
C16 C8 1_555 1_555
H7 C16 1_555 1_555
C17 C13 1_555 1_555
H8 C17 1_555 1_555
C18 C4 1_555 1_555
H9 C18 1_555 1_555
C19 C9 1_555 1_555
H10 C19 1_555 1_555
C20 C15 1_555 1_555
H11 C20 1_555 1_555
C21 C12 1_555 1_555
H12 C21 1_555 1_555
C22 C8 1_555 1_555
H13 C22 1_555 1_555
H14 C22 1_555 1_555
H15 C22 1_555 1_555
C23 C20 1_555 1_555
H16 C23 1_555 1_555
C24 H17 1_555 1_555
C25 C19 1_555 1_555
H18 C25 1_555 1_555
C26 C14 1_555 1_555
H19 C26 1_555 1_555
C27 C21 1_555 1_555
H20 C27 1_555 1_555
C28 O1 1_555 1_555
H21 C28 1_555 1_555
H22 C28 1_555 1_555
H23 C28 1_555 1_555
O2 C42 1_555 1_555
N2 C30 1_555 1_555
C29 C31 1_555 1_555
C30 C32 1_555 1_555
C31 C33 1_555 1_555
C32 C29 1_555 1_555
H24 C32 1_555 1_555
C33 H25 1_555 1_555
C34 C31 1_555 1_555
C35 N2 1_555 1_555
C36 C30 1_555 1_555
C37 C35 1_555 1_555
H26 C37 1_555 1_555
C38 C34 1_555 1_555
H27 C38 1_555 1_555
C39 C38 1_555 1_555
C40 C32 1_555 1_555
C41 C40 1_555 1_555
H28 C41 1_555 1_555
C42 C33 1_555 1_555
C43 C42 1_555 1_555
H29 C43 1_555 1_555
C44 C37 1_555 1_555
H30 C44 1_555 1_555
C45 C29 1_555 1_555
H31 C45 1_555 1_555
C46 C41 1_555 1_555
H32 C46 1_555 1_555
C47 C39 1_555 1_555
H33 C47 1_555 1_555
H34 C47 1_555 1_555
H35 C47 1_555 1_555
C48 C36 1_555 1_555
H36 C48 1_555 1_555
C49 C40 1_555 1_555
H37 C49 1_555 1_555
C50 C48 1_555 1_555
H38 C50 1_555 1_555
C51 C49 1_555 1_555
H39 C51 1_555 1_555
C52 C36 1_555 1_555
H40 C52 1_555 1_555
C53 C52 1_555 1_555
H41 C53 1_555 1_555
C54 C50 1_555 1_555
H42 C54 1_555 1_555
C55 O2 1_555 1_555
H43 C55 1_555 1_555
H44 C55 1_555 1_555
H45 C55 1_555 1_555
C56 C46 1_555 1_555
H46 C56 1_555 1_555
C4 C7 1_555 1_555
C11 C16 1_555 1_555
C17 C18 1_555 1_555
C23 C25 1_555 1_555
C24 C26 1_555 1_555
C24 C27 1_555 1_555
C34 C35 1_555 1_555
C39 C44 1_555 1_555
C43 C45 1_555 1_555
C51 C56 1_555 1_555
C53 C54 1_555 1_555

#END
