
#######################################################################
#
#                 Cambridge Crystallographic Data Centre
#                                CCDC 
#
#######################################################################
#
# If this CIF has been generated from an entry in the Cambridge 
# Structural Database, then it will include bibliographic, chemical, 
# crystal, experimental, refinement or atomic coordinate data resulting 
# from the CCDC's data processing and validation procedures.
#
#######################################################################

data_QUWLIF
_chemical_formula_moiety         'C19 H21 N1 O6'
_chemical_name_systematic        
'Triethyl 5-phenyl-1H-pyrrole-2,3,4-tricarboxylate'
_symmetry_cell_setting           monoclinic
_symmetry_space_group_name_H-M   'P 21/n'
_symmetry_Int_Tables_number      14
_space_group_name_Hall           '-P 2yn'
loop_
_symmetry_equiv_pos_site_id
_symmetry_equiv_pos_as_xyz
1 x,y,z
2 1/2-x,1/2+y,1/2-z
3 -x,-y,-z
4 1/2+x,1/2-y,1/2+z
_cell_length_a                   7.8173(15)
_cell_length_b                   16.019(3)
_cell_length_c                   15.684(3)
_cell_angle_alpha                90
_cell_angle_beta                 100.500(5)
_cell_angle_gamma                90
_cell_volume                     1931.15
_exptl_crystal_colour            colorless
_exptl_crystal_description       block
_cell_formula_units_Z            4
loop_
_atom_site_label
_atom_site_type_symbol
_atom_site_fract_x
_atom_site_fract_y
_atom_site_fract_z
C1 C 0.4637(6) -0.0531(2) 0.2343(3)
H1 H 0.4096 -0.0902 0.2665
C2 C 0.6348(6) -0.0348(2) 0.2593(2)
H2 H 0.6982 -0.0593 0.3088
C3 C 0.7146(4) 0.01975(18) 0.21172(18)
H3 H 0.8329 0.0303 0.2285
C4 C 0.6226(3) 0.05944(14) 0.13933(16)
C5 C 0.4500(4) 0.0396(2) 0.1142(2)
H4 H 0.3856 0.0642 0.0649
C6 C 0.3711(5) -0.0165(2) 0.1614(3)
H5 H 0.2542 -0.0296 0.1435
C7 C 0.7108(3) 0.12006(14) 0.09196(15)
N1 N 0.8397(3) 0.09558(11) 0.05119(13)
H6 H 0.8716 0.0421 0.0459
C8 C 0.9105(3) 0.16279(13) 0.01514(16)
C9 C 1.0466(3) 0.14934(14) -0.03365(18)
C10 C 0.8233(3) 0.23304(13) 0.03440(15)
C11 C 0.6960(3) 0.20665(13) 0.08217(15)
C12 C 0.8674(3) 0.32153(14) 0.01665(17)
C13 C 0.5786(3) 0.26421(15) 0.11534(17)
C14 C 1.2512(4) 0.2131(2) -0.1085(3)
H7 H 1.3499 0.1851 -0.0736
H8 H 1.2143 0.1809 -0.1610
C15 C 1.2996(5) 0.2965(3) -0.1299(3)
H9 H 1.1999 0.3245 -0.1623
H10 H 1.3896 0.2935 -0.1640
H11 H 1.3413 0.3269 -0.0775
C16 C 0.7934(6) 0.4388(2) -0.0730(3)
H12 H 0.8588 0.4649 -0.0214
H13 H 0.8628 0.4427 -0.1183
C17 C 0.6540(8) 0.4787(3) -0.0966(7)
H14 H 0.5671 0.4422 -0.1277
H15 H 0.6741 0.5241 -0.1336
H16 H 0.6146 0.5004 -0.0465
C18 C 0.2303(5) 0.2213(2) 0.2294(3)
H17 H 0.1915 0.1748 0.1923
H18 H 0.1314 0.2515 0.2414
H19 H 0.2982 0.2013 0.2827
C19 C 0.3380(4) 0.27711(19) 0.1858(2)
H20 H 0.2662 0.3052 0.1373
H21 H 0.3940 0.3191 0.2261
O1 O 0.9760(3) 0.36153(11) 0.06269(14)
O2 O 0.7678(3) 0.35051(11) -0.05458(14)
O3 O 0.5811(3) 0.33824(11) 0.10639(17)
O4 O 0.4665(3) 0.22597(11) 0.15598(14)
O5 O 1.0998(3) 0.08054(10) -0.04930(14)
O6 O 1.1088(3) 0.21963(10) -0.06003(14)
loop_
_geom_bond_atom_site_label_1
_geom_bond_atom_site_label_2
_geom_bond_site_symmetry_1
_geom_bond_site_symmetry_2
C1 H1 1_555 1_555
C2 C1 1_555 1_555
H2 C2 1_555 1_555
C3 C2 1_555 1_555
H3 C3 1_555 1_555
C4 C3 1_555 1_555
C5 C4 1_555 1_555
H4 C5 1_555 1_555
C6 C1 1_555 1_555
H5 C6 1_555 1_555
C7 C4 1_555 1_555
N1 C7 1_555 1_555
H6 N1 1_555 1_555
C8 N1 1_555 1_555
C9 C8 1_555 1_555
C10 C8 1_555 1_555
C11 C7 1_555 1_555
C12 C10 1_555 1_555
C13 C11 1_555 1_555
C14 H7 1_555 1_555
H8 C14 1_555 1_555
C15 C14 1_555 1_555
H9 C15 1_555 1_555
H10 C15 1_555 1_555
H11 C15 1_555 1_555
C16 H12 1_555 1_555
H13 C16 1_555 1_555
C17 C16 1_555 1_555
H14 C17 1_555 1_555
H15 C17 1_555 1_555
H16 C17 1_555 1_555
C18 H17 1_555 1_555
H18 C18 1_555 1_555
H19 C18 1_555 1_555
C19 C18 1_555 1_555
H20 C19 1_555 1_555
H21 C19 1_555 1_555
O1 C12 1_555 1_555
O2 C12 1_555 1_555
O3 C13 1_555 1_555
O4 C13 1_555 1_555
O5 C9 1_555 1_555
O6 C9 1_555 1_555
C5 C6 1_555 1_555
C10 C11 1_555 1_555
C14 O6 1_555 1_555
C16 O2 1_555 1_555
C19 O4 1_555 1_555

#END
