
#######################################################################
#
#                 Cambridge Crystallographic Data Centre
#                                CCDC 
#
#######################################################################
#
# If this CIF has been generated from an entry in the Cambridge 
# Structural Database, then it will include bibliographic, chemical, 
# crystal, experimental, refinement or atomic coordinate data resulting 
# from the CCDC's data processing and validation procedures.
#
#######################################################################

data_QUWMEC
_chemical_formula_moiety         'C20 H16 Cl1 N3 O6'
_chemical_name_systematic        
'Methyl 5-(4-chlorophenyl)-3-(1,3-dioxo-1,3-dihydro-2H-isoindol-2-yl)-4-nitroprolinate'
_symmetry_cell_setting           monoclinic
_symmetry_space_group_name_H-M   'P 21'
_symmetry_Int_Tables_number      4
_space_group_name_Hall           'P 2yb'
loop_
_symmetry_equiv_pos_site_id
_symmetry_equiv_pos_as_xyz
1 x,y,z
2 -x,1/2+y,-z
_cell_length_a                   6.5669(8)
_cell_length_b                   20.611(2)
_cell_length_c                   7.3177(9)
_cell_angle_alpha                90
_cell_angle_beta                 92.800(3)
_cell_angle_gamma                90
_cell_volume                     989.271
_exptl_crystal_colour            colorless
_exptl_crystal_description       prismatic
_cell_formula_units_Z            2
loop_
_atom_site_label
_atom_site_type_symbol
_atom_site_fract_x
_atom_site_fract_y
_atom_site_fract_z
Cl1 Cl 1.2175(2) 0.60170(5) 0.15486(15)
N1 N 0.7907(4) 0.34285(14) 0.5399(4)
N2 N 0.7878(4) 0.32494(14) 0.0821(3)
N3 N 0.6120(3) 0.19710(11) 0.3067(3)
O1 O 0.3885(4) 0.32275(12) 0.6559(4)
O2 O 0.4606(4) 0.21903(12) 0.6992(4)
O3 O 0.6357(4) 0.35785(15) 0.0726(4)
O4 O 0.9025(5) 0.3204(2) -0.0401(3)
O5 O 0.9104(3) 0.14647(12) 0.4050(3)
O6 O 0.2782(3) 0.21599(12) 0.2145(4)
C1 C 0.9465(4) 0.33848(16) 0.4028(4)
H1 H 1.0674 0.3174 0.4599
C2 C 0.8482(4) 0.29110(15) 0.2580(4)
H2 H 0.9436 0.2559 0.2344
C3 C 0.6616(4) 0.26380(13) 0.3482(4)
H3 H 0.5443 0.2901 0.3058
C4 C 0.7032(4) 0.27896(15) 0.5528(4)
H4 H 0.7999 0.2481 0.6106
C5 C 0.5012(5) 0.27866(15) 0.6444(4)
C6 C 0.2594(6) 0.2073(2) 0.7656(6)
H5 H 0.1627 0.2031 0.6636
H6 H 0.2210 0.2430 0.8409
H7 H 0.2612 0.1680 0.8363
C7 C 1.0088(4) 0.40473(15) 0.3356(4)
C8 C 1.1958(5) 0.41287(19) 0.2601(5)
H8 H 1.2810 0.3772 0.2490
C9 C 1.2585(6) 0.4724(2) 0.2013(5)
H9 H 1.3839 0.4769 0.1489
C10 C 1.1349(6) 0.52495(18) 0.2204(5)
C11 C 0.9491(6) 0.51911(17) 0.2951(5)
H10 H 0.8663 0.5553 0.3082
C12 C 0.8860(5) 0.45842(17) 0.3510(4)
H11 H 0.7586 0.4539 0.3998
C13 C 0.7364(5) 0.14340(15) 0.3459(4)
C14 C 0.4140(4) 0.17853(15) 0.2484(4)
C15 C 0.4172(5) 0.10689(16) 0.2394(4)
C16 C 0.6084(5) 0.08562(15) 0.2993(4)
C17 C 0.6558(7) 0.02072(17) 0.3059(5)
H12 H 0.7841 0.0063 0.3472
C18 C 0.5035(8) -0.02225(18) 0.2481(5)
H13 H 0.5302 -0.0666 0.2514
C19 C 0.3164(8) -0.0014(2) 0.1867(6)
H14 H 0.2192 -0.0317 0.1467
C20 C 0.2673(6) 0.06349(19) 0.1824(5)
H15 H 0.1381 0.0776 0.1425
H16 H 0.850(5) 0.3542(17) 0.634(5)
loop_
_geom_bond_atom_site_label_1
_geom_bond_atom_site_label_2
_geom_bond_site_symmetry_1
_geom_bond_site_symmetry_2
Cl1 C10 1_555 1_555
N1 C1 1_555 1_555
N2 O3 1_555 1_555
N3 C3 1_555 1_555
O1 C5 1_555 1_555
O2 C5 1_555 1_555
O4 N2 1_555 1_555
O5 C13 1_555 1_555
O6 C14 1_555 1_555
C1 H1 1_555 1_555
C2 N2 1_555 1_555
H2 C2 1_555 1_555
C3 C2 1_555 1_555
H3 C3 1_555 1_555
C4 N1 1_555 1_555
H4 C4 1_555 1_555
C5 C4 1_555 1_555
C6 O2 1_555 1_555
H5 C6 1_555 1_555
H6 C6 1_555 1_555
H7 C6 1_555 1_555
C7 C1 1_555 1_555
C8 C7 1_555 1_555
H8 C8 1_555 1_555
C9 C8 1_555 1_555
H9 C9 1_555 1_555
C10 C9 1_555 1_555
C11 C10 1_555 1_555
H10 C11 1_555 1_555
C12 C7 1_555 1_555
H11 C12 1_555 1_555
C13 N3 1_555 1_555
C14 N3 1_555 1_555
C15 C14 1_555 1_555
C16 C13 1_555 1_555
C17 C16 1_555 1_555
H12 C17 1_555 1_555
C18 C17 1_555 1_555
H13 C18 1_555 1_555
C19 C18 1_555 1_555
H14 C19 1_555 1_555
C20 C15 1_555 1_555
H15 C20 1_555 1_555
H16 N1 1_555 1_555
C1 C2 1_555 1_555
C3 C4 1_555 1_555
C11 C12 1_555 1_555
C15 C16 1_555 1_555
C19 C20 1_555 1_555

#END
