
#######################################################################
#
#                 Cambridge Crystallographic Data Centre
#                                CCDC 
#
#######################################################################
#
# If this CIF has been generated from an entry in the Cambridge 
# Structural Database, then it will include bibliographic, chemical, 
# crystal, experimental, refinement or atomic coordinate data resulting 
# from the CCDC's data processing and validation procedures.
#
#######################################################################

data_QUWWUC
_chemical_name_common            
hydrido(4-methyl-2-((4,4,5,5-tetramethyl-1,3,2-dioxaborolan-2-yl)methyl)pyridine)bis(2,4,6-tris(trifluoromethyl)phenyl)boron
_chemical_formula_moiety         'C31 H25 B2 F18 N1 O2'
_chemical_name_systematic        
1-(bis(2,4,6-tris(trifluoromethyl)phenyl)boranyl)-4-methyl-2-((4,4,5,5-tetramethyl-1,3,2-dioxaborolan-2-yl)methyl)-1-pyridine
_symmetry_cell_setting           monoclinic
_symmetry_space_group_name_H-M   'P 21/c'
_symmetry_Int_Tables_number      14
_space_group_name_Hall           '-P 2ybc'
loop_
_symmetry_equiv_pos_site_id
_symmetry_equiv_pos_as_xyz
1 x,y,z
2 -x,1/2+y,1/2-z
3 -x,-y,-z
4 x,1/2-y,1/2+z
_cell_length_a                   13.704(4)
_cell_length_b                   19.046(5)
_cell_length_c                   13.618(3)
_cell_angle_alpha                90
_cell_angle_beta                 107.145(4)
_cell_angle_gamma                90
_cell_volume                     3396.43
_exptl_crystal_colour            colorless
_exptl_crystal_description       prism
_cell_formula_units_Z            4
loop_
_atom_site_label
_atom_site_type_symbol
_atom_site_fract_x
_atom_site_fract_y
_atom_site_fract_z
B1 B 0.22778(19) 0.84450(13) 0.78158(19)
H1 H 0.1571(16) 0.8705(10) 0.7869(15)
B2 B -0.0220(2) 0.76798(14) 0.8640(2)
N1 N 0.19149(13) 0.76518(9) 0.74868(13)
O1 O -0.09698(14) 0.74172(10) 0.78359(14)
O2 O -0.05603(14) 0.79969(10) 0.93609(13)
C1 C 0.12622(17) 0.73051(12) 0.79006(16)
C2 C 0.08859(18) 0.66539(13) 0.75181(19)
H2 H 0.0430 0.6419 0.7815
C3 C 0.11467(18) 0.63334(12) 0.67229(19)
C4 C 0.18199(18) 0.66969(12) 0.63235(17)
H3 H 0.2034 0.6498 0.5782
C5 C 0.21732(17) 0.73372(12) 0.67053(16)
H4 H 0.2625 0.7577 0.6409
C6 C 0.0718(3) 0.56355(15) 0.6300(3)
H5 H 0.0355 0.5683 0.5567
H6 H 0.0243 0.5471 0.6666
H7 H 0.1275 0.5296 0.6392
C7 C 0.09509(19) 0.76110(14) 0.87804(18)
H8 H 0.1259 0.8084 0.8927
H9 H 0.1253 0.7318 0.9395
C8 C -0.19206(19) 0.74486(14) 0.8129(2)
C9 C -0.1675(2) 0.80392(14) 0.8961(2)
C10 C -0.2059(2) 0.67297(16) 0.8539(3)
H10 H -0.2059 0.6374 0.8019
H11 H -0.2709 0.6713 0.8701
H12 H -0.1497 0.6636 0.9163
C11 C -0.2794(2) 0.76159(18) 0.7175(2)
H13 H -0.2623 0.8033 0.6838
H14 H -0.3416 0.7705 0.7370
H15 H -0.2907 0.7217 0.6700
C12 C -0.2115(3) 0.79185(19) 0.9841(3)
H16 H -0.1881 0.7464 1.0162
H17 H -0.2863 0.7920 0.9582
H18 H -0.1888 0.8293 1.0351
C13 C -0.1923(3) 0.87744(15) 0.8532(3)
H19 H -0.1599 0.9119 0.9062
H20 H -0.2665 0.8844 0.8319
H21 H -0.1667 0.8836 0.7938
C14 C 0.30925(16) 0.85345(11) 0.89844(16)
C15 C 0.37429(17) 0.80312(11) 0.96216(16)
C16 C 0.43506(17) 0.81885(13) 1.06161(17)
H22 H 0.4764 0.7831 1.1020
C17 C 0.43605(17) 0.88503(12) 1.10194(18)
C18 C 0.37356(18) 0.93591(12) 1.04397(18)
H23 H 0.3733 0.9818 1.0712
C19 C 0.31108(17) 0.92049(12) 0.94608(17)
C20 C 0.38077(19) 0.72585(12) 0.93781(18)
C21 C 0.5024(2) 0.90226(15) 1.2076(2)
C22 C 0.2391(2) 0.97973(12) 0.89824(19)
C23 C 0.25509(16) 0.88546(11) 0.68462(16)
C24 C 0.35219(17) 0.90375(11) 0.67636(16)
C25 C 0.36644(18) 0.94760(12) 0.59927(17)
H24 H 0.4335 0.9591 0.5981
C26 C 0.2838(2) 0.97385(12) 0.52567(18)
C27 C 0.18711(19) 0.95574(12) 0.52669(17)
H25 H 0.1297 0.9727 0.4741
C28 C 0.17211(17) 0.91295(12) 0.60361(17)
C29 C 0.45092(17) 0.87764(13) 0.75014(18)
C30 C 0.2979(3) 1.02061(17) 0.4421(2)
C31 C 0.06101(19) 0.90185(13) 0.5973(2)
F1 F 0.37117(11) 0.70917(7) 0.84140(10)
F2 F 0.30600(14) 0.68967(8) 0.96321(13)
F3 F 0.46769(13) 0.69672(8) 0.99301(13)
F4 F 0.53138(12) 0.84490(9) 1.26599(11)
F5 F 0.58867(13) 0.93449(10) 1.20597(13)
F6 F 0.45667(14) 0.94462(11) 1.25795(13)
F7 F 0.23129(11) 0.99420(7) 0.80058(10)
F8 F 0.26708(15) 1.04092(8) 0.94851(12)
F9 F 0.14366(12) 0.96703(9) 0.90295(13)
F10 F 0.47745(10) 0.91150(8) 0.84067(10)
F11 F 0.44668(11) 0.80934(7) 0.77115(12)
F12 F 0.53020(11) 0.88521(9) 0.71262(12)
F13 F 0.3884(6) 1.0296(10) 0.4430(11)
F14 F 0.2562(12) 0.9902(7) 0.3492(5)
F15 F 0.2533(14) 1.0792(4) 0.4380(12)
F16 F 0.03707(11) 0.83590(8) 0.61525(12)
F17 F 0.03014(11) 0.94361(9) 0.66138(13)
F18 F -0.00058(12) 0.91702(9) 0.50277(12)
F19? F 0.318(2) 0.9902(6) 0.3705(14)
F20? F 0.2217(8) 1.0614(9) 0.4018(11)
F21? F 0.3727(13) 1.0670(9) 0.4795(10)
loop_
_geom_bond_atom_site_label_1
_geom_bond_atom_site_label_2
_geom_bond_site_symmetry_1
_geom_bond_site_symmetry_2
B1 H1 1_555 1_555
B2 O1 1_555 1_555
N1 B1 1_555 1_555
O1 C8 1_555 1_555
O2 B2 1_555 1_555
C1 N1 1_555 1_555
C2 C1 1_555 1_555
H2 C2 1_555 1_555
C3 C2 1_555 1_555
C4 C3 1_555 1_555
H3 C4 1_555 1_555
C5 N1 1_555 1_555
H4 C5 1_555 1_555
C6 C3 1_555 1_555
H5 C6 1_555 1_555
H6 C6 1_555 1_555
H7 C6 1_555 1_555
C7 B2 1_555 1_555
H8 C7 1_555 1_555
H9 C7 1_555 1_555
C8 C9 1_555 1_555
C9 O2 1_555 1_555
C10 C8 1_555 1_555
H10 C10 1_555 1_555
H11 C10 1_555 1_555
H12 C10 1_555 1_555
C11 C8 1_555 1_555
H13 C11 1_555 1_555
H14 C11 1_555 1_555
H15 C11 1_555 1_555
C12 C9 1_555 1_555
H16 C12 1_555 1_555
H17 C12 1_555 1_555
H18 C12 1_555 1_555
C13 C9 1_555 1_555
H19 C13 1_555 1_555
H20 C13 1_555 1_555
H21 C13 1_555 1_555
C14 B1 1_555 1_555
C15 C14 1_555 1_555
C16 C15 1_555 1_555
H22 C16 1_555 1_555
C17 C16 1_555 1_555
C18 C17 1_555 1_555
H23 C18 1_555 1_555
C19 C14 1_555 1_555
C20 C15 1_555 1_555
C21 C17 1_555 1_555
C22 C19 1_555 1_555
C23 B1 1_555 1_555
C24 C23 1_555 1_555
C25 C24 1_555 1_555
H24 C25 1_555 1_555
C26 C25 1_555 1_555
C27 C26 1_555 1_555
H25 C27 1_555 1_555
C28 C23 1_555 1_555
C29 C24 1_555 1_555
C30 C26 1_555 1_555
C31 C28 1_555 1_555
F1 C20 1_555 1_555
F2 C20 1_555 1_555
F3 C20 1_555 1_555
F4 C21 1_555 1_555
F5 C21 1_555 1_555
F6 C21 1_555 1_555
F7 C22 1_555 1_555
F8 C22 1_555 1_555
F9 C22 1_555 1_555
F10 C29 1_555 1_555
F11 C29 1_555 1_555
F12 C29 1_555 1_555
F13 C30 1_555 1_555
F14 C30 1_555 1_555
F15 C30 1_555 1_555
F16 C31 1_555 1_555
F17 C31 1_555 1_555
F18 C31 1_555 1_555
C1 C7 1_555 1_555
C4 C5 1_555 1_555
C18 C19 1_555 1_555
C27 C28 1_555 1_555

#END
