
#######################################################################
#
#                 Cambridge Crystallographic Data Centre
#                                CCDC 
#
#######################################################################
#
# If this CIF has been generated from an entry in the Cambridge 
# Structural Database, then it will include bibliographic, chemical, 
# crystal, experimental, refinement or atomic coordinate data resulting 
# from the CCDC's data processing and validation procedures.
#
#######################################################################

data_QUWXOW
_chemical_name_common            'Lamivudine hemihydrate'
_chemical_formula_moiety         'C8 H11 N3 O3 S1,0.5(H2 O1)'
_chemical_name_systematic        
'cis-4-Amino-1-(2-hydroxymethyl-1,3-oxathiolan-5-yl)pyrimidin-2(1H)-one hemihydrate'
_chemical_properties_biological  
'Antiviral activity. Lamivudine is in clinical use as a reverse transcriptase inhibitor against HIV and hepatitis B infection'
_symmetry_cell_setting           monoclinic
_symmetry_space_group_name_H-M   'P 21'
_symmetry_Int_Tables_number      4
_space_group_name_Hall           'P 2yb'
loop_
_symmetry_equiv_pos_site_id
_symmetry_equiv_pos_as_xyz
1 x,y,z
2 -x,1/2+y,-z
_cell_length_a                   11.5729(4)
_cell_length_b                   11.2385(4)
_cell_length_c                   16.0232(6)
_cell_angle_alpha                90
_cell_angle_beta                 94.329(1)
_cell_angle_gamma                90
_cell_volume                     2078.06
_exptl_crystal_colour            colorless
_exptl_crystal_description       plate
_cell_formula_units_Z            8
_exptl_crystal_recrystallization_method water
loop_
_atom_site_label
_atom_site_type_symbol
_atom_site_fract_x
_atom_site_fract_y
_atom_site_fract_z
S1 S 0.10264(4) 0.99878(4) 0.51702(3)
O1 O -0.18027(10) 0.83126(11) 0.30053(7)
O2 O -0.03607(10) 0.81794(12) 0.53267(7)
O3 O 0.19455(12) 0.76690(12) 0.60179(8)
H1 H 0.232(2) 0.723(3) 0.6356(17)
N1 N -0.02189(12) 0.79105(12) 0.38895(9)
N2 N -0.04858(12) 0.70140(13) 0.25447(9)
N3 N 0.09050(14) 0.57422(14) 0.21169(10)
H2 H 0.055(2) 0.573(2) 0.1641(16)
H3 H 0.154(2) 0.541(2) 0.2211(13)
C1 C -0.08709(14) 0.77570(15) 0.31283(10)
C2 C 0.05402(14) 0.64681(15) 0.26937(10)
C3 C 0.12318(15) 0.66234(16) 0.34615(11)
H4 H 0.1925(19) 0.6261(19) 0.3538(13)
C4 C 0.08182(14) 0.73352(15) 0.40436(10)
H5 H 0.1192(16) 0.7476(17) 0.4568(12)
C5 C -0.07077(15) 0.86636(16) 0.45351(10)
H6 H -0.1529(19) 0.857(2) 0.4432(13)
C6 C -0.03015(17) 0.99557(18) 0.45002(12)
H7 H -0.082(2) 1.046(2) 0.4704(16)
H8 H -0.015(2) 1.023(2) 0.3959(16)
C7 C 0.03189(16) 0.89922(17) 0.58589(11)
H9 H -0.0200(17) 0.9431(18) 0.6172(12)
C8 C 0.11294(16) 0.82985(18) 0.64642(11)
H10 H 0.1476(19) 0.886(2) 0.6835(14)
H11 H 0.061(2) 0.774(2) 0.6779(15)
S2 S 0.38412(4) 0.72885(4) 0.78680(3)
O4 O 0.19325(11) 0.67658(11) 1.02569(8)
O5 O 0.33542(10) 0.51109(11) 0.83702(8)
O6 O 0.29406(12) 0.53746(13) 0.65782(8)
H12 H 0.257(2) 0.487(2) 0.6647(15)
N4 N 0.18991(12) 0.53273(13) 0.92645(9)
N5 N 0.04800(13) 0.54011(13) 1.02543(9)
N6 N -0.09715(14) 0.40253(15) 1.02130(10)
H13 H -0.1188(19) 0.437(2) 1.0633(15)
H14 H -0.1313(19) 0.337(2) 1.0040(14)
C9 C 0.14338(15) 0.58613(15) 0.99512(10)
C10 C -0.00193(15) 0.44333(15) 0.99010(10)
C11 C 0.04578(15) 0.38470(16) 0.92072(11)
H15 H 0.0127(17) 0.3146(19) 0.8969(12)
C12 C 0.13993(16) 0.43262(16) 0.89091(11)
H16 H 0.1738(18) 0.3992(19) 0.8460(14)
C13 C 0.29260(15) 0.59020(15) 0.89509(10)
H17 H 0.3447(17) 0.6025(18) 0.9431(13)
C14 C 0.26319(18) 0.70661(18) 0.84944(13)
H18 H 0.256(2) 0.767(3) 0.8847(17)
H19 H 0.192(2) 0.6965(19) 0.8143(14)
C15 C 0.41645(15) 0.56786(15) 0.78702(11)
H20 H 0.4936(17) 0.5593(17) 0.8109(12)
C16 C 0.40431(15) 0.51356(16) 0.70081(10)
H21 H 0.464(2) 0.545(2) 0.6667(14)
H22 H 0.4155(17) 0.430(2) 0.7074(12)
S3 S 0.92498(4) 0.64953(5) 0.79447(3)
O7 O 0.67611(11) 0.60436(11) 1.03407(8)
O8 O 0.71321(10) 0.61562(11) 0.83935(8)
O9 O 0.65946(13) 0.42960(14) 0.71609(9)
H23 H 0.682(2) 0.367(3) 0.7498(19)
N7 N 0.68448(13) 0.75748(13) 0.94189(9)
N8 N 0.55084(13) 0.75620(13) 1.04791(9)
N9 N 0.41698(14) 0.90387(15) 1.05374(11)
H24 H 0.3903(19) 0.860(2) 1.0912(14)
H25 H 0.383(2) 0.968(2) 1.0325(14)
C17 C 0.63674(15) 0.70238(15) 1.01073(10)
C18 C 0.50664(16) 0.85927(16) 1.01747(11)
C19 C 0.55421(16) 0.91914(17) 0.94919(11)
H26 H 0.5253(18) 0.992(2) 0.9266(13)
C20 C 0.64158(16) 0.86522(16) 0.91354(11)
H27 H 0.681(2) 0.899(2) 0.8669(14)
C21 C 0.77192(15) 0.69137(16) 0.90115(11)
H28 H 0.8062(18) 0.640(2) 0.9427(14)
C22 C 0.85694(17) 0.76322(18) 0.85408(13)
H29 H 0.910(2) 0.798(2) 0.8893(15)
H30 H 0.8204(19) 0.819(2) 0.8144(14)
C23 C 0.79932(15) 0.54894(17) 0.80164(12)
H31 H 0.8256(17) 0.484(2) 0.8361(12)
C24 C 0.75462(18) 0.50669(18) 0.71542(12)
H32 H 0.7348(19) 0.570(2) 0.6794(13)
H33 H 0.8122(16) 0.4414(16) 0.6949(12)
S4 S 0.58590(4) 0.82818(4) 0.46753(3)
O10 O 0.69460(10) 0.95563(11) 0.73429(7)
O11 O 0.49066(10) 0.73334(11) 0.59391(7)
O12 O 0.32097(12) 0.59891(12) 0.48440(9)
H34 H 0.317(2) 0.594(3) 0.539(2)
N10 N 0.52631(12) 0.91979(13) 0.65703(9)
N11 N 0.54373(13) 1.08002(13) 0.75296(9)
N12 N 0.39039(14) 1.20452(14) 0.76809(10)
H35 H 0.423(2) 1.223(2) 0.8170(15)
H36 H 0.322(2) 1.229(2) 0.7506(14)
C25 C 0.59221(14) 0.98640(15) 0.71644(10)
C26 C 0.43511(15) 1.11399(16) 0.72838(10)
C27 C 0.37021(15) 1.05367(16) 0.66130(11)
H37 H 0.297(2) 1.077(2) 0.6427(14)
C28 C 0.41738(15) 0.95566(16) 0.62999(10)
H38 H 0.3789(17) 0.9051(17) 0.5924(12)
C29 C 0.57911(15) 0.80682(15) 0.63029(10)
H39 H 0.6174(18) 0.7733(19) 0.6790(13)
C30 C 0.66983(16) 0.82753(18) 0.56750(11)
H40 H 0.725(2) 0.763(2) 0.5697(14)
H41 H 0.7126(18) 0.902(2) 0.5753(13)
C31 C 0.50145(16) 0.70805(17) 0.50656(11)
H42 H 0.5392(18) 0.631(2) 0.5046(13)
C32 C 0.38183(17) 0.70200(17) 0.46208(12)
H43 H 0.3382(18) 0.771(2) 0.4734(13)
H44 H 0.3934(19) 0.695(2) 0.4010(15)
O13 O 0.30651(13) 0.74973(12) 1.17322(9)
H45 H 0.352(2) 0.698(2) 1.1904(16)
H46 H 0.258(2) 0.725(2) 1.1381(16)
O14 O 0.80960(13) 0.51185(13) 1.16824(9)
H47 H 0.759(3) 0.541(3) 1.136(2)
H48 H 0.846(2) 0.564(2) 1.1899(16)
loop_
_geom_bond_atom_site_label_1
_geom_bond_atom_site_label_2
_geom_bond_site_symmetry_1
_geom_bond_site_symmetry_2
S1 C6 1_555 1_555
O1 C1 1_555 1_555
O2 C5 1_555 1_555
O3 H1 1_555 1_555
N1 C1 1_555 1_555
N2 C1 1_555 1_555
N3 H2 1_555 1_555
H3 N3 1_555 1_555
C2 N2 1_555 1_555
C3 C2 1_555 1_555
H4 C3 1_555 1_555
C4 N1 1_555 1_555
H5 C4 1_555 1_555
C5 N1 1_555 1_555
H6 C5 1_555 1_555
C6 C5 1_555 1_555
H7 C6 1_555 1_555
H8 C6 1_555 1_555
C7 S1 1_555 1_555
H9 C7 1_555 1_555
C8 O3 1_555 1_555
H10 C8 1_555 1_555
H11 C8 1_555 1_555
S2 C14 1_555 1_555
O4 C9 1_555 1_555
O5 C13 1_555 1_555
O6 H12 1_555 1_555
N4 C9 1_555 1_555
N5 C9 1_555 1_555
N6 H13 1_555 1_555
H14 N6 1_555 1_555
C10 N5 1_555 1_555
C11 C10 1_555 1_555
H15 C11 1_555 1_555
C12 N4 1_555 1_555
H16 C12 1_555 1_555
C13 N4 1_555 1_555
H17 C13 1_555 1_555
C14 C13 1_555 1_555
H18 C14 1_555 1_555
H19 C14 1_555 1_555
C15 S2 1_555 1_555
H20 C15 1_555 1_555
C16 O6 1_555 1_555
H21 C16 1_555 1_555
H22 C16 1_555 1_555
S3 C22 1_555 1_555
O7 C17 1_555 1_555
O8 C21 1_555 1_555
O9 H23 1_555 1_555
N7 C17 1_555 1_555
N8 C17 1_555 1_555
N9 H24 1_555 1_555
H25 N9 1_555 1_555
C18 N8 1_555 1_555
C19 C18 1_555 1_555
H26 C19 1_555 1_555
C20 N7 1_555 1_555
H27 C20 1_555 1_555
C21 N7 1_555 1_555
H28 C21 1_555 1_555
C22 C21 1_555 1_555
H29 C22 1_555 1_555
H30 C22 1_555 1_555
C23 S3 1_555 1_555
H31 C23 1_555 1_555
C24 O9 1_555 1_555
H32 C24 1_555 1_555
H33 C24 1_555 1_555
S4 C30 1_555 1_555
O10 C25 1_555 1_555
O11 C29 1_555 1_555
O12 H34 1_555 1_555
N10 C25 1_555 1_555
N11 C25 1_555 1_555
N12 H35 1_555 1_555
H36 N12 1_555 1_555
C26 N11 1_555 1_555
C27 C26 1_555 1_555
H37 C27 1_555 1_555
C28 N10 1_555 1_555
H38 C28 1_555 1_555
C29 N10 1_555 1_555
H39 C29 1_555 1_555
C30 C29 1_555 1_555
H40 C30 1_555 1_555
H41 C30 1_555 1_555
C31 S4 1_555 1_555
H42 C31 1_555 1_555
C32 O12 1_555 1_555
H43 C32 1_555 1_555
H44 C32 1_555 1_555
O13 H45 1_555 1_555
H46 O13 1_555 1_555
O14 H47 1_555 1_555
H48 O14 1_555 1_555
O2 C7 1_555 1_555
N3 C2 1_555 1_555
C3 C4 1_555 1_555
C7 C8 1_555 1_555
O5 C15 1_555 1_555
N6 C10 1_555 1_555
C11 C12 1_555 1_555
C15 C16 1_555 1_555
O8 C23 1_555 1_555
N9 C18 1_555 1_555
C19 C20 1_555 1_555
C23 C24 1_555 1_555
O11 C31 1_555 1_555
N12 C26 1_555 1_555
C27 C28 1_555 1_555
C31 C32 1_555 1_555

#END
