
#######################################################################
#
#                 Cambridge Crystallographic Data Centre
#                                CCDC 
#
#######################################################################
#
# If this CIF has been generated from an entry in the Cambridge 
# Structural Database, then it will include bibliographic, chemical, 
# crystal, experimental, refinement or atomic coordinate data resulting 
# from the CCDC's data processing and validation procedures.
#
#######################################################################

data_QUXDEU
_chemical_formula_moiety         'C11 H9 F2 N1 O1'
_chemical_name_systematic        
2,2-Difluoro-1-(1-methyl-1H-indol-3-yl)ethan-1-one
_symmetry_cell_setting           monoclinic
_symmetry_space_group_name_H-M   'P 21/c'
_symmetry_Int_Tables_number      14
_space_group_name_Hall           '-P 2ybc'
loop_
_symmetry_equiv_pos_site_id
_symmetry_equiv_pos_as_xyz
1 x,y,z
2 -x,1/2+y,1/2-z
3 -x,-y,-z
4 x,1/2-y,1/2+z
_cell_length_a                   10.5674(8)
_cell_length_b                   13.5141(12)
_cell_length_c                   16.0142(11)
_cell_angle_alpha                90
_cell_angle_beta                 121.021(5)
_cell_angle_gamma                90
_cell_volume                     1959.88
_exptl_crystal_colour            colorless
_exptl_crystal_description       prism
_cell_formula_units_Z            8
loop_
_atom_site_label
_atom_site_type_symbol
_atom_site_fract_x
_atom_site_fract_y
_atom_site_fract_z
C1 C 0.8836(4) 1.0249(3) 0.3797(2)
C2 C 0.8793(4) 1.1236(3) 0.4025(2)
H1 H 0.9520 1.1697 0.4095
C3 C 0.7660(5) 1.1509(4) 0.4145(3)
H2 H 0.7600 1.2176 0.4309
C4 C 0.6589(5) 1.0841(4) 0.4033(3)
H3 H 0.5808 1.1065 0.4116
C5 C 0.6623(4) 0.9868(3) 0.3808(2)
H4 H 0.5879 0.9418 0.3731
C6 C 0.7792(4) 0.9556(3) 0.3693(2)
C7 C 0.8224(3) 0.8628(3) 0.3469(2)
C8 C 0.9493(3) 0.8821(3) 0.3444(2)
H5 H 1.0031 0.8342 0.3316
C9 C 0.7467(4) 0.7704(3) 0.3272(2)
C10 C 0.8211(4) 0.6795(3) 0.3142(2)
H6 H 0.8890 0.6997 0.2911
C11 C 1.1051(4) 1.0261(3) 0.3599(3)
H7 H 1.1598 0.9769 0.3459
H8 H 1.1715 1.0571 0.4231
H9 H 1.0653 1.0768 0.3089
N1 N 0.9849(3) 0.9780(2) 0.36264(18)
O1 O 0.6272(3) 0.7582(2) 0.32170(18)
F1 F 0.7174(3) 0.6158(2) 0.25016(19)
F2 F 0.8963(3) 0.6317(2) 0.39961(17)
C12 C 0.6012(4) 0.9255(3) 0.1098(2)
C13 C 0.6031(4) 0.8266(3) 0.0875(2)
H10 H 0.5300 0.7815 0.0815
C14 C 0.7187(5) 0.7968(3) 0.0743(2)
H11 H 0.7234 0.7299 0.0578
C15 C 0.8264(5) 0.8629(4) 0.0846(3)
H12 H 0.9041 0.8399 0.0762
C16 C 0.8237(4) 0.9616(3) 0.1069(2)
H13 H 0.8974 1.0064 0.1132
C17 C 0.7086(4) 0.9934(3) 0.1200(2)
C18 C 0.6687(3) 1.0878(3) 0.1432(2)
C19 C 0.5405(3) 1.0713(3) 0.1463(2)
H14 H 0.4890 1.1202 0.1600
C20 C 0.7448(4) 1.1792(3) 0.1609(2)
C21 C 0.6798(4) 1.2714(3) 0.1797(2)
H15 H 0.6030 1.2532 0.1958
C22 C 0.3747(4) 0.9291(3) 0.1258(3)
H16 H 0.3218 0.9790 0.1407
H17 H 0.4097 0.8764 0.1748
H18 H 0.3079 0.9010 0.0612
N2 N 0.5011(3) 0.9752(2) 0.12698(17)
O2 O 0.8607(3) 1.1902(2) 0.1611(2)
F3 F 0.7883(2) 1.32552(18) 0.25188(15)
F4 F 0.6212(2) 1.32966(18) 0.09867(15)
loop_
_geom_bond_atom_site_label_1
_geom_bond_atom_site_label_2
_geom_bond_site_symmetry_1
_geom_bond_site_symmetry_2
C1 C2 1_555 1_555
C2 H1 1_555 1_555
C3 C2 1_555 1_555
H2 C3 1_555 1_555
C4 C3 1_555 1_555
H3 C4 1_555 1_555
C5 C4 1_555 1_555
H4 C5 1_555 1_555
C6 C1 1_555 1_555
C7 C6 1_555 1_555
C8 C7 1_555 1_555
H5 C8 1_555 1_555
C9 C7 1_555 1_555
C10 C9 1_555 1_555
H6 C10 1_555 1_555
C11 H7 1_555 1_555
H8 C11 1_555 1_555
H9 C11 1_555 1_555
N1 C1 1_555 1_555
O1 C9 1_555 1_555
F1 C10 1_555 1_555
F2 C10 1_555 1_555
C12 C13 1_555 1_555
C13 H10 1_555 1_555
C14 C13 1_555 1_555
H11 C14 1_555 1_555
C15 C14 1_555 1_555
H12 C15 1_555 1_555
C16 C15 1_555 1_555
H13 C16 1_555 1_555
C17 C12 1_555 1_555
C18 C17 1_555 1_555
C19 C18 1_555 1_555
H14 C19 1_555 1_555
C20 C18 1_555 1_555
C21 C20 1_555 1_555
H15 C21 1_555 1_555
C22 H16 1_555 1_555
H17 C22 1_555 1_555
H18 C22 1_555 1_555
N2 C12 1_555 1_555
O2 C20 1_555 1_555
F3 C21 1_555 1_555
F4 C21 1_555 1_555
C5 C6 1_555 1_555
C8 N1 1_555 1_555
C11 N1 1_555 1_555
C16 C17 1_555 1_555
C19 N2 1_555 1_555
C22 N2 1_555 1_555

#END
