
#######################################################################
#
#                 Cambridge Crystallographic Data Centre
#                                CCDC 
#
#######################################################################
#
# If this CIF has been generated from an entry in the Cambridge 
# Structural Database, then it will include bibliographic, chemical, 
# crystal, experimental, refinement or atomic coordinate data resulting 
# from the CCDC's data processing and validation procedures.
#
#######################################################################

data_QUXSOT
_chemical_formula_moiety         'C18 H16 I1 N1 O1'
_chemical_name_systematic        
5-(3-iodoprop-1-en-1-yl)-3,5-diphenyl-4,5-dihydro-1,2-oxazole
_symmetry_cell_setting           monoclinic
_symmetry_space_group_name_H-M   'P 21'
_symmetry_Int_Tables_number      4
_space_group_name_Hall           'P 2yb'
loop_
_symmetry_equiv_pos_site_id
_symmetry_equiv_pos_as_xyz
1 x,y,z
2 -x,1/2+y,-z
_cell_length_a                   9.9179(15)
_cell_length_b                   5.7432(7)
_cell_length_c                   14.186(2)
_cell_angle_alpha                90
_cell_angle_beta                 95.817(9)
_cell_angle_gamma                90
_cell_volume                     803.881
_exptl_crystal_colour            'light colorless'
_exptl_crystal_description       block
_cell_formula_units_Z            2
loop_
_atom_site_label
_atom_site_type_symbol
_atom_site_fract_x
_atom_site_fract_y
_atom_site_fract_z
C1 C -0.0327(13) 0.394(2) 0.7251(7)
H1 H -0.0971 0.4634 0.6817
C2 C -0.0571(11) 0.362(2) 0.8108(7)
H2 H 0.0072 0.2918 0.8541
I1 I -0.16327(4) 0.72941(13) 0.93750(3)
C3 C 0.3356(11) 0.4513(14) 0.3380(6)
H3 H 0.3231 0.5782 0.2973
C4 C 0.4461(6) 0.4733(13) 0.9009(4)
H4 H 0.5186 0.5084 0.9454
C5 C 0.3449(7) 0.6278(12) 0.8815(5)
H5 H 0.3480 0.7703 0.9127
C6 C 0.2375(6) 0.5772(10) 0.8162(5)
H6 H 0.1691 0.6872 0.8038
C7 C 0.2277(6) 0.3683(11) 0.7683(4)
C8 C 0.1064(7) 0.3165(11) 0.6946(6)
C9 C 0.1284(7) 0.4265(12) 0.6008(5)
H7 H 0.1873 0.5614 0.6087
H8 H 0.0435 0.4697 0.5651
C10 C 0.1966(4) 0.223(2) 0.5552(3)
C11 C 0.2751(5) 0.2474(15) 0.4738(3)
C12 C 0.2626(8) 0.4338(12) 0.4150(5)
H9 H 0.2031 0.5528 0.4270
C13 C 0.4281(9) 0.2789(17) 0.3212(6)
H10 H 0.4801 0.2912 0.2704
C14 C 0.4409(6) 0.2631(17) 0.8543(4)
H11 H 0.5107 0.1560 0.8670
C15 C 0.3319(6) 0.2096(15) 0.7882(4)
H12 H 0.3290 0.0667 0.7573
O1 O 0.1062(5) 0.0656(9) 0.6735(4)
N1 N 0.1814(6) 0.0335(12) 0.5943(5)
C16 C 0.3672(6) 0.0720(12) 0.4562(4)
H13 H 0.3779 -0.0568 0.4960
C17 C 0.4415(8) 0.0906(15) 0.3803(5)
H14 H 0.5021 -0.0270 0.3687
C18 C -0.1933(6) 0.4387(13) 0.8410(5)
H15 H -0.2352 0.3106 0.8718
H16 H -0.2532 0.4841 0.7857
C19? C -0.003(2) 0.298(4) 0.759(3)
H17? H -0.0103 0.1658 0.7959
C20? C -0.086(3) 0.466(4) 0.762(3)
H18? H -0.0858 0.5950 0.7223
H19? H -0.1778 0.2932 0.8751
H20? H -0.2855 0.4387 0.8106
loop_
_geom_bond_atom_site_label_1
_geom_bond_atom_site_label_2
_geom_bond_site_symmetry_1
_geom_bond_site_symmetry_2
C1 H1 1_555 1_555
C2 C1 1_555 1_555
H2 C2 1_555 1_555
I1 C18 1_555 1_555
C3 H3 1_555 1_555
C4 H4 1_555 1_555
C5 C4 1_555 1_555
H5 C5 1_555 1_555
C6 C5 1_555 1_555
H6 C6 1_555 1_555
C7 C6 1_555 1_555
C8 C1 1_555 1_555
C9 C8 1_555 1_555
H7 C9 1_555 1_555
H8 C9 1_555 1_555
C10 C9 1_555 1_555
C11 C10 1_555 1_555
C12 C3 1_555 1_555
H9 C12 1_555 1_555
C13 C3 1_555 1_555
H10 C13 1_555 1_555
C14 C4 1_555 1_555
H11 C14 1_555 1_555
C15 C7 1_555 1_555
H12 C15 1_555 1_555
O1 C8 1_555 1_555
N1 C10 1_555 1_555
C16 C11 1_555 1_555
H13 C16 1_555 1_555
C17 C13 1_555 1_555
H14 C17 1_555 1_555
C18 C2 1_555 1_555
H15 C18 1_555 1_555
H16 C18 1_555 1_555
C7 C8 1_555 1_555
C11 C12 1_555 1_555
C14 C15 1_555 1_555
O1 N1 1_555 1_555
C16 C17 1_555 1_555

#END
