
#######################################################################
#
#                 Cambridge Crystallographic Data Centre
#                                CCDC 
#
#######################################################################
#
# If this CIF has been generated from an entry in the Cambridge 
# Structural Database, then it will include bibliographic, chemical, 
# crystal, experimental, refinement or atomic coordinate data resulting 
# from the CCDC's data processing and validation procedures.
#
#######################################################################

data_QUYCOE
_chemical_formula_moiety         'C41 H45 N5 O2 S2'
_chemical_name_systematic        
"2-((3',6'-bis(diethylamino)-3-oxospiro[isoindole-1,9'-xanthen]-2(3H)-yl)imino)-2-phenylethyl pyrrolidine-1-carbodithioate"
_symmetry_cell_setting           triclinic
_symmetry_space_group_name_H-M   'P -1'
_symmetry_Int_Tables_number      2
_space_group_name_Hall           '-P 1'
loop_
_symmetry_equiv_pos_site_id
_symmetry_equiv_pos_as_xyz
1 x,y,z
2 -x,-y,-z
_cell_length_a                   12.2930(4)
_cell_length_b                   16.9327(6)
_cell_length_c                   20.6720(7)
_cell_angle_alpha                100.985(2)
_cell_angle_beta                 103.967(2)
_cell_angle_gamma                108.764(2)
_cell_volume                     3781.64
_cell_formula_units_Z            4
loop_
_atom_site_label
_atom_site_type_symbol
_atom_site_fract_x
_atom_site_fract_y
_atom_site_fract_z
S1 S 0.00280(9) 0.71326(5) 0.43898(4)
S2 S -0.13268(16) 0.59510(7) 0.50822(7)
O1 O 0.51736(18) 0.94753(11) 0.57729(10)
N1 N 0.21145(18) 0.91501(13) 0.58137(10)
C1 C 0.4506(2) 0.98039(15) 0.67617(12)
N2 N 0.23619(17) 0.87681(13) 0.63418(10)
C2 C 0.1726(2) 0.86121(16) 0.67954(12)
C3 C 0.3661(2) 0.88716(15) 0.66126(12)
C4 C 0.5192(2) 1.00535(16) 0.63444(13)
C5 C 0.1134(2) 0.87341(15) 0.53006(12)
O2 O 0.07179(16) 0.86224(14) 0.67299(10)
C6 C 0.3636(2) 0.85861(15) 0.72629(12)
C7 C 0.3909(2) 0.82805(15) 0.60716(13)
C8 C 0.2524(2) 0.84418(15) 0.73607(12)
C9 C 0.4587(2) 0.86019(15) 0.56710(13)
C10 C 0.5965(2) 1.09029(17) 0.64677(14)
H1 H 0.6413 1.1038 0.6172
C11 C 0.4600(2) 1.04730(16) 0.73071(14)
H2 H 0.4130 1.0337 0.7592
C12 C 0.6082(2) 1.15607(16) 0.70306(14)
C13 C 0.0957(2) 0.91913(16) 0.47660(12)
C14 C 0.5355(2) 1.13228(17) 0.74414(15)
H3 H 0.5384 1.1748 0.7812
C15 C 0.4738(2) 0.80705(17) 0.51334(13)
H4 H 0.5207 0.8320 0.4878
C16 C 0.0211(2) 0.78502(17) 0.52106(13)
H5 H -0.0558 0.7890 0.5212
H6 H 0.0487 0.7627 0.5590
N3 N -0.1022(3) 0.54731(15) 0.38738(14)
C17 C 0.2275(3) 0.81698(18) 0.79187(14)
H7 H 0.1521 0.8068 0.7979
C18 C -0.0813(3) 0.61013(18) 0.44308(16)
N4 N 0.6884(2) 1.24127(15) 0.71694(14)
C19 C 0.4201(3) 0.71687(18) 0.49691(14)
C20 C 0.3361(3) 0.73820(17) 0.58977(15)
H8 H 0.2882 0.7140 0.6151
C21 C 0.3183(3) 0.80566(19) 0.83800(15)
H9 H 0.3040 0.7872 0.8758
C22 C 0.4544(3) 0.84757(17) 0.77316(14)
H10 H 0.5298 0.8576 0.7672
C23 C 0.1964(3) 0.97735(19) 0.46763(14)
H11 H 0.2741 0.9834 0.4924
C24 C -0.0191(3) 0.90953(18) 0.43782(13)
H12 H -0.0877 0.8692 0.4415
N5 N 0.4350(3) 0.66350(17) 0.44371(14)
C25 C 0.4303(3) 0.8212(2) 0.82930(15)
H13 H 0.4906 0.8138 0.8617
C26 C 0.0684(3) 1.0187(2) 0.38636(15)
H14 H 0.0594 1.0534 0.3572
C27 C 0.3492(3) 0.68313(18) 0.53684(16)
H15 H 0.3108 0.6231 0.5273
C28 C -0.0314(3) 0.9606(2) 0.39318(15)
H16 H -0.1085 0.9549 0.3678
C29 C 0.7793(3) 1.2589(2) 0.68210(19)
H17 H 0.8135 1.3211 0.6880
H18 H 0.7399 1.2296 0.6326
C30 C 0.5162(3) 0.6981(2) 0.40715(16)
H19 H 0.5034 0.7482 0.3961
H20 H 0.4953 0.6543 0.3635
C31 C 0.1819(3) 1.0259(2) 0.42247(16)
H21 H 0.2498 1.0641 0.4164
C32 C -0.0616(4) 0.5573(2) 0.32790(18)
H22 H 0.0264 0.5828 0.3420
H23 H -0.0941 0.5937 0.3051
C33 C 0.7190(5) 1.3058(2) 0.7844(3)
H24 H 0.6659 1.2789 0.8088
H25 H 0.8013 1.3168 0.8118
C34 C -0.1106(5) 0.4659(3) 0.2808(3)
H26 H -0.1669 0.4612 0.2369
H27 H -0.0445 0.4519 0.2711
C35 C 0.3186(14) 0.5493(6) 0.4055(6)
H28 H 0.2478 0.5356 0.4207
H29 H 0.3006 0.5223 0.3563
C36 C 0.8806(3) 1.2303(3) 0.7084(2)
H30 H 0.9371 1.2439 0.6832
H31 H 0.8480 1.1685 0.7015
H32 H 0.9216 1.2600 0.7571
C37 C 0.6487(3) 0.7251(3) 0.4464(2)
H33 H 0.6964 0.7469 0.4185
H34 H 0.6629 0.6757 0.4568
H35 H 0.6712 0.7699 0.4891
C38 C -0.1736(6) 0.4555(2) 0.3773(3)
H36 H -0.2570 0.4462 0.3744
H37 H -0.1386 0.4355 0.4151
C39 C 0.7119(8) 1.3833(4) 0.7841(3)
H38 H 0.7365 1.4191 0.8312
H39 H 0.6298 1.3746 0.7602
H40 H 0.7645 1.4117 0.7607
C40 C -0.1671(9) 0.4103(3) 0.3105(3)
H41 H -0.1244 0.3720 0.3187
H42 H -0.2487 0.3745 0.2790
C41 C 0.4010(9) 0.5518(7) 0.4406(6)
H43 H 0.3923 0.4941 0.4427
H44 H 0.4675 0.5754 0.4241
S3 S 0.95770(7) 0.76578(5) 0.03294(5)
S4 S 1.22775(7) 0.81304(6) 0.07203(5)
O3 O 0.54107(17) 0.64231(11) -0.08146(9)
N6 N 0.78160(18) 0.63819(13) -0.15289(10)
C42 C 0.6202(2) 0.72362(15) -0.07645(12)
C43 C 0.6821(2) 0.73696(15) -0.12371(12)
C44 C 0.6317(2) 0.79040(16) -0.02211(12)
H45 H 0.5889 0.7780 0.0086
C45 C 0.6739(2) 0.66123(15) -0.17900(12)
C46 C 0.8603(2) 0.60562(16) -0.05377(13)
C47 C 0.6972(2) 0.68568(16) -0.24237(13)
C48 C 0.3579(2) 0.43158(16) -0.20878(13)
C49 C 0.5021(2) 0.57694(15) -0.14309(12)
C50 C 0.7065(2) 0.87621(16) -0.01255(12)
N7 N 0.7193(2) 0.94408(14) 0.04146(12)
C51 C 0.4060(2) 0.50309(16) -0.14931(13)
H46 H 0.3726 0.5008 -0.1135
N8 N 0.26265(19) 0.35656(14) -0.21468(12)
C52 C 0.5568(2) 0.58507(15) -0.19383(12)
O4 O 0.93875(19) 0.61948(16) -0.18706(11)
C53 C 0.7573(2) 0.82286(16) -0.11316(14)
H47 H 0.8011 0.8348 -0.1435
C54 C 0.8442(3) 0.54519(18) -0.00978(14)
C55 C 0.8028(2) 0.67779(17) -0.24899(13)
C56 C 0.4083(2) 0.44078(18) -0.26212(14)
H48 H 0.3757 0.3960 -0.3037
C57 C 0.7695(2) 0.89043(17) -0.06013(14)
H49 H 0.8204 0.9468 -0.0555
C58 C 1.1100(2) 0.83052(18) 0.08557(14)
C59 C 0.8533(2) 0.64202(18) -0.19464(14)
C60 C 0.5053(3) 0.51499(17) -0.25399(14)
H50 H 0.5377 0.5184 -0.2901
N9 N 1.1176(2) 0.89495(16) 0.13646(13)
C61 C 0.6314(3) 0.71472(18) -0.28893(13)
H51 H 0.5597 0.7194 -0.2851
C62 C 0.9745(3) 0.68598(19) -0.03044(15)
H52 H 0.9858 0.7073 -0.0697
H53 H 1.0444 0.6733 -0.0099
C63 C 0.7813(3) 0.7306(2) -0.34698(16)
H54 H 0.8092 0.7469 -0.3823
C64 C 0.6600(3) 0.9292(2) 0.09283(15)
H55 H 0.7058 0.9767 0.1355
H56 H 0.6616 0.8759 0.1029
C65 C 0.2286(3) 0.27743(19) -0.27011(17)
H57 H 0.2191 0.2916 -0.3139
H58 H 0.1501 0.2368 -0.2728
C66 C 0.2245(3) 0.34661(19) -0.15441(16)
H59 H 0.1469 0.2977 -0.1701
H60 H 0.2118 0.3985 -0.1351
C67 C 0.7667(3) 1.03413(18) 0.03895(17)
H61 H 0.7216 1.0650 0.0576
H62 H 0.7532 1.0339 -0.0093
C68 C 0.6743(3) 0.7368(2) -0.34178(15)
H63 H 0.6304 0.7560 -0.3741
C69 C 0.9400(3) 0.5537(2) 0.04671(16)
H64 H 1.0149 0.5994 0.0590
C70 C 0.8466(3) 0.7013(2) -0.30167(15)
H65 H 0.9184 0.6969 -0.3056
C71 C 0.7333(3) 0.4784(2) -0.02572(17)
H66 H 0.6675 0.4726 -0.0624
C72 C 1.2346(3) 0.9579(2) 0.18708(17)
H67 H 1.2823 0.9940 0.1647
H68 H 1.2811 0.9283 0.2097
C73 C 0.9241(5) 0.4945(3) 0.08450(19)
H69 H 0.9887 0.5005 0.1221
C74 C 0.3111(4) 0.3321(3) -0.0971(2)
H70 H 0.2782 0.3267 -0.0597
H71 H 0.3879 0.3807 -0.0801
H72 H 0.3223 0.2797 -0.1148
C75 C 1.0152(3) 0.9122(2) 0.1500(2)
H73 H 0.9660 0.8658 0.1644
H74 H 0.9644 0.9187 0.1092
C76 C 0.8991(3) 1.0824(2) 0.0788(2)
H75 H 0.9247 1.1406 0.0749
H76 H 0.9446 1.0529 0.0601
H77 H 0.9130 1.0845 0.1270
C77 C 0.7203(4) 0.4198(2) 0.0132(2)
H78 H 0.6456 0.3743 0.0021
C78 C 0.5319(4) 0.9221(3) 0.0714(2)
H79 H 0.4985 0.9121 0.1079
H80 H 0.4851 0.8743 0.0297
H81 H 0.5293 0.9752 0.0625
C79 C 0.8161(6) 0.4282(3) 0.0677(2)
H82 H 0.8068 0.3881 0.0932
C80 C 0.3165(4) 0.2323(2) -0.2626(2)
H83 H 0.2866 0.1812 -0.3017
H84 H 0.3245 0.2158 -0.2203
H85 H 0.3943 0.2713 -0.2611
C81 C 1.1994(5) 1.0110(3) 0.2381(2)
H86 H 1.2112 0.9943 0.2808
H87 H 1.2498 1.0724 0.2492
C82 C 1.0767(5) 0.9969(4) 0.2085(2)
H88 H 1.0706 1.0448 0.1905
H89 H 1.0369 0.9939 0.2437
N10 N 0.77027(18) 0.58478(13) -0.10885(10)
H90? H 0.4166 0.5883 0.4862
loop_
_geom_bond_atom_site_label_1
_geom_bond_atom_site_label_2
_geom_bond_site_symmetry_1
_geom_bond_site_symmetry_2
S1 C16 1_555 1_555
S2 C18 1_555 1_555
O1 C4 1_555 1_555
N1 N2 1_555 1_555
C1 C3 1_555 1_555
N2 C2 1_555 1_555
C2 O2 1_555 1_555
C3 N2 1_555 1_555
C4 C1 1_555 1_555
C5 N1 1_555 1_555
C6 C3 1_555 1_555
C7 C3 1_555 1_555
C8 C2 1_555 1_555
C9 O1 1_555 1_555
C10 C4 1_555 1_555
H1 C10 1_555 1_555
C11 C1 1_555 1_555
H2 C11 1_555 1_555
C12 C10 1_555 1_555
C13 C5 1_555 1_555
C14 C11 1_555 1_555
H3 C14 1_555 1_555
C15 C9 1_555 1_555
H4 C15 1_555 1_555
C16 C5 1_555 1_555
H5 C16 1_555 1_555
H6 C16 1_555 1_555
N3 C18 1_555 1_555
C17 C8 1_555 1_555
H7 C17 1_555 1_555
C18 S1 1_555 1_555
N4 C12 1_555 1_555
C19 C15 1_555 1_555
C20 C7 1_555 1_555
H8 C20 1_555 1_555
C21 C17 1_555 1_555
H9 C21 1_555 1_555
C22 C6 1_555 1_555
H10 C22 1_555 1_555
C23 C13 1_555 1_555
H11 C23 1_555 1_555
C24 C13 1_555 1_555
H12 C24 1_555 1_555
N5 C19 1_555 1_555
C25 C21 1_555 1_555
H13 C25 1_555 1_555
C26 H14 1_555 1_555
C27 C19 1_555 1_555
H15 C27 1_555 1_555
C28 C24 1_555 1_555
H16 C28 1_555 1_555
C29 N4 1_555 1_555
H17 C29 1_555 1_555
H18 C29 1_555 1_555
C30 N5 1_555 1_555
H19 C30 1_555 1_555
H20 C30 1_555 1_555
C31 C23 1_555 1_555
H21 C31 1_555 1_555
C32 N3 1_555 1_555
H22 C32 1_555 1_555
H23 C32 1_555 1_555
C33 N4 1_555 1_555
H24 C33 1_555 1_555
H25 C33 1_555 1_555
C34 C32 1_555 1_555
H26 C34 1_555 1_555
H27 C34 1_555 1_555
C35 H28 1_555 1_555
H29 C35 1_555 1_555
C36 C29 1_555 1_555
H30 C36 1_555 1_555
H31 C36 1_555 1_555
H32 C36 1_555 1_555
C37 C30 1_555 1_555
H33 C37 1_555 1_555
H34 C37 1_555 1_555
H35 C37 1_555 1_555
C38 N3 1_555 1_555
H36 C38 1_555 1_555
H37 C38 1_555 1_555
C39 C33 1_555 1_555
H38 C39 1_555 1_555
H39 C39 1_555 1_555
H40 C39 1_555 1_555
C40 C34 1_555 1_555
H41 C40 1_555 1_555
H42 C40 1_555 1_555
C41 N5 1_555 1_555
H43 C41 1_555 1_555
H44 C41 1_555 1_555
S3 C58 1_555 1_555
S4 C58 1_555 1_555
O3 C42 1_555 1_555
N6 C45 1_555 1_555
C42 C43 1_555 1_555
C43 C45 1_555 1_555
C44 C42 1_555 1_555
H45 C44 1_555 1_555
C45 C47 1_555 1_555
C46 C54 1_555 1_555
C47 C55 1_555 1_555
C48 C51 1_555 1_555
C49 O3 1_555 1_555
C50 C44 1_555 1_555
N7 C50 1_555 1_555
C51 C49 1_555 1_555
H46 C51 1_555 1_555
N8 C48 1_555 1_555
C52 C45 1_555 1_555
O4 C59 1_555 1_555
C53 C43 1_555 1_555
H47 C53 1_555 1_555
C54 C69 1_555 1_555
C55 C59 1_555 1_555
C56 C48 1_555 1_555
H48 C56 1_555 1_555
C57 C50 1_555 1_555
H49 C57 1_555 1_555
C58 N9 1_555 1_555
C59 N6 1_555 1_555
C60 C52 1_555 1_555
H50 C60 1_555 1_555
N9 C72 1_555 1_555
C61 C47 1_555 1_555
H51 C61 1_555 1_555
C62 S3 1_555 1_555
H52 C62 1_555 1_555
H53 C62 1_555 1_555
C63 H54 1_555 1_555
C64 N7 1_555 1_555
H55 C64 1_555 1_555
H56 C64 1_555 1_555
C65 N8 1_555 1_555
H57 C65 1_555 1_555
H58 C65 1_555 1_555
C66 N8 1_555 1_555
H59 C66 1_555 1_555
H60 C66 1_555 1_555
C67 N7 1_555 1_555
H61 C67 1_555 1_555
H62 C67 1_555 1_555
C68 C61 1_555 1_555
H63 C68 1_555 1_555
C69 H64 1_555 1_555
C70 C55 1_555 1_555
H65 C70 1_555 1_555
C71 C54 1_555 1_555
H66 C71 1_555 1_555
C72 H67 1_555 1_555
H68 C72 1_555 1_555
C73 C69 1_555 1_555
H69 C73 1_555 1_555
C74 C66 1_555 1_555
H70 C74 1_555 1_555
H71 C74 1_555 1_555
H72 C74 1_555 1_555
C75 N9 1_555 1_555
H73 C75 1_555 1_555
H74 C75 1_555 1_555
C76 C67 1_555 1_555
H75 C76 1_555 1_555
H76 C76 1_555 1_555
H77 C76 1_555 1_555
C77 C71 1_555 1_555
H78 C77 1_555 1_555
C78 C64 1_555 1_555
H79 C78 1_555 1_555
H80 C78 1_555 1_555
H81 C78 1_555 1_555
C79 C73 1_555 1_555
H82 C79 1_555 1_555
C80 C65 1_555 1_555
H83 C80 1_555 1_555
H84 C80 1_555 1_555
H85 C80 1_555 1_555
C81 C72 1_555 1_555
H86 C81 1_555 1_555
H87 C81 1_555 1_555
C82 C75 1_555 1_555
H88 C82 1_555 1_555
H89 C82 1_555 1_555
N10 N6 1_555 1_555
C6 C8 1_555 1_555
C7 C9 1_555 1_555
C12 C14 1_555 1_555
C20 C27 1_555 1_555
C22 C25 1_555 1_555
C26 C28 1_555 1_555
C26 C31 1_555 1_555
C35 C41 1_555 1_555
C38 C40 1_555 1_555
C46 C62 1_555 1_555
C46 N10 1_555 1_555
C49 C52 1_555 1_555
C53 C57 1_555 1_555
C56 C60 1_555 1_555
C63 C68 1_555 1_555
C63 C70 1_555 1_555
C77 C79 1_555 1_555
C81 C82 1_555 1_555

#END
