
#######################################################################
#
#                 Cambridge Crystallographic Data Centre
#                                CCDC 
#
#######################################################################
#
# If this CIF has been generated from an entry in the Cambridge 
# Structural Database, then it will include bibliographic, chemical, 
# crystal, experimental, refinement or atomic coordinate data resulting 
# from the CCDC's data processing and validation procedures.
#
#######################################################################

data_QUYDEU
_chemical_formula_moiety         'C23 H26 N2'
_chemical_name_systematic        
2,2',6,6'-Tetraethyl-4,4'-methylenedibenzonitrile
_symmetry_cell_setting           monoclinic
_symmetry_space_group_name_H-M   'C 2/c'
_symmetry_Int_Tables_number      15
_space_group_name_Hall           '-C 2yn'
loop_
_symmetry_equiv_pos_site_id
_symmetry_equiv_pos_as_xyz
1 x,y,z
2 -x,y,1/2-z
3 1/2+x,1/2+y,z
4 1/2-x,1/2+y,1/2-z
5 -x,-y,-z
6 x,-y,1/2+z
7 1/2-x,1/2-y,-z
8 1/2+x,1/2-y,1/2+z
_cell_length_a                   16.016(3)
_cell_length_b                   9.3218(19)
_cell_length_c                   13.977(3)
_cell_angle_alpha                90
_cell_angle_beta                 115.55(3)
_cell_angle_gamma                90
_cell_volume                     1882.67
_exptl_crystal_colour            colorless
_exptl_crystal_description       block
_cell_formula_units_Z            4
loop_
_atom_site_label
_atom_site_type_symbol
_atom_site_fract_x
_atom_site_fract_y
_atom_site_fract_z
C1 C 0.15377(8) 0.06614(13) 0.12294(10)
C2 C 0.17923(8) 0.06280(13) 0.23286(10)
C3 C 0.12805(8) 0.14471(13) 0.27126(10)
H1 H 0.1444 0.1449 0.3437
C4 C 0.05275(8) 0.22672(14) 0.20424(10)
C5 C 0.02799(8) 0.22437(14) 0.09566(10)
H2 H -0.0233 0.2768 0.0504
C6 C 0.07756(8) 0.14604(14) 0.05298(10)
C7 C 0.26297(9) -0.01923(15) 0.30817(10)
H3 H 0.2723 -0.1023 0.2721
H4 H 0.2524 -0.0530 0.3677
C8 C 0.34907(10) 0.07400(17) 0.34864(13)
H5 H 0.3615 0.1031 0.2902
H6 H 0.4008 0.0205 0.3984
H7 H 0.3394 0.1574 0.3829
C9 C 0.20907(9) -0.01286(15) 0.08264(10)
C10 C 0.05135(9) 0.15086(15) -0.06463(10)
H8 H -0.0150 0.1648 -0.1028
H9 H 0.0664 0.0595 -0.0865
C11 C 0.10057(11) 0.26976(19) -0.09430(12)
H10 H 0.0849 0.3607 -0.0742
H11 H 0.0817 0.2684 -0.1695
H12 H 0.1662 0.2554 -0.0580
C12 C 0.0000 0.3165(2) 0.2500
H13 H 0.0432 0.3778 0.3053
N1 N 0.25510(9) -0.07416(14) 0.05233(10)
C1A C -0.15377(8) 0.06614(13) 0.37706(10)
C2A C -0.17923(8) 0.06280(13) 0.26714(10)
C3A C -0.12805(8) 0.14471(13) 0.22874(10)
H1A H -0.1444 0.1449 0.1563
C4A C -0.05275(8) 0.22672(14) 0.29576(10)
C5A C -0.02799(8) 0.22437(14) 0.40434(10)
H2A H 0.0233 0.2768 0.4496
C6A C -0.07756(8) 0.14604(14) 0.44702(10)
C7A C -0.26297(9) -0.01923(15) 0.19183(10)
H3A H -0.2723 -0.1023 0.2279
H4A H -0.2524 -0.0530 0.1323
C8A C -0.34907(10) 0.07400(17) 0.15136(13)
H5A H -0.3615 0.1031 0.2098
H6A H -0.4008 0.0205 0.1016
H7A H -0.3394 0.1574 0.1171
C9A C -0.20907(9) -0.01286(15) 0.41736(10)
C10A C -0.05135(9) 0.15086(15) 0.56463(10)
H8A H 0.0150 0.1648 0.6028
H9A H -0.0664 0.0595 0.5865
C11A C -0.10057(11) 0.26976(19) 0.59430(12)
H10A H -0.0849 0.3607 0.5742
H11A H -0.0817 0.2684 0.6695
H12A H -0.1662 0.2554 0.5580
H13A H -0.0432 0.3778 0.1947
N1A N -0.25510(9) -0.07416(14) 0.44767(10)
loop_
_geom_bond_atom_site_label_1
_geom_bond_atom_site_label_2
_geom_bond_site_symmetry_1
_geom_bond_site_symmetry_2
C1 C2 1_555 1_555
C2 C3 1_555 1_555
C3 H1 1_555 1_555
C4 C3 1_555 1_555
C5 C4 1_555 1_555
H2 C5 1_555 1_555
C6 C1 1_555 1_555
C7 C2 1_555 1_555
H3 C7 1_555 1_555
H4 C7 1_555 1_555
C8 C7 1_555 1_555
H5 C8 1_555 1_555
H6 C8 1_555 1_555
H7 C8 1_555 1_555
C9 C1 1_555 1_555
C10 C6 1_555 1_555
H8 C10 1_555 1_555
H9 C10 1_555 1_555
C11 C10 1_555 1_555
H10 C11 1_555 1_555
H11 C11 1_555 1_555
H12 C11 1_555 1_555
C12 C4 1_555 1_555
H13 C12 1_555 1_555
N1 C9 1_555 1_555
C1A C2A 1_555 1_555
C2A C3A 1_555 1_555
C3A H1A 1_555 1_555
C4A C12 1_555 1_555
C5A C4A 1_555 1_555
H2A C5A 1_555 1_555
C6A C1A 1_555 1_555
C7A C2A 1_555 1_555
H3A C7A 1_555 1_555
H4A C7A 1_555 1_555
C8A C7A 1_555 1_555
H5A C8A 1_555 1_555
H6A C8A 1_555 1_555
H7A C8A 1_555 1_555
C9A C1A 1_555 1_555
C10A C6A 1_555 1_555
H8A C10A 1_555 1_555
H9A C10A 1_555 1_555
C11A C10A 1_555 1_555
H10A C11A 1_555 1_555
H11A C11A 1_555 1_555
H12A C11A 1_555 1_555
H13A C12 1_555 1_555
N1A C9A 1_555 1_555
C5 C6 1_555 1_555
C3A C4A 1_555 1_555
C5A C6A 1_555 1_555

#END
