
#######################################################################
#
#                 Cambridge Crystallographic Data Centre
#                                CCDC 
#
#######################################################################
#
# If this CIF has been generated from an entry in the Cambridge 
# Structural Database, then it will include bibliographic, chemical, 
# crystal, experimental, refinement or atomic coordinate data resulting 
# from the CCDC's data processing and validation procedures.
#
#######################################################################

data_QUYGAU
_chemical_formula_moiety         'C44 H30 N4,3(C4 H10 O1)'
_chemical_name_systematic        
"2,2'-anthracene-9,10-diylbis(4,5-diphenyl-1H-imidazole) 2-methylpropan-1-ol unknown solvate"
_symmetry_cell_setting           triclinic
_symmetry_space_group_name_H-M   'P -1'
_symmetry_Int_Tables_number      2
_space_group_name_Hall           '-P 1'
loop_
_symmetry_equiv_pos_site_id
_symmetry_equiv_pos_as_xyz
1 x,y,z
2 -x,-y,-z
_cell_length_a                   12.7396(17)
_cell_length_b                   14.098(2)
_cell_length_c                   19.472(3)
_cell_angle_alpha                85.393(2)
_cell_angle_beta                 75.811(2)
_cell_angle_gamma                66.698(2)
_cell_volume                     3113.43
_exptl_crystal_colour            colorless
_exptl_crystal_description       block
_cell_formula_units_Z            2
loop_
_atom_site_label
_atom_site_type_symbol
_atom_site_fract_x
_atom_site_fract_y
_atom_site_fract_z
N1 N 0.6792(2) 1.0460(2) 0.08650(13)
N2 N 0.7617(2) 0.8940(2) 0.03289(14)
H1 H 0.8147 0.8401 0.0083
C1 C 0.8908(3) 0.9910(2) 0.02315(16)
C2 C 0.9372(3) 0.9969(3) -0.04993(16)
C3 C 0.8736(3) 0.9989(3) -0.10143(18)
H2 H 0.8005 0.9929 -0.0868
C4 C 0.9172(3) 1.0095(4) -0.1714(2)
H3 H 0.8734 1.0119 -0.2044
C5 C 1.0268(3) 1.0169(3) -0.19468(19)
H4 H 1.0569 1.0229 -0.2432
C6 C 1.0895(3) 1.0153(3) -0.14701(17)
H5 H 1.1630 1.0201 -0.1634
C7 C 1.0477(2) 1.0067(2) -0.07360(16)
C8 C 0.7776(3) 0.9774(3) 0.04727(16)
C9 C 0.5966(3) 1.0013(3) 0.09819(16)
C10 C 0.6470(3) 0.9074(3) 0.06354(16)
C11 C 0.4792(3) 1.0565(3) 0.14306(16)
C12 C 0.4228(3) 1.0016(3) 0.19181(16)
H6 H 0.4589 0.9294 0.1947
C13 C 0.3132(3) 1.0560(3) 0.23522(18)
H7 H 0.2762 1.0194 0.2678
C14 C 0.2581(3) 1.1592(4) 0.2323(2)
H8 H 0.1831 1.1937 0.2616
C15 C 0.3139(4) 1.2144(4) 0.1851(2)
H9 H 0.2781 1.2868 0.1837
C16 C 0.4217(3) 1.1620(3) 0.1407(2)
H10 H 0.4571 1.1995 0.1078
C17 C 0.6030(3) 0.8289(3) 0.05476(17)
C18 C 0.4876(3) 0.8557(3) 0.05120(17)
H11 H 0.4377 0.9260 0.0534
C19 C 0.4435(4) 0.7839(4) 0.0446(2)
H12 H 0.3635 0.8048 0.0450
C20 C 0.5155(4) 0.6820(4) 0.0373(2)
H13 H 0.4858 0.6325 0.0318
C21 C 0.6338(4) 0.6514(4) 0.0380(3)
H14 H 0.6847 0.5813 0.0325
C22 C 0.6749(3) 0.7263(3) 0.0468(2)
H15 H 0.7545 0.7060 0.0474
N1A N 1.3208(2) 0.9540(2) -0.08650(13)
N2A N 1.2383(2) 1.1060(2) -0.03289(14)
H1A H 1.1853 1.1599 -0.0083
C1A C 1.1092(3) 1.0090(2) -0.02315(16)
C2A C 1.0628(3) 1.0031(3) 0.04993(16)
C3A C 1.1264(3) 1.0011(3) 0.10143(18)
H2A H 1.1995 1.0071 0.0868
C4A C 1.0828(3) 0.9905(4) 0.1714(2)
H3A H 1.1266 0.9881 0.2044
C5A C 0.9732(3) 0.9831(3) 0.19468(19)
H4A H 0.9431 0.9771 0.2432
C6A C 0.9105(3) 0.9847(3) 0.14701(17)
H5A H 0.8370 0.9799 0.1634
C7A C 0.9523(2) 0.9933(2) 0.07360(16)
C8A C 1.2224(3) 1.0226(3) -0.04727(16)
C9A C 1.4034(3) 0.9987(3) -0.09819(16)
C10A C 1.3530(3) 1.0926(3) -0.06354(16)
C11A C 1.5208(3) 0.9435(3) -0.14306(16)
C12A C 1.5772(3) 0.9984(3) -0.19181(16)
H6A H 1.5411 1.0706 -0.1947
C13A C 1.6868(3) 0.9440(3) -0.23522(18)
H7A H 1.7238 0.9806 -0.2678
C14A C 1.7419(3) 0.8408(4) -0.2323(2)
H8A H 1.8169 0.8063 -0.2616
C15A C 1.6861(4) 0.7856(4) -0.1851(2)
H9A H 1.7219 0.7132 -0.1837
C16A C 1.5783(3) 0.8380(3) -0.1407(2)
H10A H 1.5429 0.8005 -0.1078
C17A C 1.3970(3) 1.1711(3) -0.05476(17)
C18A C 1.5124(3) 1.1443(3) -0.05120(17)
H11A H 1.5623 1.0740 -0.0534
C19A C 1.5565(4) 1.2161(4) -0.0446(2)
H12A H 1.6365 1.1952 -0.0450
C20A C 1.4845(4) 1.3180(4) -0.0373(2)
H13A H 1.5142 1.3675 -0.0318
C21A C 1.3662(4) 1.3486(4) -0.0380(3)
H14A H 1.3153 1.4187 -0.0325
C22A C 1.3251(3) 1.2737(3) -0.0468(2)
H15A H 1.2455 1.2940 -0.0474
N3 N 0.2068(2) 0.0998(2) 0.44800(14)
H16 H 0.1972 0.1612 0.4602
N4 N 0.2845(2) -0.0702(2) 0.43164(15)
C23 C 0.4010(3) 0.0056(3) 0.47744(17)
C24 C 0.4138(3) -0.0300(3) 0.54526(18)
C25 C 0.3282(3) -0.0611(3) 0.5929(2)
H17 H 0.2619 -0.0586 0.5786
C26 C 0.3427(4) -0.0940(4) 0.6585(2)
H18 H 0.2876 -0.1167 0.6885
C27 C 0.4371(4) -0.0948(4) 0.6827(2)
H19 H 0.4421 -0.1133 0.7296
C28 C 0.5214(3) -0.0693(3) 0.6391(2)
H20 H 0.5863 -0.0726 0.6555
C29 C 0.5137(3) -0.0371(3) 0.56809(17)
C30 C 0.2977(3) 0.0113(3) 0.45147(18)
C31 C 0.1304(3) 0.0732(3) 0.42079(16)
C32 C 0.1774(3) -0.0319(3) 0.41141(17)
C33 C 0.0231(3) 0.1551(3) 0.40616(17)
C34 C -0.0172(3) 0.1494(3) 0.34664(19)
H21 H 0.0244 0.0911 0.3163
C35 C -0.1141(4) 0.2245(4) 0.3310(2)
H22 H -0.1381 0.2189 0.2901
C36 C -0.1779(5) 0.3109(4) 0.3765(3)
H23 H -0.2471 0.3624 0.3676
C37 C -0.1378(5) 0.3192(4) 0.4347(3)
H24 H -0.1777 0.3789 0.4638
C38 C -0.0421(4) 0.2428(4) 0.4506(2)
H25 H -0.0190 0.2486 0.4918
C39 C 0.1360(3) -0.1038(3) 0.38664(19)
C40 C 0.0182(3) -0.0847(3) 0.39870(19)
H26 H -0.0370 -0.0239 0.4233
C41 C -0.0211(4) -0.1507(4) 0.3763(2)
H27 H -0.1020 -0.1360 0.3862
C42 C 0.0560(5) -0.2366(4) 0.3399(3)
H28 H 0.0293 -0.2826 0.3244
C43 C 0.1746(6) -0.2578(5) 0.3252(4)
H29 H 0.2285 -0.3158 0.2971
C44 C 0.2147(4) -0.1924(4) 0.3525(3)
H30 H 0.2957 -0.2102 0.3470
N3A N 0.7932(2) -0.0998(2) 0.55200(14)
H16A H 0.8028 -0.1612 0.5398
N4A N 0.7155(2) 0.0702(2) 0.56836(15)
C23A C 0.5990(3) -0.0056(3) 0.52256(17)
C24A C 0.5862(3) 0.0300(3) 0.45474(18)
C25A C 0.6718(3) 0.0611(3) 0.4071(2)
H17A H 0.7381 0.0586 0.4214
C26A C 0.6573(4) 0.0940(4) 0.3415(2)
H18A H 0.7124 0.1167 0.3115
C27A C 0.5629(4) 0.0948(4) 0.3173(2)
H19A H 0.5579 0.1133 0.2704
C28A C 0.4786(3) 0.0693(3) 0.3609(2)
H20A H 0.4137 0.0726 0.3445
C29A C 0.4863(3) 0.0371(3) 0.43191(17)
C30A C 0.7023(3) -0.0113(3) 0.54853(18)
C31A C 0.8696(3) -0.0732(3) 0.57921(16)
C32A C 0.8226(3) 0.0319(3) 0.58859(17)
C33A C 0.9769(3) -0.1551(3) 0.59384(17)
C34A C 1.0172(3) -0.1494(3) 0.65336(19)
H21A H 0.9756 -0.0911 0.6837
C35A C 1.1141(4) -0.2245(4) 0.6690(2)
H22A H 1.1381 -0.2189 0.7099
C36A C 1.1779(5) -0.3109(4) 0.6235(3)
H23A H 1.2471 -0.3624 0.6324
C37A C 1.1378(5) -0.3192(4) 0.5653(3)
H24A H 1.1777 -0.3789 0.5362
C38A C 1.0421(4) -0.2428(4) 0.5494(2)
H25A H 1.0190 -0.2486 0.5082
C39A C 0.8640(3) 0.1038(3) 0.61336(19)
C40A C 0.9818(3) 0.0847(3) 0.60130(19)
H26A H 1.0370 0.0239 0.5767
C41A C 1.0211(4) 0.1507(4) 0.6237(2)
H27A H 1.1020 0.1360 0.6138
C42A C 0.9440(5) 0.2366(4) 0.6601(3)
H28A H 0.9707 0.2826 0.6756
C43A C 0.8254(6) 0.2578(5) 0.6748(4)
H29A H 0.7715 0.3158 0.7029
C44A C 0.7853(4) 0.1924(4) 0.6475(3)
H30A H 0.7043 0.2102 0.6530
C45 C 1.0266(5) 0.2917(4) 0.1115(3)
H31 H 1.0970 0.2482 0.1281
H32 H 0.9618 0.2729 0.1378
C46 C 0.9991(6) 0.3975(4) 0.1278(3)
H33 H 1.0725 0.4078 0.1059
C47 C 0.9103(5) 0.4769(4) 0.0966(3)
H34 H 0.9461 0.4897 0.0487
H35 H 0.8773 0.5401 0.1248
H36 H 0.8484 0.4537 0.0956
C48 C 0.9825(6) 0.4132(5) 0.2062(3)
H37 H 0.9147 0.3994 0.2321
H38 H 0.9701 0.4839 0.2154
H39 H 1.0520 0.3663 0.2213
O1 O 1.0464(3) 0.2697(3) 0.03893(17)
H40 H 0.9938 0.2530 0.0326
C49 C 0.8002(8) 0.3272(8) 0.9594(5)
H41 H 0.7271 0.3825 0.9831
H42 H 0.7773 0.2810 0.9369
C50 C 0.8575(7) 0.3745(7) 0.9032(4)
H43 H 0.8800 0.4179 0.9295
C51 C 0.7891(10) 0.4506(9) 0.8578(6)
H44 H 0.7616 0.4162 0.8292
H45 H 0.8385 0.4818 0.8271
H46 H 0.7222 0.5037 0.8873
C52 C 0.9724(7) 0.3014(7) 0.8648(5)
H47 H 1.0056 0.2467 0.8962
H48 H 1.0247 0.3374 0.8481
H49 H 0.9627 0.2719 0.8246
O2 O 0.8499(3) 0.2739(3) 1.01008(19)
H50 H 0.7990 0.2823 1.0476
C53 C 0.1503(8) 0.3764(6) 0.4625(4)
H51 H 0.1722 0.4272 0.4804
H52 H 0.0657 0.3958 0.4815
C54 C 0.1733(12) 0.3822(7) 0.3847(4)
H53 H 0.1633 0.3233 0.3666
C55 C 0.2710(13) 0.4003(11) 0.3329(9)
H54 H 0.2455 0.4729 0.3211
H55 H 0.2927 0.3592 0.2902
H56 H 0.3384 0.3807 0.3536
C56 C 0.0671(19) 0.4808(13) 0.3774(12)
H57 H 0.0000 0.4850 0.4155
H58 H 0.0484 0.4790 0.3322
H59 H 0.0857 0.5407 0.3798
O3 O 0.2087(3) 0.2815(3) 0.4879(2)
H60 H 0.2668 0.2817 0.4999
loop_
_geom_bond_atom_site_label_1
_geom_bond_atom_site_label_2
_geom_bond_site_symmetry_1
_geom_bond_site_symmetry_2
N1 C8 1_555 1_555
N2 H1 1_555 1_555
C1 C2 1_555 1_555
C2 C3 1_555 1_555
C3 H2 1_555 1_555
C4 C3 1_555 1_555
H3 C4 1_555 1_555
C5 C4 1_555 1_555
H4 C5 1_555 1_555
C6 C5 1_555 1_555
H5 C6 1_555 1_555
C7 C2 1_555 1_555
C8 N2 1_555 1_555
C9 N1 1_555 1_555
C10 N2 1_555 1_555
C11 C9 1_555 1_555
C12 C11 1_555 1_555
H6 C12 1_555 1_555
C13 C12 1_555 1_555
H7 C13 1_555 1_555
C14 C13 1_555 1_555
H8 C14 1_555 1_555
C15 C14 1_555 1_555
H9 C15 1_555 1_555
C16 C11 1_555 1_555
H10 C16 1_555 1_555
C17 C10 1_555 1_555
C18 C17 1_555 1_555
H11 C18 1_555 1_555
C19 C18 1_555 1_555
H12 C19 1_555 1_555
C20 C19 1_555 1_555
H13 C20 1_555 1_555
C21 C20 1_555 1_555
H14 C21 1_555 1_555
C22 C17 1_555 1_555
H15 C22 1_555 1_555
N3 H16 1_555 1_555
N4 C30 1_555 1_555
C23 C24 1_555 1_555
C24 C25 1_555 1_555
C25 H17 1_555 1_555
C26 C25 1_555 1_555
H18 C26 1_555 1_555
C27 C26 1_555 1_555
H19 C27 1_555 1_555
C28 C27 1_555 1_555
H20 C28 1_555 1_555
C29 C24 1_555 1_555
C30 N3 1_555 1_555
C31 N3 1_555 1_555
C32 N4 1_555 1_555
C33 C31 1_555 1_555
C34 C33 1_555 1_555
H21 C34 1_555 1_555
C35 C34 1_555 1_555
H22 C35 1_555 1_555
C36 C35 1_555 1_555
H23 C36 1_555 1_555
C37 C36 1_555 1_555
H24 C37 1_555 1_555
C38 C33 1_555 1_555
H25 C38 1_555 1_555
C39 C32 1_555 1_555
C40 C39 1_555 1_555
H26 C40 1_555 1_555
C41 C40 1_555 1_555
H27 C41 1_555 1_555
C42 C41 1_555 1_555
H28 C42 1_555 1_555
C43 C42 1_555 1_555
H29 C43 1_555 1_555
C44 C39 1_555 1_555
H30 C44 1_555 1_555
C45 H31 1_555 1_555
H32 C45 1_555 1_555
C46 C45 1_555 1_555
H33 C46 1_555 1_555
C47 C46 1_555 1_555
H34 C47 1_555 1_555
H35 C47 1_555 1_555
H36 C47 1_555 1_555
C48 C46 1_555 1_555
H37 C48 1_555 1_555
H38 C48 1_555 1_555
H39 C48 1_555 1_555
O1 C45 1_555 1_555
H40 O1 1_555 1_555
C49 H41 1_555 1_555
H42 C49 1_555 1_555
C50 C49 1_555 1_555
H43 C50 1_555 1_555
C51 C50 1_555 1_555
H44 C51 1_555 1_555
H45 C51 1_555 1_555
H46 C51 1_555 1_555
C52 C50 1_555 1_555
H47 C52 1_555 1_555
H48 C52 1_555 1_555
H49 C52 1_555 1_555
O2 C49 1_555 1_555
H50 O2 1_555 1_555
C53 H51 1_555 1_555
H52 C53 1_555 1_555
C54 C53 1_555 1_555
H53 C54 1_555 1_555
C55 C54 1_555 1_555
H54 C55 1_555 1_555
H55 C55 1_555 1_555
H56 C55 1_555 1_555
C56 C54 1_555 1_555
H57 C56 1_555 1_555
H58 C56 1_555 1_555
H59 C56 1_555 1_555
O3 C53 1_555 1_555
H60 O3 1_555 1_555
N1A C8A 1_555 1_555
N2A H1A 1_555 1_555
C1A C7 1_555 1_555
C2A C1A 1_555 1_555
C3A C2A 1_555 1_555
H2A C3A 1_555 1_555
C4A C3A 1_555 1_555
H3A C4A 1_555 1_555
C5A C4A 1_555 1_555
H4A C5A 1_555 1_555
C6A C5A 1_555 1_555
H5A C6A 1_555 1_555
C7A C1 1_555 1_555
C8A N2A 1_555 1_555
C9A N1A 1_555 1_555
C10A N2A 1_555 1_555
C11A C9A 1_555 1_555
C12A C11A 1_555 1_555
H6A C12A 1_555 1_555
C13A C12A 1_555 1_555
H7A C13A 1_555 1_555
C14A C13A 1_555 1_555
H8A C14A 1_555 1_555
C15A C14A 1_555 1_555
H9A C15A 1_555 1_555
C16A C11A 1_555 1_555
H10A C16A 1_555 1_555
C17A C10A 1_555 1_555
C18A C17A 1_555 1_555
H11A C18A 1_555 1_555
C19A C18A 1_555 1_555
H12A C19A 1_555 1_555
C20A C19A 1_555 1_555
H13A C20A 1_555 1_555
C21A C20A 1_555 1_555
H14A C21A 1_555 1_555
C22A C17A 1_555 1_555
H15A C22A 1_555 1_555
N3A H16A 1_555 1_555
N4A C30A 1_555 1_555
C23A C29 1_555 1_555
C24A C23A 1_555 1_555
C25A C24A 1_555 1_555
H17A C25A 1_555 1_555
C26A C25A 1_555 1_555
H18A C26A 1_555 1_555
C27A C26A 1_555 1_555
H19A C27A 1_555 1_555
C28A C27A 1_555 1_555
H20A C28A 1_555 1_555
C29A C23 1_555 1_555
C30A N3A 1_555 1_555
C31A N3A 1_555 1_555
C32A N4A 1_555 1_555
C33A C31A 1_555 1_555
C34A C33A 1_555 1_555
H21A C34A 1_555 1_555
C35A C34A 1_555 1_555
H22A C35A 1_555 1_555
C36A C35A 1_555 1_555
H23A C36A 1_555 1_555
C37A C36A 1_555 1_555
H24A C37A 1_555 1_555
C38A C33A 1_555 1_555
H25A C38A 1_555 1_555
C39A C32A 1_555 1_555
C40A C39A 1_555 1_555
H26A C40A 1_555 1_555
C41A C40A 1_555 1_555
H27A C41A 1_555 1_555
C42A C41A 1_555 1_555
H28A C42A 1_555 1_555
C43A C42A 1_555 1_555
H29A C43A 1_555 1_555
C44A C39A 1_555 1_555
H30A C44A 1_555 1_555
C1 C8 1_555 1_555
C6 C7 1_555 1_555
C9 C10 1_555 1_555
C15 C16 1_555 1_555
C21 C22 1_555 1_555
C23 C30 1_555 1_555
C28 C29 1_555 1_555
C31 C32 1_555 1_555
C37 C38 1_555 1_555
C43 C44 1_555 1_555
C1A C8A 1_555 1_555
C2A C7A 1_555 1_555
C6A C7A 1_555 1_555
C9A C10A 1_555 1_555
C15A C16A 1_555 1_555
C21A C22A 1_555 1_555
C23A C30A 1_555 1_555
C24A C29A 1_555 1_555
C28A C29A 1_555 1_555
C31A C32A 1_555 1_555
C37A C38A 1_555 1_555
C43A C44A 1_555 1_555

#END
