
#######################################################################
#
#                 Cambridge Crystallographic Data Centre
#                                CCDC 
#
#######################################################################
#
# If this CIF has been generated from an entry in the Cambridge 
# Structural Database, then it will include bibliographic, chemical, 
# crystal, experimental, refinement or atomic coordinate data resulting 
# from the CCDC's data processing and validation procedures.
#
#######################################################################

data_QUYHEY
_chemical_formula_moiety         'C19 H14 Cl1 N3 O1'
_chemical_name_systematic        
3-((2-Chloro-6-methylquinolin-3-yl)methyl)quinazolin-4(3H)-one
_symmetry_cell_setting           monoclinic
_symmetry_space_group_name_H-M   'P 21/c'
_symmetry_Int_Tables_number      14
_space_group_name_Hall           '-P 2ybc'
loop_
_symmetry_equiv_pos_site_id
_symmetry_equiv_pos_as_xyz
1 x,y,z
2 -x,1/2+y,1/2-z
3 -x,-y,-z
4 x,1/2-y,1/2+z
_cell_length_a                   7.86728(14)
_cell_length_b                   14.7098(3)
_cell_length_c                   13.7055(3)
_cell_angle_alpha                90
_cell_angle_beta                 102.1500(17)
_cell_angle_gamma                90
_cell_volume                     1550.56
_exptl_crystal_colour            colorless
_exptl_crystal_description       needle
_cell_formula_units_Z            4
_exptl_crystal_recrystallization_method 'diethyl ether'
loop_
_atom_site_label
_atom_site_type_symbol
_atom_site_fract_x
_atom_site_fract_y
_atom_site_fract_z
Cl1 Cl 1.05099(5) 0.28142(3) 1.12633(3)
O1 O 0.60460(15) 0.24457(8) 0.79970(8)
N1 N 0.90795(14) 0.12379(9) 1.13506(8)
N2 N 0.82439(14) 0.32871(8) 0.89095(8)
N3 N 0.79403(17) 0.48498(9) 0.92418(9)
C1 C 0.94294(18) 0.18353(10) 1.07237(11)
C2 C 0.90272(18) 0.17726(10) 0.96669(10)
C3 C 0.82067(18) 0.09933(10) 0.92894(10)
C4 C 0.77799(17) 0.03094(10) 0.99195(10)
C5 C 0.69103(18) -0.05001(10) 0.95563(11)
C6 C 0.64859(18) -0.11435(10) 1.01883(11)
C7 C 0.6946(2) -0.09747(11) 1.12254(11)
C8 C 0.77957(19) -0.02054(11) 1.16013(11)
C9 C 0.82367(17) 0.04583(10) 1.09569(10)
C10 C 0.5554(2) -0.20015(11) 0.97943(13)
C11 C 0.9436(2) 0.25093(11) 0.89857(12)
C12 C 0.65169(19) 0.31653(10) 0.84072(10)
C13 C 0.54199(18) 0.39518(10) 0.84513(10)
C14 C 0.3617(2) 0.38997(12) 0.80976(11)
C15 C 0.2604(2) 0.46424(15) 0.81376(12)
C16 C 0.3351(3) 0.54611(15) 0.85043(13)
C17 C 0.5113(2) 0.55297(12) 0.88491(12)
C18 C 0.61654(19) 0.47690(10) 0.88456(10)
C19 C 0.88460(19) 0.41208(11) 0.92637(11)
H1 H 0.79220 0.09100 0.86020
H2 H 0.66180 -0.06000 0.88710
H3 H 0.66590 -0.14020 1.16640
H4 H 0.80880 -0.01170 1.22880
H5 H 0.44010 -0.19950 0.99230
H6 H 0.61780 -0.25170 1.01190
H7 H 0.54880 -0.20420 0.90880
H8 H 1.06170 0.27200 0.92330
H9 H 0.93730 0.22560 0.83250
H10 H 0.31130 0.33570 0.78350
H11 H 0.14040 0.46010 0.79180
H12 H 0.26500 0.59680 0.85160
H13 H 0.56050 0.60830 0.90850
H14 H 1.00250 0.41650 0.95480
loop_
_geom_bond_atom_site_label_1
_geom_bond_atom_site_label_2
_geom_bond_site_symmetry_1
_geom_bond_site_symmetry_2
Cl1 C1 1_555 1_555
O1 C12 1_555 1_555
N1 C1 1_555 1_555
N2 C11 1_555 1_555
N3 C18 1_555 1_555
C1 C2 1_555 1_555
C2 C3 1_555 1_555
C3 C4 1_555 1_555
C4 C5 1_555 1_555
C5 C6 1_555 1_555
C6 C7 1_555 1_555
C7 C8 1_555 1_555
C8 C9 1_555 1_555
C9 N1 1_555 1_555
C10 C6 1_555 1_555
C11 C2 1_555 1_555
C12 N2 1_555 1_555
C13 C12 1_555 1_555
C14 C13 1_555 1_555
C15 C14 1_555 1_555
C16 C15 1_555 1_555
C17 C16 1_555 1_555
C18 C13 1_555 1_555
C19 N2 1_555 1_555
H1 C3 1_555 1_555
H2 C5 1_555 1_555
H3 C7 1_555 1_555
H4 C8 1_555 1_555
H5 C10 1_555 1_555
H6 C10 1_555 1_555
H7 C10 1_555 1_555
H8 C11 1_555 1_555
H9 C11 1_555 1_555
H10 C14 1_555 1_555
H11 C15 1_555 1_555
H12 C16 1_555 1_555
H13 C17 1_555 1_555
H14 C19 1_555 1_555
N3 C19 1_555 1_555
C4 C9 1_555 1_555
C17 C18 1_555 1_555

#END
