
#######################################################################
#
#                 Cambridge Crystallographic Data Centre
#                                CCDC 
#
#######################################################################
#
# If this CIF has been generated from an entry in the Cambridge 
# Structural Database, then it will include bibliographic, chemical, 
# crystal, experimental, refinement or atomic coordinate data resulting 
# from the CCDC's data processing and validation procedures.
#
#######################################################################

data_QUYMON
_chemical_name_common            
(5S*,6R*,7R*)-6-Formyl-5-phenyl-7-propylperhydropyrazolo[1,2-a]pyrazol-1-one
_chemical_formula_moiety         'C16 H20 N2 O2'
_chemical_name_systematic        
5-Oxo-1-phenyl-3-propyltetrahydro-1H,5H-pyrazolo[1,2-a]pyrazole-2-carbaldehyde
_symmetry_cell_setting           triclinic
_symmetry_space_group_name_H-M   'P -1'
_symmetry_Int_Tables_number      2
_space_group_name_Hall           '-P 1'
loop_
_symmetry_equiv_pos_site_id
_symmetry_equiv_pos_as_xyz
1 x,y,z
2 -x,-y,-z
_cell_length_a                   8.557(2)
_cell_length_b                   13.839(3)
_cell_length_c                   13.905(3)
_cell_angle_alpha                60.50(3)
_cell_angle_beta                 81.12(3)
_cell_angle_gamma                81.22(3)
_cell_volume                     1410.35
_exptl_crystal_colour            colorless
_exptl_crystal_description       block
_cell_formula_units_Z            4
loop_
_atom_site_label
_atom_site_type_symbol
_atom_site_fract_x
_atom_site_fract_y
_atom_site_fract_z
O1 O -0.36894(19) 0.16690(15) 0.55617(16)
O2 O 0.24237(17) 0.28648(12) 0.22370(13)
N1 N 0.1158(2) 0.12298(14) 0.50583(15)
N2 N 0.1077(2) 0.21896(14) 0.39611(15)
C1 C -0.0489(3) 0.11013(18) 0.77713(19)
H1 H -0.0366 0.1841 0.7601
C2 C -0.0993(3) 0.03419(19) 0.8840(2)
H2 H -0.1221 0.0562 0.9398
C3 C -0.1168(3) -0.07422(19) 0.9102(2)
H3 H -0.1509 -0.1267 0.9839
C4 C -0.0848(3) -0.10551(18) 0.82884(19)
H4 H -0.0969 -0.1797 0.8465
C5 C -0.0344(2) -0.02851(18) 0.72022(19)
H5 H -0.0127 -0.0506 0.6644
C6 C -0.0159(2) 0.07985(17) 0.69382(18)
C7 C 0.0306(2) 0.16824(17) 0.57711(18)
H6 H 0.0978 0.2198 0.5799
C8 C -0.1124(2) 0.23707(18) 0.50937(18)
H7 H -0.1631 0.2930 0.5330
C9 C -0.0349(2) 0.29584(17) 0.38872(18)
H8 H -0.1057 0.2980 0.3367
C10 C 0.0068(2) 0.41278(17) 0.35206(19)
H9 H 0.0558 0.4121 0.4124
H10 H 0.0859 0.4357 0.2865
C11 C -0.1376(3) 0.49711(18) 0.3231(2)
H11 H -0.2220 0.4689 0.3851
H12 H -0.1782 0.5047 0.2566
C12 C -0.1025(3) 0.61126(19) 0.3005(2)
H13 H -0.0638 0.6046 0.3665
H14 H -0.1997 0.6620 0.2829
H15 H -0.0213 0.6407 0.2377
C13 C 0.2890(2) 0.09474(19) 0.51073(19)
H16 H 0.3143 0.0149 0.5629
H17 H 0.3364 0.1406 0.5333
C14 C 0.3474(2) 0.12225(18) 0.39071(19)
H18 H 0.4576 0.1439 0.3714
H19 H 0.3424 0.0582 0.3784
C15 C 0.2308(2) 0.22009(18) 0.32376(18)
C16 C -0.2324(3) 0.16164(19) 0.52082(19)
H20 H -0.1977 0.1064 0.4986
O3 O 0.75718(19) 0.66942(15) 0.05764(16)
O4 O 0.25782(17) 0.78835(12) -0.27499(13)
N3 N 0.3203(2) 0.62734(14) 0.00751(15)
N4 N 0.3364(2) 0.72338(14) -0.10197(15)
C17 C 0.3464(3) 0.60910(19) 0.28130(19)
H21 H 0.3053 0.6826 0.2658
C18 C 0.3752(3) 0.5307(2) 0.3887(2)
H22 H 0.3545 0.5504 0.4462
C19 C 0.4346(3) 0.42289(19) 0.4124(2)
H23 H 0.4535 0.3684 0.4863
C20 C 0.4659(3) 0.39539(19) 0.3285(2)
H24 H 0.5075 0.3218 0.3446
C21 C 0.4371(2) 0.47424(18) 0.22027(19)
H25 H 0.4589 0.4543 0.1629
C22 C 0.3764(2) 0.58269(18) 0.19570(19)
C23 C 0.3467(2) 0.67224(18) 0.07920(18)
H26 H 0.2526 0.7237 0.0820
C24 C 0.4902(2) 0.74133(18) 0.01171(18)
H27 H 0.5023 0.7968 0.0358
C25 C 0.4435(2) 0.80044(17) -0.10890(18)
H28 H 0.5396 0.8023 -0.1607
C26 C 0.3621(2) 0.91800(17) -0.14786(19)
H29 H 0.3151 0.9424 -0.2179
H30 H 0.2744 0.9163 -0.0917
C27 C 0.4735(3) 1.00255(19) -0.1668(2)
H31 H 0.5192 0.9790 -0.0965
H32 H 0.5621 1.0036 -0.2222
C28 C 0.3917(3) 1.11944(18) -0.2072(2)
H33 H 0.3469 1.1436 -0.2771
H34 H 0.4690 1.1706 -0.2190
H35 H 0.3063 1.1196 -0.1515
C29 C 0.6404(3) 0.66558(19) 0.02194(19)
H36 H 0.6429 0.6113 -0.0013
C30 C 0.1594(2) 0.5981(2) 0.0128(2)
H37 H 0.0772 0.6439 0.0349
H38 H 0.1480 0.5182 0.0651
C31 C 0.1497(3) 0.62509(18) -0.10728(19)
H39 H 0.1936 0.5608 -0.1190
H40 H 0.0388 0.6462 -0.1271
C32 C 0.2509(3) 0.72308(18) -0.17447(19)
loop_
_geom_bond_atom_site_label_1
_geom_bond_atom_site_label_2
_geom_bond_site_symmetry_1
_geom_bond_site_symmetry_2
O1 C16 1_555 1_555
O2 C15 1_555 1_555
N1 N2 1_555 1_555
N2 C9 1_555 1_555
C1 H1 1_555 1_555
C2 C1 1_555 1_555
H2 C2 1_555 1_555
C3 C2 1_555 1_555
H3 C3 1_555 1_555
C4 C3 1_555 1_555
H4 C4 1_555 1_555
C5 C4 1_555 1_555
H5 C5 1_555 1_555
C6 C1 1_555 1_555
C7 N1 1_555 1_555
H6 C7 1_555 1_555
C8 C7 1_555 1_555
H7 C8 1_555 1_555
C9 C8 1_555 1_555
H8 C9 1_555 1_555
C10 C9 1_555 1_555
H9 C10 1_555 1_555
H10 C10 1_555 1_555
C11 C10 1_555 1_555
H11 C11 1_555 1_555
H12 C11 1_555 1_555
C12 C11 1_555 1_555
H13 C12 1_555 1_555
H14 C12 1_555 1_555
H15 C12 1_555 1_555
C13 N1 1_555 1_555
H16 C13 1_555 1_555
H17 C13 1_555 1_555
C14 C13 1_555 1_555
H18 C14 1_555 1_555
H19 C14 1_555 1_555
C15 N2 1_555 1_555
C16 C8 1_555 1_555
H20 C16 1_555 1_555
O3 C29 1_555 1_555
O4 C32 1_555 1_555
N3 N4 1_555 1_555
N4 C25 1_555 1_555
C17 H21 1_555 1_555
C18 C17 1_555 1_555
H22 C18 1_555 1_555
C19 C18 1_555 1_555
H23 C19 1_555 1_555
C20 C19 1_555 1_555
H24 C20 1_555 1_555
C21 C20 1_555 1_555
H25 C21 1_555 1_555
C22 C17 1_555 1_555
C23 N3 1_555 1_555
H26 C23 1_555 1_555
C24 C23 1_555 1_555
H27 C24 1_555 1_555
C25 C24 1_555 1_555
H28 C25 1_555 1_555
C26 C25 1_555 1_555
H29 C26 1_555 1_555
H30 C26 1_555 1_555
C27 C26 1_555 1_555
H31 C27 1_555 1_555
H32 C27 1_555 1_555
C28 C27 1_555 1_555
H33 C28 1_555 1_555
H34 C28 1_555 1_555
H35 C28 1_555 1_555
C29 C24 1_555 1_555
H36 C29 1_555 1_555
C30 N3 1_555 1_555
H37 C30 1_555 1_555
H38 C30 1_555 1_555
C31 C30 1_555 1_555
H39 C31 1_555 1_555
H40 C31 1_555 1_555
C32 N4 1_555 1_555
C5 C6 1_555 1_555
C6 C7 1_555 1_555
C14 C15 1_555 1_555
C21 C22 1_555 1_555
C22 C23 1_555 1_555
C31 C32 1_555 1_555

#END
