
#######################################################################
#
#                 Cambridge Crystallographic Data Centre
#                                CCDC 
#
#######################################################################
#
# If this CIF has been generated from an entry in the Cambridge 
# Structural Database, then it will include bibliographic, chemical, 
# crystal, experimental, refinement or atomic coordinate data resulting 
# from the CCDC's data processing and validation procedures.
#
#######################################################################

data_QUYMUT
_chemical_formula_moiety         'C8 H10 N1 O3 1+,Br1 1-'
_chemical_name_systematic        '4-(Carboxymethoxy)anilinium bromide'
_symmetry_cell_setting           monoclinic
_symmetry_space_group_name_H-M   'P 21/c'
_symmetry_Int_Tables_number      14
_space_group_name_Hall           '-P 2ybc'
loop_
_symmetry_equiv_pos_site_id
_symmetry_equiv_pos_as_xyz
1 x,y,z
2 -x,1/2+y,1/2-z
3 -x,-y,-z
4 x,1/2-y,1/2+z
_cell_length_a                   6.0182(12)
_cell_length_b                   9.6025(19)
_cell_length_c                   16.514(3)
_cell_angle_alpha                90
_cell_angle_beta                 94.47(3)
_cell_angle_gamma                90
_cell_volume                     951.437
_exptl_crystal_colour            colorless
_exptl_crystal_description       prism
_cell_formula_units_Z            4
_exptl_crystal_recrystallization_method ethanol
loop_
_atom_site_label
_atom_site_type_symbol
_atom_site_fract_x
_atom_site_fract_y
_atom_site_fract_z
Br1 Br 0.41951(5) 0.75195(3) 0.28076(2)
N1 N 0.9214(5) 0.6075(4) 0.29003(18)
O1 O 1.0375(4) 0.1877(3) 0.52465(15)
C1 C 0.7915(5) 0.4697(3) 0.40446(19)
H1 H 0.6621 0.5230 0.4021
C2 C 0.9527(5) 0.4943(3) 0.35062(19)
O2 O 1.3878(4) -0.0723(3) 0.61539(16)
C3 C 1.1796(5) 0.3112(4) 0.4098(2)
H2 H 1.3085 0.2575 0.4118
C4 C 1.2172(5) 0.0143(4) 0.6064(2)
O3 O 1.0656(4) 0.0186(3) 0.64965(16)
C5 C 0.8249(5) 0.3660(3) 0.46127(19)
H3 H 0.7177 0.3483 0.4976
C6 C 1.1450(5) 0.4159(3) 0.35252(19)
H4 H 1.2507 0.4332 0.3156
C7 C 1.0192(6) 0.2874(3) 0.4644(2)
C8 C 1.2343(5) 0.1059(3) 0.53319(19)
H5 H 1.3646 0.1654 0.5407
H6 H 1.2472 0.0495 0.4851
H7 H 0.780(7) 0.650(5) 0.292(3)
H8 H 1.032(7) 0.683(5) 0.299(3)
H9 H 0.931(6) 0.564(4) 0.241(3)
H10 H 1.371(6) -0.113(4) 0.656(2)
loop_
_geom_bond_atom_site_label_1
_geom_bond_atom_site_label_2
_geom_bond_site_symmetry_1
_geom_bond_site_symmetry_2
N1 C2 1_555 1_555
O1 C7 1_555 1_555
C1 H1 1_555 1_555
C2 C1 1_555 1_555
O2 C4 1_555 1_555
C3 H2 1_555 1_555
C4 O3 1_555 1_555
C5 C1 1_555 1_555
H3 C5 1_555 1_555
C6 C2 1_555 1_555
H4 C6 1_555 1_555
C7 C3 1_555 1_555
C8 O1 1_555 1_555
H5 C8 1_555 1_555
H6 C8 1_555 1_555
H7 N1 1_555 1_555
H8 N1 1_555 1_555
H9 N1 1_555 1_555
H10 O2 1_555 1_555
C3 C6 1_555 1_555
C4 C8 1_555 1_555
C5 C7 1_555 1_555

#END
