
#######################################################################
#
#                 Cambridge Crystallographic Data Centre
#                                CCDC 
#
#######################################################################
#
# If this CIF has been generated from an entry in the Cambridge 
# Structural Database, then it will include bibliographic, chemical, 
# crystal, experimental, refinement or atomic coordinate data resulting 
# from the CCDC's data processing and validation procedures.
#
#######################################################################

data_QUYNII
_chemical_formula_moiety         'C24 H18 I2 O2'
_chemical_name_systematic        1,8-bis(Benzyloxy)-3,6-di-iodonaphthalene
_symmetry_cell_setting           monoclinic
_symmetry_space_group_name_H-M   'C 2/c'
_symmetry_Int_Tables_number      15
_space_group_name_Hall           '-C 2yn'
loop_
_symmetry_equiv_pos_site_id
_symmetry_equiv_pos_as_xyz
1 x,y,z
2 -x,y,1/2-z
3 1/2+x,1/2+y,z
4 1/2-x,1/2+y,1/2-z
5 -x,-y,-z
6 x,-y,1/2+z
7 1/2-x,1/2-y,-z
8 1/2+x,1/2-y,1/2+z
_cell_length_a                   31.222(4)
_cell_length_b                   5.5684(8)
_cell_length_c                   27.445(4)
_cell_angle_alpha                90
_cell_angle_beta                 118.680(2)
_cell_angle_gamma                90
_cell_volume                     4186.1
_exptl_crystal_colour            brown
_exptl_crystal_description       block
_cell_formula_units_Z            8
_exptl_crystal_recrystallization_method 'ethyl acetate/petroleum ether'
loop_
_atom_site_label
_atom_site_type_symbol
_atom_site_fract_x
_atom_site_fract_y
_atom_site_fract_z
I1 I 0.532315(16) -0.52925(9) 0.184014(16)
I2 I 0.419035(16) 0.51148(9) -0.067214(17)
O1 O 0.35208(14) 0.3984(7) 0.08149(16)
O2 O 0.39304(14) 0.1087(7) 0.16410(16)
C1 C 0.3862(2) 0.4364(11) 0.0199(2)
H1 H 0.3664 0.5679 0.0024
C2 C 0.42086(19) 0.0189(11) 0.1420(2)
C3 C 0.31949(19) 0.5945(10) 0.0502(2)
H2 H 0.3029 0.5558 0.0109
H3 H 0.3382 0.7401 0.0554
C4 C 0.41640(19) 0.1355(11) 0.0930(2)
C5 C 0.38423(18) 0.3302(10) 0.0639(2)
C6 C 0.4817(2) -0.2471(10) 0.1437(2)
C7 C 0.36459(19) 0.1100(11) 0.2302(2)
C8 C 0.3090(2) 0.4135(12) 0.2268(2)
H4 H 0.2918 0.5539 0.2108
C9 C 0.28382(19) 0.8405(11) 0.0981(2)
H5 H 0.3086 0.9526 0.1070
C10 C 0.4473(2) 0.0466(11) 0.0720(2)
C11 C 0.2453(2) 0.4703(11) 0.0574(2)
H6 H 0.2444 0.3288 0.0389
C12 C 0.4469(2) 0.1581(13) 0.0250(3)
H7 H 0.4667 0.0990 0.0111
C13 C 0.2477(2) 0.8811(13) 0.1134(3)
H8 H 0.2486 1.0209 0.1324
C14 C 0.3387(2) 0.3144(11) 0.2077(2)
H9 H 0.3411 0.3891 0.1788
C15 C 0.2097(2) 0.5140(13) 0.0718(2)
H10 H 0.1843 0.4052 0.0619
C16 C 0.2827(2) 0.6336(11) 0.0698(2)
C17 C 0.4804(2) -0.1452(11) 0.0988(2)
H11 H 0.5009 -0.1993 0.0854
C18 C 0.3307(2) 0.1026(12) 0.2930(3)
H12 H 0.3280 0.0315 0.3221
C19 C 0.2115(2) 0.7196(11) 0.1009(2)
H13 H 0.1879 0.7468 0.1119
C20 C 0.4180(2) 0.3482(12) 0.0009(2)
C21 C 0.4528(2) -0.1716(10) 0.1661(2)
H14 H 0.4547 -0.2482 0.1972
C22 C 0.3975(2) -0.0106(11) 0.2126(2)
H15 H 0.4310 -0.0026 0.2422
H16 H 0.3885 -0.1783 0.2044
C23 C 0.3048(2) 0.3079(13) 0.2684(3)
H17 H 0.2842 0.3741 0.2806
C24 C 0.3607(2) 0.0025(13) 0.2745(3)
H18 H 0.3784 -0.1359 0.2911
loop_
_geom_bond_atom_site_label_1
_geom_bond_atom_site_label_2
_geom_bond_site_symmetry_1
_geom_bond_site_symmetry_2
I1 C6 1_555 1_555
I2 C20 1_555 1_555
O1 C3 1_555 1_555
O2 C2 1_555 1_555
C1 H1 1_555 1_555
C2 C4 1_555 1_555
C3 H2 1_555 1_555
H3 C3 1_555 1_555
C4 C5 1_555 1_555
C5 O1 1_555 1_555
C6 C17 1_555 1_555
C7 C14 1_555 1_555
C8 H4 1_555 1_555
C9 H5 1_555 1_555
C10 C4 1_555 1_555
C11 H6 1_555 1_555
C12 C10 1_555 1_555
H7 C12 1_555 1_555
C13 C9 1_555 1_555
H8 C13 1_555 1_555
C14 C8 1_555 1_555
H9 C14 1_555 1_555
C15 C11 1_555 1_555
H10 C15 1_555 1_555
C16 C3 1_555 1_555
C17 C10 1_555 1_555
H11 C17 1_555 1_555
C18 H12 1_555 1_555
C19 C13 1_555 1_555
H13 C19 1_555 1_555
C20 C1 1_555 1_555
C21 C2 1_555 1_555
H14 C21 1_555 1_555
C22 O2 1_555 1_555
H15 C22 1_555 1_555
H16 C22 1_555 1_555
C23 C8 1_555 1_555
H17 C23 1_555 1_555
C24 C7 1_555 1_555
H18 C24 1_555 1_555
C1 C5 1_555 1_555
C6 C21 1_555 1_555
C7 C22 1_555 1_555
C9 C16 1_555 1_555
C11 C16 1_555 1_555
C12 C20 1_555 1_555
C15 C19 1_555 1_555
C18 C23 1_555 1_555
C18 C24 1_555 1_555

#END
