
#######################################################################
#
#                 Cambridge Crystallographic Data Centre
#                                CCDC 
#
#######################################################################
#
# If this CIF has been generated from an entry in the Cambridge 
# Structural Database, then it will include bibliographic, chemical, 
# crystal, experimental, refinement or atomic coordinate data resulting 
# from the CCDC's data processing and validation procedures.
#
#######################################################################

data_QUYPUW
_chemical_formula_moiety         'C15 H13 F1 O3'
_chemical_name_systematic        
(3,4-Dimethoxyphenyl)(4-fluorophenyl)methanone
_symmetry_cell_setting           monoclinic
_symmetry_space_group_name_H-M   'P 21/c'
_symmetry_Int_Tables_number      14
_space_group_name_Hall           '-P 2ybc'
loop_
_symmetry_equiv_pos_site_id
_symmetry_equiv_pos_as_xyz
1 x,y,z
2 -x,1/2+y,1/2-z
3 -x,-y,-z
4 x,1/2-y,1/2+z
_cell_length_a                   10.8926(9)
_cell_length_b                   11.3632(11)
_cell_length_c                   10.8369(10)
_cell_angle_alpha                90
_cell_angle_beta                 108.2850(10)
_cell_angle_gamma                90
_cell_volume                     1273.61
_exptl_crystal_colour            colorless
_exptl_crystal_description       needle
_cell_formula_units_Z            4
loop_
_atom_site_label
_atom_site_type_symbol
_atom_site_fract_x
_atom_site_fract_y
_atom_site_fract_z
F1 F 0.13858(16) 0.52452(18) -0.33034(17)
O1 O 0.46324(18) 0.62209(18) 0.24672(19)
O2 O 0.88706(15) 0.85244(17) 0.40525(17)
O3 O 0.86314(15) 1.01546(15) 0.23481(17)
C1 C 0.4782(2) 0.6672(2) 0.1495(3)
C2 C 0.5825(2) 0.7552(2) 0.1622(2)
C3 C 0.6868(2) 0.7580(2) 0.2777(2)
H1 H 0.6928 0.7015 0.3414
C4 C 0.7801(2) 0.8432(2) 0.2976(2)
C5 C 0.7682(2) 0.9316(2) 0.2037(2)
C6 C 0.6666(2) 0.9291(2) 0.0898(2)
H2 H 0.6597 0.9865 0.0269
C7 C 0.5739(2) 0.8405(2) 0.0688(2)
H3 H 0.5057 0.8387 -0.0086
C8 C 0.8996(3) 0.7711(3) 0.5078(3)
H4 H 0.8272 0.7790 0.5397
H5 H 0.9782 0.7867 0.5768
H6 H 0.9020 0.6925 0.4761
C9 C 0.8510(3) 1.1108(3) 0.1468(3)
H7 H 0.8506 1.0811 0.0637
H8 H 0.9225 1.1637 0.1798
H9 H 0.7715 1.1519 0.1374
C10 C 0.3889(2) 0.6332(2) 0.0193(2)
C11 C 0.2630(2) 0.6010(2) 0.0084(3)
H10 H 0.2355 0.6042 0.0813
C12 C 0.1782(3) 0.5644(2) -0.1084(3)
H11 H 0.0938 0.5431 -0.1154
C13 C 0.2215(3) 0.5604(3) -0.2141(3)
C14 C 0.3456(3) 0.5881(3) -0.2083(3)
H12 H 0.3728 0.5816 -0.2812
C15 C 0.4290(2) 0.6260(2) -0.0911(3)
H13 H 0.5131 0.6470 -0.0854
loop_
_geom_bond_atom_site_label_1
_geom_bond_atom_site_label_2
_geom_bond_site_symmetry_1
_geom_bond_site_symmetry_2
F1 C13 1_555 1_555
O1 C1 1_555 1_555
O2 C4 1_555 1_555
O3 C5 1_555 1_555
C1 C2 1_555 1_555
C2 C3 1_555 1_555
C3 H1 1_555 1_555
C4 C3 1_555 1_555
C5 C4 1_555 1_555
C6 C5 1_555 1_555
H2 C6 1_555 1_555
C7 C2 1_555 1_555
H3 C7 1_555 1_555
C8 O2 1_555 1_555
H4 C8 1_555 1_555
H5 C8 1_555 1_555
H6 C8 1_555 1_555
C9 O3 1_555 1_555
H7 C9 1_555 1_555
H8 C9 1_555 1_555
H9 C9 1_555 1_555
C10 C1 1_555 1_555
C11 C10 1_555 1_555
H10 C11 1_555 1_555
C12 C11 1_555 1_555
H11 C12 1_555 1_555
C13 C12 1_555 1_555
C14 C13 1_555 1_555
H12 C14 1_555 1_555
C15 C10 1_555 1_555
H13 C15 1_555 1_555
C6 C7 1_555 1_555
C14 C15 1_555 1_555

#END
