
#######################################################################
#
#                 Cambridge Crystallographic Data Centre
#                                CCDC 
#
#######################################################################
#
# If this CIF has been generated from an entry in the Cambridge 
# Structural Database, then it will include bibliographic, chemical, 
# crystal, experimental, refinement or atomic coordinate data resulting 
# from the CCDC's data processing and validation procedures.
#
#######################################################################

data_QUYTUA
_chemical_compound_source        'bark of Lansium domesticum Corr'
_chemical_name_common            
14-Hydroxy-8,14-secogammacera-7-ene-3,21-dione
_chemical_formula_moiety         'C30 H48 O3'
_chemical_name_systematic        
5-(2-(2-Hydroxy-2,5,5,8a-tetramethyl-6-oxodecahydronaphthalen-1-yl)ethyl)-1,1,4a,6-tetramethyl-3,4,4a,5,8,8a-hexahydronaphthalen-2(1H)-one
_symmetry_cell_setting           orthorhombic
_symmetry_space_group_name_H-M   'P 21 21 21'
_symmetry_Int_Tables_number      19
_space_group_name_Hall           'P 2ac 2ab'
loop_
_symmetry_equiv_pos_site_id
_symmetry_equiv_pos_as_xyz
1 x,y,z
2 1/2-x,-y,1/2+z
3 -x,1/2+y,1/2-z
4 1/2+x,1/2-y,-z
_cell_length_a                   11.8841(11)
_cell_length_b                   14.8301(13)
_cell_length_c                   15.2755(13)
_cell_angle_alpha                90
_cell_angle_beta                 90
_cell_angle_gamma                90
_cell_volume                     2692.19
_exptl_crystal_colour            colorless
_exptl_crystal_description       plate
_cell_formula_units_Z            4
loop_
_atom_site_label
_atom_site_type_symbol
_atom_site_fract_x
_atom_site_fract_y
_atom_site_fract_z
O1 O 0.85660(14) 0.46079(11) 1.07799(11)
O2 O 0.92757(12) 0.95328(10) 1.00483(10)
H1 H 0.956(2) 0.9990(13) 1.0283(17)
O3 O 0.97661(13) 0.62965(10) 0.44013(10)
C1 C 1.00012(16) 0.70418(13) 0.99742(13)
C2 C 0.94385(17) 0.63545(13) 0.93607(13)
H2 H 0.8627 0.6497 0.9315
H3 H 0.9770 0.6414 0.8769
C3 C 0.95721(19) 0.53755(14) 0.96705(14)
H4 H 0.9141 0.4974 0.9276
H5 H 1.0375 0.5202 0.9632
C4 C 0.91696(17) 0.52388(14) 1.05964(15)
C5 C 0.95844(18) 0.59017(14) 1.12907(14)
C6 C 0.95358(17) 0.68799(13) 1.09158(13)
H6 H 0.8714 0.7017 1.0870
C7 C 1.07759(19) 0.55946(15) 1.15649(15)
H7 H 1.0735 0.4990 1.1822
H8 H 1.1081 0.6017 1.1997
H9 H 1.1267 0.5582 1.1049
C8 C 0.8817(2) 0.58287(17) 1.20997(15)
H10 H 0.8724 0.5193 1.2259
H11 H 0.8080 0.6091 1.1965
H12 H 0.9158 0.6156 1.2590
C9 C 1.12928(17) 0.69324(14) 0.98960(14)
H13 H 1.1478 0.6293 0.9820
H14 H 1.1653 0.7160 1.0429
H15 H 1.1565 0.7275 0.9390
C10 C 0.99922(19) 0.75933(14) 1.15478(13)
H16 H 0.9721 0.7465 1.2148
H17 H 1.0825 0.7571 1.1553
C11 C 0.96049(19) 0.85294(14) 1.12704(14)
H18 H 0.9925 0.8980 1.1679
H19 H 0.8775 0.8561 1.1318
C12 C 0.99487(18) 0.87777(13) 1.03345(13)
C13 C 0.96039(16) 0.80090(13) 0.97016(12)
H20 H 0.8765 0.7983 0.9749
C14 C 1.11914(18) 0.90456(14) 1.03022(15)
H21 H 1.1428 0.9110 0.9691
H22 H 1.1645 0.8578 1.0587
H23 H 1.1296 0.9620 1.0608
C15 C 0.98231(16) 0.82616(14) 0.87297(13)
H24 H 1.0086 0.8894 0.8698
H25 H 1.0428 0.7872 0.8495
C16 C 0.87697(17) 0.81557(14) 0.81600(13)
H26 H 0.8152 0.8511 0.8425
H27 H 0.8539 0.7514 0.8166
C17 C 0.89186(16) 0.84596(14) 0.71915(12)
H28 H 0.9747 0.8520 0.7092
C18 C 0.84100(17) 0.93890(14) 0.70231(13)
C19 C 0.78520(18) 0.95775(14) 0.62919(14)
H29 H 0.7511 1.0155 0.6245
C20 C 0.77245(18) 0.89399(14) 0.55361(13)
H30 H 0.7846 0.9270 0.4981
H31 H 0.6950 0.8694 0.5530
C21 C 0.85675(16) 0.81635(13) 0.56021(13)
H32 H 0.9325 0.8456 0.5579
C22 C 0.84927(16) 0.77380(13) 0.65296(13)
C23 C 0.8624(2) 1.01122(15) 0.76957(15)
H33 H 0.8226 1.0664 0.7527
H34 H 0.9434 1.0234 0.7729
H35 H 0.8353 0.9909 0.8268
C24 C 0.72842(17) 0.74445(14) 0.67586(13)
H36 H 0.7286 0.7126 0.7321
H37 H 0.6998 0.7043 0.6300
H38 H 0.6801 0.7978 0.6801
C25 C 0.92925(17) 0.69270(14) 0.65756(13)
H39 H 1.0077 0.7143 0.6521
H40 H 0.9214 0.6635 0.7155
C26 C 0.90659(19) 0.62292(14) 0.58610(13)
H41 H 0.9602 0.5722 0.5922
H42 H 0.8295 0.5987 0.5929
C27 C 0.91895(17) 0.66457(14) 0.49686(13)
C28 C 0.85347(18) 0.75171(14) 0.47911(12)
C29 C 0.73416(19) 0.72086(16) 0.45128(14)
H43 H 0.7391 0.6859 0.3970
H44 H 0.6865 0.7739 0.4418
H45 H 0.7014 0.6833 0.4975
C30 C 0.9062(2) 0.80059(15) 0.40058(14)
H46 H 0.9083 0.7598 0.3501
H47 H 0.9830 0.8193 0.4154
H48 H 0.8611 0.8538 0.3861
loop_
_geom_bond_atom_site_label_1
_geom_bond_atom_site_label_2
_geom_bond_site_symmetry_1
_geom_bond_site_symmetry_2
O1 C4 1_555 1_555
O2 H1 1_555 1_555
O3 C27 1_555 1_555
C1 C2 1_555 1_555
C2 H2 1_555 1_555
H3 C2 1_555 1_555
C3 C2 1_555 1_555
H4 C3 1_555 1_555
H5 C3 1_555 1_555
C4 C3 1_555 1_555
C5 C4 1_555 1_555
C6 C1 1_555 1_555
H6 C6 1_555 1_555
C7 C5 1_555 1_555
H7 C7 1_555 1_555
H8 C7 1_555 1_555
H9 C7 1_555 1_555
C8 C5 1_555 1_555
H10 C8 1_555 1_555
H11 C8 1_555 1_555
H12 C8 1_555 1_555
C9 C1 1_555 1_555
H13 C9 1_555 1_555
H14 C9 1_555 1_555
H15 C9 1_555 1_555
C10 C6 1_555 1_555
H16 C10 1_555 1_555
H17 C10 1_555 1_555
C11 C10 1_555 1_555
H18 C11 1_555 1_555
H19 C11 1_555 1_555
C12 O2 1_555 1_555
C13 C1 1_555 1_555
H20 C13 1_555 1_555
C14 C12 1_555 1_555
H21 C14 1_555 1_555
H22 C14 1_555 1_555
H23 C14 1_555 1_555
C15 C13 1_555 1_555
H24 C15 1_555 1_555
H25 C15 1_555 1_555
C16 C15 1_555 1_555
H26 C16 1_555 1_555
H27 C16 1_555 1_555
C17 C16 1_555 1_555
H28 C17 1_555 1_555
C18 C17 1_555 1_555
C19 C18 1_555 1_555
H29 C19 1_555 1_555
C20 C19 1_555 1_555
H30 C20 1_555 1_555
H31 C20 1_555 1_555
C21 C20 1_555 1_555
H32 C21 1_555 1_555
C22 C17 1_555 1_555
C23 C18 1_555 1_555
H33 C23 1_555 1_555
H34 C23 1_555 1_555
H35 C23 1_555 1_555
C24 C22 1_555 1_555
H36 C24 1_555 1_555
H37 C24 1_555 1_555
H38 C24 1_555 1_555
C25 C22 1_555 1_555
H39 C25 1_555 1_555
H40 C25 1_555 1_555
C26 C25 1_555 1_555
H41 C26 1_555 1_555
H42 C26 1_555 1_555
C27 C26 1_555 1_555
C28 C21 1_555 1_555
C29 C28 1_555 1_555
H43 C29 1_555 1_555
H44 C29 1_555 1_555
H45 C29 1_555 1_555
C30 C28 1_555 1_555
H46 C30 1_555 1_555
H47 C30 1_555 1_555
H48 C30 1_555 1_555
C5 C6 1_555 1_555
C11 C12 1_555 1_555
C12 C13 1_555 1_555
C21 C22 1_555 1_555
C27 C28 1_555 1_555

#END
