
#######################################################################
#
#                 Cambridge Crystallographic Data Centre
#                                CCDC 
#
#######################################################################
#
# If this CIF has been generated from an entry in the Cambridge 
# Structural Database, then it will include bibliographic, chemical, 
# crystal, experimental, refinement or atomic coordinate data resulting 
# from the CCDC's data processing and validation procedures.
#
#######################################################################

data_QUYVIQ
_chemical_formula_moiety         'C24 H24 O4'
_chemical_name_systematic        
'3-Mesityl-2-oxo-1-oxaspiro[4.4]non-3-en-4-yl benzoate'
_symmetry_cell_setting           monoclinic
_symmetry_space_group_name_H-M   'P 21/c'
_symmetry_Int_Tables_number      14
_space_group_name_Hall           '-P 2ybc'
loop_
_symmetry_equiv_pos_site_id
_symmetry_equiv_pos_as_xyz
1 x,y,z
2 -x,1/2+y,1/2-z
3 -x,-y,-z
4 x,1/2-y,1/2+z
_cell_length_a                   8.4799(5)
_cell_length_b                   15.9912(9)
_cell_length_c                   15.9520(8)
_cell_angle_alpha                90
_cell_angle_beta                 106.2400(10)
_cell_angle_gamma                90
_cell_volume                     2076.84
_exptl_crystal_colour            colorless
_exptl_crystal_description       chunk
_cell_formula_units_Z            4
loop_
_atom_site_label
_atom_site_type_symbol
_atom_site_fract_x
_atom_site_fract_y
_atom_site_fract_z
O1 O 0.59902(17) 0.68318(9) 0.43446(9)
O2 O 0.8496(2) 0.73853(11) 0.45217(12)
O3 O 0.3476(2) 0.84301(10) 0.30647(12)
O4 O 0.3938(3) 0.83890(14) 0.17466(12)
C1 C 0.8250(2) 0.61060(12) 0.52516(12)
C2 C 0.6519(3) 0.70257(13) 0.24733(13)
C3 C 0.7173(3) 0.54964(13) 0.53702(14)
H1 H 0.6052 0.5551 0.5106
C4 C 0.9908(3) 0.60287(13) 0.56565(13)
H2 H 1.0632 0.6440 0.5583
C5 C 0.7675(3) 0.68381(13) 0.46840(13)
C6 C 0.5273(3) 0.73987(13) 0.37080(13)
C7 C 0.6291(3) 0.61735(14) 0.22738(13)
C8 C 0.7338(3) 0.57817(15) 0.18622(14)
H3 H 0.7190 0.5216 0.1728
C9 C 0.5435(3) 0.74710(13) 0.29100(14)
C10 C 0.9423(3) 0.47286(15) 0.62716(15)
H4 H 0.9821 0.4257 0.6606
C11 C 0.8798(3) 0.70432(17) 0.18587(15)
H5 H 0.9642 0.7334 0.1720
C12 C 0.7768(3) 0.48087(15) 0.58814(16)
H6 H 0.7048 0.4398 0.5962
C13 C 1.0493(3) 0.53393(15) 0.61723(14)
H7 H 1.1609 0.5289 0.6451
C14 C 0.4067(3) 0.79956(14) 0.38972(15)
C15 C 0.7791(3) 0.74694(15) 0.22727(14)
C16 C 0.8588(3) 0.62051(16) 0.16464(15)
C17 C 0.4252(3) 0.81278(16) 0.24846(17)
C18 C 0.4808(3) 0.86271(16) 0.46176(17)
H8 H 0.5716 0.8379 0.5058
H9 H 0.5206 0.9115 0.4378
C19 C 0.8105(4) 0.83721(16) 0.25219(18)
H10 H 0.9100 0.8550 0.2402
H11 H 0.8210 0.8438 0.3133
H12 H 0.7204 0.8705 0.2190
C20 C 0.4958(3) 0.56714(16) 0.24929(17)
H13 H 0.5270 0.5551 0.3107
H14 H 0.4801 0.5157 0.2170
H15 H 0.3954 0.5986 0.2342
C21 C 0.2621(3) 0.76212(15) 0.4166(2)
H16 H 0.1634 0.7648 0.3679
H17 H 0.2842 0.7039 0.4326
C22 C 0.9716(4) 0.5763(2) 0.1205(2)
H18 H 0.9949 0.5211 0.1443
H19 H 1.0722 0.6072 0.1303
H20 H 0.9193 0.5726 0.0589
C23 C 0.3449(4) 0.8866(2) 0.5007(2)
H21 H 0.2826 0.9332 0.4690
H22 H 0.3895 0.9027 0.5613
C24 C 0.1941(4) 0.8384(3) 0.4509(5)
H23 H 0.1270 0.8716 0.4033
H24 H 0.1283 0.8222 0.4892
C25? C 0.2365(12) 0.8105(4) 0.4935(5)
H25? H 0.1223 0.8266 0.4829
H26? H 0.2690 0.7774 0.5465
loop_
_geom_bond_atom_site_label_1
_geom_bond_atom_site_label_2
_geom_bond_site_symmetry_1
_geom_bond_site_symmetry_2
O1 C5 1_555 1_555
O2 C5 1_555 1_555
O3 C14 1_555 1_555
O4 C17 1_555 1_555
C1 C3 1_555 1_555
C2 C7 1_555 1_555
C3 H1 1_555 1_555
C4 C1 1_555 1_555
H2 C4 1_555 1_555
C5 C1 1_555 1_555
C6 O1 1_555 1_555
C7 C8 1_555 1_555
C8 H3 1_555 1_555
C9 C2 1_555 1_555
C10 H4 1_555 1_555
C11 H5 1_555 1_555
C12 C3 1_555 1_555
H6 C12 1_555 1_555
C13 C4 1_555 1_555
H7 C13 1_555 1_555
C14 C6 1_555 1_555
C15 C2 1_555 1_555
C16 C8 1_555 1_555
C17 O3 1_555 1_555
C18 C14 1_555 1_555
H8 C18 1_555 1_555
H9 C18 1_555 1_555
C19 C15 1_555 1_555
H10 C19 1_555 1_555
H11 C19 1_555 1_555
H12 C19 1_555 1_555
C20 C7 1_555 1_555
H13 C20 1_555 1_555
H14 C20 1_555 1_555
H15 C20 1_555 1_555
C21 C14 1_555 1_555
H16 C21 1_555 1_555
H17 C21 1_555 1_555
C22 C16 1_555 1_555
H18 C22 1_555 1_555
H19 C22 1_555 1_555
H20 C22 1_555 1_555
C23 C18 1_555 1_555
H21 C23 1_555 1_555
H22 C23 1_555 1_555
C24 C21 1_555 1_555
H23 C24 1_555 1_555
H24 C24 1_555 1_555
C6 C9 1_555 1_555
C9 C17 1_555 1_555
C10 C12 1_555 1_555
C10 C13 1_555 1_555
C11 C15 1_555 1_555
C11 C16 1_555 1_555
C23 C24 1_555 1_555

#END
