
#######################################################################
#
#                 Cambridge Crystallographic Data Centre
#                                CCDC 
#
#######################################################################
#
# If this CIF has been generated from an entry in the Cambridge 
# Structural Database, then it will include bibliographic, chemical, 
# crystal, experimental, refinement or atomic coordinate data resulting 
# from the CCDC's data processing and validation procedures.
#
#######################################################################

data_QUYWAK
_chemical_formula_moiety         'C19 H18 N1 O2 1+,C6 H4 Cl1 O3 S1 1-'
_chemical_name_systematic        
'4-(2-(4-Hydroxy-3-methoxyphenyl)vinyl)-1-methylquinolinium 4-chlorobenzenesulfonate'
_symmetry_cell_setting           monoclinic
_symmetry_space_group_name_H-M   'P 21/n'
_symmetry_Int_Tables_number      14
_space_group_name_Hall           '-P 2yn'
loop_
_symmetry_equiv_pos_site_id
_symmetry_equiv_pos_as_xyz
1 x,y,z
2 1/2-x,1/2+y,1/2-z
3 -x,-y,-z
4 1/2+x,1/2-y,1/2+z
_cell_length_a                   10.783(3)
_cell_length_b                   9.713(2)
_cell_length_c                   21.053(5)
_cell_angle_alpha                90
_cell_angle_beta                 102.571(3)
_cell_angle_gamma                90
_cell_volume                     2152.13
_exptl_crystal_colour            red
_exptl_crystal_description       Prism
_cell_formula_units_Z            4
loop_
_atom_site_label
_atom_site_type_symbol
_atom_site_fract_x
_atom_site_fract_y
_atom_site_fract_z
Cl1 Cl 0.53313(4) 0.02814(4) 0.73216(2)
S1 S 0.50362(4) 0.67193(4) 0.74320(2)
O1 O 0.55891(13) 0.72707(13) 0.69148(6)
O2 O 0.58544(13) 0.69581(14) 0.80748(6)
O3 O 0.37266(12) 0.71030(14) 0.73947(7)
C1 C 0.62021(16) 0.42690(17) 0.73082(8)
H1 H 0.6928 0.4817 0.7299
C2 C 0.62886(16) 0.28422(18) 0.72912(8)
H2 H 0.7067 0.2406 0.7270
C3 C 0.52108(16) 0.20683(17) 0.73053(8)
C4 C 0.40453(16) 0.26749(18) 0.73101(8)
H3 H 0.3313 0.2126 0.7301
C5 C 0.39757(15) 0.41106(17) 0.73283(8)
H4 H 0.3189 0.4547 0.7333
C6 C 0.50546(15) 0.49004(17) 0.73395(7)
O4 O 0.07667(13) 0.71117(14) 0.42825(7)
O5 O 0.10554(12) 0.62008(14) 0.54875(6)
N1 N 0.79016(14) -0.07134(15) 0.56526(7)
C7 C 0.77997(15) -0.03302(17) 0.50096(8)
C8 C 0.85676(17) -0.09727(19) 0.46305(9)
H5 H 0.9165 -0.1660 0.4815
C9 C 0.84396(19) -0.0592(2) 0.39938(10)
H6 H 0.8941 -0.1031 0.3734
C10 C 0.75747(19) 0.0443(2) 0.37186(9)
H7 H 0.7508 0.0705 0.3278
C11 C 0.68272(17) 0.10757(19) 0.40821(8)
H8 H 0.6250 0.1774 0.3890
C12 C 0.69035(15) 0.07035(17) 0.47384(8)
C13 C 0.61045(16) 0.13153(17) 0.51272(8)
C14 C 0.62525(17) 0.08424(19) 0.57609(8)
H9 H 0.5733 0.1209 0.6031
C15 C 0.71445(18) -0.0154(2) 0.60061(8)
H10 H 0.7221 -0.0451 0.6443
C16 C 0.51705(16) 0.23558(17) 0.48541(8)
H11 H 0.5070 0.2568 0.4405
C17 C 0.44366(16) 0.30416(18) 0.51911(8)
H12 H 0.4541 0.2821 0.5639
C18 C 0.34973(16) 0.40916(18) 0.49297(8)
C19 C 0.32927(16) 0.45649(18) 0.42865(8)
H13 H 0.3780 0.4204 0.4000
C20 C 0.23764(16) 0.55624(18) 0.40690(8)
H14 H 0.2243 0.5874 0.3632
C21 C 0.16496(16) 0.61148(18) 0.44774(8)
C22 C 0.18305(16) 0.56370(18) 0.51237(8)
C23 C 0.27567(16) 0.46466(18) 0.53430(8)
H15 H 0.2893 0.4337 0.5781
C24 C 0.88407(18) -0.1761(2) 0.59483(9)
H16 H 0.8777 -0.1923 0.6399
H17 H 0.9697 -0.1435 0.5941
H18 H 0.8672 -0.2621 0.5701
C25 C 0.12486(19) 0.5744(2) 0.61462(9)
H19 H 0.1148 0.4742 0.6155
H20 H 0.0623 0.6182 0.6356
H21 H 0.2107 0.5994 0.6380
H22 H 0.076(3) 0.732(3) 0.3904(15)
loop_
_geom_bond_atom_site_label_1
_geom_bond_atom_site_label_2
_geom_bond_site_symmetry_1
_geom_bond_site_symmetry_2
Cl1 C3 1_555 1_555
S1 O1 1_555 1_555
O2 S1 1_555 1_555
O3 S1 1_555 1_555
C1 H1 1_555 1_555
C2 C1 1_555 1_555
H2 C2 1_555 1_555
C3 C2 1_555 1_555
C4 C3 1_555 1_555
H3 C4 1_555 1_555
C5 C4 1_555 1_555
H4 C5 1_555 1_555
C6 S1 1_555 1_555
O4 C21 1_555 1_555
O5 C22 1_555 1_555
N1 C7 1_555 1_555
C7 C8 1_555 1_555
C8 H5 1_555 1_555
C9 C8 1_555 1_555
H6 C9 1_555 1_555
C10 C9 1_555 1_555
H7 C10 1_555 1_555
C11 C10 1_555 1_555
H8 C11 1_555 1_555
C12 C7 1_555 1_555
C13 C12 1_555 1_555
C14 C13 1_555 1_555
H9 C14 1_555 1_555
C15 N1 1_555 1_555
H10 C15 1_555 1_555
C16 C13 1_555 1_555
H11 C16 1_555 1_555
C17 C16 1_555 1_555
H12 C17 1_555 1_555
C18 C17 1_555 1_555
C19 C18 1_555 1_555
H13 C19 1_555 1_555
C20 C19 1_555 1_555
H14 C20 1_555 1_555
C21 C20 1_555 1_555
C22 C21 1_555 1_555
C23 C18 1_555 1_555
H15 C23 1_555 1_555
C24 N1 1_555 1_555
H16 C24 1_555 1_555
H17 C24 1_555 1_555
H18 C24 1_555 1_555
C25 O5 1_555 1_555
H19 C25 1_555 1_555
H20 C25 1_555 1_555
H21 C25 1_555 1_555
H22 O4 1_555 1_555
C1 C6 1_555 1_555
C5 C6 1_555 1_555
C11 C12 1_555 1_555
C14 C15 1_555 1_555
C22 C23 1_555 1_555

#END
