
#######################################################################
#
#                 Cambridge Crystallographic Data Centre
#                                CCDC 
#
#######################################################################
#
# If this CIF has been generated from an entry in the Cambridge 
# Structural Database, then it will include bibliographic, chemical, 
# crystal, experimental, refinement or atomic coordinate data resulting 
# from the CCDC's data processing and validation procedures.
#
#######################################################################

data_QUYZOA
_chemical_formula_moiety         'C6 H9 N2 1+,C6 H4 N1 O3 1-,C6 H5 N1 O3'
_chemical_name_systematic        
'(3-Pyridyl)methanaminium 4-nitrophenolate 4-nitrophenol'
_symmetry_cell_setting           triclinic
_symmetry_space_group_name_H-M   'P -1'
_symmetry_Int_Tables_number      2
_space_group_name_Hall           '-P 1'
loop_
_symmetry_equiv_pos_site_id
_symmetry_equiv_pos_as_xyz
1 x,y,z
2 -x,-y,-z
_cell_length_a                   6.3666(13)
_cell_length_b                   7.4451(15)
_cell_length_c                   21.262(4)
_cell_angle_alpha                92.41(3)
_cell_angle_beta                 95.56(3)
_cell_angle_gamma                113.99(3)
_cell_volume                     912.744
_exptl_crystal_colour            colorless
_exptl_crystal_description       prism
_cell_formula_units_Z            2
loop_
_atom_site_label
_atom_site_type_symbol
_atom_site_fract_x
_atom_site_fract_y
_atom_site_fract_z
O1 O 0.3538(2) 0.0490(2) 0.19323(6)
C1 C 0.2665(3) 0.2431(3) 0.01944(8)
N1 N 0.2243(3) 0.2980(2) -0.04283(8)
C2 C 0.3307(3) 0.1152(3) 0.13814(8)
O3 O 0.3528(3) 0.2970(2) -0.08282(7)
O4 O 0.0584(3) 0.3409(3) -0.05577(7)
C3 C 0.1125(3) 0.2297(3) 0.06264(9)
H2 H -0.0114 0.2633 0.0522
C4 C 0.1442(3) 0.1664(3) 0.12100(9)
H3 H 0.0403 0.1572 0.1499
C6 C 0.4868(3) 0.1361(3) 0.09345(9)
H4 H 0.6144 0.1074 0.1040
C7 C 0.4552(3) 0.1978(3) 0.03479(9)
H5 H 0.5589 0.2091 0.0057
O2 O 0.7520(2) 0.0641(2) 0.23068(6)
H1 H 0.6012 0.0634 0.2194
C5 C 0.8177(3) 0.1128(3) 0.29326(8)
C8 C 0.6884(3) 0.1667(3) 0.33310(9)
H6 H 0.5513 0.1731 0.3165
C9 C 0.9669(4) 0.2016(3) 0.42097(9)
C10 C 1.0262(3) 0.1105(3) 0.31834(9)
H7 H 1.1167 0.0798 0.2917
C11 C 1.0994(4) 0.1534(3) 0.38222(10)
H8 H 1.2379 0.1497 0.3991
C12 C 0.7627(4) 0.2106(3) 0.39719(10)
H9 H 0.6761 0.2459 0.4240
O5 O 1.2363(4) 0.2523(5) 0.50752(9)
O6 O 0.9263(4) 0.2807(4) 0.52407(9)
N2 N 1.0492(5) 0.2488(4) 0.48875(10)
N3 N -0.0537(3) 0.7260(2) 0.20070(7)
H10 H -0.1686 0.7006 0.1696
H11 H 0.0690 0.8325 0.1935
H12 H -0.0989 0.7476 0.2375
N4 N 0.5902(3) 0.6209(3) 0.28249(8)
C13 C 0.5678(4) 0.6498(3) 0.34345(9)
H13 H 0.6919 0.6693 0.3739
C14 C 0.2013(3) 0.5896(3) 0.25514(9)
C15 C 0.4074(3) 0.5913(3) 0.24015(9)
H14 H 0.4205 0.5703 0.1975
C16 C 0.1849(3) 0.6229(3) 0.31859(9)
H15 H 0.0499 0.6254 0.3309
C17 C 0.0087(4) 0.5549(3) 0.20322(10)
H16 H 0.0559 0.5305 0.1628
H17 H -0.1262 0.4384 0.2101
C18 C 0.3695(3) 0.6522(3) 0.36331(9)
H18 H 0.3605 0.6733 0.4062
loop_
_geom_bond_atom_site_label_1
_geom_bond_atom_site_label_2
_geom_bond_site_symmetry_1
_geom_bond_site_symmetry_2
O1 C2 1_555 1_555
O2 H1 1_555 1_555
C1 N1 1_555 1_555
N1 O3 1_555 1_555
C2 C4 1_555 1_555
O4 N1 1_555 1_555
C3 C1 1_555 1_555
H2 C3 1_555 1_555
C4 C3 1_555 1_555
H3 C4 1_555 1_555
C5 O2 1_555 1_555
C6 C2 1_555 1_555
H4 C6 1_555 1_555
C7 C1 1_555 1_555
H5 C7 1_555 1_555
C8 C5 1_555 1_555
H6 C8 1_555 1_555
C9 C11 1_555 1_555
C10 C5 1_555 1_555
H7 C10 1_555 1_555
C11 C10 1_555 1_555
H8 C11 1_555 1_555
C12 C8 1_555 1_555
H9 C12 1_555 1_555
O5 N2 1_555 1_555
O6 N2 1_555 1_555
N2 C9 1_555 1_555
N3 H10 1_555 1_555
H11 N3 1_555 1_555
H12 N3 1_555 1_555
N4 C13 1_555 1_555
C13 H13 1_555 1_555
C14 C15 1_555 1_555
C15 N4 1_555 1_555
H14 C15 1_555 1_555
C16 C14 1_555 1_555
H15 C16 1_555 1_555
C17 N3 1_555 1_555
H16 C17 1_555 1_555
H17 C17 1_555 1_555
C18 C13 1_555 1_555
H18 C18 1_555 1_555
C6 C7 1_555 1_555
C9 C12 1_555 1_555
C14 C17 1_555 1_555
C16 C18 1_555 1_555

#END
