
#######################################################################
#
#                 Cambridge Crystallographic Data Centre
#                                CCDC 
#
#######################################################################
#
# If this CIF has been generated from an entry in the Cambridge 
# Structural Database, then it will include bibliographic, chemical, 
# crystal, experimental, refinement or atomic coordinate data resulting 
# from the CCDC's data processing and validation procedures.
#
#######################################################################

data_QUZHAV
_chemical_name_common            
'Diethyl 2,3,9,10-tetramethyl-6,13-dioxo-5,7,12,14-tetrahydro-5a,6a,12a,13a-tetraazabenzo[5,6]azuleno[2,1,8-ija]benzo[f]azulene-13b,13c-dicarboxylate'
_chemical_formula_moiety         'C30 H34 N4 O6'
_chemical_name_systematic        
'Diethyl 7,8,18,19-tetramethyl-1,3,12,14-tetra-aza-2,13-dioxohexacyclo[10.10.2.0^3,24^.0^5,10^.0^14,23^.0^16,21^]tetracosa-5,7,9,16,18,20-hexaene-23,24-dicarboxylate'
_symmetry_cell_setting           monoclinic
_symmetry_space_group_name_H-M   'P 21/c'
_symmetry_Int_Tables_number      14
_space_group_name_Hall           '-P 2ybc'
loop_
_symmetry_equiv_pos_site_id
_symmetry_equiv_pos_as_xyz
1 x,y,z
2 -x,1/2+y,1/2-z
3 -x,-y,-z
4 x,1/2-y,1/2+z
_cell_length_a                   23.4988(12)
_cell_length_b                   11.6005(6)
_cell_length_c                   21.2685(11)
_cell_angle_alpha                90
_cell_angle_beta                 107.145(1)
_cell_angle_gamma                90
_cell_volume                     5540.11
_exptl_crystal_colour            colorless
_exptl_crystal_description       block
_cell_formula_units_Z            8
_exptl_crystal_recrystallization_method dichloromethane/methanol
loop_
_atom_site_label
_atom_site_type_symbol
_atom_site_fract_x
_atom_site_fract_y
_atom_site_fract_z
O1 O 0.18810(5) 1.18390(11) 0.17156(6)
O2 O 0.13366(5) 0.74461(11) 0.24984(6)
N1 N 0.18396(6) 1.08832(11) 0.26470(7)
N2 N 0.15077(6) 0.91667(12) 0.30754(7)
N3 N 0.10001(6) 1.11326(12) 0.18400(7)
N4 N 0.08583(6) 0.91354(12) 0.20740(7)
C1 C 0.42409(8) 0.89433(17) 0.27568(10)
H1 H 0.4500 0.8318 0.2953
H2 H 0.4435 0.9662 0.2910
H3 H 0.4150 0.8903 0.2287
C2 C 0.38198(9) 0.67344(17) 0.32156(10)
H4 H 0.3824 0.6491 0.2785
H5 H 0.3633 0.6153 0.3408
H6 H 0.4221 0.6851 0.3488
C3 C 0.36724(7) 0.88602(16) 0.29477(8)
C4 C 0.33249(7) 0.98434(15) 0.29049(8)
H7 H 0.3451 1.0521 0.2753
C5 C 0.28011(7) 0.98636(14) 0.30767(8)
C6 C 0.26109(7) 0.88475(15) 0.33059(8)
C7 C 0.29503(7) 0.78633(15) 0.33343(8)
H8 H 0.2820 0.7181 0.3476
C8 C 0.34788(7) 0.78424(15) 0.31616(8)
C9 C 0.24609(7) 1.09810(14) 0.30318(8)
H9 H 0.2482 1.1235 0.3473
H10 H 0.2650 1.1565 0.2835
C10 C 0.20665(7) 0.88039(16) 0.35484(9)
H11 H 0.2019 0.8020 0.3683
H12 H 0.2139 0.9289 0.3936
C11 C 0.16072(8) 1.13303(14) 0.20341(9)
C12 C 0.12450(7) 0.84661(17) 0.25404(9)
C13 C 0.13984(7) 1.03574(15) 0.29051(8)
C14 C 0.13113(9) 1.1126(2) 0.34619(10)
C15 C 0.1006(6) 1.1414(7) 0.4389(5)
H13 H 0.0701 1.1979 0.4195
H14 H 0.1374 1.1816 0.4604
C16 C 0.0821(7) 1.0681(10) 0.4872(5)
H15 H 0.0433 1.0367 0.4667
H16 H 0.0811 1.1141 0.5243
H17 H 0.1101 1.0064 0.5016
O3 O 0.1475(4) 1.2123(5) 0.3507(6)
O4 O 0.1090(5) 1.0641(9) 0.3884(5)
C17 C 0.08463(7) 1.03234(15) 0.22728(8)
C18 C 0.02543(9) 1.0647(2) 0.23998(11)
C19 C -0.0466(4) 1.0092(8) 0.2890(5)
H18 H -0.0799 1.0184 0.2496
H19 H -0.0427 1.0790 0.3151
C20 C -0.0562(4) 0.9078(7) 0.3277(5)
H20 H -0.0629 0.8403 0.3003
H21 H -0.0903 0.9213 0.3428
H22 H -0.0217 0.8964 0.3648
O5 O -0.0028(4) 1.1489(7) 0.2157(5)
O6 O 0.0079(3) 0.9872(6) 0.2718(4)
C21 C 0.06619(8) 1.11686(16) 0.11404(9)
H23 H 0.0758 1.1880 0.0955
H24 H 0.0241 1.1192 0.1105
C22 C 0.04665(8) 0.87020(17) 0.14544(9)
H25 H 0.0068 0.8994 0.1397
H26 H 0.0450 0.7868 0.1477
C23 C 0.07681(8) 1.01776(17) 0.07294(9)
C24 C 0.06599(7) 0.90349(17) 0.08606(9)
C25 C 0.07319(8) 0.81895(18) 0.04264(10)
H27 H 0.0651 0.7428 0.0507
C26 C 0.09188(8) 0.8428(2) -0.01213(10)
C27 C 0.10430(9) 0.9561(2) -0.02375(10)
C28 C 0.09629(8) 1.04109(19) 0.01882(9)
H28 H 0.1044 1.1172 0.0106
C29 C 0.12856(11) 0.9883(3) -0.08023(11)
H29 H 0.1298 1.0707 -0.0838
H30 H 0.1032 0.9569 -0.1205
H31 H 0.1680 0.9576 -0.0721
C30 C 0.09864(10) 0.7452(2) -0.05647(11)
H32 H 0.0744 0.7602 -0.1006
H33 H 0.0862 0.6743 -0.0413
H34 H 0.1396 0.7391 -0.0557
O7 O 0.43937(5) 0.04574(12) 0.71998(6)
O8 O 0.28886(5) 0.12011(11) 0.46037(6)
O9 O 0.23181(6) -0.17082(13) 0.54130(7)
O10 O 0.27176(5) -0.20261(11) 0.64928(6)
O11 O 0.18946(6) 0.03919(13) 0.62346(7)
O12 O 0.26075(5) 0.05723(12) 0.71918(6)
N5 N 0.36696(6) -0.07053(12) 0.65219(6)
N6 N 0.32046(6) -0.02124(13) 0.53878(6)
N7 N 0.34505(6) 0.11166(13) 0.66635(6)
N8 N 0.26966(6) 0.12751(12) 0.56039(6)
C31 C 0.59664(8) -0.2226(2) 0.59397(11)
H35 H 0.6071 -0.2400 0.6401
H36 H 0.6215 -0.1614 0.5868
H37 H 0.6023 -0.2899 0.5702
C32 C 0.53769(9) -0.16490(19) 0.45324(10)
H38 H 0.5753 -0.1265 0.4699
H39 H 0.5147 -0.1274 0.4137
H40 H 0.5442 -0.2439 0.4438
C33 C 0.53237(8) -0.18567(15) 0.57005(10)
C34 C 0.49900(8) -0.17902(14) 0.61356(9)
H41 H 0.5180 -0.1931 0.6578
C35 C 0.43871(7) -0.15249(14) 0.59491(8)
C36 C 0.41070(8) -0.12653(14) 0.52904(9)
C37 C 0.44481(8) -0.12908(14) 0.48547(9)
H42 H 0.4267 -0.1091 0.4418
C38 C 0.50443(8) -0.15993(15) 0.50415(10)
C39 C 0.40622(8) -0.16434(16) 0.64638(9)
H43 H 0.3828 -0.2345 0.6372
H44 H 0.4358 -0.1743 0.6888
C40 C 0.34481(8) -0.10271(16) 0.50137(8)
H45 H 0.3372 -0.0734 0.4569
H46 H 0.3235 -0.1751 0.4986
C41 C 0.38948(8) 0.03153(16) 0.68311(8)
C42 C 0.29294(7) 0.07911(16) 0.51412(8)
C43 C 0.31232(7) -0.05049(15) 0.60153(8)
C44 C 0.26692(8) -0.14919(16) 0.59342(10)
C45 C 0.23022(9) -0.2983(2) 0.64711(10)
H47 H 0.1907 -0.2761 0.6203
H48 H 0.2282 -0.3137 0.6912
C46 C 0.24875(11) -0.4051(2) 0.61965(12)
H49 H 0.2461 -0.3930 0.5742
H50 H 0.2230 -0.4675 0.6232
H51 H 0.2891 -0.4237 0.6438
C47 C 0.29055(7) 0.06692(15) 0.62221(8)
C48 C 0.24006(9) 0.05387(16) 0.65443(10)
C49 C 0.21676(9) 0.0420(2) 0.75488(11)
H52 H 0.1838 0.0950 0.7381
H53 H 0.2013 -0.0360 0.7490
C50 C 0.24566(12) 0.0646(2) 0.82460(11)
H54 H 0.2768 0.0093 0.8414
H55 H 0.2169 0.0585 0.8484
H56 H 0.2623 0.1409 0.8298
C51 C 0.35170(8) 0.23038(15) 0.68850(8)
H57 H 0.3859 0.2363 0.7273
H58 H 0.3168 0.2530 0.7009
C52 C 0.25941(7) 0.25230(15) 0.55949(9)
H59 H 0.2378 0.2704 0.5907
H60 H 0.2345 0.2742 0.5161
C53 C 0.35967(8) 0.31235(15) 0.63671(8)
C54 C 0.31593(8) 0.32328(15) 0.57615(8)
C55 C 0.32564(9) 0.39956(16) 0.53058(9)
H61 H 0.2965 0.4073 0.4903
C56 C 0.37723(9) 0.46536(16) 0.54247(10)
C57 C 0.42118(8) 0.45323(15) 0.60225(10)
C58 C 0.41137(8) 0.37727(15) 0.64819(9)
H62 H 0.4406 0.3694 0.6884
C59 C 0.47928(9) 0.51749(17) 0.61727(11)
H63 H 0.5019 0.5041 0.6622
H64 H 0.4716 0.5985 0.6105
H65 H 0.5014 0.4909 0.5887
C60 C 0.38487(11) 0.5469(2) 0.48971(11)
H66 H 0.4128 0.5147 0.4695
H67 H 0.3994 0.6198 0.5093
H68 H 0.3472 0.5578 0.4570
C61? C 0.1248(3) 1.0992(11) 0.4576(4)
C62? C 0.0627(3) 1.1133(12) 0.4607(7)
C63? C -0.0582(5) 0.9725(15) 0.2662(6)
C64? C -0.0465(6) 0.961(2) 0.3392(5)
H69? H 0.1438 1.1742 0.4617
H70? H 0.1471 1.0520 0.4943
H71? H 0.0432 1.0395 0.4552
H72? H 0.0634 1.1449 0.5027
H73? H 0.0413 1.1644 0.4264
H74? H -0.0782 1.0451 0.2514
H75? H -0.0841 0.9105 0.2440
H76? H -0.0268 0.8892 0.3537
H77? H -0.0836 0.9631 0.3495
H78? H -0.0217 1.0236 0.3610
O13? O 0.1234(6) 1.2148(7) 0.3406(6)
O14? O 0.1264(5) 1.0456(9) 0.3960(4)
O15? O 0.0137(4) 1.1627(7) 0.2523(6)
O16? O -0.0033(5) 0.9682(9) 0.2497(6)
loop_
_geom_bond_atom_site_label_1
_geom_bond_atom_site_label_2
_geom_bond_site_symmetry_1
_geom_bond_site_symmetry_2
O1 C11 1_555 1_555
O2 C12 1_555 1_555
N1 C9 1_555 1_555
N2 C10 1_555 1_555
N3 C11 1_555 1_555
N4 C12 1_555 1_555
C1 H1 1_555 1_555
H2 C1 1_555 1_555
H3 C1 1_555 1_555
C2 H4 1_555 1_555
H5 C2 1_555 1_555
H6 C2 1_555 1_555
C3 C1 1_555 1_555
C4 C3 1_555 1_555
H7 C4 1_555 1_555
C5 C4 1_555 1_555
C6 C5 1_555 1_555
C7 C6 1_555 1_555
H8 C7 1_555 1_555
C8 C2 1_555 1_555
C9 C5 1_555 1_555
H9 C9 1_555 1_555
H10 C9 1_555 1_555
C10 C6 1_555 1_555
H11 C10 1_555 1_555
H12 C10 1_555 1_555
C11 N1 1_555 1_555
C12 N2 1_555 1_555
C13 N1 1_555 1_555
C14 C13 1_555 1_555
C15 H13 1_555 1_555
H14 C15 1_555 1_555
C16 C15 1_555 1_555
H15 C16 1_555 1_555
H16 C16 1_555 1_555
H17 C16 1_555 1_555
O3 C14 1_555 1_555
O4 C14 1_555 1_555
C17 N3 1_555 1_555
C18 C17 1_555 1_555
C19 H18 1_555 1_555
H19 C19 1_555 1_555
C20 C19 1_555 1_555
H20 C20 1_555 1_555
H21 C20 1_555 1_555
H22 C20 1_555 1_555
O5 C18 1_555 1_555
O6 C18 1_555 1_555
C21 N3 1_555 1_555
H23 C21 1_555 1_555
H24 C21 1_555 1_555
C22 N4 1_555 1_555
H25 C22 1_555 1_555
H26 C22 1_555 1_555
C23 C21 1_555 1_555
C24 C22 1_555 1_555
C25 C24 1_555 1_555
H27 C25 1_555 1_555
C26 C25 1_555 1_555
C27 C26 1_555 1_555
C28 C23 1_555 1_555
H28 C28 1_555 1_555
C29 C27 1_555 1_555
H29 C29 1_555 1_555
H30 C29 1_555 1_555
H31 C29 1_555 1_555
C30 C26 1_555 1_555
H32 C30 1_555 1_555
H33 C30 1_555 1_555
H34 C30 1_555 1_555
O7 C41 1_555 1_555
O8 C42 1_555 1_555
O9 C44 1_555 1_555
O10 C44 1_555 1_555
O11 C48 1_555 1_555
O12 C48 1_555 1_555
N5 C39 1_555 1_555
N6 C40 1_555 1_555
N7 C41 1_555 1_555
N8 C42 1_555 1_555
C31 H35 1_555 1_555
H36 C31 1_555 1_555
H37 C31 1_555 1_555
C32 H38 1_555 1_555
H39 C32 1_555 1_555
H40 C32 1_555 1_555
C33 C31 1_555 1_555
C34 C33 1_555 1_555
H41 C34 1_555 1_555
C35 C34 1_555 1_555
C36 C35 1_555 1_555
C37 C36 1_555 1_555
H42 C37 1_555 1_555
C38 C32 1_555 1_555
C39 C35 1_555 1_555
H43 C39 1_555 1_555
H44 C39 1_555 1_555
C40 C36 1_555 1_555
H45 C40 1_555 1_555
H46 C40 1_555 1_555
C41 N5 1_555 1_555
C42 N6 1_555 1_555
C43 N5 1_555 1_555
C44 C43 1_555 1_555
C45 O10 1_555 1_555
H47 C45 1_555 1_555
H48 C45 1_555 1_555
C46 C45 1_555 1_555
H49 C46 1_555 1_555
H50 C46 1_555 1_555
H51 C46 1_555 1_555
C47 N7 1_555 1_555
C48 C47 1_555 1_555
C49 O12 1_555 1_555
H52 C49 1_555 1_555
H53 C49 1_555 1_555
C50 C49 1_555 1_555
H54 C50 1_555 1_555
H55 C50 1_555 1_555
H56 C50 1_555 1_555
C51 N7 1_555 1_555
H57 C51 1_555 1_555
H58 C51 1_555 1_555
C52 N8 1_555 1_555
H59 C52 1_555 1_555
H60 C52 1_555 1_555
C53 C51 1_555 1_555
C54 C52 1_555 1_555
C55 C54 1_555 1_555
H61 C55 1_555 1_555
C56 C55 1_555 1_555
C57 C56 1_555 1_555
C58 C53 1_555 1_555
H62 C58 1_555 1_555
C59 C57 1_555 1_555
H63 C59 1_555 1_555
H64 C59 1_555 1_555
H65 C59 1_555 1_555
C60 C56 1_555 1_555
H66 C60 1_555 1_555
H67 C60 1_555 1_555
H68 C60 1_555 1_555
N2 C13 1_555 1_555
N4 C17 1_555 1_555
C3 C8 1_555 1_555
C7 C8 1_555 1_555
C13 C17 1_555 1_555
C15 O4 1_555 1_555
C19 O6 1_555 1_555
C23 C24 1_555 1_555
C27 C28 1_555 1_555
N6 C43 1_555 1_555
N8 C47 1_555 1_555
C33 C38 1_555 1_555
C37 C38 1_555 1_555
C43 C47 1_555 1_555
C53 C54 1_555 1_555
C57 C58 1_555 1_555

#END
