
#######################################################################
#
#                 Cambridge Crystallographic Data Centre
#                                CCDC 
#
#######################################################################
#
# If this CIF has been generated from an entry in the Cambridge 
# Structural Database, then it will include bibliographic, chemical, 
# crystal, experimental, refinement or atomic coordinate data resulting 
# from the CCDC's data processing and validation procedures.
#
#######################################################################

data_QUZJIF01
_chemical_formula_moiety         'C11 H11 N3 O2'
_chemical_name_systematic        
'Methyl 1-benzyl-1H-1,2,3-triazole-4-carboxylate'
_symmetry_cell_setting           monoclinic
_symmetry_space_group_name_H-M   'P 21/c'
_symmetry_Int_Tables_number      14
_space_group_name_Hall           '-P 2ybc'
loop_
_symmetry_equiv_pos_site_id
_symmetry_equiv_pos_as_xyz
1 x,y,z
2 -x,1/2+y,1/2-z
3 -x,-y,-z
4 x,1/2-y,1/2+z
_cell_length_a                   12.1314(5)
_cell_length_b                   5.5951(2)
_cell_length_c                   16.4339(7)
_cell_angle_alpha                90
_cell_angle_beta                 111.269(2)
_cell_angle_gamma                90
_cell_volume                     1039.5
_exptl_crystal_colour            colorless
_exptl_crystal_description       block
_cell_formula_units_Z            4
loop_
_atom_site_label
_atom_site_type_symbol
_atom_site_fract_x
_atom_site_fract_y
_atom_site_fract_z
O1 O 0.42198(9) 0.69503(18) 0.12417(7)
O2 O 0.48457(8) 1.07778(17) 0.14140(6)
N1 N 0.72598(10) 0.6443(2) 0.05455(8)
N2 N 0.73671(10) 0.8846(2) 0.05025(8)
N3 N 0.65449(10) 0.9814(2) 0.07392(7)
C1 C 0.38679(12) 1.1350(3) 0.16878(10)
H1 H 0.3120 1.0963 0.1216
H2 H 0.3886 1.3059 0.1824
H3 H 0.3937 1.0416 0.2208
C2 C 0.49029(12) 0.8482(2) 0.12006(9)
C3 C 0.59092(12) 0.8028(2) 0.09246(9)
C4 C 0.63590(12) 0.5865(2) 0.07993(9)
H4 H 0.6093 0.4313 0.0875
C5 C 0.80775(12) 0.4868(3) 0.03151(10)
H5 H 0.8025 0.5231 -0.0288
H6 H 0.7834 0.3184 0.0329
C6 C 0.93412(12) 0.5164(2) 0.09296(9)
C7 C 0.99967(13) 0.7151(3) 0.08686(10)
H7 H 0.9644 0.8338 0.0440
C8 C 1.11592(14) 0.7408(3) 0.14283(12)
H8 H 1.1597 0.8778 0.1384
C9 C 1.16869(14) 0.5690(3) 0.20491(11)
H9 H 1.2487 0.5870 0.2429
C10 C 1.10515(15) 0.3719(3) 0.21161(10)
H10 H 1.1413 0.2533 0.2544
C11 C 0.98753(14) 0.3449(3) 0.15582(10)
H11 H 0.9439 0.2085 0.1610
loop_
_geom_bond_atom_site_label_1
_geom_bond_atom_site_label_2
_geom_bond_site_symmetry_1
_geom_bond_site_symmetry_2
O1 C2 1_555 1_555
O2 C1 1_555 1_555
N1 N2 1_555 1_555
N2 N3 1_555 1_555
N3 C3 1_555 1_555
C1 H1 1_555 1_555
H2 C1 1_555 1_555
H3 C1 1_555 1_555
C2 O2 1_555 1_555
C3 C2 1_555 1_555
C4 N1 1_555 1_555
H4 C4 1_555 1_555
C5 N1 1_555 1_555
H5 C5 1_555 1_555
H6 C5 1_555 1_555
C6 C5 1_555 1_555
C7 C6 1_555 1_555
H7 C7 1_555 1_555
C8 C7 1_555 1_555
H8 C8 1_555 1_555
C9 C8 1_555 1_555
H9 C9 1_555 1_555
C10 C9 1_555 1_555
H10 C10 1_555 1_555
C11 C6 1_555 1_555
H11 C11 1_555 1_555
C3 C4 1_555 1_555
C10 C11 1_555 1_555

#END
