
#######################################################################
#
#                 Cambridge Crystallographic Data Centre
#                                CCDC 
#
#######################################################################
#
# If this CIF has been generated from an entry in the Cambridge 
# Structural Database, then it will include bibliographic, chemical, 
# crystal, experimental, refinement or atomic coordinate data resulting 
# from the CCDC's data processing and validation procedures.
#
#######################################################################

data_QUZPOR
_chemical_formula_moiety         'C12 H16 O3'
_chemical_name_systematic        1-(3,4-Dihydroxyphenyl)hexan-1-one
_chemical_properties_biological  'potential biological activity'
_symmetry_cell_setting           triclinic
_symmetry_space_group_name_H-M   'P -1'
_symmetry_Int_Tables_number      2
_space_group_name_Hall           '-P 1'
loop_
_symmetry_equiv_pos_site_id
_symmetry_equiv_pos_as_xyz
1 x,y,z
2 -x,-y,-z
_cell_length_a                   7.170(2)
_cell_length_b                   8.070(3)
_cell_length_c                   10.634(4)
_cell_angle_alpha                75.638(17)
_cell_angle_beta                 73.373(19)
_cell_angle_gamma                88.323(17)
_cell_volume                     570.574
_exptl_crystal_colour            colorless
_exptl_crystal_description       block
_cell_formula_units_Z            2
_exptl_crystal_recrystallization_method 'ethyl acetate/petroleum'
loop_
_atom_site_label
_atom_site_type_symbol
_atom_site_fract_x
_atom_site_fract_y
_atom_site_fract_z
C1 C 0.2119(4) 0.3836(3) 0.1188(3)
H1 H 0.1472 0.4851 0.1048
C2 C 0.1460(4) 0.2413(3) 0.0920(3)
C3 C 0.2425(4) 0.0894(3) 0.1127(3)
C4 C 0.4023(4) 0.0824(3) 0.1594(3)
H2 H 0.4670 -0.0191 0.1730
C5 C 0.4682(4) 0.2247(3) 0.1864(3)
H3 H 0.5768 0.2183 0.2183
C6 C 0.3743(4) 0.3774(3) 0.1665(3)
C7 C 0.4394(4) 0.5320(3) 0.1971(3)
C8 C 0.6048(4) 0.5200(3) 0.2579(3)
H4 H 0.7211 0.4946 0.1932
H5 H 0.5762 0.4244 0.3376
C9 C 0.6490(5) 0.6798(4) 0.2985(4)
H6 H 0.6914 0.7730 0.2176
H7 H 0.5302 0.7121 0.3565
C10 C 0.8016(5) 0.6562(4) 0.3708(4)
H8 H 0.9216 0.6285 0.3109
H9 H 0.7617 0.5589 0.4489
C11 C 0.8435(6) 0.8093(5) 0.4187(4)
H10 H 0.7271 0.8344 0.4833
H11 H 0.8805 0.9087 0.3422
C12 C 1.0097(8) 0.7713(6) 0.4859(5)
H12 H 0.9851 0.6605 0.5486
H13 H 1.0161 0.8568 0.5333
H14 H 1.1311 0.7729 0.4174
O1 O 0.1692(3) -0.0474(2) 0.0840(2)
H15 H 0.2286 -0.1328 0.1064
O2 O -0.0156(3) 0.2520(2) 0.0467(3)
H16 H -0.0279 0.1659 0.0214
O3 O 0.3591(3) 0.6667(2) 0.1739(2)
loop_
_geom_bond_atom_site_label_1
_geom_bond_atom_site_label_2
_geom_bond_site_symmetry_1
_geom_bond_site_symmetry_2
C1 H1 1_555 1_555
C2 C1 1_555 1_555
C3 C2 1_555 1_555
C4 C3 1_555 1_555
H2 C4 1_555 1_555
C5 C4 1_555 1_555
H3 C5 1_555 1_555
C6 C1 1_555 1_555
C7 C6 1_555 1_555
C8 C7 1_555 1_555
H4 C8 1_555 1_555
H5 C8 1_555 1_555
C9 C8 1_555 1_555
H6 C9 1_555 1_555
H7 C9 1_555 1_555
C10 C9 1_555 1_555
H8 C10 1_555 1_555
H9 C10 1_555 1_555
C11 C10 1_555 1_555
H10 C11 1_555 1_555
H11 C11 1_555 1_555
C12 C11 1_555 1_555
H12 C12 1_555 1_555
H13 C12 1_555 1_555
H14 C12 1_555 1_555
O1 C3 1_555 1_555
H15 O1 1_555 1_555
O2 C2 1_555 1_555
H16 O2 1_555 1_555
O3 C7 1_555 1_555
C5 C6 1_555 1_555

#END
