
#######################################################################
#
#                 Cambridge Crystallographic Data Centre
#                                CCDC 
#
#######################################################################
#
# If this CIF has been generated from an entry in the Cambridge 
# Structural Database, then it will include bibliographic, chemical, 
# crystal, experimental, refinement or atomic coordinate data resulting 
# from the CCDC's data processing and validation procedures.
#
#######################################################################

data_QUZQOS
_chemical_name_common            
'Dibutyl 5-((4-(ethoxycarbonyl)phenyl)diazenyl)isophthalate'
_chemical_formula_moiety         'C25 H30 N2 O6'
_chemical_name_systematic        
'Dibutyl 5-[(4-ethoxycarbonylphenyl)diazenyl]benzene-1,3-dicarboxylate'
_symmetry_cell_setting           triclinic
_symmetry_space_group_name_H-M   'P -1'
_symmetry_Int_Tables_number      2
_space_group_name_Hall           '-P 1'
loop_
_symmetry_equiv_pos_site_id
_symmetry_equiv_pos_as_xyz
1 x,y,z
2 -x,-y,-z
_cell_length_a                   8.675(2)
_cell_length_b                   11.299(3)
_cell_length_c                   13.636(3)
_cell_angle_alpha                97.311(3)
_cell_angle_beta                 94.806(3)
_cell_angle_gamma                109.793(2)
_cell_volume                     1235.82
_exptl_crystal_colour            yellow
_exptl_crystal_description       block
_cell_formula_units_Z            2
loop_
_atom_site_label
_atom_site_type_symbol
_atom_site_fract_x
_atom_site_fract_y
_atom_site_fract_z
O1 O 1.0434(3) 0.2950(2) 0.48258(15)
O2 O 0.8502(3) 0.3718(2) 0.52977(16)
O3 O 0.7562(3) -0.0204(2) 0.05822(16)
O4 O 0.9356(3) -0.0106(2) 0.18814(15)
O5 O -0.2310(2) 0.3824(2) 0.02977(15)
O6 O -0.1835(3) 0.5354(2) 0.1600(2)
N1 N 0.4477(3) 0.2563(2) 0.19969(16)
N2 N 0.4018(3) 0.3269(2) 0.25818(16)
C1 C 1.3390(8) -0.0964(7) 0.3283(5)
H1 H 1.3681 -0.1621 0.2913
H2 H 1.3211 -0.1154 0.3940
H3 H 1.4271 -0.0159 0.3333
C2 C 1.1938(10) -0.0905(10) 0.2790(6)
H4 H 1.1052 -0.1568 0.3004
H5 H 1.1878 -0.0105 0.3104
C3 C 1.1450(9) -0.0977(7) 0.1825(5)
H6 H 1.1593 -0.1744 0.1507
H7 H 1.2301 -0.0275 0.1625
C4 C 0.9940(5) -0.0991(4) 0.1300(3)
H8 H 0.9116 -0.1843 0.1198
H9 H 1.0129 -0.0745 0.0652
C5 C 1.2579(9) 0.1314(8) 0.5848(7)
H10 H 1.2809 0.1655 0.6548
H11 H 1.3017 0.0643 0.5720
H12 H 1.1405 0.0980 0.5646
C6 C 1.3321(7) 0.2288(7) 0.5303(5)
H13 H 1.2823 0.2014 0.4611
H14 H 1.4485 0.2407 0.5327
C7 C 1.3166(5) 0.3532(4) 0.5670(4)
H15 H 1.3649 0.4117 0.5223
H16 H 1.3831 0.3866 0.6319
C8 C 1.1471(4) 0.3556(3) 0.5769(2)
H17 H 1.1025 0.3102 0.6298
H18 H 1.1516 0.4429 0.5931
C9 C 0.8992(4) 0.3119(3) 0.4689(2)
C10 C 0.8072(3) 0.2505(2) 0.36752(19)
C11 C 0.8557(3) 0.1654(2) 0.3055(2)
H19 H 0.9463 0.1446 0.3274
C12 C 0.7685(3) 0.1118(2) 0.21106(19)
C13 C 0.8165(3) 0.0201(3) 0.1433(2)
C14 C 0.6346(3) 0.1444(2) 0.1786(2)
H20 H 0.5769 0.1095 0.1150
C15 C 0.5867(3) 0.2286(2) 0.24046(19)
C16 C 0.6712(3) 0.2805(2) 0.33568(19)
H21 H 0.6367 0.3351 0.3779
C17 C 0.2637(3) 0.3539(2) 0.21661(19)
C18 C 0.1725(3) 0.2944(3) 0.1236(2)
H22 H 0.2007 0.2334 0.0842
C19 C 0.0408(3) 0.3268(3) 0.0906(2)
H23 H -0.0207 0.2868 0.0287
C20 C -0.0022(3) 0.4184(2) 0.1480(2)
C21 C 0.0888(3) 0.4765(3) 0.2404(2)
H24 H 0.0611 0.5380 0.2796
C22 C 0.2203(3) 0.4437(3) 0.2744(2)
H25 H 0.2802 0.4824 0.3369
C23 C -0.1457(4) 0.4536(3) 0.1153(2)
C24 C -0.3775(4) 0.4066(4) -0.0072(3)
H26 H -0.3473 0.4937 -0.0197
H27 H -0.4538 0.3948 0.0419
C25 C -0.4555(5) 0.3171(5) -0.0998(4)
H28 H -0.3772 0.3263 -0.1467
H29 H -0.5491 0.3349 -0.1276
H30 H -0.4913 0.2314 -0.0860
loop_
_geom_bond_atom_site_label_1
_geom_bond_atom_site_label_2
_geom_bond_site_symmetry_1
_geom_bond_site_symmetry_2
O1 C8 1_555 1_555
O2 C9 1_555 1_555
O3 C13 1_555 1_555
O4 C4 1_555 1_555
O5 C23 1_555 1_555
O6 C23 1_555 1_555
N1 N2 1_555 1_555
N2 C17 1_555 1_555
C1 H1 1_555 1_555
H2 C1 1_555 1_555
H3 C1 1_555 1_555
C2 C1 1_555 1_555
H4 C2 1_555 1_555
H5 C2 1_555 1_555
C3 C2 1_555 1_555
H6 C3 1_555 1_555
H7 C3 1_555 1_555
C4 C3 1_555 1_555
H8 C4 1_555 1_555
H9 C4 1_555 1_555
C5 H10 1_555 1_555
H11 C5 1_555 1_555
H12 C5 1_555 1_555
C6 C5 1_555 1_555
H13 C6 1_555 1_555
H14 C6 1_555 1_555
C7 C6 1_555 1_555
H15 C7 1_555 1_555
H16 C7 1_555 1_555
C8 C7 1_555 1_555
H17 C8 1_555 1_555
H18 C8 1_555 1_555
C9 O1 1_555 1_555
C10 C9 1_555 1_555
C11 C10 1_555 1_555
H19 C11 1_555 1_555
C12 C11 1_555 1_555
C13 O4 1_555 1_555
C14 C12 1_555 1_555
H20 C14 1_555 1_555
C15 N1 1_555 1_555
C16 C10 1_555 1_555
H21 C16 1_555 1_555
C17 C18 1_555 1_555
C18 H22 1_555 1_555
C19 C18 1_555 1_555
H23 C19 1_555 1_555
C20 C19 1_555 1_555
C21 C20 1_555 1_555
H24 C21 1_555 1_555
C22 C17 1_555 1_555
H25 C22 1_555 1_555
C23 C20 1_555 1_555
C24 O5 1_555 1_555
H26 C24 1_555 1_555
H27 C24 1_555 1_555
C25 C24 1_555 1_555
H28 C25 1_555 1_555
H29 C25 1_555 1_555
H30 C25 1_555 1_555
C12 C13 1_555 1_555
C14 C15 1_555 1_555
C15 C16 1_555 1_555
C21 C22 1_555 1_555

#END
