
#######################################################################
#
#                 Cambridge Crystallographic Data Centre
#                                CCDC 
#
#######################################################################
#
# If this CIF has been generated from an entry in the Cambridge 
# Structural Database, then it will include bibliographic, chemical, 
# crystal, experimental, refinement or atomic coordinate data resulting 
# from the CCDC's data processing and validation procedures.
#
#######################################################################

data_QUZRUZ
_chemical_formula_moiety         'C17 H11 F1 N4 O3 S2'
_chemical_name_systematic        
2-(4-Fluorophenyl)-3-(5-(4-nitrophenyl)-1,3,4-thiadiazol-2-yl)-1,3-thiazolidin-4-one
_symmetry_cell_setting           triclinic
_symmetry_space_group_name_H-M   'P -1'
_symmetry_Int_Tables_number      2
_space_group_name_Hall           '-P 1'
loop_
_symmetry_equiv_pos_site_id
_symmetry_equiv_pos_as_xyz
1 x,y,z
2 -x,-y,-z
_cell_length_a                   7.2360(14)
_cell_length_b                   9.1340(18)
_cell_length_c                   14.464(3)
_cell_angle_alpha                71.67(2)
_cell_angle_beta                 87.16(3)
_cell_angle_gamma                75.69(2)
_cell_volume                     878.903
_exptl_crystal_colour            colorless
_exptl_crystal_description       plate
_chemical_melting_point          '468-469 K'
_cell_formula_units_Z            2
_exptl_crystal_recrystallization_method acetone
loop_
_atom_site_label
_atom_site_type_symbol
_atom_site_fract_x
_atom_site_fract_y
_atom_site_fract_z
S1 S -0.38553(16) 0.40768(16) 0.33761(10)
S2 S 0.04152(14) 0.21307(12) 0.06830(8)
F1 F 0.4006(4) 0.1694(3) 0.5770(2)
O1 O -0.2824(4) 0.1676(4) 0.1585(2)
O2 O 0.9132(6) 0.1639(5) -0.2536(3)
O3 O 0.7277(6) 0.0551(5) -0.2946(3)
N1 N -0.1477(4) 0.3266(4) 0.2108(2)
N2 N 0.1157(5) 0.4161(3) 0.1383(2)
N3 N 0.2535(5) 0.3935(4) 0.0692(2)
N4 N 0.7610(8) 0.1341(6) -0.2506(4)
C1 C 0.0664(6) 0.1986(6) 0.3988(3)
H1 H 0.0117 0.1288 0.3813
C2 C 0.2070(8) 0.1378(7) 0.4716(4)
H2 H 0.2581 0.0290 0.4985
C3 C 0.2620(7) 0.2377(9) 0.4996(4)
C4 C 0.2190(8) 0.4000(8) 0.4583(4)
H3 H 0.2763 0.4664 0.4780
C5 C 0.0798(7) 0.4547(6) 0.3836(4)
H4 H 0.0356 0.5637 0.3538
C6 C 0.0073(6) 0.3531(6) 0.3532(3)
C7 C -0.1554(5) 0.4201(4) 0.2769(3)
H5 H -0.1582 0.5308 0.2398
C8 C -0.4389(6) 0.2787(5) 0.2801(3)
H6 H -0.4480 0.1799 0.3289
H7 H -0.5612 0.3270 0.2454
C9 C -0.2846(7) 0.2443(6) 0.2088(4)
C10 C -0.0012(5) 0.3287(4) 0.1446(3)
C11 C 0.2339(6) 0.2965(5) 0.0283(3)
C12 C 0.3617(6) 0.2569(5) -0.0445(3)
C13 C 0.3348(6) 0.1556(5) -0.0957(3)
H8 H 0.2304 0.1107 -0.0828
C14 C 0.4619(7) 0.1221(5) -0.1651(3)
H9 H 0.4381 0.0628 -0.2029
C15 C 0.6262(7) 0.1787(5) -0.1773(3)
C16 C 0.6601(6) 0.2724(6) -0.1301(3)
H10 H 0.7680 0.3127 -0.1423
C17 C 0.5285(6) 0.3094(5) -0.0611(3)
H11 H 0.5540 0.3712 -0.0254
loop_
_geom_bond_atom_site_label_1
_geom_bond_atom_site_label_2
_geom_bond_site_symmetry_1
_geom_bond_site_symmetry_2
S1 C7 1_555 1_555
S2 C10 1_555 1_555
F1 C3 1_555 1_555
O1 C9 1_555 1_555
O2 N4 1_555 1_555
O3 N4 1_555 1_555
N1 C7 1_555 1_555
N2 N3 1_555 1_555
N3 C11 1_555 1_555
N4 C15 1_555 1_555
C1 H1 1_555 1_555
C2 C1 1_555 1_555
H2 C2 1_555 1_555
C3 C2 1_555 1_555
C4 C3 1_555 1_555
H3 C4 1_555 1_555
C5 C4 1_555 1_555
H4 C5 1_555 1_555
C6 C1 1_555 1_555
C7 C6 1_555 1_555
H5 C7 1_555 1_555
C8 S1 1_555 1_555
H6 C8 1_555 1_555
H7 C8 1_555 1_555
C9 N1 1_555 1_555
C10 N1 1_555 1_555
C11 S2 1_555 1_555
C12 C11 1_555 1_555
C13 C12 1_555 1_555
H8 C13 1_555 1_555
C14 C13 1_555 1_555
H9 C14 1_555 1_555
C15 C14 1_555 1_555
C16 C15 1_555 1_555
H10 C16 1_555 1_555
C17 C12 1_555 1_555
H11 C17 1_555 1_555
N2 C10 1_555 1_555
C5 C6 1_555 1_555
C8 C9 1_555 1_555
C16 C17 1_555 1_555

#END
