
#######################################################################
#
#                 Cambridge Crystallographic Data Centre
#                                CCDC 
#
#######################################################################
#
# If this CIF has been generated from an entry in the Cambridge 
# Structural Database, then it will include bibliographic, chemical, 
# crystal, experimental, refinement or atomic coordinate data resulting 
# from the CCDC's data processing and validation procedures.
#
#######################################################################

data_QUZTAH
_chemical_formula_moiety         'C10 H2 Cl4 F3 N1 O2'
_chemical_name_systematic        
4,5,6,7-Tetrachloro-2-(2,2,2-trifluoroethyl)isoindoline-1,3-dione
_symmetry_cell_setting           triclinic
_symmetry_space_group_name_H-M   'P -1'
_symmetry_Int_Tables_number      2
_space_group_name_Hall           '-P 1'
loop_
_symmetry_equiv_pos_site_id
_symmetry_equiv_pos_as_xyz
1 x,y,z
2 -x,-y,-z
_cell_length_a                   4.943(4)
_cell_length_b                   10.759(9)
_cell_length_c                   12.130(11)
_cell_angle_alpha                101.373(19)
_cell_angle_beta                 101.18(2)
_cell_angle_gamma                92.704(3)
_cell_volume                     617.975
_exptl_crystal_colour            colorless
_exptl_crystal_description       prism
_chemical_melting_point          '477 K'
_cell_formula_units_Z            2
_exptl_crystal_recrystallization_method 'ethyl acetate'
loop_
_atom_site_label
_atom_site_type_symbol
_atom_site_fract_x
_atom_site_fract_y
_atom_site_fract_z
Cl1 Cl 0.45684(8) 0.62343(4) 0.10599(3)
Cl2 Cl 0.43932(10) 0.86631(4) 0.29132(4)
Cl3 Cl 0.10966(10) 0.85656(4) 0.48243(4)
Cl4 Cl -0.26190(9) 0.61244(4) 0.47757(4)
F1 F 0.1532(2) 0.08394(12) 0.15299(12)
F2 F -0.2343(3) -0.03074(10) 0.09326(10)
F3 F -0.1393(3) 0.08654(11) 0.26249(10)
O1 O 0.1734(2) 0.34347(11) 0.05198(10)
O2 O -0.4074(2) 0.34517(12) 0.30361(11)
N1 N -0.1296(3) 0.31251(13) 0.16870(12)
C1 C 0.0657(3) 0.38289(16) 0.13115(15)
C2 C 0.1009(3) 0.51129(16) 0.20884(14)
C3 C 0.2573(3) 0.61999(16) 0.20684(14)
C4 C 0.2506(3) 0.72884(15) 0.29118(15)
C5 C 0.0966(4) 0.72557(16) 0.37583(14)
C6 C -0.0662(3) 0.61525(16) 0.37516(15)
C7 C -0.0635(3) 0.50918(16) 0.28992(14)
C8 C -0.2256(3) 0.38237(16) 0.26155(14)
C9 C -0.2519(4) 0.18735(16) 0.10544(15)
H1 H -0.2347 0.1774 0.0243
H2 H -0.4515 0.1801 0.1069
C10 C -0.1160(4) 0.08224(17) 0.15460(15)
loop_
_geom_bond_atom_site_label_1
_geom_bond_atom_site_label_2
_geom_bond_site_symmetry_1
_geom_bond_site_symmetry_2
Cl1 C3 1_555 1_555
Cl2 C4 1_555 1_555
Cl3 C5 1_555 1_555
Cl4 C6 1_555 1_555
F1 C10 1_555 1_555
F2 C10 1_555 1_555
F3 C10 1_555 1_555
O1 C1 1_555 1_555
O2 C8 1_555 1_555
N1 C1 1_555 1_555
C1 C2 1_555 1_555
C2 C3 1_555 1_555
C3 C4 1_555 1_555
C4 C5 1_555 1_555
C5 C6 1_555 1_555
C6 C7 1_555 1_555
C7 C2 1_555 1_555
C8 N1 1_555 1_555
C9 N1 1_555 1_555
H1 C9 1_555 1_555
H2 C9 1_555 1_555
C10 C9 1_555 1_555
C7 C8 1_555 1_555

#END
