
#######################################################################
#
#                 Cambridge Crystallographic Data Centre
#                                CCDC 
#
#######################################################################
#
# If this CIF has been generated from an entry in the Cambridge 
# Structural Database, then it will include bibliographic, chemical, 
# crystal, experimental, refinement or atomic coordinate data resulting 
# from the CCDC's data processing and validation procedures.
#
#######################################################################

data_QUZZOA
_chemical_formula_moiety         'C69 H82 O5 Si2,2(C1 H1 Cl3)'
_chemical_name_systematic        
'(\m~2~-5,11,17,23,29-penta-t-butyl-31-hydroxycalix(5)arene-32,33,34,35-tetraoxy)-bis(dimethylsilane) chloroform clathrate chloroform solvate'
_symmetry_cell_setting           triclinic
_symmetry_space_group_name_H-M   'P -1'
_symmetry_Int_Tables_number      2
_space_group_name_Hall           '-P 1'
loop_
_symmetry_equiv_pos_site_id
_symmetry_equiv_pos_as_xyz
1 x,y,z
2 -x,-y,-z
_cell_length_a                   11.627(1)
_cell_length_b                   17.366(1)
_cell_length_c                   18.580(2)
_cell_angle_alpha                104.786(8)
_cell_angle_beta                 91.756(7)
_cell_angle_gamma                105.536(8)
_cell_volume                     3475.02
_exptl_crystal_colour            colorless
_chemical_melting_point          296deg.C(dec.)
_cell_formula_units_Z            2
loop_
_atom_site_label
_atom_site_type_symbol
_atom_site_fract_x
_atom_site_fract_y
_atom_site_fract_z
Si1 Si 0.7166(1) 0.5015(1) 0.3187(1)
Si2 Si 0.2290(1) 0.4616(1) 0.2080(1)
O1 O 0.3832(2) 0.3948(2) 0.3706(2)
O2 O 0.6546(2) 0.4215(2) 0.3508(2)
O3 O 0.7182(2) 0.4717(1) 0.2276(1)
O4 O 0.3247(2) 0.4150(2) 0.1641(1)
O5 O 0.1256(3) 0.3916(2) 0.2334(2)
C1 C 0.6152(4) 0.5670(3) 0.3383(3)
C2 C 0.3058(4) 0.5402(3) 0.2946(2)
C3 C 0.3436(3) 0.3396(2) 0.4126(2)
C4 C 0.2205(3) 0.3023(2) 0.4064(2)
C5 C 0.1792(3) 0.2452(2) 0.4477(2)
C6 C 0.2552(3) 0.2245(2) 0.4945(2)
C7 C 0.3764(3) 0.2664(2) 0.5005(2)
C8 C 0.4227(3) 0.3244(2) 0.4617(2)
C9 C 0.2046(4) 0.1573(3) 0.5343(2)
C10 C 0.1076(4) 0.1797(4) 0.5817(3)
C11 C 0.1538(6) 0.0743(3) 0.4745(3)
C12 C 0.3025(4) 0.1491(3) 0.5872(3)
C13 C 0.6830(3) 0.3530(2) 0.3630(2)
C14 C 0.6278(3) 0.3218(2) 0.4192(2)
C15 C 0.6406(3) 0.2466(2) 0.4265(2)
C16 C 0.7082(3) 0.2030(2) 0.3820(2)
C17 C 0.7695(3) 0.2400(2) 0.3299(2)
C18 C 0.7592(3) 0.3143(2) 0.3194(2)
C19 C 0.7170(3) 0.1179(3) 0.3895(2)
C20 C 0.6341(8) 0.0848(6) 0.4433(5)
C21 C 0.6826(9) 0.0543(4) 0.3121(4)
C22 C 0.8460(5) 0.1264(5) 0.4154(6)
C26 C 0.6939(3) 0.3938(2) 0.1774(2)
C27 C 0.7497(3) 0.3356(2) 0.1897(2)
C28 C 0.7322(4) 0.2614(2) 0.1348(2)
C29 C 0.6587(4) 0.2424(2) 0.0689(2)
C30 C 0.6005(4) 0.3002(2) 0.0605(2)
C31 C 0.6158(3) 0.3762(2) 0.1129(2)
C32 C 0.6421(4) 0.1621(2) 0.0056(2)
C33 C 0.7120(2) 0.1821(16) -0.0588(11)
C34 C 0.5102(8) 0.1202(13) -0.0247(16)
C35 C 0.6904(18) 0.1006(7) 0.0344(11)
C39 C 0.3209(4) 0.3795(2) 0.0876(2)
C40 C 0.4297(3) 0.3969(2) 0.0554(2)
C41 C 0.4252(3) 0.3688(2) -0.0227(2)
C42 C 0.3202(4) 0.3196(2) -0.0673(2)
C43 C 0.2171(4) 0.2983(3) -0.0315(2)
C44 C 0.2141(3) 0.3276(2) 0.0456(2)
C45 C 0.3158(4) 0.2848(3) -0.1527(2)
C46 C 0.2829(7) 0.1909(3) -0.1737(3)
C47 C 0.4371(5) 0.3164(3) -0.1813(2)
C48 C 0.2248(5) 0.3151(4) -0.1915(3)
C49 C 0.1140(3) 0.3076(2) 0.2167(2)
C50 C 0.0956(3) 0.2602(3) 0.1417(2)
C51 C 0.0709(3) 0.1753(3) 0.1262(2)
C52 C 0.0633(3) 0.1350(3) 0.1822(2)
C53 C 0.0860(3) 0.1844(2) 0.2558(2)
C54 C 0.1130(3) 0.2709(2) 0.2748(2)
C55 C 0.0297(4) 0.0388(3) 0.1617(3)
C56 C 0.1215(6) 0.0088(4) 0.1130(4)
C57 C -0.0961(5) 0.0036(3) 0.1166(3)
C58 C 0.0259(5) 0.0056(3) 0.2298(3)
C59 C 0.5561(3) 0.3677(2) 0.4724(2)
C60 C 0.8283(3) 0.3505(2) 0.2618(2)
C61 C 0.5494(3) 0.4384(2) 0.1013(2)
C62 C 0.0939(4) 0.3010(3) 0.0774(2)
C63 C 0.1328(3) 0.3219(2) 0.3565(2)
C64 C 0.8708(4) 0.5564(2) 0.3659(2)
C65 C 0.9539(4) 0.6049(3) 0.3325(3)
C66 C 1.0674(5) 0.6490(4) 0.3692(5)
C67 C 1.0998(7) 0.6433(5) 0.4388(6)
C68 C 1.0182(8) 0.6004(5) 0.4732(4)
C69 C 0.9035(5) 0.5569(4) 0.4379(3)
C70 C 0.1568(4) 0.5099(3) 0.1474(2)
C71 C 0.0384(4) 0.5114(3) 0.1530(3)
C72 C -0.0143(5) 0.5523(4) 0.1121(3)
C73 C 0.0502(6) 0.5934(4) 0.0655(3)
C74 C 0.1689(6) 0.5903(3) 0.0574(3)
C75 C 0.2212(4) 0.5517(3) 0.0991(3)
H1 H 0.4550 0.4012 0.3669
H2 H 0.6511 0.6191 0.3280
H3 H 0.6008 0.5767 0.3900
H4 H 0.5405 0.5396 0.3073
H5 H 0.2486 0.5639 0.3212
H6 H 0.3666 0.5831 0.2822
H7 H 0.3423 0.5145 0.3253
H8 H 0.0971 0.2197 0.4438
H9 H 0.4293 0.2550 0.5322
H10 H 0.1416 0.2317 0.6188
H11 H 0.0757 0.1371 0.6058
H12 H 0.0445 0.1846 0.5501
H13 H 0.0949 0.0795 0.4401
H14 H 0.1172 0.0319 0.4980
H15 H 0.2177 0.0595 0.4478
H16 H 0.3628 0.1315 0.5585
H17 H 0.2672 0.1087 0.6131
H18 H 0.3386 0.2018 0.6228
H19 H 0.6019 0.2246 0.4629
H20 H 0.8191 0.2136 0.3012
H21 H 0.5526 0.0797 0.4269
H22 H 0.6561 0.1224 0.4926
H23 H 0.6411 0.0312 0.4444
H24 H 0.6014 0.0487 0.2945
H25 H 0.6892 0.0016 0.3158
H26 H 0.7356 0.0731 0.2775
H27 H 0.8980 0.1474 0.3814
H28 H 0.8536 0.0730 0.4166
H29 H 0.8680 0.1642 0.4646
H39 H 0.7708 0.2232 0.1424
H40 H 0.5484 0.2873 0.0174
H41 H 0.7928 0.2148 -0.0396
H42 H 0.6740 0.2129 -0.0831
H43 H 0.7133 0.1314 -0.0942
H44 H 0.4684 0.1617 -0.0202
H45 H 0.4745 0.0823 0.0034
H46 H 0.5049 0.0903 -0.0765
H47 H 0.7167 0.1235 0.0869
H48 H 0.7567 0.0905 0.0078
H49 H 0.6280 0.0494 0.0266
H59 H 0.4949 0.3836 -0.0453
H60 H 0.1471 0.2628 -0.0604
H61 H 0.3407 0.1739 -0.1481
H62 H 0.2826 0.1698 -0.2268
H63 H 0.2046 0.1693 -0.1594
H64 H 0.4961 0.2966 -0.1601
H65 H 0.4617 0.3761 -0.1668
H66 H 0.4294 0.2963 -0.2349
H67 H 0.2269 0.2982 -0.2447
H68 H 0.2449 0.3746 -0.1745
H69 H 0.1457 0.2915 -0.1795
H70 H 0.0589 0.1438 0.0765
H71 H 0.0831 0.1587 0.2941
H72 H 0.1979 0.0257 0.1423
H73 H 0.1289 0.0325 0.0715
H74 H 0.0952 -0.0507 0.0948
H75 H -0.1150 -0.0558 0.0989
H76 H -0.0962 0.0264 0.0747
H77 H -0.1549 0.0183 0.1482
H78 H 0.1031 0.0274 0.2586
H79 H 0.0055 -0.0539 0.2140
H80 H -0.0334 0.0223 0.2599
H81 H 0.5866 0.3743 0.5235
H82 H 0.5685 0.4228 0.4656
H83 H 0.8936 0.3259 0.2503
H84 H 0.8632 0.4099 0.2832
H85 H 0.5374 0.4710 0.1498
H86 H 0.5990 0.4762 0.0767
H87 H 0.0358 0.2623 0.0369
H88 H 0.0657 0.3496 0.0950
H89 H 0.1617 0.3803 0.3583
H90 H 0.0560 0.3133 0.3768
H91 H 0.9338 0.6082 0.2847
H92 H 1.1218 0.6825 0.3464
H93 H 1.1778 0.6692 0.4617
H94 H 1.0382 0.5995 0.5217
H95 H 0.8479 0.5276 0.4634
H96 H -0.0065 0.4846 0.1848
H97 H -0.0940 0.5518 0.1163
H98 H 0.0160 0.6228 0.0399
H99 H 0.2120 0.6146 0.0236
H100 H 0.3013 0.5532 0.0954
C76 C 0.4545(4) 0.1663(3) 0.2485(3)
Cl1 Cl 0.4054(1) 0.2331(1) 0.2077(1)
Cl2 Cl 0.3572(1) 0.1338(1) 0.3119(1)
Cl3 Cl 0.4691(2) 0.0792(1) 0.1794(1)
H101 H 0.5337 0.1964 0.2761
C77 C 0.7252(6) 0.1477(5) 0.7252(4)
Cl4 Cl 0.5989(7) 0.1644(7) 0.6984(7)
Cl5 Cl 0.8194(7) 0.2338(4) 0.7788(2)
Cl6 Cl 0.7861(6) 0.1046(3) 0.6518(3)
H102 H 0.7047 0.1081 0.7553
C23? C 0.5931(7) 0.0601(8) 0.3902(11)
C24? C 0.7830(16) 0.0741(9) 0.3305(8)
C25? C 0.7875(17) 0.1386(9) 0.4663(6)
C36? C 0.6810(3) 0.1842(15) -0.0662(9)
C37? C 0.5076(6) 0.1175(8) -0.0068(16)
C38? C 0.7089(16) 0.1021(10) 0.0209(14)
C78? C 0.7445(9) 0.1625(6) 0.6885(9)
Cl7? Cl 0.6836(11) 0.0759(5) 0.7117(7)
Cl8? Cl 0.8758(9) 0.2137(9) 0.7376(11)
Cl9? Cl 0.6523(9) 0.2209(7) 0.6944(11)
H30? H 0.5509 0.0880 0.4269
H31? H 0.6013 0.0112 0.4024
H32? H 0.5490 0.0445 0.3417
H33? H 0.7850 0.0224 0.3394
H34? H 0.8635 0.1086 0.3330
H35? H 0.7421 0.0635 0.2818
H36? H 0.7504 0.1703 0.5036
H37? H 0.8686 0.1703 0.4652
H38? H 0.7878 0.0880 0.4783
H50? H 0.7632 0.2172 -0.0577
H51? H 0.6313 0.2152 -0.0806
H52? H 0.6721 0.1341 -0.1054
H53? H 0.4677 0.1462 0.0310
H54? H 0.4948 0.0615 -0.0039
H55? H 0.4758 0.1169 -0.0553
H56? H 0.7829 0.1332 0.0516
H57? H 0.7256 0.0699 -0.0257
H58? H 0.6601 0.0658 0.0463
H103? H 0.7594 0.1464 0.6359
loop_
_geom_bond_atom_site_label_1
_geom_bond_atom_site_label_2
_geom_bond_site_symmetry_1
_geom_bond_site_symmetry_2
Si1 O2 1_555 1_555
Si2 O4 1_555 1_555
O1 C3 1_555 1_555
O2 C13 1_555 1_555
O3 Si1 1_555 1_555
O4 C39 1_555 1_555
O5 Si2 1_555 1_555
C1 Si1 1_555 1_555
C2 Si2 1_555 1_555
C3 C4 1_555 1_555
C4 C5 1_555 1_555
C5 C6 1_555 1_555
C6 C7 1_555 1_555
C7 C8 1_555 1_555
C8 C3 1_555 1_555
C9 C6 1_555 1_555
C10 C9 1_555 1_555
C11 C9 1_555 1_555
C12 C9 1_555 1_555
C13 C14 1_555 1_555
C14 C15 1_555 1_555
C15 C16 1_555 1_555
C16 C17 1_555 1_555
C17 C18 1_555 1_555
C18 C13 1_555 1_555
C19 C16 1_555 1_555
C20 C19 1_555 1_555
C21 C19 1_555 1_555
C22 C19 1_555 1_555
C26 O3 1_555 1_555
C27 C26 1_555 1_555
C28 C27 1_555 1_555
C29 C28 1_555 1_555
C30 C29 1_555 1_555
C31 C26 1_555 1_555
C32 C29 1_555 1_555
C33 C32 1_555 1_555
C34 C32 1_555 1_555
C35 C32 1_555 1_555
C39 C40 1_555 1_555
C40 C41 1_555 1_555
C41 C42 1_555 1_555
C42 C43 1_555 1_555
C43 C44 1_555 1_555
C44 C39 1_555 1_555
C45 C42 1_555 1_555
C46 C45 1_555 1_555
C47 C45 1_555 1_555
C48 C45 1_555 1_555
C49 O5 1_555 1_555
C50 C49 1_555 1_555
C51 C50 1_555 1_555
C52 C51 1_555 1_555
C53 C52 1_555 1_555
C54 C49 1_555 1_555
C55 C52 1_555 1_555
C56 C55 1_555 1_555
C57 C55 1_555 1_555
C58 C55 1_555 1_555
C59 C8 1_555 1_555
C60 C18 1_555 1_555
C61 C31 1_555 1_555
C62 C44 1_555 1_555
C63 C4 1_555 1_555
C64 Si1 1_555 1_555
C65 C64 1_555 1_555
C66 C65 1_555 1_555
C67 C66 1_555 1_555
C68 C67 1_555 1_555
C69 C64 1_555 1_555
C70 Si2 1_555 1_555
C71 C70 1_555 1_555
C72 C71 1_555 1_555
C73 C72 1_555 1_555
C74 C73 1_555 1_555
C75 C70 1_555 1_555
C76 Cl1 1_555 1_555
Cl2 C76 1_555 1_555
Cl3 C76 1_555 1_555
C77 Cl4 1_555 1_555
Cl5 C77 1_555 1_555
Cl6 C77 1_555 1_555
H1 O1 1_555 1_555
H2 C1 1_555 1_555
H3 C1 1_555 1_555
H4 C1 1_555 1_555
H5 C2 1_555 1_555
H6 C2 1_555 1_555
H7 C2 1_555 1_555
H8 C5 1_555 1_555
H9 C7 1_555 1_555
H10 C10 1_555 1_555
H11 C10 1_555 1_555
H12 C10 1_555 1_555
H13 C11 1_555 1_555
H14 C11 1_555 1_555
H15 C11 1_555 1_555
H16 C12 1_555 1_555
H17 C12 1_555 1_555
H18 C12 1_555 1_555
H19 C15 1_555 1_555
H20 C17 1_555 1_555
H21 C20 1_555 1_555
H22 C20 1_555 1_555
H23 C20 1_555 1_555
H24 C21 1_555 1_555
H25 C21 1_555 1_555
H26 C21 1_555 1_555
H27 C22 1_555 1_555
H28 C22 1_555 1_555
H29 C22 1_555 1_555
H39 C28 1_555 1_555
H40 C30 1_555 1_555
H41 C33 1_555 1_555
H42 C33 1_555 1_555
H43 C33 1_555 1_555
H44 C34 1_555 1_555
H45 C34 1_555 1_555
H46 C34 1_555 1_555
H47 C35 1_555 1_555
H48 C35 1_555 1_555
H49 C35 1_555 1_555
H59 C41 1_555 1_555
H60 C43 1_555 1_555
H61 C46 1_555 1_555
H62 C46 1_555 1_555
H63 C46 1_555 1_555
H64 C47 1_555 1_555
H65 C47 1_555 1_555
H66 C47 1_555 1_555
H67 C48 1_555 1_555
H68 C48 1_555 1_555
H69 C48 1_555 1_555
H70 C51 1_555 1_555
H71 C53 1_555 1_555
H72 C56 1_555 1_555
H73 C56 1_555 1_555
H74 C56 1_555 1_555
H75 C57 1_555 1_555
H76 C57 1_555 1_555
H77 C57 1_555 1_555
H78 C58 1_555 1_555
H79 C58 1_555 1_555
H80 C58 1_555 1_555
H81 C59 1_555 1_555
H82 C59 1_555 1_555
H83 C60 1_555 1_555
H84 C60 1_555 1_555
H85 C61 1_555 1_555
H86 C61 1_555 1_555
H87 C62 1_555 1_555
H88 C62 1_555 1_555
H89 C63 1_555 1_555
H90 C63 1_555 1_555
H91 C65 1_555 1_555
H92 C66 1_555 1_555
H93 C67 1_555 1_555
H94 C68 1_555 1_555
H95 C69 1_555 1_555
H96 C71 1_555 1_555
H97 C72 1_555 1_555
H98 C73 1_555 1_555
H99 C74 1_555 1_555
H100 C75 1_555 1_555
H101 C76 1_555 1_555
H102 C77 1_555 1_555
C14 C59 1_555 1_555
C27 C60 1_555 1_555
C30 C31 1_555 1_555
C40 C61 1_555 1_555
C50 C62 1_555 1_555
C53 C54 1_555 1_555
C54 C63 1_555 1_555
C68 C69 1_555 1_555
C74 C75 1_555 1_555

#END
