
#######################################################################
#
#                 Cambridge Crystallographic Data Centre
#                                CCDC 
#
#######################################################################
#
# If this CIF has been generated from an entry in the Cambridge 
# Structural Database, then it will include bibliographic, chemical, 
# crystal, experimental, refinement or atomic coordinate data resulting 
# from the CCDC's data processing and validation procedures.
#
#######################################################################

data_QUZZAO
_chemical_formula_moiety         'C12 H6 F2 N2'
_chemical_name_systematic        6-(2,4-difluorophenyl)pyridine-2-carbonitrile
_symmetry_cell_setting           monoclinic
_symmetry_space_group_name_H-M   'P 21/c'
_symmetry_Int_Tables_number      14
_space_group_name_Hall           '-P 2ybc'
loop_
_symmetry_equiv_pos_site_id
_symmetry_equiv_pos_as_xyz
1 x,y,z
2 -x,1/2+y,1/2-z
3 -x,-y,-z
4 x,1/2-y,1/2+z
_cell_length_a                   24.0158(10)
_cell_length_b                   3.69460(10)
_cell_length_c                   24.1833(8)
_cell_angle_alpha                90
_cell_angle_beta                 117.5920(10)
_cell_angle_gamma                90
_cell_volume                     1901.71
_exptl_crystal_colour            colorless
_exptl_crystal_description       prism
_cell_formula_units_Z            8
loop_
_atom_site_label
_atom_site_type_symbol
_atom_site_fract_x
_atom_site_fract_y
_atom_site_fract_z
N1 N 0.25337(7) 0.8740(5) 0.32403(7)
N2 N 0.10648(6) 0.7579(4) 0.20105(6)
F1 F -0.04026(4) 0.9508(3) 0.03009(4)
F2 F -0.18752(4) 0.7791(3) 0.10354(5)
C1 C 0.21422(8) 0.8110(5) 0.27493(8)
C2 C 0.16648(8) 0.7241(4) 0.21189(7)
C3 C 0.18537(8) 0.6164(4) 0.16821(7)
H1 H 0.2286 0.6029 0.1784
C4 C 0.13861(8) 0.5291(5) 0.10895(7)
H2 H 0.1491 0.4493 0.0776
C5 C 0.07646(8) 0.5605(4) 0.09635(7)
H3 H 0.0438 0.502 0.0561
C6 C 0.06185(7) 0.6784(4) 0.14295(7)
C7 C -0.00434(7) 0.7087(4) 0.13196(7)
C8 C -0.05309(8) 0.8361(4) 0.07655(7)
C9 C -0.11463(7) 0.8631(4) 0.06568(7)
H4 H -0.1467 0.9524 0.0273
C10 C -0.12733(7) 0.7544(4) 0.11322(8)
C11 C -0.08185(8) 0.6253(4) 0.16960(7)
H5 H -0.0921 0.5527 0.2015
C12 C -0.02066(7) 0.6047(4) 0.17824(7)
H6 H 0.0113 0.5171 0.2169
N3 N 0.75191(7) 0.5620(5) 0.42112(7)
N4 N 0.60604(6) 0.3122(4) 0.40164(6)
F3 F 0.45552(4) 0.4389(3) 0.42970(4)
F4 F 0.31421(4) 0.1408(3) 0.22374(4)
C13 C 0.71280(8) 0.4536(5) 0.43140(7)
C14 C 0.66567(7) 0.3188(4) 0.44819(7)
C15 C 0.68406(8) 0.2139(4) 0.50917(7)
H7 H 0.7268 0.2278 0.5401
C16 C 0.63783(8) 0.0878(4) 0.52349(7)
H8 H 0.6483 0.0094 0.5646
C17 C 0.57634(7) 0.0781(4) 0.47712(7)
H9 H 0.5441 -0.0075 0.4861
C18 C 0.56176(7) 0.1950(4) 0.41688(7)
C19 C 0.49629(7) 0.1868(4) 0.36565(7)
C20 C 0.44506(7) 0.3006(4) 0.37346(7)
C21 C 0.38387(7) 0.2913(4) 0.32730(7)
H10 H 0.3501 0.3714 0.3343
C22 C 0.37425(7) 0.1586(4) 0.27011(7)
C23 C 0.42221(7) 0.0453(4) 0.25792(7)
H11 H 0.4139 -0.0405 0.2178
C24 C 0.48294(7) 0.0608(4) 0.30629(7)
H12 H 0.5166 -0.0167 0.2989
loop_
_geom_bond_atom_site_label_1
_geom_bond_atom_site_label_2
_geom_bond_site_symmetry_1
_geom_bond_site_symmetry_2
N1 C1 1_555 1_555
N2 C2 1_555 1_555
F1 C8 1_555 1_555
F2 C10 1_555 1_555
C1 C2 1_555 1_555
C2 C3 1_555 1_555
C3 H1 1_555 1_555
C4 C3 1_555 1_555
H2 C4 1_555 1_555
C5 C4 1_555 1_555
H3 C5 1_555 1_555
C6 N2 1_555 1_555
C7 C6 1_555 1_555
C8 C7 1_555 1_555
C9 C8 1_555 1_555
H4 C9 1_555 1_555
C10 C9 1_555 1_555
C11 C10 1_555 1_555
H5 C11 1_555 1_555
C12 C7 1_555 1_555
H6 C12 1_555 1_555
N3 C13 1_555 1_555
N4 C14 1_555 1_555
F3 C20 1_555 1_555
F4 C22 1_555 1_555
C13 C14 1_555 1_555
C14 C15 1_555 1_555
C15 H7 1_555 1_555
C16 C15 1_555 1_555
H8 C16 1_555 1_555
C17 C16 1_555 1_555
H9 C17 1_555 1_555
C18 N4 1_555 1_555
C19 C18 1_555 1_555
C20 C19 1_555 1_555
C21 C20 1_555 1_555
H10 C21 1_555 1_555
C22 C21 1_555 1_555
C23 C22 1_555 1_555
H11 C23 1_555 1_555
C24 C19 1_555 1_555
H12 C24 1_555 1_555
C5 C6 1_555 1_555
C11 C12 1_555 1_555
C17 C18 1_555 1_555
C23 C24 1_555 1_555

#END
