
#######################################################################
#
#                 Cambridge Crystallographic Data Centre
#                                CCDC 
#
#######################################################################
#
# If this CIF has been generated from an entry in the Cambridge 
# Structural Database, then it will include bibliographic, chemical, 
# crystal, experimental, refinement or atomic coordinate data resulting 
# from the CCDC's data processing and validation procedures.
#
#######################################################################

data_RABBAA
_chemical_compound_source        'Diplophyllum taxifolium'
_chemical_name_common            
ent-15-(3-methyl-2-butenyl-1-keto)aromadendr-1alpha,15beta-diol
_chemical_formula_moiety         'C20 H32 O3'
_chemical_name_systematic        
1-hydroxy-1-(4a-hydroxy-1,4,7-trimethyldecahydro-1H-cyclopropa[e]azulen-1-yl)-4-methylpent-3-en-2-one
_symmetry_cell_setting           monoclinic
_symmetry_space_group_name_H-M   'P 21'
_symmetry_Int_Tables_number      4
_space_group_name_Hall           'P 2yb'
loop_
_symmetry_equiv_pos_site_id
_symmetry_equiv_pos_as_xyz
1 x,y,z
2 -x,1/2+y,-z
_cell_length_a                   9.9192(12)
_cell_length_b                   8.6487(10)
_cell_length_c                   11.5035(16)
_cell_angle_alpha                90
_cell_angle_beta                 103.271(3)
_cell_angle_gamma                90
_cell_volume                     960.51
_exptl_crystal_colour            colorless
_cell_formula_units_Z            2
_exptl_crystal_recrystallization_method methanol
loop_
_atom_site_label
_atom_site_type_symbol
_atom_site_fract_x
_atom_site_fract_y
_atom_site_fract_z
O1 O 0.1464(3) 0.7077(6) 0.2079(3)
H1 H 0.0632 0.7084 0.2059
O2 O 0.6282(4) 0.8480(4) 0.0725(4)
H2 H 0.7110 0.8684 0.0845
O3 O 0.8512(4) 0.6806(5) 0.1162(4)
C1 C 0.3433(6) 0.9904(7) 0.3012(5)
H3 H 0.4027 1.0376 0.3723
C2 C 0.1926(6) 1.0186(8) 0.3088(7)
H4 H 0.1849 1.1138 0.3514
H5 H 0.1323 1.0250 0.2296
C3 C 0.1549(6) 0.8813(8) 0.3757(6)
H6 H 0.0552 0.8684 0.3600
H7 H 0.1910 0.8930 0.4611
C4 C 0.2230(5) 0.7438(7) 0.3271(5)
C5 C 0.2364(5) 0.5987(7) 0.4059(5)
H8 H 0.2952 0.6265 0.4837
C6 C 0.3043(5) 0.4588(8) 0.3599(5)
H9 H 0.3024 0.3727 0.4136
H10 H 0.2479 0.4302 0.2824
C7 C 0.4541(5) 0.4800(7) 0.3476(4)
H11 H 0.5056 0.5381 0.4156
H12 H 0.4975 0.3794 0.3483
C8 C 0.4610(5) 0.5635(6) 0.2345(5)
H13 H 0.4334 0.5001 0.1623
C9 C 0.4146(4) 0.7318(6) 0.2173(4)
H14 H 0.3626 0.7573 0.1363
C10 C 0.3631(5) 0.8095(6) 0.3146(5)
H15 H 0.4306 0.7899 0.3898
C11 C 0.5660(5) 0.6874(7) 0.2263(4)
C12 C 0.6115(5) 0.6949(7) 0.1082(5)
H16 H 0.5400 0.6454 0.0464
C13 C 0.7475(6) 0.6055(7) 0.1188(5)
C14 C 0.7410(5) 0.4384(7) 0.1335(5)
H17 H 0.6645 0.3993 0.1577
C15 C 0.8346(6) 0.3372(7) 0.1155(6)
C16 C 0.8106(6) 0.1643(7) 0.1278(7)
H18 H 0.8143 0.1130 0.0546
H19 H 0.7213 0.1480 0.1447
H20 H 0.8811 0.1231 0.1918
C17 C 0.3808(6) 1.0643(7) 0.1934(5)
H21 H 0.3707 1.1745 0.1972
H22 H 0.3204 1.0258 0.1218
H23 H 0.4750 1.0396 0.1929
C18 C 0.0936(5) 0.5481(7) 0.4280(5)
H24 H 0.0279 0.5379 0.3529
H25 H 0.0615 0.6247 0.4758
H26 H 0.1034 0.4507 0.4691
C19 C 0.6789(4) 0.7376(7) 0.3322(4)
H27 H 0.7005 0.8446 0.3236
H28 H 0.7603 0.6761 0.3356
H29 H 0.6475 0.7238 0.4045
C20 C 0.9644(5) 0.3716(7) 0.0769(5)
H30 H 1.0396 0.3815 0.1458
H31 H 0.9537 0.4665 0.0324
H32 H 0.9837 0.2889 0.0274
loop_
_geom_bond_atom_site_label_1
_geom_bond_atom_site_label_2
_geom_bond_site_symmetry_1
_geom_bond_site_symmetry_2
O1 H1 1_555 1_555
O2 H2 1_555 1_555
O3 C13 1_555 1_555
C1 H3 1_555 1_555
C2 C1 1_555 1_555
H4 C2 1_555 1_555
H5 C2 1_555 1_555
C3 C2 1_555 1_555
H6 C3 1_555 1_555
H7 C3 1_555 1_555
C4 O1 1_555 1_555
C5 C4 1_555 1_555
H8 C5 1_555 1_555
C6 C5 1_555 1_555
H9 C6 1_555 1_555
H10 C6 1_555 1_555
C7 C6 1_555 1_555
H11 C7 1_555 1_555
H12 C7 1_555 1_555
C8 C7 1_555 1_555
H13 C8 1_555 1_555
C9 C8 1_555 1_555
H14 C9 1_555 1_555
C10 C1 1_555 1_555
H15 C10 1_555 1_555
C11 C8 1_555 1_555
C12 O2 1_555 1_555
H16 C12 1_555 1_555
C13 C12 1_555 1_555
C14 C13 1_555 1_555
H17 C14 1_555 1_555
C15 C14 1_555 1_555
C16 C15 1_555 1_555
H18 C16 1_555 1_555
H19 C16 1_555 1_555
H20 C16 1_555 1_555
C17 C1 1_555 1_555
H21 C17 1_555 1_555
H22 C17 1_555 1_555
H23 C17 1_555 1_555
C18 C5 1_555 1_555
H24 C18 1_555 1_555
H25 C18 1_555 1_555
H26 C18 1_555 1_555
C19 C11 1_555 1_555
H27 C19 1_555 1_555
H28 C19 1_555 1_555
H29 C19 1_555 1_555
C20 C15 1_555 1_555
H30 C20 1_555 1_555
H31 C20 1_555 1_555
H32 C20 1_555 1_555
C3 C4 1_555 1_555
C4 C10 1_555 1_555
C9 C10 1_555 1_555
C9 C11 1_555 1_555
C11 C12 1_555 1_555

#END
