
#######################################################################
#
#                 Cambridge Crystallographic Data Centre
#                                CCDC 
#
#######################################################################
#
# If this CIF has been generated from an entry in the Cambridge 
# Structural Database, then it will include bibliographic, chemical, 
# crystal, experimental, refinement or atomic coordinate data resulting 
# from the CCDC's data processing and validation procedures.
#
#######################################################################

data_RABBOO
_chemical_formula_moiety         'C10 H6 O6 S2 2-,2(C5 H15 N2 1+)'
_chemical_name_systematic        
'bis(3-(dimethylamino)propan-1-aminium) naphthalene-1,5-disulfonate'
_symmetry_cell_setting           monoclinic
_symmetry_space_group_name_H-M   'P 21/c'
_symmetry_Int_Tables_number      14
_space_group_name_Hall           '-P 2ybc'
loop_
_symmetry_equiv_pos_site_id
_symmetry_equiv_pos_as_xyz
1 x,y,z
2 -x,1/2+y,1/2-z
3 -x,-y,-z
4 x,1/2-y,1/2+z
_cell_length_a                   9.8804(7)
_cell_length_b                   10.5061(8)
_cell_length_c                   11.8262(9)
_cell_angle_alpha                90
_cell_angle_beta                 104.674(2)
_cell_angle_gamma                90
_cell_volume                     1187.57
_exptl_crystal_colour            colorless
_exptl_crystal_description       block
_cell_formula_units_Z            2
loop_
_atom_site_label
_atom_site_type_symbol
_atom_site_fract_x
_atom_site_fract_y
_atom_site_fract_z
N1 N 0.22239(17) 0.70109(14) 0.94877(15)
N2 N -0.0507(2) 0.40470(18) 0.65557(16)
H1 H -0.085(3) 0.473(2) 0.604(2)
H2 H -0.120(3) 0.336(2) 0.635(2)
H3 H 0.027(3) 0.374(2) 0.643(2)
C1 C 0.1225(2) 0.59464(18) 0.92803(18)
H4 H 0.0373 0.6211 0.9480
H5 H 0.1620 0.5242 0.9787
C2 C 0.0870(2) 0.5502(2) 0.80206(19)
H6 H 0.0520 0.6217 0.7512
H7 H 0.1714 0.5197 0.7834
C3 C -0.0211(2) 0.4455(2) 0.77886(18)
H8 H 0.0131 0.3736 0.8296
H9 H -0.1065 0.4758 0.7960
C4 C 0.3575(2) 0.6620(2) 0.9301(3)
H10 H 0.4246 0.7290 0.9548
H11 H 0.3471 0.6449 0.8486
H12 H 0.3894 0.5865 0.9746
C5 C 0.2416(2) 0.7488(2) 1.06831(19)
H13 H 0.2796 0.6825 1.1229
H14 H 0.1530 0.7755 1.0795
H15 H 0.3048 0.8198 1.0807
O1 O 0.71332(17) 0.81117(14) 0.50686(16)
O2 O 0.87324(14) 0.63289(15) 0.53349(14)
O3 O 0.79054(15) 0.72554(15) 0.34356(14)
S1 S 0.75798(5) 0.70070(5) 0.45450(5)
C6 C 0.6109(2) 0.57771(18) 0.63466(17)
H16 H 0.6846 0.6352 0.6552
C7 C 0.55784(18) 0.54332(17) 0.51537(16)
C8 C 0.61369(18) 0.59239(17) 0.42324(17)
C9 C 0.5572(2) 0.55867(19) 0.30952(18)
H17 H 0.5933 0.5930 0.2508
C10 C 0.4445(2) 0.47206(19) 0.28056(18)
H18 H 0.4077 0.4488 0.2030
O1B O 0.28668(17) 0.18883(14) 0.49314(16)
O2B O 0.12676(14) 0.36711(15) 0.46651(14)
O3B O 0.20946(15) 0.27446(15) 0.65644(14)
S1B S 0.24202(5) 0.29930(5) 0.54550(5)
C6B C 0.3891(2) 0.42229(18) 0.36534(17)
H16B H 0.3154 0.3648 0.3448
C7B C 0.44216(18) 0.45668(17) 0.48463(16)
C8B C 0.38631(18) 0.40761(17) 0.57676(17)
C9B C 0.4428(2) 0.44133(19) 0.69048(18)
H17B H 0.4067 0.4070 0.7492
C10B C 0.5555(2) 0.52794(19) 0.71944(18)
H18B H 0.5923 0.5512 0.7970
loop_
_geom_bond_atom_site_label_1
_geom_bond_atom_site_label_2
_geom_bond_site_symmetry_1
_geom_bond_site_symmetry_2
N1 C1 1_555 1_555
N2 H1 1_555 1_555
H2 N2 1_555 1_555
H3 N2 1_555 1_555
C1 H4 1_555 1_555
H5 C1 1_555 1_555
C2 C1 1_555 1_555
H6 C2 1_555 1_555
H7 C2 1_555 1_555
C3 N2 1_555 1_555
H8 C3 1_555 1_555
H9 C3 1_555 1_555
C4 N1 1_555 1_555
H10 C4 1_555 1_555
H11 C4 1_555 1_555
H12 C4 1_555 1_555
C5 N1 1_555 1_555
H13 C5 1_555 1_555
H14 C5 1_555 1_555
H15 C5 1_555 1_555
O1 S1 1_555 1_555
O2 S1 1_555 1_555
O3 S1 1_555 1_555
S1 C8 1_555 1_555
C6 H16 1_555 1_555
C7 C6 1_555 1_555
C8 C7 1_555 1_555
C9 C8 1_555 1_555
H17 C9 1_555 1_555
C10 C9 1_555 1_555
H18 C10 1_555 1_555
O1B S1B 1_555 1_555
O2B S1B 1_555 1_555
O3B S1B 1_555 1_555
S1B C8B 1_555 1_555
C6B C10 1_555 1_555
H16B C6B 1_555 1_555
C7B C7 1_555 1_555
C8B C7B 1_555 1_555
C9B C8B 1_555 1_555
H17B C9B 1_555 1_555
C10B C6 1_555 1_555
H18B C10B 1_555 1_555
C2 C3 1_555 1_555
C6B C7B 1_555 1_555
C9B C10B 1_555 1_555

#END
