
#######################################################################
#
#                 Cambridge Crystallographic Data Centre
#                                CCDC 
#
#######################################################################
#
# If this CIF has been generated from an entry in the Cambridge 
# Structural Database, then it will include bibliographic, chemical, 
# crystal, experimental, refinement or atomic coordinate data resulting 
# from the CCDC's data processing and validation procedures.
#
#######################################################################

data_RABCED
_chemical_formula_moiety         'C31 H45 Li1 N2 O2,C4 H8 O1'
_chemical_name_systematic        
"(2-(2-Isopropylphenylamino)-4-(2-isopropylphenylimino)pent-2-ene-N,N')-bis(tetrahydrofuran)-lithium tetrahydrofuran solvate"
_symmetry_cell_setting           rhombohedral
_symmetry_space_group_name_H-M   'R 3 m'
_symmetry_Int_Tables_number      160
_space_group_name_Hall           'R 3 -2"'
loop_
_symmetry_equiv_pos_site_id
_symmetry_equiv_pos_as_xyz
1 x,y,z
2 -y,x-y,z
3 -x+y,-x,z
4 -x+y,y,z
5 x,x-y,z
6 -y,-x,z
7 2/3+x,1/3+y,1/3+z
8 2/3-y,1/3+x-y,1/3+z
9 2/3-x+y,1/3-x,1/3+z
10 2/3-x+y,1/3+y,1/3+z
11 2/3+x,1/3+x-y,1/3+z
12 2/3-y,1/3-x,1/3+z
13 1/3+x,2/3+y,2/3+z
14 1/3-y,2/3+x-y,2/3+z
15 1/3-x+y,2/3-x,2/3+z
16 1/3-x+y,2/3+y,2/3+z
17 1/3+x,2/3+x-y,2/3+z
18 1/3-y,2/3-x,2/3+z
_cell_length_a                   32.123(9)
_cell_length_b                   32.123(9)
_cell_length_c                   9.273(2)
_cell_angle_alpha                90
_cell_angle_beta                 90
_cell_angle_gamma                120.0
_cell_volume                     8286.73
_exptl_crystal_colour            colorless
_exptl_crystal_description       prism
_cell_formula_units_Z            9
loop_
_atom_site_label
_atom_site_type_symbol
_atom_site_fract_x
_atom_site_fract_y
_atom_site_fract_z
C1 C 0.71013(3) 0.21139(4) 0.24345(13)
C2 C 0.73936(3) 0.26064(3) 0.2687(2)
H1 H 0.7238 0.2762 0.3079
C3 C 0.65842(4) 0.18920(4) 0.29164(17)
H2 H 0.6375 0.1675 0.2176
H3 H 0.6506 0.2144 0.3079
H4 H 0.6539 0.1715 0.3804
C4 C 0.69474(3) 0.13492(4) 0.16118(14)
C5 C 0.68689(4) 0.10232(4) 0.27144(16)
C6 C 0.65993(4) 0.05331(4) 0.2412(2)
H5 H 0.6544 0.031 0.3149
C7 C 0.64137(4) 0.03690(5) 0.10657(19)
H6 H 0.623 0.0037 0.0881
C8 C 0.64998(5) 0.06931(5) 0.00011(19)
H7 H 0.6382 0.0584 -0.0933
C9 C 0.67564(4) 0.11763(4) 0.02724(15)
H8 H 0.6803 0.1394 -0.0472
C10 C 0.70803(4) 0.11859(4) 0.41866(15)
H9 H 0.7159 0.1524 0.429
C11 C 0.75554(5) 0.11826(5) 0.4296(2)
H10 H 0.7492 0.0855 0.4212
H11 H 0.7705 0.1315 0.5219
H12 H 0.7769 0.1376 0.3525
C12 C 0.67571(6) 0.09120(6) 0.54138(19)
H13 H 0.6668 0.0576 0.5341
H14 H 0.647 0.0939 0.5378
H15 H 0.6923 0.1043 0.6318
C13 C 0.74816(5) 0.25184(5) -0.1323(3)
H16 H 0.76 0.2785 -0.0634
H17 H 0.7136 0.2305 -0.1173
C14 C 0.75891(14) 0.27010(10) -0.2865(3)
H18 H 0.7325 0.2732 -0.3275
H19 H 0.7887 0.3012 -0.2923
C15 C 0.76339(7) 0.23661(7) -0.3514(4)
H20 H 0.7845 0.2501 -0.4353
H21 H 0.7319 0.2113 -0.3852
C16 C 0.78263(6) 0.21737(6) -0.2562(3)
H22 H 0.7679 0.1826 -0.2716
H23 H 0.8174 0.2321 -0.2716
C17 C 0.79879(5) 0.12870(4) 0.0110(2)
H24 H 0.7725 0.1204 -0.0572
H25 H 0.7856 0.1086 0.0972
C18 C 0.83511(5) 0.12094(6) -0.0539(3)
H26 H 0.8385 0.0967 0.0008
H27 H 0.8259 0.1093 -0.153
N1 N 0.72504(3) 0.18461(3) 0.18055(11)
O1 O 0.77360(3) 0.22640(3) -0.11940(14)
O2 O 0.82142(2) 0.17858(2) 0.04875(17)
Li1 Li 0.78683(5) 0.21317(5) 0.0804(3)
C1E C 0.78861(4) 0.28987(3) 0.24345(13)
C3E C 0.81080(4) 0.34158(4) 0.29164(17)
H2E H 0.8325 0.3625 0.2176
H3E H 0.7856 0.3494 0.3079
H4E H 0.8285 0.3461 0.3804
N1E N 0.81539(3) 0.27496(3) 0.18055(11)
C4E C 0.86508(4) 0.30526(3) 0.16118(14)
C5E C 0.89768(4) 0.31311(4) 0.27144(16)
C6E C 0.94669(4) 0.34007(4) 0.2412(2)
H5E H 0.969 0.3456 0.3149
C7E C 0.96310(5) 0.35863(4) 0.10657(19)
H6E H 0.9963 0.377 0.0881
C8E C 0.93069(5) 0.35002(5) 0.00011(19)
H7E H 0.9416 0.3618 -0.0933
C9E C 0.88237(4) 0.32436(4) 0.02724(15)
H8E H 0.8606 0.3197 -0.0472
C10E C 0.88141(4) 0.29197(4) 0.41866(15)
H9E H 0.8476 0.2841 0.429
C11E C 0.88174(5) 0.24446(5) 0.4296(2)
H10E H 0.9145 0.2508 0.4212
H11E H 0.8685 0.2295 0.5219
H12E H 0.8624 0.2231 0.3525
C12E C 0.90880(6) 0.32429(6) 0.54138(19)
H13E H 0.9424 0.3332 0.5341
H14E H 0.9061 0.353 0.5378
H15E H 0.8957 0.3077 0.6318
H17E H 0.7695 0.2864 -0.1173
H16E H 0.7215 0.24 -0.0634
C14E C 0.72990(10) 0.24109(14) -0.2865(3)
H18E H 0.7268 0.2675 -0.3275
H19E H 0.6988 0.2113 -0.2923
H21E H 0.7887 0.2681 -0.3852
H20E H 0.7499 0.2155 -0.4353
C18E C 0.87906(6) 0.16489(5) -0.0539(3)
C17E C 0.87130(4) 0.20121(5) 0.0110(2)
H24E H 0.8796 0.2275 -0.0572
H25E H 0.8914 0.2144 0.0972
H26E H 0.9033 0.1615 0.0008
H27E H 0.8907 0.1741 -0.153
O3 O 0.55994(17) 0.10402(13) 0.8450(5)
C19 C 0.55164(7) 0.10327(15) 0.7072(5)
H28 H 0.5171 0.0885 0.6883
H29 H 0.5641 0.0853 0.6549
C20 C 0.57405(8) 0.14810(15) 0.6688(4)
H30 H 0.5528 0.1551 0.6105
H31 H 0.6023 0.1551 0.6105
C21 C 0.58753(7) 0.17505(14) 0.7857(5)
H32 H 0.6226 0.1958 0.7846
H33 H 0.5733 0.1958 0.7846
C22 C 0.57505(11) 0.1501(2) 0.9032(5)
H34 H 0.5488 0.1515 0.9525
H35 H 0.6022 0.1603 0.9694
O3C O 0.54408(21) 0.10402(13) 0.8450(5)
H29C H 0.5212 0.0853 0.6549
H28C H 0.5714 0.0885 0.6883
H35C H 0.5581 0.1603 0.9694
H34C H 0.6027 0.1515 0.9525
loop_
_geom_bond_atom_site_label_1
_geom_bond_atom_site_label_2
_geom_bond_site_symmetry_1
_geom_bond_site_symmetry_2
C1 C2 1_555 1_555
C2 H1 1_555 1_555
C3 C1 1_555 1_555
H2 C3 1_555 1_555
H3 C3 1_555 1_555
H4 C3 1_555 1_555
C4 C5 1_555 1_555
C5 C6 1_555 1_555
C6 H5 1_555 1_555
C7 C6 1_555 1_555
H6 C7 1_555 1_555
C8 C7 1_555 1_555
H7 C8 1_555 1_555
C9 C4 1_555 1_555
H8 C9 1_555 1_555
C10 C5 1_555 1_555
H9 C10 1_555 1_555
C11 C10 1_555 1_555
H10 C11 1_555 1_555
H11 C11 1_555 1_555
H12 C11 1_555 1_555
C12 C10 1_555 1_555
H13 C12 1_555 1_555
H14 C12 1_555 1_555
H15 C12 1_555 1_555
C13 H16 1_555 1_555
H16 H17E 1_555 1_555
H17 C13 1_555 1_555
C14 C13 1_555 1_555
H18 C14 1_555 1_555
H19 C14 1_555 1_555
C15 C14 1_555 1_555
H20 C15 1_555 1_555
H21 C15 1_555 1_555
C16 C15 1_555 1_555
H22 C16 1_555 1_555
H23 C16 1_555 1_555
C17 H24 1_555 1_555
H25 C17 1_555 1_555
C18 C17 1_555 1_555
H26 C18 1_555 1_555
H27 C18 1_555 1_555
N1 C1 1_555 1_555
O1 C13 1_555 1_555
O2 C17 1_555 1_555
Li1 N1 1_555 1_555
O3 C19 1_555 1_555
C19 H28 1_555 1_555
H28 H29C 1_555 1_555
H29 C19 1_555 1_555
C20 C19 1_555 1_555
H30 C20 1_555 1_555
H31 C20 1_555 1_555
C21 C20 1_555 1_555
H32 C21 1_555 1_555
H33 C21 1_555 1_555
C22 O3 1_555 1_555
H34 C22 1_555 1_555
H35 C22 1_555 1_555
C1E C2 1_555 1_555
C3E C1E 1_555 1_555
H2E C3E 1_555 1_555
H3E C3E 1_555 1_555
H4E C3E 1_555 1_555
N1E Li1 1_555 1_555
C4E N1E 1_555 1_555
C5E C4E 1_555 1_555
C6E C5E 1_555 1_555
H5E C6E 1_555 1_555
C7E C6E 1_555 1_555
H6E C7E 1_555 1_555
C8E C7E 1_555 1_555
H7E C8E 1_555 1_555
C9E C4E 1_555 1_555
H8E C9E 1_555 1_555
C10E C5E 1_555 1_555
H9E C10E 1_555 1_555
C11E C10E 1_555 1_555
H10E C11E 1_555 1_555
H11E C11E 1_555 1_555
H12E C11E 1_555 1_555
C12E C10E 1_555 1_555
H13E C12E 1_555 1_555
H14E C12E 1_555 1_555
H15E C12E 1_555 1_555
H17E C13 1_555 1_555
H16E C13 1_555 1_555
C14E C13 1_555 1_555
H18E C14 1_555 1_555
H19E C14E 1_555 1_555
H21E C15 1_555 1_555
H20E C15 1_555 1_555
C18E C18 1_555 1_555
C17E O2 1_555 1_555
H24E C17E 1_555 1_555
H25E C17E 1_555 1_555
H26E C18E 1_555 1_555
H27E C18E 1_555 1_555
O3C O3 1_555 1_555
H29C C19 1_555 1_555
H28C C19 1_555 1_555
H35C C22 1_555 1_555
H34C C22 1_555 1_555
C4 N1 1_555 1_555
C8 C9 1_555 1_555
H17 H16E 1_555 1_555
C14 C14E 1_555 1_555
H18 C14E 1_555 1_555
H18 H18E 1_555 1_555
C15 C14E 1_555 1_555
H20 H21E 1_555 1_555
H21 H20E 1_555 1_555
C16 O1 1_555 1_555
O1 Li1 1_555 1_555
O2 Li1 1_555 1_555
C19 O3C 1_555 1_555
H29 H28C 1_555 1_555
C21 C22 1_555 1_555
C22 O3C 1_555 1_555
H34 H35C 1_555 1_555
H35 H34C 1_555 1_555
C1E N1E 1_555 1_555
C8E C9E 1_555 1_555
C14E H18E 1_555 1_555
C18E C17E 1_555 1_555

#END
