
#######################################################################
#
#                 Cambridge Crystallographic Data Centre
#                                CCDC 
#
#######################################################################
#
# If this CIF has been generated from an entry in the Cambridge 
# Structural Database, then it will include bibliographic, chemical, 
# crystal, experimental, refinement or atomic coordinate data resulting 
# from the CCDC's data processing and validation procedures.
#
#######################################################################

data_RABCIH
_chemical_formula_moiety         'C38 H42 Li2 N4 O4'
_chemical_name_systematic        
(\m~2~-2-(2-Methoxyphenylamino)-4-(2-methoxyphenylimino)pent-2-ene-N,N,N',O,O')-(\m~2~-2-(2-methoxyphenylamino)-4-(2-methoxyphenylimino)pent-2-ene-N,N,N',O)-di-lithium
_symmetry_cell_setting           triclinic
_symmetry_space_group_name_H-M   'P -1'
_symmetry_Int_Tables_number      2
_space_group_name_Hall           '-P 1'
loop_
_symmetry_equiv_pos_site_id
_symmetry_equiv_pos_as_xyz
1 x,y,z
2 -x,-y,-z
_cell_length_a                   10.6917(4)
_cell_length_b                   11.8407(5)
_cell_length_c                   15.3648(9)
_cell_angle_alpha                77.010(2)
_cell_angle_beta                 85.387(2)
_cell_angle_gamma                66.242(2)
_cell_volume                     1734.63
_exptl_crystal_colour            yellow
_exptl_crystal_description       prism
_cell_formula_units_Z            2
loop_
_atom_site_label
_atom_site_type_symbol
_atom_site_fract_x
_atom_site_fract_y
_atom_site_fract_z
O1 O 0.49857(13) 0.61145(13) 0.33474(10)
O2 O 0.92514(15) 0.20664(14) 0.03125(11)
N1 N 0.57359(16) 0.48214(15) 0.19958(12)
N2 N 0.77111(16) 0.22356(15) 0.18265(12)
Li1 Li 0.7548(3) 0.3480(3) 0.2471(3)
C1 C 0.3664(2) 0.5524(2) 0.10547(18)
C2 C 0.49970(18) 0.45174(19) 0.14806(14)
C3 C 0.5365(2) 0.33283(19) 0.13193(14)
C4 C 0.6653(2) 0.22840(19) 0.14122(14)
C5 C 0.6765(3) 0.1228(2) 0.0981(2)
C6 C 0.55891(19) 0.60973(19) 0.18378(15)
C7 C 0.53009(19) 0.67350(19) 0.25367(16)
C8 C 0.5323(2) 0.7922(2) 0.2424(2)
C9 C 0.5598(3) 0.8511(3) 0.1594(2)
C10 C 0.5841(3) 0.7925(3) 0.0887(2)
C11 C 0.5842(2) 0.6718(2) 0.10077(19)
C12 C 0.4486(3) 0.6801(3) 0.4046(2)
C13 C 0.9008(2) 0.12201(19) 0.18158(16)
C14 C 0.9831(2) 0.1160(2) 0.10618(16)
C15 C 1.1148(2) 0.0236(2) 0.1097(2)
C16 C 1.1644(3) -0.0654(2) 0.1874(2)
C17 C 1.0852(3) -0.0605(2) 0.2625(2)
C18 C 0.9549(2) 0.0339(2) 0.25960(19)
C19 C 1.0020(3) 0.2031(3) -0.0482(2)
H1 H 0.299(2) 0.514(2) 0.1069(16)
H2 H 0.324(2) 0.624(2) 0.1372(14)
H3 H 0.378(2) 0.586(2) 0.0441(18)
H4 H 0.465(2) 0.319(2) 0.1034(15)
H5 H 0.588(3) 0.124(2) 0.0909(16)
H6 H 0.713(3) 0.138(3) 0.039(2)
H7 H 0.730(3) 0.040(2) 0.1369(17)
H8 H 0.511(2) 0.836(2) 0.2910(16)
H9 H 0.560(3) 0.939(3) 0.1540(18)
H10 H 0.603(2) 0.826(2) 0.0321(19)
H11 H 0.609(2) 0.6275(19) 0.0547(15)
H12 H 0.518(3) 0.704(2) 0.4248(17)
H13 H 0.368(3) 0.758(3) 0.3835(18)
H14 H 0.423(3) 0.619(3) 0.453(2)
H15 H 1.167(2) 0.0289(19) 0.0541(16)
H16 H 1.258(3) -0.131(3) 0.1891(19)
H17 H 1.118(3) -0.119(3) 0.321(2)
H18 H 0.904(2) 0.037(2) 0.3129(18)
H19 H 1.082(3) 0.215(2) -0.0346(18)
H20 H 1.032(3) 0.115(3) -0.062(2)
H21 H 0.936(3) 0.284(3) -0.100(2)
O3 O 0.89050(14) 0.42740(14) 0.22040(10)
O4 O 0.35241(12) 0.43605(13) 0.36353(10)
N3 N 0.76921(15) 0.37530(15) 0.37473(12)
N4 N 0.59010(15) 0.24425(15) 0.37810(12)
Li2 Li 0.5591(3) 0.4262(3) 0.3420(3)
C20 C 0.9712(2) 0.2534(3) 0.4744(2)
C21 C 0.83985(18) 0.26892(19) 0.43343(14)
C22 C 0.80024(19) 0.1681(2) 0.45900(15)
C23 C 0.68365(19) 0.15378(19) 0.43435(14)
C24 C 0.6713(3) 0.0322(3) 0.4798(2)
C25 C 0.81321(19) 0.47718(19) 0.35937(15)
C26 C 0.86809(19) 0.5095(2) 0.27662(16)
C27 C 0.8975(2) 0.6165(2) 0.2551(2)
C28 C 0.8725(2) 0.6920(2) 0.3165(2)
C29 C 0.8200(2) 0.6613(2) 0.3986(2)
C30 C 0.7903(2) 0.5548(2) 0.41921(19)
C31 C 0.9378(3) 0.4577(3) 0.1322(2)
C32 C 0.47919(19) 0.22634(19) 0.34793(14)
C33 C 0.35242(19) 0.33086(19) 0.33890(15)
C34 C 0.2381(2) 0.3263(2) 0.30468(16)
C35 C 0.2483(2) 0.2203(2) 0.27726(18)
C36 C 0.3722(2) 0.1191(2) 0.28185(18)
C37 C 0.4863(2) 0.1227(2) 0.31694(16)
C38 C 0.2307(2) 0.5496(2) 0.3423(2)
H22 H 1.012(2) 0.170(2) 0.5099(16)
H23 H 0.957(3) 0.319(3) 0.5080(19)
H24 H 1.027(3) 0.268(2) 0.4305(18)
H25 H 0.861(2) 0.0957(19) 0.5015(14)
H26 H 0.716(2) 0.000(2) 0.5347(17)
H27 H 0.714(3) -0.034(3) 0.4410(18)
H28 H 0.579(3) 0.043(2) 0.4870(18)
H29 H 0.934(2) 0.635(2) 0.1978(17)
H30 H 0.893(2) 0.764(2) 0.2993(17)
H31 H 0.800(2) 0.716(2) 0.4428(17)
H32 H 0.750(2) 0.534(2) 0.4797(17)
H33 H 0.946(2) 0.391(2) 0.1019(17)
H34 H 0.872(2) 0.549(2) 0.0991(16)
H35 H 1.031(3) 0.454(3) 0.1329(19)
H36 H 0.158(2) 0.3962(19) 0.3029(13)
H37 H 0.170(2) 0.220(2) 0.2540(16)
H38 H 0.3812(19) 0.044(2) 0.2612(14)
H39 H 0.568(2) 0.051(2) 0.3166(14)
H40 H 0.251(2) 0.617(2) 0.3618(16)
H41 H 0.158(3) 0.537(2) 0.3750(16)
H42 H 0.217(2) 0.568(2) 0.2730(19)
loop_
_geom_bond_atom_site_label_1
_geom_bond_atom_site_label_2
_geom_bond_site_symmetry_1
_geom_bond_site_symmetry_2
O1 C7 1_555 1_555
O2 C14 1_555 1_555
N1 Li1 1_555 1_555
N2 Li1 1_555 1_555
Li1 O3 1_555 1_555
C1 C2 1_555 1_555
C2 N1 1_555 1_555
C3 C2 1_555 1_555
C4 N2 1_555 1_555
C5 C4 1_555 1_555
C6 N1 1_555 1_555
C7 C6 1_555 1_555
C8 C7 1_555 1_555
C9 C8 1_555 1_555
C10 C9 1_555 1_555
C11 C6 1_555 1_555
C12 O1 1_555 1_555
C13 N2 1_555 1_555
C14 C13 1_555 1_555
C15 C14 1_555 1_555
C16 C15 1_555 1_555
C17 C16 1_555 1_555
C18 C13 1_555 1_555
C19 O2 1_555 1_555
H1 C1 1_555 1_555
H2 C1 1_555 1_555
H3 C1 1_555 1_555
H4 C3 1_555 1_555
H5 C5 1_555 1_555
H6 C5 1_555 1_555
H7 C5 1_555 1_555
H8 C8 1_555 1_555
H9 C9 1_555 1_555
H10 C10 1_555 1_555
H11 C11 1_555 1_555
H12 C12 1_555 1_555
H13 C12 1_555 1_555
H14 C12 1_555 1_555
H15 C15 1_555 1_555
H16 C16 1_555 1_555
H17 C17 1_555 1_555
H18 C18 1_555 1_555
H19 C19 1_555 1_555
H20 C19 1_555 1_555
H21 C19 1_555 1_555
O3 C26 1_555 1_555
O4 Li2 1_555 1_555
N3 Li1 1_555 1_555
N4 Li2 1_555 1_555
Li2 O1 1_555 1_555
C20 C21 1_555 1_555
C21 N3 1_555 1_555
C22 C21 1_555 1_555
C23 N4 1_555 1_555
C24 C23 1_555 1_555
C25 N3 1_555 1_555
C26 C25 1_555 1_555
C27 C26 1_555 1_555
C28 C27 1_555 1_555
C29 C28 1_555 1_555
C30 C25 1_555 1_555
C31 O3 1_555 1_555
C32 N4 1_555 1_555
C33 O4 1_555 1_555
C34 C33 1_555 1_555
C35 C34 1_555 1_555
C36 C35 1_555 1_555
C37 C32 1_555 1_555
C38 O4 1_555 1_555
H22 C20 1_555 1_555
H23 C20 1_555 1_555
H24 C20 1_555 1_555
H25 C22 1_555 1_555
H26 C24 1_555 1_555
H27 C24 1_555 1_555
H28 C24 1_555 1_555
H29 C27 1_555 1_555
H30 C28 1_555 1_555
H31 C29 1_555 1_555
H32 C30 1_555 1_555
H33 C31 1_555 1_555
H34 C31 1_555 1_555
H35 C31 1_555 1_555
H36 C34 1_555 1_555
H37 C35 1_555 1_555
H38 C36 1_555 1_555
H39 C37 1_555 1_555
H40 C38 1_555 1_555
H41 C38 1_555 1_555
H42 C38 1_555 1_555
N1 Li2 1_555 1_555
C3 C4 1_555 1_555
C10 C11 1_555 1_555
C17 C18 1_555 1_555
N3 Li2 1_555 1_555
C22 C23 1_555 1_555
C29 C30 1_555 1_555
C32 C33 1_555 1_555
C36 C37 1_555 1_555

#END
