
#######################################################################
#
#                 Cambridge Crystallographic Data Centre
#                                CCDC 
#
#######################################################################
#
# If this CIF has been generated from an entry in the Cambridge 
# Structural Database, then it will include bibliographic, chemical, 
# crystal, experimental, refinement or atomic coordinate data resulting 
# from the CCDC's data processing and validation procedures.
#
#######################################################################

data_RABTIX
_chemical_formula_moiety         'C16 H36 N1 1+,Br1 1-'
_chemical_name_systematic        'Tetra-n-butylammonium bromide'
_symmetry_cell_setting           monoclinic
_symmetry_space_group_name_H-M   'C 2/c'
_symmetry_Int_Tables_number      15
_space_group_name_Hall           '-C 2yn'
loop_
_symmetry_equiv_pos_site_id
_symmetry_equiv_pos_as_xyz
1 x,y,z
2 -x,y,1/2-z
3 1/2+x,1/2+y,z
4 1/2-x,1/2+y,1/2-z
5 -x,-y,-z
6 x,-y,1/2+z
7 1/2-x,1/2-y,-z
8 1/2+x,1/2-y,1/2+z
_cell_length_a                   14.049(5)
_cell_length_b                   13.901(2)
_cell_length_c                   20.345(9)
_cell_angle_alpha                90
_cell_angle_beta                 110.18(3)
_cell_angle_gamma                90
_cell_volume                     3729.37
_exptl_crystal_colour            colorless
_cell_formula_units_Z            8
loop_
_atom_site_label
_atom_site_type_symbol
_atom_site_fract_x
_atom_site_fract_y
_atom_site_fract_z
Br1 Br 0.7382(2) 0.0013(3) 0.4780(2)
N1 N 0.4930(13) 0.2528(11) 0.4937(8)
C1 C 0.4476(13) 0.3074(12) 0.5442(9)
C2 C 0.4253(13) 0.2427(16) 0.5964(10)
C3 C 0.3772(16) 0.3024(16) 0.6386(13)
C4 C 0.3554(15) 0.2442(19) 0.7048(9)
C5 C 0.4213(20) 0.1693(17) 0.4464(13)
C6 C 0.4593(15) 0.1246(17) 0.3988(11)
C7 C 0.3823(16) 0.0488(15) 0.3618(10)
C8 C 0.4152(20) -0.0034(22) 0.3084(13)
C9 C 0.5916(12) 0.1997(12) 0.5400(9)
C10 C 0.6687(13) 0.2644(14) 0.5946(10)
C11 C 0.7640(16) 0.2045(19) 0.6395(12)
C12 C 0.8370(19) 0.2718(24) 0.6786(10)
C13 C 0.5229(18) 0.3337(17) 0.4514(15)
C14 C 0.4358(15) 0.3751(15) 0.3945(11)
C15 C 0.4754(17) 0.4412(17) 0.3536(12)
C16 C 0.3864(20) 0.4905(20) 0.2947(13)
loop_
_geom_bond_atom_site_label_1
_geom_bond_atom_site_label_2
_geom_bond_site_symmetry_1
_geom_bond_site_symmetry_2
N1 C1 1_555 1_555
C1 C2 1_555 1_555
C2 C3 1_555 1_555
C3 C4 1_555 1_555
C5 N1 1_555 1_555
C6 C5 1_555 1_555
C7 C6 1_555 1_555
C8 C7 1_555 1_555
C9 N1 1_555 1_555
C10 C9 1_555 1_555
C11 C10 1_555 1_555
C12 C11 1_555 1_555
C13 N1 1_555 1_555
C14 C13 1_555 1_555
C15 C14 1_555 1_555
C16 C15 1_555 1_555

#END
