
#######################################################################
#
#                 Cambridge Crystallographic Data Centre
#                                CCDC 
#
#######################################################################
#
# If this CIF has been generated from an entry in the Cambridge 
# Structural Database, then it will include bibliographic, chemical, 
# crystal, experimental, refinement or atomic coordinate data resulting 
# from the CCDC's data processing and validation procedures.
#
#######################################################################

data_RABZIE
_chemical_formula_moiety         'C56 H82 O33 S2,14(H2 O1)'
_chemical_name_systematic        
'6^I^,6^II^-Dideoxy-6^I^-(p-methylbenzylthio)-6^II^-phenylthio-\b-cyclodextrin tetradecahydrate'
_symmetry_cell_setting           orthorhombic
_symmetry_space_group_name_H-M   'P 21 21 21'
_symmetry_Int_Tables_number      19
_space_group_name_Hall           'P 2ac 2ab'
loop_
_symmetry_equiv_pos_site_id
_symmetry_equiv_pos_as_xyz
1 x,y,z
2 1/2-x,-y,1/2+z
3 1/2+x,1/2-y,-z
4 -x,1/2+y,1/2-z
_cell_length_a                   14.4635(7)
_cell_length_b                   17.3370(10)
_cell_length_c                   29.388(2)
_cell_angle_alpha                90
_cell_angle_beta                 90
_cell_angle_gamma                90
_cell_volume                     7369.15
_exptl_crystal_colour            colorless
_exptl_crystal_description       prism
_cell_formula_units_Z            4
_exptl_crystal_recrystallization_method water-acetonitrile
loop_
_atom_site_label
_atom_site_type_symbol
_atom_site_fract_x
_atom_site_fract_y
_atom_site_fract_z
O1 O -0.0983(4) -0.3773(3) 0.13131(19)
C1 C -0.1657(6) -0.4349(5) 0.1211(3)
H1 H -0.1861 -0.4600 0.1500
O2 O -0.2436(4) -0.4007(3) 0.0996(2)
C2 C -0.1217(6) -0.4947(5) 0.0908(3)
H2 H -0.1683 -0.5363 0.0852
O3 O -0.0447(4) -0.5285(3) 0.1139(2)
H3 H -0.0209 -0.4958 0.1314
C3 C -0.0965(6) -0.4597(5) 0.0452(3)
H4 H -0.0470 -0.4201 0.0496
O4 O -0.0625(5) -0.5202(4) 0.0168(2)
H5 H -0.0459 -0.5018 -0.0083
C4 C -0.1806(6) -0.4220(5) 0.0245(3)
H6 H -0.2281 -0.4624 0.0178
C5 C -0.2206(6) -0.3637(5) 0.0574(3)
H7 H -0.1736 -0.3226 0.0632
C6 C -0.3099(6) -0.3263(6) 0.0416(3)
H8 H -0.3588 -0.3662 0.0410
H9 H -0.3011 -0.3079 0.0100
C7 C -0.2561(8) -0.1815(6) 0.0661(6)
H10 H -0.2084 -0.1901 0.0897
H11 H -0.2279 -0.1929 0.0361
O5 O 0.0314(4) -0.1889(3) 0.20543(18)
C8 C 0.0060(6) -0.2482(5) 0.2366(3)
H12 H 0.0233 -0.2317 0.2680
O6 O -0.0912(4) -0.2616(3) 0.23503(19)
C9 C 0.0587(6) -0.3214(5) 0.2248(3)
H13 H 0.0467 -0.3607 0.2491
O7 O 0.1551(5) -0.3040(4) 0.2244(2)
H14 H 0.1771 -0.3140 0.1986
C10 C 0.0268(6) -0.3537(4) 0.1797(3)
H15 H 0.0480 -0.3173 0.1555
O8 O 0.0665(4) -0.4281(3) 0.1699(2)
H16 H 0.1243 -0.4240 0.1681
C11 C -0.0780(6) -0.3596(5) 0.1762(3)
H17 H -0.1005 -0.4020 0.1964
C12 C -0.1228(6) -0.2838(4) 0.1904(3)
H18 H -0.1039 -0.2430 0.1682
C13 C -0.2273(7) -0.2858(6) 0.1926(3)
H19 H -0.2505 -0.2354 0.2036
H20 H -0.2526 -0.2946 0.1617
O9 O -0.2585(4) -0.3457(3) 0.2225(2)
H21 H -0.2571 -0.3298 0.2494
O10 O 0.0994(4) 0.0374(3) 0.15288(19)
C14 C 0.1068(7) 0.0399(5) 0.2014(3)
H22 H 0.1256 0.0930 0.2109
O11 O 0.0229(5) 0.0213(3) 0.2222(2)
C15 C 0.1807(7) -0.0166(5) 0.2156(3)
H23 H 0.1893 -0.0129 0.2493
O12 O 0.2652(5) 0.0030(4) 0.1941(2)
H24 H 0.3092 -0.0190 0.2075
C16 C 0.1523(7) -0.0974(5) 0.2040(3)
H25 H 0.1496 -0.1016 0.1701
O13 O 0.2193(5) -0.1527(3) 0.2200(2)
H26 H 0.1974 -0.1974 0.2177
C17 C 0.0580(7) -0.1156(5) 0.2222(3)
H27 H 0.0622 -0.1189 0.2561
C18 C -0.0118(7) -0.0538(5) 0.2102(4)
H28 H -0.0221 -0.0551 0.1766
C19 C -0.1060(8) -0.0630(6) 0.2339(5)
H29 H -0.1480 -0.0212 0.2239
H30 H -0.1340 -0.1129 0.2250
O14 O -0.0960(7) -0.0604(5) 0.2816(3)
H31 H -0.0881 -0.0145 0.2899
O15 O 0.0773(4) 0.1220(3) 0.00996(19)
C20 C 0.0940(7) 0.1836(5) 0.0415(3)
H32 H 0.0962 0.2332 0.0242
O16 O 0.0229(5) 0.1883(3) 0.0734(2)
C21 C 0.1871(7) 0.1707(6) 0.0635(4)
H33 H 0.2038 0.2171 0.0821
O17 O 0.2546(5) 0.1596(4) 0.0295(2)
H34 H 0.2968 0.1311 0.0395
C22 C 0.1842(6) 0.1002(6) 0.0943(3)
H35 H 0.1727 0.0537 0.0749
O18 O 0.2702(5) 0.0902(5) 0.1170(2)
H36 H 0.2608 0.0847 0.1450
C23 C 0.1050(7) 0.1080(5) 0.1277(3)
H37 H 0.1172 0.1519 0.1489
C24 C 0.0157(7) 0.1217(6) 0.1023(3)
H38 H 0.0057 0.0761 0.0820
C25 C -0.0758(16) 0.1345(8) 0.1296(5)
H39 H -0.1284 0.1442 0.1088
H40 H -0.0902 0.0891 0.1487
O19 O -0.0578(10) 0.1993(11) 0.1566(4)
H41 H -0.0711 0.2395 0.1420
O20 O -0.0057(4) 0.0125(3) -0.11787(19)
C26 C 0.0024(6) 0.0919(5) -0.1253(3)
H42 H -0.0137 0.1041 -0.1576
O21 O -0.0569(4) 0.1336(3) -0.0956(2)
C27 C 0.1037(6) 0.1135(5) -0.1161(3)
H43 H 0.1110 0.1695 -0.1236
O22 O 0.1637(4) 0.0720(4) -0.1450(2)
H44 H 0.1528 0.0246 -0.1426
C28 C 0.1276(5) 0.1035(5) -0.0662(3)
H45 H 0.1276 0.0472 -0.0589
O23 O 0.2182(4) 0.1329(4) -0.0598(2)
H46 H 0.2327 0.1292 -0.0322
C29 C 0.0582(6) 0.1433(5) -0.0363(3)
H47 H 0.0651 0.2004 -0.0397
C30 C -0.0407(6) 0.1203(5) -0.0483(3)
H48 H -0.0508 0.0646 -0.0411
C31 C -0.1114(7) 0.1694(7) -0.0233(4)
H49 H -0.1745 0.1531 -0.0321
H50 H -0.1046 0.1618 0.0099
O24 O -0.0988(6) 0.2504(5) -0.0342(3)
H51 H -0.1287 0.2775 -0.0156
O25 O -0.1047(4) -0.2218(3) -0.1301(2)
C32 C -0.1208(6) -0.1840(6) -0.1724(3)
H52 H -0.1516 -0.2208 -0.1938
O26 O -0.1782(4) -0.1191(4) -0.1663(2)
C33 C -0.0277(7) -0.1610(5) -0.1919(3)
H53 H -0.0382 -0.1376 -0.2226
O27 O 0.0326(5) -0.2250(4) -0.1972(3)
H54 H 0.0064 -0.2651 -0.1876
C34 C 0.0173(6) -0.1003(5) -0.1617(3)
H55 H 0.0356 -0.1248 -0.1322
O28 O 0.0975(4) -0.0698(4) -0.1830(2)
H56 H 0.1429 -0.0987 -0.1777
C35 C -0.0478(6) -0.0349(5) -0.1521(3)
H57 H -0.0563 -0.0038 -0.1805
C36 C -0.1424(6) -0.0625(5) -0.1353(3)
H58 H -0.1352 -0.0864 -0.1045
C37 C -0.2140(7) -0.0008(6) -0.1330(4)
H59 H -0.1889 0.0438 -0.1160
H60 H -0.2289 0.0167 -0.1642
O29 O -0.2952(4) -0.0265(4) -0.1116(2)
H61 H -0.3344 0.0093 -0.1113
O30 O -0.1532(4) -0.3864(3) -0.0167(2)
C38 C -0.1873(6) -0.4151(5) -0.0579(3)
H62 H -0.2158 -0.4667 -0.0519
O31 O -0.2571(4) -0.3658(3) -0.0767(2)
C39 C -0.1101(7) -0.4260(6) -0.0913(3)
H63 H -0.1360 -0.4516 -0.1190
O32 O -0.0419(5) -0.4750(4) -0.0727(2)
H64 H -0.0086 -0.4925 -0.0937
C40 C -0.0702(6) -0.3488(6) -0.1054(3)
H65 H -0.0406 -0.3243 -0.0783
O33 O -0.0022(5) -0.3589(4) -0.1397(2)
H66 H 0.0498 -0.3462 -0.1293
C41 C -0.1465(6) -0.2967(5) -0.1223(3)
H67 H -0.1721 -0.3172 -0.1515
C42 C -0.2222(6) -0.2907(5) -0.0875(3)
H68 H -0.1973 -0.2661 -0.0593
C43 C -0.3053(6) -0.2437(6) -0.1050(3)
H69 H -0.3386 -0.2758 -0.1275
H70 H -0.2808 -0.1982 -0.1215
C44 C -0.4608(6) -0.2894(6) -0.0517(3)
C45 C -0.5061(12) -0.3079(14) -0.0122(7)
H71 H -0.4976 -0.2731 0.0123
C46 C -0.5635(15) -0.3713(14) -0.0033(8)
H72 H -0.5912 -0.3776 0.0258
C47 C -0.5789(15) -0.4241(14) -0.0371(7)
H73 H -0.6164 -0.4681 -0.0315
C48 C -0.5396(14) -0.4127(11) -0.0792(8)
H74 H -0.5511 -0.4471 -0.1037
C49 C -0.4815(14) -0.3481(9) -0.0844(6)
H75 H -0.4526 -0.3428 -0.1133
C55 C -0.2851(8) -0.0980(6) 0.0671(5)
C56 C -0.3112(8) -0.0612(7) 0.0292(4)
H81 H -0.3164 -0.0898 0.0018
C57 C -0.3310(9) 0.0175(7) 0.0284(5)
H82 H -0.3471 0.0416 0.0005
C58 C -0.3276(8) 0.0599(6) 0.0670(5)
C59 C -0.3041(9) 0.0198(7) 0.1079(5)
H83 H -0.3025 0.0469 0.1360
C60 C -0.2839(9) -0.0577(6) 0.1069(4)
H84 H -0.2689 -0.0836 0.1344
C61 C -0.3483(12) 0.1454(7) 0.0690(8)
H85 H -0.3443 0.1632 0.1005
H86 H -0.4107 0.1549 0.0573
H87 H -0.3033 0.1734 0.0503
S1 S -0.38706(17) -0.21042(15) -0.06456(8)
S2 S -0.34991(16) -0.24698(14) 0.07551(8)
O34 O 0.409(2) -0.1579(13) 0.2695(5)
H88 H 0.3586 -0.1530 0.2550
H89 H 0.4036 -0.1322 0.2937
O35 O -0.5219(6) -0.8337(4) -0.0323(3)
H90 H -0.5373 -0.8749 -0.0192
H91 H -0.4734 -0.8423 -0.0471
O36 O -0.3807(7) -0.8129(5) -0.1626(3)
H92 H -0.4060 -0.8460 -0.1794
H93 H -0.4215 -0.7813 -0.1545
O37 O -0.2251(7) -0.7413(6) -0.1987(3)
H94 H -0.2635 -0.7710 -0.1864
H95 H -0.1805 -0.7355 -0.1807
O38 O -0.0961(11) -0.7043(7) -0.1344(4)
H96 H -0.0956 -0.7410 -0.1156
H97 H -0.1162 -0.6650 -0.1209
O39 O -0.6291(9) -0.8205(8) -0.1139(5)
H98 H -0.6857 -0.8089 -0.1122
H99 H -0.6255 -0.8654 -0.1243
O40 O 0.7427(10) 0.1173(10) 0.2151(6)
H100 H 0.7656 0.1378 0.2384
H101 H 0.7497 0.0694 0.2172
O41 O 0.4216(14) -0.0188(14) 0.2339(7)
H102 H 0.4385 0.0028 0.2583
H103 H 0.4546 -0.0583 0.2305
O42 O 0.3823(17) 0.3575(19) 0.2314(6)
H104 H 0.4406 0.3525 0.2305
H105 H 0.3682 0.3663 0.2588
O43 O -0.3511(5) 0.1195(5) -0.0790(3)
H106 H -0.3014 0.0942 -0.0793
H107 H -0.3507 0.1489 -0.1018
O44 O 0.630(2) -0.0129(14) 0.2222(7)
H108 H 0.6457 0.0339 0.2274
H109 H 0.6452 -0.0381 0.2457
O45 O 0.588(3) 0.2103(13) 0.1898(8)
H110 H 0.6135 0.1673 0.1941
H111 H 0.6254 0.2447 0.1987
O46 O 0.4908(15) 0.0715(19) 0.1505(8)
H112 H 0.5408 0.0756 0.1648
H113 H 0.4636 0.1139 0.1512
O47 O 0.814(3) 0.370(2) 0.1809(13)
H114 H 0.8277 0.3771 0.2090
H115 H 0.7695 0.4015 0.1758
O48 O 0.728(4) 0.302(4) 0.205(2)
C50? C -0.5065(9) -0.2751(9) -0.0107(4)
H76? H -0.5005 -0.2272 0.0047
C51? C -0.5616(11) -0.3348(9) 0.0066(6)
H77? H -0.5955 -0.3274 0.0340
C52? C -0.5665(13) -0.4040(11) -0.0160(7)
H78? H -0.5995 -0.4464 -0.0035
C53? C -0.5217(14) -0.4103(12) -0.0579(7)
H79? H -0.5343 -0.4547 -0.0758
C54? C -0.4596(19) -0.3560(11) -0.0756(9)
H80? H -0.4212 -0.3650 -0.1012
loop_
_geom_bond_atom_site_label_1
_geom_bond_atom_site_label_2
_geom_bond_site_symmetry_1
_geom_bond_site_symmetry_2
O1 C1 1_555 1_555
C1 H1 1_555 1_555
O2 C1 1_555 1_555
C2 C1 1_555 1_555
H2 C2 1_555 1_555
O3 C2 1_555 1_555
H3 O3 1_555 1_555
C3 C2 1_555 1_555
H4 C3 1_555 1_555
O4 C3 1_555 1_555
H5 O4 1_555 1_555
C4 C3 1_555 1_555
H6 C4 1_555 1_555
C5 O2 1_555 1_555
H7 C5 1_555 1_555
C6 C5 1_555 1_555
H8 C6 1_555 1_555
H9 C6 1_555 1_555
C7 H10 1_555 1_555
H11 C7 1_555 1_555
O5 C8 1_555 1_555
C8 H12 1_555 1_555
O6 C8 1_555 1_555
C9 C8 1_555 1_555
H13 C9 1_555 1_555
O7 C9 1_555 1_555
H14 O7 1_555 1_555
C10 C9 1_555 1_555
H15 C10 1_555 1_555
O8 C10 1_555 1_555
H16 O8 1_555 1_555
C11 O1 1_555 1_555
H17 C11 1_555 1_555
C12 O6 1_555 1_555
H18 C12 1_555 1_555
C13 C12 1_555 1_555
H19 C13 1_555 1_555
H20 C13 1_555 1_555
O9 C13 1_555 1_555
H21 O9 1_555 1_555
O10 C14 1_555 1_555
C14 H22 1_555 1_555
O11 C14 1_555 1_555
C15 C14 1_555 1_555
H23 C15 1_555 1_555
O12 C15 1_555 1_555
H24 O12 1_555 1_555
C16 C15 1_555 1_555
H25 C16 1_555 1_555
O13 C16 1_555 1_555
H26 O13 1_555 1_555
C17 O5 1_555 1_555
H27 C17 1_555 1_555
C18 O11 1_555 1_555
H28 C18 1_555 1_555
C19 C18 1_555 1_555
H29 C19 1_555 1_555
H30 C19 1_555 1_555
O14 C19 1_555 1_555
H31 O14 1_555 1_555
O15 C20 1_555 1_555
C20 H32 1_555 1_555
O16 C20 1_555 1_555
C21 C20 1_555 1_555
H33 C21 1_555 1_555
O17 C21 1_555 1_555
H34 O17 1_555 1_555
C22 C21 1_555 1_555
H35 C22 1_555 1_555
O18 C22 1_555 1_555
H36 O18 1_555 1_555
C23 O10 1_555 1_555
H37 C23 1_555 1_555
C24 O16 1_555 1_555
H38 C24 1_555 1_555
C25 C24 1_555 1_555
H39 C25 1_555 1_555
H40 C25 1_555 1_555
O19 C25 1_555 1_555
H41 O19 1_555 1_555
O20 C26 1_555 1_555
C26 H42 1_555 1_555
O21 C26 1_555 1_555
C27 C26 1_555 1_555
H43 C27 1_555 1_555
O22 C27 1_555 1_555
H44 O22 1_555 1_555
C28 C27 1_555 1_555
H45 C28 1_555 1_555
O23 C28 1_555 1_555
H46 O23 1_555 1_555
C29 O15 1_555 1_555
H47 C29 1_555 1_555
C30 O21 1_555 1_555
H48 C30 1_555 1_555
C31 C30 1_555 1_555
H49 C31 1_555 1_555
H50 C31 1_555 1_555
O24 C31 1_555 1_555
H51 O24 1_555 1_555
O25 C32 1_555 1_555
C32 H52 1_555 1_555
O26 C32 1_555 1_555
C33 C32 1_555 1_555
H53 C33 1_555 1_555
O27 C33 1_555 1_555
H54 O27 1_555 1_555
C34 C33 1_555 1_555
H55 C34 1_555 1_555
O28 C34 1_555 1_555
H56 O28 1_555 1_555
C35 O20 1_555 1_555
H57 C35 1_555 1_555
C36 O26 1_555 1_555
H58 C36 1_555 1_555
C37 C36 1_555 1_555
H59 C37 1_555 1_555
H60 C37 1_555 1_555
O29 C37 1_555 1_555
H61 O29 1_555 1_555
O30 C4 1_555 1_555
C38 O30 1_555 1_555
H62 C38 1_555 1_555
O31 C38 1_555 1_555
C39 C38 1_555 1_555
H63 C39 1_555 1_555
O32 C39 1_555 1_555
H64 O32 1_555 1_555
C40 C39 1_555 1_555
H65 C40 1_555 1_555
O33 C40 1_555 1_555
H66 O33 1_555 1_555
C41 O25 1_555 1_555
H67 C41 1_555 1_555
C42 O31 1_555 1_555
H68 C42 1_555 1_555
C43 C42 1_555 1_555
H69 C43 1_555 1_555
H70 C43 1_555 1_555
C44 C45 1_555 1_555
C45 H71 1_555 1_555
C46 C45 1_555 1_555
H72 C46 1_555 1_555
C47 C46 1_555 1_555
H73 C47 1_555 1_555
C48 C47 1_555 1_555
H74 C48 1_555 1_555
C49 C44 1_555 1_555
H75 C49 1_555 1_555
C55 C7 1_555 1_555
C56 C55 1_555 1_555
H81 C56 1_555 1_555
C57 C56 1_555 1_555
H82 C57 1_555 1_555
C58 C57 1_555 1_555
C59 C58 1_555 1_555
H83 C59 1_555 1_555
C60 C55 1_555 1_555
H84 C60 1_555 1_555
C61 C58 1_555 1_555
H85 C61 1_555 1_555
H86 C61 1_555 1_555
H87 C61 1_555 1_555
S1 C43 1_555 1_555
S2 C6 1_555 1_555
O34 H88 1_555 1_555
H89 O34 1_555 1_555
O35 H90 1_555 1_555
H91 O35 1_555 1_555
O36 H92 1_555 1_555
H93 O36 1_555 1_555
O37 H94 1_555 1_555
H95 O37 1_555 1_555
O38 H96 1_555 1_555
H97 O38 1_555 1_555
O39 H98 1_555 1_555
H99 O39 1_555 1_555
O40 H100 1_555 1_555
H101 O40 1_555 1_555
O41 H102 1_555 1_555
H103 O41 1_555 1_555
O42 H104 1_555 1_555
H105 O42 1_555 1_555
O43 H106 1_555 1_555
H107 O43 1_555 1_555
O44 H108 1_555 1_555
H109 O44 1_555 1_555
O45 H110 1_555 1_555
H111 O45 1_555 1_555
O46 H112 1_555 1_555
H113 O46 1_555 1_555
O47 H114 1_555 1_555
H115 O47 1_555 1_555
C4 C5 1_555 1_555
C7 S2 1_555 1_555
C10 C11 1_555 1_555
C11 C12 1_555 1_555
C16 C17 1_555 1_555
C17 C18 1_555 1_555
C22 C23 1_555 1_555
C23 C24 1_555 1_555
C28 C29 1_555 1_555
C29 C30 1_555 1_555
C34 C35 1_555 1_555
C35 C36 1_555 1_555
C40 C41 1_555 1_555
C41 C42 1_555 1_555
C44 S1 1_555 1_555
C48 C49 1_555 1_555
C59 C60 1_555 1_555

#END
