
#######################################################################
#
#                 Cambridge Crystallographic Data Centre
#                                CCDC 
#
#######################################################################
#
# If this CIF has been generated from an entry in the Cambridge 
# Structural Database, then it will include bibliographic, chemical, 
# crystal, experimental, refinement or atomic coordinate data resulting 
# from the CCDC's data processing and validation procedures.
#
#######################################################################

data_RACBOM
_chemical_formula_moiety         'C11 H9 F6 N1 O2'
_chemical_name_systematic        N-Trifluoroacetyl-3-trifluoromethyltyramine
_symmetry_cell_setting           monoclinic
_symmetry_space_group_name_H-M   'P 21/c'
_symmetry_Int_Tables_number      14
_space_group_name_Hall           '-P 2ybc'
loop_
_symmetry_equiv_pos_site_id
_symmetry_equiv_pos_as_xyz
1 x,y,z
2 -x,1/2+y,1/2-z
3 -x,-y,-z
4 x,1/2-y,1/2+z
_cell_length_a                   15.066(3)
_cell_length_b                   11.749(3)
_cell_length_c                   16.130(2)
_cell_angle_alpha                90
_cell_angle_beta                 113.44(1)
_cell_angle_gamma                90
_cell_volume                     2619.56
_cell_formula_units_Z            8
loop_
_atom_site_label
_atom_site_type_symbol
_atom_site_fract_x
_atom_site_fract_y
_atom_site_fract_z
C1 C 0.3431(3) 0.4070(5) 0.5835(3)
C2 C 0.3711(4) 0.2975(5) 0.5740(3)
C3 C 0.4037(4) 0.2697(4) 0.5089(3)
C4 C 0.4058(3) 0.3517(4) 0.4492(3)
C5 C 0.3772(4) 0.4606(4) 0.4559(3)
C6 C 0.3461(4) 0.4869(4) 0.5218(3)
C7 C 0.3125(4) 0.4364(5) 0.6611(4)
C8 C 0.3933(4) 0.4885(5) 0.7422(3)
C9 C 0.5588(4) 0.4331(5) 0.7734(3)
C10 C 0.6408(5) 0.3491(5) 0.8212(5)
C11 C 0.4367(6) 0.1500(5) 0.5034(4)
N1 N 0.4766(3) 0.4132(3) 0.7809(2)
O1 O 0.5776(3) 0.5127(3) 0.7345(3)
O2 O 0.4357(2) 0.3193(3) 0.3835(2)
F1 F 0.6163(4) 0.2626(4) 0.8598(3)
F2 F 0.6645(5) 0.2932(5) 0.7640(4)
F3 F 0.7157(4) 0.4042(5) 0.8845(4)
F4 F 0.4403(4) 0.0861(4) 0.5709(3)
F5 F 0.5242(4) 0.1450(5) 0.5020(3)
F6 F 0.3680(4) 0.1032(4) 0.4184(3)
C12 C 1.1218(4) 0.2927(5) 1.1845(4)
C13 C 1.0470(4) 0.2232(4) 1.1327(3)
C14 C 1.0027(4) 0.2306(4) 1.0388(3)
C15 C 1.0333(4) 0.3105(5) 0.9916(4)
C16 C 1.1101(5) 0.3810(5) 1.0426(4)
C17 C 1.1520(4) 0.3709(5) 1.1369(4)
C18 C 1.1621(4) 0.2911(6) 1.2844(4)
C19 C 1.1162(5) 0.3809(6) 1.3201(4)
C20 C 0.9519(5) 0.4287(6) 1.2193(4)
C21 C 0.8488(5) 0.3903(8) 1.1857(4)
C22 C 0.9186(4) 0.1549(5) 0.9893(4)
N2 N 1.0128(3) 0.3670(4) 1.2849(3)
O3 O 0.9718(4) 0.5113(4) 1.1862(3)
O4 O 0.9880(3) 0.3156(3) 0.8987(2)
F7 F 0.8359(5) 0.2966(6) 1.2230(4)
F8 F 0.8075(4) 0.4852(7) 1.2163(5)
F9 F 0.8221(4) 0.3688(7) 1.1007(5)
F10 F 0.8971(2) 0.0833(3) 1.0425(2)
F11 F 0.8385(3) 0.2098(3) 0.9419(3)
F12 F 0.9337(3) 0.0880(3) 0.9274(2)
loop_
_geom_bond_atom_site_label_1
_geom_bond_atom_site_label_2
_geom_bond_site_symmetry_1
_geom_bond_site_symmetry_2
C1 C2 1_555 1_555
C2 C3 1_555 1_555
C3 C4 1_555 1_555
C4 C5 1_555 1_555
C5 C6 1_555 1_555
C6 C1 1_555 1_555
C7 C1 1_555 1_555
C8 C7 1_555 1_555
C9 C10 1_555 1_555
C10 F1 1_555 1_555
C11 C3 1_555 1_555
N1 C8 1_555 1_555
O1 C9 1_555 1_555
O2 C4 1_555 1_555
F2 C10 1_555 1_555
F3 C10 1_555 1_555
F4 C11 1_555 1_555
F5 C11 1_555 1_555
F6 C11 1_555 1_555
C12 C13 1_555 1_555
C13 C14 1_555 1_555
C14 C15 1_555 1_555
C15 C16 1_555 1_555
C16 C17 1_555 1_555
C17 C12 1_555 1_555
C18 C12 1_555 1_555
C19 C18 1_555 1_555
C20 C21 1_555 1_555
C21 F7 1_555 1_555
C22 C14 1_555 1_555
N2 C19 1_555 1_555
O3 C20 1_555 1_555
O4 C15 1_555 1_555
F8 C21 1_555 1_555
F9 C21 1_555 1_555
F10 C22 1_555 1_555
F11 C22 1_555 1_555
F12 C22 1_555 1_555
C9 N1 1_555 1_555
C20 N2 1_555 1_555

#END
