
#######################################################################
#
#                 Cambridge Crystallographic Data Centre
#                                CCDC 
#
#######################################################################
#
# If this CIF has been generated from an entry in the Cambridge 
# Structural Database, then it will include bibliographic, chemical, 
# crystal, experimental, refinement or atomic coordinate data resulting 
# from the CCDC's data processing and validation procedures.
#
#######################################################################

data_RACCOO
_chemical_formula_moiety         'C14 H14 N4 O6 S1'
_chemical_name_systematic        
'Methyl 2-(4-methoxypyrimidin-2-ylcarbamoylsulfamoyl)benzoate'
_symmetry_cell_setting           triclinic
_symmetry_space_group_name_H-M   'P -1'
_symmetry_Int_Tables_number      2
_space_group_name_Hall           '-P 1'
loop_
_symmetry_equiv_pos_site_id
_symmetry_equiv_pos_as_xyz
1 x,y,z
2 -x,-y,-z
_cell_length_a                   7.129(2)
_cell_length_b                   7.529(2)
_cell_length_c                   16.371(5)
_cell_angle_alpha                94.350(5)
_cell_angle_beta                 101.426(5)
_cell_angle_gamma                100.753(5)
_cell_volume                     840.336
_exptl_crystal_colour            colorless
_exptl_crystal_description       prism
_cell_formula_units_Z            2
_exptl_crystal_recrystallization_method methanol/acetone
loop_
_atom_site_label
_atom_site_type_symbol
_atom_site_fract_x
_atom_site_fract_y
_atom_site_fract_z
S1 S 0.22580(13) 0.54385(11) 0.31053(5)
N1 N 0.2280(4) 0.4999(3) 0.21079(15)
H1 H 0.1242 0.4363 0.1777
N2 N 0.3720(4) 0.4994(3) 0.09462(15)
H2 H 0.4737 0.5389 0.0752
N3 N 0.0552(4) 0.3155(3) 0.05916(15)
N4 N 0.2604(4) 0.3600(4) -0.03992(16)
O1 O 0.0363(3) 0.4544(3) 0.31769(13)
O2 O 0.2894(4) 0.7347(3) 0.33491(14)
O3 O 0.5367(3) 0.6614(3) 0.21730(14)
O4 O -0.2533(3) 0.1355(3) 0.01748(15)
O5 O 0.1109(4) 0.0924(3) 0.25425(15)
O6 O 0.0779(3) 0.0551(3) 0.38590(14)
C1 C 0.3894(5) 0.5606(4) 0.1778(2)
C2 C 0.2210(4) 0.3859(4) 0.03626(19)
C3 C -0.0838(5) 0.2107(4) -0.0001(2)
C4 C -0.0599(5) 0.1743(4) -0.0818(2)
H3 H -0.1583 0.1008 -0.1230
C5 C 0.1151(5) 0.2523(5) -0.0978(2)
H4 H 0.1354 0.2299 -0.1517
C6 C -0.2818(5) 0.1725(5) 0.1016(2)
H5 H -0.1828 0.1338 0.1408
H6 H -0.4085 0.1075 0.1055
H7 H -0.2731 0.3007 0.1143
C7 C 0.4021(4) 0.4333(4) 0.36434(17)
C8 C 0.3617(4) 0.2466(4) 0.37072(17)
C9 C 0.5049(5) 0.1713(4) 0.41629(19)
H8 H 0.4799 0.0474 0.4214
C10 C 0.6854(5) 0.2781(5) 0.4545(2)
H9 H 0.7812 0.2252 0.4845
C11 C 0.7240(5) 0.4608(5) 0.4484(2)
H10 H 0.8454 0.5321 0.4745
C12 C 0.5824(5) 0.5394(5) 0.40337(19)
H11 H 0.6083 0.6638 0.3993
C13 C 0.1691(5) 0.1247(4) 0.3287(2)
C14 C -0.1069(5) -0.0704(5) 0.3537(3)
H12 H -0.1900 -0.0147 0.3145
H13 H -0.1688 -0.1008 0.3992
H14 H -0.0845 -0.1791 0.3259
loop_
_geom_bond_atom_site_label_1
_geom_bond_atom_site_label_2
_geom_bond_site_symmetry_1
_geom_bond_site_symmetry_2
S1 N1 1_555 1_555
N1 H1 1_555 1_555
N2 H2 1_555 1_555
N3 C2 1_555 1_555
N4 C2 1_555 1_555
O1 S1 1_555 1_555
O2 S1 1_555 1_555
O3 C1 1_555 1_555
O4 C3 1_555 1_555
O5 C13 1_555 1_555
O6 C13 1_555 1_555
C1 N1 1_555 1_555
C2 N2 1_555 1_555
C3 N3 1_555 1_555
C4 C3 1_555 1_555
H3 C4 1_555 1_555
C5 N4 1_555 1_555
H4 C5 1_555 1_555
C6 O4 1_555 1_555
H5 C6 1_555 1_555
H6 C6 1_555 1_555
H7 C6 1_555 1_555
C7 S1 1_555 1_555
C8 C7 1_555 1_555
C9 C8 1_555 1_555
H8 C9 1_555 1_555
C10 C9 1_555 1_555
H9 C10 1_555 1_555
C11 C10 1_555 1_555
H10 C11 1_555 1_555
C12 C7 1_555 1_555
H11 C12 1_555 1_555
C13 C8 1_555 1_555
C14 O6 1_555 1_555
H12 C14 1_555 1_555
H13 C14 1_555 1_555
H14 C14 1_555 1_555
N2 C1 1_555 1_555
C4 C5 1_555 1_555
C11 C12 1_555 1_555

#END
