
#######################################################################
#
#                 Cambridge Crystallographic Data Centre
#                                CCDC 
#
#######################################################################
#
# If this CIF has been generated from an entry in the Cambridge 
# Structural Database, then it will include bibliographic, chemical, 
# crystal, experimental, refinement or atomic coordinate data resulting 
# from the CCDC's data processing and validation procedures.
#
#######################################################################

data_RACCAA
_chemical_formula_moiety         'C28 H25 N5 O2'
_chemical_name_systematic        
4-((3,4-Dihydro-5-methyl-3-oxo-2-phenyl-2H-pyrazol-4-ylidene)(phenyl)methylamino)-1,5-dimethyl-2-phenyl-1H-pyrazol-3(2H)-one
_symmetry_cell_setting           monoclinic
_symmetry_space_group_name_H-M   'P 21/c'
_symmetry_Int_Tables_number      14
_space_group_name_Hall           '-P 2ybc'
loop_
_symmetry_equiv_pos_site_id
_symmetry_equiv_pos_as_xyz
1 x,y,z
2 x,1/2-y,1/2+z
3 -x,-y,-z
4 -x,1/2+y,1/2-z
_cell_length_a                   6.986(3)
_cell_length_b                   27.904(11)
_cell_length_c                   12.804(5)
_cell_angle_alpha                90
_cell_angle_beta                 104.127(8)
_cell_angle_gamma                90
_cell_volume                     2420.49
_exptl_crystal_colour            yellow-green
_exptl_crystal_description       block
_cell_formula_units_Z            4
_exptl_crystal_recrystallization_method ethanol
loop_
_atom_site_label
_atom_site_type_symbol
_atom_site_fract_x
_atom_site_fract_y
_atom_site_fract_z
N1 N 0.8053(4) 0.30110(11) 1.2087(3)
N2 N 0.7831(5) 0.33165(12) 1.2917(3)
N3 N 0.3035(4) 0.34004(12) 0.9759(3)
H1 H 0.379(5) 0.3176(13) 0.969(3)
N4 N 0.1191(4) 0.40868(10) 0.7347(2)
N5 N -0.0430(4) 0.37926(10) 0.7359(2)
O1 O 0.6275(3) 0.28144(9) 1.0348(2)
O2 O 0.4422(3) 0.41282(9) 0.83848(19)
C1 C 0.6489(5) 0.30525(14) 1.1194(3)
C2 C 0.5266(5) 0.34211(12) 1.1459(3)
C3 C 0.6174(6) 0.35534(14) 1.2548(3)
C4 C 0.5472(6) 0.38901(15) 1.3281(3)
H2 H 0.6293 0.3860 1.3998
H3 H 0.4132 0.3814 1.3283
H4 H 0.5538 0.4213 1.3033
C5 C 0.3677(5) 0.36127(12) 1.0725(3)
C6 C 0.1894(5) 0.36341(12) 0.8828(3)
C7 C 0.2749(5) 0.39689(13) 0.8237(3)
C8 C 0.0003(5) 0.35498(12) 0.8306(3)
C9 C -0.1482(5) 0.32477(14) 0.8645(3)
H5 H -0.0848 0.3064 0.9267
H6 H -0.2084 0.3035 0.8069
H7 H -0.2475 0.3449 0.8819
C10 C -0.2392(5) 0.39900(14) 0.6880(3)
H8 H -0.3355 0.3738 0.6781
H9 H -0.2400 0.4132 0.6196
H10 H -0.2707 0.4230 0.7350
C11 C 0.9878(5) 0.27704(14) 1.2193(4)
C12 C 1.1368(6) 0.28490(15) 1.3102(4)
H11 H 1.1160 0.3046 1.3650
C13 C 1.3200(7) 0.2628(2) 1.3189(5)
H12 H 1.4218 0.2681 1.3798
C14 C 1.3505(8) 0.2337(2) 1.2387(6)
H13 H 1.4723 0.2190 1.2455
C15 C 1.2029(7) 0.22617(17) 1.1490(5)
H14 H 1.2248 0.2067 1.0942
C16 C 1.0204(6) 0.24739(15) 1.1388(4)
H15 H 0.9194 0.2417 1.0777
C17 C 0.2617(5) 0.40465(13) 1.0930(3)
C18 C 0.3457(5) 0.44941(15) 1.0920(3)
H16 H 0.4677 0.4524 1.0755
C19 C 0.2496(7) 0.48979(15) 1.1153(3)
H17 H 0.3080 0.5198 1.1165
C20 C 0.0683(8) 0.48528(18) 1.1364(3)
H18 H 0.0019 0.5126 1.1499
C21 C -0.0172(6) 0.44145(19) 1.1381(4)
H19 H -0.1396 0.4389 1.1542
C22 C 0.0791(6) 0.40100(14) 1.1158(3)
H20 H 0.0207 0.3711 1.1161
C23 C 0.1463(5) 0.42656(14) 0.6359(3)
C24 C 0.2479(5) 0.46887(14) 0.6354(3)
H21 H 0.2949 0.4857 0.6992
C25 C 0.2795(6) 0.48598(14) 0.5408(4)
H22 H 0.3517 0.5140 0.5415
C26 C 0.2073(6) 0.46276(16) 0.4455(3)
H23 H 0.2264 0.4753 0.3815
C27 C 0.1053(6) 0.42031(16) 0.4455(3)
H24 H 0.0568 0.4040 0.3812
C28 C 0.0752(5) 0.40208(13) 0.5395(3)
H25 H 0.0072 0.3734 0.5389
loop_
_geom_bond_atom_site_label_1
_geom_bond_atom_site_label_2
_geom_bond_site_symmetry_1
_geom_bond_site_symmetry_2
N1 N2 1_555 1_555
N2 C3 1_555 1_555
N3 H1 1_555 1_555
N4 N5 1_555 1_555
N5 C8 1_555 1_555
O1 C1 1_555 1_555
O2 C7 1_555 1_555
C1 N1 1_555 1_555
C2 C1 1_555 1_555
C3 C2 1_555 1_555
C4 C3 1_555 1_555
H2 C4 1_555 1_555
H3 C4 1_555 1_555
H4 C4 1_555 1_555
C5 N3 1_555 1_555
C6 N3 1_555 1_555
C7 N4 1_555 1_555
C8 C6 1_555 1_555
C9 C8 1_555 1_555
H5 C9 1_555 1_555
H6 C9 1_555 1_555
H7 C9 1_555 1_555
C10 N5 1_555 1_555
H8 C10 1_555 1_555
H9 C10 1_555 1_555
H10 C10 1_555 1_555
C11 N1 1_555 1_555
C12 C11 1_555 1_555
H11 C12 1_555 1_555
C13 C12 1_555 1_555
H12 C13 1_555 1_555
C14 C13 1_555 1_555
H13 C14 1_555 1_555
C15 C14 1_555 1_555
H14 C15 1_555 1_555
C16 C11 1_555 1_555
H15 C16 1_555 1_555
C17 C5 1_555 1_555
C18 C17 1_555 1_555
H16 C18 1_555 1_555
C19 C18 1_555 1_555
H17 C19 1_555 1_555
C20 C19 1_555 1_555
H18 C20 1_555 1_555
C21 C20 1_555 1_555
H19 C21 1_555 1_555
C22 C17 1_555 1_555
H20 C22 1_555 1_555
C23 N4 1_555 1_555
C24 C23 1_555 1_555
H21 C24 1_555 1_555
C25 C24 1_555 1_555
H22 C25 1_555 1_555
C26 C25 1_555 1_555
H23 C26 1_555 1_555
C27 C26 1_555 1_555
H24 C27 1_555 1_555
C28 C23 1_555 1_555
H25 C28 1_555 1_555
C2 C5 1_555 1_555
C6 C7 1_555 1_555
C15 C16 1_555 1_555
C21 C22 1_555 1_555
C27 C28 1_555 1_555

#END
