
#######################################################################
#
#                 Cambridge Crystallographic Data Centre
#                                CCDC 
#
#######################################################################
#
# If this CIF has been generated from an entry in the Cambridge 
# Structural Database, then it will include bibliographic, chemical, 
# crystal, experimental, refinement or atomic coordinate data resulting 
# from the CCDC's data processing and validation procedures.
#
#######################################################################

data_RACVEY
_chemical_name_common            
'2-(2-Acetylaminopyridinyl-6-ethylene)-4-methyl-7-oxo-8H-1,8-naphthyridine methanol solvate monohydrate'
_chemical_formula_moiety         'C18 H16 N4 O2,C1 H4 O1,H2 O1'
_chemical_name_systematic        
'N-(6-(2-(4-Methyl-7-oxo-7,8-dihydro-1,8-naphthyridin-2-yl)vinyl)pyridin-2-yl)acetamide methanol solvate monohydrate'
_symmetry_cell_setting           monoclinic
_symmetry_space_group_name_H-M   'P 21/n'
_symmetry_Int_Tables_number      14
_space_group_name_Hall           '-P 2yn'
loop_
_symmetry_equiv_pos_site_id
_symmetry_equiv_pos_as_xyz
1 x,y,z
2 1/2-x,1/2+y,1/2-z
3 -x,-y,-z
4 1/2+x,1/2-y,1/2+z
_cell_length_a                   7.109(2)
_cell_length_b                   19.665(5)
_cell_length_c                   13.658(4)
_cell_angle_alpha                90
_cell_angle_beta                 103.784(6)
_cell_angle_gamma                90
_cell_volume                     1854.38
_cell_formula_units_Z            4
_exptl_crystal_recrystallization_method 'diethyl ether/dichloromethane'
loop_
_atom_site_label
_atom_site_type_symbol
_atom_site_fract_x
_atom_site_fract_y
_atom_site_fract_z
N1 N 0.5875(3) 0.08796(11) 0.48622(18)
H1 H 0.5029 0.0664 0.5099
N2 N 0.4516(3) 0.18418(11) 0.53371(18)
N3 N 0.0314(3) 0.34976(12) 0.67457(17)
N4 N -0.0871(4) 0.45093(12) 0.71285(19)
H2 H -0.0035 0.4663 0.6822
O1 O 0.7002(3) -0.01226(10) 0.44331(17)
O2 O -0.3076(4) 0.48460(13) 0.7967(2)
C1 C 0.7129(4) 0.05040(14) 0.4476(2)
C2 C 0.8574(4) 0.08935(15) 0.4122(2)
H3 H 0.9520 0.0665 0.3884
C3 C 0.8571(4) 0.15674(15) 0.4132(2)
H4 H 0.9498 0.1799 0.3883
C4 C 0.7189(4) 0.19512(14) 0.4514(2)
C5 C 0.7049(4) 0.26649(13) 0.4524(2)
C6 C 0.5665(4) 0.29369(14) 0.4960(2)
H5 H 0.5537 0.3407 0.4983
C7 C 0.4446(4) 0.25262(14) 0.5370(2)
C8 C 0.5850(4) 0.15764(14) 0.4904(2)
C9 C 0.8331(4) 0.31108(15) 0.4073(2)
H6 H 0.9197 0.2833 0.3803
H7 H 0.9068 0.3405 0.4584
H8 H 0.7550 0.3380 0.3543
C10 C 0.3043(4) 0.28319(14) 0.5865(2)
H9 H 0.3027 0.3304 0.5901
C11 C 0.1788(4) 0.24982(15) 0.6267(2)
H10 H 0.1814 0.2026 0.6247
C12 C 0.0372(4) 0.28163(14) 0.6737(2)
C13 C -0.0865(4) 0.24268(15) 0.7147(2)
H11 H -0.0807 0.1955 0.7131
C14 C -0.2187(4) 0.27499(16) 0.7579(2)
H12 H -0.3030 0.2494 0.7857
C15 C -0.2263(4) 0.34393(16) 0.7601(2)
H13 H -0.3145 0.3663 0.7893
C16 C -0.0975(4) 0.38016(15) 0.7170(2)
C17 C -0.1872(5) 0.49907(16) 0.7493(3)
C18 C -0.1414(5) 0.57122(16) 0.7310(3)
H14 H -0.0447 0.5727 0.6925
H15 H -0.0934 0.5937 0.7944
H16 H -0.2566 0.5937 0.6943
O3 O 0.2090(5) 0.51580(14) 0.6368(2)
C19 C 0.3060(8) 0.4907(3) 0.5708(4)
H17 H 0.3806 0.5264 0.5503
H18 H 0.2152 0.4730 0.5128
H19 H 0.3910 0.4550 0.6024
H20 H 0.283(5) 0.5320(19) 0.693(2)
O4 O 0.0904(4) 0.07672(13) 0.6840(2)
H21 H 0.142(4) 0.0648(18) 0.634(2)
H22 H -0.011(4) 0.0498(16) 0.676(2)
loop_
_geom_bond_atom_site_label_1
_geom_bond_atom_site_label_2
_geom_bond_site_symmetry_1
_geom_bond_site_symmetry_2
N1 H1 1_555 1_555
N2 C7 1_555 1_555
N3 C12 1_555 1_555
N4 H2 1_555 1_555
O1 C1 1_555 1_555
O2 C17 1_555 1_555
O3 C19 1_555 1_555
O4 H21 1_555 1_555
C1 N1 1_555 1_555
C2 C1 1_555 1_555
H3 C2 1_555 1_555
C3 C2 1_555 1_555
H4 C3 1_555 1_555
C4 C3 1_555 1_555
C5 C4 1_555 1_555
C6 C5 1_555 1_555
H5 C6 1_555 1_555
C7 C6 1_555 1_555
C8 N1 1_555 1_555
C9 C5 1_555 1_555
H6 C9 1_555 1_555
H7 C9 1_555 1_555
H8 C9 1_555 1_555
C10 C7 1_555 1_555
H9 C10 1_555 1_555
C11 C10 1_555 1_555
H10 C11 1_555 1_555
C12 C11 1_555 1_555
C13 C12 1_555 1_555
H11 C13 1_555 1_555
C14 C13 1_555 1_555
H12 C14 1_555 1_555
C15 C14 1_555 1_555
H13 C15 1_555 1_555
C16 N3 1_555 1_555
C17 N4 1_555 1_555
C18 C17 1_555 1_555
H14 C18 1_555 1_555
H15 C18 1_555 1_555
H16 C18 1_555 1_555
C19 H17 1_555 1_555
H18 C19 1_555 1_555
H19 C19 1_555 1_555
H20 O3 1_555 1_555
H22 O4 1_555 1_555
N2 C8 1_555 1_555
N4 C16 1_555 1_555
C4 C8 1_555 1_555
C15 C16 1_555 1_555

#END
