
#######################################################################
#
#                 Cambridge Crystallographic Data Centre
#                                CCDC 
#
#######################################################################
#
# If this CIF has been generated from an entry in the Cambridge 
# Structural Database, then it will include bibliographic, chemical, 
# crystal, experimental, refinement or atomic coordinate data resulting 
# from the CCDC's data processing and validation procedures.
#
#######################################################################

data_RADCII
_chemical_formula_moiety         'C28 H42 Br2 Si2'
_chemical_name_systematic        
(E)-1,6-Dibromo-3,4-bis((tri-isopropylsilyl)ethynyl)hex-3-ene-1,5-diyne
_symmetry_cell_setting           triclinic
_symmetry_space_group_name_H-M   'P -1'
_symmetry_Int_Tables_number      2
_space_group_name_Hall           '-P 1'
loop_
_symmetry_equiv_pos_site_id
_symmetry_equiv_pos_as_xyz
1 x,y,z
2 -x,-y,-z
_cell_length_a                   8.324(2)
_cell_length_b                   9.926(2)
_cell_length_c                   10.932(2)
_cell_angle_alpha                113.21(2)
_cell_angle_beta                 101.59(2)
_cell_angle_gamma                98.10(2)
_cell_volume                     788.547
_exptl_crystal_colour            colorless
_chemical_melting_point          98deg.C
_cell_formula_units_Z            1
loop_
_atom_site_label
_atom_site_type_symbol
_atom_site_fract_x
_atom_site_fract_y
_atom_site_fract_z
Br1 Br 0.1987(1) 0.4412(1) 0.4401(1)
Si1 Si -0.3391(2) 0.1646(2) 0.8198(2)
C1 C -0.0163(7) 0.0700(6) 0.5274(5)
C2 C -0.5161(7) 0.2367(7) 0.7475(6)
C3 C 0.1057(8) 0.2880(7) 0.4724(6)
C4 C -0.1212(7) 0.1025(6) 0.6210(6)
C5 C 0.0506(7) 0.1880(7) 0.4951(6)
C6 C -0.2034(7) 0.3105(7) 0.9943(6)
C7 C -0.5300(10) -0.1361(8) 0.6736(7)
C8 C -0.2077(8) 0.1301(6) 0.6988(6)
C9 C -0.4219(8) -0.0223(7) 0.8173(6)
C10 C -0.4491(9) 0.3782(8) 0.7315(7)
C11 C -0.2806(10) -0.0871(8) 0.8685(8)
C12 C -0.6457(8) 0.2611(9) 0.8324(7)
C13 C -0.2696(9) 0.3104(9) 1.1144(7)
C14 C -0.0165(8) 0.3130(9) 1.0231(8)
H1 H -0.5755 0.1600 0.6558
H2 H -0.2091 0.4063 0.9942
H3 H -0.5718 -0.2311 0.6739
H4 H -0.6235 -0.0980 0.6456
H5 H -0.4626 -0.1500 0.6099
H6 H -0.4925 -0.0072 0.8787
H7 H -0.5410 0.4117 0.6934
H8 H -0.3859 0.4557 0.8218
H9 H -0.3765 0.3577 0.6718
H10 H -0.3284 -0.1822 0.8662
H11 H -0.2075 -0.1018 0.8091
H12 H -0.2167 -0.0178 0.9617
H13 H -0.7344 0.2966 0.7928
H14 H -0.6933 0.1676 0.8331
H15 H -0.5882 0.3349 0.9256
H16 H -0.1957 0.3878 1.2008
H17 H -0.3809 0.3281 1.1026
H18 H -0.2744 0.2134 1.1149
H19 H 0.0444 0.3911 1.1137
H20 H -0.0043 0.2166 1.0188
H21 H 0.0279 0.3306 0.9547
C1A C 0.0163(7) -0.0700(6) 0.4726(5)
C4A C 0.1212(7) -0.1025(6) 0.3790(6)
C8A C 0.2077(8) -0.1301(6) 0.3012(6)
Si1A Si 0.3391(2) -0.1646(2) 0.1802(2)
C2A C 0.5161(7) -0.2367(7) 0.2525(6)
C10A C 0.4491(9) -0.3782(8) 0.2685(7)
H7A H 0.5410 -0.4117 0.3066
H8A H 0.3859 -0.4557 0.1782
H9A H 0.3765 -0.3577 0.3282
C12A C 0.6457(8) -0.2611(9) 0.1676(7)
H13A H 0.7344 -0.2966 0.2072
H14A H 0.6933 -0.1676 0.1669
H15A H 0.5882 -0.3349 0.0744
H1A H 0.5755 -0.1600 0.3442
C6A C 0.2034(7) -0.3105(7) 0.0057(6)
C13A C 0.2696(9) -0.3104(9) -0.1144(7)
H16A H 0.1957 -0.3878 -0.2008
H17A H 0.3809 -0.3281 -0.1026
H18A H 0.2744 -0.2134 -0.1149
C14A C 0.0165(8) -0.3130(9) -0.0231(8)
H19A H -0.0444 -0.3911 -0.1137
H20A H 0.0043 -0.2166 -0.0188
H21A H -0.0279 -0.3306 0.0453
H2A H 0.2091 -0.4063 0.0058
C9A C 0.4219(8) 0.0223(7) 0.1827(6)
C7A C 0.5300(10) 0.1361(8) 0.3264(7)
H3A H 0.5718 0.2311 0.3261
H4A H 0.6235 0.0980 0.3544
H5A H 0.4626 0.1500 0.3901
C11A C 0.2806(10) 0.0871(8) 0.1315(8)
H10A H 0.3284 0.1822 0.1338
H11A H 0.2075 0.1018 0.1909
H12A H 0.2167 0.0178 0.0383
H6A H 0.4925 0.0072 0.1213
C5A C -0.0506(7) -0.1880(7) 0.5049(6)
C3A C -0.1057(8) -0.2880(7) 0.5276(6)
Br1A Br -0.1987(1) -0.4412(1) 0.5599(1)
loop_
_geom_bond_atom_site_label_1
_geom_bond_atom_site_label_2
_geom_bond_site_symmetry_1
_geom_bond_site_symmetry_2
Br1 C3 1_555 1_555
Si1 C2 1_555 1_555
C1 C4 1_555 1_555
C2 C10 1_555 1_555
C3 C5 1_555 1_555
C4 C8 1_555 1_555
C5 C1 1_555 1_555
C6 Si1 1_555 1_555
C7 C9 1_555 1_555
C8 Si1 1_555 1_555
C9 Si1 1_555 1_555
C10 H7 1_555 1_555
C11 C9 1_555 1_555
C12 C2 1_555 1_555
C13 C6 1_555 1_555
C14 C6 1_555 1_555
H1 C2 1_555 1_555
H2 C6 1_555 1_555
H3 C7 1_555 1_555
H4 C7 1_555 1_555
H5 C7 1_555 1_555
H6 C9 1_555 1_555
H8 C10 1_555 1_555
H9 C10 1_555 1_555
H10 C11 1_555 1_555
H11 C11 1_555 1_555
H12 C11 1_555 1_555
H13 C12 1_555 1_555
H14 C12 1_555 1_555
H15 C12 1_555 1_555
H16 C13 1_555 1_555
H17 C13 1_555 1_555
H18 C13 1_555 1_555
H19 C14 1_555 1_555
H20 C14 1_555 1_555
H21 C14 1_555 1_555
C1A C1 1_555 1_555
C4A C1A 1_555 1_555
C8A C4A 1_555 1_555
Si1A C8A 1_555 1_555
C2A Si1A 1_555 1_555
C10A C2A 1_555 1_555
H7A C10A 1_555 1_555
H8A C10A 1_555 1_555
H9A C10A 1_555 1_555
C12A C2A 1_555 1_555
H13A C12A 1_555 1_555
H14A C12A 1_555 1_555
H15A C12A 1_555 1_555
H1A C2A 1_555 1_555
C6A Si1A 1_555 1_555
C13A C6A 1_555 1_555
H16A C13A 1_555 1_555
H17A C13A 1_555 1_555
H18A C13A 1_555 1_555
C14A C6A 1_555 1_555
H19A C14A 1_555 1_555
H20A C14A 1_555 1_555
H21A C14A 1_555 1_555
H2A C6A 1_555 1_555
C9A Si1A 1_555 1_555
C7A C9A 1_555 1_555
H3A C7A 1_555 1_555
H4A C7A 1_555 1_555
H5A C7A 1_555 1_555
C11A C9A 1_555 1_555
H10A C11A 1_555 1_555
H11A C11A 1_555 1_555
H12A C11A 1_555 1_555
H6A C9A 1_555 1_555
C5A C1A 1_555 1_555
C3A C5A 1_555 1_555
Br1A C3A 1_555 1_555

#END
