
#######################################################################
#
#                 Cambridge Crystallographic Data Centre
#                                CCDC 
#
#######################################################################
#
# If this CIF has been generated from an entry in the Cambridge 
# Structural Database, then it will include bibliographic, chemical, 
# crystal, experimental, refinement or atomic coordinate data resulting 
# from the CCDC's data processing and validation procedures.
#
#######################################################################

data_RADCEE
_chemical_formula_moiety         'C38 H60 Si4'
_chemical_name_systematic        
(E)-5,6-bis((Tri-isopropylsilyl)ethynyl)-1,10-bis(trimethylsilyl)dec-5-ene-1,3,7,9-tetrayne
_symmetry_cell_setting           triclinic
_symmetry_space_group_name_H-M   'P -1'
_symmetry_Int_Tables_number      2
_space_group_name_Hall           '-P 1'
loop_
_symmetry_equiv_pos_site_id
_symmetry_equiv_pos_as_xyz
1 x,y,z
2 -x,-y,-z
_cell_length_a                   8.453(4)
_cell_length_b                   10.688(6)
_cell_length_c                   12.901(6)
_cell_angle_alpha                72.72(4)
_cell_angle_beta                 86.70(4)
_cell_angle_gamma                76.99(4)
_cell_volume                     1084.32
_exptl_crystal_colour            yellow
_chemical_melting_point          '169-171deg.C (dec)'
_cell_formula_units_Z            1
loop_
_atom_site_label
_atom_site_type_symbol
_atom_site_fract_x
_atom_site_fract_y
_atom_site_fract_z
Si1 Si 0.1309(2) 0.6976(2) 0.6136(1)
Si2 Si 0.6760(3) 1.1792(2) 0.9885(1)
C1 C 0.5040(7) 1.0305(5) 0.6357(5)
C2 C 0.4650(6) 0.9826(5) 0.5497(4)
C3 C 0.2633(7) 0.8205(6) 0.5916(4)
C4 C 0.3541(7) 0.8943(6) 0.5731(4)
C5 C 0.5378(7) 1.0668(6) 0.7086(5)
C6 C -0.0648(7) 0.7718(7) 0.6675(6)
C7 C 0.8032(10) 1.3043(8) 0.9367(6)
C8 C 0.6159(8) 1.1366(6) 0.8701(5)
C9 C 0.2530(10) 0.6238(8) 0.4257(6)
C10 C 0.4901(10) 1.2506(8) 1.0518(6)
C11 C 0.5786(7) 1.1058(6) 0.7950(5)
C12 C 0.0976(9) 0.6815(7) 0.4760(5)
C13 C 0.7854(9) 1.0211(8) 1.0834(6)
C14 C 0.2478(10) 0.5369(7) 0.7018(7)
C15 C -0.1974(8) 0.6915(7) 0.6734(7)
C16 C -0.0493(9) 0.8003(9) 0.7734(6)
C17 C 0.1790(10) 0.4172(7) 0.7205(7)
C18 C 0.3842(13) 0.5240(9) 0.7480(10)
C19 C 0.0136(10) 0.8134(7) 0.3982(6)
H1 H -0.1053 0.8574 0.6158
H2 H 0.7405 1.3843 0.8880
H3 H 0.8436 1.3263 0.9956
H4 H 0.8928 1.2662 0.8984
H5 H 0.2305 0.6162 0.3560
H6 H 0.3260 0.6832 0.4173
H7 H 0.3020 0.5369 0.4724
H8 H 0.4275 1.1831 1.0784
H9 H 0.5187 1.2785 1.1111
H10 H 0.4271 1.3264 0.9992
H11 H 0.0280 0.6194 0.4851
H12 H 0.7130 0.9611 1.1090
H13 H 0.8748 0.9799 1.0467
H14 H 0.8256 1.0400 1.1440
H15 H 0.1929 0.5547 0.7649
H16 H -0.2975 0.7325 0.7005
H17 H -0.2155 0.6850 0.6026
H18 H -0.1577 0.6033 0.7216
H19 H -0.1531 0.8397 0.7972
H20 H -0.0049 0.7167 0.8264
H21 H 0.0229 0.8603 0.7648
H22 H 0.2443 0.3403 0.7708
H23 H 0.0696 0.4318 0.7464
H24 H 0.1796 0.4019 0.6508
H25 H 0.4214 0.4349 0.7955
H26 H 0.4580 0.5408 0.6886
H27 H 0.3792 0.5881 0.7874
H28 H -0.0022 0.8032 0.3283
H29 H -0.0898 0.8429 0.4281
H30 H 0.0784 0.8787 0.3906
C2A C 0.5350(6) 1.0174(5) 0.4503(4)
C1A C 0.4960(7) 0.9695(5) 0.3643(5)
C5A C 0.4622(7) 0.9332(6) 0.2914(5)
C11A C 0.4214(7) 0.8942(6) 0.2050(5)
C8A C 0.3841(8) 0.8634(6) 0.1299(5)
Si2A Si 0.3240(3) 0.8208(2) 0.0115(1)
C7A C 0.1968(10) 0.6957(8) 0.0633(6)
H2A H 0.2595 0.6157 0.1120
H3A H 0.1564 0.6737 0.0044
H4A H 0.1072 0.7338 0.1016
C10A C 0.5099(10) 0.7494(8) -0.0518(6)
H8A H 0.5725 0.8169 -0.0784
H9A H 0.4813 0.7215 -0.1111
H10A H 0.5729 0.6736 0.0008
C13A C 0.2146(9) 0.9789(8) -0.0834(6)
H12A H 0.2870 1.0389 -0.1090
H13A H 0.1252 1.0201 -0.0467
H14A H 0.1744 0.9600 -0.1440
C4A C 0.6459(7) 1.1057(6) 0.4269(4)
C3A C 0.7367(7) 1.1795(6) 0.4084(4)
Si1A Si 0.8691(2) 1.3024(2) 0.3864(1)
C6A C 1.0648(7) 1.2282(7) 0.3325(6)
C15A C 1.1974(8) 1.3085(7) 0.3266(7)
H16A H 1.2975 1.2675 0.2995
H17A H 1.2155 1.3150 0.3974
H18A H 1.1577 1.3967 0.2784
C16A C 1.0493(9) 1.1997(9) 0.2266(6)
H19A H 1.1531 1.1603 0.2028
H20A H 1.0049 1.2833 0.1736
H21A H 0.9771 1.1397 0.2352
H1A H 1.1053 1.1426 0.3842
C12A C 0.9024(9) 1.3185(7) 0.5240(5)
C9A C 0.7470(10) 1.3762(8) 0.5743(6)
H5A H 0.7695 1.3838 0.6440
H6A H 0.6740 1.3168 0.5827
H7A H 0.6980 1.4631 0.5276
C19A C 0.9864(10) 1.1866(7) 0.6018(6)
H28A H 1.0022 1.1968 0.6717
H29A H 1.0898 1.1571 0.5719
H30A H 0.9216 1.1213 0.6094
H11A H 0.9720 1.3806 0.5149
C14A C 0.7522(10) 1.4631(7) 0.2982(7)
C17A C 0.8210(10) 1.5828(7) 0.2795(7)
H22A H 0.7557 1.6597 0.2292
H23A H 0.9304 1.5682 0.2536
H24A H 0.8204 1.5981 0.3492
C18A C 0.6158(13) 1.4760(9) 0.2520(10)
H25A H 0.5786 1.5651 0.2045
H26A H 0.5420 1.4592 0.3114
H27A H 0.6208 1.4119 0.2126
H15A H 0.8071 1.4453 0.2351
loop_
_geom_bond_atom_site_label_1
_geom_bond_atom_site_label_2
_geom_bond_site_symmetry_1
_geom_bond_site_symmetry_2
Si1 C3 1_555 1_555
Si2 C7 1_555 1_555
C1 C2 1_555 1_555
C2 C4 1_555 1_555
C3 C4 1_555 1_555
C5 C1 1_555 1_555
C6 Si1 1_555 1_555
C7 H2 1_555 1_555
C8 Si2 1_555 1_555
C9 C12 1_555 1_555
C10 Si2 1_555 1_555
C11 C5 1_555 1_555
C12 Si1 1_555 1_555
C13 Si2 1_555 1_555
C14 Si1 1_555 1_555
C15 C6 1_555 1_555
C16 C6 1_555 1_555
C17 C14 1_555 1_555
C18 C14 1_555 1_555
C19 C12 1_555 1_555
H1 C6 1_555 1_555
H3 C7 1_555 1_555
H4 C7 1_555 1_555
H5 C9 1_555 1_555
H6 C9 1_555 1_555
H7 C9 1_555 1_555
H8 C10 1_555 1_555
H9 C10 1_555 1_555
H10 C10 1_555 1_555
H11 C12 1_555 1_555
H12 C13 1_555 1_555
H13 C13 1_555 1_555
H14 C13 1_555 1_555
H15 C14 1_555 1_555
H16 C15 1_555 1_555
H17 C15 1_555 1_555
H18 C15 1_555 1_555
H19 C16 1_555 1_555
H20 C16 1_555 1_555
H21 C16 1_555 1_555
H22 C17 1_555 1_555
H23 C17 1_555 1_555
H24 C17 1_555 1_555
H25 C18 1_555 1_555
H26 C18 1_555 1_555
H27 C18 1_555 1_555
H28 C19 1_555 1_555
H29 C19 1_555 1_555
H30 C19 1_555 1_555
C2A C2 1_555 1_555
C1A C2A 1_555 1_555
C5A C1A 1_555 1_555
C11A C5A 1_555 1_555
C8A C11A 1_555 1_555
Si2A C8A 1_555 1_555
C7A Si2A 1_555 1_555
H2A C7A 1_555 1_555
H3A C7A 1_555 1_555
H4A C7A 1_555 1_555
C10A Si2A 1_555 1_555
H8A C10A 1_555 1_555
H9A C10A 1_555 1_555
H10A C10A 1_555 1_555
C13A Si2A 1_555 1_555
H12A C13A 1_555 1_555
H13A C13A 1_555 1_555
H14A C13A 1_555 1_555
C4A C2A 1_555 1_555
C3A C4A 1_555 1_555
Si1A C3A 1_555 1_555
C6A Si1A 1_555 1_555
C15A C6A 1_555 1_555
H16A C15A 1_555 1_555
H17A C15A 1_555 1_555
H18A C15A 1_555 1_555
C16A C6A 1_555 1_555
H19A C16A 1_555 1_555
H20A C16A 1_555 1_555
H21A C16A 1_555 1_555
H1A C6A 1_555 1_555
C12A Si1A 1_555 1_555
C9A C12A 1_555 1_555
H5A C9A 1_555 1_555
H6A C9A 1_555 1_555
H7A C9A 1_555 1_555
C19A C12A 1_555 1_555
H28A C19A 1_555 1_555
H29A C19A 1_555 1_555
H30A C19A 1_555 1_555
H11A C12A 1_555 1_555
C14A Si1A 1_555 1_555
C17A C14A 1_555 1_555
H22A C17A 1_555 1_555
H23A C17A 1_555 1_555
H24A C17A 1_555 1_555
C18A C14A 1_555 1_555
H25A C18A 1_555 1_555
H26A C18A 1_555 1_555
H27A C18A 1_555 1_555
H15A C14A 1_555 1_555
C8 C11 1_555 1_555

#END
