
#######################################################################
#
#                 Cambridge Crystallographic Data Centre
#                                CCDC 
#
#######################################################################
#
# If this CIF has been generated from an entry in the Cambridge 
# Structural Database, then it will include bibliographic, chemical, 
# crystal, experimental, refinement or atomic coordinate data resulting 
# from the CCDC's data processing and validation procedures.
#
#######################################################################

data_RADDUY
_chemical_formula_moiety         'C24 H27 Cl1 N2 O2'
_chemical_name_systematic        
2-butyl-3-((2-chlorophenyl)(morpholin-4-yl)methyl)isoquinolin-1(2H)-one
_symmetry_cell_setting           monoclinic
_symmetry_space_group_name_H-M   'P 21/n'
_symmetry_Int_Tables_number      14
_space_group_name_Hall           '-P 2yn'
loop_
_symmetry_equiv_pos_site_id
_symmetry_equiv_pos_as_xyz
1 x,y,z
2 1/2-x,1/2+y,1/2-z
3 -x,-y,-z
4 1/2+x,1/2-y,1/2+z
_cell_length_a                   12.626(9)
_cell_length_b                   9.665(7)
_cell_length_c                   18.180(13)
_cell_angle_alpha                90
_cell_angle_beta                 100.754(11)
_cell_angle_gamma                90
_cell_volume                     2179.55
_exptl_crystal_colour            colorless
_exptl_crystal_description       block
_cell_formula_units_Z            4
loop_
_atom_site_label
_atom_site_type_symbol
_atom_site_fract_x
_atom_site_fract_y
_atom_site_fract_z
C1 C 0.47484(10) 0.81578(13) -0.00732(7)
C2 C 0.37373(11) 0.87717(16) -0.03107(9)
H1 H 0.3574 0.9192 -0.0778
C3 C 0.29876(12) 0.87519(18) 0.01473(10)
H2 H 0.2316 0.9159 -0.0010
C4 C 0.32324(12) 0.81218(19) 0.08487(10)
H3 H 0.2714 0.8088 0.1150
C5 C 0.42326(11) 0.75503(18) 0.10989(9)
H4 H 0.4392 0.7150 0.1572
C6 C 0.50128(10) 0.75707(14) 0.06405(7)
C7 C 0.60776(10) 0.70443(14) 0.08859(7)
H5 H 0.6268 0.6673 0.1364
C8 C 0.68081(10) 0.70795(13) 0.04328(6)
C9 C 0.55117(11) 0.81262(14) -0.05840(7)
C10 C 0.79733(9) 0.66377(13) 0.07131(7)
H6 H 0.8239 0.6152 0.0311
C11 C 0.90750(11) 0.55072(16) 0.18215(8)
H7 H 0.9376 0.6399 0.1994
H8 H 0.9557 0.5071 0.1533
C12 C 0.89640(15) 0.46098(17) 0.24835(9)
H9 H 0.9668 0.4486 0.2797
H10 H 0.8506 0.5075 0.2779
C13 C 0.75006(17) 0.34529(17) 0.17813(9)
H11 H 0.7003 0.3891 0.2056
H12 H 0.7212 0.2551 0.1618
C14 C 0.75921(13) 0.43237(14) 0.11038(8)
H13 H 0.8073 0.3879 0.0818
H14 H 0.6890 0.4417 0.0784
C15 C 0.86643(9) 0.79181(13) 0.09357(7)
C16 C 0.96489(11) 0.81475(17) 0.07191(9)
C17 C 1.02518(14) 0.9330(2) 0.09333(11)
H15 H 1.0896 0.9475 0.0767
C18 C 0.98942(15) 1.0288(2) 0.13918(12)
H16 H 1.0298 1.1079 0.1537
C19 C 0.89405(14) 1.00722(17) 0.16346(10)
H17 H 0.8703 1.0707 0.1952
C20 C 0.83339(11) 0.89022(15) 0.14031(8)
H18 H 0.7685 0.8771 0.1566
C21 C 0.72786(11) 0.75479(15) -0.08269(7)
H19 H 0.8012 0.7661 -0.0556
H20 H 0.7122 0.8308 -0.1179
C22 C 0.71921(14) 0.61892(19) -0.12576(9)
H21 H 0.7353 0.5429 -0.0906
H22 H 0.6458 0.6074 -0.1526
C23 C 0.79552(17) 0.6133(2) -0.18089(11)
H23 H 0.8687 0.6265 -0.1540
H24 H 0.7787 0.6888 -0.2164
C24 C 0.7891(2) 0.4778(3) -0.22346(13)
H25 H 0.8097 0.4032 -0.1889
H26 H 0.8369 0.4810 -0.2587
H27 H 0.7166 0.4635 -0.2497
Cl1 Cl 1.01774(4) 0.69486(6) 0.01707(3)
N1 N 0.65329(8) 0.76053(12) -0.02937(6)
N2 N 0.80123(8) 0.56936(11) 0.13547(6)
O1 O 0.52883(10) 0.85131(15) -0.12364(6)
O2 O 0.85168(13) 0.32877(12) 0.22602(7)
loop_
_geom_bond_atom_site_label_1
_geom_bond_atom_site_label_2
_geom_bond_site_symmetry_1
_geom_bond_site_symmetry_2
C1 C2 1_555 1_555
C2 H1 1_555 1_555
C3 C2 1_555 1_555
H2 C3 1_555 1_555
C4 C3 1_555 1_555
H3 C4 1_555 1_555
C5 C4 1_555 1_555
H4 C5 1_555 1_555
C6 C1 1_555 1_555
C7 C6 1_555 1_555
H5 C7 1_555 1_555
C8 C7 1_555 1_555
C9 C1 1_555 1_555
C10 C8 1_555 1_555
H6 C10 1_555 1_555
C11 H7 1_555 1_555
H8 C11 1_555 1_555
C12 C11 1_555 1_555
H9 C12 1_555 1_555
H10 C12 1_555 1_555
C13 H11 1_555 1_555
H12 C13 1_555 1_555
C14 C13 1_555 1_555
H13 C14 1_555 1_555
H14 C14 1_555 1_555
C15 C10 1_555 1_555
C16 C15 1_555 1_555
C17 C16 1_555 1_555
H15 C17 1_555 1_555
C18 C17 1_555 1_555
H16 C18 1_555 1_555
C19 C18 1_555 1_555
H17 C19 1_555 1_555
C20 C15 1_555 1_555
H18 C20 1_555 1_555
C21 H19 1_555 1_555
H20 C21 1_555 1_555
C22 C21 1_555 1_555
H21 C22 1_555 1_555
H22 C22 1_555 1_555
C23 C22 1_555 1_555
H23 C23 1_555 1_555
H24 C23 1_555 1_555
C24 C23 1_555 1_555
H25 C24 1_555 1_555
H26 C24 1_555 1_555
H27 C24 1_555 1_555
Cl1 C16 1_555 1_555
N1 C8 1_555 1_555
N2 C10 1_555 1_555
O1 C9 1_555 1_555
O2 C12 1_555 1_555
C5 C6 1_555 1_555
C9 N1 1_555 1_555
C11 N2 1_555 1_555
C13 O2 1_555 1_555
C14 N2 1_555 1_555
C19 C20 1_555 1_555
C21 N1 1_555 1_555

#END
