
#######################################################################
#
#                 Cambridge Crystallographic Data Centre
#                                CCDC 
#
#######################################################################
#
# If this CIF has been generated from an entry in the Cambridge 
# Structural Database, then it will include bibliographic, chemical, 
# crystal, experimental, refinement or atomic coordinate data resulting 
# from the CCDC's data processing and validation procedures.
#
#######################################################################

data_RADGOU
_chemical_formula_moiety         'C26 H28 N2 O5,H4 N1 1+,F6 P1 1-'
_chemical_name_systematic        
"Ammonium hexafluorophosphate 8,8'-(oxybis(ethane-2,1-diyloxyethane-2,1-diyloxy))diquinoline"
_symmetry_cell_setting           monoclinic
_symmetry_space_group_name_H-M   'P 21/c'
_symmetry_Int_Tables_number      14
_space_group_name_Hall           '-P 2ybc'
loop_
_symmetry_equiv_pos_site_id
_symmetry_equiv_pos_as_xyz
1 x,y,z
2 -x,1/2+y,1/2-z
3 -x,-y,-z
4 x,1/2-y,1/2+z
_cell_length_a                   9.7803(6)
_cell_length_b                   18.3376(12)
_cell_length_c                   16.0545(11)
_cell_angle_alpha                90
_cell_angle_beta                 101.6080(10)
_cell_angle_gamma                90
_cell_volume                     2820.44
_exptl_crystal_colour            colorless
_exptl_crystal_description       block
_cell_formula_units_Z            4
loop_
_atom_site_label
_atom_site_type_symbol
_atom_site_fract_x
_atom_site_fract_y
_atom_site_fract_z
O1 O 0.32274(16) 0.43206(9) 0.86121(11)
O2 O 0.09606(17) 0.51157(10) 0.77161(11)
O3 O 0.13285(19) 0.64122(10) 0.67494(12)
O4 O 0.39792(18) 0.70707(9) 0.70292(11)
O5 O 0.56526(18) 0.61007(8) 0.62691(10)
N1 N 0.58046(19) 0.48211(11) 0.87188(12)
N2 N 0.5472(2) 0.46869(10) 0.65765(12)
C1 C 0.7093(3) 0.50283(16) 0.87322(18)
H1 H 0.7252 0.5362 0.8326
C2 C 0.8242(3) 0.47732(17) 0.9327(2)
H2 H 0.9141 0.4923 0.9301
C3 C 0.8029(3) 0.43062(16) 0.99406(19)
H3 H 0.8781 0.4141 1.0346
C4 C 0.6672(3) 0.40723(13) 0.99636(15)
C5 C 0.6352(3) 0.35930(15) 1.05932(18)
H4 H 0.7059 0.3421 1.1025
C6 C 0.5028(3) 0.33909(16) 1.05604(19)
H5 H 0.4829 0.3083 1.0981
C7 C 0.3922(3) 0.36274(13) 0.99109(17)
H6 H 0.3014 0.3474 0.9905
C8 C 0.4192(2) 0.40825(12) 0.92919(15)
C9 C 0.5584(2) 0.43362(11) 0.93203(14)
C10 C 0.1818(3) 0.40768(16) 0.85441(18)
H7 H 0.1440 0.4265 0.9016
H8 H 0.1790 0.3548 0.8561
C11 C 0.0976(3) 0.43443(16) 0.77266(19)
H9 H 0.1371 0.4164 0.7258
H10 H 0.0029 0.4162 0.7656
C12 C -0.0045(3) 0.54010(18) 0.7025(2)
H11 H -0.0976 0.5265 0.7090
H12 H 0.0111 0.5199 0.6494
C13 C 0.0076(3) 0.62113(18) 0.7009(2)
H13 H -0.0719 0.6414 0.6617
H14 H 0.0077 0.6407 0.7570
C14 C 0.1516(3) 0.71775(16) 0.6726(2)
H15 H 0.1569 0.7381 0.7289
H16 H 0.0727 0.7398 0.6345
C15 C 0.2823(3) 0.73391(17) 0.6424(2)
H17 H 0.2796 0.7108 0.5877
H18 H 0.2915 0.7861 0.6355
C16 C 0.5314(3) 0.72576(14) 0.68626(18)
H19 H 0.6016 0.7153 0.7367
H20 H 0.5333 0.7779 0.6761
C17 C 0.5708(3) 0.68688(13) 0.61205(17)
H21 H 0.5064 0.6997 0.5599
H22 H 0.6641 0.7009 0.6065
C18 C 0.6319(2) 0.56476(12) 0.58057(14)
C19 C 0.7041(3) 0.58660(14) 0.52035(15)
H23 H 0.7051 0.6355 0.5052
C20 C 0.7769(3) 0.53495(16) 0.48136(17)
H24 H 0.8251 0.5504 0.4402
C21 C 0.7791(3) 0.46317(16) 0.50207(17)
H25 H 0.8299 0.4303 0.4762
C22 C 0.7042(2) 0.43875(13) 0.56263(14)
C23 C 0.7020(3) 0.36552(14) 0.58937(17)
H26 H 0.7539 0.3306 0.5674
C24 C 0.6251(3) 0.34579(14) 0.64662(18)
H27 H 0.6246 0.2977 0.6649
C25 C 0.5464(3) 0.39906(14) 0.67791(17)
H28 H 0.4901 0.3845 0.7152
C26 C 0.6262(2) 0.48933(12) 0.60107(13)
N3 N 0.3796(3) 0.55429(14) 0.74562(17)
H29 H 0.429(3) 0.5412(17) 0.798(2)
H30 H 0.293(3) 0.5439(15) 0.7471(17)
H31 H 0.386(4) 0.605(2) 0.737(2)
H32 H 0.403(3) 0.5336(17) 0.704(2)
P1 P 0.89892(8) 0.74958(4) 0.39718(5)
F1 F 0.8952(3) 0.73287(13) 0.30053(15)
F2 F 0.9539(2) 0.67006(11) 0.42256(17)
F3 F 0.8952(3) 0.76552(19) 0.49197(15)
F4 F 0.8437(3) 0.82856(11) 0.37061(16)
F5 F 1.0518(2) 0.77712(13) 0.4047(2)
F6 F 0.7452(2) 0.72237(16) 0.38632(19)
loop_
_geom_bond_atom_site_label_1
_geom_bond_atom_site_label_2
_geom_bond_site_symmetry_1
_geom_bond_site_symmetry_2
O1 C8 1_555 1_555
O2 C11 1_555 1_555
O3 C13 1_555 1_555
O4 C15 1_555 1_555
O5 C17 1_555 1_555
N1 C1 1_555 1_555
N2 C25 1_555 1_555
C1 H1 1_555 1_555
C2 C1 1_555 1_555
H2 C2 1_555 1_555
C3 C2 1_555 1_555
H3 C3 1_555 1_555
C4 C3 1_555 1_555
C5 C4 1_555 1_555
H4 C5 1_555 1_555
C6 C5 1_555 1_555
H5 C6 1_555 1_555
C7 C6 1_555 1_555
H6 C7 1_555 1_555
C8 C7 1_555 1_555
C9 N1 1_555 1_555
C10 O1 1_555 1_555
H7 C10 1_555 1_555
H8 C10 1_555 1_555
C11 C10 1_555 1_555
H9 C11 1_555 1_555
H10 C11 1_555 1_555
C12 O2 1_555 1_555
H11 C12 1_555 1_555
H12 C12 1_555 1_555
C13 C12 1_555 1_555
H13 C13 1_555 1_555
H14 C13 1_555 1_555
C14 O3 1_555 1_555
H15 C14 1_555 1_555
H16 C14 1_555 1_555
C15 C14 1_555 1_555
H17 C15 1_555 1_555
H18 C15 1_555 1_555
C16 O4 1_555 1_555
H19 C16 1_555 1_555
H20 C16 1_555 1_555
C17 C16 1_555 1_555
H21 C17 1_555 1_555
H22 C17 1_555 1_555
C18 O5 1_555 1_555
C19 C18 1_555 1_555
H23 C19 1_555 1_555
C20 C19 1_555 1_555
H24 C20 1_555 1_555
C21 C20 1_555 1_555
H25 C21 1_555 1_555
C22 C21 1_555 1_555
C23 C22 1_555 1_555
H26 C23 1_555 1_555
C24 C23 1_555 1_555
H27 C24 1_555 1_555
C25 C24 1_555 1_555
H28 C25 1_555 1_555
C26 N2 1_555 1_555
N3 H29 1_555 1_555
H30 N3 1_555 1_555
H31 N3 1_555 1_555
H32 N3 1_555 1_555
P1 F1 1_555 1_555
F2 P1 1_555 1_555
F3 P1 1_555 1_555
F4 P1 1_555 1_555
F5 P1 1_555 1_555
F6 P1 1_555 1_555
C4 C9 1_555 1_555
C8 C9 1_555 1_555
C18 C26 1_555 1_555
C22 C26 1_555 1_555

#END
