
#######################################################################
#
#                 Cambridge Crystallographic Data Centre
#                                CCDC 
#
#######################################################################
#
# If this CIF has been generated from an entry in the Cambridge 
# Structural Database, then it will include bibliographic, chemical, 
# crystal, experimental, refinement or atomic coordinate data resulting 
# from the CCDC's data processing and validation procedures.
#
#######################################################################

data_RADKEP
_chemical_formula_moiety         'C17 H16 Br1 N3 O3 S2'
_chemical_name_systematic        
2-(((4-bromophenyl)(methyl)oxido-sulfanylidene)amino)-1-(methylsulfonyl)-4-phenyl-1H-imidazole
_symmetry_cell_setting           monoclinic
_symmetry_space_group_name_H-M   'C 2/c'
_symmetry_Int_Tables_number      15
_space_group_name_Hall           '-C 2yn'
loop_
_symmetry_equiv_pos_site_id
_symmetry_equiv_pos_as_xyz
1 x,y,z
2 -x,y,1/2-z
3 1/2+x,1/2+y,z
4 1/2-x,1/2+y,1/2-z
5 -x,-y,-z
6 x,-y,1/2+z
7 1/2-x,1/2-y,-z
8 1/2+x,1/2-y,1/2+z
_cell_length_a                   36.5689(10)
_cell_length_b                   5.2464(2)
_cell_length_c                   19.9665(6)
_cell_angle_alpha                90
_cell_angle_beta                 94.596(3)
_cell_angle_gamma                90
_cell_volume                     3818.36
_exptl_crystal_colour            yellow
_exptl_crystal_description       block
_cell_formula_units_Z            8
loop_
_atom_site_label
_atom_site_type_symbol
_atom_site_fract_x
_atom_site_fract_y
_atom_site_fract_z
Br1 Br 0.21898(5) -0.5352(4) 1.19766(8)
C1 C 0.2035(4) -0.330(2) 1.1195(6)
C2 C 0.1700(3) -0.375(2) 1.0888(6)
H1 H 0.1549 -0.5018 1.1037
C3 C 0.1590(3) -0.223(2) 1.0338(6)
H2 H 0.1357 -0.2429 1.0121
C4 C 0.1828(3) -0.0398(18) 1.0114(6)
C5 C 0.2152(3) -0.015(2) 1.0434(7)
H3 H 0.2311 0.1066 1.028
C6 C 0.2277(4) -0.162(3) 1.1006(7)
H4 H 0.2508 -0.1427 1.1228
C7 C 0.1076(3) 0.3220(18) 0.9052(5)
C8 C 0.0549(3) 0.463(2) 0.8531(5)
H5 H 0.0301 0.4886 0.8404
C9 C 0.0835(3) 0.563(2) 0.8245(5)
C10 C 0.0833(3) 0.7442(19) 0.7684(5)
C11 C 0.0548(4) 0.901(3) 0.7518(7)
H6 H 0.0342 0.8943 0.7762
C12 C 0.0556(5) 1.069(3) 0.7004(8)
H7 H 0.035 1.1694 0.6895
C13 C 0.0842(5) 1.095(3) 0.6655(7)
H8 H 0.0845 1.2172 0.6318
C14 C 0.1148(4) 0.932(3) 0.6805(6)
H9 H 0.1352 0.9397 0.6557
C15 C 0.1134(3) 0.766(2) 0.7316(6)
H10 H 0.1336 0.6618 0.7425
C16 C 0.1738(3) -0.029(2) 0.8698(5)
H11 H 0.1621 0.0568 0.8315
H12 H 0.1624 -0.1921 0.875
H13 H 0.1993 -0.0532 0.8634
C17 C 0.0521(3) 0.320(2) 1.0336(6)
H14 H 0.0388 0.2415 1.0676
H15 H 0.0436 0.4913 1.0262
H16 H 0.0778 0.3215 1.0479
N1 N 0.1296(2) 0.2049(18) 0.9541(5)
N2 N 0.0701(2) 0.3074(16) 0.9071(4)
N3 N 0.1163(2) 0.4710(17) 0.8560(4)
O1 O 0.19561(19) 0.3598(14) 0.9431(4)
O2 O 0.0610(3) -0.0937(14) 0.9705(4)
O3 O 0.0086(2) 0.170(2) 0.9332(4)
S1 S 0.16952(7) 0.1574(5) 0.94316(14)
S2 S 0.04512(7) 0.1476(5) 0.95947(14)
loop_
_geom_bond_atom_site_label_1
_geom_bond_atom_site_label_2
_geom_bond_site_symmetry_1
_geom_bond_site_symmetry_2
Br1 C1 1_555 1_555
C1 C2 1_555 1_555
C2 H1 1_555 1_555
C3 C2 1_555 1_555
H2 C3 1_555 1_555
C4 C3 1_555 1_555
C5 C4 1_555 1_555
H3 C5 1_555 1_555
C6 C1 1_555 1_555
H4 C6 1_555 1_555
C7 N1 1_555 1_555
C8 H5 1_555 1_555
C9 C8 1_555 1_555
C10 C9 1_555 1_555
C11 C10 1_555 1_555
H6 C11 1_555 1_555
C12 C11 1_555 1_555
H7 C12 1_555 1_555
C13 C12 1_555 1_555
H8 C13 1_555 1_555
C14 C13 1_555 1_555
H9 C14 1_555 1_555
C15 C10 1_555 1_555
H10 C15 1_555 1_555
C16 H11 1_555 1_555
H12 C16 1_555 1_555
H13 C16 1_555 1_555
C17 H14 1_555 1_555
H15 C17 1_555 1_555
H16 C17 1_555 1_555
N1 S1 1_555 1_555
N2 C7 1_555 1_555
N3 C7 1_555 1_555
O1 S1 1_555 1_555
O2 S2 1_555 1_555
O3 S2 1_555 1_555
S1 C4 1_555 1_555
S2 C17 1_555 1_555
C5 C6 1_555 1_555
C8 N2 1_555 1_555
C9 N3 1_555 1_555
C14 C15 1_555 1_555
C16 S1 1_555 1_555
N2 S2 1_555 1_555

#END
