
#######################################################################
#
#                 Cambridge Crystallographic Data Centre
#                                CCDC 
#
#######################################################################
#
# If this CIF has been generated from an entry in the Cambridge 
# Structural Database, then it will include bibliographic, chemical, 
# crystal, experimental, refinement or atomic coordinate data resulting 
# from the CCDC's data processing and validation procedures.
#
#######################################################################

data_RADPUI
_chemical_formula_moiety         'C41 H40 N4 O11,3(C1 H1 Cl3)'
_chemical_name_systematic        
"N,N'-bis(2,4-Dimethoxy-5-(2-methoxybenzoylamino)phenyl)-2-methoxyisophthalamide chloroform solvate"
_symmetry_cell_setting           monoclinic
_symmetry_space_group_name_H-M   'P 21/n'
_symmetry_Int_Tables_number      14
_space_group_name_Hall           '-P 2yn'
loop_
_symmetry_equiv_pos_site_id
_symmetry_equiv_pos_as_xyz
1 x,y,z
2 1/2+x,1/2-y,1/2+z
3 -x,-y,-z
4 1/2-x,1/2+y,1/2-z
_cell_length_a                   15.7375(18)
_cell_length_b                   12.7613(14)
_cell_length_c                   26.079(3)
_cell_angle_alpha                90
_cell_angle_beta                 99.529(2)
_cell_angle_gamma                90
_cell_volume                     5165.2
_exptl_crystal_colour            yellow
_chemical_melting_point          'above 250deg.C'
_cell_formula_units_Z            4
loop_
_atom_site_label
_atom_site_type_symbol
_atom_site_fract_x
_atom_site_fract_y
_atom_site_fract_z
Cl1 Cl 0.52896(11) 0.52934(12) 0.31620(7)
Cl2 Cl 0.43410(17) 0.59750(18) 0.39210(8)
Cl3 Cl 0.34997(11) 0.48589(14) 0.30325(7)
C42 C 0.4279(4) 0.5759(4) 0.3267(2)
H37 H 0.4153 0.6422 0.3080
Cl4 Cl 0.87904(11) 0.51059(12) 0.47309(8)
Cl5 Cl 0.77940(13) 0.56013(12) 0.55148(6)
Cl6 Cl 0.69796(10) 0.54323(12) 0.44652(6)
C43 C 0.7920(3) 0.5808(4) 0.4875(2)
H38 H 0.8020 0.6556 0.4824
Cl7 Cl 0.82587(8) 0.48675(10) 0.14133(7)
Cl8 Cl 0.84537(9) 0.26650(10) 0.15227(6)
Cl9 Cl 0.70976(8) 0.37147(10) 0.19263(5)
C44 C 0.7722(2) 0.3684(3) 0.14386(17)
H39 H 0.7339 0.3583 0.1106
N1 N 0.2480(2) 0.9121(3) 0.32974(13)
N2 N -0.0299(2) 0.9257(3) 0.42986(12)
N3 N 0.5041(2) 0.9423(3) 0.24546(13)
N4 N -0.2757(2) 0.9722(3) 0.52189(13)
O1 O 0.2641(2) 0.7546(3) 0.29689(16)
O2 O -0.10174(17) 0.77127(19) 0.42336(11)
O3 O 0.09947(14) 0.93389(19) 0.37139(9)
O4 O 0.25036(17) 1.1141(2) 0.34337(10)
O5 O 0.51196(17) 1.1411(2) 0.26770(10)
O6 O 0.46991(18) 0.7701(2) 0.23899(13)
O7 O 0.62959(18) 1.0005(2) 0.19555(12)
O8 O -0.01191(16) 1.12977(19) 0.42779(10)
O9 O -0.25380(16) 1.1734(2) 0.52086(10)
O10 O -0.2691(2) 0.8009(3) 0.50593(18)
O11 O -0.4095(2) 1.0329(3) 0.56183(11)
C1 C 0.2261(3) 0.8115(4) 0.32171(16)
C2 C 0.1529(2) 0.7687(3) 0.34527(14)
C3 C 0.1444(2) 0.6595(3) 0.34288(15)
H1 H 0.1827 0.6204 0.3271
C4 C 0.0806(3) 0.6092(3) 0.36331(15)
H2 H 0.0764 0.5366 0.3616
C5 C 0.0235(2) 0.6652(3) 0.38602(14)
H3 H -0.0198 0.6301 0.3993
C6 C 0.0283(2) 0.7740(3) 0.38988(13)
C7 C 0.0931(2) 0.8239(3) 0.36858(14)
C8 C -0.0395(2) 0.8241(3) 0.41542(14)
C9 C 0.3132(2) 0.9683(3) 0.31129(14)
C10 C 0.3750(2) 0.9224(3) 0.28664(14)
H4 H 0.3734 0.8506 0.2805
C11 C 0.4395(2) 0.9828(3) 0.27101(14)
C12 C 0.4427(2) 1.0902(3) 0.28201(14)
C13 C 0.3800(2) 1.1359(3) 0.30638(14)
H5 H 0.3822 1.2073 0.3136
C14 C 0.3148(2) 1.0759(3) 0.31979(14)
C15 C 0.5169(2) 0.8430(3) 0.23098(16)
C16 C 0.5934(2) 0.8239(3) 0.20491(15)
C17 C 0.6126(3) 0.7194(3) 0.19761(16)
H6 H 0.5772 0.6686 0.2086
C18 C 0.6801(3) 0.6872(4) 0.17535(18)
H7 H 0.6913 0.6163 0.1717
C19 C 0.7314(3) 0.7619(4) 0.15846(18)
H8 H 0.7773 0.7414 0.1424
C20 C 0.7160(3) 0.8672(4) 0.16481(16)
H9 H 0.7518 0.9173 0.1536
C21 C 0.6478(3) 0.8971(3) 0.18772(16)
C22 C -0.0870(2) 0.9874(3) 0.45350(13)
C23 C -0.1508(2) 0.9452(3) 0.47749(13)
H10 H -0.1566 0.8728 0.4791
C24 C -0.2063(2) 1.0091(3) 0.49924(14)
C25 C -0.1953(2) 1.1181(3) 0.49751(15)
C26 C -0.1312(2) 1.1600(3) 0.47400(14)
H11 H -0.1242 1.2323 0.4732
C27 C -0.0773(2) 1.0963(3) 0.45174(14)
C28 C -0.3058(3) 0.8735(4) 0.52272(17)
C29 C -0.3886(3) 0.8566(4) 0.54091(16)
C30 C -0.4186(3) 0.7546(4) 0.53883(18)
H12 H -0.3850 0.7024 0.5275
C31 C -0.4960(4) 0.7272(5) 0.5528(2)
H13 H -0.5139 0.6576 0.5515
C32 C -0.5464(4) 0.8042(7) 0.5687(2)
H14 H -0.5997 0.7871 0.5773
C33 C -0.5193(3) 0.9056(6) 0.57191(19)
H15 H -0.5537 0.9571 0.5832
C34 C -0.4404(3) 0.9322(5) 0.55840(16)
C35 C 0.0502(3) 0.9872(3) 0.32758(16)
H16 H 0.0701 0.9662 0.2963
H17 H 0.0572 1.0616 0.3321
H18 H -0.0097 0.9695 0.3252
C36 C 0.2346(3) 1.2234(3) 0.34176(17)
H19 H 0.2832 1.2593 0.3611
H20 H 0.1841 1.2381 0.3567
H21 H 0.2258 1.2469 0.3063
C37 C 0.5193(3) 1.2499(3) 0.27639(16)
H22 H 0.4717 1.2850 0.2556
H23 H 0.5723 1.2745 0.2670
H24 H 0.5188 1.2643 0.3125
C38 C 0.6889(3) 1.0799(3) 0.18780(19)
H25 H 0.7442 1.0645 0.2081
H26 H 0.6689 1.1463 0.1984
H27 H 0.6941 1.0829 0.1517
C39 C 0.0118(3) 1.2384(3) 0.43216(16)
H28 H -0.0330 1.2801 0.4126
H29 H 0.0645 1.2488 0.4188
H30 H 0.0199 1.2591 0.4680
C40 C -0.2499(3) 1.2847(3) 0.51927(17)
H31 H -0.1951 1.3079 0.5375
H32 H -0.2951 1.3137 0.5355
H33 H -0.2567 1.3076 0.4838
C41 C -0.4590(3) 1.1151(4) 0.58063(18)
H34 H -0.5107 1.1268 0.5561
H35 H -0.4256 1.1783 0.5848
H36 H -0.4737 1.0949 0.6135
H40 H 0.2106(18) 0.943(3) 0.3462(12)
H41 H 0.015(2) 0.954(3) 0.4196(14)
H42 H 0.541(2) 0.989(3) 0.2413(13)
H43 H -0.308(2) 1.027(3) 0.5364(14)
loop_
_geom_bond_atom_site_label_1
_geom_bond_atom_site_label_2
_geom_bond_site_symmetry_1
_geom_bond_site_symmetry_2
Cl1 C42 1_555 1_555
Cl2 C42 1_555 1_555
Cl3 C42 1_555 1_555
Cl4 C43 1_555 1_555
Cl5 C43 1_555 1_555
Cl6 C43 1_555 1_555
Cl7 C44 1_555 1_555
Cl8 C44 1_555 1_555
Cl9 C44 1_555 1_555
N1 C1 1_555 1_555
N2 C8 1_555 1_555
N3 C11 1_555 1_555
N4 C24 1_555 1_555
O1 C1 1_555 1_555
O2 C8 1_555 1_555
O3 C7 1_555 1_555
O4 C14 1_555 1_555
O5 C12 1_555 1_555
O6 C15 1_555 1_555
O7 C21 1_555 1_555
O8 C27 1_555 1_555
O9 C25 1_555 1_555
O10 C28 1_555 1_555
O11 C34 1_555 1_555
C1 C2 1_555 1_555
C2 C3 1_555 1_555
C3 H1 1_555 1_555
C4 C3 1_555 1_555
H2 C4 1_555 1_555
C5 C4 1_555 1_555
H3 C5 1_555 1_555
C6 C5 1_555 1_555
C7 C2 1_555 1_555
C8 C6 1_555 1_555
C9 N1 1_555 1_555
C10 C9 1_555 1_555
H4 C10 1_555 1_555
C11 C10 1_555 1_555
C12 C11 1_555 1_555
C13 C12 1_555 1_555
H5 C13 1_555 1_555
C14 C9 1_555 1_555
C15 N3 1_555 1_555
C16 C15 1_555 1_555
C17 C16 1_555 1_555
H6 C17 1_555 1_555
C18 C17 1_555 1_555
H7 C18 1_555 1_555
C19 C18 1_555 1_555
H8 C19 1_555 1_555
C20 C19 1_555 1_555
H9 C20 1_555 1_555
C21 C16 1_555 1_555
C22 N2 1_555 1_555
C23 C22 1_555 1_555
H10 C23 1_555 1_555
C24 C23 1_555 1_555
C25 C24 1_555 1_555
C26 C25 1_555 1_555
H11 C26 1_555 1_555
C27 C22 1_555 1_555
C28 N4 1_555 1_555
C29 C28 1_555 1_555
C30 C29 1_555 1_555
H12 C30 1_555 1_555
C31 C30 1_555 1_555
H13 C31 1_555 1_555
C32 C31 1_555 1_555
H14 C32 1_555 1_555
C33 C32 1_555 1_555
H15 C33 1_555 1_555
C34 C29 1_555 1_555
C35 O3 1_555 1_555
H16 C35 1_555 1_555
H17 C35 1_555 1_555
H18 C35 1_555 1_555
C36 O4 1_555 1_555
H19 C36 1_555 1_555
H20 C36 1_555 1_555
H21 C36 1_555 1_555
C37 O5 1_555 1_555
H22 C37 1_555 1_555
H23 C37 1_555 1_555
H24 C37 1_555 1_555
C38 O7 1_555 1_555
H25 C38 1_555 1_555
H26 C38 1_555 1_555
H27 C38 1_555 1_555
C39 O8 1_555 1_555
H28 C39 1_555 1_555
H29 C39 1_555 1_555
H30 C39 1_555 1_555
C40 O9 1_555 1_555
H31 C40 1_555 1_555
H32 C40 1_555 1_555
H33 C40 1_555 1_555
C41 O11 1_555 1_555
H34 C41 1_555 1_555
H35 C41 1_555 1_555
H36 C41 1_555 1_555
C42 H37 1_555 1_555
C43 H38 1_555 1_555
C44 H39 1_555 1_555
H40 N1 1_555 1_555
H41 N2 1_555 1_555
H42 N3 1_555 1_555
H43 N4 1_555 1_555
C6 C7 1_555 1_555
C13 C14 1_555 1_555
C20 C21 1_555 1_555
C26 C27 1_555 1_555
C33 C34 1_555 1_555

#END
