
#######################################################################
#
#                 Cambridge Crystallographic Data Centre
#                                CCDC 
#
#######################################################################
#
# If this CIF has been generated from an entry in the Cambridge 
# Structural Database, then it will include bibliographic, chemical, 
# crystal, experimental, refinement or atomic coordinate data resulting 
# from the CCDC's data processing and validation procedures.
#
#######################################################################

data_RADTOG
_chemical_formula_moiety         'C18 H14 N2 O2'
_chemical_name_systematic        bis(4-Methoxyphenyl)fumaronitrile
_symmetry_cell_setting           monoclinic
_symmetry_space_group_name_H-M   'P 21/n'
_symmetry_Int_Tables_number      14
_space_group_name_Hall           '-P 2yn'
loop_
_symmetry_equiv_pos_site_id
_symmetry_equiv_pos_as_xyz
1 x,y,z
2 1/2+x,1/2-y,1/2+z
3 -x,-y,-z
4 1/2-x,1/2+y,1/2-z
_cell_length_a                   3.907(1)
_cell_length_b                   23.189(2)
_cell_length_c                   8.020(1)
_cell_angle_alpha                90
_cell_angle_beta                 97.83(1)
_cell_angle_gamma                90
_cell_volume                     719.833
_exptl_crystal_colour            green
_exptl_crystal_description       prism
_cell_formula_units_Z            2
_exptl_crystal_recrystallization_method dichloromethane
_exptl_crystal_preparation       fluorescent
loop_
_atom_site_label
_atom_site_type_symbol
_atom_site_fract_x
_atom_site_fract_y
_atom_site_fract_z
C1 C -0.0580(4) 0.00955(6) 0.42102(18)
C2 C -0.0381(4) 0.06947(6) 0.35904(18)
C3 C 0.0561(4) 0.08025(6) 0.20017(18)
H1 H 0.1026 0.0496 0.1321
C4 C 0.0808(4) 0.13578(7) 0.14356(19)
H2 H 0.1485 0.1424 0.0385
C5 C 0.0053(4) 0.18203(6) 0.24211(18)
C6 C -0.0994(4) 0.17199(6) 0.39776(18)
H3 H -0.1561 0.2027 0.4634
C7 C -0.1192(4) 0.11602(6) 0.45490(19)
H4 H -0.1882 0.1094 0.5597
C8 C -0.0471(5) 0.28385(7) 0.2738(2)
H5 H -0.0131 0.3190 0.2149
H6 H 0.0982 0.2839 0.3804
H7 H -0.2845 0.2810 0.2916
C9 C -0.2296(4) -0.03053(7) 0.2997(2)
N1 N -0.3772(5) -0.06006(6) 0.20014(19)
O1 O 0.0394(3) 0.23584(4) 0.17623(13)
C1B C 0.0580(4) -0.00955(6) 0.57898(18)
C2B C 0.0381(4) -0.06947(6) 0.64096(18)
C3B C -0.0561(4) -0.08025(6) 0.79983(18)
H1B H -0.1026 -0.0496 0.8679
C4B C -0.0808(4) -0.13578(7) 0.85644(19)
H2B H -0.1485 -0.1424 0.9615
C5B C -0.0053(4) -0.18203(6) 0.75789(18)
C6B C 0.0994(4) -0.17199(6) 0.60224(18)
H3B H 0.1561 -0.2027 0.5366
C7B C 0.1192(4) -0.11602(6) 0.54510(19)
H4B H 0.1882 -0.1094 0.4403
O1B O -0.0394(3) -0.23584(4) 0.82377(13)
C8B C 0.0471(5) -0.28385(7) 0.7262(2)
H5B H 0.0131 -0.3190 0.7851
H6B H -0.0982 -0.2839 0.6196
H7B H 0.2845 -0.2810 0.7084
C9B C 0.2296(4) 0.03053(7) 0.7003(2)
N1B N 0.3772(5) 0.06006(6) 0.79986(19)
loop_
_geom_bond_atom_site_label_1
_geom_bond_atom_site_label_2
_geom_bond_site_symmetry_1
_geom_bond_site_symmetry_2
C1 C2 1_555 1_555
C2 C3 1_555 1_555
C3 H1 1_555 1_555
C4 C3 1_555 1_555
H2 C4 1_555 1_555
C5 C4 1_555 1_555
C6 C5 1_555 1_555
H3 C6 1_555 1_555
C7 C2 1_555 1_555
H4 C7 1_555 1_555
C8 H5 1_555 1_555
H6 C8 1_555 1_555
H7 C8 1_555 1_555
C9 C1 1_555 1_555
N1 C9 1_555 1_555
O1 C5 1_555 1_555
C1B C1 1_555 1_555
C2B C1B 1_555 1_555
C3B C2B 1_555 1_555
H1B C3B 1_555 1_555
C4B C3B 1_555 1_555
H2B C4B 1_555 1_555
C5B C4B 1_555 1_555
C6B C5B 1_555 1_555
H3B C6B 1_555 1_555
C7B C2B 1_555 1_555
H4B C7B 1_555 1_555
O1B C5B 1_555 1_555
C8B O1B 1_555 1_555
H5B C8B 1_555 1_555
H6B C8B 1_555 1_555
H7B C8B 1_555 1_555
C9B C1B 1_555 1_555
N1B C9B 1_555 1_555
C6 C7 1_555 1_555
C8 O1 1_555 1_555
C6B C7B 1_555 1_555

#END
