
#######################################################################
#
#                 Cambridge Crystallographic Data Centre
#                                CCDC 
#
#######################################################################
#
# If this CIF has been generated from an entry in the Cambridge 
# Structural Database, then it will include bibliographic, chemical, 
# crystal, experimental, refinement or atomic coordinate data resulting 
# from the CCDC's data processing and validation procedures.
#
#######################################################################

data_RADVUQ
_chemical_formula_moiety         'C30 H23 Cl1 F3 N1 O7,C6 H6'
_chemical_name_systematic        
"ethyl 4-(2-chlorophenyl)-2-hydroxy-5-nitro-1',3'-dioxo-6-phenyl-2-(trifluoromethyl)-1',3'-dihydrospiro[cyclohexane-1,2'-indene]-3-carboxylate benzene solvate"
_symmetry_cell_setting           tetragonal
_symmetry_space_group_name_H-M   'P 43'
_symmetry_Int_Tables_number      78
_space_group_name_Hall           'P 4cw'
loop_
_symmetry_equiv_pos_site_id
_symmetry_equiv_pos_as_xyz
1 x,y,z
2 -x,-y,1/2+z
3 -y,x,3/4+z
4 y,-x,1/4+z
_cell_length_a                   11.2763(6)
_cell_length_b                   11.2763(6)
_cell_length_c                   25.311(3)
_cell_angle_alpha                90
_cell_angle_beta                 90
_cell_angle_gamma                90
_cell_volume                     3218.42
_exptl_crystal_colour            colorless
_exptl_crystal_description       plate
_cell_formula_units_Z            4
loop_
_atom_site_label
_atom_site_type_symbol
_atom_site_fract_x
_atom_site_fract_y
_atom_site_fract_z
Cl1 Cl 0.69480(5) 0.81170(4) 0.52537(2)
F1 F 0.67087(9) 0.19279(8) 0.39075(4)
F2 F 0.74828(9) 0.24181(10) 0.46519(4)
F3 F 0.81543(9) 0.31658(9) 0.39303(4)
O1 O 0.60978(9) 0.43323(9) 0.37053(4)
H1 H 0.6657 0.4794 0.3630
O2 O 0.55758(10) 0.31272(10) 0.53490(4)
O3 O 0.42799(10) 0.25751(10) 0.35782(4)
O4 O 0.30416(12) 0.65860(11) 0.45801(6)
O5 O 0.39478(14) 0.70220(11) 0.53110(5)
O6 O 0.80912(11) 0.56513(12) 0.39613(5)
O7 O 0.86024(10) 0.56454(10) 0.48192(4)
N1 N 0.37833(13) 0.63946(11) 0.49226(6)
C1 C 0.62607(12) 0.38874(12) 0.42185(5)
C2 C 0.50424(12) 0.34049(11) 0.44157(5)
C3 C 0.41404(12) 0.44631(12) 0.44582(5)
H2 H 0.4130 0.4879 0.4109
C4 C 0.46034(13) 0.53391(12) 0.48697(6)
H3 H 0.4617 0.4921 0.5218
C5 C 0.58666(14) 0.58433(13) 0.47695(6)
H4 H 0.6145 0.6121 0.5124
C6 C 0.67458(13) 0.48236(13) 0.46138(5)
H5 H 0.6949 0.4391 0.4947
C7 C 0.71591(13) 0.28461(13) 0.41773(6)
C8 C 0.51326(12) 0.27348(12) 0.49479(5)
C9 C 0.45436(13) 0.15804(12) 0.48898(6)
C10 C 0.43565(15) 0.07279(13) 0.52807(7)
H6 H 0.4668 0.0820 0.5627
C11 C 0.36941(18) -0.02609(14) 0.51396(7)
H7 H 0.3552 -0.0862 0.5395
C12 C 0.32316(17) -0.03917(14) 0.46302(8)
H8 H 0.2770 -0.1072 0.4548
C13 C 0.34351(15) 0.04557(14) 0.42417(7)
H9 H 0.3126 0.0364 0.3895
C14 C 0.41076(13) 0.14422(12) 0.43786(6)
C15 C 0.44559(12) 0.24681(12) 0.40458(5)
C16 C 0.28880(12) 0.40278(12) 0.45694(5)
C17 C 0.20931(13) 0.39464(14) 0.41462(6)
H10 H 0.2331 0.4203 0.3805
C18 C 0.09596(14) 0.34944(16) 0.42209(7)
H11 H 0.0425 0.3447 0.3931
C19 C 0.06046(14) 0.31107(16) 0.47190(7)
H12 H -0.0168 0.2795 0.4770
C20 C 0.13857(14) 0.31910(14) 0.51410(6)
H13 H 0.1147 0.2925 0.5481
C21 C 0.25175(13) 0.36582(13) 0.50698(5)
H14 H 0.3040 0.3726 0.5363
C22 C 0.58885(14) 0.69487(13) 0.44221(6)
C23 C 0.63547(15) 0.80158(15) 0.46183(8)
C24 C 0.63579(17) 0.90542(15) 0.43197(9)
H15 H 0.6679 0.9764 0.4463
C25 C 0.5894(2) 0.90487(16) 0.38167(9)
H16 H 0.5898 0.9754 0.3611
C26 C 0.5422(2) 0.80124(15) 0.36101(7)
H17 H 0.5096 0.8007 0.3264
C27 C 0.54291(18) 0.69812(14) 0.39110(6)
H18 H 0.5110 0.6275 0.3764
C28 C 0.78873(13) 0.54051(13) 0.44167(6)
C29 C 0.96788(15) 0.63167(16) 0.46903(7)
H19 H 0.9471 0.7070 0.4512
H20 H 1.0197 0.5850 0.4453
C30 C 1.02993(17) 0.65593(19) 0.52045(8)
H21 H 1.1033 0.7000 0.5137
H22 H 1.0489 0.5806 0.5378
H23 H 0.9781 0.7030 0.5434
C31 C 1.0756(2) -0.0476(2) 0.59076(10)
H24 H 1.1439 -0.0967 0.5888
C32 C 1.0364(2) -0.0079(2) 0.63903(10)
H25 H 1.0774 -0.0300 0.6703
C33 C 0.9372(2) 0.0642(3) 0.64221(12)
H26 H 0.9109 0.0926 0.6756
C34 C 0.8765(2) 0.0950(2) 0.59656(13)
H27 H 0.8077 0.1434 0.5986
C35 C 0.9160(2) 0.0553(2) 0.54846(11)
H28 H 0.8747 0.0769 0.5172
C36 C 1.0162(2) -0.0163(3) 0.54506(10)
H29 H 1.0436 -0.0434 0.5117
loop_
_geom_bond_atom_site_label_1
_geom_bond_atom_site_label_2
_geom_bond_site_symmetry_1
_geom_bond_site_symmetry_2
Cl1 C23 1_555 1_555
F1 C7 1_555 1_555
F2 C7 1_555 1_555
F3 C7 1_555 1_555
O1 H1 1_555 1_555
O2 C8 1_555 1_555
O3 C15 1_555 1_555
O4 N1 1_555 1_555
O5 N1 1_555 1_555
O6 C28 1_555 1_555
O7 C28 1_555 1_555
N1 C4 1_555 1_555
C1 O1 1_555 1_555
C2 C1 1_555 1_555
C3 C2 1_555 1_555
H2 C3 1_555 1_555
C4 C3 1_555 1_555
H3 C4 1_555 1_555
C5 C4 1_555 1_555
H4 C5 1_555 1_555
C6 C1 1_555 1_555
H5 C6 1_555 1_555
C7 C1 1_555 1_555
C8 C2 1_555 1_555
C9 C8 1_555 1_555
C10 C9 1_555 1_555
H6 C10 1_555 1_555
C11 C10 1_555 1_555
H7 C11 1_555 1_555
C12 C11 1_555 1_555
H8 C12 1_555 1_555
C13 C12 1_555 1_555
H9 C13 1_555 1_555
C14 C9 1_555 1_555
C15 C2 1_555 1_555
C16 C3 1_555 1_555
C17 C16 1_555 1_555
H10 C17 1_555 1_555
C18 C17 1_555 1_555
H11 C18 1_555 1_555
C19 C18 1_555 1_555
H12 C19 1_555 1_555
C20 C19 1_555 1_555
H13 C20 1_555 1_555
C21 C16 1_555 1_555
H14 C21 1_555 1_555
C22 C5 1_555 1_555
C23 C22 1_555 1_555
C24 C23 1_555 1_555
H15 C24 1_555 1_555
C25 C24 1_555 1_555
H16 C25 1_555 1_555
C26 C25 1_555 1_555
H17 C26 1_555 1_555
C27 C22 1_555 1_555
H18 C27 1_555 1_555
C28 C6 1_555 1_555
C29 O7 1_555 1_555
H19 C29 1_555 1_555
H20 C29 1_555 1_555
C30 C29 1_555 1_555
H21 C30 1_555 1_555
H22 C30 1_555 1_555
H23 C30 1_555 1_555
C31 H24 1_555 1_555
C32 C31 1_555 1_555
H25 C32 1_555 1_555
C33 C32 1_555 1_555
H26 C33 1_555 1_555
C34 C33 1_555 1_555
H27 C34 1_555 1_555
C35 C34 1_555 1_555
H28 C35 1_555 1_555
C36 C31 1_555 1_555
H29 C36 1_555 1_555
C5 C6 1_555 1_555
C13 C14 1_555 1_555
C14 C15 1_555 1_555
C20 C21 1_555 1_555
C26 C27 1_555 1_555
C35 C36 1_555 1_555

#END
