
#######################################################################
#
#                 Cambridge Crystallographic Data Centre
#                                CCDC 
#
#######################################################################
#
# If this CIF has been generated from an entry in the Cambridge 
# Structural Database, then it will include bibliographic, chemical, 
# crystal, experimental, refinement or atomic coordinate data resulting 
# from the CCDC's data processing and validation procedures.
#
#######################################################################

data_RADWOL
_chemical_name_common            14-hydroxy-8-methylpodocarpan-7-one
_chemical_formula_moiety         'C18 H30 O2'
_chemical_name_systematic        
(4aS,4bR,8S,8aS,10aS)-8-hydroxy-1,1,4a,8a-tetramethyldodecahydrophenanthren-9(1H)-one
_symmetry_cell_setting           orthorhombic
_symmetry_space_group_name_H-M   'P 21 21 21'
_symmetry_Int_Tables_number      19
_space_group_name_Hall           'P 2ac 2ab'
loop_
_symmetry_equiv_pos_site_id
_symmetry_equiv_pos_as_xyz
1 x,y,z
2 1/2-x,-y,1/2+z
3 1/2+x,1/2-y,-z
4 -x,1/2+y,1/2-z
_cell_length_a                   6.3373(5)
_cell_length_b                   9.5428(6)
_cell_length_c                   25.8850(12)
_cell_angle_alpha                90
_cell_angle_beta                 90
_cell_angle_gamma                90
_cell_volume                     1565.41
_exptl_crystal_colour            colorless
_chemical_melting_point          '364-366 K'
_cell_formula_units_Z            4
loop_
_atom_site_label
_atom_site_type_symbol
_atom_site_fract_x
_atom_site_fract_y
_atom_site_fract_z
O1 O -0.1316(4) -0.4879(2) -0.01768(8)
H1 H -0.1139 -0.4038 -0.0129
O2 O -0.5420(4) -0.2993(2) 0.00287(7)
C1 C -0.5990(5) -0.5073(3) -0.11275(10)
H2 H -0.7469 -0.5198 -0.1027
C2 C -0.5356(6) -0.6511(3) -0.13480(12)
H3 H -0.6073 -0.7230 -0.1150
H4 H -0.5872 -0.6570 -0.1700
C3 C -0.2985(6) -0.6851(4) -0.13514(12)
H5 H -0.2788 -0.7828 -0.1442
H6 H -0.2290 -0.6285 -0.1612
C4 C -0.1973(6) -0.6572(3) -0.08294(11)
H7 H -0.2530 -0.7226 -0.0577
H8 H -0.0462 -0.6720 -0.0854
C5 C -0.2400(5) -0.5085(3) -0.06518(11)
H9 H -0.1822 -0.4437 -0.0909
C6 C -0.4822(5) -0.4811(3) -0.06005(10)
C7 C -0.5053(5) -0.3301(3) -0.04215(11)
C8 C -0.4907(6) -0.2185(3) -0.08283(10)
H10 H -0.3519 -0.2196 -0.0986
H11 H -0.5135 -0.1269 -0.0676
C9 C -0.6611(5) -0.2487(3) -0.12370(10)
H12 H -0.7870 -0.2727 -0.1036
C10 C -0.6061(5) -0.3843(3) -0.15320(10)
C11 C -0.7895(6) -0.4141(3) -0.19093(11)
H13 H -0.7543 -0.4952 -0.2118
H14 H -0.9153 -0.4365 -0.1712
C12 C -0.8369(6) -0.2899(4) -0.22660(12)
H15 H -0.7144 -0.2705 -0.2479
H16 H -0.9535 -0.3135 -0.2493
C13 C -0.8926(6) -0.1606(3) -0.19544(12)
H17 H -1.0252 -0.1774 -0.1778
H18 H -0.9142 -0.0830 -0.2191
C14 C -0.7268(5) -0.1173(3) -0.15527(11)
C15 C -0.5776(6) -0.5766(3) -0.01826(11)
H19 H -0.7199 -0.5479 -0.0112
H20 H -0.4951 -0.5697 0.0128
H21 H -0.5772 -0.6718 -0.0302
C16 C -0.4023(5) -0.3754(3) -0.18470(11)
H22 H -0.2855 -0.3583 -0.1619
H23 H -0.4131 -0.3002 -0.2092
H24 H -0.3805 -0.4621 -0.2027
C17 C -0.8345(6) -0.0110(3) -0.11879(12)
H25 H -0.9459 -0.0567 -0.1002
H26 H -0.8920 0.0648 -0.1387
H27 H -0.7325 0.0251 -0.0948
C18 C -0.5404(6) -0.0423(3) -0.18113(11)
H28 H -0.4263 -0.0340 -0.1569
H29 H -0.5838 0.0495 -0.1921
H30 H -0.4946 -0.0953 -0.2106
loop_
_geom_bond_atom_site_label_1
_geom_bond_atom_site_label_2
_geom_bond_site_symmetry_1
_geom_bond_site_symmetry_2
O1 H1 1_555 1_555
O2 C7 1_555 1_555
C1 H2 1_555 1_555
C2 C1 1_555 1_555
H3 C2 1_555 1_555
H4 C2 1_555 1_555
C3 C2 1_555 1_555
H5 C3 1_555 1_555
H6 C3 1_555 1_555
C4 C3 1_555 1_555
H7 C4 1_555 1_555
H8 C4 1_555 1_555
C5 O1 1_555 1_555
H9 C5 1_555 1_555
C6 C1 1_555 1_555
C7 C6 1_555 1_555
C8 C7 1_555 1_555
H10 C8 1_555 1_555
H11 C8 1_555 1_555
C9 C8 1_555 1_555
H12 C9 1_555 1_555
C10 C1 1_555 1_555
C11 C10 1_555 1_555
H13 C11 1_555 1_555
H14 C11 1_555 1_555
C12 C11 1_555 1_555
H15 C12 1_555 1_555
H16 C12 1_555 1_555
C13 C12 1_555 1_555
H17 C13 1_555 1_555
H18 C13 1_555 1_555
C14 C9 1_555 1_555
C15 C6 1_555 1_555
H19 C15 1_555 1_555
H20 C15 1_555 1_555
H21 C15 1_555 1_555
C16 C10 1_555 1_555
H22 C16 1_555 1_555
H23 C16 1_555 1_555
H24 C16 1_555 1_555
C17 C14 1_555 1_555
H25 C17 1_555 1_555
H26 C17 1_555 1_555
H27 C17 1_555 1_555
C18 C14 1_555 1_555
H28 C18 1_555 1_555
H29 C18 1_555 1_555
H30 C18 1_555 1_555
C4 C5 1_555 1_555
C5 C6 1_555 1_555
C9 C10 1_555 1_555
C13 C14 1_555 1_555

#END
