
#######################################################################
#
#                 Cambridge Crystallographic Data Centre
#                                CCDC 
#
#######################################################################
#
# If this CIF has been generated from an entry in the Cambridge 
# Structural Database, then it will include bibliographic, chemical, 
# crystal, experimental, refinement or atomic coordinate data resulting 
# from the CCDC's data processing and validation procedures.
#
#######################################################################

data_RADWUR
_chemical_name_common            'kravanhin B'
_chemical_formula_moiety         'C20 H28 O3'
_chemical_name_systematic        
(3aS,3bS,5aS,9aS,9bR)-3b,6,6,9a-tetramethyl-3a,3b,5,5a,6,7,8,9,9a,9b,10,11-dodecahydrophenanthro[1,2-b]furan-2,4-dione
_symmetry_cell_setting           orthorhombic
_symmetry_space_group_name_H-M   'P 21 21 21'
_symmetry_Int_Tables_number      19
_space_group_name_Hall           'P 2ac 2ab'
loop_
_symmetry_equiv_pos_site_id
_symmetry_equiv_pos_as_xyz
1 x,y,z
2 1/2-x,-y,1/2+z
3 1/2+x,1/2-y,-z
4 -x,1/2+y,1/2-z
_cell_length_a                   6.5882(3)
_cell_length_b                   11.2309(6)
_cell_length_c                   23.5965(10)
_cell_angle_alpha                90
_cell_angle_beta                 90
_cell_angle_gamma                90
_cell_volume                     1745.94
_exptl_crystal_colour            colorless
_exptl_crystal_description       block
_chemical_melting_point          '401-403 K'
_cell_formula_units_Z            4
loop_
_atom_site_label
_atom_site_type_symbol
_atom_site_fract_x
_atom_site_fract_y
_atom_site_fract_z
O1 O 0.8474(4) 1.0858(3) -0.01762(9)
O2 O 0.7711(4) 1.2319(3) -0.07931(10)
O3 O 1.0103(4) 0.8563(3) 0.02094(12)
C1 C 0.8714(5) 1.0759(3) 0.04296(12)
H1 H 1.0161 1.0662 0.0514
C2 C 0.8048(5) 1.1938(3) 0.06513(14)
C3 C 0.7918(6) 1.2083(3) 0.12739(13)
H2 H 0.6527 1.2253 0.1382
H3 H 0.8759 1.2747 0.1393
C4 C 0.8632(6) 1.0947(3) 0.15643(13)
H4 H 0.8444 1.1028 0.1970
H5 H 1.0071 1.0842 0.1494
C5 C 0.7480(5) 0.9827(3) 0.13570(11)
H6 H 0.6051 0.9972 0.1449
C6 C 0.7560(5) 0.9703(3) 0.06873(12)
C7 C 0.5397(5) 0.9653(4) 0.04418(14)
H7 H 0.4695 0.8976 0.0595
H8 H 0.5467 0.9584 0.0037
H9 H 0.4681 1.0367 0.0541
C8 C 0.7635(5) 1.2655(4) 0.02233(14)
H10 H 0.7235 1.3446 0.0255
C9 C 0.7904(5) 1.2015(4) -0.03040(16)
C10 C 0.8657(6) 0.8562(4) 0.05299(14)
C11 C 0.7921(6) 0.7432(3) 0.08005(13)
H11 H 0.9047 0.6878 0.0828
H12 H 0.6900 0.7074 0.0558
C12 C 0.7013(5) 0.7620(3) 0.13943(12)
H13 H 0.5626 0.7899 0.1324
C13 C 0.8071(5) 0.8680(3) 0.16898(12)
C14 C 0.7214(5) 0.8801(3) 0.22947(12)
H14 H 0.8008 0.9388 0.2499
H15 H 0.5831 0.9094 0.2272
C15 C 0.7226(7) 0.7643(3) 0.26261(13)
H16 H 0.8609 0.7359 0.2666
H17 H 0.6676 0.7775 0.3002
C16 C 0.5965(6) 0.6719(4) 0.23196(14)
H18 H 0.4577 0.7002 0.2294
H19 H 0.5955 0.5992 0.2541
C17 C 0.6740(6) 0.6433(3) 0.17197(14)
C18 C 0.5142(7) 0.5680(4) 0.14111(18)
H20 H 0.3880 0.6106 0.1399
H21 H 0.4953 0.4942 0.1610
H22 H 0.5593 0.5519 0.1032
C19 C 0.8678(6) 0.5670(4) 0.17706(16)
H23 H 0.9158 0.5467 0.1399
H24 H 0.8379 0.4956 0.1978
H25 H 0.9706 0.6114 0.1967
C20 C 1.0398(5) 0.8524(4) 0.17205(15)
H26 H 1.0944 0.8485 0.1344
H27 H 1.0713 0.7802 0.1920
H28 H 1.0984 0.9189 0.1917
loop_
_geom_bond_atom_site_label_1
_geom_bond_atom_site_label_2
_geom_bond_site_symmetry_1
_geom_bond_site_symmetry_2
O1 C1 1_555 1_555
O2 C9 1_555 1_555
O3 C10 1_555 1_555
C1 H1 1_555 1_555
C2 C1 1_555 1_555
C3 C2 1_555 1_555
H2 C3 1_555 1_555
H3 C3 1_555 1_555
C4 C3 1_555 1_555
H4 C4 1_555 1_555
H5 C4 1_555 1_555
C5 C4 1_555 1_555
H6 C5 1_555 1_555
C6 C1 1_555 1_555
C7 C6 1_555 1_555
H7 C7 1_555 1_555
H8 C7 1_555 1_555
H9 C7 1_555 1_555
C8 C2 1_555 1_555
H10 C8 1_555 1_555
C9 O1 1_555 1_555
C10 C6 1_555 1_555
C11 C10 1_555 1_555
H11 C11 1_555 1_555
H12 C11 1_555 1_555
C12 C11 1_555 1_555
H13 C12 1_555 1_555
C13 C5 1_555 1_555
C14 C13 1_555 1_555
H14 C14 1_555 1_555
H15 C14 1_555 1_555
C15 C14 1_555 1_555
H16 C15 1_555 1_555
H17 C15 1_555 1_555
C16 C15 1_555 1_555
H18 C16 1_555 1_555
H19 C16 1_555 1_555
C17 C12 1_555 1_555
C18 C17 1_555 1_555
H20 C18 1_555 1_555
H21 C18 1_555 1_555
H22 C18 1_555 1_555
C19 C17 1_555 1_555
H23 C19 1_555 1_555
H24 C19 1_555 1_555
H25 C19 1_555 1_555
C20 C13 1_555 1_555
H26 C20 1_555 1_555
H27 C20 1_555 1_555
H28 C20 1_555 1_555
C5 C6 1_555 1_555
C8 C9 1_555 1_555
C12 C13 1_555 1_555
C16 C17 1_555 1_555

#END
