
#######################################################################
#
#                 Cambridge Crystallographic Data Centre
#                                CCDC 
#
#######################################################################
#
# If this CIF has been generated from an entry in the Cambridge 
# Structural Database, then it will include bibliographic, chemical, 
# crystal, experimental, refinement or atomic coordinate data resulting 
# from the CCDC's data processing and validation procedures.
#
#######################################################################

data_RAFGIP
_chemical_formula_moiety         'C21 H16 N2'
_chemical_name_systematic        trans-4-(N-(4-Cyanophenyl)amino)stilbene
_symmetry_cell_setting           orthorhombic
_symmetry_space_group_name_H-M   'P n a 21'
_symmetry_Int_Tables_number      33
_space_group_name_Hall           'P 2c -2n'
loop_
_symmetry_equiv_pos_site_id
_symmetry_equiv_pos_as_xyz
1 x,y,z
2 -x,-y,1/2+z
3 1/2+x,1/2-y,z
4 1/2-x,1/2+y,1/2+z
_cell_length_a                   10.3733(11)
_cell_length_b                   26.427(3)
_cell_length_c                   5.8341(6)
_cell_angle_alpha                90
_cell_angle_beta                 90
_cell_angle_gamma                90
_cell_volume                     1599.33
_exptl_crystal_colour            colorless
_exptl_crystal_description       equant
_chemical_melting_point          '198-199 deg.C'
_cell_formula_units_Z            4
loop_
_atom_site_label
_atom_site_type_symbol
_atom_site_fract_x
_atom_site_fract_y
_atom_site_fract_z
N1 N 0.57853(17) 0.35734(6) 0.7211
N2 N 0.97063(19) 0.20363(7) 0.1218(5)
C1 C 0.0477(2) 0.60193(8) 0.3741(5)
C2 C -0.0347(2) 0.64226(8) 0.3398(5)
C3 C -0.1251(2) 0.65497(8) 0.5017(6)
C4 C -0.1354(2) 0.62653(8) 0.6985(5)
C5 C -0.0524(2) 0.58627(7) 0.7336(5)
C6 C 0.04127(19) 0.57347(7) 0.5745(5)
C7 C 0.1305(2) 0.53175(7) 0.6273(5)
C8 C 0.2336(2) 0.51835(7) 0.5108(5)
C9 C 0.3226(2) 0.47673(8) 0.5651(5)
C10 C 0.3176(2) 0.44904(8) 0.7659(5)
C11 C 0.4030(2) 0.41095(8) 0.8098(5)
C12 C 0.4985(2) 0.39782(7) 0.6554(5)
C13 C 0.5046(2) 0.42490(9) 0.4545(5)
C14 C 0.4192(2) 0.46392(9) 0.4137(5)
C15 C 0.6654(2) 0.32876(7) 0.5970(5)
C16 C 0.6924(2) 0.28043(8) 0.6756(5)
C17 C 0.7741(3) 0.24892(8) 0.5625(5)
C18 C 0.8329(2) 0.26451(8) 0.3624(5)
C19 C 0.8119(2) 0.31277(8) 0.2891(5)
C20 C 0.7307(2) 0.34489(8) 0.4044(6)
C21 C 0.9113(2) 0.23075(8) 0.2317(5)
H1 H 0.5510 0.3405 0.8406
H2 H 0.1117 0.5947 0.2576
H3 H -0.0282 0.6627 0.1973
H4 H -0.1860 0.6849 0.4738
H5 H -0.2000 0.6364 0.8078
H6 H -0.0531 0.5671 0.8780
H7 H 0.1071 0.5110 0.7638
H8 H 0.2619 0.5398 0.3710
H9 H 0.2529 0.4578 0.8722
H10 H 0.3965 0.3899 0.9456
H11 H 0.5628 0.4159 0.3344
H12 H 0.4212 0.4817 0.2695
H13 H 0.6525 0.2702 0.8085
H14 H 0.7888 0.2166 0.6082
H15 H 0.8525 0.3239 0.1524
H16 H 0.7188 0.3759 0.3530
loop_
_geom_bond_atom_site_label_1
_geom_bond_atom_site_label_2
_geom_bond_site_symmetry_1
_geom_bond_site_symmetry_2
N1 C12 1_555 1_555
N2 C21 1_555 1_555
C1 C2 1_555 1_555
C2 C3 1_555 1_555
C3 C4 1_555 1_555
C4 C5 1_555 1_555
C5 C6 1_555 1_555
C6 C1 1_555 1_555
C7 C6 1_555 1_555
C8 C7 1_555 1_555
C9 C8 1_555 1_555
C10 C9 1_555 1_555
C11 C10 1_555 1_555
C12 C11 1_555 1_555
C13 C12 1_555 1_555
C14 C9 1_555 1_555
C15 N1 1_555 1_555
C16 C15 1_555 1_555
C17 C16 1_555 1_555
C18 C17 1_555 1_555
C19 C18 1_555 1_555
C20 C15 1_555 1_555
C21 C18 1_555 1_555
H1 N1 1_555 1_555
H2 C1 1_555 1_555
H3 C2 1_555 1_555
H4 C3 1_555 1_555
H5 C4 1_555 1_555
H6 C5 1_555 1_555
H7 C7 1_555 1_555
H8 C8 1_555 1_555
H9 C10 1_555 1_555
H10 C11 1_555 1_555
H11 C13 1_555 1_555
H12 C14 1_555 1_555
H13 C16 1_555 1_555
H14 C17 1_555 1_555
H15 C19 1_555 1_555
H16 C20 1_555 1_555
C13 C14 1_555 1_555
C19 C20 1_555 1_555

#END
