
#######################################################################
#
#                 Cambridge Crystallographic Data Centre
#                                CCDC 
#
#######################################################################
#
# If this CIF has been generated from an entry in the Cambridge 
# Structural Database, then it will include bibliographic, chemical, 
# crystal, experimental, refinement or atomic coordinate data resulting 
# from the CCDC's data processing and validation procedures.
#
#######################################################################

data_RAFHOX
_chemical_formula_moiety         'C18 H21 Cl2 N2 1+,I1 1-,0.5(H2 O1)'
_chemical_name_systematic        
'4-(2-(4-(bis(2-chloroethyl)amino)phenyl)vinyl)-1-methylpyridinium iodide hemihydrate'
_symmetry_cell_setting           monoclinic
_symmetry_space_group_name_H-M   'C 2/c'
_symmetry_Int_Tables_number      15
_space_group_name_Hall           '-C 2yn'
loop_
_symmetry_equiv_pos_site_id
_symmetry_equiv_pos_as_xyz
1 x,y,z
2 -x,y,1/2-z
3 1/2+x,1/2+y,z
4 1/2-x,1/2+y,1/2-z
5 -x,-y,-z
6 x,-y,1/2+z
7 1/2-x,1/2-y,-z
8 1/2+x,1/2-y,1/2+z
_cell_length_a                   26.091(5)
_cell_length_b                   11.736(5)
_cell_length_c                   17.442(5)
_cell_angle_alpha                90
_cell_angle_beta                 128.708(5)
_cell_angle_gamma                90
_cell_volume                     4167.66
_cell_formula_units_Z            8
loop_
_atom_site_label
_atom_site_type_symbol
_atom_site_fract_x
_atom_site_fract_y
_atom_site_fract_z
I1 I 0.13475(3) 0.82476(5) 0.31072(4)
Cl1 Cl 0.32724(13) -0.0356(2) 0.38840(17)
C1 C 0.2709(4) 0.1200(6) 0.5847(5)
N1 N 0.3298(3) 0.1083(7) 0.6014(5)
N2 N -0.1496(3) 0.1488(5) 0.4124(5)
C2 C 0.2674(4) 0.1485(7) 0.6594(6)
H1 H 0.3061 0.1600 0.7229
C3 C 0.2084(4) 0.1597(6) 0.6410(6)
H2 H 0.2082 0.1796 0.6924
C4 C 0.1498(4) 0.1428(6) 0.5500(6)
C5 C 0.0878(4) 0.1541(6) 0.5346(6)
H3 H 0.0912 0.1785 0.5883
C6 C -0.0320(4) 0.1403(6) 0.4415(6)
C7 C 0.1521(4) 0.1130(7) 0.4744(6)
H4 H 0.1130 0.0992 0.4119
C8 C 0.2094(4) 0.1037(7) 0.4898(6)
H5 H 0.2088 0.0863 0.4372
C9 C -0.1483(4) 0.1110(7) 0.3413(6)
H6 H -0.1872 0.0871 0.2820
C10 C 0.4092(5) 0.0104(10) 0.7546(8)
H7 H 0.4108 -0.0494 0.7177
H8 H 0.3739 -0.0081 0.7569
C11 C 0.3927(4) 0.1204(9) 0.7001(6)
H9 H 0.3899 0.1812 0.7349
H10 H 0.4269 0.1398 0.6956
C12 C 0.0282(4) 0.1335(7) 0.4533(6)
H11 H 0.0242 0.1128 0.3983
C13 C -0.0921(4) 0.1804(7) 0.5007(7)
H12 H -0.0928 0.2045 0.5509
C14 C -0.2112(5) 0.1558(8) 0.3978(8)
H13 H -0.2310 0.2289 0.3710
H14 H -0.2024 0.1459 0.4597
H15 H -0.2405 0.0970 0.3532
C15 C -0.0340(4) 0.1774(7) 0.5164(7)
H16 H 0.0044 0.2000 0.5768
C16 C -0.0905(4) 0.1067(7) 0.3541(6)
H17 H -0.0911 0.0808 0.3032
C17 C 0.3260(5) -0.0292(8) 0.4943(7)
H18 H 0.2854 -0.0605 0.4762
H19 H 0.3626 -0.0717 0.5499
C18 C 0.3317(4) 0.0929(8) 0.5183(7)
H20 H 0.2957 0.1345 0.4613
H21 H 0.3726 0.1228 0.5364
Cl2 Cl 0.4931(4) 0.0096(19) 0.8904(4)
O1 O 0.0000 0.9988(10) 0.2500
H22 H 0.027(4) 0.949(7) 0.262(9)
H22A H -0.027(4) 0.949(7) 0.238(9)
Cl3? Cl 0.4860(6) 0.057(4) 0.8798(13)
loop_
_geom_bond_atom_site_label_1
_geom_bond_atom_site_label_2
_geom_bond_site_symmetry_1
_geom_bond_site_symmetry_2
Cl1 C17 1_555 1_555
C1 N1 1_555 1_555
N1 C11 1_555 1_555
N2 C9 1_555 1_555
C2 C1 1_555 1_555
H1 C2 1_555 1_555
C3 C2 1_555 1_555
H2 C3 1_555 1_555
C4 C3 1_555 1_555
C5 C4 1_555 1_555
H3 C5 1_555 1_555
C6 C12 1_555 1_555
C7 C4 1_555 1_555
H4 C7 1_555 1_555
C8 C1 1_555 1_555
H5 C8 1_555 1_555
C9 H6 1_555 1_555
C10 H7 1_555 1_555
H8 C10 1_555 1_555
C11 C10 1_555 1_555
H9 C11 1_555 1_555
H10 C11 1_555 1_555
C12 C5 1_555 1_555
H11 C12 1_555 1_555
C13 N2 1_555 1_555
H12 C13 1_555 1_555
C14 N2 1_555 1_555
H13 C14 1_555 1_555
H14 C14 1_555 1_555
H15 C14 1_555 1_555
C15 C6 1_555 1_555
H16 C15 1_555 1_555
C16 C6 1_555 1_555
H17 C16 1_555 1_555
C17 H18 1_555 1_555
H19 C17 1_555 1_555
C18 N1 1_555 1_555
H20 C18 1_555 1_555
H21 C18 1_555 1_555
Cl2 C10 1_555 1_555
O1 H22 1_555 1_555
H22A O1 1_555 1_555
C7 C8 1_555 1_555
C9 C16 1_555 1_555
C13 C15 1_555 1_555
C17 C18 1_555 1_555

#END
