
#######################################################################
#
#                 Cambridge Crystallographic Data Centre
#                                CCDC 
#
#######################################################################
#
# If this CIF has been generated from an entry in the Cambridge 
# Structural Database, then it will include bibliographic, chemical, 
# crystal, experimental, refinement or atomic coordinate data resulting 
# from the CCDC's data processing and validation procedures.
#
#######################################################################

data_RAFHUC
_chemical_formula_moiety         'C22 H28 N2 O2'
_chemical_name_systematic        
'Ethyl 6-(1-((2,6-diisopropylphenyl)imino)ethyl)pyridine-2-carboxylate'
_symmetry_cell_setting           triclinic
_symmetry_space_group_name_H-M   'P -1'
_symmetry_Int_Tables_number      2
_space_group_name_Hall           '-P 1'
loop_
_symmetry_equiv_pos_site_id
_symmetry_equiv_pos_as_xyz
1 x,y,z
2 -x,-y,-z
_cell_length_a                   8.566(3)
_cell_length_b                   11.233(3)
_cell_length_c                   22.545(7)
_cell_angle_alpha                103.851(5)
_cell_angle_beta                 91.796(6)
_cell_angle_gamma                93.920(6)
_cell_volume                     2098.76
_exptl_crystal_colour            yellow
_cell_formula_units_Z            4
loop_
_atom_site_label
_atom_site_type_symbol
_atom_site_fract_x
_atom_site_fract_y
_atom_site_fract_z
N1 N 0.7332(2) 0.4429(2) 0.16246(9)
N2 N 0.9806(2) 0.61924(19) 0.08836(9)
C1 C 0.8087(3) 0.4725(2) 0.11651(11)
C2 C 0.8076(3) 0.3938(2) 0.05911(12)
H1 H 0.8617 0.4166 0.0280
C3 C 0.7251(4) 0.2812(3) 0.04896(13)
H2 H 0.7208 0.2273 0.0105
C4 C 0.6490(3) 0.2490(3) 0.09615(13)
H3 H 0.5943 0.1723 0.0905
C5 C 0.6553(3) 0.3320(2) 0.15165(12)
C6 C 0.8979(3) 0.5954(2) 0.13007(12)
C7 C 0.8817(4) 0.6795(3) 0.19161(13)
H4 H 0.9281 0.7600 0.1922
H5 H 0.9338 0.6483 0.2224
H6 H 0.7727 0.6842 0.1998
C8 C 1.0686(3) 0.7347(2) 0.09626(11)
C9 C 0.9974(3) 0.8309(3) 0.07880(13)
C10 C 1.0905(4) 0.9389(3) 0.08260(15)
H7 H 1.0470 1.0044 0.0714
C11 C 1.2447(5) 0.9514(3) 0.10235(16)
H8 H 1.3044 1.0247 0.1044
C12 C 1.3114(4) 0.8563(3) 0.11911(15)
H9 H 1.4162 0.8664 0.1327
C13 C 1.2263(4) 0.7455(3) 0.11630(13)
C14 C 0.8281(4) 0.8153(3) 0.05635(17)
H10 H 0.7732 0.7623 0.0790
C15 C 0.7474(5) 0.9340(4) 0.0680(2)
H11 H 0.7552 0.9726 0.1110
H12 H 0.6390 0.9164 0.0545
H13 H 0.7968 0.9881 0.0459
C16 C 0.8103(5) 0.7485(4) -0.01092(19)
H14 H 0.8689 0.7949 -0.0346
H15 H 0.7017 0.7398 -0.0242
H16 H 0.8491 0.6686 -0.0164
C17 C 1.3022(4) 0.6391(4) 0.13310(19)
H17 H 1.2194 0.5729 0.1301
C18 C 1.4239(6) 0.5885(5) 0.0892(2)
H18 H 1.3787 0.5680 0.0482
H19 H 1.4604 0.5161 0.0988
H20 H 1.5103 0.6493 0.0926
C19 C 1.3719(7) 0.6693(6) 0.1976(2)
H21 H 1.4525 0.7351 0.2026
H22 H 1.4159 0.5981 0.2056
H23 H 1.2916 0.6941 0.2257
O1 O 0.5800(17) 0.3734(11) 0.2548(4)
O2 O 0.5234(13) 0.1855(8) 0.1965(4)
C20 C 0.5825(7) 0.3008(8) 0.2072(3)
C21 C 0.4647(13) 0.1383(10) 0.2465(4)
H24 H 0.3985 0.0632 0.2302
H25 H 0.4013 0.1978 0.2711
C22 C 0.5966(15) 0.1122(18) 0.2862(6)
H26 H 0.6647 0.0589 0.2613
H27 H 0.5543 0.0731 0.3163
H28 H 0.6547 0.1880 0.3063
N3 N 0.2260(2) 0.1451(2) 0.36166(9)
N4 N 0.4812(2) 0.18092(19) 0.49185(9)
O3 O -0.0385(3) 0.0229(3) 0.23525(11)
O4 O 0.0768(3) 0.2085(3) 0.27116(12)
C23 C 0.3063(3) 0.1113(2) 0.40557(11)
C24 C 0.3053(3) -0.0096(3) 0.41001(13)
H29 H 0.3641 -0.0301 0.4410
C25 C 0.2160(4) -0.0982(3) 0.36787(15)
H30 H 0.2131 -0.1801 0.3699
C26 C 0.1312(4) -0.0651(3) 0.32279(14)
H31 H 0.0692 -0.1238 0.2939
C27 C 0.1392(3) 0.0565(3) 0.32093(12)
C28 C 0.4008(3) 0.2122(2) 0.45056(12)
C29 C 0.3922(4) 0.3401(3) 0.44295(16)
H32 H 0.4535 0.3966 0.4754
H33 H 0.2851 0.3605 0.4443
H34 H 0.4324 0.3454 0.4043
C30 C 0.5734(3) 0.2704(2) 0.53665(11)
C31 C 0.7298(3) 0.2991(3) 0.52550(13)
C32 C 0.8189(4) 0.3822(3) 0.57170(17)
H35 H 0.9228 0.4033 0.5653
C33 C 0.7577(5) 0.4339(3) 0.62636(16)
H36 H 0.8198 0.4895 0.6565
C34 C 0.6060(4) 0.4039(3) 0.63669(14)
H37 H 0.5658 0.4397 0.6741
C35 C 0.5097(4) 0.3211(3) 0.59258(13)
C36 C 0.8000(4) 0.2406(3) 0.46571(15)
H38 H 0.7134 0.1979 0.4375
C37 C 0.8829(7) 0.3315(5) 0.4358(2)
H39 H 0.8131 0.3921 0.4308
H40 H 0.9156 0.2893 0.3965
H41 H 0.9730 0.3712 0.4610
C38 C 0.9098(7) 0.1451(5) 0.4734(2)
H42 H 1.0013 0.1848 0.4976
H43 H 0.9401 0.1015 0.4339
H44 H 0.8578 0.0883 0.4934
C39 C 0.3425(4) 0.2845(4) 0.60451(14)
H45 H 0.2842 0.2685 0.5649
C40 C 0.2623(9) 0.3854(7) 0.6471(5)
H46 H 0.1530 0.3605 0.6476
H47 H 0.2738 0.4595 0.6329
H48 H 0.3093 0.4001 0.6877
C41 C 0.3269(13) 0.1653(9) 0.6245(8)
H49 H 0.3629 0.1005 0.5932
H50 H 0.2191 0.1460 0.6313
H51 H 0.3889 0.1739 0.6617
C42 C 0.0492(4) 0.0931(4) 0.27135(14)
C43 C 0.0000(6) 0.2536(5) 0.2237(2)
H52 H -0.0536 0.1851 0.1939
H53 H -0.0778 0.3086 0.2416
C44 C 0.1074(6) 0.3158(5) 0.1947(2)
H54 H 0.1441 0.3929 0.2220
H55 H 0.0580 0.3306 0.1586
H56 H 0.1944 0.2669 0.1836
O5? O 0.5096(19) 0.3824(13) 0.2419(6)
O6? O 0.573(2) 0.1902(12) 0.2041(7)
C45? C 0.5705(9) 0.3115(12) 0.2046(4)
C46? C 0.497(3) 0.1692(14) 0.2591(7)
H57? H 0.3838 0.1640 0.2537
H58? H 0.5301 0.2339 0.2951
C47? C 0.555(3) 0.0471(15) 0.2639(8)
H59? H 0.5159 -0.0159 0.2287
H60? H 0.5177 0.0268 0.3003
H61? H 0.6672 0.0530 0.2656
C48? C 0.3425(4) 0.2845(4) 0.60451(14)
H62? H 0.2981 0.2234 0.5683
C49? C 0.2397(18) 0.3910(15) 0.6166(15)
H63? H 0.2866 0.4556 0.6494
H64? H 0.1383 0.3639 0.6275
H65? H 0.2288 0.4212 0.5803
C50? C 0.345(2) 0.222(3) 0.6590(11)
H66? H 0.4267 0.1667 0.6542
H67? H 0.2461 0.1779 0.6599
H68? H 0.3650 0.2843 0.6965
loop_
_geom_bond_atom_site_label_1
_geom_bond_atom_site_label_2
_geom_bond_site_symmetry_1
_geom_bond_site_symmetry_2
N1 C1 1_555 1_555
N2 C6 1_555 1_555
C1 C2 1_555 1_555
C2 H1 1_555 1_555
C3 C2 1_555 1_555
H2 C3 1_555 1_555
C4 C3 1_555 1_555
H3 C4 1_555 1_555
C5 N1 1_555 1_555
C6 C1 1_555 1_555
C7 C6 1_555 1_555
H4 C7 1_555 1_555
H5 C7 1_555 1_555
H6 C7 1_555 1_555
C8 N2 1_555 1_555
C9 C8 1_555 1_555
C10 C9 1_555 1_555
H7 C10 1_555 1_555
C11 C10 1_555 1_555
H8 C11 1_555 1_555
C12 C11 1_555 1_555
H9 C12 1_555 1_555
C13 C8 1_555 1_555
C14 C9 1_555 1_555
H10 C14 1_555 1_555
C15 C14 1_555 1_555
H11 C15 1_555 1_555
H12 C15 1_555 1_555
H13 C15 1_555 1_555
C16 C14 1_555 1_555
H14 C16 1_555 1_555
H15 C16 1_555 1_555
H16 C16 1_555 1_555
C17 C13 1_555 1_555
H17 C17 1_555 1_555
C18 C17 1_555 1_555
H18 C18 1_555 1_555
H19 C18 1_555 1_555
H20 C18 1_555 1_555
C19 C17 1_555 1_555
H21 C19 1_555 1_555
H22 C19 1_555 1_555
H23 C19 1_555 1_555
O1 C20 1_555 1_555
O2 C20 1_555 1_555
C20 C5 1_555 1_555
C21 O2 1_555 1_555
H24 C21 1_555 1_555
H25 C21 1_555 1_555
C22 C21 1_555 1_555
H26 C22 1_555 1_555
H27 C22 1_555 1_555
H28 C22 1_555 1_555
N3 C23 1_555 1_555
N4 C28 1_555 1_555
O3 C42 1_555 1_555
O4 C42 1_555 1_555
C23 C24 1_555 1_555
C24 H29 1_555 1_555
C25 C24 1_555 1_555
H30 C25 1_555 1_555
C26 C25 1_555 1_555
H31 C26 1_555 1_555
C27 N3 1_555 1_555
C28 C23 1_555 1_555
C29 C28 1_555 1_555
H32 C29 1_555 1_555
H33 C29 1_555 1_555
H34 C29 1_555 1_555
C30 N4 1_555 1_555
C31 C30 1_555 1_555
C32 C31 1_555 1_555
H35 C32 1_555 1_555
C33 C32 1_555 1_555
H36 C33 1_555 1_555
C34 C33 1_555 1_555
H37 C34 1_555 1_555
C35 C30 1_555 1_555
C36 C31 1_555 1_555
H38 C36 1_555 1_555
C37 C36 1_555 1_555
H39 C37 1_555 1_555
H40 C37 1_555 1_555
H41 C37 1_555 1_555
C38 C36 1_555 1_555
H42 C38 1_555 1_555
H43 C38 1_555 1_555
H44 C38 1_555 1_555
C39 C35 1_555 1_555
H45 C39 1_555 1_555
C40 C39 1_555 1_555
H46 C40 1_555 1_555
H47 C40 1_555 1_555
H48 C40 1_555 1_555
C41 C39 1_555 1_555
H49 C41 1_555 1_555
H50 C41 1_555 1_555
H51 C41 1_555 1_555
C42 C27 1_555 1_555
C43 O4 1_555 1_555
H52 C43 1_555 1_555
H53 C43 1_555 1_555
C44 C43 1_555 1_555
H54 C44 1_555 1_555
H55 C44 1_555 1_555
H56 C44 1_555 1_555
C4 C5 1_555 1_555
C12 C13 1_555 1_555
C26 C27 1_555 1_555
C34 C35 1_555 1_555

#END
