
#######################################################################
#
#                 Cambridge Crystallographic Data Centre
#                                CCDC 
#
#######################################################################
#
# If this CIF has been generated from an entry in the Cambridge 
# Structural Database, then it will include bibliographic, chemical, 
# crystal, experimental, refinement or atomic coordinate data resulting 
# from the CCDC's data processing and validation procedures.
#
#######################################################################

data_RAFJEP
_chemical_formula_moiety         'C16 H14 N4 O2 S1'
_chemical_name_systematic        
(Z)-2-((E)-3-(3-Nitrophenyl)-1-phenylprop-2-en-1-ylidene)hydrazinecarbothioamide
_symmetry_cell_setting           triclinic
_symmetry_space_group_name_H-M   'P -1'
_symmetry_Int_Tables_number      2
_space_group_name_Hall           '-P 1'
loop_
_symmetry_equiv_pos_site_id
_symmetry_equiv_pos_as_xyz
1 x,y,z
2 -x,-y,-z
_cell_length_a                   8.1880(16)
_cell_length_b                   8.7080(17)
_cell_length_c                   12.088(2)
_cell_angle_alpha                91.16(3)
_cell_angle_beta                 94.46(3)
_cell_angle_gamma                108.04(3)
_cell_volume                     816.143
_cell_formula_units_Z            2
loop_
_atom_site_label
_atom_site_type_symbol
_atom_site_fract_x
_atom_site_fract_y
_atom_site_fract_z
O1 O 0.2868(3) 0.5762(3) -0.2054(2)
S1 S 1.21095(10) 1.38714(9) 0.53107(6)
N1 N 1.1208(3) 1.1591(2) 0.37443(17)
N2 N 1.0181(2) 1.0738(2) 0.28505(16)
C1 C 0.9669(3) 0.7686(3) 0.07179(18)
H1 H 1.0644 0.7359 0.0844
C2 C 1.0811(3) 1.2821(3) 0.42436(18)
C3 C 0.8415(3) 0.6884(3) -0.02077(17)
C4 C 0.9516(3) 0.8843(3) 0.13881(19)
H2 H 0.8550 0.9174 0.1231
C5 C 1.0670(3) 0.9657(3) 0.23374(18)
C6 C 0.6737(3) 0.6975(3) -0.02974(18)
H3 H 0.6380 0.7534 0.0250
O2 O 0.3521(2) 0.7238(3) -0.05621(18)
N3 N 0.9378(2) 1.3078(3) 0.38372(16)
H4 H 0.8759 1.2480 0.3288
H5 H 0.9064 1.3843 0.4122
C7 C 1.2307(3) 0.9297(2) 0.26576(18)
C8 C 0.5616(3) 0.6237(3) -0.11978(19)
C9 C 0.8858(3) 0.5984(3) -0.10337(19)
H6 H 0.9961 0.5887 -0.0988
N4 N 0.3874(3) 0.6429(3) -0.1275(2)
C10 C 0.6047(3) 0.5355(3) -0.2015(2)
H7 H 0.5260 0.4858 -0.2612
C11 C 0.7695(3) 0.5234(3) -0.1919(2)
H8 H 0.8025 0.4639 -0.2457
C12 C 1.3648(3) 0.9729(3) 0.1986(2)
H9 H 1.3498 1.0183 0.1311
C13 C 1.2543(3) 0.8578(3) 0.3638(2)
H10 H 1.1657 0.8271 0.4104
C14 C 1.4117(4) 0.8312(3) 0.3930(2)
H11 H 1.4262 0.7803 0.4583
C15 C 1.5209(3) 0.9499(3) 0.2299(3)
H12 H 1.6109 0.9829 0.1845
C16 C 1.5442(4) 0.8791(3) 0.3268(3)
H13 H 1.6495 0.8636 0.3477
H14 H 1.212(3) 1.145(3) 0.397(2)
loop_
_geom_bond_atom_site_label_1
_geom_bond_atom_site_label_2
_geom_bond_site_symmetry_1
_geom_bond_site_symmetry_2
O1 N4 1_555 1_555
S1 C2 1_555 1_555
N1 N2 1_555 1_555
N2 C5 1_555 1_555
C1 H1 1_555 1_555
C2 N1 1_555 1_555
C3 C1 1_555 1_555
C4 C1 1_555 1_555
H2 C4 1_555 1_555
C5 C4 1_555 1_555
C6 C3 1_555 1_555
H3 C6 1_555 1_555
O2 N4 1_555 1_555
N3 C2 1_555 1_555
H4 N3 1_555 1_555
H5 N3 1_555 1_555
C7 C5 1_555 1_555
C8 C6 1_555 1_555
C9 C3 1_555 1_555
H6 C9 1_555 1_555
N4 C8 1_555 1_555
C10 C8 1_555 1_555
H7 C10 1_555 1_555
C11 C9 1_555 1_555
H8 C11 1_555 1_555
C12 C7 1_555 1_555
H9 C12 1_555 1_555
C13 C7 1_555 1_555
H10 C13 1_555 1_555
C14 C13 1_555 1_555
H11 C14 1_555 1_555
C15 C12 1_555 1_555
H12 C15 1_555 1_555
C16 C14 1_555 1_555
H13 C16 1_555 1_555
H14 N1 1_555 1_555
C10 C11 1_555 1_555
C15 C16 1_555 1_555

#END
