
#######################################################################
#
#                 Cambridge Crystallographic Data Centre
#                                CCDC 
#
#######################################################################
#
# If this CIF has been generated from an entry in the Cambridge 
# Structural Database, then it will include bibliographic, chemical, 
# crystal, experimental, refinement or atomic coordinate data resulting 
# from the CCDC's data processing and validation procedures.
#
#######################################################################

data_RAFQEW
_chemical_formula_moiety         'C18 H19 N3 O1'
_chemical_name_systematic        
4-(4-Methoxyphenyl)-2-(methylamino)-5,6,7,8-tetrahydroquinoline-3-carbonitrile
_symmetry_cell_setting           triclinic
_symmetry_space_group_name_H-M   'P -1'
_symmetry_Int_Tables_number      2
_space_group_name_Hall           '-P 1'
loop_
_symmetry_equiv_pos_site_id
_symmetry_equiv_pos_as_xyz
1 x,y,z
2 -x,-y,-z
_cell_length_a                   7.0294(15)
_cell_length_b                   9.6048(15)
_cell_length_c                   12.397(2)
_cell_angle_alpha                81.064(2)
_cell_angle_beta                 86.281(3)
_cell_angle_gamma                72.817(2)
_cell_volume                     789.772
_cell_formula_units_Z            2
loop_
_atom_site_label
_atom_site_type_symbol
_atom_site_fract_x
_atom_site_fract_y
_atom_site_fract_z
N1 N 0.2402(3) 0.9475(2) 0.63688(16)
N2 N 0.1894(4) 1.0452(3) 0.79807(18)
H1 H 0.1290 1.0531 0.8604
N3 N -0.1334(4) 0.8881(3) 0.96547(19)
O1 O -0.4839(3) 0.4027(2) 0.87984(16)
C1 C 0.1549(4) 0.9516(3) 0.73663(19)
C2 C 0.0312(3) 0.8609(3) 0.77528(18)
C3 C 0.0023(3) 0.7625(2) 0.71074(18)
C4 C 0.0930(3) 0.7588(3) 0.60699(18)
C5 C 0.0725(4) 0.6511(3) 0.5353(2)
H2 H 0.1380 0.5520 0.5699
H3 H -0.0677 0.6595 0.5301
C6 C 0.1571(6) 0.6722(4) 0.4236(3)
H4 H 0.1906 0.5789 0.3955
H5 H 0.0538 0.7413 0.3779
C7 C 0.3297(6) 0.7240(4) 0.4114(3)
H6 H 0.3570 0.7473 0.3341
H7 H 0.4427 0.6448 0.4414
C8 C 0.3136(4) 0.8559(3) 0.46481(19)
H8 H 0.2423 0.9433 0.4171
H9 H 0.4465 0.8629 0.4735
C9 C 0.2091(3) 0.8537(3) 0.57457(18)
C10 C 0.3236(5) 1.1330(4) 0.7637(2)
H10 H 0.4567 1.0694 0.7576
H11 H 0.3194 1.1972 0.8165
H12 H 0.2839 1.1908 0.6940
C11 C -0.0634(4) 0.8728(3) 0.8806(2)
C12 C -0.1218(3) 0.6637(2) 0.75514(18)
C13 C -0.3165(4) 0.6941(3) 0.7233(2)
H13 H -0.3700 0.7764 0.6723
C14 C -0.4322(4) 0.6047(3) 0.7656(2)
H14 H -0.5627 0.6269 0.7431
C15 C -0.3554(4) 0.4824(3) 0.8411(2)
C16 C -0.1601(4) 0.4487(3) 0.8726(2)
H15 H -0.1058 0.3652 0.9223
C17 C -0.0459(4) 0.5400(3) 0.8297(2)
H16 H 0.0851 0.5174 0.8517
C18 C -0.4130(5) 0.2779(3) 0.9610(3)
H17 H -0.3042 0.2068 0.9312
H18 H -0.5187 0.2346 0.9837
H19 H -0.3686 0.3082 1.0227
loop_
_geom_bond_atom_site_label_1
_geom_bond_atom_site_label_2
_geom_bond_site_symmetry_1
_geom_bond_site_symmetry_2
N1 C1 1_555 1_555
N2 H1 1_555 1_555
N3 C11 1_555 1_555
O1 C15 1_555 1_555
C1 N2 1_555 1_555
C2 C1 1_555 1_555
C3 C2 1_555 1_555
C4 C3 1_555 1_555
C5 C4 1_555 1_555
H2 C5 1_555 1_555
H3 C5 1_555 1_555
C6 C5 1_555 1_555
H4 C6 1_555 1_555
H5 C6 1_555 1_555
C7 C6 1_555 1_555
H6 C7 1_555 1_555
H7 C7 1_555 1_555
C8 C7 1_555 1_555
H8 C8 1_555 1_555
H9 C8 1_555 1_555
C9 N1 1_555 1_555
C10 N2 1_555 1_555
H10 C10 1_555 1_555
H11 C10 1_555 1_555
H12 C10 1_555 1_555
C11 C2 1_555 1_555
C12 C3 1_555 1_555
C13 C12 1_555 1_555
H13 C13 1_555 1_555
C14 C13 1_555 1_555
H14 C14 1_555 1_555
C15 C14 1_555 1_555
C16 C15 1_555 1_555
H15 C16 1_555 1_555
C17 C12 1_555 1_555
H16 C17 1_555 1_555
C18 O1 1_555 1_555
H17 C18 1_555 1_555
H18 C18 1_555 1_555
H19 C18 1_555 1_555
C4 C9 1_555 1_555
C8 C9 1_555 1_555
C16 C17 1_555 1_555

#END
