
#######################################################################
#
#                 Cambridge Crystallographic Data Centre
#                                CCDC 
#
#######################################################################
#
# If this CIF has been generated from an entry in the Cambridge 
# Structural Database, then it will include bibliographic, chemical, 
# crystal, experimental, refinement or atomic coordinate data resulting 
# from the CCDC's data processing and validation procedures.
#
#######################################################################

data_RAFQOG
_chemical_formula_moiety         'C17 H17 N3'
_chemical_name_systematic        
2-Amino-4-(4-methylphenyl)-5,6,7,8-tetrahydroquinoline-3-carbonitrile
_symmetry_cell_setting           monoclinic
_symmetry_space_group_name_H-M   'P 21/c'
_symmetry_Int_Tables_number      14
_space_group_name_Hall           '-P 2ybc'
loop_
_symmetry_equiv_pos_site_id
_symmetry_equiv_pos_as_xyz
1 x,y,z
2 -x,1/2+y,1/2-z
3 -x,-y,-z
4 x,1/2-y,1/2+z
_cell_length_a                   9.0970(14)
_cell_length_b                   18.471(2)
_cell_length_c                   18.665(2)
_cell_angle_alpha                90
_cell_angle_beta                 112.212(2)
_cell_angle_gamma                90
_cell_volume                     2903.55
_cell_formula_units_Z            8
loop_
_atom_site_label
_atom_site_type_symbol
_atom_site_fract_x
_atom_site_fract_y
_atom_site_fract_z
N1 N 0.5829(3) 0.90662(13) -0.05096(14)
N2 N 0.3451(3) 0.86833(16) -0.14032(14)
H1 H 0.3829 0.8752 -0.1756
H2 H 0.2497 0.8526 -0.1527
N3 N 0.0885(4) 0.83121(18) -0.04800(18)
C1 C 0.4354(4) 0.88222(16) -0.06560(18)
C2 C 0.3796(3) 0.87189(16) -0.00538(17)
C3 C 0.4789(4) 0.88686(15) 0.07092(17)
C4 C 0.6331(4) 0.91160(16) 0.08550(17)
C5 C 0.7509(4) 0.9248(2) 0.16677(18)
H5 H 0.7271 0.9709 0.1847
H6 H 0.7378 0.8875 0.2004
C6 C 0.9195(8) 0.9252(6) 0.1738(4)
H7 H 0.9518 0.8765 0.1669
H8 H 0.9871 0.9418 0.2250
C7 C 0.9378(8) 0.9749(6) 0.1131(4)
H9 H 1.0490 0.9780 0.1202
H10 H 0.9015 1.0232 0.1188
C8 C 0.8411(4) 0.9461(2) 0.03194(18)
H11 H 0.8311 0.9841 -0.0055
H12 H 0.8984 0.9062 0.0207
C9 C 0.6779(4) 0.92051(16) 0.02249(18)
C10 C 0.2186(4) 0.84829(18) -0.02595(18)
C11 C 0.4211(3) 0.87461(17) 0.13439(17)
C12 C 0.4109(4) 0.93107(17) 0.18141(17)
H13 H 0.4393 0.9777 0.1727
C13 C 0.3588(4) 0.91861(19) 0.24112(18)
H14 H 0.3534 0.9572 0.2721
C14 C 0.3148(4) 0.85062(19) 0.25578(18)
C15 C 0.3245(4) 0.79532(19) 0.2088(2)
H15 H 0.2957 0.7488 0.2176
C16 C 0.3759(4) 0.80652(17) 0.14891(18)
H16 H 0.3801 0.7678 0.1179
C17 C 0.2600(5) 0.8371(2) 0.3214(2)
H17 H 0.2612 0.8818 0.3479
H18 H 0.3298 0.8030 0.3569
H19 H 0.1540 0.8179 0.3012
N4 N 0.4852(3) 0.89731(13) 0.74070(14)
N5 N 0.7347(3) 0.87987(15) 0.83202(15)
H3 H 0.6978 0.8908 0.8668
H4 H 0.8334 0.8690 0.8453
N6 N 0.9886(4) 0.8327(2) 0.74364(18)
C18 C 0.6379(4) 0.87979(16) 0.75678(18)
C19 C 0.6925(4) 0.86447(16) 0.69689(17)
C20 C 0.5868(4) 0.86685(15) 0.61985(17)
C21 C 0.4262(4) 0.88377(16) 0.60423(17)
C22 C 0.3020(4) 0.8803(2) 0.52278(18)
H20 H 0.3256 0.8401 0.4954
H21 H 0.3053 0.9245 0.4954
C23 C 0.1359(7) 0.8705(6) 0.5237(4)
H22 H 0.0573 0.8746 0.4714
H23 H 0.1268 0.8227 0.5431
C24 C 0.1053(8) 0.9272(5) 0.5744(4)
H24 H 0.1197 0.9750 0.5565
H25 H -0.0034 0.9233 0.5711
C25 C 0.2163(4) 0.9172(2) 0.65601(19)
H26 H 0.1757 0.8788 0.6789
H27 H 0.2171 0.9614 0.6843
C26 C 0.3830(4) 0.89929(16) 0.66646(18)
C27 C 0.8555(4) 0.84660(19) 0.71906(19)
C28 C 0.6411(4) 0.85318(17) 0.55506(17)
C29 C 0.6994(4) 0.78649(18) 0.54471(19)
H28 H 0.7104 0.7495 0.5801
C30 C 0.7412(4) 0.77485(19) 0.4818(2)
H29 H 0.7810 0.7298 0.4757
C31 C 0.7257(4) 0.82825(19) 0.42759(18)
C32 C 0.6708(4) 0.8942(2) 0.43968(19)
H30 H 0.6616 0.9315 0.4047
C33 C 0.6291(4) 0.90693(18) 0.50195(18)
H31 H 0.5921 0.9525 0.5084
C34 C 0.7678(5) 0.8150(2) 0.3581(2)
H32 H 0.8030 0.7659 0.3588
H33 H 0.8511 0.8474 0.3593
H34 H 0.6761 0.8232 0.3117
C35? C 0.1424(18) 0.9120(14) 0.5122(9)
C36? C 0.091(2) 0.8885(14) 0.5787(10)
C37? C 0.9064(18) 0.9647(12) 0.1693(10)
C38? C 0.9675(16) 0.9338(12) 0.1095(8)
H35? H 0.2834 0.8299 0.5070
H36? H 0.3444 0.9041 0.4884
H37? H 0.0639 0.8958 0.4632
H38? H 0.1480 0.9644 0.5109
H39? H 0.0847 0.8361 0.5803
H40? H -0.0128 0.9083 0.5707
H41? H 0.2051 0.9694 0.6568
H42? H 0.1945 0.8975 0.6991
H43? H 0.7818 0.8790 0.1937
H44? H 0.6999 0.9536 0.1942
H45? H 0.8841 1.0159 0.1592
H46? H 0.9882 0.9598 0.2206
H47? H 1.0647 0.9580 0.1132
H48? H 0.9892 0.8824 0.1183
H49? H 0.8717 0.9214 -0.0062
H50? H 0.8362 0.9975 0.0205
loop_
_geom_bond_atom_site_label_1
_geom_bond_atom_site_label_2
_geom_bond_site_symmetry_1
_geom_bond_site_symmetry_2
N1 C1 1_555 1_555
N2 H1 1_555 1_555
H2 N2 1_555 1_555
N3 C10 1_555 1_555
N4 C18 1_555 1_555
N5 H3 1_555 1_555
H4 N5 1_555 1_555
N6 C27 1_555 1_555
C1 N2 1_555 1_555
C2 C1 1_555 1_555
C3 C2 1_555 1_555
C4 C3 1_555 1_555
C5 C4 1_555 1_555
H5 C5 1_555 1_555
H6 C5 1_555 1_555
C6 C5 1_555 1_555
H7 C6 1_555 1_555
H8 C6 1_555 1_555
C7 C6 1_555 1_555
H9 C7 1_555 1_555
H10 C7 1_555 1_555
C8 C7 1_555 1_555
H11 C8 1_555 1_555
H12 C8 1_555 1_555
C9 N1 1_555 1_555
C10 C2 1_555 1_555
C11 C3 1_555 1_555
C12 C11 1_555 1_555
H13 C12 1_555 1_555
C13 C12 1_555 1_555
H14 C13 1_555 1_555
C14 C13 1_555 1_555
C15 C14 1_555 1_555
H15 C15 1_555 1_555
C16 C11 1_555 1_555
H16 C16 1_555 1_555
C17 C14 1_555 1_555
H17 C17 1_555 1_555
H18 C17 1_555 1_555
H19 C17 1_555 1_555
C18 N5 1_555 1_555
C19 C18 1_555 1_555
C20 C19 1_555 1_555
C21 C20 1_555 1_555
C22 C21 1_555 1_555
H20 C22 1_555 1_555
H21 C22 1_555 1_555
C23 C22 1_555 1_555
H22 C23 1_555 1_555
H23 C23 1_555 1_555
C24 C23 1_555 1_555
H24 C24 1_555 1_555
H25 C24 1_555 1_555
C25 C24 1_555 1_555
H26 C25 1_555 1_555
H27 C25 1_555 1_555
C26 N4 1_555 1_555
C27 C19 1_555 1_555
C28 C20 1_555 1_555
C29 C28 1_555 1_555
H28 C29 1_555 1_555
C30 C29 1_555 1_555
H29 C30 1_555 1_555
C31 C30 1_555 1_555
C32 C31 1_555 1_555
H30 C32 1_555 1_555
C33 C28 1_555 1_555
H31 C33 1_555 1_555
C34 C31 1_555 1_555
H32 C34 1_555 1_555
H33 C34 1_555 1_555
H34 C34 1_555 1_555
C4 C9 1_555 1_555
C8 C9 1_555 1_555
C15 C16 1_555 1_555
C21 C26 1_555 1_555
C25 C26 1_555 1_555
C32 C33 1_555 1_555

#END
