
#######################################################################
#
#                 Cambridge Crystallographic Data Centre
#                                CCDC 
#
#######################################################################
#
# If this CIF has been generated from an entry in the Cambridge 
# Structural Database, then it will include bibliographic, chemical, 
# crystal, experimental, refinement or atomic coordinate data resulting 
# from the CCDC's data processing and validation procedures.
#
#######################################################################

data_RAFRIB
_chemical_formula_moiety         'C28 H40 O5'
_chemical_name_systematic        
20,23,25-Trihydroxy-24-methylfurosta-4,6,8(14)-trien-3-one
_symmetry_cell_setting           orthorhombic
_symmetry_space_group_name_H-M   'P 21 21 21'
_symmetry_Int_Tables_number      19
_space_group_name_Hall           'P 2ac 2ab'
loop_
_symmetry_equiv_pos_site_id
_symmetry_equiv_pos_as_xyz
1 x,y,z
2 1/2-x,-y,1/2+z
3 1/2+x,1/2-y,-z
4 -x,1/2+y,1/2-z
_cell_length_a                   11.254(4)
_cell_length_b                   12.157(5)
_cell_length_c                   18.161(6)
_cell_angle_alpha                90
_cell_angle_beta                 90
_cell_angle_gamma                90
_cell_volume                     2484.69
_exptl_crystal_colour            colorless
_exptl_crystal_description       block
_cell_formula_units_Z            4
loop_
_atom_site_label
_atom_site_type_symbol
_atom_site_fract_x
_atom_site_fract_y
_atom_site_fract_z
O1 O 0.58898(14) 0.07863(14) -0.34587(6)
O2 O 0.54954(10) 0.13434(7) 0.25778(5)
O3 O 0.44170(9) 0.40057(7) 0.22494(6)
H1 H 0.4595 0.4648 0.2332
O4 O 0.61082(9) 0.22213(11) 0.39189(6)
H2 H 0.608(2) 0.182(2) 0.4350(13)
O5 O 0.53193(13) 0.11210(11) 0.50643(6)
H3 H 0.535(2) 0.111(2) 0.5553(15)
C1 C 0.57483(15) 0.10516(16) -0.28183(9)
C2 C 0.64951(15) 0.06228(15) -0.22345(8)
H4 H 0.7132 0.0176 -0.2366
C3 C 0.63227(12) 0.08322(12) -0.15123(7)
C4 C 0.53106(12) 0.15543(13) -0.12433(7)
C5 C 0.49767(17) 0.23686(17) -0.18543(8)
H5 H 0.4262 0.2759 -0.1711
H6 H 0.5609 0.2905 -0.1906
C6 C 0.47669(19) 0.1816(2) -0.25943(9)
H7 H 0.4029 0.1406 -0.2572
H8 H 0.4678 0.2379 -0.2969
C7 C 0.70754(12) 0.03222(12) -0.09654(8)
H9 H 0.7643 -0.0186 -0.1117
C8 C 0.69818(13) 0.05594(11) -0.02448(7)
H10 H 0.7436 0.0160 0.0089
C9 C 0.62022(11) 0.14129(10) 0.00325(7)
C10 C 0.57387(11) 0.21970(11) -0.05562(7)
H11 H 0.6426 0.2630 -0.0717
C11 C 0.48326(14) 0.30281(12) -0.02591(8)
H12 H 0.4793 0.3655 -0.0588
H13 H 0.4053 0.2689 -0.0244
C12 C 0.51687(14) 0.34177(11) 0.05094(8)
H14 H 0.4591 0.3955 0.0676
H15 H 0.5938 0.3777 0.0490
C13 C 0.52206(11) 0.24730(10) 0.10593(7)
C14 C 0.59644(11) 0.15392(10) 0.07514(7)
C15 C 0.64655(13) 0.08828(11) 0.13898(7)
H16 H 0.7282 0.0670 0.1294
H17 H 0.5997 0.0225 0.1476
C16 C 0.63936(12) 0.16644(10) 0.20502(7)
H18 H 0.7171 0.1742 0.2288
C17 C 0.59628(11) 0.27651(10) 0.17497(7)
H19 H 0.6654 0.3200 0.1597
C18 C 0.53964(11) 0.33123(10) 0.24275(7)
C19 C 0.48836(12) 0.23034(10) 0.28457(6)
H20 H 0.4048 0.2231 0.2702
C20 C 0.49194(12) 0.23612(11) 0.36861(7)
H21 H 0.4687 0.3111 0.3823
C21 C 0.40410(13) 0.15770(12) 0.40710(7)
H22 H 0.4224 0.0828 0.3906
C22 C 0.41662(15) 0.15999(12) 0.49236(8)
C23 C 0.32422(19) 0.08836(15) 0.53046(10)
H23 H 0.3273 0.0153 0.5105
H24 H 0.2466 0.1188 0.5226
H25 H 0.3406 0.0858 0.5823
C24 C 0.4114(2) 0.27622(15) 0.52339(10)
H26 H 0.4193 0.2735 0.5760
H27 H 0.3367 0.3093 0.5107
H28 H 0.4750 0.3191 0.5030
C25 C 0.42580(14) 0.07931(17) -0.10477(10)
H29 H 0.4499 0.0283 -0.0673
H30 H 0.4014 0.0396 -0.1479
H31 H 0.3607 0.1228 -0.0870
C26 C 0.39616(11) 0.20325(12) 0.12203(8)
H32 H 0.3565 0.1875 0.0765
H33 H 0.3519 0.2576 0.1488
H34 H 0.4018 0.1372 0.1508
C27 C 0.63379(13) 0.39714(12) 0.28443(8)
H35 H 0.6599 0.4576 0.2545
H36 H 0.7002 0.3504 0.2955
H37 H 0.6004 0.4248 0.3294
C28 C 0.27708(15) 0.1836(2) 0.38328(10)
H38 H 0.2721 0.1822 0.3305
H39 H 0.2552 0.2553 0.4008
H40 H 0.2240 0.1297 0.4035
loop_
_geom_bond_atom_site_label_1
_geom_bond_atom_site_label_2
_geom_bond_site_symmetry_1
_geom_bond_site_symmetry_2
O1 C1 1_555 1_555
O2 C16 1_555 1_555
O3 H1 1_555 1_555
O4 H2 1_555 1_555
O5 H3 1_555 1_555
C1 C2 1_555 1_555
C2 H4 1_555 1_555
C3 C2 1_555 1_555
C4 C3 1_555 1_555
C5 C4 1_555 1_555
H5 C5 1_555 1_555
H6 C5 1_555 1_555
C6 C1 1_555 1_555
H7 C6 1_555 1_555
H8 C6 1_555 1_555
C7 C3 1_555 1_555
H9 C7 1_555 1_555
C8 C7 1_555 1_555
H10 C8 1_555 1_555
C9 C8 1_555 1_555
C10 C4 1_555 1_555
H11 C10 1_555 1_555
C11 C10 1_555 1_555
H12 C11 1_555 1_555
H13 C11 1_555 1_555
C12 C11 1_555 1_555
H14 C12 1_555 1_555
H15 C12 1_555 1_555
C13 C12 1_555 1_555
C14 C9 1_555 1_555
C15 C14 1_555 1_555
H16 C15 1_555 1_555
H17 C15 1_555 1_555
C16 C15 1_555 1_555
H18 C16 1_555 1_555
C17 C13 1_555 1_555
H19 C17 1_555 1_555
C18 O3 1_555 1_555
C19 O2 1_555 1_555
H20 C19 1_555 1_555
C20 O4 1_555 1_555
H21 C20 1_555 1_555
C21 C20 1_555 1_555
H22 C21 1_555 1_555
C22 O5 1_555 1_555
C23 C22 1_555 1_555
H23 C23 1_555 1_555
H24 C23 1_555 1_555
H25 C23 1_555 1_555
C24 C22 1_555 1_555
H26 C24 1_555 1_555
H27 C24 1_555 1_555
H28 C24 1_555 1_555
C25 C4 1_555 1_555
H29 C25 1_555 1_555
H30 C25 1_555 1_555
H31 C25 1_555 1_555
C26 C13 1_555 1_555
H32 C26 1_555 1_555
H33 C26 1_555 1_555
H34 C26 1_555 1_555
C27 C18 1_555 1_555
H35 C27 1_555 1_555
H36 C27 1_555 1_555
H37 C27 1_555 1_555
C28 C21 1_555 1_555
H38 C28 1_555 1_555
H39 C28 1_555 1_555
H40 C28 1_555 1_555
C5 C6 1_555 1_555
C9 C10 1_555 1_555
C13 C14 1_555 1_555
C16 C17 1_555 1_555
C17 C18 1_555 1_555
C18 C19 1_555 1_555
C19 C20 1_555 1_555
C21 C22 1_555 1_555

#END
