
#######################################################################
#
#                 Cambridge Crystallographic Data Centre
#                                CCDC 
#
#######################################################################
#
# If this CIF has been generated from an entry in the Cambridge 
# Structural Database, then it will include bibliographic, chemical, 
# crystal, experimental, refinement or atomic coordinate data resulting 
# from the CCDC's data processing and validation procedures.
#
#######################################################################

data_RAFVEA
_chemical_compound_source        'Acacia nilotica (L.) Willd (Mimosaceae)'
_chemical_formula_moiety         'C21 H32 O3,0.5(H2 O1)'
_chemical_name_systematic        
'3\b-acetoxy-17\b-hydroxy-androst-5-ene hemihydrate'
_chemical_properties_biological  
'dose-dependent antiinflammatory activity; natural product used in indigenous medicine as a treatment of coughs, gonorrhea, dropsy, leucorrhoea, sore throut, spongyms, diarrhoea, dysentery, diabetes, astringent for ulcers, cancerous and syphilitic affections, mucus diseases, earache, cholera, leprosy, rinderpest and healing of wounds'
_symmetry_cell_setting           monoclinic
_symmetry_space_group_name_H-M   'P 21'
_symmetry_Int_Tables_number      4
_space_group_name_Hall           'P 2yb'
loop_
_symmetry_equiv_pos_site_id
_symmetry_equiv_pos_as_xyz
1 x,y,z
2 -x,1/2+y,-z
_cell_length_a                   12.089(2)
_cell_length_b                   6.0243(12)
_cell_length_c                   27.233(5)
_cell_angle_alpha                90
_cell_angle_beta                 96.528(3)
_cell_angle_gamma                90
_cell_volume                     1970.46
_exptl_crystal_colour            colorless
_exptl_crystal_description       'thin plate'
_chemical_melting_point          '141.5 deg.C'
_cell_formula_units_Z            4
loop_
_atom_site_label
_atom_site_type_symbol
_atom_site_fract_x
_atom_site_fract_y
_atom_site_fract_z
O1 O -0.0585(3) 0.7834(7) 0.56529(12)
O2 O -0.1656(8) 0.503(2) 0.5566(2)
O3 O 0.2351(2) 0.6205(6) 0.96740(10)
H1 H 0.2801 0.7222 0.9724
C1 C 0.0940(4) 0.5888(8) 0.68547(14)
H2 H 0.1652 0.5146 0.6925
H3 H 0.0375 0.4914 0.6962
C2 C 0.0700(4) 0.6221(9) 0.62941(15)
H4 H 0.1293 0.7080 0.6175
H5 H 0.0665 0.4792 0.6129
C3 C -0.0392(4) 0.7422(10) 0.61801(14)
H6 H -0.0999 0.6526 0.6286
C4 C -0.0345(4) 0.9653(9) 0.64366(15)
H7 H 0.0204 1.0582 0.6304
H8 H -0.1063 1.0380 0.6372
C5 C -0.0048(3) 0.9412(7) 0.69880(14)
C6 C -0.0633(3) 1.0421(8) 0.73063(15)
H9 H -0.1254 1.1219 0.7172
C7 C -0.0403(3) 1.0412(8) 0.78523(12)
H10 H -0.0989 0.9597 0.7988
H11 H -0.0419 1.1927 0.7971
C8 C 0.0719(3) 0.9375(7) 0.80412(13)
H12 H 0.1305 1.0494 0.8032
C9 C 0.0970(3) 0.7395(6) 0.77127(13)
H13 H 0.0353 0.6349 0.7725
C10 C 0.0966(3) 0.8049(7) 0.71618(14)
C11 C 0.2017(3) 0.6168(7) 0.79278(14)
H14 H 0.2658 0.7116 0.7905
H15 H 0.2107 0.4854 0.7731
C12 C 0.1996(3) 0.5471(7) 0.84695(14)
H16 H 0.1409 0.4389 0.8491
H17 H 0.2699 0.4777 0.8590
C13 C 0.1799(3) 0.7471(7) 0.87939(14)
C14 C 0.0722(3) 0.8548(7) 0.85698(13)
H18 H 0.0165 0.7360 0.8551
C15 C 0.0409(3) 1.0113(8) 0.89743(13)
H19 H -0.0392 1.0290 0.8955
H20 H 0.0747 1.1561 0.8946
C16 C 0.0870(4) 0.8967(8) 0.94609(14)
H21 H 0.1383 0.9942 0.9658
H22 H 0.0269 0.8577 0.9652
C17 C 0.1475(3) 0.6870(7) 0.93113(14)
H23 H 0.0930 0.5661 0.9270
C18 C 0.2804(3) 0.9033(8) 0.88422(15)
H24 H 0.2920 0.9591 0.8522
H25 H 0.3454 0.8237 0.8980
H26 H 0.2669 1.0250 0.9055
C19 C 0.2024(3) 0.9372(9) 0.70786(16)
H27 H 0.1943 0.9976 0.6750
H28 H 0.2658 0.8403 0.7119
H29 H 0.2128 1.0558 0.7315
C20 C -0.1230(6) 0.646(2) 0.5387(3)
C21 C -0.1342(6) 0.7019(18) 0.48437(18)
H30 H -0.1894 0.6079 0.4669
H31 H -0.0640 0.6794 0.4718
H32 H -0.1562 0.8543 0.4799
O4 O 0.5514(3) 0.9967(8) 0.43689(11)
O5 O 0.6688(6) 1.2717(14) 0.4372(3)
O6 O 0.3727(2) 0.9130(5) 0.02764(8)
H33 H 0.3732 0.7772 0.0295
C22 C 0.5824(3) 0.8781(8) 0.30397(12)
H34 H 0.5967 1.0285 0.2937
H35 H 0.6330 0.7809 0.2890
C23 C 0.6095(3) 0.8641(9) 0.36054(14)
H36 H 0.6036 0.7116 0.3714
H37 H 0.6850 0.9148 0.3702
C24 C 0.5293(4) 1.0061(10) 0.38363(14)
H38 H 0.5368 1.1598 0.3727
C25 C 0.4124(3) 0.9313(10) 0.36997(14)
H39 H 0.3621 1.0273 0.3855
H40 H 0.4037 0.7814 0.3820
C26 C 0.3831(3) 0.9369(7) 0.31415(13)
C27 C 0.2926(3) 1.0393(9) 0.29447(14)
H41 H 0.2475 1.1044 0.3159
C28 C 0.2567(3) 1.0592(8) 0.24014(13)
H42 H 0.2665 1.2117 0.2301
H43 H 0.1780 1.0246 0.2340
C29 C 0.3207(3) 0.9070(7) 0.20849(12)
H44 H 0.2886 0.7575 0.2081
C30 C 0.4434(3) 0.8961(7) 0.22893(12)
H45 H 0.4705 1.0494 0.2288
C31 C 0.4644(3) 0.8170(7) 0.28398(14)
C32 C 0.5114(3) 0.7680(8) 0.19443(13)
H46 H 0.4889 0.6133 0.1939
H47 H 0.5894 0.7749 0.2073
C33 C 0.4969(3) 0.8594(8) 0.14097(12)
H48 H 0.5264 1.0091 0.1408
H49 H 0.5387 0.7678 0.1203
C34 C 0.3753(3) 0.8609(6) 0.12023(12)
C35 C 0.3123(3) 0.9966(6) 0.15578(12)
H50 H 0.3501 1.1406 0.1586
C36 C 0.1990(3) 1.0435(9) 0.12726(13)
H51 H 0.1692 1.1836 0.1374
H52 H 0.1465 0.9260 0.1322
C37 C 0.2235(3) 1.0529(9) 0.07261(14)
H53 H 0.1804 0.9418 0.0530
H54 H 0.2054 1.1981 0.0585
C38 C 0.3473(3) 1.0065(7) 0.07401(13)
H55 H 0.3874 1.1473 0.0793
C39 C 0.3298(4) 0.6303(7) 0.11077(15)
H56 H 0.3729 0.5545 0.0884
H57 H 0.2536 0.6392 0.0964
H58 H 0.3338 0.5503 0.1414
C40 C 0.4457(4) 0.5682(8) 0.28832(16)
H59 H 0.5025 0.4896 0.2735
H60 H 0.3740 0.5300 0.2716
H61 H 0.4489 0.5281 0.3226
C41 C 0.6144(8) 1.142(2) 0.4588(3)
C42 C 0.6324(6) 1.1171(19) 0.51444(19)
H62 H 0.6947 1.2063 0.5275
H63 H 0.6471 0.9643 0.5227
H64 H 0.5669 1.1650 0.5283
O7 O 0.4048(4) 0.3100(8) 0.97528(15)
H65 H 0.402(5) 0.197(11) 0.987(2)
H66 H 0.342(5) 0.370(12) 0.970(2)
loop_
_geom_bond_atom_site_label_1
_geom_bond_atom_site_label_2
_geom_bond_site_symmetry_1
_geom_bond_site_symmetry_2
O1 C3 1_555 1_555
O2 C20 1_555 1_555
O3 H1 1_555 1_555
C1 H2 1_555 1_555
H3 C1 1_555 1_555
C2 C1 1_555 1_555
H4 C2 1_555 1_555
H5 C2 1_555 1_555
C3 C2 1_555 1_555
H6 C3 1_555 1_555
C4 C3 1_555 1_555
H7 C4 1_555 1_555
H8 C4 1_555 1_555
C5 C4 1_555 1_555
C6 C5 1_555 1_555
H9 C6 1_555 1_555
C7 C6 1_555 1_555
H10 C7 1_555 1_555
H11 C7 1_555 1_555
C8 C7 1_555 1_555
H12 C8 1_555 1_555
C9 C8 1_555 1_555
H13 C9 1_555 1_555
C10 C1 1_555 1_555
C11 C9 1_555 1_555
H14 C11 1_555 1_555
H15 C11 1_555 1_555
C12 C11 1_555 1_555
H16 C12 1_555 1_555
H17 C12 1_555 1_555
C13 C12 1_555 1_555
C14 C8 1_555 1_555
H18 C14 1_555 1_555
C15 C14 1_555 1_555
H19 C15 1_555 1_555
H20 C15 1_555 1_555
C16 C15 1_555 1_555
H21 C16 1_555 1_555
H22 C16 1_555 1_555
C17 O3 1_555 1_555
H23 C17 1_555 1_555
C18 C13 1_555 1_555
H24 C18 1_555 1_555
H25 C18 1_555 1_555
H26 C18 1_555 1_555
C19 C10 1_555 1_555
H27 C19 1_555 1_555
H28 C19 1_555 1_555
H29 C19 1_555 1_555
C20 O1 1_555 1_555
C21 C20 1_555 1_555
H30 C21 1_555 1_555
H31 C21 1_555 1_555
H32 C21 1_555 1_555
O4 C24 1_555 1_555
O5 C41 1_555 1_555
O6 H33 1_555 1_555
C22 H34 1_555 1_555
H35 C22 1_555 1_555
C23 C22 1_555 1_555
H36 C23 1_555 1_555
H37 C23 1_555 1_555
C24 C23 1_555 1_555
H38 C24 1_555 1_555
C25 C24 1_555 1_555
H39 C25 1_555 1_555
H40 C25 1_555 1_555
C26 C25 1_555 1_555
C27 C26 1_555 1_555
H41 C27 1_555 1_555
C28 C27 1_555 1_555
H42 C28 1_555 1_555
H43 C28 1_555 1_555
C29 C28 1_555 1_555
H44 C29 1_555 1_555
C30 C29 1_555 1_555
H45 C30 1_555 1_555
C31 C22 1_555 1_555
C32 C30 1_555 1_555
H46 C32 1_555 1_555
H47 C32 1_555 1_555
C33 C32 1_555 1_555
H48 C33 1_555 1_555
H49 C33 1_555 1_555
C34 C33 1_555 1_555
C35 C29 1_555 1_555
H50 C35 1_555 1_555
C36 C35 1_555 1_555
H51 C36 1_555 1_555
H52 C36 1_555 1_555
C37 C36 1_555 1_555
H53 C37 1_555 1_555
H54 C37 1_555 1_555
C38 O6 1_555 1_555
H55 C38 1_555 1_555
C39 C34 1_555 1_555
H56 C39 1_555 1_555
H57 C39 1_555 1_555
H58 C39 1_555 1_555
C40 C31 1_555 1_555
H59 C40 1_555 1_555
H60 C40 1_555 1_555
H61 C40 1_555 1_555
C41 O4 1_555 1_555
C42 C41 1_555 1_555
H62 C42 1_555 1_555
H63 C42 1_555 1_555
H64 C42 1_555 1_555
O7 H65 1_555 1_555
H66 O7 1_555 1_555
C5 C10 1_555 1_555
C9 C10 1_555 1_555
C13 C14 1_555 1_555
C13 C17 1_555 1_555
C16 C17 1_555 1_555
C26 C31 1_555 1_555
C30 C31 1_555 1_555
C34 C35 1_555 1_555
C34 C38 1_555 1_555
C37 C38 1_555 1_555

#END
