
#######################################################################
#
#                 Cambridge Crystallographic Data Centre
#                                CCDC 
#
#######################################################################
#
# If this CIF has been generated from an entry in the Cambridge 
# Structural Database, then it will include bibliographic, chemical, 
# crystal, experimental, refinement or atomic coordinate data resulting 
# from the CCDC's data processing and validation procedures.
#
#######################################################################

data_RAFWUR
_chemical_formula_moiety         'C16 H13 N3 O2'
_chemical_name_systematic        
2-Oxo-1-phenyl-1,2,4,5-tetrahydro-1H-(1,2,4)triazolo(3,2-d)(1,5)benzoxazepine
_symmetry_cell_setting           orthorhombic
_symmetry_space_group_name_H-M   'P n a 21'
_symmetry_Int_Tables_number      33
_space_group_name_Hall           'P 2c -2n'
loop_
_symmetry_equiv_pos_site_id
_symmetry_equiv_pos_as_xyz
1 x,y,z
2 -x,-y,1/2+z
3 1/2+x,1/2-y,z
4 1/2-x,1/2+y,1/2+z
_cell_length_a                   8.929(3)
_cell_length_b                   18.817(7)
_cell_length_c                   7.923(3)
_cell_angle_alpha                90
_cell_angle_beta                 90
_cell_angle_gamma                90
_cell_volume                     1331.2
_exptl_crystal_colour            'pale yellow'
_chemical_melting_point          '177-179 deg.C'
_cell_formula_units_Z            4
_exptl_crystal_recrystallization_method methanol
loop_
_atom_site_label
_atom_site_type_symbol
_atom_site_fract_x
_atom_site_fract_y
_atom_site_fract_z
N1 N 0.96855(19) 0.25946(8) 0.7608(2)
N2 N 0.79394(16) 0.30321(7) 0.9401(2)
N3 N 0.87224(16) 0.35962(7) 0.8652(2)
O1 O 1.03291(15) 0.48516(7) 0.8104(2)
O2 O 0.82552(17) 0.18105(6) 0.9239(2)
C1 C 0.6402(2) 0.42704(10) 0.8135(3)
C2 C 0.5712(2) 0.48975(11) 0.7643(3)
C3 C 0.6560(3) 0.54790(11) 0.7200(3)
C4 C 0.8097(2) 0.54503(10) 0.7299(3)
C5 C 0.8814(2) 0.48355(9) 0.7828(2)
C6 C 0.79484(19) 0.42419(8) 0.8217(2)
C7 C 1.1316(2) 0.43701(11) 0.7265(3)
C8 C 1.0592(2) 0.37391(11) 0.6402(3)
C9 C 0.9696(2) 0.32852(9) 0.7551(2)
C10 C 0.8598(2) 0.24053(8) 0.8775(3)
C11 C 0.73181(19) 0.31192(9) 1.1042(2)
C12 C 0.6299(2) 0.26181(10) 1.1625(3)
C13 C 0.5695(3) 0.27036(12) 1.3223(3)
C14 C 0.6081(3) 0.32738(13) 1.4224(3)
C15 C 0.7083(2) 0.37712(11) 1.3623(3)
C16 C 0.7711(2) 0.36962(9) 1.2033(3)
H1 H 0.582(2) 0.3884(11) 0.840(3)
H2 H 0.461(3) 0.4916(14) 0.767(4)
H3 H 0.608(3) 0.5911(12) 0.680(3)
H4 H 0.871(3) 0.5837(12) 0.705(3)
H5 H 1.189(3) 0.4656(14) 0.643(4)
H6 H 1.197(2) 0.4228(12) 0.812(3)
H7 H 0.998(3) 0.3923(12) 0.559(3)
H8 H 1.140(3) 0.3476(12) 0.595(3)
H9 H 0.602(3) 0.2216(11) 1.091(3)
H10 H 0.499(3) 0.2369(13) 1.364(4)
H11 H 0.562(3) 0.3333(13) 1.530(3)
H12 H 0.734(2) 0.4155(13) 1.429(4)
H13 H 0.841(2) 0.4030(10) 1.165(3)
loop_
_geom_bond_atom_site_label_1
_geom_bond_atom_site_label_2
_geom_bond_site_symmetry_1
_geom_bond_site_symmetry_2
N1 C9 1_555 1_555
N2 N3 1_555 1_555
N3 C6 1_555 1_555
O1 C5 1_555 1_555
O2 C10 1_555 1_555
C1 C2 1_555 1_555
C2 C3 1_555 1_555
C3 C4 1_555 1_555
C4 C5 1_555 1_555
C5 C6 1_555 1_555
C6 C1 1_555 1_555
C7 O1 1_555 1_555
C8 C7 1_555 1_555
C9 N3 1_555 1_555
C10 N1 1_555 1_555
C11 N2 1_555 1_555
C12 C11 1_555 1_555
C13 C12 1_555 1_555
C14 C13 1_555 1_555
C15 C14 1_555 1_555
C16 C11 1_555 1_555
H1 C1 1_555 1_555
H2 C2 1_555 1_555
H3 C3 1_555 1_555
H4 C4 1_555 1_555
H5 C7 1_555 1_555
H6 C7 1_555 1_555
H7 C8 1_555 1_555
H8 C8 1_555 1_555
H9 C12 1_555 1_555
H10 C13 1_555 1_555
H11 C14 1_555 1_555
H12 C15 1_555 1_555
H13 C16 1_555 1_555
N2 C10 1_555 1_555
C8 C9 1_555 1_555
C15 C16 1_555 1_555

#END
