
#######################################################################
#
#                 Cambridge Crystallographic Data Centre
#                                CCDC 
#
#######################################################################
#
# If this CIF has been generated from an entry in the Cambridge 
# Structural Database, then it will include bibliographic, chemical, 
# crystal, experimental, refinement or atomic coordinate data resulting 
# from the CCDC's data processing and validation procedures.
#
#######################################################################

data_RAGCUA
_chemical_formula_moiety         'C44 H18 F14'
_chemical_name_systematic        
5,12-diphenyl-6,11-bis(2,3,5,6-tetrafluoro-4-(trifluoromethyl)phenyl)tetracene
_symmetry_cell_setting           monoclinic
_symmetry_space_group_name_H-M   'C 2/c'
_symmetry_Int_Tables_number      15
_space_group_name_Hall           '-C 2yn'
loop_
_symmetry_equiv_pos_site_id
_symmetry_equiv_pos_as_xyz
1 x,y,z
2 -x,y,1/2-z
3 1/2+x,1/2+y,z
4 1/2-x,1/2+y,1/2-z
5 -x,-y,-z
6 x,-y,1/2+z
7 1/2-x,1/2-y,-z
8 1/2+x,1/2-y,1/2+z
_cell_length_a                   31.0272(8)
_cell_length_b                   14.6772(4)
_cell_length_c                   7.3302(2)
_cell_angle_alpha                90
_cell_angle_beta                 93.3220(8)
_cell_angle_gamma                90
_cell_volume                     3332.51
_exptl_crystal_colour            red
_exptl_crystal_description       needle
_chemical_melting_point          '323.325 deg.C'
_cell_formula_units_Z            4
_chemical_properties_physical    
Air-sensitive,Oxygen-sensitive,Light-sensitive
_exptl_crystal_recrystallization_method 'dichloromethane / methanol'
loop_
_atom_site_label
_atom_site_type_symbol
_atom_site_fract_x
_atom_site_fract_y
_atom_site_fract_z
F1 F 0.39306(3) 0.37719(7) -0.01611(11)
F2 F 0.31061(3) 0.40690(7) 0.03488(13)
F3 F 0.33327(3) 0.31160(8) 0.64962(12)
F4 F 0.41473(2) 0.27908(6) 0.59404(11)
F5 F 0.25790(3) 0.45639(8) 0.29236(18)
F6 F 0.24808(3) 0.31372(9) 0.2871(2)
F7 F 0.26192(4) 0.38328(12) 0.54019(17)
C1 C 0.45674(4) 0.48865(9) 0.29266(17)
H1 H 0.4274 0.4899 0.3237
C2 C 0.47817(4) 0.56820(9) 0.27583(18)
H2 H 0.4641 0.6242 0.2984
C3 C 0.47745(5) -0.09822(9) 0.22726(19)
H3 H 0.4625 -0.1543 0.2094
C4 C 0.45560(4) -0.01859(9) 0.20920(18)
H4 H 0.4254 -0.0199 0.1800
C5 C 0.45404(4) 0.14997(9) 0.22582(17)
C6 C 0.45484(4) 0.31983(9) 0.26340(16)
C7 C 0.47721(4) 0.40229(9) 0.26473(17)
C8 C 0.47629(4) 0.23447(9) 0.24647(16)
C9 C 0.47688(4) 0.06763(9) 0.23301(17)
C10 C 0.40727(4) 0.32820(9) 0.28812(18)
C11 C 0.37889(4) 0.36127(9) 0.15026(18)
C12 C 0.33596(4) 0.37756(10) 0.1768(2)
C13 C 0.31893(4) 0.36346(10) 0.3459(2)
C14 C 0.34689(4) 0.33028(10) 0.48443(19)
C15 C 0.38981(4) 0.31345(9) 0.45459(18)
C16 C 0.27148(5) 0.37925(12) 0.3682(2)
C17 C 0.40614(4) 0.14344(9) 0.18688(18)
C18 C 0.38818(4) 0.16151(10) 0.01239(19)
H5 H 0.4061 0.1825 -0.0796
C19 C 0.34424(5) 0.14911(11) -0.0289(2)
H6 H 0.3323 0.1618 -0.1485
C20 C 0.31785(5) 0.11834(11) 0.1041(2)
H7 H 0.2878 0.1104 0.0762
C21 C 0.33538(5) 0.09925(11) 0.2773(2)
H8 H 0.3173 0.0779 0.3685
C22 C 0.37927(4) 0.11111(10) 0.3187(2)
H9 H 0.3911 0.0971 0.4378
F1A F 0.60694(3) 0.37719(7) 0.51611(11)
F2A F 0.68939(3) 0.40690(7) 0.46512(13)
F3A F 0.66673(3) 0.31160(8) -0.14962(12)
F4A F 0.58527(2) 0.27908(6) -0.09404(11)
F5A F 0.74210(3) 0.45639(8) 0.20764(18)
F6A F 0.75192(3) 0.31372(9) 0.2129(2)
F7A F 0.73808(4) 0.38328(12) -0.04019(17)
C1A C 0.54326(4) 0.48865(9) 0.20734(17)
H1A H 0.5726 0.4899 0.1763
C2A C 0.52183(4) 0.56820(9) 0.22417(18)
H2A H 0.5359 0.6242 0.2016
C3A C 0.52255(5) -0.09822(9) 0.27274(19)
H3A H 0.5375 -0.1543 0.2906
C4A C 0.54440(4) -0.01859(9) 0.29080(18)
H4A H 0.5746 -0.0199 0.3200
C5A C 0.54596(4) 0.14997(9) 0.27418(17)
C6A C 0.54516(4) 0.31983(9) 0.23660(16)
C7A C 0.52279(4) 0.40229(9) 0.23527(17)
C8A C 0.52371(4) 0.23447(9) 0.25353(16)
C9A C 0.52312(4) 0.06763(9) 0.26699(17)
C10A C 0.59273(4) 0.32820(9) 0.21188(18)
C11A C 0.62111(4) 0.36127(9) 0.34974(18)
C12A C 0.66404(4) 0.37756(10) 0.3232(2)
C13A C 0.68107(4) 0.36346(10) 0.1541(2)
C14A C 0.65311(4) 0.33028(10) 0.01557(19)
C15A C 0.61019(4) 0.31345(9) 0.04541(18)
C16A C 0.72852(5) 0.37925(12) 0.1318(2)
C17A C 0.59386(4) 0.14344(9) 0.31312(18)
C18A C 0.61182(4) 0.16151(10) 0.48761(19)
H5A H 0.5939 0.1825 0.5796
C19A C 0.65576(5) 0.14911(11) 0.5289(2)
H6A H 0.6677 0.1618 0.6485
C20A C 0.68215(5) 0.11834(11) 0.3959(2)
H7A H 0.7122 0.1104 0.4238
C21A C 0.66462(5) 0.09925(11) 0.2227(2)
H8A H 0.6827 0.0779 0.1315
C22A C 0.62073(4) 0.11111(10) 0.1813(2)
H9A H 0.6089 0.0971 0.0622
loop_
_geom_bond_atom_site_label_1
_geom_bond_atom_site_label_2
_geom_bond_site_symmetry_1
_geom_bond_site_symmetry_2
F1 C11 1_555 1_555
F2 C12 1_555 1_555
F3 C14 1_555 1_555
F4 C15 1_555 1_555
F5 C16 1_555 1_555
F6 C16 1_555 1_555
F7 C16 1_555 1_555
C1 H1 1_555 1_555
C2 C1 1_555 1_555
H2 C2 1_555 1_555
C3 H3 1_555 1_555
C4 C3 1_555 1_555
H4 C4 1_555 1_555
C5 C8 1_555 1_555
C6 C7 1_555 1_555
C7 C1 1_555 1_555
C8 C6 1_555 1_555
C9 C4 1_555 1_555
C10 C6 1_555 1_555
C11 C10 1_555 1_555
C12 C11 1_555 1_555
C13 C12 1_555 1_555
C14 C13 1_555 1_555
C15 C10 1_555 1_555
C16 C13 1_555 1_555
C17 C5 1_555 1_555
C18 C17 1_555 1_555
H5 C18 1_555 1_555
C19 C18 1_555 1_555
H6 C19 1_555 1_555
C20 C19 1_555 1_555
H7 C20 1_555 1_555
C21 C20 1_555 1_555
H8 C21 1_555 1_555
C22 C17 1_555 1_555
H9 C22 1_555 1_555
F1A C11A 1_555 1_555
F2A C12A 1_555 1_555
F3A C14A 1_555 1_555
F4A C15A 1_555 1_555
F5A C16A 1_555 1_555
F6A C16A 1_555 1_555
F7A C16A 1_555 1_555
C1A H1A 1_555 1_555
C2A C2 1_555 1_555
H2A C2A 1_555 1_555
C3A C3 1_555 1_555
H3A C3A 1_555 1_555
C4A C3A 1_555 1_555
H4A C4A 1_555 1_555
C5A C8A 1_555 1_555
C6A C7A 1_555 1_555
C7A C7 1_555 1_555
C8A C8 1_555 1_555
C9A C9 1_555 1_555
C10A C6A 1_555 1_555
C11A C10A 1_555 1_555
C12A C11A 1_555 1_555
C13A C12A 1_555 1_555
C14A C13A 1_555 1_555
C15A C10A 1_555 1_555
C16A C13A 1_555 1_555
C17A C5A 1_555 1_555
C18A C17A 1_555 1_555
H5A C18A 1_555 1_555
C19A C18A 1_555 1_555
H6A C19A 1_555 1_555
C20A C19A 1_555 1_555
H7A C20A 1_555 1_555
C21A C20A 1_555 1_555
H8A C21A 1_555 1_555
C22A C17A 1_555 1_555
H9A C22A 1_555 1_555
C5 C9 1_555 1_555
C14 C15 1_555 1_555
C21 C22 1_555 1_555
C1A C2A 1_555 1_555
C1A C7A 1_555 1_555
C4A C9A 1_555 1_555
C5A C9A 1_555 1_555
C6A C8A 1_555 1_555
C14A C15A 1_555 1_555
C21A C22A 1_555 1_555

#END
