
#######################################################################
#
#                 Cambridge Crystallographic Data Centre
#                                CCDC 
#
#######################################################################
#
# If this CIF has been generated from an entry in the Cambridge 
# Structural Database, then it will include bibliographic, chemical, 
# crystal, experimental, refinement or atomic coordinate data resulting 
# from the CCDC's data processing and validation procedures.
#
#######################################################################

data_RAGCOU
_chemical_formula_moiety         'C50 H32 F12'
_chemical_name_systematic        
5,12-bis(3,5-bis(trifluoromethyl)phenyl)-6,11-bis(3,5-dimethylphenyl)tetracene
_symmetry_cell_setting           monoclinic
_symmetry_space_group_name_H-M   'P 21'
_symmetry_Int_Tables_number      4
_space_group_name_Hall           'P 2yb'
loop_
_symmetry_equiv_pos_site_id
_symmetry_equiv_pos_as_xyz
1 x,y,z
2 -x,1/2+y,-z
_cell_length_a                   16.4083(5)
_cell_length_b                   15.2768(5)
_cell_length_c                   16.4464(6)
_cell_angle_alpha                90
_cell_angle_beta                 97.838(2)
_cell_angle_gamma                90
_cell_volume                     4084.04
_exptl_crystal_colour            orange
_exptl_crystal_description       Block
_chemical_melting_point          '323-330 deg.C'
_cell_formula_units_Z            4
_chemical_properties_physical    
Air-sensitive,Oxygen-sensitive,Light-sensitive
_exptl_crystal_recrystallization_method 'dichloromethane / methanol'
loop_
_atom_site_label
_atom_site_type_symbol
_atom_site_fract_x
_atom_site_fract_y
_atom_site_fract_z
C1 C 0.7268(3) 0.8641(3) 0.4591(3)
H1 H 0.7713 0.9025 0.4763
C2 C 0.6689(3) 0.8492(3) 0.5095(3)
H2 H 0.6739 0.8768 0.5617
C3 C 0.6010(3) 0.7928(3) 0.4850(3)
H3 H 0.5589 0.7863 0.5188
C4 C 0.5964(3) 0.7481(3) 0.4128(3)
H4 H 0.5512 0.7099 0.3973
C5 C 0.6613(2) 0.7046(3) 0.2909(2)
C6 C 0.7397(3) 0.6543(3) 0.1793(3)
C7 C 0.8112(3) 0.6163(4) 0.0603(3)
H5 H 0.7953 0.5567 0.0634
C8 C 0.8527(3) 0.6419(4) -0.0007(3)
H6 H 0.8660 0.6001 -0.0396
C9 C 0.8766(3) 0.7296(4) -0.0075(3)
H7 H 0.9032 0.7467 -0.0528
C10 C 0.8624(3) 0.7906(4) 0.0493(3)
H8 H 0.8793 0.8496 0.0437
C11 C 0.8136(3) 0.8236(3) 0.1820(3)
C12 C 0.7744(2) 0.8437(3) 0.3235(3)
C13 C 0.7213(2) 0.8225(3) 0.3809(2)
C14 C 0.6581(2) 0.7573(3) 0.3600(2)
C15 C 0.7706(2) 0.7965(3) 0.2483(3)
C16 C 0.7230(2) 0.7169(3) 0.2392(2)
C17 C 0.8216(3) 0.7651(3) 0.1184(3)
C18 C 0.7902(3) 0.6771(3) 0.1212(3)
C19 C 0.5912(3) 0.6420(3) 0.2659(2)
C20 C 0.5773(3) 0.5664(3) 0.3094(3)
H9 H 0.6128 0.5525 0.3583
C21 C 0.5128(3) 0.5115(3) 0.2824(3)
C22 C 0.4592(3) 0.5310(3) 0.2121(3)
H10 H 0.4150 0.4927 0.1935
C23 C 0.4712(3) 0.6077(3) 0.1691(3)
C24 C 0.5368(3) 0.6621(3) 0.1966(3)
H11 H 0.5445 0.7144 0.1672
C25 C 0.4986(4) 0.4306(4) 0.3297(4)
F1 F 0.5662(3) 0.3986(3) 0.3700(3)
F2 F 0.4489(4) 0.4473(5) 0.3843(4)
F3 F 0.4622(5) 0.3685(4) 0.2829(4)
C26 C 0.4150(3) 0.6292(4) 0.0920(3)
F4 F 0.4322(3) 0.5814(4) 0.0289(2)
F5 F 0.4203(2) 0.7126(2) 0.0688(2)
F6 F 0.3370(2) 0.6141(3) 0.0979(3)
C27 C 0.7153(3) 0.5614(3) 0.1871(3)
C28 C 0.7499(3) 0.5147(3) 0.2562(3)
H12 H 0.7874 0.5432 0.2968
C29 C 0.7305(4) 0.4272(4) 0.2667(4)
C30 C 0.6765(4) 0.3864(4) 0.2073(5)
H13 H 0.6630 0.3266 0.2142
C31 C 0.6411(4) 0.4307(4) 0.1371(4)
C32 C 0.6612(3) 0.5177(4) 0.1275(3)
H14 H 0.6379 0.5483 0.0797
C33 C 0.7682(6) 0.3809(5) 0.3449(6)
H15 H 0.7979 0.4232 0.3828
H16 H 0.8067 0.3364 0.3302
H17 H 0.7251 0.3528 0.3715
C34 C 0.5817(5) 0.3847(5) 0.0728(5)
H18 H 0.5283 0.3792 0.0927
H19 H 0.6029 0.3263 0.0625
H20 H 0.5752 0.4185 0.0217
C35 C 0.8413(3) 0.9162(3) 0.1763(3)
C36 C 0.9244(3) 0.9397(4) 0.1829(3)
H21 H 0.9655 0.8957 0.1919
C37 C 0.9474(4) 1.0265(4) 0.1764(4)
C38 C 0.8876(4) 1.0903(4) 0.1630(4)
H22 H 0.9035 1.1498 0.1598
C39 C 0.8043(4) 1.0689(4) 0.1539(4)
C40 C 0.7817(3) 0.9822(4) 0.1615(3)
H23 H 0.7251 0.9673 0.1566
C41 C 1.0375(4) 1.0515(5) 0.1880(6)
H24 H 1.0706 0.9979 0.1945
H25 H 1.0504 1.0882 0.2369
H26 H 1.0500 1.0837 0.1397
C42 C 0.7407(5) 1.1394(5) 0.1384(6)
H27 H 0.7622 1.1937 0.1648
H28 H 0.6914 1.1212 0.1615
H29 H 0.7266 1.1492 0.0793
C43 C 0.8408(3) 0.9085(3) 0.3487(3)
C44 C 0.9213(3) 0.8792(3) 0.3661(3)
H30 H 0.9334 0.8190 0.3595
C45 C 0.9852(3) 0.9378(4) 0.3935(3)
C46 C 0.9676(3) 1.0256(4) 0.4029(4)
H31 H 1.0104 1.0656 0.4214
C47 C 0.8873(3) 1.0548(3) 0.3851(4)
C48 C 0.8240(3) 0.9965(3) 0.3591(3)
H32 H 0.7690 1.0170 0.3483
C49 C 1.0710(3) 0.9039(4) 0.4128(5)
F7 F 1.0857(5) 0.8760(9) 0.4849(6)
F8 F 1.1250(3) 0.9598(5) 0.4057(8)
F9 F 1.0848(4) 0.8351(5) 0.3749(8)
C50 C 0.8691(4) 1.1502(4) 0.3937(5)
F10 F 0.8946(4) 1.1806(3) 0.4650(4)
F11 F 0.7890(3) 1.1673(3) 0.3750(6)
F12 F 0.9081(4) 1.2003(3) 0.3422(4)
C51 C 0.2257(3) 0.1396(3) 0.4690(3)
H45 H 0.2704 0.1014 0.4864
C52 C 0.1680(3) 0.1541(3) 0.5189(3)
H46 H 0.1734 0.1271 0.5714
C53 C 0.0998(3) 0.2088(3) 0.4939(3)
H47 H 0.0575 0.2143 0.5277
C54 C 0.0940(3) 0.2536(3) 0.4222(3)
H48 H 0.0481 0.2908 0.4067
C55 C 0.1579(2) 0.2988(3) 0.3004(3)
C56 C 0.2385(2) 0.3503(3) 0.1894(3)
C57 C 0.3094(3) 0.3910(3) 0.0713(3)
H49 H 0.2923 0.4501 0.0745
C58 C 0.3524(3) 0.3665(3) 0.0109(3)
H50 H 0.3660 0.4088 -0.0274
C59 C 0.3775(3) 0.2782(4) 0.0038(3)
H51 H 0.4053 0.2612 -0.0407
C60 C 0.3621(3) 0.2182(3) 0.0603(3)
H52 H 0.3791 0.1593 0.0546
C61 C 0.3127(3) 0.1827(3) 0.1926(3)
C62 C 0.2740(3) 0.1620(3) 0.3337(3)
C63 C 0.2202(3) 0.1815(3) 0.3898(3)
C64 C 0.1567(3) 0.2457(3) 0.3690(2)
C65 C 0.2698(3) 0.2085(3) 0.2575(3)
C66 C 0.2207(3) 0.2873(3) 0.2490(3)
C67 C 0.3211(3) 0.2413(3) 0.1278(3)
C68 C 0.2891(2) 0.3287(3) 0.1310(3)
C69 C 0.0885(2) 0.3610(3) 0.2753(2)
C70 C 0.0754(3) 0.4349(3) 0.3198(3)
H53 H 0.1106 0.4478 0.3691
C71 C 0.0091(3) 0.4917(3) 0.2918(3)
C72 C -0.0424(3) 0.4718(4) 0.2205(3)
H54 H -0.0862 0.5104 0.2012
C73 C -0.0310(3) 0.3965(3) 0.1770(3)
C74 C 0.0344(3) 0.3412(3) 0.2039(3)
H55 H 0.0425 0.2896 0.1739
C75 C -0.0044(4) 0.5727(4) 0.3404(4)
H56 H -0.0053 0.6241 0.3047
H57 H 0.0405 0.5786 0.3859
H58 H -0.0569 0.5682 0.3622
C76 C -0.0871(3) 0.3764(4) 0.0987(3)
H59 H -0.0580 0.3410 0.0621
H60 H -0.1056 0.4312 0.0711
H61 H -0.1348 0.3438 0.1124
C77 C 0.2126(3) 0.4441(3) 0.1972(3)
C78 C 0.2478(3) 0.4896(3) 0.2661(3)
H62 H 0.2859 0.4605 0.3057
C79 C 0.2285(3) 0.5769(3) 0.2786(3)
C80 C 0.1733(3) 0.6190(4) 0.2201(4)
H63 H 0.1592 0.6784 0.2278
C81 C 0.1385(3) 0.5745(3) 0.1500(3)
C82 C 0.1581(3) 0.4873(3) 0.1388(3)
H64 H 0.1341 0.4571 0.0909
C83 C 0.2660(4) 0.6229(4) 0.3556(5)
F25 F 0.3429(4) 0.6395(6) 0.3587(5)
F26 F 0.2608(6) 0.5701(5) 0.4263(4)
F27 F 0.2280(5) 0.6948(4) 0.3739(5)
C84 C 0.0787(4) 0.6215(4) 0.0878(4)
F28 F 0.1167(5) 0.6753(6) 0.0468(5)
F29 F 0.0341(4) 0.5695(4) 0.0411(4)
F30 F 0.0258(5) 0.6691(6) 0.1279(5)
C85 C 0.3399(3) 0.0897(3) 0.1856(3)
C86 C 0.4224(3) 0.0664(4) 0.1905(3)
H65 H 0.4637 0.1103 0.1988
C87 C 0.4450(3) -0.0206(4) 0.1832(4)
C88 C 0.3842(4) -0.0851(3) 0.1684(4)
H66 H 0.3994 -0.1444 0.1624
C89 C 0.3025(4) -0.0627(3) 0.1626(4)
C90 C 0.2808(3) 0.0251(3) 0.1719(3)
H67 H 0.2243 0.0405 0.1687
C91 C 0.5349(4) -0.0429(6) 0.1911(6)
F31 F 0.5811(5) -0.0058(9) 0.2503(7)
F32 F 0.5514(5) -0.1107(6) 0.1586(7)
F33 F 0.5716(5) 0.0068(7) 0.1362(8)
C92 C 0.2374(5) -0.1322(4) 0.1492(5)
F34 F 0.1994(5) -0.1406(6) 0.2162(5)
F35 F 0.2663(6) -0.2070(5) 0.1375(8)
F36 F 0.1797(7) -0.1100(7) 0.0984(7)
C93 C 0.3427(3) 0.0984(3) 0.3584(3)
C94 C 0.4232(3) 0.1290(3) 0.3713(3)
H68 H 0.4338 0.1891 0.3623
C95 C 0.4878(3) 0.0736(4) 0.3971(4)
C96 C 0.4725(4) -0.0148(4) 0.4091(4)
H69 H 0.5169 -0.0532 0.4269
C97 C 0.3926(4) -0.0472(4) 0.3953(4)
C98 C 0.3280(3) 0.0102(3) 0.3707(4)
H70 H 0.2731 -0.0112 0.3623
C99 C 0.5747(4) 0.1082(5) 0.4093(5)
H71 H 0.5981 0.0998 0.4668
H72 H 0.5740 0.1708 0.3961
H73 H 0.6084 0.0770 0.3737
C100 C 0.3745(4) -0.1428(4) 0.4023(6)
H74 H 0.3311 -0.1493 0.4374
H75 H 0.4246 -0.1720 0.4280
H76 H 0.3563 -0.1694 0.3487
H33? H 0.5349 0.3836 0.3159
H34? H 0.4411 0.4122 0.3160
H35? H 0.5100 0.4433 0.3886
H36? H 0.3897 0.6866 0.0975
H37? H 0.3719 0.5846 0.0819
H38? H 0.4470 0.6305 0.0458
F13? F 0.8438(11) 0.3654(19) 0.359(2)
F14? F 0.756(2) 0.4367(16) 0.4103(14)
F15? F 0.7213(16) 0.3165(16) 0.367(2)
F16? F 0.6348(16) 0.346(2) 0.0294(18)
F17? F 0.5337(14) 0.4369(15) 0.0329(15)
F18? F 0.5485(19) 0.3179(18) 0.1080(17)
F19? F 1.0856(13) 0.9938(15) 0.225(2)
F20? F 1.0495(13) 1.1125(15) 0.2482(16)
F21? F 1.0600(17) 1.096(2) 0.1355(18)
F22? F 0.724(2) 1.167(2) 0.2097(14)
F23? F 0.764(2) 1.2007(19) 0.099(2)
F24? F 0.6753(14) 1.1086(19) 0.1004(19)
H39? H 1.0865 0.8739 0.3646
H40? H 1.0743 0.8629 0.4589
H41? H 1.1086 0.9530 0.4275
H42? H 0.9200 1.1818 0.4131
H43? H 0.8301 1.1573 0.4333
H44? H 0.8449 1.1736 0.3404
F37? F 0.0641(5) 0.6080(7) 0.3703(7)
F38? F -0.0475(8) 0.5477(8) 0.3965(7)
F39? F -0.0515(7) 0.6271(7) 0.2938(7)
F40? F -0.0659(7) 0.4258(8) 0.0341(6)
F41? F -0.0772(6) 0.2943(6) 0.0700(5)
F42? F -0.1619(5) 0.3906(8) 0.0985(6)
H77? H 0.2294 0.6176 0.3977
H78? H 0.2737 0.6850 0.3434
H79? H 0.3193 0.5965 0.3756
H80? H 0.0241 0.5951 0.0860
H81? H 0.0972 0.6161 0.0338
H82? H 0.0760 0.6835 0.1024
H83? H 0.5682 0.0077 0.2117
H84? H 0.5488 -0.0599 0.1372
H85? H 0.5462 -0.0919 0.2294
H86? H 0.1859 -0.1098 0.1652
H87? H 0.2549 -0.1841 0.1820
H88? H 0.2288 -0.1479 0.0909
F43? F 0.5806(6) 0.1721(7) 0.4501(9)
F44? F 0.6281(6) 0.0479(7) 0.4324(9)
F45? F 0.5963(7) 0.1310(11) 0.3349(8)
F46? F 0.4002(8) -0.1776(8) 0.4627(8)
F47? F 0.2972(7) -0.1636(7) 0.3642(12)
F48? F 0.4135(7) -0.1913(7) 0.3390(8)
loop_
_geom_bond_atom_site_label_1
_geom_bond_atom_site_label_2
_geom_bond_site_symmetry_1
_geom_bond_site_symmetry_2
C1 H1 1_555 1_555
C2 C1 1_555 1_555
H2 C2 1_555 1_555
C3 C2 1_555 1_555
H3 C3 1_555 1_555
C4 C3 1_555 1_555
H4 C4 1_555 1_555
C5 C14 1_555 1_555
C6 C16 1_555 1_555
C7 H5 1_555 1_555
C8 C7 1_555 1_555
H6 C8 1_555 1_555
C9 C8 1_555 1_555
H7 C9 1_555 1_555
C10 C9 1_555 1_555
H8 C10 1_555 1_555
C11 C15 1_555 1_555
C12 C13 1_555 1_555
C13 C1 1_555 1_555
C14 C4 1_555 1_555
C15 C12 1_555 1_555
C16 C5 1_555 1_555
C17 C10 1_555 1_555
C18 C6 1_555 1_555
C19 C5 1_555 1_555
C20 C19 1_555 1_555
H9 C20 1_555 1_555
C21 C20 1_555 1_555
C22 C21 1_555 1_555
H10 C22 1_555 1_555
C23 C22 1_555 1_555
C24 C19 1_555 1_555
H11 C24 1_555 1_555
C25 C21 1_555 1_555
F1 C25 1_555 1_555
F2 C25 1_555 1_555
F3 C25 1_555 1_555
C26 C23 1_555 1_555
F4 C26 1_555 1_555
F5 C26 1_555 1_555
F6 C26 1_555 1_555
C27 C6 1_555 1_555
C28 C27 1_555 1_555
H12 C28 1_555 1_555
C29 C28 1_555 1_555
C30 C29 1_555 1_555
H13 C30 1_555 1_555
C31 C30 1_555 1_555
C32 C27 1_555 1_555
H14 C32 1_555 1_555
C33 C29 1_555 1_555
H15 C33 1_555 1_555
H16 C33 1_555 1_555
H17 C33 1_555 1_555
C34 C31 1_555 1_555
H18 C34 1_555 1_555
H19 C34 1_555 1_555
H20 C34 1_555 1_555
C35 C11 1_555 1_555
C36 C35 1_555 1_555
H21 C36 1_555 1_555
C37 C36 1_555 1_555
C38 C37 1_555 1_555
H22 C38 1_555 1_555
C39 C38 1_555 1_555
C40 C35 1_555 1_555
H23 C40 1_555 1_555
C41 C37 1_555 1_555
H24 C41 1_555 1_555
H25 C41 1_555 1_555
H26 C41 1_555 1_555
C42 C39 1_555 1_555
H27 C42 1_555 1_555
H28 C42 1_555 1_555
H29 C42 1_555 1_555
C43 C12 1_555 1_555
C44 C43 1_555 1_555
H30 C44 1_555 1_555
C45 C44 1_555 1_555
C46 C45 1_555 1_555
H31 C46 1_555 1_555
C47 C46 1_555 1_555
C48 C43 1_555 1_555
H32 C48 1_555 1_555
C49 C45 1_555 1_555
F7 C49 1_555 1_555
F8 C49 1_555 1_555
F9 C49 1_555 1_555
C50 C47 1_555 1_555
F10 C50 1_555 1_555
F11 C50 1_555 1_555
F12 C50 1_555 1_555
C51 H45 1_555 1_555
C52 C51 1_555 1_555
H46 C52 1_555 1_555
C53 C52 1_555 1_555
H47 C53 1_555 1_555
C54 C53 1_555 1_555
H48 C54 1_555 1_555
C55 C64 1_555 1_555
C56 C66 1_555 1_555
C57 H49 1_555 1_555
C58 C57 1_555 1_555
H50 C58 1_555 1_555
C59 C58 1_555 1_555
H51 C59 1_555 1_555
C60 C59 1_555 1_555
H52 C60 1_555 1_555
C61 C65 1_555 1_555
C62 C63 1_555 1_555
C63 C51 1_555 1_555
C64 C54 1_555 1_555
C65 C62 1_555 1_555
C66 C55 1_555 1_555
C67 C60 1_555 1_555
C68 C56 1_555 1_555
C69 C55 1_555 1_555
C70 C69 1_555 1_555
H53 C70 1_555 1_555
C71 C70 1_555 1_555
C72 C71 1_555 1_555
H54 C72 1_555 1_555
C73 C72 1_555 1_555
C74 C69 1_555 1_555
H55 C74 1_555 1_555
C75 C71 1_555 1_555
H56 C75 1_555 1_555
H57 C75 1_555 1_555
H58 C75 1_555 1_555
C76 C73 1_555 1_555
H59 C76 1_555 1_555
H60 C76 1_555 1_555
H61 C76 1_555 1_555
C77 C56 1_555 1_555
C78 C77 1_555 1_555
H62 C78 1_555 1_555
C79 C78 1_555 1_555
C80 C79 1_555 1_555
H63 C80 1_555 1_555
C81 C80 1_555 1_555
C82 C77 1_555 1_555
H64 C82 1_555 1_555
C83 C79 1_555 1_555
F25 C83 1_555 1_555
F26 C83 1_555 1_555
F27 C83 1_555 1_555
C84 C81 1_555 1_555
F28 C84 1_555 1_555
F29 C84 1_555 1_555
F30 C84 1_555 1_555
C85 C61 1_555 1_555
C86 C85 1_555 1_555
H65 C86 1_555 1_555
C87 C86 1_555 1_555
C88 C87 1_555 1_555
H66 C88 1_555 1_555
C89 C88 1_555 1_555
C90 C85 1_555 1_555
H67 C90 1_555 1_555
C91 C87 1_555 1_555
F31 C91 1_555 1_555
F32 C91 1_555 1_555
F33 C91 1_555 1_555
C92 C89 1_555 1_555
F34 C92 1_555 1_555
F35 C92 1_555 1_555
F36 C92 1_555 1_555
C93 C62 1_555 1_555
C94 C93 1_555 1_555
H68 C94 1_555 1_555
C95 C94 1_555 1_555
C96 C95 1_555 1_555
H69 C96 1_555 1_555
C97 C96 1_555 1_555
C98 C93 1_555 1_555
H70 C98 1_555 1_555
C99 C95 1_555 1_555
H71 C99 1_555 1_555
H72 C99 1_555 1_555
H73 C99 1_555 1_555
C100 C97 1_555 1_555
H74 C100 1_555 1_555
H75 C100 1_555 1_555
H76 C100 1_555 1_555
C7 C18 1_555 1_555
C11 C17 1_555 1_555
C13 C14 1_555 1_555
C15 C16 1_555 1_555
C17 C18 1_555 1_555
C23 C24 1_555 1_555
C31 C32 1_555 1_555
C39 C40 1_555 1_555
C47 C48 1_555 1_555
C57 C68 1_555 1_555
C61 C67 1_555 1_555
C63 C64 1_555 1_555
C65 C66 1_555 1_555
C67 C68 1_555 1_555
C73 C74 1_555 1_555
C81 C82 1_555 1_555
C89 C90 1_555 1_555
C97 C98 1_555 1_555

#END
