
#######################################################################
#
#                 Cambridge Crystallographic Data Centre
#                                CCDC 
#
#######################################################################
#
# If this CIF has been generated from an entry in the Cambridge 
# Structural Database, then it will include bibliographic, chemical, 
# crystal, experimental, refinement or atomic coordinate data resulting 
# from the CCDC's data processing and validation procedures.
#
#######################################################################

data_RAGCEK
_chemical_formula_moiety         'C48 H28 F12'
_chemical_name_systematic        
5,12-bis(3,5-bis(trifluoromethyl)phenyl)-6,11-bis(4-methylphenyl)tetracene
_symmetry_cell_setting           monoclinic
_symmetry_space_group_name_H-M   'P 21/c'
_symmetry_Int_Tables_number      14
_space_group_name_Hall           '-P 2ybc'
loop_
_symmetry_equiv_pos_site_id
_symmetry_equiv_pos_as_xyz
1 x,y,z
2 -x,1/2+y,1/2-z
3 -x,-y,-z
4 x,1/2-y,1/2+z
_cell_length_a                   15.8800(4)
_cell_length_b                   29.5419(7)
_cell_length_c                   7.9956(2)
_cell_angle_alpha                90
_cell_angle_beta                 91.7450(13)
_cell_angle_gamma                90
_cell_volume                     3749.2
_exptl_crystal_colour            red
_exptl_crystal_description       ribbon
_chemical_melting_point          '280-286 deg.C'
_cell_formula_units_Z            4
_chemical_properties_physical    
Air-sensitive,Oxygen-sensitive,Light-sensitive
loop_
_atom_site_label
_atom_site_type_symbol
_atom_site_fract_x
_atom_site_fract_y
_atom_site_fract_z
F1 F 0.57438(12) 0.51089(7) 0.7921(3)
F2 F 0.51595(17) 0.45687(7) 0.9202(2)
F3 F 0.44417(12) 0.49719(7) 0.7475(3)
F4 F 0.39738(13) 0.39081(7) 0.2160(3)
F5 F 0.36817(12) 0.35381(8) 0.4344(3)
F6 F 0.45798(12) 0.32772(7) 0.2668(3)
F7 F 1.12146(12) 0.27633(7) 0.1960(3)
F8 F 1.20357(16) 0.28376(8) 0.4125(3)
F9 F 1.23848(12) 0.31032(7) 0.1799(3)
F10 F 1.14078(14) 0.50803(7) 0.3860(4)
F11 F 1.24481(16) 0.47132(8) 0.4927(3)
F12 F 1.22906(14) 0.47745(7) 0.2309(3)
C1 C 0.89520(17) 0.42092(10) 0.1590(3)
H1 H 0.9531 0.4164 0.1374
C2 C 0.84510(18) 0.44106(11) 0.0410(4)
H2 H 0.8680 0.4502 -0.0621
C3 C 0.75856(18) 0.44863(10) 0.0703(4)
H3 H 0.7245 0.4641 -0.0110
C4 C 0.72432(17) 0.43394(9) 0.2128(3)
H4 H 0.6663 0.4393 0.2304
C5 C 0.73835(16) 0.39167(9) 0.4796(3)
C6 C 0.75248(16) 0.34315(9) 0.7355(3)
C7 C 0.7702(2) 0.29704(10) 0.9922(4)
H5 H 0.7110 0.2924 0.9938
C8 C 0.8199(2) 0.27804(11) 1.1129(4)
H6 H 0.7957 0.2600 1.1972
C9 C 0.9083(2) 0.28492(11) 1.1138(4)
H7 H 0.9431 0.2708 1.1973
C10 C 0.9434(2) 0.31129(10) 0.9976(4)
H8 H 1.0024 0.3167 1.0043
C11 C 0.93083(16) 0.35627(9) 0.7356(3)
C12 C 0.91530(16) 0.38911(9) 0.4464(3)
C13 C 0.86314(16) 0.40622(9) 0.3160(3)
C14 C 0.77405(16) 0.41026(9) 0.3392(3)
C15 C 0.88035(16) 0.37173(9) 0.5958(3)
C16 C 0.78887(16) 0.36837(9) 0.6043(3)
C17 C 0.89381(17) 0.33149(9) 0.8634(3)
C18 C 0.80460(17) 0.32409(9) 0.8616(3)
C19 C 0.64704(16) 0.40125(9) 0.5043(3)
C20 C 0.62485(17) 0.43458(9) 0.6164(3)
H9 H 0.6676 0.4503 0.6786
C21 C 0.54094(17) 0.44534(9) 0.6388(3)
C22 C 0.47786(17) 0.42312(10) 0.5470(3)
H10 H 0.4203 0.4305 0.5617
C23 C 0.49989(17) 0.39014(10) 0.4341(3)
C24 C 0.58335(17) 0.37932(9) 0.4107(3)
H11 H 0.5975 0.3569 0.3310
C25 C 0.51914(19) 0.47770(10) 0.7728(4)
C26 C 0.43175(19) 0.36568(11) 0.3375(4)
C27 C 0.66178(17) 0.32990(9) 0.7354(3)
C28 C 0.63230(18) 0.29519(10) 0.6322(4)
H12 H 0.6692 0.2818 0.5552
C29 C 0.55001(19) 0.27965(10) 0.6393(5)
H13 H 0.5320 0.2556 0.5680
C30 C 0.49342(19) 0.29854(11) 0.7483(5)
C31 C 0.52256(19) 0.33346(11) 0.8513(4)
H14 H 0.4850 0.3472 0.9263
C32 C 0.60516(18) 0.34870(10) 0.8473(4)
H15 H 0.6235 0.3721 0.9212
C33 C 0.4037(2) 0.28206(13) 0.7581(6)
H16 H 0.3850 0.2699 0.6492
H17 H 0.3672 0.3073 0.7883
H18 H 0.4007 0.2583 0.8432
C34 C 1.02123(17) 0.36990(9) 0.7605(3)
C35 C 1.08754(18) 0.33935(11) 0.7524(4)
H19 H 1.0764 0.3086 0.7247
C36 C 1.16996(19) 0.35331(12) 0.7845(4)
H20 H 1.2143 0.3319 0.7767
C37 C 1.18926(18) 0.39758(12) 0.8274(4)
C38 C 1.12270(18) 0.42799(11) 0.8376(4)
H21 H 1.1339 0.4586 0.8675
C39 C 1.04043(17) 0.41436(10) 0.8046(3)
H22 H 0.9962 0.4358 0.8123
C40 C 1.27903(19) 0.41235(15) 0.8612(4)
H23 H 1.3175 0.3898 0.8161
H24 H 1.2895 0.4153 0.9821
H25 H 1.2885 0.4416 0.8072
C41 C 1.00749(16) 0.38812(9) 0.4131(3)
C42 C 1.04730(16) 0.34809(9) 0.3686(3)
H26 H 1.0172 0.3203 0.3712
C43 C 1.13076(17) 0.34832(10) 0.3202(3)
C44 C 1.17593(17) 0.38830(10) 0.3180(3)
H27 H 1.2329 0.3885 0.2847
C45 C 1.13695(17) 0.42821(10) 0.3650(3)
C46 C 1.05366(17) 0.42817(10) 0.4108(3)
H28 H 1.0276 0.4558 0.4410
C47 C 1.17300(19) 0.30491(11) 0.2773(4)
C48 C 1.1872(2) 0.47084(11) 0.3708(4)
loop_
_geom_bond_atom_site_label_1
_geom_bond_atom_site_label_2
_geom_bond_site_symmetry_1
_geom_bond_site_symmetry_2
F1 C25 1_555 1_555
F2 C25 1_555 1_555
F3 C25 1_555 1_555
F4 C26 1_555 1_555
F5 C26 1_555 1_555
F6 C26 1_555 1_555
F7 C47 1_555 1_555
F8 C47 1_555 1_555
F9 C47 1_555 1_555
F10 C48 1_555 1_555
F11 C48 1_555 1_555
F12 C48 1_555 1_555
C1 H1 1_555 1_555
C2 C1 1_555 1_555
H2 C2 1_555 1_555
C3 C2 1_555 1_555
H3 C3 1_555 1_555
C4 C3 1_555 1_555
H4 C4 1_555 1_555
C5 C14 1_555 1_555
C6 C16 1_555 1_555
C7 H5 1_555 1_555
C8 C7 1_555 1_555
H6 C8 1_555 1_555
C9 C8 1_555 1_555
H7 C9 1_555 1_555
C10 C9 1_555 1_555
H8 C10 1_555 1_555
C11 C15 1_555 1_555
C12 C13 1_555 1_555
C13 C1 1_555 1_555
C14 C4 1_555 1_555
C15 C12 1_555 1_555
C16 C5 1_555 1_555
C17 C10 1_555 1_555
C18 C6 1_555 1_555
C19 C5 1_555 1_555
C20 C19 1_555 1_555
H9 C20 1_555 1_555
C21 C20 1_555 1_555
C22 C21 1_555 1_555
H10 C22 1_555 1_555
C23 C22 1_555 1_555
C24 C19 1_555 1_555
H11 C24 1_555 1_555
C25 C21 1_555 1_555
C26 C23 1_555 1_555
C27 C6 1_555 1_555
C28 C27 1_555 1_555
H12 C28 1_555 1_555
C29 C28 1_555 1_555
H13 C29 1_555 1_555
C30 C29 1_555 1_555
C31 C30 1_555 1_555
H14 C31 1_555 1_555
C32 C27 1_555 1_555
H15 C32 1_555 1_555
C33 C30 1_555 1_555
H16 C33 1_555 1_555
H17 C33 1_555 1_555
H18 C33 1_555 1_555
C34 C11 1_555 1_555
C35 C34 1_555 1_555
H19 C35 1_555 1_555
C36 C35 1_555 1_555
H20 C36 1_555 1_555
C37 C36 1_555 1_555
C38 C37 1_555 1_555
H21 C38 1_555 1_555
C39 C34 1_555 1_555
H22 C39 1_555 1_555
C40 C37 1_555 1_555
H23 C40 1_555 1_555
H24 C40 1_555 1_555
H25 C40 1_555 1_555
C41 C12 1_555 1_555
C42 C41 1_555 1_555
H26 C42 1_555 1_555
C43 C42 1_555 1_555
C44 C43 1_555 1_555
H27 C44 1_555 1_555
C45 C44 1_555 1_555
C46 C41 1_555 1_555
H28 C46 1_555 1_555
C47 C43 1_555 1_555
C48 C45 1_555 1_555
C7 C18 1_555 1_555
C11 C17 1_555 1_555
C13 C14 1_555 1_555
C15 C16 1_555 1_555
C17 C18 1_555 1_555
C23 C24 1_555 1_555
C31 C32 1_555 1_555
C38 C39 1_555 1_555
C45 C46 1_555 1_555

#END
