
#######################################################################
#
#                 Cambridge Crystallographic Data Centre
#                                CCDC 
#
#######################################################################
#
# If this CIF has been generated from an entry in the Cambridge 
# Structural Database, then it will include bibliographic, chemical, 
# crystal, experimental, refinement or atomic coordinate data resulting 
# from the CCDC's data processing and validation procedures.
#
#######################################################################

data_RAGCIO
_chemical_formula_moiety         'C52 H42 F6'
_chemical_name_systematic        
5,12-bis(4-(t-butyl)phenyl)-6,11-bis(4-(trifluoromethyl)phenyl)tetracene
_symmetry_cell_setting           monoclinic
_symmetry_space_group_name_H-M   'P 2/c'
_symmetry_Int_Tables_number      13
_space_group_name_Hall           '-P 2yc'
loop_
_symmetry_equiv_pos_site_id
_symmetry_equiv_pos_as_xyz
1 x,y,z
2 -x,y,1/2-z
3 -x,-y,-z
4 x,-y,1/2+z
_cell_length_a                   31.2902(15)
_cell_length_b                   7.4030(4)
_cell_length_c                   17.2071(9)
_cell_angle_alpha                90
_cell_angle_beta                 90.524(4)
_cell_angle_gamma                90
_cell_volume                     3985.71
_exptl_crystal_colour            red
_exptl_crystal_description       plate
_chemical_melting_point          '266-268 deg.C'
_cell_formula_units_Z            4
_chemical_properties_physical    
Air-sensitive,Oxygen-sensitive,Light-sensitive
_exptl_crystal_recrystallization_method hexane
loop_
_atom_site_label
_atom_site_type_symbol
_atom_site_fract_x
_atom_site_fract_y
_atom_site_fract_z
F1 F 0.02043(6) 0.6791(3) 0.34550(12)
F2 F 0.05606(6) 0.7674(3) 0.24680(9)
F3 F 0.06130(7) 0.9096(3) 0.35441(11)
F4 F 0.42920(10) -0.4936(5) 0.34860(14)
F5 F 0.43497(7) -0.3202(4) 0.24993(13)
F6 F 0.46379(8) -0.2519(6) 0.3580(2)
C1 C 0.25081(8) -0.0739(3) 0.28047(15)
H1 H 0.2749 -0.1519 0.2807
C2 C 0.22287(8) -0.0814(4) 0.22004(15)
H2 H 0.2277 -0.1631 0.1785
C3 C 0.18642(8) 0.0321(3) 0.21851(15)
H3 H 0.1671 0.0274 0.1756
C4 C 0.17893(7) 0.1471(3) 0.27791(14)
H4 H 0.1541 0.2208 0.2762
C5 C 0.20135(7) 0.2870(3) 0.40294(14)
C6 C 0.22425(7) 0.4256(3) 0.52925(13)
C7 C 0.24903(8) 0.5683(3) 0.65174(15)
H5 H 0.2243 0.6427 0.6522
C8 C 0.27765(8) 0.5797(4) 0.71143(15)
H6 H 0.2727 0.6609 0.7532
C9 C 0.31492(8) 0.4707(4) 0.71151(15)
H7 H 0.3348 0.4795 0.7534
C10 C 0.32252(7) 0.3543(3) 0.65253(14)
H8 H 0.3478 0.2829 0.6536
C11 C 0.29951(7) 0.2096(3) 0.52914(14)
C12 C 0.27572(7) 0.0683(3) 0.40391(14)
C13 C 0.24503(7) 0.0490(3) 0.34440(14)
C14 C 0.20757(7) 0.1611(3) 0.34379(14)
C15 C 0.26958(7) 0.1914(3) 0.46618(13)
C16 C 0.23084(7) 0.3039(3) 0.46630(13)
C17 C 0.29308(7) 0.3366(3) 0.58822(13)
C18 C 0.25526(7) 0.4469(3) 0.58819(14)
C19 C 0.16411(7) 0.4110(3) 0.38945(13)
C20 C 0.12309(7) 0.3661(3) 0.41233(14)
H9 H 0.1186 0.2601 0.4423
C21 C 0.08857(8) 0.4737(4) 0.39203(14)
H10 H 0.0607 0.4430 0.4089
C22 C 0.09490(8) 0.6256(4) 0.34721(14)
C23 C 0.13558(8) 0.6711(3) 0.32273(14)
H11 H 0.1398 0.7759 0.2919
C24 C 0.16987(8) 0.5635(3) 0.34330(14)
H12 H 0.1977 0.5937 0.3258
C25 C 0.05829(10) 0.7434(4) 0.32406(17)
C26 C 0.18310(7) 0.5252(3) 0.54255(13)
C27 C 0.15181(7) 0.4449(3) 0.58804(14)
H13 H 0.1562 0.3259 0.6071
C28 C 0.11453(7) 0.5352(3) 0.60588(14)
H14 H 0.0936 0.4766 0.6366
C29 C 0.10695(7) 0.7113(3) 0.57958(13)
C30 C 0.13854(7) 0.7909(3) 0.53516(14)
H15 H 0.1343 0.9101 0.5161
C31 C 0.17617(7) 0.7008(3) 0.51776(13)
H16 H 0.1975 0.7606 0.4884
C32 C 0.06510(7) 0.8075(4) 0.60039(15)
C33 C 0.05843(9) 0.8024(4) 0.68871(16)
H17 H 0.0826 0.8616 0.7149
H18 H 0.0566 0.6765 0.7060
H19 H 0.0319 0.8657 0.7015
C34 C 0.02770(8) 0.7103(4) 0.55994(19)
H20 H 0.0315 0.7149 0.5035
H21 H 0.0008 0.7699 0.5735
H22 H 0.0269 0.5840 0.5770
C35 C 0.06458(9) 1.0043(4) 0.57394(17)
H23 H 0.0674 1.0095 0.5173
H24 H 0.0885 1.0691 0.5984
H25 H 0.0376 1.0606 0.5891
C36 C 0.33702(7) 0.0868(3) 0.54166(14)
C37 C 0.33261(8) -0.0638(3) 0.58920(14)
H26 H 0.3054 -0.0923 0.6100
C38 C 0.36722(8) -0.1721(3) 0.60659(15)
H27 H 0.3632 -0.2747 0.6389
C39 C 0.40799(8) -0.1363(3) 0.57830(15)
C40 C 0.41224(8) 0.0169(3) 0.53238(16)
H28 H 0.4396 0.0473 0.5126
C41 C 0.37749(7) 0.1268(3) 0.51461(15)
H29 H 0.3816 0.2311 0.4834
C42 C 0.44549(8) -0.2609(4) 0.59883(18)
C43 C 0.45169(12) -0.2602(5) 0.6871(2)
H30 H 0.4596 -0.1385 0.7044
H31 H 0.4744 -0.3453 0.7014
H32 H 0.4250 -0.2964 0.7120
C44 C 0.43522(9) -0.4539(4) 0.57255(19)
H33 H 0.4087 -0.4941 0.5969
H34 H 0.4586 -0.5345 0.5880
H35 H 0.4318 -0.4565 0.5159
C45 C 0.48704(9) -0.2015(5) 0.5613(2)
H36 H 0.4949 -0.0811 0.5803
H37 H 0.4832 -0.1976 0.5047
H38 H 0.5098 -0.2875 0.5746
C46 C 0.31647(8) -0.0334(4) 0.39004(14)
C47 C 0.32324(9) -0.2073(4) 0.41788(16)
H39 H 0.3026 -0.2625 0.4503
C48 C 0.36006(10) -0.3004(5) 0.39848(18)
H40 H 0.3650 -0.4179 0.4189
C49 C 0.38949(10) -0.2230(5) 0.34973(18)
C50 C 0.38260(10) -0.0527(6) 0.31989(18)
H41 H 0.4028 -0.0003 0.2857
C51 C 0.34624(9) 0.0416(5) 0.33987(17)
H42 H 0.3415 0.1589 0.3191
C52 C 0.42958(13) -0.3181(8) 0.3268(2)
loop_
_geom_bond_atom_site_label_1
_geom_bond_atom_site_label_2
_geom_bond_site_symmetry_1
_geom_bond_site_symmetry_2
F1 C25 1_555 1_555
F2 C25 1_555 1_555
F3 C25 1_555 1_555
F4 C52 1_555 1_555
F5 C52 1_555 1_555
F6 C52 1_555 1_555
C1 H1 1_555 1_555
C2 C1 1_555 1_555
H2 C2 1_555 1_555
C3 C2 1_555 1_555
H3 C3 1_555 1_555
C4 C3 1_555 1_555
H4 C4 1_555 1_555
C5 C14 1_555 1_555
C6 C16 1_555 1_555
C7 H5 1_555 1_555
C8 C7 1_555 1_555
H6 C8 1_555 1_555
C9 C8 1_555 1_555
H7 C9 1_555 1_555
C10 C9 1_555 1_555
H8 C10 1_555 1_555
C11 C15 1_555 1_555
C12 C13 1_555 1_555
C13 C1 1_555 1_555
C14 C4 1_555 1_555
C15 C12 1_555 1_555
C16 C5 1_555 1_555
C17 C10 1_555 1_555
C18 C6 1_555 1_555
C19 C5 1_555 1_555
C20 C19 1_555 1_555
H9 C20 1_555 1_555
C21 C20 1_555 1_555
H10 C21 1_555 1_555
C22 C21 1_555 1_555
C23 C22 1_555 1_555
H11 C23 1_555 1_555
C24 C19 1_555 1_555
H12 C24 1_555 1_555
C25 C22 1_555 1_555
C26 C6 1_555 1_555
C27 C26 1_555 1_555
H13 C27 1_555 1_555
C28 C27 1_555 1_555
H14 C28 1_555 1_555
C29 C28 1_555 1_555
C30 C29 1_555 1_555
H15 C30 1_555 1_555
C31 C26 1_555 1_555
H16 C31 1_555 1_555
C32 C29 1_555 1_555
C33 C32 1_555 1_555
H17 C33 1_555 1_555
H18 C33 1_555 1_555
H19 C33 1_555 1_555
C34 C32 1_555 1_555
H20 C34 1_555 1_555
H21 C34 1_555 1_555
H22 C34 1_555 1_555
C35 C32 1_555 1_555
H23 C35 1_555 1_555
H24 C35 1_555 1_555
H25 C35 1_555 1_555
C36 C11 1_555 1_555
C37 C36 1_555 1_555
H26 C37 1_555 1_555
C38 C37 1_555 1_555
H27 C38 1_555 1_555
C39 C38 1_555 1_555
C40 C39 1_555 1_555
H28 C40 1_555 1_555
C41 C36 1_555 1_555
H29 C41 1_555 1_555
C42 C39 1_555 1_555
C43 C42 1_555 1_555
H30 C43 1_555 1_555
H31 C43 1_555 1_555
H32 C43 1_555 1_555
C44 C42 1_555 1_555
H33 C44 1_555 1_555
H34 C44 1_555 1_555
H35 C44 1_555 1_555
C45 C42 1_555 1_555
H36 C45 1_555 1_555
H37 C45 1_555 1_555
H38 C45 1_555 1_555
C46 C12 1_555 1_555
C47 C46 1_555 1_555
H39 C47 1_555 1_555
C48 C47 1_555 1_555
H40 C48 1_555 1_555
C49 C48 1_555 1_555
C50 C49 1_555 1_555
H41 C50 1_555 1_555
C51 C46 1_555 1_555
H42 C51 1_555 1_555
C52 C49 1_555 1_555
C7 C18 1_555 1_555
C11 C17 1_555 1_555
C13 C14 1_555 1_555
C15 C16 1_555 1_555
C17 C18 1_555 1_555
C23 C24 1_555 1_555
C30 C31 1_555 1_555
C40 C41 1_555 1_555
C50 C51 1_555 1_555

#END
