
#######################################################################
#
#                 Cambridge Crystallographic Data Centre
#                                CCDC 
#
#######################################################################
#
# If this CIF has been generated from an entry in the Cambridge 
# Structural Database, then it will include bibliographic, chemical, 
# crystal, experimental, refinement or atomic coordinate data resulting 
# from the CCDC's data processing and validation procedures.
#
#######################################################################

data_RAGDOV
_chemical_formula_moiety         'C46 H24 F12'
_chemical_name_systematic        
5,6,11,12-tetrakis(4-(trifluoromethyl)phenyl)tetracene
_symmetry_cell_setting           monoclinic
_symmetry_space_group_name_H-M   'C 2/c'
_symmetry_Int_Tables_number      15
_space_group_name_Hall           '-C 2yn'
loop_
_symmetry_equiv_pos_site_id
_symmetry_equiv_pos_as_xyz
1 x,y,z
2 -x,y,1/2-z
3 1/2+x,1/2+y,z
4 1/2-x,1/2+y,1/2-z
5 -x,-y,-z
6 x,-y,1/2+z
7 1/2-x,1/2-y,-z
8 1/2+x,1/2-y,1/2+z
_cell_length_a                   18.275(2)
_cell_length_b                   16.397(2)
_cell_length_c                   14.4859(19)
_cell_angle_alpha                90
_cell_angle_beta                 126.468(1)
_cell_angle_gamma                90
_cell_volume                     3490.8
_exptl_crystal_colour            orange
_exptl_crystal_description       block
_cell_formula_units_Z            4
_chemical_properties_physical    
Air-sensitive,Oxygen-sensitive,Light-sensitive
_exptl_crystal_recrystallization_method dichloromethane/isopropanol
loop_
_atom_site_label
_atom_site_type_symbol
_atom_site_fract_x
_atom_site_fract_y
_atom_site_fract_z
F1 F 0.3751(3) 0.5554(3) 1.4138(2)
F2 F 0.4054(2) 0.64837(16) 1.3524(2)
F3 F 0.4573(3) 0.5363(3) 1.3628(3)
F4 F 0.34499(19) 0.36990(15) 1.42120(17)
F5 F 0.37061(13) 0.25128(15) 1.38867(16)
F6 F 0.26263(14) 0.27095(18) 1.40228(17)
C1 C 0.05193(17) 0.20751(15) 0.8697(2)
H1 H 0.0865 0.2064 0.9511
C2 C 0.02525(17) 0.13591(16) 0.8110(2)
H2 H 0.0403 0.0857 0.8512
C3 C 0.03704(17) 0.73390(15) 0.8094(2)
H3 H 0.0618 0.7841 0.8489
C4 C 0.07240(17) 0.66258(15) 0.8665(2)
H4 H 0.1219 0.6637 0.9457
C5 C 0.07174(16) 0.51097(15) 0.86946(19)
C6 C 0.06246(16) 0.35858(15) 0.8717(2)
C7 C 0.02909(16) 0.28500(15) 0.8118(2)
C8 C 0.03495(15) 0.43505(14) 0.81241(19)
C9 C 0.03692(15) 0.58515(15) 0.81014(19)
C10 C 0.15333(17) 0.51977(14) 0.9927(2)
C11 C 0.14451(19) 0.53028(16) 1.0813(2)
H5 H 0.0862 0.5266 1.0654
C12 C 0.2205(2) 0.54606(17) 1.1924(2)
H6 H 0.2142 0.5524 1.2526
C13 C 0.3049(2) 0.55257(16) 1.2151(2)
C14 C 0.31481(19) 0.54399(17) 1.1277(3)
H7 H 0.3731 0.5493 1.1436
C15 C 0.23890(18) 0.52761(16) 1.0169(2)
H8 H 0.2455 0.5217 0.9569
C16 C 0.3871(2) 0.5716(2) 1.3352(3)
C17 C 0.12587(16) 0.35033(14) 0.9996(2)
C18 C 0.09147(17) 0.34516(15) 1.0632(2)
H9 H 0.0281 0.3520 1.0260
C19 C 0.14888(17) 0.33012(16) 1.1805(2)
H10 H 0.1250 0.3275 1.2235
C20 C 0.24093(17) 0.31896(15) 1.2343(2)
C21 C 0.27620(17) 0.32234(16) 1.1720(2)
H11 H 0.3394 0.3141 1.2093
C22 C 0.21874(17) 0.33776(15) 1.0552(2)
H12 H 0.2428 0.3398 1.0124
C23 C 0.30387(19) 0.30264(19) 1.3604(2)
F1A F -0.3751(3) 0.5554(3) 0.0862(2)
F2A F -0.4054(2) 0.64837(16) 0.1476(2)
F3A F -0.4573(3) 0.5363(3) 0.1372(3)
F4A F -0.34499(19) 0.36990(15) 0.07880(17)
F5A F -0.37061(13) 0.25128(15) 0.11133(16)
F6A F -0.26263(14) 0.27095(18) 0.09772(17)
C1A C -0.05193(17) 0.20751(15) 0.6303(2)
H1A H -0.0865 0.2064 0.5489
C2A C -0.02525(17) 0.13591(16) 0.6890(2)
H2A H -0.0403 0.0857 0.6488
C3A C -0.03704(17) 0.73390(15) 0.6906(2)
H3A H -0.0618 0.7841 0.6511
C4A C -0.07240(17) 0.66258(15) 0.6335(2)
H4A H -0.1219 0.6637 0.5543
C5A C -0.07174(16) 0.51097(15) 0.63054(19)
C6A C -0.06246(16) 0.35858(15) 0.6283(2)
C7A C -0.02909(16) 0.28500(15) 0.6882(2)
C8A C -0.03495(15) 0.43505(14) 0.68759(19)
C9A C -0.03692(15) 0.58515(15) 0.68986(19)
C10A C -0.15333(17) 0.51977(14) 0.5073(2)
C11A C -0.14451(19) 0.53028(16) 0.4187(2)
H5A H -0.0862 0.5266 0.4346
C12A C -0.2205(2) 0.54606(17) 0.3076(2)
H6A H -0.2142 0.5524 0.2474
C13A C -0.3049(2) 0.55257(16) 0.2849(2)
C14A C -0.31481(19) 0.54399(17) 0.3723(3)
H7A H -0.3731 0.5493 0.3564
C15A C -0.23890(18) 0.52761(16) 0.4831(2)
H8A H -0.2455 0.5217 0.5431
C16A C -0.3871(2) 0.5716(2) 0.1648(3)
C17A C -0.12587(16) 0.35033(14) 0.5004(2)
C18A C -0.09147(17) 0.34516(15) 0.4368(2)
H9A H -0.0281 0.3520 0.4740
C19A C -0.14888(17) 0.33012(16) 0.3195(2)
H10A H -0.1250 0.3275 0.2765
C20A C -0.24093(17) 0.31896(15) 0.2657(2)
C21A C -0.27620(17) 0.32234(16) 0.3280(2)
H11A H -0.3394 0.3141 0.2907
C22A C -0.21874(17) 0.33776(15) 0.4448(2)
H12A H -0.2428 0.3398 0.4876
C23A C -0.30387(19) 0.30264(19) 0.1396(2)
loop_
_geom_bond_atom_site_label_1
_geom_bond_atom_site_label_2
_geom_bond_site_symmetry_1
_geom_bond_site_symmetry_2
F1 C16 1_555 1_555
F2 C16 1_555 1_555
F3 C16 1_555 1_555
F4 C23 1_555 1_555
F5 C23 1_555 1_555
F6 C23 1_555 1_555
C1 H1 1_555 1_555
C2 C1 1_555 1_555
H2 C2 1_555 1_555
C3 H3 1_555 1_555
C4 C3 1_555 1_555
H4 C4 1_555 1_555
C5 C8 1_555 1_555
C6 C7 1_555 1_555
C7 C1 1_555 1_555
C8 C6 1_555 1_555
C9 C4 1_555 1_555
C10 C5 1_555 1_555
C11 C10 1_555 1_555
H5 C11 1_555 1_555
C12 C11 1_555 1_555
H6 C12 1_555 1_555
C13 C12 1_555 1_555
C14 C13 1_555 1_555
H7 C14 1_555 1_555
C15 C10 1_555 1_555
H8 C15 1_555 1_555
C16 C13 1_555 1_555
C17 C6 1_555 1_555
C18 C17 1_555 1_555
H9 C18 1_555 1_555
C19 C18 1_555 1_555
H10 C19 1_555 1_555
C20 C19 1_555 1_555
C21 C20 1_555 1_555
H11 C21 1_555 1_555
C22 C17 1_555 1_555
H12 C22 1_555 1_555
C23 C20 1_555 1_555
F1A C16A 1_555 1_555
F2A C16A 1_555 1_555
F3A C16A 1_555 1_555
F4A C23A 1_555 1_555
F5A C23A 1_555 1_555
F6A C23A 1_555 1_555
C1A H1A 1_555 1_555
C2A C2 1_555 1_555
H2A C2A 1_555 1_555
C3A C3 1_555 1_555
H3A C3A 1_555 1_555
C4A C3A 1_555 1_555
H4A C4A 1_555 1_555
C5A C8A 1_555 1_555
C6A C7A 1_555 1_555
C7A C7 1_555 1_555
C8A C8 1_555 1_555
C9A C9 1_555 1_555
C10A C5A 1_555 1_555
C11A C10A 1_555 1_555
H5A C11A 1_555 1_555
C12A C11A 1_555 1_555
H6A C12A 1_555 1_555
C13A C12A 1_555 1_555
C14A C13A 1_555 1_555
H7A C14A 1_555 1_555
C15A C10A 1_555 1_555
H8A C15A 1_555 1_555
C16A C13A 1_555 1_555
C17A C6A 1_555 1_555
C18A C17A 1_555 1_555
H9A C18A 1_555 1_555
C19A C18A 1_555 1_555
H10A C19A 1_555 1_555
C20A C19A 1_555 1_555
C21A C20A 1_555 1_555
H11A C21A 1_555 1_555
C22A C17A 1_555 1_555
H12A C22A 1_555 1_555
C23A C20A 1_555 1_555
C5 C9 1_555 1_555
C14 C15 1_555 1_555
C21 C22 1_555 1_555
C1A C2A 1_555 1_555
C1A C7A 1_555 1_555
C4A C9A 1_555 1_555
C5A C9A 1_555 1_555
C6A C8A 1_555 1_555
C14A C15A 1_555 1_555
C21A C22A 1_555 1_555

#END
