
#######################################################################
#
#                 Cambridge Crystallographic Data Centre
#                                CCDC 
#
#######################################################################
#
# If this CIF has been generated from an entry in the Cambridge 
# Structural Database, then it will include bibliographic, chemical, 
# crystal, experimental, refinement or atomic coordinate data resulting 
# from the CCDC's data processing and validation procedures.
#
#######################################################################

data_RAGDIP
_chemical_formula_moiety         'C42 H8 F20'
_chemical_name_systematic        
5,6,11,12-tetrakis(pentafluorophenyl)tetracene
_symmetry_cell_setting           triclinic
_symmetry_space_group_name_H-M   'P -1'
_symmetry_Int_Tables_number      2
_space_group_name_Hall           '-P 1'
loop_
_symmetry_equiv_pos_site_id
_symmetry_equiv_pos_as_xyz
1 x,y,z
2 -x,-y,-z
_cell_length_a                   7.9792(3)
_cell_length_b                   12.7930(5)
_cell_length_c                   16.7743(6)
_cell_angle_alpha                92.3130(18)
_cell_angle_beta                 95.3760(18)
_cell_angle_gamma                105.3060(18)
_cell_volume                     1640.5
_exptl_crystal_colour            red
_exptl_crystal_description       needle
_chemical_melting_point          '325-330 deg.C'
_cell_formula_units_Z            2
_chemical_properties_physical    
Air-sensitive,Oxygen-sensitive,Light-sensitive
_exptl_crystal_recrystallization_method dichloromethane
loop_
_atom_site_label
_atom_site_type_symbol
_atom_site_fract_x
_atom_site_fract_y
_atom_site_fract_z
F1 F 0.54549(16) -0.10937(10) 0.24089(6)
F2 F 0.5844(2) -0.29341(11) 0.30158(7)
F3 F 0.7264(2) -0.42728(12) 0.21667(10)
F4 F 0.8142(2) -0.37989(12) 0.06705(10)
F5 F 0.76273(19) -0.19867(12) 0.00387(8)
F6 F 0.19269(17) -0.10429(12) 0.14467(7)
F7 F 0.1033(2) -0.25304(16) 0.25243(8)
F8 F 0.1538(2) -0.45410(15) 0.22801(10)
F9 F 0.2910(3) -0.50407(11) 0.09498(10)
F10 F 0.38485(19) -0.35437(11) -0.01271(7)
C1 C 0.0734(3) -0.23383(17) -0.08238(11)
H1 H 0.0629 -0.2969 -0.0532
C2 C -0.0500(3) -0.23372(18) -0.14429(12)
H2 H -0.1431 -0.2971 -0.1592
C3 C 1.0389(3) 0.13886(18) 0.18629(11)
H3 H 1.1270 0.1385 0.2285
C4 C 0.9045(3) 0.04835(17) 0.16731(11)
H4 H 0.9007 -0.0145 0.1961
C5 C 0.6311(2) -0.04724(16) 0.08359(11)
C6 C 0.3423(2) -0.13772(16) 0.00566(10)
C7 C 0.2188(2) -0.14064(16) -0.06034(11)
C8 C 0.4924(2) -0.04804(16) 0.02308(10)
C9 C 0.7683(2) 0.04584(16) 0.10468(10)
C10 C 0.6496(2) -0.14908(16) 0.11970(11)
C11 C 0.6112(3) -0.17531(16) 0.19661(11)
C12 C 0.6335(3) -0.26862(17) 0.22919(12)
C13 C 0.7024(3) -0.33771(18) 0.18590(14)
C14 C 0.7465(3) -0.31319(18) 0.10951(14)
C15 C 0.7202(3) -0.22020(18) 0.07779(12)
C16 C 0.2948(2) -0.22416(16) 0.06304(11)
C17 C 0.2191(3) -0.20231(19) 0.13121(12)
C18 C 0.1718(3) -0.2784(2) 0.18701(13)
C19 C 0.1960(3) -0.3800(2) 0.17446(14)
C20 C 0.2657(3) -0.40585(19) 0.10676(14)
C21 C 0.3132(3) -0.32791(18) 0.05186(12)
F1A F 0.45451(16) 0.10937(10) -0.24089(6)
F2A F 0.4156(2) 0.29341(11) -0.30158(7)
F3A F 0.2736(2) 0.42728(12) -0.21667(10)
F4A F 0.1858(2) 0.37989(12) -0.06705(10)
F5A F 0.23727(19) 0.19867(12) -0.00387(8)
F6A F 0.80731(17) 0.10429(12) -0.14467(7)
F7A F 0.8967(2) 0.25304(16) -0.25243(8)
F8A F 0.8462(2) 0.45410(15) -0.22801(10)
F9A F 0.7090(3) 0.50407(11) -0.09498(10)
F10A F 0.61515(19) 0.35437(11) 0.01271(7)
C1A C 0.9266(3) 0.23383(17) 0.08238(11)
H1A H 0.9371 0.2969 0.0532
C2A C 1.0500(3) 0.23372(18) 0.14429(12)
H2A H 1.1431 0.2971 0.1592
C3A C -0.0389(3) -0.13886(18) -0.18629(11)
H3A H -0.1270 -0.1385 -0.2285
C4A C 0.0955(3) -0.04835(17) -0.16731(11)
H4A H 0.0993 0.0145 -0.1961
C5A C 0.3689(2) 0.04724(16) -0.08359(11)
C6A C 0.6577(2) 0.13772(16) -0.00566(10)
C7A C 0.7812(2) 0.14064(16) 0.06034(11)
C8A C 0.5076(2) 0.04804(16) -0.02308(10)
C9A C 0.2317(2) -0.04584(16) -0.10468(10)
C10A C 0.3504(2) 0.14908(16) -0.11970(11)
C11A C 0.3888(3) 0.17531(16) -0.19661(11)
C12A C 0.3665(3) 0.26862(17) -0.22919(12)
C13A C 0.2976(3) 0.33771(18) -0.18590(14)
C14A C 0.2535(3) 0.31319(18) -0.10951(14)
C15A C 0.2798(3) 0.22020(18) -0.07779(12)
C16A C 0.7052(2) 0.22416(16) -0.06304(11)
C17A C 0.7809(3) 0.20231(19) -0.13121(12)
C18A C 0.8282(3) 0.2784(2) -0.18701(13)
C19A C 0.8040(3) 0.3800(2) -0.17446(14)
C20A C 0.7343(3) 0.40585(19) -0.10676(14)
C21A C 0.6868(3) 0.32791(18) -0.05186(12)
F11 F 0.70519(15) 0.27805(10) 0.58125(6)
F12 F 0.82801(17) 0.48585(10) 0.54501(8)
F13 F 0.6767(2) 0.56092(10) 0.41617(8)
F14 F 0.39584(18) 0.42788(11) 0.32496(7)
F15 F 0.27082(15) 0.22100(10) 0.36128(6)
F16 F 0.92547(14) 0.26691(9) 0.43177(6)
F17 F 0.95603(17) 0.40233(10) 0.31296(7)
F18 F 0.71693(18) 0.35835(10) 0.18116(7)
F19 F 0.44620(16) 0.17613(11) 0.16957(6)
F20 F 0.40806(14) 0.04273(9) 0.29060(6)
C22 C 0.9030(2) 0.01545(16) 0.37386(11)
H5 H 0.9299 0.0797 0.3457
C23 C 1.0012(2) -0.05619(17) 0.36811(11)
H6 H 1.0978 -0.0404 0.3373
C24 C 0.0390(2) 0.15376(16) 0.59248(11)
H7 H -0.0299 0.2035 0.5975
C25 C 0.1748(2) 0.17686(15) 0.54764(11)
H8 H 0.2011 0.2434 0.5222
C26 C 0.4237(2) 0.12707(14) 0.49307(10)
C27 C 0.6521(2) 0.06630(14) 0.42612(10)
C28 C 0.7594(2) -0.00421(15) 0.42170(10)
C29 C 0.5197(2) 0.05002(14) 0.47920(10)
C30 C 0.2802(2) 0.10293(15) 0.53774(10)
C31 C 0.4874(2) 0.24147(14) 0.47097(10)
C32 C 0.6276(2) 0.31293(16) 0.51747(11)
C33 C 0.6925(3) 0.41977(16) 0.49957(12)
C34 C 0.6143(3) 0.45825(16) 0.43413(12)
C35 C 0.4715(3) 0.39057(17) 0.38808(11)
C36 C 0.4095(2) 0.28481(15) 0.40748(10)
C37 C 0.6675(2) 0.14919(15) 0.36478(10)
C38 C 0.8055(2) 0.24224(15) 0.36764(11)
C39 C 0.8233(3) 0.31299(16) 0.30674(11)
C40 C 0.7015(3) 0.29041(16) 0.23975(11)
C41 C 0.5640(3) 0.19808(17) 0.23428(10)
C42 C 0.5473(2) 0.12950(15) 0.29657(11)
F11A F 0.29481(15) -0.27805(10) 0.41875(6)
F12A F 0.17199(17) -0.48585(10) 0.45499(8)
F13A F 0.3233(2) -0.56092(10) 0.58383(8)
F14A F 0.60416(18) -0.42788(11) 0.67504(7)
F15A F 0.72918(15) -0.22100(10) 0.63872(6)
F16A F 0.07453(14) -0.26691(9) 0.56823(6)
F17A F 0.04397(17) -0.40233(10) 0.68704(7)
F18A F 0.28307(18) -0.35835(10) 0.81884(7)
F19A F 0.55380(16) -0.17613(11) 0.83043(6)
F20A F 0.59194(14) -0.04273(9) 0.70940(6)
C22A C 0.0970(2) -0.01545(16) 0.62614(11)
H5A H 0.0701 -0.0797 0.6543
C23A C -0.0012(2) 0.05619(17) 0.63189(11)
H6A H -0.0978 0.0404 0.6627
C24A C 0.9610(2) -0.15376(16) 0.40752(11)
H7A H 1.0299 -0.2035 0.4025
C25A C 0.8252(2) -0.17686(15) 0.45236(11)
H8A H 0.7989 -0.2434 0.4778
C26A C 0.5763(2) -0.12707(14) 0.50693(10)
C27A C 0.3479(2) -0.06630(14) 0.57388(10)
C28A C 0.2406(2) 0.00421(15) 0.57830(10)
C29A C 0.4803(2) -0.05002(14) 0.52080(10)
C30A C 0.7198(2) -0.10293(15) 0.46226(10)
C31A C 0.5126(2) -0.24147(14) 0.52903(10)
C32A C 0.3724(2) -0.31293(16) 0.48253(11)
C33A C 0.3075(3) -0.41977(16) 0.50043(12)
C34A C 0.3857(3) -0.45825(16) 0.56587(12)
C35A C 0.5285(3) -0.39057(17) 0.61192(11)
C36A C 0.5905(2) -0.28481(15) 0.59252(10)
C37A C 0.3325(2) -0.14919(15) 0.63522(10)
C38A C 0.1945(2) -0.24224(15) 0.63236(11)
C39A C 0.1767(3) -0.31299(16) 0.69326(11)
C40A C 0.2985(3) -0.29041(16) 0.76025(11)
C41A C 0.4360(3) -0.19808(17) 0.76572(10)
C42A C 0.4527(2) -0.12950(15) 0.70343(11)
loop_
_geom_bond_atom_site_label_1
_geom_bond_atom_site_label_2
_geom_bond_site_symmetry_1
_geom_bond_site_symmetry_2
F1 C11 1_555 1_555
F2 C12 1_555 1_555
F3 C13 1_555 1_555
F4 C14 1_555 1_555
F5 C15 1_555 1_555
F6 C17 1_555 1_555
F7 C18 1_555 1_555
F8 C19 1_555 1_555
F9 C20 1_555 1_555
F10 C21 1_555 1_555
C1 H1 1_555 1_555
C2 C1 1_555 1_555
H2 C2 1_555 1_555
C3 H3 1_555 1_555
C4 C3 1_555 1_555
H4 C4 1_555 1_555
C5 C8 1_555 1_555
C6 C7 1_555 1_555
C7 C1 1_555 1_555
C8 C6 1_555 1_555
C9 C4 1_555 1_555
C10 C5 1_555 1_555
C11 C10 1_555 1_555
C12 C11 1_555 1_555
C13 C12 1_555 1_555
C14 C13 1_555 1_555
C15 C10 1_555 1_555
C16 C6 1_555 1_555
C17 C16 1_555 1_555
C18 C17 1_555 1_555
C19 C18 1_555 1_555
C20 C19 1_555 1_555
C21 C16 1_555 1_555
F11 C32 1_555 1_555
F12 C33 1_555 1_555
F13 C34 1_555 1_555
F14 C35 1_555 1_555
F15 C36 1_555 1_555
F16 C38 1_555 1_555
F17 C39 1_555 1_555
F18 C40 1_555 1_555
F19 C41 1_555 1_555
F20 C42 1_555 1_555
C22 H5 1_555 1_555
C23 C22 1_555 1_555
H6 C23 1_555 1_555
C24 H7 1_555 1_555
C25 C24 1_555 1_555
H8 C25 1_555 1_555
C26 C29 1_555 1_555
C27 C28 1_555 1_555
C28 C22 1_555 1_555
C29 C27 1_555 1_555
C30 C25 1_555 1_555
C31 C26 1_555 1_555
C32 C31 1_555 1_555
C33 C32 1_555 1_555
C34 C33 1_555 1_555
C35 C34 1_555 1_555
C36 C31 1_555 1_555
C37 C27 1_555 1_555
C38 C37 1_555 1_555
C39 C38 1_555 1_555
C40 C39 1_555 1_555
C41 C40 1_555 1_555
C42 C37 1_555 1_555
F1A C11A 1_555 1_555
F2A C12A 1_555 1_555
F3A C13A 1_555 1_555
F4A C14A 1_555 1_555
F5A C15A 1_555 1_555
F6A C17A 1_555 1_555
F7A C18A 1_555 1_555
F8A C19A 1_555 1_555
F9A C20A 1_555 1_555
F10A C21A 1_555 1_555
C1A H1A 1_555 1_555
C2A C3 1_555 1_555
H2A C2A 1_555 1_555
C3A C2 1_555 1_555
H3A C3A 1_555 1_555
C4A C3A 1_555 1_555
H4A C4A 1_555 1_555
C5A C8A 1_555 1_555
C6A C7A 1_555 1_555
C7A C9 1_555 1_555
C8A C8 1_555 1_555
C9A C7 1_555 1_555
C10A C5A 1_555 1_555
C11A C10A 1_555 1_555
C12A C11A 1_555 1_555
C13A C12A 1_555 1_555
C14A C13A 1_555 1_555
C15A C10A 1_555 1_555
C16A C6A 1_555 1_555
C17A C16A 1_555 1_555
C18A C17A 1_555 1_555
C19A C18A 1_555 1_555
C20A C19A 1_555 1_555
C21A C16A 1_555 1_555
F11A C32A 1_555 1_555
F12A C33A 1_555 1_555
F13A C34A 1_555 1_555
F14A C35A 1_555 1_555
F15A C36A 1_555 1_555
F16A C38A 1_555 1_555
F17A C39A 1_555 1_555
F18A C40A 1_555 1_555
F19A C41A 1_555 1_555
F20A C42A 1_555 1_555
C22A H5A 1_555 1_555
C23A C24 1_555 1_555
H6A C23A 1_555 1_555
C24A C23 1_555 1_555
H7A C24A 1_555 1_555
C25A C24A 1_555 1_555
H8A C25A 1_555 1_555
C26A C29A 1_555 1_555
C27A C28A 1_555 1_555
C28A C30 1_555 1_555
C29A C29 1_555 1_555
C30A C28 1_555 1_555
C31A C26A 1_555 1_555
C32A C31A 1_555 1_555
C33A C32A 1_555 1_555
C34A C33A 1_555 1_555
C35A C34A 1_555 1_555
C36A C31A 1_555 1_555
C37A C27A 1_555 1_555
C38A C37A 1_555 1_555
C39A C38A 1_555 1_555
C40A C39A 1_555 1_555
C41A C40A 1_555 1_555
C42A C37A 1_555 1_555
C5 C9 1_555 1_555
C14 C15 1_555 1_555
C20 C21 1_555 1_555
C26 C30 1_555 1_555
C35 C36 1_555 1_555
C41 C42 1_555 1_555
C1A C2A 1_555 1_555
C1A C7A 1_555 1_555
C4A C9A 1_555 1_555
C5A C9A 1_555 1_555
C6A C8A 1_555 1_555
C14A C15A 1_555 1_555
C20A C21A 1_555 1_555
C22A C23A 1_555 1_555
C22A C28A 1_555 1_555
C25A C30A 1_555 1_555
C26A C30A 1_555 1_555
C27A C29A 1_555 1_555
C35A C36A 1_555 1_555
C41A C42A 1_555 1_555

#END
