
#######################################################################
#
#                 Cambridge Crystallographic Data Centre
#                                CCDC 
#
#######################################################################
#
# If this CIF has been generated from an entry in the Cambridge 
# Structural Database, then it will include bibliographic, chemical, 
# crystal, experimental, refinement or atomic coordinate data resulting 
# from the CCDC's data processing and validation procedures.
#
#######################################################################

data_RAGDAH
_chemical_formula_moiety         'C46 H22 F14'
_chemical_name_systematic        
5,12-bis(4-methylphenyl)-6,11-bis(2,3,5,6-tetrafluoro-4-(trifluoromethyl)phenyl)tetracene
_symmetry_cell_setting           monoclinic
_symmetry_space_group_name_H-M   'P 21/n'
_symmetry_Int_Tables_number      14
_space_group_name_Hall           '-P 2yn'
loop_
_symmetry_equiv_pos_site_id
_symmetry_equiv_pos_as_xyz
1 x,y,z
2 1/2-x,1/2+y,1/2-z
3 -x,-y,-z
4 1/2+x,1/2-y,1/2+z
_cell_length_a                   14.8556(4)
_cell_length_b                   9.1983(2)
_cell_length_c                   27.4515(7)
_cell_angle_alpha                90
_cell_angle_beta                 103.5280(9)
_cell_angle_gamma                90
_cell_volume                     3647.07
_exptl_crystal_colour            red
_exptl_crystal_description       block
_chemical_melting_point          '316-317 deg.C'
_cell_formula_units_Z            4
_chemical_properties_physical    
Air-sensitive,Oxygen-sensitive,Light-sensitive
_exptl_crystal_recrystallization_method 'dichloromethane / methanol'
loop_
_atom_site_label
_atom_site_type_symbol
_atom_site_fract_x
_atom_site_fract_y
_atom_site_fract_z
F1 F 0.47430(6) 0.14057(9) 0.31380(3)
F2 F 0.47343(6) 0.04626(9) 0.40547(3)
F3 F 0.41471(6) 0.52578(9) 0.45256(3)
F4 F 0.42676(6) 0.61863(9) 0.36389(3)
F5 F 0.37447(7) 0.11461(11) 0.47679(3)
F6 F 0.51981(6) 0.15904(11) 0.50516(3)
F7 F 0.41832(6) 0.31644(10) 0.51381(3)
F8 F 0.53423(6) 0.52055(10) 0.13209(3)
F9 F 0.51632(6) 0.60263(11) 0.03876(3)
F10 F 0.25786(6) 0.89016(9) 0.05001(3)
F11 F 0.27344(5) 0.79950(9) 0.14318(3)
F12 F 0.28027(7) 0.77838(13) -0.03798(3)
F13 F 0.41978(8) 0.72810(12) -0.03902(3)
F14 F 0.38562(8) 0.93923(11) -0.01488(4)
C1 C 0.26965(10) 0.45970(16) 0.16224(5)
H1 H 0.2617 0.5019 0.1299
C2 C 0.20386(10) 0.36895(16) 0.17137(6)
H2 H 0.1498 0.3502 0.1458
C3 C 0.21536(10) 0.30149(16) 0.21912(6)
H3 H 0.1686 0.2386 0.2254
C4 C 0.29237(10) 0.32624(16) 0.25563(5)
H4 H 0.2989 0.2796 0.2871
C5 C 0.44650(9) 0.44409(15) 0.28437(5)
C6 C 0.60698(9) 0.54927(15) 0.30805(5)
C7 C 0.76045(10) 0.66996(16) 0.33121(5)
H5 H 0.7834 0.5950 0.3546
C8 C 0.81630(10) 0.78346(16) 0.32676(5)
H6 H 0.8779 0.7863 0.3466
C9 C 0.78319(10) 0.89809(16) 0.29257(5)
H7 H 0.8219 0.9792 0.2908
C10 C 0.69674(10) 0.89266(16) 0.26236(5)
H8 H 0.6755 0.9705 0.2399
C11 C 0.55162(9) 0.75598(15) 0.22932(5)
C12 C 0.41545(9) 0.59802(15) 0.19320(5)
C13 C 0.35127(9) 0.49382(15) 0.20019(5)
C14 C 0.36455(9) 0.42131(15) 0.24796(5)
C15 C 0.49466(9) 0.63297(15) 0.23188(5)
C16 C 0.51689(9) 0.53998(15) 0.27569(5)
C17 C 0.63694(9) 0.77101(15) 0.26389(5)
C18 C 0.66739(9) 0.66075(15) 0.30131(5)
C19 C 0.45087(9) 0.38347(15) 0.33556(5)
C20 C 0.46162(9) 0.23719(15) 0.34802(5)
C21 C 0.45989(10) 0.18817(15) 0.39527(5)
C22 C 0.44330(9) 0.28141(16) 0.43225(5)
C23 C 0.43143(9) 0.42745(16) 0.41996(5)
C24 C 0.43619(9) 0.47535(15) 0.37297(5)
C25 C 0.43920(10) 0.21883(17) 0.48239(5)
C26 C 0.64178(9) 0.43620(15) 0.34697(5)
C27 C 0.66415(10) 0.29812(16) 0.33294(6)
H9 H 0.6561 0.2754 0.2984
C28 C 0.69817(11) 0.19296(17) 0.36887(6)
H10 H 0.7134 0.0994 0.3585
C29 C 0.71031(10) 0.22244(17) 0.41981(6)
C30 C 0.68898(10) 0.36132(18) 0.43362(5)
H11 H 0.6971 0.3840 0.4681
C31 C 0.65614(10) 0.46728(16) 0.39802(5)
H12 H 0.6433 0.5620 0.4084
C32 C 0.74494(13) 0.1065(2) 0.45856(7)
H13 H 0.7658 0.0221 0.4424
H14 H 0.6948 0.0772 0.4742
H15 H 0.7967 0.1450 0.4843
C33 C 0.51671(9) 0.87698(15) 0.19351(5)
C34 C 0.55177(9) 0.90560(15) 0.15158(5)
H16 H 0.6028 0.8511 0.1461
C35 C 0.51246(10) 1.01312(16) 0.11793(5)
H17 H 0.5358 1.0290 0.0890
C36 C 0.43945(10) 1.09862(16) 0.12559(5)
C37 C 0.40851(10) 1.07553(16) 0.16908(6)
H18 H 0.3610 1.1355 0.1760
C38 C 0.44619(10) 0.96595(16) 0.20249(5)
H19 H 0.4237 0.9514 0.2318
C39 C 0.39430(12) 1.21098(18) 0.08756(6)
H20 H 0.4208 1.2051 0.0581
H21 H 0.4053 1.3082 0.1024
H22 H 0.3275 1.1926 0.0775
C40 C 0.40456(9) 0.65625(15) 0.14122(5)
C41 C 0.46342(9) 0.60912(15) 0.11204(5)
C42 C 0.45407(10) 0.65182(16) 0.06294(5)
C43 C 0.38340(9) 0.74494(16) 0.04012(5)
C44 C 0.32513(9) 0.79500(15) 0.06939(5)
C45 C 0.33447(9) 0.74987(15) 0.11800(5)
C46 C 0.36814(11) 0.79734(17) -0.01309(6)
H23? H 0.7390 0.1408 0.4915
H24? H 0.8101 0.0856 0.4598
H25? H 0.7082 0.0179 0.4496
H26? H 0.3483 1.2655 0.1006
H27? H 0.3638 1.1624 0.0563
H28? H 0.4415 1.2780 0.0812
loop_
_geom_bond_atom_site_label_1
_geom_bond_atom_site_label_2
_geom_bond_site_symmetry_1
_geom_bond_site_symmetry_2
F1 C20 1_555 1_555
F2 C21 1_555 1_555
F3 C23 1_555 1_555
F4 C24 1_555 1_555
F5 C25 1_555 1_555
F6 C25 1_555 1_555
F7 C25 1_555 1_555
F8 C41 1_555 1_555
F9 C42 1_555 1_555
F10 C44 1_555 1_555
F11 C45 1_555 1_555
F12 C46 1_555 1_555
F13 C46 1_555 1_555
F14 C46 1_555 1_555
C1 H1 1_555 1_555
C2 C1 1_555 1_555
H2 C2 1_555 1_555
C3 C2 1_555 1_555
H3 C3 1_555 1_555
C4 C3 1_555 1_555
H4 C4 1_555 1_555
C5 C14 1_555 1_555
C6 C16 1_555 1_555
C7 H5 1_555 1_555
C8 C7 1_555 1_555
H6 C8 1_555 1_555
C9 C8 1_555 1_555
H7 C9 1_555 1_555
C10 C9 1_555 1_555
H8 C10 1_555 1_555
C11 C15 1_555 1_555
C12 C13 1_555 1_555
C13 C1 1_555 1_555
C14 C4 1_555 1_555
C15 C12 1_555 1_555
C16 C5 1_555 1_555
C17 C10 1_555 1_555
C18 C6 1_555 1_555
C19 C5 1_555 1_555
C20 C19 1_555 1_555
C21 C20 1_555 1_555
C22 C21 1_555 1_555
C23 C22 1_555 1_555
C24 C19 1_555 1_555
C25 C22 1_555 1_555
C26 C6 1_555 1_555
C27 C26 1_555 1_555
H9 C27 1_555 1_555
C28 C27 1_555 1_555
H10 C28 1_555 1_555
C29 C28 1_555 1_555
C30 C29 1_555 1_555
H11 C30 1_555 1_555
C31 C26 1_555 1_555
H12 C31 1_555 1_555
C32 C29 1_555 1_555
H13 C32 1_555 1_555
H14 C32 1_555 1_555
H15 C32 1_555 1_555
C33 C11 1_555 1_555
C34 C33 1_555 1_555
H16 C34 1_555 1_555
C35 C34 1_555 1_555
H17 C35 1_555 1_555
C36 C35 1_555 1_555
C37 C36 1_555 1_555
H18 C37 1_555 1_555
C38 C33 1_555 1_555
H19 C38 1_555 1_555
C39 C36 1_555 1_555
H20 C39 1_555 1_555
H21 C39 1_555 1_555
H22 C39 1_555 1_555
C40 C12 1_555 1_555
C41 C40 1_555 1_555
C42 C41 1_555 1_555
C43 C42 1_555 1_555
C44 C43 1_555 1_555
C45 C40 1_555 1_555
C46 C43 1_555 1_555
C7 C18 1_555 1_555
C11 C17 1_555 1_555
C13 C14 1_555 1_555
C15 C16 1_555 1_555
C17 C18 1_555 1_555
C23 C24 1_555 1_555
C30 C31 1_555 1_555
C37 C38 1_555 1_555
C44 C45 1_555 1_555

#END
