
#######################################################################
#
#                 Cambridge Crystallographic Data Centre
#                                CCDC 
#
#######################################################################
#
# If this CIF has been generated from an entry in the Cambridge 
# Structural Database, then it will include bibliographic, chemical, 
# crystal, experimental, refinement or atomic coordinate data resulting 
# from the CCDC's data processing and validation procedures.
#
#######################################################################

data_RAGDEL
_chemical_formula_moiety         'C42 H18 F10'
_chemical_name_systematic        
5,12-bis(pentafluorophenyl)-6,11-diphenyltetracene
_symmetry_cell_setting           triclinic
_symmetry_space_group_name_H-M   'P -1'
_symmetry_Int_Tables_number      2
_space_group_name_Hall           '-P 1'
loop_
_symmetry_equiv_pos_site_id
_symmetry_equiv_pos_as_xyz
1 x,y,z
2 -x,-y,-z
_cell_length_a                   7.3564(5)
_cell_length_b                   14.7042(11)
_cell_length_c                   15.7118(10)
_cell_angle_alpha                65.973(4)
_cell_angle_beta                 88.823(4)
_cell_angle_gamma                89.903(4)
_cell_volume                     1551.92
_exptl_crystal_colour            red
_exptl_crystal_description       block
_chemical_melting_point          '333-334 deg.C'
_cell_formula_units_Z            2
_chemical_properties_physical    
Air-sensitive,Oxygen-sensitive,Light-sensitive
_exptl_crystal_recrystallization_method 'dichloromethane / methanol'
loop_
_atom_site_label
_atom_site_type_symbol
_atom_site_fract_x
_atom_site_fract_y
_atom_site_fract_z
F1 F 0.61391(18) 0.14290(12) 0.68210(9)
F2 F 0.6893(2) 0.02679(16) 0.85938(11)
F3 F 0.4285(3) -0.09499(15) 0.97484(10)
F4 F 0.0920(3) -0.10008(15) 0.90855(11)
F5 F 0.0160(2) 0.01507(13) 0.73103(10)
F6 F -0.10283(18) 0.30218(13) 0.31423(10)
F7 F -0.1653(3) 0.34709(18) 0.13380(13)
F8 F 0.1057(3) 0.32970(17) 0.02094(11)
F9 F 0.4374(3) 0.26368(15) 0.09138(10)
F10 F 0.50102(19) 0.21963(12) 0.27076(9)
C1 C 0.1971(3) 0.05174(19) 0.40636(15)
H1 H 0.1591 0.0784 0.3435
C2 C 0.2164(3) -0.0480(2) 0.45226(17)
H2 H 0.1890 -0.0906 0.4221
C3 C 0.2778(3) -0.08910(19) 0.54560(17)
H3 H 0.3015 -0.1584 0.5757
C4 C 0.3027(3) -0.03022(18) 0.59189(15)
H4 H 0.3416 -0.0592 0.6546
C5 C 0.2776(3) 0.13603(17) 0.59720(14)
C6 C 0.2369(3) 0.30420(18) 0.59927(14)
C7 C 0.2121(3) 0.4735(2) 0.59630(16)
H5 H 0.1865 0.4460 0.6615
C8 C 0.2237(3) 0.5737(2) 0.54924(18)
H6 H 0.2042 0.6156 0.5812
C9 C 0.2649(3) 0.6159(2) 0.45246(19)
H7 H 0.2793 0.6860 0.4205
C10 C 0.2839(3) 0.55785(19) 0.40501(17)
H8 H 0.3101 0.5880 0.3399
C11 C 0.2712(3) 0.39127(18) 0.40106(14)
C12 C 0.2323(3) 0.22167(18) 0.40217(14)
C13 C 0.2326(3) 0.11822(18) 0.45051(15)
C14 C 0.2718(3) 0.07477(18) 0.54853(15)
C15 C 0.2541(3) 0.28587(17) 0.44869(14)
C16 C 0.2556(3) 0.24132(18) 0.55102(15)
C17 C 0.2654(3) 0.45136(18) 0.45061(15)
C18 C 0.2374(3) 0.40812(18) 0.55017(15)
C19 C 0.3131(3) 0.08239(17) 0.69935(14)
C20 C 0.4832(3) 0.08242(19) 0.73585(15)
C21 C 0.5233(3) 0.0230(2) 0.82730(17)
C22 C 0.3918(4) -0.0380(2) 0.88569(16)
C23 C 0.2211(4) -0.0402(2) 0.85233(16)
C24 C 0.1841(3) 0.0196(2) 0.76083(15)
C25 C 0.2080(3) 0.26540(18) 0.70286(14)
C26 C 0.3456(3) 0.27331(19) 0.75928(16)
H9 H 0.4603 0.3006 0.7321
C27 C 0.3169(4) 0.2419(2) 0.85449(17)
H10 H 0.4117 0.2477 0.8921
C28 C 0.1512(5) 0.2022(2) 0.89454(18)
H11 H 0.1326 0.1792 0.9600
C29 C 0.0121(4) 0.1959(2) 0.83947(19)
H12 H -0.1031 0.1700 0.8670
C30 C 0.0401(3) 0.2274(2) 0.74382(17)
H13 H -0.0561 0.2229 0.7063
C31 C 0.3049(3) 0.44302(18) 0.29790(14)
C32 C 0.1704(4) 0.5007(2) 0.23921(17)
H14 H 0.0531 0.5038 0.2643
C33 C 0.2060(5) 0.5536(2) 0.14499(19)
H15 H 0.1128 0.5919 0.1057
C34 C 0.3759(5) 0.5508(2) 0.10805(19)
H16 H 0.3998 0.5871 0.0432
C35 C 0.5112(4) 0.4957(2) 0.16472(19)
H17 H 0.6290 0.4947 0.1392
C36 C 0.4759(3) 0.4414(2) 0.25954(17)
H18 H 0.5697 0.4029 0.2983
C37 C 0.2012(3) 0.25818(18) 0.29919(14)
C38 C 0.0328(3) 0.2906(2) 0.26114(16)
C39 C -0.0015(4) 0.3142(2) 0.16844(18)
C40 C 0.1354(4) 0.3053(2) 0.11095(17)
C41 C 0.3038(4) 0.2728(2) 0.14660(16)
C42 C 0.3341(3) 0.25002(19) 0.23920(15)
loop_
_geom_bond_atom_site_label_1
_geom_bond_atom_site_label_2
_geom_bond_site_symmetry_1
_geom_bond_site_symmetry_2
F1 C20 1_555 1_555
F2 C21 1_555 1_555
F3 C22 1_555 1_555
F4 C23 1_555 1_555
F5 C24 1_555 1_555
F6 C38 1_555 1_555
F7 C39 1_555 1_555
F8 C40 1_555 1_555
F9 C41 1_555 1_555
F10 C42 1_555 1_555
C1 H1 1_555 1_555
C2 C1 1_555 1_555
H2 C2 1_555 1_555
C3 C2 1_555 1_555
H3 C3 1_555 1_555
C4 C3 1_555 1_555
H4 C4 1_555 1_555
C5 C14 1_555 1_555
C6 C16 1_555 1_555
C7 H5 1_555 1_555
C8 C7 1_555 1_555
H6 C8 1_555 1_555
C9 C8 1_555 1_555
H7 C9 1_555 1_555
C10 C9 1_555 1_555
H8 C10 1_555 1_555
C11 C15 1_555 1_555
C12 C13 1_555 1_555
C13 C1 1_555 1_555
C14 C4 1_555 1_555
C15 C12 1_555 1_555
C16 C5 1_555 1_555
C17 C10 1_555 1_555
C18 C6 1_555 1_555
C19 C5 1_555 1_555
C20 C19 1_555 1_555
C21 C20 1_555 1_555
C22 C21 1_555 1_555
C23 C22 1_555 1_555
C24 C19 1_555 1_555
C25 C6 1_555 1_555
C26 C25 1_555 1_555
H9 C26 1_555 1_555
C27 C26 1_555 1_555
H10 C27 1_555 1_555
C28 C27 1_555 1_555
H11 C28 1_555 1_555
C29 C28 1_555 1_555
H12 C29 1_555 1_555
C30 C25 1_555 1_555
H13 C30 1_555 1_555
C31 C11 1_555 1_555
C32 C31 1_555 1_555
H14 C32 1_555 1_555
C33 C32 1_555 1_555
H15 C33 1_555 1_555
C34 C33 1_555 1_555
H16 C34 1_555 1_555
C35 C34 1_555 1_555
H17 C35 1_555 1_555
C36 C31 1_555 1_555
H18 C36 1_555 1_555
C37 C12 1_555 1_555
C38 C37 1_555 1_555
C39 C38 1_555 1_555
C40 C39 1_555 1_555
C41 C40 1_555 1_555
C42 C37 1_555 1_555
C7 C18 1_555 1_555
C11 C17 1_555 1_555
C13 C14 1_555 1_555
C15 C16 1_555 1_555
C17 C18 1_555 1_555
C23 C24 1_555 1_555
C29 C30 1_555 1_555
C35 C36 1_555 1_555
C41 C42 1_555 1_555

#END
