
#######################################################################
#
#                 Cambridge Crystallographic Data Centre
#                                CCDC 
#
#######################################################################
#
# If this CIF has been generated from an entry in the Cambridge 
# Structural Database, then it will include bibliographic, chemical, 
# crystal, experimental, refinement or atomic coordinate data resulting 
# from the CCDC's data processing and validation procedures.
#
#######################################################################

data_RAGKUG
_chemical_formula_moiety         'C8 H8 Cl4 N2 O4'
_chemical_name_systematic        
'Dimethyl 1,2-bis((E)-1,2-dichloroethenyl)hydrazine-1,2-dicarboxylate'
_symmetry_cell_setting           monoclinic
_symmetry_space_group_name_H-M   'P 21/n'
_symmetry_Int_Tables_number      14
_space_group_name_Hall           '-P 2yn'
loop_
_symmetry_equiv_pos_site_id
_symmetry_equiv_pos_as_xyz
1 x,y,z
2 1/2+x,1/2-y,1/2+z
3 -x,-y,-z
4 1/2-x,1/2+y,1/2-z
_cell_length_a                   7.7520(2)
_cell_length_b                   13.1318(3)
_cell_length_c                   13.6012(3)
_cell_angle_alpha                90
_cell_angle_beta                 104.241(1)
_cell_angle_gamma                90
_cell_volume                     1342.02
_exptl_crystal_colour            colorless
_cell_formula_units_Z            4
_exptl_crystal_recrystallization_method toluene
loop_
_atom_site_label
_atom_site_type_symbol
_atom_site_fract_x
_atom_site_fract_y
_atom_site_fract_z
N1 N 0.17799(15) 0.58257(8) 0.28563(9)
C1 C 0.35036(17) 0.60669(10) 0.33948(10)
O1 O 0.39921(14) 0.69163(8) 0.36524(8)
O2 O 0.44635(13) 0.52207(7) 0.35690(8)
C2 C 0.6296(2) 0.53504(13) 0.41332(13)
H1 H 0.6893 0.4687 0.4224
H2 H 0.6326 0.5647 0.4798
H3 H 0.6908 0.5805 0.3758
N2 N 0.05019(15) 0.65892(8) 0.27004(8)
C3 C 0.00651(17) 0.70168(10) 0.35463(10)
O3 O 0.05857(14) 0.66861(8) 0.43909(7)
O4 O -0.09842(14) 0.78168(8) 0.32566(8)
C4 C -0.1710(2) 0.82759(13) 0.40313(13)
H4 H -0.2460 0.8857 0.3744
H5 H -0.0736 0.8510 0.4590
H6 H -0.2427 0.7773 0.4286
C5 C -0.00614(19) 0.69730(10) 0.17062(10)
Cl1 Cl 0.15691(6) 0.75645(3) 0.12361(3)
C6 C -0.1706(2) 0.69074(12) 0.11337(11)
H7 H -0.1978 0.7206 0.0477
Cl2 Cl -0.33561(5) 0.63015(4) 0.15400(3)
C7 C 0.11646(18) 0.48271(10) 0.26122(11)
Cl3 Cl 0.00401(5) 0.42604(3) 0.34268(3)
C8 C 0.1427(2) 0.43033(11) 0.18319(12)
H8 H 0.0977 0.3629 0.1726
Cl4 Cl 0.25535(7) 0.48038(3) 0.10045(3)
loop_
_geom_bond_atom_site_label_1
_geom_bond_atom_site_label_2
_geom_bond_site_symmetry_1
_geom_bond_site_symmetry_2
N1 C1 1_555 1_555
C1 O1 1_555 1_555
O2 C1 1_555 1_555
C2 O2 1_555 1_555
H1 C2 1_555 1_555
H2 C2 1_555 1_555
H3 C2 1_555 1_555
N2 N1 1_555 1_555
C3 N2 1_555 1_555
O3 C3 1_555 1_555
O4 C3 1_555 1_555
C4 O4 1_555 1_555
H4 C4 1_555 1_555
H5 C4 1_555 1_555
H6 C4 1_555 1_555
C5 N2 1_555 1_555
Cl1 C5 1_555 1_555
C6 C5 1_555 1_555
H7 C6 1_555 1_555
Cl2 C6 1_555 1_555
C7 N1 1_555 1_555
Cl3 C7 1_555 1_555
C8 C7 1_555 1_555
H8 C8 1_555 1_555
Cl4 C8 1_555 1_555

#END
