
#######################################################################
#
#                 Cambridge Crystallographic Data Centre
#                                CCDC 
#
#######################################################################
#
# If this CIF has been generated from an entry in the Cambridge 
# Structural Database, then it will include bibliographic, chemical, 
# crystal, experimental, refinement or atomic coordinate data resulting 
# from the CCDC's data processing and validation procedures.
#
#######################################################################

data_RAGPAT
_chemical_formula_moiety         'C32 H28 Br2 N4 O4 S1'
_chemical_name_systematic        
"diethyl 4',6-bis(4-bromophenyl)-4,6'-dimethyl-2-(thiophen-2-yl)-6H-[1,2'-bipyrimidine]-5,5'-dicarboxylate"
_symmetry_cell_setting           monoclinic
_symmetry_space_group_name_H-M   'P 21/c'
_symmetry_Int_Tables_number      14
_space_group_name_Hall           '-P 2ybc'
loop_
_symmetry_equiv_pos_site_id
_symmetry_equiv_pos_as_xyz
1 x,y,z
2 -x,1/2+y,1/2-z
3 -x,-y,-z
4 x,1/2-y,1/2+z
_cell_length_a                   11.7838(6)
_cell_length_b                   13.6793(10)
_cell_length_c                   19.7415(12)
_cell_angle_alpha                90
_cell_angle_beta                 89.085(5)
_cell_angle_gamma                90
_cell_volume                     3181.81
_exptl_crystal_colour            colorless
_exptl_crystal_description       block
_chemical_melting_point          '193-194 deg.C'
_cell_formula_units_Z            4
loop_
_atom_site_label
_atom_site_type_symbol
_atom_site_fract_x
_atom_site_fract_y
_atom_site_fract_z
Br1 Br 0.25603(7) 0.17227(9) 0.21629(4)
Br2 Br 1.38965(7) 0.58567(8) 0.30459(6)
O1 O 0.6601(6) 0.0510(4) 0.5447(3)
O2 O 0.5710(5) 0.1951(4) 0.5492(3)
O3 O 0.8737(5) 0.7410(4) 0.4259(2)
O4 O 0.8916(5) 0.6759(4) 0.5297(2)
N1 N 0.7222(4) 0.3065(3) 0.3854(2)
N2 N 0.8653(4) 0.4213(3) 0.3895(2)
N3 N 0.6840(4) 0.4529(4) 0.4399(2)
C1 C 0.6322(4) 0.2548(4) 0.4228(3)
H1 H 0.6040 0.2973 0.4594
C2 C 0.6863(5) 0.1647(4) 0.4543(3)
C3 C 0.7716(5) 0.1232(5) 0.4191(4)
N4 N 0.8060(4) 0.1569(4) 0.3553(3)
C4 C 0.7863(4) 0.2490(4) 0.3414(3)
C5 C 0.7590(4) 0.3991(4) 0.4059(2)
C6 C 0.9013(4) 0.5117(4) 0.4073(2)
C7 C 0.8305(5) 0.5727(4) 0.4439(2)
C8 C 0.7214(5) 0.5414(4) 0.4600(3)
C9 C 0.5347(4) 0.2330(4) 0.3755(3)
C10 C 0.4917(5) 0.3084(5) 0.3366(3)
H2 H 0.5198 0.3714 0.3416
C11 C 0.4071(5) 0.2903(5) 0.2905(3)
H3 H 0.3778 0.3409 0.2646
C12 C 0.3669(5) 0.1971(6) 0.2834(3)
C13 C 0.4033(5) 0.1224(6) 0.3233(4)
H4 H 0.3718 0.0603 0.3197
C14 C 0.4878(5) 0.1410(5) 0.3693(4)
H5 H 0.5137 0.0905 0.3965
C15 C 0.6390(6) 0.1309(6) 0.5195(3)
C16 C 0.5111(8) 0.1650(7) 0.6118(4)
H6 H 0.5555 0.1162 0.6351
H7 H 0.5018 0.2209 0.6415
C17 C 0.4003(8) 0.1249(7) 0.5959(4)
H8 H 0.4087 0.0762 0.5612
H9 H 0.3519 0.1763 0.5802
H10 H 0.3672 0.0958 0.6358
C18 C 0.8404(6) 0.0346(6) 0.4402(5)
H11 H 0.7999 -0.0240 0.4289
H12 H 0.8522 0.0366 0.4881
H13 H 0.9124 0.0351 0.4167
C19 C 0.8254(5) 0.2901(5) 0.2769(3)
C20 C 0.9281(8) 0.3267(7) 0.1740(4)
C21 C 0.8397(8) 0.3902(7) 0.1788(4)
C22 C 0.6360(6) 0.6008(5) 0.4998(4)
H14 H 0.6143 0.6569 0.4738
H15 H 0.6690 0.6219 0.5415
H16 H 0.5702 0.5615 0.5095
C23 C 0.8664(5) 0.6742(5) 0.4635(3)
C24 C 0.9350(10) 0.7667(8) 0.5572(6)
H17 H 0.9869 0.7526 0.5936
H18 H 0.9763 0.8022 0.5222
C25 C 1.0201(4) 0.5327(4) 0.3844(3)
C26 C 1.0947(5) 0.5892(5) 0.4220(3)
H19 H 1.0706 0.6174 0.4626
C27 C 1.2054(5) 0.6034(5) 0.3984(4)
H20 H 1.2559 0.6399 0.4238
C28 C 1.2403(5) 0.5636(5) 0.3376(4)
C29 C 1.1679(5) 0.5087(5) 0.2999(4)
H21 H 1.1923 0.4820 0.2588
C30 C 1.0580(5) 0.4931(5) 0.3231(3)
H22 H 1.0087 0.4556 0.2975
S1 S 0.9383(2) 0.2499(2) 0.23435(14)
C31 C 0.7637(3) 0.3755(3) 0.24053(17)
C32 C 0.8454(18) 0.8235(15) 0.5817(12)
H23 H 0.7993 0.8439 0.5447
H24 H 0.8747 0.8799 0.6044
H25 H 0.8002 0.7857 0.6131
H26? H 1.0166 0.7606 0.5617
H27? H 0.9211 0.8186 0.5250
C33? C 0.9383(2) 0.2499(2) 0.23435(14)
S2? S 0.7637(3) 0.3755(3) 0.24053(17)
C34? C 0.893(2) 0.792(2) 0.6145(13)
H28? H 0.8119 0.7971 0.6113
H29? H 0.9236 0.8540 0.6276
H30? H 0.9114 0.7437 0.6479
loop_
_geom_bond_atom_site_label_1
_geom_bond_atom_site_label_2
_geom_bond_site_symmetry_1
_geom_bond_site_symmetry_2
Br1 C12 1_555 1_555
Br2 C28 1_555 1_555
O1 C15 1_555 1_555
O2 C15 1_555 1_555
O3 C23 1_555 1_555
O4 C23 1_555 1_555
N1 C1 1_555 1_555
N2 C5 1_555 1_555
N3 C5 1_555 1_555
C1 H1 1_555 1_555
C2 C1 1_555 1_555
C3 C2 1_555 1_555
N4 C3 1_555 1_555
C4 N1 1_555 1_555
C5 N1 1_555 1_555
C6 N2 1_555 1_555
C7 C6 1_555 1_555
C8 N3 1_555 1_555
C9 C1 1_555 1_555
C10 C9 1_555 1_555
H2 C10 1_555 1_555
C11 C10 1_555 1_555
H3 C11 1_555 1_555
C12 C11 1_555 1_555
C13 C12 1_555 1_555
H4 C13 1_555 1_555
C14 C9 1_555 1_555
H5 C14 1_555 1_555
C15 C2 1_555 1_555
C16 O2 1_555 1_555
H6 C16 1_555 1_555
H7 C16 1_555 1_555
C17 C16 1_555 1_555
H8 C17 1_555 1_555
H9 C17 1_555 1_555
H10 C17 1_555 1_555
C18 C3 1_555 1_555
H11 C18 1_555 1_555
H12 C18 1_555 1_555
H13 C18 1_555 1_555
C19 C4 1_555 1_555
C20 C21 1_555 1_555
C21 C31 1_555 1_555
C22 C8 1_555 1_555
H14 C22 1_555 1_555
H15 C22 1_555 1_555
H16 C22 1_555 1_555
C23 C7 1_555 1_555
C24 O4 1_555 1_555
H17 C24 1_555 1_555
H18 C24 1_555 1_555
C25 C6 1_555 1_555
C26 C25 1_555 1_555
H19 C26 1_555 1_555
C27 C26 1_555 1_555
H20 C27 1_555 1_555
C28 C27 1_555 1_555
C29 C28 1_555 1_555
H21 C29 1_555 1_555
C30 C25 1_555 1_555
H22 C30 1_555 1_555
S1 C19 1_555 1_555
C31 C19 1_555 1_555
C32 C24 1_555 1_555
H23 C32 1_555 1_555
H24 C32 1_555 1_555
H25 C32 1_555 1_555
N4 C4 1_555 1_555
C7 C8 1_555 1_555
C13 C14 1_555 1_555
C20 S1 1_555 1_555
C29 C30 1_555 1_555

#END
