
#######################################################################
#
#                 Cambridge Crystallographic Data Centre
#                                CCDC 
#
#######################################################################
#
# If this CIF has been generated from an entry in the Cambridge 
# Structural Database, then it will include bibliographic, chemical, 
# crystal, experimental, refinement or atomic coordinate data resulting 
# from the CCDC's data processing and validation procedures.
#
#######################################################################

data_RAGQEY
_chemical_formula_moiety         'C9 H6 Cl1 F1 N2'
_chemical_name_systematic        2-chloro-6-fluoroquinolin-7-amine
_symmetry_cell_setting           orthorhombic
_symmetry_space_group_name_H-M   'P 21 21 21'
_symmetry_Int_Tables_number      19
_space_group_name_Hall           'P 2ac 2ab'
loop_
_symmetry_equiv_pos_site_id
_symmetry_equiv_pos_as_xyz
1 x,y,z
2 1/2+x,1/2-y,-z
3 -x,1/2+y,1/2-z
4 1/2-x,-y,1/2+z
_cell_length_a                   3.9807(3)
_cell_length_b                   11.5347(12)
_cell_length_c                   18.1287(18)
_cell_angle_alpha                90
_cell_angle_beta                 90
_cell_angle_gamma                90
_cell_volume                     832.401
_exptl_crystal_colour            colorless
_exptl_crystal_description       needle
_chemical_melting_point          '467 K'
_cell_formula_units_Z            4
loop_
_atom_site_label
_atom_site_type_symbol
_atom_site_fract_x
_atom_site_fract_y
_atom_site_fract_z
Cl1 Cl -0.51046(19) 0.16471(5) 0.25285(4)
F1 F 0.4214(5) -0.11749(12) -0.08856(8)
N1 N 0.2091(7) 0.09904(18) -0.12038(12)
H1 H 0.371(6) 0.067(2) -0.1434(17)
H2 H 0.200(9) 0.1723(9) -0.1242(18)
N2 N -0.2504(5) 0.12894(15) 0.12375(10)
C1 C -0.2268(7) -0.0346(2) 0.20637(13)
H3 H -0.2826 -0.0647 0.2524
C2 C -0.0611(6) -0.09941(19) 0.15551(12)
H4 H 0.0014 -0.1751 0.1666
C3 C 0.0160(6) -0.05191(16) 0.08601(12)
C4 C 0.1900(6) -0.11283(18) 0.03024(13)
H5 H 0.2631 -0.1883 0.0384
C5 C 0.2489(7) -0.06049(18) -0.03474(12)
C6 C 0.1471(6) 0.05395(18) -0.05171(12)
C7 C -0.0858(6) 0.06367(17) 0.07151(11)
C8 C -0.3105(6) 0.07945(19) 0.18676(12)
C9 C -0.0215(6) 0.11407(16) 0.00240(12)
H6 H -0.0940 0.1893 -0.0069
loop_
_geom_bond_atom_site_label_1
_geom_bond_atom_site_label_2
_geom_bond_site_symmetry_1
_geom_bond_site_symmetry_2
Cl1 C8 1_555 1_555
F1 C5 1_555 1_555
N1 H1 1_555 1_555
H2 N1 1_555 1_555
N2 C7 1_555 1_555
C1 H3 1_555 1_555
C2 C1 1_555 1_555
H4 C2 1_555 1_555
C3 C2 1_555 1_555
C4 C3 1_555 1_555
H5 C4 1_555 1_555
C5 C4 1_555 1_555
C6 N1 1_555 1_555
C7 C3 1_555 1_555
C8 N2 1_555 1_555
C9 C6 1_555 1_555
H6 C9 1_555 1_555
C1 C8 1_555 1_555
C5 C6 1_555 1_555
C7 C9 1_555 1_555

#END
