
#######################################################################
#
#                 Cambridge Crystallographic Data Centre
#                                CCDC 
#
#######################################################################
#
# If this CIF has been generated from an entry in the Cambridge 
# Structural Database, then it will include bibliographic, chemical, 
# crystal, experimental, refinement or atomic coordinate data resulting 
# from the CCDC's data processing and validation procedures.
#
#######################################################################

data_RAGQUO
_chemical_formula_moiety         'C9 H5 Cl2 F1 N2'
_chemical_name_systematic        2,6-dichloro-7-fluoroquinolin-5-amine
_symmetry_cell_setting           monoclinic
_symmetry_space_group_name_H-M   'P 21/c'
_symmetry_Int_Tables_number      14
_space_group_name_Hall           '-P 2ybc'
loop_
_symmetry_equiv_pos_site_id
_symmetry_equiv_pos_as_xyz
1 x,y,z
2 -x,1/2+y,1/2-z
3 -x,-y,-z
4 x,1/2-y,1/2+z
_cell_length_a                   4.6937(2)
_cell_length_b                   15.3525(8)
_cell_length_c                   12.9128(7)
_cell_angle_alpha                90
_cell_angle_beta                 100.316(2)
_cell_angle_gamma                90
_cell_volume                     915.455
_exptl_crystal_colour            colorless
_exptl_crystal_description       needle/prism
_chemical_melting_point          '474 K'
_cell_formula_units_Z            4
loop_
_atom_site_label
_atom_site_type_symbol
_atom_site_fract_x
_atom_site_fract_y
_atom_site_fract_z
Cl1 Cl 0.16520(14) 0.41819(4) 0.94872(5)
Cl2 Cl 1.24804(12) 0.02111(4) 0.81299(5)
F1 F 1.2305(3) 0.06863(10) 1.02786(10)
N1 N 0.5331(3) 0.29095(11) 0.96341(12)
C1 C 0.3411(4) 0.33578(14) 0.78629(16)
H1 H 0.2214 0.3739 0.7425
C2 C 0.4971(4) 0.27351(13) 0.74662(14)
H2 H 0.4816 0.2678 0.6741
C3 C 0.6825(4) 0.21736(12) 0.81444(13)
C4 C 0.8543(4) 0.15118(13) 0.77800(14)
C5 C 1.0359(4) 0.10233(13) 0.85224(15)
C6 C 1.0459(4) 0.11747(13) 0.95948(15)
C7 C 0.3682(4) 0.34006(12) 0.89612(15)
C8 C 0.6959(4) 0.22927(12) 0.92438(13)
C9 C 0.8829(4) 0.17793(14) 0.99725(14)
H3 H 0.8937 0.1855 1.0693
N2 N 0.8474(5) 0.13767(14) 0.67361(13)
H4 H 0.9564 0.0986 0.6533
H5 H 0.7341 0.1682 0.6279
loop_
_geom_bond_atom_site_label_1
_geom_bond_atom_site_label_2
_geom_bond_site_symmetry_1
_geom_bond_site_symmetry_2
Cl1 C7 1_555 1_555
Cl2 C5 1_555 1_555
F1 C6 1_555 1_555
N1 C7 1_555 1_555
C1 H1 1_555 1_555
C2 C1 1_555 1_555
H2 C2 1_555 1_555
C3 C2 1_555 1_555
C4 C3 1_555 1_555
C5 C4 1_555 1_555
C6 C5 1_555 1_555
C7 C1 1_555 1_555
C8 N1 1_555 1_555
C9 C6 1_555 1_555
H3 C9 1_555 1_555
N2 C4 1_555 1_555
H4 N2 1_555 1_555
H5 N2 1_555 1_555
C3 C8 1_555 1_555
C8 C9 1_555 1_555

#END
