
#######################################################################
#
#                 Cambridge Crystallographic Data Centre
#                                CCDC 
#
#######################################################################
#
# If this CIF has been generated from an entry in the Cambridge 
# Structural Database, then it will include bibliographic, chemical, 
# crystal, experimental, refinement or atomic coordinate data resulting 
# from the CCDC's data processing and validation procedures.
#
#######################################################################

data_RAGROJ
_chemical_formula_moiety         'C15 H11 F2 N1 O1'
_chemical_name_systematic        N-(3,4-difluorophenyl)-3-phenylacrylamide
_symmetry_cell_setting           monoclinic
_symmetry_space_group_name_H-M   'P 21'
_symmetry_Int_Tables_number      4
_space_group_name_Hall           'P 2yb'
loop_
_symmetry_equiv_pos_site_id
_symmetry_equiv_pos_as_xyz
1 x,y,z
2 -x,1/2+y,-z
_cell_length_a                   8.4977(4)
_cell_length_b                   5.4986(3)
_cell_length_c                   12.8997(6)
_cell_angle_alpha                90
_cell_angle_beta                 93.323(2)
_cell_angle_gamma                90
_cell_volume                     601.731
_exptl_crystal_colour            colorless
_exptl_crystal_description       prism
_chemical_melting_point          '420 K'
_cell_formula_units_Z            2
loop_
_atom_site_label
_atom_site_type_symbol
_atom_site_fract_x
_atom_site_fract_y
_atom_site_fract_z
F1 F 0.45067(12) 0.0298(2) 0.71829(7)
F2 F 0.26301(14) 0.4175(2) 0.68489(6)
O1 O 0.07577(15) 0.5320(2) 0.33088(8)
N1 N 0.10957(14) 0.1225(2) 0.34280(9)
H1 H 0.0881 -0.0129 0.3118
C1 C 0.36824(17) 0.0522(3) 0.62621(10)
C2 C 0.27273(17) 0.2515(3) 0.60845(10)
C3 C 0.18688(16) 0.2840(3) 0.51584(10)
H2 H 0.1231 0.4201 0.5049
C4 C 0.19773(15) 0.1084(2) 0.43876(10)
C5 C 0.05492(15) 0.3285(3) 0.29418(10)
C6 C -0.03088(16) 0.2890(3) 0.19196(10)
H3 H -0.0278 0.1382 0.1595
C7 C -0.11172(15) 0.4706(2) 0.14747(10)
H4 H -0.1118 0.6148 0.1851
C8 C -0.20092(15) 0.4746(2) 0.04699(10)
C9 C -0.30020(17) 0.6710(3) 0.02319(12)
H5 H -0.3084 0.7958 0.0712
C10 C -0.38676(18) 0.6831(3) -0.07097(13)
H6 H -0.4532 0.8146 -0.0855
C11 C -0.37463(17) 0.5011(3) -0.14296(11)
H7 H -0.4326 0.5099 -0.2063
C12 C -0.27561(17) 0.3034(3) -0.12126(11)
H8 H -0.2671 0.1803 -0.1700
C13 C -0.19000(16) 0.2911(3) -0.02694(10)
H9 H -0.1242 0.1587 -0.0126
C14 C 0.29429(17) -0.0935(3) 0.45665(11)
H10 H 0.3017 -0.2103 0.4050
C15 C 0.37942(18) -0.1219(3) 0.55068(12)
H11 H 0.4434 -0.2574 0.5626
loop_
_geom_bond_atom_site_label_1
_geom_bond_atom_site_label_2
_geom_bond_site_symmetry_1
_geom_bond_site_symmetry_2
F1 C1 1_555 1_555
F2 C2 1_555 1_555
O1 C5 1_555 1_555
N1 H1 1_555 1_555
C1 C2 1_555 1_555
C2 C3 1_555 1_555
C3 H2 1_555 1_555
C4 N1 1_555 1_555
C5 N1 1_555 1_555
C6 C5 1_555 1_555
H3 C6 1_555 1_555
C7 C6 1_555 1_555
H4 C7 1_555 1_555
C8 C7 1_555 1_555
C9 C8 1_555 1_555
H5 C9 1_555 1_555
C10 C9 1_555 1_555
H6 C10 1_555 1_555
C11 C10 1_555 1_555
H7 C11 1_555 1_555
C12 C11 1_555 1_555
H8 C12 1_555 1_555
C13 C8 1_555 1_555
H9 C13 1_555 1_555
C14 C4 1_555 1_555
H10 C14 1_555 1_555
C15 C1 1_555 1_555
H11 C15 1_555 1_555
C3 C4 1_555 1_555
C12 C13 1_555 1_555
C14 C15 1_555 1_555

#END
