
#######################################################################
#
#                 Cambridge Crystallographic Data Centre
#                                CCDC 
#
#######################################################################
#
# If this CIF has been generated from an entry in the Cambridge 
# Structural Database, then it will include bibliographic, chemical, 
# crystal, experimental, refinement or atomic coordinate data resulting 
# from the CCDC's data processing and validation procedures.
#
#######################################################################

data_RAGRAV
_chemical_formula_moiety         'C9 H6 F2 N2'
_chemical_name_systematic        6,8-difluoroquinolin-2-amine
_symmetry_cell_setting           monoclinic
_symmetry_space_group_name_H-M   'P 21/c'
_symmetry_Int_Tables_number      14
_space_group_name_Hall           '-P 2ybc'
loop_
_symmetry_equiv_pos_site_id
_symmetry_equiv_pos_as_xyz
1 x,y,z
2 -x,1/2+y,1/2-z
3 -x,-y,-z
4 x,1/2-y,1/2+z
_cell_length_a                   14.6547(12)
_cell_length_b                   3.7931(3)
_cell_length_c                   14.0166(11)
_cell_angle_alpha                90
_cell_angle_beta                 101.161(3)
_cell_angle_gamma                90
_cell_volume                     764.401
_exptl_crystal_colour            yellow
_exptl_crystal_description       needle/plate
_chemical_melting_point          '469 K'
_cell_formula_units_Z            4
loop_
_atom_site_label
_atom_site_type_symbol
_atom_site_fract_x
_atom_site_fract_y
_atom_site_fract_z
F1 F 0.50600(7) 1.1949(3) 0.60132(8)
F2 F 0.20179(6) 1.3034(3) 0.42382(6)
N1 N 0.00246(10) 0.7973(5) 0.62678(12)
H1 H -0.0158(14) 0.632(5) 0.6591(14)
H2 H -0.0329(13) 0.841(6) 0.5724(10)
N2 N 0.12835(8) 0.9886(3) 0.56539(9)
C1 C 0.09649(11) 0.8314(4) 0.63621(11)
C2 C 0.15533(12) 0.7134(4) 0.72349(12)
H3 H 0.1298 0.6055 0.7719
C3 C 0.24770(12) 0.7586(4) 0.73560(11)
H4 H 0.2863 0.6812 0.7923
C4 C 0.28635(10) 0.9242(4) 0.66198(10)
C5 C 0.38274(11) 0.9817(4) 0.66965(12)
H5 H 0.4247 0.9135 0.7251
C6 C 0.41262(11) 1.1374(5) 0.59486(12)
C7 C 0.22265(10) 1.0331(4) 0.57821(10)
C8 C 0.26105(11) 1.1948(4) 0.50463(10)
C9 C 0.35328(11) 1.2478(4) 0.51034(12)
H6 H 0.3761 1.3536 0.4598
loop_
_geom_bond_atom_site_label_1
_geom_bond_atom_site_label_2
_geom_bond_site_symmetry_1
_geom_bond_site_symmetry_2
F1 C6 1_555 1_555
F2 C8 1_555 1_555
N1 H1 1_555 1_555
H2 N1 1_555 1_555
N2 C1 1_555 1_555
C1 N1 1_555 1_555
C2 C1 1_555 1_555
H3 C2 1_555 1_555
C3 C2 1_555 1_555
H4 C3 1_555 1_555
C4 C3 1_555 1_555
C5 C4 1_555 1_555
H5 C5 1_555 1_555
C6 C5 1_555 1_555
C7 N2 1_555 1_555
C8 C7 1_555 1_555
C9 C6 1_555 1_555
H6 C9 1_555 1_555
C4 C7 1_555 1_555
C8 C9 1_555 1_555

#END
