
#######################################################################
#
#                 Cambridge Crystallographic Data Centre
#                                CCDC 
#
#######################################################################
#
# If this CIF has been generated from an entry in the Cambridge 
# Structural Database, then it will include bibliographic, chemical, 
# crystal, experimental, refinement or atomic coordinate data resulting 
# from the CCDC's data processing and validation procedures.
#
#######################################################################

data_RAGXEC
_chemical_name_common            
"5,5':11,11':17,17':23,23'-tetrakis(m-xylenedioxy)-bis(2,8,14,20-tetra-n-butyl-6,10:12,16:18,22:24,4-O,O'-tetrakis(ethylene)calix[4]resorcinarene) p-methoxytoluene clathrate"
_chemical_formula_moiety         'C144 H168 O24,5(C8 H10 O1)'
_chemical_name_systematic        
'Hemicarcerand EE 4-Methoxy-p-toluene clathrate'
_symmetry_cell_setting           triclinic
_symmetry_space_group_name_H-M   'P -1'
_symmetry_Int_Tables_number      2
_space_group_name_Hall           '-P 1'
loop_
_symmetry_equiv_pos_site_id
_symmetry_equiv_pos_as_xyz
1 x,y,z
2 -x,-y,-z
_cell_length_a                   16.827(5)
_cell_length_b                   18.611(6)
_cell_length_c                   16.242(5)
_cell_angle_alpha                104.081(9)
_cell_angle_beta                 117.785(10)
_cell_angle_gamma                102.197(10)
_cell_volume                     4040.3
_exptl_crystal_colour            colorless
_cell_formula_units_Z            1
loop_
_atom_site_label
_atom_site_type_symbol
_atom_site_fract_x
_atom_site_fract_y
_atom_site_fract_z
O1 O 0.1124(4) 0.0172(3) 0.9064(4)
C1 C 0.2038(7) 0.0816(5) 0.9780(7)
H1 H 0.1935(7) 0.1268(5) 1.0101(7)
H2 H 0.2325(7) 0.0980(5) 0.9425(7)
C2 C 0.2737(6) 0.0598(5) 1.0588(7)
H3 H 0.2879(6) 0.0169(5) 1.0283(7)
H4 H 0.3341(6) 0.1057(5) 1.1072(7)
O2 O 0.2284(4) 0.0346(3) 1.1093(4)
C3 C 0.2396(6) -0.0342(4) 1.1247(6)
C4 C 0.1684(5) -0.1092(4) 1.0535(6)
C5 C 0.1862(5) -0.1749(4) 1.0725(5)
H5 H 0.1418(5) -0.2258(4) 1.0240(5)
C6 C 0.2666(5) -0.1688(4) 1.1596(5)
C7 C 0.3315(5) -0.0920(4) 1.2322(6)
C8 C 0.3195(6) -0.0258(5) 1.2123(6)
O3 O 0.3915(4) 0.0501(3) 1.2808(4)
C9 C 0.3715(6) 0.0953(5) 1.3482(7)
H6 H 0.3670(6) 0.0679(5) 1.3906(7)
H7 H 0.3101(6) 0.1006(5) 1.3098(7)
C10 C 0.4509(5) 0.1758(4) 1.4125(5)
C11 C 0.4619(6) 0.2215(5) 1.5017(6)
H8 H 0.4219(6) 0.2002(5) 1.5214(6)
C12 C 0.5306(7) 0.2971(5) 1.5604(7)
H9 H 0.5377(7) 0.3267(5) 1.6201(7)
C13 C 0.5899(6) 0.3298(5) 1.5312(6)
H10 H 0.6352(6) 0.3821(5) 1.5703(6)
C14 C 0.5821(5) 0.2853(4) 1.4444(6)
C15 C 0.5109(5) 0.2090(4) 1.3850(6)
H11 H 0.5035(5) 0.1794(4) 1.3250(6)
C16 C 0.6509(6) 0.3221(5) 1.4185(6)
H12 H 0.6529(6) 0.3756(5) 1.4236(6)
H13 H 0.7157(6) 0.3264(5) 1.4662(6)
O4 O 0.6207(4) 0.2745(3) 1.3183(4)
O5 O 0.4026(4) -0.0825(3) 1.3292(4)
C17 C 0.5026(7) -0.0506(6) 1.3606(7)
H14 H 0.5435(7) -0.0499(6) 1.4273(7)
H15 H 0.5195(7) 0.0041(6) 1.3657(7)
C18 C 0.5217(7) -0.0967(5) 1.2911(7)
H16 H 0.5905(7) -0.0761(5) 1.3175(7)
H17 H 0.4868(7) -0.0930(5) 1.2260(7)
O6 O 0.4894(4) -0.1806(3) 1.2791(4)
C19 C 0.4384(5) -0.2346(4) 1.1797(6)
C20 C 0.3362(5) -0.2704(4) 1.1256(5)
C21 C 0.2892(5) -0.3253(4) 1.0272(5)
H18 H 0.2219(5) -0.3498(4) 0.9901(5)
C22 C 0.3376(5) -0.3459(4) 0.9805(6)
C23 C 0.4380(5) -0.3075(4) 1.0366(6)
C24 C 0.4877(5) -0.2528(4) 1.1350(5)
O7 O 0.5870(4) -0.2117(3) 1.1872(4)
C25 C 0.6423(6) -0.2483(5) 1.2469(6)
H19 H 0.6253(6) -0.3028(5) 1.2043(6)
H20 H 0.6279(6) -0.2500(5) 1.2978(6)
C26 C 0.7479(5) -0.2019(4) 1.2972(5)
C27 C 0.8141(6) -0.2294(5) 1.3594(6)
H21 H 0.7916(6) -0.2753(5) 1.3681(6)
C28 C 0.9119(6) -0.1890(5) 1.4072(7)
H22 H 0.9554(6) -0.2067(5) 1.4500(7)
C29 C 0.9462(7) -0.1225(5) 1.3925(6)
H23 H 1.0127(7) -0.0955(5) 1.4251(6)
C30 C 0.8821(5) -0.0958(4) 1.3293(5)
C31 C 0.7844(5) -0.1359(4) 1.2829(5)
H24 H 0.7413(5) -0.1178(4) 1.2404(5)
C32 C 0.9234(6) -0.0246(5) 1.3141(6)
H25 H 0.9617(6) 0.0219(5) 1.3777(6)
H26 H 0.9655(6) -0.0342(5) 1.2911(6)
O8 O 0.8459(4) -0.0101(3) 1.2402(4)
O9 O 0.4911(4) -0.3272(3) 0.9957(4)
C33 C 0.5178(7) -0.2711(5) 0.9570(7)
H27 H 0.5859(7) -0.2368(5) 1.0035(7)
H28 H 0.4799(7) -0.2377(5) 0.9500(7)
C34 C 0.4990(7) -0.3170(5) 0.8558(7)
H29 H 0.5122(7) -0.2798(5) 0.8269(7)
H30 H 0.5431(7) -0.3450(5) 0.8651(7)
O10 O 0.4010(4) -0.3740(3) 0.7862(4)
C35 C 0.3281(6) -0.3440(5) 0.7669(6)
C36 C 0.2667(5) -0.3631(4) 0.7993(6)
C37 C 0.1867(5) -0.3404(4) 0.7644(6)
H31 H 0.1442(5) -0.3539(4) 0.7846(6)
C38 C 0.1671(5) -0.2993(4) 0.7016(5)
C39 C 0.2347(5) -0.2762(4) 0.6776(6)
C40 C 0.6870(6) 0.2989(5) 1.2922(6)
O11 O 0.2222(4) -0.2315(3) 0.6189(4)
C41 C 0.2703(7) -0.1466(5) 0.6803(7)
H32 H 0.3291(7) -0.1255(5) 0.6820(7)
H33 H 0.2880(7) -0.1371(5) 0.7491(7)
C42 C 0.2039(7) -0.1053(6) 0.6369(7)
H34 H 0.2354(7) -0.0488(6) 0.6807(7)
H35 H 0.1927(7) -0.1101(6) 0.5712(7)
O12 O 0.1141(4) -0.1360(3) 0.6256(4)
C43 C 0.1118(5) -0.1309(4) 0.7116(5)
C44 C 0.0905(5) -0.1997(4) 0.7293(5)
C45 C 0.0806(5) -0.1929(4) 0.8101(5)
H36 H 0.0671(5) -0.2383(4) 0.8234(5)
C46 C 0.0897(5) -0.1215(4) 0.8728(5)
C47 C 0.1120(5) -0.0536(4) 0.8531(6)
C48 C 0.8745(5) 0.0594(4) 1.2262(6)
C49 C 0.0745(5) -0.2801(4) 0.6584(6)
H37 H 0.0628(5) -0.2737(4) 0.5961(6)
C50 C -0.0150(5) -0.3488(5) 0.6272(6)
H38 H -0.0096(5) -0.3534(5) 0.6876(6)
H39 H -0.0168(5) -0.3983(5) 0.5878(6)
C51 C -0.1093(6) -0.3386(5) 0.5654(7)
H40 H -0.1090(6) -0.2909(5) 0.6067(7)
H41 H -0.1122(6) -0.3300(5) 0.5077(7)
C52 C -0.1993(7) -0.4081(6) 0.5275(8)
H42 H -0.1968(7) -0.4166(6) 0.5851(8)
H43 H -0.1997(7) -0.4558(6) 0.4863(8)
C53 C -0.2943(9) -0.3970(7) 0.4647(10)
H44 H -0.2932(9) -0.3490(7) 0.5062(10)
H45 H -0.2962(9) -0.3882(7) 0.4075(10)
C54 C -0.3844(12) -0.4637(10) 0.4260(12)
H46 H -0.4391(13) -0.4498(32) 0.3912(86)
H47 H -0.3832(43) -0.4741(51) 0.4815(15)
H48 H -0.3896(48) -0.5107(23) 0.3799(76)
C55 C 0.2866(5) -0.4067(4) 0.8712(6)
H49 H 0.3333(5) -0.4296(4) 0.8689(6)
C56 C 0.1967(6) -0.4766(5) 0.8369(6)
H50 H 0.1459(6) -0.4573(5) 0.8311(6)
H51 H 0.2121(6) -0.4994(5) 0.8875(6)
C57 C 0.1598(8) -0.5416(6) 0.7350(8)
H52 H 0.2113(8) -0.5604(6) 0.7419(8)
H53 H 0.1465(8) -0.5177(6) 0.6856(8)
C58 C 0.0693(11) -0.6135(9) 0.6938(12)
H54 H 0.0586(11) -0.6522(9) 0.6337(12)
H55 H 0.0851(11) -0.6372(9) 0.7435(12)
C59 C -0.0195(16) -0.6069(13) 0.6679(16)
H56 H -0.0144(16) -0.5748(13) 0.7283(16)
H57 H -0.0687(16) -0.6596(13) 0.6392(16)
C60 C -0.0485(20) -0.5690(16) 0.5928(20)
H58 H -0.074(18) -0.530(11) 0.611(11)
H59 H -0.098(14) -0.6094(26) 0.5266(37)
H60 H 0.0071(46) -0.543(14) 0.593(15)
C61 C 0.2842(5) -0.2430(4) 1.1766(6)
H61 H 0.3292(5) -0.2261(4) 1.2497(6)
C62 C 0.1923(5) -0.3095(4) 1.1450(6)
H62 H 0.1558(5) -0.2857(4) 1.1670(6)
H63 H 0.1524(5) -0.3354(4) 1.0717(6)
C63 C 0.2110(6) -0.3723(5) 1.1877(6)
H64 H 0.2532(6) -0.3919(5) 1.1717(6)
H65 H 0.2453(6) -0.3471(5) 1.2608(6)
C64 C 0.1216(6) -0.4427(5) 1.1493(6)
H66 H 0.0741(6) -0.4227(5) 1.1532(6)
H67 H 0.0942(6) -0.4737(5) 1.0785(6)
C65 C 0.1369(6) -0.4967(5) 1.2041(7)
H68 H 0.1572(6) -0.4674(5) 1.2732(7)
H69 H 0.1894(6) -0.5121(5) 1.2068(7)
C66 C 0.0491(8) -0.5710(7) 1.1575(9)
H70 H 0.0617(22) -0.5992(26) 1.2016(30)
H71 H 0.0347(36) -0.6048(23) 1.0933(30)
H72 H -0.0052(16) -0.5567(7) 1.1476(57)
C67 C 0.0758(5) -0.1173(5) 0.9608(6)
H73 H 0.0650(5) -0.0677(5) 0.9797(6)
C68 C -0.0130(6) -0.1852(5) 0.9315(6)
H74 H -0.0056(6) -0.2353(5) 0.9098(6)
H75 H -0.0151(6) -0.1798(5) 0.9912(6)
C69 C -0.1086(7) -0.1897(6) 0.8489(7)
H76 H -0.1063(7) -0.1920(6) 0.7897(7)
H77 H -0.1197(7) -0.1418(6) 0.8718(7)
C70 C -0.1925(8) -0.2633(6) 0.8198(8)
H78 H -0.1805(8) -0.3108(6) 0.7973(8)
H79 H -0.1934(8) -0.2609(6) 0.8797(8)
C71 C -0.2881(10) -0.2716(8) 0.7402(11)
H80 H -0.2866(10) -0.2695(8) 0.6818(11)
H81 H -0.3041(10) -0.2274(8) 0.7646(11)
C72 C -0.3693(12) -0.3540(9) 0.7073(12)
H82 H -0.4309(20) -0.3590(36) 0.6537(67)
H83 H -0.3729(65) -0.3550(33) 0.7643(28)
H84 H -0.3529(49) -0.3977(10) 0.6842(91)
C35A C 0.6719(6) 0.3440(5) 1.2331(6)
O10A O 0.5990(4) 0.3740(3) 1.2138(4)
C34A C 0.5010(7) 0.3170(5) 1.1442(7)
C33A C 0.4822(7) 0.2711(5) 1.0430(7)
O9A O 0.5089(4) 0.3272(3) 1.0043(4)
C23A C 0.5620(5) 0.3075(4) 0.9634(6)
C22A C 0.6624(5) 0.3459(4) 1.0195(6)
C21A C 0.7108(5) 0.3253(4) 0.9728(5)
C20A C 0.6638(5) 0.2704(4) 0.8744(5)
C19A C 0.5616(5) 0.2346(4) 0.8203(6)
O6A O 0.5106(4) 0.1806(3) 0.7209(4)
C18A C 0.4783(7) 0.0967(5) 0.7089(7)
C17A C 0.4974(7) 0.0506(6) 0.6394(7)
O5A O 0.5974(4) 0.0825(3) 0.6708(4)
C7A C 0.6685(5) 0.0920(4) 0.7678(6)
C6A C 0.7334(5) 0.1688(4) 0.8404(5)
C5A C 0.8138(5) 0.1749(4) 0.9275(5)
C4A C 0.8316(5) 0.1092(4) 0.9465(6)
C3A C 0.7604(6) 0.0342(4) 0.8753(6)
O2A O 0.7716(4) -0.0346(3) 0.8907(4)
C2A C 0.7263(6) -0.0598(5) 0.9412(7)
C1A C 0.7962(7) -0.0816(5) 1.0220(7)
O1A O 0.8876(4) -0.0172(3) 1.0936(4)
C47A C 0.8880(5) 0.0536(4) 1.1469(6)
C46A C 0.9103(5) 0.1215(4) 1.1272(5)
C45A C 0.9194(5) 0.1929(4) 1.1899(5)
C44A C 0.9095(5) 0.1997(4) 1.2707(5)
C43A C 0.8882(5) 0.1309(4) 1.2884(5)
O12A O 0.8859(4) 0.1360(3) 1.3744(4)
C42A C 0.7961(7) 0.1053(6) 1.3631(7)
C41A C 0.7297(7) 0.1466(5) 1.3197(7)
O11A O 0.7778(4) 0.2315(3) 1.3811(4)
C39A C 0.7653(5) 0.2762(4) 1.3224(6)
C38A C 0.8329(5) 0.2993(4) 1.2984(5)
C37A C 0.8133(5) 0.3404(4) 1.2356(6)
C36A C 0.7333(5) 0.3631(4) 1.2007(6)
C55A C 0.7134(5) 0.4067(4) 1.1288(6)
H49A H 0.6667(5) 0.4296(4) 1.1311(6)
C56A C 0.8033(6) 0.4766(5) 1.1631(6)
H50A H 0.8541(6) 0.4573(5) 1.1689(6)
H51A H 0.7879(6) 0.4994(5) 1.1125(6)
C57A C 0.8402(8) 0.5416(6) 1.2650(8)
H52A H 0.7887(8) 0.5604(6) 1.2581(8)
H53A H 0.8535(8) 0.5177(6) 1.3144(8)
C58A C 0.9307(11) 0.6135(9) 1.3062(12)
H54A H 0.9414(11) 0.6522(9) 1.3663(12)
H55A H 0.9149(11) 0.6372(9) 1.2565(12)
C59A C 1.0195(16) 0.6069(13) 1.3321(16)
H56A H 1.0144(16) 0.5748(13) 1.2717(16)
H57A H 1.0687(16) 0.6596(13) 1.3608(16)
C60A C 1.0485(20) 0.5690(16) 1.4072(20)
H58A H 1.074(18) 0.530(11) 1.389(11)
H59A H 1.098(14) 0.6094(26) 1.4734(37)
H60A H 0.9929(46) 0.543(14) 1.407(15)
H31A H 0.8558(5) 0.3539(4) 1.2154(6)
C49A C 0.9255(5) 0.2801(4) 1.3416(6)
H37A H 0.9372(5) 0.2737(4) 1.4039(6)
C50A C 1.0150(5) 0.3488(5) 1.3728(6)
H38A H 1.0096(5) 0.3534(5) 1.3124(6)
H39A H 1.0168(5) 0.3983(5) 1.4122(6)
C51A C 1.1093(6) 0.3386(5) 1.4346(7)
H40A H 1.1090(6) 0.2909(5) 1.3933(7)
H41A H 1.1122(6) 0.3300(5) 1.4923(7)
C52A C 1.1993(7) 0.4081(6) 1.4725(8)
H42A H 1.1968(7) 0.4166(6) 1.4149(8)
H43A H 1.1997(7) 0.4558(6) 1.5137(8)
C53A C 1.2943(9) 0.3970(7) 1.5353(10)
H44A H 1.2932(9) 0.3490(7) 1.4938(10)
H45A H 1.2962(9) 0.3882(7) 1.5925(10)
C54A C 1.3844(12) 0.4637(10) 1.5740(12)
H46A H 1.4391(13) 0.4498(32) 1.6088(86)
H47A H 1.3832(43) 0.4741(51) 1.5185(15)
H48A H 1.3896(48) 0.5107(23) 1.6201(76)
H32A H 0.6709(7) 0.1255(5) 1.3180(7)
H33A H 0.7120(7) 0.1371(5) 1.2509(7)
H34A H 0.7646(7) 0.0488(6) 1.3193(7)
H35A H 0.8073(7) 0.1101(6) 1.4288(7)
C40A C 0.3130(6) -0.2989(5) 0.7078(6)
O4A O 0.3793(4) -0.2745(3) 0.6817(4)
C16A C 0.3491(6) -0.3221(5) 0.5815(6)
C14A C 0.4179(5) -0.2853(4) 0.5556(6)
C13A C 0.4101(6) -0.3298(5) 0.4688(6)
C12A C 0.4694(7) -0.2971(5) 0.4396(7)
C11A C 0.5381(6) -0.2215(5) 0.4983(6)
C10A C 0.5491(5) -0.1758(4) 0.5875(5)
C9A C 0.6285(6) -0.0953(5) 0.6518(7)
O3A O 0.6085(4) -0.0501(3) 0.7192(4)
C8A C 0.6805(6) 0.0258(5) 0.7877(6)
H6A H 0.6330(6) -0.0679(5) 0.6094(7)
H7A H 0.6899(6) -0.1006(5) 0.6902(7)
C15A C 0.4891(5) -0.2090(4) 0.6150(6)
H11A H 0.4965(5) -0.1794(4) 0.6750(6)
H8A H 0.5781(6) -0.2002(5) 0.4786(6)
H9A H 0.4623(7) -0.3267(5) 0.3799(7)
H10A H 0.3648(6) -0.3821(5) 0.4297(6)
H12A H 0.3471(6) -0.3756(5) 0.5764(6)
H13A H 0.2843(6) -0.3264(5) 0.5338(6)
C48A C 0.1255(5) -0.0594(4) 0.7738(6)
O8A O 0.1541(4) 0.0101(3) 0.7598(4)
C32A C 0.0766(6) 0.0246(5) 0.6859(6)
C30A C 0.1179(5) 0.0958(4) 0.6707(5)
C29A C 0.0538(7) 0.1225(5) 0.6075(6)
C28A C 0.0881(6) 0.1890(5) 0.5928(7)
C27A C 0.1859(6) 0.2294(5) 0.6406(6)
C26A C 0.2521(5) 0.2019(4) 0.7028(5)
C25A C 0.3577(6) 0.2483(5) 0.7531(6)
O7A O 0.4130(4) 0.2117(3) 0.8128(4)
C24A C 0.5123(5) 0.2528(4) 0.8650(5)
H19A H 0.3747(6) 0.3028(5) 0.7957(6)
H20A H 0.3721(6) 0.2500(5) 0.7022(6)
C31A C 0.2156(5) 0.1359(4) 0.7171(5)
H24A H 0.2587(5) 0.1178(4) 0.7596(5)
H21A H 0.2084(6) 0.2753(5) 0.6319(6)
H22A H 0.0446(6) 0.2067(5) 0.5500(7)
H23A H -0.0127(7) 0.0955(5) 0.5749(6)
H25A H 0.0383(6) -0.0219(5) 0.6223(6)
H26A H 0.0345(6) 0.0342(5) 0.7089(6)
H36A H 0.9329(5) 0.2383(4) 1.1766(5)
C67A C 0.9242(5) 0.1173(5) 1.0392(6)
H73A H 0.9350(5) 0.0677(5) 1.0203(6)
C68A C 1.0130(6) 0.1852(5) 1.0685(6)
H74A H 1.0056(6) 0.2353(5) 1.0902(6)
H75A H 1.0151(6) 0.1798(5) 1.0088(6)
C69A C 1.1086(7) 0.1897(6) 1.1511(7)
H76A H 1.1063(7) 0.1920(6) 1.2103(7)
H77A H 1.1197(7) 0.1418(6) 1.1282(7)
C70A C 1.1925(8) 0.2633(6) 1.1802(8)
H78A H 1.1805(8) 0.3108(6) 1.2027(8)
H79A H 1.1934(8) 0.2609(6) 1.1203(8)
C71A C 1.2881(10) 0.2716(8) 1.2598(11)
H80A H 1.2866(10) 0.2695(8) 1.3182(11)
H81A H 1.3041(10) 0.2274(8) 1.2354(11)
C72A C 1.3693(12) 0.3540(9) 1.2927(12)
H82A H 1.4309(20) 0.3590(36) 1.3463(67)
H83A H 1.3729(65) 0.3550(33) 1.2357(28)
H84A H 1.3529(49) 0.3977(10) 1.3158(91)
H1A H 0.8065(7) -0.1268(5) 0.9899(7)
H2A H 0.7675(7) -0.0980(5) 1.0575(7)
H3A H 0.7121(6) -0.0169(5) 0.9717(7)
H4A H 0.6659(6) -0.1057(5) 0.8928(7)
H5A H 0.8582(5) 0.2258(4) 0.9760(5)
C61A C 0.7158(5) 0.2430(4) 0.8234(6)
H61A H 0.6708(5) 0.2261(4) 0.7503(6)
C62A C 0.8077(5) 0.3095(4) 0.8550(6)
H62A H 0.8442(5) 0.2857(4) 0.8330(6)
H63A H 0.8476(5) 0.3354(4) 0.9283(6)
C63A C 0.7890(6) 0.3723(5) 0.8123(6)
H64A H 0.7468(6) 0.3919(5) 0.8283(6)
H65A H 0.7547(6) 0.3471(5) 0.7392(6)
C64A C 0.8784(6) 0.4427(5) 0.8507(6)
H66A H 0.9259(6) 0.4227(5) 0.8468(6)
H67A H 0.9058(6) 0.4737(5) 0.9215(6)
C65A C 0.8631(6) 0.4967(5) 0.7959(7)
H68A H 0.8428(6) 0.4674(5) 0.7268(7)
H69A H 0.8106(6) 0.5121(5) 0.7932(7)
C66A C 0.9509(8) 0.5710(7) 0.8425(9)
H70A H 0.9383(22) 0.5992(26) 0.7984(30)
H71A H 0.9653(36) 0.6048(23) 0.9067(30)
H72A H 1.0052(16) 0.5567(7) 0.8524(57)
H14A H 0.4565(7) 0.0499(6) 0.5727(7)
H15A H 0.4805(7) -0.0041(6) 0.6343(7)
H16A H 0.4095(7) 0.0761(5) 0.6825(7)
H17A H 0.5132(7) 0.0930(5) 0.7740(7)
H18A H 0.7781(5) 0.3498(4) 1.0099(5)
H27A H 0.4141(7) 0.2368(5) 0.9965(7)
H28A H 0.5201(7) 0.2377(5) 1.0500(7)
H29A H 0.4878(7) 0.2798(5) 1.1731(7)
H30A H 0.4569(7) 0.3450(5) 1.1349(7)
C73 C 0.1575(9) 0.1354(7) 1.3896(10)
H85 H 0.1021(42) 0.1295(16) 1.3276(27)
H86 H 0.2145(30) 0.1748(16) 1.4040(73)
H87 H 0.1481(70) 0.1523(29) 1.4440(48)
C74 C 0.1698(7) 0.0562(5) 1.3786(7)
C75 C 0.1356(7) -0.0011(6) 1.2884(8)
H88 H 0.0991(7) 0.0074(6) 1.2304(8)
C76 C 0.1506(7) -0.0693(6) 1.2769(8)
H89 H 0.1257(7) -0.1061(6) 1.2123(8)
C77 C 0.2016(6) -0.0853(5) 1.3580(7)
C78 C 0.2391(6) -0.0321(5) 1.4538(7)
H90 H 0.2739(6) -0.0432(5) 1.5101(7)
C79 C 0.2230(7) 0.0409(6) 1.4647(8)
H91 H 0.2477(7) 0.0784(6) 1.5288(8)
O13 O 0.2132(6) -0.1570(5) 1.3411(6)
C80 C 0.2871(9) -0.1678(7) 1.4266(9)
H92 H 0.2843(46) -0.2216(18) 1.4048(20)
H93 H 0.2753(40) -0.1581(55) 1.4799(29)
H94 H 0.3502(10) -0.1309(39) 1.4511(46)
C81 C 0.6728(19) 0.5239(13) -0.1066(15)
C82 C 0.7656(18) 0.5818(17) -0.0554(20)
C83 C 0.7996(13) 0.6462(14) 0.0330(18)
C84 C 0.7408(16) 0.6528(12) 0.0702(15)
C85 C 0.6480(15) 0.5949(14) 0.0191(17)
C86 C 0.6140(14) 0.5305(12) -0.0693(16)
O14 O 0.8960(34) 0.7015(24) 0.0800(32)
C87 C 0.9584(33) 0.7533(28) 0.1493(35)
C88 C 0.5125(27) 0.4747(20) -0.1171(26)
C89? C 0.4100(9) -0.0407(7) 0.9624(11)
C90? C 0.3999(7) 0.0173(8) 0.9225(9)
C91? C 0.4815(10) 0.0753(6) 0.9430(9)
C92? C 0.5732(8) 0.0753(6) 1.0035(9)
C93? C 0.5832(8) 0.0172(9) 1.0434(10)
C94? C 0.5017(11) -0.0408(8) 1.0229(11)
O15? O 0.3227(12) -0.0994(10) 0.9362(12)
C95? C 0.3360(8) -0.1487(6) 0.9770(8)
C96? C 0.8334(16) 0.6212(16) 0.0036(19)
C97? C 0.7441(19) 0.5576(13) -0.0583(16)
C98? C 0.6693(14) 0.5591(12) -0.0436(16)
C99? C 0.6839(15) 0.6241(15) 0.0330(18)
C100? C 0.7733(18) 0.6877(12) 0.0949(15)
C101? C 0.8480(14) 0.6863(13) 0.0802(17)
C102? C 0.5625(27) 0.4813(20) -0.1277(26)
C103? C 0.9195(29) 0.7729(23) 0.1529(28)
loop_
_geom_bond_atom_site_label_1
_geom_bond_atom_site_label_2
_geom_bond_site_symmetry_1
_geom_bond_site_symmetry_2
O1 C1 1_555 1_555
C1 H1 1_555 1_555
H2 C1 1_555 1_555
C2 C1 1_555 1_555
H3 C2 1_555 1_555
H4 C2 1_555 1_555
O2 C2 1_555 1_555
C3 O2 1_555 1_555
C4 C3 1_555 1_555
C5 C4 1_555 1_555
H5 C5 1_555 1_555
C6 C5 1_555 1_555
C7 C6 1_555 1_555
C8 C3 1_555 1_555
O3 C8 1_555 1_555
C9 O3 1_555 1_555
H6 C9 1_555 1_555
H7 C9 1_555 1_555
C10 C9 1_555 1_555
C11 C10 1_555 1_555
H8 C11 1_555 1_555
C12 C11 1_555 1_555
H9 C12 1_555 1_555
C13 C12 1_555 1_555
H10 C13 1_555 1_555
C14 C13 1_555 1_555
C15 C10 1_555 1_555
H11 C15 1_555 1_555
C16 C14 1_555 1_555
H12 C16 1_555 1_555
H13 C16 1_555 1_555
O4 C16 1_555 1_555
O5 C7 1_555 1_555
C17 O5 1_555 1_555
H14 C17 1_555 1_555
H15 C17 1_555 1_555
C18 C17 1_555 1_555
H16 C18 1_555 1_555
H17 C18 1_555 1_555
O6 C18 1_555 1_555
C19 O6 1_555 1_555
C20 C19 1_555 1_555
C21 C20 1_555 1_555
H18 C21 1_555 1_555
C22 C21 1_555 1_555
C23 C22 1_555 1_555
C24 C19 1_555 1_555
O7 C24 1_555 1_555
C25 O7 1_555 1_555
H19 C25 1_555 1_555
H20 C25 1_555 1_555
C26 C25 1_555 1_555
C27 C26 1_555 1_555
H21 C27 1_555 1_555
C28 C27 1_555 1_555
H22 C28 1_555 1_555
C29 C28 1_555 1_555
H23 C29 1_555 1_555
C30 C29 1_555 1_555
C31 C26 1_555 1_555
H24 C31 1_555 1_555
C32 C30 1_555 1_555
H25 C32 1_555 1_555
H26 C32 1_555 1_555
O8 C32 1_555 1_555
O9 C23 1_555 1_555
C33 O9 1_555 1_555
H27 C33 1_555 1_555
H28 C33 1_555 1_555
C34 C33 1_555 1_555
H29 C34 1_555 1_555
H30 C34 1_555 1_555
O10 C34 1_555 1_555
C35 O10 1_555 1_555
C36 C35 1_555 1_555
C37 C36 1_555 1_555
H31 C37 1_555 1_555
C38 C37 1_555 1_555
C39 C38 1_555 1_555
C40 O4 1_555 1_555
O11 C39 1_555 1_555
C41 O11 1_555 1_555
H32 C41 1_555 1_555
H33 C41 1_555 1_555
C42 C41 1_555 1_555
H34 C42 1_555 1_555
H35 C42 1_555 1_555
O12 C42 1_555 1_555
C43 O12 1_555 1_555
C44 C43 1_555 1_555
C45 C44 1_555 1_555
H36 C45 1_555 1_555
C46 C45 1_555 1_555
C47 O1 1_555 1_555
C48 O8 1_555 1_555
C49 C38 1_555 1_555
H37 C49 1_555 1_555
C50 C49 1_555 1_555
H38 C50 1_555 1_555
H39 C50 1_555 1_555
C51 C50 1_555 1_555
H40 C51 1_555 1_555
H41 C51 1_555 1_555
C52 C51 1_555 1_555
H42 C52 1_555 1_555
H43 C52 1_555 1_555
C53 C52 1_555 1_555
H44 C53 1_555 1_555
H45 C53 1_555 1_555
C54 C53 1_555 1_555
H46 C54 1_555 1_555
H47 C54 1_555 1_555
H48 C54 1_555 1_555
C55 C22 1_555 1_555
H49 C55 1_555 1_555
C56 C55 1_555 1_555
H50 C56 1_555 1_555
H51 C56 1_555 1_555
C57 C56 1_555 1_555
H52 C57 1_555 1_555
H53 C57 1_555 1_555
C58 C57 1_555 1_555
H54 C58 1_555 1_555
H55 C58 1_555 1_555
C59 C58 1_555 1_555
H56 C59 1_555 1_555
H57 C59 1_555 1_555
C60 C59 1_555 1_555
H58 C60 1_555 1_555
H59 C60 1_555 1_555
H60 C60 1_555 1_555
C61 C6 1_555 1_555
H61 C61 1_555 1_555
C62 C61 1_555 1_555
H62 C62 1_555 1_555
H63 C62 1_555 1_555
C63 C62 1_555 1_555
H64 C63 1_555 1_555
H65 C63 1_555 1_555
C64 C63 1_555 1_555
H66 C64 1_555 1_555
H67 C64 1_555 1_555
C65 C64 1_555 1_555
H68 C65 1_555 1_555
H69 C65 1_555 1_555
C66 C65 1_555 1_555
H70 C66 1_555 1_555
H71 C66 1_555 1_555
H72 C66 1_555 1_555
C67 C4 1_555 1_555
H73 C67 1_555 1_555
C68 C67 1_555 1_555
H74 C68 1_555 1_555
H75 C68 1_555 1_555
C69 C68 1_555 1_555
H76 C69 1_555 1_555
H77 C69 1_555 1_555
C70 C69 1_555 1_555
H78 C70 1_555 1_555
H79 C70 1_555 1_555
C71 C70 1_555 1_555
H80 C71 1_555 1_555
H81 C71 1_555 1_555
C72 C71 1_555 1_555
H82 C72 1_555 1_555
H83 C72 1_555 1_555
H84 C72 1_555 1_555
C73 H85 1_555 1_555
H86 C73 1_555 1_555
H87 C73 1_555 1_555
C74 C73 1_555 1_555
C75 C74 1_555 1_555
H88 C75 1_555 1_555
C76 C75 1_555 1_555
H89 C76 1_555 1_555
C77 C76 1_555 1_555
C78 C77 1_555 1_555
H90 C78 1_555 1_555
C79 C74 1_555 1_555
H91 C79 1_555 1_555
O13 C77 1_555 1_555
C80 O13 1_555 1_555
H92 C80 1_555 1_555
H93 C80 1_555 1_555
H94 C80 1_555 1_555
C81 C82 1_555 1_555
C82 C83 1_555 1_555
C83 C84 1_555 1_555
C84 C85 1_555 1_555
C85 C86 1_555 1_555
C86 C81 1_555 1_555
O14 C83 1_555 1_555
C87 O14 1_555 1_555
C88 C86 1_555 1_555
C35A C40 1_555 1_555
O10A C35A 1_555 1_555
C34A O10A 1_555 1_555
C33A C34A 1_555 1_555
O9A C33A 1_555 1_555
C23A O9A 1_555 1_555
C22A C23A 1_555 1_555
C21A C22A 1_555 1_555
C20A C21A 1_555 1_555
C19A C20A 1_555 1_555
O6A C19A 1_555 1_555
C18A O6A 1_555 1_555
C17A C18A 1_555 1_555
O5A C17A 1_555 1_555
C7A O5A 1_555 1_555
C6A C7A 1_555 1_555
C5A C6A 1_555 1_555
C4A C5A 1_555 1_555
C3A C4A 1_555 1_555
O2A C3A 1_555 1_555
C2A O2A 1_555 1_555
C1A C2A 1_555 1_555
O1A C1A 1_555 1_555
C47A C48 1_555 1_555
C46A C47A 1_555 1_555
C45A C46A 1_555 1_555
C44A C45A 1_555 1_555
C43A C48 1_555 1_555
O12A C43A 1_555 1_555
C42A O12A 1_555 1_555
C41A C42A 1_555 1_555
O11A C41A 1_555 1_555
C39A C40 1_555 1_555
C38A C39A 1_555 1_555
C37A C38A 1_555 1_555
C36A C35A 1_555 1_555
C55A C22A 1_555 1_555
H49A C55A 1_555 1_555
C56A C55A 1_555 1_555
H50A C56A 1_555 1_555
H51A C56A 1_555 1_555
C57A C56A 1_555 1_555
H52A C57A 1_555 1_555
H53A C57A 1_555 1_555
C58A C57A 1_555 1_555
H54A C58A 1_555 1_555
H55A C58A 1_555 1_555
C59A C58A 1_555 1_555
H56A C59A 1_555 1_555
H57A C59A 1_555 1_555
C60A C59A 1_555 1_555
H58A C60A 1_555 1_555
H59A C60A 1_555 1_555
H60A C60A 1_555 1_555
H31A C37A 1_555 1_555
C49A C44A 1_555 1_555
H37A C49A 1_555 1_555
C50A C49A 1_555 1_555
H38A C50A 1_555 1_555
H39A C50A 1_555 1_555
C51A C50A 1_555 1_555
H40A C51A 1_555 1_555
H41A C51A 1_555 1_555
C52A C51A 1_555 1_555
H42A C52A 1_555 1_555
H43A C52A 1_555 1_555
C53A C52A 1_555 1_555
H44A C53A 1_555 1_555
H45A C53A 1_555 1_555
C54A C53A 1_555 1_555
H46A C54A 1_555 1_555
H47A C54A 1_555 1_555
H48A C54A 1_555 1_555
H32A C41A 1_555 1_555
H33A C41A 1_555 1_555
H34A C42A 1_555 1_555
H35A C42A 1_555 1_555
C40A C35 1_555 1_555
O4A C40A 1_555 1_555
C16A O4A 1_555 1_555
C14A C16A 1_555 1_555
C13A C14A 1_555 1_555
C12A C13A 1_555 1_555
C11A C12A 1_555 1_555
C10A C11A 1_555 1_555
C9A C10A 1_555 1_555
O3A C9A 1_555 1_555
C8A C7A 1_555 1_555
H6A C9A 1_555 1_555
H7A C9A 1_555 1_555
C15A C14A 1_555 1_555
H11A C15A 1_555 1_555
H8A C11A 1_555 1_555
H9A C12A 1_555 1_555
H10A C13A 1_555 1_555
H12A C16A 1_555 1_555
H13A C16A 1_555 1_555
C48A C43 1_555 1_555
O8A C48A 1_555 1_555
C32A O8A 1_555 1_555
C30A C32A 1_555 1_555
C29A C30A 1_555 1_555
C28A C29A 1_555 1_555
C27A C28A 1_555 1_555
C26A C27A 1_555 1_555
C25A C26A 1_555 1_555
O7A C25A 1_555 1_555
C24A C23A 1_555 1_555
H19A C25A 1_555 1_555
H20A C25A 1_555 1_555
C31A C30A 1_555 1_555
H24A C31A 1_555 1_555
H21A C27A 1_555 1_555
H22A C28A 1_555 1_555
H23A C29A 1_555 1_555
H25A C32A 1_555 1_555
H26A C32A 1_555 1_555
H36A C45A 1_555 1_555
C67A C4A 1_555 1_555
H73A C67A 1_555 1_555
C68A C67A 1_555 1_555
H74A C68A 1_555 1_555
H75A C68A 1_555 1_555
C69A C68A 1_555 1_555
H76A C69A 1_555 1_555
H77A C69A 1_555 1_555
C70A C69A 1_555 1_555
H78A C70A 1_555 1_555
H79A C70A 1_555 1_555
C71A C70A 1_555 1_555
H80A C71A 1_555 1_555
H81A C71A 1_555 1_555
C72A C71A 1_555 1_555
H82A C72A 1_555 1_555
H83A C72A 1_555 1_555
H84A C72A 1_555 1_555
H1A C1A 1_555 1_555
H2A C1A 1_555 1_555
H3A C2A 1_555 1_555
H4A C2A 1_555 1_555
H5A C5A 1_555 1_555
C61A C20A 1_555 1_555
H61A C61A 1_555 1_555
C62A C61A 1_555 1_555
H62A C62A 1_555 1_555
H63A C62A 1_555 1_555
C63A C62A 1_555 1_555
H64A C63A 1_555 1_555
H65A C63A 1_555 1_555
C64A C63A 1_555 1_555
H66A C64A 1_555 1_555
H67A C64A 1_555 1_555
C65A C64A 1_555 1_555
H68A C65A 1_555 1_555
H69A C65A 1_555 1_555
C66A C65A 1_555 1_555
H70A C66A 1_555 1_555
H71A C66A 1_555 1_555
H72A C66A 1_555 1_555
H14A C17A 1_555 1_555
H15A C17A 1_555 1_555
H16A C18A 1_555 1_555
H17A C18A 1_555 1_555
H18A C21A 1_555 1_555
H27A C33A 1_555 1_555
H28A C33A 1_555 1_555
H29A C34A 1_555 1_555
H30A C34A 1_555 1_555
C7 C8 1_555 1_555
C14 C15 1_555 1_555
C20 C61 1_555 1_555
C23 C24 1_555 1_555
C30 C31 1_555 1_555
C36 C55 1_555 1_555
C39 C40A 1_555 1_555
C44 C49 1_555 1_555
C46 C47 1_555 1_555
C46 C67 1_555 1_555
C47 C48A 1_555 1_555
C78 C79 1_555 1_555
C19A C24A 1_555 1_555
C6A C61A 1_555 1_555
C3A C8A 1_555 1_555
O1A C47A 1_555 1_555
C46A C67A 1_555 1_555
C44A C43A 1_555 1_555
O11A C39A 1_555 1_555
C38A C49A 1_555 1_555
C37A C36A 1_555 1_555
C36A C55A 1_555 1_555
C10A C15A 1_555 1_555
O3A C8A 1_555 1_555
C26A C31A 1_555 1_555
O7A C24A 1_555 1_555

#END
