
#######################################################################
#
#                 Cambridge Crystallographic Data Centre
#                                CCDC 
#
#######################################################################
#
# If this CIF has been generated from an entry in the Cambridge 
# Structural Database, then it will include bibliographic, chemical, 
# crystal, experimental, refinement or atomic coordinate data resulting 
# from the CCDC's data processing and validation procedures.
#
#######################################################################

data_RAGXOM
_chemical_name_common            
"5,5':11,11':17,17':23,23'-tetrakis(m-xylenedioxy)-bis(2,8,14,20-tetra-n-butyl-6,10:12,16:18,22:24,4-O,O'-tetrakis(propano)calix[4]resorcinarene) 1,2-bis(methoxy)benzene clathrate"
_chemical_formula_moiety         'C152 H184 O24,7(C8 H10 O2)'
_chemical_name_systematic        
'Hemicarcerand PE 1,2-bis(methoxy)benzene clathrate 1,2-bis(methoxy)benzene solvate'
_symmetry_cell_setting           triclinic
_symmetry_space_group_name_H-M   'P -1'
_symmetry_Int_Tables_number      2
_space_group_name_Hall           '-P 1'
loop_
_symmetry_equiv_pos_site_id
_symmetry_equiv_pos_as_xyz
1 x,y,z
2 -x,-y,-z
_cell_length_a                   17.288(18)
_cell_length_b                   18.419(17)
_cell_length_c                   16.740(14)
_cell_angle_alpha                91.25(8)
_cell_angle_beta                 117.04(6)
_cell_angle_gamma                69.95(7)
_cell_volume                     4402.45
_exptl_crystal_colour            colorless
_cell_formula_units_Z            1
loop_
_atom_site_label
_atom_site_type_symbol
_atom_site_fract_x
_atom_site_fract_y
_atom_site_fract_z
O1 O 0.4763(3) 0.1987(3) 0.2052(3)
C1 C 0.5437(6) 0.1205(5) 0.2447(6)
H1 H 0.5852(6) 0.1194(5) 0.3081(6)
H2 H 0.5812(6) 0.1049(5) 0.2139(6)
C2 C 0.4965(7) 0.0624(6) 0.2378(7)
H3 H 0.5378(7) 0.0180(6) 0.2864(7)
H4 H 0.4392(7) 0.0873(6) 0.2417(7)
C3 C 0.4760(17) 0.0372(14) 0.1492(15)
H5 H 0.5186(17) 0.0427(14) 0.1292(15)
H6 H 0.4816(17) -0.0170(14) 0.1522(15)
O2 O 0.3823(9) 0.0874(8) 0.0893(10)
C4 C 0.3233(6) 0.0831(5) 0.1284(6)
C5 C 0.2597(6) 0.1567(4) 0.1253(5)
C6 C 0.1835(5) 0.1569(4) 0.1310(5)
H7 H 0.1425(5) 0.2050(4) 0.1319(5)
C7 C 0.1615(5) 0.0922(4) 0.1355(5)
C8 C 0.2260(5) 0.0191(4) 0.1344(5)
C9 C 0.3031(6) 0.0173(5) 0.1308(5)
O3 O 0.3667(4) -0.0567(3) 0.1345(4)
C10 C 0.3682(6) -0.0704(5) 0.0514(5)
H8 H 0.3691(6) -0.0251(5) 0.0239(5)
H9 H 0.3128(6) -0.0801(5) 0.0094(5)
C11 C 0.4547(5) -0.1405(4) 0.0720(5)
C12 C 0.4747(6) -0.1639(4) 0.0019(5)
H10 H 0.4319(6) -0.1399(4) -0.0579(5)
C13 C 0.5594(6) -0.2236(5) 0.0222(6)
H11 H 0.5733(6) -0.2397(5) -0.0244(6)
C14 C 0.6233(6) -0.2593(4) 0.1107(5)
H12 H 0.6805(6) -0.2983(4) 0.1236(5)
C15 C 0.6023(5) -0.2372(4) 0.1809(5)
C16 C 0.5174(5) -0.1773(4) 0.1597(5)
H13 H 0.5027(5) -0.1619(4) 0.2059(5)
C17 C 0.6725(5) -0.2750(4) 0.2770(5)
H14 H 0.6686(5) -0.3245(4) 0.2896(5)
H15 H 0.7353(5) -0.2852(4) 0.2868(5)
O4 O 0.6522(4) -0.2230(3) 0.3356(3)
O5 O 0.2031(4) -0.0459(3) 0.1295(4)
C18 C 0.2640(7) -0.1080(6) 0.2040(7)
H16 H 0.3102(7) -0.1435(6) 0.1893(7)
H17 H 0.2974(7) -0.0857(6) 0.2556(7)
C19 C 0.2290(13) -0.1528(10) 0.2330(12)
H18 H 0.2778(13) -0.2037(10) 0.2639(12)
H19 H 0.1782(13) -0.1607(10) 0.1808(12)
C20 C 0.1939(12) -0.1144(10) 0.2958(12)
H20 H 0.1666(12) -0.1452(10) 0.3129(12)
H21 H 0.2449(12) -0.1093(10) 0.3504(12)
O6 O 0.1299(4) -0.0445(3) 0.2514(4)
C21 C 0.1130(5) 0.0245(4) 0.2864(5)
C22 C 0.0862(5) 0.0937(4) 0.2327(5)
C23 C 0.0692(5) 0.1619(4) 0.2705(5)
H22 H 0.0535(5) 0.2089(4) 0.2367(5)
C24 C 0.0745(5) 0.1636(4) 0.3564(5)
C25 C 0.0966(5) 0.0932(4) 0.4050(5)
C26 C 0.1176(5) 0.0234(4) 0.3719(5)
O7 O 0.1527(4) -0.0467(3) 0.4271(3)
C27 C 0.0902(6) -0.0828(5) 0.4198(6)
H23 H 0.0563(6) -0.0899(5) 0.3574(6)
H24 H 0.0452(6) -0.0502(5) 0.4377(6)
C28 C 0.1464(5) -0.1611(4) 0.4811(5)
C29 C 0.0985(6) -0.2047(4) 0.4912(5)
H25 H 0.0335(6) -0.1860(4) 0.4599(5)
C30 C 0.1489(6) -0.2757(5) 0.5479(6)
H26 H 0.1171(6) -0.3045(5) 0.5555(6)
C31 C 0.2463(5) -0.3054(4) 0.5943(5)
H27 H 0.2794(5) -0.3536(4) 0.6322(5)
C32 C 0.2937(5) -0.2618(4) 0.5832(5)
C33 C 0.2428(5) -0.1894(4) 0.5275(5)
H28 H 0.2742(5) -0.1595(4) 0.5214(5)
C34 C 0.3974(6) -0.2955(5) 0.6312(5)
H29 H 0.4198(6) -0.3393(5) 0.6038(5)
H30 H 0.4202(6) -0.3145(5) 0.6944(5)
O8 O 0.4317(3) -0.2358(3) 0.6250(3)
O9 O 0.0899(4) 0.0933(3) 0.4849(3)
C35 C 0.1689(8) 0.0513(7) 0.5676(8)
H31 H 0.1549(8) 0.0090(7) 0.5840(8)
H32 H 0.2189(8) 0.0268(7) 0.5525(8)
C36 C 0.2055(18) 0.0769(15) 0.6402(17)
H33 H 0.2514(18) 0.0322(15) 0.6873(17)
H34 H 0.1571(18) 0.1030(15) 0.6568(17)
C37 C 0.2504(12) 0.1295(9) 0.6419(11)
H35 H 0.2784(12) 0.1426(9) 0.7024(11)
H36 H 0.2994(12) 0.1055(9) 0.6254(11)
O10 O 0.1848(4) 0.1943(3) 0.5819(4)
C38 C 0.2074(5) 0.2325(4) 0.5310(5)
C39 C 0.1462(5) 0.2579(4) 0.4391(5)
C40 C 0.1696(5) 0.3006(4) 0.3908(5)
H37 H 0.1303(5) 0.3167(4) 0.3287(5)
C41 C 0.2485(5) 0.3199(4) 0.4315(5)
C42 C 0.3078(5) 0.2931(4) 0.5233(5)
C43 C 0.7135(5) -0.2510(4) 0.4268(5)
O11 O 0.3854(4) 0.3128(3) 0.5668(4)
C44 C 0.4717(10) 0.2696(9) 0.6241(10)
H38 H 0.4813(10) 0.2151(9) 0.6185(10)
H39 H 0.4819(10) 0.2760(9) 0.6853(10)
C45 C 0.5419(10) 0.2887(8) 0.6104(9)
H40 H 0.5309(10) 0.3438(8) 0.6126(9)
H41 H 0.6042(10) 0.2585(8) 0.6588(9)
C46 C 0.5365(8) 0.2728(6) 0.5331(7)
H42 H 0.5267(8) 0.2238(6) 0.5243(7)
H43 H 0.5967(8) 0.2640(6) 0.5367(7)
O12 O 0.4667(3) 0.3285(3) 0.4546(3)
C47 C 0.4239(5) 0.2993(4) 0.3762(5)
C48 C 0.3261(5) 0.3203(4) 0.3347(5)
C49 C 0.2833(6) 0.2955(4) 0.2543(5)
H44 H 0.2192(6) 0.3076(4) 0.2281(5)
C50 C 0.3314(5) 0.2527(4) 0.2089(5)
C51 C 0.4271(5) 0.2343(4) 0.2511(5)
C52 C 0.5278(5) -0.2576(4) 0.6667(5)
C53 C 0.2713(5) 0.3689(4) 0.3797(5)
H45 H 0.3125(5) 0.3918(4) 0.4250(5)
C54 C 0.1839(5) 0.4386(4) 0.3115(5)
H46 H 0.2017(5) 0.4644(4) 0.2764(5)
H47 H 0.1379(5) 0.4187(4) 0.2696(5)
C55 C 0.1396(5) 0.4981(4) 0.3570(5)
H48 H 0.1244(5) 0.4717(4) 0.3941(5)
H49 H 0.1850(5) 0.5194(4) 0.3972(5)
C56 C 0.0522(6) 0.5648(5) 0.2918(6)
H50 H 0.0037(6) 0.5446(5) 0.2569(6)
H51 H 0.0652(6) 0.5873(5) 0.2496(6)
C57 C 0.0164(6) 0.6286(5) 0.3393(6)
H52 H 0.0642(6) 0.6498(5) 0.3729(6)
H53 H 0.0049(6) 0.6059(5) 0.3826(6)
C58 C -0.0736(8) 0.6950(6) 0.2731(7)
H54 H -0.0956(31) 0.7321(24) 0.3064(8)
H55 H -0.1205(19) 0.6740(9) 0.2379(38)
H56 H -0.0614(14) 0.7206(30) 0.2332(35)
C59 C 0.0582(5) 0.2398(4) 0.3945(5)
H57 H 0.0441(5) 0.2311(4) 0.4431(5)
C60 C -0.0273(5) 0.3074(4) 0.3253(5)
H58 H -0.0820(5) 0.2937(4) 0.3052(5)
H59 H -0.0191(5) 0.3144(4) 0.2727(5)
C61 C -0.0455(5) 0.3852(4) 0.3617(5)
H60 H -0.0400(5) 0.3761(4) 0.4212(5)
H61 H 0.0017(5) 0.4055(4) 0.3685(5)
C62 C -0.1414(5) 0.4453(4) 0.2994(5)
H62 H -0.1511(5) 0.4468(4) 0.2376(5)
H63 H -0.1883(5) 0.4291(4) 0.3016(5)
C63 C -0.1551(6) 0.5265(5) 0.3237(6)
H64 H -0.1090(6) 0.5428(5) 0.3198(6)
H65 H -0.2165(6) 0.5622(5) 0.2787(6)
C64 C -0.1473(7) 0.5345(6) 0.4161(7)
H66 H -0.1617(51) 0.5885(9) 0.4238(20)
H67 H -0.0847(16) 0.5039(35) 0.4617(7)
H68 H -0.1906(38) 0.5163(41) 0.4219(19)
C65 C 0.0738(5) 0.0948(4) 0.1365(5)
H69 H 0.0637(5) 0.0470(4) 0.1161(5)
C66 C -0.0115(5) 0.1646(4) 0.0683(5)
H70 H -0.0045(5) 0.2127(4) 0.0889(5)
H71 H -0.0122(5) 0.1636(4) 0.0100(5)
C67 C -0.1034(6) 0.1658(5) 0.0552(6)
H72 H -0.1028(6) 0.1663(5) 0.1134(6)
H73 H -0.1113(6) 0.1182(5) 0.0334(6)
C68 C -0.1863(5) 0.2364(5) -0.0118(5)
H74 H -0.1822(5) 0.2836(5) 0.0137(5)
H75 H -0.1822(5) 0.2395(5) -0.0674(5)
C69 C -0.2792(6) 0.2336(5) -0.0343(6)
H76 H -0.2863(6) 0.2363(5) 0.0200(6)
H77 H -0.2808(6) 0.1839(5) -0.0537(6)
C70 C -0.3607(7) 0.2994(6) -0.1084(7)
H78 H -0.4184(7) 0.2960(25) -0.1182(35)
H79 H -0.3563(28) 0.2950(25) -0.1636(15)
H80 H -0.3588(29) 0.3488(6) -0.0902(22)
C71 C 0.2795(6) 0.2291(4) 0.1169(5)
H81 H 0.3218(6) 0.2157(4) 0.0903(5)
C72 C 0.1914(6) 0.2976(4) 0.0507(5)
H82 H 0.1595(6) 0.2792(4) -0.0052(5)
H83 H 0.1495(6) 0.3151(4) 0.0769(5)
C73 C 0.2105(6) 0.3671(5) 0.0282(6)
H84 H 0.2531(6) 0.3788(5) 0.0842(6)
H85 H 0.2415(6) 0.3525(5) -0.0089(6)
C74 C 0.1238(6) 0.4402(5) -0.0215(6)
H86 H 0.0810(6) 0.4279(5) -0.0769(6)
H87 H 0.0934(6) 0.4547(5) 0.0161(6)
C75 C 0.1397(7) 0.5095(5) -0.0459(7)
H88 H 0.1844(7) 0.5204(5) 0.0093(7)
H89 H 0.1682(7) 0.4954(5) -0.0851(7)
C76 C 0.0564(7) 0.5822(6) -0.0915(7)
H90 H 0.0730(14) 0.6206(16) -0.1107(47)
H91 H 0.0328(33) 0.6017(25) -0.0501(18)
H92 H 0.0090(21) 0.5715(11) -0.1435(31)
C38A C 0.7926(5) -0.2325(4) 0.4690(5)
O10A O 0.8152(4) -0.1943(3) 0.4181(4)
C37A C 0.7496(12) -0.1295(9) 0.3581(11)
C36A C 0.7945(18) -0.0769(15) 0.3598(17)
C35A C 0.8311(8) -0.0513(7) 0.4324(8)
O9A O 0.9101(4) -0.0933(3) 0.5151(3)
C25A C 0.9034(5) -0.0932(4) 0.5950(5)
C24A C 0.9255(5) -0.1636(4) 0.6436(5)
C23A C 0.9308(5) -0.1619(4) 0.7295(5)
C22A C 0.9138(5) -0.0937(4) 0.7673(5)
C21A C 0.8870(5) -0.0245(4) 0.7136(5)
O6A O 0.8701(4) 0.0445(3) 0.7486(4)
C20A C 0.8061(12) 0.1144(10) 0.7042(12)
C19A C 0.7710(13) 0.1528(10) 0.7670(12)
C18A C 0.7360(7) 0.1080(6) 0.7960(7)
O5A O 0.7969(4) 0.0459(3) 0.8705(4)
C8A C 0.7740(5) -0.0191(4) 0.8656(5)
C7A C 0.8385(5) -0.0922(4) 0.8645(5)
C6A C 0.8165(5) -0.1569(4) 0.8690(5)
C5A C 0.7403(6) -0.1567(4) 0.8747(5)
C4A C 0.6767(6) -0.0831(5) 0.8716(6)
O2A O 0.6177(9) -0.0874(8) 0.9107(10)
C3A C 0.5240(17) -0.0372(14) 0.8508(15)
C2A C 0.5035(7) -0.0624(6) 0.7622(7)
C1A C 0.4563(6) -0.1205(5) 0.7553(6)
O1A O 0.5237(3) -0.1987(3) 0.7948(3)
C51A C 0.5729(5) -0.2343(4) 0.7489(5)
C50A C 0.6686(5) -0.2527(4) 0.7911(5)
C49A C 0.7167(6) -0.2955(4) 0.7457(5)
C48A C 0.6739(5) -0.3203(4) 0.6653(5)
C47A C 0.5761(5) -0.2993(4) 0.6238(5)
O12A O 0.5333(3) -0.3285(3) 0.5454(3)
C46A C 0.4635(8) -0.2728(6) 0.4669(7)
C45A C 0.4581(10) -0.2887(8) 0.3896(9)
C44A C 0.5283(10) -0.2696(9) 0.3759(10)
O11A O 0.6146(4) -0.3128(3) 0.4332(4)
C42A C 0.6922(5) -0.2931(4) 0.4767(5)
C41A C 0.7515(5) -0.3199(4) 0.5685(5)
C40A C 0.8304(5) -0.3006(4) 0.6092(5)
C39A C 0.8538(5) -0.2579(4) 0.5609(5)
C59A C 0.9418(5) -0.2398(4) 0.6055(5)
H57A H 0.9559(5) -0.2311(4) 0.5569(5)
C60A C 1.0273(5) -0.3074(4) 0.6747(5)
H58A H 1.0820(5) -0.2937(4) 0.6948(5)
H59A H 1.0191(5) -0.3144(4) 0.7273(5)
C61A C 1.0455(5) -0.3852(4) 0.6383(5)
H60A H 1.0400(5) -0.3761(4) 0.5788(5)
H61A H 0.9983(5) -0.4055(4) 0.6315(5)
C62A C 1.1414(5) -0.4453(4) 0.7006(5)
H62A H 1.1511(5) -0.4468(4) 0.7624(5)
H63A H 1.1883(5) -0.4291(4) 0.6984(5)
C63A C 1.1551(6) -0.5265(5) 0.6763(6)
H64A H 1.1090(6) -0.5428(5) 0.6802(6)
H65A H 1.2165(6) -0.5622(5) 0.7213(6)
C64A C 1.1473(7) -0.5345(6) 0.5839(7)
H66A H 1.1617(51) -0.5885(9) 0.5762(20)
H67A H 1.0847(16) -0.5039(35) 0.5383(7)
H68A H 1.1906(38) -0.5163(41) 0.5781(19)
H37A H 0.8697(5) -0.3167(4) 0.6713(5)
C53A C 0.7287(5) -0.3689(4) 0.6203(5)
H45A H 0.6875(5) -0.3918(4) 0.5750(5)
C54A C 0.8161(5) -0.4386(4) 0.6885(5)
H46A H 0.7983(5) -0.4644(4) 0.7236(5)
H47A H 0.8621(5) -0.4187(4) 0.7304(5)
C55A C 0.8604(5) -0.4981(4) 0.6430(5)
H48A H 0.8756(5) -0.4717(4) 0.6059(5)
H49A H 0.8150(5) -0.5194(4) 0.6028(5)
C56A C 0.9478(6) -0.5648(5) 0.7082(6)
H50A H 0.9963(6) -0.5446(5) 0.7431(6)
H51A H 0.9348(6) -0.5873(5) 0.7504(6)
C57A C 0.9836(6) -0.6286(5) 0.6607(6)
H52A H 0.9358(6) -0.6498(5) 0.6271(6)
H53A H 0.9951(6) -0.6059(5) 0.6174(6)
C58A C 1.0736(8) -0.6950(6) 0.7269(7)
H54A H 1.0956(31) -0.7321(24) 0.6936(8)
H55A H 1.1205(19) -0.6740(9) 0.7621(38)
H56A H 1.0614(14) -0.7206(30) 0.7668(35)
H38A H 0.5187(10) -0.2151(9) 0.3815(10)
H39A H 0.5181(10) -0.2760(9) 0.3147(10)
H40A H 0.4691(10) -0.3438(8) 0.3874(9)
H41A H 0.3958(10) -0.2585(8) 0.3412(9)
H42A H 0.4733(8) -0.2238(6) 0.4757(7)
H43A H 0.4033(8) -0.2640(6) 0.4633(7)
C43A C 0.2865(5) 0.2510(4) 0.5732(5)
O4A O 0.3478(4) 0.2230(3) 0.6644(3)
C17A C 0.3275(5) 0.2750(4) 0.7230(5)
C15A C 0.3977(5) 0.2372(4) 0.8191(5)
C14A C 0.3767(6) 0.2593(4) 0.8893(5)
C13A C 0.4406(6) 0.2236(5) 0.9778(6)
C12A C 0.5253(6) 0.1639(4) 0.9981(5)
C11A C 0.5453(5) 0.1405(4) 0.9280(5)
C10A C 0.6318(6) 0.0704(5) 0.9486(5)
O3A O 0.6333(4) 0.0567(3) 0.8655(4)
C9A C 0.6969(6) -0.0173(5) 0.8692(5)
H8A H 0.6309(6) 0.0251(5) 0.9761(5)
H9A H 0.6872(6) 0.0801(5) 0.9906(5)
C16A C 0.4826(5) 0.1773(4) 0.8403(5)
H13A H 0.4973(5) 0.1619(4) 0.7941(5)
H10A H 0.5681(6) 0.1399(4) 1.0579(5)
H11A H 0.4267(6) 0.2397(5) 1.0244(6)
H12A H 0.3195(6) 0.2983(4) 0.8764(5)
H14A H 0.3314(5) 0.3245(4) 0.7104(5)
H15A H 0.2647(5) 0.2852(4) 0.7132(5)
C52A C 0.4722(5) 0.2576(4) 0.3333(5)
O8A O 0.5683(3) 0.2358(3) 0.3750(3)
C34A C 0.6026(6) 0.2955(5) 0.3688(5)
C32A C 0.7063(5) 0.2618(4) 0.4168(5)
C31A C 0.7537(5) 0.3054(4) 0.4057(5)
C30A C 0.8511(6) 0.2757(5) 0.4521(6)
C29A C 0.9015(6) 0.2047(4) 0.5088(5)
C28A C 0.8536(5) 0.1611(4) 0.5189(5)
C27A C 0.9098(6) 0.0828(5) 0.5802(6)
O7A O 0.8473(4) 0.0467(3) 0.5729(3)
C26A C 0.8824(5) -0.0234(4) 0.6281(5)
H23A H 0.9437(6) 0.0899(5) 0.6426(6)
H24A H 0.9548(6) 0.0502(5) 0.5623(6)
C33A C 0.7572(5) 0.1894(4) 0.4725(5)
H28A H 0.7258(5) 0.1595(4) 0.4786(5)
H25A H 0.9665(6) 0.1860(4) 0.5401(5)
H26A H 0.8829(6) 0.3045(5) 0.4445(6)
H27A H 0.7206(5) 0.3536(4) 0.3678(5)
H29A H 0.5802(6) 0.3393(5) 0.3962(5)
H30A H 0.5798(6) 0.3145(5) 0.3056(5)
H44A H 0.7808(6) -0.3076(4) 0.7719(5)
C71A C 0.7205(6) -0.2291(4) 0.8831(5)
H81A H 0.6782(6) -0.2157(4) 0.9097(5)
C72A C 0.8086(6) -0.2976(4) 0.9493(5)
H82A H 0.8405(6) -0.2792(4) 1.0052(5)
H83A H 0.8505(6) -0.3151(4) 0.9231(5)
C73A C 0.7895(6) -0.3671(5) 0.9718(6)
H84A H 0.7469(6) -0.3788(5) 0.9158(6)
H85A H 0.7585(6) -0.3525(5) 1.0089(6)
C74A C 0.8762(6) -0.4402(5) 1.0215(6)
H86A H 0.9190(6) -0.4279(5) 1.0769(6)
H87A H 0.9066(6) -0.4547(5) 0.9839(6)
C75A C 0.8603(7) -0.5095(5) 1.0459(7)
H88A H 0.8156(7) -0.5204(5) 0.9907(7)
H89A H 0.8318(7) -0.4954(5) 1.0851(7)
C76A C 0.9436(7) -0.5822(6) 1.0915(7)
H90A H 0.9270(14) -0.6206(16) 1.1107(47)
H91A H 0.9672(33) -0.6017(25) 1.0501(18)
H92A H 0.9910(21) -0.5715(11) 1.1435(31)
H1A H 0.4148(6) -0.1194(5) 0.6919(6)
H2A H 0.4188(6) -0.1049(5) 0.7861(6)
H3A H 0.4622(7) -0.0180(6) 0.7136(7)
H4A H 0.5608(7) -0.0873(6) 0.7583(7)
H5A H 0.4814(17) -0.0427(14) 0.8708(15)
H6A H 0.5184(17) 0.0170(14) 0.8478(15)
H7A H 0.8575(5) -0.2050(4) 0.8681(5)
C65A C 0.9262(5) -0.0948(4) 0.8635(5)
H69A H 0.9363(5) -0.0470(4) 0.8839(5)
C66A C 1.0115(5) -0.1646(4) 0.9317(5)
H70A H 1.0045(5) -0.2127(4) 0.9111(5)
H71A H 1.0122(5) -0.1636(4) 0.9900(5)
C67A C 1.1034(6) -0.1658(5) 0.9448(6)
H72A H 1.1028(6) -0.1663(5) 0.8866(6)
H73A H 1.1113(6) -0.1182(5) 0.9666(6)
C68A C 1.1863(5) -0.2364(5) 1.0118(5)
H74A H 1.1822(5) -0.2836(5) 0.9863(5)
H75A H 1.1822(5) -0.2395(5) 1.0674(5)
C69A C 1.2792(6) -0.2336(5) 1.0343(6)
H76A H 1.2863(6) -0.2363(5) 0.9800(6)
H77A H 1.2808(6) -0.1839(5) 1.0537(6)
C70A C 1.3607(7) -0.2994(6) 1.1084(7)
H78A H 1.4184(7) -0.2960(25) 1.1182(35)
H79A H 1.3563(28) -0.2950(25) 1.1636(15)
H80A H 1.3588(29) -0.3488(6) 1.0902(22)
H16A H 0.6898(7) 0.1435(6) 0.8107(7)
H17A H 0.7026(7) 0.0857(6) 0.7444(7)
H18A H 0.7222(13) 0.2037(10) 0.7361(12)
H19A H 0.8218(13) 0.1607(10) 0.8192(12)
H20A H 0.8334(12) 0.1452(10) 0.6871(12)
H21A H 0.7551(12) 0.1093(10) 0.6496(12)
H22A H 0.9465(5) -0.2089(4) 0.7633(5)
H31A H 0.8451(8) -0.0090(7) 0.4160(8)
H32A H 0.7811(8) -0.0268(7) 0.4475(8)
H33A H 0.7486(18) -0.0322(15) 0.3127(17)
H34A H 0.8429(18) -0.1030(15) 0.3432(17)
H35A H 0.7216(12) -0.1426(9) 0.2976(11)
H36A H 0.7006(12) -0.1055(9) 0.3746(11)
C77 C 0.2331(8) 0.0388(6) -0.1583(7)
C78 C 0.1989(8) 0.0980(6) -0.1176(7)
H93 H 0.2274(8) 0.1341(6) -0.0969(7)
C79 C 0.1242(8) 0.1035(7) -0.1078(8)
H94 H 0.1030(8) 0.1419(7) -0.0777(8)
C80 C 0.0800(9) 0.0535(7) -0.1416(8)
H95 H 0.0280(9) 0.0583(7) -0.1349(8)
C81 C 0.1105(7) -0.0049(6) -0.1860(7)
H96 H 0.0791(7) -0.0389(6) -0.2088(7)
C82 C 0.1853(6) -0.0122(5) -0.1957(6)
O13 O 0.2237(5) -0.0683(4) -0.2364(5)
C83 C 0.1712(8) -0.1159(6) -0.2811(7)
H97 H 0.2049(26) -0.1548(29) -0.3049(46)
H98 H 0.1114(23) -0.0836(9) -0.3300(34)
H99 H 0.1620(47) -0.1413(36) -0.2385(15)
O14 O 0.3323(8) 0.0055(7) -0.1473(8)
C84 C 0.3890(12) 0.0513(10) -0.1062(12)
C85 C 0.6038(6) 0.4212(5) 0.1465(6)
C86 C 0.6231(7) 0.4171(6) 0.0753(7)
H100 H 0.6295(7) 0.3720(6) 0.0488(7)
C87 C 0.6330(8) 0.4801(7) 0.0426(8)
H101 H 0.6465(8) 0.4768(7) -0.0055(8)
C88 C 0.6232(7) 0.5463(6) 0.0800(7)
H102 H 0.6289(7) 0.5885(6) 0.0569(7)
C89 C 0.6043(6) 0.5514(5) 0.1536(6)
H103 H 0.5974(6) 0.5968(5) 0.1795(6)
C90 C 0.5961(6) 0.4883(5) 0.1867(6)
O15 O 0.5795(5) 0.4851(4) 0.2588(5)
C91 C 0.5766(8) 0.5509(6) 0.3070(8)
H104 H 0.5650(56) 0.5417(22) 0.3560(34)
H105 H 0.5275(37) 0.5974(10) 0.2662(15)
H106 H 0.6355(21) 0.5573(29) 0.3309(47)
O16 O 0.5915(5) 0.3634(4) 0.1821(4)
C92 C 0.5998(9) 0.2926(7) 0.1427(9)
H107 H 0.5878(64) 0.2572(23) 0.1727(43)
H108 H 0.6619(21) 0.2685(29) 0.1501(56)
H109 H 0.5552(45) 0.3049(10) 0.0792(16)
C93 C 0.2972(10) 0.5589(9) 0.2524(8)
C94 C 0.3702(8) 0.5395(9) 0.3410(10)
C95 C 0.3591(8) 0.5815(8) 0.4075(7)
C96 C 0.2750(10) 0.6430(8) 0.3854(8)
C97 C 0.2020(8) 0.6624(8) 0.2968(9)
C98 C 0.2131(9) 0.6203(8) 0.2303(7)
O17 O 0.1498(11) 0.6370(9) 0.1453(11)
C99 C 0.0680(19) 0.7004(16) 0.1232(18)
O18 O 0.3029(10) 0.5202(8) 0.1801(9)
C100 C 0.3774(12) 0.4613(9) 0.1978(12)
H110? H 0.4759(7) 0.0677(6) 0.2835(7)
H111? H 0.5419(7) 0.0096(6) 0.2507(7)
O19? O 0.4108(7) 0.0746(5) 0.1424(7)
H112? H 0.3290(7) -0.1182(6) 0.2215(7)
H113? H 0.2521(7) -0.1556(6) 0.1890(7)
C101? C 0.2407(12) -0.0778(10) 0.2843(12)
H114? H 0.2723(12) -0.1206(10) 0.3343(12)
H115? H 0.2647(12) -0.0368(10) 0.3063(12)
H116? H 0.1983(8) -0.0022(7) 0.5614(8)
H117? H 0.1519(8) 0.0507(7) 0.6153(8)
C102? C 0.2366(13) 0.0976(11) 0.5891(14)
H118? H 0.2619(13) 0.0885(11) 0.5470(14)
H119? H 0.2886(13) 0.0767(11) 0.6499(14)
C103? C 0.4707(11) 0.2384(9) 0.5672(11)
H120? H 0.4455(11) 0.2049(9) 0.5259(11)
H121? H 0.5107(11) 0.2079(9) 0.6277(11)
H122? H 0.5731(8) 0.2969(6) 0.5799(7)
H123? H 0.5781(8) 0.2306(6) 0.5188(7)
O20? O 0.2857(9) 0.0450(8) -0.1926(9)
C104? C 0.3183(16) 0.1096(13) -0.1696(15)
C105? C 0.3877(11) 0.5127(9) 0.4510(9)
C106? C 0.3340(14) 0.5791(11) 0.4699(10)
C107? C 0.2690(14) 0.6426(10) 0.4014(13)
C108? C 0.2578(12) 0.6397(8) 0.3138(11)
C109? C 0.3114(12) 0.5732(10) 0.2949(9)
C110? C 0.3764(11) 0.5097(8) 0.3634(11)
O21? O 0.1973(21) 0.6935(18) 0.2333(20)
C111? C 0.1268(26) 0.7445(22) 0.2482(25)
O22? O 0.3045(19) 0.5680(16) 0.2111(14)
C112? C 0.3610(53) 0.4856(31) 0.1993(45)
C113? C 0.4878(12) 0.0354(8) 0.4769(11)
C114? C 0.5373(17) 0.0561(15) 0.4571(17)
C115? C 0.6314(12) 0.0121(11) 0.5201(12)
C116? C 0.6630(13) -0.0568(10) 0.5684(12)
C117? C 0.3896(16) 0.0891(14) 0.4333(16)
O23? O 0.5453(26) 0.0860(21) 0.4787(24)
C118? C 0.6305(24) 0.0563(20) 0.4991(22)
O24? O 0.3787(22) 0.0518(20) 0.4064(22)
C119? C 0.6605(15) -0.1278(12) 0.6249(14)
loop_
_geom_bond_atom_site_label_1
_geom_bond_atom_site_label_2
_geom_bond_site_symmetry_1
_geom_bond_site_symmetry_2
O1 C1 1_555 1_555
C1 H1 1_555 1_555
H2 C1 1_555 1_555
C2 C1 1_555 1_555
H3 C2 1_555 1_555
H4 C2 1_555 1_555
C3 C2 1_555 1_555
H5 C3 1_555 1_555
H6 C3 1_555 1_555
O2 C3 1_555 1_555
C4 O2 1_555 1_555
C5 C4 1_555 1_555
C6 C5 1_555 1_555
H7 C6 1_555 1_555
C7 C6 1_555 1_555
C8 C7 1_555 1_555
C9 C4 1_555 1_555
O3 C9 1_555 1_555
C10 O3 1_555 1_555
H8 C10 1_555 1_555
H9 C10 1_555 1_555
C11 C10 1_555 1_555
C12 C11 1_555 1_555
H10 C12 1_555 1_555
C13 C12 1_555 1_555
H11 C13 1_555 1_555
C14 C13 1_555 1_555
H12 C14 1_555 1_555
C15 C14 1_555 1_555
C16 C11 1_555 1_555
H13 C16 1_555 1_555
C17 C15 1_555 1_555
H14 C17 1_555 1_555
H15 C17 1_555 1_555
O4 C17 1_555 1_555
O5 C8 1_555 1_555
C18 O5 1_555 1_555
H16 C18 1_555 1_555
H17 C18 1_555 1_555
C19 C18 1_555 1_555
H18 C19 1_555 1_555
H19 C19 1_555 1_555
C20 C19 1_555 1_555
H20 C20 1_555 1_555
H21 C20 1_555 1_555
O6 C20 1_555 1_555
C21 O6 1_555 1_555
C22 C21 1_555 1_555
C23 C22 1_555 1_555
H22 C23 1_555 1_555
C24 C23 1_555 1_555
C25 C24 1_555 1_555
C26 C21 1_555 1_555
O7 C26 1_555 1_555
C27 O7 1_555 1_555
H23 C27 1_555 1_555
H24 C27 1_555 1_555
C28 C27 1_555 1_555
C29 C28 1_555 1_555
H25 C29 1_555 1_555
C30 C29 1_555 1_555
H26 C30 1_555 1_555
C31 C30 1_555 1_555
H27 C31 1_555 1_555
C32 C31 1_555 1_555
C33 C28 1_555 1_555
H28 C33 1_555 1_555
C34 C32 1_555 1_555
H29 C34 1_555 1_555
H30 C34 1_555 1_555
O8 C34 1_555 1_555
O9 C25 1_555 1_555
C35 O9 1_555 1_555
H31 C35 1_555 1_555
H32 C35 1_555 1_555
C36 C35 1_555 1_555
H33 C36 1_555 1_555
H34 C36 1_555 1_555
C37 C36 1_555 1_555
H35 C37 1_555 1_555
H36 C37 1_555 1_555
O10 C37 1_555 1_555
C38 O10 1_555 1_555
C39 C38 1_555 1_555
C40 C39 1_555 1_555
H37 C40 1_555 1_555
C41 C40 1_555 1_555
C42 C41 1_555 1_555
C43 O4 1_555 1_555
O11 C42 1_555 1_555
C44 O11 1_555 1_555
H38 C44 1_555 1_555
H39 C44 1_555 1_555
C45 C44 1_555 1_555
H40 C45 1_555 1_555
H41 C45 1_555 1_555
C46 C45 1_555 1_555
H42 C46 1_555 1_555
H43 C46 1_555 1_555
O12 C46 1_555 1_555
C47 O12 1_555 1_555
C48 C47 1_555 1_555
C49 C48 1_555 1_555
H44 C49 1_555 1_555
C50 C49 1_555 1_555
C51 O1 1_555 1_555
C52 O8 1_555 1_555
C53 C41 1_555 1_555
H45 C53 1_555 1_555
C54 C53 1_555 1_555
H46 C54 1_555 1_555
H47 C54 1_555 1_555
C55 C54 1_555 1_555
H48 C55 1_555 1_555
H49 C55 1_555 1_555
C56 C55 1_555 1_555
H50 C56 1_555 1_555
H51 C56 1_555 1_555
C57 C56 1_555 1_555
H52 C57 1_555 1_555
H53 C57 1_555 1_555
C58 C57 1_555 1_555
H54 C58 1_555 1_555
H55 C58 1_555 1_555
H56 C58 1_555 1_555
C59 C24 1_555 1_555
H57 C59 1_555 1_555
C60 C59 1_555 1_555
H58 C60 1_555 1_555
H59 C60 1_555 1_555
C61 C60 1_555 1_555
H60 C61 1_555 1_555
H61 C61 1_555 1_555
C62 C61 1_555 1_555
H62 C62 1_555 1_555
H63 C62 1_555 1_555
C63 C62 1_555 1_555
H64 C63 1_555 1_555
H65 C63 1_555 1_555
C64 C63 1_555 1_555
H66 C64 1_555 1_555
H67 C64 1_555 1_555
H68 C64 1_555 1_555
C65 C7 1_555 1_555
H69 C65 1_555 1_555
C66 C65 1_555 1_555
H70 C66 1_555 1_555
H71 C66 1_555 1_555
C67 C66 1_555 1_555
H72 C67 1_555 1_555
H73 C67 1_555 1_555
C68 C67 1_555 1_555
H74 C68 1_555 1_555
H75 C68 1_555 1_555
C69 C68 1_555 1_555
H76 C69 1_555 1_555
H77 C69 1_555 1_555
C70 C69 1_555 1_555
H78 C70 1_555 1_555
H79 C70 1_555 1_555
H80 C70 1_555 1_555
C71 C5 1_555 1_555
H81 C71 1_555 1_555
C72 C71 1_555 1_555
H82 C72 1_555 1_555
H83 C72 1_555 1_555
C73 C72 1_555 1_555
H84 C73 1_555 1_555
H85 C73 1_555 1_555
C74 C73 1_555 1_555
H86 C74 1_555 1_555
H87 C74 1_555 1_555
C75 C74 1_555 1_555
H88 C75 1_555 1_555
H89 C75 1_555 1_555
C76 C75 1_555 1_555
H90 C76 1_555 1_555
H91 C76 1_555 1_555
H92 C76 1_555 1_555
C77 C78 1_555 1_555
C78 H93 1_555 1_555
C79 C78 1_555 1_555
H94 C79 1_555 1_555
C80 C79 1_555 1_555
H95 C80 1_555 1_555
C81 C80 1_555 1_555
H96 C81 1_555 1_555
C82 C77 1_555 1_555
O13 C82 1_555 1_555
C83 O13 1_555 1_555
H97 C83 1_555 1_555
H98 C83 1_555 1_555
H99 C83 1_555 1_555
O14 C77 1_555 1_555
C84 O14 1_555 1_555
C85 C86 1_555 1_555
C86 H100 1_555 1_555
C87 C86 1_555 1_555
H101 C87 1_555 1_555
C88 C87 1_555 1_555
H102 C88 1_555 1_555
C89 C88 1_555 1_555
H103 C89 1_555 1_555
C90 C85 1_555 1_555
O15 C90 1_555 1_555
C91 O15 1_555 1_555
H104 C91 1_555 1_555
H105 C91 1_555 1_555
H106 C91 1_555 1_555
O16 C85 1_555 1_555
C92 O16 1_555 1_555
H107 C92 1_555 1_555
H108 C92 1_555 1_555
H109 C92 1_555 1_555
C93 C94 1_555 1_555
C94 C95 1_555 1_555
C95 C96 1_555 1_555
C96 C97 1_555 1_555
C97 C98 1_555 1_555
C98 C93 1_555 1_555
O17 C98 1_555 1_555
C99 O17 1_555 1_555
O18 C93 1_555 1_555
C100 O18 1_555 1_555
C38A C43 1_555 1_555
O10A C38A 1_555 1_555
C37A O10A 1_555 1_555
C36A C37A 1_555 1_555
C35A C36A 1_555 1_555
O9A C35A 1_555 1_555
C25A O9A 1_555 1_555
C24A C25A 1_555 1_555
C23A C24A 1_555 1_555
C22A C23A 1_555 1_555
C21A C22A 1_555 1_555
O6A C21A 1_555 1_555
C20A O6A 1_555 1_555
C19A C20A 1_555 1_555
C18A C19A 1_555 1_555
O5A C18A 1_555 1_555
C8A O5A 1_555 1_555
C7A C8A 1_555 1_555
C6A C7A 1_555 1_555
C5A C6A 1_555 1_555
C4A C5A 1_555 1_555
O2A C4A 1_555 1_555
C3A O2A 1_555 1_555
C2A C3A 1_555 1_555
C1A C2A 1_555 1_555
O1A C1A 1_555 1_555
C51A C52 1_555 1_555
C50A C51A 1_555 1_555
C49A C50A 1_555 1_555
C48A C49A 1_555 1_555
C47A C52 1_555 1_555
O12A C47A 1_555 1_555
C46A O12A 1_555 1_555
C45A C46A 1_555 1_555
C44A C45A 1_555 1_555
O11A C44A 1_555 1_555
C42A C43 1_555 1_555
C41A C42A 1_555 1_555
C40A C41A 1_555 1_555
C39A C38A 1_555 1_555
C59A C24A 1_555 1_555
H57A C59A 1_555 1_555
C60A C59A 1_555 1_555
H58A C60A 1_555 1_555
H59A C60A 1_555 1_555
C61A C60A 1_555 1_555
H60A C61A 1_555 1_555
H61A C61A 1_555 1_555
C62A C61A 1_555 1_555
H62A C62A 1_555 1_555
H63A C62A 1_555 1_555
C63A C62A 1_555 1_555
H64A C63A 1_555 1_555
H65A C63A 1_555 1_555
C64A C63A 1_555 1_555
H66A C64A 1_555 1_555
H67A C64A 1_555 1_555
H68A C64A 1_555 1_555
H37A C40A 1_555 1_555
C53A C48A 1_555 1_555
H45A C53A 1_555 1_555
C54A C53A 1_555 1_555
H46A C54A 1_555 1_555
H47A C54A 1_555 1_555
C55A C54A 1_555 1_555
H48A C55A 1_555 1_555
H49A C55A 1_555 1_555
C56A C55A 1_555 1_555
H50A C56A 1_555 1_555
H51A C56A 1_555 1_555
C57A C56A 1_555 1_555
H52A C57A 1_555 1_555
H53A C57A 1_555 1_555
C58A C57A 1_555 1_555
H54A C58A 1_555 1_555
H55A C58A 1_555 1_555
H56A C58A 1_555 1_555
H38A C44A 1_555 1_555
H39A C44A 1_555 1_555
H40A C45A 1_555 1_555
H41A C45A 1_555 1_555
H42A C46A 1_555 1_555
H43A C46A 1_555 1_555
C43A C38 1_555 1_555
O4A C43A 1_555 1_555
C17A O4A 1_555 1_555
C15A C17A 1_555 1_555
C14A C15A 1_555 1_555
C13A C14A 1_555 1_555
C12A C13A 1_555 1_555
C11A C12A 1_555 1_555
C10A C11A 1_555 1_555
O3A C10A 1_555 1_555
C9A C8A 1_555 1_555
H8A C10A 1_555 1_555
H9A C10A 1_555 1_555
C16A C15A 1_555 1_555
H13A C16A 1_555 1_555
H10A C12A 1_555 1_555
H11A C13A 1_555 1_555
H12A C14A 1_555 1_555
H14A C17A 1_555 1_555
H15A C17A 1_555 1_555
C52A C47 1_555 1_555
O8A C52A 1_555 1_555
C34A O8A 1_555 1_555
C32A C34A 1_555 1_555
C31A C32A 1_555 1_555
C30A C31A 1_555 1_555
C29A C30A 1_555 1_555
C28A C29A 1_555 1_555
C27A C28A 1_555 1_555
O7A C27A 1_555 1_555
C26A C25A 1_555 1_555
H23A C27A 1_555 1_555
H24A C27A 1_555 1_555
C33A C32A 1_555 1_555
H28A C33A 1_555 1_555
H25A C29A 1_555 1_555
H26A C30A 1_555 1_555
H27A C31A 1_555 1_555
H29A C34A 1_555 1_555
H30A C34A 1_555 1_555
H44A C49A 1_555 1_555
C71A C5A 1_555 1_555
H81A C71A 1_555 1_555
C72A C71A 1_555 1_555
H82A C72A 1_555 1_555
H83A C72A 1_555 1_555
C73A C72A 1_555 1_555
H84A C73A 1_555 1_555
H85A C73A 1_555 1_555
C74A C73A 1_555 1_555
H86A C74A 1_555 1_555
H87A C74A 1_555 1_555
C75A C74A 1_555 1_555
H88A C75A 1_555 1_555
H89A C75A 1_555 1_555
C76A C75A 1_555 1_555
H90A C76A 1_555 1_555
H91A C76A 1_555 1_555
H92A C76A 1_555 1_555
H1A C1A 1_555 1_555
H2A C1A 1_555 1_555
H3A C2A 1_555 1_555
H4A C2A 1_555 1_555
H5A C3A 1_555 1_555
H6A C3A 1_555 1_555
H7A C6A 1_555 1_555
C65A C22A 1_555 1_555
H69A C65A 1_555 1_555
C66A C65A 1_555 1_555
H70A C66A 1_555 1_555
H71A C66A 1_555 1_555
C67A C66A 1_555 1_555
H72A C67A 1_555 1_555
H73A C67A 1_555 1_555
C68A C67A 1_555 1_555
H74A C68A 1_555 1_555
H75A C68A 1_555 1_555
C69A C68A 1_555 1_555
H76A C69A 1_555 1_555
H77A C69A 1_555 1_555
C70A C69A 1_555 1_555
H78A C70A 1_555 1_555
H79A C70A 1_555 1_555
H80A C70A 1_555 1_555
H16A C18A 1_555 1_555
H17A C18A 1_555 1_555
H18A C19A 1_555 1_555
H19A C19A 1_555 1_555
H20A C20A 1_555 1_555
H21A C20A 1_555 1_555
H22A C23A 1_555 1_555
H31A C35A 1_555 1_555
H32A C35A 1_555 1_555
H33A C36A 1_555 1_555
H34A C36A 1_555 1_555
H35A C37A 1_555 1_555
H36A C37A 1_555 1_555
C8 C9 1_555 1_555
C15 C16 1_555 1_555
C22 C65 1_555 1_555
C25 C26 1_555 1_555
C32 C33 1_555 1_555
C39 C59 1_555 1_555
C42 C43A 1_555 1_555
C48 C53 1_555 1_555
C50 C51 1_555 1_555
C50 C71 1_555 1_555
C51 C52A 1_555 1_555
C81 C82 1_555 1_555
C89 C90 1_555 1_555
C21A C26A 1_555 1_555
C7A C65A 1_555 1_555
C4A C9A 1_555 1_555
O1A C51A 1_555 1_555
C50A C71A 1_555 1_555
C48A C47A 1_555 1_555
O11A C42A 1_555 1_555
C41A C53A 1_555 1_555
C40A C39A 1_555 1_555
C39A C59A 1_555 1_555
C11A C16A 1_555 1_555
O3A C9A 1_555 1_555
C28A C33A 1_555 1_555
O7A C26A 1_555 1_555

#END
