
#######################################################################
#
#                 Cambridge Crystallographic Data Centre
#                                CCDC 
#
#######################################################################
#
# If this CIF has been generated from an entry in the Cambridge 
# Structural Database, then it will include bibliographic, chemical, 
# crystal, experimental, refinement or atomic coordinate data resulting 
# from the CCDC's data processing and validation procedures.
#
#######################################################################

data_RAGZEH
_chemical_formula_moiety         'C21 H24 O6'
_chemical_name_systematic        
8-ethyl-5-(4-hydroxy-5,6-dimethyl-2-oxo-2H-pyran-3-yl)-2,3,8-trimethyl-5,8-dihydro-4H-chromene-4,7(6H)-dione
_symmetry_cell_setting           orthorhombic
_symmetry_space_group_name_H-M   'P 21 21 21'
_symmetry_Int_Tables_number      19
_space_group_name_Hall           'P 2ac 2ab'
loop_
_symmetry_equiv_pos_site_id
_symmetry_equiv_pos_as_xyz
1 x,y,z
2 1/2-x,-y,1/2+z
3 1/2+x,1/2-y,-z
4 -x,1/2+y,1/2-z
_cell_length_a                   9.19026(18)
_cell_length_b                   10.61181(16)
_cell_length_c                   18.8774(3)
_cell_angle_alpha                90
_cell_angle_beta                 90
_cell_angle_gamma                90
_cell_volume                     1841.02
_cell_formula_units_Z            4
loop_
_atom_site_label
_atom_site_type_symbol
_atom_site_fract_x
_atom_site_fract_y
_atom_site_fract_z
O1 O -0.11789(12) -0.11957(11) -0.07192(6)
O2 O -0.51777(13) 0.22559(11) 0.08070(6)
H1 H -0.4761 0.2139 0.0429
O3 O -0.42037(12) 0.15092(11) -0.04079(6)
O4 O 0.07095(13) -0.06832(12) 0.15904(6)
O5 O -0.45635(13) -0.07122(11) 0.21399(6)
O6 O -0.25482(13) -0.12984(11) 0.15933(6)
C1 C -0.31680(17) -0.00049(16) -0.11719(8)
C2 C -0.00973(17) -0.10932(15) 0.04146(8)
C3 C -0.23355(17) 0.09850(14) 0.07486(8)
H2 H -0.2477 0.1878 0.0635
C4 C -0.59603(18) 0.10577(16) 0.17898(8)
C5 C -0.22530(17) 0.03046(14) 0.00455(8)
C6 C -0.12504(17) -0.05926(15) -0.00869(8)
C7 C -0.48901(18) 0.12970(15) 0.12480(8)
C8 C -0.21392(18) -0.09110(15) -0.12457(8)
C9 C -0.36287(17) 0.06036(15) 0.12033(8)
C10 C -0.35050(17) -0.05099(15) 0.16288(8)
C11 C -0.42612(19) 0.02629(16) -0.17490(8)
H3 H -0.4797 -0.0491 -0.1854
H4 H -0.3762 0.0542 -0.2167
H5 H -0.4920 0.0908 -0.1593
C12 C -0.08675(17) 0.09010(15) 0.11446(8)
H6 H -0.0230 0.1548 0.0956
H7 H -0.1041 0.1101 0.1639
C13 C -0.00717(17) -0.03381(15) 0.11126(8)
C14 C -0.03859(19) -0.24965(15) 0.05749(9)
H8 H -0.0270 -0.2981 0.0149
H9 H -0.1360 -0.2595 0.0750
H10 H 0.0292 -0.2787 0.0926
C15 C 0.14366(18) -0.09942(16) 0.00740(9)
H11 H 0.2138 -0.1356 0.0400
H12 H 0.1446 -0.1505 -0.0352
C16 C -0.32691(16) 0.06617(15) -0.05059(8)
C17 C 0.19440(19) 0.03292(17) -0.01193(9)
H13 H 0.2013 0.0831 0.0302
H14 H 0.1258 0.0706 -0.0439
H15 H 0.2881 0.0284 -0.0343
C18 C -0.19306(19) -0.17620(16) -0.18660(8)
H16 H -0.2520 -0.2502 -0.1808
H17 H -0.0925 -0.2002 -0.1898
H18 H -0.2212 -0.1330 -0.2291
C19 C -0.57277(18) 0.00808(17) 0.22272(8)
C20 C -0.72439(19) 0.19262(16) 0.18645(9)
H19 H -0.7666 0.2075 0.1407
H20 H -0.6930 0.2712 0.2065
H21 H -0.7956 0.1546 0.2169
C21 C -0.66312(19) -0.02953(18) 0.28524(9)
H22 H -0.6158 -0.0969 0.3101
H23 H -0.7571 -0.0571 0.2693
H24 H -0.6744 0.0414 0.3164
loop_
_geom_bond_atom_site_label_1
_geom_bond_atom_site_label_2
_geom_bond_site_symmetry_1
_geom_bond_site_symmetry_2
O1 C6 1_555 1_555
O2 H1 1_555 1_555
O3 C16 1_555 1_555
O4 C13 1_555 1_555
O5 C10 1_555 1_555
O6 C10 1_555 1_555
C1 C8 1_555 1_555
C2 C6 1_555 1_555
C3 H2 1_555 1_555
C4 C7 1_555 1_555
C5 C3 1_555 1_555
C6 C5 1_555 1_555
C7 O2 1_555 1_555
C8 O1 1_555 1_555
C9 C3 1_555 1_555
C10 C9 1_555 1_555
C11 C1 1_555 1_555
H3 C11 1_555 1_555
H4 C11 1_555 1_555
H5 C11 1_555 1_555
C12 C3 1_555 1_555
H6 C12 1_555 1_555
H7 C12 1_555 1_555
C13 C2 1_555 1_555
C14 C2 1_555 1_555
H8 C14 1_555 1_555
H9 C14 1_555 1_555
H10 C14 1_555 1_555
C15 C2 1_555 1_555
H11 C15 1_555 1_555
H12 C15 1_555 1_555
C16 C1 1_555 1_555
C17 C15 1_555 1_555
H13 C17 1_555 1_555
H14 C17 1_555 1_555
H15 C17 1_555 1_555
C18 C8 1_555 1_555
H16 C18 1_555 1_555
H17 C18 1_555 1_555
H18 C18 1_555 1_555
C19 O5 1_555 1_555
C20 C4 1_555 1_555
H19 C20 1_555 1_555
H20 C20 1_555 1_555
H21 C20 1_555 1_555
C21 C19 1_555 1_555
H22 C21 1_555 1_555
H23 C21 1_555 1_555
H24 C21 1_555 1_555
C4 C19 1_555 1_555
C5 C16 1_555 1_555
C7 C9 1_555 1_555
C12 C13 1_555 1_555

#END
