
#######################################################################
#
#                 Cambridge Crystallographic Data Centre
#                                CCDC 
#
#######################################################################
#
# If this CIF has been generated from an entry in the Cambridge 
# Structural Database, then it will include bibliographic, chemical, 
# crystal, experimental, refinement or atomic coordinate data resulting 
# from the CCDC's data processing and validation procedures.
#
#######################################################################

data_RAHJAO
_chemical_formula_moiety         'C17 H11 F3 N2 O2'
_chemical_name_systematic        
'methyl 3-amino-4-cyano-1-(trifluoromethyl)-9H-fluorene-2-carboxylate'
_symmetry_cell_setting           triclinic
_symmetry_space_group_name_H-M   'P -1'
_symmetry_Int_Tables_number      2
_space_group_name_Hall           '-P 1'
loop_
_symmetry_equiv_pos_site_id
_symmetry_equiv_pos_as_xyz
1 x,y,z
2 -x,-y,-z
_cell_length_a                   7.834(14)
_cell_length_b                   8.279(15)
_cell_length_c                   11.74(2)
_cell_angle_alpha                103.77(2)
_cell_angle_beta                 90.74(2)
_cell_angle_gamma                91.26(2)
_cell_volume                     739.237
_cell_formula_units_Z            2
loop_
_atom_site_label
_atom_site_type_symbol
_atom_site_fract_x
_atom_site_fract_y
_atom_site_fract_z
C1 C 0.8377(2) 1.2632(2) 0.59787(14)
C2 C 0.8737(3) 1.3893(2) 0.69635(17)
H1 H 0.9262 1.4882 0.6894
C3 C 0.8308(3) 1.3663(3) 0.80521(17)
H2 H 0.8562 1.4496 0.8721
C4 C 0.7502(2) 1.2203(3) 0.81559(16)
H3 H 0.7205 1.2077 0.8895
C5 C 0.7127(2) 1.0921(2) 0.71776(14)
H4 H 0.6580 0.9945 0.7253
C6 C 0.75908(19) 1.11358(19) 0.60805(13)
C7 C 0.74431(17) 1.00192(18) 0.49049(13)
C8 C 0.68339(18) 0.83775(18) 0.45388(13)
C9 C 0.68500(19) 0.75187(18) 0.33437(13)
C10 C 0.74134(19) 0.84068(19) 0.25165(13)
C11 C 0.80883(18) 1.00408(18) 0.29035(13)
C12 C 0.81221(18) 1.08462(18) 0.40885(13)
C13 C 0.8758(2) 1.25737(19) 0.47189(14)
H5 H 0.9973 1.2716 0.4610
H6 H 0.8151 1.3424 0.4447
C14 C 0.6192(2) 0.7482(2) 0.53571(14)
C15 C 0.7142(2) 0.7552(2) 0.12559(14)
C16 C 0.6163(3) 0.7840(3) -0.05946(16)
H7 H 0.7259 0.7652 -0.0952
H8 H 0.5549 0.8605 -0.0935
H9 H 0.5529 0.6805 -0.0725
C17 C 0.8838(2) 1.0963(2) 0.20526(15)
F1 F 1.01581(15) 1.19637(14) 0.25286(10)
F2 F 0.76982(16) 1.19368(15) 0.16985(11)
F3 F 0.94551(14) 0.99653(14) 0.10941(9)
N1 N 0.5674(2) 0.6727(2) 0.59820(14)
N2 N 0.6325(2) 0.58953(17) 0.30089(13)
H10 H 0.5981 0.5385 0.3525
H11 H 0.6338 0.5379 0.2281
O1 O 0.7467(2) 0.61201(16) 0.08342(11)
O2 O 0.63912(16) 0.85303(15) 0.06535(10)
loop_
_geom_bond_atom_site_label_1
_geom_bond_atom_site_label_2
_geom_bond_site_symmetry_1
_geom_bond_site_symmetry_2
C1 C2 1_555 1_555
C2 H1 1_555 1_555
C3 C2 1_555 1_555
H2 C3 1_555 1_555
C4 C3 1_555 1_555
H3 C4 1_555 1_555
C5 C4 1_555 1_555
H4 C5 1_555 1_555
C6 C1 1_555 1_555
C7 C6 1_555 1_555
C8 C7 1_555 1_555
C9 C8 1_555 1_555
C10 C9 1_555 1_555
C11 C10 1_555 1_555
C12 C7 1_555 1_555
C13 C1 1_555 1_555
H5 C13 1_555 1_555
H6 C13 1_555 1_555
C14 C8 1_555 1_555
C15 C10 1_555 1_555
C16 H7 1_555 1_555
H8 C16 1_555 1_555
H9 C16 1_555 1_555
C17 C11 1_555 1_555
F1 C17 1_555 1_555
F2 C17 1_555 1_555
F3 C17 1_555 1_555
N1 C14 1_555 1_555
N2 C9 1_555 1_555
H10 N2 1_555 1_555
H11 N2 1_555 1_555
O1 C15 1_555 1_555
O2 C15 1_555 1_555
C5 C6 1_555 1_555
C11 C12 1_555 1_555
C12 C13 1_555 1_555
C16 O2 1_555 1_555

#END
