
#######################################################################
#
#                 Cambridge Crystallographic Data Centre
#                                CCDC 
#
#######################################################################
#
# If this CIF has been generated from an entry in the Cambridge 
# Structural Database, then it will include bibliographic, chemical, 
# crystal, experimental, refinement or atomic coordinate data resulting 
# from the CCDC's data processing and validation procedures.
#
#######################################################################

data_RAHJUI
_chemical_formula_moiety         'C28 H41 N1 O1 P1 1+,C7 H7 O3 S1 1-'
_chemical_name_systematic        
'tributyl((2-hydroxyphenyl)(1-methyl-1H-indol-3-yl)methyl)phosphanium 4-methylbenzene-1-sulfonate'
_symmetry_cell_setting           orthorhombic
_symmetry_space_group_name_H-M   'P b c a'
_symmetry_Int_Tables_number      61
_space_group_name_Hall           '-P 2ac 2ab'
loop_
_symmetry_equiv_pos_site_id
_symmetry_equiv_pos_as_xyz
1 x,y,z
2 1/2-x,-y,1/2+z
3 -x,1/2+y,1/2-z
4 1/2+x,1/2-y,-z
5 -x,-y,-z
6 1/2+x,y,1/2-z
7 x,1/2-y,1/2+z
8 1/2-x,1/2+y,z
_cell_length_a                   10.1500(13)
_cell_length_b                   19.277(3)
_cell_length_c                   34.094(5)
_cell_angle_alpha                90
_cell_angle_beta                 90
_cell_angle_gamma                90
_cell_volume                     6670.88
_exptl_crystal_colour            colorless
_exptl_crystal_description       prism
_cell_formula_units_Z            8
loop_
_atom_site_label
_atom_site_type_symbol
_atom_site_fract_x
_atom_site_fract_y
_atom_site_fract_z
C1 C 0.6560(4) 0.1586(3) 0.55534(14)
H1 H 0.6726 0.2013 0.5400
H2 H 0.7395 0.1459 0.5685
C2 C 0.6200(4) 0.1004(3) 0.52659(14)
H3 H 0.6312 0.0551 0.5399
H4 H 0.5260 0.1050 0.5192
C3 C 0.7030(5) 0.1014(3) 0.48981(14)
H5 H 0.7960 0.0922 0.4968
H6 H 0.6985 0.1481 0.4778
C4 C 0.6576(5) 0.0478(3) 0.46011(16)
H7 H 0.7129 0.0507 0.4366
H8 H 0.5656 0.0569 0.4530
H9 H 0.6649 0.0013 0.4716
C5 C 0.4745(4) 0.0986(2) 0.61308(14)
H10 H 0.4047 0.1099 0.6323
H11 H 0.4339 0.0706 0.5920
C6 C 0.5804(5) 0.0552(2) 0.63340(14)
H12 H 0.6551 0.0480 0.6152
H13 H 0.6138 0.0806 0.6566
C7 C 0.5269(5) -0.0150(3) 0.64637(16)
H14 H 0.4453 -0.0078 0.6618
H15 H 0.5038 -0.0426 0.6229
C8 C 0.6248(5) -0.0552(3) 0.67093(17)
H16 H 0.5862 -0.0998 0.6785
H17 H 0.6464 -0.0285 0.6945
H18 H 0.7051 -0.0632 0.6556
C9 C 0.6190(4) 0.2303(3) 0.62848(13)
H19 H 0.7092 0.2116 0.6317
H20 H 0.6278 0.2777 0.6176
C10 C 0.5573(5) 0.2365(3) 0.66931(13)
H21 H 0.4606 0.2414 0.6667
H22 H 0.5753 0.1937 0.6844
C11 C 0.6119(6) 0.2986(3) 0.69148(16)
H23 H 0.7084 0.2931 0.6943
H24 H 0.5959 0.3411 0.6759
C12 C 0.5520(8) 0.3078(4) 0.73150(18)
H25 H 0.5913 0.3483 0.7443
H26 H 0.5688 0.2663 0.7473
H27 H 0.4567 0.3148 0.7289
C13 C 0.4047(4) 0.2308(2) 0.57092(12)
H28 H 0.4516 0.2692 0.5570
C14 C 0.3250(4) 0.2667(2) 0.60270(12)
C15 C 0.2320(4) 0.2337(3) 0.62597(12)
H29 H 0.2119 0.1863 0.6212
C16 C 0.1678(5) 0.2683(3) 0.65606(14)
H30 H 0.1055 0.2447 0.6720
C17 C 0.1961(5) 0.3384(3) 0.66260(14)
H31 H 0.1523 0.3628 0.6830
C18 C 0.2872(5) 0.3720(3) 0.63953(14)
H32 H 0.3048 0.4198 0.6439
C19 C 0.3537(4) 0.3370(2) 0.61000(13)
C20 C 0.3308(4) 0.1926(2) 0.53911(13)
C21 C 0.2327(4) 0.1439(2) 0.54245(13)
H33 H 0.1939 0.1294 0.5664
C22 C 0.0966(5) 0.0684(3) 0.49790(15)
H34 H 0.0561 0.0535 0.5226
H35 H 0.1356 0.0281 0.4847
H36 H 0.0293 0.0891 0.4810
C23 C 0.2771(4) 0.1516(2) 0.47808(13)
C24 C 0.2831(4) 0.1411(2) 0.43820(14)
H37 H 0.2275 0.1086 0.4254
C25 C 0.3740(5) 0.1802(3) 0.41766(14)
H38 H 0.3819 0.1740 0.3901
C26 C 0.4544(5) 0.2285(3) 0.43647(14)
H39 H 0.5147 0.2551 0.4214
C27 C 0.4481(4) 0.2383(2) 0.47607(14)
H40 H 0.5033 0.2716 0.4884
C28 C 0.3594(4) 0.1988(2) 0.49838(12)
N1 N 0.1990(4) 0.11938(19) 0.50599(11)
O1 O 0.4460(3) 0.36789(16) 0.58693(9)
H41 H 0.4543 0.4096 0.5936
P1 P 0.53610(11) 0.17791(7) 0.59237(4)
C29 C 0.9429(4) 0.0678(3) 0.66970(14)
C30 C 0.8987(5) 0.1336(3) 0.67920(16)
H42 H 0.9022 0.1700 0.6604
C31 C 0.8493(5) 0.1459(3) 0.71642(19)
H43 H 0.8185 0.1911 0.7227
C32 C 0.8432(5) 0.0949(4) 0.74462(17)
C33 C 0.7820(7) 0.1094(4) 0.78401(18)
H44 H 0.7855 0.0675 0.8002
H45 H 0.6900 0.1235 0.7804
H46 H 0.8306 0.1468 0.7970
C34 C 0.8921(6) 0.0302(3) 0.73479(16)
H47 H 0.8914 -0.0058 0.7539
C35 C 0.9410(5) 0.0167(3) 0.69844(16)
H48 H 0.9744 -0.0281 0.6926
O2 O 0.9483(4) 0.10384(19) 0.59727(10)
O3 O 0.9469(3) -0.01891(17) 0.61301(10)
O4 O 1.1446(3) 0.04952(18) 0.62431(10)
S1 S 1.00110(13) 0.04993(7) 0.62205(4)
loop_
_geom_bond_atom_site_label_1
_geom_bond_atom_site_label_2
_geom_bond_site_symmetry_1
_geom_bond_site_symmetry_2
C1 H1 1_555 1_555
H2 C1 1_555 1_555
C2 C1 1_555 1_555
H3 C2 1_555 1_555
H4 C2 1_555 1_555
C3 C2 1_555 1_555
H5 C3 1_555 1_555
H6 C3 1_555 1_555
C4 C3 1_555 1_555
H7 C4 1_555 1_555
H8 C4 1_555 1_555
H9 C4 1_555 1_555
C5 H10 1_555 1_555
H11 C5 1_555 1_555
C6 C5 1_555 1_555
H12 C6 1_555 1_555
H13 C6 1_555 1_555
C7 C6 1_555 1_555
H14 C7 1_555 1_555
H15 C7 1_555 1_555
C8 C7 1_555 1_555
H16 C8 1_555 1_555
H17 C8 1_555 1_555
H18 C8 1_555 1_555
C9 H19 1_555 1_555
H20 C9 1_555 1_555
C10 C9 1_555 1_555
H21 C10 1_555 1_555
H22 C10 1_555 1_555
C11 C10 1_555 1_555
H23 C11 1_555 1_555
H24 C11 1_555 1_555
C12 C11 1_555 1_555
H25 C12 1_555 1_555
H26 C12 1_555 1_555
H27 C12 1_555 1_555
C13 H28 1_555 1_555
C14 C13 1_555 1_555
C15 C14 1_555 1_555
H29 C15 1_555 1_555
C16 C15 1_555 1_555
H30 C16 1_555 1_555
C17 C16 1_555 1_555
H31 C17 1_555 1_555
C18 C17 1_555 1_555
H32 C18 1_555 1_555
C19 C14 1_555 1_555
C20 C13 1_555 1_555
C21 C20 1_555 1_555
H33 C21 1_555 1_555
C22 H34 1_555 1_555
H35 C22 1_555 1_555
H36 C22 1_555 1_555
C23 C24 1_555 1_555
C24 H37 1_555 1_555
C25 C24 1_555 1_555
H38 C25 1_555 1_555
C26 C25 1_555 1_555
H39 C26 1_555 1_555
C27 C26 1_555 1_555
H40 C27 1_555 1_555
C28 C20 1_555 1_555
N1 C21 1_555 1_555
O1 C19 1_555 1_555
H41 O1 1_555 1_555
P1 C1 1_555 1_555
C29 C30 1_555 1_555
C30 H42 1_555 1_555
C31 C30 1_555 1_555
H43 C31 1_555 1_555
C32 C31 1_555 1_555
C33 C32 1_555 1_555
H44 C33 1_555 1_555
H45 C33 1_555 1_555
H46 C33 1_555 1_555
C34 C32 1_555 1_555
H47 C34 1_555 1_555
C35 C29 1_555 1_555
H48 C35 1_555 1_555
O2 S1 1_555 1_555
O3 S1 1_555 1_555
O4 S1 1_555 1_555
S1 C29 1_555 1_555
C5 P1 1_555 1_555
C9 P1 1_555 1_555
C13 P1 1_555 1_555
C18 C19 1_555 1_555
C22 N1 1_555 1_555
C23 C28 1_555 1_555
C23 N1 1_555 1_555
C27 C28 1_555 1_555
C34 C35 1_555 1_555

#END
