
#######################################################################
#
#                 Cambridge Crystallographic Data Centre
#                                CCDC 
#
#######################################################################
#
# If this CIF has been generated from an entry in the Cambridge 
# Structural Database, then it will include bibliographic, chemical, 
# crystal, experimental, refinement or atomic coordinate data resulting 
# from the CCDC's data processing and validation procedures.
#
#######################################################################

data_RAHJIW
_chemical_formula_moiety         'C34 H29 N1 O1 P1 1+,C1 F3 O3 S1 1-'
_chemical_name_systematic        
'((2-hydroxyphenyl)(1-methyl-1H-indol-3-yl)methyl)(triphenyl)phosphanium trifluoromethanesulfonate'
_symmetry_cell_setting           monoclinic
_symmetry_space_group_name_H-M   'P 21/n'
_symmetry_Int_Tables_number      14
_space_group_name_Hall           '-P 2yn'
loop_
_symmetry_equiv_pos_site_id
_symmetry_equiv_pos_as_xyz
1 x,y,z
2 1/2-x,1/2+y,1/2-z
3 -x,-y,-z
4 1/2+x,1/2-y,1/2+z
_cell_length_a                   15.9609(12)
_cell_length_b                   10.9272(7)
_cell_length_c                   19.2964(14)
_cell_angle_alpha                90
_cell_angle_beta                 111.372(2)
_cell_angle_gamma                90
_cell_volume                     3134.02
_exptl_crystal_colour            colorless
_exptl_crystal_description       prism
_cell_formula_units_Z            4
loop_
_atom_site_label
_atom_site_type_symbol
_atom_site_fract_x
_atom_site_fract_y
_atom_site_fract_z
C1 C 0.38688(17) 0.6755(2) 0.58522(14)
C2 C 0.47649(18) 0.6390(3) 0.61128(17)
H1 H 0.4914 0.5550 0.6209
C3 C 0.5439(2) 0.7248(3) 0.62319(18)
H2 H 0.6050 0.6995 0.6418
C4 C 0.5232(2) 0.8465(3) 0.60831(16)
H3 H 0.5700 0.9049 0.6165
C5 C 0.4346(2) 0.8838(3) 0.58153(17)
H4 H 0.4203 0.9677 0.5709
C6 C 0.36651(19) 0.7988(3) 0.57019(16)
H5 H 0.3055 0.8248 0.5521
C7 C 0.20069(17) 0.6469(2) 0.57508(15)
C8 C 0.21525(19) 0.7150(3) 0.63931(16)
H6 H 0.2747 0.7257 0.6743
C9 C 0.1435(2) 0.7671(3) 0.65224(18)
H7 H 0.1535 0.8133 0.6962
C10 C 0.0573(2) 0.7518(3) 0.6011(2)
H8 H 0.0079 0.7866 0.6104
C11 C 0.0425(2) 0.6867(3) 0.53683(19)
H9 H -0.0171 0.6775 0.5017
C12 C 0.11386(19) 0.6345(3) 0.52290(17)
H10 H 0.1036 0.5905 0.4781
C13 C 0.26420(18) 0.5178(2) 0.47019(15)
C14 C 0.3080(2) 0.5654(3) 0.42555(16)
H11 H 0.3579 0.6189 0.4464
C15 C 0.2791(2) 0.5350(3) 0.35096(18)
H12 H 0.3092 0.5674 0.3207
C16 C 0.2069(3) 0.4578(3) 0.32046(18)
H13 H 0.1865 0.4384 0.2690
C17 C 0.1637(2) 0.4082(3) 0.36437(18)
H14 H 0.1141 0.3546 0.3430
C18 C 0.1923(2) 0.4362(3) 0.43900(16)
H15 H 0.1635 0.4003 0.4693
C19 C 0.32323(17) 0.4425(2) 0.63391(15)
H16 H 0.3420 0.4835 0.6836
C20 C 0.24473(18) 0.3613(3) 0.62977(15)
C21 C 0.18455(19) 0.3781(3) 0.66947(16)
C22 C 0.1753(2) 0.4658(3) 0.71873(18)
H17 H 0.2145 0.5344 0.7325
C23 C 0.1078(3) 0.4507(4) 0.7471(2)
H18 H 0.0997 0.5105 0.7798
C24 C 0.0512(3) 0.3479(5) 0.7279(2)
H19 H 0.0047 0.3407 0.7474
C25 C 0.0606(2) 0.2592(4) 0.6827(2)
H20 H 0.0227 0.1891 0.6713
C26 C 0.1281(2) 0.2739(3) 0.65322(18)
C27 C 0.1139(3) 0.0787(4) 0.5804(3)
H21 H 0.1434 0.0440 0.5484
H22 H 0.0493 0.0874 0.5519
H23 H 0.1230 0.0242 0.6229
C28 C 0.2228(2) 0.2511(3) 0.59388(17)
H24 H 0.2524 0.2160 0.5639
C29 C 0.40452(18) 0.3693(2) 0.63504(16)
C30 C 0.4073(2) 0.3046(3) 0.57385(17)
H25 H 0.3579 0.3096 0.5278
C31 C 0.4809(2) 0.2330(3) 0.5791(2)
H26 H 0.4815 0.1881 0.5372
C32 C 0.5528(2) 0.2274(3) 0.6451(2)
H27 H 0.6034 0.1784 0.6486
C33 C 0.5526(2) 0.2923(3) 0.70646(19)
H28 H 0.6031 0.2885 0.7518
C34 C 0.47836(18) 0.3629(3) 0.70178(16)
N1 N 0.15256(18) 0.1988(3) 0.60731(16)
O1 O 0.47413(13) 0.42815(19) 0.76061(11)
H29 H 0.5218 0.4178 0.7976
P1 P 0.29470(4) 0.56850(6) 0.56468(4)
C35 C 0.6946(2) 0.6002(3) 0.8760(2)
F1 F 0.77155(17) 0.6559(2) 0.88646(16)
F2 F 0.65800(16) 0.6575(2) 0.91827(15)
F3 F 0.63951(18) 0.6161(2) 0.80600(13)
O2 O 0.62170(14) 0.3976(2) 0.88561(13)
O3 O 0.74946(18) 0.3984(3) 0.84442(19)
O4 O 0.76956(18) 0.4400(3) 0.97511(16)
S1 S 0.71223(5) 0.44025(8) 0.89854(5)
loop_
_geom_bond_atom_site_label_1
_geom_bond_atom_site_label_2
_geom_bond_site_symmetry_1
_geom_bond_site_symmetry_2
C1 C2 1_555 1_555
C2 H1 1_555 1_555
C3 C2 1_555 1_555
H2 C3 1_555 1_555
C4 C3 1_555 1_555
H3 C4 1_555 1_555
C5 C4 1_555 1_555
H4 C5 1_555 1_555
C6 C1 1_555 1_555
H5 C6 1_555 1_555
C7 C8 1_555 1_555
C8 H6 1_555 1_555
C9 C8 1_555 1_555
H7 C9 1_555 1_555
C10 C9 1_555 1_555
H8 C10 1_555 1_555
C11 C10 1_555 1_555
H9 C11 1_555 1_555
C12 C7 1_555 1_555
H10 C12 1_555 1_555
C13 C14 1_555 1_555
C14 H11 1_555 1_555
C15 C14 1_555 1_555
H12 C15 1_555 1_555
C16 C15 1_555 1_555
H13 C16 1_555 1_555
C17 C16 1_555 1_555
H14 C17 1_555 1_555
C18 C13 1_555 1_555
H15 C18 1_555 1_555
C19 H16 1_555 1_555
C20 C19 1_555 1_555
C21 C20 1_555 1_555
C22 C21 1_555 1_555
H17 C22 1_555 1_555
C23 C22 1_555 1_555
H18 C23 1_555 1_555
C24 C23 1_555 1_555
H19 C24 1_555 1_555
C25 C24 1_555 1_555
H20 C25 1_555 1_555
C26 C21 1_555 1_555
C27 H21 1_555 1_555
H22 C27 1_555 1_555
H23 C27 1_555 1_555
C28 C20 1_555 1_555
H24 C28 1_555 1_555
C29 C19 1_555 1_555
C30 C29 1_555 1_555
H25 C30 1_555 1_555
C31 C30 1_555 1_555
H26 C31 1_555 1_555
C32 C31 1_555 1_555
H27 C32 1_555 1_555
C33 C32 1_555 1_555
H28 C33 1_555 1_555
C34 C29 1_555 1_555
N1 C26 1_555 1_555
O1 C34 1_555 1_555
H29 O1 1_555 1_555
P1 C1 1_555 1_555
C35 F1 1_555 1_555
F2 C35 1_555 1_555
F3 C35 1_555 1_555
O2 S1 1_555 1_555
O3 S1 1_555 1_555
O4 S1 1_555 1_555
S1 C35 1_555 1_555
C5 C6 1_555 1_555
C7 P1 1_555 1_555
C11 C12 1_555 1_555
C13 P1 1_555 1_555
C17 C18 1_555 1_555
C19 P1 1_555 1_555
C25 C26 1_555 1_555
C27 N1 1_555 1_555
C28 N1 1_555 1_555
C33 C34 1_555 1_555

#END
