
#######################################################################
#
#                 Cambridge Crystallographic Data Centre
#                                CCDC 
#
#######################################################################
#
# If this CIF has been generated from an entry in the Cambridge 
# Structural Database, then it will include bibliographic, chemical, 
# crystal, experimental, refinement or atomic coordinate data resulting 
# from the CCDC's data processing and validation procedures.
#
#######################################################################

data_RAHMAR
_chemical_formula_moiety         'C61 H76'
_chemical_name_systematic        
1,1-bis(4-(tetradecan-6-yl)phenyl)-1H-cyclopenta[ghi]perylene
_symmetry_cell_setting           monoclinic
_symmetry_space_group_name_H-M   'C 2/c'
_symmetry_Int_Tables_number      15
_space_group_name_Hall           '-C 2yn'
loop_
_symmetry_equiv_pos_site_id
_symmetry_equiv_pos_as_xyz
1 x,y,z
2 -x,y,1/2-z
3 1/2+x,1/2+y,z
4 1/2-x,1/2+y,1/2-z
5 -x,-y,-z
6 x,-y,1/2+z
7 1/2-x,1/2-y,-z
8 1/2+x,1/2-y,1/2+z
_cell_length_a                   16.2846(7)
_cell_length_b                   11.3997(5)
_cell_length_c                   26.6692(12)
_cell_angle_alpha                90
_cell_angle_beta                 96.407(7)
_cell_angle_gamma                90
_cell_volume                     4919.94
_exptl_crystal_colour            yellow
_exptl_crystal_description       prism
_cell_formula_units_Z            4
loop_
_atom_site_label
_atom_site_type_symbol
_atom_site_fract_x
_atom_site_fract_y
_atom_site_fract_z
C1 C 0.0000 0.4857(3) 0.2500
C2 C 0.07321(16) 0.3993(2) 0.26209(9)
C3 C 0.15704(17) 0.4106(3) 0.27959(11)
H1 H 0.1814 0.4861 0.2842
C4 C 0.2039(2) 0.3114(3) 0.29012(13)
H2 H 0.2609 0.3205 0.3015
C5 C 0.1714(2) 0.1968(3) 0.28487(13)
C6 C 0.2154(3) 0.0923(4) 0.29624(17)
H3 H 0.2724 0.0951 0.3085
C7 C 0.1758(4) -0.0139(5) 0.2896(2)
H4 H 0.2066 -0.0835 0.2976
C8 C 0.0924(4) -0.0240(3) 0.27166(17)
H5 H 0.0680 -0.0996 0.2675
C9 C 0.0448(2) 0.0747(2) 0.25990(13)
C10 C 0.0871(2) 0.1843(2) 0.26736(12)
C11 C 0.04282(15) 0.2870(2) 0.25757(10)
C12 C -0.00511(18) 0.5616(2) 0.29672(10)
C13 C -0.0589(9) 0.5267(11) 0.3315(5)
H6 H -0.0940 0.4608 0.3243
C14 C -0.0611(6) 0.5892(6) 0.3771(3)
H7 H -0.0978 0.5644 0.4003
C15 C -0.0116(5) 0.6849(7) 0.3884(3)
C16 C 0.0390(5) 0.7218(8) 0.3519(3)
H8 H 0.0728 0.7891 0.3583
C17 C 0.0405(5) 0.6620(7) 0.3066(4)
H9 H 0.0736 0.6909 0.2822
C18 C -0.0082(5) 0.7502(6) 0.4387(3)
H10 H -0.0451 0.7034 0.4587
C19 C 0.0781(5) 0.7352(7) 0.4677(3)
H11 H 0.1194 0.7705 0.4477
H12 H 0.0802 0.7790 0.4999
C20 C 0.1024(4) 0.6086(5) 0.4793(3)
H13 H 0.0995 0.5642 0.4472
H14 H 0.0619 0.5735 0.5000
C21 C 0.1891(4) 0.5954(7) 0.5073(3)
H15 H 0.2293 0.6345 0.4876
H16 H 0.1911 0.6356 0.5404
C22 C 0.2146(4) 0.4675(6) 0.5160(3)
H17 H 0.1735 0.4277 0.5348
H18 H 0.2145 0.4279 0.4830
C23 C 0.3000(5) 0.4551(7) 0.5454(4)
H19 H 0.3012 0.4995 0.5774
H20 H 0.3416 0.4903 0.5255
C24 C 0.3241(4) 0.3271(7) 0.5575(4)
H21 H 0.2852 0.2930 0.5796
H22 H 0.3197 0.2810 0.5259
C25 C 0.4122(4) 0.3188(7) 0.5839(3)
H23 H 0.4511 0.3508 0.5613
H24 H 0.4169 0.3670 0.6149
C26 C 0.4362(11) 0.1923(13) 0.5976(6)
H25 H 0.4354 0.1455 0.5667
H26 H 0.3967 0.1595 0.6190
H27 H 0.4918 0.1907 0.6159
C27 C -0.0450(6) 0.8621(8) 0.4353(4)
H28 H -0.0026 0.9145 0.4528
H29 H -0.0895 0.8573 0.4576
C28 C -0.0814(5) 0.9316(6) 0.3917(2)
H30 H -0.1035 0.8759 0.3650
H31 H -0.0361 0.9757 0.3784
C29 C -0.1519(6) 1.0212(8) 0.3999(3)
H32 H -0.2049 0.9806 0.4028
H33 H -0.1372 1.0697 0.4304
C30 C -0.1563(6) 1.0941(8) 0.3528(3)
H34 H -0.1775 1.0462 0.3231
H35 H -0.1005 1.1228 0.3475
C31 C -0.2155(8) 1.2003(10) 0.3587(6)
H36 H -0.2254 1.2425 0.3266
H37 H -0.1899 1.2535 0.3848
H38 H -0.2681 1.1715 0.3685
C2A C -0.07321(16) 0.3993(2) 0.23791(9)
C3A C -0.15704(17) 0.4106(3) 0.22041(11)
H1A H -0.1814 0.4861 0.2158
C4A C -0.2039(2) 0.3114(3) 0.20988(13)
H2A H -0.2609 0.3205 0.1985
C5A C -0.1714(2) 0.1968(3) 0.21513(13)
C6A C -0.2154(3) 0.0923(4) 0.20376(17)
H3A H -0.2724 0.0951 0.1915
C7A C -0.1758(4) -0.0139(5) 0.2104(2)
H4A H -0.2066 -0.0835 0.2024
C8A C -0.0924(4) -0.0240(3) 0.22834(17)
H5A H -0.0680 -0.0996 0.2325
C9A C -0.0448(2) 0.0747(2) 0.24010(13)
C10A C -0.0871(2) 0.1843(2) 0.23264(12)
C11A C -0.04282(15) 0.2870(2) 0.24243(10)
C12A C 0.00511(18) 0.5616(2) 0.20328(10)
C13A C 0.0589(9) 0.5267(11) 0.1685(5)
H6A H 0.0940 0.4608 0.1757
C14A C 0.0611(6) 0.5892(6) 0.1229(3)
H7A H 0.0978 0.5644 0.0997
C15A C 0.0116(5) 0.6849(7) 0.1116(3)
C16A C -0.0390(5) 0.7218(8) 0.1481(3)
H8A H -0.0728 0.7891 0.1417
C17A C -0.0405(5) 0.6620(7) 0.1934(4)
H9A H -0.0736 0.6909 0.2178
C18A C 0.0082(5) 0.7502(6) 0.0613(3)
H10A H 0.0451 0.7034 0.0413
C19A C -0.0781(5) 0.7352(7) 0.0323(3)
H11A H -0.1194 0.7705 0.0523
H12A H -0.0802 0.7790 0.0001
C20A C -0.1024(4) 0.6086(5) 0.0207(3)
H13A H -0.0995 0.5642 0.0528
H14A H -0.0619 0.5735 0.0000
C21A C -0.1891(4) 0.5954(7) -0.0073(3)
H15A H -0.2293 0.6345 0.0124
H16A H -0.1911 0.6356 -0.0404
C22A C -0.2146(4) 0.4675(6) -0.0160(3)
H17A H -0.1735 0.4277 -0.0348
H18A H -0.2145 0.4279 0.0170
C23A C -0.3000(5) 0.4551(7) -0.0454(4)
H19A H -0.3012 0.4995 -0.0774
H20A H -0.3416 0.4903 -0.0255
C24A C -0.3241(4) 0.3271(7) -0.0575(4)
H21A H -0.2852 0.2930 -0.0796
H22A H -0.3197 0.2810 -0.0259
C25A C -0.4122(4) 0.3188(7) -0.0839(3)
H23A H -0.4511 0.3508 -0.0613
H24A H -0.4169 0.3670 -0.1149
C26A C -0.4362(11) 0.1923(13) -0.0976(6)
H25A H -0.4354 0.1455 -0.0667
H26A H -0.3967 0.1595 -0.1190
H27A H -0.4918 0.1907 -0.1159
C27A C 0.0450(6) 0.8621(8) 0.0647(4)
H28A H 0.0026 0.9145 0.0472
H29A H 0.0895 0.8573 0.0424
C28A C 0.0814(5) 0.9316(6) 0.1083(2)
H30A H 0.1035 0.8759 0.1350
H31A H 0.0361 0.9757 0.1216
C29A C 0.1519(6) 1.0212(8) 0.1001(3)
H32A H 0.2049 0.9806 0.0972
H33A H 0.1372 1.0697 0.0696
C30A C 0.1563(6) 1.0941(8) 0.1472(3)
H34A H 0.1775 1.0462 0.1769
H35A H 0.1005 1.1228 0.1525
C31A C 0.2155(8) 1.2003(10) 0.1413(6)
H36A H 0.2254 1.2425 0.1734
H37A H 0.1899 1.2535 0.1152
H38A H 0.2681 1.1715 0.1315
C32? C -0.0559(13) 0.5488(15) 0.3343(6)
H39? H -0.0972 0.4895 0.3318
C33? C -0.0466(9) 0.6234(11) 0.3761(5)
H40? H -0.0838 0.6154 0.4009
C34? C 0.0133(8) 0.7070(11) 0.3831(4)
C35? C 0.0686(7) 0.7164(12) 0.3466(5)
H41? H 0.1115 0.7732 0.3506
C36? C 0.0614(8) 0.6441(10) 0.3050(6)
H42? H 0.1010 0.6490 0.2814
C37? C 0.0223(7) 0.7815(8) 0.4306(3)
H43? H 0.0754 0.8197 0.4243
C38? C 0.0565(7) 0.7147(12) 0.4763(5)
H44? H 0.0132 0.6608 0.4859
H45? H 0.0691 0.7709 0.5045
C39? C 0.1335(6) 0.6438(10) 0.4709(4)
H46? H 0.1773 0.6976 0.4619
H47? H 0.1213 0.5879 0.4426
C40? C 0.1663(7) 0.5755(12) 0.5178(4)
H48? H 0.1806 0.6310 0.5460
H49? H 0.1224 0.5228 0.5275
C41? C 0.2420(7) 0.5030(10) 0.5099(4)
H50? H 0.2273 0.4479 0.4817
H51? H 0.2854 0.5561 0.4999
C42? C 0.2772(7) 0.4336(12) 0.5557(5)
H52? H 0.2325 0.3847 0.5670
H53? H 0.2950 0.4894 0.5832
C43? C 0.3495(7) 0.3547(11) 0.5478(4)
H54? H 0.3319 0.2988 0.5203
H55? H 0.3944 0.4035 0.5368
C44? C 0.3833(8) 0.2860(12) 0.5939(4)
H56? H 0.3374 0.2422 0.6066
H57? H 0.4051 0.3419 0.6205
C45? C 0.4517(15) 0.199(2) 0.5847(9)
H58? H 0.4319 0.1463 0.5571
H59? H 0.4672 0.1538 0.6155
H60? H 0.5000 0.2427 0.5757
C46? C -0.0258(7) 0.8844(10) 0.4264(5)
H61? H 0.0034 0.9378 0.4051
H62? H -0.0193 0.9193 0.4606
C47? C -0.1214(6) 0.8996(7) 0.4067(4)
H63? H -0.1579 0.8872 0.4336
H64? H -0.1393 0.8497 0.3771
C48? C -0.1120(6) 1.0399(8) 0.3918(5)
H65? H -0.0994 1.0874 0.4228
H66? H -0.0663 1.0498 0.3706
C49? C -0.1913(7) 1.0797(10) 0.3636(5)
H67? H -0.2367 1.0712 0.3852
H68? H -0.2045 1.0308 0.3331
C50? C -0.1830(11) 1.2096(13) 0.3483(7)
H69? H -0.2355 1.2368 0.3306
H70? H -0.1393 1.2170 0.3261
H71? H -0.1690 1.2574 0.3786
loop_
_geom_bond_atom_site_label_1
_geom_bond_atom_site_label_2
_geom_bond_site_symmetry_1
_geom_bond_site_symmetry_2
C1 C2 1_555 1_555
C2 C3 1_555 1_555
C3 H1 1_555 1_555
C4 C3 1_555 1_555
H2 C4 1_555 1_555
C5 C4 1_555 1_555
C6 C5 1_555 1_555
H3 C6 1_555 1_555
C7 C6 1_555 1_555
H4 C7 1_555 1_555
C8 C7 1_555 1_555
H5 C8 1_555 1_555
C9 C8 1_555 1_555
C10 C5 1_555 1_555
C11 C2 1_555 1_555
C12 C1 1_555 1_555
C13 C12 1_555 1_555
H6 C13 1_555 1_555
C14 C13 1_555 1_555
H7 C14 1_555 1_555
C15 C14 1_555 1_555
C16 C15 1_555 1_555
H8 C16 1_555 1_555
C17 C12 1_555 1_555
H9 C17 1_555 1_555
C18 C15 1_555 1_555
H10 C18 1_555 1_555
C19 C18 1_555 1_555
H11 C19 1_555 1_555
H12 C19 1_555 1_555
C20 C19 1_555 1_555
H13 C20 1_555 1_555
H14 C20 1_555 1_555
C21 C20 1_555 1_555
H15 C21 1_555 1_555
H16 C21 1_555 1_555
C22 C21 1_555 1_555
H17 C22 1_555 1_555
H18 C22 1_555 1_555
C23 C22 1_555 1_555
H19 C23 1_555 1_555
H20 C23 1_555 1_555
C24 C23 1_555 1_555
H21 C24 1_555 1_555
H22 C24 1_555 1_555
C25 C24 1_555 1_555
H23 C25 1_555 1_555
H24 C25 1_555 1_555
C26 C25 1_555 1_555
H25 C26 1_555 1_555
H26 C26 1_555 1_555
H27 C26 1_555 1_555
C27 C18 1_555 1_555
H28 C27 1_555 1_555
H29 C27 1_555 1_555
C28 C27 1_555 1_555
H30 C28 1_555 1_555
H31 C28 1_555 1_555
C29 C28 1_555 1_555
H32 C29 1_555 1_555
H33 C29 1_555 1_555
C30 C29 1_555 1_555
H34 C30 1_555 1_555
H35 C30 1_555 1_555
C31 C30 1_555 1_555
H36 C31 1_555 1_555
H37 C31 1_555 1_555
H38 C31 1_555 1_555
C2A C1 1_555 1_555
C3A C2A 1_555 1_555
H1A C3A 1_555 1_555
C4A C3A 1_555 1_555
H2A C4A 1_555 1_555
C5A C4A 1_555 1_555
C6A C5A 1_555 1_555
H3A C6A 1_555 1_555
C7A C6A 1_555 1_555
H4A C7A 1_555 1_555
C8A C7A 1_555 1_555
H5A C8A 1_555 1_555
C9A C9 1_555 1_555
C10A C5A 1_555 1_555
C11A C11 1_555 1_555
C12A C1 1_555 1_555
C13A C12A 1_555 1_555
H6A C13A 1_555 1_555
C14A C13A 1_555 1_555
H7A C14A 1_555 1_555
C15A C14A 1_555 1_555
C16A C15A 1_555 1_555
H8A C16A 1_555 1_555
C17A C12A 1_555 1_555
H9A C17A 1_555 1_555
C18A C15A 1_555 1_555
H10A C18A 1_555 1_555
C19A C18A 1_555 1_555
H11A C19A 1_555 1_555
H12A C19A 1_555 1_555
C20A C19A 1_555 1_555
H13A C20A 1_555 1_555
H14A C20A 1_555 1_555
C21A C20A 1_555 1_555
H15A C21A 1_555 1_555
H16A C21A 1_555 1_555
C22A C21A 1_555 1_555
H17A C22A 1_555 1_555
H18A C22A 1_555 1_555
C23A C22A 1_555 1_555
H19A C23A 1_555 1_555
H20A C23A 1_555 1_555
C24A C23A 1_555 1_555
H21A C24A 1_555 1_555
H22A C24A 1_555 1_555
C25A C24A 1_555 1_555
H23A C25A 1_555 1_555
H24A C25A 1_555 1_555
C26A C25A 1_555 1_555
H25A C26A 1_555 1_555
H26A C26A 1_555 1_555
H27A C26A 1_555 1_555
C27A C18A 1_555 1_555
H28A C27A 1_555 1_555
H29A C27A 1_555 1_555
C28A C27A 1_555 1_555
H30A C28A 1_555 1_555
H31A C28A 1_555 1_555
C29A C28A 1_555 1_555
H32A C29A 1_555 1_555
H33A C29A 1_555 1_555
C30A C29A 1_555 1_555
H34A C30A 1_555 1_555
H35A C30A 1_555 1_555
C31A C30A 1_555 1_555
H36A C31A 1_555 1_555
H37A C31A 1_555 1_555
H38A C31A 1_555 1_555
C9 C10 1_555 1_555
C10 C11 1_555 1_555
C16 C17 1_555 1_555
C2A C11A 1_555 1_555
C8A C9A 1_555 1_555
C9A C10A 1_555 1_555
C10A C11A 1_555 1_555
C16A C17A 1_555 1_555

#END
