
#######################################################################
#
#                 Cambridge Crystallographic Data Centre
#                                CCDC 
#
#######################################################################
#
# If this CIF has been generated from an entry in the Cambridge 
# Structural Database, then it will include bibliographic, chemical, 
# crystal, experimental, refinement or atomic coordinate data resulting 
# from the CCDC's data processing and validation procedures.
#
#######################################################################

data_RAHTAX
_chemical_name_common            
'1,3-bis(o-hydroxybenzyl)-2- phenylimidazolidine'
_chemical_formula_moiety         'C23 H24 N2 O2'
_chemical_name_systematic        
2,2'-((2-Phenylimidazolidine-1,3-diyl)bis(methylene))diphenol
_symmetry_cell_setting           triclinic
_symmetry_space_group_name_H-M   'P -1'
_symmetry_Int_Tables_number      2
_space_group_name_Hall           '-P 1'
loop_
_symmetry_equiv_pos_site_id
_symmetry_equiv_pos_as_xyz
1 x,y,z
2 -x,-y,-z
_cell_length_a                   6.255(5)
_cell_length_b                   9.095(5)
_cell_length_c                   17.925(5)
_cell_angle_alpha                80.113(5)
_cell_angle_beta                 87.715(5)
_cell_angle_gamma                74.388(5)
_cell_volume                     967.51
_exptl_crystal_colour            colorless
_exptl_crystal_description       block
_cell_formula_units_Z            2
loop_
_atom_site_label
_atom_site_type_symbol
_atom_site_fract_x
_atom_site_fract_y
_atom_site_fract_z
C1 C 0.9148(2) 0.24590(15) 0.22280(8)
H1 H 1.0476 0.2833 0.2118
C2 C 0.7397(2) 0.36217(15) 0.25820(8)
C3 C 0.7752(3) 0.50051(17) 0.26914(9)
H2 H 0.9059 0.5252 0.2524
C4 C 0.6138(3) 0.60406(19) 0.30553(10)
H3 H 0.6379 0.6970 0.3130
C5 C 0.4215(3) 0.5680(2) 0.32992(10)
H4 H 0.3155 0.6362 0.3543
C6 C 0.3844(3) 0.4324(2) 0.31863(9)
H5 H 0.2532 0.4083 0.3353
C7 C 0.5412(2) 0.33108(18) 0.28260(9)
H6 H 0.5132 0.2397 0.2745
C8 C 1.0972(3) -0.01139(18) 0.22079(9)
H7 H 1.0833 -0.1158 0.2369
H8 H 1.2533 -0.0137 0.2199
C9 C 0.9904(3) 0.05723(17) 0.14388(9)
H9 H 1.1016 0.0717 0.1061
H10 H 0.9092 -0.0095 0.1282
C10 C 0.8202(3) 0.33050(17) 0.08777(8)
H11 H 0.9676 0.3393 0.0728
H12 H 0.7364 0.4287 0.1012
C11 C 0.7079(3) 0.29767(16) 0.02214(8)
C12 C 0.7739(3) 0.33636(18) -0.05179(9)
H13 H 0.8926 0.3803 -0.0607
C13 C 0.6665(4) 0.3109(2) -0.11257(10)
H14 H 0.7115 0.3392 -0.1618
C14 C 0.4944(4) 0.2441(2) -0.09994(10)
H15 H 0.4239 0.2250 -0.1406
C15 C 0.4255(3) 0.2052(2) -0.02763(10)
H16 H 0.3088 0.1592 -0.0194
C16 C 0.5279(3) 0.23367(19) 0.03337(9)
C17 C 1.0892(2) 0.08610(16) 0.34142(8)
H17 H 1.0169 0.1761 0.3642
H18 H 1.2405 0.0900 0.3297
C18 C 1.0933(2) -0.05874(16) 0.39788(8)
C19 C 1.2692(3) -0.12254(19) 0.44810(9)
H19 H 1.3877 -0.0783 0.4452
C20 C 1.2720(3) -0.2511(2) 0.50266(9)
H20 H 1.3913 -0.2929 0.5360
C21 C 1.0967(4) -0.3163(2) 0.50691(10)
H21 H 1.0985 -0.4031 0.5431
C22 C 0.9199(3) -0.25482(18) 0.45859(10)
H22 H 0.8017 -0.2995 0.4623
C23 C 0.9159(3) -0.12605(17) 0.40409(9)
N1 N 0.83795(19) 0.20797(12) 0.15420(6)
N2 N 0.97306(19) 0.09308(12) 0.27115(6)
O1 O 0.4492(2) 0.19627(18) 0.10427(7)
H23 H 0.5400 0.1966 0.1359
O2 O 0.73556(18) -0.06882(13) 0.35738(7)
H24 H 0.7604 -0.0034 0.3231
loop_
_geom_bond_atom_site_label_1
_geom_bond_atom_site_label_2
_geom_bond_site_symmetry_1
_geom_bond_site_symmetry_2
C1 H1 1_555 1_555
C2 C1 1_555 1_555
C3 C2 1_555 1_555
H2 C3 1_555 1_555
C4 C3 1_555 1_555
H3 C4 1_555 1_555
C5 C4 1_555 1_555
H4 C5 1_555 1_555
C6 C5 1_555 1_555
H5 C6 1_555 1_555
C7 C2 1_555 1_555
H6 C7 1_555 1_555
C8 H7 1_555 1_555
H8 C8 1_555 1_555
C9 C8 1_555 1_555
H9 C9 1_555 1_555
H10 C9 1_555 1_555
C10 H11 1_555 1_555
H12 C10 1_555 1_555
C11 C10 1_555 1_555
C12 C11 1_555 1_555
H13 C12 1_555 1_555
C13 C12 1_555 1_555
H14 C13 1_555 1_555
C14 C13 1_555 1_555
H15 C14 1_555 1_555
C15 C14 1_555 1_555
H16 C15 1_555 1_555
C16 C11 1_555 1_555
C17 H17 1_555 1_555
H18 C17 1_555 1_555
C18 C17 1_555 1_555
C19 C18 1_555 1_555
H19 C19 1_555 1_555
C20 C19 1_555 1_555
H20 C20 1_555 1_555
C21 C20 1_555 1_555
H21 C21 1_555 1_555
C22 C21 1_555 1_555
H22 C22 1_555 1_555
C23 C18 1_555 1_555
N1 C1 1_555 1_555
N2 C1 1_555 1_555
O1 C16 1_555 1_555
H23 O1 1_555 1_555
O2 C23 1_555 1_555
H24 O2 1_555 1_555
C6 C7 1_555 1_555
C8 N2 1_555 1_555
C9 N1 1_555 1_555
C10 N1 1_555 1_555
C15 C16 1_555 1_555
C17 N2 1_555 1_555
C22 C23 1_555 1_555

#END
