
#######################################################################
#
#                 Cambridge Crystallographic Data Centre
#                                CCDC 
#
#######################################################################
#
# If this CIF has been generated from an entry in the Cambridge 
# Structural Database, then it will include bibliographic, chemical, 
# crystal, experimental, refinement or atomic coordinate data resulting 
# from the CCDC's data processing and validation procedures.
#
#######################################################################

data_RAJDOY
_chemical_formula_moiety         'C23 H19 N1 O2 S2'
_chemical_name_systematic        
'methyl 3-(2-((bis(phenylsulfanyl)methylene)amino)phenyl)acrylate'
_symmetry_cell_setting           orthorhombic
_symmetry_space_group_name_H-M   'P 21 21 21'
_symmetry_Int_Tables_number      19
_space_group_name_Hall           'P 2ac 2ab'
loop_
_symmetry_equiv_pos_site_id
_symmetry_equiv_pos_as_xyz
1 x,y,z
2 1/2-x,-y,1/2+z
3 -x,1/2+y,1/2-z
4 1/2+x,1/2-y,-z
_cell_length_a                   8.189(2)
_cell_length_b                   14.782(4)
_cell_length_c                   17.421(5)
_cell_angle_alpha                90
_cell_angle_beta                 90
_cell_angle_gamma                90
_cell_volume                     2108.81
_exptl_crystal_colour            colorless
_exptl_crystal_description       block
_cell_formula_units_Z            4
loop_
_atom_site_label
_atom_site_type_symbol
_atom_site_fract_x
_atom_site_fract_y
_atom_site_fract_z
S1 S 1.05041(10) 0.37406(6) 0.34555(5)
S2 S 0.74374(11) 0.33660(7) 0.25480(5)
O1 O 0.8269(4) 0.7253(2) 0.3556(2)
O2 O 0.6285(3) 0.81269(19) 0.30973(19)
N1 N 0.9717(4) 0.45703(19) 0.21530(16)
C1 C 1.1767(4) 0.4720(2) 0.3498(2)
C2 C 1.1132(5) 0.5536(2) 0.3749(2)
H1 H 1.0020 0.5589 0.3847
C3 C 1.2145(6) 0.6266(3) 0.3852(2)
H2 H 1.1713 0.6817 0.4011
C4 C 1.3800(6) 0.6187(3) 0.3721(3)
H3 H 1.4486 0.6679 0.3801
C5 C 1.4432(5) 0.5377(3) 0.3471(3)
H4 H 1.5548 0.5325 0.3380
C6 C 1.3426(4) 0.4637(3) 0.3354(2)
H5 H 1.3856 0.4092 0.3181
C7 C 0.9294(4) 0.3979(2) 0.26353(18)
C8 C 0.7423(4) 0.2647(2) 0.33733(18)
C9 C 0.6746(4) 0.2948(2) 0.4055(2)
H6 H 0.6317 0.3529 0.4090
C10 C 0.6714(5) 0.2378(3) 0.4681(2)
H7 H 0.6264 0.2576 0.5142
C11 C 0.7341(5) 0.1519(3) 0.4628(2)
H8 H 0.7340 0.1142 0.5056
C12 C 0.7973(5) 0.1215(3) 0.3942(2)
H9 H 0.8378 0.0629 0.3905
C13 C 0.8008(4) 0.1776(2) 0.3312(2)
H10 H 0.8423 0.1568 0.2847
C14 C 0.8678(4) 0.4772(2) 0.1521(2)
C15 C 0.8641(5) 0.4206(3) 0.0884(2)
H11 H 0.9254 0.3677 0.0877
C16 C 0.7682(6) 0.4439(3) 0.0260(2)
H12 H 0.7647 0.4064 -0.0168
C17 C 0.6774(6) 0.5231(3) 0.0272(2)
H13 H 0.6127 0.5381 -0.0148
C18 C 0.6818(5) 0.5791(3) 0.0894(2)
H14 H 0.6202 0.6319 0.0893
C19 C 0.7779(4) 0.5579(2) 0.1534(2)
C20 C 0.7881(4) 0.6170(3) 0.2204(2)
H15 H 0.8664 0.6014 0.2568
C21 C 0.7014(5) 0.6891(3) 0.2359(2)
H16 H 0.6203 0.7073 0.2019
C22 C 0.7299(5) 0.7419(3) 0.3063(3)
C23 C 0.6415(6) 0.8706(3) 0.3755(3)
H17 H 0.7504 0.8944 0.3786
H18 H 0.6178 0.8366 0.4211
H19 H 0.5652 0.9196 0.3708
loop_
_geom_bond_atom_site_label_1
_geom_bond_atom_site_label_2
_geom_bond_site_symmetry_1
_geom_bond_site_symmetry_2
S1 C1 1_555 1_555
S2 C7 1_555 1_555
O1 C22 1_555 1_555
O2 C22 1_555 1_555
N1 C7 1_555 1_555
C1 C2 1_555 1_555
C2 H1 1_555 1_555
C3 C2 1_555 1_555
H2 C3 1_555 1_555
C4 C3 1_555 1_555
H3 C4 1_555 1_555
C5 C4 1_555 1_555
H4 C5 1_555 1_555
C6 C1 1_555 1_555
H5 C6 1_555 1_555
C7 S1 1_555 1_555
C8 S2 1_555 1_555
C9 C8 1_555 1_555
H6 C9 1_555 1_555
C10 C9 1_555 1_555
H7 C10 1_555 1_555
C11 C10 1_555 1_555
H8 C11 1_555 1_555
C12 C11 1_555 1_555
H9 C12 1_555 1_555
C13 C8 1_555 1_555
H10 C13 1_555 1_555
C14 N1 1_555 1_555
C15 C14 1_555 1_555
H11 C15 1_555 1_555
C16 C15 1_555 1_555
H12 C16 1_555 1_555
C17 C16 1_555 1_555
H13 C17 1_555 1_555
C18 C17 1_555 1_555
H14 C18 1_555 1_555
C19 C14 1_555 1_555
C20 C19 1_555 1_555
H15 C20 1_555 1_555
C21 C20 1_555 1_555
H16 C21 1_555 1_555
C22 C21 1_555 1_555
C23 O2 1_555 1_555
H17 C23 1_555 1_555
H18 C23 1_555 1_555
H19 C23 1_555 1_555
C5 C6 1_555 1_555
C12 C13 1_555 1_555
C18 C19 1_555 1_555

#END
