
#######################################################################
#
#                 Cambridge Crystallographic Data Centre
#                                CCDC 
#
#######################################################################
#
# If this CIF has been generated from an entry in the Cambridge 
# Structural Database, then it will include bibliographic, chemical, 
# crystal, experimental, refinement or atomic coordinate data resulting 
# from the CCDC's data processing and validation procedures.
#
#######################################################################

data_RAJFIU
_chemical_formula_moiety         'C13 H12 N2 O1'
_chemical_name_systematic        1,3-diphenylurea
_symmetry_cell_setting           orthorhombic
_symmetry_space_group_name_H-M   'P n a 21'
_symmetry_Int_Tables_number      33
_space_group_name_Hall           'P 2c -2n'
loop_
_symmetry_equiv_pos_site_id
_symmetry_equiv_pos_as_xyz
1 x,y,z
2 -x,-y,1/2+z
3 1/2+x,1/2-y,z
4 1/2-x,1/2+y,1/2+z
_cell_length_a                   9.077(4)
_cell_length_b                   10.400(4)
_cell_length_c                   11.750(5)
_cell_angle_alpha                90
_cell_angle_beta                 90
_cell_angle_gamma                90
_cell_volume                     1109.21
_exptl_crystal_colour            colorless
_exptl_crystal_description       block
_cell_formula_units_Z            4
loop_
_atom_site_label
_atom_site_type_symbol
_atom_site_fract_x
_atom_site_fract_y
_atom_site_fract_z
O1 O 0.62395(16) 0.77745(16) 0.49900(14)
N1 N 0.4059(2) 0.79934(17) 0.59305(15)
H1 H 0.3118 0.7922 0.5875
N2 N 0.4092(2) 0.71707(18) 0.41330(15)
H2 H 0.3155 0.7108 0.4226
C1 C 0.4639(2) 0.84502(18) 0.69736(18)
C2 C 0.5839(2) 0.9286(2) 0.7025(2)
H3 H 0.6289 0.9566 0.6358
C3 C 0.6357(3) 0.96970(18) 0.8070(2)
H4 H 0.7169 1.0241 0.8102
C4 C 0.5685(3) 0.9310(2) 0.9070(2)
H5 H 0.6051 0.9579 0.9770
C5 C 0.4463(3) 0.8520(3) 0.9016(2)
H6 H 0.3985 0.8281 0.9683
C6 C 0.3942(3) 0.8081(2) 0.7976(2)
H7 H 0.3126 0.7540 0.7949
C7 C 0.4886(2) 0.76584(17) 0.50058(17)
C8 C 0.4677(2) 0.67556(17) 0.30781(18)
C9 C 0.4101(3) 0.5652(2) 0.2594(2)
H8 H 0.3388 0.5181 0.2980
C10 C 0.4589(3) 0.5248(3) 0.1531(2)
H9 H 0.4184 0.4516 0.1200
C11 C 0.5669(3) 0.5926(3) 0.0966(2)
H10 H 0.6010 0.5644 0.0263
C12 C 0.6245(3) 0.7030(2) 0.1453(2)
H11 H 0.6973 0.7490 0.1073
C13 C 0.5744(2) 0.7455(2) 0.25058(19)
H12 H 0.6122 0.8204 0.2824
loop_
_geom_bond_atom_site_label_1
_geom_bond_atom_site_label_2
_geom_bond_site_symmetry_1
_geom_bond_site_symmetry_2
O1 C7 1_555 1_555
N1 H1 1_555 1_555
N2 H2 1_555 1_555
C1 N1 1_555 1_555
C2 C1 1_555 1_555
H3 C2 1_555 1_555
C3 C2 1_555 1_555
H4 C3 1_555 1_555
C4 C3 1_555 1_555
H5 C4 1_555 1_555
C5 C4 1_555 1_555
H6 C5 1_555 1_555
C6 C1 1_555 1_555
H7 C6 1_555 1_555
C7 N1 1_555 1_555
C8 N2 1_555 1_555
C9 C8 1_555 1_555
H8 C9 1_555 1_555
C10 C9 1_555 1_555
H9 C10 1_555 1_555
C11 C10 1_555 1_555
H10 C11 1_555 1_555
C12 C11 1_555 1_555
H11 C12 1_555 1_555
C13 C8 1_555 1_555
H12 C13 1_555 1_555
N2 C7 1_555 1_555
C5 C6 1_555 1_555
C12 C13 1_555 1_555

#END
