
#######################################################################
#
#                 Cambridge Crystallographic Data Centre
#                                CCDC 
#
#######################################################################
#
# If this CIF has been generated from an entry in the Cambridge 
# Structural Database, then it will include bibliographic, chemical, 
# crystal, experimental, refinement or atomic coordinate data resulting 
# from the CCDC's data processing and validation procedures.
#
#######################################################################

data_RAJGIS
_chemical_formula_moiety         'C22 H23 N1 O4 S1'
_chemical_name_systematic        
3-(1,3-Benzodioxol-5-yl)-N-(p-tosyl)-2,3,5,6,7,7a-hexahydroindole
_symmetry_cell_setting           monoclinic
_symmetry_space_group_name_H-M   'P 21/n'
_symmetry_Int_Tables_number      14
_space_group_name_Hall           '-P 2yn'
loop_
_symmetry_equiv_pos_site_id
_symmetry_equiv_pos_as_xyz
1 x,y,z
2 1/2+x,1/2-y,1/2+z
3 -x,-y,-z
4 1/2-x,1/2+y,1/2-z
_cell_length_a                   9.9458(2)
_cell_length_b                   16.1368(4)
_cell_length_c                   12.0708(3)
_cell_angle_alpha                90
_cell_angle_beta                 94.2552(13)
_cell_angle_gamma                90
_cell_volume                     1931.94
_exptl_crystal_colour            colorless
_exptl_crystal_description       prism
_chemical_melting_point          98-100deg.C
_cell_formula_units_Z            4
loop_
_atom_site_label
_atom_site_type_symbol
_atom_site_fract_x
_atom_site_fract_y
_atom_site_fract_z
S1 S 0.74189(3) 0.22032(2) 0.82131(3)
O1 O 0.8707(1) 0.00764(9) 1.42407(8)
O2 O 0.67889(11) 0.03554(9) 1.51447(9)
O3 O 0.8018(1) 0.19780(8) 0.72157(9)
O4 O 0.77453(11) 0.29768(7) 0.87524(11)
N1 N 0.7832(1) 0.14803(6) 0.91206(9)
C1 C 0.74779(14) 0.16003(8) 1.02777(11)
C2 C 0.65724(12) 0.08576(8) 1.0526(1)
C3 C 0.74216(13) -0.05928(8) 1.00612(11)
C4 C 0.81769(15) -0.11571(9) 0.93350(12)
C5 C 0.85278(14) -0.07467(9) 0.82510(12)
C6 C 0.88553(12) 0.01720(8) 0.84041(11)
C7 C 0.56541(13) 0.21640(8) 0.79336(12)
C8 C 0.51095(13) 0.17051(9) 0.70346(12)
C9 C 0.37122(15) 0.1637(1) 0.68594(15)
C10 C 0.28638(14) 0.2010(1) 0.75693(16)
C11 C 0.13543(16) 0.19004(12) 0.7389(2)
C12 C 0.34300(16) 0.2478(1) 0.84463(16)
C13 C 0.48180(15) 0.25597(9) 0.86389(14)
C14 C 0.65595(12) 0.06943(7) 1.1755(1)
C15 C 0.77365(12) 0.04250(8) 1.2361(1)
C16 C 0.76946(12) 0.03445(9) 1.3485(1)
C17 C 0.82029(17) 0.02003(14) 1.53042(13)
C18 C 0.65484(14) 0.05127(9) 1.40252(11)
C19 C 0.53843(13) 0.0776(1) 1.34586(12)
C20 C 0.54109(13) 0.08618(9) 1.23077(11)
C21 C 0.71663(11) 0.01949(7) 0.98189(9)
C22 C 0.76094(12) 0.06002(8) 0.8780(1)
H1 H 0.83084(14) 0.16049(8) 1.07982(11)
H2 H 0.69762(14) 0.21323(8) 1.03497(11)
H3 H 0.55828(12) 0.09227(8) 1.0333(1)
H4 H 0.71005(13) -0.08223(8) 1.07644(11)
H5 H 0.90317(15) -0.13352(9) 0.97564(12)
H6 H 0.76031(15) -0.16540(9) 0.91490(12)
H7 H 0.93287(14) -0.10348(9) 0.79762(12)
H8 H 0.77426(14) -0.08039(9) 0.76890(12)
H9 H 0.96235(12) 0.02414(8) 0.89796(11)
H10 H 0.91042(12) 0.04150(8) 0.76852(11)
H11 H 0.57124(13) 0.14295(9) 0.65192(12)
H12 H 0.33160(15) 0.1313(1) 0.62087(15)
H13 H 0.09015(16) 0.22093(12) 0.7975(2)
H14 H 0.11261(16) 0.12981(12) 0.7430(2)
H15 H 0.10367(16) 0.21210(12) 0.6640(2)
H16 H 0.28242(16) 0.2762(1) 0.89517(16)
H17 H 0.52094(15) 0.28986(9) 0.92773(14)
H18 H 0.85730(12) 0.02947(8) 1.1984(1)
H19 H 0.86657(17) 0.06847(14) 1.56823(13)
H20 H 0.83666(17) -0.03073(14) 1.57700(13)
H21 H 0.45551(13) 0.0899(1) 1.38494(12)
H22 H 0.45765(13) 0.10510(9) 1.18666(11)
H23 H 0.69438(12) 0.05622(8) 0.8119(1)
loop_
_geom_bond_atom_site_label_1
_geom_bond_atom_site_label_2
_geom_bond_site_symmetry_1
_geom_bond_site_symmetry_2
S1 O3 1_555 1_555
O1 C16 1_555 1_555
O2 C17 1_555 1_555
O4 S1 1_555 1_555
N1 S1 1_555 1_555
C1 N1 1_555 1_555
C2 C1 1_555 1_555
C3 C4 1_555 1_555
C4 C5 1_555 1_555
C5 C6 1_555 1_555
C6 C22 1_555 1_555
C7 S1 1_555 1_555
C8 C7 1_555 1_555
C9 C8 1_555 1_555
C10 C9 1_555 1_555
C11 C10 1_555 1_555
C12 C10 1_555 1_555
C13 C7 1_555 1_555
C14 C2 1_555 1_555
C15 C14 1_555 1_555
C16 C15 1_555 1_555
C17 O1 1_555 1_555
C18 O2 1_555 1_555
C19 C18 1_555 1_555
C20 C14 1_555 1_555
C21 C2 1_555 1_555
C22 N1 1_555 1_555
H1 C1 1_555 1_555
H2 C1 1_555 1_555
H3 C2 1_555 1_555
H4 C3 1_555 1_555
H5 C4 1_555 1_555
H6 C4 1_555 1_555
H7 C5 1_555 1_555
H8 C5 1_555 1_555
H9 C6 1_555 1_555
H10 C6 1_555 1_555
H11 C8 1_555 1_555
H12 C9 1_555 1_555
H13 C11 1_555 1_555
H14 C11 1_555 1_555
H15 C11 1_555 1_555
H16 C12 1_555 1_555
H17 C13 1_555 1_555
H18 C15 1_555 1_555
H19 C17 1_555 1_555
H20 C17 1_555 1_555
H21 C19 1_555 1_555
H22 C20 1_555 1_555
H23 C22 1_555 1_555
C3 C21 1_555 1_555
C12 C13 1_555 1_555
C16 C18 1_555 1_555
C19 C20 1_555 1_555
C21 C22 1_555 1_555

#END
