
#######################################################################
#
#                 Cambridge Crystallographic Data Centre
#                                CCDC 
#
#######################################################################
#
# If this CIF has been generated from an entry in the Cambridge 
# Structural Database, then it will include bibliographic, chemical, 
# crystal, experimental, refinement or atomic coordinate data resulting 
# from the CCDC's data processing and validation procedures.
#
#######################################################################

data_RAJGOA
_chemical_formula_moiety         'C7 H5 Cl1 O2'
_chemical_name_systematic        5-Chloro-2-hydroxybenzaldehyde
_symmetry_cell_setting           monoclinic
_symmetry_space_group_name_H-M   'P 21'
_symmetry_Int_Tables_number      4
_space_group_name_Hall           'P 2yb'
loop_
_symmetry_equiv_pos_site_id
_symmetry_equiv_pos_as_xyz
1 x,y,z
2 -x,1/2+y,-z
_cell_length_a                   3.8818(5)
_cell_length_b                   5.6515(7)
_cell_length_c                   15.2037(19)
_cell_angle_alpha                90
_cell_angle_beta                 93.1760(10)
_cell_angle_gamma                90
_cell_volume                     333.026
_exptl_crystal_colour            colorless
_exptl_crystal_description       block
_cell_formula_units_Z            2
loop_
_atom_site_label
_atom_site_type_symbol
_atom_site_fract_x
_atom_site_fract_y
_atom_site_fract_z
Cl1 Cl 0.4230(3) 0.5038(2) 0.57876(7)
O1 O 0.1621(11) 0.1983(7) 0.9688(2)
O2 O -0.0657(9) -0.1318(7) 0.8504(2)
H1 H -0.0270 -0.0793 0.9003
C1 C 0.2598(15) 0.3107(10) 0.9066(3)
H2 H 0.3707 0.4540 0.9185
C2 C 0.2152(12) 0.2368(10) 0.8143(3)
C3 C 0.0553(10) 0.0201(10) 0.7914(2)
C4 C 0.0129(11) -0.0393(9) 0.7029(3)
H3 H -0.0950 -0.1809 0.6867
C5 C 0.1273(12) 0.1070(9) 0.6389(3)
H4 H 0.0993 0.0638 0.5799
C6 C 0.2853(11) 0.3203(8) 0.6622(3)
C7 C 0.3303(11) 0.3855(10) 0.7487(3)
H5 H 0.4370 0.5283 0.7638
loop_
_geom_bond_atom_site_label_1
_geom_bond_atom_site_label_2
_geom_bond_site_symmetry_1
_geom_bond_site_symmetry_2
Cl1 C6 1_555 1_555
O1 C1 1_555 1_555
O2 H1 1_555 1_555
C1 H2 1_555 1_555
C2 C1 1_555 1_555
C3 O2 1_555 1_555
C4 C3 1_555 1_555
H3 C4 1_555 1_555
C5 C4 1_555 1_555
H4 C5 1_555 1_555
C6 C5 1_555 1_555
C7 C2 1_555 1_555
H5 C7 1_555 1_555
C2 C3 1_555 1_555
C6 C7 1_555 1_555

#END
