
#######################################################################
#
#                 Cambridge Crystallographic Data Centre
#                                CCDC 
#
#######################################################################
#
# If this CIF has been generated from an entry in the Cambridge 
# Structural Database, then it will include bibliographic, chemical, 
# crystal, experimental, refinement or atomic coordinate data resulting 
# from the CCDC's data processing and validation procedures.
#
#######################################################################

data_RAJHEQ
_chemical_formula_moiety         'C13 H26 N5 3+,3(Cl1 1-),1.5(H2 O1)'
_chemical_name_systematic        
'1-(2-Pyridyl)-1,4,7,10-tetraazacyclododecane tris(hydrogen chloride) sesquihydrate'
_symmetry_cell_setting           triclinic
_symmetry_space_group_name_H-M   'P -1'
_symmetry_Int_Tables_number      2
_space_group_name_Hall           '-P 1'
loop_
_symmetry_equiv_pos_site_id
_symmetry_equiv_pos_as_xyz
1 x,y,z
2 -x,-y,-z
_cell_length_a                   11.6919(5)
_cell_length_b                   12.6275(7)
_cell_length_c                   15.0028(8)
_cell_angle_alpha                67.279(1)
_cell_angle_beta                 67.537(1)
_cell_angle_gamma                87.582(2)
_cell_volume                     1873.61
_exptl_crystal_colour            colorless
_exptl_crystal_description       block
_chemical_melting_point          202-204deg.C
_cell_formula_units_Z            4
_exptl_crystal_recrystallization_method ethanol/water
loop_
_atom_site_label
_atom_site_type_symbol
_atom_site_fract_x
_atom_site_fract_y
_atom_site_fract_z
Cl1 Cl 0.00158(5) 0.45245(5) 0.26913(5)
Cl2 Cl 1.03142(5) -0.03399(5) 0.22705(4)
Cl3 Cl 0.47025(5) 0.25217(5) 0.39979(4)
Cl4 Cl 0.79867(5) 0.08570(5) 0.50727(4)
Cl5 Cl 0.75470(5) 0.60139(4) -0.01759(4)
Cl6 Cl 0.59637(5) 0.22338(5) 0.07630(4)
O1 O 0.2203(2) 0.6660(2) 0.5064(1)
H1 H 0.2005 0.7449 0.5015
H2 H 0.1668 0.6167 0.5863
O2 O 0.7758(2) -0.1499(1) -0.0196(1)
H5 H 0.7765 -0.2165 -0.0255
H6 H 0.8321 -0.0955 -0.0818
O3 O -0.0744(2) 0.6979(2) 0.2796(2)
H9 H -0.0234 0.6247 0.2645
H10 H 0.0052 0.7623 0.2533
N1 N 0.3759(2) 0.5708(2) 0.2610(1)
N2 N 0.1975(2) 0.3685(2) 0.4173(1)
N3 N 0.0693(2) 0.2008(2) 0.3841(1)
N4 N 0.2898(2) 0.3685(2) 0.2180(1)
N5 N 0.4299(2) 0.6173(2) 0.3777(1)
C1 C 0.2439(2) 0.5809(2) 0.3166(2)
C2 C 0.1783(2) 0.4813(2) 0.4235(2)
C3 C 0.0996(2) 0.2752(2) 0.5049(2)
C4 C 0.1021(2) 0.1711(2) 0.4790(2)
C5 C 0.1590(2) 0.1791(2) 0.2925(2)
C6 C 0.2898(2) 0.2406(2) 0.2483(2)
C7 C 0.4177(2) 0.4331(2) 0.1700(2)
C8 C 0.4128(2) 0.5575(2) 0.1601(2)
C9 C 0.4635(2) 0.5879(2) 0.2938(1)
C10 C 0.5123(2) 0.6373(2) 0.4155(2)
C11 C 0.6352(2) 0.6281(2) 0.3705(2)
C12 C 0.6744(2) 0.5965(2) 0.2835(2)
C13 C 0.5917(2) 0.5770(2) 0.2457(2)
H3 H 0.2400 0.6509 0.3269
H4 H 0.2008 0.5838 0.2735
H7 H 0.0914 0.4874 0.4486
H8 H 0.2103 0.4867 0.4713
H11 H 0.2557 0.2994 0.4554
H12 H 0.1141 0.2544 0.5673
H13 H 0.0202 0.3020 0.5155
H14 H 0.0432 0.1098 0.5376
H15 H 0.1831 0.1475 0.4636
H16 H -0.0084 0.1570 0.4076
H17 H 0.0604 0.2809 0.3594
H18 H 0.1635 0.0982 0.3145
H19 H 0.1285 0.2047 0.2383
H20 H 0.3400 0.2271 0.1878
H21 H 0.3238 0.2103 0.3002
H22 H 0.2524 0.3977 0.1685
H23 H 0.2419 0.3815 0.2794
H24 H 0.4614 0.3951 0.2131
H25 H 0.4606 0.4332 0.1019
H26 H 0.3543 0.5897 0.1302
H27 H 0.4932 0.5992 0.1143
H28 H 0.3446 0.6244 0.4118
H29 H 0.4832 0.6579 0.4743
H30 H 0.6928 0.6423 0.3964
H31 H 0.7598 0.5887 0.2508
H32 H 0.6200 0.5561 0.1871
N6 N 0.6350(2) -0.0655(1) 0.2328(1)
N7 N 0.8709(2) 0.1164(1) 0.0851(1)
N8 N 0.8214(2) 0.3540(2) 0.0648(1)
N9 N 0.6849(2) 0.1437(2) 0.2717(1)
N10 N 0.5692(2) -0.1108(1) 0.1214(1)
C14 C 0.7628(2) -0.0827(2) 0.1736(2)
C15 C 0.8290(2) 0.0204(2) 0.0688(2)
C16 C 0.9303(2) 0.2183(2) -0.0137(2)
C17 C 0.9461(2) 0.3239(2) 0.0071(2)
C18 C 0.7925(2) 0.3455(2) 0.1737(2)
C19 C 0.7884(2) 0.2259(2) 0.2526(2)
C20 C 0.6920(2) 0.0210(2) 0.3379(2)
C21 C 0.6063(2) -0.0645(2) 0.3377(2)
C22 C 0.5422(2) -0.0819(2) 0.2053(1)
C23 C 0.4808(2) -0.1314(2) 0.0888(2)
C24 C 0.3587(2) -0.1245(2) 0.1401(2)
C25 C 0.3265(2) -0.0938(2) 0.2261(2)
C26 C 0.4146(2) -0.0724(2) 0.2582(2)
H33 H 0.8097 -0.0940 0.2154
H34 H 0.7588 -0.1496 0.1599
H35 H 0.7730 0.0455 0.0348
H36 H 0.8992 -0.0030 0.0255
H37 H 0.9320 0.0996 0.1010
H38 H 1.0099 0.2035 -0.0531
H39 H 0.8798 0.2330 -0.0529
H40 H 0.9882 0.3874 -0.0582
H41 H 0.9941 0.3083 0.0485
H42 H 0.8161 0.4316 0.0235
H43 H 0.7591 0.3037 0.0696
H44 H 0.8547 0.3950 0.1700
H45 H 0.7135 0.3713 0.1982
H46 H 0.7768 0.2302 0.3172
H47 H 0.8654 0.1975 0.2268
H48 H 0.6076 0.1658 0.3069
H49 H 0.6895 0.1478 0.2059
H50 H 0.7753 0.0043 0.3110
H51 H 0.6695 0.0132 0.4083
H52 H 0.5236 -0.0462 0.3633
H53 H 0.6117 -0.1396 0.3836
H54 H 0.6536 -0.1170 0.0836
H55 H 0.5055 -0.1507 0.0294
H56 H 0.2972 -0.1399 0.1184
H57 H 0.2416 -0.0876 0.2629
H58 H 0.3904 -0.0510 0.3164
loop_
_geom_bond_atom_site_label_1
_geom_bond_atom_site_label_2
_geom_bond_site_symmetry_1
_geom_bond_site_symmetry_2
O1 H1 1_555 1_555
O2 H5 1_555 1_555
O3 H9 1_555 1_555
N1 C1 1_555 1_555
N2 C2 1_555 1_555
N3 C4 1_555 1_555
N4 C6 1_555 1_555
N5 C9 1_555 1_555
N6 C14 1_555 1_555
N7 C15 1_555 1_555
N8 C17 1_555 1_555
N9 C19 1_555 1_555
N10 C22 1_555 1_555
C1 C2 1_555 1_555
C2 H7 1_555 1_555
C3 N2 1_555 1_555
C4 C3 1_555 1_555
C5 N3 1_555 1_555
C6 C5 1_555 1_555
C7 N4 1_555 1_555
C8 N1 1_555 1_555
C9 N1 1_555 1_555
C10 N5 1_555 1_555
C11 C10 1_555 1_555
C12 C11 1_555 1_555
C13 C9 1_555 1_555
C14 C15 1_555 1_555
C15 H35 1_555 1_555
C16 N7 1_555 1_555
C17 C16 1_555 1_555
C18 N8 1_555 1_555
C19 C18 1_555 1_555
C20 N9 1_555 1_555
C21 N6 1_555 1_555
C22 N6 1_555 1_555
C23 N10 1_555 1_555
C24 C23 1_555 1_555
C25 C24 1_555 1_555
C26 C22 1_555 1_555
H2 O1 1_555 1_555
H3 C1 1_555 1_555
H4 C1 1_555 1_555
H6 O2 1_555 1_555
H8 C2 1_555 1_555
H10 O3 1_555 1_555
H11 N2 1_555 1_555
H12 C3 1_555 1_555
H13 C3 1_555 1_555
H14 C4 1_555 1_555
H15 C4 1_555 1_555
H16 N3 1_555 1_555
H17 N3 1_555 1_555
H18 C5 1_555 1_555
H19 C5 1_555 1_555
H20 C6 1_555 1_555
H21 C6 1_555 1_555
H22 N4 1_555 1_555
H23 N4 1_555 1_555
H24 C7 1_555 1_555
H25 C7 1_555 1_555
H26 C8 1_555 1_555
H27 C8 1_555 1_555
H28 N5 1_555 1_555
H29 C10 1_555 1_555
H30 C11 1_555 1_555
H31 C12 1_555 1_555
H32 C13 1_555 1_555
H33 C14 1_555 1_555
H34 C14 1_555 1_555
H36 C15 1_555 1_555
H37 N7 1_555 1_555
H38 C16 1_555 1_555
H39 C16 1_555 1_555
H40 C17 1_555 1_555
H41 C17 1_555 1_555
H42 N8 1_555 1_555
H43 N8 1_555 1_555
H44 C18 1_555 1_555
H45 C18 1_555 1_555
H46 C19 1_555 1_555
H47 C19 1_555 1_555
H48 N9 1_555 1_555
H49 N9 1_555 1_555
H50 C20 1_555 1_555
H51 C20 1_555 1_555
H52 C21 1_555 1_555
H53 C21 1_555 1_555
H54 N10 1_555 1_555
H55 C23 1_555 1_555
H56 C24 1_555 1_555
H57 C25 1_555 1_555
H58 C26 1_555 1_555
C7 C8 1_555 1_555
C12 C13 1_555 1_555
C20 C21 1_555 1_555
C25 C26 1_555 1_555

#END
