
#######################################################################
#
#                 Cambridge Crystallographic Data Centre
#                                CCDC 
#
#######################################################################
#
# If this CIF has been generated from an entry in the Cambridge 
# Structural Database, then it will include bibliographic, chemical, 
# crystal, experimental, refinement or atomic coordinate data resulting 
# from the CCDC's data processing and validation procedures.
#
#######################################################################

data_RAJJER
_chemical_name_common            
'bis(bis(Propyleneseleno)tetraselenafulvalene) hexafluoroarsinate'
_chemical_formula_moiety         '2(C12 H12 Se6 1+),C12 H12 Se6,2(As1 F6 1-)'
_chemical_name_systematic        
"bis(6,6',7,7'-Tetrahydro-5H,5'H-\D^2,2'^-bis(selenino(2,3-d)-1,3-selenole)) hexafluoroarsinate"
_symmetry_cell_setting           triclinic
_symmetry_space_group_name_H-M   'P -1'
_symmetry_Int_Tables_number      2
_space_group_name_Hall           '-P 1'
loop_
_symmetry_equiv_pos_site_id
_symmetry_equiv_pos_as_xyz
1 x,y,z
2 -x,-y,-z
_cell_length_a                   10.793(4)
_cell_length_b                   15.769(5)
_cell_length_c                   8.312(3)
_cell_angle_alpha                93.85(3)
_cell_angle_beta                 109.43(2)
_cell_angle_gamma                88.04(3)
_cell_volume                     1330.98
_exptl_crystal_colour            black
_exptl_crystal_description       plate
_cell_formula_units_Z            1
loop_
_atom_site_label
_atom_site_type_symbol
_atom_site_fract_x
_atom_site_fract_y
_atom_site_fract_z
Se1 Se 0.35078(9) 0.55542(6) 0.1949(1)
Se2 Se 0.65147(9) 0.50815(6) 0.2948(1)
Se3 Se 0.3841(1) 0.73537(8) 0.0665(2)
Se4 Se 0.28722(9) 0.36783(6) 0.3070(1)
Se5 Se 0.58440(9) 0.31354(6) 0.4096(1)
Se6 Se 0.1944(1) 0.18486(7) 0.3495(2)
C1 C 0.4838(8) 0.4760(6) 0.283(1)
C2 C 0.5927(8) 0.6150(6) 0.200(1)
C3 C 0.4659(8) 0.6335(6) 0.157(1)
C4 C 0.545(1) 0.7963(8) 0.103(2)
C5 C 0.649(1) 0.7506(9) 0.094(2)
C6 C 0.7149(7) 0.6715(4) 0.1800(9)
C7 C 0.4570(8) 0.3975(6) 0.328(1)
C8 C 0.4615(8) 0.2320(6) 0.410(1)
C9 C 0.3353(9) 0.2546(5) 0.366(1)
C10 C 0.290(1) 0.0752(6) 0.371(2)
C11 C 0.412(1) 0.0776(7) 0.327(1)
C12 C 0.5177(6) 0.1332(4) 0.4514(9)
Se7 Se 0.00770(10) 0.53013(6) 0.2338(1)
Se8 Se 0.0402(1) 0.64363(6) 0.5746(1)
Se9 Se 0.0442(1) 0.68524(7) 0.0317(1)
C13 C 0.0082(8) 0.5338(5) 0.463(1)
C14 C 0.0503(8) 0.6972(6) 0.379(1)
C15 C 0.0367(8) 0.6480(5) 0.2406(10)
C16 C 0.041(1) 0.8068(6) 0.095(1)
C17 C 0.126(1) 0.8275(6) 0.276(1)
C18 C 0.0714(9) 0.7971(5) 0.413(1)
C13A C -0.0082(8) 0.4662(5) 0.537(1)
Se7A Se -0.00770(10) 0.46987(6) 0.7662(1)
C15A C -0.0367(8) 0.3520(5) 0.7594(10)
Se9A Se -0.0442(1) 0.31476(7) 0.9683(1)
C16A C -0.041(1) 0.1932(6) 0.905(1)
C17A C -0.126(1) 0.1725(6) 0.724(1)
C18A C -0.0714(9) 0.2029(5) 0.587(1)
C14A C -0.0503(8) 0.3028(6) 0.621(1)
Se8A Se -0.0402(1) 0.35637(6) 0.4254(1)
As1 As 0.2111(1) 0.96468(8) 0.8248(2)
F1 F 0.192(2) 1.0657(7) 0.863(2)
F2 F 0.0615(10) 0.942(1) 0.790(2)
F3 F 0.260(1) 0.9416(7) 1.033(1)
F4 F 0.241(2) 0.8620(6) 0.795(1)
F5 F 0.179(1) 0.9762(7) 0.619(1)
F6 F 0.367(1) 0.989(1) 0.865(2)
loop_
_geom_bond_atom_site_label_1
_geom_bond_atom_site_label_2
_geom_bond_site_symmetry_1
_geom_bond_site_symmetry_2
Se1 C1 1_555 1_555
Se2 C1 1_555 1_555
Se3 C3 1_555 1_555
Se4 C7 1_555 1_555
Se5 C7 1_555 1_555
Se6 C9 1_555 1_555
Se7 C13 1_555 1_555
Se8 C13 1_555 1_555
Se9 C15 1_555 1_555
As1 F1 1_555 1_555
F2 As1 1_555 1_555
F3 As1 1_555 1_555
F4 As1 1_555 1_555
F5 As1 1_555 1_555
F6 As1 1_555 1_555
C1 C7 1_555 1_555
C2 Se2 1_555 1_555
C3 Se1 1_555 1_555
C4 Se3 1_555 1_555
C5 C4 1_555 1_555
C6 C2 1_555 1_555
C8 Se5 1_555 1_555
C9 Se4 1_555 1_555
C10 Se6 1_555 1_555
C11 C10 1_555 1_555
C12 C8 1_555 1_555
C13 C13A 1_555 1_555
C14 Se8 1_555 1_555
C15 Se7 1_555 1_555
C16 Se9 1_555 1_555
C17 C16 1_555 1_555
C18 C14 1_555 1_555
C13A Se7A 1_555 1_555
Se7A C15A 1_555 1_555
C15A Se9A 1_555 1_555
Se9A C16A 1_555 1_555
C16A C17A 1_555 1_555
C17A C18A 1_555 1_555
C18A C14A 1_555 1_555
C14A C15A 1_555 1_555
Se8A C13A 1_555 1_555
C2 C3 1_555 1_555
C5 C6 1_555 1_555
C8 C9 1_555 1_555
C11 C12 1_555 1_555
C14 C15 1_555 1_555
C17 C18 1_555 1_555
C14A Se8A 1_555 1_555

#END
