
#######################################################################
#
#                 Cambridge Crystallographic Data Centre
#                                CCDC 
#
#######################################################################
#
# If this CIF has been generated from an entry in the Cambridge 
# Structural Database, then it will include bibliographic, chemical, 
# crystal, experimental, refinement or atomic coordinate data resulting 
# from the CCDC's data processing and validation procedures.
#
#######################################################################

data_RAJJAQ
_chemical_formula_moiety         'C30 H20 O2 S2'
_chemical_name_systematic        
'2,3,5,6-tetraphenylthieno[3,2-b]thiophene 1,4-dioxide'
_symmetry_cell_setting           monoclinic
_symmetry_space_group_name_H-M   'P 21/c'
_symmetry_Int_Tables_number      14
_space_group_name_Hall           '-P 2ybc'
loop_
_symmetry_equiv_pos_site_id
_symmetry_equiv_pos_as_xyz
1 x,y,z
2 -x,1/2+y,1/2-z
3 -x,-y,-z
4 x,1/2-y,1/2+z
_cell_length_a                   6.1630(13)
_cell_length_b                   12.311(3)
_cell_length_c                   15.334(4)
_cell_angle_alpha                90
_cell_angle_beta                 101.210(7)
_cell_angle_gamma                90
_cell_volume                     1141.24
_exptl_crystal_description       needle
_cell_formula_units_Z            2
loop_
_atom_site_label
_atom_site_type_symbol
_atom_site_fract_x
_atom_site_fract_y
_atom_site_fract_z
S1 S 0.6750(4) 0.5866(2) 0.41692(15)
O1 O 0.8934(5) 0.6297(3) 0.4606(2)
C1 C 0.7052(4) 0.4480(2) 0.39487(16)
C2 C 0.5847(4) 0.3824(2) 0.43973(16)
C3 C 0.4809(4) 0.4457(2) 0.49899(17)
C4 C 0.8329(4) 0.4196(2) 0.32579(16)
C5 C 0.7621(4) 0.3375(2) 0.26442(17)
H1 H 0.6287 0.2996 0.2661
C6 C 0.8853(5) 0.3107(2) 0.20081(17)
H2 H 0.8373 0.2537 0.1598
C7 C 1.0776(5) 0.3667(3) 0.19685(18)
H3 H 1.1614 0.3483 0.1531
C8 C 1.1478(5) 0.4492(2) 0.25622(17)
H4 H 1.2796 0.4879 0.2532
C9 C 1.0269(4) 0.4760(2) 0.32021(17)
H5 H 1.0760 0.5333 0.3608
C10 C 0.5603(4) 0.2631(2) 0.42940(15)
C11 C 0.3513(4) 0.2176(2) 0.39953(17)
H6 H 0.2237 0.2626 0.3894
C12 C 0.3309(5) 0.1072(2) 0.38475(17)
H7 H 0.1890 0.0767 0.3633
C13 C 0.5149(5) 0.0408(2) 0.40089(17)
H8 H 0.4995 -0.0352 0.3906
C14 C 0.7208(4) 0.0849(2) 0.43196(16)
H9 H 0.8473 0.0392 0.4435
C15 C 0.7439(4) 0.1951(2) 0.44635(16)
H10 H 0.8864 0.2248 0.4680
S1B S 0.3250(4) 0.4134(2) 0.58308(15)
O1B O 0.1066(5) 0.3703(3) 0.5394(2)
C1B C 0.2948(4) 0.5520(2) 0.60513(16)
C2B C 0.4153(4) 0.6176(2) 0.56027(16)
C3B C 0.5191(4) 0.5543(2) 0.50101(17)
C4B C 0.1671(4) 0.5804(2) 0.67421(16)
C5B C 0.2379(4) 0.6625(2) 0.73558(17)
H1B H 0.3713 0.7004 0.7339
C6B C 0.1147(5) 0.6893(2) 0.79919(17)
H2B H 0.1627 0.7463 0.8402
C7B C -0.0776(5) 0.6333(3) 0.80315(18)
H3B H -0.1614 0.6517 0.8469
C8B C -0.1478(5) 0.5508(2) 0.74378(17)
H4B H -0.2796 0.5121 0.7468
C9B C -0.0269(4) 0.5240(2) 0.67979(17)
H5B H -0.0760 0.4667 0.6392
C10B C 0.4397(4) 0.7369(2) 0.57060(15)
C11B C 0.6487(4) 0.7824(2) 0.60047(17)
H6B H 0.7763 0.7374 0.6106
C12B C 0.6691(5) 0.8928(2) 0.61525(17)
H7B H 0.8110 0.9233 0.6367
C13B C 0.4851(5) 0.9592(2) 0.59911(17)
H8B H 0.5005 1.0352 0.6094
C14B C 0.2792(4) 0.9151(2) 0.56804(16)
H9B H 0.1527 0.9608 0.5565
C15B C 0.2561(4) 0.8049(2) 0.55365(16)
H10B H 0.1136 0.7752 0.5320
O2? O 0.5576(6) 0.6449(3) 0.3435(2)
S2? S 0.6958(4) 0.5854(2) 0.43350(15)
loop_
_geom_bond_atom_site_label_1
_geom_bond_atom_site_label_2
_geom_bond_site_symmetry_1
_geom_bond_site_symmetry_2
S1 O1 1_555 1_555
C1 S1 1_555 1_555
C2 C1 1_555 1_555
C3 C2 1_555 1_555
C4 C1 1_555 1_555
C5 C4 1_555 1_555
H1 C5 1_555 1_555
C6 C5 1_555 1_555
H2 C6 1_555 1_555
C7 C6 1_555 1_555
H3 C7 1_555 1_555
C8 C7 1_555 1_555
H4 C8 1_555 1_555
C9 C4 1_555 1_555
H5 C9 1_555 1_555
C10 C2 1_555 1_555
C11 C10 1_555 1_555
H6 C11 1_555 1_555
C12 C11 1_555 1_555
H7 C12 1_555 1_555
C13 C12 1_555 1_555
H8 C13 1_555 1_555
C14 C13 1_555 1_555
H9 C14 1_555 1_555
C15 C10 1_555 1_555
H10 C15 1_555 1_555
S1B C3 1_555 1_555
O1B S1B 1_555 1_555
C1B S1B 1_555 1_555
C2B C1B 1_555 1_555
C3B S1 1_555 1_555
C4B C1B 1_555 1_555
C5B C4B 1_555 1_555
H1B C5B 1_555 1_555
C6B C5B 1_555 1_555
H2B C6B 1_555 1_555
C7B C6B 1_555 1_555
H3B C7B 1_555 1_555
C8B C7B 1_555 1_555
H4B C8B 1_555 1_555
C9B C4B 1_555 1_555
H5B C9B 1_555 1_555
C10B C2B 1_555 1_555
C11B C10B 1_555 1_555
H6B C11B 1_555 1_555
C12B C11B 1_555 1_555
H7B C12B 1_555 1_555
C13B C12B 1_555 1_555
H8B C13B 1_555 1_555
C14B C13B 1_555 1_555
H9B C14B 1_555 1_555
C15B C10B 1_555 1_555
H10B C15B 1_555 1_555
C3 C3B 1_555 1_555
C8 C9 1_555 1_555
C14 C15 1_555 1_555
C2B C3B 1_555 1_555
C8B C9B 1_555 1_555
C14B C15B 1_555 1_555

#END
