
#######################################################################
#
#                 Cambridge Crystallographic Data Centre
#                                CCDC 
#
#######################################################################
#
# If this CIF has been generated from an entry in the Cambridge 
# Structural Database, then it will include bibliographic, chemical, 
# crystal, experimental, refinement or atomic coordinate data resulting 
# from the CCDC's data processing and validation procedures.
#
#######################################################################

data_RAJJEU
_chemical_formula_moiety         'C34 H16 F12 S2'
_chemical_name_systematic        
2,3,5,6-tetrakis(4-(trifluoromethyl)phenyl)thieno[3,2-b]thiophene
_symmetry_cell_setting           triclinic
_symmetry_space_group_name_H-M   'P -1'
_symmetry_Int_Tables_number      2
_space_group_name_Hall           '-P 1'
loop_
_symmetry_equiv_pos_site_id
_symmetry_equiv_pos_as_xyz
1 x,y,z
2 -x,-y,-z
_cell_length_a                   10.7620(10)
_cell_length_b                   11.2068(9)
_cell_length_c                   14.2221(14)
_cell_angle_alpha                71.665(3)
_cell_angle_beta                 85.795(4)
_cell_angle_gamma                64.610(3)
_cell_volume                     1467.15
_exptl_crystal_description       plate
_cell_formula_units_Z            2
loop_
_atom_site_label
_atom_site_type_symbol
_atom_site_fract_x
_atom_site_fract_y
_atom_site_fract_z
C1 C 0.3786(3) 0.5367(3) 0.3628(2)
C2 C 0.4918(3) 0.4498(3) 0.3275(2)
C3 C 0.5461(3) 0.3136(3) 0.3972(2)
C4 C 0.4785(3) 0.2972(3) 0.4823(2)
C5 C 0.5334(3) 0.1607(3) 0.5513(2)
C6 C 0.6463(3) 0.0739(3) 0.5154(2)
C7 C 0.2829(3) 0.6818(3) 0.3145(2)
C8 C 0.2491(3) 0.7320(3) 0.2132(2)
H1 H 0.2897 0.6714 0.1743
C9 C 0.1575(3) 0.8684(3) 0.1676(2)
H2 H 0.1365 0.9016 0.0978
C10 C 0.0969(3) 0.9559(3) 0.2236(2)
C11 C 0.1264(3) 0.9069(3) 0.3252(2)
H3 H 0.0827 0.9671 0.3639
C12 C 0.2192(3) 0.7709(3) 0.3708(2)
H4 H 0.2397 0.7380 0.4406
C13 C 0.5546(3) 0.4869(3) 0.2331(2)
C14 C 0.5864(3) 0.4047(3) 0.1716(2)
H5 H 0.5652 0.3267 0.1895
C15 C 0.6483(4) 0.4353(3) 0.0850(2)
H6 H 0.6696 0.3785 0.0433
C16 C 0.6793(3) 0.5471(3) 0.0587(2)
C17 C 0.6489(4) 0.6288(4) 0.1189(3)
H7 H 0.6707 0.7063 0.1006
C18 C 0.5869(3) 0.5994(3) 0.2056(2)
H8 H 0.5661 0.6567 0.2468
C19 C 0.4714(3) 0.1234(3) 0.6457(2)
C20 C 0.5497(3) 0.0521(3) 0.7358(2)
H9 H 0.6457 0.0287 0.7378
C21 C 0.4897(3) 0.0150(3) 0.8225(2)
H10 H 0.5447 -0.0347 0.8835
C22 C 0.3506(3) 0.0498(3) 0.8210(2)
C23 C 0.2707(3) 0.1236(3) 0.7325(2)
H11 H 0.1744 0.1488 0.7312
C24 C 0.3307(3) 0.1608(3) 0.6459(2)
H12 H 0.2748 0.2128 0.5854
C25 C 0.7357(3) -0.0753(3) 0.5586(2)
C26 C 0.8728(3) -0.1298(3) 0.5363(2)
H13 H 0.9079 -0.0691 0.4934
C27 C 0.9586(3) -0.2684(3) 0.5742(2)
H14 H 1.0518 -0.3032 0.5573
C28 C 0.9094(3) -0.3571(3) 0.6367(2)
C29 C 0.7730(3) -0.3064(3) 0.6594(2)
H15 H 0.7388 -0.3679 0.7023
C30 C 0.6864(3) -0.1668(3) 0.6198(2)
H16 H 0.5923 -0.1330 0.6345
S1 S 0.34343(8) 0.45295(8) 0.48048(6)
S2 S 0.68374(9) 0.15927(8) 0.39936(6)
C31 C 0.7442(9) 0.5832(9) -0.0363(6)
F1 F 0.8070(11) 0.4762(5) -0.0716(5)
F2 F 0.6496(5) 0.6859(7) -0.1088(3)
F3 F 0.8372(8) 0.6281(12) -0.0282(4)
C32 C 1.0026(11) -0.5086(10) 0.6761(8)
F4 F 1.1363(7) -0.5330(9) 0.6746(6)
F5 F 0.9850(8) -0.5832(8) 0.6257(8)
F6 F 0.9843(10) -0.5655(9) 0.7711(5)
C33 C 0.2879(9) 0.0073(9) 0.9144(5)
F7 F 0.1510(6) 0.0507(9) 0.9033(6)
F8 F 0.3421(8) -0.1308(6) 0.9558(5)
F9 F 0.3061(7) 0.0589(7) 0.9830(4)
C34 C -0.0019(8) 1.1038(7) 0.1772(6)
F10 F -0.0122(11) 1.1433(10) 0.0788(4)
F11 F -0.1285(6) 1.1285(9) 0.2069(6)
F12 F 0.0325(15) 1.1908(6) 0.2025(10)
C35? C 0.7521(14) 0.5824(14) -0.0330(10)
F13? F 0.6739(13) 0.6110(18) -0.1139(7)
F14? F 0.8722(11) 0.4742(10) -0.0338(9)
F15? F 0.7762(15) 0.6943(11) -0.0466(9)
C36? C 0.7485(14) 0.5719(15) -0.0362(10)
F16? F 0.7380(13) 0.5053(13) -0.0963(7)
F17? F 0.6947(15) 0.7074(10) -0.0886(9)
F18? F 0.8819(9) 0.5362(16) -0.0169(8)
C37? C 0.9994(13) -0.5098(11) 0.6735(9)
F19? F 1.1215(9) -0.5349(12) 0.7121(8)
F20? F 1.0250(11) -0.5686(10) 0.6013(7)
F21? F 0.9456(10) -0.5784(10) 0.7464(7)
C38? C 1.0053(16) -0.5041(14) 0.6894(12)
F22? F 1.0431(19) -0.5258(15) 0.7834(9)
F23? F 1.1213(15) -0.5467(17) 0.6431(13)
F24? F 0.9478(16) -0.5904(12) 0.6941(17)
C39? C 0.2913(15) 0.0021(16) 0.9147(10)
F25? F 0.1562(12) 0.0815(19) 0.9138(13)
F26? F 0.3524(13) 0.0013(13) 0.9939(7)
F27? F 0.3065(18) -0.1285(13) 0.9341(11)
C40? C 0.2959(19) 0.006(2) 0.9180(12)
F28? F 0.239(3) 0.108(2) 0.9591(17)
F29? F 0.392(2) -0.101(3) 0.9865(13)
F30? F 0.199(3) -0.036(4) 0.9098(16)
C41? C 0.0103(18) 1.1075(14) 0.1773(12)
F31? F -0.037(3) 1.140(2) 0.0850(13)
F32? F -0.098(3) 1.1562(19) 0.2283(17)
F33? F 0.080(2) 1.1820(14) 0.1736(18)
loop_
_geom_bond_atom_site_label_1
_geom_bond_atom_site_label_2
_geom_bond_site_symmetry_1
_geom_bond_site_symmetry_2
C1 C2 1_555 1_555
C2 C3 1_555 1_555
C3 C4 1_555 1_555
C4 C5 1_555 1_555
C5 C6 1_555 1_555
C6 C25 1_555 1_555
C7 C1 1_555 1_555
C8 C7 1_555 1_555
H1 C8 1_555 1_555
C9 C8 1_555 1_555
H2 C9 1_555 1_555
C10 C9 1_555 1_555
C11 C10 1_555 1_555
H3 C11 1_555 1_555
C12 C7 1_555 1_555
H4 C12 1_555 1_555
C13 C2 1_555 1_555
C14 C13 1_555 1_555
H5 C14 1_555 1_555
C15 C14 1_555 1_555
H6 C15 1_555 1_555
C16 C15 1_555 1_555
C17 C16 1_555 1_555
H7 C17 1_555 1_555
C18 C13 1_555 1_555
H8 C18 1_555 1_555
C19 C5 1_555 1_555
C20 C19 1_555 1_555
H9 C20 1_555 1_555
C21 C20 1_555 1_555
H10 C21 1_555 1_555
C22 C21 1_555 1_555
C23 C22 1_555 1_555
H11 C23 1_555 1_555
C24 C19 1_555 1_555
H12 C24 1_555 1_555
C25 C26 1_555 1_555
C26 H13 1_555 1_555
C27 C26 1_555 1_555
H14 C27 1_555 1_555
C28 C27 1_555 1_555
C29 C28 1_555 1_555
H15 C29 1_555 1_555
C30 C25 1_555 1_555
H16 C30 1_555 1_555
S1 C1 1_555 1_555
S2 C3 1_555 1_555
C31 C16 1_555 1_555
F1 C31 1_555 1_555
F2 C31 1_555 1_555
F3 C31 1_555 1_555
C32 C28 1_555 1_555
F4 C32 1_555 1_555
F5 C32 1_555 1_555
F6 C32 1_555 1_555
C33 C22 1_555 1_555
F7 C33 1_555 1_555
F8 C33 1_555 1_555
F9 C33 1_555 1_555
C34 C10 1_555 1_555
F10 C34 1_555 1_555
F11 C34 1_555 1_555
F12 C34 1_555 1_555
C4 S1 1_555 1_555
C6 S2 1_555 1_555
C11 C12 1_555 1_555
C17 C18 1_555 1_555
C23 C24 1_555 1_555
C29 C30 1_555 1_555

#END
