
#######################################################################
#
#                 Cambridge Crystallographic Data Centre
#                                CCDC 
#
#######################################################################
#
# If this CIF has been generated from an entry in the Cambridge 
# Structural Database, then it will include bibliographic, chemical, 
# crystal, experimental, refinement or atomic coordinate data resulting 
# from the CCDC's data processing and validation procedures.
#
#######################################################################

data_RAJKEU
_chemical_formula_moiety         'C20 H27 N1 O2'
_chemical_name_systematic        
2-(((1-(Adamantan-1-yl)ethyl)imino)methyl)-6-methoxyphenol
_symmetry_cell_setting           monoclinic
_symmetry_space_group_name_H-M   'P 21/c'
_symmetry_Int_Tables_number      14
_space_group_name_Hall           '-P 2ybc'
loop_
_symmetry_equiv_pos_site_id
_symmetry_equiv_pos_as_xyz
1 x,y,z
2 -x,1/2+y,1/2-z
3 -x,-y,-z
4 x,1/2-y,1/2+z
_cell_length_a                   10.1635(11)
_cell_length_b                   12.8830(15)
_cell_length_c                   14.0684(17)
_cell_angle_alpha                90
_cell_angle_beta                 111.1300(10)
_cell_angle_gamma                90
_cell_volume                     1718.21
_exptl_crystal_colour            yellow
_exptl_crystal_description       plate
_chemical_melting_point          '371.5 K'
_cell_formula_units_Z            4
loop_
_atom_site_label
_atom_site_type_symbol
_atom_site_fract_x
_atom_site_fract_y
_atom_site_fract_z
N1 N 0.6924(2) 0.70971(16) 0.42699(16)
O1 O 0.60979(18) 0.60398(13) 0.25663(14)
H1 H 0.6620 0.6201 0.3143
O2 O 0.42576(19) 0.57699(15) 0.07098(14)
C1 C 0.5918(3) 0.7722(2) 0.3840(2)
H2 H 0.5798 0.8290 0.4209
C2 C 0.4950(3) 0.75897(19) 0.2800(2)
C3 C 0.5062(3) 0.67503(19) 0.2213(2)
C4 C 0.4078(3) 0.6623(2) 0.1228(2)
C5 C 0.3029(3) 0.7339(2) 0.0841(2)
H3 H 0.2367 0.7252 0.0188
C6 C 0.2944(3) 0.8192(2) 0.1411(2)
H4 H 0.2239 0.8682 0.1131
C7 C 0.3885(3) 0.8322(2) 0.2380(2)
H5 H 0.3817 0.8896 0.2760
C8 C 0.3183(3) 0.5552(3) -0.0246(2)
H6 H 0.2313 0.5411 -0.0147
H7 H 0.3447 0.4957 -0.0548
H8 H 0.3061 0.6139 -0.0689
C9 C 0.9205(3) 0.7794(2) 0.5230(2)
H9 H 0.9561 0.7340 0.4838
H10 H 0.9904 0.7878 0.5899
H11 H 0.8989 0.8458 0.4900
C10 C 0.7882(3) 0.7332(2) 0.53120(19)
H12 H 0.7435 0.7865 0.5591
C11 C 0.8105(3) 0.63643(18) 0.59889(18)
C12 C 0.6689(3) 0.5989(2) 0.6014(2)
H13 H 0.6250 0.6545 0.6257
H14 H 0.6069 0.5812 0.5328
C13 C 0.6872(3) 0.5044(2) 0.6704(2)
H15 H 0.5951 0.4822 0.6705
C14 C 0.7535(4) 0.4171(2) 0.6306(2)
H16 H 0.6923 0.3986 0.5620
H17 H 0.7652 0.3564 0.6736
C15 C 0.8965(3) 0.4521(2) 0.6300(2)
H18 H 0.9393 0.3957 0.6044
C16 C 0.9930(3) 0.4805(2) 0.7378(2)
H19 H 1.0839 0.5031 0.7375
H20 H 1.0078 0.4203 0.7819
C17 C 0.9251(3) 0.5676(2) 0.7777(2)
H21 H 0.9866 0.5857 0.8472
C18 C 0.9059(3) 0.6624(2) 0.70905(19)
H22 H 0.9972 0.6856 0.7101
H23 H 0.8641 0.7185 0.7346
C19 C 0.8773(3) 0.54714(19) 0.56116(19)
H24 H 0.9682 0.5688 0.5603
H25 H 0.8176 0.5291 0.4921
C20 C 0.7833(3) 0.5324(2) 0.7784(2)
H26 H 0.7407 0.5875 0.8045
H27 H 0.7956 0.4724 0.8225
loop_
_geom_bond_atom_site_label_1
_geom_bond_atom_site_label_2
_geom_bond_site_symmetry_1
_geom_bond_site_symmetry_2
N1 C1 1_555 1_555
O1 H1 1_555 1_555
O2 C4 1_555 1_555
C1 H2 1_555 1_555
C2 C1 1_555 1_555
C3 O1 1_555 1_555
C4 C3 1_555 1_555
C5 C4 1_555 1_555
H3 C5 1_555 1_555
C6 C5 1_555 1_555
H4 C6 1_555 1_555
C7 C2 1_555 1_555
H5 C7 1_555 1_555
C8 O2 1_555 1_555
H6 C8 1_555 1_555
H7 C8 1_555 1_555
H8 C8 1_555 1_555
C9 H9 1_555 1_555
H10 C9 1_555 1_555
H11 C9 1_555 1_555
C10 N1 1_555 1_555
H12 C10 1_555 1_555
C11 C10 1_555 1_555
C12 C11 1_555 1_555
H13 C12 1_555 1_555
H14 C12 1_555 1_555
C13 C12 1_555 1_555
H15 C13 1_555 1_555
C14 C13 1_555 1_555
H16 C14 1_555 1_555
H17 C14 1_555 1_555
C15 C14 1_555 1_555
H18 C15 1_555 1_555
C16 C15 1_555 1_555
H19 C16 1_555 1_555
H20 C16 1_555 1_555
C17 C16 1_555 1_555
H21 C17 1_555 1_555
C18 C11 1_555 1_555
H22 C18 1_555 1_555
H23 C18 1_555 1_555
C19 C11 1_555 1_555
H24 C19 1_555 1_555
H25 C19 1_555 1_555
C20 C13 1_555 1_555
H26 C20 1_555 1_555
H27 C20 1_555 1_555
C2 C3 1_555 1_555
C6 C7 1_555 1_555
C9 C10 1_555 1_555
C15 C19 1_555 1_555
C17 C18 1_555 1_555
C17 C20 1_555 1_555

#END
