
#######################################################################
#
#                 Cambridge Crystallographic Data Centre
#                                CCDC 
#
#######################################################################
#
# If this CIF has been generated from an entry in the Cambridge 
# Structural Database, then it will include bibliographic, chemical, 
# crystal, experimental, refinement or atomic coordinate data resulting 
# from the CCDC's data processing and validation procedures.
#
#######################################################################

data_RAJLOF
_chemical_formula_moiety         'C27 H45 O5,C1 H4 O1'
_chemical_name_systematic        
'3,6,23-trihydroxy-5,25R-spirostane methanol solvate'
_symmetry_cell_setting           orthorhombic
_symmetry_space_group_name_H-M   'P 21 21 21'
_symmetry_Int_Tables_number      19
_space_group_name_Hall           'P 2ac 2ab'
loop_
_symmetry_equiv_pos_site_id
_symmetry_equiv_pos_as_xyz
1 x,y,z
2 1/2-x,-y,1/2+z
3 -x,1/2+y,1/2-z
4 1/2+x,1/2-y,-z
_cell_length_a                   8.6887(17)
_cell_length_b                   13.516(3)
_cell_length_c                   22.545(5)
_cell_angle_alpha                90
_cell_angle_beta                 90
_cell_angle_gamma                90
_cell_volume                     2647.61
_cell_formula_units_Z            4
loop_
_atom_site_label
_atom_site_type_symbol
_atom_site_fract_x
_atom_site_fract_y
_atom_site_fract_z
O1 O 0.7107(3) -0.05433(17) 0.08701(11)
H1 H 0.6170 -0.0583 0.0834
O2 O 0.8195(3) 0.20816(16) 0.08557(10)
O3 O 0.8178(4) 0.1019(3) 0.17132(15)
O4 O 0.0593(3) 0.30447(17) 0.38961(11)
H2 H 0.1224 0.3451 0.4013
O5 O 0.0874(3) 0.1228(2) 0.59006(11)
H3 H 0.1341 0.1074 0.6203
C1 C 0.6949(6) 0.1968(4) -0.07598(18)
H4 H 0.7455 0.2563 -0.0886
H5 H 0.5871 0.2096 -0.0706
H6 H 0.7082 0.1464 -0.1056
C2 C 0.7651(4) 0.1615(3) -0.01694(15)
H7 H 0.8744 0.1482 -0.0239
C3 C 0.7544(5) 0.2401(3) 0.02989(16)
H8 H 0.8081 0.2988 0.0164
H9 H 0.6472 0.2575 0.0359
C4 C 0.7462(3) 0.1224(2) 0.11039(14)
C5 C 0.5891(3) 0.14215(18) 0.12073(9)
H10 H 0.5324 0.0811 0.1266
H11 H 0.5444 0.1775 0.0875
C6 C 0.5852(4) 0.2027(2) 0.17418(14)
H12 H 0.6137 0.2713 0.1654
C7 C 0.4301(4) 0.1980(3) 0.20644(14)
H13 H 0.3632 0.1484 0.1891
H14 H 0.3784 0.2616 0.2059
C8 C 0.4787(4) 0.1692(2) 0.26950(14)
H15 H 0.5295 0.2278 0.2860
C9 C 0.3570(4) 0.1393(2) 0.31466(13)
H16 H 0.2977 0.0833 0.2992
C10 C 0.2476(4) 0.2263(2) 0.32631(14)
H17 H 0.3089 0.2849 0.3340
H18 H 0.1885 0.2385 0.2905
C11 C 0.1354(4) 0.2121(2) 0.37784(14)
H19 H 0.0577 0.1634 0.3660
C12 C 0.2165(4) 0.1743(2) 0.43374(14)
H20 H 0.2893 0.2261 0.4454
C13 C 0.1061(4) 0.1611(3) 0.48635(14)
H21 H 0.0494 0.2220 0.4928
H22 H 0.0327 0.1092 0.4774
C14 C 0.1948(4) 0.1347(3) 0.54197(14)
H23 H 0.2651 0.1891 0.5515
C15 C 0.2881(4) 0.0414(3) 0.53264(15)
H24 H 0.2190 -0.0140 0.5262
H25 H 0.3480 0.0277 0.5680
C16 C 0.3959(4) 0.0515(3) 0.47961(14)
H26 H 0.4489 -0.0109 0.4737
H27 H 0.4730 0.1012 0.4887
C17 C 0.3142(4) 0.0806(2) 0.42113(13)
C18 C 0.2142(5) -0.0073(2) 0.40052(16)
H28 H 0.1404 -0.0230 0.4308
H29 H 0.2787 -0.0637 0.3934
H30 H 0.1614 0.0102 0.3646
C19 C 0.4352(4) 0.1093(2) 0.37331(14)
H31 H 0.4851 0.1694 0.3881
C20 C 0.5655(5) 0.0341(3) 0.36394(16)
H32 H 0.6170 0.0223 0.4015
H33 H 0.5219 -0.0282 0.3506
C21 C 0.6835(4) 0.0701(3) 0.31828(16)
H34 H 0.7337 0.1293 0.3331
H35 H 0.7617 0.0197 0.3128
C22 C 0.6080(4) 0.0927(2) 0.25900(14)
C23 C 0.5476(4) -0.0042(3) 0.23128(17)
H36 H 0.6318 -0.0493 0.2256
H37 H 0.5006 0.0100 0.1937
H38 H 0.4730 -0.0335 0.2573
C24 C 0.7071(4) 0.1528(2) 0.21478(14)
H39 H 0.7632 0.2042 0.2365
C25 C 0.9841(4) 0.1368(3) 0.17785(18)
H40 H 1.0478 0.1026 0.1497
H41 H 1.0196 0.1229 0.2173
H42 H 0.9894 0.2067 0.1706
C26 C 0.7618(4) 0.0384(2) 0.06484(15)
H43 H 0.8724 0.0309 0.0576
C27 C 0.6921(4) 0.0665(3) 0.00588(15)
H44 H 0.5820 0.0758 0.0104
H45 H 0.7087 0.0136 -0.0225
O6 O 0.8173(4) 0.3546(3) 0.31983(14)
H46 H 0.8890 0.3404 0.3419
C28 C 0.8751(7) 0.3959(4) 0.2673(2)
H47 H 0.8442 0.4639 0.2647
H48 H 0.8353 0.3601 0.2339
H49 H 0.9854 0.3919 0.2674
loop_
_geom_bond_atom_site_label_1
_geom_bond_atom_site_label_2
_geom_bond_site_symmetry_1
_geom_bond_site_symmetry_2
O1 H1 1_555 1_555
O2 C3 1_555 1_555
O3 C4 1_555 1_555
O4 H2 1_555 1_555
O5 H3 1_555 1_555
C1 H4 1_555 1_555
H5 C1 1_555 1_555
H6 C1 1_555 1_555
C2 C1 1_555 1_555
H7 C2 1_555 1_555
C3 C2 1_555 1_555
H8 C3 1_555 1_555
H9 C3 1_555 1_555
C4 O2 1_555 1_555
C5 C4 1_555 1_555
H10 C5 1_555 1_555
H11 C5 1_555 1_555
C6 C5 1_555 1_555
H12 C6 1_555 1_555
C7 C6 1_555 1_555
H13 C7 1_555 1_555
H14 C7 1_555 1_555
C8 C7 1_555 1_555
H15 C8 1_555 1_555
C9 C8 1_555 1_555
H16 C9 1_555 1_555
C10 C9 1_555 1_555
H17 C10 1_555 1_555
H18 C10 1_555 1_555
C11 O4 1_555 1_555
H19 C11 1_555 1_555
C12 C11 1_555 1_555
H20 C12 1_555 1_555
C13 C12 1_555 1_555
H21 C13 1_555 1_555
H22 C13 1_555 1_555
C14 O5 1_555 1_555
H23 C14 1_555 1_555
C15 C14 1_555 1_555
H24 C15 1_555 1_555
H25 C15 1_555 1_555
C16 C15 1_555 1_555
H26 C16 1_555 1_555
H27 C16 1_555 1_555
C17 C12 1_555 1_555
C18 C17 1_555 1_555
H28 C18 1_555 1_555
H29 C18 1_555 1_555
H30 C18 1_555 1_555
C19 C9 1_555 1_555
H31 C19 1_555 1_555
C20 C19 1_555 1_555
H32 C20 1_555 1_555
H33 C20 1_555 1_555
C21 C20 1_555 1_555
H34 C21 1_555 1_555
H35 C21 1_555 1_555
C22 C8 1_555 1_555
C23 C22 1_555 1_555
H36 C23 1_555 1_555
H37 C23 1_555 1_555
H38 C23 1_555 1_555
C24 O3 1_555 1_555
H39 C24 1_555 1_555
C25 O3 1_555 1_555
H40 C25 1_555 1_555
H41 C25 1_555 1_555
H42 C25 1_555 1_555
C26 O1 1_555 1_555
H43 C26 1_555 1_555
C27 C2 1_555 1_555
H44 C27 1_555 1_555
H45 C27 1_555 1_555
O6 H46 1_555 1_555
C28 O6 1_555 1_555
H47 C28 1_555 1_555
H48 C28 1_555 1_555
H49 C28 1_555 1_555
C4 C26 1_555 1_555
C6 C24 1_555 1_555
C10 C11 1_555 1_555
C13 C14 1_555 1_555
C16 C17 1_555 1_555
C17 C19 1_555 1_555
C21 C22 1_555 1_555
C22 C24 1_555 1_555
C26 C27 1_555 1_555

#END
