
#######################################################################
#
#                 Cambridge Crystallographic Data Centre
#                                CCDC 
#
#######################################################################
#
# If this CIF has been generated from an entry in the Cambridge 
# Structural Database, then it will include bibliographic, chemical, 
# crystal, experimental, refinement or atomic coordinate data resulting 
# from the CCDC's data processing and validation procedures.
#
#######################################################################

data_RAJPOI
_chemical_formula_moiety         'C25 H11 Cl2 N1 O8,2(C3 H7 N1 O1)'
_chemical_name_systematic        
"5'-Aminohydroxymethylene-1',2'-dichloro-spiro(7H-pyrano(3,2-c:5,6-c')dichromene-7,4'-cyclohexene)-3',6,6',8-tetraone dimethylformamide solvate"
_symmetry_cell_setting           triclinic
_symmetry_space_group_name_H-M   'P -1'
_symmetry_Int_Tables_number      2
_space_group_name_Hall           '-P 1'
loop_
_symmetry_equiv_pos_site_id
_symmetry_equiv_pos_as_xyz
1 x,y,z
2 -x,-y,-z
_cell_length_a                   11.5490(10)
_cell_length_b                   11.7200(10)
_cell_length_c                   12.4580(10)
_cell_angle_alpha                112.263(2)
_cell_angle_beta                 95.223(2)
_cell_angle_gamma                91.974(2)
_cell_volume                     1549.71
_exptl_crystal_colour            orange
_exptl_crystal_description       block
_cell_formula_units_Z            2
loop_
_atom_site_label
_atom_site_type_symbol
_atom_site_fract_x
_atom_site_fract_y
_atom_site_fract_z
Cl1 Cl 0.11031(7) 0.54702(7) 0.84710(6)
Cl2 Cl 0.29896(8) 0.40792(8) 0.93813(6)
O1 O 0.07260(10) 0.46800(10) 0.60230(10)
O2 O 0.3972(2) 0.2238(2) 0.74890(10)
O3 O 0.2321(2) 0.1979(2) 0.3500(2)
O4 O 0.1188(2) 0.1268(2) 0.6520(2)
O5 O 0.12460(10) -0.0591(2) 0.5161(2)
O6 O 0.41500(10) 0.05090(10) 0.40140(10)
O7 O 0.57240(10) 0.40430(10) 0.54110(10)
O8 O 0.4459(2) 0.4663(2) 0.6690(2)
N1 N 0.1028(2) 0.3439(2) 0.3817(2)
C1 C 0.1782(2) 0.2866(2) 0.4243(2)
C2 C 0.2069(2) 0.3144(2) 0.5448(2)
C3 C 0.1491(2) 0.4061(2) 0.6264(2)
C4 C 0.1825(2) 0.4334(2) 0.7534(2)
C5 C 0.2623(2) 0.3755(2) 0.7925(2)
C6 C 0.3258(2) 0.2775(2) 0.7131(2)
C7 C 0.3001(2) 0.2420(2) 0.5800(2)
C8 C 0.2646(2) 0.1037(2) 0.5271(2)
C9 C 0.1661(2) 0.0626(2) 0.5710(2)
C10 C 0.1778(2) -0.1416(2) 0.4276(2)
C11 C 0.1295(2) -0.2628(2) 0.3803(3)
C12 C 0.1814(3) -0.3476(2) 0.2933(3)
C13 C 0.2799(3) -0.3157(2) 0.2532(3)
C14 C 0.3275(2) -0.1954(2) 0.2997(2)
C15 C 0.2762(2) -0.1068(2) 0.3885(2)
C16 C 0.3179(2) 0.0213(2) 0.4439(2)
C17 C 0.4625(2) 0.1703(2) 0.4524(2)
C18 C 0.5674(2) 0.1922(2) 0.4074(2)
C19 C 0.6205(2) 0.1010(2) 0.3219(2)
C20 C 0.7211(2) 0.1328(2) 0.2846(2)
C21 C 0.7685(2) 0.2534(3) 0.3307(2)
C22 C 0.7176(2) 0.3435(2) 0.4149(2)
C23 C 0.6179(2) 0.3119(2) 0.4534(2)
C24 C 0.4749(2) 0.3821(2) 0.5875(2)
C25 C 0.4157(2) 0.2600(2) 0.5366(2)
H1 H 0.232(3) 0.200(3) 0.2830(10)
H2 H 0.075(2) 0.317(2) 0.3110(10)
H3 H 0.062(2) 0.394(2) 0.4280(10)
H4 H 0.0635 -0.2856 0.4072
H5 H 0.1495 -0.4290 0.2602
H6 H 0.3143 -0.3755 0.1946
H7 H 0.3935 -0.1734 0.2722
H8 H 0.5884 0.0197 0.2905
H9 H 0.7571 0.0726 0.2280
H10 H 0.8359 0.2739 0.3043
H11 H 0.7497 0.4248 0.4456
O9 O 0.3001(2) 0.2024(3) 0.1623(2)
N2 N 0.4559(2) 0.2249(2) 0.0769(2)
C26 C 0.3957(3) 0.2558(3) 0.1656(3)
C27 C 0.4145(3) 0.1235(3) -0.0297(3)
C28 C 0.5631(3) 0.2923(4) 0.0801(4)
H12 H 0.4255 0.3207 0.2343
H13 H 0.3547 0.0737 -0.0154
H14 H 0.4779 0.0740 -0.0589
H15 H 0.3831 0.1547 -0.0864
H16 H 0.5817 0.3566 0.1561
H17 H 0.5548 0.3283 0.0225
H18 H 0.6246 0.2371 0.0639
O10 O 0.0011(8) 0.1918(6) 0.1526(5)
N3 N -0.0456(5) 0.1369(7) -0.0444(5)
C29 C 0.0318(5) 0.1819(5) 0.0536(5)
C30 C -0.1604(5) 0.1046(5) -0.0381(5)
C31 C -0.0068(6) 0.1217(8) -0.1530(5)
H19 H 0.1081 0.2058 0.0486
H20 H -0.1720 0.1221 0.0417
H21 H -0.1780 0.0180 -0.0835
H22 H -0.2109 0.1515 -0.0684
H23 H -0.0379 0.1829 -0.1790
H24 H -0.0331 0.0407 -0.2092
H25 H 0.0768 0.1311 -0.1445
O11? O 0.025(2) 0.188(2) 0.134(2)
N4? N -0.0220(10) 0.1560(10) -0.0390(10)
C32? C -0.0570(10) 0.1304(11) 0.0510(10)
C33? C 0.0720(10) 0.2256(15) -0.043(2)
C34? C -0.100(2) 0.094(2) -0.1560(10)
H26? H -0.1231 0.0839 0.0529
H27? H 0.1111 0.2684 0.0341
H28? H 0.0472 0.2846 -0.0752
H29? H 0.1246 0.1731 -0.0917
H30? H -0.0651 0.0224 -0.2053
H31? H -0.1086 0.1513 -0.1937
H32? H -0.1757 0.0689 -0.1421
loop_
_geom_bond_atom_site_label_1
_geom_bond_atom_site_label_2
_geom_bond_site_symmetry_1
_geom_bond_site_symmetry_2
Cl1 C4 1_555 1_555
Cl2 C5 1_555 1_555
O1 C3 1_555 1_555
O2 C6 1_555 1_555
O3 C1 1_555 1_555
O4 C9 1_555 1_555
O5 C9 1_555 1_555
O6 C16 1_555 1_555
O7 C23 1_555 1_555
O8 C24 1_555 1_555
O9 C26 1_555 1_555
O10 C29 1_555 1_555
N1 C1 1_555 1_555
N2 C26 1_555 1_555
N3 C29 1_555 1_555
C1 C2 1_555 1_555
C2 C3 1_555 1_555
C3 C4 1_555 1_555
C4 C5 1_555 1_555
C5 C6 1_555 1_555
C6 C7 1_555 1_555
C7 C2 1_555 1_555
C8 C7 1_555 1_555
C9 C8 1_555 1_555
C10 O5 1_555 1_555
C11 C10 1_555 1_555
C12 C11 1_555 1_555
C13 C12 1_555 1_555
C14 C13 1_555 1_555
C15 C10 1_555 1_555
C16 C8 1_555 1_555
C17 O6 1_555 1_555
C18 C17 1_555 1_555
C19 C18 1_555 1_555
C20 C19 1_555 1_555
C21 C20 1_555 1_555
C22 C21 1_555 1_555
C23 C18 1_555 1_555
C24 O7 1_555 1_555
C25 C7 1_555 1_555
C26 H12 1_555 1_555
C27 N2 1_555 1_555
C28 N2 1_555 1_555
C29 H19 1_555 1_555
C30 N3 1_555 1_555
C31 N3 1_555 1_555
H1 O3 1_555 1_555
H2 N1 1_555 1_555
H3 N1 1_555 1_555
H4 C11 1_555 1_555
H5 C12 1_555 1_555
H6 C13 1_555 1_555
H7 C14 1_555 1_555
H8 C19 1_555 1_555
H9 C20 1_555 1_555
H10 C21 1_555 1_555
H11 C22 1_555 1_555
H13 C27 1_555 1_555
H14 C27 1_555 1_555
H15 C27 1_555 1_555
H16 C28 1_555 1_555
H17 C28 1_555 1_555
H18 C28 1_555 1_555
H20 C30 1_555 1_555
H21 C30 1_555 1_555
H22 C30 1_555 1_555
H23 C31 1_555 1_555
H24 C31 1_555 1_555
H25 C31 1_555 1_555
C14 C15 1_555 1_555
C15 C16 1_555 1_555
C17 C25 1_555 1_555
C22 C23 1_555 1_555
C24 C25 1_555 1_555

#END
