
#######################################################################
#
#                 Cambridge Crystallographic Data Centre
#                                CCDC 
#
#######################################################################
#
# If this CIF has been generated from an entry in the Cambridge 
# Structural Database, then it will include bibliographic, chemical, 
# crystal, experimental, refinement or atomic coordinate data resulting 
# from the CCDC's data processing and validation procedures.
#
#######################################################################

data_RAJQAV
_chemical_formula_moiety         'C17 H12 N2 O3'
_chemical_name_systematic        
2-(3-Phenyl-1,2,4-oxadiazol-5-yl)-4H-1-benzopyran-3-ol
_chemical_properties_biological  'potential biological activity'
_symmetry_cell_setting           monoclinic
_symmetry_space_group_name_H-M   'P 21/n'
_symmetry_Int_Tables_number      14
_space_group_name_Hall           '-P 2yn'
loop_
_symmetry_equiv_pos_site_id
_symmetry_equiv_pos_as_xyz
1 x,y,z
2 1/2+x,1/2-y,1/2+z
3 -x,-y,-z
4 1/2-x,1/2+y,1/2-z
_cell_length_a                   5.6750(10)
_cell_length_b                   9.346(2)
_cell_length_c                   25.440(5)
_cell_angle_alpha                90
_cell_angle_beta                 92.06(3)
_cell_angle_gamma                90
_cell_volume                     1348.43
_exptl_crystal_colour            yellow
_exptl_crystal_description       block
_chemical_melting_point          '458-459 K'
_cell_formula_units_Z            4
_exptl_crystal_recrystallization_method ethanol
loop_
_atom_site_label
_atom_site_type_symbol
_atom_site_fract_x
_atom_site_fract_y
_atom_site_fract_z
O1 O 0.7300(3) 0.27393(19) 0.08773(6)
O2 O 0.1093(3) 0.5083(2) 0.05468(7)
O3 O 0.5595(3) 0.4486(2) 0.15899(6)
N1 N 0.7795(4) 0.1886(2) 0.04327(8)
N2 N 0.4497(3) 0.3179(2) 0.02721(8)
C1 C 0.7391(5) -0.0119(3) -0.10622(10)
H1 H 0.8522 -0.0780 -0.1159
C2 C 0.5544(5) 0.0215(3) -0.14068(10)
H2 H 0.5441 -0.0206 -0.1738
C3 C 0.3852(5) 0.1176(3) -0.12583(10)
H3 H 0.2590 0.1388 -0.1489
C4 C 0.4008(4) 0.1828(3) -0.07703(10)
H4 H 0.2862 0.2479 -0.0673
C5 C 0.5883(4) 0.1507(3) -0.04268(9)
C6 C 0.7566(5) 0.0520(3) -0.05780(10)
H5 H 0.8822 0.0292 -0.0348
C7 C 0.6095(4) 0.2186(2) 0.00953(9)
C8 C 0.5329(4) 0.3457(2) 0.07447(9)
C9 C 0.4317(4) 0.4415(2) 0.11166(9)
C10 C 0.4881(4) 0.5466(2) 0.19563(9)
C11 C 0.6350(4) 0.5607(3) 0.23999(10)
H6 H 0.7708 0.5054 0.2437
C12 C 0.5790(5) 0.6570(3) 0.27854(10)
H7 H 0.6781 0.6681 0.3082
C13 C 0.3738(5) 0.7375(3) 0.27297(11)
H8 H 0.3342 0.8019 0.2991
C14 C 0.2297(5) 0.7216(3) 0.22887(10)
H9 H 0.0930 0.7762 0.2256
C15 C 0.2824(4) 0.6262(2) 0.18894(9)
C16 C 0.1277(4) 0.6129(3) 0.13968(10)
H10 H -0.0261 0.5774 0.1488
H11 H 0.1062 0.7067 0.1239
C17 C 0.2314(4) 0.5147(2) 0.10089(9)
H12 H 0.171(6) 0.449(4) 0.0328(13)
loop_
_geom_bond_atom_site_label_1
_geom_bond_atom_site_label_2
_geom_bond_site_symmetry_1
_geom_bond_site_symmetry_2
O1 N1 1_555 1_555
O2 C17 1_555 1_555
O3 C9 1_555 1_555
N1 C7 1_555 1_555
N2 C7 1_555 1_555
C1 H1 1_555 1_555
C2 C1 1_555 1_555
H2 C2 1_555 1_555
C3 C2 1_555 1_555
H3 C3 1_555 1_555
C4 C3 1_555 1_555
H4 C4 1_555 1_555
C5 C4 1_555 1_555
C6 C1 1_555 1_555
H5 C6 1_555 1_555
C7 C5 1_555 1_555
C8 O1 1_555 1_555
C9 C8 1_555 1_555
C10 O3 1_555 1_555
C11 C10 1_555 1_555
H6 C11 1_555 1_555
C12 C11 1_555 1_555
H7 C12 1_555 1_555
C13 C12 1_555 1_555
H8 C13 1_555 1_555
C14 C13 1_555 1_555
H9 C14 1_555 1_555
C15 C10 1_555 1_555
C16 C15 1_555 1_555
H10 C16 1_555 1_555
H11 C16 1_555 1_555
C17 C9 1_555 1_555
H12 O2 1_555 1_555
N2 C8 1_555 1_555
C5 C6 1_555 1_555
C14 C15 1_555 1_555
C16 C17 1_555 1_555

#END
