
#######################################################################
#
#                 Cambridge Crystallographic Data Centre
#                                CCDC 
#
#######################################################################
#
# If this CIF has been generated from an entry in the Cambridge 
# Structural Database, then it will include bibliographic, chemical, 
# crystal, experimental, refinement or atomic coordinate data resulting 
# from the CCDC's data processing and validation procedures.
#
#######################################################################

data_RAJYAF
_chemical_formula_moiety         'C21 H32 O4'
_chemical_name_systematic        
20-methoxy-7,20-epoxypimara-8,15-diene-6,14-diol
_symmetry_cell_setting           orthorhombic
_symmetry_space_group_name_H-M   'P 21 21 21'
_symmetry_Int_Tables_number      19
_space_group_name_Hall           'P 2ac 2ab'
loop_
_symmetry_equiv_pos_site_id
_symmetry_equiv_pos_as_xyz
1 x,y,z
2 1/2-x,-y,1/2+z
3 -x,1/2+y,1/2-z
4 1/2+x,1/2-y,-z
_cell_length_a                   8.8580(6)
_cell_length_b                   12.4336(7)
_cell_length_c                   17.5420(12)
_cell_angle_alpha                90
_cell_angle_beta                 90
_cell_angle_gamma                90
_cell_volume                     1932.02
_cell_formula_units_Z            4
loop_
_atom_site_label
_atom_site_type_symbol
_atom_site_fract_x
_atom_site_fract_y
_atom_site_fract_z
O1 O 0.2804(4) 0.4854(2) 0.31921(17)
H1 H 0.2345 0.5271 0.2914
O2 O 0.1379(3) 0.2448(2) 0.22381(15)
O3 O 0.1713(3) 0.1985(2) 0.09556(15)
O4 O 0.0724(3) 0.6029(2) 0.21264(18)
H2 H 0.0033 0.6436 0.2243
C1 C 0.4738(5) 0.2978(3) 0.0948(2)
H3 H 0.4318 0.2617 0.0507
H4 H 0.5165 0.3655 0.0777
C2 C 0.5995(5) 0.2286(4) 0.1279(3)
H5 H 0.6785 0.2192 0.0902
H6 H 0.5599 0.1581 0.1408
C3 C 0.6652(5) 0.2813(4) 0.1992(3)
H7 H 0.7075 0.3506 0.1855
H8 H 0.7466 0.2368 0.2186
C4 C 0.5467(5) 0.2973(3) 0.2626(3)
C5 C 0.4107(4) 0.3608(3) 0.2295(2)
H9 H 0.4512 0.4325 0.2187
C6 C 0.2802(5) 0.3810(3) 0.2860(2)
H10 H 0.2898 0.3285 0.3275
C7 C 0.1324(5) 0.3579(3) 0.2446(2)
H11 H 0.0458 0.3726 0.2777
C8 C 0.1274(4) 0.4277(3) 0.1743(2)
C9 C 0.2383(5) 0.4091(3) 0.1257(2)
C10 C 0.3469(5) 0.3211(3) 0.1513(2)
C11 C 0.2544(5) 0.4678(3) 0.0511(2)
H12 H 0.2265 0.4199 0.0098
H13 H 0.3593 0.4878 0.0440
C12 C 0.1565(4) 0.5687(3) 0.0474(2)
H14 H 0.1467 0.5910 -0.0053
H15 H 0.2063 0.6263 0.0750
C13 C -0.0015(5) 0.5512(4) 0.0812(2)
C14 C 0.0145(5) 0.5171(3) 0.1658(2)
H16 H -0.0837 0.4937 0.1854
C15 C -0.0942(6) 0.6546(4) 0.0777(3)
H17 H -0.1927 0.6497 0.0956
C16 C -0.0525(7) 0.7493(5) 0.0525(3)
H18 H 0.0447 0.7593 0.0338
H19 H -0.1201 0.8065 0.0534
C17 C 0.5088(6) 0.1886(4) 0.2988(3)
H20 H 0.4325 0.1984 0.3371
H21 H 0.5979 0.1590 0.3218
H22 H 0.4722 0.1404 0.2603
C18 C 0.6201(6) 0.3675(4) 0.3255(3)
H23 H 0.5493 0.3782 0.3662
H24 H 0.6483 0.4359 0.3045
H25 H 0.7084 0.3319 0.3449
C19 C 0.2439(5) 0.2224(3) 0.1645(2)
H26 H 0.3064 0.1609 0.1796
C20 C 0.0827(5) 0.1029(3) 0.0996(3)
H27 H 0.1393 0.0475 0.1248
H28 H 0.0573 0.0797 0.0489
H29 H -0.0082 0.1171 0.1276
C21 C -0.0880(5) 0.4627(4) 0.0388(3)
H30 H -0.0892 0.4784 -0.0147
H31 H -0.1898 0.4595 0.0576
H32 H -0.0393 0.3947 0.0472
loop_
_geom_bond_atom_site_label_1
_geom_bond_atom_site_label_2
_geom_bond_site_symmetry_1
_geom_bond_site_symmetry_2
O1 H1 1_555 1_555
O2 C7 1_555 1_555
O3 C19 1_555 1_555
O4 H2 1_555 1_555
C1 H3 1_555 1_555
H4 C1 1_555 1_555
C2 C1 1_555 1_555
H5 C2 1_555 1_555
H6 C2 1_555 1_555
C3 C2 1_555 1_555
H7 C3 1_555 1_555
H8 C3 1_555 1_555
C4 C3 1_555 1_555
C5 C4 1_555 1_555
H9 C5 1_555 1_555
C6 O1 1_555 1_555
H10 C6 1_555 1_555
C7 C6 1_555 1_555
H11 C7 1_555 1_555
C8 C7 1_555 1_555
C9 C8 1_555 1_555
C10 C1 1_555 1_555
C11 C9 1_555 1_555
H12 C11 1_555 1_555
H13 C11 1_555 1_555
C12 C11 1_555 1_555
H14 C12 1_555 1_555
H15 C12 1_555 1_555
C13 C12 1_555 1_555
C14 O4 1_555 1_555
H16 C14 1_555 1_555
C15 C13 1_555 1_555
H17 C15 1_555 1_555
C16 C15 1_555 1_555
H18 C16 1_555 1_555
H19 C16 1_555 1_555
C17 C4 1_555 1_555
H20 C17 1_555 1_555
H21 C17 1_555 1_555
H22 C17 1_555 1_555
C18 C4 1_555 1_555
H23 C18 1_555 1_555
H24 C18 1_555 1_555
H25 C18 1_555 1_555
C19 O2 1_555 1_555
H26 C19 1_555 1_555
C20 O3 1_555 1_555
H27 C20 1_555 1_555
H28 C20 1_555 1_555
H29 C20 1_555 1_555
C21 C13 1_555 1_555
H30 C21 1_555 1_555
H31 C21 1_555 1_555
H32 C21 1_555 1_555
C5 C6 1_555 1_555
C5 C10 1_555 1_555
C8 C14 1_555 1_555
C9 C10 1_555 1_555
C10 C19 1_555 1_555
C13 C14 1_555 1_555

#END
