
#######################################################################
#
#                 Cambridge Crystallographic Data Centre
#                                CCDC 
#
#######################################################################
#
# If this CIF has been generated from an entry in the Cambridge 
# Structural Database, then it will include bibliographic, chemical, 
# crystal, experimental, refinement or atomic coordinate data resulting 
# from the CCDC's data processing and validation procedures.
#
#######################################################################

data_RAJYIN
_chemical_formula_moiety         'C22 H32 O4'
_chemical_name_systematic        '3-hydroxy-7-oxopimara-8,15-dien-14-yl acetate'
_symmetry_cell_setting           orthorhombic
_symmetry_space_group_name_H-M   'P 21 21 21'
_symmetry_Int_Tables_number      19
_space_group_name_Hall           'P 2ac 2ab'
loop_
_symmetry_equiv_pos_site_id
_symmetry_equiv_pos_as_xyz
1 x,y,z
2 1/2-x,-y,1/2+z
3 -x,1/2+y,1/2-z
4 1/2+x,1/2-y,-z
_cell_length_a                   9.4327(6)
_cell_length_b                   13.1356(9)
_cell_length_c                   16.7370(9)
_cell_angle_alpha                90
_cell_angle_beta                 90
_cell_angle_gamma                90
_cell_volume                     2073.78
_cell_formula_units_Z            4
loop_
_atom_site_label
_atom_site_type_symbol
_atom_site_fract_x
_atom_site_fract_y
_atom_site_fract_z
O1 O 0.2211(3) 0.2339(3) 0.59841(14)
H1 H 0.1462 0.2487 0.6204
O2 O 0.9711(2) 0.2663(2) 0.68568(14)
O3 O 0.9175(2) 0.30253(17) 0.87863(13)
O4 O 1.1452(3) 0.3480(3) 0.8607(2)
C1 C 0.4343(3) 0.1354(3) 0.77377(18)
H2 H 0.4206 0.0759 0.8072
H3 H 0.4277 0.1952 0.8076
C2 C 0.3177(4) 0.1393(4) 0.7113(2)
H4 H 0.3206 0.0775 0.6796
H5 H 0.2264 0.1421 0.7379
C3 C 0.3327(3) 0.2304(3) 0.65682(19)
H6 H 0.3268 0.2921 0.6896
C4 C 0.4743(3) 0.2317(3) 0.61239(17)
C5 C 0.5929(3) 0.2200(2) 0.67559(16)
H7 H 0.5852 0.2814 0.7086
C6 C 0.7414(3) 0.2256(3) 0.63967(17)
H8 H 0.7569 0.1660 0.6066
H9 H 0.7474 0.2851 0.6055
C7 C 0.8552(3) 0.2312(3) 0.7012(2)
C8 C 0.8237(3) 0.1921(2) 0.78189(17)
C9 C 0.6998(3) 0.1452(2) 0.79809(18)
C10 C 0.5834(3) 0.1310(3) 0.73569(17)
C11 C 0.6798(4) 0.0941(3) 0.87801(18)
H10 H 0.6741 0.0212 0.8692
H11 H 0.5895 0.1158 0.8998
C12 C 0.7939(4) 0.1139(3) 0.94041(19)
H12 H 0.7908 0.0601 0.9801
H13 H 0.7732 0.1776 0.9673
C13 C 0.9429(4) 0.1192(3) 0.90529(19)
C14 C 1.0524(4) 0.1441(3) 0.9685(2)
H14 H 1.1454 0.1502 0.9506
C15 C 1.0327(5) 0.1581(3) 1.0445(2)
H15 H 0.9421 0.1530 1.0660
H16 H 1.1093 0.1731 1.0775
C16 C 0.9413(3) 0.2035(2) 0.84178(18)
H17 H 1.0325 0.2042 0.8137
C17 C 0.4781(4) 0.1502(3) 0.54589(18)
H18 H 0.4183 0.1711 0.5025
H19 H 0.4449 0.0865 0.5668
H20 H 0.5736 0.1424 0.5270
C18 C 0.4898(4) 0.3349(3) 0.5709(2)
H21 H 0.5080 0.3866 0.6101
H22 H 0.4038 0.3507 0.5428
H23 H 0.5672 0.3321 0.5337
C19 C 0.6079(4) 0.0247(3) 0.6989(2)
H24 H 0.6153 -0.0249 0.7409
H25 H 0.6939 0.0252 0.6683
H26 H 0.5296 0.0076 0.6648
C20 C 0.9848(4) 0.0198(3) 0.8646(2)
H27 H 0.9806 -0.0348 0.9027
H28 H 1.0795 0.0255 0.8442
H29 H 0.9206 0.0061 0.8214
C21 C 1.0279(5) 0.3682(3) 0.8818(3)
C22 C 0.9812(5) 0.4675(3) 0.9165(3)
H30 H 0.9421 0.5095 0.8750
H31 H 1.0611 0.5014 0.9401
H32 H 0.9105 0.4555 0.9566
loop_
_geom_bond_atom_site_label_1
_geom_bond_atom_site_label_2
_geom_bond_site_symmetry_1
_geom_bond_site_symmetry_2
O1 H1 1_555 1_555
O2 C7 1_555 1_555
O3 C16 1_555 1_555
O4 C21 1_555 1_555
C1 H2 1_555 1_555
H3 C1 1_555 1_555
C2 C1 1_555 1_555
H4 C2 1_555 1_555
H5 C2 1_555 1_555
C3 O1 1_555 1_555
H6 C3 1_555 1_555
C4 C3 1_555 1_555
C5 C4 1_555 1_555
H7 C5 1_555 1_555
C6 C5 1_555 1_555
H8 C6 1_555 1_555
H9 C6 1_555 1_555
C7 C6 1_555 1_555
C8 C7 1_555 1_555
C9 C8 1_555 1_555
C10 C1 1_555 1_555
C11 C9 1_555 1_555
H10 C11 1_555 1_555
H11 C11 1_555 1_555
C12 C11 1_555 1_555
H12 C12 1_555 1_555
H13 C12 1_555 1_555
C13 C12 1_555 1_555
C14 C13 1_555 1_555
H14 C14 1_555 1_555
C15 C14 1_555 1_555
H15 C15 1_555 1_555
H16 C15 1_555 1_555
C16 C8 1_555 1_555
H17 C16 1_555 1_555
C17 C4 1_555 1_555
H18 C17 1_555 1_555
H19 C17 1_555 1_555
H20 C17 1_555 1_555
C18 C4 1_555 1_555
H21 C18 1_555 1_555
H22 C18 1_555 1_555
H23 C18 1_555 1_555
C19 C10 1_555 1_555
H24 C19 1_555 1_555
H25 C19 1_555 1_555
H26 C19 1_555 1_555
C20 C13 1_555 1_555
H27 C20 1_555 1_555
H28 C20 1_555 1_555
H29 C20 1_555 1_555
C21 O3 1_555 1_555
C22 C21 1_555 1_555
H30 C22 1_555 1_555
H31 C22 1_555 1_555
H32 C22 1_555 1_555
C2 C3 1_555 1_555
C5 C10 1_555 1_555
C9 C10 1_555 1_555
C13 C16 1_555 1_555

#END
