
#######################################################################
#
#                 Cambridge Crystallographic Data Centre
#                                CCDC 
#
#######################################################################
#
# If this CIF has been generated from an entry in the Cambridge 
# Structural Database, then it will include bibliographic, chemical, 
# crystal, experimental, refinement or atomic coordinate data resulting 
# from the CCDC's data processing and validation procedures.
#
#######################################################################

data_RAKBIQ
_chemical_formula_moiety         'C18 H21 N1 O6'
_chemical_name_systematic        
3-(2-Nitro-1-phenylpropyl)-1,5-dioxaspiro[5.5]undecane-2,4-dione
_symmetry_cell_setting           triclinic
_symmetry_space_group_name_H-M   'P 1'
_symmetry_Int_Tables_number      1
_space_group_name_Hall           'P 1'
loop_
_symmetry_equiv_pos_site_id
_symmetry_equiv_pos_as_xyz
1 x,y,z
_cell_length_a                   11.3125(2)
_cell_length_b                   12.0218(2)
_cell_length_c                   13.7304(10)
_cell_angle_alpha                102.179(7)
_cell_angle_beta                 107.108(8)
_cell_angle_gamma                93.227(7)
_cell_volume                     1730.44
_exptl_crystal_colour            colorless
_exptl_crystal_description       block
_cell_formula_units_Z            4
loop_
_atom_site_label
_atom_site_type_symbol
_atom_site_fract_x
_atom_site_fract_y
_atom_site_fract_z
O1 O 0.8156(3) 0.9023(2) 0.6085(2)
O2 O 0.9302(3) 1.0559(3) 0.7212(3)
O3 O 0.5203(4) 0.9520(3) 0.7067(3)
O4 O 0.6077(3) 0.8495(3) 0.6017(3)
O5 O 0.8365(5) 1.0374(3) 1.0000(3)
O6 O 0.6498(4) 1.0104(3) 1.0100(3)
N1 N 0.7262(5) 1.0497(3) 0.9741(3)
C1 C 0.7181(5) 0.8072(4) 0.5835(4)
C2 C 0.7624(5) 0.7214(4) 0.6482(4)
C3 C 0.8707(5) 0.6641(4) 0.6190(4)
C4 C 0.8345(6) 0.6113(4) 0.5014(4)
C5 C 0.7933(6) 0.7009(4) 0.4394(4)
C6 C 0.6855(6) 0.7566(4) 0.4668(4)
C7 C 0.8369(5) 0.9872(4) 0.6957(3)
C8 C 0.7447(4) 0.9904(4) 0.7553(3)
C9 C 0.6140(6) 0.9323(4) 0.6872(4)
C10 C 0.7497(5) 1.1156(4) 0.8195(4)
C11 C 0.6798(5) 1.1258(4) 0.8997(3)
C12 C 0.6987(7) 1.2474(4) 0.9668(5)
C13 C 0.7128(5) 1.1998(4) 0.7497(4)
C14 C 0.5936(5) 1.1987(4) 0.6860(4)
C15 C 0.5653(5) 1.2787(5) 0.6243(5)
C16 C 0.6583(5) 1.3592(4) 0.6257(4)
C17 C 0.7758(5) 1.3621(4) 0.6896(4)
C18 C 0.8061(5) 1.2841(4) 0.7528(4)
H1 H 0.6922 0.6617 0.6361
H2 H 0.7909 0.7608 0.7236
H3 H 0.9448 0.7221 0.6403
H4 H 0.8929 0.6036 0.6577
H5 H 0.9066 0.5791 0.4845
H6 H 0.7657 0.5480 0.4813
H7 H 0.7670 0.6642 0.3634
H8 H 0.8645 0.7607 0.4549
H9 H 0.6646 0.8179 0.4288
H10 H 0.6112 0.6984 0.4435
H11 H 0.7749 0.9441 0.8082
H12 H 0.8394 1.1411 0.8610
H13 H 0.5888 1.1020 0.8622
H14 H 0.7874 1.2700 1.0060
H15 H 0.6508 1.2506 1.0161
H16 H 0.6701 1.3000 0.9216
H17 H 0.5293 1.1429 0.6837
H18 H 0.4821 1.2776 0.5814
H19 H 0.6400 1.4120 0.5823
H20 H 0.8392 1.4186 0.6916
H21 H 0.8890 1.2879 0.7975
O7 O 0.7485(3) 0.9164(2) 1.2823(2)
O8 O 0.6086(3) 0.8108(3) 1.1400(3)
O9 O 1.0358(4) 0.7836(3) 1.2152(3)
O10 O 0.9636(3) 0.9119(2) 1.3146(2)
O11 O 0.8417(3) 0.7863(3) 0.9175(3)
O12 O 0.6439(4) 0.7909(3) 0.8525(3)
N2 N 0.7321(4) 0.7558(3) 0.9083(3)
C19 C 0.8695(4) 0.9847(3) 1.3227(3)
C20 C 0.8937(5) 1.0357(4) 1.4390(4)
C21 C 0.8068(5) 1.1227(4) 1.4576(4)
C22 C 0.8100(6) 1.2156(4) 1.3993(4)
C23 C 0.7805(6) 1.1624(4) 1.2817(4)
C24 C 0.8715(5) 1.0778(4) 1.2634(4)
C25 C 0.7167(5) 0.8444(4) 1.1856(4)
C26 C 0.8197(5) 0.8109(4) 1.1417(4)
C27 C 0.9487(5) 0.8324(4) 1.2244(4)
C28 C 0.7990(5) 0.6856(4) 1.0727(3)
C29 C 0.7021(5) 0.6686(3) 0.9655(3)
C30 C 0.7001(5) 0.5524(4) 0.8939(4)
C31 C 0.7687(5) 0.5968(4) 1.1301(4)
C32 C 0.6489(5) 0.5654(4) 1.1298(4)
C33 C 0.6258(5) 0.4876(4) 1.1860(4)
C34 C 0.7220(5) 0.4392(4) 1.2415(4)
C35 C 0.8426(5) 0.4664(4) 1.2408(4)
C36 C 0.8666(5) 0.5446(4) 1.1845(4)
H22 H 0.8828 0.9733 1.4738
H23 H 0.9810 1.0728 1.4709
H24 H 0.8304 1.1584 1.5337
H25 H 0.7207 1.0832 1.4350
H26 H 0.8936 1.2610 1.4269
H27 H 0.7481 1.2678 1.4103
H28 H 0.6942 1.1223 1.2529
H29 H 0.7863 1.2238 1.2446
H30 H 0.8492 1.0421 1.1874
H31 H 0.9568 1.1194 1.2868
H32 H 0.8235 0.8624 1.0939
H33 H 0.8799 0.6704 1.0602
H34 H 0.6178 0.6759 0.9738
H35 H 0.7820 0.5465 0.8839
H36 H 0.6366 0.5448 0.8258
H37 H 0.6805 0.4912 0.9259
H38 H 0.5814 0.5975 1.0904
H39 H 0.5432 0.4681 1.1859
H40 H 0.7062 0.3868 1.2806
H41 H 0.9089 0.4319 1.2787
H42 H 0.9489 0.5624 1.1832
O13 O 1.0747(3) 0.4311(3) 0.8037(3)
O14 O 1.0302(4) 0.5501(3) 0.9297(3)
O15 O 1.4246(3) 0.5801(3) 0.8864(3)
O16 O 1.2711(3) 0.4513(2) 0.7794(2)
O17 O 1.3680(4) 0.5914(3) 1.2035(3)
O18 O 1.1711(4) 0.5526(3) 1.1729(3)
N3 N 1.2612(4) 0.6071(3) 1.1649(3)
C37 C 1.1662(5) 0.3702(4) 0.7677(4)
C38 C 1.2066(5) 0.2787(4) 0.8261(4)
C39 C 1.2956(5) 0.2101(4) 0.7797(4)
C40 C 1.2367(5) 0.1579(4) 0.6641(4)
C41 C 1.1948(5) 0.2510(4) 0.6058(4)
C42 C 1.1074(5) 0.3223(4) 0.6509(4)
C43 C 1.1108(5) 0.5130(4) 0.8956(4)
C44 C 1.2469(5) 0.5510(4) 0.9453(4)
C45 C 1.3217(4) 0.5306(4) 0.8711(3)
C46 C 1.2862(5) 0.6756(4) 1.0137(3)
C47 C 1.2373(5) 0.7021(4) 1.1077(4)
C48 C 1.3073(6) 0.8142(4) 1.1867(4)
C49 C 1.2507(5) 0.7662(4) 0.9495(3)
C50 C 1.3454(5) 0.8278(4) 0.9288(4)
C51 C 1.3159(5) 0.9084(4) 0.8685(4)
C52 C 1.1947(5) 0.9277(4) 0.8298(4)
C53 C 1.1018(5) 0.8701(4) 0.8532(4)
C54 C 1.1297(5) 0.7885(4) 0.9120(4)
H43 H 1.1327 0.2266 0.8205
H44 H 1.2490 0.3146 0.9013
H45 H 1.3724 0.2614 0.7909
H46 H 1.3194 0.1484 0.8166
H47 H 1.1639 0.1015 0.6530
H48 H 1.2975 0.1170 0.6359
H49 H 1.2690 0.3021 0.6104
H50 H 1.1517 0.2148 0.5308
H51 H 1.0888 0.3862 0.6158
H52 H 1.0279 0.2738 0.6373
H53 H 1.2763 0.5008 0.9948
H54 H 1.3793 0.6863 1.0426
H55 H 1.1460 0.7078 1.0833
H56 H 1.3966 0.8078 1.2107
H57 H 1.2758 0.8278 1.2469
H58 H 1.2938 0.8784 1.1526
H59 H 1.4297 0.8150 0.9559
H60 H 1.3802 0.9499 0.8541
H61 H 1.1748 0.9809 0.7870
H62 H 1.0184 0.8861 0.8289
H63 H 1.0648 0.7480 0.9265
O19 O 1.2242(3) 0.4632(2) 1.4685(2)
O20 O 1.0996(3) 0.3241(3) 1.3448(3)
O21 O 1.5225(4) 0.3985(3) 1.3803(3)
O22 O 1.4365(3) 0.5059(3) 1.4846(2)
O23 O 1.0758(6) 0.3064(4) 1.0368(4)
O24 O 1.2755(5) 0.3402(4) 1.0859(3)
N4 N 1.1771(6) 0.2938(4) 1.0902(4)
C55 C 1.3275(5) 0.5539(4) 1.4999(4)
C56 C 1.3540(5) 0.6021(4) 1.6159(4)
C57 C 1.2460(6) 0.6616(4) 1.6393(4)
C58 C 1.2148(6) 0.7547(4) 1.5779(4)
C59 C 1.1859(6) 0.7037(4) 1.4607(4)
C60 C 1.2941(5) 0.6448(4) 1.4378(4)
C61 C 1.1993(5) 0.3834(4) 1.3784(4)
C62 C 1.2972(5) 0.3746(4) 1.3245(4)
C63 C 1.4267(6) 0.4258(4) 1.3968(4)
C64 C 1.3007(5) 0.2518(4) 1.2584(4)
C65 C 1.1834(6) 0.2116(4) 1.1619(4)
C66 C 1.1864(7) 0.0941(5) 1.0939(4)
C67 C 1.3283(5) 0.1611(4) 1.3221(4)
C68 C 1.2379(5) 0.1118(4) 1.3555(4)
C69 C 1.2637(6) 0.0284(4) 1.4144(4)
C70 C 1.3774(6) -0.0054(5) 1.4391(5)
C71 C 1.4669(7) 0.0407(6) 1.4065(9)
C72 C 1.4400(6) 0.1242(5) 1.3473(7)
H64 H 1.4307 0.6578 1.6431
H65 H 1.3687 0.5392 1.6526
H66 H 1.2689 0.6967 1.7155
H67 H 1.1716 0.6041 1.6198
H68 H 1.1419 0.7892 1.5911
H69 H 1.2863 0.8161 1.6023
H70 H 1.1696 0.7653 1.4225
H71 H 1.1098 0.6473 1.4351
H72 H 1.2710 0.6085 1.3619
H73 H 1.3677 0.7027 1.4562
H74 H 1.2750 0.4234 1.2727
H75 H 1.3720 0.2595 1.2301
H76 H 1.1072 0.2106 1.1847
H77 H 1.1949 0.0370 1.1362
H78 H 1.2574 0.0976 1.0670
H79 H 1.1088 0.0725 1.0350
H80 H 1.1569 0.1348 1.3381
H81 H 1.2005 -0.0039 1.4367
H82 H 1.3952 -0.0613 1.4792
H83 H 1.5475 0.0169 1.4236
H84 H 1.5036 0.1552 1.3247
loop_
_geom_bond_atom_site_label_1
_geom_bond_atom_site_label_2
_geom_bond_site_symmetry_1
_geom_bond_site_symmetry_2
O1 C1 1_555 1_555
O2 C7 1_555 1_555
O3 C9 1_555 1_555
O4 C1 1_555 1_555
O5 N1 1_555 1_555
O6 N1 1_555 1_555
O7 C19 1_555 1_555
O8 C25 1_555 1_555
O9 C27 1_555 1_555
O10 C19 1_555 1_555
O11 N2 1_555 1_555
O12 N2 1_555 1_555
O13 C37 1_555 1_555
O14 C43 1_555 1_555
O15 C45 1_555 1_555
O16 C37 1_555 1_555
O17 N3 1_555 1_555
O18 N3 1_555 1_555
O19 C55 1_555 1_555
O20 C61 1_555 1_555
O21 C63 1_555 1_555
O22 C55 1_555 1_555
O23 N4 1_555 1_555
O24 N4 1_555 1_555
N1 C11 1_555 1_555
N2 C29 1_555 1_555
N3 C47 1_555 1_555
N4 C65 1_555 1_555
C1 C2 1_555 1_555
C2 C3 1_555 1_555
C3 C4 1_555 1_555
C4 C5 1_555 1_555
C5 C6 1_555 1_555
C6 C1 1_555 1_555
C7 O1 1_555 1_555
C8 C7 1_555 1_555
C9 O4 1_555 1_555
C10 C8 1_555 1_555
C11 C10 1_555 1_555
C12 C11 1_555 1_555
C13 C10 1_555 1_555
C14 C13 1_555 1_555
C15 C14 1_555 1_555
C16 C15 1_555 1_555
C17 C16 1_555 1_555
C18 C13 1_555 1_555
C19 C20 1_555 1_555
C20 C21 1_555 1_555
C21 C22 1_555 1_555
C22 C23 1_555 1_555
C23 C24 1_555 1_555
C24 C19 1_555 1_555
C25 O7 1_555 1_555
C26 C25 1_555 1_555
C27 O10 1_555 1_555
C28 C26 1_555 1_555
C29 C28 1_555 1_555
C30 C29 1_555 1_555
C31 C28 1_555 1_555
C32 C31 1_555 1_555
C33 C32 1_555 1_555
C34 C33 1_555 1_555
C35 C34 1_555 1_555
C36 C31 1_555 1_555
C37 C38 1_555 1_555
C38 C39 1_555 1_555
C39 C40 1_555 1_555
C40 C41 1_555 1_555
C41 C42 1_555 1_555
C42 C37 1_555 1_555
C43 O13 1_555 1_555
C44 C43 1_555 1_555
C45 O16 1_555 1_555
C46 C44 1_555 1_555
C47 C46 1_555 1_555
C48 C47 1_555 1_555
C49 C46 1_555 1_555
C50 C49 1_555 1_555
C51 C50 1_555 1_555
C52 C51 1_555 1_555
C53 C52 1_555 1_555
C54 C49 1_555 1_555
C55 C56 1_555 1_555
C56 C57 1_555 1_555
C57 C58 1_555 1_555
C58 C59 1_555 1_555
C59 C60 1_555 1_555
C60 C55 1_555 1_555
C61 O19 1_555 1_555
C62 C61 1_555 1_555
C63 O22 1_555 1_555
C64 C62 1_555 1_555
C65 C64 1_555 1_555
C66 C65 1_555 1_555
C67 C64 1_555 1_555
C68 C67 1_555 1_555
C69 C68 1_555 1_555
C70 C69 1_555 1_555
C71 C70 1_555 1_555
C72 C67 1_555 1_555
H1 C2 1_555 1_555
H2 C2 1_555 1_555
H3 C3 1_555 1_555
H4 C3 1_555 1_555
H5 C4 1_555 1_555
H6 C4 1_555 1_555
H7 C5 1_555 1_555
H8 C5 1_555 1_555
H9 C6 1_555 1_555
H10 C6 1_555 1_555
H11 C8 1_555 1_555
H12 C10 1_555 1_555
H13 C11 1_555 1_555
H14 C12 1_555 1_555
H15 C12 1_555 1_555
H16 C12 1_555 1_555
H17 C14 1_555 1_555
H18 C15 1_555 1_555
H19 C16 1_555 1_555
H20 C17 1_555 1_555
H21 C18 1_555 1_555
H22 C20 1_555 1_555
H23 C20 1_555 1_555
H24 C21 1_555 1_555
H25 C21 1_555 1_555
H26 C22 1_555 1_555
H27 C22 1_555 1_555
H28 C23 1_555 1_555
H29 C23 1_555 1_555
H30 C24 1_555 1_555
H31 C24 1_555 1_555
H32 C26 1_555 1_555
H33 C28 1_555 1_555
H34 C29 1_555 1_555
H35 C30 1_555 1_555
H36 C30 1_555 1_555
H37 C30 1_555 1_555
H38 C32 1_555 1_555
H39 C33 1_555 1_555
H40 C34 1_555 1_555
H41 C35 1_555 1_555
H42 C36 1_555 1_555
H43 C38 1_555 1_555
H44 C38 1_555 1_555
H45 C39 1_555 1_555
H46 C39 1_555 1_555
H47 C40 1_555 1_555
H48 C40 1_555 1_555
H49 C41 1_555 1_555
H50 C41 1_555 1_555
H51 C42 1_555 1_555
H52 C42 1_555 1_555
H53 C44 1_555 1_555
H54 C46 1_555 1_555
H55 C47 1_555 1_555
H56 C48 1_555 1_555
H57 C48 1_555 1_555
H58 C48 1_555 1_555
H59 C50 1_555 1_555
H60 C51 1_555 1_555
H61 C52 1_555 1_555
H62 C53 1_555 1_555
H63 C54 1_555 1_555
H64 C56 1_555 1_555
H65 C56 1_555 1_555
H66 C57 1_555 1_555
H67 C57 1_555 1_555
H68 C58 1_555 1_555
H69 C58 1_555 1_555
H70 C59 1_555 1_555
H71 C59 1_555 1_555
H72 C60 1_555 1_555
H73 C60 1_555 1_555
H74 C62 1_555 1_555
H75 C64 1_555 1_555
H76 C65 1_555 1_555
H77 C66 1_555 1_555
H78 C66 1_555 1_555
H79 C66 1_555 1_555
H80 C68 1_555 1_555
H81 C69 1_555 1_555
H82 C70 1_555 1_555
H83 C71 1_555 1_555
H84 C72 1_555 1_555
C8 C9 1_555 1_555
C17 C18 1_555 1_555
C26 C27 1_555 1_555
C35 C36 1_555 1_555
C44 C45 1_555 1_555
C53 C54 1_555 1_555
C62 C63 1_555 1_555
C71 C72 1_555 1_555

#END
