
#######################################################################
#
#                 Cambridge Crystallographic Data Centre
#                                CCDC 
#
#######################################################################
#
# If this CIF has been generated from an entry in the Cambridge 
# Structural Database, then it will include bibliographic, chemical, 
# crystal, experimental, refinement or atomic coordinate data resulting 
# from the CCDC's data processing and validation procedures.
#
#######################################################################

data_RAKCIQ
_chemical_formula_moiety         'C26 H30 S3 Si3'
_chemical_name_systematic        
4,4-Diphenyl-2,6-bis(trimethylsilyl)dithieno(2,3-b:3',2'-e)(1,4)thiasiline
_symmetry_cell_setting           triclinic
_symmetry_space_group_name_H-M   'P -1'
_symmetry_Int_Tables_number      2
_space_group_name_Hall           '-P 1'
loop_
_symmetry_equiv_pos_site_id
_symmetry_equiv_pos_as_xyz
1 x,y,z
2 -x,-y,-z
_cell_length_a                   11.422(2)
_cell_length_b                   15.828(3)
_cell_length_c                   17.115(2)
_cell_angle_alpha                109.296(8)
_cell_angle_beta                 104.180(4)
_cell_angle_gamma                93.11(1)
_cell_volume                     2800.3
_exptl_crystal_colour            colorless
_exptl_crystal_description       platelet
_chemical_melting_point          128-129deg.C
_cell_formula_units_Z            4
loop_
_atom_site_label
_atom_site_type_symbol
_atom_site_fract_x
_atom_site_fract_y
_atom_site_fract_z
S1 S 0.3109 0.4036 0.4638
S2 S 0.1066 0.5069 0.4434
S3 S -0.1354 0.5578 0.3819
Si1 Si 0.4916 0.2728 0.4058
Si2 Si -0.3661 0.5660 0.2436
Si3 Si 0.0799 0.4042 0.2179
C1 C 0.3612 0.3373 0.3808
C2 C 0.2917 0.3365 0.3036
C3 C 0.1964 0.3902 0.3086
C4 C 0.1981 0.4308 0.3933
C5 C -0.0135 0.5048 0.3561
C6 C -0.0282 0.4712 0.2698
C7 C -0.1409 0.4935 0.2252
C8 C -0.2124 0.5397 0.2759
C9 C 0.1521 0.4659 0.1623
C10 C 0.1211 0.4440 0.0733
C11 C 0.1706 0.4962 0.0350
C12 C 0.2535 0.5734 0.0866
C13 C 0.2861 0.5968 0.1738
C14 C 0.2378 0.5430 0.2115
C15 C -0.0071 0.2906 0.1404
C16 C 0.0345 0.2327 0.0759
C17 C -0.0253 0.1473 0.0233
C18 C -0.1315 0.1203 0.0342
C19 C -0.1820 0.1715 0.0932
C20 C -0.1195 0.2592 0.1490
C21 C 0.5908 0.3435 0.5143
C22 C 0.5679 0.2567 0.3210
C23 C 0.4269 0.1659 0.4100
C24 C -0.3662 0.6820 0.3150
C25 C -0.4018 0.5573 0.1301
C26 C -0.4681 0.4817 0.2608
H1 H 0.2985 0.3016 0.2474
H2 H -0.1701 0.4712 0.1597
H3 H 0.0568 0.3879 0.0345
H4 H 0.1503 0.4815 -0.0293
H5 H 0.2858 0.6073 0.0557
H6 H 0.3477 0.6512 0.2100
H7 H 0.2633 0.5615 0.2752
H8 H 0.1171 0.2505 0.0704
H9 H 0.0080 0.1075 -0.0229
H10 H -0.1654 0.0604 -0.0126
H11 H -0.2704 0.1510 0.1052
H12 H -0.1629 0.3014 0.1987
H13 H 0.5460 0.3458 0.5607
H14 H 0.6170 0.4048 0.5267
H15 H 0.6560 0.3178 0.5257
H16 H 0.6089 0.3142 0.3279
H17 H 0.6199 0.2202 0.3289
H18 H 0.5089 0.2272 0.2669
H19 H 0.3663 0.1302 0.3579
H20 H 0.4883 0.1342 0.4169
H21 H 0.3893 0.1772 0.4629
H22 H -0.4388 0.6992 0.3098
H23 H -0.3348 0.6912 0.3818
H24 H -0.3138 0.7282 0.3008
H25 H -0.4781 0.5623 0.1100
H26 H -0.3971 0.5053 0.0890
H27 H -0.3481 0.5973 0.1210
H28 H -0.4466 0.4894 0.3256
H29 H -0.5526 0.4834 0.2376
H30 H -0.4596 0.4154 0.2276
S4 S 0.3390 -0.1462 0.3861
S5 S 0.5942 -0.0653 0.4250
S6 S 0.8147 0.0494 0.4382
Si4 Si 0.0691 -0.2192 0.2760
Si5 Si 0.9835 0.1578 0.3746
Si6 Si 0.5050 -0.0745 0.2074
C27 C 0.2298 -0.1740 0.2879
C28 C 0.2814 -0.1526 0.2316
C29 C 0.4105 -0.1140 0.2653
C30 C 0.4512 -0.1071 0.3500
C31 C 0.6771 -0.0145 0.3746
C32 C 0.6507 -0.0157 0.2910
C33 C 0.7510 0.0377 0.2830
C34 C 0.8461 0.0767 0.3551
C35 C 0.4242 0.0053 0.1596
C36 C 0.4724 0.0403 0.1066
C37 C 0.4151 0.1018 0.0727
C38 C 0.3110 0.1312 0.0918
C39 C 0.2614 0.0981 0.1433
C40 C 0.3170 0.0382 0.1770
C41 C 0.5386 -0.1711 0.1179
C42 C 0.4421 -0.2251 0.0465
C43 C 0.4661 -0.2944 -0.0202
C44 C 0.5811 -0.3117 -0.0183
C45 C 0.6746 -0.2598 0.0497
C46 C 0.6560 -0.1899 0.1170
C47 C -0.0204 -0.1216 0.3036
C48 C -0.0035 -0.2927 0.1636
C49 C 0.0728 -0.2776 0.3522
C50 C 0.9403 0.2698 0.3940
C51 C 1.1003 0.1552 0.4700
C52 C 1.0453 0.1216 0.2778
H31 H 0.2353 -0.1681 0.1719
H32 H 0.7535 0.0461 0.2303
H33 H 0.5513 0.0166 0.0899
H34 H 0.4493 0.1220 0.0326
H35 H 0.2667 0.1733 0.0663
H36 H 0.1871 0.1222 0.1585
H37 H 0.2769 0.0153 0.2151
H38 H 0.3581 -0.2148 0.0479
H39 H 0.3966 -0.3305 -0.0706
H40 H 0.5917 -0.3644 -0.0696
H41 H 0.7613 -0.2753 0.0526
H42 H 0.7244 -0.1580 0.1682
H43 H -0.1060 -0.1442 0.2997
H44 H 0.0210 -0.0752 0.3637
H45 H -0.0260 -0.0882 0.2677
H46 H 0.0446 -0.3443 0.1524
H47 H -0.0014 -0.2594 0.1184
H48 H -0.0894 -0.3164 0.1474
H49 H 0.1084 -0.3306 0.3397
H50 H -0.0036 -0.2926 0.3537
H51 H 0.1144 -0.2306 0.4127
H52 H 0.9103 0.2932 0.4508
H53 H 0.8803 0.2672 0.3408
H54 H 1.0174 0.3172 0.4138
H55 H 1.0700 0.1666 0.5240
H56 H 1.1680 0.1906 0.4840
H57 H 1.1360 0.1016 0.4630
H58 H 1.1104 0.1721 0.2907
H59 H 1.0794 0.0641 0.2717
H60 H 0.9794 0.1161 0.2257
loop_
_geom_bond_atom_site_label_1
_geom_bond_atom_site_label_2
_geom_bond_site_symmetry_1
_geom_bond_site_symmetry_2
S1 C1 1_555 1_555
S2 C4 1_555 1_555
S3 C5 1_555 1_555
S4 C27 1_555 1_555
S5 C30 1_555 1_555
S6 C31 1_555 1_555
Si1 C1 1_555 1_555
Si2 C8 1_555 1_555
Si3 C3 1_555 1_555
Si4 C27 1_555 1_555
Si5 C34 1_555 1_555
Si6 C29 1_555 1_555
C1 C2 1_555 1_555
C2 C3 1_555 1_555
C3 C4 1_555 1_555
C4 S1 1_555 1_555
C5 S2 1_555 1_555
C6 Si3 1_555 1_555
C7 C6 1_555 1_555
C8 S3 1_555 1_555
C9 Si3 1_555 1_555
C10 C9 1_555 1_555
C11 C10 1_555 1_555
C12 C11 1_555 1_555
C13 C12 1_555 1_555
C14 C9 1_555 1_555
C15 Si3 1_555 1_555
C16 C15 1_555 1_555
C17 C16 1_555 1_555
C18 C17 1_555 1_555
C19 C18 1_555 1_555
C20 C15 1_555 1_555
C21 Si1 1_555 1_555
C22 Si1 1_555 1_555
C23 Si1 1_555 1_555
C24 Si2 1_555 1_555
C25 Si2 1_555 1_555
C26 Si2 1_555 1_555
C27 C28 1_555 1_555
C28 C29 1_555 1_555
C29 C30 1_555 1_555
C30 S4 1_555 1_555
C31 S5 1_555 1_555
C32 Si6 1_555 1_555
C33 C32 1_555 1_555
C34 S6 1_555 1_555
C35 Si6 1_555 1_555
C36 C35 1_555 1_555
C37 C36 1_555 1_555
C38 C37 1_555 1_555
C39 C38 1_555 1_555
C40 C35 1_555 1_555
C41 Si6 1_555 1_555
C42 C41 1_555 1_555
C43 C42 1_555 1_555
C44 C43 1_555 1_555
C45 C44 1_555 1_555
C46 C41 1_555 1_555
C47 Si4 1_555 1_555
C48 Si4 1_555 1_555
C49 Si4 1_555 1_555
C50 Si5 1_555 1_555
C51 Si5 1_555 1_555
C52 Si5 1_555 1_555
H1 C2 1_555 1_555
H2 C7 1_555 1_555
H3 C10 1_555 1_555
H4 C11 1_555 1_555
H5 C12 1_555 1_555
H6 C13 1_555 1_555
H7 C14 1_555 1_555
H8 C16 1_555 1_555
H9 C17 1_555 1_555
H10 C18 1_555 1_555
H11 C19 1_555 1_555
H12 C20 1_555 1_555
H13 C21 1_555 1_555
H14 C21 1_555 1_555
H15 C21 1_555 1_555
H16 C22 1_555 1_555
H17 C22 1_555 1_555
H18 C22 1_555 1_555
H19 C23 1_555 1_555
H20 C23 1_555 1_555
H21 C23 1_555 1_555
H22 C24 1_555 1_555
H23 C24 1_555 1_555
H24 C24 1_555 1_555
H25 C25 1_555 1_555
H26 C25 1_555 1_555
H27 C25 1_555 1_555
H28 C26 1_555 1_555
H29 C26 1_555 1_555
H30 C26 1_555 1_555
H31 C28 1_555 1_555
H32 C33 1_555 1_555
H33 C36 1_555 1_555
H34 C37 1_555 1_555
H35 C38 1_555 1_555
H36 C39 1_555 1_555
H37 C40 1_555 1_555
H38 C42 1_555 1_555
H39 C43 1_555 1_555
H40 C44 1_555 1_555
H41 C45 1_555 1_555
H42 C46 1_555 1_555
H43 C47 1_555 1_555
H44 C47 1_555 1_555
H45 C47 1_555 1_555
H46 C48 1_555 1_555
H47 C48 1_555 1_555
H48 C48 1_555 1_555
H49 C49 1_555 1_555
H50 C49 1_555 1_555
H51 C49 1_555 1_555
H52 C50 1_555 1_555
H53 C50 1_555 1_555
H54 C50 1_555 1_555
H55 C51 1_555 1_555
H56 C51 1_555 1_555
H57 C51 1_555 1_555
H58 C52 1_555 1_555
H59 C52 1_555 1_555
H60 C52 1_555 1_555
C5 C6 1_555 1_555
C7 C8 1_555 1_555
C13 C14 1_555 1_555
C19 C20 1_555 1_555
C31 C32 1_555 1_555
C33 C34 1_555 1_555
C39 C40 1_555 1_555
C45 C46 1_555 1_555

#END
