
#######################################################################
#
#                 Cambridge Crystallographic Data Centre
#                                CCDC 
#
#######################################################################
#
# If this CIF has been generated from an entry in the Cambridge 
# Structural Database, then it will include bibliographic, chemical, 
# crystal, experimental, refinement or atomic coordinate data resulting 
# from the CCDC's data processing and validation procedures.
#
#######################################################################

data_RAKHOB
_chemical_formula_moiety         'C20 H21 N3 O1'
_chemical_name_systematic        
5-Methyl-N'-((1E)-1-methylpropylidene)-3-phenyl-1H-indole-2-carbohydrazide
_symmetry_cell_setting           triclinic
_symmetry_space_group_name_H-M   'P -1'
_symmetry_Int_Tables_number      2
_space_group_name_Hall           '-P 1'
loop_
_symmetry_equiv_pos_site_id
_symmetry_equiv_pos_as_xyz
1 x,y,z
2 -x,-y,-z
_cell_length_a                   8.5925(7)
_cell_length_b                   9.7015(7)
_cell_length_c                   11.6620(12)
_cell_angle_alpha                76.400(7)
_cell_angle_beta                 78.813(8)
_cell_angle_gamma                74.678(7)
_cell_volume                     902.24
_exptl_crystal_colour            'light yellow'
_exptl_crystal_description       prisms
_chemical_melting_point          '222-224 deg.C'
_cell_formula_units_Z            2
_exptl_crystal_recrystallization_method ethanol/chloroform
loop_
_atom_site_label
_atom_site_type_symbol
_atom_site_fract_x
_atom_site_fract_y
_atom_site_fract_z
O1 O 0.18810(17) -0.14560(17) 0.50899(15)
C1 C 0.2759(2) 0.0335(2) 0.35338(18)
C2 C 0.3754(2) 0.0977(2) 0.26085(18)
C3 C 0.3080(3) 0.3518(2) 0.11998(18)
H1 H 0.4102 0.345 0.0741
C4 C 0.1866(3) 0.4761(2) 0.09762(19)
C5 C 0.0319(3) 0.4825(2) 0.1663(2)
H2 H -0.0494 0.5665 0.1502
C6 C -0.0047(2) 0.3712(2) 0.2556(2)
H3 H -0.1086 0.3777 0.2988
C7 C 0.1207(2) 0.2473(2) 0.27913(18)
C8 C 0.2773(2) 0.2358(2) 0.21197(17)
C9 C 0.2196(3) 0.6057(3) 0.0045(2)
H4 H 0.1217 0.6814 0.0008
H5 H 0.255 0.5774 -0.0716
H6 H 0.3031 0.6408 0.025
C10 C 0.3027(2) -0.1032(2) 0.44244(18)
C11 C 0.5482(2) 0.0388(2) 0.21545(17)
C12 C 0.5880(3) -0.0616(2) 0.1403(2)
H7 H 0.5059 -0.0924 0.1188
C13 C 0.7498(3) -0.1156(3) 0.0973(2)
H8 H 0.7755 -0.1827 0.0474
C14 C 0.8710(3) -0.0712(3) 0.1278(2)
H9 H 0.9791 -0.1081 0.0988
C15 C 0.8339(3) 0.0283(3) 0.2013(2)
H10 H 0.917 0.058 0.2225
C16 C 0.6731(2) 0.0843(2) 0.2438(2)
H11 H 0.6488 0.1533 0.292
C17 C 0.6440(2) -0.3702(2) 0.52825(18)
C18 C 0.6844(3) -0.5087(2) 0.6170(2)
H12 H 0.7692 -0.502 0.6581
H13 H 0.7294 -0.5877 0.5738
C19 C 0.5469(4) -0.5481(3) 0.7086(2)
H14 H 0.4629 -0.5581 0.6697
H15 H 0.5036 -0.4729 0.7546
H16 H 0.5862 -0.6387 0.7603
C20 C 0.7824(3) -0.3228(3) 0.4426(2)
H17 H 0.7417 -0.2328 0.3909
H18 H 0.8348 -0.3961 0.396
H19 H 0.8595 -0.3091 0.486
N1 N 0.1219(2) 0.12340(18) 0.36301(16)
N2 N 0.4590(2) -0.17580(19) 0.44792(16)
N3 N 0.4948(2) -0.30401(17) 0.53173(14)
H20 H 0.039(3) 0.108(3) 0.418(2)
H21 H 0.537(3) -0.140(2) 0.399(2)
loop_
_geom_bond_atom_site_label_1
_geom_bond_atom_site_label_2
_geom_bond_site_symmetry_1
_geom_bond_site_symmetry_2
O1 C10 1_555 1_555
C1 C2 1_555 1_555
C2 C8 1_555 1_555
C3 H1 1_555 1_555
C4 C3 1_555 1_555
C5 C4 1_555 1_555
H2 C5 1_555 1_555
C6 C5 1_555 1_555
H3 C6 1_555 1_555
C7 C6 1_555 1_555
C8 C3 1_555 1_555
C9 C4 1_555 1_555
H4 C9 1_555 1_555
H5 C9 1_555 1_555
H6 C9 1_555 1_555
C10 C1 1_555 1_555
C11 C2 1_555 1_555
C12 C11 1_555 1_555
H7 C12 1_555 1_555
C13 C12 1_555 1_555
H8 C13 1_555 1_555
C14 C13 1_555 1_555
H9 C14 1_555 1_555
C15 C14 1_555 1_555
H10 C15 1_555 1_555
C16 C11 1_555 1_555
H11 C16 1_555 1_555
C17 C18 1_555 1_555
C18 H12 1_555 1_555
H13 C18 1_555 1_555
C19 C18 1_555 1_555
H14 C19 1_555 1_555
H15 C19 1_555 1_555
H16 C19 1_555 1_555
C20 C17 1_555 1_555
H17 C20 1_555 1_555
H18 C20 1_555 1_555
H19 C20 1_555 1_555
N1 C1 1_555 1_555
N2 C10 1_555 1_555
N3 C17 1_555 1_555
H20 N1 1_555 1_555
H21 N2 1_555 1_555
C7 C8 1_555 1_555
C7 N1 1_555 1_555
C15 C16 1_555 1_555
N2 N3 1_555 1_555

#END
