
#######################################################################
#
#                 Cambridge Crystallographic Data Centre
#                                CCDC 
#
#######################################################################
#
# If this CIF has been generated from an entry in the Cambridge 
# Structural Database, then it will include bibliographic, chemical, 
# crystal, experimental, refinement or atomic coordinate data resulting 
# from the CCDC's data processing and validation procedures.
#
#######################################################################

data_RAKLUK
_chemical_formula_moiety         'C28 H47 N1 O2'
_chemical_name_systematic        
1,4a,7-Tri-t-butyl-3-pivaloyl-3,3a,4,4a,5,7a,8,8a-octahydrodicyclopenta(b,e)pyridin-8-ol
_symmetry_cell_setting           orthorhombic
_symmetry_space_group_name_H-M   'P 21 21 21'
_symmetry_Int_Tables_number      19
_space_group_name_Hall           'P 2ac 2ab'
loop_
_symmetry_equiv_pos_site_id
_symmetry_equiv_pos_as_xyz
1 x,y,z
2 1/2-x,-y,1/2+z
3 1/2+x,1/2-y,-z
4 -x,1/2+y,1/2-z
_cell_length_a                   11.400(2)
_cell_length_b                   21.835(6)
_cell_length_c                   10.935(5)
_cell_angle_alpha                90
_cell_angle_beta                 90
_cell_angle_gamma                90
_cell_volume                     2721.93
_exptl_crystal_colour            colorless
_exptl_crystal_description       plates
_chemical_melting_point          178-179deg.C
_cell_formula_units_Z            4
loop_
_atom_site_label
_atom_site_type_symbol
_atom_site_fract_x
_atom_site_fract_y
_atom_site_fract_z
O1 O 0.6343(5) -0.0039(3) 0.3836(5)
O2 O 0.8959(6) 0.1064(3) 0.7268(6)
N1 N 0.5788(5) 0.0689(3) 0.5926(6)
C1 C 0.6903(7) 0.0383(3) 0.6233(7)
C2 C 0.6947(6) -0.0303(3) 0.5889(7)
C3 C 0.6075(6) -0.0429(3) 0.4844(7)
C4 C 0.4810(6) -0.0316(4) 0.5311(8)
C5 C 0.4748(7) 0.0298(4) 0.6063(7)
C6 C 0.4365(7) -0.0797(4) 0.6159(8)
C7 C 0.4243(7) -0.0585(4) 0.7276(8)
C8 C 0.4597(7) 0.0083(4) 0.7400(8)
C9 C 0.8243(6) -0.0405(4) 0.5608(7)
C10 C 0.8765(6) 0.0122(4) 0.5455(8)
C11 C 0.7954(6) 0.0676(3) 0.5561(7)
C12 C 0.8803(7) -0.1040(4) 0.5590(8)
C13 C 0.8494(8) -0.1378(4) 0.4446(10)
C14 C 0.8448(10) -0.1409(5) 0.6703(10)
C15 C 1.0136(8) -0.0973(5) 0.5627(12)
C16 C 0.4031(7) -0.1451(4) 0.5739(9)
C17 C 0.3476(11) -0.1430(5) 0.4477(12)
C18 C 0.3145(9) -0.1738(5) 0.6634(11)
C19 C 0.5119(9) -0.1860(4) 0.5696(15)
C20 C 0.3649(7) 0.0693(4) 0.5659(9)
C21 C 0.3590(10) 0.1285(5) 0.6449(12)
C22 C 0.2501(7) 0.0367(5) 0.5804(11)
C23 C 0.3767(10) 0.0910(4) 0.4326(10)
C24 C 0.8542(8) 0.1184(4) 0.6290(7)
C25 C 0.8625(8) 0.1825(3) 0.5752(8)
C26 C 0.7419(11) 0.2053(6) 0.5454(13)
C27 C 0.9211(13) 0.2247(5) 0.6682(12)
C28 C 0.9383(12) 0.1785(6) 0.4608(12)
H1 H 0.625(10) -0.021(5) 0.307(11)
H2 H 0.591(6) 0.084(3) 0.502(7)
H3 H 0.7017 0.0419 0.7112
H4 H 0.6739 -0.0552 0.6564
H5 H 0.6146 -0.0847 0.4586
H6 H 0.4293 -0.0294 0.4629
H7 H 0.3943 -0.0807 0.7958
H8 H 0.9586 0.0173 0.5270
H9 H 0.7717 0.0821 0.4761
H10 H 0.5319 0.0111 0.7832
H11 H 0.4013 0.0310 0.7817
H12 H 0.7973 -0.1127 0.3942
H13 H 0.9167 -0.1467 0.3970
H14 H 0.8088 -0.1744 0.4634
H15 H 0.8822 -0.1793 0.6690
H16 H 0.7621 -0.1460 0.6705
H17 H 0.8670 -0.1193 0.7435
H18 H 1.0494 -0.1324 0.5257
H19 H 1.0388 -0.0983 0.6496
H20 H 1.0402 -0.0615 0.5282
H21 H 0.2653 -0.1378 0.4572
H22 H 0.3646 -0.1796 0.4076
H23 H 0.3793 -0.1089 0.4055
H24 H 0.2383 -0.1641 0.6398
H25 H 0.3266 -0.2168 0.6643
H26 H 0.3299 -0.1580 0.7440
H27 H 0.5200 -0.2059 0.6452
H28 H 0.4999 -0.2150 0.5060
H29 H 0.5771 -0.1612 0.5522
H30 H 0.4227 0.1532 0.6341
H31 H 0.2869 0.1486 0.6321
H32 H 0.3580 0.1146 0.7324
H33 H 0.2450 0.0037 0.5206
H34 H 0.1865 0.0631 0.5688
H35 H 0.2458 0.0181 0.6595
H36 H 0.4412 0.1183 0.4271
H37 H 0.3062 0.1132 0.4127
H38 H 0.3856 0.0576 0.3815
H39 H 0.7496 0.2469 0.5215
H40 H 0.7116 0.1814 0.4833
H41 H 0.6966 0.2027 0.6177
H42 H 0.8918 0.2642 0.6606
H43 H 1.0040 0.2241 0.6551
H44 H 0.9060 0.2091 0.7488
H45 H 0.9233 0.2150 0.4121
H46 H 1.0168 0.1762 0.4801
H47 H 0.9136 0.1441 0.4135
loop_
_geom_bond_atom_site_label_1
_geom_bond_atom_site_label_2
_geom_bond_site_symmetry_1
_geom_bond_site_symmetry_2
O1 C3 1_555 1_555
O2 C24 1_555 1_555
N1 C1 1_555 1_555
C1 C2 1_555 1_555
C2 C3 1_555 1_555
C3 C4 1_555 1_555
C4 C5 1_555 1_555
C5 N1 1_555 1_555
C6 C4 1_555 1_555
C7 C6 1_555 1_555
C8 C5 1_555 1_555
C9 C2 1_555 1_555
C10 C9 1_555 1_555
C11 C1 1_555 1_555
C12 C9 1_555 1_555
C13 C12 1_555 1_555
C14 C12 1_555 1_555
C15 C12 1_555 1_555
C16 C6 1_555 1_555
C17 C16 1_555 1_555
C18 C16 1_555 1_555
C19 C16 1_555 1_555
C20 C5 1_555 1_555
C21 C20 1_555 1_555
C22 C20 1_555 1_555
C23 C20 1_555 1_555
C24 C11 1_555 1_555
C25 C24 1_555 1_555
C26 C25 1_555 1_555
C27 C25 1_555 1_555
C28 C25 1_555 1_555
H1 O1 1_555 1_555
H2 N1 1_555 1_555
H3 C1 1_555 1_555
H4 C2 1_555 1_555
H5 C3 1_555 1_555
H6 C4 1_555 1_555
H7 C7 1_555 1_555
H8 C10 1_555 1_555
H9 C11 1_555 1_555
H10 C8 1_555 1_555
H11 C8 1_555 1_555
H12 C13 1_555 1_555
H13 C13 1_555 1_555
H14 C13 1_555 1_555
H15 C14 1_555 1_555
H16 C14 1_555 1_555
H17 C14 1_555 1_555
H18 C15 1_555 1_555
H19 C15 1_555 1_555
H20 C15 1_555 1_555
H21 C17 1_555 1_555
H22 C17 1_555 1_555
H23 C17 1_555 1_555
H24 C18 1_555 1_555
H25 C18 1_555 1_555
H26 C18 1_555 1_555
H27 C19 1_555 1_555
H28 C19 1_555 1_555
H29 C19 1_555 1_555
H30 C21 1_555 1_555
H31 C21 1_555 1_555
H32 C21 1_555 1_555
H33 C22 1_555 1_555
H34 C22 1_555 1_555
H35 C22 1_555 1_555
H36 C23 1_555 1_555
H37 C23 1_555 1_555
H38 C23 1_555 1_555
H39 C26 1_555 1_555
H40 C26 1_555 1_555
H41 C26 1_555 1_555
H42 C27 1_555 1_555
H43 C27 1_555 1_555
H44 C27 1_555 1_555
H45 C28 1_555 1_555
H46 C28 1_555 1_555
H47 C28 1_555 1_555
C7 C8 1_555 1_555
C10 C11 1_555 1_555

#END
