
#######################################################################
#
#                 Cambridge Crystallographic Data Centre
#                                CCDC 
#
#######################################################################
#
# If this CIF has been generated from an entry in the Cambridge 
# Structural Database, then it will include bibliographic, chemical, 
# crystal, experimental, refinement or atomic coordinate data resulting 
# from the CCDC's data processing and validation procedures.
#
#######################################################################

data_RAKMEX01
_chemical_formula_moiety         'C32 H42 B2 N4 Si1'
_chemical_name_systematic        
(\m~2~-Dimethylbis(6-phenyl-2-pyridylamino)silane)-tetraethyl-di-boron
_symmetry_cell_setting           tetragonal
_symmetry_space_group_name_H-M   'P 43 21 2'
_symmetry_Int_Tables_number      96
_space_group_name_Hall           'P 4nw 2abw'
loop_
_symmetry_equiv_pos_site_id
_symmetry_equiv_pos_as_xyz
1 x,y,z
2 -x,-y,1/2+z
3 1/2-y,1/2+x,3/4+z
4 1/2+y,1/2-x,1/4+z
5 1/2-x,1/2+y,3/4-z
6 1/2+x,1/2-y,1/4-z
7 y,x,-z
8 -y,-x,1/2-z
_cell_length_a                   14.3298(5)
_cell_length_b                   14.3298(5)
_cell_length_c                   15.4261(6)
_cell_angle_alpha                90
_cell_angle_beta                 90
_cell_angle_gamma                90
_cell_volume                     3167.64
_exptl_crystal_colour            colorless
_exptl_crystal_description       prism
_cell_formula_units_Z            4
loop_
_atom_site_label
_atom_site_type_symbol
_atom_site_fract_x
_atom_site_fract_y
_atom_site_fract_z
Si1 Si 0.55310(4) 0.55310(4) 0.0000
N1 N 0.57522(13) 0.63109(13) 0.08353(13)
H1 H 0.5912(16) 0.6048(16) 0.1298(12)
N2 N 0.60701(12) 0.76801(12) 0.15782(11)
B1 B 0.66081(19) 0.71915(19) 0.24023(16)
C1 C 0.5682(2) 0.43799(18) 0.05043(19)
H2 H 0.5570 0.3897 0.0077
H3 H 0.5243 0.4312 0.0979
H4 H 0.6314 0.4324 0.0724
C2 C 0.57455(14) 0.72662(15) 0.08561(15)
C3 C 0.54262(17) 0.78102(18) 0.01689(15)
H5 H 0.5217 0.7526 -0.0345
C4 C 0.54194(19) 0.87583(19) 0.02465(19)
H6 H 0.5196 0.9126 -0.0214
C5 C 0.57327(18) 0.91805(16) 0.0985(2)
H7 H 0.5723 0.9834 0.1037
C6 C 0.60607(16) 0.86358(16) 0.16473(17)
C7 C 0.64525(17) 0.89141(17) 0.24783(19)
C8 C 0.6529(2) 0.9828(2) 0.2794(2)
H8 H 0.6339 1.0344 0.2461
C9 C 0.6895(3) 0.9940(3) 0.3616(3)
H9 H 0.6954 1.0543 0.3848
C10 C 0.7172(3) 0.9195(4) 0.4095(3)
H10 H 0.7411 0.9294 0.4655
C11 C 0.7109(2) 0.8292(3) 0.37770(17)
H11 H 0.7308 0.7786 0.4118
C12 C 0.67484(17) 0.81364(19) 0.29448(16)
C13 C 0.59687(17) 0.64332(17) 0.29017(14)
H12 H 0.5949 0.5864 0.2550
H13 H 0.6276 0.6275 0.3450
C14 C 0.49680(18) 0.6724(2) 0.31007(18)
H14 H 0.4647 0.6215 0.3388
H15 H 0.4648 0.6875 0.2564
H16 H 0.4972 0.7267 0.3476
C15 C 0.75939(15) 0.67734(18) 0.20469(14)
H17 H 0.8007 0.6679 0.2545
H18 H 0.7472 0.6159 0.1792
C16 C 0.81147(16) 0.73617(18) 0.13776(16)
H19 H 0.8689 0.7049 0.1216
H20 H 0.8259 0.7967 0.1624
H21 H 0.7726 0.7442 0.0868
N1F N 0.63109(13) 0.57522(13) -0.08353(13)
H1F H 0.6048(16) 0.5912(16) -0.1298(12)
N2F N 0.76801(12) 0.60701(12) -0.15782(11)
B1F B 0.71915(19) 0.66081(19) -0.24023(16)
C1F C 0.43799(18) 0.5682(2) -0.05043(19)
H2F H 0.3897 0.5570 -0.0077
H3F H 0.4312 0.5243 -0.0979
H4F H 0.4324 0.6314 -0.0724
C2F C 0.72662(15) 0.57455(14) -0.08561(15)
C3F C 0.78102(18) 0.54262(17) -0.01689(15)
H5F H 0.7526 0.5217 0.0345
C4F C 0.87583(19) 0.54194(19) -0.02465(19)
H6F H 0.9126 0.5196 0.0214
C5F C 0.91805(16) 0.57327(18) -0.0985(2)
H7F H 0.9834 0.5723 -0.1037
C6F C 0.86358(16) 0.60607(16) -0.16473(17)
C7F C 0.89141(17) 0.64525(17) -0.24783(19)
C8F C 0.9828(2) 0.6529(2) -0.2794(2)
H8F H 1.0344 0.6339 -0.2461
C9F C 0.9940(3) 0.6895(3) -0.3616(3)
H9F H 1.0543 0.6954 -0.3848
C10F C 0.9195(4) 0.7172(3) -0.4095(3)
H10F H 0.9294 0.7411 -0.4655
C11F C 0.8292(3) 0.7109(2) -0.37770(17)
H11F H 0.7786 0.7308 -0.4118
C12F C 0.81364(19) 0.67484(17) -0.29448(16)
C13F C 0.64332(17) 0.59687(17) -0.29017(14)
H12F H 0.5864 0.5949 -0.2550
H13F H 0.6275 0.6276 -0.3450
C14F C 0.6724(2) 0.49680(18) -0.31007(18)
H14F H 0.6215 0.4647 -0.3388
H15F H 0.6875 0.4648 -0.2564
H16F H 0.7267 0.4972 -0.3476
C15F C 0.67734(18) 0.75939(15) -0.20469(14)
H17F H 0.6679 0.8007 -0.2545
H18F H 0.6159 0.7472 -0.1792
C16F C 0.73617(18) 0.81147(16) -0.13776(16)
H19F H 0.7049 0.8689 -0.1216
H20F H 0.7967 0.8259 -0.1624
H21F H 0.7442 0.7726 -0.0868
loop_
_geom_bond_atom_site_label_1
_geom_bond_atom_site_label_2
_geom_bond_site_symmetry_1
_geom_bond_site_symmetry_2
Si1 N1 1_555 1_555
N1 H1 1_555 1_555
N2 B1 1_555 1_555
B1 C12 1_555 1_555
C1 Si1 1_555 1_555
H2 C1 1_555 1_555
H3 C1 1_555 1_555
H4 C1 1_555 1_555
C2 N1 1_555 1_555
C3 C2 1_555 1_555
H5 C3 1_555 1_555
C4 C3 1_555 1_555
H6 C4 1_555 1_555
C5 C4 1_555 1_555
H7 C5 1_555 1_555
C6 N2 1_555 1_555
C7 C6 1_555 1_555
C8 C7 1_555 1_555
H8 C8 1_555 1_555
C9 C8 1_555 1_555
H9 C9 1_555 1_555
C10 C9 1_555 1_555
H10 C10 1_555 1_555
C11 C10 1_555 1_555
H11 C11 1_555 1_555
C12 C7 1_555 1_555
C13 B1 1_555 1_555
H12 C13 1_555 1_555
H13 C13 1_555 1_555
C14 C13 1_555 1_555
H14 C14 1_555 1_555
H15 C14 1_555 1_555
H16 C14 1_555 1_555
C15 B1 1_555 1_555
H17 C15 1_555 1_555
H18 C15 1_555 1_555
C16 C15 1_555 1_555
H19 C16 1_555 1_555
H20 C16 1_555 1_555
H21 C16 1_555 1_555
N1F Si1 1_555 1_555
H1F N1F 1_555 1_555
N2F B1F 1_555 1_555
B1F C12F 1_555 1_555
C1F Si1 1_555 1_555
H2F C1F 1_555 1_555
H3F C1F 1_555 1_555
H4F C1F 1_555 1_555
C2F N1F 1_555 1_555
C3F C2F 1_555 1_555
H5F C3F 1_555 1_555
C4F C3F 1_555 1_555
H6F C4F 1_555 1_555
C5F C4F 1_555 1_555
H7F C5F 1_555 1_555
C6F N2F 1_555 1_555
C7F C6F 1_555 1_555
C8F C7F 1_555 1_555
H8F C8F 1_555 1_555
C9F C8F 1_555 1_555
H9F C9F 1_555 1_555
C10F C9F 1_555 1_555
H10F C10F 1_555 1_555
C11F C10F 1_555 1_555
H11F C11F 1_555 1_555
C12F C7F 1_555 1_555
C13F B1F 1_555 1_555
H12F C13F 1_555 1_555
H13F C13F 1_555 1_555
C14F C13F 1_555 1_555
H14F C14F 1_555 1_555
H15F C14F 1_555 1_555
H16F C14F 1_555 1_555
C15F B1F 1_555 1_555
H17F C15F 1_555 1_555
H18F C15F 1_555 1_555
C16F C15F 1_555 1_555
H19F C16F 1_555 1_555
H20F C16F 1_555 1_555
H21F C16F 1_555 1_555
N2 C2 1_555 1_555
C5 C6 1_555 1_555
C11 C12 1_555 1_555
N2F C2F 1_555 1_555
C5F C6F 1_555 1_555
C11F C12F 1_555 1_555

#END
