
#######################################################################
#
#                 Cambridge Crystallographic Data Centre
#                                CCDC 
#
#######################################################################
#
# If this CIF has been generated from an entry in the Cambridge 
# Structural Database, then it will include bibliographic, chemical, 
# crystal, experimental, refinement or atomic coordinate data resulting 
# from the CCDC's data processing and validation procedures.
#
#######################################################################

data_RAKMEY
_chemical_compound_source        'aerial parts of Isodon rubescens'
_chemical_name_common            'jianshirubesin A'
_chemical_formula_moiety         'C20 H28 O7,2(H2 O1)'
_chemical_name_systematic        
'14,17,18-trihydroxy-7,7,17-trimethyl-3,10,20-trioxahexacyclo[14.2.1.1^6,9^.0^1,13^.0^4,12^.0^8,12^]icosan-2-one dihydrate'
_symmetry_cell_setting           monoclinic
_symmetry_space_group_name_H-M   'P 21'
_symmetry_Int_Tables_number      4
_space_group_name_Hall           'P 2yb'
loop_
_symmetry_equiv_pos_site_id
_symmetry_equiv_pos_as_xyz
1 x,y,z
2 -x,1/2+y,-z
_cell_length_a                   7.1317(3)
_cell_length_b                   18.6961(8)
_cell_length_c                   7.5740(3)
_cell_angle_alpha                90
_cell_angle_beta                 103.2990(10)
_cell_angle_gamma                90
_cell_volume                     982.797
_exptl_crystal_colour            colorless
_exptl_crystal_description       prism
_cell_formula_units_Z            2
loop_
_atom_site_label
_atom_site_type_symbol
_atom_site_fract_x
_atom_site_fract_y
_atom_site_fract_z
O1 O 0.6285(3) 0.63736(10) 0.4478(3)
H1 H 0.7326 0.6356 0.5267
O2 O 0.1782(3) 0.72498(11) 0.3921(3)
H2 H 0.1360 0.6888 0.4360
O3 O 0.1990(3) 0.77294(9) -0.1610(2)
O4 O 0.1944(3) 0.66598(10) -0.0465(3)
O5 O -0.1061(3) 0.95942(10) -0.2215(2)
O6 O -0.1669(3) 0.89826(11) 0.0300(3)
O7 O 0.4217(3) 0.93629(11) 0.3894(3)
H3 H 0.5048 0.9689 0.4060
C1 C 0.0833(4) 0.96318(14) -0.2654(3)
H4 H 0.0769 0.9944 -0.3739
C2 C 0.1506(4) 0.88902(15) -0.3011(3)
H5 H 0.2464 0.8929 -0.3768
H6 H 0.0395 0.8613 -0.3703
C3 C 0.2413(4) 0.84862(14) -0.1262(3)
H7 H 0.3841 0.8557 -0.0982
C4 C 0.1660(4) 0.87005(13) 0.0392(3)
C5 C 0.2996(3) 0.83551(13) 0.2079(3)
H8 H 0.2241 0.8325 0.3037
C6 C 0.3487(4) 0.75709(13) 0.1629(3)
C7 C 0.3353(4) 0.70508(14) 0.3182(3)
H9 H 0.3115 0.6558 0.2668
C8 C 0.5415(4) 0.70693(13) 0.4518(3)
C9 C 0.5342(4) 0.72354(17) 0.6465(3)
H10 H 0.4701 0.6843 0.6950
H11 H 0.4623 0.7680 0.6499
H12 H 0.6657 0.7291 0.7203
C10 C 0.2376(3) 0.72822(14) -0.0191(3)
C11 C -0.0828(4) 0.95872(15) -0.0257(4)
H13 H -0.1347 1.0035 0.0176
C12 C -0.0438(4) 0.84000(14) 0.0155(3)
H14 H -0.0862 0.8168 -0.1045
H15 H -0.0475 0.8041 0.1106
C13 C 0.1351(4) 0.95322(13) 0.0459(3)
H16 H 0.1782 0.9728 0.1715
C14 C 0.2083(4) 0.99862(14) -0.0956(3)
C15 C 0.4243(4) 0.99861(15) -0.0886(4)
H17 H 0.4500 1.0297 -0.1845
H18 H 0.4663 0.9498 -0.1065
H19 H 0.4949 1.0164 0.0298
C16 C 0.1492(4) 1.07704(15) -0.0817(4)
H20 H 0.2061 1.0951 0.0404
H21 H 0.0085 1.0803 -0.1052
H22 H 0.1954 1.1057 -0.1714
C17 C 0.4808(4) 0.87977(14) 0.2873(3)
H23 H 0.5288 0.9012 0.1850
C18 C 0.6465(4) 0.83731(13) 0.4096(4)
H24 H 0.7697 0.8606 0.4043
H25 H 0.6325 0.8408 0.5364
C19 C 0.6594(4) 0.75787(15) 0.3625(3)
H26 H 0.7972 0.7422 0.3887
C20 C 0.5665(4) 0.74894(14) 0.1600(3)
H27 H 0.5942 0.7013 0.1146
H28 H 0.6087 0.7867 0.0860
O8 O 0.6788(3) 0.04421(9) 0.5132(3)
O9 O 0.9685(3) 0.12051(10) 0.4022(3)
loop_
_geom_bond_atom_site_label_1
_geom_bond_atom_site_label_2
_geom_bond_site_symmetry_1
_geom_bond_site_symmetry_2
O1 H1 1_555 1_555
O2 H2 1_555 1_555
O3 C3 1_555 1_555
O4 C10 1_555 1_555
O5 C1 1_555 1_555
O6 C11 1_555 1_555
O7 H3 1_555 1_555
C1 H4 1_555 1_555
C2 C1 1_555 1_555
H5 C2 1_555 1_555
H6 C2 1_555 1_555
C3 C2 1_555 1_555
H7 C3 1_555 1_555
C4 C3 1_555 1_555
C5 C4 1_555 1_555
H8 C5 1_555 1_555
C6 C5 1_555 1_555
C7 O2 1_555 1_555
H9 C7 1_555 1_555
C8 O1 1_555 1_555
C9 C8 1_555 1_555
H10 C9 1_555 1_555
H11 C9 1_555 1_555
H12 C9 1_555 1_555
C10 O3 1_555 1_555
C11 O5 1_555 1_555
H13 C11 1_555 1_555
C12 O6 1_555 1_555
H14 C12 1_555 1_555
H15 C12 1_555 1_555
C13 C4 1_555 1_555
H16 C13 1_555 1_555
C14 C1 1_555 1_555
C15 C14 1_555 1_555
H17 C15 1_555 1_555
H18 C15 1_555 1_555
H19 C15 1_555 1_555
C16 C14 1_555 1_555
H20 C16 1_555 1_555
H21 C16 1_555 1_555
H22 C16 1_555 1_555
C17 O7 1_555 1_555
H23 C17 1_555 1_555
C18 C17 1_555 1_555
H24 C18 1_555 1_555
H25 C18 1_555 1_555
C19 C8 1_555 1_555
H26 C19 1_555 1_555
C20 C6 1_555 1_555
H27 C20 1_555 1_555
H28 C20 1_555 1_555
C4 C12 1_555 1_555
C5 C17 1_555 1_555
C6 C7 1_555 1_555
C6 C10 1_555 1_555
C7 C8 1_555 1_555
C11 C13 1_555 1_555
C13 C14 1_555 1_555
C18 C19 1_555 1_555
C19 C20 1_555 1_555

#END
