
#######################################################################
#
#                 Cambridge Crystallographic Data Centre
#                                CCDC 
#
#######################################################################
#
# If this CIF has been generated from an entry in the Cambridge 
# Structural Database, then it will include bibliographic, chemical, 
# crystal, experimental, refinement or atomic coordinate data resulting 
# from the CCDC's data processing and validation procedures.
#
#######################################################################

data_RAKMEX
_chemical_formula_moiety         'C32 H42 B2 N4 Si1'
_chemical_name_systematic        
(\m~2~-Dimethylbis(6-phenyl-2-pyridylamino)silane)-tetraethyl-di-boron
_symmetry_cell_setting           monoclinic
_symmetry_space_group_name_H-M   'C 2/c'
_symmetry_Int_Tables_number      15
_space_group_name_Hall           '-C 2yn'
loop_
_symmetry_equiv_pos_site_id
_symmetry_equiv_pos_as_xyz
1 x,y,z
2 -x,y,1/2-z
3 1/2+x,1/2+y,z
4 1/2-x,1/2+y,1/2-z
5 -x,-y,-z
6 x,-y,1/2+z
7 1/2-x,1/2-y,-z
8 1/2+x,1/2-y,1/2+z
_cell_length_a                   24.309(1)
_cell_length_b                   7.460(1)
_cell_length_c                   17.307(2)
_cell_angle_alpha                90
_cell_angle_beta                 97.649(4)
_cell_angle_gamma                90
_cell_volume                     3110.61
_exptl_crystal_colour            colorless
_exptl_crystal_description       prism
_cell_formula_units_Z            4
loop_
_atom_site_label
_atom_site_type_symbol
_atom_site_fract_x
_atom_site_fract_y
_atom_site_fract_z
Si1 Si 0.0000 0.19887(14) 0.7500
N1 N 0.04258(7) 0.3320(3) 0.70160(12)
H1 H 0.0458(9) 0.300(3) 0.6556(10)
N2 N 0.12475(6) 0.4810(2) 0.68715(9)
B1 B 0.12861(9) 0.4124(3) 0.59709(14)
C1 C 0.03924(11) 0.0637(4) 0.8277(2)
H2 H 0.0619 -0.0232 0.8047
H3 H 0.0136 0.0016 0.8567
H4 H 0.0629 0.1416 0.8626
C2 C 0.08430(8) 0.4485(3) 0.73136(13)
C3 C 0.08538(9) 0.5311(3) 0.80388(13)
H5 H 0.0571 0.5090 0.8347
C4 C 0.12814(10) 0.6448(3) 0.82969(13)
H6 H 0.1289 0.7015 0.8783
C5 C 0.16992(8) 0.6768(3) 0.78518(12)
H7 H 0.1993 0.7545 0.8030
C6 C 0.16791(8) 0.5928(3) 0.71394(12)
C7 C 0.20771(8) 0.5985(3) 0.65794(12)
C8 C 0.25831(9) 0.6890(3) 0.66650(13)
H8 H 0.2691 0.7611 0.7105
C9 C 0.29214(9) 0.6709(4) 0.60932(16)
H9 H 0.3264 0.7312 0.6139
C10 C 0.27583(10) 0.5638(4) 0.54488(16)
H10 H 0.2996 0.5495 0.5067
C11 C 0.22470(9) 0.4771(3) 0.53611(13)
H11 H 0.2140 0.4064 0.4917
C12 C 0.18924(8) 0.4939(3) 0.59243(12)
C13 C 0.12598(8) 0.1968(3) 0.58736(12)
H12 H 0.0874 0.1589 0.5875
H13 H 0.1364 0.1666 0.5361
C14 C 0.16219(10) 0.0881(3) 0.64837(16)
H14 H 0.1567 -0.0387 0.6374
H15 H 0.1521 0.1146 0.6996
H16 H 0.2008 0.1187 0.6472
C15 C 0.07965(9) 0.5114(3) 0.53910(13)
H17 H 0.0861 0.4879 0.4853
H18 H 0.0443 0.4544 0.5462
C16 C 0.07292(11) 0.7118(4) 0.54806(17)
H19 H 0.0420 0.7534 0.5111
H20 H 0.1066 0.7720 0.5381
H21 H 0.0658 0.7384 0.6007
N1A N -0.04258(7) 0.3320(3) 0.79840(12)
H1A H -0.0458(9) 0.300(3) 0.8444(10)
N2A N -0.12475(6) 0.4810(2) 0.81285(9)
B1A B -0.12861(9) 0.4124(3) 0.90291(14)
C1A C -0.03924(11) 0.0637(4) 0.6723(2)
H2A H -0.0619 -0.0232 0.6953
H3A H -0.0136 0.0016 0.6433
H4A H -0.0629 0.1416 0.6374
C2A C -0.08430(8) 0.4485(3) 0.76864(13)
C3A C -0.08538(9) 0.5311(3) 0.69612(13)
H5A H -0.0571 0.5090 0.6653
C4A C -0.12814(10) 0.6448(3) 0.67031(13)
H6A H -0.1289 0.7015 0.6217
C5A C -0.16992(8) 0.6768(3) 0.71482(12)
H7A H -0.1993 0.7545 0.6970
C6A C -0.16791(8) 0.5928(3) 0.78606(12)
C7A C -0.20771(8) 0.5985(3) 0.84206(12)
C8A C -0.25831(9) 0.6890(3) 0.83350(13)
H8A H -0.2691 0.7611 0.7895
C9A C -0.29214(9) 0.6709(4) 0.89068(16)
H9A H -0.3264 0.7312 0.8861
C10A C -0.27583(10) 0.5638(4) 0.95512(16)
H10A H -0.2996 0.5495 0.9933
C11A C -0.22470(9) 0.4771(3) 0.96389(13)
H11A H -0.2140 0.4064 1.0083
C12A C -0.18924(8) 0.4939(3) 0.90757(12)
C13A C -0.12598(8) 0.1968(3) 0.91264(12)
H12A H -0.0874 0.1589 0.9125
H13A H -0.1364 0.1666 0.9639
C14A C -0.16219(10) 0.0881(3) 0.85163(16)
H14A H -0.1567 -0.0387 0.8626
H15A H -0.1521 0.1146 0.8004
H16A H -0.2008 0.1187 0.8528
C15A C -0.07965(9) 0.5114(3) 0.96090(13)
H17A H -0.0861 0.4879 1.0147
H18A H -0.0443 0.4544 0.9538
C16A C -0.07292(11) 0.7118(4) 0.95194(17)
H19A H -0.0420 0.7534 0.9889
H20A H -0.1066 0.7720 0.9619
H21A H -0.0658 0.7384 0.8993
loop_
_geom_bond_atom_site_label_1
_geom_bond_atom_site_label_2
_geom_bond_site_symmetry_1
_geom_bond_site_symmetry_2
Si1 N1 1_555 1_555
N1 H1 1_555 1_555
N2 B1 1_555 1_555
B1 C12 1_555 1_555
C1 Si1 1_555 1_555
H2 C1 1_555 1_555
H3 C1 1_555 1_555
H4 C1 1_555 1_555
C2 N1 1_555 1_555
C3 C2 1_555 1_555
H5 C3 1_555 1_555
C4 C3 1_555 1_555
H6 C4 1_555 1_555
C5 C4 1_555 1_555
H7 C5 1_555 1_555
C6 N2 1_555 1_555
C7 C6 1_555 1_555
C8 C7 1_555 1_555
H8 C8 1_555 1_555
C9 C8 1_555 1_555
H9 C9 1_555 1_555
C10 C9 1_555 1_555
H10 C10 1_555 1_555
C11 C10 1_555 1_555
H11 C11 1_555 1_555
C12 C7 1_555 1_555
C13 B1 1_555 1_555
H12 C13 1_555 1_555
H13 C13 1_555 1_555
C14 C13 1_555 1_555
H14 C14 1_555 1_555
H15 C14 1_555 1_555
H16 C14 1_555 1_555
C15 B1 1_555 1_555
H17 C15 1_555 1_555
H18 C15 1_555 1_555
C16 C15 1_555 1_555
H19 C16 1_555 1_555
H20 C16 1_555 1_555
H21 C16 1_555 1_555
N1A Si1 1_555 1_555
H1A N1A 1_555 1_555
N2A B1A 1_555 1_555
B1A C12A 1_555 1_555
C1A Si1 1_555 1_555
H2A C1A 1_555 1_555
H3A C1A 1_555 1_555
H4A C1A 1_555 1_555
C2A N1A 1_555 1_555
C3A C2A 1_555 1_555
H5A C3A 1_555 1_555
C4A C3A 1_555 1_555
H6A C4A 1_555 1_555
C5A C4A 1_555 1_555
H7A C5A 1_555 1_555
C6A N2A 1_555 1_555
C7A C6A 1_555 1_555
C8A C7A 1_555 1_555
H8A C8A 1_555 1_555
C9A C8A 1_555 1_555
H9A C9A 1_555 1_555
C10A C9A 1_555 1_555
H10A C10A 1_555 1_555
C11A C10A 1_555 1_555
H11A C11A 1_555 1_555
C12A C7A 1_555 1_555
C13A B1A 1_555 1_555
H12A C13A 1_555 1_555
H13A C13A 1_555 1_555
C14A C13A 1_555 1_555
H14A C14A 1_555 1_555
H15A C14A 1_555 1_555
H16A C14A 1_555 1_555
C15A B1A 1_555 1_555
H17A C15A 1_555 1_555
H18A C15A 1_555 1_555
C16A C15A 1_555 1_555
H19A C16A 1_555 1_555
H20A C16A 1_555 1_555
H21A C16A 1_555 1_555
N2 C2 1_555 1_555
C5 C6 1_555 1_555
C11 C12 1_555 1_555
N2A C2A 1_555 1_555
C5A C6A 1_555 1_555
C11A C12A 1_555 1_555

#END
