
#######################################################################
#
#                 Cambridge Crystallographic Data Centre
#                                CCDC 
#
#######################################################################
#
# If this CIF has been generated from an entry in the Cambridge 
# Structural Database, then it will include bibliographic, chemical, 
# crystal, experimental, refinement or atomic coordinate data resulting 
# from the CCDC's data processing and validation procedures.
#
#######################################################################

data_RAKQAV03
_chemical_formula_moiety         'C6 H8 N1 1+,C6 Cl5 O1 1-'
_chemical_name_systematic        '4-Methylpyridinium pentachlorophenolate'
_symmetry_cell_setting           triclinic
_symmetry_space_group_name_H-M   'P -1'
_symmetry_Int_Tables_number      2
_space_group_name_Hall           '-P 1'
loop_
_symmetry_equiv_pos_site_id
_symmetry_equiv_pos_as_xyz
1 x,y,z
2 -x,-y,-z
_cell_length_a                   7.316(6)
_cell_length_b                   8.942(8)
_cell_length_c                   11.763(9)
_cell_angle_alpha                70.15(4)
_cell_angle_beta                 84.67(4)
_cell_angle_gamma                76.24(4)
_cell_volume                     702.975
_exptl_crystal_colour            colorless
_exptl_crystal_description       needle
_chemical_melting_point          '75-79 deg.C'
_cell_formula_units_Z            2
loop_
_atom_site_label
_atom_site_type_symbol
_atom_site_fract_x
_atom_site_fract_y
_atom_site_fract_z
N1 N 0.7730(4) 0.2822(3) 0.0500(2)
C1 C 0.5843(4) 0.4188(4) -0.1243(3)
C2 C 0.4991(4) 0.1942(4) 0.0311(3)
H1 H 0.4188 0.1233 0.0638
C3 C 0.4602(4) 0.3145(4) -0.0812(3)
C4 C 0.7374(4) 0.4009(4) -0.0570(3)
C5 C 0.2926(5) 0.3323(5) -0.1528(4)
H2 H 0.2215 0.2530 -0.1080
H3 H 0.3340 0.3155 -0.2283
H4 H 0.2148 0.4398 -0.1680
C6 C 0.6553(5) 0.1798(4) 0.0937(3)
H5 H 0.6804 0.0976 0.1678
H6 H 0.817(4) 0.464(4) -0.083(3)
H7 H 0.565(5) 0.494(5) -0.197(3)
H8 H 0.897(8) 0.291(7) 0.101(5)
Cl1 Cl 1.12019(11) -0.05020(10) 0.16138(7)
Cl2 Cl 1.08069(11) 0.42010(9) 0.35827(7)
Cl3 Cl 1.24737(11) 0.15953(10) 0.59805(7)
Cl4 Cl 1.29877(12) -0.31341(10) 0.39982(7)
Cl5 Cl 1.35552(11) -0.21137(10) 0.62035(7)
C7 C 1.1595(4) 0.0078(4) 0.2823(3)
C8 C 1.2640(4) -0.0649(4) 0.4871(3)
O1 O 1.0406(3) 0.2888(3) 0.16786(19)
C9 C 1.1090(4) 0.1753(4) 0.2683(3)
C10 C 1.2148(4) 0.1005(4) 0.4770(3)
C11 C 1.2367(4) -0.1106(4) 0.3886(3)
C12 C 1.1404(4) 0.2168(4) 0.3704(3)
loop_
_geom_bond_atom_site_label_1
_geom_bond_atom_site_label_2
_geom_bond_site_symmetry_1
_geom_bond_site_symmetry_2
N1 C4 1_555 1_555
C1 C3 1_555 1_555
C2 H1 1_555 1_555
C3 C2 1_555 1_555
C4 C1 1_555 1_555
C5 C3 1_555 1_555
H2 C5 1_555 1_555
H3 C5 1_555 1_555
H4 C5 1_555 1_555
C6 N1 1_555 1_555
H5 C6 1_555 1_555
H6 C4 1_555 1_555
H7 C1 1_555 1_555
H8 N1 1_555 1_555
Cl1 C7 1_555 1_555
Cl2 C12 1_555 1_555
Cl3 C10 1_555 1_555
Cl4 C11 1_555 1_555
Cl5 C8 1_555 1_555
C7 C9 1_555 1_555
C8 C10 1_555 1_555
O1 C9 1_555 1_555
C9 C12 1_555 1_555
C10 C12 1_555 1_555
C11 C7 1_555 1_555
C2 C6 1_555 1_555
C8 C11 1_555 1_555

#END
