
#######################################################################
#
#                 Cambridge Crystallographic Data Centre
#                                CCDC 
#
#######################################################################
#
# If this CIF has been generated from an entry in the Cambridge 
# Structural Database, then it will include bibliographic, chemical, 
# crystal, experimental, refinement or atomic coordinate data resulting 
# from the CCDC's data processing and validation procedures.
#
#######################################################################

data_RAKQEB
_chemical_formula_moiety         'C10 H17 N1 O2'
_chemical_name_systematic        7-Hydroxy-2-azaspiro[5.5]undecan-1-one
_symmetry_cell_setting           orthorhombic
_symmetry_space_group_name_H-M   'P 21 21 21'
_symmetry_Int_Tables_number      19
_space_group_name_Hall           'P 2ac 2ab'
loop_
_symmetry_equiv_pos_site_id
_symmetry_equiv_pos_as_xyz
1 x,y,z
2 1/2-x,-y,1/2+z
3 -x,1/2+y,1/2-z
4 1/2+x,1/2-y,-z
_cell_length_a                   6.8742(4)
_cell_length_b                   11.3586(7)
_cell_length_c                   25.5151(15)
_cell_angle_alpha                90
_cell_angle_beta                 90
_cell_angle_gamma                90
_cell_volume                     1992.25
_exptl_crystal_colour            colorless
_exptl_crystal_description       plate
_cell_formula_units_Z            8
loop_
_atom_site_label
_atom_site_type_symbol
_atom_site_fract_x
_atom_site_fract_y
_atom_site_fract_z
O1 O 1.0311(4) 0.3358(2) 0.17033(9)
O2 O 1.2048(4) 0.3256(2) 0.26240(11)
H1 H 1.1776 0.3013 0.2330
C1 C 0.9064(4) 0.4030(3) 0.18920(12)
N1 N 0.7955(4) 0.4670(3) 0.15760(10)
H2 H 0.8173 0.4588 0.1246
C2 C 0.6420(5) 0.5493(3) 0.17154(14)
H3 H 0.5313 0.5375 0.1486
H4 H 0.6882 0.6293 0.1667
C3 C 0.5800(5) 0.5329(3) 0.22694(14)
H5 H 0.4998 0.4630 0.2298
H6 H 0.5032 0.6000 0.2381
C4 C 0.7572(6) 0.5206(3) 0.26185(13)
H7 H 0.7157 0.5161 0.2981
H8 H 0.8384 0.5900 0.2581
C5 C 0.8763(4) 0.4116(3) 0.24847(11)
C6 C 1.0764(5) 0.4185(3) 0.27612(13)
H9 H 1.1380 0.4937 0.2671
C7 C 1.0523(6) 0.4123(4) 0.33573(14)
H10 H 1.1798 0.4134 0.3520
H11 H 0.9819 0.4813 0.3476
C8 C 0.9454(6) 0.3038(4) 0.35306(14)
H12 H 0.9220 0.3084 0.3905
H13 H 1.0262 0.2353 0.3466
C9 C 0.7532(6) 0.2884(4) 0.32501(14)
H14 H 0.6632 0.3486 0.3368
H15 H 0.6985 0.2124 0.3341
C10 C 0.7750(5) 0.2964(3) 0.26550(12)
H16 H 0.6473 0.2923 0.2494
H17 H 0.8502 0.2297 0.2531
O3 O 0.1373(3) 0.0833(3) 0.03947(10)
O4 O 0.3307(4) 0.0295(3) -0.04564(9)
H18 H 0.2326 0.0402 -0.0280
C11 C 0.2925(4) 0.1145(3) 0.06016(12)
N2 N 0.2862(4) 0.1860(3) 0.10131(10)
H19 H 0.1722 0.2055 0.1122
C12 C 0.4493(5) 0.2347(4) 0.12997(15)
H20 H 0.4178 0.2385 0.1670
H21 H 0.4750 0.3141 0.1178
C13 C 0.6251(5) 0.1609(4) 0.12229(14)
H22 H 0.6094 0.0866 0.1406
H23 H 0.7379 0.2007 0.1367
C14 C 0.6558(5) 0.1382(3) 0.06454(14)
H24 H 0.7763 0.0950 0.0598
H25 H 0.6685 0.2130 0.0464
C15 C 0.4875(5) 0.0679(3) 0.03998(11)
C16 C 0.4947(5) 0.0830(3) -0.02002(12)
H26 H 0.4959 0.1673 -0.0282
C17 C 0.6747(6) 0.0269(4) -0.04305(14)
H27 H 0.6733 0.0366 -0.0808
H28 H 0.7891 0.0666 -0.0295
C18 C 0.6862(7) -0.1024(4) -0.02999(16)
H29 H 0.8058 -0.1348 -0.0441
H30 H 0.5781 -0.1433 -0.0463
C19 C 0.6807(7) -0.1224(4) 0.02863(16)
H31 H 0.7975 -0.0902 0.0444
H32 H 0.6776 -0.2062 0.0358
C20 C 0.5012(6) -0.0636(3) 0.05308(13)
H33 H 0.3850 -0.1030 0.0405
H34 H 0.5062 -0.0731 0.0908
loop_
_geom_bond_atom_site_label_1
_geom_bond_atom_site_label_2
_geom_bond_site_symmetry_1
_geom_bond_site_symmetry_2
O1 C1 1_555 1_555
O2 H1 1_555 1_555
C1 N1 1_555 1_555
N1 H2 1_555 1_555
C2 N1 1_555 1_555
H3 C2 1_555 1_555
H4 C2 1_555 1_555
C3 C2 1_555 1_555
H5 C3 1_555 1_555
H6 C3 1_555 1_555
C4 C3 1_555 1_555
H7 C4 1_555 1_555
H8 C4 1_555 1_555
C5 C1 1_555 1_555
C6 O2 1_555 1_555
H9 C6 1_555 1_555
C7 C6 1_555 1_555
H10 C7 1_555 1_555
H11 C7 1_555 1_555
C8 C7 1_555 1_555
H12 C8 1_555 1_555
H13 C8 1_555 1_555
C9 C8 1_555 1_555
H14 C9 1_555 1_555
H15 C9 1_555 1_555
C10 C5 1_555 1_555
H16 C10 1_555 1_555
H17 C10 1_555 1_555
O3 C11 1_555 1_555
O4 H18 1_555 1_555
C11 N2 1_555 1_555
N2 H19 1_555 1_555
C12 N2 1_555 1_555
H20 C12 1_555 1_555
H21 C12 1_555 1_555
C13 C12 1_555 1_555
H22 C13 1_555 1_555
H23 C13 1_555 1_555
C14 C13 1_555 1_555
H24 C14 1_555 1_555
H25 C14 1_555 1_555
C15 C11 1_555 1_555
C16 O4 1_555 1_555
H26 C16 1_555 1_555
C17 C16 1_555 1_555
H27 C17 1_555 1_555
H28 C17 1_555 1_555
C18 C17 1_555 1_555
H29 C18 1_555 1_555
H30 C18 1_555 1_555
C19 C18 1_555 1_555
H31 C19 1_555 1_555
H32 C19 1_555 1_555
C20 C15 1_555 1_555
H33 C20 1_555 1_555
H34 C20 1_555 1_555
C4 C5 1_555 1_555
C5 C6 1_555 1_555
C9 C10 1_555 1_555
C14 C15 1_555 1_555
C15 C16 1_555 1_555
C19 C20 1_555 1_555

#END
