
#######################################################################
#
#                 Cambridge Crystallographic Data Centre
#                                CCDC 
#
#######################################################################
#
# If this CIF has been generated from an entry in the Cambridge 
# Structural Database, then it will include bibliographic, chemical, 
# crystal, experimental, refinement or atomic coordinate data resulting 
# from the CCDC's data processing and validation procedures.
#
#######################################################################

data_RAKQOL
_chemical_compound_source        'aerial parts of Operculina turpethum'
_chemical_name_common            'operculinoside A'
_chemical_formula_moiety         'C43 H74 O14'
_chemical_name_systematic        
2-((4,5-Dihydroxy-2-((16-hydroxy-24-(hydroxymethyl)-20,24-epoxydammaran-3-yl)oxy)-6-(hydroxymethyl)tetrahydro-2H-pyran-3-yl)oxy)-6-(hydroxymethyl)tetrahydro-2H-pyran-3,4,5-triol
_symmetry_cell_setting           orthorhombic
_symmetry_space_group_name_H-M   'P 21 21 21'
_symmetry_Int_Tables_number      19
_space_group_name_Hall           'P 2ac 2ab'
loop_
_symmetry_equiv_pos_site_id
_symmetry_equiv_pos_as_xyz
1 x,y,z
2 1/2-x,-y,1/2+z
3 1/2+x,1/2-y,-z
4 -x,1/2+y,1/2-z
_cell_length_a                   20.49398(13)
_cell_length_b                   29.4554(2)
_cell_length_c                   46.3360(3)
_cell_angle_alpha                90
_cell_angle_beta                 90
_cell_angle_gamma                90
_cell_volume                     27971.1
_exptl_crystal_colour            colorless
_exptl_crystal_description       plate
_cell_formula_units_Z            24
loop_
_atom_site_label
_atom_site_type_symbol
_atom_site_fract_x
_atom_site_fract_y
_atom_site_fract_z
O1 O 0.5151(2) 0.67093(15) 0.66981(9)
O2 O 0.50488(19) 0.73395(15) 0.69667(9)
O3 O 0.5744(2) 0.78521(15) 0.65452(9)
O4 O 0.5586(2) 0.95372(15) 0.40803(10)
O5 O 0.4544(2) 0.59804(16) 0.64156(9)
H1 H 0.4306 0.6191 0.6367
O6 O 0.5665(3) 0.84874(17) 0.68212(11)
O7 O 0.5148(3) 0.7731(2) 0.75270(11)
H2 H 0.4843 0.7775 0.7638
C1 C 0.5835(3) 0.8915(2) 0.47976(13)
H3 H 0.6109 0.8685 0.4704
C2 C 0.5239(3) 0.8660(2) 0.49244(13)
O8 O 0.4868(3) 0.8704(2) 0.75126(12)
H4 H 0.4664 0.8904 0.7429
C3 C 0.5390(3) 0.7977(2) 0.57496(13)
H5 H 0.5098 0.8236 0.5781
C4 C 0.6049(3) 0.8196(2) 0.56391(13)
C5 C 0.5064(3) 0.7703(2) 0.55099(12)
H6 H 0.5358 0.7467 0.5443
H7 H 0.4672 0.7558 0.5583
C6 C 0.6245(3) 0.9127(2) 0.50294(14)
H8 H 0.6003 0.9372 0.5119
H9 H 0.6636 0.9255 0.4944
C7 C 0.5467(3) 0.82773(19) 0.51319(12)
C8 C 0.4888(3) 0.8018(2) 0.52601(14)
H10 H 0.4567 0.8236 0.5327
H11 H 0.4687 0.7839 0.5108
C9 C 0.5989(3) 0.9396(2) 0.43262(15)
C10 C 0.5535(3) 0.9208(2) 0.45508(15)
H12 H 0.5310 0.9465 0.4641
C11 C 0.5859(3) 0.8514(2) 0.53854(13)
H13 H 0.5563 0.8741 0.5467
C12 C 0.6315(3) 0.8490(2) 0.58894(14)
H14 H 0.6749 0.8595 0.5839
H15 H 0.6039 0.8756 0.5909
O9 O 0.4410(2) 0.9115(2) 0.43639(14)
H16 H 0.4467 0.9280 0.4224
C13 C 0.5676(3) 0.8070(2) 0.62708(14)
H17 H 0.5372 0.8325 0.6289
C14 C 0.4778(3) 0.9008(2) 0.50737(15)
H18 H 0.5028 0.9197 0.5202
H19 H 0.4450 0.8849 0.5181
H20 H 0.4573 0.9194 0.4930
C15 C 0.6437(3) 0.8783(2) 0.52568(14)
H21 H 0.6660 0.8940 0.5412
H22 H 0.6743 0.8570 0.5172
C16 C 0.5403(4) 0.7727(2) 0.60422(14)
C17 C 0.6589(3) 0.7846(2) 0.55693(16)
H23 H 0.6874 0.7816 0.5732
H24 H 0.6834 0.7947 0.5405
H25 H 0.6392 0.7557 0.5527
C18 C 0.5389(3) 0.8057(2) 0.67525(15)
H26 H 0.4941 0.8100 0.6684
C19 C 0.5382(3) 0.7761(2) 0.70230(13)
H27 H 0.5834 0.7693 0.7077
C20 C 0.5001(3) 0.8880(3) 0.44292(16)
H28 H 0.5167 0.8740 0.4252
C21 C 0.4889(3) 0.8514(3) 0.46504(14)
H29 H 0.5062 0.8227 0.4582
H30 H 0.4426 0.8478 0.4687
C22 C 0.5424(3) 0.6937(3) 0.69299(15)
H31 H 0.5884 0.7010 0.6893
C23 C 0.5882(4) 0.7930(2) 0.49638(14)
H32 H 0.5652 0.7837 0.4793
H33 H 0.5963 0.7669 0.5083
H34 H 0.6290 0.8066 0.4910
C24 C 0.6351(3) 0.8250(2) 0.61798(14)
H35 H 0.6510 0.8460 0.6325
H36 H 0.6656 0.8000 0.6168
C25 C 0.5794(5) 0.7280(2) 0.60431(17)
H37 H 0.5729 0.7124 0.5863
H38 H 0.5646 0.7091 0.6199
H39 H 0.6249 0.7346 0.6068
C26 C 0.5198(3) 0.6100(3) 0.63659(15)
H40 H 0.5220 0.6318 0.6210
H41 H 0.5441 0.5832 0.6308
C27 C 0.5502(4) 0.6300(3) 0.66315(16)
H42 H 0.5952 0.6384 0.6584
C28 C 0.6471(4) 0.9053(3) 0.41984(17)
H43 H 0.6237 0.8794 0.4127
H44 H 0.6773 0.8958 0.4345
H45 H 0.6707 0.9192 0.4043
C29 C 0.4690(4) 0.7633(3) 0.61330(15)
H46 H 0.4450 0.7914 0.6135
H47 H 0.4684 0.7501 0.6322
H48 H 0.4492 0.7428 0.5998
C30 C 0.5300(4) 0.8475(3) 0.73086(16)
H49 H 0.5745 0.8469 0.7386
C31 C 0.5060(4) 0.8003(3) 0.72702(15)
H50 H 0.4591 0.8018 0.7230
C32 C 0.5526(5) 0.5969(3) 0.68894(18)
H51 H 0.5082 0.5857 0.6923
C33 C 0.5293(4) 0.8739(3) 0.70290(16)
H52 H 0.4842 0.8768 0.6961
C34 C 0.5830(6) 1.0213(3) 0.4321(2)
H53 H 0.5520 1.0274 0.4475
H54 H 0.6060 1.0491 0.4275
O10 O 0.6233(5) 0.9152(3) 0.7195(2)
H55 H 0.6520 0.9263 0.7094
C35 C 0.5505(6) 1.0030(3) 0.40695(17)
C36 C 0.6329(4) 0.9822(3) 0.44142(18)
H56 H 0.6742 0.9854 0.4314
H57 H 0.6407 0.9827 0.4621
C37 C 0.5592(6) 0.9193(3) 0.7045(3)
H58 H 0.5309 0.9398 0.7151
H59 H 0.5654 0.9315 0.6853
C38 C 0.5743(7) 0.6211(4) 0.7154(3)
H60 H 0.6212 0.6274 0.7149
O11 O 0.5581(4) 0.6876(2) 0.74571(13)
H61 H 0.5877 0.7049 0.7412
O12 O 0.5913(4) 0.5601(2) 0.68209(15)
H62 H 0.5697 0.5414 0.6731
C39 C 0.5350(5) 0.6646(3) 0.72051(15)
H63 H 0.4889 0.6567 0.7231
O13 O 0.5563(6) 0.5908(2) 0.74135(13)
H64 H 0.5470 0.5653 0.7356
C40 C 0.4676(5) 1.0084(3) 0.4159(3)
H65 H 0.4601 0.9972 0.4353
H66 H 0.4548 1.0401 0.4153
O14 O 0.4273(5) 0.9811(3) 0.3943(2)
H67 H 0.3965 0.9965 0.3886
C41 C 0.5637(7) 1.0189(4) 0.3776(2)
H68 H 0.5391 0.9993 0.3645
C42 C 0.6290(7) 1.0150(4) 0.3704(3)
H69 H 0.6554 1.0273 0.3857
H70 H 0.6373 1.0314 0.3529
H71 H 0.6397 0.9835 0.3677
C43 C 0.5392(8) 1.0685(4) 0.3727(3)
H72 H 0.4924 1.0691 0.3734
H73 H 0.5536 1.0790 0.3542
H74 H 0.5566 1.0879 0.3875
O15 O 0.2555(2) 0.45873(14) 0.40465(9)
O16 O 0.1677(2) 0.37483(15) 0.41115(9)
H75 H 0.1591 0.4009 0.4063
O17 O 0.1698(2) 0.28163(17) 0.64636(8)
O18 O 0.1297(2) 0.45106(17) 0.38192(10)
H76 H 0.1079 0.4632 0.3946
C44 C 0.2188(3) 0.2632(2) 0.54167(11)
H77 H 0.1953 0.2347 0.5433
H78 H 0.2651 0.2566 0.5425
C45 C 0.2403(3) 0.4038(2) 0.47877(11)
H79 H 0.2872 0.3972 0.4783
C46 C 0.2342(3) 0.3316(2) 0.50866(11)
C47 C 0.2222(3) 0.36194(19) 0.53630(11)
H80 H 0.1748 0.3664 0.5369
C48 C 0.2026(3) 0.2854(2) 0.51280(11)
H81 H 0.2167 0.2654 0.4974
H82 H 0.1556 0.2887 0.5113
C49 C 0.2213(3) 0.4201(2) 0.44813(12)
H83 H 0.1762 0.4311 0.4490
C50 C 0.2004(3) 0.2939(2) 0.56674(11)
H84 H 0.1552 0.3028 0.5626
C51 C 0.2388(3) 0.3391(2) 0.56552(12)
C52 C 0.2049(3) 0.35775(19) 0.48171(11)
C53 C 0.2214(3) 0.3751(2) 0.42998(12)
H85 H 0.2618 0.3731 0.4188
C54 C 0.3086(2) 0.3242(2) 0.50381(12)
H86 H 0.3317 0.3517 0.5083
H87 H 0.3163 0.3162 0.4840
H88 H 0.3237 0.3002 0.5161
C55 C 0.2285(3) 0.4345(2) 0.50473(13)
H89 H 0.1825 0.4419 0.5061
H90 H 0.2528 0.4625 0.5025
C56 C 0.3130(3) 0.3333(2) 0.57053(13)
H91 H 0.3248 0.3021 0.5676
H92 H 0.3236 0.3421 0.5899
H93 H 0.3365 0.3521 0.5572
C57 C 0.1304(3) 0.3640(2) 0.48412(13)
H94 H 0.1202 0.3789 0.5020
H95 H 0.1095 0.3348 0.4836
H96 H 0.1152 0.3821 0.4683
C58 C 0.2638(3) 0.4587(2) 0.43598(13)
C59 C 0.2603(3) 0.2475(2) 0.60586(12)
H97 H 0.2770 0.2287 0.5906
H98 H 0.2531 0.2293 0.6227
H99 H 0.2913 0.2710 0.6102
C60 C 0.2184(3) 0.3351(2) 0.45204(12)
H100 H 0.1837 0.3141 0.4471
H101 H 0.2594 0.3187 0.4524
C61 C 0.2505(3) 0.4098(2) 0.53199(13)
H102 H 0.2386 0.4282 0.5485
H103 H 0.2977 0.4076 0.5317
C62 C 0.1961(3) 0.2689(2) 0.59639(12)
C63 C 0.2100(4) 0.3466(3) 0.61893(14)
H104 H 0.1908 0.3668 0.6331
H105 H 0.2543 0.3399 0.6250
C64 C 0.2368(4) 0.5053(2) 0.44464(15)
H106 H 0.2150 0.5039 0.4632
H107 H 0.2714 0.5277 0.4456
C65 C 0.2228(3) 0.4991(2) 0.39397(13)
C66 C 0.1714(3) 0.3030(3) 0.61804(12)
H108 H 0.1264 0.3107 0.6128
C67 C 0.3217(3) 0.5118(3) 0.36153(18)
H109 H 0.3457 0.4885 0.3714
H110 H 0.3514 0.5346 0.3547
H111 H 0.2987 0.4987 0.3455
C68 C 0.1468(3) 0.2300(3) 0.59475(14)
H112 H 0.1036 0.2422 0.5929
H113 H 0.1494 0.2121 0.6120
H114 H 0.1565 0.2113 0.5783
C69 C 0.2116(3) 0.3699(3) 0.59013(13)
H115 H 0.2385 0.3969 0.5916
H116 H 0.1677 0.3794 0.5851
C70 C 0.1895(4) 0.5165(3) 0.42104(15)
H117 H 0.1822 0.5490 0.4199
H118 H 0.1481 0.5013 0.4241
C71 C 0.2401(4) 0.5727(3) 0.36762(17)
H119 H 0.2132 0.5618 0.3522
H120 H 0.2725 0.5930 0.3600
H121 H 0.2135 0.5885 0.3814
C72 C 0.1772(4) 0.4829(3) 0.37105(15)
H122 H 0.1547 0.5088 0.3628
H123 H 0.2022 0.4686 0.3558
C73 C 0.2732(3) 0.5333(3) 0.38216(16)
H124 H 0.2978 0.5452 0.3986
C74 C 0.3359(3) 0.4540(3) 0.44202(17)
H125 H 0.3508 0.4249 0.4353
H126 H 0.3435 0.4564 0.4624
H127 H 0.3593 0.4776 0.4321
O19 O 0.1292(2) 0.3346(2) 0.67660(10)
O20 O 0.0921(2) 0.2145(2) 0.67386(10)
O21 O 0.1691(3) 0.1626(2) 0.66058(11)
O22 O 0.0316(3) 0.1531(2) 0.70822(13)
H128 H 0.0453 0.1514 0.7248
C75 C 0.1273(4) 0.1785(3) 0.68221(14)
H129 H 0.1526 0.1862 0.6995
C76 C 0.1156(3) 0.2927(3) 0.66357(13)
H130 H 0.0763 0.2950 0.6516
C77 C 0.1066(4) 0.2568(3) 0.68617(14)
H131 H 0.1468 0.2542 0.6975
C78 C 0.0789(4) 0.3506(3) 0.69469(15)
H132 H 0.0394 0.3544 0.6830
O23 O 0.0807(4) 0.0600(2) 0.70983(18)
H133 H 0.0976 0.0358 0.7052
C79 C 0.0793(4) 0.1368(3) 0.68904(18)
H134 H 0.0580 0.1273 0.6711
C80 C 0.1032(6) 0.4012(5) 0.7054(2)
H135 H 0.1071 0.4210 0.6887
H136 H 0.0707 0.4141 0.7182
C81 C 0.1211(5) 0.0968(3) 0.7005(2)
H137 H 0.1435 0.1081 0.7178
O24 O 0.2185(4) 0.0534(3) 0.6915(2)
H138 H 0.2100 0.0505 0.7087
C82 C 0.1745(5) 0.0843(3) 0.6789(2)
H139 H 0.1535 0.0689 0.6626
O25 O 0.0447(4) 0.2397(3) 0.72842(12)
H140 H 0.0069 0.2399 0.7343
O26 O 0.0096(4) 0.3350(3) 0.73378(12)
H141 H -0.0227 0.3198 0.7298
O27 O 0.1615(4) 0.3992(3) 0.71927(14)
H142 H 0.1562 0.4048 0.7364
C83 C 0.0636(4) 0.3178(4) 0.71912(15)
H143 H 0.1010 0.3162 0.7323
C84 C 0.0512(4) 0.2704(3) 0.70583(16)
H144 H 0.0105 0.2711 0.6947
C85 C 0.2096(5) 0.1280(3) 0.6668(2)
H145 H 0.2401 0.1386 0.6817
C86 C 0.2471(5) 0.1126(4) 0.64300(18)
H146 H 0.2661 0.0834 0.6478
H147 H 0.2182 0.1081 0.6267
O28 O 0.2964(5) 0.1417(4) 0.6349(2)
H148 H 0.3170 0.1304 0.6215
O29 O 0.9051(2) 0.96287(14) 0.39962(9)
O30 O 0.8617(2) 0.78623(17) 0.64422(8)
O31 O 0.7756(3) 0.95581(17) 0.38122(12)
H149 H 0.8050 0.9369 0.3815
O32 O 0.8215(3) 0.87751(17) 0.40953(11)
H150 H 0.7893 0.8810 0.4198
C87 C 0.8953(3) 0.7672(2) 0.53821(11)
H151 H 0.8734 0.7383 0.5406
H152 H 0.9420 0.7616 0.5376
C88 C 0.9036(3) 0.90753(19) 0.47473(12)
H153 H 0.9506 0.9020 0.4731
C89 C 0.9042(2) 0.83679(18) 0.50471(12)
C90 C 0.8941(3) 0.9392(2) 0.50017(13)
H154 H 0.8481 0.9460 0.5026
H155 H 0.9172 0.9675 0.4969
C91 C 0.8733(3) 0.78964(18) 0.50978(11)
H156 H 0.8262 0.7928 0.5100
H157 H 0.8847 0.7699 0.4938
C92 C 0.8944(3) 0.86706(19) 0.53220(11)
H158 H 0.8470 0.8708 0.5339
C93 C 0.7959(2) 0.8667(2) 0.48282(13)
H159 H 0.7867 0.8838 0.5000
H160 H 0.7761 0.8372 0.4842
H161 H 0.7787 0.8824 0.4663
C94 C 0.9158(3) 0.8450(2) 0.56119(12)
C95 C 0.8790(3) 0.7983(2) 0.56384(11)
H162 H 0.8330 0.8061 0.5610
C96 C 0.8782(3) 0.8795(2) 0.42654(12)
H163 H 0.9168 0.8781 0.4141
C97 C 0.8711(2) 0.86120(19) 0.47942(12)
C98 C 0.8800(3) 0.92388(19) 0.44485(11)
H164 H 0.8352 0.9350 0.4469
C99 C 0.9205(3) 0.9614(2) 0.43116(12)
C100 C 0.9477(3) 0.7528(2) 0.60211(13)
H165 H 0.9634 0.7333 0.5871
H166 H 0.9433 0.7358 0.6197
H167 H 0.9781 0.7772 0.6050
C101 C 0.9209(3) 0.9155(2) 0.52765(13)
H168 H 0.9681 0.9141 0.5264
H169 H 0.9099 0.9338 0.5444
C102 C 0.8800(3) 0.8396(2) 0.44874(11)
H170 H 0.9213 0.8236 0.4476
H171 H 0.8450 0.8182 0.4448
C103 C 0.9769(3) 0.8287(2) 0.49871(13)
H172 H 0.9933 0.8060 0.5117
H173 H 1.0006 0.8565 0.5015
H174 H 0.9824 0.8185 0.4792
C104 C 0.8804(3) 0.7725(2) 0.59338(12)
C105 C 0.8328(3) 0.7341(2) 0.59357(12)
H175 H 0.7944 0.7427 0.5831
H176 H 0.8213 0.7270 0.6131
H177 H 0.8523 0.7080 0.5846
C106 C 0.8584(3) 0.8086(2) 0.61607(12)
H178 H 0.8127 0.8161 0.6122
C107 C 0.9002(3) 1.0098(2) 0.44159(14)
H179 H 0.8594 1.0085 0.4522
H180 H 0.9335 1.0224 0.4541
C108 C 0.9911(3) 0.8410(2) 0.56470(13)
H181 H 1.0054 0.8119 0.5577
H182 H 1.0024 0.8439 0.5847
H183 H 1.0120 0.8646 0.5539
C109 C 0.8914(3) 0.8749(2) 0.58649(12)
H184 H 0.9168 0.9026 0.5870
H185 H 0.8463 0.8831 0.5830
C110 C 0.8964(4) 0.8512(2) 0.61598(13)
H186 H 0.9417 0.8446 0.6202
H187 H 0.8799 0.8713 0.6309
C111 C 0.8708(3) 1.0043(2) 0.39165(13)
C112 C 0.8927(4) 1.0384(2) 0.41489(15)
H188 H 0.9338 1.0525 0.4096
H189 H 0.8601 1.0618 0.4177
C113 C 0.9944(3) 0.9553(3) 0.43230(15)
H190 H 1.0055 0.9254 0.4257
H191 H 1.0092 0.9592 0.4518
H192 H 1.0149 0.9774 0.4201
C114 C 0.8902(4) 1.0151(3) 0.36059(15)
H193 H 0.8760 0.9894 0.3487
C115 C 0.7962(4) 0.9952(3) 0.39556(17)
H194 H 0.7866 0.9923 0.4160
H195 H 0.7719 1.0210 0.3882
C116 C 0.9623(5) 1.0203(3) 0.35590(17)
H196 H 0.9764 1.0491 0.3634
H197 H 0.9717 1.0188 0.3356
H198 H 0.9850 0.9963 0.3657
C117 C 0.8516(6) 1.0570(3) 0.3500(2)
H199 H 0.8065 1.0489 0.3475
H200 H 0.8692 1.0672 0.3320
H201 H 0.8550 1.0809 0.3641
O33 O 0.8223(3) 0.8375(2) 0.67634(9)
O34 O 0.7893(4) 0.7171(3) 0.67008(15)
O35 O 0.6979(3) 0.8338(3) 0.73123(13)
H202 H 0.6733 0.8128 0.7353
O36 O 0.7309(4) 0.7406(3) 0.72387(14)
H203 H 0.7585 0.7204 0.7239
C118 C 0.7739(4) 0.8552(3) 0.69459(15)
H204 H 0.7357 0.8626 0.6828
O37 O 0.8719(4) 0.6698(2) 0.65571(12)
C119 C 0.8109(3) 0.7963(3) 0.66234(14)
H205 H 0.7705 0.7985 0.6511
C120 C 0.8040(4) 0.7593(3) 0.68443(15)
H206 H 0.8438 0.7565 0.6960
C121 C 0.7527(4) 0.8169(3) 0.71744(14)
H207 H 0.7876 0.8145 0.7318
C122 C 0.8213(7) 0.6846(5) 0.6775(2)
H208 H 0.8438 0.6923 0.6955
O38 O 0.8554(3) 0.8945(2) 0.72334(14)
H209 H 0.8766 0.9180 0.7224
O39 O 0.9087(5) 0.5514(3) 0.66938(19)
H210 H 0.8900 0.5282 0.6641
O40 O 0.7334(6) 0.6499(4) 0.7017(2)
H211 H 0.7234 0.6767 0.6997
C123 C 0.7462(5) 0.7722(5) 0.70316(18)
H212 H 0.7084 0.7743 0.6903
C124 C 0.7993(5) 0.8994(3) 0.7083(2)
H213 H 0.8063 0.9215 0.6931
H214 H 0.7660 0.9113 0.7211
C125 C 0.7851(7) 0.6388(4) 0.6821(2)
H215 H 0.7621 0.6345 0.6637
O41 O 0.7806(7) 0.5574(3) 0.68651(18)
H216 H 0.7616 0.5541 0.6711
C126 C 0.8175(8) 0.5980(5) 0.6858(3)
H217 H 0.8400 0.6000 0.7044
C127 C 0.9117(7) 0.6323(4) 0.6607(2)
H218 H 0.9345 0.6368 0.6790
C128 C 0.8706(9) 0.5884(4) 0.6630(2)
H219 H 0.8492 0.5831 0.6444
C129 C 0.9650(10) 0.6316(5) 0.6353(2)
H220 H 0.9813 0.6621 0.6322
H221 H 0.9447 0.6214 0.6176
O42 O 1.0282(7) 0.5965(5) 0.6440(2)
H222 H 1.0501 0.5915 0.6295
O43 O 0.5858(2) 0.45921(14) 0.41290(9)
O44 O 0.4711(2) 0.26472(17) 0.64811(9)
C130 C 0.5645(2) 0.33019(18) 0.51509(12)
C131 C 0.5421(3) 0.27973(19) 0.51680(12)
H223 H 0.4957 0.2782 0.5127
H224 H 0.5646 0.2624 0.5020
C132 C 0.5629(3) 0.40197(18) 0.48549(12)
H225 H 0.6104 0.4005 0.4877
C133 C 0.5380(3) 0.35269(18) 0.48667(13)
O45 O 0.4731(3) 0.4520(2) 0.38117(14)
H226 H 0.4519 0.4341 0.3910
C134 C 0.5632(3) 0.3349(2) 0.45732(13)
H227 H 0.6074 0.3234 0.4592
H228 H 0.5355 0.3106 0.4503
C135 C 0.5549(3) 0.25822(19) 0.54567(13)
H229 H 0.6015 0.2575 0.5492
H230 H 0.5392 0.2272 0.5455
C136 C 0.5371(3) 0.35592(19) 0.54121(12)
H231 H 0.4897 0.3551 0.5384
C137 C 0.5209(3) 0.2846(2) 0.56987(12)
H232 H 0.4760 0.2882 0.5631
C138 C 0.6400(3) 0.3303(2) 0.51471(15)
H233 H 0.6559 0.3034 0.5240
H234 H 0.6558 0.3566 0.5247
H235 H 0.6551 0.3310 0.4951
C139 C 0.5876(3) 0.4595(2) 0.44461(13)
C140 C 0.5369(3) 0.4298(2) 0.51134(13)
H236 H 0.5559 0.4599 0.5110
H237 H 0.4899 0.4328 0.5098
C141 C 0.5502(3) 0.4176(2) 0.45479(13)
H238 H 0.5036 0.4248 0.4534
C142 C 0.5542(3) 0.4063(2) 0.53959(14)
H239 H 0.5319 0.4219 0.5552
H240 H 0.6007 0.4096 0.5428
C143 C 0.5477(3) 0.3341(2) 0.57140(12)
O46 O 0.5056(3) 0.3720(2) 0.41617(13)
H241 H 0.5126 0.3519 0.4043
C144 C 0.4620(3) 0.3520(2) 0.48510(15)
H242 H 0.4470 0.3212 0.4839
H243 H 0.4478 0.3684 0.4683
H244 H 0.4443 0.3661 0.5021
C145 C 0.5141(3) 0.2575(2) 0.59902(13)
C146 C 0.5063(3) 0.3591(2) 0.59431(14)
H245 H 0.5249 0.3890 0.5972
H246 H 0.4627 0.3632 0.5866
C147 C 0.4757(3) 0.2878(2) 0.62002(12)
H247 H 0.4312 0.2899 0.6124
C148 C 0.5006(4) 0.3362(2) 0.62340(14)
H248 H 0.4708 0.3532 0.6355
H249 H 0.5430 0.3358 0.6327
C149 C 0.6202(3) 0.3373(2) 0.58164(15)
H250 H 0.6448 0.3127 0.5735
H251 H 0.6218 0.3355 0.6023
H252 H 0.6385 0.3656 0.5754
C150 C 0.5563(3) 0.4994(2) 0.40193(15)
C151 C 0.5617(4) 0.3747(3) 0.43680(15)
H253 H 0.6030 0.3770 0.4263
C152 C 0.4738(4) 0.2154(2) 0.59299(15)
H254 H 0.4352 0.2238 0.5825
H255 H 0.4617 0.2014 0.6109
H256 H 0.4991 0.1945 0.5817
C153 C 0.5789(4) 0.2422(3) 0.61270(16)
H257 H 0.6072 0.2306 0.5980
H258 H 0.5705 0.2189 0.6267
H259 H 0.5993 0.2677 0.6220
C154 C 0.5562(4) 0.5034(2) 0.45281(16)
H260 H 0.5785 0.5169 0.4692
H261 H 0.5108 0.4987 0.4579
C155 C 0.4105(4) 0.2556(3) 0.65882(13)
H262 H 0.3828 0.2451 0.6429
C156 C 0.6593(3) 0.4580(3) 0.45257(17)
H263 H 0.6724 0.4270 0.4554
H264 H 0.6662 0.4747 0.4701
H265 H 0.6847 0.4712 0.4373
C157 C 0.5895(4) 0.5128(2) 0.37344(16)
H266 H 0.5785 0.4898 0.3590
C158 C 0.5620(4) 0.5340(3) 0.42604(16)
H267 H 0.5271 0.5561 0.4253
H268 H 0.6037 0.5496 0.4255
C159 C 0.6635(4) 0.5135(3) 0.3769(2)
H269 H 0.6762 0.5401 0.3874
H270 H 0.6837 0.5140 0.3582
H271 H 0.6773 0.4869 0.3872
C160 C 0.5668(5) 0.5578(3) 0.3624(2)
H272 H 0.5214 0.5560 0.3576
H273 H 0.5915 0.5658 0.3456
H274 H 0.5730 0.5804 0.3771
C161 C 0.4847(4) 0.4892(4) 0.3963(2)
H275 H 0.4626 0.4866 0.4147
H276 H 0.4658 0.5149 0.3862
O47 O 0.3826(2) 0.29478(18) 0.67039(9)
O48 O 0.4312(5) 0.1785(2) 0.66586(12)
C162 C 0.3182(4) 0.2908(3) 0.68185(13)
H277 H 0.2897 0.2793 0.6665
C163 C 0.4137(5) 0.2188(3) 0.68130(15)
H278 H 0.4462 0.2259 0.6961
C164 C 0.3189(4) 0.2554(3) 0.70666(15)
H279 H 0.3482 0.2664 0.7218
C165 C 0.3474(5) 0.2120(3) 0.69449(16)
H280 H 0.3183 0.2020 0.6790
C166 C 0.4679(5) 0.1570(8) 0.6771(3)
H281 H 0.4440 0.1478 0.6944
O49 O 0.3291(3) 0.3548(3) 0.71397(11)
H282 H 0.3678 0.3573 0.7098
O50 O 0.2566(3) 0.2518(3) 0.71812(12)
H283 H 0.2418 0.2266 0.7146
O51 O 0.5216(3) 0.1663(3) 0.68695(13)
O52 O 0.3468(4) 0.1769(2) 0.71637(12)
H284 H 0.3161 0.1596 0.7134
C167 C 0.2948(4) 0.3362(3) 0.69015(15)
H285 H 0.2991 0.3565 0.6738
H286 H 0.2488 0.3343 0.6950
O53 O 0.5391(6) 0.0362(3) 0.6602(2)
H287 H 0.5339 0.0415 0.6430
O54 O 0.4180(4) 0.0855(3) 0.6509(2)
H288 H 0.4259 0.0602 0.6444
C168 C 0.5868(8) 0.1003(4) 0.6891(2)
H289 H 0.6130 0.1095 0.6725
C169 C 0.5194(8) 0.0748(5) 0.6767(2)
H290 H 0.4938 0.0642 0.6932
O55 O 0.6212(7) 0.0695(4) 0.7041(2)
H291 H 0.6364 0.0814 0.7186
C170 C 0.5644(7) 0.1424(5) 0.7043(2)
H292 H 0.5406 0.1331 0.7216
C171 C 0.4825(7) 0.1078(4) 0.6617(3)
H293 H 0.5076 0.1148 0.6442
C172 C 0.6254(9) 0.1650(7) 0.7137(4)
H294 H 0.6524 0.1704 0.6969
H295 H 0.6490 0.1444 0.7263
O56 O 0.6151(6) 0.2117(4) 0.7301(3)
H296 H 0.6344 0.2110 0.7456
O57 O 0.1630(2) 0.76804(16) 0.64176(10)
O58 O 0.0790(2) 0.80121(16) 0.66503(9)
O59 O 0.1320(2) 0.68256(15) 0.66661(10)
O60 O 0.2425(2) 0.68383(16) 0.66786(10)
O61 O 0.0501(3) 0.6889(2) 0.71750(10)
H297 H 0.0148 0.6765 0.7200
O62 O 0.0287(3) 0.8639(2) 0.70828(12)
H298 H 0.0127 0.8567 0.7238
O63 O 0.3656(3) 0.5997(2) 0.68809(13)
H299 H 0.3549 0.5802 0.6998
O64 O 0.2512(4) 0.54511(18) 0.67681(15)
H300 H 0.2734 0.5303 0.6882
O65 O -0.0434(3) 0.7613(3) 0.71558(11)
H301 H -0.0597 0.7370 0.7108
C173 C 0.2402(3) 0.8371(2) 0.50781(14)
C174 C 0.2269(3) 0.8396(2) 0.56495(15)
C175 C 0.2114(3) 0.8596(2) 0.48040(15)
C176 C 0.2032(3) 0.7896(2) 0.56342(14)
H302 H 0.1573 0.7919 0.5576
C177 C 0.3004(3) 0.8439(3) 0.57393(17)
H303 H 0.3039 0.8425 0.5946
H304 H 0.3174 0.8724 0.5672
H305 H 0.3249 0.8195 0.5655
C178 C 0.2320(3) 0.9108(2) 0.48032(15)
H306 H 0.2793 0.9107 0.4833
C179 C 0.2011(3) 0.7625(2) 0.59212(14)
C180 C 0.2366(3) 0.7654(2) 0.53801(14)
H307 H 0.2834 0.7659 0.5410
H308 H 0.2229 0.7338 0.5378
C181 C 0.2218(3) 0.7862(2) 0.50921(14)
H309 H 0.1755 0.7829 0.5052
H310 H 0.2456 0.7699 0.4944
C182 C 0.2115(3) 0.8614(2) 0.53523(14)
H311 H 0.1640 0.8591 0.5332
C183 C 0.1874(3) 0.6642(2) 0.68061(14)
H312 H 0.1862 0.6703 0.7014
C184 C 0.1119(3) 0.7258(2) 0.67863(13)
H313 H 0.1447 0.7372 0.6922
C185 C 0.1024(3) 0.7586(2) 0.65439(13)
H314 H 0.0722 0.7461 0.6400
C186 C 0.0157(3) 0.7965(2) 0.67810(13)
H315 H -0.0139 0.7833 0.6638
C187 C 0.1866(4) 0.8386(2) 0.61688(17)
H316 H 0.1592 0.8547 0.6306
H317 H 0.2308 0.8382 0.6244
C188 C 0.1621(3) 0.7905(2) 0.61339(14)
H318 H 0.1168 0.7918 0.6067
C189 C -0.0090(4) 0.8448(3) 0.68538(15)
H319 H -0.0057 0.8640 0.6684
H320 H -0.0545 0.8435 0.6911
C190 C 0.2382(3) 0.8432(2) 0.45092(15)
H321 H 0.2769 0.8247 0.4537
H322 H 0.2056 0.8251 0.4409
C191 C 0.2496(4) 0.5919(3) 0.68587(17)
H323 H 0.2497 0.5931 0.7070
C192 C 0.2685(3) 0.7513(2) 0.60490(15)
H324 H 0.2957 0.7384 0.5902
H325 H 0.2636 0.7300 0.6204
H326 H 0.2884 0.7786 0.6121
C193 C 0.2263(5) 0.9133(2) 0.53431(17)
H327 H 0.2043 0.9280 0.5503
H328 H 0.2729 0.9179 0.5368
C194 C 0.0192(3) 0.7652(3) 0.70326(14)
H329 H 0.0488 0.7782 0.7177
C195 C 0.2044(4) 0.9357(2) 0.50589(16)
H330 H 0.1572 0.9356 0.5048
H331 H 0.2190 0.9670 0.5055
C196 C 0.1359(3) 0.8550(3) 0.47857(18)
H332 H 0.1246 0.8240 0.4745
H333 H 0.1197 0.8742 0.4634
H334 H 0.1169 0.8639 0.4966
C197 C 0.1855(5) 0.8629(2) 0.58829(17)
H335 H 0.2014 0.8936 0.5910
H336 H 0.1408 0.8648 0.5816
C198 C 0.1641(4) 0.7174(3) 0.58700(16)
H337 H 0.1265 0.7230 0.5751
H338 H 0.1503 0.7051 0.6052
H339 H 0.1924 0.6962 0.5775
C199 C 0.3153(3) 0.8389(3) 0.50725(16)
H340 H 0.3297 0.8475 0.4883
H341 H 0.3326 0.8095 0.5120
H342 H 0.3303 0.8608 0.5211
C200 C 0.0456(4) 0.7197(3) 0.69383(14)
H343 H 0.0149 0.7069 0.6798
C201 C 0.3012(3) 0.6683(3) 0.67997(17)
H344 H 0.3005 0.6736 0.7008
O66 O 0.1351(3) 0.5935(3) 0.6886(3)
H345 H 0.1045 0.5903 0.6774
C202 C 0.3084(4) 0.6179(3) 0.67442(17)
H346 H 0.3117 0.6128 0.6536
C203 C 0.1863(4) 0.6131(3) 0.6746(2)
H347 H 0.1824 0.6078 0.6538
O67 O 0.3753(5) 0.6780(4) 0.6377(2)
H348 H 0.3716 0.6989 0.6261
C204 C 0.3568(4) 0.6942(3) 0.6669(2)
H349 H 0.3449 0.7260 0.6658
H350 H 0.3944 0.6918 0.6795
O68 O 0.2575(3) 0.97405(17) 0.40916(12)
C205 C 0.2491(4) 0.9723(2) 0.44112(16)
C206 C 0.2224(4) 0.9250(2) 0.44862(17)
H351 H 0.1756 0.9245 0.4443
C207 C 0.3164(4) 0.9796(3) 0.45409(19)
H352 H 0.3435 0.9538 0.4499
H353 H 0.3126 0.9831 0.4746
H354 H 0.3357 1.0064 0.4459
C208 C 0.2543(5) 0.8845(2) 0.43390(18)
H355 H 0.3017 0.8888 0.4341
C209 C 0.2055(5) 1.0112(3) 0.4481(2)
H356 H 0.2307 1.0373 0.4544
H357 H 0.1749 1.0031 0.4633
O69 O 0.2335(7) 0.8780(2) 0.40477(14)
H358 H 0.1939 0.8817 0.4037
C210 C 0.2131(4) 1.0041(3) 0.39588(17)
C211 C 0.1640(5) 0.9721(4) 0.3800(2)
H359 H 0.1447 0.9517 0.3941
H360 H 0.1291 0.9904 0.3719
C212 C 0.2496(5) 1.0376(4) 0.3787(2)
H361 H 0.2698 1.0187 0.3637
C213 C 0.1693(6) 1.0216(4) 0.4198(2)
H362 H 0.1274 1.0063 0.4193
H363 H 0.1622 1.0540 0.4177
C214 C 0.2110(8) 1.0692(6) 0.3619(3)
H364 H 0.1781 1.0528 0.3514
H365 H 0.2387 1.0850 0.3486
H366 H 0.1904 1.0906 0.3746
C215 C 0.3038(10) 1.0600(6) 0.3909(4)
H367 H 0.2960 1.0652 0.4111
H368 H 0.3103 1.0886 0.3814
H369 H 0.3421 1.0416 0.3886
O70 O 0.1904(6) 0.9480(3) 0.35927(17)
H370 H 0.2234 0.9607 0.3534
O71 O 0.3905(3) 1.20794(17) 0.35155(10)
O72 O 0.3386(3) 1.3192(2) 0.32977(10)
O73 O 0.3192(3) 1.2518(2) 0.30676(11)
O74 O 0.3488(4) 1.2907(3) 0.25252(11)
H371 H 0.3598 1.3085 0.2398
C216 C 0.4188(3) 1.0978(2) 0.52453(13)
H372 H 0.4472 1.1215 0.5325
C217 C 0.3747(3) 1.1623(2) 0.49277(13)
C218 C 0.3955(3) 1.0695(2) 0.55075(15)
H373 H 0.3684 1.0448 0.5432
O75 O 0.2903(3) 1.3924(2) 0.36172(12)
H374 H 0.2779 1.3820 0.3772
C219 C 0.4123(3) 1.1412(2) 0.46649(14)
H375 H 0.3832 1.1181 0.4585
C220 C 0.3559(3) 1.1228(2) 0.51390(13)
C221 C 0.4275(3) 1.1741(2) 0.44117(15)
C222 C 0.3597(3) 1.1934(2) 0.43145(15)
H376 H 0.3334 1.1661 0.4282
C223 C 0.4560(4) 1.0774(3) 0.49941(16)
H377 H 0.4297 1.0542 0.4902
H378 H 0.4958 1.0633 0.5063
C224 C 0.3131(3) 1.1863(3) 0.48124(15)
H379 H 0.2818 1.1633 0.4755
H380 H 0.2937 1.2035 0.4969
C225 C 0.3562(4) 1.2187(2) 0.40242(15)
C226 C 0.4119(4) 1.1980(2) 0.50973(16)
H381 H 0.4579 1.1926 0.5079
H382 H 0.3997 1.1964 0.5297
H383 H 0.4017 1.2276 0.5023
O76 O 0.3230(4) 1.3865(3) 0.25267(12)
H384 H 0.3438 1.3821 0.2378
O77 O 0.3656(4) 1.4318(2) 0.30322(15)
H385 H 0.4030 1.4314 0.3095
C227 C 0.3241(4) 1.2176(3) 0.45629(14)
H386 H 0.3497 1.2434 0.4626
H387 H 0.2824 1.2288 0.4494
C228 C 0.3877(4) 1.1877(3) 0.38007(16)
H388 H 0.3603 1.1605 0.3786
C229 C 0.4557(3) 1.1474(3) 0.41729(16)
H389 H 0.4309 1.1195 0.4153
H390 H 0.5001 1.1391 0.4223
C230 C 0.4729(3) 1.1154(3) 0.47717(16)
H391 H 0.5029 1.1367 0.4860
H392 H 0.4949 1.1018 0.4608
C231 C 0.3094(3) 1.0886(2) 0.50019(16)
H393 H 0.3270 1.0786 0.4821
H394 H 0.2678 1.1028 0.4970
H395 H 0.3041 1.0631 0.5128
C232 C 0.3247(3) 1.1357(3) 0.54404(16)
H396 H 0.3366 1.1664 0.5494
H397 H 0.2775 1.1337 0.5431
C233 C 0.3842(6) 1.2661(3) 0.4029(2)
H398 H 0.3737 1.2804 0.4209
H399 H 0.3661 1.2834 0.3873
H400 H 0.4308 1.2645 0.4008
C234 C 0.3541(4) 1.2096(3) 0.30334(16)
H401 H 0.3984 1.2164 0.2967
C235 C 0.3504(3) 1.1028(3) 0.56551(14)
H402 H 0.3780 1.1206 0.5786
C236 C 0.3689(4) 1.3619(3) 0.32960(16)
H403 H 0.4160 1.3578 0.3268
C237 C 0.3528(4) 1.2926(3) 0.30432(15)
H404 H 0.3998 1.2870 0.3027
C238 C 0.4565(4) 1.1719(3) 0.38798(19)
H405 H 0.4855 1.1979 0.3890
H406 H 0.4728 1.1515 0.3732
C239 C 0.3571(4) 1.3840(3) 0.35833(17)
H407 H 0.3724 1.3642 0.3737
H408 H 0.3812 1.4123 0.3594
C240 C 0.2830(4) 1.2222(3) 0.39432(16)
H409 H 0.2618 1.1938 0.3982
H410 H 0.2789 1.2293 0.3742
H411 H 0.2628 1.2457 0.4055
C241 C 0.3581(5) 1.1841(3) 0.33098(19)
H412 H 0.3137 1.1780 0.3378
C242 C 0.3283(4) 1.3161(3) 0.27806(15)
H413 H 0.2805 1.3168 0.2787
C243 C 0.4775(4) 1.2123(3) 0.4492(2)
H414 H 0.4548 1.2375 0.4576
H415 H 0.5000 1.2221 0.4321
H416 H 0.5086 1.2006 0.4628
C244 C 0.3408(6) 1.3892(3) 0.30375(18)
H417 H 0.2934 1.3916 0.3063
C245 C 0.3536(5) 1.3643(3) 0.27567(16)
H418 H 0.4007 1.3635 0.2721
O78 O 0.4219(2) 1.03006(16) 0.59543(10)
C246 C 0.4492(4) 1.0479(3) 0.56877(15)
C247 C 0.4422(4) 0.9623(3) 0.6227(2)
H419 H 0.4359 0.9805 0.6403
C248 C 0.4101(6) 0.9834(3) 0.59528(19)
O79 O 0.3040(4) 1.0857(4) 0.58165(18)
H420 H 0.2979 1.0591 0.5771
C249 C 0.4126(6) 0.9655(3) 0.5674(3)
H421 H 0.3707 0.9674 0.5577
H422 H 0.4278 0.9343 0.5673
C250 C 0.5009(4) 1.0821(4) 0.5764(2)
H423 H 0.5234 1.0913 0.5592
H424 H 0.5314 1.0687 0.5896
H425 H 0.4809 1.1081 0.5852
C251 C 0.4699(6) 1.0024(4) 0.5523(2)
H426 H 0.5143 0.9935 0.5568
H427 H 0.4647 1.0051 0.5316
C252 C 0.4237(8) 0.9089(3) 0.6267(3)
H428 H 0.3812 0.9064 0.6353
H429 H 0.4554 0.8946 0.6389
H430 H 0.4236 0.8943 0.6082
C253 C 0.5139(6) 0.9572(5) 0.6138(3)
H431 H 0.5218 0.9264 0.6079
H432 H 0.5415 0.9646 0.6298
H433 H 0.5230 0.9773 0.5980
C254 C 0.3287(4) 0.9753(4) 0.5982(3)
H434 H 0.3200 0.9434 0.5948
H435 H 0.3164 0.9816 0.6180
O80 O 0.2921(5) 0.9975(5) 0.5824(2)
H436 H 0.2563 1.0001 0.5901
O81 O 0.3890(3) 1.1430(2) 0.32556(13)
O82 O 0.3205(3) 1.2036(2) 0.25417(12)
H437 H 0.2864 1.1983 0.2456
O83 O 0.3120(5) 1.1054(3) 0.26100(18)
H438 H 0.2846 1.0934 0.2714
C255 C 0.3524(6) 1.1337(3) 0.2778(2)
H439 H 0.3957 1.1366 0.2690
C256 C 0.3208(5) 1.1798(3) 0.28105(18)
H440 H 0.2754 1.1753 0.2871
C257 C 0.3574(6) 1.1133(4) 0.3071(2)
H441 H 0.3131 1.1084 0.3145
C258 C 0.3927(7) 1.0672(3) 0.3067(3)
H442 H 0.4002 1.0560 0.3261
H443 H 0.3684 1.0448 0.2958
O84 O 0.4533(8) 1.0789(6) 0.2926(3)
H444 H 0.4675 1.0566 0.2840
O85? O 0.8959(7) 0.6227(6) 0.6082(3)
H445? H 0.8873 0.6469 0.6004
H446? H 0.9952 0.6064 0.6365
H447? H 0.9880 0.6602 0.6329
H448? H 0.3965 0.6764 0.6685
H449? H 0.3482 0.6993 0.6466
H450? H 0.3990 0.7452 0.6745
H451? H 0.2578 0.0810 0.6465
H452? H 0.2879 0.1294 0.6432
H453? H 0.2495 0.1105 0.6021
O86? O 0.3648(8) 0.7335(6) 0.6800(3)
O87? O 0.2206(9) 0.1158(8) 0.6139(3)
loop_
_geom_bond_atom_site_label_1
_geom_bond_atom_site_label_2
_geom_bond_site_symmetry_1
_geom_bond_site_symmetry_2
O1 C22 1_555 1_555
O2 C19 1_555 1_555
O3 C13 1_555 1_555
O4 C9 1_555 1_555
O5 H1 1_555 1_555
O6 C18 1_555 1_555
O7 H2 1_555 1_555
C1 H3 1_555 1_555
C2 C1 1_555 1_555
O8 H4 1_555 1_555
C3 H5 1_555 1_555
C4 C3 1_555 1_555
C5 C3 1_555 1_555
H6 C5 1_555 1_555
H7 C5 1_555 1_555
C6 C1 1_555 1_555
H8 C6 1_555 1_555
H9 C6 1_555 1_555
C7 C2 1_555 1_555
C8 C5 1_555 1_555
H10 C8 1_555 1_555
H11 C8 1_555 1_555
C9 C10 1_555 1_555
C10 C1 1_555 1_555
H12 C10 1_555 1_555
C11 C4 1_555 1_555
H13 C11 1_555 1_555
C12 C4 1_555 1_555
H14 C12 1_555 1_555
H15 C12 1_555 1_555
O9 H16 1_555 1_555
C13 H17 1_555 1_555
C14 C2 1_555 1_555
H18 C14 1_555 1_555
H19 C14 1_555 1_555
H20 C14 1_555 1_555
C15 C6 1_555 1_555
H21 C15 1_555 1_555
H22 C15 1_555 1_555
C16 C3 1_555 1_555
C17 C4 1_555 1_555
H23 C17 1_555 1_555
H24 C17 1_555 1_555
H25 C17 1_555 1_555
C18 O3 1_555 1_555
H26 C18 1_555 1_555
C19 C18 1_555 1_555
H27 C19 1_555 1_555
C20 C10 1_555 1_555
H28 C20 1_555 1_555
C21 C2 1_555 1_555
H29 C21 1_555 1_555
H30 C21 1_555 1_555
C22 O2 1_555 1_555
H31 C22 1_555 1_555
C23 C7 1_555 1_555
H32 C23 1_555 1_555
H33 C23 1_555 1_555
H34 C23 1_555 1_555
C24 C12 1_555 1_555
H35 C24 1_555 1_555
H36 C24 1_555 1_555
C25 C16 1_555 1_555
H37 C25 1_555 1_555
H38 C25 1_555 1_555
H39 C25 1_555 1_555
C26 O5 1_555 1_555
H40 C26 1_555 1_555
H41 C26 1_555 1_555
C27 O1 1_555 1_555
H42 C27 1_555 1_555
C28 C9 1_555 1_555
H43 C28 1_555 1_555
H44 C28 1_555 1_555
H45 C28 1_555 1_555
C29 C16 1_555 1_555
H46 C29 1_555 1_555
H47 C29 1_555 1_555
H48 C29 1_555 1_555
C30 O8 1_555 1_555
H49 C30 1_555 1_555
C31 O7 1_555 1_555
H50 C31 1_555 1_555
C32 C27 1_555 1_555
H51 C32 1_555 1_555
C33 O6 1_555 1_555
H52 C33 1_555 1_555
C34 H53 1_555 1_555
H54 C34 1_555 1_555
O10 H55 1_555 1_555
C35 O4 1_555 1_555
C36 C9 1_555 1_555
H56 C36 1_555 1_555
H57 C36 1_555 1_555
C37 C33 1_555 1_555
H58 C37 1_555 1_555
H59 C37 1_555 1_555
C38 C32 1_555 1_555
H60 C38 1_555 1_555
O11 H61 1_555 1_555
O12 C32 1_555 1_555
H62 O12 1_555 1_555
C39 C22 1_555 1_555
H63 C39 1_555 1_555
O13 C38 1_555 1_555
H64 O13 1_555 1_555
C40 C35 1_555 1_555
H65 C40 1_555 1_555
H66 C40 1_555 1_555
O14 C40 1_555 1_555
H67 O14 1_555 1_555
C41 C35 1_555 1_555
H68 C41 1_555 1_555
C42 C41 1_555 1_555
H69 C42 1_555 1_555
H70 C42 1_555 1_555
H71 C42 1_555 1_555
C43 C41 1_555 1_555
H72 C43 1_555 1_555
H73 C43 1_555 1_555
H74 C43 1_555 1_555
O15 C58 1_555 1_555
O16 H75 1_555 1_555
O17 C66 1_555 1_555
O18 H76 1_555 1_555
C44 H77 1_555 1_555
H78 C44 1_555 1_555
C45 H79 1_555 1_555
C46 C47 1_555 1_555
C47 H80 1_555 1_555
C48 C44 1_555 1_555
H81 C48 1_555 1_555
H82 C48 1_555 1_555
C49 C45 1_555 1_555
H83 C49 1_555 1_555
C50 C44 1_555 1_555
H84 C50 1_555 1_555
C51 C47 1_555 1_555
C52 C45 1_555 1_555
C53 O16 1_555 1_555
H85 C53 1_555 1_555
C54 C46 1_555 1_555
H86 C54 1_555 1_555
H87 C54 1_555 1_555
H88 C54 1_555 1_555
C55 C45 1_555 1_555
H89 C55 1_555 1_555
H90 C55 1_555 1_555
C56 C51 1_555 1_555
H91 C56 1_555 1_555
H92 C56 1_555 1_555
H93 C56 1_555 1_555
C57 C52 1_555 1_555
H94 C57 1_555 1_555
H95 C57 1_555 1_555
H96 C57 1_555 1_555
C58 C49 1_555 1_555
C59 H97 1_555 1_555
H98 C59 1_555 1_555
H99 C59 1_555 1_555
C60 C52 1_555 1_555
H100 C60 1_555 1_555
H101 C60 1_555 1_555
C61 C47 1_555 1_555
H102 C61 1_555 1_555
H103 C61 1_555 1_555
C62 C50 1_555 1_555
C63 H104 1_555 1_555
H105 C63 1_555 1_555
C64 C58 1_555 1_555
H106 C64 1_555 1_555
H107 C64 1_555 1_555
C65 O15 1_555 1_555
C66 C62 1_555 1_555
H108 C66 1_555 1_555
C67 H109 1_555 1_555
H110 C67 1_555 1_555
H111 C67 1_555 1_555
C68 C62 1_555 1_555
H112 C68 1_555 1_555
H113 C68 1_555 1_555
H114 C68 1_555 1_555
C69 C51 1_555 1_555
H115 C69 1_555 1_555
H116 C69 1_555 1_555
C70 C64 1_555 1_555
H117 C70 1_555 1_555
H118 C70 1_555 1_555
C71 H119 1_555 1_555
H120 C71 1_555 1_555
H121 C71 1_555 1_555
C72 O18 1_555 1_555
H122 C72 1_555 1_555
H123 C72 1_555 1_555
C73 C65 1_555 1_555
H124 C73 1_555 1_555
C74 C58 1_555 1_555
H125 C74 1_555 1_555
H126 C74 1_555 1_555
H127 C74 1_555 1_555
O19 C76 1_555 1_555
O20 C75 1_555 1_555
O21 C75 1_555 1_555
O22 H128 1_555 1_555
C75 H129 1_555 1_555
C76 O17 1_555 1_555
H130 C76 1_555 1_555
C77 O20 1_555 1_555
H131 C77 1_555 1_555
C78 O19 1_555 1_555
H132 C78 1_555 1_555
O23 H133 1_555 1_555
C79 O22 1_555 1_555
H134 C79 1_555 1_555
C80 C78 1_555 1_555
H135 C80 1_555 1_555
H136 C80 1_555 1_555
C81 O23 1_555 1_555
H137 C81 1_555 1_555
O24 H138 1_555 1_555
C82 C81 1_555 1_555
H139 C82 1_555 1_555
O25 H140 1_555 1_555
O26 H141 1_555 1_555
O27 C80 1_555 1_555
H142 O27 1_555 1_555
C83 C78 1_555 1_555
H143 C83 1_555 1_555
C84 C77 1_555 1_555
H144 C84 1_555 1_555
C85 O21 1_555 1_555
H145 C85 1_555 1_555
C86 C85 1_555 1_555
H146 C86 1_555 1_555
H147 C86 1_555 1_555
O28 C86 1_555 1_555
H148 O28 1_555 1_555
O29 C99 1_555 1_555
O30 C106 1_555 1_555
O31 H149 1_555 1_555
O32 H150 1_555 1_555
C87 H151 1_555 1_555
H152 C87 1_555 1_555
C88 H153 1_555 1_555
C89 C91 1_555 1_555
C90 C88 1_555 1_555
H154 C90 1_555 1_555
H155 C90 1_555 1_555
C91 C87 1_555 1_555
H156 C91 1_555 1_555
H157 C91 1_555 1_555
C92 C89 1_555 1_555
H158 C92 1_555 1_555
C93 H159 1_555 1_555
H160 C93 1_555 1_555
H161 C93 1_555 1_555
C94 C92 1_555 1_555
C95 C87 1_555 1_555
H162 C95 1_555 1_555
C96 O32 1_555 1_555
H163 C96 1_555 1_555
C97 C88 1_555 1_555
C98 C88 1_555 1_555
H164 C98 1_555 1_555
C99 C98 1_555 1_555
C100 H165 1_555 1_555
H166 C100 1_555 1_555
H167 C100 1_555 1_555
C101 C90 1_555 1_555
H168 C101 1_555 1_555
H169 C101 1_555 1_555
C102 C96 1_555 1_555
H170 C102 1_555 1_555
H171 C102 1_555 1_555
C103 C89 1_555 1_555
H172 C103 1_555 1_555
H173 C103 1_555 1_555
H174 C103 1_555 1_555
C104 C95 1_555 1_555
C105 C104 1_555 1_555
H175 C105 1_555 1_555
H176 C105 1_555 1_555
H177 C105 1_555 1_555
C106 C104 1_555 1_555
H178 C106 1_555 1_555
C107 C99 1_555 1_555
H179 C107 1_555 1_555
H180 C107 1_555 1_555
C108 C94 1_555 1_555
H181 C108 1_555 1_555
H182 C108 1_555 1_555
H183 C108 1_555 1_555
C109 C94 1_555 1_555
H184 C109 1_555 1_555
H185 C109 1_555 1_555
C110 C106 1_555 1_555
H186 C110 1_555 1_555
H187 C110 1_555 1_555
C111 O29 1_555 1_555
C112 C107 1_555 1_555
H188 C112 1_555 1_555
H189 C112 1_555 1_555
C113 C99 1_555 1_555
H190 C113 1_555 1_555
H191 C113 1_555 1_555
H192 C113 1_555 1_555
C114 C111 1_555 1_555
H193 C114 1_555 1_555
C115 O31 1_555 1_555
H194 C115 1_555 1_555
H195 C115 1_555 1_555
C116 C114 1_555 1_555
H196 C116 1_555 1_555
H197 C116 1_555 1_555
H198 C116 1_555 1_555
C117 C114 1_555 1_555
H199 C117 1_555 1_555
H200 C117 1_555 1_555
H201 C117 1_555 1_555
O33 C118 1_555 1_555
O34 C120 1_555 1_555
O35 H202 1_555 1_555
O36 H203 1_555 1_555
C118 H204 1_555 1_555
O37 C122 1_555 1_555
C119 O30 1_555 1_555
H205 C119 1_555 1_555
C120 C119 1_555 1_555
H206 C120 1_555 1_555
C121 O35 1_555 1_555
H207 C121 1_555 1_555
C122 O34 1_555 1_555
H208 C122 1_555 1_555
O38 H209 1_555 1_555
O39 H210 1_555 1_555
O40 H211 1_555 1_555
C123 O36 1_555 1_555
H212 C123 1_555 1_555
C124 C118 1_555 1_555
H213 C124 1_555 1_555
H214 C124 1_555 1_555
C125 C122 1_555 1_555
H215 C125 1_555 1_555
O41 H216 1_555 1_555
C126 C125 1_555 1_555
H217 C126 1_555 1_555
C127 O37 1_555 1_555
H218 C127 1_555 1_555
C128 O39 1_555 1_555
H219 C128 1_555 1_555
C129 C127 1_555 1_555
H220 C129 1_555 1_555
H221 C129 1_555 1_555
O42 C129 1_555 1_555
H222 O42 1_555 1_555
O43 C139 1_555 1_555
O44 C147 1_555 1_555
C130 C131 1_555 1_555
C131 H223 1_555 1_555
H224 C131 1_555 1_555
C132 H225 1_555 1_555
C133 C130 1_555 1_555
O45 H226 1_555 1_555
C134 C133 1_555 1_555
H227 C134 1_555 1_555
H228 C134 1_555 1_555
C135 C131 1_555 1_555
H229 C135 1_555 1_555
H230 C135 1_555 1_555
C136 C130 1_555 1_555
H231 C136 1_555 1_555
C137 C135 1_555 1_555
H232 C137 1_555 1_555
C138 C130 1_555 1_555
H233 C138 1_555 1_555
H234 C138 1_555 1_555
H235 C138 1_555 1_555
C139 C141 1_555 1_555
C140 C132 1_555 1_555
H236 C140 1_555 1_555
H237 C140 1_555 1_555
C141 C132 1_555 1_555
H238 C141 1_555 1_555
C142 C136 1_555 1_555
H239 C142 1_555 1_555
H240 C142 1_555 1_555
C143 C136 1_555 1_555
O46 H241 1_555 1_555
C144 C133 1_555 1_555
H242 C144 1_555 1_555
H243 C144 1_555 1_555
H244 C144 1_555 1_555
C145 C137 1_555 1_555
C146 C143 1_555 1_555
H245 C146 1_555 1_555
H246 C146 1_555 1_555
C147 C145 1_555 1_555
H247 C147 1_555 1_555
C148 C146 1_555 1_555
H248 C148 1_555 1_555
H249 C148 1_555 1_555
C149 C143 1_555 1_555
H250 C149 1_555 1_555
H251 C149 1_555 1_555
H252 C149 1_555 1_555
C150 O43 1_555 1_555
C151 C134 1_555 1_555
H253 C151 1_555 1_555
C152 C145 1_555 1_555
H254 C152 1_555 1_555
H255 C152 1_555 1_555
H256 C152 1_555 1_555
C153 C145 1_555 1_555
H257 C153 1_555 1_555
H258 C153 1_555 1_555
H259 C153 1_555 1_555
C154 C139 1_555 1_555
H260 C154 1_555 1_555
H261 C154 1_555 1_555
C155 O44 1_555 1_555
H262 C155 1_555 1_555
C156 C139 1_555 1_555
H263 C156 1_555 1_555
H264 C156 1_555 1_555
H265 C156 1_555 1_555
C157 C150 1_555 1_555
H266 C157 1_555 1_555
C158 C150 1_555 1_555
H267 C158 1_555 1_555
H268 C158 1_555 1_555
C159 C157 1_555 1_555
H269 C159 1_555 1_555
H270 C159 1_555 1_555
H271 C159 1_555 1_555
C160 C157 1_555 1_555
H272 C160 1_555 1_555
H273 C160 1_555 1_555
H274 C160 1_555 1_555
C161 O45 1_555 1_555
H275 C161 1_555 1_555
H276 C161 1_555 1_555
O47 C155 1_555 1_555
O48 C163 1_555 1_555
C162 O47 1_555 1_555
H277 C162 1_555 1_555
C163 C155 1_555 1_555
H278 C163 1_555 1_555
C164 C162 1_555 1_555
H279 C164 1_555 1_555
C165 C163 1_555 1_555
H280 C165 1_555 1_555
C166 O48 1_555 1_555
H281 C166 1_555 1_555
O49 H282 1_555 1_555
O50 C164 1_555 1_555
H283 O50 1_555 1_555
O51 C166 1_555 1_555
O52 C165 1_555 1_555
H284 O52 1_555 1_555
C167 C162 1_555 1_555
H285 C167 1_555 1_555
H286 C167 1_555 1_555
O53 H287 1_555 1_555
O54 H288 1_555 1_555
C168 H289 1_555 1_555
C169 O53 1_555 1_555
H290 C169 1_555 1_555
O55 C168 1_555 1_555
H291 O55 1_555 1_555
C170 O51 1_555 1_555
H292 C170 1_555 1_555
C171 C166 1_555 1_555
H293 C171 1_555 1_555
C172 C170 1_555 1_555
H294 C172 1_555 1_555
H295 C172 1_555 1_555
O56 C172 1_555 1_555
H296 O56 1_555 1_555
O57 C185 1_555 1_555
O58 C185 1_555 1_555
O59 C183 1_555 1_555
O60 C183 1_555 1_555
O61 H297 1_555 1_555
O62 H298 1_555 1_555
O63 H299 1_555 1_555
O64 H300 1_555 1_555
O65 H301 1_555 1_555
C173 C175 1_555 1_555
C174 C176 1_555 1_555
C175 C178 1_555 1_555
C176 H302 1_555 1_555
C177 C174 1_555 1_555
H303 C177 1_555 1_555
H304 C177 1_555 1_555
H305 C177 1_555 1_555
C178 H306 1_555 1_555
C179 C176 1_555 1_555
C180 C176 1_555 1_555
H307 C180 1_555 1_555
H308 C180 1_555 1_555
C181 C173 1_555 1_555
H309 C181 1_555 1_555
H310 C181 1_555 1_555
C182 C173 1_555 1_555
H311 C182 1_555 1_555
C183 H312 1_555 1_555
C184 O59 1_555 1_555
H313 C184 1_555 1_555
C185 C184 1_555 1_555
H314 C185 1_555 1_555
C186 O58 1_555 1_555
H315 C186 1_555 1_555
C187 H316 1_555 1_555
H317 C187 1_555 1_555
C188 O57 1_555 1_555
H318 C188 1_555 1_555
C189 O62 1_555 1_555
H319 C189 1_555 1_555
H320 C189 1_555 1_555
C190 C175 1_555 1_555
H321 C190 1_555 1_555
H322 C190 1_555 1_555
C191 O64 1_555 1_555
H323 C191 1_555 1_555
C192 C179 1_555 1_555
H324 C192 1_555 1_555
H325 C192 1_555 1_555
H326 C192 1_555 1_555
C193 C182 1_555 1_555
H327 C193 1_555 1_555
H328 C193 1_555 1_555
C194 O65 1_555 1_555
H329 C194 1_555 1_555
C195 C178 1_555 1_555
H330 C195 1_555 1_555
H331 C195 1_555 1_555
C196 C175 1_555 1_555
H332 C196 1_555 1_555
H333 C196 1_555 1_555
H334 C196 1_555 1_555
C197 C174 1_555 1_555
H335 C197 1_555 1_555
H336 C197 1_555 1_555
C198 C179 1_555 1_555
H337 C198 1_555 1_555
H338 C198 1_555 1_555
H339 C198 1_555 1_555
C199 C173 1_555 1_555
H340 C199 1_555 1_555
H341 C199 1_555 1_555
H342 C199 1_555 1_555
C200 O61 1_555 1_555
H343 C200 1_555 1_555
C201 O60 1_555 1_555
H344 C201 1_555 1_555
O66 H345 1_555 1_555
C202 O63 1_555 1_555
H346 C202 1_555 1_555
C203 C183 1_555 1_555
H347 C203 1_555 1_555
O67 H348 1_555 1_555
C204 C201 1_555 1_555
H349 C204 1_555 1_555
H350 C204 1_555 1_555
O68 C205 1_555 1_555
C205 C206 1_555 1_555
C206 C178 1_555 1_555
H351 C206 1_555 1_555
C207 C205 1_555 1_555
H352 C207 1_555 1_555
H353 C207 1_555 1_555
H354 C207 1_555 1_555
C208 C190 1_555 1_555
H355 C208 1_555 1_555
C209 C205 1_555 1_555
H356 C209 1_555 1_555
H357 C209 1_555 1_555
O69 C208 1_555 1_555
H358 O69 1_555 1_555
C210 O68 1_555 1_555
C211 C210 1_555 1_555
H359 C211 1_555 1_555
H360 C211 1_555 1_555
C212 C210 1_555 1_555
H361 C212 1_555 1_555
C213 C209 1_555 1_555
H362 C213 1_555 1_555
H363 C213 1_555 1_555
C214 C212 1_555 1_555
H364 C214 1_555 1_555
H365 C214 1_555 1_555
H366 C214 1_555 1_555
C215 C212 1_555 1_555
H367 C215 1_555 1_555
H368 C215 1_555 1_555
H369 C215 1_555 1_555
O70 C211 1_555 1_555
H370 O70 1_555 1_555
O71 C228 1_555 1_555
O72 C236 1_555 1_555
O73 C234 1_555 1_555
O74 H371 1_555 1_555
C216 H372 1_555 1_555
C217 C219 1_555 1_555
C218 C216 1_555 1_555
H373 C218 1_555 1_555
O75 H374 1_555 1_555
C219 H375 1_555 1_555
C220 C216 1_555 1_555
C221 C219 1_555 1_555
C222 C221 1_555 1_555
H376 C222 1_555 1_555
C223 C216 1_555 1_555
H377 C223 1_555 1_555
H378 C223 1_555 1_555
C224 C217 1_555 1_555
H379 C224 1_555 1_555
H380 C224 1_555 1_555
C225 C222 1_555 1_555
C226 C217 1_555 1_555
H381 C226 1_555 1_555
H382 C226 1_555 1_555
H383 C226 1_555 1_555
O76 H384 1_555 1_555
O77 H385 1_555 1_555
C227 C222 1_555 1_555
H386 C227 1_555 1_555
H387 C227 1_555 1_555
C228 C225 1_555 1_555
H388 C228 1_555 1_555
C229 C221 1_555 1_555
H389 C229 1_555 1_555
H390 C229 1_555 1_555
C230 C219 1_555 1_555
H391 C230 1_555 1_555
H392 C230 1_555 1_555
C231 C220 1_555 1_555
H393 C231 1_555 1_555
H394 C231 1_555 1_555
H395 C231 1_555 1_555
C232 C220 1_555 1_555
H396 C232 1_555 1_555
H397 C232 1_555 1_555
C233 C225 1_555 1_555
H398 C233 1_555 1_555
H399 C233 1_555 1_555
H400 C233 1_555 1_555
C234 H401 1_555 1_555
C235 C218 1_555 1_555
H402 C235 1_555 1_555
C236 H403 1_555 1_555
C237 O72 1_555 1_555
H404 C237 1_555 1_555
C238 C228 1_555 1_555
H405 C238 1_555 1_555
H406 C238 1_555 1_555
C239 O75 1_555 1_555
H407 C239 1_555 1_555
H408 C239 1_555 1_555
C240 C225 1_555 1_555
H409 C240 1_555 1_555
H410 C240 1_555 1_555
H411 C240 1_555 1_555
C241 O71 1_555 1_555
H412 C241 1_555 1_555
C242 O74 1_555 1_555
H413 C242 1_555 1_555
C243 C221 1_555 1_555
H414 C243 1_555 1_555
H415 C243 1_555 1_555
H416 C243 1_555 1_555
C244 O77 1_555 1_555
H417 C244 1_555 1_555
C245 O76 1_555 1_555
H418 C245 1_555 1_555
O78 C246 1_555 1_555
C246 C218 1_555 1_555
C247 H419 1_555 1_555
C248 O78 1_555 1_555
O79 C235 1_555 1_555
H420 O79 1_555 1_555
C249 C248 1_555 1_555
H421 C249 1_555 1_555
H422 C249 1_555 1_555
C250 C246 1_555 1_555
H423 C250 1_555 1_555
H424 C250 1_555 1_555
H425 C250 1_555 1_555
C251 C246 1_555 1_555
H426 C251 1_555 1_555
H427 C251 1_555 1_555
C252 C247 1_555 1_555
H428 C252 1_555 1_555
H429 C252 1_555 1_555
H430 C252 1_555 1_555
C253 C247 1_555 1_555
H431 C253 1_555 1_555
H432 C253 1_555 1_555
H433 C253 1_555 1_555
C254 C248 1_555 1_555
H434 C254 1_555 1_555
H435 C254 1_555 1_555
O80 C254 1_555 1_555
H436 O80 1_555 1_555
O81 C241 1_555 1_555
O82 H437 1_555 1_555
O83 H438 1_555 1_555
C255 O83 1_555 1_555
H439 C255 1_555 1_555
C256 C234 1_555 1_555
H440 C256 1_555 1_555
C257 O81 1_555 1_555
H441 C257 1_555 1_555
C258 C257 1_555 1_555
H442 C258 1_555 1_555
H443 C258 1_555 1_555
O84 C258 1_555 1_555
H444 O84 1_555 1_555
C7 C8 1_555 1_555
C7 C11 1_555 1_555
C11 C15 1_555 1_555
O9 C20 1_555 1_555
C13 C16 1_555 1_555
C13 C24 1_555 1_555
C19 C31 1_555 1_555
C20 C21 1_555 1_555
C26 C27 1_555 1_555
C30 C31 1_555 1_555
C30 C33 1_555 1_555
C34 C35 1_555 1_555
C34 C36 1_555 1_555
O10 C37 1_555 1_555
C38 C39 1_555 1_555
O11 C39 1_555 1_555
C46 C48 1_555 1_555
C46 C52 1_555 1_555
C49 C53 1_555 1_555
C50 C51 1_555 1_555
C53 C60 1_555 1_555
C55 C61 1_555 1_555
C59 C62 1_555 1_555
C63 C66 1_555 1_555
C63 C69 1_555 1_555
C65 C70 1_555 1_555
C65 C72 1_555 1_555
C67 C73 1_555 1_555
C71 C73 1_555 1_555
C75 C79 1_555 1_555
C76 C77 1_555 1_555
C79 C81 1_555 1_555
O24 C82 1_555 1_555
C82 C85 1_555 1_555
O25 C84 1_555 1_555
O26 C83 1_555 1_555
C83 C84 1_555 1_555
C89 C97 1_555 1_555
C92 C101 1_555 1_555
C93 C97 1_555 1_555
C94 C95 1_555 1_555
C96 C98 1_555 1_555
C97 C102 1_555 1_555
C100 C104 1_555 1_555
C109 C110 1_555 1_555
C111 C112 1_555 1_555
C111 C115 1_555 1_555
O33 C119 1_555 1_555
C118 C121 1_555 1_555
C120 C123 1_555 1_555
C121 C123 1_555 1_555
O38 C124 1_555 1_555
O40 C125 1_555 1_555
O41 C126 1_555 1_555
C126 C128 1_555 1_555
C127 C128 1_555 1_555
C132 C133 1_555 1_555
C137 C143 1_555 1_555
C140 C142 1_555 1_555
C141 C151 1_555 1_555
O46 C151 1_555 1_555
C147 C148 1_555 1_555
C150 C161 1_555 1_555
C154 C158 1_555 1_555
C164 C165 1_555 1_555
O49 C167 1_555 1_555
O54 C171 1_555 1_555
C168 C169 1_555 1_555
C168 C170 1_555 1_555
C169 C171 1_555 1_555
C174 C182 1_555 1_555
C179 C188 1_555 1_555
C180 C181 1_555 1_555
C184 C200 1_555 1_555
C186 C189 1_555 1_555
C186 C194 1_555 1_555
C187 C188 1_555 1_555
C187 C197 1_555 1_555
C191 C202 1_555 1_555
C191 C203 1_555 1_555
C193 C195 1_555 1_555
C194 C200 1_555 1_555
C201 C202 1_555 1_555
O66 C203 1_555 1_555
O67 C204 1_555 1_555
C206 C208 1_555 1_555
C210 C213 1_555 1_555
O73 C237 1_555 1_555
C217 C220 1_555 1_555
C223 C230 1_555 1_555
C224 C227 1_555 1_555
C229 C238 1_555 1_555
C232 C235 1_555 1_555
C234 C241 1_555 1_555
C236 C239 1_555 1_555
C236 C244 1_555 1_555
C237 C242 1_555 1_555
C242 C245 1_555 1_555
C244 C245 1_555 1_555
C247 C248 1_555 1_555
C249 C251 1_555 1_555
O82 C256 1_555 1_555
C255 C256 1_555 1_555
C255 C257 1_555 1_555

#END
