
#######################################################################
#
#                 Cambridge Crystallographic Data Centre
#                                CCDC 
#
#######################################################################
#
# If this CIF has been generated from an entry in the Cambridge 
# Structural Database, then it will include bibliographic, chemical, 
# crystal, experimental, refinement or atomic coordinate data resulting 
# from the CCDC's data processing and validation procedures.
#
#######################################################################

data_RAKQAV04
_chemical_formula_moiety         'C6 H8 N1 1+,C6 Cl5 O1 1-'
_chemical_name_systematic        '4-Methylpyridinium pentachlorophenolate'
_symmetry_cell_setting           triclinic
_symmetry_space_group_name_H-M   'P -1'
_symmetry_Int_Tables_number      2
_space_group_name_Hall           '-P 1'
loop_
_symmetry_equiv_pos_site_id
_symmetry_equiv_pos_as_xyz
1 x,y,z
2 -x,-y,-z
_cell_length_a                   7.389(8)
_cell_length_b                   8.922(8)
_cell_length_c                   12.014(12)
_cell_angle_alpha                69.82(3)
_cell_angle_beta                 85.61(4)
_cell_angle_gamma                76.26(4)
_cell_volume                     722.113
_exptl_crystal_colour            colorless
_exptl_crystal_description       needle
_chemical_melting_point          '75-79 deg.C'
_cell_formula_units_Z            2
loop_
_atom_site_label
_atom_site_type_symbol
_atom_site_fract_x
_atom_site_fract_y
_atom_site_fract_z
H1 H 0.930(6) 0.010(5) 0.684(4)
H2 H 0.815(5) 0.398(5) 0.344(4)
H3 H 0.684(5) 0.047(5) 0.574(4)
H4 H 1.068(7) 0.389(6) 0.436(5)
H5 H 0.643(13) 0.179(11) 0.411(8)
N1 N 0.7232(5) 0.2236(4) 0.4472(3)
C1 C 0.9108(6) 0.0877(5) 0.6198(4)
C2 C 1.0322(5) 0.1896(5) 0.5784(4)
C3 C 0.9945(6) 0.3087(6) 0.4680(4)
C4 C 0.8402(6) 0.3221(6) 0.4066(4)
C5 C 0.7595(6) 0.1061(5) 0.5523(4)
C6 C 1.1992(7) 0.1723(8) 0.6500(6)
H6 H 1.2671 0.2537 0.6067
H7 H 1.2784 0.0651 0.6647
H8 H 1.1588 0.1870 0.7241
Cl1 Cl 0.42078(16) 0.07870(12) 0.14420(10)
Cl2 Cl 0.25422(14) 0.33695(14) -0.09403(9)
Cl3 Cl 0.37352(15) 0.55455(14) 0.32908(9)
Cl4 Cl 0.19713(17) 0.81558(13) 0.09201(12)
Cl5 Cl 0.14316(15) 0.70894(14) -0.12139(10)
C7 C 0.3905(5) 0.3280(5) 0.2269(3)
C8 C 0.2856(5) 0.3987(5) 0.0228(3)
C9 C 0.3381(5) 0.4953(5) 0.2113(3)
O1 O 0.4596(4) 0.2132(3) 0.3269(2)
C10 C 0.2345(5) 0.5642(5) 0.0099(3)
C11 C 0.2613(5) 0.6128(5) 0.1062(3)
C12 C 0.3611(5) 0.2826(4) 0.1290(3)
loop_
_geom_bond_atom_site_label_1
_geom_bond_atom_site_label_2
_geom_bond_site_symmetry_1
_geom_bond_site_symmetry_2
H1 C1 1_555 1_555
H2 C4 1_555 1_555
H3 C5 1_555 1_555
H4 C3 1_555 1_555
H5 N1 1_555 1_555
N1 C4 1_555 1_555
C1 C2 1_555 1_555
C2 C3 1_555 1_555
C3 C4 1_555 1_555
C5 N1 1_555 1_555
C6 C2 1_555 1_555
H6 C6 1_555 1_555
H7 C6 1_555 1_555
H8 C6 1_555 1_555
Cl1 C12 1_555 1_555
Cl2 C8 1_555 1_555
Cl3 C9 1_555 1_555
Cl4 C11 1_555 1_555
Cl5 C10 1_555 1_555
C7 C9 1_555 1_555
C8 C10 1_555 1_555
C9 C11 1_555 1_555
O1 C7 1_555 1_555
C10 C11 1_555 1_555
C12 C7 1_555 1_555
C1 C5 1_555 1_555
C8 C12 1_555 1_555

#END
