
#######################################################################
#
#                 Cambridge Crystallographic Data Centre
#                                CCDC 
#
#######################################################################
#
# If this CIF has been generated from an entry in the Cambridge 
# Structural Database, then it will include bibliographic, chemical, 
# crystal, experimental, refinement or atomic coordinate data resulting 
# from the CCDC's data processing and validation procedures.
#
#######################################################################

data_RAKTII
_chemical_compound_source        
'scale insect pathogenic fungus Hypocrella sp. BCC 14524'
_chemical_name_common            'Hypocrellol A methanol solvate'
_chemical_formula_moiety         'C30 H48 O3,C1 H4 O1'
_chemical_name_systematic        
'21,24-Epoxylanosta-7,9(11)-diene-3,25-diol methanol solvate'
_symmetry_cell_setting           triclinic
_symmetry_space_group_name_H-M   'P 1'
_symmetry_Int_Tables_number      1
_space_group_name_Hall           'P 1'
loop_
_symmetry_equiv_pos_site_id
_symmetry_equiv_pos_as_xyz
1 x,y,z
_cell_length_a                   6.1987(3)
_cell_length_b                   6.9755(4)
_cell_length_c                   17.8242(12)
_cell_angle_alpha                93.032(3)
_cell_angle_beta                 94.147(4)
_cell_angle_gamma                111.351(4)
_cell_volume                     713.318
_exptl_crystal_colour            colorless
_exptl_crystal_description       prism
_cell_formula_units_Z            1
loop_
_atom_site_label
_atom_site_type_symbol
_atom_site_fract_x
_atom_site_fract_y
_atom_site_fract_z
O1 O -1.2464(3) -1.1400(3) -0.59233(9)
H1 H -1.3383 -1.0627 -0.6068
O2 O -0.5471(3) -0.5138(3) 0.09394(10)
C1 C -0.7480(4) -0.8671(3) 0.03700(13)
H2 H -0.8963 -0.8647 0.0480
C2 C -0.8502(4) -0.8450(3) -0.23752(12)
H3 H -0.7784 -0.7300 -0.2663
C3 C -1.1594(3) -1.0054(3) -0.34680(12)
C4 C -0.9042(3) -0.9753(3) -0.10897(12)
C5 C -1.1340(3) -1.1909(3) -0.22668(11)
C6 C -1.2643(3) -1.2315(3) -0.38398(12)
H4 H -1.1313 -1.2707 -0.3854
C7 C -0.9965(3) -1.1930(3) -0.15327(12)
C8 C -1.1058(4) -0.9050(4) -0.09426(13)
H5 H -1.0453 -0.7690 -0.0685
H6 H -1.2089 -0.9992 -0.0636
H7 H -1.1895 -0.9027 -0.1415
C9 C -1.0322(3) -1.0066(3) -0.26950(11)
C10 C -1.4354(4) -1.3698(3) -0.33330(13)
H8 H -1.5675 -1.3294 -0.3314
H9 H -1.4861 -1.5112 -0.3535
O3 O -0.3225(3) -0.4770(3) 0.28906(10)
H10 H -0.2890 -0.3961 0.3367
C11 C -1.0985(4) -0.8941(4) -0.48079(13)
H11 H -0.9866 -0.8052 -0.5105
H12 H -1.2319 -0.8549 -0.4811
C12 C -1.5962(4) -1.2440(5) -0.48423(16)
H13 H -1.6521 -1.2842 -0.5365
H14 H -1.5791 -1.1030 -0.4726
H15 H -1.7055 -1.3313 -0.4534
C13 C -1.1735(4) -1.1168(3) -0.51325(12)
H16 H -1.0383 -1.1521 -0.5050
C14 C -1.3226(4) -1.3517(3) -0.25510(13)
H17 H -1.3938 -1.4631 -0.2247
C15 C -1.3424(4) -0.9111(4) -0.33069(14)
H18 H -1.2673 -0.7780 -0.3033
H19 H -1.4550 -1.0003 -0.3012
H20 H -1.4191 -0.8963 -0.3775
C16 C -0.7406(4) -0.8231(3) -0.15777(12)
H21 H -0.5995 -0.8501 -0.1579
H22 H -0.7062 -0.6854 -0.1357
C17 C -0.9713(4) -1.2388(4) -0.01961(14)
H23 H -1.0675 -1.2293 0.0192
H24 H -0.8885 -1.3258 -0.0053
C18 C -1.1255(4) -1.3322(3) -0.09450(13)
H25 H -1.2783 -1.3281 -0.0934
H26 H -1.1381 -1.4714 -0.1077
C19 C -1.3888(6) -1.4868(4) -0.49810(16)
H27 H -1.4288 -1.5050 -0.5517
H28 H -1.5105 -1.5849 -0.4741
H29 H -1.2457 -1.5080 -0.4868
C20 C -0.7975(4) -1.0201(3) -0.03353(12)
H30 H -0.6464 -1.0232 -0.0400
C21 C -1.3588(4) -1.2658(3) -0.46854(13)
C22 C -0.4468(4) -0.5759(4) 0.15881(14)
H31 H -0.2970 -0.5788 0.1500
C23 C -0.9911(4) -0.8685(3) -0.39902(12)
H32 H -0.9450 -0.7256 -0.3813
H33 H -0.8560 -0.9049 -0.3994
C24 C -0.7989(4) -1.2634(4) -0.17468(14)
H34 H -0.8643 -1.3986 -0.2010
H35 H -0.7060 -1.2673 -0.1297
H36 H -0.7032 -1.1681 -0.2067
C25 C -0.4166(5) -0.4092(4) 0.22331(14)
C26 C -0.2406(6) -0.2035(4) 0.20556(18)
H37 H -0.2962 -0.1617 0.1600
H38 H -0.0946 -0.2176 0.1990
H39 H -0.2197 -0.1011 0.2464
C27 C -0.6444(6) -0.3890(5) 0.23870(18)
H40 H -0.7178 -0.3643 0.1929
H41 H -0.6153 -0.2756 0.2759
H42 H -0.7448 -0.5143 0.2570
C28 C -0.5946(6) -0.7941(4) 0.17365(15)
H43 H -0.5156 -0.8386 0.2134
H44 H -0.7406 -0.7955 0.1888
C29 C -0.5832(5) -0.6490(4) 0.02728(14)
H45 H -0.6489 -0.5974 -0.0138
H46 H -0.4367 -0.6540 0.0154
C30 C -0.6419(6) -0.9430(4) 0.10347(14)
H47 H -0.7483 -1.0765 0.1135
H48 H -0.4978 -0.9532 0.0914
O4 O -0.4520(4) -0.8651(3) -0.64065(11)
H49 H -0.4006 -0.7553 -0.6600
C31 C -0.6912(6) -0.9187(5) -0.63643(19)
H50 H -0.7292 -0.9617 -0.5872
H51 H -0.7757 -1.0299 -0.6739
H52 H -0.7327 -0.8014 -0.6452
loop_
_geom_bond_atom_site_label_1
_geom_bond_atom_site_label_2
_geom_bond_site_symmetry_1
_geom_bond_site_symmetry_2
O1 H1 1_555 1_555
O2 C22 1_555 1_555
C1 H2 1_555 1_555
C2 H3 1_555 1_555
C3 C6 1_555 1_555
C4 C7 1_555 1_555
C5 C7 1_555 1_555
C6 H4 1_555 1_555
C7 C18 1_555 1_555
C8 C4 1_555 1_555
H5 C8 1_555 1_555
H6 C8 1_555 1_555
H7 C8 1_555 1_555
C9 C2 1_555 1_555
C10 C6 1_555 1_555
H8 C10 1_555 1_555
H9 C10 1_555 1_555
O3 H10 1_555 1_555
C11 H11 1_555 1_555
H12 C11 1_555 1_555
C12 H13 1_555 1_555
H14 C12 1_555 1_555
H15 C12 1_555 1_555
C13 O1 1_555 1_555
H16 C13 1_555 1_555
C14 C5 1_555 1_555
H17 C14 1_555 1_555
C15 C3 1_555 1_555
H18 C15 1_555 1_555
H19 C15 1_555 1_555
H20 C15 1_555 1_555
C16 C2 1_555 1_555
H21 C16 1_555 1_555
H22 C16 1_555 1_555
C17 H23 1_555 1_555
H24 C17 1_555 1_555
C18 C17 1_555 1_555
H25 C18 1_555 1_555
H26 C18 1_555 1_555
C19 H27 1_555 1_555
H28 C19 1_555 1_555
H29 C19 1_555 1_555
C20 C1 1_555 1_555
H30 C20 1_555 1_555
C21 C6 1_555 1_555
C22 H31 1_555 1_555
C23 C3 1_555 1_555
H32 C23 1_555 1_555
H33 C23 1_555 1_555
C24 C7 1_555 1_555
H34 C24 1_555 1_555
H35 C24 1_555 1_555
H36 C24 1_555 1_555
C25 O3 1_555 1_555
C26 C25 1_555 1_555
H37 C26 1_555 1_555
H38 C26 1_555 1_555
H39 C26 1_555 1_555
C27 C25 1_555 1_555
H40 C27 1_555 1_555
H41 C27 1_555 1_555
H42 C27 1_555 1_555
C28 C22 1_555 1_555
H43 C28 1_555 1_555
H44 C28 1_555 1_555
C29 O2 1_555 1_555
H45 C29 1_555 1_555
H46 C29 1_555 1_555
C30 C1 1_555 1_555
H47 C30 1_555 1_555
H48 C30 1_555 1_555
O4 H49 1_555 1_555
C31 O4 1_555 1_555
H50 C31 1_555 1_555
H51 C31 1_555 1_555
H52 C31 1_555 1_555
C1 C29 1_555 1_555
C3 C9 1_555 1_555
C4 C16 1_555 1_555
C4 C20 1_555 1_555
C5 C9 1_555 1_555
C10 C14 1_555 1_555
C11 C13 1_555 1_555
C11 C23 1_555 1_555
C12 C21 1_555 1_555
C13 C21 1_555 1_555
C17 C20 1_555 1_555
C19 C21 1_555 1_555
C22 C25 1_555 1_555
C28 C30 1_555 1_555

#END
