
#######################################################################
#
#                 Cambridge Crystallographic Data Centre
#                                CCDC 
#
#######################################################################
#
# If this CIF has been generated from an entry in the Cambridge 
# Structural Database, then it will include bibliographic, chemical, 
# crystal, experimental, refinement or atomic coordinate data resulting 
# from the CCDC's data processing and validation procedures.
#
#######################################################################

data_RAKYOU
_chemical_formula_moiety         'C25 H24 N6 O2 S1'
_chemical_name_systematic        
5-(3-(6-amino-5-cyano-4-isopropyl-3-methyl-2,4-dihydropyrano[2,3-c]pyrazol-4-yl)-5-cyanophenyl)-N,N-dimethylthiophene-2-carboxamide
_symmetry_cell_setting           triclinic
_symmetry_space_group_name_H-M   'P -1'
_symmetry_Int_Tables_number      2
_space_group_name_Hall           '-P 1'
loop_
_symmetry_equiv_pos_site_id
_symmetry_equiv_pos_as_xyz
1 x,y,z
2 -x,-y,-z
_cell_length_a                   9.096(3)
_cell_length_b                   10.603(3)
_cell_length_c                   12.824(4)
_cell_angle_alpha                76.544(8)
_cell_angle_beta                 86.026(8)
_cell_angle_gamma                72.249(8)
_cell_volume                     1145.59
_exptl_crystal_colour            colorless
_exptl_crystal_description       plate
_chemical_melting_point          '439-442 K'
_cell_formula_units_Z            2
_exptl_crystal_recrystallization_method tetrahydrofuran/hexane
loop_
_atom_site_label
_atom_site_type_symbol
_atom_site_fract_x
_atom_site_fract_y
_atom_site_fract_z
S1 S 0.18952(11) 0.51460(11) 0.21189(7)
N1 N 0.3947(4) 0.5691(4) -0.2641(3)
C1 C 0.0264(4) 0.6034(3) 0.1374(3)
C2 C 0.0348(4) 0.6624(3) 0.0227(3)
C3 C 0.1632(4) 0.6119(4) -0.0372(3)
H1 H 0.2497 0.5411 -0.0039
C4 C 0.1632(4) 0.6665(4) -0.1467(3)
C5 C 0.0377(4) 0.7707(4) -0.1977(3)
H2 H 0.0392 0.8041 -0.2731
C6 C -0.0887(4) 0.7700(4) -0.0284(3)
H3 H -0.1749 0.8064 0.0133
C7 C -0.0896(4) 0.8255(3) -0.1382(3)
C8 C -0.1056(4) 0.6067(4) 0.2008(2)
H4 H -0.2078 0.6573 0.1772
C9 C -0.0659(5) 0.5236(4) 0.3057(3)
H5 H -0.1408 0.5063 0.3579
C10 C 0.0860(4) 0.4722(4) 0.3241(3)
C11 C 0.2939(4) 0.6119(4) -0.2108(3)
O1 O -0.3763(8) 0.9958(6) -0.4103(4)
O2 O 0.1304(9) 0.2748(6) 0.4642(4)
N2 N -0.0820(9) 1.1340(8) -0.4413(6)
H6 H -0.0242 1.1803 -0.4803
N3 N -0.2021(9) 1.1108(7) -0.4835(5)
N4 N -0.5215(9) 0.8579(8) -0.3449(6)
H7 H -0.5956 0.8645 -0.2961
H8 H -0.5638 0.9054 -0.4076
N5 N -0.4357(11) 0.7202(10) -0.0709(8)
N6 N 0.2851(8) 0.4085(7) 0.4662(5)
C12 C -0.2199(9) 0.9444(8) -0.1994(6)
C13 C -0.1742(9) 1.0200(8) -0.3047(6)
C14 C -0.0585(9) 1.0822(8) -0.3379(6)
C15 C -0.2551(9) 1.0412(9) -0.3995(7)
C16 C -0.4086(10) 0.9058(10) -0.3230(7)
C17 C -0.3372(9) 0.8777(8) -0.2275(6)
C18 C -0.3908(9) 0.7911(8) -0.1429(6)
C19 C -0.3052(9) 1.0447(8) -0.1253(6)
H9 H -0.3434 0.9905 -0.0606
C20 C -0.4444(9) 1.1557(8) -0.1806(6)
H10 H -0.4101 1.2119 -0.2437
H11 H -0.4967 1.2126 -0.1308
H12 H -0.5160 1.1142 -0.2030
C21 C -0.2014(10) 1.1116(9) -0.0870(7)
H13 H -0.1084 1.0420 -0.0543
H14 H -0.2562 1.1620 -0.0337
H15 H -0.1722 1.1743 -0.1479
C22 C 0.0717(14) 1.0908(15) -0.2829(10)
H16 H 0.1683 1.0385 -0.3109
H17 H 0.0647 1.0537 -0.2058
H18 H 0.0698 1.1860 -0.2949
C23 C 0.1697(11) 0.3782(10) 0.4264(7)
C24 C 0.3109(9) 0.5422(8) 0.4399(6)
H19 H 0.4005 0.5395 0.3925
H20 H 0.3299 0.5662 0.5059
H21 H 0.2194 0.6102 0.4037
C25 C 0.3823(10) 0.3068(9) 0.5499(6)
H22 H 0.3543 0.3321 0.6190
H23 H 0.4907 0.3014 0.5342
H24 H 0.3674 0.2183 0.5530
O3? O -0.4080(10) 0.9763(9) -0.3957(7)
O4? O 0.0787(16) 0.2780(10) 0.4565(8)
N7? N -0.1177(14) 1.1246(11) -0.4429(8)
H25? H -0.0607 1.1697 -0.4843
N8? N -0.2401(12) 1.0962(10) -0.4778(8)
N9? N -0.5380(12) 0.8297(13) -0.3255(9)
H26? H -0.5507 0.7694 -0.2679
H27? H -0.6255 0.8960 -0.3397
N10? N -0.4470(15) 0.7006(13) -0.0549(10)
N11? N 0.2589(14) 0.3832(12) 0.4672(9)
C26? C -0.2456(13) 0.9313(12) -0.1868(8)
C27? C -0.2046(13) 1.0067(12) -0.2953(8)
C28? C -0.0951(14) 1.0728(12) -0.3332(8)
C29? C -0.2847(15) 1.0250(13) -0.3882(9)
C30? C -0.4300(14) 0.8876(13) -0.3059(9)
C31? C -0.3595(13) 0.8594(12) -0.2110(9)
C32? C -0.4086(13) 0.7717(13) -0.1225(10)
C33? C -0.3303(13) 1.0297(12) -0.1127(9)
H28? H -0.3652 0.9727 -0.0480
C34? C -0.4753(13) 1.1345(12) -0.1657(8)
H29? H -0.4475 1.1888 -0.2326
H30? H -0.5254 1.1941 -0.1173
H31? H -0.5465 1.0881 -0.1814
C35? C -0.2287(14) 1.1010(12) -0.0710(9)
H32? H -0.1375 1.0325 -0.0347
H33? H -0.2882 1.1536 -0.0205
H34? H -0.1959 1.1619 -0.1316
C36? C 0.047(2) 1.087(2) -0.2817(14)
H35? H 0.1357 1.0715 -0.3305
H36? H 0.0728 1.0200 -0.2136
H37? H 0.0234 1.1787 -0.2687
C37? C 0.1413(17) 0.3730(17) 0.4186(13)
C38? C 0.3116(16) 0.5045(17) 0.4442(11)
H38? H 0.4158 0.4828 0.4140
H39? H 0.3128 0.5347 0.5107
H40? H 0.2412 0.5770 0.3926
C39? C 0.3399(17) 0.2726(15) 0.5535(10)
H41? H 0.3158 0.3003 0.6221
H42? H 0.4514 0.2510 0.5409
H43? H 0.3069 0.1922 0.5558
loop_
_geom_bond_atom_site_label_1
_geom_bond_atom_site_label_2
_geom_bond_site_symmetry_1
_geom_bond_site_symmetry_2
S1 C1 1_555 1_555
N1 C11 1_555 1_555
C1 C2 1_555 1_555
C2 C3 1_555 1_555
C3 H1 1_555 1_555
C4 C3 1_555 1_555
C5 C4 1_555 1_555
H2 C5 1_555 1_555
C6 C2 1_555 1_555
H3 C6 1_555 1_555
C7 C5 1_555 1_555
C8 C1 1_555 1_555
H4 C8 1_555 1_555
C9 C8 1_555 1_555
H5 C9 1_555 1_555
C10 S1 1_555 1_555
C11 C4 1_555 1_555
O1 C15 1_555 1_555
O2 C23 1_555 1_555
N2 H6 1_555 1_555
N3 N2 1_555 1_555
N4 H7 1_555 1_555
H8 N4 1_555 1_555
N5 C18 1_555 1_555
N6 C23 1_555 1_555
C12 C7 1_555 1_555
C13 C12 1_555 1_555
C14 N2 1_555 1_555
C15 N3 1_555 1_555
C16 O1 1_555 1_555
C17 C12 1_555 1_555
C18 C17 1_555 1_555
C19 C12 1_555 1_555
H9 C19 1_555 1_555
C20 C19 1_555 1_555
H10 C20 1_555 1_555
H11 C20 1_555 1_555
H12 C20 1_555 1_555
C21 C19 1_555 1_555
H13 C21 1_555 1_555
H14 C21 1_555 1_555
H15 C21 1_555 1_555
C22 C14 1_555 1_555
H16 C22 1_555 1_555
H17 C22 1_555 1_555
H18 C22 1_555 1_555
C23 C10 1_555 1_555
C24 N6 1_555 1_555
H19 C24 1_555 1_555
H20 C24 1_555 1_555
H21 C24 1_555 1_555
C25 N6 1_555 1_555
H22 C25 1_555 1_555
H23 C25 1_555 1_555
H24 C25 1_555 1_555
C6 C7 1_555 1_555
C9 C10 1_555 1_555
N4 C16 1_555 1_555
C13 C14 1_555 1_555
C13 C15 1_555 1_555
C16 C17 1_555 1_555

#END
