
#######################################################################
#
#                 Cambridge Crystallographic Data Centre
#                                CCDC 
#
#######################################################################
#
# If this CIF has been generated from an entry in the Cambridge 
# Structural Database, then it will include bibliographic, chemical, 
# crystal, experimental, refinement or atomic coordinate data resulting 
# from the CCDC's data processing and validation procedures.
#
#######################################################################

data_RAKZIP
_chemical_formula_moiety         'C40 H26 O4'
_chemical_name_systematic        1,3,6,8-tetraphenoxypyrene
_symmetry_cell_setting           monoclinic
_symmetry_space_group_name_H-M   'P 21/n'
_symmetry_Int_Tables_number      14
_space_group_name_Hall           '-P 2yn'
loop_
_symmetry_equiv_pos_site_id
_symmetry_equiv_pos_as_xyz
1 x,y,z
2 1/2-x,1/2+y,1/2-z
3 -x,-y,-z
4 1/2+x,1/2-y,1/2+z
_cell_length_a                   9.7248(19)
_cell_length_b                   5.6076(11)
_cell_length_c                   25.235(5)
_cell_angle_alpha                90
_cell_angle_beta                 96.26(3)
_cell_angle_gamma                90
_cell_volume                     1367.93
_exptl_crystal_colour            yellow
_exptl_crystal_description       column
_cell_formula_units_Z            2
loop_
_atom_site_label
_atom_site_type_symbol
_atom_site_fract_x
_atom_site_fract_y
_atom_site_fract_z
O1 O 0.20961(9) 0.34882(17) 0.13603(4)
O2 O 0.37935(10) -0.33450(19) 0.05025(4)
C1 C 0.28838(14) 0.0013(3) 0.09601(5)
H1 H 0.3632 -0.0012 0.1223
C2 C 0.18632(14) 0.1704(3) 0.09753(5)
C3 C 0.06997(13) 0.1794(2) 0.05983(5)
C4 C 0.05908(12) 0.0005(2) 0.01953(5)
C5 C 0.16447(13) -0.1729(2) 0.01675(5)
C6 C 0.27953(14) -0.1647(3) 0.05536(6)
C7 C -0.03611(14) 0.3554(2) 0.06012(5)
H2 H -0.0271 0.4754 0.0857
C8 C -0.14899(14) 0.3510(3) 0.02403(5)
H3 H -0.2177 0.4653 0.0257
C9 C 0.12862(14) 0.3614(3) 0.17768(5)
C10 C 0.14916(15) 0.5611(3) 0.20962(6)
H4 H 0.2129 0.6768 0.2023
C11 C 0.07367(16) 0.5865(3) 0.25260(6)
H5 H 0.0870 0.7202 0.2744
C12 C -0.02096(17) 0.4162(3) 0.26356(6)
H6 H -0.0720 0.4351 0.2924
C13 C -0.03945(17) 0.2174(3) 0.23151(6)
H7 H -0.1029 0.1014 0.2390
C14 C 0.03531(15) 0.1882(3) 0.18834(6)
H8 H 0.0227 0.0535 0.1669
C15 C 0.50683(14) -0.3164(3) 0.08139(6)
C16 C 0.54185(15) -0.4957(3) 0.11720(7)
H9 H 0.4797 -0.6181 0.1217
C17 C 0.66981(16) -0.4931(3) 0.14649(7)
H10 H 0.6947 -0.6157 0.1705
C18 C 0.76061(15) -0.3110(3) 0.14051(6)
H11 H 0.8463 -0.3082 0.1608
C19 C 0.72468(16) -0.1327(3) 0.10442(7)
H12 H 0.7866 -0.0095 0.1002
C20 C 0.59734(16) -0.1344(3) 0.07424(6)
H13 H 0.5734 -0.0143 0.0495
O1B O -0.20961(9) -0.34882(17) -0.13603(4)
O2B O -0.37935(10) 0.33450(19) -0.05025(4)
C1B C -0.28838(14) -0.0013(3) -0.09601(5)
H1B H -0.3632 0.0012 -0.1223
C2B C -0.18632(14) -0.1704(3) -0.09753(5)
C3B C -0.06997(13) -0.1794(2) -0.05983(5)
C4B C -0.05908(12) -0.0005(2) -0.01953(5)
C5B C -0.16447(13) 0.1729(2) -0.01675(5)
C6B C -0.27953(14) 0.1647(3) -0.05536(6)
C7B C 0.03611(14) -0.3554(2) -0.06012(5)
H2B H 0.0271 -0.4754 -0.0857
C8B C 0.14899(14) -0.3510(3) -0.02403(5)
H3B H 0.2177 -0.4653 -0.0257
C9B C -0.12862(14) -0.3614(3) -0.17768(5)
C10B C -0.14916(15) -0.5611(3) -0.20962(6)
H4B H -0.2129 -0.6768 -0.2023
C11B C -0.07367(16) -0.5865(3) -0.25260(6)
H5B H -0.0870 -0.7202 -0.2744
C12B C 0.02096(17) -0.4162(3) -0.26356(6)
H6B H 0.0720 -0.4351 -0.2924
C13B C 0.03945(17) -0.2174(3) -0.23151(6)
H7B H 0.1029 -0.1014 -0.2390
C14B C -0.03531(15) -0.1882(3) -0.18834(6)
H8B H -0.0227 -0.0535 -0.1669
C15B C -0.50683(14) 0.3164(3) -0.08139(6)
C16B C -0.54185(15) 0.4957(3) -0.11720(7)
H9B H -0.4797 0.6181 -0.1217
C17B C -0.66981(16) 0.4931(3) -0.14649(7)
H10B H -0.6947 0.6157 -0.1705
C18B C -0.76061(15) 0.3110(3) -0.14051(6)
H11B H -0.8463 0.3082 -0.1608
C19B C -0.72468(16) 0.1327(3) -0.10442(7)
H12B H -0.7866 0.0095 -0.1002
C20B C -0.59734(16) 0.1344(3) -0.07424(6)
H13B H -0.5734 0.0143 -0.0495
loop_
_geom_bond_atom_site_label_1
_geom_bond_atom_site_label_2
_geom_bond_site_symmetry_1
_geom_bond_site_symmetry_2
O1 C2 1_555 1_555
O2 C6 1_555 1_555
C1 H1 1_555 1_555
C2 C1 1_555 1_555
C3 C2 1_555 1_555
C4 C3 1_555 1_555
C5 C4 1_555 1_555
C6 C1 1_555 1_555
C7 C3 1_555 1_555
H2 C7 1_555 1_555
C8 C7 1_555 1_555
H3 C8 1_555 1_555
C9 O1 1_555 1_555
C10 C9 1_555 1_555
H4 C10 1_555 1_555
C11 C10 1_555 1_555
H5 C11 1_555 1_555
C12 C11 1_555 1_555
H6 C12 1_555 1_555
C13 C12 1_555 1_555
H7 C13 1_555 1_555
C14 C9 1_555 1_555
H8 C14 1_555 1_555
C15 O2 1_555 1_555
C16 C15 1_555 1_555
H9 C16 1_555 1_555
C17 C16 1_555 1_555
H10 C17 1_555 1_555
C18 C17 1_555 1_555
H11 C18 1_555 1_555
C19 C18 1_555 1_555
H12 C19 1_555 1_555
C20 C15 1_555 1_555
H13 C20 1_555 1_555
O1B C2B 1_555 1_555
O2B C6B 1_555 1_555
C1B H1B 1_555 1_555
C2B C1B 1_555 1_555
C3B C2B 1_555 1_555
C4B C4 1_555 1_555
C5B C8 1_555 1_555
C6B C1B 1_555 1_555
C7B C3B 1_555 1_555
H2B C7B 1_555 1_555
C8B C5 1_555 1_555
H3B C8B 1_555 1_555
C9B O1B 1_555 1_555
C10B C9B 1_555 1_555
H4B C10B 1_555 1_555
C11B C10B 1_555 1_555
H5B C11B 1_555 1_555
C12B C11B 1_555 1_555
H6B C12B 1_555 1_555
C13B C12B 1_555 1_555
H7B C13B 1_555 1_555
C14B C9B 1_555 1_555
H8B C14B 1_555 1_555
C15B O2B 1_555 1_555
C16B C15B 1_555 1_555
H9B C16B 1_555 1_555
C17B C16B 1_555 1_555
H10B C17B 1_555 1_555
C18B C17B 1_555 1_555
H11B C18B 1_555 1_555
C19B C18B 1_555 1_555
H12B C19B 1_555 1_555
C20B C15B 1_555 1_555
H13B C20B 1_555 1_555
C5 C6 1_555 1_555
C13 C14 1_555 1_555
C19 C20 1_555 1_555
C3B C4B 1_555 1_555
C4B C5B 1_555 1_555
C5B C6B 1_555 1_555
C7B C8B 1_555 1_555
C13B C14B 1_555 1_555
C19B C20B 1_555 1_555

#END
