
#######################################################################
#
#                 Cambridge Crystallographic Data Centre
#                                CCDC 
#
#######################################################################
#
# If this CIF has been generated from an entry in the Cambridge 
# Structural Database, then it will include bibliographic, chemical, 
# crystal, experimental, refinement or atomic coordinate data resulting 
# from the CCDC's data processing and validation procedures.
#
#######################################################################

data_RAKZEK
_chemical_formula_moiety         'C24 H22 O6 S2'
_chemical_name_systematic        
'Methyl 2-methylene-3-phenyl-4,4-bis(phenylsulfonyl)butanoate'
_symmetry_cell_setting           orthorhombic
_symmetry_space_group_name_H-M   'P 21 21 21'
_symmetry_Int_Tables_number      19
_space_group_name_Hall           'P 2ac 2ab'
loop_
_symmetry_equiv_pos_site_id
_symmetry_equiv_pos_as_xyz
1 x,y,z
2 1/2-x,-y,1/2+z
3 1/2+x,1/2-y,-z
4 -x,1/2+y,1/2-z
_cell_length_a                   5.919(3)
_cell_length_b                   14.531(5)
_cell_length_c                   25.735(11)
_cell_angle_alpha                90
_cell_angle_beta                 90
_cell_angle_gamma                90
_cell_volume                     2213.44
_exptl_crystal_colour            colorless
_exptl_crystal_description       prism
_cell_formula_units_Z            4
loop_
_atom_site_label
_atom_site_type_symbol
_atom_site_fract_x
_atom_site_fract_y
_atom_site_fract_z
S1 S 0.86548(18) 0.46297(8) 0.80146(4)
S2 S 1.02906(19) 0.41301(8) 0.90672(4)
O1 O 0.6249(7) 0.8109(2) 0.83489(13)
O2 O 0.9733(7) 0.7753(2) 0.86302(14)
O3 O 1.1039(5) 0.4712(2) 0.79171(12)
O4 O 0.7140(6) 0.5216(2) 0.77314(12)
O5 O 1.2410(5) 0.4614(2) 0.91037(12)
O6 O 1.0277(6) 0.3241(2) 0.88222(12)
C1 C 1.0478(8) 0.6472(3) 0.96748(17)
C2 C 1.0411(9) 0.6668(3) 1.02078(18)
C3 C 0.8517(9) 0.6458(3) 1.04986(17)
C4 C 0.6640(8) 0.6054(3) 1.02589(18)
C5 C 0.6672(7) 0.5883(3) 0.97231(16)
H1 H 0.5400 0.5640 0.9561
C6 C 0.8617(7) 0.6075(3) 0.94290(16)
C7 C 0.8628(8) 0.5896(3) 0.88404(15)
C8 C 0.6908(8) 0.6561(3) 0.85996(16)
C9 C 0.7802(8) 0.7516(3) 0.85306(17)
C10 C 0.6910(12) 0.9067(4) 0.8303(2)
H2 H 0.5588 0.9441 0.8257
H3 H 0.7892 0.9140 0.8009
H4 H 0.7688 0.9253 0.8613
C11 C 0.4767(8) 0.6365(4) 0.84909(17)
C12 C 0.8249(8) 0.4870(3) 0.87157(16)
C13 C 0.7802(7) 0.3476(3) 0.79202(16)
C14 C 0.5607(8) 0.3200(3) 0.8053(2)
C15 C 0.5043(9) 0.2276(4) 0.7984(2)
C16 C 0.6591(9) 0.1645(4) 0.77799(19)
H5 H 0.6188 0.1030 0.7738
C17 C 0.8711(10) 0.1941(3) 0.76418(18)
C18 C 0.9345(8) 0.2856(3) 0.77087(17)
C19 C 0.9159(8) 0.3977(3) 0.96990(17)
C20 C 1.0492(8) 0.4205(3) 1.01229(17)
H6 H 1.1875 0.4498 1.0078
C21 C 0.9708(10) 0.3983(4) 1.06196(18)
C22 C 0.7618(10) 0.3567(4) 1.0682(2)
C23 C 0.6317(10) 0.3344(4) 1.0250(2)
H7 H 0.4921 0.3061 1.0294
C24 C 0.7081(8) 0.3540(4) 0.97533(19)
H8 H 1.197(9) 0.661(4) 0.9453(19)
H9 H 1.172(11) 0.695(4) 1.035(2)
H10 H 0.849(9) 0.655(4) 1.0906(19)
H11 H 0.521(9) 0.588(3) 1.0487(18)
H12 H 1.019(9) 0.611(3) 0.8696(17)
H13 H 0.389(12) 0.687(5) 0.838(2)
H14 H 0.410(10) 0.574(4) 0.855(2)
H15 H 0.673(9) 0.463(4) 0.8807(18)
H16 H 0.448(9) 0.369(4) 0.8170(19)
H17 H 0.348(14) 0.204(5) 0.809(3)
H18 H 0.991(11) 0.149(4) 0.750(2)
H19 H 1.099(12) 0.309(5) 0.762(3)
H20 H 1.064(12) 0.413(5) 1.094(2)
H21 H 0.702(10) 0.340(4) 1.106(2)
H22 H 0.619(10) 0.335(4) 0.942(2)
loop_
_geom_bond_atom_site_label_1
_geom_bond_atom_site_label_2
_geom_bond_site_symmetry_1
_geom_bond_site_symmetry_2
S1 O3 1_555 1_555
S2 O5 1_555 1_555
O1 C9 1_555 1_555
O2 C9 1_555 1_555
O4 S1 1_555 1_555
O6 S2 1_555 1_555
C1 C2 1_555 1_555
C2 C3 1_555 1_555
C3 C4 1_555 1_555
C4 C5 1_555 1_555
C5 H1 1_555 1_555
C6 C1 1_555 1_555
C7 C6 1_555 1_555
C8 C7 1_555 1_555
C9 C8 1_555 1_555
C10 O1 1_555 1_555
H2 C10 1_555 1_555
H3 C10 1_555 1_555
H4 C10 1_555 1_555
C11 C8 1_555 1_555
C12 S1 1_555 1_555
C13 S1 1_555 1_555
C14 C13 1_555 1_555
C15 C14 1_555 1_555
C16 C15 1_555 1_555
H5 C16 1_555 1_555
C17 C16 1_555 1_555
C18 C13 1_555 1_555
C19 S2 1_555 1_555
C20 C19 1_555 1_555
H6 C20 1_555 1_555
C21 C20 1_555 1_555
C22 C21 1_555 1_555
C23 C22 1_555 1_555
H7 C23 1_555 1_555
C24 C19 1_555 1_555
H8 C1 1_555 1_555
H9 C2 1_555 1_555
H10 C3 1_555 1_555
H11 C4 1_555 1_555
H12 C7 1_555 1_555
H13 C11 1_555 1_555
H14 C11 1_555 1_555
H15 C12 1_555 1_555
H16 C14 1_555 1_555
H17 C15 1_555 1_555
H18 C17 1_555 1_555
H19 C18 1_555 1_555
H20 C21 1_555 1_555
H21 C22 1_555 1_555
H22 C24 1_555 1_555
S2 C12 1_555 1_555
C5 C6 1_555 1_555
C7 C12 1_555 1_555
C17 C18 1_555 1_555
C23 C24 1_555 1_555

#END
