
#######################################################################
#
#                 Cambridge Crystallographic Data Centre
#                                CCDC 
#
#######################################################################
#
# If this CIF has been generated from an entry in the Cambridge 
# Structural Database, then it will include bibliographic, chemical, 
# crystal, experimental, refinement or atomic coordinate data resulting 
# from the CCDC's data processing and validation procedures.
#
#######################################################################

data_RALCOZ
_chemical_formula_moiety         'C51 H31 N7'
_chemical_name_systematic        
11,11'-(1,3,5-triazine-2,4-diyl)bis(12-phenyl-11,12-dihydroindolo[2,3-a]carbazole)
_symmetry_cell_setting           monoclinic
_symmetry_space_group_name_H-M   'P 21/n'
_symmetry_Int_Tables_number      14
_space_group_name_Hall           '-P 2yn'
loop_
_symmetry_equiv_pos_site_id
_symmetry_equiv_pos_as_xyz
1 x,y,z
2 1/2-x,1/2+y,1/2-z
3 -x,-y,-z
4 1/2+x,1/2-y,1/2+z
_cell_length_a                   11.883(2)
_cell_length_b                   17.238(3)
_cell_length_c                   17.452(4)
_cell_angle_alpha                90
_cell_angle_beta                 94.50(3)
_cell_angle_gamma                90
_cell_volume                     3563.83
_exptl_crystal_colour            colorless
_exptl_crystal_description       prism
_cell_formula_units_Z            4
loop_
_atom_site_label
_atom_site_type_symbol
_atom_site_fract_x
_atom_site_fract_y
_atom_site_fract_z
N1 N 0.50309(14) 0.72280(9) 0.71649(9)
N2 N 0.58944(15) 0.81589(10) 0.80320(9)
N3 N 0.64838(15) 0.68373(10) 0.80989(9)
N4 N 0.45196(14) 0.85225(9) 0.70791(9)
N5 N 0.25583(14) 0.71447(10) 0.68639(9)
N6 N 0.55355(14) 0.59318(9) 0.73003(9)
N7 N 0.51840(14) 0.66019(10) 0.55178(9)
C1 C 0.51802(16) 0.79445(11) 0.74409(10)
C2 C 0.65243(17) 0.75749(12) 0.83211(11)
H1 H 0.7053 0.7697 0.8724
C3 C 0.56910(16) 0.67014(11) 0.75277(10)
C4 C 0.49663(18) 0.92736(11) 0.69276(11)
C5 C 0.58331(19) 0.96863(12) 0.73224(12)
H2 H 0.6213 0.9490 0.7766
C6 C 0.6110(2) 1.04053(13) 0.70277(13)
H3 H 0.6689 1.0693 0.7279
C7 C 0.5542(2) 1.07038(13) 0.63671(13)
H4 H 0.5738 1.1189 0.6187
C8 C 0.4689(2) 1.02864(13) 0.59744(13)
H5 H 0.4311 1.0487 0.5531
C9 C 0.44037(18) 0.95604(12) 0.62514(11)
C10 C 0.35963(18) 0.89801(12) 0.59678(11)
C11 C 0.28813(18) 0.89586(13) 0.52920(11)
H6 H 0.2860 0.9372 0.4948
C12 C 0.22124(18) 0.83194(12) 0.51440(11)
H7 H 0.1775 0.8278 0.4680
C13 C 0.21900(17) 0.77295(12) 0.56948(11)
C14 C 0.15063(17) 0.70393(12) 0.57166(11)
C15 C 0.07299(18) 0.66955(14) 0.51804(12)
H8 H 0.0579 0.6914 0.4696
C16 C 0.0189(2) 0.60268(14) 0.53798(13)
H9 H -0.0314 0.5783 0.5022
C17 C 0.0390(2) 0.57126(14) 0.61141(13)
H10 H 0.0004 0.5267 0.6240
C18 C 0.11447(18) 0.60448(13) 0.66589(12)
H11 H 0.1261 0.5837 0.7150
C19 C 0.17268(17) 0.67035(12) 0.64464(11)
C20 C 0.28581(16) 0.77634(11) 0.63997(10)
C21 C 0.36500(17) 0.83632(11) 0.64958(10)
C22 C 0.28100(17) 0.70791(12) 0.76750(11)
C23 C 0.28610(18) 0.77378(13) 0.81325(11)
H12 H 0.2698 0.8222 0.7916
C24 C 0.31564(19) 0.76723(15) 0.89149(12)
H13 H 0.3206 0.8115 0.9220
C25 C 0.3378(2) 0.69533(16) 0.92443(12)
H14 H 0.3575 0.6911 0.9769
C26 C 0.3303(2) 0.62968(15) 0.87869(13)
H15 H 0.3443 0.5812 0.9008
C27 C 0.30217(18) 0.63543(13) 0.80036(12)
H16 H 0.2975 0.5911 0.7700
C28 C 0.54402(17) 0.53478(11) 0.78731(11)
C29 C 0.59811(18) 0.53002(12) 0.86084(11)
H17 H 0.6534 0.5656 0.8779
C30 C 0.56626(18) 0.47017(12) 0.90756(12)
H18 H 0.6006 0.4658 0.9571
C31 C 0.48434(18) 0.41643(13) 0.88224(12)
H19 H 0.4636 0.3774 0.9152
C32 C 0.43346(18) 0.42069(12) 0.80820(12)
H20 H 0.3799 0.3841 0.7908
C33 C 0.46357(17) 0.48045(12) 0.76021(11)
C34 C 0.42517(17) 0.50182(11) 0.68209(11)
C35 C 0.34942(18) 0.46497(12) 0.62889(11)
H21 H 0.3125 0.4199 0.6421
C36 C 0.33015(18) 0.49615(12) 0.55665(12)
H22 H 0.2776 0.4736 0.5212
C37 C 0.38977(17) 0.56182(12) 0.53680(11)
C38 C 0.39328(17) 0.60164(12) 0.46454(11)
C39 C 0.34046(18) 0.58885(13) 0.39148(11)
H23 H 0.2869 0.5498 0.3834
C40 C 0.3688(2) 0.63497(14) 0.33120(12)
H24 H 0.3342 0.6268 0.2822
C41 C 0.4489(2) 0.69383(14) 0.34332(12)
H25 H 0.4665 0.7244 0.3020
C42 C 0.50276(19) 0.70792(13) 0.41502(12)
H26 H 0.5563 0.7471 0.4227
C43 C 0.47355(17) 0.66119(12) 0.47511(11)
C44 C 0.46836(17) 0.59912(11) 0.58933(11)
C45 C 0.48131(17) 0.57025(11) 0.66466(11)
C46 C 0.61658(17) 0.70210(12) 0.57821(11)
C47 C 0.61700(19) 0.78256(12) 0.57351(12)
H27 H 0.5546 0.8088 0.5508
C48 C 0.7107(2) 0.82336(14) 0.60285(13)
H28 H 0.7114 0.8772 0.6002
C49 C 0.8034(2) 0.78427(16) 0.63610(13)
H29 H 0.8659 0.8120 0.6565
C50 C 0.8039(2) 0.70433(15) 0.63926(13)
H30 H 0.8669 0.6783 0.6613
C51 C 0.71071(18) 0.66264(13) 0.60961(11)
H31 H 0.7114 0.6087 0.6108
loop_
_geom_bond_atom_site_label_1
_geom_bond_atom_site_label_2
_geom_bond_site_symmetry_1
_geom_bond_site_symmetry_2
N1 C1 1_555 1_555
N2 C1 1_555 1_555
N3 C2 1_555 1_555
N4 C1 1_555 1_555
N5 C19 1_555 1_555
N6 C3 1_555 1_555
N7 C43 1_555 1_555
C2 N2 1_555 1_555
H1 C2 1_555 1_555
C3 N1 1_555 1_555
C4 N4 1_555 1_555
C5 C4 1_555 1_555
H2 C5 1_555 1_555
C6 C5 1_555 1_555
H3 C6 1_555 1_555
C7 C6 1_555 1_555
H4 C7 1_555 1_555
C8 C7 1_555 1_555
H5 C8 1_555 1_555
C9 C4 1_555 1_555
C10 C9 1_555 1_555
C11 C10 1_555 1_555
H6 C11 1_555 1_555
C12 C11 1_555 1_555
H7 C12 1_555 1_555
C13 C12 1_555 1_555
C14 C13 1_555 1_555
C15 C14 1_555 1_555
H8 C15 1_555 1_555
C16 C15 1_555 1_555
H9 C16 1_555 1_555
C17 C16 1_555 1_555
H10 C17 1_555 1_555
C18 C17 1_555 1_555
H11 C18 1_555 1_555
C19 C14 1_555 1_555
C20 N5 1_555 1_555
C21 N4 1_555 1_555
C22 N5 1_555 1_555
C23 C22 1_555 1_555
H12 C23 1_555 1_555
C24 C23 1_555 1_555
H13 C24 1_555 1_555
C25 C24 1_555 1_555
H14 C25 1_555 1_555
C26 C25 1_555 1_555
H15 C26 1_555 1_555
C27 C22 1_555 1_555
H16 C27 1_555 1_555
C28 N6 1_555 1_555
C29 C28 1_555 1_555
H17 C29 1_555 1_555
C30 C29 1_555 1_555
H18 C30 1_555 1_555
C31 C30 1_555 1_555
H19 C31 1_555 1_555
C32 C31 1_555 1_555
H20 C32 1_555 1_555
C33 C28 1_555 1_555
C34 C33 1_555 1_555
C35 C34 1_555 1_555
H21 C35 1_555 1_555
C36 C35 1_555 1_555
H22 C36 1_555 1_555
C37 C36 1_555 1_555
C38 C37 1_555 1_555
C39 C38 1_555 1_555
H23 C39 1_555 1_555
C40 C39 1_555 1_555
H24 C40 1_555 1_555
C41 C40 1_555 1_555
H25 C41 1_555 1_555
C42 C41 1_555 1_555
H26 C42 1_555 1_555
C43 C38 1_555 1_555
C44 N7 1_555 1_555
C45 N6 1_555 1_555
C46 N7 1_555 1_555
C47 C46 1_555 1_555
H27 C47 1_555 1_555
C48 C47 1_555 1_555
H28 C48 1_555 1_555
C49 C48 1_555 1_555
H29 C49 1_555 1_555
C50 C49 1_555 1_555
H30 C50 1_555 1_555
C51 C46 1_555 1_555
H31 C51 1_555 1_555
N3 C3 1_555 1_555
C8 C9 1_555 1_555
C10 C21 1_555 1_555
C13 C20 1_555 1_555
C18 C19 1_555 1_555
C20 C21 1_555 1_555
C26 C27 1_555 1_555
C32 C33 1_555 1_555
C34 C45 1_555 1_555
C37 C44 1_555 1_555
C42 C43 1_555 1_555
C44 C45 1_555 1_555
C50 C51 1_555 1_555

#END
