
#######################################################################
#
#                 Cambridge Crystallographic Data Centre
#                                CCDC 
#
#######################################################################
#
# If this CIF has been generated from an entry in the Cambridge 
# Structural Database, then it will include bibliographic, chemical, 
# crystal, experimental, refinement or atomic coordinate data resulting 
# from the CCDC's data processing and validation procedures.
#
#######################################################################

data_RALDAM
_chemical_formula_moiety         'C58 H34 N8'
_chemical_name_systematic        
4-(4,6-bis(12-phenylindolo[2,3-a]carbazol-11(12H)-yl)-1,3,5-triazin-2-yl)benzonitrile
_symmetry_cell_setting           monoclinic
_symmetry_space_group_name_H-M   'C 2/c'
_symmetry_Int_Tables_number      15
_space_group_name_Hall           '-C 2yn'
loop_
_symmetry_equiv_pos_site_id
_symmetry_equiv_pos_as_xyz
1 x,y,z
2 -x,y,1/2-z
3 1/2+x,1/2+y,z
4 1/2-x,1/2+y,1/2-z
5 -x,-y,-z
6 x,-y,1/2+z
7 1/2-x,1/2-y,-z
8 1/2+x,1/2-y,1/2+z
_cell_length_a                   15.495(4)
_cell_length_b                   18.680(5)
_cell_length_c                   14.650(4)
_cell_angle_alpha                90
_cell_angle_beta                 104.662(3)
_cell_angle_gamma                90
_cell_volume                     4102.31
_exptl_crystal_colour            yellow
_exptl_crystal_description       prism
_cell_formula_units_Z            4
loop_
_atom_site_label
_atom_site_type_symbol
_atom_site_fract_x
_atom_site_fract_y
_atom_site_fract_z
N1 N 1.0000 0.16135(10) 0.2500
N2 N 1.01236(10) 0.05062(8) 0.17320(10)
N3 N 1.02329(10) 0.15899(7) 0.09916(10)
N4 N 0.89419(9) 0.28649(7) 0.15730(10)
N5 N 1.0000 -0.34980(14) 0.2500
C1 C 1.01128(11) 0.12233(9) 0.17770(12)
C2 C 1.0000 0.01774(12) 0.2500
C3 C 1.08051(11) 0.13225(10) 0.04353(12)
C4 C 1.10225(13) 0.06236(10) 0.02513(13)
H1 H 1.0797 0.0234 0.0512
C5 C 1.15900(13) 0.05303(11) -0.03377(14)
H2 H 1.1742 0.0068 -0.0475
C6 C 1.19362(13) 0.11054(12) -0.07267(15)
H3 H 1.2317 0.1023 -0.1114
C7 C 1.17203(12) 0.18004(11) -0.05439(13)
H4 H 1.1951 0.2186 -0.0806
C8 C 1.11481(11) 0.19100(10) 0.00423(12)
C9 C 1.07772(12) 0.25578(10) 0.03351(12)
C10 C 1.09247(12) 0.32765(10) 0.01436(14)
H5 H 1.1306 0.3395 -0.0231
C11 C 1.04982(12) 0.38029(10) 0.05170(14)
H6 H 1.0625 0.4283 0.0442
C12 C 0.98702(12) 0.36084(9) 0.10126(13)
C13 C 0.92680(12) 0.40425(9) 0.13782(13)
C14 C 0.91553(14) 0.47849(10) 0.14201(15)
H7 H 0.9547 0.5097 0.1234
C15 C 0.84555(16) 0.50431(11) 0.17404(17)
H8 H 0.8373 0.5535 0.1772
C16 C 0.78653(15) 0.45765(11) 0.20201(16)
H9 H 0.7391 0.4765 0.2223
C17 C 0.79688(13) 0.38397(10) 0.20025(14)
H10 H 0.7575 0.3532 0.2192
C18 C 0.86914(12) 0.35774(9) 0.16882(12)
C19 C 0.96661(11) 0.28831(9) 0.11574(12)
C20 C 1.01950(11) 0.23515(9) 0.08870(12)
C21 C 0.83396(11) 0.22827(9) 0.15245(12)
C22 C 0.80974(12) 0.18524(9) 0.07261(13)
H11 H 0.8357 0.1923 0.0226
C23 C 0.74628(14) 0.13140(11) 0.06795(16)
H12 H 0.7307 0.1020 0.0151
C24 C 0.70644(15) 0.12147(12) 0.14148(18)
H13 H 0.6633 0.0862 0.1375
C25 C 0.73096(15) 0.16431(12) 0.22129(17)
H14 H 0.7042 0.1576 0.2707
C26 C 0.79506(12) 0.21704(10) 0.22776(14)
H15 H 0.8122 0.2449 0.2819
C27 C 1.0000 -0.06186(13) 0.2500
C28 C 0.95735(12) -0.09970(9) 0.30830(13)
H16 H 0.9293 -0.0749 0.3477
C29 C 0.95650(12) -0.17387(10) 0.30800(13)
H17 H 0.9271 -0.1987 0.3462
C30 C 1.0000 -0.21104(13) 0.2500
C31 C 1.0000 -0.28835(14) 0.2500
N2A N 0.98764(10) 0.05062(8) 0.32680(10)
N3A N 0.97671(10) 0.15899(7) 0.40084(10)
N4A N 1.10581(9) 0.28649(7) 0.34270(10)
C1A C 0.98872(11) 0.12233(9) 0.32230(12)
C3A C 0.91949(11) 0.13225(10) 0.45647(12)
C4A C 0.89775(13) 0.06236(10) 0.47487(13)
H1A H 0.9203 0.0234 0.4488
C5A C 0.84100(13) 0.05303(11) 0.53377(14)
H2A H 0.8258 0.0068 0.5475
C6A C 0.80638(13) 0.11054(12) 0.57267(15)
H3A H 0.7683 0.1023 0.6114
C7A C 0.82797(12) 0.18004(11) 0.55439(13)
H4A H 0.8049 0.2186 0.5806
C8A C 0.88519(11) 0.19100(10) 0.49577(12)
C9A C 0.92228(12) 0.25578(10) 0.46649(12)
C10A C 0.90753(12) 0.32765(10) 0.48564(14)
H5A H 0.8694 0.3395 0.5231
C11A C 0.95018(12) 0.38029(10) 0.44830(14)
H6A H 0.9375 0.4283 0.4558
C12A C 1.01298(12) 0.36084(9) 0.39874(13)
C13A C 1.07320(12) 0.40425(9) 0.36218(13)
C14A C 1.08447(14) 0.47849(10) 0.35799(15)
H7A H 1.0453 0.5097 0.3766
C15A C 1.15445(16) 0.50431(11) 0.32596(17)
H8A H 1.1627 0.5535 0.3228
C16A C 1.21347(15) 0.45765(11) 0.29799(16)
H9A H 1.2609 0.4765 0.2777
C17A C 1.20312(13) 0.38397(10) 0.29975(14)
H10A H 1.2425 0.3532 0.2808
C18A C 1.13086(12) 0.35774(9) 0.33118(12)
C19A C 1.03339(11) 0.28831(9) 0.38426(12)
C20A C 0.98050(11) 0.23515(9) 0.41130(12)
C21A C 1.16604(11) 0.22827(9) 0.34755(12)
C22A C 1.19026(12) 0.18524(9) 0.42739(13)
H11A H 1.1643 0.1923 0.4774
C23A C 1.25372(14) 0.13140(11) 0.43205(16)
H12A H 1.2693 0.1020 0.4849
C24A C 1.29356(15) 0.12147(12) 0.35852(18)
H13A H 1.3367 0.0862 0.3625
C25A C 1.26904(15) 0.16431(12) 0.27871(17)
H14A H 1.2958 0.1576 0.2293
C26A C 1.20494(12) 0.21704(10) 0.27224(14)
H15A H 1.1878 0.2449 0.2181
C28A C 1.04265(12) -0.09970(9) 0.19170(13)
H16A H 1.0707 -0.0749 0.1523
C29A C 1.04350(12) -0.17387(10) 0.19200(13)
H17A H 1.0729 -0.1987 0.1538
loop_
_geom_bond_atom_site_label_1
_geom_bond_atom_site_label_2
_geom_bond_site_symmetry_1
_geom_bond_site_symmetry_2
N1 C1 1_555 1_555
N2 C1 1_555 1_555
N3 C1 1_555 1_555
N4 C18 1_555 1_555
N5 C31 1_555 1_555
C2 N2 1_555 1_555
C3 N3 1_555 1_555
C4 C3 1_555 1_555
H1 C4 1_555 1_555
C5 C4 1_555 1_555
H2 C5 1_555 1_555
C6 C5 1_555 1_555
H3 C6 1_555 1_555
C7 C6 1_555 1_555
H4 C7 1_555 1_555
C8 C3 1_555 1_555
C9 C8 1_555 1_555
C10 C9 1_555 1_555
H5 C10 1_555 1_555
C11 C10 1_555 1_555
H6 C11 1_555 1_555
C12 C11 1_555 1_555
C13 C12 1_555 1_555
C14 C13 1_555 1_555
H7 C14 1_555 1_555
C15 C14 1_555 1_555
H8 C15 1_555 1_555
C16 C15 1_555 1_555
H9 C16 1_555 1_555
C17 C16 1_555 1_555
H10 C17 1_555 1_555
C18 C13 1_555 1_555
C19 N4 1_555 1_555
C20 N3 1_555 1_555
C21 N4 1_555 1_555
C22 C21 1_555 1_555
H11 C22 1_555 1_555
C23 C22 1_555 1_555
H12 C23 1_555 1_555
C24 C23 1_555 1_555
H13 C24 1_555 1_555
C25 C24 1_555 1_555
H14 C25 1_555 1_555
C26 C21 1_555 1_555
H15 C26 1_555 1_555
C27 C2 1_555 1_555
C28 C27 1_555 1_555
H16 C28 1_555 1_555
C29 C28 1_555 1_555
H17 C29 1_555 1_555
C30 C29 1_555 1_555
C31 C30 1_555 1_555
N2A C2 1_555 1_555
N3A C1A 1_555 1_555
N4A C18A 1_555 1_555
C1A N1 1_555 1_555
C3A N3A 1_555 1_555
C4A C3A 1_555 1_555
H1A C4A 1_555 1_555
C5A C4A 1_555 1_555
H2A C5A 1_555 1_555
C6A C5A 1_555 1_555
H3A C6A 1_555 1_555
C7A C6A 1_555 1_555
H4A C7A 1_555 1_555
C8A C3A 1_555 1_555
C9A C8A 1_555 1_555
C10A C9A 1_555 1_555
H5A C10A 1_555 1_555
C11A C10A 1_555 1_555
H6A C11A 1_555 1_555
C12A C11A 1_555 1_555
C13A C12A 1_555 1_555
C14A C13A 1_555 1_555
H7A C14A 1_555 1_555
C15A C14A 1_555 1_555
H8A C15A 1_555 1_555
C16A C15A 1_555 1_555
H9A C16A 1_555 1_555
C17A C16A 1_555 1_555
H10A C17A 1_555 1_555
C18A C13A 1_555 1_555
C19A N4A 1_555 1_555
C20A N3A 1_555 1_555
C21A N4A 1_555 1_555
C22A C21A 1_555 1_555
H11A C22A 1_555 1_555
C23A C22A 1_555 1_555
H12A C23A 1_555 1_555
C24A C23A 1_555 1_555
H13A C24A 1_555 1_555
C25A C24A 1_555 1_555
H14A C25A 1_555 1_555
C26A C21A 1_555 1_555
H15A C26A 1_555 1_555
C28A C27 1_555 1_555
H16A C28A 1_555 1_555
C29A C30 1_555 1_555
H17A C29A 1_555 1_555
C7 C8 1_555 1_555
C9 C20 1_555 1_555
C12 C19 1_555 1_555
C17 C18 1_555 1_555
C19 C20 1_555 1_555
C25 C26 1_555 1_555
N2A C1A 1_555 1_555
C7A C8A 1_555 1_555
C9A C20A 1_555 1_555
C12A C19A 1_555 1_555
C17A C18A 1_555 1_555
C19A C20A 1_555 1_555
C25A C26A 1_555 1_555
C28A C29A 1_555 1_555

#END
