
#######################################################################
#
#                 Cambridge Crystallographic Data Centre
#                                CCDC 
#
#######################################################################
#
# If this CIF has been generated from an entry in the Cambridge 
# Structural Database, then it will include bibliographic, chemical, 
# crystal, experimental, refinement or atomic coordinate data resulting 
# from the CCDC's data processing and validation procedures.
#
#######################################################################

data_RALFUI
_chemical_formula_moiety         'C22 H23 N3'
_chemical_name_systematic        1,2,3-tris(2-methylphenyl)guanidine
_symmetry_cell_setting           triclinic
_symmetry_space_group_name_H-M   'P -1'
_symmetry_Int_Tables_number      2
_space_group_name_Hall           '-P 1'
loop_
_symmetry_equiv_pos_site_id
_symmetry_equiv_pos_as_xyz
1 x,y,z
2 -x,-y,-z
_cell_length_a                   7.516(2)
_cell_length_b                   11.040(3)
_cell_length_c                   12.158(3)
_cell_angle_alpha                90.210(5)
_cell_angle_beta                 104.971(5)
_cell_angle_gamma                105.405(5)
_cell_volume                     936.738
_exptl_crystal_colour            colorless
_exptl_crystal_description       rectangular
_cell_formula_units_Z            2
loop_
_atom_site_label
_atom_site_type_symbol
_atom_site_fract_x
_atom_site_fract_y
_atom_site_fract_z
C1 C 0.0200(5) -0.0166(3) 0.8279(3)
C2 C 0.2888(4) 0.1703(3) 0.8952(2)
C3 C 0.4339(5) 0.1142(4) 0.8989(3)
H1 H 0.4082 0.0270 0.8981
C4 C 0.6177(6) 0.1873(5) 0.9038(3)
H2 H 0.7156 0.1496 0.9066
C5 C 0.6531(6) 0.3158(5) 0.9044(4)
H3 H 0.7756 0.3654 0.9073
C6 C 0.5097(6) 0.3716(4) 0.9008(3)
H4 H 0.5363 0.4588 0.9004
C7 C 0.3265(4) 0.3015(3) 0.8977(3)
C8 C 0.1705(6) 0.3640(4) 0.8973(4)
H5 H 0.1311 0.3490 0.9662
H6 H 0.0630 0.3297 0.8326
H7 H 0.2182 0.4531 0.8927
C9 C -0.1643(7) -0.2280(4) 0.7997(3)
C10 C -0.0553(9) -0.3161(4) 0.7884(4)
H8 H 0.0757 -0.2964 0.8228
C11 C -0.1505(12) -0.4291(5) 0.7256(5)
H9 H -0.0853 -0.4872 0.7155
C12 C -0.3412(10) -0.4535(6) 0.6789(5)
H10 H -0.4015 -0.5310 0.6373
C13 C -0.4541(9) -0.3791(5) 0.6853(4)
H11 H -0.5852 -0.4024 0.6506
C14 C -0.3509(8) -0.2553(5) 0.7533(4)
C15 C -0.4559(8) -0.1729(5) 0.7661(5)
H12 H -0.4691 -0.1724 0.8425
H13 H -0.5805 -0.1996 0.7128
H14 H -0.3908 -0.0896 0.7517
C16 C 0.0321(5) 0.0949(3) 0.6527(3)
C17 C -0.1106(6) 0.1542(4) 0.6501(3)
H15 H -0.1986 0.1253 0.6922
C18 C -0.1226(9) 0.2557(5) 0.5854(4)
H16 H -0.2184 0.2950 0.5834
C19 C 0.0059(11) 0.2972(5) 0.5253(4)
H17 H -0.0019 0.3659 0.4821
C20 C 0.1474(8) 0.2411(4) 0.5260(3)
H18 H 0.2340 0.2721 0.4835
C21 C 0.1646(6) 0.1353(4) 0.5911(3)
C22 C 0.3182(7) 0.0761(5) 0.5940(4)
H19 H 0.4238 0.1112 0.6594
H20 H 0.3600 0.0915 0.5258
H21 H 0.2717 -0.0130 0.5985
N1 N 0.1019(4) 0.0961(2) 0.8936(2)
H22 H 0.0391 0.1219 0.9343
N2 N -0.0649(4) -0.1139(3) 0.8708(2)
N3 N 0.0347(4) -0.0133(3) 0.7171(2)
H23 H 0.0460 -0.0795 0.6851
loop_
_geom_bond_atom_site_label_1
_geom_bond_atom_site_label_2
_geom_bond_site_symmetry_1
_geom_bond_site_symmetry_2
C1 N1 1_555 1_555
C2 C3 1_555 1_555
C3 H1 1_555 1_555
C4 C3 1_555 1_555
H2 C4 1_555 1_555
C5 C4 1_555 1_555
H3 C5 1_555 1_555
C6 C5 1_555 1_555
H4 C6 1_555 1_555
C7 C2 1_555 1_555
C8 C7 1_555 1_555
H5 C8 1_555 1_555
H6 C8 1_555 1_555
H7 C8 1_555 1_555
C9 C10 1_555 1_555
C10 H8 1_555 1_555
C11 C10 1_555 1_555
H9 C11 1_555 1_555
C12 C11 1_555 1_555
H10 C12 1_555 1_555
C13 C12 1_555 1_555
H11 C13 1_555 1_555
C14 C9 1_555 1_555
C15 C14 1_555 1_555
H12 C15 1_555 1_555
H13 C15 1_555 1_555
H14 C15 1_555 1_555
C16 C17 1_555 1_555
C17 H15 1_555 1_555
C18 C17 1_555 1_555
H16 C18 1_555 1_555
C19 C18 1_555 1_555
H17 C19 1_555 1_555
C20 C19 1_555 1_555
H18 C20 1_555 1_555
C21 C16 1_555 1_555
C22 C21 1_555 1_555
H19 C22 1_555 1_555
H20 C22 1_555 1_555
H21 C22 1_555 1_555
N1 C2 1_555 1_555
H22 N1 1_555 1_555
N2 C1 1_555 1_555
N3 C1 1_555 1_555
H23 N3 1_555 1_555
C6 C7 1_555 1_555
C9 N2 1_555 1_555
C13 C14 1_555 1_555
C16 N3 1_555 1_555
C20 C21 1_555 1_555

#END
