
#######################################################################
#
#                 Cambridge Crystallographic Data Centre
#                                CCDC 
#
#######################################################################
#
# If this CIF has been generated from an entry in the Cambridge 
# Structural Database, then it will include bibliographic, chemical, 
# crystal, experimental, refinement or atomic coordinate data resulting 
# from the CCDC's data processing and validation procedures.
#
#######################################################################

data_RALNAT
_chemical_formula_moiety         'C36 H32 N4 4+,4(F6 P1 1-)'
_chemical_name_systematic        
'1,9,16,24-Tetra-azoniaheptacyclo(26.2.2.2^9,12^.2^13,16^.2^24,27^.1^3,7^.1^18,22^)tetraconta-1(30),3(39),4,6,9(33),10,12(34),13(35),14,16(36),18(38),19,21,24(37),25,27(38),28,31-octadecaene tetrakis(hexafluorophosphate)'
_symmetry_cell_setting           monoclinic
_symmetry_space_group_name_H-M   'P 21/c'
_symmetry_Int_Tables_number      14
_space_group_name_Hall           '-P 2ybc'
loop_
_symmetry_equiv_pos_site_id
_symmetry_equiv_pos_as_xyz
1 x,y,z
2 x,1/2-y,1/2+z
3 -x,-y,-z
4 -x,1/2+y,1/2-z
_cell_length_a                   7.48620(10)
_cell_length_b                   20.1022(7)
_cell_length_c                   13.9451(5)
_cell_angle_alpha                90
_cell_angle_beta                 91.882(2)
_cell_angle_gamma                90
_cell_volume                     2097.45
_exptl_crystal_colour            colorless
_exptl_crystal_description       prisms
_cell_formula_units_Z            2
loop_
_atom_site_label
_atom_site_type_symbol
_atom_site_fract_x
_atom_site_fract_y
_atom_site_fract_z
P1 P 0.11718(8) 0.41609(3) 0.38787(5)
F1 F -0.0970(2) 0.41377(9) 0.38132(13)
F2 F 0.32970(19) 0.41773(8) 0.39467(13)
F3 F 0.10914(19) 0.41054(8) 0.50198(11)
F4 F 0.1223(2) 0.33638(8) 0.38250(12)
F5 F 0.1079(2) 0.49456(8) 0.39139(14)
F6 F 0.1222(3) 0.41921(9) 0.27316(12)
P2 P 0.10278(9) 0.39218(4) -0.07447(6)
F7 F -0.1083(2) 0.39622(8) -0.06248(13)
F8 F 0.3144(2) 0.38773(12) -0.08699(16)
F9 F 0.0946(3) 0.31449(10) -0.0541(2)
F10 F 0.0756(3) 0.37853(13) -0.18571(15)
F11 F 0.1079(3) 0.46874(10) -0.0957(2)
F12 F 0.1294(3) 0.40623(14) 0.03660(16)
C1 C 0.4691(18) 0.5831(7) 0.8692(8)
H1 H 0.5934 0.5976 0.8841
H2 H 0.4135 0.5728 0.9309
C2 C 0.3689(13) 0.6409(6) 0.8231(9)
C3 C 0.2046(9) 0.6588(4) 0.8562(5)
H3 H 0.1551 0.6351 0.9079
C4 C 0.1131(8) 0.7102(4) 0.8147(5)
H4 H 0.0007 0.7228 0.8387
C5 C 0.1802(9) 0.7442(4) 0.7389(5)
H5 H 0.1131 0.7791 0.7092
C6 C 0.3478(19) 0.7273(8) 0.7056(10)
C7 C 0.4420(6) 0.6756(2) 0.7480(3)
H6 H 0.5564 0.6638 0.7258
C8 C 0.3785(16) 0.7785(6) 0.6053(10)
H7 H 0.2702 0.8049 0.5888
H8 H 0.4820 0.8087 0.6151
N1 N 0.4135(3) 0.72515(12) 0.52921(17)
C9 C 0.2749(4) 0.68545(15) 0.5035(2)
H9 H 0.1645 0.6900 0.5345
C10 C 0.2917(3) 0.63856(13) 0.43291(18)
H10 H 0.1933 0.6107 0.4157
C11 C 0.4519(3) 0.63154(11) 0.38651(16)
C12 C 0.5904(3) 0.67529(12) 0.4122(2)
H11 H 0.7004 0.6732 0.3803
C13 C 0.5677(4) 0.72110(13) 0.4832(2)
H12 H 0.6627 0.7506 0.5002
C14 C 0.4783(3) 0.57860(12) 0.31496(17)
C15 C 0.6358(3) 0.54160(12) 0.31589(19)
H13 H 0.7295 0.5515 0.3612
C16 C 0.6555(4) 0.49127(14) 0.2519(2)
H14 H 0.7625 0.4659 0.2535
N2 N 0.4754(3) 0.52303(12) 0.81393(17)
C17 C 0.6277(3) 0.48788(13) 0.81721(18)
H15 H 0.7182 0.4985 0.8641
C18 C 0.3452(3) 0.56297(13) 0.24580(17)
H16 H 0.2367 0.5875 0.2427
N2B N 0.5246(3) 0.47697(12) 0.18607(17)
C1B C 0.5309(18) 0.4169(7) 0.1308(8)
H1B H 0.4066 0.4024 0.1159
H2B H 0.5865 0.4272 0.0691
C2B C 0.6311(13) 0.3591(6) 0.1769(9)
C3B C 0.7954(9) 0.3412(4) 0.1438(5)
H3B H 0.8449 0.3649 0.0921
C4B C 0.8869(8) 0.2898(4) 0.1853(5)
H4B H 0.9993 0.2772 0.1613
C5B C 0.8198(9) 0.2558(4) 0.2611(5)
H5B H 0.8869 0.2209 0.2908
C6B C 0.6522(19) 0.2727(8) 0.2944(10)
C7B C 0.5580(6) 0.3244(2) 0.2520(3)
H6B H 0.4436 0.3362 0.2742
C8B C 0.6215(16) 0.2215(6) 0.3947(10)
H7B H 0.7298 0.1951 0.4112
H8B H 0.5180 0.1913 0.3849
N1B N 0.5865(3) 0.27485(12) 0.47079(17)
C9B C 0.7251(4) 0.31455(15) 0.4965(2)
H9B H 0.8355 0.3100 0.4655
C10B C 0.7083(3) 0.36144(13) 0.56709(18)
H10B H 0.8067 0.3893 0.5843
C11B C 0.5481(3) 0.36846(11) 0.61349(16)
C12B C 0.4096(3) 0.32471(12) 0.5878(2)
H11B H 0.2996 0.3268 0.6197
C13B C 0.4323(4) 0.27890(13) 0.5168(2)
H12B H 0.3373 0.2494 0.4998
C14B C 0.5217(3) 0.42140(12) 0.68504(17)
C15B C 0.3642(3) 0.45840(12) 0.68411(19)
H13B H 0.2705 0.4485 0.6388
C16B C 0.3445(4) 0.50873(14) 0.7481(2)
H14B H 0.2375 0.5341 0.7465
C18B C 0.6548(3) 0.43703(13) 0.75420(17)
H16B H 0.7633 0.4125 0.7573
C17B C 0.3723(3) 0.51212(13) 0.18279(18)
H15B H 0.2818 0.5015 0.1359
C19? C 0.5675(17) 0.4240(7) 0.1063(8)
H17? H 0.4708 0.4221 0.0563
H18? H 0.6818 0.4342 0.0758
C20? C 0.5796(12) 0.3600(7) 0.1620(9)
C21? C 0.7459(9) 0.3321(3) 0.1846(5)
H19? H 0.8494 0.3463 0.1527
C22? C 0.7576(9) 0.2821(3) 0.2558(5)
H20? H 0.8701 0.2623 0.2716
C23? C 0.6075(18) 0.2614(8) 0.3030(12)
C24? C 0.4388(6) 0.2847(2) 0.2706(4)
H21? H 0.3336 0.2667 0.2966
C25? C 0.4252(6) 0.3334(3) 0.2015(4)
H22? H 0.3108 0.3491 0.1805
C26? C 0.580(2) 0.2366(6) 0.3803(9)
H23? H 0.6674 0.1998 0.3887
H24? H 0.4605 0.2159 0.3750
loop_
_geom_bond_atom_site_label_1
_geom_bond_atom_site_label_2
_geom_bond_site_symmetry_1
_geom_bond_site_symmetry_2
P1 F1 1_555 1_555
F2 P1 1_555 1_555
F3 P1 1_555 1_555
F4 P1 1_555 1_555
F5 P1 1_555 1_555
F6 P1 1_555 1_555
P2 F7 1_555 1_555
F8 P2 1_555 1_555
F9 P2 1_555 1_555
F10 P2 1_555 1_555
F11 P2 1_555 1_555
F12 P2 1_555 1_555
C1 H1 1_555 1_555
H2 C1 1_555 1_555
C2 C1 1_555 1_555
C3 C2 1_555 1_555
H3 C3 1_555 1_555
C4 C3 1_555 1_555
H4 C4 1_555 1_555
C5 C4 1_555 1_555
H5 C5 1_555 1_555
C6 C5 1_555 1_555
C7 C2 1_555 1_555
H6 C7 1_555 1_555
C8 C6 1_555 1_555
H7 C8 1_555 1_555
H8 C8 1_555 1_555
N1 C8 1_555 1_555
C9 N1 1_555 1_555
H9 C9 1_555 1_555
C10 C9 1_555 1_555
H10 C10 1_555 1_555
C11 C10 1_555 1_555
C12 C11 1_555 1_555
H11 C12 1_555 1_555
C13 N1 1_555 1_555
H12 C13 1_555 1_555
C14 C11 1_555 1_555
C15 C14 1_555 1_555
H13 C15 1_555 1_555
C16 C15 1_555 1_555
H14 C16 1_555 1_555
N2 C1 1_555 1_555
C17 N2 1_555 1_555
H15 C17 1_555 1_555
C18 C14 1_555 1_555
H16 C18 1_555 1_555
N2B C16 1_555 1_555
C1B N2B 1_555 1_555
H1B C1B 1_555 1_555
H2B C1B 1_555 1_555
C2B C1B 1_555 1_555
C3B C2B 1_555 1_555
H3B C3B 1_555 1_555
C4B C3B 1_555 1_555
H4B C4B 1_555 1_555
C5B C4B 1_555 1_555
H5B C5B 1_555 1_555
C6B C5B 1_555 1_555
C7B C2B 1_555 1_555
H6B C7B 1_555 1_555
C8B C6B 1_555 1_555
H7B C8B 1_555 1_555
H8B C8B 1_555 1_555
N1B C8B 1_555 1_555
C9B N1B 1_555 1_555
H9B C9B 1_555 1_555
C10B C9B 1_555 1_555
H10B C10B 1_555 1_555
C11B C10B 1_555 1_555
C12B C11B 1_555 1_555
H11B C12B 1_555 1_555
C13B N1B 1_555 1_555
H12B C13B 1_555 1_555
C14B C11B 1_555 1_555
C15B C14B 1_555 1_555
H13B C15B 1_555 1_555
C16B N2 1_555 1_555
H14B C16B 1_555 1_555
C18B C17 1_555 1_555
H16B C18B 1_555 1_555
C17B C18 1_555 1_555
H15B C17B 1_555 1_555
C6 C7 1_555 1_555
C12 C13 1_555 1_555
N2B C17B 1_555 1_555
C6B C7B 1_555 1_555
C12B C13B 1_555 1_555
C14B C18B 1_555 1_555
C15B C16B 1_555 1_555

#END
