
#######################################################################
#
#                 Cambridge Crystallographic Data Centre
#                                CCDC 
#
#######################################################################
#
# If this CIF has been generated from an entry in the Cambridge 
# Structural Database, then it will include bibliographic, chemical, 
# crystal, experimental, refinement or atomic coordinate data resulting 
# from the CCDC's data processing and validation procedures.
#
#######################################################################

data_RALNEY
_chemical_formula_moiety         'C17 H12 Cl1 N1 O1'
_chemical_name_systematic        4-Chloro-2-(1-naphthyliminomethyl)phenol
_symmetry_cell_setting           monoclinic
_symmetry_space_group_name_H-M   'P 21/c'
_symmetry_Int_Tables_number      14
_space_group_name_Hall           '-P 2ybc'
loop_
_symmetry_equiv_pos_site_id
_symmetry_equiv_pos_as_xyz
1 x,y,z
2 -x,1/2+y,1/2-z
3 -x,-y,-z
4 x,1/2-y,1/2+z
_cell_length_a                   24.733(9)
_cell_length_b                   4.420(2)
_cell_length_c                   12.376(4)
_cell_angle_alpha                90
_cell_angle_beta                 90.720(6)
_cell_angle_gamma                90
_cell_volume                     1352.84
_exptl_crystal_colour            yellow
_exptl_crystal_description       block
_cell_formula_units_Z            4
_exptl_crystal_recrystallization_method methanol
loop_
_atom_site_label
_atom_site_type_symbol
_atom_site_fract_x
_atom_site_fract_y
_atom_site_fract_z
Cl1 Cl 0.03427(3) -0.39243(19) 0.83960(7)
O1 O 0.19416(9) 0.3534(6) 1.06843(15)
H1 H 0.2196 0.3928 1.0291
N1 N 0.24917(9) 0.3722(5) 0.88814(17)
C1 C 0.20960(12) 0.2278(6) 0.8442(2)
H2 H 0.2101 0.1939 0.7701
C2 C 0.16439(11) 0.1157(6) 0.9047(2)
C3 C 0.15770(12) 0.1819(7) 1.0136(2)
C4 C 0.11334(13) 0.0730(7) 1.0673(2)
H3 H 0.1090 0.1199 1.1400
C5 C 0.07540(13) -0.1038(7) 1.0155(3)
H4 H 0.0457 -0.1773 1.0525
C6 C 0.08215(12) -0.1707(6) 0.9070(3)
C7 C 0.12580(12) -0.0627(6) 0.8527(2)
H5 H 0.1298 -0.1091 0.7799
C8 C 0.29027(12) 0.4870(6) 0.8213(2)
C9 C 0.27781(13) 0.6525(7) 0.7304(2)
H6 H 0.2419 0.6768 0.7087
C10 C 0.31936(15) 0.7851(7) 0.6701(3)
H7 H 0.3106 0.9002 0.6095
C11 C 0.37128(15) 0.7482(7) 0.6985(3)
H8 H 0.3980 0.8413 0.6582
C12 C 0.38615(12) 0.5697(7) 0.7890(2)
C13 C 0.44047(14) 0.5154(8) 0.8177(3)
H9 H 0.4677 0.6007 0.7765
C14 C 0.45397(14) 0.3422(8) 0.9037(3)
H10 H 0.4901 0.3091 0.9216
C15 C 0.41305(14) 0.2125(8) 0.9661(3)
H11 H 0.4224 0.0932 1.0253
C16 C 0.36038(12) 0.2580(7) 0.9414(2)
H12 H 0.3339 0.1685 0.9834
C17 C 0.34499(12) 0.4411(6) 0.8520(2)
loop_
_geom_bond_atom_site_label_1
_geom_bond_atom_site_label_2
_geom_bond_site_symmetry_1
_geom_bond_site_symmetry_2
Cl1 C6 1_555 1_555
O1 H1 1_555 1_555
N1 C1 1_555 1_555
C1 H2 1_555 1_555
C2 C1 1_555 1_555
C3 O1 1_555 1_555
C4 C3 1_555 1_555
H3 C4 1_555 1_555
C5 C4 1_555 1_555
H4 C5 1_555 1_555
C6 C5 1_555 1_555
C7 C2 1_555 1_555
H5 C7 1_555 1_555
C8 N1 1_555 1_555
C9 C8 1_555 1_555
H6 C9 1_555 1_555
C10 C9 1_555 1_555
H7 C10 1_555 1_555
C11 C10 1_555 1_555
H8 C11 1_555 1_555
C12 C11 1_555 1_555
C13 C12 1_555 1_555
H9 C13 1_555 1_555
C14 C13 1_555 1_555
H10 C14 1_555 1_555
C15 C14 1_555 1_555
H11 C15 1_555 1_555
C16 C15 1_555 1_555
H12 C16 1_555 1_555
C17 C8 1_555 1_555
C2 C3 1_555 1_555
C6 C7 1_555 1_555
C12 C17 1_555 1_555
C16 C17 1_555 1_555

#END
