
#######################################################################
#
#                 Cambridge Crystallographic Data Centre
#                                CCDC 
#
#######################################################################
#
# If this CIF has been generated from an entry in the Cambridge 
# Structural Database, then it will include bibliographic, chemical, 
# crystal, experimental, refinement or atomic coordinate data resulting 
# from the CCDC's data processing and validation procedures.
#
#######################################################################

data_RALNIC
_chemical_formula_moiety         'C11 H18 O2'
_chemical_name_systematic        
'(1S*,4aR*,8aR*)-Decahydronaphthalene-1-carboxylic acid'
_symmetry_cell_setting           monoclinic
_symmetry_space_group_name_H-M   'C 2/c'
_symmetry_Int_Tables_number      15
_space_group_name_Hall           '-C 2yn'
loop_
_symmetry_equiv_pos_site_id
_symmetry_equiv_pos_as_xyz
1 x,y,z
2 1/2+x,1/2+y,z
3 -x,y,1/2-z
4 1/2-x,1/2+y,1/2-z
5 -x,-y,-z
6 1/2-x,1/2-y,-z
7 x,-y,1/2+z
8 1/2+x,1/2-y,1/2+z
_cell_length_a                   21.893(9)
_cell_length_b                   7.756(3)
_cell_length_c                   13.187(7)
_cell_angle_alpha                90
_cell_angle_beta                 112.23(3)
_cell_angle_gamma                90
_cell_volume                     2072.75
_exptl_crystal_colour            colorless
_exptl_crystal_description       parallelepiped
_chemical_melting_point          '398 K'
_cell_formula_units_Z            8
_exptl_crystal_recrystallization_method acetonitrile
loop_
_atom_site_label
_atom_site_type_symbol
_atom_site_fract_x
_atom_site_fract_y
_atom_site_fract_z
O1 O -0.00037(8) 0.2084(3) 0.62532(14)
O2 O 0.08808(8) 0.2009(3) 0.77931(14)
H1 H 0.0600 0.2041 0.8063
C1 C 0.10653(11) 0.2284(3) 0.61498(19)
H2 H 0.1394 0.1365 0.6428
C2 C 0.07311(13) 0.2022(4) 0.4917(2)
H3 H 0.0532 0.0885 0.4770
H4 H 0.0383 0.2869 0.4616
C3 C 0.12229(15) 0.2198(4) 0.4361(2)
H5 H 0.1541 0.1266 0.4597
H6 H 0.0992 0.2106 0.3574
C4 C 0.19256(11) 0.4179(3) 0.5868(2)
H7 H 0.2252 0.3255 0.6146
C5 C 0.15837(14) 0.3915(4) 0.4633(2)
H8 H 0.1271 0.4844 0.4325
H9 H 0.1910 0.3960 0.4300
C6 C 0.22985(13) 0.5889(4) 0.6168(2)
H10 H 0.2582 0.5869 0.6939
H11 H 0.2578 0.6008 0.5751
C7 C 0.18456(15) 0.7443(4) 0.5951(2)
H12 H 0.2108 0.8478 0.6208
H13 H 0.1601 0.7559 0.5169
C8 C 0.13669(14) 0.7256(3) 0.6527(2)
H14 H 0.1059 0.8214 0.6325
H15 H 0.1610 0.7303 0.7313
C9 C 0.14411(11) 0.4015(3) 0.64530(18)
H16 H 0.1704 0.3987 0.7242
C10 C 0.09837(11) 0.5575(3) 0.6236(2)
H17 H 0.0695 0.5594 0.5468
H18 H 0.0710 0.5468 0.6665
C11 C 0.05952(12) 0.2105(3) 0.67261(19)
loop_
_geom_bond_atom_site_label_1
_geom_bond_atom_site_label_2
_geom_bond_site_symmetry_1
_geom_bond_site_symmetry_2
O1 C11 1_555 1_555
O2 H1 1_555 1_555
C1 H2 1_555 1_555
C2 C1 1_555 1_555
H3 C2 1_555 1_555
H4 C2 1_555 1_555
C3 C2 1_555 1_555
H5 C3 1_555 1_555
H6 C3 1_555 1_555
C4 H7 1_555 1_555
C5 C3 1_555 1_555
H8 C5 1_555 1_555
H9 C5 1_555 1_555
C6 C4 1_555 1_555
H10 C6 1_555 1_555
H11 C6 1_555 1_555
C7 C6 1_555 1_555
H12 C7 1_555 1_555
H13 C7 1_555 1_555
C8 C7 1_555 1_555
H14 C8 1_555 1_555
H15 C8 1_555 1_555
C9 C1 1_555 1_555
H16 C9 1_555 1_555
C10 C8 1_555 1_555
H17 C10 1_555 1_555
H18 C10 1_555 1_555
C11 O2 1_555 1_555
C1 C11 1_555 1_555
C4 C5 1_555 1_555
C4 C9 1_555 1_555
C9 C10 1_555 1_555

#END
