
#######################################################################
#
#                 Cambridge Crystallographic Data Centre
#                                CCDC 
#
#######################################################################
#
# If this CIF has been generated from an entry in the Cambridge 
# Structural Database, then it will include bibliographic, chemical, 
# crystal, experimental, refinement or atomic coordinate data resulting 
# from the CCDC's data processing and validation procedures.
#
#######################################################################

data_RALPUQ
_chemical_formula_moiety         'C3 H7 N6 1+,C7 H7 O3 S1 1-,H2 O1'
_chemical_name_systematic        
'2,4,6-Triamino-1,3,5-triazinium 4-methylbenzenesulfonate monohydrate'
_symmetry_cell_setting           triclinic
_symmetry_space_group_name_H-M   'P -1'
_symmetry_Int_Tables_number      2
_space_group_name_Hall           '-P 1'
loop_
_symmetry_equiv_pos_site_id
_symmetry_equiv_pos_as_xyz
1 x,y,z
2 -x,-y,-z
_cell_length_a                   6.413(2)
_cell_length_b                   7.285(3)
_cell_length_c                   15.654(6)
_cell_angle_alpha                97.229(4)
_cell_angle_beta                 92.625(4)
_cell_angle_gamma                105.200(5)
_cell_volume                     697.765
_exptl_crystal_colour            colorless
_exptl_crystal_description       block
_cell_formula_units_Z            2
loop_
_atom_site_label
_atom_site_type_symbol
_atom_site_fract_x
_atom_site_fract_y
_atom_site_fract_z
C1 C 0.0845(4) -0.0442(3) 0.36997(14)
C2 C -0.0203(4) 0.2377(3) 0.41337(14)
C3 C 0.2759(4) 0.1817(3) 0.47799(14)
N1 N -0.0518(3) 0.0677(3) 0.36058(12)
H8 H -0.1570 0.0328 0.3206
N2 N 0.1437(3) 0.2976(3) 0.47373(11)
N3 N 0.2521(3) 0.0096(3) 0.42874(11)
N4 N 0.0446(3) -0.2096(3) 0.31868(13)
H9 H 0.1279 -0.2838 0.3232
H10 H -0.0647 -0.2432 0.2807
N5 N -0.1587(3) 0.3396(3) 0.40275(13)
H11 H -0.1437 0.4473 0.4353
H12 H -0.2643 0.2986 0.3632
N6 N 0.4437(3) 0.2380(3) 0.53633(13)
H13 H 0.4655 0.3453 0.5700
H14 H 0.5310 0.1674 0.5407
C4 C 0.2549(4) 0.3603(3) 0.14984(14)
C5 C 0.0342(4) 0.3040(4) 0.15662(16)
H1 H -0.0200 0.3084 0.2107
C6 C -0.1057(5) 0.2411(4) 0.08306(18)
H2 H -0.2541 0.2019 0.0883
C7 C -0.0302(5) 0.2348(3) 0.00161(17)
C8 C 0.1900(5) 0.2911(4) -0.00367(17)
H3 H 0.2441 0.2874 -0.0578
C9 C 0.3337(4) 0.3533(4) 0.06931(16)
H4 H 0.4822 0.3902 0.0641
C10 C -0.1853(6) 0.1713(5) -0.0787(2)
H5 H -0.1850 0.2802 -0.1074
H6 H -0.3288 0.1161 -0.0629
H7 H -0.1408 0.0772 -0.1167
O1 O 0.4634(4) 0.2698(3) 0.27570(16)
O2 O 0.6307(4) 0.5572(4) 0.21955(15)
O3 O 0.3317(4) 0.5405(4) 0.30458(14)
S1 S 0.43455(10) 0.43803(8) 0.24367(4)
O4 O 0.6169(4) 0.9556(3) 0.23680(15)
H15 H 0.5420 0.8392 0.2263
H16 H 0.5315 1.0266 0.2453
loop_
_geom_bond_atom_site_label_1
_geom_bond_atom_site_label_2
_geom_bond_site_symmetry_1
_geom_bond_site_symmetry_2
C1 N1 1_555 1_555
C2 N1 1_555 1_555
C3 N2 1_555 1_555
C4 C5 1_555 1_555
C5 H1 1_555 1_555
C6 C5 1_555 1_555
H2 C6 1_555 1_555
C7 C6 1_555 1_555
C8 C7 1_555 1_555
H3 C8 1_555 1_555
C9 C4 1_555 1_555
H4 C9 1_555 1_555
C10 C7 1_555 1_555
H5 C10 1_555 1_555
H6 C10 1_555 1_555
H7 C10 1_555 1_555
N1 H8 1_555 1_555
N2 C2 1_555 1_555
N3 C1 1_555 1_555
N4 C1 1_555 1_555
H9 N4 1_555 1_555
H10 N4 1_555 1_555
N5 C2 1_555 1_555
H11 N5 1_555 1_555
H12 N5 1_555 1_555
N6 C3 1_555 1_555
H13 N6 1_555 1_555
H14 N6 1_555 1_555
O1 S1 1_555 1_555
O2 S1 1_555 1_555
O3 S1 1_555 1_555
O4 H15 1_555 1_555
H16 O4 1_555 1_555
S1 C4 1_555 1_555
C3 N3 1_555 1_555
C8 C9 1_555 1_555

#END
