
#######################################################################
#
#                 Cambridge Crystallographic Data Centre
#                                CCDC 
#
#######################################################################
#
# If this CIF has been generated from an entry in the Cambridge 
# Structural Database, then it will include bibliographic, chemical, 
# crystal, experimental, refinement or atomic coordinate data resulting 
# from the CCDC's data processing and validation procedures.
#
#######################################################################

data_RALQOL
_chemical_formula_moiety         'C38 H42 N4 O4 S1'
_chemical_name_systematic        
2-Benzoyl-1-t-butyl-2-(2-t-butyl-1,2-dibenzoylhydrazinosulfanyl)-1-(3,5-dimethylbenzoyl)hydrazine
_symmetry_cell_setting           monoclinic
_symmetry_space_group_name_H-M   'P 21/c'
_symmetry_Int_Tables_number      14
_space_group_name_Hall           '-P 2ybc'
loop_
_symmetry_equiv_pos_site_id
_symmetry_equiv_pos_as_xyz
1 x,y,z
2 -x,1/2+y,1/2-z
3 -x,-y,-z
4 x,1/2-y,1/2+z
_cell_length_a                   15.641(2)
_cell_length_b                   14.2886(18)
_cell_length_c                   17.112(2)
_cell_angle_alpha                90
_cell_angle_beta                 112.678(2)
_cell_angle_gamma                90
_cell_volume                     3528.65
_exptl_crystal_colour            colorless
_exptl_crystal_description       block
_cell_formula_units_Z            4
_exptl_crystal_recrystallization_method 'isopropyl alcohol'
loop_
_atom_site_label
_atom_site_type_symbol
_atom_site_fract_x
_atom_site_fract_y
_atom_site_fract_z
S1 S 0.18276(4) 0.09890(4) 0.10579(4)
O1 O 0.29865(12) 0.28107(12) 0.06513(12)
O2 O 0.05065(13) 0.10526(12) -0.07091(12)
O3 O 0.43902(12) 0.07635(13) 0.14164(10)
O4 O 0.26605(16) -0.17598(12) 0.05474(12)
N1 N 0.15804(12) 0.28328(11) 0.07351(11)
N2 N 0.14677(12) 0.19232(11) 0.03928(11)
N3 N 0.28458(12) 0.06103(11) 0.10537(11)
N4 N 0.28456(12) -0.01929(12) 0.05739(11)
C1 C 0.32239(18) 0.44721(17) 0.18972(17)
H1 H 0.3497 0.4001 0.2289
C2 C 0.3450(2) 0.5398(2) 0.2120(2)
H2 H 0.3867 0.5549 0.2662
C3 C 0.3060(2) 0.6091(2) 0.1540(2)
H3 H 0.3207 0.6714 0.1692
C4 C 0.2460(2) 0.58760(18) 0.0744(2)
H4 H 0.2209 0.6350 0.0349
C5 C 0.2219(2) 0.49538(17) 0.05198(17)
H5 H 0.1802 0.4811 -0.0024
C6 C 0.25971(16) 0.42423(15) 0.11004(15)
C7 C 0.24138(17) 0.32377(15) 0.08267(14)
C8 C 0.09228(16) 0.31254(15) 0.11553(15)
C9 C 0.04404(19) 0.40447(16) 0.07732(19)
H6 H 0.0887 0.4542 0.0923
H7 H -0.0029 0.4180 0.0989
H8 H 0.0160 0.3988 0.0168
C10 C 0.1456(2) 0.3223(2) 0.21053(16)
H9 H 0.1809 0.2665 0.2322
H10 H 0.1028 0.3317 0.2377
H11 H 0.1867 0.3750 0.2217
C11 C 0.01709(19) 0.23853(18) 0.09930(19)
H12 H -0.0179 0.2330 0.0395
H13 H -0.0234 0.2565 0.1269
H14 H 0.0453 0.1794 0.1213
C12 C 0.08226(16) 0.18109(16) -0.04441(15)
C13 C 0.05762(18) 0.26693(16) -0.09861(14)
C14 C 0.1223(2) 0.31205(18) -0.12003(16)
H15 H 0.1840 0.2934 -0.0962
C15 C 0.0963(2) 0.38597(19) -0.17739(16)
H16 H 0.1403 0.4167 -0.1922
C16 C 0.0047(3) 0.4132(2) -0.21215(17)
H17 H -0.0131 0.4623 -0.2508
C17 C -0.0596(2) 0.3689(2) -0.19025(19)
H18 H -0.1210 0.3887 -0.2130
C18 C -0.03452(19) 0.29474(18) -0.13448(17)
H19 H -0.0791 0.2634 -0.1209
C19 C 0.37300(17) 0.09525(15) 0.15817(14)
C20 C 0.38369(16) 0.14825(15) 0.23660(14)
C21 C 0.45140(18) 0.21683(17) 0.26232(16)
H20 H 0.4810 0.2346 0.2268
C22 C 0.4751(2) 0.2588(2) 0.34026(19)
H21 H 0.5200 0.3054 0.3568
C23 C 0.4336(2) 0.2327(2) 0.39305(18)
H22 H 0.4501 0.2615 0.4456
C24 C 0.3668(2) 0.1637(2) 0.36929(16)
H23 H 0.3389 0.1454 0.4060
C25 C 0.34160(17) 0.12190(17) 0.29072(15)
H24 H 0.2961 0.0758 0.2743
C26 C 0.28963(18) -0.01368(17) -0.02868(14)
C27 C 0.3011(2) 0.08817(18) -0.04878(16)
H25 H 0.2485 0.1236 -0.0497
H26 H 0.3055 0.0921 -0.1031
H27 H 0.3565 0.1131 -0.0062
C28 C 0.2007(2) -0.0523(2) -0.09553(17)
H28 H 0.1968 -0.1182 -0.0868
H29 H 0.2010 -0.0416 -0.1508
H30 H 0.1483 -0.0213 -0.0911
C29 C 0.3740(2) -0.0698(2) -0.02618(18)
H31 H 0.4284 -0.0473 0.0191
H32 H 0.3814 -0.0627 -0.0790
H33 H 0.3650 -0.1348 -0.0171
C30 C 0.27883(18) -0.10227(17) 0.09388(16)
C31 C 0.29158(19) -0.10267(15) 0.18538(16)
C32 C 0.2164(2) -0.11522(16) 0.20802(19)
H34 H 0.1568 -0.1166 0.1664
C33 C 0.2297(3) -0.12578(19) 0.2927(2)
C34 C 0.3190(3) -0.1218(2) 0.3531(2)
H35 H 0.3282 -0.1297 0.4097
C35 C 0.3951(2) -0.1067(2) 0.33262(18)
C36 C 0.3799(2) -0.09913(17) 0.24762(17)
H36 H 0.4303 -0.0915 0.2321
C37 C 0.1478(3) -0.1428(2) 0.3175(2)
H37 H 0.0919 -0.1228 0.2724
H38 H 0.1560 -0.1081 0.3679
H39 H 0.1437 -0.2084 0.3278
C38 C 0.4921(3) -0.0956(3) 0.4003(2)
H40 H 0.5273 -0.1514 0.4025
H41 H 0.4883 -0.0856 0.4543
H42 H 0.5221 -0.0431 0.3867
loop_
_geom_bond_atom_site_label_1
_geom_bond_atom_site_label_2
_geom_bond_site_symmetry_1
_geom_bond_site_symmetry_2
S1 N2 1_555 1_555
O1 C7 1_555 1_555
O2 C12 1_555 1_555
O3 C19 1_555 1_555
O4 C30 1_555 1_555
N1 N2 1_555 1_555
N2 C12 1_555 1_555
N3 S1 1_555 1_555
N4 N3 1_555 1_555
C1 H1 1_555 1_555
C2 C1 1_555 1_555
H2 C2 1_555 1_555
C3 C2 1_555 1_555
H3 C3 1_555 1_555
C4 C3 1_555 1_555
H4 C4 1_555 1_555
C5 C4 1_555 1_555
H5 C5 1_555 1_555
C6 C1 1_555 1_555
C7 N1 1_555 1_555
C8 N1 1_555 1_555
C9 C8 1_555 1_555
H6 C9 1_555 1_555
H7 C9 1_555 1_555
H8 C9 1_555 1_555
C10 C8 1_555 1_555
H9 C10 1_555 1_555
H10 C10 1_555 1_555
H11 C10 1_555 1_555
C11 C8 1_555 1_555
H12 C11 1_555 1_555
H13 C11 1_555 1_555
H14 C11 1_555 1_555
C12 C13 1_555 1_555
C13 C14 1_555 1_555
C14 H15 1_555 1_555
C15 C14 1_555 1_555
H16 C15 1_555 1_555
C16 C15 1_555 1_555
H17 C16 1_555 1_555
C17 C16 1_555 1_555
H18 C17 1_555 1_555
C18 C13 1_555 1_555
H19 C18 1_555 1_555
C19 N3 1_555 1_555
C20 C19 1_555 1_555
C21 C20 1_555 1_555
H20 C21 1_555 1_555
C22 C21 1_555 1_555
H21 C22 1_555 1_555
C23 C22 1_555 1_555
H22 C23 1_555 1_555
C24 C23 1_555 1_555
H23 C24 1_555 1_555
C25 C20 1_555 1_555
H24 C25 1_555 1_555
C26 N4 1_555 1_555
C27 C26 1_555 1_555
H25 C27 1_555 1_555
H26 C27 1_555 1_555
H27 C27 1_555 1_555
C28 C26 1_555 1_555
H28 C28 1_555 1_555
H29 C28 1_555 1_555
H30 C28 1_555 1_555
C29 C26 1_555 1_555
H31 C29 1_555 1_555
H32 C29 1_555 1_555
H33 C29 1_555 1_555
C30 N4 1_555 1_555
C31 C30 1_555 1_555
C32 C31 1_555 1_555
H34 C32 1_555 1_555
C33 C32 1_555 1_555
C34 C33 1_555 1_555
H35 C34 1_555 1_555
C35 C34 1_555 1_555
C36 C31 1_555 1_555
H36 C36 1_555 1_555
C37 C33 1_555 1_555
H37 C37 1_555 1_555
H38 C37 1_555 1_555
H39 C37 1_555 1_555
C38 C35 1_555 1_555
H40 C38 1_555 1_555
H41 C38 1_555 1_555
H42 C38 1_555 1_555
C5 C6 1_555 1_555
C6 C7 1_555 1_555
C17 C18 1_555 1_555
C24 C25 1_555 1_555
C35 C36 1_555 1_555

#END
