
#######################################################################
#
#                 Cambridge Crystallographic Data Centre
#                                CCDC 
#
#######################################################################
#
# If this CIF has been generated from an entry in the Cambridge 
# Structural Database, then it will include bibliographic, chemical, 
# crystal, experimental, refinement or atomic coordinate data resulting 
# from the CCDC's data processing and validation procedures.
#
#######################################################################

data_RALQEA
_chemical_formula_moiety         'C78 H108 O6,3.5(C13 H10 O1)'
_chemical_name_systematic        
'5,11,17,23,29,35-Hexa-t-butyl-hexa-O-ethylcalix(6)arene benzophenone clathrate'
_symmetry_cell_setting           triclinic
_symmetry_space_group_name_H-M   'P -1'
_symmetry_Int_Tables_number      2
_space_group_name_Hall           '-P 1'
loop_
_symmetry_equiv_pos_site_id
_symmetry_equiv_pos_as_xyz
1 x,y,z
2 -x,-y,-z
_cell_length_a                   17.2646(9)
_cell_length_b                   19.343(1)
_cell_length_c                   19.757(1)
_cell_angle_alpha                63.544(1)
_cell_angle_beta                 77.581(1)
_cell_angle_gamma                82.477(1)
_cell_volume                     5764.02
_exptl_crystal_colour            colorless
_exptl_crystal_description       rod
_cell_formula_units_Z            2
loop_
_atom_site_label
_atom_site_type_symbol
_atom_site_fract_x
_atom_site_fract_y
_atom_site_fract_z
C1 C 0.7133(4) 0.5608(3) 1.2173(3)
C2 C 0.4105(4) 0.8811(2) 0.9552(3)
C5 C 0.6914(3) 0.4636(3) 1.1745(3)
C6 C 0.4250(3) 0.8529(3) 0.7137(3)
C7 C 0.3735(3) 0.7313(3) 0.8244(3)
C9 C 0.5450(2) 0.5970(2) 0.5464(3)
C10 C 0.4227(3) 0.7346(3) 0.6936(3)
C12 C 0.8699(2) 0.6521(3) 0.8502(3)
C15 C 0.6826(2) 0.5423(3) 0.5225(2)
C19 C 0.6268(2) 0.4873(3) 0.9869(2)
C21 C 0.5689(3) 0.4585(2) 0.5743(2)
C25 C 0.7143(2) 0.5478(2) 1.1428(2)
C29 C 0.80465(18) 0.6948(2) 0.8086(2)
C31 C 0.58978(19) 0.4869(2) 0.92575(19)
C35 C 0.4359(2) 0.76475(19) 0.75117(19)
C41 C 0.65151(17) 0.60311(17) 1.09934(17)
C42 C 0.67006(17) 0.65883(17) 1.02500(17)
C47 C 0.51836(18) 0.74049(17) 0.77305(17)
C48 C 0.60134(17) 0.52724(18) 0.57561(17)
C50 C 0.57125(19) 0.69153(18) 0.74950(18)
C52 C 0.4650(2) 0.82627(18) 1.0030(2)
C54 C 0.57169(17) 0.59803(17) 1.13506(18)
C56 C 0.61332(17) 0.71139(16) 0.98551(16)
C57 C 0.70068(19) 0.61105(19) 0.7499(2)
C61 C 0.63470(19) 0.76848(18) 0.90325(17)
C63 C 0.63423(16) 0.48423(17) 0.80320(16)
C66 C 0.54149(18) 0.76561(17) 0.82169(17)
C67 C 0.61164(16) 0.51109(16) 0.65682(17)
C69 C 0.64416(17) 0.66546(16) 0.77507(16)
C71 C 0.64754(17) 0.56455(17) 0.66793(18)
C75 C 0.58677(16) 0.44472(17) 0.72139(17)
C76 C 0.59737(16) 0.42962(16) 0.79460(17)
C78 C 0.51290(17) 0.64929(16) 1.09922(16)
C81 C 0.61304(17) 0.74197(16) 0.84799(16)
C83 C 0.65951(17) 0.55268(17) 0.73951(17)
C85 C 0.53513(16) 0.70709(16) 1.02423(16)
C87 C 0.66348(16) 0.69085(16) 0.82483(16)
C113 C 0.42666(18) 0.64579(18) 1.13730(19)
C115 C 0.7959(3) 0.5626(4) 1.0980(4)
H2 H 0.8735(15) 0.5870(15) 0.8626(15)
H4 H 0.452(2) 0.810(2) 1.056(2)
H5 H 0.4984(17) 0.7974(16) 0.8432(16)
H6 H 0.550(2) 0.451(2) 0.949(2)
H8 H 0.4141(16) 0.6825(16) 1.1550(16)
H9 H 0.567(3) 0.467(3) 0.531(3)
H10 H 0.6729(17) 0.6088(17) 0.6218(16)
H14 H 0.7224(18) 0.6616(17) 1.0049(17)
H15 H 0.3635(17) 0.8543(17) 0.9749(16)
H16 H 0.5655(19) 0.5456(19) 0.8906(18)
H17 H 0.5693(17) 0.4109(17) 0.7134(17)
H19 H 0.521(2) 0.8497(19) 0.9844(19)
H21 H 0.504(2) 0.588(2) 0.581(2)
H22 H 0.6919(16) 0.7765(16) 0.8941(16)
H23 H 0.5545(16) 0.6732(16) 0.7180(15)
H24 H 0.7421(16) 0.5853(15) 0.7861(15)
H25 H 0.532(2) 0.605(2) 0.495(2)
H26 H 0.573(3) 0.640(3) 0.552(3)
H27 H 0.6059(16) 0.8142(16) 0.8996(15)
H28 H 0.7334(19) 0.6460(19) 0.6888(18)
H29 H 0.510(2) 0.440(2) 0.615(2)
H30 H 0.8193(19) 0.6964(19) 0.7520(19)
H31 H 0.303(2) 0.740(2) 0.810(2)
H33 H 0.371(2) 0.863(2) 0.694(2)
H34 H 0.574(2) 0.4976(19) 1.0298(18)
H35 H 0.372(2) 0.674(2) 0.839(2)
H36 H 0.6508(19) 0.4323(18) 1.0149(18)
H37 H 0.6778(19) 0.5531(18) 0.4772(18)
H38 H 0.3956(18) 0.6557(17) 1.0993(17)
H39 H 0.8022(16) 0.7490(16) 0.7985(16)
H40 H 0.5956(18) 0.4082(18) 0.6021(18)
H41 H 0.6639(19) 0.5333(18) 0.9623(18)
H42 H 0.731(2) 0.492(2) 0.542(2)
H43 H 0.5548(16) 0.5577(15) 1.1898(15)
H44 H 0.916(2) 0.671(2) 0.812(2)
H45 H 0.422(2) 0.873(2) 0.750(2)
H46 H 0.701(2) 0.583(2) 0.520(2)
H48 H 0.434(3) 0.674(3) 0.710(3)
H99 H 0.361(2) 0.766(2) 0.679(2)
H112 H 0.433(3) 0.898(2) 0.894(2)
O2 O 0.65295(12) 0.46968(13) 0.87321(11)
O3 O 0.73201(11) 0.66084(11) 0.85682(11)
O5 O 0.47777(11) 0.75929(10) 0.98767(10)
C113A C 0.57334(18) 0.35421(18) 0.86270(19)
C78A C 0.48710(17) 0.35071(16) 0.90078(16)
C54A C 0.42831(17) 0.40197(17) 0.86494(18)
C41A C 0.34849(17) 0.39689(17) 0.90066(17)
C25A C 0.2857(2) 0.4522(2) 0.8572(2)
C1A C 0.2867(4) 0.4392(3) 0.7827(3)
C5A C 0.3086(3) 0.5364(3) 0.8255(3)
C115A C 0.2041(3) 0.4374(4) 0.9020(4)
C42A C 0.32994(17) 0.34117(17) 0.97500(17)
C56A C 0.38668(17) 0.28861(16) 1.01449(16)
C61A C 0.36530(19) 0.23152(18) 1.09675(17)
C81A C 0.38696(17) 0.25803(16) 1.15201(16)
C66A C 0.45851(18) 0.23439(17) 1.17831(17)
C47A C 0.48164(18) 0.25951(17) 1.22695(17)
C35A C 0.5641(2) 0.23525(19) 1.24883(19)
C6A C 0.5750(3) 0.1471(3) 1.2863(3)
H33A H 0.629(2) 0.137(2) 1.306(2)
H45A H 0.578(2) 0.127(2) 1.250(2)
C7A C 0.6265(3) 0.2687(3) 1.1756(3)
H31A H 0.697(2) 0.260(2) 1.190(2)
H35A H 0.628(2) 0.326(2) 1.161(2)
C10A C 0.5773(3) 0.2654(3) 1.3064(3)
H48A H 0.566(3) 0.326(3) 1.290(3)
H99A H 0.639(2) 0.234(2) 1.321(2)
C50A C 0.42875(19) 0.30847(18) 1.25050(18)
C69A C 0.35584(17) 0.33454(16) 1.22493(16)
C57A C 0.29932(19) 0.38895(19) 1.2501(2)
C83A C 0.34049(17) 0.44732(17) 1.26049(17)
C63A C 0.36577(16) 0.51577(17) 1.19680(16)
C76A C 0.40263(16) 0.57038(16) 1.20540(17)
C75A C 0.41323(16) 0.55528(17) 1.27861(17)
C67A C 0.38836(16) 0.48891(16) 1.34318(17)
C48A C 0.39866(17) 0.47276(18) 1.42439(17)
C9A C 0.4550(2) 0.4030(2) 1.4536(3)
H21A H 0.496(2) 0.412(2) 1.419(2)
H25A H 0.468(2) 0.395(2) 1.505(2)
H26A H 0.427(3) 0.360(3) 1.448(3)
C15A C 0.3174(2) 0.4577(3) 1.4775(2)
H37A H 0.3222(19) 0.4469(18) 1.5228(18)
H42A H 0.269(2) 0.508(2) 1.458(2)
H46A H 0.299(2) 0.417(2) 1.480(2)
C21A C 0.4311(3) 0.5415(2) 1.4257(2)
H9A H 0.433(3) 0.533(3) 1.469(3)
H29A H 0.490(2) 0.560(2) 1.385(2)
H40A H 0.4044(18) 0.5918(18) 1.3979(18)
C71A C 0.35246(17) 0.43545(17) 1.33207(18)
H10A H 0.3271(17) 0.3912(17) 1.3782(16)
H17A H 0.4307(17) 0.5891(17) 1.2866(17)
O2A O 0.34705(12) 0.53032(13) 1.12679(11)
C31A C 0.41022(19) 0.5131(2) 1.07425(19)
C19A C 0.3732(2) 0.5127(3) 1.0131(2)
H34A H 0.426(2) 0.5024(19) 0.9702(18)
H36A H 0.3492(19) 0.5677(18) 0.9851(18)
H41A H 0.3361(19) 0.4667(18) 1.0377(18)
H6A H 0.450(2) 0.549(2) 1.051(2)
H16A H 0.4345(19) 0.4544(19) 1.1094(18)
H24A H 0.2579(16) 0.4147(15) 1.2139(15)
H28A H 0.2666(19) 0.3540(19) 1.3112(18)
C87A C 0.33652(16) 0.30915(16) 1.17517(16)
O3A O 0.26799(11) 0.33916(11) 1.14318(11)
C29A C 0.19535(18) 0.3052(2) 1.1914(2)
C12A C 0.1301(2) 0.3479(3) 1.1498(3)
H2A H 0.1265(15) 0.4130(15) 1.1374(15)
H44A H 0.084(2) 0.329(2) 1.188(2)
H30A H 0.1807(19) 0.3036(19) 1.2480(19)
H39A H 0.1978(16) 0.2510(16) 1.2015(16)
H23A H 0.4455(16) 0.3268(16) 1.2820(15)
H5A H 0.5016(17) 0.2026(16) 1.1568(16)
H22A H 0.3081(16) 0.2235(16) 1.1059(16)
H27A H 0.3941(16) 0.1858(16) 1.1004(15)
C85A C 0.46487(16) 0.29291(16) 0.97577(16)
O5A O 0.52223(11) 0.24071(10) 1.01233(10)
C52A C 0.5350(2) 0.17373(18) 0.9970(2)
C2A C 0.5895(4) 0.1189(2) 1.0448(3)
H15A H 0.6365(17) 0.1457(17) 1.0251(16)
H112A H 0.567(3) 0.102(2) 1.106(2)
H4A H 0.548(2) 0.190(2) 0.944(2)
H19A H 0.479(2) 0.1503(19) 1.0156(19)
H14A H 0.2776(18) 0.3384(17) 0.9951(17)
H43A H 0.4452(16) 0.4423(15) 0.8102(15)
H8A H 0.5859(16) 0.3175(16) 0.8450(16)
H38A H 0.6044(18) 0.3443(17) 0.9007(17)
C3 C -0.4272(2) 0.8138(3) 0.4698(3)
C4 C -0.1369(3) 0.5959(3) 0.3171(3)
C8 C -0.0653(3) 0.7207(4) 0.2406(2)
C11 C -0.4402(2) 0.9415(3) 0.4766(3)
C13 C 0.0180(2) 1.1987(3) 0.3639(3)
C14 C -0.1322(2) 1.0278(3) 0.1254(3)
C16 C 0.0065(3) 0.5742(3) 0.7037(2)
C17 C 0.5921(2) 0.7621(3) 0.1741(3)
C18 C -0.0347(2) 1.1744(2) 0.3295(3)
C20 C 0.1795(3) 1.1890(3) -0.0672(2)
C22 C 0.06600(19) 0.8363(3) 0.4322(2)
C23 C 0.0934(2) 0.9119(3) 0.1925(3)
C24 C 0.6056(2) 0.8914(2) 0.1683(3)
C26 C -0.2075(2) 0.7210(3) 0.3029(2)
C27 C -0.12726(18) 0.6776(2) 0.31040(18)
C28 C 0.5543(2) 0.7837(3) 0.2932(2)
C30 C -0.39274(18) 0.8895(2) 0.4400(2)
C32 C -0.01185(19) 0.8656(2) 0.4057(2)
C33 C 0.2237(2) 0.9841(2) 0.41053(19)
C34 C 0.1593(2) 0.5752(3) 0.2375(3)
C36 C 0.2159(2) 1.17247(19) 0.00014(17)
C37 C 0.3073(2) 0.6291(2) 0.58585(19)
C38 C -0.13049(19) 1.02761(19) 0.2544(2)
C39 C 0.2777(2) 1.11658(19) 0.35298(19)
C40 C -0.15110(19) 0.73287(19) 0.54375(18)
C43 C -0.1377(2) 1.0218(2) 0.3872(2)
C44 C -0.0385(2) 0.58116(19) 0.64378(17)
C45 C 0.22216(19) 0.7497(2) 0.5577(2)
C46 C 0.3658(2) 1.0062(2) 0.3489(2)
C49 C 0.17065(16) 0.88947(18) 0.22173(18)
C51 C -0.09491(18) 1.0485(2) 0.1777(2)
C53 C 0.55370(16) 0.82216(19) 0.20592(18)
C55 C -0.02560(18) 1.08970(18) 0.15063(19)
C58 C 0.3588(2) 0.7530(2) 0.48225(19)
C59 C -0.03050(17) 1.08873(16) 0.27322(17)
C60 C 0.33067(18) 1.01486(16) 0.09263(16)
C62 C -0.18937(16) 0.80997(17) 0.49855(16)
C64 C -0.14703(15) 0.87684(18) 0.46182(17)
C65 C 0.00723(17) 1.10993(16) 0.19738(17)
C68 C -0.09945(17) 1.04648(17) 0.30312(18)
C70 C -0.18353(17) 0.94848(18) 0.42268(18)
C72 C -0.30692(16) 0.88472(18) 0.45009(17)
C73 C -0.26923(16) 0.81538(18) 0.49154(17)
C74 C 0.20830(16) 1.08753(15) 0.13084(15)
C77 C 0.18698(16) 0.57078(18) 0.30622(18)
C79 C 0.08134(17) 1.15739(17) 0.16507(18)
C80 C -0.26243(17) 0.95065(18) 0.41791(18)
C82 C -0.10816(15) 0.69293(16) 0.49417(15)
C84 C 0.28216(16) 1.04115(16) 0.34383(15)
C86 C 0.28421(15) 0.70575(16) 0.52163(16)
C88 C 0.41241(15) 0.78474(17) 0.22597(15)
C89 C 0.46760(15) 0.84279(16) 0.19192(15)
C90 C 0.24915(14) 0.68891(15) 0.46554(14)
C91 C 0.43996(16) 0.91666(17) 0.14709(15)
C92 C 0.33328(15) 0.79813(15) 0.21708(14)
C93 C 0.18457(16) 1.09486(15) 0.25160(16)
C94 C 0.15117(14) 0.62165(14) 0.44667(15)
C95 C 0.24678(13) 0.70130(14) 0.33744(14)
C96 C -0.13698(15) 0.70057(17) 0.43048(16)
C97 C 0.27841(15) 0.73138(16) 0.25224(15)
C98 C 0.36087(15) 0.93328(16) 0.13740(15)
C99 C -0.02787(15) 0.62443(15) 0.40062(16)
C100 C 0.25722(15) 1.05741(14) 0.26797(15)
C101 C -0.09798(15) 0.66672(16) 0.38256(15)
C102 C 0.27942(16) 1.04699(15) 0.14680(15)
C103 C 0.30370(16) 1.03278(15) 0.21483(15)
C104 C 0.15877(16) 1.11166(15) 0.18336(16)
C105 C 0.30804(14) 0.87331(15) 0.17279(14)
C106 C 0.18498(15) 0.64071(15) 0.49390(16)
C107 C 0.08096(14) 0.56979(15) 0.47951(17)
C108 C 0.27833(14) 0.71924(15) 0.38688(15)
C109 C 0.00342(14) 0.61494(14) 0.46330(15)
C110 C -0.03773(14) 0.64923(15) 0.51014(15)
C111 C 0.18331(14) 0.65170(14) 0.36884(14)
C112 C -0.3941(3) 0.9337(3) 0.3497(3)
C116 C -0.2140(3) 1.0357(8) 0.1353(4)
C117 C -0.1457(7) 0.9316(5) 0.1792(6)
C118 C -0.1418(9) 1.1125(7) 0.0427(6)
H1 H 0.1760(14) 1.2289(13) -0.0178(13)
H3 H 0.176(2) 0.834(2) 0.2694(19)
H7 H -0.0282(18) 0.8314(18) 0.4001(17)
H11 H 0.1783(14) 0.9288(14) 0.2358(14)
H12 H -0.007(2) 0.909(2) 0.378(2)
H13 H 0.2239(17) 0.9354(17) 0.4036(17)
H18 H 0.048(2) 0.916(2) 0.238(2)
H20 H 0.0773(19) 0.8778(19) 0.4409(19)
H32 H 0.1104(19) 0.8234(19) 0.3912(18)
H47 H 0.054(2) 0.7781(19) 0.4804(19)
H49 H -0.0391(10) 1.2406(10) 0.2714(10)
H50 H 0.4755(15) 0.9584(15) 0.1267(15)
H51 H 0.4367(16) 0.7347(15) 0.2576(15)
H52 H 0.2445(16) 0.5737(16) 0.3008(15)
H53 H 0.1598(17) 0.6216(16) 0.5467(16)
H54 H 0.374(3) 0.989(3) 0.411(3)
H55 H 0.0866(14) 0.5310(13) 0.4608(13)
H56 H 0.1693(17) 0.7232(16) 0.5855(16)
H57 H 0.3216(14) 0.7524(14) 0.3649(14)
H58 H 0.0025(16) 0.6059(16) 0.3650(16)
H59 H -0.3021(16) 0.7719(16) 0.5178(16)
H60 H -0.002(2) 1.108(2) 0.090(2)
H61 H 0.1769(14) 0.5196(14) 0.3570(14)
H62 H -0.0308(17) 0.5277(17) 0.6421(17)
H63 H 0.3822(16) 1.0465(15) 0.0624(15)
H64 H 0.1507(17) 1.1028(17) 0.2919(16)
H65 H 0.3040(15) 1.0180(14) 0.0511(14)
H66 H 0.3747(19) 0.9582(18) 0.3386(18)
H67 H 0.0837(13) 0.5424(13) 0.5282(12)
H68 H 0.0821(15) 1.1910(15) 0.1046(15)
H69 H -0.1923(19) 0.7339(19) 0.4215(18)
H70 H 0.3339(17) 0.6402(17) 0.6252(16)
H71 H -0.2861(16) 0.9960(16) 0.3894(15)
H72 H 0.3569(16) 0.9981(16) 0.2267(15)
H73 H 0.3415(19) 0.7955(19) 0.4534(18)
H74 H 0.0718(17) 1.1963(16) 0.1847(16)
H75 H 0.160(2) 1.011(2) 0.416(2)
H76 H -0.0977(17) 0.5954(16) 0.6587(16)
H77 H -0.1804(17) 0.9974(17) 0.2773(17)
H78 H 0.240(2) 0.764(2) 0.593(2)
H79 H 0.2926(16) 1.1089(15) 0.4048(15)
H80 H 0.000(2) 0.621(2) 0.708(2)
H81 H -0.088(2) 1.160(2) 0.361(2)
H82 H 0.261(2) 0.599(2) 0.616(2)
H83 H 0.4109(17) 1.0398(17) 0.3051(16)
H84 H 0.268(2) 1.1670(19) -0.0038(19)
H85 H 0.212(3) 0.793(3) 0.510(3)
H86 H 0.3818(18) 0.7609(17) 0.5242(17)
H87 H 0.4032(16) 0.7294(16) 0.4533(16)
H88 H 0.237(2) 0.9689(19) 0.4651(19)
H89 H -0.0906(18) 1.0146(17) 0.4190(17)
H90 H 0.3198(19) 1.1502(18) 0.3169(18)
H91 H -0.170(2) 1.0643(19) 0.3893(19)
H92 H -0.115(2) 0.7449(19) 0.5665(19)
H93 H 0.3432(19) 0.5971(18) 0.5633(18)
H94 H -0.1982(17) 0.6972(17) 0.5844(16)
H95 H 0.097(2) 0.973(2) 0.143(2)
H96 H -0.2522(17) 0.6875(16) 0.3518(16)
H97 H 0.2169(18) 1.1377(18) 0.3589(18)
H98 H -0.151(2) 0.608(2) 0.270(2)
H100 H 0.1746(11) 0.6304(11) 0.1763(10)
H101 H 0.2330(16) 0.7503(15) 0.2294(15)
H102 H -0.226(3) 0.708(3) 0.259(3)
H103 H 0.3113(15) 0.6833(14) 0.2446(14)
H104 H -0.003(3) 0.529(3) 0.746(2)
H105 H 0.084(3) 0.569(3) 0.684(3)
H106 H 0.1075(17) 1.2081(17) -0.0524(17)
H107 H 0.180(3) 0.541(3) 0.225(2)
H108 H 0.1123(19) 0.5772(18) 0.2411(17)
H109 H -0.0141(18) 1.2428(18) 0.3793(17)
H110 H 0.5983(14) 0.8058(13) 0.1208(13)
H111 H 0.658(2) 0.736(2) 0.192(2)
H113 H -0.4025(10) 0.8080(10) 0.4229(10)
H114 H 0.527(2) 0.735(2) 0.303(2)
H116 H 0.620(2) 0.772(2) 0.297(2)
H118 H 0.188(2) 1.143(2) -0.091(2)
H119 H 0.209(3) 1.245(3) -0.122(3)
H120 H -0.371(2) 0.987(2) 0.322(2)
O1 O -0.06765(11) 0.87132(14) 0.46871(12)
O4 O 0.23095(10) 0.88972(11) 0.15830(10)
O6 O 0.00353(11) 1.10760(11) 0.31995(11)
O7 O 0.18289(11) 1.10348(11) 0.06269(11)
O8 O 0.14935(9) 0.63547(10) 0.32010(10)
O9 O -0.00577(11) 0.64237(10) 0.57205(10)
C120 C 0.87643(11) 0.29486(10) -0.01996(10)
C134 C 0.8996(2) 0.2336(2) -0.0581(2)
C135 C 0.8429(2) 0.2112(2) -0.0840(2)
C136 C 0.7629(2) 0.2283(2) -0.0644(2)
C137 C 0.7395(2) 0.2678(2) -0.0188(2)
C138 C 0.7962(2) 0.2902(2) 0.0071(2)
O11 O 1.0069 0.3062 -0.0163
C139 C 0.9399 0.3054 0.0185
C140 C 0.9136 0.3112 0.0892
C141 C 0.9478 0.3712 0.0914
C142 C 0.9263 0.3867 0.1554
C143 C 0.8706 0.3422 0.2172
C144 C 0.8364 0.2822 0.2150
C145 C 0.8579 0.2667 0.1510
C114? C -0.0770(3) 1.0096(6) 0.0713(4)
C119? C 0.5681(10) 0.9102(9) 0.2159(9)
H115? H -0.4298(11) 0.9508(10) 0.3963(10)
H117? H 0.359(3) 0.827(3) 0.764(3)
C121? C 0.79653(11) 0.30872(10) 0.00379(10)
C122? C 0.73885(11) 0.28595(10) -0.02071(10)
C123? C 0.76108(11) 0.24932(10) -0.06898(10)
C124? C 0.84099(11) 0.23546(10) -0.09274(10)
C125? C 0.89866(11) 0.25823(10) -0.06823(10)
O10? O 1.0128(15) 0.3127(14) -0.0448(14)
C126? C 0.9499(2) 0.3132(2) -0.0143(2)
C127? C 0.9367(2) 0.3450(2) 0.0459(2)
C128? C 0.9672(2) 0.4086(2) 0.0450(2)
C129? C 0.9507(2) 0.4219(2) 0.1103(2)
C130? C 0.9037(2) 0.3717(2) 0.1766(2)
C131? C 0.8732(2) 0.3082(2) 0.1776(2)
C132? C 0.8897(2) 0.2948(2) 0.1122(2)
C133? C 0.8762(2) 0.2731(2) -0.0125(2)
loop_
_geom_bond_atom_site_label_1
_geom_bond_atom_site_label_2
_geom_bond_site_symmetry_1
_geom_bond_site_symmetry_2
C1 C25 1_555 1_555
C2 C52 1_555 1_555
C3 C30 1_555 1_555
C4 C27 1_555 1_555
C5 C25 1_555 1_555
C6 C35 1_555 1_555
C7 C35 1_555 1_555
C8 C27 1_555 1_555
C9 C48 1_555 1_555
C10 C35 1_555 1_555
C11 C30 1_555 1_555
C12 C29 1_555 1_555
C13 C18 1_555 1_555
C14 C51 1_555 1_555
C15 C48 1_555 1_555
C16 C44 1_555 1_555
C17 C53 1_555 1_555
C18 H49 1_555 1_555
C19 C31 1_555 1_555
C20 C36 1_555 1_555
C21 C48 1_555 1_555
C22 C32 1_555 1_555
C23 C49 1_555 1_555
C24 C53 1_555 1_555
C25 C41 1_555 1_555
C26 C27 1_555 1_555
C27 C101 1_555 1_555
C28 C53 1_555 1_555
C29 H30 1_555 1_555
C30 C72 1_555 1_555
C31 H6 1_555 1_555
C32 H7 1_555 1_555
C33 C84 1_555 1_555
C34 C77 1_555 1_555
C35 C47 1_555 1_555
C36 H1 1_555 1_555
C37 C86 1_555 1_555
C38 C51 1_555 1_555
C39 C84 1_555 1_555
C40 C62 1_555 1_555
C41 C42 1_555 1_555
C42 C56 1_555 1_555
C43 C68 1_555 1_555
C44 H62 1_555 1_555
C45 C86 1_555 1_555
C46 C84 1_555 1_555
C47 C50 1_555 1_555
C48 C67 1_555 1_555
C49 H3 1_555 1_555
C50 C69 1_555 1_555
C51 C55 1_555 1_555
C52 H4 1_555 1_555
C53 C89 1_555 1_555
C54 C41 1_555 1_555
C55 C65 1_555 1_555
C56 C61 1_555 1_555
C57 C69 1_555 1_555
C58 C86 1_555 1_555
C59 C65 1_555 1_555
C60 C98 1_555 1_555
C61 C81 1_555 1_555
C62 C64 1_555 1_555
C63 C76 1_555 1_555
C64 C70 1_555 1_555
C65 C79 1_555 1_555
C66 C47 1_555 1_555
C67 C71 1_555 1_555
C68 C38 1_555 1_555
C69 C87 1_555 1_555
C70 C43 1_555 1_555
C71 C83 1_555 1_555
C72 C73 1_555 1_555
C73 C62 1_555 1_555
C74 C102 1_555 1_555
C75 C67 1_555 1_555
C76 C75 1_555 1_555
C77 H52 1_555 1_555
C78 C54 1_555 1_555
C79 C104 1_555 1_555
C80 C70 1_555 1_555
C81 C66 1_555 1_555
C82 C40 1_555 1_555
C83 C57 1_555 1_555
C84 C100 1_555 1_555
C85 C56 1_555 1_555
C86 C90 1_555 1_555
C87 C81 1_555 1_555
C88 C89 1_555 1_555
C89 C91 1_555 1_555
C90 C106 1_555 1_555
C91 C98 1_555 1_555
C92 C88 1_555 1_555
C93 C100 1_555 1_555
C94 C106 1_555 1_555
C95 C97 1_555 1_555
C96 C82 1_555 1_555
C97 C92 1_555 1_555
C98 C105 1_555 1_555
C99 C101 1_555 1_555
C100 C103 1_555 1_555
C101 C96 1_555 1_555
C102 C60 1_555 1_555
C103 C102 1_555 1_555
C104 C74 1_555 1_555
C105 C92 1_555 1_555
C106 H53 1_555 1_555
C107 C94 1_555 1_555
C108 C90 1_555 1_555
C109 C99 1_555 1_555
C110 C82 1_555 1_555
C111 C94 1_555 1_555
C112 C30 1_555 1_555
C113 C78 1_555 1_555
C115 C25 1_555 1_555
C116 C14 1_555 1_555
C117 C14 1_555 1_555
C118 C14 1_555 1_555
H2 C12 1_555 1_555
H5 C66 1_555 1_555
H8 C113 1_555 1_555
H9 C21 1_555 1_555
H10 C71 1_555 1_555
H11 C49 1_555 1_555
H12 C32 1_555 1_555
H13 C33 1_555 1_555
H14 C42 1_555 1_555
H15 C2 1_555 1_555
H16 C31 1_555 1_555
H17 C75 1_555 1_555
H18 C23 1_555 1_555
H19 C52 1_555 1_555
H20 C22 1_555 1_555
H21 C9 1_555 1_555
H22 C61 1_555 1_555
H23 C50 1_555 1_555
H24 C57 1_555 1_555
H25 C9 1_555 1_555
H26 C9 1_555 1_555
H27 C61 1_555 1_555
H28 C57 1_555 1_555
H29 C21 1_555 1_555
H31 C7 1_555 1_555
H32 C22 1_555 1_555
H33 C6 1_555 1_555
H34 C19 1_555 1_555
H35 C7 1_555 1_555
H36 C19 1_555 1_555
H37 C15 1_555 1_555
H38 C113 1_555 1_555
H39 C29 1_555 1_555
H40 C21 1_555 1_555
H41 C19 1_555 1_555
H42 C15 1_555 1_555
H43 C54 1_555 1_555
H44 C12 1_555 1_555
H45 C6 1_555 1_555
H46 C15 1_555 1_555
H47 C22 1_555 1_555
H48 C10 1_555 1_555
H50 C91 1_555 1_555
H51 C88 1_555 1_555
H54 C46 1_555 1_555
H55 C107 1_555 1_555
H56 C45 1_555 1_555
H57 C108 1_555 1_555
H58 C99 1_555 1_555
H59 C73 1_555 1_555
H60 C55 1_555 1_555
H61 C77 1_555 1_555
H63 C60 1_555 1_555
H64 C93 1_555 1_555
H65 C60 1_555 1_555
H66 C46 1_555 1_555
H67 C107 1_555 1_555
H68 C79 1_555 1_555
H69 C96 1_555 1_555
H70 C37 1_555 1_555
H71 C80 1_555 1_555
H72 C103 1_555 1_555
H73 C58 1_555 1_555
H74 C79 1_555 1_555
H75 C33 1_555 1_555
H76 C44 1_555 1_555
H77 C38 1_555 1_555
H78 C45 1_555 1_555
H79 C39 1_555 1_555
H80 C16 1_555 1_555
H81 C18 1_555 1_555
H82 C37 1_555 1_555
H83 C46 1_555 1_555
H84 C36 1_555 1_555
H85 C45 1_555 1_555
H86 C58 1_555 1_555
H87 C58 1_555 1_555
H88 C33 1_555 1_555
H89 C43 1_555 1_555
H90 C39 1_555 1_555
H91 C43 1_555 1_555
H92 C40 1_555 1_555
H93 C37 1_555 1_555
H94 C40 1_555 1_555
H95 C23 1_555 1_555
H96 C26 1_555 1_555
H97 C39 1_555 1_555
H98 C4 1_555 1_555
H99 C10 1_555 1_555
H100 C34 1_555 1_555
H101 C97 1_555 1_555
H102 C26 1_555 1_555
H103 C97 1_555 1_555
H104 C16 1_555 1_555
H105 C16 1_555 1_555
H106 C20 1_555 1_555
H107 C34 1_555 1_555
H108 C34 1_555 1_555
H109 C13 1_555 1_555
H110 C17 1_555 1_555
H111 C17 1_555 1_555
H112 C2 1_555 1_555
H113 C3 1_555 1_555
H114 C28 1_555 1_555
H116 C28 1_555 1_555
H118 C20 1_555 1_555
H119 C20 1_555 1_555
H120 C112 1_555 1_555
O1 C32 1_555 1_555
O2 C31 1_555 1_555
O3 C29 1_555 1_555
O4 C49 1_555 1_555
O5 C52 1_555 1_555
O6 C18 1_555 1_555
O7 C36 1_555 1_555
O8 C77 1_555 1_555
O9 C44 1_555 1_555
C120 C134 1_555 1_555
C134 C135 1_555 1_555
C135 C136 1_555 1_555
C136 C137 1_555 1_555
C137 C138 1_555 1_555
C138 C120 1_555 1_555
O11 C139 1_555 1_555
C139 C120 1_555 1_555
C140 C139 1_555 1_555
C141 C140 1_555 1_555
C142 C141 1_555 1_555
C143 C142 1_555 1_555
C144 C143 1_555 1_555
C145 C140 1_555 1_555
C113A C76 1_555 1_555
C78A C113A 1_555 1_555
C54A C78A 1_555 1_555
C41A C54A 1_555 1_555
C25A C41A 1_555 1_555
C1A C25A 1_555 1_555
C5A C25A 1_555 1_555
C115A C25A 1_555 1_555
C42A C41A 1_555 1_555
C56A C42A 1_555 1_555
C61A C56A 1_555 1_555
C81A C61A 1_555 1_555
C66A C81A 1_555 1_555
C47A C66A 1_555 1_555
C35A C47A 1_555 1_555
C6A C35A 1_555 1_555
H33A C6A 1_555 1_555
H45A C6A 1_555 1_555
C7A C35A 1_555 1_555
H31A C7A 1_555 1_555
H35A C7A 1_555 1_555
C10A C35A 1_555 1_555
H48A C10A 1_555 1_555
H99A C10A 1_555 1_555
C50A C47A 1_555 1_555
C69A C50A 1_555 1_555
C57A C69A 1_555 1_555
C83A C57A 1_555 1_555
C63A C83A 1_555 1_555
C76A C113 1_555 1_555
C75A C76A 1_555 1_555
C67A C75A 1_555 1_555
C48A C67A 1_555 1_555
C9A C48A 1_555 1_555
H21A C9A 1_555 1_555
H25A C9A 1_555 1_555
H26A C9A 1_555 1_555
C15A C48A 1_555 1_555
H37A C15A 1_555 1_555
H42A C15A 1_555 1_555
H46A C15A 1_555 1_555
C21A C48A 1_555 1_555
H9A C21A 1_555 1_555
H29A C21A 1_555 1_555
H40A C21A 1_555 1_555
C71A C83A 1_555 1_555
H10A C71A 1_555 1_555
H17A C75A 1_555 1_555
O2A C63A 1_555 1_555
C31A O2A 1_555 1_555
C19A C31A 1_555 1_555
H34A C19A 1_555 1_555
H36A C19A 1_555 1_555
H41A C19A 1_555 1_555
H6A C31A 1_555 1_555
H16A C31A 1_555 1_555
H24A C57A 1_555 1_555
H28A C57A 1_555 1_555
C87A C81A 1_555 1_555
O3A C87A 1_555 1_555
C29A O3A 1_555 1_555
C12A C29A 1_555 1_555
H2A C12A 1_555 1_555
H44A C12A 1_555 1_555
H30A C29A 1_555 1_555
H39A C29A 1_555 1_555
H23A C50A 1_555 1_555
H5A C66A 1_555 1_555
H22A C61A 1_555 1_555
H27A C61A 1_555 1_555
C85A C78A 1_555 1_555
O5A C85A 1_555 1_555
C52A O5A 1_555 1_555
C2A C52A 1_555 1_555
H15A C2A 1_555 1_555
H112A C2A 1_555 1_555
H4A C52A 1_555 1_555
H19A C52A 1_555 1_555
H14A C42A 1_555 1_555
H43A C54A 1_555 1_555
H8A C113A 1_555 1_555
H38A C113A 1_555 1_555
C59 C68 1_555 1_555
C59 O6 1_555 1_555
C63 C83 1_555 1_555
C63 O2 1_555 1_555
C64 O1 1_555 1_555
C72 C80 1_555 1_555
C74 O7 1_555 1_555
C78 C85 1_555 1_555
C85 O5 1_555 1_555
C87 O3 1_555 1_555
C93 C104 1_555 1_555
C95 C108 1_555 1_555
C95 C111 1_555 1_555
C105 O4 1_555 1_555
C107 C109 1_555 1_555
C109 C110 1_555 1_555
C110 O9 1_555 1_555
C111 O8 1_555 1_555
C144 C145 1_555 1_555
C56A C85A 1_555 1_555
C69A C87A 1_555 1_555
C63A C76A 1_555 1_555
C67A C71A 1_555 1_555

#END
