
#######################################################################
#
#                 Cambridge Crystallographic Data Centre
#                                CCDC 
#
#######################################################################
#
# If this CIF has been generated from an entry in the Cambridge 
# Structural Database, then it will include bibliographic, chemical, 
# crystal, experimental, refinement or atomic coordinate data resulting 
# from the CCDC's data processing and validation procedures.
#
#######################################################################

data_RALRAY
_chemical_formula_moiety         'C10 H9 N5 O2,C2 H6 O1'
_chemical_name_systematic        
'3-((2-Hydroxybenzylidene)hydrazinocarbonyl)-1H-1,2,4-triazole ethanol solvate'
_symmetry_cell_setting           monoclinic
_symmetry_space_group_name_H-M   'P 21/c'
_symmetry_Int_Tables_number      14
_space_group_name_Hall           '-P 2ybc'
loop_
_symmetry_equiv_pos_site_id
_symmetry_equiv_pos_as_xyz
1 x,y,z
2 -x,1/2+y,1/2-z
3 -x,-y,-z
4 x,1/2-y,1/2+z
_cell_length_a                   15.554(6)
_cell_length_b                   10.012(4)
_cell_length_c                   8.856(4)
_cell_angle_alpha                90
_cell_angle_beta                 96.217(8)
_cell_angle_gamma                90
_cell_volume                     1371
_exptl_crystal_colour            colorless
_exptl_crystal_description       block
_cell_formula_units_Z            4
_exptl_crystal_recrystallization_method DMF
loop_
_atom_site_label
_atom_site_type_symbol
_atom_site_fract_x
_atom_site_fract_y
_atom_site_fract_z
O1 O 0.61846(16) 0.6390(2) 1.0638(3)
O2 O 0.8122(2) 0.5507(3) 0.8000(4)
N1 N 0.67813(19) 0.8276(3) 0.9795(4)
N2 N 0.73566(18) 0.7618(3) 0.8998(3)
N3 N 0.50602(18) 0.7993(3) 1.2228(4)
N4 N 0.57657(18) 0.9784(3) 1.1476(4)
N5 N 0.51576(19) 1.0150(3) 1.2366(4)
C1 C 0.6232(2) 0.7592(4) 1.0587(4)
C2 C 0.5684(2) 0.8477(3) 1.1429(4)
C3 C 0.4751(3) 0.9079(4) 1.2795(5)
C4 C 0.7871(2) 0.8343(4) 0.8331(4)
C5 C 0.8522(2) 0.7764(4) 0.7496(4)
C6 C 0.9089(3) 0.8591(5) 0.6812(5)
C7 C 0.9757(3) 0.8099(6) 0.6084(5)
C8 C 0.9870(3) 0.6739(6) 0.6027(6)
C9 C 0.9315(3) 0.5902(6) 0.6642(5)
C10 C 0.8646(2) 0.6389(4) 0.7394(4)
H7 H 0.674(3) 0.911(2) 0.985(5)
H8 H 0.776(2) 0.587(4) 0.852(4)
H9 H 0.428(2) 0.909(3) 1.345(4)
H10 H 0.783(2) 0.933(4) 0.838(4)
H11 H 0.507(2) 1.097(4) 1.258(4)
H12 H 0.897(2) 0.949(4) 0.693(4)
H13 H 1.018(2) 0.864(3) 0.568(4)
H14 H 1.035(3) 0.637(4) 0.555(5)
H15 H 0.940(3) 0.494(5) 0.656(5)
O3 O 0.7508(3) 0.3950(4) 0.5182(6)
H1 H 0.7707 0.4172 0.6041
C11 C 0.7112(6) 0.2676(8) 0.5237(10)
H2 H 0.6640 0.2750 0.5865
H3 H 0.6861 0.2452 0.4219
C12 C 0.7619(6) 0.1649(9) 0.5767(11)
H4 H 0.7775 0.1758 0.6838
H5 H 0.8132 0.1633 0.5255
H6 H 0.7309 0.0825 0.5584
loop_
_geom_bond_atom_site_label_1
_geom_bond_atom_site_label_2
_geom_bond_site_symmetry_1
_geom_bond_site_symmetry_2
O1 C1 1_555 1_555
O2 C10 1_555 1_555
O3 H1 1_555 1_555
N1 N2 1_555 1_555
N2 C4 1_555 1_555
N3 C2 1_555 1_555
N4 N5 1_555 1_555
N5 C3 1_555 1_555
C1 N1 1_555 1_555
C2 N4 1_555 1_555
C3 N3 1_555 1_555
C4 C5 1_555 1_555
C5 C6 1_555 1_555
C6 C7 1_555 1_555
C7 C8 1_555 1_555
C8 C9 1_555 1_555
C9 C10 1_555 1_555
C10 C5 1_555 1_555
C11 O3 1_555 1_555
H2 C11 1_555 1_555
H3 C11 1_555 1_555
C12 C11 1_555 1_555
H4 C12 1_555 1_555
H5 C12 1_555 1_555
H6 C12 1_555 1_555
H7 N1 1_555 1_555
H8 O2 1_555 1_555
H9 C3 1_555 1_555
H10 C4 1_555 1_555
H11 N5 1_555 1_555
H12 C6 1_555 1_555
H13 C7 1_555 1_555
H14 C8 1_555 1_555
H15 C9 1_555 1_555
C1 C2 1_555 1_555

#END
