
#######################################################################
#
#                 Cambridge Crystallographic Data Centre
#                                CCDC 
#
#######################################################################
#
# If this CIF has been generated from an entry in the Cambridge 
# Structural Database, then it will include bibliographic, chemical, 
# crystal, experimental, refinement or atomic coordinate data resulting 
# from the CCDC's data processing and validation procedures.
#
#######################################################################

data_RALTOO
_chemical_formula_moiety         'C6 H6 I1 N1'
_chemical_name_systematic        2-Iodoaniline
_symmetry_cell_setting           trigonal
_symmetry_space_group_name_H-M   'P 32'
_symmetry_Int_Tables_number      145
_space_group_name_Hall           'P 32'
loop_
_symmetry_equiv_pos_site_id
_symmetry_equiv_pos_as_xyz
1 x,y,z
2 -y,x-y,2/3+z
3 -x+y,-x,1/3+z
_cell_length_a                   11.2952(8)
_cell_length_b                   11.2952(8)
_cell_length_c                   4.5325(4)
_cell_angle_alpha                90
_cell_angle_beta                 90
_cell_angle_gamma                120
_cell_volume                     500.791
_exptl_crystal_colour            colorless
_exptl_crystal_description       needle
_cell_formula_units_Z            3
_exptl_crystal_recrystallization_method benzene
loop_
_atom_site_label
_atom_site_type_symbol
_atom_site_fract_x
_atom_site_fract_y
_atom_site_fract_z
N1 N 0.3281(7) -0.1940(7) 0.8337(15)
I1 I 0.13684(5) -0.06459(5) 0.6472(5)
C1 C 0.3972(8) -0.0834(8) 0.6404(15)
C2 C 0.3350(8) -0.0147(8) 0.5157(17)
C3 C 0.4047(9) 0.0911(8) 0.3077(16)
C4 C 0.5396(9) 0.1303(9) 0.2276(19)
C5 C 0.6015(9) 0.0634(10) 0.354(2)
C6 C 0.5335(8) -0.0418(8) 0.5565(18)
H1 H 0.392(9) -0.211(12) 0.91(3)
H2 H 0.261(9) -0.195(12) 0.94(2)
H3 H 0.3585 0.1382 0.2174
H4 H 0.5904 0.2055 0.0817
H5 H 0.6979 0.0917 0.2993
H6 H 0.5808 -0.0885 0.6432
loop_
_geom_bond_atom_site_label_1
_geom_bond_atom_site_label_2
_geom_bond_site_symmetry_1
_geom_bond_site_symmetry_2
N1 C1 1_555 1_555
I1 C2 1_555 1_555
C1 C2 1_555 1_555
C2 C3 1_555 1_555
C3 C4 1_555 1_555
C4 C5 1_555 1_555
C5 C6 1_555 1_555
C6 C1 1_555 1_555
H1 N1 1_555 1_555
H2 N1 1_555 1_555
H3 C3 1_555 1_555
H4 C4 1_555 1_555
H5 C5 1_555 1_555
H6 C6 1_555 1_555

#END
