
#######################################################################
#
#                 Cambridge Crystallographic Data Centre
#                                CCDC 
#
#######################################################################
#
# If this CIF has been generated from an entry in the Cambridge 
# Structural Database, then it will include bibliographic, chemical, 
# crystal, experimental, refinement or atomic coordinate data resulting 
# from the CCDC's data processing and validation procedures.
#
#######################################################################

data_RALWAF
_chemical_formula_moiety         'C40 H42,2(C6 F6)'
_chemical_name_systematic        
'1,3,6,8-tetrakis(3,3-dimethylbut-1-yn-1-yl)pyrene bis(hexafluorobenzene)'
_symmetry_cell_setting           triclinic
_symmetry_space_group_name_H-M   'P -1'
_symmetry_Int_Tables_number      2
_space_group_name_Hall           '-P 1'
loop_
_symmetry_equiv_pos_site_id
_symmetry_equiv_pos_as_xyz
1 x,y,z
2 -x,-y,-z
_cell_length_a                   6.6791(6)
_cell_length_b                   11.7780(12)
_cell_length_c                   14.4954(15)
_cell_angle_alpha                98.279(3)
_cell_angle_beta                 91.547(3)
_cell_angle_gamma                103.011(3)
_cell_volume                     1097.36
_exptl_crystal_colour            'light yellow'
_exptl_crystal_description       block
_cell_formula_units_Z            1
loop_
_atom_site_label
_atom_site_type_symbol
_atom_site_fract_x
_atom_site_fract_y
_atom_site_fract_z
F1 F 0.8258(2) 0.69897(13) 0.62625(9)
F2 F 0.9282(2) 0.89303(15) 0.54287(9)
F3 F 0.8263(3) 0.71758(15) 0.81420(10)
F4 F 1.0289(2) 1.11098(15) 0.64980(15)
F5 F 0.9216(3) 0.9324(2) 0.92152(10)
F6 F 1.0261(2) 1.13083(17) 0.83988(16)
C1 C 0.8780(3) 0.80575(17) 0.67829(12)
C2 C 0.9285(3) 0.90477(19) 0.63623(13)
C3 C 0.8785(3) 0.8156(2) 0.77457(13)
C4 C 0.9280(3) 0.9250(2) 0.82867(14)
C5 C 0.9780(3) 1.0251(2) 0.78778(18)
C6 C 0.9797(3) 1.01595(19) 0.69067(19)
C7 C 0.4275(2) 0.91794(12) 0.72308(9)
H1 H 0.4085 0.8958 0.7833
C8 C 0.4900(2) 1.03760(12) 0.71517(9)
C9 C 0.3924(2) 0.83042(12) 0.64483(9)
C10 C 0.4200(2) 0.86192(12) 0.55419(9)
C11 C 0.5261(2) 1.12301(13) 0.79860(10)
C12 C 0.5188(2) 1.07182(12) 0.62601(9)
C13 C 0.4843(2) 0.98331(12) 0.54530(9)
C14 C 0.3302(2) 0.70915(13) 0.65743(10)
C15 C 0.2796(2) 0.60731(13) 0.66830(10)
C16 C 0.5845(2) 1.19320(12) 0.61431(10)
H2 H 0.6082 1.2525 0.6678
C17 C 0.5554(2) 1.18964(13) 0.87187(10)
C18 C 0.6135(2) 1.22529(12) 0.52837(10)
H3 H 0.6565 1.3064 0.5228
C19 C 0.5923(3) 1.26949(14) 0.96174(10)
C20 C 0.2192(3) 0.48241(13) 0.67987(11)
C21 C 0.4003(3) 1.31809(16) 0.98251(12)
H4 H 0.4274 1.3749 1.0404
H5 H 0.2839 1.2530 0.9895
H6 H 0.3672 1.3573 0.9308
C22 C 0.6353(4) 1.20010(18) 1.03902(12)
H7 H 0.6666 1.2534 1.0987
H8 H 0.7530 1.1655 1.0238
H9 H 0.5138 1.1372 1.0438
C23 C 0.3872(3) 0.45386(16) 0.74106(14)
H10 H 0.3535 0.3694 0.7451
H11 H 0.3950 0.4992 0.8038
H12 H 0.5201 0.4747 0.7133
C24 C 0.7772(3) 1.37271(17) 0.95626(13)
H13 H 0.8020 1.4258 1.0161
H14 H 0.7478 1.4161 0.9066
H15 H 0.8997 1.3420 0.9425
C25 C 0.0150(3) 0.45988(18) 0.72854(17)
H16 H -0.0201 0.3781 0.7405
H17 H -0.0946 0.4736 0.6882
H18 H 0.0298 0.5136 0.7879
C26 C 0.1949(4) 0.40514(16) 0.58411(13)
H19 H 0.1674 0.3219 0.5921
H20 H 0.3218 0.4252 0.5516
H21 H 0.0798 0.4188 0.5472
C7A C 0.5725(2) 1.08206(12) 0.27692(9)
H1A H 0.5915 1.1042 0.2167
C8A C 0.5100(2) 0.96240(12) 0.28483(9)
C9A C 0.6076(2) 1.16958(12) 0.35517(9)
C10A C 0.5800(2) 1.13808(12) 0.44581(9)
C11A C 0.4739(2) 0.87699(13) 0.20140(10)
C12A C 0.4812(2) 0.92818(12) 0.37399(9)
C13A C 0.5157(2) 1.01669(12) 0.45470(9)
C14A C 0.6698(2) 1.29085(13) 0.34257(10)
C15A C 0.7204(2) 1.39269(13) 0.33170(10)
C16A C 0.4155(2) 0.80680(12) 0.38569(10)
H2A H 0.3918 0.7475 0.3322
C17A C 0.4446(2) 0.81036(13) 0.12813(10)
C18A C 0.3865(2) 0.77471(12) 0.47163(10)
H3A H 0.3435 0.6936 0.4772
C19A C 0.4077(3) 0.73051(14) 0.03826(10)
C20A C 0.7808(3) 1.51759(13) 0.32013(11)
C21A C 0.5997(3) 0.68191(16) 0.01749(12)
H4A H 0.5726 0.6251 -0.0404
H5A H 0.7161 0.7470 0.0105
H6A H 0.6328 0.6427 0.0692
C22A C 0.3647(4) 0.79990(18) -0.03902(12)
H7A H 0.3334 0.7466 -0.0987
H8A H 0.2470 0.8345 -0.0238
H9A H 0.4862 0.8628 -0.0438
C23A C 0.6128(3) 1.54614(16) 0.25894(14)
H10A H 0.6465 1.6306 0.2549
H11A H 0.6050 1.5008 0.1962
H12A H 0.4799 1.5253 0.2867
C24A C 0.2228(3) 0.62729(17) 0.04374(13)
H13A H 0.1980 0.5742 -0.0161
H14A H 0.2522 0.5839 0.0934
H15A H 0.1003 0.6580 0.0575
C25A C 0.9850(3) 1.54012(18) 0.27146(17)
H16A H 1.0201 1.6219 0.2595
H17A H 1.0946 1.5264 0.3118
H18A H 0.9702 1.4864 0.2121
C26A C 0.8051(4) 1.59486(16) 0.41589(13)
H19A H 0.8326 1.6781 0.4079
H20A H 0.6782 1.5748 0.4484
H21A H 0.9202 1.5812 0.4528
loop_
_geom_bond_atom_site_label_1
_geom_bond_atom_site_label_2
_geom_bond_site_symmetry_1
_geom_bond_site_symmetry_2
F1 C1 1_555 1_555
F2 C2 1_555 1_555
F3 C3 1_555 1_555
F4 C6 1_555 1_555
F5 C4 1_555 1_555
F6 C5 1_555 1_555
C1 C2 1_555 1_555
C2 C6 1_555 1_555
C3 C1 1_555 1_555
C4 C3 1_555 1_555
C5 C4 1_555 1_555
C6 C5 1_555 1_555
C7 H1 1_555 1_555
C8 C7 1_555 1_555
C9 C7 1_555 1_555
C10 C9 1_555 1_555
C11 C8 1_555 1_555
C12 C8 1_555 1_555
C13 C10 1_555 1_555
C14 C9 1_555 1_555
C15 C14 1_555 1_555
C16 C12 1_555 1_555
H2 C16 1_555 1_555
C17 C11 1_555 1_555
C18 C16 1_555 1_555
H3 C18 1_555 1_555
C19 C17 1_555 1_555
C20 C15 1_555 1_555
C21 C19 1_555 1_555
H4 C21 1_555 1_555
H5 C21 1_555 1_555
H6 C21 1_555 1_555
C22 C19 1_555 1_555
H7 C22 1_555 1_555
H8 C22 1_555 1_555
H9 C22 1_555 1_555
C23 C20 1_555 1_555
H10 C23 1_555 1_555
H11 C23 1_555 1_555
H12 C23 1_555 1_555
C24 C19 1_555 1_555
H13 C24 1_555 1_555
H14 C24 1_555 1_555
H15 C24 1_555 1_555
C25 C20 1_555 1_555
H16 C25 1_555 1_555
H17 C25 1_555 1_555
H18 C25 1_555 1_555
C26 C20 1_555 1_555
H19 C26 1_555 1_555
H20 C26 1_555 1_555
H21 C26 1_555 1_555
C7A H1A 1_555 1_555
C8A C7A 1_555 1_555
C9A C7A 1_555 1_555
C10A C18 1_555 1_555
C11A C8A 1_555 1_555
C12A C8A 1_555 1_555
C13A C13 1_555 1_555
C14A C9A 1_555 1_555
C15A C14A 1_555 1_555
C16A C12A 1_555 1_555
H2A C16A 1_555 1_555
C17A C11A 1_555 1_555
C18A C10 1_555 1_555
H3A C18A 1_555 1_555
C19A C17A 1_555 1_555
C20A C15A 1_555 1_555
C21A C19A 1_555 1_555
H4A C21A 1_555 1_555
H5A C21A 1_555 1_555
H6A C21A 1_555 1_555
C22A C19A 1_555 1_555
H7A C22A 1_555 1_555
H8A C22A 1_555 1_555
H9A C22A 1_555 1_555
C23A C20A 1_555 1_555
H10A C23A 1_555 1_555
H11A C23A 1_555 1_555
H12A C23A 1_555 1_555
C24A C19A 1_555 1_555
H13A C24A 1_555 1_555
H14A C24A 1_555 1_555
H15A C24A 1_555 1_555
C25A C20A 1_555 1_555
H16A C25A 1_555 1_555
H17A C25A 1_555 1_555
H18A C25A 1_555 1_555
C26A C20A 1_555 1_555
H19A C26A 1_555 1_555
H20A C26A 1_555 1_555
H21A C26A 1_555 1_555
C12 C13 1_555 1_555
C9A C10A 1_555 1_555
C10A C13A 1_555 1_555
C12A C13A 1_555 1_555
C16A C18A 1_555 1_555

#END
