
#######################################################################
#
#                 Cambridge Crystallographic Data Centre
#                                CCDC 
#
#######################################################################
#
# If this CIF has been generated from an entry in the Cambridge 
# Structural Database, then it will include bibliographic, chemical, 
# crystal, experimental, refinement or atomic coordinate data resulting 
# from the CCDC's data processing and validation procedures.
#
#######################################################################

data_RALZUZ
_chemical_formula_moiety         'C11 H19 I1 O3'
_chemical_name_systematic        
1-methoxy-4,8-dimethyl-4-iodomethyl-2,3-dioxabicyclo(3.3.1)nonane
_symmetry_cell_setting           monoclinic
_symmetry_space_group_name_H-M   'P 21'
_symmetry_Int_Tables_number      4
_space_group_name_Hall           'P 2yb'
loop_
_symmetry_equiv_pos_site_id
_symmetry_equiv_pos_as_xyz
1 x,y,z
2 -x,1/2+y,-z
_cell_length_a                   9.5581(17)
_cell_length_b                   5.8054(9)
_cell_length_c                   11.9491(19)
_cell_angle_alpha                90
_cell_angle_beta                 107.613(13)
_cell_angle_gamma                90
_cell_volume                     631.957
_exptl_crystal_colour            colorless
_exptl_crystal_description       block
_cell_formula_units_Z            2
loop_
_atom_site_label
_atom_site_type_symbol
_atom_site_fract_x
_atom_site_fract_y
_atom_site_fract_z
I1 I 0.93884(3) 0.39974(17) 0.58671(2)
O1 O 0.4660(4) 0.6247(10) 0.8634(3)
O2 O 0.6686(4) 0.5325(8) 0.8000(3)
O3 O 0.6422(4) 0.5667(8) 0.6728(3)
C1 C 0.5943(6) 0.7122(11) 0.8448(5)
C2 C 0.7000(6) 0.7705(13) 0.9662(5)
H1 H 0.6588 0.9039 0.9989
C3 C 0.8477(5) 0.8448(11) 0.9501(4)
H2 H 0.9093 0.9133 1.0246
H3 H 0.8989 0.7058 0.9347
C4 C 0.8350(6) 1.0169(13) 0.8515(5)
H4 H 0.9303 1.0227 0.8347
H5 H 0.8171 1.1716 0.8793
C5 C 0.7121(5) 0.9644(11) 0.7350(4)
H6 H 0.6981 1.1062 0.6853
C6 C 0.7333(6) 0.7558(10) 0.6573(5)
C7 C 0.5697(5) 0.9218(16) 0.7637(4)
H7 H 0.4886 0.8918 0.6909
H8 H 0.5439 1.0581 0.8032
C8 C 0.7226(8) 0.5711(16) 1.0527(6)
H9 H 0.6276 0.5237 1.0605
H10 H 0.7874 0.6202 1.1293
H11 H 0.7674 0.4413 1.0238
C9 C 0.3504(7) 0.5592(17) 0.7614(6)
H12 H 0.3073 0.6973 0.7171
H13 H 0.2747 0.4759 0.7851
H14 H 0.3897 0.4594 0.7120
C10 C 0.6683(7) 0.8133(13) 0.5282(5)
H15 H 0.6561 0.6715 0.4817
H16 H 0.7342 0.9183 0.5041
H17 H 0.5725 0.8873 0.5152
C11 C 0.8961(7) 0.6820(12) 0.6906(5)
H18 H 0.9289 0.6365 0.7744
H19 H 0.9557 0.8164 0.6818
loop_
_geom_bond_atom_site_label_1
_geom_bond_atom_site_label_2
_geom_bond_site_symmetry_1
_geom_bond_site_symmetry_2
I1 C11 1_555 1_555
O1 C1 1_555 1_555
O2 O3 1_555 1_555
O3 C6 1_555 1_555
C1 O2 1_555 1_555
C2 C1 1_555 1_555
H1 C2 1_555 1_555
C3 C2 1_555 1_555
H2 C3 1_555 1_555
H3 C3 1_555 1_555
C4 C3 1_555 1_555
H4 C4 1_555 1_555
H5 C4 1_555 1_555
C5 C4 1_555 1_555
H6 C5 1_555 1_555
C6 C5 1_555 1_555
C7 C1 1_555 1_555
H7 C7 1_555 1_555
H8 C7 1_555 1_555
C8 C2 1_555 1_555
H9 C8 1_555 1_555
H10 C8 1_555 1_555
H11 C8 1_555 1_555
C9 O1 1_555 1_555
H12 C9 1_555 1_555
H13 C9 1_555 1_555
H14 C9 1_555 1_555
C10 C6 1_555 1_555
H15 C10 1_555 1_555
H16 C10 1_555 1_555
H17 C10 1_555 1_555
C11 C6 1_555 1_555
H18 C11 1_555 1_555
H19 C11 1_555 1_555
C5 C7 1_555 1_555

#END
