
#######################################################################
#
#                 Cambridge Crystallographic Data Centre
#                                CCDC 
#
#######################################################################
#
# If this CIF has been generated from an entry in the Cambridge 
# Structural Database, then it will include bibliographic, chemical, 
# crystal, experimental, refinement or atomic coordinate data resulting 
# from the CCDC's data processing and validation procedures.
#
#######################################################################

data_RALZOT
_chemical_formula_moiety         'C9 H16 O5'
_chemical_name_systematic        
'4-Methoxy-4-methyl-2,3-dioxabicylo(3.3.1)nonyl hydroperoxide'
_symmetry_cell_setting           monoclinic
_symmetry_space_group_name_H-M   'P 21/c'
_symmetry_Int_Tables_number      14
_space_group_name_Hall           '-P 2ybc'
loop_
_symmetry_equiv_pos_site_id
_symmetry_equiv_pos_as_xyz
1 x,y,z
2 x,1/2-y,1/2+z
3 -x,-y,-z
4 -x,1/2+y,1/2-z
_cell_length_a                   8.9418(13)
_cell_length_b                   10.873(2)
_cell_length_c                   10.3033(19)
_cell_angle_alpha                90
_cell_angle_beta                 93.175(12)
_cell_angle_gamma                90
_cell_volume                     1000.19
_exptl_crystal_colour            colorless
_exptl_crystal_description       block
_chemical_melting_point          '346-7 K'
_cell_formula_units_Z            4
_exptl_crystal_recrystallization_method 'ethyl acetate-hexane'
loop_
_atom_site_label
_atom_site_type_symbol
_atom_site_fract_x
_atom_site_fract_y
_atom_site_fract_z
O1 O 0.42466(11) 0.61947(10) 0.35444(10)
O2 O 0.36059(10) 0.49589(9) 0.36460(10)
O3 O 0.20792(11) 0.49234(10) 0.54221(10)
O4 O 0.26105(12) 0.36914(10) 0.57893(11)
H1 H 0.3545 0.3705 0.5930
O5 O 0.40476(12) 0.62130(11) 0.12554(10)
C1 C 0.35585(16) 0.67674(15) 0.23777(14)
C2 C 0.20987(15) 0.50519(14) 0.40558(13)
C3 C 0.12528(16) 0.40658(15) 0.32682(14)
H2 H 0.0184 0.4072 0.3472
H3 H 0.1672 0.3245 0.3493
C4 C 0.13970(17) 0.43215(16) 0.18137(15)
H4 H 0.2422 0.4105 0.1577
H5 H 0.0686 0.3788 0.1303
C5 C 0.10844(17) 0.56659(17) 0.14496(16)
H6 H -0.0012 0.5801 0.1415
H7 H 0.1429 0.5813 0.0566
C6 C 0.18335(17) 0.66219(15) 0.23827(15)
H8 H 0.1380 0.7441 0.2158
C7 C 0.14554(16) 0.63229(14) 0.37711(15)
H9 H 0.1910 0.6936 0.4384
H10 H 0.0357 0.6323 0.3851
C8 C 0.55964(19) 0.6381(2) 0.10022(17)
H11 H 0.5778 0.7248 0.0802
H12 H 0.5846 0.5870 0.0261
H13 H 0.6223 0.6140 0.1771
C9 C 0.4038(2) 0.80991(16) 0.25720(18)
H14 H 0.5123 0.8135 0.2759
H15 H 0.3525 0.8452 0.3302
H16 H 0.3773 0.8569 0.1780
loop_
_geom_bond_atom_site_label_1
_geom_bond_atom_site_label_2
_geom_bond_site_symmetry_1
_geom_bond_site_symmetry_2
O1 O2 1_555 1_555
O2 C2 1_555 1_555
O3 O4 1_555 1_555
O4 H1 1_555 1_555
O5 C1 1_555 1_555
C1 O1 1_555 1_555
C2 O3 1_555 1_555
C3 C2 1_555 1_555
H2 C3 1_555 1_555
H3 C3 1_555 1_555
C4 C3 1_555 1_555
H4 C4 1_555 1_555
H5 C4 1_555 1_555
C5 C4 1_555 1_555
H6 C5 1_555 1_555
H7 C5 1_555 1_555
C6 C1 1_555 1_555
H8 C6 1_555 1_555
C7 C2 1_555 1_555
H9 C7 1_555 1_555
H10 C7 1_555 1_555
C8 O5 1_555 1_555
H11 C8 1_555 1_555
H12 C8 1_555 1_555
H13 C8 1_555 1_555
C9 C1 1_555 1_555
H14 C9 1_555 1_555
H15 C9 1_555 1_555
H16 C9 1_555 1_555
C5 C6 1_555 1_555
C6 C7 1_555 1_555

#END
