
#######################################################################
#
#                 Cambridge Crystallographic Data Centre
#                                CCDC 
#
#######################################################################
#
# If this CIF has been generated from an entry in the Cambridge 
# Structural Database, then it will include bibliographic, chemical, 
# crystal, experimental, refinement or atomic coordinate data resulting 
# from the CCDC's data processing and validation procedures.
#
#######################################################################

data_RAMGUK
_chemical_formula_moiety         'C24 H17 Cl1 O3'
_chemical_name_systematic        
3-(4-chlorophenyl)-3-ethylphenanthro[9,10-b][1,4]dioxin-2(3H)-one
_symmetry_cell_setting           monoclinic
_symmetry_space_group_name_H-M   'P 21'
_symmetry_Int_Tables_number      4
_space_group_name_Hall           'P 2yb'
loop_
_symmetry_equiv_pos_site_id
_symmetry_equiv_pos_as_xyz
1 x,y,z
2 -x,1/2+y,-z
_cell_length_a                   10.457(2)
_cell_length_b                   12.205(2)
_cell_length_c                   14.577(3)
_cell_angle_alpha                90
_cell_angle_beta                 92.99(3)
_cell_angle_gamma                90
_cell_volume                     1857.9
_exptl_crystal_colour            colorless
_exptl_crystal_description       plate
_cell_formula_units_Z            4
loop_
_atom_site_label
_atom_site_type_symbol
_atom_site_fract_x
_atom_site_fract_y
_atom_site_fract_z
Cl1 Cl 0.13932(12) 0.85862(11) 0.15244(9)
O1 O 0.4425(3) 1.2541(3) -0.0689(2)
O2 O 0.2023(3) 1.2710(3) -0.1606(2)
O3 O 0.1568(3) 1.3957(3) -0.0581(2)
C1 C 0.1464(6) 1.1589(5) -0.3260(4)
H1 H 0.0810 1.2001 -0.2990
C2 C 0.1214(8) 1.1089(5) -0.4089(4)
H2 H 0.0397 1.1162 -0.4399
C3 C 0.2144(8) 1.0489(6) -0.4466(4)
H3 H 0.1948 1.0129 -0.5034
C4 C 0.3346(8) 1.0377(5) -0.4068(4)
H4 H 0.3977 0.9968 -0.4365
C5 C 0.3647(6) 1.0883(5) -0.3199(4)
C6 C 0.4918(6) 1.0846(4) -0.2737(4)
C7 C 0.5921(7) 1.0250(5) -0.3100(5)
H5 H 0.5769 0.9853 -0.3655
C8 C 0.7096(8) 1.0231(5) -0.2675(5)
H6 H 0.7763 0.9833 -0.2943
C9 C 0.7353(5) 1.0795(5) -0.1834(5)
H7 H 0.8187 1.0777 -0.1543
C10 C 0.6374(6) 1.1378(4) -0.1435(4)
H8 H 0.6532 1.1756 -0.0871
C11 C 0.5155(5) 1.1392(4) -0.1883(4)
C12 C 0.4127(5) 1.1998(4) -0.1513(3)
C13 C 0.3323(4) 1.2748(4) -0.0153(3)
C14 C 0.2231(4) 1.3220(4) -0.0789(3)
C15 C 0.2979(5) 1.2049(4) -0.1941(3)
C16 C 0.2679(6) 1.1502(4) -0.2798(3)
C17 C 0.3752(5) 1.3579(4) 0.0582(3)
H9 H 0.3028 1.3726 0.0976
H10 H 0.3967 1.4275 0.0277
C18 C 0.4907(5) 1.3215(5) 0.1193(4)
H11 H 0.5129 1.3791 0.1642
H12 H 0.5636 1.3080 0.0813
H13 H 0.4695 1.2541 0.1517
C19 C 0.2848(4) 1.1687(4) 0.0274(3)
C20 C 0.3626(4) 1.0767(4) 0.0359(3)
H14 H 0.4464 1.0789 0.0138
C21 C 0.3192(4) 0.9817(4) 0.0762(3)
H15 H 0.3727 0.9189 0.0825
C22 C 0.1966(4) 0.9803(4) 0.1071(3)
C23 C 0.1187(4) 1.0700(4) 0.1002(3)
H16 H 0.0348 1.0673 0.1223
C24 C 0.1625(4) 1.1639(4) 0.0611(3)
H17 H 0.1088 1.2267 0.0570
Cl2 Cl 0.07287(13) 0.97347(13) 0.88381(10)
O4 O 0.2877(3) 0.5836(3) 0.60558(19)
O5 O 0.4997(3) 0.5739(3) 0.7272(2)
O6 O 0.3924(3) 0.4659(3) 0.8159(2)
C25 C 0.7201(5) 0.6937(4) 0.6947(3)
H18 H 0.7167 0.6509 0.7489
C26 C 0.8297(5) 0.7485(5) 0.6764(4)
H19 H 0.9023 0.7438 0.7182
C27 C 0.8356(5) 0.8115(4) 0.5966(4)
H20 H 0.9126 0.8482 0.5832
C28 C 0.7300(5) 0.8199(4) 0.5381(3)
H21 H 0.7348 0.8642 0.4848
C29 C 0.6154(4) 0.7662(4) 0.5531(3)
C30 C 0.5018(5) 0.7724(4) 0.4907(3)
C31 C 0.4965(5) 0.8371(4) 0.4115(3)
H22 H 0.5698 0.8782 0.3968
C32 C 0.3885(5) 0.8427(5) 0.3544(3)
H23 H 0.3874 0.8865 0.3005
C33 C 0.2787(5) 0.7827(4) 0.3763(3)
H24 H 0.2028 0.7877 0.3378
C34 C 0.2811(5) 0.7182(4) 0.4519(3)
H25 H 0.2072 0.6774 0.4658
C35 C 0.3917(4) 0.7114(4) 0.5095(3)
C36 C 0.3952(5) 0.6440(4) 0.5906(3)
C37 C 0.2637(4) 0.5657(4) 0.7009(3)
C38 C 0.3880(5) 0.5286(4) 0.7522(3)
C39 C 0.4968(4) 0.6415(4) 0.6486(3)
C40 C 0.6119(4) 0.7008(4) 0.6330(3)
C41 C 0.1645(4) 0.4744(4) 0.7021(3)
H26 H 0.2040 0.4055 0.6816
H27 H 0.1395 0.4635 0.7660
C42 C 0.0447(4) 0.4973(4) 0.6413(3)
H28 H -0.0147 0.4355 0.6448
H29 H 0.0683 0.5070 0.5776
H30 H 0.0034 0.5641 0.6624
C43 C 0.2190(4) 0.6717(4) 0.7458(3)
C44 C 0.1919(4) 0.7650(4) 0.6960(3)
H31 H 0.2041 0.7655 0.6319
C45 C 0.1475(4) 0.8578(5) 0.7373(3)
H32 H 0.1288 0.9219 0.7022
C46 C 0.1306(4) 0.8564(4) 0.8303(3)
C47 C 0.1578(4) 0.7642(4) 0.8834(3)
H33 H 0.1470 0.7647 0.9477
C48 C 0.2008(4) 0.6720(4) 0.8400(3)
H34 H 0.2183 0.6074 0.8748
loop_
_geom_bond_atom_site_label_1
_geom_bond_atom_site_label_2
_geom_bond_site_symmetry_1
_geom_bond_site_symmetry_2
Cl1 C22 1_555 1_555
O1 C12 1_555 1_555
O2 C14 1_555 1_555
O3 C14 1_555 1_555
C1 H1 1_555 1_555
C2 C1 1_555 1_555
H2 C2 1_555 1_555
C3 C2 1_555 1_555
H3 C3 1_555 1_555
C4 C3 1_555 1_555
H4 C4 1_555 1_555
C5 C4 1_555 1_555
C6 C5 1_555 1_555
C7 C6 1_555 1_555
H5 C7 1_555 1_555
C8 C7 1_555 1_555
H6 C8 1_555 1_555
C9 C8 1_555 1_555
H7 C9 1_555 1_555
C10 C9 1_555 1_555
H8 C10 1_555 1_555
C11 C6 1_555 1_555
C12 C11 1_555 1_555
C13 O1 1_555 1_555
C14 C13 1_555 1_555
C15 O2 1_555 1_555
C16 C1 1_555 1_555
C17 C13 1_555 1_555
H9 C17 1_555 1_555
H10 C17 1_555 1_555
C18 C17 1_555 1_555
H11 C18 1_555 1_555
H12 C18 1_555 1_555
H13 C18 1_555 1_555
C19 C13 1_555 1_555
C20 C19 1_555 1_555
H14 C20 1_555 1_555
C21 C20 1_555 1_555
H15 C21 1_555 1_555
C22 C21 1_555 1_555
C23 C22 1_555 1_555
H16 C23 1_555 1_555
C24 C19 1_555 1_555
H17 C24 1_555 1_555
Cl2 C46 1_555 1_555
O4 C36 1_555 1_555
O5 C38 1_555 1_555
O6 C38 1_555 1_555
C25 H18 1_555 1_555
C26 C25 1_555 1_555
H19 C26 1_555 1_555
C27 C26 1_555 1_555
H20 C27 1_555 1_555
C28 C27 1_555 1_555
H21 C28 1_555 1_555
C29 C28 1_555 1_555
C30 C29 1_555 1_555
C31 C30 1_555 1_555
H22 C31 1_555 1_555
C32 C31 1_555 1_555
H23 C32 1_555 1_555
C33 C32 1_555 1_555
H24 C33 1_555 1_555
C34 C33 1_555 1_555
H25 C34 1_555 1_555
C35 C30 1_555 1_555
C36 C35 1_555 1_555
C37 O4 1_555 1_555
C38 C37 1_555 1_555
C39 O5 1_555 1_555
C40 C25 1_555 1_555
C41 C37 1_555 1_555
H26 C41 1_555 1_555
H27 C41 1_555 1_555
C42 C41 1_555 1_555
H28 C42 1_555 1_555
H29 C42 1_555 1_555
H30 C42 1_555 1_555
C43 C37 1_555 1_555
C44 C43 1_555 1_555
H31 C44 1_555 1_555
C45 C44 1_555 1_555
H32 C45 1_555 1_555
C46 C45 1_555 1_555
C47 C46 1_555 1_555
H33 C47 1_555 1_555
C48 C43 1_555 1_555
H34 C48 1_555 1_555
C5 C16 1_555 1_555
C10 C11 1_555 1_555
C12 C15 1_555 1_555
C15 C16 1_555 1_555
C23 C24 1_555 1_555
C29 C40 1_555 1_555
C34 C35 1_555 1_555
C36 C39 1_555 1_555
C39 C40 1_555 1_555
C47 C48 1_555 1_555

#END
