
#######################################################################
#
#                 Cambridge Crystallographic Data Centre
#                                CCDC 
#
#######################################################################
#
# If this CIF has been generated from an entry in the Cambridge 
# Structural Database, then it will include bibliographic, chemical, 
# crystal, experimental, refinement or atomic coordinate data resulting 
# from the CCDC's data processing and validation procedures.
#
#######################################################################

data_RAMHIX
_chemical_name_common            Bromoipriflavone
_chemical_formula_moiety         'C18 H15 Br1 O3'
_chemical_name_systematic        8-Bromo-7-isopropoxylisoflavone
_symmetry_cell_setting           tetragonal
_symmetry_space_group_name_H-M   'I 41/a'
_symmetry_Int_Tables_number      88
_space_group_name_Hall           '-I 4ad'
loop_
_symmetry_equiv_pos_site_id
_symmetry_equiv_pos_as_xyz
1 x,y,z
2 3/4-y,1/4+x,1/4+z
3 1/2+x,1/2+y,1/2+z
4 1/4-y,3/4+x,3/4+z
5 1/4+y,1/4-x,1/4+z
6 1/2-x,-y,1/2+z
7 3/4+y,3/4-x,3/4+z
8 -x,1/2-y,z
9 -x,-y,-z
10 1/4+y,3/4-x,3/4-z
11 1/2-x,1/2-y,1/2-z
12 3/4+y,1/4-x,1/4-z
13 3/4-y,3/4+x,3/4-z
14 1/2+x,y,1/2-z
15 1/4-y,1/4+x,1/4-z
16 x,1/2+y,-z
_cell_length_a                   21.396(2)
_cell_length_b                   21.396(2)
_cell_length_c                   13.588(2)
_cell_angle_alpha                90
_cell_angle_beta                 90
_cell_angle_gamma                90
_cell_volume                     6220.43
_exptl_crystal_colour            colorless
_exptl_crystal_description       prism
_chemical_melting_point          '437 K'
_cell_formula_units_Z            16
_exptl_crystal_recrystallization_method ethanol
loop_
_atom_site_label
_atom_site_type_symbol
_atom_site_fract_x
_atom_site_fract_y
_atom_site_fract_z
Br1 Br 0.41980(2) 0.52696(2) 0.51727(4)
O1 O 0.31397(11) 0.43654(13) 0.5167(2)
O2 O 0.12425(12) 0.46391(11) 0.4950(2)
O3 O 0.35767(12) 0.65035(13) 0.5179(3)
C1 C 0.1800(2) 0.2945(2) 0.5982(4)
H1 H 0.2090 0.3037 0.6469
C2 C 0.1454(2) 0.2396(2) 0.6044(4)
H2 H 0.1517 0.2121 0.6565
C3 C 0.1027(2) 0.2265(2) 0.5347(4)
H3 H 0.0791 0.1901 0.5396
C4 C 0.0933(2) 0.2663(2) 0.4559(4)
H4 H 0.0637 0.2569 0.4080
C5 C 0.1287(2) 0.3208(2) 0.4490(4)
H5 H 0.1232 0.3475 0.3957
C6 C 0.1719(2) 0.3354(2) 0.5209(4)
C7 C 0.27169(19) 0.38910(18) 0.5175(3)
H6 H 0.2879 0.3488 0.5211
C8 C 0.20947(18) 0.39374(19) 0.5135(3)
C9 C 0.18088(19) 0.45535(19) 0.5029(3)
C10 C 0.22594(18) 0.50682(19) 0.5052(4)
C11 C 0.28996(17) 0.49578(18) 0.5122(3)
C12 C 0.33280(16) 0.5434(2) 0.5135(3)
C13 C 0.3126(2) 0.6058(2) 0.5108(4)
C14 C 0.24867(17) 0.61788(18) 0.5047(3)
H7 H 0.2341 0.6588 0.5026
C15 C 0.20754(16) 0.5691(2) 0.5020(3)
H8 H 0.1651 0.5779 0.4979
C16 C 0.34391(19) 0.7145(2) 0.4914(4)
H9 H 0.3048 0.7274 0.5231
C17 C 0.33751(19) 0.72044(19) 0.3832(4)
H10 H 0.3748 0.7054 0.3519
H11 H 0.3312 0.7635 0.3663
H12 H 0.3024 0.6962 0.3613
C18 C 0.39773(18) 0.75152(17) 0.5341(4)
H13 H 0.3998 0.7446 0.6039
H14 H 0.3914 0.7952 0.5215
H15 H 0.4361 0.7382 0.5042
loop_
_geom_bond_atom_site_label_1
_geom_bond_atom_site_label_2
_geom_bond_site_symmetry_1
_geom_bond_site_symmetry_2
Br1 C12 1_555 1_555
O1 C7 1_555 1_555
O2 C9 1_555 1_555
O3 C13 1_555 1_555
C1 H1 1_555 1_555
C2 C1 1_555 1_555
H2 C2 1_555 1_555
C3 C2 1_555 1_555
H3 C3 1_555 1_555
C4 C3 1_555 1_555
H4 C4 1_555 1_555
C5 C4 1_555 1_555
H5 C5 1_555 1_555
C6 C1 1_555 1_555
C7 H6 1_555 1_555
C8 C6 1_555 1_555
C9 C8 1_555 1_555
C10 C9 1_555 1_555
C11 O1 1_555 1_555
C12 C11 1_555 1_555
C13 C12 1_555 1_555
C14 C13 1_555 1_555
H7 C14 1_555 1_555
C15 C10 1_555 1_555
H8 C15 1_555 1_555
C16 O3 1_555 1_555
H9 C16 1_555 1_555
C17 C16 1_555 1_555
H10 C17 1_555 1_555
H11 C17 1_555 1_555
H12 C17 1_555 1_555
C18 C16 1_555 1_555
H13 C18 1_555 1_555
H14 C18 1_555 1_555
H15 C18 1_555 1_555
C5 C6 1_555 1_555
C7 C8 1_555 1_555
C10 C11 1_555 1_555
C14 C15 1_555 1_555

#END
