
#######################################################################
#
#                 Cambridge Crystallographic Data Centre
#                                CCDC 
#
#######################################################################
#
# If this CIF has been generated from an entry in the Cambridge 
# Structural Database, then it will include bibliographic, chemical, 
# crystal, experimental, refinement or atomic coordinate data resulting 
# from the CCDC's data processing and validation procedures.
#
#######################################################################

data_RAMHAR
_chemical_formula_moiety         'C11 H14 O4'
_chemical_name_systematic        'ethyl 3,4-dimethoxybenzoate'
_symmetry_cell_setting           monoclinic
_symmetry_space_group_name_H-M   'P 21/c'
_symmetry_Int_Tables_number      14
_space_group_name_Hall           '-P 2ybc'
loop_
_symmetry_equiv_pos_site_id
_symmetry_equiv_pos_as_xyz
1 x,y,z
2 -x,1/2+y,1/2-z
3 -x,-y,-z
4 x,1/2-y,1/2+z
_cell_length_a                   4.382(6)
_cell_length_b                   19.08(2)
_cell_length_c                   13.563(18)
_cell_angle_alpha                90
_cell_angle_beta                 92.79(2)
_cell_angle_gamma                90
_cell_volume                     1132.64
_exptl_crystal_colour            colorless
_exptl_crystal_description       block
_cell_formula_units_Z            4
loop_
_atom_site_label
_atom_site_type_symbol
_atom_site_fract_x
_atom_site_fract_y
_atom_site_fract_z
O1 O 1.2741(2) 0.35430(5) 0.16141(7)
O2 O 1.1780(2) 0.40207(5) 0.33576(6)
O3 O 0.6661(3) 0.11960(6) 0.13208(8)
O4 O 0.5183(2) 0.10621(5) 0.28795(7)
H1 H 1.002(3) 0.2300(7) 0.1243(11)
H2 H 0.615(4) 0.2090(8) 0.3891(12)
H3 H 0.829(4) 0.3166(8) 0.4404(12)
C1 C 0.9723(3) 0.24828(7) 0.18857(9)
C2 C 0.7921(3) 0.20907(7) 0.25248(9)
C3 C 0.7418(3) 0.23568(7) 0.34610(9)
C4 C 0.8673(3) 0.30005(7) 0.37663(9)
C5 C 1.0448(3) 0.33848(7) 0.31374(9)
C6 C 1.0969(3) 0.31193(7) 0.21793(8)
C7 C 1.1362(5) 0.43102(9) 0.43170(11)
H4 H 0.9218 0.4350 0.4421
H5 H 1.2291 0.4766 0.4362
H6 H 1.2298 0.4008 0.4811
C8 C 1.3217(4) 0.33196(9) 0.06273(10)
H7 H 1.4169 0.2866 0.0641
H8 H 1.4513 0.3650 0.0315
H9 H 1.1287 0.3293 0.0263
C9 C 0.6555(3) 0.14143(7) 0.21641(10)
C10 C 0.3725(4) 0.03906(8) 0.26150(13)
H10 H 0.5225 0.0064 0.2382
H11 H 0.2151 0.0458 0.2096
C11 C 0.2356(5) 0.01135(10) 0.35281(14)
H12 H 0.3936 0.0050 0.4036
H13 H 0.1381 -0.0328 0.3384
H14 H 0.0874 0.0441 0.3750
loop_
_geom_bond_atom_site_label_1
_geom_bond_atom_site_label_2
_geom_bond_site_symmetry_1
_geom_bond_site_symmetry_2
O1 C6 1_555 1_555
O2 C5 1_555 1_555
O3 C9 1_555 1_555
O4 C9 1_555 1_555
H1 C1 1_555 1_555
H2 C3 1_555 1_555
H3 C4 1_555 1_555
C1 C2 1_555 1_555
C2 C3 1_555 1_555
C3 C4 1_555 1_555
C4 C5 1_555 1_555
C5 C6 1_555 1_555
C6 C1 1_555 1_555
C7 O2 1_555 1_555
H4 C7 1_555 1_555
H5 C7 1_555 1_555
H6 C7 1_555 1_555
C8 O1 1_555 1_555
H7 C8 1_555 1_555
H8 C8 1_555 1_555
H9 C8 1_555 1_555
C9 C2 1_555 1_555
C10 O4 1_555 1_555
H10 C10 1_555 1_555
H11 C10 1_555 1_555
C11 C10 1_555 1_555
H12 C11 1_555 1_555
H13 C11 1_555 1_555
H14 C11 1_555 1_555

#END
