
#######################################################################
#
#                 Cambridge Crystallographic Data Centre
#                                CCDC 
#
#######################################################################
#
# If this CIF has been generated from an entry in the Cambridge 
# Structural Database, then it will include bibliographic, chemical, 
# crystal, experimental, refinement or atomic coordinate data resulting 
# from the CCDC's data processing and validation procedures.
#
#######################################################################

data_RAMLAV
_chemical_name_common            
'(tris(S,S-dioxides)-trithiasumanene) (1,2,6,7,11,12-hexabutoxytriphenylene)'
_chemical_formula_moiety         'C42 H54 O12 S3,C42 H60 O6'
_chemical_name_systematic        
"2,3,5,6,8,9-hexabutoxybisthieno[2',3',4',5':4,5;2'',3'',4'',5'':8,9]triphenyleno[1,12-bcd]thiophene 1,1,4,4,7,7-hexaoxide 2,3,6,7,10,11-hexabutoxytriphenylene"
_symmetry_cell_setting           triclinic
_symmetry_space_group_name_H-M   'P 1'
_symmetry_Int_Tables_number      1
_space_group_name_Hall           'P 1'
loop_
_symmetry_equiv_pos_site_id
_symmetry_equiv_pos_as_xyz
1 x,y,z
_cell_length_a                   10.542(2)
_cell_length_b                   12.791(3)
_cell_length_c                   15.052(3)
_cell_angle_alpha                97.91(3)
_cell_angle_beta                 98.81(3)
_cell_angle_gamma                96.16(3)
_cell_volume                     1969.46
_exptl_crystal_colour            'pale yellow'
_exptl_crystal_description       'tiny needle'
_chemical_melting_point          '328-330 K'
_cell_formula_units_Z            1
_exptl_crystal_recrystallization_method 'Slow evpaporation of the solution'
_exptl_crystal_preparation       Luminescent
loop_
_atom_site_label
_atom_site_type_symbol
_atom_site_fract_x
_atom_site_fract_y
_atom_site_fract_z
C1 C 0.9146(4) 0.3650(3) 0.7917(3)
C2 C 0.8897(4) 0.4467(3) 0.8579(3)
C3 C 0.7964(4) 0.5110(3) 0.8349(3)
C4 C 0.7250(4) 0.4942(3) 0.7450(3)
C5 C 0.7483(4) 0.4145(3) 0.6810(3)
C6 C 0.8443(4) 0.3489(3) 0.7049(3)
C7 C 0.9583(4) 0.4567(3) 0.9465(3)
C8 C 0.9289(4) 0.5356(3) 1.0116(3)
C9 C 0.8299(4) 0.6031(3) 0.9872(3)
C10 C 0.7645(4) 0.5896(3) 0.8974(3)
C11 C 0.6288(4) 0.5590(3) 0.7263(3)
C12 C 0.5576(4) 0.5417(3) 0.6389(3)
C13 C 0.5829(4) 0.4552(3) 0.5697(3)
C14 C 0.6788(4) 0.3919(3) 0.5926(3)
C15 C 0.8615(4) 0.2664(3) 0.6389(3)
C16 C 0.9526(4) 0.1995(3) 0.6628(3)
C17 C 1.0276(4) 0.2170(3) 0.7567(3)
C18 C 1.0072(4) 0.3005(3) 0.8207(3)
C19 C 1.0762(5) 0.4948(3) 1.1365(3)
H1 H 1.1526 0.5010 1.1058
H2 H 1.0380 0.4191 1.1263
C20 C 1.1154(5) 0.5356(3) 1.2379(3)
H3 H 1.0362 0.5369 1.2656
H4 H 1.1674 0.4848 1.2659
C21 C 1.1925(5) 0.6451(3) 1.2606(3)
H5 H 1.1371 0.6980 1.2401
H6 H 1.2666 0.6469 1.2274
C22 C 1.2431(5) 0.6755(4) 1.3632(3)
H7 H 1.1697 0.6790 1.3959
H8 H 1.2966 0.7452 1.3751
H9 H 1.2953 0.6219 1.3841
C23 C 0.7163(4) 0.7427(3) 1.0424(3)
H10 H 0.6313 0.7004 1.0164
H11 H 0.7399 0.7899 0.9990
C24 C 0.7097(4) 0.8083(3) 1.1332(3)
H12 H 0.6474 0.8598 1.1229
H13 H 0.7958 0.8495 1.1579
C25 C 0.6694(4) 0.7429(3) 1.2041(3)
H14 H 0.7315 0.6912 1.2145
H15 H 0.6742 0.7911 1.2623
C26 C 0.5333(5) 0.6827(3) 1.1765(3)
H16 H 0.4723 0.7323 1.1600
H17 H 0.5090 0.6499 1.2276
H18 H 0.5311 0.6273 1.1243
C27 C 0.4357(4) 0.6856(3) 0.6658(3)
H19 H 0.5154 0.7364 0.6885
H20 H 0.4028 0.6613 0.7187
C28 C 0.3357(4) 0.7383(3) 0.6128(3)
H21 H 0.2590 0.6853 0.5867
H22 H 0.3713 0.7652 0.5618
C29 C 0.2943(5) 0.8309(3) 0.6726(3)
H23 H 0.2529 0.8033 0.7209
H24 H 0.3719 0.8813 0.7023
C30 C 0.2006(5) 0.8891(4) 0.6177(3)
H25 H 0.2415 0.9166 0.5698
H26 H 0.1773 0.9485 0.6578
H27 H 0.1224 0.8400 0.5899
C31 C 0.5124(4) 0.3675(3) 0.4163(3)
H28 H 0.4865 0.2970 0.4328
H29 H 0.6018 0.3700 0.4033
C32 C 0.4211(4) 0.3857(3) 0.3343(3)
H30 H 0.4522 0.4539 0.3158
H31 H 0.3343 0.3911 0.3505
C33 C 0.4104(4) 0.2955(3) 0.2540(3)
H32 H 0.4980 0.2883 0.2398
H33 H 0.3765 0.2279 0.2722
C34 C 0.3232(5) 0.3130(4) 0.1687(3)
H34 H 0.2351 0.3166 0.1812
H35 H 0.3222 0.2539 0.1196
H36 H 0.3559 0.3799 0.1502
C35 C 0.9152(4) 0.0852(3) 0.5188(3)
H37 H 0.9251 0.1451 0.4842
H38 H 0.8219 0.0640 0.5179
C36 C 0.9763(4) -0.0075(3) 0.4786(3)
H39 H 0.9620 -0.0672 0.5129
H40 H 1.0709 0.0137 0.4860
C37 C 0.9234(4) -0.0462(3) 0.3781(3)
H41 H 0.9328 0.0140 0.3437
H42 H 0.8300 -0.0726 0.3706
C38 C 0.9950(5) -0.1357(4) 0.3391(3)
H43 H 1.0867 -0.1087 0.3438
H44 H 0.9571 -0.1605 0.2751
H45 H 0.9868 -0.1950 0.3737
C39 C 1.1883(4) 0.1510(3) 0.8577(3)
H46 H 1.1322 0.1370 0.9029
H47 H 1.2381 0.2228 0.8774
C40 C 1.2788(4) 0.0686(3) 0.8503(3)
H48 H 1.3334 0.0829 0.8043
H49 H 1.2279 -0.0027 0.8298
C41 C 1.3656(5) 0.0690(3) 0.9419(3)
H50 H 1.4149 0.1409 0.9628
H51 H 1.3105 0.0540 0.9875
C42 C 1.4608(5) -0.0129(4) 0.9369(4)
H52 H 1.4131 -0.0834 0.9119
H53 H 1.5077 -0.0142 0.9981
H54 H 1.5225 0.0066 0.8975
O1 O 0.9824(3) 0.5591(2) 1.1010(2)
O2 O 0.8141(3) 0.6728(2) 1.05909(19)
O3 O 0.4634(3) 0.5952(2) 0.60550(19)
O4 O 0.5056(3) 0.4513(2) 0.48991(19)
O5 O 0.9839(3) 0.1155(2) 0.61211(19)
O6 O 1.1098(3) 0.1451(2) 0.76817(19)
O7 O 1.1972(3) 0.3988(2) 0.95738(19)
O8 O 1.0257(3) 0.2735(2) 0.99500(18)
O9 O 0.6697(3) 0.7549(2) 0.82962(19)
O10 O 0.5147(3) 0.6189(2) 0.86972(19)
O11 O 0.8153(3) 0.3123(2) 0.46759(18)
O12 O 0.6514(3) 0.1868(2) 0.51202(19)
S1 S 1.06335(12) 0.35189(7) 0.94142(6)
S2 S 0.63124(12) 0.64558(7) 0.83506(6)
S3 S 0.74633(12) 0.27945(7) 0.53687(6)
C43 C 0.3677(4) 0.3338(3) 0.7284(3)
C44 C 0.3918(4) 0.2509(3) 0.6633(3)
C45 C 0.3160(4) 0.2311(3) 0.5716(3)
C46 C 0.2215(4) 0.2966(3) 0.5463(3)
C47 C 0.2006(4) 0.3843(3) 0.6128(3)
C48 C 0.2706(4) 0.4017(3) 0.7017(3)
C49 C 0.4430(4) 0.3490(3) 0.8172(3)
H55 H 0.4283 0.4047 0.8616
C50 C 0.5357(4) 0.2861(3) 0.8409(3)
C51 C 0.5612(4) 0.2034(3) 0.7742(3)
C52 C 0.4887(4) 0.1876(3) 0.6881(3)
H56 H 0.5047 0.1323 0.6439
C53 C 0.3391(4) 0.1480(3) 0.5063(3)
H57 H 0.4030 0.1042 0.5234
C54 C 0.2719(4) 0.1287(3) 0.4191(3)
C55 C 0.1730(4) 0.1933(3) 0.3932(3)
C56 C 0.1510(4) 0.2743(3) 0.4573(3)
H58 H 0.0854 0.3168 0.4405
C57 C 0.1086(4) 0.4526(3) 0.5891(3)
H59 H 0.0612 0.4409 0.5288
C58 C 0.0853(4) 0.5355(3) 0.6503(3)
C59 C 0.1558(4) 0.5526(3) 0.7411(3)
C60 C 0.2453(4) 0.4870(3) 0.7651(3)
H60 H 0.2918 0.4986 0.8256
C61 C 0.5870(4) 0.3691(3) 0.9973(3)
H61 H 0.4954 0.3578 1.0054
H62 H 0.6071 0.4424 0.9845
C62 C 0.6758(4) 0.3517(3) 1.0818(3)
H63 H 0.7646 0.3498 1.0682
H64 H 0.6463 0.2818 1.0981
C63 C 0.6791(5) 0.4384(3) 1.1627(3)
H65 H 0.5898 0.4426 1.1746
H66 H 0.7127 0.5079 1.1476
C64 C 0.7645(5) 0.4171(4) 1.2492(3)
H67 H 0.7307 0.3489 1.2650
H68 H 0.7636 0.4743 1.2996
H69 H 0.8534 0.4146 1.2382
C65 C 0.6794(4) 0.0580(3) 0.7404(3)
H70 H 0.7066 0.0840 0.6864
H71 H 0.5997 0.0066 0.7200
C66 C 0.7845(4) 0.0055(3) 0.7882(3)
H72 H 0.7532 -0.0251 0.8391
H73 H 0.8600 0.0598 0.8144
C67 C 0.8273(4) -0.0829(3) 0.7241(3)
H74 H 0.7521 -0.1377 0.6984
H75 H 0.8582 -0.0525 0.6730
C68 C 0.9340(5) -0.1344(3) 0.7733(3)
H76 H 1.0109 -0.0815 0.7946
H77 H 0.9553 -0.1932 0.7316
H78 H 0.9049 -0.1617 0.8255
C69 C 0.3948(4) -0.0081(3) 0.3731(3)
H79 H 0.3748 -0.0548 0.4178
H80 H 0.4752 0.0406 0.3999
C70 C 0.4125(4) -0.0744(3) 0.2855(3)
H81 H 0.3308 -0.1218 0.2597
H82 H 0.4806 -0.1201 0.2997
C71 C 0.4496(5) -0.0085(3) 0.2139(3)
H83 H 0.4499 -0.0571 0.1568
H84 H 0.3830 0.0389 0.2011
C72 C 0.5817(5) 0.0588(4) 0.2427(4)
H85 H 0.5801 0.1111 0.2965
H86 H 0.6020 0.0960 0.1928
H87 H 0.6478 0.0127 0.2573
C73 C 0.0083(4) 0.2268(3) 0.2773(3)
H88 H 0.0392 0.3041 0.2902
H89 H -0.0643 0.2125 0.3105
C74 C -0.0359(5) 0.1912(3) 0.1756(3)
H90 H -0.1012 0.2360 0.1535
H91 H 0.0392 0.2041 0.1445
C75 C -0.0934(4) 0.0753(3) 0.1482(3)
H92 H -0.1664 0.0605 0.1808
H93 H -0.0271 0.0294 0.1661
C76 C -0.1417(6) 0.0487(4) 0.0454(3)
H94 H -0.2077 0.0939 0.0277
H95 H -0.1793 -0.0263 0.0297
H96 H -0.0690 0.0615 0.0131
C77 C -0.0740(4) 0.5954(3) 0.5430(3)
H97 H -0.1218 0.5228 0.5244
H98 H -0.0157 0.6085 0.4988
C78 C -0.1674(4) 0.6773(3) 0.5461(3)
H99 H -0.1177 0.7494 0.5612
H100 H -0.2186 0.6674 0.5950
C79 C -0.2593(4) 0.6692(4) 0.4564(3)
H101 H -0.3069 0.5963 0.4400
H102 H -0.2086 0.6819 0.4079
C80 C -0.3562(5) 0.7492(4) 0.4616(4)
H103 H -0.4019 0.7406 0.5126
H104 H -0.4188 0.7369 0.4047
H105 H -0.3101 0.8216 0.4707
C81 C 0.1954(4) 0.6602(3) 0.8885(3)
H106 H 0.2885 0.6817 0.8888
H107 H 0.1863 0.5974 0.9199
C82 C 0.1361(4) 0.7508(3) 0.9349(3)
H108 H 0.0415 0.7298 0.9279
H109 H 0.1501 0.8135 0.9039
C83 C 0.1913(5) 0.7829(3) 1.0361(3)
H110 H 0.1844 0.7193 1.0667
H111 H 0.2842 0.8109 1.0434
C84 C 0.1201(5) 0.8670(4) 1.0812(3)
H112 H 0.1325 0.9321 1.0542
H113 H 0.1544 0.8826 1.1466
H114 H 0.0275 0.8406 1.0718
O13 O 0.6102(3) 0.2927(2) 0.92451(19)
O14 O 0.6552(3) 0.1457(2) 0.80338(18)
O15 O 0.2898(3) 0.0520(2) 0.35163(19)
O16 O 0.1114(3) 0.1676(2) 0.30549(19)
O17 O -0.0007(3) 0.6062(2) 0.6331(2)
O18 O 0.1255(3) 0.6360(2) 0.7968(2)
loop_
_geom_bond_atom_site_label_1
_geom_bond_atom_site_label_2
_geom_bond_site_symmetry_1
_geom_bond_site_symmetry_2
C1 C2 1_555 1_555
C2 C3 1_555 1_555
C3 C4 1_555 1_555
C4 C5 1_555 1_555
C5 C6 1_555 1_555
C6 C1 1_555 1_555
C7 C2 1_555 1_555
C8 C7 1_555 1_555
C9 C8 1_555 1_555
C10 C3 1_555 1_555
C11 C4 1_555 1_555
C12 C11 1_555 1_555
C13 C12 1_555 1_555
C14 C5 1_555 1_555
C15 C6 1_555 1_555
C16 C15 1_555 1_555
C17 C16 1_555 1_555
C18 C1 1_555 1_555
C19 H1 1_555 1_555
H2 C19 1_555 1_555
C20 C19 1_555 1_555
H3 C20 1_555 1_555
H4 C20 1_555 1_555
C21 C20 1_555 1_555
H5 C21 1_555 1_555
H6 C21 1_555 1_555
C22 C21 1_555 1_555
H7 C22 1_555 1_555
H8 C22 1_555 1_555
H9 C22 1_555 1_555
C23 H10 1_555 1_555
H11 C23 1_555 1_555
C24 C23 1_555 1_555
H12 C24 1_555 1_555
H13 C24 1_555 1_555
C25 C24 1_555 1_555
H14 C25 1_555 1_555
H15 C25 1_555 1_555
C26 C25 1_555 1_555
H16 C26 1_555 1_555
H17 C26 1_555 1_555
H18 C26 1_555 1_555
C27 H19 1_555 1_555
H20 C27 1_555 1_555
C28 C27 1_555 1_555
H21 C28 1_555 1_555
H22 C28 1_555 1_555
C29 C28 1_555 1_555
H23 C29 1_555 1_555
H24 C29 1_555 1_555
C30 C29 1_555 1_555
H25 C30 1_555 1_555
H26 C30 1_555 1_555
H27 C30 1_555 1_555
C31 H28 1_555 1_555
H29 C31 1_555 1_555
C32 C31 1_555 1_555
H30 C32 1_555 1_555
H31 C32 1_555 1_555
C33 C32 1_555 1_555
H32 C33 1_555 1_555
H33 C33 1_555 1_555
C34 C33 1_555 1_555
H34 C34 1_555 1_555
H35 C34 1_555 1_555
H36 C34 1_555 1_555
C35 H37 1_555 1_555
H38 C35 1_555 1_555
C36 C35 1_555 1_555
H39 C36 1_555 1_555
H40 C36 1_555 1_555
C37 C36 1_555 1_555
H41 C37 1_555 1_555
H42 C37 1_555 1_555
C38 C37 1_555 1_555
H43 C38 1_555 1_555
H44 C38 1_555 1_555
H45 C38 1_555 1_555
C39 H46 1_555 1_555
H47 C39 1_555 1_555
C40 C39 1_555 1_555
H48 C40 1_555 1_555
H49 C40 1_555 1_555
C41 C40 1_555 1_555
H50 C41 1_555 1_555
H51 C41 1_555 1_555
C42 C41 1_555 1_555
H52 C42 1_555 1_555
H53 C42 1_555 1_555
H54 C42 1_555 1_555
O1 C8 1_555 1_555
O2 C9 1_555 1_555
O3 C12 1_555 1_555
O4 C13 1_555 1_555
O5 C16 1_555 1_555
O6 C17 1_555 1_555
O7 S1 1_555 1_555
O8 S1 1_555 1_555
O9 S2 1_555 1_555
O10 S2 1_555 1_555
O11 S3 1_555 1_555
O12 S3 1_555 1_555
S1 C7 1_555 1_555
S2 C10 1_555 1_555
S3 C14 1_555 1_555
C43 C44 1_555 1_555
C44 C45 1_555 1_555
C45 C46 1_555 1_555
C46 C47 1_555 1_555
C47 C48 1_555 1_555
C48 C43 1_555 1_555
C49 C43 1_555 1_555
H55 C49 1_555 1_555
C50 C49 1_555 1_555
C51 C50 1_555 1_555
C52 C44 1_555 1_555
H56 C52 1_555 1_555
C53 C45 1_555 1_555
H57 C53 1_555 1_555
C54 C53 1_555 1_555
C55 C54 1_555 1_555
C56 C46 1_555 1_555
H58 C56 1_555 1_555
C57 C47 1_555 1_555
H59 C57 1_555 1_555
C58 C57 1_555 1_555
C59 C58 1_555 1_555
C60 C48 1_555 1_555
H60 C60 1_555 1_555
C61 H61 1_555 1_555
H62 C61 1_555 1_555
C62 C61 1_555 1_555
H63 C62 1_555 1_555
H64 C62 1_555 1_555
C63 C62 1_555 1_555
H65 C63 1_555 1_555
H66 C63 1_555 1_555
C64 C63 1_555 1_555
H67 C64 1_555 1_555
H68 C64 1_555 1_555
H69 C64 1_555 1_555
C65 H70 1_555 1_555
H71 C65 1_555 1_555
C66 C65 1_555 1_555
H72 C66 1_555 1_555
H73 C66 1_555 1_555
C67 C66 1_555 1_555
H74 C67 1_555 1_555
H75 C67 1_555 1_555
C68 C67 1_555 1_555
H76 C68 1_555 1_555
H77 C68 1_555 1_555
H78 C68 1_555 1_555
C69 H79 1_555 1_555
H80 C69 1_555 1_555
C70 C69 1_555 1_555
H81 C70 1_555 1_555
H82 C70 1_555 1_555
C71 C70 1_555 1_555
H83 C71 1_555 1_555
H84 C71 1_555 1_555
C72 C71 1_555 1_555
H85 C72 1_555 1_555
H86 C72 1_555 1_555
H87 C72 1_555 1_555
C73 H88 1_555 1_555
H89 C73 1_555 1_555
C74 C73 1_555 1_555
H90 C74 1_555 1_555
H91 C74 1_555 1_555
C75 C74 1_555 1_555
H92 C75 1_555 1_555
H93 C75 1_555 1_555
C76 C75 1_555 1_555
H94 C76 1_555 1_555
H95 C76 1_555 1_555
H96 C76 1_555 1_555
C77 H97 1_555 1_555
H98 C77 1_555 1_555
C78 C77 1_555 1_555
H99 C78 1_555 1_555
H100 C78 1_555 1_555
C79 C78 1_555 1_555
H101 C79 1_555 1_555
H102 C79 1_555 1_555
C80 C79 1_555 1_555
H103 C80 1_555 1_555
H104 C80 1_555 1_555
H105 C80 1_555 1_555
C81 H106 1_555 1_555
H107 C81 1_555 1_555
C82 C81 1_555 1_555
H108 C82 1_555 1_555
H109 C82 1_555 1_555
C83 C82 1_555 1_555
H110 C83 1_555 1_555
H111 C83 1_555 1_555
C84 C83 1_555 1_555
H112 C84 1_555 1_555
H113 C84 1_555 1_555
H114 C84 1_555 1_555
O13 C50 1_555 1_555
O14 C51 1_555 1_555
O15 C54 1_555 1_555
O16 C55 1_555 1_555
O17 C58 1_555 1_555
O18 C59 1_555 1_555
C9 C10 1_555 1_555
C11 S2 1_555 1_555
C13 C14 1_555 1_555
C15 S3 1_555 1_555
C17 C18 1_555 1_555
C18 S1 1_555 1_555
C19 O1 1_555 1_555
C23 O2 1_555 1_555
C27 O3 1_555 1_555
C31 O4 1_555 1_555
C35 O5 1_555 1_555
C39 O6 1_555 1_555
C51 C52 1_555 1_555
C55 C56 1_555 1_555
C59 C60 1_555 1_555
C61 O13 1_555 1_555
C65 O14 1_555 1_555
C69 O15 1_555 1_555
C73 O16 1_555 1_555
C77 O17 1_555 1_555
C81 O18 1_555 1_555

#END
