
#######################################################################
#
#                 Cambridge Crystallographic Data Centre
#                                CCDC 
#
#######################################################################
#
# If this CIF has been generated from an entry in the Cambridge 
# Structural Database, then it will include bibliographic, chemical, 
# crystal, experimental, refinement or atomic coordinate data resulting 
# from the CCDC's data processing and validation procedures.
#
#######################################################################

data_RAMMOK
_chemical_formula_moiety         'C16 H18 Br1 N1 O2'
_chemical_name_systematic        
6-(3-bromophenyl)-3-t-butyl-6-methyl-3-azabicyclo[3.1.0]hexane-2,4-dione
_symmetry_cell_setting           monoclinic
_symmetry_space_group_name_H-M   'P 21/c'
_symmetry_Int_Tables_number      14
_space_group_name_Hall           '-P 2ybc'
loop_
_symmetry_equiv_pos_site_id
_symmetry_equiv_pos_as_xyz
1 x,y,z
2 -x,1/2+y,1/2-z
3 -x,-y,-z
4 x,1/2-y,1/2+z
_cell_length_a                   6.9645(14)
_cell_length_b                   14.893(3)
_cell_length_c                   14.570(3)
_cell_angle_alpha                90
_cell_angle_beta                 101.19(3)
_cell_angle_gamma                90
_cell_volume                     1482.5
_cell_formula_units_Z            4
loop_
_atom_site_label
_atom_site_type_symbol
_atom_site_fract_x
_atom_site_fract_y
_atom_site_fract_z
Br1 Br 0.37695(8) 0.40550(4) 0.85848(5)
N1 N 1.2278(5) 0.7631(3) 1.0361(3)
C1 C 1.0189(7) 0.6393(3) 1.0035(3)
H1 H 0.9879 0.5834 1.0331
C2 C 1.1614(6) 0.6375(3) 0.9396(3)
H2 H 1.2225 0.5805 0.9279
C3 C 0.5983(7) 0.4601(3) 0.8247(4)
C4 C 1.0669(7) 0.7208(3) 1.0614(3)
C5 C 0.9467(6) 0.6525(3) 0.8993(3)
C6 C 0.8492(7) 0.5716(3) 0.8490(3)
C7 C 1.2855(7) 0.7184(4) 0.9625(4)
C8 C 0.6841(6) 0.5339(3) 0.8728(3)
H3 H 0.6312 0.5583 0.9211
C9 C 1.3144(8) 0.8472(3) 1.0834(4)
C10 C 0.9206(8) 0.5353(4) 0.7754(4)
H4 H 1.0293 0.5611 0.7575
C11 C 0.6716(8) 0.4229(4) 0.7525(4)
H5 H 0.6128 0.3727 0.7211
C12 C 0.8336(9) 0.4613(4) 0.7276(4)
H6 H 0.8846 0.4373 0.6785
C13 C 0.8696(7) 0.7410(3) 0.8580(4)
H7 H 0.7305 0.7369 0.8369
H8 H 0.9305 0.7554 0.8062
H9 H 0.8986 0.7870 0.9048
O1 O 1.4125(6) 0.7407(3) 0.9216(3)
O2 O 0.9806(6) 0.7463(3) 1.1204(3)
C14 C 1.1629(9) 0.9211(4) 1.0626(4)
H10 H 1.1303 0.9311 0.9963
H11 H 1.2149 0.9753 1.0933
H12 H 1.0474 0.9037 1.0849
C15 C 1.3684(9) 0.8298(4) 1.1881(4)
H13 H 1.4641 0.7827 1.1999
H14 H 1.2536 0.8121 1.2109
H15 H 1.4216 0.8835 1.2195
C16 C 1.4991(10) 0.8750(5) 1.0497(5)
H16 H 1.4685 0.8857 0.9835
H17 H 1.5946 0.8279 1.0630
H18 H 1.5507 0.9288 1.0814
loop_
_geom_bond_atom_site_label_1
_geom_bond_atom_site_label_2
_geom_bond_site_symmetry_1
_geom_bond_site_symmetry_2
Br1 C3 1_555 1_555
N1 C4 1_555 1_555
C1 H1 1_555 1_555
C2 C1 1_555 1_555
H2 C2 1_555 1_555
C3 C8 1_555 1_555
C4 C1 1_555 1_555
C5 C1 1_555 1_555
C6 C5 1_555 1_555
C7 N1 1_555 1_555
C8 C6 1_555 1_555
H3 C8 1_555 1_555
C9 N1 1_555 1_555
C10 C6 1_555 1_555
H4 C10 1_555 1_555
C11 C3 1_555 1_555
H5 C11 1_555 1_555
C12 C10 1_555 1_555
H6 C12 1_555 1_555
C13 C5 1_555 1_555
H7 C13 1_555 1_555
H8 C13 1_555 1_555
H9 C13 1_555 1_555
O1 C7 1_555 1_555
O2 C4 1_555 1_555
C14 C9 1_555 1_555
H10 C14 1_555 1_555
H11 C14 1_555 1_555
H12 C14 1_555 1_555
C15 C9 1_555 1_555
H13 C15 1_555 1_555
H14 C15 1_555 1_555
H15 C15 1_555 1_555
C16 C9 1_555 1_555
H16 C16 1_555 1_555
H17 C16 1_555 1_555
H18 C16 1_555 1_555
C2 C5 1_555 1_555
C2 C7 1_555 1_555
C11 C12 1_555 1_555

#END
