
#######################################################################
#
#                 Cambridge Crystallographic Data Centre
#                                CCDC 
#
#######################################################################
#
# If this CIF has been generated from an entry in the Cambridge 
# Structural Database, then it will include bibliographic, chemical, 
# crystal, experimental, refinement or atomic coordinate data resulting 
# from the CCDC's data processing and validation procedures.
#
#######################################################################

data_RAMMUQ
_chemical_formula_moiety         'C16 H19 N1 O2'
_chemical_name_systematic        
3-t-butyl-6-methyl-6-phenyl-3-azabicyclo[3.1.0]hexane-2,4-dione
_symmetry_cell_setting           orthorhombic
_symmetry_space_group_name_H-M   'P 21 21 21'
_symmetry_Int_Tables_number      19
_space_group_name_Hall           'P 2ac 2ab'
loop_
_symmetry_equiv_pos_site_id
_symmetry_equiv_pos_as_xyz
1 x,y,z
2 1/2-x,-y,1/2+z
3 -x,1/2+y,1/2-z
4 1/2+x,1/2-y,-z
_cell_length_a                   8.8657(18)
_cell_length_b                   11.708(2)
_cell_length_c                   13.548(3)
_cell_angle_alpha                90
_cell_angle_beta                 90
_cell_angle_gamma                90
_cell_volume                     1406.28
_cell_formula_units_Z            4
loop_
_atom_site_label
_atom_site_type_symbol
_atom_site_fract_x
_atom_site_fract_y
_atom_site_fract_z
O1 O 0.2522(2) 0.52329(18) 0.52143(18)
N1 N 0.4392(2) 0.38918(19) 0.55067(17)
O2 O 0.5695(3) 0.21917(19) 0.53142(19)
C1 C 0.4999(3) 0.2983(2) 0.4972(2)
C2 C 0.3397(3) 0.4513(3) 0.4921(2)
C3 C 0.7640(3) 0.4584(3) 0.4215(2)
H1 H 0.7850 0.3809 0.4150
C4 C 0.6254(3) 0.4999(2) 0.39166(19)
C5 C 0.4629(3) 0.3146(3) 0.3921(2)
H2 H 0.4440 0.2476 0.3505
C6 C 0.5979(3) 0.6161(2) 0.4012(2)
H3 H 0.5057 0.6458 0.3808
C7 C 0.4691(4) 0.4144(3) 0.6580(2)
C8 C 0.3551(3) 0.4132(3) 0.3887(2)
H4 H 0.2664 0.4103 0.3456
C9 C 0.7056(4) 0.6883(3) 0.4406(3)
H5 H 0.6861 0.7660 0.4471
C10 C 0.5114(3) 0.4245(3) 0.3447(2)
C11 C 0.8719(4) 0.5303(3) 0.4610(2)
H6 H 0.9644 0.5010 0.4812
C12 C 0.5193(4) 0.4222(4) 0.2321(2)
H7 H 0.5505 0.4957 0.2083
H8 H 0.4217 0.4040 0.2058
H9 H 0.5908 0.3654 0.2115
C13 C 0.8429(4) 0.6435(3) 0.4702(2)
H10 H 0.9159 0.6915 0.4968
C14 C 0.4743(6) 0.5417(3) 0.6741(3)
H11 H 0.5545 0.5741 0.6356
H12 H 0.4916 0.5573 0.7428
H13 H 0.3800 0.5749 0.6543
C15 C 0.6224(5) 0.3670(5) 0.6883(3)
H14 H 0.6234 0.2858 0.6790
H15 H 0.6408 0.3843 0.7565
H16 H 0.6997 0.4012 0.6484
C16 C 0.3453(5) 0.3600(4) 0.7183(3)
H17 H 0.3448 0.2790 0.7070
H18 H 0.2497 0.3916 0.6993
H19 H 0.3627 0.3747 0.7871
loop_
_geom_bond_atom_site_label_1
_geom_bond_atom_site_label_2
_geom_bond_site_symmetry_1
_geom_bond_site_symmetry_2
O1 C2 1_555 1_555
N1 C1 1_555 1_555
O2 C1 1_555 1_555
C1 C5 1_555 1_555
C2 N1 1_555 1_555
C3 H1 1_555 1_555
C4 C3 1_555 1_555
C5 H2 1_555 1_555
C6 C4 1_555 1_555
H3 C6 1_555 1_555
C7 N1 1_555 1_555
C8 C2 1_555 1_555
H4 C8 1_555 1_555
C9 C6 1_555 1_555
H5 C9 1_555 1_555
C10 C4 1_555 1_555
C11 C3 1_555 1_555
H6 C11 1_555 1_555
C12 C10 1_555 1_555
H7 C12 1_555 1_555
H8 C12 1_555 1_555
H9 C12 1_555 1_555
C13 C9 1_555 1_555
H10 C13 1_555 1_555
C14 C7 1_555 1_555
H11 C14 1_555 1_555
H12 C14 1_555 1_555
H13 C14 1_555 1_555
C15 C7 1_555 1_555
H14 C15 1_555 1_555
H15 C15 1_555 1_555
H16 C15 1_555 1_555
C16 C7 1_555 1_555
H17 C16 1_555 1_555
H18 C16 1_555 1_555
H19 C16 1_555 1_555
C5 C8 1_555 1_555
C5 C10 1_555 1_555
C8 C10 1_555 1_555
C11 C13 1_555 1_555

#END
