
#######################################################################
#
#                 Cambridge Crystallographic Data Centre
#                                CCDC 
#
#######################################################################
#
# If this CIF has been generated from an entry in the Cambridge 
# Structural Database, then it will include bibliographic, chemical, 
# crystal, experimental, refinement or atomic coordinate data resulting 
# from the CCDC's data processing and validation procedures.
#
#######################################################################

data_RAMNAX
_chemical_formula_moiety         'C14 H16 Cl1 N3 Se1,H2 O1'
_chemical_name_systematic        
'3-(4-chlorophenyl)-N-cyclohexyl-1,2,4-selenadiazol-5-amine monohydrate'
_symmetry_cell_setting           rhombohedral
_symmetry_space_group_name_H-M   'R -3'
_symmetry_Int_Tables_number      148
_space_group_name_Hall           '-R 3'
loop_
_symmetry_equiv_pos_site_id
_symmetry_equiv_pos_as_xyz
1 x,y,z
2 -y,x-y,z
3 -x+y,-x,z
4 2/3+x,1/3+y,1/3+z
5 2/3-y,1/3+x-y,1/3+z
6 2/3-x+y,1/3-x,1/3+z
7 1/3+x,2/3+y,2/3+z
8 1/3-y,2/3+x-y,2/3+z
9 1/3-x+y,2/3-x,2/3+z
10 -x,-y,-z
11 y,-x+y,-z
12 x-y,x,-z
13 1/3-x,2/3-y,2/3-z
14 1/3+y,2/3-x+y,2/3-z
15 1/3+x-y,2/3+x,2/3-z
16 2/3-x,1/3-y,1/3-z
17 2/3+y,1/3-x+y,1/3-z
18 2/3+x-y,1/3+x,1/3-z
_cell_length_a                   25.4682(9)
_cell_length_b                   25.4682(9)
_cell_length_c                   12.3160(5)
_cell_angle_alpha                90
_cell_angle_beta                 90
_cell_angle_gamma                120
_cell_volume                     6918.26
_exptl_crystal_colour            'light colorless'
_exptl_crystal_description       needle
_cell_formula_units_Z            18
loop_
_atom_site_label
_atom_site_type_symbol
_atom_site_fract_x
_atom_site_fract_y
_atom_site_fract_z
Se1 Se 0.638402(18) 0.007153(19) 0.32104(3)
Cl1 Cl 0.45169(6) 0.12055(6) -0.10133(9)
N1 N 0.52942(15) -0.07527(16) 0.4280(3)
H1 H 0.5536 -0.0798 0.4707
N2 N 0.52451(13) -0.01873(13) 0.2825(2)
N3 N 0.62182(14) 0.04443(15) 0.2098(3)
C1 C 0.46452(18) -0.11275(19) 0.4479(3)
H2 H 0.4435 -0.0944 0.4112
C2 C 0.4529(2) -0.1143(2) 0.5692(3)
H3 H 0.4654 -0.0737 0.5946
H4 H 0.4769 -0.1285 0.6071
C3 C 0.3856(2) -0.1563(2) 0.5952(4)
H5 H 0.3802 -0.1591 0.6734
H6 H 0.3624 -0.1388 0.5659
C4 C 0.3620(2) -0.2180(2) 0.5499(4)
H7 H 0.3187 -0.2416 0.5629
H8 H 0.3811 -0.2377 0.5869
C5 C 0.3739(2) -0.2165(2) 0.4297(4)
H9 H 0.3504 -0.2019 0.3915
H10 H 0.3608 -0.2573 0.4044
C6 C 0.4412(2) -0.1754(2) 0.4037(3)
H11 H 0.4642 -0.1926 0.4349
H12 H 0.4470 -0.1732 0.3257
C7 C 0.55391(16) -0.03489(17) 0.3493(3)
C8 C 0.56331(17) 0.02406(16) 0.2100(3)
C9 C 0.53676(16) 0.04861(16) 0.1320(3)
C10 C 0.48235(17) 0.04591(17) 0.1565(3)
H13 H 0.4629 0.0285 0.2216
C11 C 0.45675(18) 0.06854(17) 0.0861(3)
H14 H 0.4205 0.0670 0.1034
C12 C 0.48590(19) 0.09373(17) -0.0112(3)
C13 C 0.53928(19) 0.09682(18) -0.0373(3)
H15 H 0.5582 0.1137 -0.1030
C14 C 0.56511(18) 0.07487(17) 0.0341(3)
H16 H 0.6019 0.0776 0.0169
O1 O 0.4093(4) -0.2894(7) 0.1896(6)
O2? O 0.3968(6) -0.3337(9) 0.1649(10)
loop_
_geom_bond_atom_site_label_1
_geom_bond_atom_site_label_2
_geom_bond_site_symmetry_1
_geom_bond_site_symmetry_2
Se1 N3 1_555 1_555
Cl1 C12 1_555 1_555
N1 H1 1_555 1_555
N2 C7 1_555 1_555
N3 C8 1_555 1_555
C1 N1 1_555 1_555
H2 C1 1_555 1_555
C2 C1 1_555 1_555
H3 C2 1_555 1_555
H4 C2 1_555 1_555
C3 C2 1_555 1_555
H5 C3 1_555 1_555
H6 C3 1_555 1_555
C4 C3 1_555 1_555
H7 C4 1_555 1_555
H8 C4 1_555 1_555
C5 C4 1_555 1_555
H9 C5 1_555 1_555
H10 C5 1_555 1_555
C6 C1 1_555 1_555
H11 C6 1_555 1_555
H12 C6 1_555 1_555
C7 Se1 1_555 1_555
C8 N2 1_555 1_555
C9 C8 1_555 1_555
C10 C9 1_555 1_555
H13 C10 1_555 1_555
C11 C10 1_555 1_555
H14 C11 1_555 1_555
C12 C11 1_555 1_555
C13 C12 1_555 1_555
H15 C13 1_555 1_555
C14 C9 1_555 1_555
H16 C14 1_555 1_555
N1 C7 1_555 1_555
C5 C6 1_555 1_555
C13 C14 1_555 1_555

#END
