
#######################################################################
#
#                 Cambridge Crystallographic Data Centre
#                                CCDC 
#
#######################################################################
#
# If this CIF has been generated from an entry in the Cambridge 
# Structural Database, then it will include bibliographic, chemical, 
# crystal, experimental, refinement or atomic coordinate data resulting 
# from the CCDC's data processing and validation procedures.
#
#######################################################################

data_RAMPOL
_chemical_formula_moiety         
'2(C35 H45 N1 O12),C12 H14 N2 2+,2(F6 P1 1-),4(C2 H3 N1),C3 H6 O1,2(H2 O1)'
_chemical_name_systematic        
"(3)-(bis(2,5,8,11,14,16,19,22,25,28,29,33-Dodecaoxa-1,15(1,3,5)-dibenzena-31(2,6)-pyridinabicyclo(13.13.5)tritriacontaphane) N,N'-dimethyl-4,4'-bipyridinium) pseudorotaxane bis(hexafluorophosphate) acetone acetotnitrile solvate dihydrate"
_symmetry_cell_setting           triclinic
_symmetry_space_group_name_H-M   'P -1'
_symmetry_Int_Tables_number      2
_space_group_name_Hall           '-P 1'
loop_
_symmetry_equiv_pos_site_id
_symmetry_equiv_pos_as_xyz
1 x,y,z
2 -x,-y,-z
_cell_length_a                   10.3991(6)
_cell_length_b                   13.6159(8)
_cell_length_c                   19.3423(12)
_cell_angle_alpha                87.7590(10)
_cell_angle_beta                 82.5240(10)
_cell_angle_gamma                72.6750(10)
_cell_volume                     2592.26
_exptl_crystal_colour            yellow
_exptl_crystal_description       block
_cell_formula_units_Z            1
_exptl_crystal_recrystallization_method 'acetonitrile/pentane (1:1)'
loop_
_atom_site_label
_atom_site_type_symbol
_atom_site_fract_x
_atom_site_fract_y
_atom_site_fract_z
N2 N 0.51605(19) 0.75045(13) 0.45546(10)
C36 C 0.5071(2) 0.77451(16) 0.52258(12)
H46 H 0.5047 0.7244 0.5571
C37 C 0.5012(2) 0.87211(15) 0.54128(11)
H47 H 0.4956 0.8885 0.5886
C38 C 0.5036(2) 0.94700(14) 0.49033(11)
C39 C 0.5130(2) 0.91865(16) 0.42134(11)
H48 H 0.5149 0.9671 0.3856
C40 C 0.5195(2) 0.82000(16) 0.40525(12)
H49 H 0.5265 0.8012 0.3584
C41 C 0.5224(3) 0.64477(17) 0.43715(15)
H50 H 0.5286 0.6390 0.3869
H51 H 0.4412 0.6293 0.4589
H52 H 0.6016 0.5965 0.4536
N2A N 0.48395(19) 1.24955(13) 0.54454(10)
C36A C 0.4929(2) 1.22549(16) 0.47742(12)
H46A H 0.4953 1.2756 0.4429
C37A C 0.4988(2) 1.12789(15) 0.45872(11)
H47A H 0.5044 1.1115 0.4114
C38A C 0.4964(2) 1.05300(14) 0.50967(11)
C39A C 0.4870(2) 1.08135(16) 0.57866(11)
H48A H 0.4851 1.0329 0.6144
C40A C 0.4805(2) 1.18000(16) 0.59475(12)
H49A H 0.4735 1.1988 0.6416
C41A C 0.4776(3) 1.35523(17) 0.56285(15)
H50A H 0.4714 1.3610 0.6131
H51A H 0.5588 1.3707 0.5411
H52A H 0.3984 1.4035 0.5464
P1 P 0.91907(8) 0.26323(6) 0.15393(4)
F1 F 0.9169(4) 0.1612(2) 0.11843(16)
F2 F 0.8759(3) 0.3224(2) 0.08546(12)
F3 F 0.9038(3) 0.36914(16) 0.18895(12)
F4 F 0.9629(2) 0.20587(19) 0.22261(12)
F5 F 0.7665(2) 0.27415(19) 0.18447(14)
F6 F 1.0688(2) 0.2504(2) 0.12411(15)
N3 N 0.5267(3) 0.68803(19) 0.25788(13)
C42 C 0.5209(3) 0.7472(2) 0.21466(14)
C43 C 0.5139(3) 0.8234(2) 0.15938(16)
N4 N 0.3266(6) 0.4559(4) 0.1820(2)
C44 C 0.4228(6) 0.4722(3) 0.1589(2)
C45 C 0.5454(4) 0.4910(2) 0.12885(19)
O13 O 0.1016(3) 0.4125(2) 0.27332(15)
O1 O 0.76009(18) 1.00193(11) 0.33417(9)
O2 O 0.24220(19) 1.10138(13) 0.37236(9)
O3 O 0.1696(2) 0.80020(15) 0.48087(9)
O4 O 0.27625(18) 0.70996(13) 0.60836(10)
O5 O 0.52676(19) 0.55812(12) 0.61511(9)
O6 O 0.7745(2) 0.57879(17) 0.53532(14)
O7 O 0.89245(18) 0.66485(12) 0.42536(9)
O8 O 0.84478(18) 0.71567(11) 0.18513(8)
O9 O 0.76181(18) 0.63859(13) 0.07331(9)
O10 O 0.52435(19) 0.66024(13) 0.00933(9)
O11 O 0.29185(18) 0.72291(14) 0.11051(9)
O12 O 0.19531(19) 0.83690(14) 0.23511(9)
N1 N 0.4968(2) 1.10824(12) 0.28953(10)
C1 C 0.7421(3) 1.07221(17) 0.27659(13)
H1 H 0.8186 1.0473 0.2400
H2 H 0.7443 1.1392 0.2922
C2 C 0.6120(3) 1.08669(15) 0.24571(12)
C3 C 0.6129(3) 1.08572(18) 0.17386(13)
H3 H 0.6952 1.0721 0.1441
C4 C 0.4924(3) 1.1049(2) 0.14692(14)
H4 H 0.4910 1.1023 0.0985
C5 C 0.3742(3) 1.12779(19) 0.19134(14)
H5 H 0.2902 1.1423 0.1739
C6 C 0.3799(3) 1.12929(16) 0.26249(13)
C7 C 0.2498(3) 1.16401(19) 0.31146(16)
H6 H 0.2378 1.2344 0.3265
H7 H 0.1740 1.1658 0.2857
C8 C 0.2176(2) 1.00931(18) 0.36449(14)
C9 C 0.1982(2) 0.9575(2) 0.42670(13)
H8 H 0.1957 0.9878 0.4699
C10 C 0.1829(2) 0.86046(19) 0.42356(13)
C11 C 0.1836(2) 0.8152(2) 0.36037(13)
H9 H 0.1745 0.7487 0.3588
C12 C 0.1981(2) 0.87041(19) 0.29971(13)
C13 C 0.2163(2) 0.96736(19) 0.30115(13)
H10 H 0.2276 1.0036 0.2595
C14 C 0.1405(3) 0.8475(2) 0.54822(13)
H11 H 0.0517 0.8999 0.5526
H12 H 0.2096 0.8806 0.5552
C15 C 0.1406(3) 0.7645(2) 0.60069(14)
H13 H 0.0924 0.7944 0.6455
H14 H 0.0943 0.7179 0.5852
C16 C 0.2905(3) 0.6172(2) 0.64690(16)
H15 H 0.2806 0.5638 0.6173
H16 H 0.2192 0.6283 0.6868
C17 C 0.4239(3) 0.5837(2) 0.67159(14)
H17 H 0.4358 0.6390 0.6987
H18 H 0.4299 0.5237 0.7021
C18 C 0.6574(3) 0.5259(2) 0.63892(17)
H19 H 0.6625 0.4680 0.6712
H20 H 0.6706 0.5825 0.6641
C19 C 0.7652(3) 0.4948(2) 0.5798(2)
H21 H 0.8524 0.4643 0.5977
H22 H 0.7474 0.4421 0.5527
C20 C 0.8797(3) 0.61894(19) 0.54416(13)
H23 H 0.9673 0.5657 0.5353
H24 H 0.8693 0.6439 0.5920
C21 C 0.8737(3) 0.70548(18) 0.49370(12)
H25 H 0.7856 0.7582 0.5022
H26 H 0.9451 0.7370 0.4991
C22 C 0.8635(2) 0.73216(17) 0.37193(12)
C23 C 0.8318(2) 0.83693(17) 0.37887(12)
H27 H 0.8324 0.8663 0.4220
C24 C 0.7986(2) 0.89900(16) 0.32081(12)
C25 C 0.8033(2) 0.85614(16) 0.25675(12)
H28 H 0.7821 0.8983 0.2177
C26 C 0.8397(2) 0.74987(17) 0.25088(12)
C27 C 0.8675(2) 0.68611(16) 0.30800(12)
H29 H 0.8883 0.6143 0.3040
C28 C 0.8741(3) 0.60747(16) 0.17485(13)
H30 H 0.8007 0.5829 0.1991
H31 H 0.9588 0.5704 0.1933
C29 C 0.8873(3) 0.58947(18) 0.09804(13)
H32 H 0.9580 0.6170 0.0739
H33 H 0.9136 0.5155 0.0887
C30 C 0.7636(3) 0.6179(2) 0.00186(13)
H34 H 0.7673 0.5459 -0.0041
H35 H 0.8441 0.6296 -0.0253
C31 C 0.6379(3) 0.6875(2) -0.02327(13)
H36 H 0.6288 0.7591 -0.0122
H37 H 0.6436 0.6814 -0.0740
C32 C 0.4000(3) 0.7318(2) -0.00421(14)
H38 H 0.3895 0.7293 -0.0537
H39 H 0.3998 0.8015 0.0066
C33 C 0.2849(3) 0.7062(2) 0.03949(13)
H40 H 0.1983 0.7497 0.0260
H41 H 0.2904 0.6341 0.0323
C34 C 0.1719(3) 0.7214(3) 0.15340(15)
H42 H 0.1539 0.6557 0.1480
H43 H 0.0949 0.7766 0.1394
C35 C 0.1868(3) 0.7357(2) 0.22770(14)
H44 H 0.1084 0.7263 0.2583
H45 H 0.2690 0.6850 0.2406
loop_
_geom_bond_atom_site_label_1
_geom_bond_atom_site_label_2
_geom_bond_site_symmetry_1
_geom_bond_site_symmetry_2
O1 C1 1_555 1_555
O2 C7 1_555 1_555
O3 C10 1_555 1_555
O4 C15 1_555 1_555
O5 C17 1_555 1_555
O6 C19 1_555 1_555
O7 C21 1_555 1_555
O8 C26 1_555 1_555
O9 C29 1_555 1_555
O10 C31 1_555 1_555
O11 C33 1_555 1_555
O12 C12 1_555 1_555
N1 C2 1_555 1_555
N2 C36 1_555 1_555
C1 H1 1_555 1_555
H2 C1 1_555 1_555
C2 C1 1_555 1_555
C3 C2 1_555 1_555
H3 C3 1_555 1_555
C4 C3 1_555 1_555
H4 C4 1_555 1_555
C5 C4 1_555 1_555
H5 C5 1_555 1_555
C6 N1 1_555 1_555
C7 C6 1_555 1_555
H6 C7 1_555 1_555
H7 C7 1_555 1_555
C8 O2 1_555 1_555
C9 C8 1_555 1_555
H8 C9 1_555 1_555
C10 C9 1_555 1_555
C11 C10 1_555 1_555
H9 C11 1_555 1_555
C12 C11 1_555 1_555
C13 C8 1_555 1_555
H10 C13 1_555 1_555
C14 O3 1_555 1_555
H11 C14 1_555 1_555
H12 C14 1_555 1_555
C15 C14 1_555 1_555
H13 C15 1_555 1_555
H14 C15 1_555 1_555
C16 O4 1_555 1_555
H15 C16 1_555 1_555
H16 C16 1_555 1_555
C17 C16 1_555 1_555
H17 C17 1_555 1_555
H18 C17 1_555 1_555
C18 O5 1_555 1_555
H19 C18 1_555 1_555
H20 C18 1_555 1_555
C19 C18 1_555 1_555
H21 C19 1_555 1_555
H22 C19 1_555 1_555
C20 O6 1_555 1_555
H23 C20 1_555 1_555
H24 C20 1_555 1_555
C21 C20 1_555 1_555
H25 C21 1_555 1_555
H26 C21 1_555 1_555
C22 O7 1_555 1_555
C23 C22 1_555 1_555
H27 C23 1_555 1_555
C24 O1 1_555 1_555
C25 C24 1_555 1_555
H28 C25 1_555 1_555
C26 C25 1_555 1_555
C27 C22 1_555 1_555
H29 C27 1_555 1_555
C28 O8 1_555 1_555
H30 C28 1_555 1_555
H31 C28 1_555 1_555
C29 C28 1_555 1_555
H32 C29 1_555 1_555
H33 C29 1_555 1_555
C30 O9 1_555 1_555
H34 C30 1_555 1_555
H35 C30 1_555 1_555
C31 C30 1_555 1_555
H36 C31 1_555 1_555
H37 C31 1_555 1_555
C32 O10 1_555 1_555
H38 C32 1_555 1_555
H39 C32 1_555 1_555
C33 C32 1_555 1_555
H40 C33 1_555 1_555
H41 C33 1_555 1_555
C34 O11 1_555 1_555
H42 C34 1_555 1_555
H43 C34 1_555 1_555
C35 O12 1_555 1_555
H44 C35 1_555 1_555
H45 C35 1_555 1_555
C36 H46 1_555 1_555
C37 C36 1_555 1_555
H47 C37 1_555 1_555
C38 C37 1_555 1_555
C39 C38 1_555 1_555
H48 C39 1_555 1_555
C40 N2 1_555 1_555
H49 C40 1_555 1_555
C41 N2 1_555 1_555
H50 C41 1_555 1_555
H51 C41 1_555 1_555
H52 C41 1_555 1_555
P1 F1 1_555 1_555
F2 P1 1_555 1_555
F3 P1 1_555 1_555
F4 P1 1_555 1_555
F5 P1 1_555 1_555
F6 P1 1_555 1_555
N3 C42 1_555 1_555
C42 C43 1_555 1_555
N4 C44 1_555 1_555
C44 C45 1_555 1_555
N2A C36A 1_555 1_555
C36A H46A 1_555 1_555
C37A C36A 1_555 1_555
H47A C37A 1_555 1_555
C38A C38 1_555 1_555
C39A C38A 1_555 1_555
H48A C39A 1_555 1_555
C40A N2A 1_555 1_555
H49A C40A 1_555 1_555
C41A N2A 1_555 1_555
H50A C41A 1_555 1_555
H51A C41A 1_555 1_555
H52A C41A 1_555 1_555
C5 C6 1_555 1_555
C12 C13 1_555 1_555
C23 C24 1_555 1_555
C26 C27 1_555 1_555
C34 C35 1_555 1_555
C39 C40 1_555 1_555
C37A C38A 1_555 1_555
C39A C40A 1_555 1_555

#END
