
#######################################################################
#
#                 Cambridge Crystallographic Data Centre
#                                CCDC 
#
#######################################################################
#
# If this CIF has been generated from an entry in the Cambridge 
# Structural Database, then it will include bibliographic, chemical, 
# crystal, experimental, refinement or atomic coordinate data resulting 
# from the CCDC's data processing and validation procedures.
#
#######################################################################

data_RAMPUT
_chemical_formula_moiety         'C39 H36 O4 Se1'
_chemical_name_systematic        
'diethyl 5-(4-ethylphenyl)-4-((4-ethylphenyl)ethynyl)-1,3-dihydro-2H-benzo[b]indeno[5,4-d]selenophene-2,2-dicarboxylate'
_symmetry_cell_setting           triclinic
_symmetry_space_group_name_H-M   'P -1'
_symmetry_Int_Tables_number      2
_space_group_name_Hall           '-P 1'
loop_
_symmetry_equiv_pos_site_id
_symmetry_equiv_pos_as_xyz
1 x,y,z
2 -x,-y,-z
_cell_length_a                   9.1407(8)
_cell_length_b                   10.9800(10)
_cell_length_c                   18.0686(16)
_cell_angle_alpha                105.4320(10)
_cell_angle_beta                 91.9620(10)
_cell_angle_gamma                108.6040(10)
_cell_volume                     1642.58
_exptl_crystal_colour            colorless
_exptl_crystal_description       block
_cell_formula_units_Z            2
loop_
_atom_site_label
_atom_site_type_symbol
_atom_site_fract_x
_atom_site_fract_y
_atom_site_fract_z
C1 C 0.7160(3) 1.0225(2) 0.40210(13)
C2 C 0.5637(3) 0.9054(2) 0.40093(15)
H1 H 0.5522 0.8953 0.4524
H2 H 0.4731 0.9214 0.3818
C3 C 0.5836(3) 0.7833(2) 0.34720(13)
C4 C 0.4805(3) 0.6514(2) 0.32412(13)
C5 C 0.5122(3) 0.5490(2) 0.26879(13)
C6 C 0.6577(3) 0.5789(2) 0.24105(13)
C7 C 0.7642(3) 0.7112(2) 0.26714(12)
C8 C 0.7232(3) 0.8126(2) 0.31777(13)
C9 C 0.8170(3) 0.9601(2) 0.34605(15)
H3 H 0.8332 0.9986 0.3032
H4 H 0.9175 0.9751 0.3732
C10 C 0.8104(3) 1.0811(3) 0.48163(14)
C11 C 1.0249(4) 1.2624(3) 0.55852(17)
H5 H 1.0980 1.2142 0.5557
H6 H 0.9741 1.2579 0.6044
C12 C 1.1073(4) 1.4039(4) 0.5620(2)
H7 H 1.1525 1.4072 0.5151
H8 H 1.1880 1.4446 0.6053
H9 H 1.0350 1.4517 0.5678
C13 C 0.6820(3) 1.1339(2) 0.37750(14)
C14 C 0.5270(4) 1.2743(3) 0.3984(2)
H10 H 0.6130 1.3589 0.4117
H11 H 0.4935 1.2474 0.3432
C15 C 0.4001(5) 1.2907(4) 0.4407(3)
H12 H 0.3128 1.2084 0.4248
H13 H 0.3705 1.3615 0.4302
H14 H 0.4324 1.3131 0.4952
C16 C 0.3812(3) 0.4204(2) 0.24709(14)
C17 C 0.3658(3) 0.3030(3) 0.19051(16)
H15 H 0.4448 0.2986 0.1599
C18 C 0.2310(4) 0.1903(3) 0.17911(19)
H16 H 0.2203 0.1120 0.1401
C19 C 0.1139(4) 0.1941(3) 0.2250(2)
H17 H 0.0276 0.1172 0.2184
C20 C 0.1242(3) 0.3107(3) 0.28032(19)
H18 H 0.0449 0.3143 0.3108
C21 C 0.2559(3) 0.4234(3) 0.28970(15)
C22 C 0.7079(3) 0.4781(2) 0.18493(13)
C23 C 0.7260(4) 0.4865(3) 0.11071(15)
H19 H 0.7014 0.5526 0.0952
C24 C 0.7798(4) 0.3982(3) 0.05925(16)
H20 H 0.7925 0.4069 0.0098
C25 C 0.8152(4) 0.2977(3) 0.07941(18)
C26 C 0.7962(4) 0.2891(3) 0.15361(18)
H21 H 0.8192 0.2218 0.1687
C27 C 0.7440(3) 0.3777(3) 0.20582(15)
H22 H 0.7330 0.3698 0.2555
C28 C 0.8717(6) 0.2000(4) 0.0210(3)
H23 H 0.8811 0.1315 0.0436
H24 H 0.7941 0.1557 -0.0244
C29 C 1.0186(7) 0.2624(6) -0.0027(3)
H25 H 1.0127 0.3345 -0.0219
H26 H 1.0426 0.1972 -0.0428
H27 H 1.0988 0.2973 0.0408
C30 C 0.9173(3) 0.7427(2) 0.24480(13)
C31 C 1.0475(3) 0.7666(3) 0.22948(14)
C32 C 1.2000(3) 0.7890(3) 0.20694(13)
C33 C 1.2465(3) 0.6812(3) 0.16955(15)
H28 H 1.1804 0.5935 0.1620
C34 C 1.3911(3) 0.7049(3) 0.14377(16)
H29 H 1.4209 0.6323 0.1194
C35 C 1.4912(3) 0.8328(3) 0.15334(16)
C36 C 1.4470(3) 0.9385(3) 0.19212(18)
H30 H 1.5143 1.0260 0.2003
C37 C 1.3047(3) 0.9170(3) 0.21911(17)
H31 H 1.2785 0.9903 0.2461
C38 C 1.6433(4) 0.8575(4) 0.1190(2)
H32 H 1.7163 0.9446 0.1485
H33 H 1.6874 0.7898 0.1233
C39 C 1.6222(5) 0.8536(6) 0.0367(2)
H34 H 1.5677 0.7629 0.0057
H35 H 1.7223 0.8858 0.0199
H36 H 1.5632 0.9096 0.0310
O1 O 0.8045(3) 1.0221(2) 0.52869(13)
O2 O 0.9104(2) 1.20318(18) 0.48985(10)
O3 O 0.7387(2) 1.1812(2) 0.32836(11)
O4 O 0.5773(2) 1.17200(18) 0.41806(10)
Se1 Se 0.28642(3) 0.59407(3) 0.359524(16)
loop_
_geom_bond_atom_site_label_1
_geom_bond_atom_site_label_2
_geom_bond_site_symmetry_1
_geom_bond_site_symmetry_2
C1 C2 1_555 1_555
C2 H1 1_555 1_555
H2 C2 1_555 1_555
C3 C2 1_555 1_555
C4 C3 1_555 1_555
C5 C4 1_555 1_555
C6 C5 1_555 1_555
C7 C6 1_555 1_555
C8 C3 1_555 1_555
C9 C1 1_555 1_555
H3 C9 1_555 1_555
H4 C9 1_555 1_555
C10 C1 1_555 1_555
C11 H5 1_555 1_555
H6 C11 1_555 1_555
C12 C11 1_555 1_555
H7 C12 1_555 1_555
H8 C12 1_555 1_555
H9 C12 1_555 1_555
C13 C1 1_555 1_555
C14 H10 1_555 1_555
H11 C14 1_555 1_555
C15 C14 1_555 1_555
H12 C15 1_555 1_555
H13 C15 1_555 1_555
H14 C15 1_555 1_555
C16 C5 1_555 1_555
C17 C16 1_555 1_555
H15 C17 1_555 1_555
C18 C17 1_555 1_555
H16 C18 1_555 1_555
C19 C18 1_555 1_555
H17 C19 1_555 1_555
C20 C19 1_555 1_555
H18 C20 1_555 1_555
C21 C16 1_555 1_555
C22 C6 1_555 1_555
C23 C22 1_555 1_555
H19 C23 1_555 1_555
C24 C23 1_555 1_555
H20 C24 1_555 1_555
C25 C24 1_555 1_555
C26 C25 1_555 1_555
H21 C26 1_555 1_555
C27 C22 1_555 1_555
H22 C27 1_555 1_555
C28 C25 1_555 1_555
H23 C28 1_555 1_555
H24 C28 1_555 1_555
C29 C28 1_555 1_555
H25 C29 1_555 1_555
H26 C29 1_555 1_555
H27 C29 1_555 1_555
C30 C7 1_555 1_555
C31 C30 1_555 1_555
C32 C31 1_555 1_555
C33 C32 1_555 1_555
H28 C33 1_555 1_555
C34 C33 1_555 1_555
H29 C34 1_555 1_555
C35 C34 1_555 1_555
C36 C35 1_555 1_555
H30 C36 1_555 1_555
C37 C32 1_555 1_555
H31 C37 1_555 1_555
C38 C35 1_555 1_555
H32 C38 1_555 1_555
H33 C38 1_555 1_555
C39 C38 1_555 1_555
H34 C39 1_555 1_555
H35 C39 1_555 1_555
H36 C39 1_555 1_555
O1 C10 1_555 1_555
O2 C10 1_555 1_555
O3 C13 1_555 1_555
O4 C13 1_555 1_555
Se1 C4 1_555 1_555
C7 C8 1_555 1_555
C8 C9 1_555 1_555
C11 O2 1_555 1_555
C14 O4 1_555 1_555
C20 C21 1_555 1_555
C21 Se1 1_555 1_555
C26 C27 1_555 1_555
C36 C37 1_555 1_555

#END
