
#######################################################################
#
#                 Cambridge Crystallographic Data Centre
#                                CCDC 
#
#######################################################################
#
# If this CIF has been generated from an entry in the Cambridge 
# Structural Database, then it will include bibliographic, chemical, 
# crystal, experimental, refinement or atomic coordinate data resulting 
# from the CCDC's data processing and validation procedures.
#
#######################################################################

data_RAMPEB
_chemical_name_common            
bis(1,3,5-Phenylene)bis(1',4',7',10',13'-pentaoxatridecyl)(2'',6''-bis(methyleneoxycarbonyl)pyridine)
_chemical_formula_moiety         'C37 H45 N1 O14'
_chemical_name_systematic        
2,5,8,11,14,16,19,22,25,28,30,34-Dodecaoxa-1,15(1,3,5)-dibenzena-32(2,6)-pyridinabicyclo(13.13.7)pentatriacontaphane-31,33-dione
_symmetry_cell_setting           monoclinic
_symmetry_space_group_name_H-M   'C 2/c'
_symmetry_Int_Tables_number      15
_space_group_name_Hall           '-C 2yn'
loop_
_symmetry_equiv_pos_site_id
_symmetry_equiv_pos_as_xyz
1 x,y,z
2 1/2+x,1/2+y,z
3 -x,y,1/2-z
4 1/2-x,1/2+y,1/2-z
5 -x,-y,-z
6 1/2-x,1/2-y,-z
7 x,-y,1/2+z
8 1/2+x,1/2-y,1/2+z
_cell_length_a                   17.688(3)
_cell_length_b                   11.184(2)
_cell_length_c                   18.034(5)
_cell_angle_alpha                90
_cell_angle_beta                 96.030(14)
_cell_angle_gamma                90
_cell_volume                     3547.79
_exptl_crystal_colour            colorless
_exptl_crystal_description       block
_cell_formula_units_Z            4
_exptl_crystal_recrystallization_method 'chloroform/acetone (9:1)'
loop_
_atom_site_label
_atom_site_type_symbol
_atom_site_fract_x
_atom_site_fract_y
_atom_site_fract_z
O1 O 0.1178(2) 1.2721(3) 0.6069(2)
O2 O 0.05273(17) 1.1137(3) 0.63903(18)
O3 O 0.08397(17) 0.6486(3) 0.47254(18)
O4 O 0.22849(18) 0.5214(3) 0.4371(2)
O5 O 0.2777(2) 0.5146(3) 0.5949(2)
O6 O 0.1718(2) 0.6497(4) 0.7309(2)
O7 O -0.08383(18) 0.7220(3) 0.64994(19)
N1 N 0.0000 1.2329(5) 0.7500
C1 C 0.0000 1.4815(6) 0.7500
H1 H 0.0000 1.5655 0.7500
C2 C 0.0358(3) 1.4187(5) 0.6982(3)
H2 H 0.0607 1.4589 0.6620
C3 C 0.0344(2) 1.2952(4) 0.7006(3)
C4 C 0.0730(3) 1.2269(4) 0.6437(3)
C5 C 0.0876(3) 1.0471(4) 0.5830(3)
H3 H 0.1428 1.0435 0.5962
H4 H 0.0778 1.0869 0.5346
C6 C 0.0554(2) 0.9233(4) 0.5783(2)
C7 C -0.0011(3) 0.8849(4) 0.6199(2)
H5 H -0.0213 0.9369 0.6537
C8 C -0.0277(2) 0.7686(4) 0.6110(2)
C9 C 0.0013(2) 0.6917(4) 0.5611(2)
H6 H -0.0174 0.6133 0.5551
C10 C 0.0577(2) 0.7310(4) 0.5203(2)
C11 C 0.0847(3) 0.8469(4) 0.5281(3)
H7 H 0.1228 0.8736 0.4994
C12 C 0.1395(3) 0.6873(5) 0.4264(3)
H8 H 0.1806 0.7294 0.4564
H9 H 0.1165 0.7423 0.3882
C13 C 0.1706(3) 0.5788(5) 0.3901(3)
H10 H 0.1292 0.5221 0.3769
H11 H 0.1910 0.6032 0.3440
C14 C 0.2022(3) 0.4341(5) 0.4852(3)
H12 H 0.1912 0.3592 0.4579
H13 H 0.1552 0.4617 0.5042
C15 C 0.2621(3) 0.4138(5) 0.5485(3)
H14 H 0.2462 0.3476 0.5789
H15 H 0.3090 0.3895 0.5283
C16 C 0.2162(4) 0.5461(7) 0.6344(4)
H16 H 0.1800 0.5942 0.6021
H17 H 0.1899 0.4733 0.6478
C17 C 0.2390(4) 0.6101(7) 0.6986(4)
H18 H 0.2695 0.6793 0.6866
H19 H 0.2702 0.5596 0.7341
C18 C -0.1178(3) 0.7986(5) 0.6994(3)
H20 H -0.1308 0.8752 0.6750
H21 H -0.0821 0.8140 0.7437
C19 C 0.1885(3) 0.7398(5) 0.7782(3)
H22 H 0.2190 0.7992 0.7547
H23 H 0.2189 0.7096 0.8228
O1B O -0.1178(2) 1.2721(3) 0.8931(2)
O2B O -0.05273(17) 1.1137(3) 0.86097(18)
O3B O -0.08397(17) 0.6486(3) 1.02746(18)
O4B O -0.22849(18) 0.5214(3) 1.0629(2)
O5B O -0.2777(2) 0.5146(3) 0.9051(2)
O6B O -0.1718(2) 0.6497(4) 0.7691(2)
O7B O 0.08383(18) 0.7220(3) 0.85006(19)
C2B C -0.0358(3) 1.4187(5) 0.8018(3)
H2B H -0.0607 1.4589 0.8380
C3B C -0.0344(2) 1.2952(4) 0.7994(3)
C4B C -0.0730(3) 1.2269(4) 0.8563(3)
C5B C -0.0876(3) 1.0471(4) 0.9170(3)
H3B H -0.1428 1.0435 0.9038
H4B H -0.0778 1.0869 0.9654
C6B C -0.0554(2) 0.9233(4) 0.9217(2)
C7B C 0.0011(3) 0.8849(4) 0.8801(2)
H5B H 0.0213 0.9369 0.8463
C8B C 0.0277(2) 0.7686(4) 0.8890(2)
C9B C -0.0013(2) 0.6917(4) 0.9389(2)
H6B H 0.0174 0.6133 0.9449
C10B C -0.0577(2) 0.7310(4) 0.9797(2)
C11B C -0.0847(3) 0.8469(4) 0.9719(3)
H7B H -0.1228 0.8736 1.0006
C12B C -0.1395(3) 0.6873(5) 1.0736(3)
H8B H -0.1806 0.7294 1.0436
H9B H -0.1165 0.7423 1.1118
C13B C -0.1706(3) 0.5788(5) 1.1099(3)
H10B H -0.1292 0.5221 1.1231
H11B H -0.1910 0.6032 1.1560
C14B C -0.2022(3) 0.4341(5) 1.0148(3)
H12B H -0.1912 0.3592 1.0421
H13B H -0.1552 0.4617 0.9958
C15B C -0.2621(3) 0.4138(5) 0.9515(3)
H14B H -0.2462 0.3476 0.9211
H15B H -0.3090 0.3895 0.9717
C16B C -0.2162(4) 0.5461(7) 0.8656(4)
H16B H -0.1800 0.5942 0.8979
H17B H -0.1899 0.4733 0.8522
C17B C -0.2390(4) 0.6101(7) 0.8014(4)
H18B H -0.2695 0.6793 0.8134
H19B H -0.2702 0.5596 0.7659
C18B C 0.1178(3) 0.7986(5) 0.8006(3)
H20B H 0.1308 0.8752 0.8250
H21B H 0.0821 0.8140 0.7563
C19B C -0.1885(3) 0.7398(5) 0.7218(3)
H22B H -0.2190 0.7992 0.7453
H23B H -0.2189 0.7096 0.6772
loop_
_geom_bond_atom_site_label_1
_geom_bond_atom_site_label_2
_geom_bond_site_symmetry_1
_geom_bond_site_symmetry_2
O1 C4 1_555 1_555
O2 C4 1_555 1_555
O3 C10 1_555 1_555
O4 C13 1_555 1_555
O5 C15 1_555 1_555
O6 C17 1_555 1_555
O7 C8 1_555 1_555
N1 C3 1_555 1_555
C1 H1 1_555 1_555
C2 C1 1_555 1_555
H2 C2 1_555 1_555
C3 C2 1_555 1_555
C4 C3 1_555 1_555
C5 O2 1_555 1_555
H3 C5 1_555 1_555
H4 C5 1_555 1_555
C6 C5 1_555 1_555
C7 C6 1_555 1_555
H5 C7 1_555 1_555
C8 C7 1_555 1_555
C9 C8 1_555 1_555
H6 C9 1_555 1_555
C10 C9 1_555 1_555
C11 C6 1_555 1_555
H7 C11 1_555 1_555
C12 O3 1_555 1_555
H8 C12 1_555 1_555
H9 C12 1_555 1_555
C13 C12 1_555 1_555
H10 C13 1_555 1_555
H11 C13 1_555 1_555
C14 O4 1_555 1_555
H12 C14 1_555 1_555
H13 C14 1_555 1_555
C15 C14 1_555 1_555
H14 C15 1_555 1_555
H15 C15 1_555 1_555
C16 O5 1_555 1_555
H16 C16 1_555 1_555
H17 C16 1_555 1_555
C17 C16 1_555 1_555
H18 C17 1_555 1_555
H19 C17 1_555 1_555
C18 O7 1_555 1_555
H20 C18 1_555 1_555
H21 C18 1_555 1_555
C19 O6 1_555 1_555
H22 C19 1_555 1_555
H23 C19 1_555 1_555
O1B C4B 1_555 1_555
O2B C4B 1_555 1_555
O3B C10B 1_555 1_555
O4B C13B 1_555 1_555
O5B C15B 1_555 1_555
O6B C17B 1_555 1_555
O7B C8B 1_555 1_555
C2B C1 1_555 1_555
H2B C2B 1_555 1_555
C3B N1 1_555 1_555
C4B C3B 1_555 1_555
C5B O2B 1_555 1_555
H3B C5B 1_555 1_555
H4B C5B 1_555 1_555
C6B C5B 1_555 1_555
C7B C6B 1_555 1_555
H5B C7B 1_555 1_555
C8B C7B 1_555 1_555
C9B C8B 1_555 1_555
H6B C9B 1_555 1_555
C10B C9B 1_555 1_555
C11B C6B 1_555 1_555
H7B C11B 1_555 1_555
C12B O3B 1_555 1_555
H8B C12B 1_555 1_555
H9B C12B 1_555 1_555
C13B C12B 1_555 1_555
H10B C13B 1_555 1_555
H11B C13B 1_555 1_555
C14B O4B 1_555 1_555
H12B C14B 1_555 1_555
H13B C14B 1_555 1_555
C15B C14B 1_555 1_555
H14B C15B 1_555 1_555
H15B C15B 1_555 1_555
C16B O5B 1_555 1_555
H16B C16B 1_555 1_555
H17B C16B 1_555 1_555
C17B C16B 1_555 1_555
H18B C17B 1_555 1_555
H19B C17B 1_555 1_555
C18B C19 1_555 1_555
H20B C18B 1_555 1_555
H21B C18B 1_555 1_555
C19B C18 1_555 1_555
H22B C19B 1_555 1_555
H23B C19B 1_555 1_555
C10 C11 1_555 1_555
O6B C19B 1_555 1_555
O7B C18B 1_555 1_555
C2B C3B 1_555 1_555
C10B C11B 1_555 1_555

#END
