
#######################################################################
#
#                 Cambridge Crystallographic Data Centre
#                                CCDC 
#
#######################################################################
#
# If this CIF has been generated from an entry in the Cambridge 
# Structural Database, then it will include bibliographic, chemical, 
# crystal, experimental, refinement or atomic coordinate data resulting 
# from the CCDC's data processing and validation procedures.
#
#######################################################################

data_RAMPUR
_chemical_formula_moiety         
'C37 H48 O13,C12 H14 N2 2+,2(F6 P1 1-),C3 H6 O1'
_chemical_name_systematic        
"31^5^-Hydroxymethyl-2,5,8,11,14,16,19,22,25,28,30,32-dodecaoxa-1,15(1,3,5),31(1,3)-tribenzenabicyclo(13.13.5)tritriacontaphane N,N'-dimethyl-4,4'-bipyridinium clathrate bis(hexafluorophosphate) acetone solvate"
_symmetry_cell_setting           monoclinic
_symmetry_space_group_name_H-M   'P 21/c'
_symmetry_Int_Tables_number      14
_space_group_name_Hall           '-P 2ybc'
loop_
_symmetry_equiv_pos_site_id
_symmetry_equiv_pos_as_xyz
1 x,y,z
2 -x,1/2+y,1/2-z
3 -x,-y,-z
4 x,1/2-y,1/2+z
_cell_length_a                   11.871(3)
_cell_length_b                   23.066(5)
_cell_length_c                   20.450(6)
_cell_angle_alpha                90
_cell_angle_beta                 90.307(8)
_cell_angle_gamma                90
_cell_volume                     5599.47
_exptl_crystal_colour            yellow
_exptl_crystal_description       prism
_cell_formula_units_Z            4
_exptl_crystal_recrystallization_method acetone/pentane
loop_
_atom_site_label
_atom_site_type_symbol
_atom_site_fract_x
_atom_site_fract_y
_atom_site_fract_z
P1 P 1.0178(1) 0.41623(5) 0.39006(6)
F1 F 1.0900(2) 0.45239(13) 0.44181(14)
F2 F 0.9477(3) 0.38045(13) 0.33681(16)
F3 F 1.1060(3) 0.36489(15) 0.39435(19)
F4 F 0.9496(3) 0.38784(17) 0.44846(17)
F5 F 1.0875(3) 0.44558(17) 0.33212(16)
F6 F 0.9283(3) 0.46734(16) 0.38626(19)
P2 P 0.93357(13) 0.40470(9) 0.08917(7)
F7 F 0.9439(3) 0.38253(17) 0.16296(19)
F8 F 0.8319(5) 0.4438(2) 0.1084(2)
F9 F 0.8376(4) 0.3539(2) 0.0805(3)
F10 F 1.0268(5) 0.3552(4) 0.0739(3)
F11 F 0.9195(4) 0.4165(4) 0.0162(2)
F12 F 1.0260(6) 0.4463(4) 0.1011(4)
C1 C 0.6252(4) 0.48635(19) 0.25051(19)
C2 C 0.5136(4) 0.45852(18) 0.2451(2)
C3 C 0.4129(4) 0.48883(19) 0.2564(2)
C4 C 0.3124(4) 0.46168(19) 0.2453(2)
N1 N 0.3069(3) 0.40598(16) 0.22521(18)
C5 C 0.4016(4) 0.3754(2) 0.2162(2)
C6 C 0.5046(4) 0.40035(19) 0.2261(2)
C7 C 0.1982(4) 0.3794(2) 0.2108(3)
C8 C 0.6390(4) 0.54661(19) 0.2472(2)
C9 C 0.7453(4) 0.57038(19) 0.2464(2)
N2 N 0.8365(3) 0.53581(16) 0.24863(18)
C10 C 0.8268(4) 0.4784(2) 0.2539(2)
C11 C 0.7237(4) 0.4529(2) 0.2564(2)
C12 C 0.9522(4) 0.5608(2) 0.2431(3)
H1 H 0.4158(4) 0.53008(19) 0.2714(2)
H2 H 0.2410(4) 0.48355(19) 0.2532(2)
H3 H 0.3966(4) 0.3340(2) 0.2017(2)
H4 H 0.5748(4) 0.37711(19) 0.2196(2)
H5 H 0.2099(4) 0.3384(2) 0.1963(3)
H6 H 0.1504(4) 0.3798(2) 0.2509(3)
H7 H 0.1597(4) 0.4016(2) 0.1751(3)
H8 H 0.5713(4) 0.57226(19) 0.2441(2)
H9 H 0.7548(4) 0.61344(19) 0.2447(2)
H10 H 0.8962(4) 0.4539(2) 0.2564(2)
H11 H 0.7175(4) 0.4100(2) 0.2622(2)
H12 H 1.0093(4) 0.5290(2) 0.2457(3)
H13 H 0.9653(4) 0.5889(2) 0.2796(3)
H14 H 0.9593(4) 0.5813(2) 0.2003(3)
C13 C 0.3516(3) 0.54559(19) 0.4264(2)
C14 C 0.3545(4) 0.48520(18) 0.4174(2)
C15 C 0.4563(4) 0.45786(18) 0.4115(2)
C16 C 0.5576(3) 0.48814(18) 0.4144(2)
C17 C 0.5534(4) 0.54812(18) 0.4222(2)
C18 C 0.4506(4) 0.57701(19) 0.4284(2)
O1 O 0.6473(2) 0.58299(13) 0.42617(15)
C19 C 0.7555(4) 0.55636(19) 0.4210(2)
C20 C 0.8442(4) 0.60225(19) 0.4243(2)
O2 O 0.8382(2) 0.63769(13) 0.36727(15)
C21 C 0.9251(4) 0.6810(2) 0.3679(3)
C22 C 0.9052(4) 0.7240(2) 0.3152(2)
O3 O 0.9146(3) 0.69700(14) 0.25297(17)
C23 C 0.8883(4) 0.7353(2) 0.2003(3)
C24 C 0.8970(4) 0.7035(2) 0.1375(3)
O4 O 0.8154(3) 0.65860(16) 0.13665(17)
C25 C 0.8004(4) 0.6352(3) 0.0731(3)
C26 C 0.7226(4) 0.5832(3) 0.0769(3)
O5 O 0.6155(3) 0.60365(15) 0.09999(15)
C27 C 0.5269(4) 0.5660(2) 0.0985(2)
C28 C 0.4216(4) 0.5897(2) 0.1130(2)
C29 C 0.3256(4) 0.5554(2) 0.1097(2)
C30 C 0.3351(4) 0.4969(2) 0.0923(2)
C31 C 0.4409(4) 0.4731(2) 0.0806(2)
C32 C 0.5381(4) 0.5073(2) 0.0837(2)
O6 O 0.4423(3) 0.41609(14) 0.06450(16)
C33 C 0.5511(5) 0.3886(2) 0.0584(2)
C34 C 0.5343(5) 0.3262(2) 0.0440(2)
O7 O 0.4721(3) 0.29977(15) 0.09571(18)
C35 C 0.4850(5) 0.2400(2) 0.0981(3)
C36 C 0.3966(5) 0.2131(2) 0.1397(3)
O8 O 0.3895(3) 0.23586(14) 0.20519(17)
C37 C 0.4835(4) 0.2267(2) 0.2446(3)
C38 C 0.4544(4) 0.2337(2) 0.3159(3)
O9 O 0.4267(3) 0.29337(13) 0.32756(16)
C39 C 0.3944(4) 0.3025(2) 0.3938(3)
C40 C 0.3654(4) 0.3653(2) 0.4045(2)
O10 O 0.4679(2) 0.39887(13) 0.40243(15)
C41 C 0.2125(4) 0.5800(2) 0.1269(2)
O11 O 0.1936(3) 0.57389(13) 0.19633(14)
C42 C 0.2090(3) 0.61969(19) 0.2387(2)
C43 C 0.2197(3) 0.60295(18) 0.3046(2)
C44 C 0.2281(3) 0.64540(19) 0.3518(2)
C45 C 0.2285(4) 0.70376(19) 0.3354(2)
C46 C 0.2191(4) 0.72000(19) 0.2706(2)
C47 C 0.2107(4) 0.6776(2) 0.2213(2)
C48 C 0.2170(5) 0.7830(2) 0.2510(2)
O12 O 0.2685(3) 0.82008(14) 0.29783(18)
O13 O 0.2369(2) 0.63385(13) 0.41768(14)
C49 C 0.2389(4) 0.57418(19) 0.4379(2)
H15 H 0.2828(4) 0.46247(18) 0.4156(2)
H16 H 0.6313(3) 0.46739(18) 0.4111(2)
H17 H 0.4486(4) 0.62003(19) 0.4344(2)
H18 H 0.7663(4) 0.52765(19) 0.4571(2)
H19 H 0.7607(4) 0.53608(19) 0.3779(2)
H20 H 0.8320(4) 0.62619(19) 0.4644(2)
H21 H 0.9203(4) 0.58373(19) 0.4266(2)
H22 H 0.9254(4) 0.7011(2) 0.4113(3)
H23 H 0.9997(4) 0.6620(2) 0.3608(3)
H24 H 0.9607(4) 0.7565(2) 0.3187(2)
H25 H 0.8271(4) 0.7397(2) 0.3194(2)
H26 H 0.9415(4) 0.7690(2) 0.2010(3)
H27 H 0.8094(4) 0.7497(2) 0.2053(3)
H28 H 0.8829(4) 0.7304(2) 0.1000(3)
H29 H 0.9744(4) 0.6867(2) 0.1338(3)
H30 H 0.7660(4) 0.6654(3) 0.0442(3)
H31 H 0.8746(4) 0.6229(3) 0.0547(3)
H32 H 0.7545(4) 0.5540(3) 0.1080(3)
H33 H 0.7131(4) 0.5651(3) 0.0328(3)
H34 H 0.4154(4) 0.6315(2) 0.1257(2)
H35 H 0.2659(4) 0.4724(2) 0.0886(2)
H36 H 0.6139(4) 0.4900(2) 0.0751(2)
H37 H 0.5935(5) 0.4075(2) 0.0220(2)
H38 H 0.5946(5) 0.3929(2) 0.1001(2)
H39 H 0.6090(5) 0.3064(2) 0.0401(2)
H40 H 0.4919(5) 0.3223(2) 0.0019(2)
H41 H 0.5612(5) 0.2309(2) 0.1165(3)
H42 H 0.4790(5) 0.2242(2) 0.0527(3)
H43 H 0.4148(5) 0.1709(2) 0.1438(3)
H44 H 0.3219(5) 0.2178(2) 0.1174(3)
H45 H 0.5427(4) 0.2558(2) 0.2332(3)
H46 H 0.5130(4) 0.1867(2) 0.2367(3)
H47 H 0.5200(4) 0.2223(2) 0.3440(3)
H48 H 0.3884(4) 0.2086(2) 0.3264(3)
H49 H 0.4580(4) 0.2917(2) 0.4236(3)
H50 H 0.3273(4) 0.2780(2) 0.4039(3)
H51 H 0.3274(4) 0.3709(2) 0.4475(2)
H52 H 0.3140(4) 0.3782(2) 0.3685(2)
H53 H 0.2102(4) 0.6220(2) 0.1148(2)
H54 H 0.1522(4) 0.5587(2) 0.1025(2)
H55 H 0.2192(3) 0.56101(18) 0.3170(2)
H56 H 0.2351(4) 0.73408(19) 0.3702(2)
H57 H 0.2052(4) 0.6892(2) 0.1743(2)
H58 H 0.1370(5) 0.7954(2) 0.2444(2)
H59 H 0.2589(5) 0.7871(2) 0.2090(2)
H60 H 0.2220(4) 0.57239(19) 0.4857(2)
H61 H 0.1794(4) 0.55272(19) 0.4130(2)
C50 C 0.7477(4) 0.2650(2) 0.4377(2)
O14 O 0.6950(4) 0.22256(16) 0.42122(19)
C51 C 0.7031(4) 0.3254(2) 0.4241(3)
C52 C 0.8579(5) 0.2612(2) 0.4721(3)
H62 H 0.8879(5) 0.3008(2) 0.4822(3)
H63 H 0.8492(5) 0.2389(2) 0.5137(3)
H64 H 0.9116(5) 0.2405(2) 0.4427(3)
H65 H 0.7575(4) 0.3550(2) 0.4412(3)
H66 H 0.6284(4) 0.3308(2) 0.4457(3)
H67 H 0.6942(4) 0.3302(2) 0.3758(3)
loop_
_geom_bond_atom_site_label_1
_geom_bond_atom_site_label_2
_geom_bond_site_symmetry_1
_geom_bond_site_symmetry_2
P1 F1 1_555 1_555
F2 P1 1_555 1_555
F3 P1 1_555 1_555
F4 P1 1_555 1_555
F5 P1 1_555 1_555
F6 P1 1_555 1_555
P2 F7 1_555 1_555
F8 P2 1_555 1_555
F9 P2 1_555 1_555
F10 P2 1_555 1_555
F11 P2 1_555 1_555
F12 P2 1_555 1_555
C1 C2 1_555 1_555
C2 C3 1_555 1_555
C3 C4 1_555 1_555
C4 N1 1_555 1_555
N1 C5 1_555 1_555
C5 C6 1_555 1_555
C6 C2 1_555 1_555
C7 N1 1_555 1_555
C8 C1 1_555 1_555
C9 C8 1_555 1_555
N2 C9 1_555 1_555
C10 N2 1_555 1_555
C11 C1 1_555 1_555
C12 N2 1_555 1_555
C13 C14 1_555 1_555
C14 C15 1_555 1_555
C15 C16 1_555 1_555
C16 C17 1_555 1_555
C17 C18 1_555 1_555
C18 C13 1_555 1_555
O1 C17 1_555 1_555
C19 O1 1_555 1_555
C20 C19 1_555 1_555
O2 C20 1_555 1_555
C21 O2 1_555 1_555
C22 C21 1_555 1_555
O3 C22 1_555 1_555
C23 O3 1_555 1_555
C24 C23 1_555 1_555
O4 C24 1_555 1_555
C25 O4 1_555 1_555
C26 C25 1_555 1_555
O5 C26 1_555 1_555
C27 O5 1_555 1_555
C28 C27 1_555 1_555
C29 C28 1_555 1_555
C30 C29 1_555 1_555
C31 C30 1_555 1_555
C32 C27 1_555 1_555
O6 C31 1_555 1_555
C33 O6 1_555 1_555
C34 C33 1_555 1_555
O7 C34 1_555 1_555
C35 O7 1_555 1_555
C36 C35 1_555 1_555
O8 C36 1_555 1_555
C37 O8 1_555 1_555
C38 C37 1_555 1_555
O9 C38 1_555 1_555
C39 O9 1_555 1_555
C40 C39 1_555 1_555
O10 C15 1_555 1_555
C41 C29 1_555 1_555
O11 C41 1_555 1_555
C42 O11 1_555 1_555
C43 C42 1_555 1_555
C44 C43 1_555 1_555
C45 C44 1_555 1_555
C46 C45 1_555 1_555
C47 C42 1_555 1_555
C48 C46 1_555 1_555
O12 C48 1_555 1_555
O13 C44 1_555 1_555
C49 C13 1_555 1_555
C50 O14 1_555 1_555
C51 C50 1_555 1_555
C52 C50 1_555 1_555
H1 C3 1_555 1_555
H2 C4 1_555 1_555
H3 C5 1_555 1_555
H4 C6 1_555 1_555
H5 C7 1_555 1_555
H6 C7 1_555 1_555
H7 C7 1_555 1_555
H8 C8 1_555 1_555
H9 C9 1_555 1_555
H10 C10 1_555 1_555
H11 C11 1_555 1_555
H12 C12 1_555 1_555
H13 C12 1_555 1_555
H14 C12 1_555 1_555
H15 C14 1_555 1_555
H16 C16 1_555 1_555
H17 C18 1_555 1_555
H18 C19 1_555 1_555
H19 C19 1_555 1_555
H20 C20 1_555 1_555
H21 C20 1_555 1_555
H22 C21 1_555 1_555
H23 C21 1_555 1_555
H24 C22 1_555 1_555
H25 C22 1_555 1_555
H26 C23 1_555 1_555
H27 C23 1_555 1_555
H28 C24 1_555 1_555
H29 C24 1_555 1_555
H30 C25 1_555 1_555
H31 C25 1_555 1_555
H32 C26 1_555 1_555
H33 C26 1_555 1_555
H34 C28 1_555 1_555
H35 C30 1_555 1_555
H36 C32 1_555 1_555
H37 C33 1_555 1_555
H38 C33 1_555 1_555
H39 C34 1_555 1_555
H40 C34 1_555 1_555
H41 C35 1_555 1_555
H42 C35 1_555 1_555
H43 C36 1_555 1_555
H44 C36 1_555 1_555
H45 C37 1_555 1_555
H46 C37 1_555 1_555
H47 C38 1_555 1_555
H48 C38 1_555 1_555
H49 C39 1_555 1_555
H50 C39 1_555 1_555
H51 C40 1_555 1_555
H52 C40 1_555 1_555
H53 C41 1_555 1_555
H54 C41 1_555 1_555
H55 C43 1_555 1_555
H56 C45 1_555 1_555
H57 C47 1_555 1_555
H58 C48 1_555 1_555
H59 C48 1_555 1_555
H60 C49 1_555 1_555
H61 C49 1_555 1_555
H62 C52 1_555 1_555
H63 C52 1_555 1_555
H64 C52 1_555 1_555
H65 C51 1_555 1_555
H66 C51 1_555 1_555
H67 C51 1_555 1_555
C10 C11 1_555 1_555
C31 C32 1_555 1_555
C40 O10 1_555 1_555
C46 C47 1_555 1_555
O13 C49 1_555 1_555

#END
