
#######################################################################
#
#                 Cambridge Crystallographic Data Centre
#                                CCDC 
#
#######################################################################
#
# If this CIF has been generated from an entry in the Cambridge 
# Structural Database, then it will include bibliographic, chemical, 
# crystal, experimental, refinement or atomic coordinate data resulting 
# from the CCDC's data processing and validation procedures.
#
#######################################################################

data_RAMQII
_chemical_formula_moiety         'C38 H34 O4 Se1'
_chemical_name_systematic        
'diisopropyl 9-methyl-5-phenyl-4-(phenylethynyl)-1,3-dihydro-2H-benzo[b]indeno[5,4-d]selenophene-2,2-dicarboxylate'
_symmetry_cell_setting           monoclinic
_symmetry_space_group_name_H-M   'P 21/c'
_symmetry_Int_Tables_number      14
_space_group_name_Hall           '-P 2ybc'
loop_
_symmetry_equiv_pos_site_id
_symmetry_equiv_pos_as_xyz
1 x,y,z
2 -x,1/2+y,1/2-z
3 -x,-y,-z
4 x,1/2-y,1/2+z
_cell_length_a                   11.8983(12)
_cell_length_b                   24.716(2)
_cell_length_c                   12.9910(9)
_cell_angle_alpha                90
_cell_angle_beta                 120.114(6)
_cell_angle_gamma                90
_cell_volume                     3304.73
_exptl_crystal_colour            colorless
_exptl_crystal_description       block
_cell_formula_units_Z            4
loop_
_atom_site_label
_atom_site_type_symbol
_atom_site_fract_x
_atom_site_fract_y
_atom_site_fract_z
C1 C 0.6316(3) 0.06229(15) 1.0417(3)
C2 C 0.7306(3) 0.05369(16) 1.1582(4)
C3 C 0.7315(3) 0.08211(18) 1.2509(3)
H1 H 0.7977 0.0764 1.3288
C4 C 0.6335(3) 0.11913(18) 1.2272(3)
H2 H 0.6341 0.1381 1.2893
C5 C 0.5345(3) 0.12773(14) 1.1108(2)
H3 H 0.4690 0.1525 1.0950
C6 C 0.5336(3) 0.09931(12) 1.0181(3)
C7 C 0.3853(3) 0.22879(10) 0.9196(3)
H4 H 0.4484 0.2292 0.8974
C8 C 0.3761(4) 0.27167(12) 0.9843(3)
H5 H 0.4330 0.3008 1.0052
C9 C 0.2819(4) 0.27105(17) 1.0176(3)
H6 H 0.2757 0.2997 1.0608
C10 C 0.1968(4) 0.22757(19) 0.9862(3)
H7 H 0.1337 0.2272 1.0085
C11 C 0.2060(3) 0.18470(14) 0.9216(3)
H8 H 0.1490 0.1556 0.9006
C12 C 0.3002(3) 0.18530(10) 0.8883(2)
C13 C -0.0755(3) 0.22837(15) 0.5455(3)
C14 C -0.1516(4) 0.22697(19) 0.4222(3)
H9 H -0.1315 0.2030 0.3786
C15 C -0.2577(4) 0.2614(2) 0.3640(3)
H10 H -0.3086 0.2605 0.2815
C16 C -0.2878(3) 0.29725(19) 0.4292(4)
H11 H -0.3588 0.3203 0.3902
C17 C -0.2117(3) 0.29866(18) 0.5525(4)
H12 H -0.2318 0.3226 0.5961
C18 C -0.1056(3) 0.26422(15) 0.6107(3)
H13 H -0.0547 0.2652 0.6932
C19 C 0.2586(8) 0.0335(3) 0.4949(7)
C20 C 0.1744(8) 0.0724(4) 0.5211(7)
H14 H 0.1487 0.1037 0.4690
H15 H 0.0969 0.0543 0.5100
C21 C 0.2591(7) 0.0892(3) 0.6487(6)
C22 C 0.2371(7) 0.1287(2) 0.7123(7)
C23 C 0.3265(7) 0.1368(3) 0.8341(7)
C24 C 0.4332(7) 0.1035(3) 0.8902(7)
C25 C 0.4575(7) 0.0656(3) 0.8217(7)
C26 C 0.3722(7) 0.0595(3) 0.7003(7)
C27 C 0.3845(8) 0.0209(3) 0.6197(8)
H16 H 0.3843 -0.0162 0.6440
H17 H 0.4634 0.0273 0.6169
C28 C 0.8329(11) 0.0119(6) 1.1853(12)
H18 H 0.7924 -0.0223 1.1536
H19 H 0.8885 0.0090 1.2699
H20 H 0.8836 0.0224 1.1498
C29 C 0.1205(8) 0.1623(3) 0.6494(7)
C30 C 0.0323(8) 0.1917(3) 0.6044(7)
C31 C 0.2950(10) 0.0592(3) 0.4122(9)
C32 C 0.215(2) 0.0873(8) 0.2138(16)
H21 H 0.2965 0.0717 0.2272
C33 C 0.227(2) 0.1451(8) 0.205(2)
H22 H 0.2697 0.1523 0.1609
H23 H 0.2766 0.1601 0.2837
H24 H 0.1419 0.1612 0.1655
C34 C 0.116(2) 0.0692(9) 0.0967(17)
H25 H 0.0326 0.0825 0.0799
H26 H 0.1144 0.0304 0.0945
H27 H 0.1355 0.0828 0.0382
C35 C 0.1897(8) -0.0204(3) 0.4441(7)
C36 C 0.2069(10) -0.1039(4) 0.3595(11)
H28 H 0.1478 -0.1143 0.3881
C37 C 0.1296(15) -0.1014(6) 0.2308(13)
H29 H 0.1840 -0.0914 0.1989
H30 H 0.0621 -0.0749 0.2080
H31 H 0.0914 -0.1362 0.2003
C38 C 0.3210(14) -0.1401(6) 0.419(2)
H32 H 0.3801 -0.1322 0.3910
H33 H 0.2929 -0.1771 0.4010
H34 H 0.3639 -0.1346 0.5035
O1 O 0.3942(9) 0.0731(4) 0.4302(9)
O2 O 0.1910(6) 0.0637(3) 0.3023(5)
O3 O 0.0943(6) -0.0369(3) 0.4455(6)
O4 O 0.2513(6) -0.0482(3) 0.4031(6)
Se1 Se 0.61053(7) 0.02538(3) 0.90973(8)
loop_
_geom_bond_atom_site_label_1
_geom_bond_atom_site_label_2
_geom_bond_site_symmetry_1
_geom_bond_site_symmetry_2
C1 C2 1_555 1_555
C2 C3 1_555 1_555
C3 H1 1_555 1_555
C4 C3 1_555 1_555
H2 C4 1_555 1_555
C5 C4 1_555 1_555
H3 C5 1_555 1_555
C6 C1 1_555 1_555
C7 H4 1_555 1_555
C8 C7 1_555 1_555
H5 C8 1_555 1_555
C9 C8 1_555 1_555
H6 C9 1_555 1_555
C10 C9 1_555 1_555
H7 C10 1_555 1_555
C11 C10 1_555 1_555
H8 C11 1_555 1_555
C12 C7 1_555 1_555
C13 C14 1_555 1_555
C14 H9 1_555 1_555
C15 C14 1_555 1_555
H10 C15 1_555 1_555
C16 C15 1_555 1_555
H11 C16 1_555 1_555
C17 C16 1_555 1_555
H12 C17 1_555 1_555
C18 C13 1_555 1_555
H13 C18 1_555 1_555
C19 C20 1_555 1_555
C20 H14 1_555 1_555
H15 C20 1_555 1_555
C21 C20 1_555 1_555
C22 C21 1_555 1_555
C23 C12 1_555 1_555
C24 C6 1_555 1_555
C25 C24 1_555 1_555
C26 C21 1_555 1_555
C27 C19 1_555 1_555
H16 C27 1_555 1_555
H17 C27 1_555 1_555
C28 C2 1_555 1_555
H18 C28 1_555 1_555
H19 C28 1_555 1_555
H20 C28 1_555 1_555
C29 C22 1_555 1_555
C30 C13 1_555 1_555
C31 C19 1_555 1_555
C32 H21 1_555 1_555
C33 C32 1_555 1_555
H22 C33 1_555 1_555
H23 C33 1_555 1_555
H24 C33 1_555 1_555
C34 C32 1_555 1_555
H25 C34 1_555 1_555
H26 C34 1_555 1_555
H27 C34 1_555 1_555
C35 C19 1_555 1_555
C36 H28 1_555 1_555
C37 C36 1_555 1_555
H29 C37 1_555 1_555
H30 C37 1_555 1_555
H31 C37 1_555 1_555
C38 C36 1_555 1_555
H32 C38 1_555 1_555
H33 C38 1_555 1_555
H34 C38 1_555 1_555
O1 C31 1_555 1_555
O2 C31 1_555 1_555
O3 C35 1_555 1_555
O4 C35 1_555 1_555
Se1 C1 1_555 1_555
C5 C6 1_555 1_555
C11 C12 1_555 1_555
C17 C18 1_555 1_555
C22 C23 1_555 1_555
C23 C24 1_555 1_555
C25 C26 1_555 1_555
C25 Se1 1_555 1_555
C26 C27 1_555 1_555
C29 C30 1_555 1_555
C32 O2 1_555 1_555
C36 O4 1_555 1_555

#END
