
#######################################################################
#
#                 Cambridge Crystallographic Data Centre
#                                CCDC 
#
#######################################################################
#
# If this CIF has been generated from an entry in the Cambridge 
# Structural Database, then it will include bibliographic, chemical, 
# crystal, experimental, refinement or atomic coordinate data resulting 
# from the CCDC's data processing and validation procedures.
#
#######################################################################

data_RAMRAB
_chemical_formula_moiety         'C25 H19 F1 N2 O1'
_chemical_name_systematic        
2-(2,4-diethynyl-1-(4-fluorophenyl)cyclobutyl)-N-(quinolin-8-yl)acetamide
_symmetry_cell_setting           triclinic
_symmetry_space_group_name_H-M   'P -1'
_symmetry_Int_Tables_number      2
_space_group_name_Hall           '-P 1'
loop_
_symmetry_equiv_pos_site_id
_symmetry_equiv_pos_as_xyz
1 x,y,z
2 -x,-y,-z
_cell_length_a                   7.2657(2)
_cell_length_b                   15.2058(5)
_cell_length_c                   19.3128(8)
_cell_angle_alpha                110.971(3)
_cell_angle_beta                 99.332(3)
_cell_angle_gamma                95.705(2)
_cell_volume                     1937.08
_exptl_crystal_colour            colorless
_exptl_crystal_description       prism
_cell_formula_units_Z            4
_chemical_properties_physical    
Air-sensitive,Moisture-sensitive,Heat-sensitive,Oxygen-sensitive,Light-sensitive,Photo-sensitive
_exptl_crystal_recrystallization_method 'ethyl acetate/cyclohexane'
loop_
_atom_site_label
_atom_site_type_symbol
_atom_site_fract_x
_atom_site_fract_y
_atom_site_fract_z
F1 F 1.0163(3) 0.86393(12) 0.73545(9)
O1 O 0.3112(2) 0.62529(13) 0.33973(10)
N1 N 0.5247(3) 0.86894(15) 0.59157(13)
N2 N 0.4724(3) 0.73466(14) 0.45386(12)
H1 H 0.554(4) 0.743(2) 0.4963(18)
C1 C 0.4371(3) 0.64740(16) 0.39640(13)
C2 C 0.5550(3) 0.57489(15) 0.40828(13)
H2 H 0.5261 0.5191 0.3612
H3 H 0.5111 0.5551 0.4461
C3 C 0.7724(3) 0.60271(15) 0.43274(13)
C4 C 0.8391(3) 0.67431(16) 0.51354(13)
C5 C 0.9373(3) 0.76535(17) 0.53081(14)
H4 H 0.9627 0.7837 0.4918
C6 C 0.9981(4) 0.82944(18) 0.60577(15)
H5 H 1.0635 0.8904 0.6173
C7 C 0.9591(4) 0.80053(18) 0.66233(14)
C8 C 0.8644(4) 0.71159(18) 0.64870(14)
H6 H 0.8415 0.6938 0.6883
C9 C 0.8034(3) 0.64870(16) 0.57331(13)
H7 H 0.7372 0.5881 0.5625
C10 C 0.8692(3) 0.62022(17) 0.37091(13)
H8 H 0.9978 0.6557 0.3952
C11 C 0.8787(4) 0.51226(17) 0.33596(14)
H9 H 0.9981 0.4988 0.3218
H10 H 0.7723 0.4750 0.2949
C12 C 0.8617(3) 0.50798(16) 0.41375(13)
H11 H 0.9883 0.5220 0.4460
C13 C 0.7776(4) 0.66560(18) 0.32305(14)
C14 C 0.7051(5) 0.7016(2) 0.28366(17)
H12 H 0.646(5) 0.734(2) 0.258(2)
C15 C 0.7562(3) 0.42163(17) 0.41411(14)
C16 C 0.6701(4) 0.34981(18) 0.41152(16)
H13 H 0.608(4) 0.292(2) 0.4095(18)
C17 C 0.3778(3) 0.81227(16) 0.45977(14)
C18 C 0.2611(4) 0.82328(19) 0.40132(16)
H14 H 0.2339 0.7754 0.3530
C19 C 0.1822(4) 0.9075(2) 0.41465(19)
H15 H 0.1035 0.9143 0.3745
C20 C 0.2176(4) 0.97878(19) 0.4842(2)
H16 H 0.1660 1.0341 0.4911
C21 C 0.3335(4) 0.96884(18) 0.54651(18)
C22 C 0.3744(4) 1.03807(19) 0.6216(2)
H17 H 0.3261 1.0948 0.6322
C23 C 0.4844(5) 1.0215(2) 0.67808(19)
H18 H 0.5106 1.0663 0.7277
C24 C 0.5580(5) 0.9362(2) 0.66085(17)
H19 H 0.6341 0.9262 0.7000
C25 C 0.4138(4) 0.88510(17) 0.53473(15)
F2 F 0.2321(3) 0.13801(13) -0.21801(10)
O2 O -0.0474(3) 0.28119(15) 0.17231(11)
N3 N -0.1005(3) 0.28172(15) -0.08086(12)
N4 N -0.0072(3) 0.27658(15) 0.05707(12)
H20 H 0.037(4) 0.246(2) 0.0185(17)
C26 C 0.0222(3) 0.24841(17) 0.11711(14)
C27 C 0.1394(3) 0.16968(17) 0.10997(14)
H21 H 0.0632 0.1108 0.0724
H22 H 0.1606 0.1617 0.1581
C28 C 0.3334(3) 0.18025(16) 0.08829(14)
C29 C 0.3163(3) 0.16981(16) 0.00648(14)
C30 C 0.3896(4) 0.24292(18) -0.01401(15)
H23 H 0.4564 0.2999 0.0236
C31 C 0.3649(4) 0.23230(19) -0.08939(16)
H24 H 0.4149 0.2810 -0.1029
C32 C 0.2645(4) 0.1478(2) -0.14340(15)
C33 C 0.1929(4) 0.07291(19) -0.12679(16)
H25 H 0.1282 0.0159 -0.1650
C34 C 0.2201(4) 0.08490(18) -0.05085(16)
H26 H 0.1729 0.0349 -0.0381
C35 C 0.4807(3) 0.26542(17) 0.15033(15)
H27 H 0.5861 0.2794 0.1279
C36 C 0.5342(4) 0.1976(2) 0.19127(17)
H28 H 0.4630 0.1982 0.2298
H29 H 0.6690 0.2050 0.2106
C37 C 0.4577(4) 0.11317(18) 0.11385(16)
H30 H 0.5592 0.1024 0.0855
C38 C 0.4176(4) 0.35457(18) 0.18924(15)
C39 C 0.3617(4) 0.4265(2) 0.21814(16)
H31 H 0.317(5) 0.484(2) 0.2404(19)
C40 C 0.3653(4) 0.02150(19) 0.11015(17)
C41 C 0.2901(5) -0.0532(2) 0.1056(2)
H32 H 0.231(5) -0.115(3) 0.101(2)
C42 C -0.0978(3) 0.35159(16) 0.05170(14)
C43 C -0.1414(4) 0.42200(18) 0.11185(15)
H33 H -0.1158 0.4200 0.1600
C44 C -0.2245(4) 0.49701(19) 0.10097(17)
H34 H -0.2529 0.5441 0.1423
C45 C -0.2644(4) 0.50234(18) 0.03141(17)
H35 H -0.3172 0.5532 0.0257
C46 C -0.2251(3) 0.43013(17) -0.03224(15)
C47 C -0.2651(4) 0.4294(2) -0.10654(17)
H36 H -0.3206 0.4778 -0.1157
C48 C -0.2221(4) 0.3576(2) -0.16462(17)
H37 H -0.2467 0.3566 -0.2137
C49 C -0.1400(4) 0.2853(2) -0.14903(16)
H38 H -0.1115 0.2366 -0.1892
C50 C -0.1420(3) 0.35411(16) -0.02246(14)
loop_
_geom_bond_atom_site_label_1
_geom_bond_atom_site_label_2
_geom_bond_site_symmetry_1
_geom_bond_site_symmetry_2
F1 C7 1_555 1_555
O1 C1 1_555 1_555
N1 C24 1_555 1_555
N2 H1 1_555 1_555
C1 N2 1_555 1_555
C2 C1 1_555 1_555
H2 C2 1_555 1_555
H3 C2 1_555 1_555
C3 C2 1_555 1_555
C4 C3 1_555 1_555
C5 C4 1_555 1_555
H4 C5 1_555 1_555
C6 C5 1_555 1_555
H5 C6 1_555 1_555
C7 C6 1_555 1_555
C8 C7 1_555 1_555
H6 C8 1_555 1_555
C9 C4 1_555 1_555
H7 C9 1_555 1_555
C10 C3 1_555 1_555
H8 C10 1_555 1_555
C11 C10 1_555 1_555
H9 C11 1_555 1_555
H10 C11 1_555 1_555
C12 C3 1_555 1_555
H11 C12 1_555 1_555
C13 C10 1_555 1_555
C14 C13 1_555 1_555
H12 C14 1_555 1_555
C15 C12 1_555 1_555
C16 C15 1_555 1_555
H13 C16 1_555 1_555
C17 N2 1_555 1_555
C18 C17 1_555 1_555
H14 C18 1_555 1_555
C19 C18 1_555 1_555
H15 C19 1_555 1_555
C20 C19 1_555 1_555
H16 C20 1_555 1_555
C21 C20 1_555 1_555
C22 C21 1_555 1_555
H17 C22 1_555 1_555
C23 C22 1_555 1_555
H18 C23 1_555 1_555
C24 C23 1_555 1_555
H19 C24 1_555 1_555
C25 N1 1_555 1_555
F2 C32 1_555 1_555
O2 C26 1_555 1_555
N3 C49 1_555 1_555
N4 H20 1_555 1_555
C26 N4 1_555 1_555
C27 C26 1_555 1_555
H21 C27 1_555 1_555
H22 C27 1_555 1_555
C28 C27 1_555 1_555
C29 C28 1_555 1_555
C30 C29 1_555 1_555
H23 C30 1_555 1_555
C31 C30 1_555 1_555
H24 C31 1_555 1_555
C32 C31 1_555 1_555
C33 C32 1_555 1_555
H25 C33 1_555 1_555
C34 C29 1_555 1_555
H26 C34 1_555 1_555
C35 C28 1_555 1_555
H27 C35 1_555 1_555
C36 C35 1_555 1_555
H28 C36 1_555 1_555
H29 C36 1_555 1_555
C37 C28 1_555 1_555
H30 C37 1_555 1_555
C38 C35 1_555 1_555
C39 C38 1_555 1_555
H31 C39 1_555 1_555
C40 C37 1_555 1_555
C41 C40 1_555 1_555
H32 C41 1_555 1_555
C42 N4 1_555 1_555
C43 C42 1_555 1_555
H33 C43 1_555 1_555
C44 C43 1_555 1_555
H34 C44 1_555 1_555
C45 C44 1_555 1_555
H35 C45 1_555 1_555
C46 C45 1_555 1_555
C47 C46 1_555 1_555
H36 C47 1_555 1_555
C48 C47 1_555 1_555
H37 C48 1_555 1_555
C49 C48 1_555 1_555
H38 C49 1_555 1_555
C50 N3 1_555 1_555
C8 C9 1_555 1_555
C11 C12 1_555 1_555
C17 C25 1_555 1_555
C21 C25 1_555 1_555
C33 C34 1_555 1_555
C36 C37 1_555 1_555
C42 C50 1_555 1_555
C46 C50 1_555 1_555

#END
