
#######################################################################
#
#                 Cambridge Crystallographic Data Centre
#                                CCDC 
#
#######################################################################
#
# If this CIF has been generated from an entry in the Cambridge 
# Structural Database, then it will include bibliographic, chemical, 
# crystal, experimental, refinement or atomic coordinate data resulting 
# from the CCDC's data processing and validation procedures.
#
#######################################################################

data_RANKUP
_chemical_formula_moiety         'C40 H26 O8'
_chemical_name_systematic        
"4,4',4'',4'''-(biphenyl-3,3',5,5'-tetrayl)tetrabenzoic acid"
_symmetry_cell_setting           orthorhombic
_symmetry_space_group_name_H-M   'F d d d'
_symmetry_Int_Tables_number      70
_space_group_name_Hall           '-F 2uv 2vw'
loop_
_symmetry_equiv_pos_site_id
_symmetry_equiv_pos_as_xyz
1 x,y,z
2 1/4-x,1/4-y,z
3 x,1/4-y,1/4-z
4 1/4-x,y,1/4-z
5 x,1/2+y,1/2+z
6 1/4-x,3/4-y,1/2+z
7 x,3/4-y,3/4-z
8 1/4-x,1/2+y,3/4-z
9 1/2+x,y,1/2+z
10 3/4-x,1/4-y,1/2+z
11 1/2+x,1/4-y,3/4-z
12 3/4-x,y,3/4-z
13 1/2+x,1/2+y,z
14 3/4-x,3/4-y,z
15 1/2+x,3/4-y,1/4-z
16 3/4-x,1/2+y,1/4-z
17 -x,-y,-z
18 3/4+x,3/4+y,-z
19 -x,3/4+y,3/4+z
20 3/4+x,-y,3/4+z
21 -x,1/2-y,1/2-z
22 3/4+x,1/4+y,1/2-z
23 -x,1/4+y,1/4+z
24 3/4+x,1/2-y,1/4+z
25 1/2-x,-y,1/2-z
26 1/4+x,3/4+y,1/2-z
27 1/2-x,3/4+y,1/4+z
28 1/4+x,-y,1/4+z
29 1/2-x,1/2-y,-z
30 1/4+x,1/4+y,-z
31 1/2-x,1/4+y,3/4+z
32 1/4+x,1/2-y,3/4+z
_cell_length_a                   3.8045(2)
_cell_length_b                   53.352(3)
_cell_length_c                   60.064(3)
_cell_angle_alpha                90
_cell_angle_beta                 90
_cell_angle_gamma                90
_cell_volume                     12191.7
_exptl_crystal_colour            colorless
_exptl_crystal_description       prism
_cell_formula_units_Z            8
loop_
_atom_site_label
_atom_site_type_symbol
_atom_site_fract_x
_atom_site_fract_y
_atom_site_fract_z
O1 O 0.5087(4) 0.50341(2) 0.47194(2)
O2 O 0.2882(4) 0.47244(2) 0.49228(2)
H1 H 0.3616 0.4805 0.5036
C1 C 0.3578(4) 0.48259(3) 0.47365(2)
C2 C 0.2563(4) 0.46879(3) 0.45328(2)
C3 C 0.0975(4) 0.44547(3) 0.45476(2)
H2 H 0.0498 0.4386 0.4687
C4 C 0.0096(4) 0.43245(2) 0.43569(2)
H3 H -0.0952 0.4168 0.4369
C5 C 0.0751(3) 0.44239(2) 0.41464(2)
C6 C 0.2346(3) 0.46584(2) 0.41342(2)
H4 H 0.2821 0.4728 0.3996
C7 C 0.3235(4) 0.47890(2) 0.43251(2)
H5 H 0.4291 0.4946 0.4314
C8 C -0.0253(3) 0.42836(2) 0.39424(2)
C9 C -0.0240(3) 0.40223(2) 0.39394(2)
H6 H 0.0456 0.3935 0.4066
C10 C -0.1250 0.38891(3) 0.3750
C11 C -0.1250 0.44115(3) 0.3750
H7 H -0.1250 0.4586 0.3750
O1F O 0.5087(4) 0.24659(2) 0.27806(2)
O2F O 0.2882(4) 0.27756(2) 0.25772(2)
H1F H 0.3616 0.2695 0.2464
C1F C 0.3578(4) 0.26741(3) 0.27635(2)
C2F C 0.2563(4) 0.28121(3) 0.29672(2)
C3F C 0.0975(4) 0.30453(3) 0.29524(2)
H2F H 0.0498 0.3114 0.2813
C4F C 0.0096(4) 0.31755(2) 0.31431(2)
H3F H -0.0952 0.3332 0.3131
C5F C 0.0751(3) 0.30761(2) 0.33536(2)
C6F C 0.2346(3) 0.28416(2) 0.33658(2)
H4F H 0.2821 0.2772 0.3504
C7F C 0.3235(4) 0.27110(2) 0.31749(2)
H5F H 0.4291 0.2554 0.3186
C8F C -0.0253(3) 0.32164(2) 0.35576(2)
C9F C -0.0240(3) 0.34777(2) 0.35606(2)
H6F H 0.0456 0.3565 0.3434
C10F C -0.1250 0.36109(3) 0.3750
C11F C -0.1250 0.30885(3) 0.3750
H7F H -0.1250 0.2914 0.3750
O1K O -0.7587(4) 0.50341(2) 0.27806(2)
O2K O -0.5382(4) 0.47244(2) 0.25772(2)
H1K H -0.6116 0.4805 0.2464
C1K C -0.6078(4) 0.48259(3) 0.27635(2)
C2K C -0.5063(4) 0.46879(3) 0.29672(2)
C3K C -0.3475(4) 0.44547(3) 0.29524(2)
H2K H -0.2998 0.4386 0.2813
C4K C -0.2596(4) 0.43245(2) 0.31431(2)
H3K H -0.1548 0.4168 0.3131
C5K C -0.3251(3) 0.44239(2) 0.33536(2)
C6K C -0.4846(3) 0.46584(2) 0.33658(2)
H4K H -0.5321 0.4728 0.3504
C7K C -0.5735(4) 0.47890(2) 0.31749(2)
H5K H -0.6791 0.4946 0.3186
C8K C -0.2247(3) 0.42836(2) 0.35576(2)
C9K C -0.2260(3) 0.40223(2) 0.35606(2)
H6K H -0.2956 0.3935 0.3434
O1M O -0.7587(4) 0.24659(2) 0.47194(2)
O2M O -0.5382(4) 0.27756(2) 0.49228(2)
H1M H -0.6116 0.2695 0.5036
C1M C -0.6078(4) 0.26741(3) 0.47365(2)
C2M C -0.5063(4) 0.28121(3) 0.45328(2)
C3M C -0.3475(4) 0.30453(3) 0.45476(2)
H2M H -0.2998 0.3114 0.4687
C4M C -0.2596(4) 0.31755(2) 0.43569(2)
H3M H -0.1548 0.3332 0.4369
C5M C -0.3251(3) 0.30761(2) 0.41464(2)
C6M C -0.4846(3) 0.28416(2) 0.41342(2)
H4M H -0.5321 0.2772 0.3996
C7M C -0.5735(4) 0.27110(2) 0.43251(2)
H5M H -0.6791 0.2554 0.4314
C8M C -0.2247(3) 0.32164(2) 0.39424(2)
C9M C -0.2260(3) 0.34777(2) 0.39394(2)
H6M H -0.2956 0.3565 0.4066
loop_
_geom_bond_atom_site_label_1
_geom_bond_atom_site_label_2
_geom_bond_site_symmetry_1
_geom_bond_site_symmetry_2
O1 C1 1_555 1_555
O2 H1 1_555 1_555
C1 O2 1_555 1_555
C2 C1 1_555 1_555
C3 C2 1_555 1_555
H2 C3 1_555 1_555
C4 C3 1_555 1_555
H3 C4 1_555 1_555
C5 C4 1_555 1_555
C6 C5 1_555 1_555
H4 C6 1_555 1_555
C7 C2 1_555 1_555
H5 C7 1_555 1_555
C8 C5 1_555 1_555
C9 C8 1_555 1_555
H6 C9 1_555 1_555
C10 C9 1_555 1_555
C11 C8 1_555 1_555
H7 C11 1_555 1_555
O1F C1F 1_555 1_555
O2F H1F 1_555 1_555
C1F O2F 1_555 1_555
C2F C1F 1_555 1_555
C3F C2F 1_555 1_555
H2F C3F 1_555 1_555
C4F C3F 1_555 1_555
H3F C4F 1_555 1_555
C5F C4F 1_555 1_555
C6F C5F 1_555 1_555
H4F C6F 1_555 1_555
C7F C2F 1_555 1_555
H5F C7F 1_555 1_555
C8F C5F 1_555 1_555
C9F C8F 1_555 1_555
H6F C9F 1_555 1_555
C10F C10 1_555 1_555
C11F C8F 1_555 1_555
H7F C11F 1_555 1_555
O1K C1K 1_555 1_555
O2K H1K 1_555 1_555
C1K O2K 1_555 1_555
C2K C1K 1_555 1_555
C3K C2K 1_555 1_555
H2K C3K 1_555 1_555
C4K C3K 1_555 1_555
H3K C4K 1_555 1_555
C5K C4K 1_555 1_555
C6K C5K 1_555 1_555
H4K C6K 1_555 1_555
C7K C2K 1_555 1_555
H5K C7K 1_555 1_555
C8K C11 1_555 1_555
C9K C10 1_555 1_555
H6K C9K 1_555 1_555
O1M C1M 1_555 1_555
O2M H1M 1_555 1_555
C1M O2M 1_555 1_555
C2M C1M 1_555 1_555
C3M C2M 1_555 1_555
H2M C3M 1_555 1_555
C4M C3M 1_555 1_555
H3M C4M 1_555 1_555
C5M C4M 1_555 1_555
C6M C5M 1_555 1_555
H4M C6M 1_555 1_555
C7M C2M 1_555 1_555
H5M C7M 1_555 1_555
C8M C11F 1_555 1_555
C9M C10F 1_555 1_555
H6M C9M 1_555 1_555
C6 C7 1_555 1_555
C6F C7F 1_555 1_555
C9F C10F 1_555 1_555
C5K C8K 1_555 1_555
C6K C7K 1_555 1_555
C8K C9K 1_555 1_555
C5M C8M 1_555 1_555
C6M C7M 1_555 1_555
C8M C9M 1_555 1_555

#END
