
#######################################################################
#
#                 Cambridge Crystallographic Data Centre
#                                CCDC 
#
#######################################################################
#
# If this CIF has been generated from an entry in the Cambridge 
# Structural Database, then it will include bibliographic, chemical, 
# crystal, experimental, refinement or atomic coordinate data resulting 
# from the CCDC's data processing and validation procedures.
#
#######################################################################

data_RANVEK
_chemical_formula_moiety         'C22 H16 Br2 O4'
_chemical_name_systematic        
(2,5-dibromo-1,4-phenylene)bis((4-methoxyphenyl)methanone)
_symmetry_cell_setting           triclinic
_symmetry_space_group_name_H-M   'P -1'
_symmetry_Int_Tables_number      2
_space_group_name_Hall           '-P 1'
loop_
_symmetry_equiv_pos_site_id
_symmetry_equiv_pos_as_xyz
1 x,y,z
2 -x,-y,-z
_cell_length_a                   5.6441(14)
_cell_length_b                   7.1268(17)
_cell_length_c                   13.144(3)
_cell_angle_alpha                75.771(4)
_cell_angle_beta                 78.942(4)
_cell_angle_gamma                74.241(4)
_cell_volume                     488.775
_exptl_crystal_colour            colorless
_exptl_crystal_description       prism
_cell_formula_units_Z            1
_exptl_crystal_preparation       Luminescent
loop_
_atom_site_label
_atom_site_type_symbol
_atom_site_fract_x
_atom_site_fract_y
_atom_site_fract_z
Br1 Br 0.47844(7) 0.56005(6) 0.16066(3)
O1 O 0.6740(7) 0.1036(5) 0.0935(3)
O2 O 1.2338(8) -0.3191(5) 0.4904(3)
C1 C 0.9599(8) 0.0255(6) 0.2166(3)
C2 C 0.8967(8) -0.1542(6) 0.2666(3)
H1 H 0.7859 -0.1982 0.2393
C3 C 0.9981(9) -0.2680(6) 0.3569(4)
H2 H 0.9590 -0.3896 0.3888
C4 C 1.1565(8) -0.2006(7) 0.3991(3)
C5 C 1.2254(9) -0.0237(7) 0.3494(3)
H3 H 1.3364 0.0189 0.3772
C6 C 1.1278(8) 0.0898(6) 0.2579(4)
H4 H 1.1741 0.2079 0.2243
C7 C 0.8385(8) 0.1469(6) 0.1233(3)
C8 C 0.9241(7) 0.3315(6) 0.0629(3)
C9 C 0.8510(8) 0.6893(6) 0.0043(3)
H5 H 0.7491 0.8153 0.0069
C10 C 0.7805(7) 0.5229(6) 0.0668(3)
C11 C 1.3871(11) -0.2500(9) 0.5428(4)
H6 H 1.5416 -0.2423 0.4982
H7 H 1.4189 -0.3413 0.6085
H8 H 1.3024 -0.1205 0.5565
Br1A Br 1.52156(7) 0.43995(6) -0.16066(3)
O1A O 1.3260(7) 0.8964(5) -0.0935(3)
O2A O 0.7662(8) 1.3191(5) -0.4904(3)
C1A C 1.0401(8) 0.9745(6) -0.2166(3)
C2A C 1.1033(8) 1.1542(6) -0.2666(3)
H1A H 1.2141 1.1982 -0.2393
C3A C 1.0019(9) 1.2680(6) -0.3569(4)
H2A H 1.0410 1.3896 -0.3888
C4A C 0.8435(8) 1.2006(7) -0.3991(3)
C5A C 0.7746(9) 1.0237(7) -0.3494(3)
H3A H 0.6636 0.9811 -0.3772
C6A C 0.8722(8) 0.9102(6) -0.2579(4)
H4A H 0.8259 0.7921 -0.2243
C7A C 1.1615(8) 0.8531(6) -0.1233(3)
C8A C 1.0759(7) 0.6685(6) -0.0629(3)
C9A C 1.1490(8) 0.3107(6) -0.0043(3)
H5A H 1.2509 0.1847 -0.0069
C10A C 1.2195(7) 0.4771(6) -0.0668(3)
C11A C 0.6129(11) 1.2500(9) -0.5428(4)
H6A H 0.4584 1.2423 -0.4982
H7A H 0.5811 1.3413 -0.6085
H8A H 0.6976 1.1205 -0.5565
loop_
_geom_bond_atom_site_label_1
_geom_bond_atom_site_label_2
_geom_bond_site_symmetry_1
_geom_bond_site_symmetry_2
Br1 C10 1_555 1_555
O1 C7 1_555 1_555
O2 C4 1_555 1_555
C1 C2 1_555 1_555
C2 H1 1_555 1_555
C3 C2 1_555 1_555
H2 C3 1_555 1_555
C4 C3 1_555 1_555
C5 C4 1_555 1_555
H3 C5 1_555 1_555
C6 C1 1_555 1_555
H4 C6 1_555 1_555
C7 C1 1_555 1_555
C8 C7 1_555 1_555
C9 H5 1_555 1_555
C10 C8 1_555 1_555
C11 O2 1_555 1_555
H6 C11 1_555 1_555
H7 C11 1_555 1_555
H8 C11 1_555 1_555
Br1A C10A 1_555 1_555
O1A C7A 1_555 1_555
O2A C4A 1_555 1_555
C1A C2A 1_555 1_555
C2A H1A 1_555 1_555
C3A C2A 1_555 1_555
H2A C3A 1_555 1_555
C4A C3A 1_555 1_555
C5A C4A 1_555 1_555
H3A C5A 1_555 1_555
C6A C1A 1_555 1_555
H4A C6A 1_555 1_555
C7A C1A 1_555 1_555
C8A C9 1_555 1_555
C9A C8 1_555 1_555
H5A C9A 1_555 1_555
C10A C8A 1_555 1_555
C11A O2A 1_555 1_555
H6A C11A 1_555 1_555
H7A C11A 1_555 1_555
H8A C11A 1_555 1_555
C5 C6 1_555 1_555
C9 C10 1_555 1_555
C5A C6A 1_555 1_555
C7A C8A 1_555 1_555
C9A C10A 1_555 1_555

#END
