
#######################################################################
#
#                 Cambridge Crystallographic Data Centre
#                                CCDC 
#
#######################################################################
#
# If this CIF has been generated from an entry in the Cambridge 
# Structural Database, then it will include bibliographic, chemical, 
# crystal, experimental, refinement or atomic coordinate data resulting 
# from the CCDC's data processing and validation procedures.
#
#######################################################################

data_RANVAG
_chemical_formula_moiety         'C16 H8 Br2 O2 S2'
_chemical_name_systematic        
(2,5-dibromo-1,4-phenylene)bis(3-thienylmethanone)
_symmetry_cell_setting           monoclinic
_symmetry_space_group_name_H-M   'P 21/n'
_symmetry_Int_Tables_number      14
_space_group_name_Hall           '-P 2yn'
loop_
_symmetry_equiv_pos_site_id
_symmetry_equiv_pos_as_xyz
1 x,y,z
2 1/2-x,1/2+y,1/2-z
3 -x,-y,-z
4 1/2+x,1/2-y,1/2+z
_cell_length_a                   5.6792(18)
_cell_length_b                   20.702(6)
_cell_length_c                   7.084(2)
_cell_angle_alpha                90
_cell_angle_beta                 107.686(5)
_cell_angle_gamma                90
_cell_volume                     793.506
_exptl_crystal_colour            colorless
_exptl_crystal_description       plate
_cell_formula_units_Z            2
_exptl_crystal_preparation       Luminescent
loop_
_atom_site_label
_atom_site_type_symbol
_atom_site_fract_x
_atom_site_fract_y
_atom_site_fract_z
Br1 Br 0.52505(7) 0.097021(19) -0.14039(6)
O1 O 0.7052(6) 0.06316(17) 0.3548(5)
C1 C 0.7983(6) 0.04008(16) -0.0559(5)
C2 C 1.0323(6) 0.13504(17) 0.3792(5)
C3 C 0.9431(6) 0.03912(17) 0.1409(5)
C4 C 0.8789(7) 0.07839(18) 0.2973(5)
C5 C 0.8531(7) 0.00134(17) -0.1962(5)
H1 H 0.7534 0.0025 -0.3274
S1 S 1.3479(2) 0.22568(5) 0.43180(18)
C6 C 1.0043(7) 0.17244(18) 0.5391(5)
H2 H 0.8906 0.1626 0.6055
C7 C 1.2154(7) 0.15895(18) 0.3097(6)
H3 H 1.2612 0.1403 0.2066
C8 C 1.1634(7) 0.22537(16) 0.5873(5)
H4 H 1.1696 0.2555 0.6861
Br1B Br 1.47495(7) -0.097021(19) 0.14039(6)
O1B O 1.2948(6) -0.06316(17) -0.3548(5)
C1B C 1.2017(6) -0.04008(16) 0.0559(5)
C2B C 0.9677(6) -0.13504(17) -0.3792(5)
C3B C 1.0569(6) -0.03912(17) -0.1409(5)
C4B C 1.1211(7) -0.07839(18) -0.2973(5)
C5B C 1.1469(7) -0.00134(17) 0.1962(5)
H1B H 1.2466 -0.0025 0.3274
S1B S 0.6521(2) -0.22568(5) -0.43180(18)
C6B C 0.9957(7) -0.17244(18) -0.5391(5)
H2B H 1.1094 -0.1626 -0.6055
C7B C 0.7846(7) -0.15895(18) -0.3097(6)
H3B H 0.7388 -0.1403 -0.2066
C8B C 0.8366(7) -0.22537(16) -0.5873(5)
H4B H 0.8304 -0.2555 -0.6861
loop_
_geom_bond_atom_site_label_1
_geom_bond_atom_site_label_2
_geom_bond_site_symmetry_1
_geom_bond_site_symmetry_2
Br1 C1 1_555 1_555
O1 C4 1_555 1_555
C1 C3 1_555 1_555
C2 C4 1_555 1_555
C3 C4 1_555 1_555
C5 C1 1_555 1_555
H1 C5 1_555 1_555
S1 C7 1_555 1_555
C6 C2 1_555 1_555
H2 C6 1_555 1_555
C7 C2 1_555 1_555
H3 C7 1_555 1_555
C8 S1 1_555 1_555
H4 C8 1_555 1_555
Br1B C1B 1_555 1_555
O1B C4B 1_555 1_555
C1B C3B 1_555 1_555
C2B C4B 1_555 1_555
C3B C5 1_555 1_555
C4B C3B 1_555 1_555
C5B C3 1_555 1_555
H1B C5B 1_555 1_555
S1B C7B 1_555 1_555
C6B C2B 1_555 1_555
H2B C6B 1_555 1_555
C7B C2B 1_555 1_555
H3B C7B 1_555 1_555
C8B S1B 1_555 1_555
H4B C8B 1_555 1_555
C6 C8 1_555 1_555
C1B C5B 1_555 1_555
C6B C8B 1_555 1_555

#END
