
#######################################################################
#
#                 Cambridge Crystallographic Data Centre
#                                CCDC 
#
#######################################################################
#
# If this CIF has been generated from an entry in the Cambridge 
# Structural Database, then it will include bibliographic, chemical, 
# crystal, experimental, refinement or atomic coordinate data resulting 
# from the CCDC's data processing and validation procedures.
#
#######################################################################

data_RAPBUF
_chemical_formula_moiety         'C14 H8 S12'
_chemical_name_systematic        
cis,trans-2,4,6,8-Tetrathia-1,5(2,7)-ditetrathiafulvalenacyclooctaphane
_symmetry_cell_setting           triclinic
_symmetry_space_group_name_H-M   'P -1'
_symmetry_Int_Tables_number      2
_space_group_name_Hall           '-P 1'
loop_
_symmetry_equiv_pos_site_id
_symmetry_equiv_pos_as_xyz
1 x,y,z
2 -x,-y,-z
_cell_length_a                   12.145(6)
_cell_length_b                   16.734(4)
_cell_length_c                   11.457(6)
_cell_angle_alpha                96.83(4)
_cell_angle_beta                 112.86(3)
_cell_angle_gamma                82.71(3)
_cell_volume                     2122.04
_exptl_crystal_colour            orange
_exptl_crystal_description       plates
_chemical_melting_point          245-246deg.C
_cell_formula_units_Z            4
_exptl_crystal_recrystallization_method 'carbon disulfide'
loop_
_atom_site_label
_atom_site_type_symbol
_atom_site_fract_x
_atom_site_fract_y
_atom_site_fract_z
S1 S 0.1443(3) 0.0892(2) 0.1795(3)
S2 S 0.2586(3) 0.1730(2) 0.0495(3)
S3 S 0.3855(3) -0.0401(2) 0.2701(3)
S4 S 0.4908(3) 0.0497(2) 0.1398(3)
S5 S -0.0394(3) -0.0507(2) 0.2346(3)
S6 S 0.1047(3) 0.0456(2) 0.4653(3)
S7 S 0.3182(3) -0.1011(2) 0.5308(3)
S8 S 0.1739(3) -0.1953(2) 0.2988(3)
S9 S -0.0801(3) 0.2046(2) 0.0956(3)
S10 S -0.2252(3) 0.0886(2) 0.1418(4)
S11 S 0.5924(3) -0.1705(2) 0.3331(3)
S12 S 0.5444(3) -0.2101(2) 0.5586(3)
C1 C 0.2716(9) 0.0920(6) 0.1437(10)
C2 C 0.1109(9) 0.2071(6) 0.031(1)
C3 C 0.0594(9) 0.1697(6) 0.0878(10)
C4 C 0.3668(9) 0.0417(6) 0.1788(10)
C5 C 0.5746(9) -0.0385(6) 0.208(1)
C6 C 0.5268(9) -0.0788(6) 0.265(1)
C7 C 0.0935(10) -0.0448(6) 0.3651(10)
C8 C -0.026(1) 0.0942(7) 0.362(1)
C9 C -0.097(1) 0.0515(6) 0.256(1)
C10 C 0.1853(10) -0.1062(6) 0.3971(10)
C11 C 0.323(1) -0.2295(7) 0.365(1)
C12 C 0.390(1) -0.1870(6) 0.469(1)
C13 C -0.1713(9) 0.1174(6) 0.025(1)
C14 C 0.6187(9) -0.1418(6) 0.5014(10)
S13 S 0.3332(3) 0.5798(2) 0.8194(3)
S14 S 0.4355(3) 0.6470(2) 0.6618(4)
S15 S 0.2270(3) 0.4389(2) 0.5921(3)
S16 S 0.3336(3) 0.5053(2) 0.4391(3)
S17 S 0.3013(3) 0.4569(2) 1.0593(3)
S18 S 0.0775(3) 0.5586(2) 0.9368(3)
S19 S -0.0174(3) 0.4100(2) 0.7166(4)
S20 S 0.2086(3) 0.3126(2) 0.8415(3)
S21 S 0.4198(3) 0.7106(2) 1.0316(3)
S22 S 0.4284(3) 0.5973(2) 1.2248(3)
S23 S 0.1136(3) 0.3112(2) 0.3834(3)
S24 S -0.0857(3) 0.3007(2) 0.4773(4)
C15 C 0.3512(10) 0.5710(7) 0.674(1)
C16 C 0.457(1) 0.6981(7) 0.809(1)
C17 C 0.4116(10) 0.6680(7) 0.884(1)
C18 C 0.308(1) 0.5142(8) 0.579(1)
C19 C 0.2431(10) 0.4249(7) 0.364(1)
C20 C 0.198(1) 0.3951(7) 0.437(1)
C21 C 0.1620(9) 0.4628(7) 0.934(1)
C22 C 0.1979(9) 0.6074(6) 1.054(1)
C23 C 0.2976(10) 0.5621(6) 1.1088(10)
C24 C 0.1239(9) 0.4059(6) 0.846(1)
C25 C 0.1187(9) 0.2765(6) 0.687(1)
C26 C 0.019(12) 0.3227(6) 0.632(1)
C27 C 0.5065(9) 0.6266(6) 1.1313(10)
C28 C -0.0328(10) 0.3560(6) 0.382(1)
loop_
_geom_bond_atom_site_label_1
_geom_bond_atom_site_label_2
_geom_bond_site_symmetry_1
_geom_bond_site_symmetry_2
S1 C1 1_555 1_555
S2 C1 1_555 1_555
S3 C4 1_555 1_555
S4 C4 1_555 1_555
S5 C7 1_555 1_555
S6 C7 1_555 1_555
S7 C10 1_555 1_555
S8 C10 1_555 1_555
S9 C3 1_555 1_555
S10 C9 1_555 1_555
S11 C6 1_555 1_555
S12 C12 1_555 1_555
S13 C15 1_555 1_555
S14 C15 1_555 1_555
S15 C18 1_555 1_555
S16 C18 1_555 1_555
S17 C21 1_555 1_555
S18 C21 1_555 1_555
S19 C24 1_555 1_555
S20 C24 1_555 1_555
S21 C17 1_555 1_555
S22 C23 1_555 1_555
S23 C20 1_555 1_555
S24 C26 1_555 1_555
C1 C4 1_555 1_555
C2 S2 1_555 1_555
C3 S1 1_555 1_555
C5 S4 1_555 1_555
C6 S3 1_555 1_555
C7 C10 1_555 1_555
C8 S6 1_555 1_555
C9 S5 1_555 1_555
C11 S8 1_555 1_555
C12 S7 1_555 1_555
C13 S9 1_555 1_555
C14 S11 1_555 1_555
C15 C18 1_555 1_555
C16 S14 1_555 1_555
C17 S13 1_555 1_555
C19 S16 1_555 1_555
C20 S15 1_555 1_555
C21 C24 1_555 1_555
C22 S18 1_555 1_555
C23 S17 1_555 1_555
C25 S20 1_555 1_555
C26 S19 1_555 1_555
C27 S21 1_555 1_555
C28 S23 1_555 1_555
S10 C13 1_555 1_555
S12 C14 1_555 1_555
S22 C27 1_555 1_555
S24 C28 1_555 1_555
C2 C3 1_555 1_555
C5 C6 1_555 1_555
C8 C9 1_555 1_555
C11 C12 1_555 1_555
C16 C17 1_555 1_555
C19 C20 1_555 1_555
C22 C23 1_555 1_555
C25 C26 1_555 1_555

#END
