
#######################################################################
#
#                 Cambridge Crystallographic Data Centre
#                                CCDC 
#
#######################################################################
#
# If this CIF has been generated from an entry in the Cambridge 
# Structural Database, then it will include bibliographic, chemical, 
# crystal, experimental, refinement or atomic coordinate data resulting 
# from the CCDC's data processing and validation procedures.
#
#######################################################################

data_RAPFEW
_chemical_formula_moiety         'C28 H20 Cl4 N2 O2'
_chemical_name_systematic        
2,2'-(ethane-1,2-diylbis(2,1-phenylenenitrilomethylylidene))bis(4,6-dichlorophenol)
_symmetry_cell_setting           monoclinic
_symmetry_space_group_name_H-M   'C 2/c'
_symmetry_Int_Tables_number      15
_space_group_name_Hall           '-C 2yn'
loop_
_symmetry_equiv_pos_site_id
_symmetry_equiv_pos_as_xyz
1 x,y,z
2 -x,y,1/2-z
3 1/2+x,1/2+y,z
4 1/2-x,1/2+y,1/2-z
5 -x,-y,-z
6 x,-y,1/2+z
7 1/2-x,1/2-y,-z
8 1/2+x,1/2-y,1/2+z
_cell_length_a                   21.026(4)
_cell_length_b                   15.957(3)
_cell_length_c                   15.190(3)
_cell_angle_alpha                90
_cell_angle_beta                 96.88(3)
_cell_angle_gamma                90
_cell_volume                     5059.73
_exptl_crystal_colour            orange
_cell_formula_units_Z            8
loop_
_atom_site_label
_atom_site_type_symbol
_atom_site_fract_x
_atom_site_fract_y
_atom_site_fract_z
Cl1 Cl 0.26369(4) 0.08391(5) 0.11975(7)
Cl2 Cl 0.36508(6) 0.37078(7) 0.25608(7)
Cl3 Cl 0.28489(5) 0.10523(7) 0.42073(8)
Cl4 Cl 0.16735(5) 0.39595(5) 0.32889(7)
N1 N 0.10713(12) 0.33435(15) -0.00195(17)
N2 N 0.03136(12) 0.14988(15) 0.15585(16)
O1 O 0.16143(10) 0.19153(13) 0.03631(15)
H1 H 0.1335 0.2251 0.0132
O2 O 0.07585(11) 0.29199(13) 0.22072(17)
H2 H 0.0510 0.2598 0.1892
C1 C 0.20773(14) 0.23416(18) 0.0852(2)
C2 C 0.26006(15) 0.19118(18) 0.1288(2)
C3 C 0.30845(16) 0.2330(2) 0.1795(2)
H3 H 0.3442 0.2030 0.2080
C4 C 0.30477(16) 0.3194(2) 0.1889(2)
C5 C 0.25392(16) 0.3634(2) 0.1470(2)
H4 H 0.2522 0.4225 0.1536
C6 C 0.20464(14) 0.32195(18) 0.0946(2)
C7 C 0.15134(15) 0.36938(19) 0.0506(2)
H5 H 0.1491 0.4280 0.0610
C8 C 0.05696(15) 0.38129(19) -0.0508(2)
C9 C 0.06467(16) 0.4652(2) -0.0726(2)
H6 H 0.1038 0.4930 -0.0531
C10 C 0.01610(18) 0.5083(2) -0.1221(2)
H7 H 0.0215 0.5656 -0.1364
C11 C -0.04031(19) 0.4677(3) -0.1507(2)
H8 H -0.0742 0.4971 -0.1845
C12 C -0.04770(17) 0.3841(3) -0.1303(2)
H9 H -0.0868 0.3566 -0.1510
C13 C 0.00048(15) 0.3390(2) -0.0803(2)
C14 C -0.01068(16) 0.2492(2) -0.0576(2)
H10 H 0.0312 0.2208 -0.0440
H11 H -0.0341 0.2211 -0.1099
C15 C -0.04866(16) 0.2391(2) 0.0210(2)
H12 H -0.0254 0.2668 0.0736
H13 H -0.0908 0.2670 0.0076
C16 C -0.05872(15) 0.1483(2) 0.0415(2)
C17 C -0.10853(17) 0.1043(3) -0.0056(2)
H14 H -0.1373 0.1334 -0.0480
C18 C -0.11788(19) 0.0197(3) 0.0069(3)
H15 H -0.1522 -0.0089 -0.0270
C19 C -0.07726(18) -0.0225(2) 0.0684(3)
H16 H -0.0834 -0.0807 0.0775
C20 C -0.02782(16) 0.01861(19) 0.1172(2)
H17 H -0.0003 -0.0112 0.1605
C21 C -0.01743(14) 0.10410(19) 0.1038(2)
C22 C 0.08085(14) 0.11416(19) 0.1959(2)
H18 H 0.0869 0.0559 0.1870
C23 C 0.12812(14) 0.16010(17) 0.2545(2)
C24 C 0.17825(14) 0.11695(19) 0.3026(2)
H19 H 0.1812 0.0579 0.2966
C25 C 0.22340(15) 0.1588(2) 0.3587(2)
C26 C 0.22023(15) 0.2449(2) 0.3676(2)
H20 H 0.2518 0.2738 0.4061
C27 C 0.17072(15) 0.28838(19) 0.3200(2)
C28 C 0.12343(14) 0.24743(18) 0.2641(2)
loop_
_geom_bond_atom_site_label_1
_geom_bond_atom_site_label_2
_geom_bond_site_symmetry_1
_geom_bond_site_symmetry_2
Cl1 C2 1_555 1_555
Cl2 C4 1_555 1_555
Cl3 C25 1_555 1_555
Cl4 C27 1_555 1_555
N1 C7 1_555 1_555
N2 C21 1_555 1_555
O1 H1 1_555 1_555
O2 H2 1_555 1_555
C1 O1 1_555 1_555
C2 C1 1_555 1_555
C3 C2 1_555 1_555
H3 C3 1_555 1_555
C4 C3 1_555 1_555
C5 C4 1_555 1_555
H4 C5 1_555 1_555
C6 C1 1_555 1_555
C7 C6 1_555 1_555
H5 C7 1_555 1_555
C8 N1 1_555 1_555
C9 C8 1_555 1_555
H6 C9 1_555 1_555
C10 C9 1_555 1_555
H7 C10 1_555 1_555
C11 C10 1_555 1_555
H8 C11 1_555 1_555
C12 C11 1_555 1_555
H9 C12 1_555 1_555
C13 C8 1_555 1_555
C14 C13 1_555 1_555
H10 C14 1_555 1_555
H11 C14 1_555 1_555
C15 C14 1_555 1_555
H12 C15 1_555 1_555
H13 C15 1_555 1_555
C16 C15 1_555 1_555
C17 C16 1_555 1_555
H14 C17 1_555 1_555
C18 C17 1_555 1_555
H15 C18 1_555 1_555
C19 C18 1_555 1_555
H16 C19 1_555 1_555
C20 C19 1_555 1_555
H17 C20 1_555 1_555
C21 C16 1_555 1_555
C22 N2 1_555 1_555
H18 C22 1_555 1_555
C23 C22 1_555 1_555
C24 C23 1_555 1_555
H19 C24 1_555 1_555
C25 C24 1_555 1_555
C26 C25 1_555 1_555
H20 C26 1_555 1_555
C27 C26 1_555 1_555
C28 O2 1_555 1_555
C5 C6 1_555 1_555
C12 C13 1_555 1_555
C20 C21 1_555 1_555
C23 C28 1_555 1_555
C27 C28 1_555 1_555

#END
