
#######################################################################
#
#                 Cambridge Crystallographic Data Centre
#                                CCDC 
#
#######################################################################
#
# If this CIF has been generated from an entry in the Cambridge 
# Structural Database, then it will include bibliographic, chemical, 
# crystal, experimental, refinement or atomic coordinate data resulting 
# from the CCDC's data processing and validation procedures.
#
#######################################################################

data_RAPFIY01
_chemical_formula_moiety         'C8 H6 N2 O6'
_chemical_name_systematic        'Methyl 3,5-dinitrobenzoate'
_symmetry_cell_setting           monoclinic
_symmetry_space_group_name_H-M   'P 21/n'
_symmetry_Int_Tables_number      14
_space_group_name_Hall           '-P 2yn'
loop_
_symmetry_equiv_pos_site_id
_symmetry_equiv_pos_as_xyz
1 x,y,z
2 1/2-x,1/2+y,1/2-z
3 -x,-y,-z
4 1/2+x,1/2-y,1/2+z
_cell_length_a                   4.5664(4)
_cell_length_b                   18.727(2)
_cell_length_c                   10.8416(10)
_cell_angle_alpha                90
_cell_angle_beta                 101.787(6)
_cell_angle_gamma                90
_cell_volume                     907.57
_exptl_crystal_colour            colorless
_exptl_crystal_description       lath
_cell_formula_units_Z            4
_exptl_crystal_recrystallization_method ethanol
loop_
_atom_site_label
_atom_site_type_symbol
_atom_site_fract_x
_atom_site_fract_y
_atom_site_fract_z
O1 O -0.2774(3) 0.67000(9) 0.18351(15)
O2 O -0.0789(4) 0.56667(9) 0.26896(16)
O3 O 0.8123(5) 0.56191(10) 0.58930(19)
O4 O 1.0328(4) 0.65946(10) 0.66327(15)
O5 O 0.6277(4) 0.88672(9) 0.50125(17)
O6 O 0.2069(4) 0.89026(9) 0.36595(17)
N1 N 0.8306(5) 0.62668(11) 0.59376(18)
N2 N 0.4141(4) 0.85809(11) 0.43276(18)
C1 C 0.1600(5) 0.67207(13) 0.3470(2)
C2 C 0.3754(5) 0.63231(13) 0.4289(2)
C3 C 0.6005(5) 0.66864(13) 0.5090(2)
C4 C 0.6224(5) 0.74254(13) 0.5126(2)
C5 C 0.4021(5) 0.77944(13) 0.4308(2)
C6 C 0.1734(5) 0.74635(13) 0.3480(2)
C7 C -0.0892(5) 0.63688(13) 0.2566(2)
C8 C -0.3115(6) 0.52557(14) 0.1862(2)
H1 H 0.3673 0.5816 0.4295
H2 H 0.7799 0.7664 0.5681
H3 H 0.0277 0.7737 0.2926
H4 H -0.5082 0.5398 0.2008
H5 H -0.2803 0.4745 0.2042
H6 H -0.3020 0.5348 0.0982
loop_
_geom_bond_atom_site_label_1
_geom_bond_atom_site_label_2
_geom_bond_site_symmetry_1
_geom_bond_site_symmetry_2
O1 C7 1_555 1_555
O2 C7 1_555 1_555
O3 N1 1_555 1_555
O4 N1 1_555 1_555
O5 N2 1_555 1_555
O6 N2 1_555 1_555
N1 C3 1_555 1_555
N2 C5 1_555 1_555
C1 C2 1_555 1_555
C2 C3 1_555 1_555
C3 C4 1_555 1_555
C4 C5 1_555 1_555
C5 C6 1_555 1_555
C6 C1 1_555 1_555
C7 C1 1_555 1_555
C8 O2 1_555 1_555
H1 C2 1_555 1_555
H2 C4 1_555 1_555
H3 C6 1_555 1_555
H4 C8 1_555 1_555
H5 C8 1_555 1_555
H6 C8 1_555 1_555

#END
