
#######################################################################
#
#                 Cambridge Crystallographic Data Centre
#                                CCDC 
#
#######################################################################
#
# If this CIF has been generated from an entry in the Cambridge 
# Structural Database, then it will include bibliographic, chemical, 
# crystal, experimental, refinement or atomic coordinate data resulting 
# from the CCDC's data processing and validation procedures.
#
#######################################################################

data_RAPGEV
_chemical_formula_moiety         'C32 H20 N2'
_chemical_name_systematic        
trans-N,N'-bis(9H-Fluoren-9-ylidene)benzene-1,2-diamine
_symmetry_cell_setting           monoclinic
_symmetry_space_group_name_H-M   'C 2/c'
_symmetry_Int_Tables_number      15
_space_group_name_Hall           '-C 2yn'
loop_
_symmetry_equiv_pos_site_id
_symmetry_equiv_pos_as_xyz
1 x,y,z
2 1/2+x,1/2+y,z
3 -x,y,1/2-z
4 1/2-x,1/2+y,1/2-z
5 -x,-y,-z
6 1/2-x,1/2-y,-z
7 x,-y,1/2+z
8 1/2+x,1/2-y,1/2+z
_cell_length_a                   14.9807(6)
_cell_length_b                   15.5273(6)
_cell_length_c                   9.4228(4)
_cell_angle_alpha                90
_cell_angle_beta                 99.9620(10)
_cell_angle_gamma                90
_cell_volume                     2158.79
_exptl_crystal_colour            red
_exptl_crystal_description       irregular
_chemical_melting_point          '485 K'
_cell_formula_units_Z            4
loop_
_atom_site_label
_atom_site_type_symbol
_atom_site_fract_x
_atom_site_fract_y
_atom_site_fract_z
N1 N 0.03877(6) 0.28068(6) 0.12187(10)
C1 C 0.23535(8) 0.20765(8) 0.29194(13)
H1 H 0.1910 0.1695 0.3170
C2 C 0.32662(9) 0.19808(8) 0.35269(14)
H2 H 0.3444 0.1527 0.4192
C3 C 0.39177(8) 0.25384(8) 0.31748(13)
H3 H 0.4536 0.2460 0.3596
C4 C 0.36731(8) 0.32117(8) 0.22096(13)
H4 H 0.4119 0.3597 0.1976
C5 C 0.26766(8) 0.46919(7) 0.00096(13)
H5 H 0.3307 0.4817 0.0213
C6 C 0.20798(9) 0.52205(8) -0.09030(13)
H6 H 0.2308 0.5710 -0.1328
C7 C 0.11567(9) 0.50434(8) -0.12009(13)
H7 H 0.0765 0.5407 -0.1839
C8 C 0.08001(8) 0.43373(8) -0.05724(13)
H8 H 0.0169 0.4216 -0.0768
C9 C 0.12011(8) 0.30500(7) 0.11819(12)
C10 C 0.21056(7) 0.27404(7) 0.19417(12)
C11 C 0.27712(8) 0.33107(7) 0.15965(12)
C12 C 0.23265(8) 0.39806(7) 0.06109(12)
C13 C 0.13922(8) 0.38192(7) 0.03436(12)
C14 C 0.02223(7) 0.20269(7) 0.19017(12)
C15 C 0.04119(8) 0.12408(8) 0.13017(13)
H9 H 0.0690 0.1238 0.0469
C16 C 0.02050(8) 0.04643(8) 0.18915(13)
H10 H 0.0342 -0.0064 0.1468
N1B N -0.03877(6) 0.28068(6) 0.37813(10)
C1B C -0.23535(8) 0.20765(8) 0.20806(13)
H1B H -0.1910 0.1695 0.1830
C2B C -0.32662(9) 0.19808(8) 0.14731(14)
H2B H -0.3444 0.1527 0.0808
C3B C -0.39177(8) 0.25384(8) 0.18252(13)
H3B H -0.4536 0.2460 0.1404
C4B C -0.36731(8) 0.32117(8) 0.27904(13)
H4B H -0.4119 0.3597 0.3024
C5B C -0.26766(8) 0.46919(7) 0.49904(13)
H5B H -0.3307 0.4817 0.4787
C6B C -0.20798(9) 0.52205(8) 0.59030(13)
H6B H -0.2308 0.5710 0.6328
C7B C -0.11567(9) 0.50434(8) 0.62009(13)
H7B H -0.0765 0.5407 0.6839
C8B C -0.08001(8) 0.43373(8) 0.55724(13)
H8B H -0.0169 0.4216 0.5768
C9B C -0.12011(8) 0.30500(7) 0.38181(12)
C10B C -0.21056(7) 0.27404(7) 0.30583(12)
C11B C -0.27712(8) 0.33107(7) 0.34035(12)
C12B C -0.23265(8) 0.39806(7) 0.43891(12)
C13B C -0.13922(8) 0.38192(7) 0.46564(12)
C14B C -0.02223(7) 0.20269(7) 0.30983(12)
C15B C -0.04119(8) 0.12408(8) 0.36983(13)
H9B H -0.0690 0.1238 0.4531
C16B C -0.02050(8) 0.04643(8) 0.31085(13)
H10B H -0.0342 -0.0064 0.3532
loop_
_geom_bond_atom_site_label_1
_geom_bond_atom_site_label_2
_geom_bond_site_symmetry_1
_geom_bond_site_symmetry_2
N1 C9 1_555 1_555
C1 H1 1_555 1_555
C2 C1 1_555 1_555
H2 C2 1_555 1_555
C3 C2 1_555 1_555
H3 C3 1_555 1_555
C4 C3 1_555 1_555
H4 C4 1_555 1_555
C5 H5 1_555 1_555
C6 C5 1_555 1_555
H6 C6 1_555 1_555
C7 C6 1_555 1_555
H7 C7 1_555 1_555
C8 C7 1_555 1_555
H8 C8 1_555 1_555
C9 C10 1_555 1_555
C10 C1 1_555 1_555
C11 C4 1_555 1_555
C12 C5 1_555 1_555
C13 C8 1_555 1_555
C14 N1 1_555 1_555
C15 C14 1_555 1_555
H9 C15 1_555 1_555
C16 C15 1_555 1_555
H10 C16 1_555 1_555
N1B C9B 1_555 1_555
C1B H1B 1_555 1_555
C2B C1B 1_555 1_555
H2B C2B 1_555 1_555
C3B C2B 1_555 1_555
H3B C3B 1_555 1_555
C4B C3B 1_555 1_555
H4B C4B 1_555 1_555
C5B H5B 1_555 1_555
C6B C5B 1_555 1_555
H6B C6B 1_555 1_555
C7B C6B 1_555 1_555
H7B C7B 1_555 1_555
C8B C7B 1_555 1_555
H8B C8B 1_555 1_555
C9B C10B 1_555 1_555
C10B C1B 1_555 1_555
C11B C4B 1_555 1_555
C12B C5B 1_555 1_555
C13B C8B 1_555 1_555
C14B C14 1_555 1_555
C15B C14B 1_555 1_555
H9B C15B 1_555 1_555
C16B C16 1_555 1_555
H10B C16B 1_555 1_555
C9 C13 1_555 1_555
C10 C11 1_555 1_555
C11 C12 1_555 1_555
C12 C13 1_555 1_555
N1B C14B 1_555 1_555
C9B C13B 1_555 1_555
C10B C11B 1_555 1_555
C11B C12B 1_555 1_555
C12B C13B 1_555 1_555
C15B C16B 1_555 1_555

#END
