
#######################################################################
#
#                 Cambridge Crystallographic Data Centre
#                                CCDC 
#
#######################################################################
#
# If this CIF has been generated from an entry in the Cambridge 
# Structural Database, then it will include bibliographic, chemical, 
# crystal, experimental, refinement or atomic coordinate data resulting 
# from the CCDC's data processing and validation procedures.
#
#######################################################################

data_RAPLUS
_chemical_formula_moiety         'C18 H20 Br1 F1 N2 O1'
_chemical_name_systematic        
1-(4-bromophenyl)-2-(4-(2-fluorophenyl)piperazin-1-yl)ethanol
_symmetry_cell_setting           monoclinic
_symmetry_space_group_name_H-M   'P 21/c'
_symmetry_Int_Tables_number      14
_space_group_name_Hall           '-P 2ybc'
loop_
_symmetry_equiv_pos_site_id
_symmetry_equiv_pos_as_xyz
1 x,y,z
2 -x,1/2+y,1/2-z
3 -x,-y,-z
4 x,1/2-y,1/2+z
_cell_length_a                   14.1884(10)
_cell_length_b                   5.3673(4)
_cell_length_c                   22.3768(15)
_cell_angle_alpha                90
_cell_angle_beta                 93.293(2)
_cell_angle_gamma                90
_cell_volume                     1701.26
_exptl_crystal_colour            colorless
_exptl_crystal_description       block
_cell_formula_units_Z            4
loop_
_atom_site_label
_atom_site_type_symbol
_atom_site_fract_x
_atom_site_fract_y
_atom_site_fract_z
C1 C 0.1945(3) 0.9821(8) 0.13607(17)
H1 H 0.1888 0.8043 0.1427
H2 H 0.1314 1.0513 0.1308
Br1 Br 0.01866(3) 1.03690(12) 0.41556(2)
F1 F 0.4435(2) 0.5371(4) -0.05738(11)
N1 N 0.3174(2) 0.9063(6) -0.03156(13)
N2 N 0.2458(2) 1.0262(6) 0.08203(14)
C2 C 0.1888(3) 1.0892(7) 0.24425(17)
C3 C 0.0867(3) 1.0597(8) 0.34515(16)
C4 C 0.3637(2) 0.9090(7) -0.08562(15)
C5 C 0.4271(3) 0.7216(7) -0.09816(16)
C6 C 0.3792(3) 0.9191(8) 0.02302(17)
H3 H 0.4051 1.0857 0.0276
H4 H 0.4313 0.8035 0.0201
C7 C 0.4742(3) 0.7111(8) -0.14965(18)
H5 H 0.5180 0.5856 -0.1551
C8 C 0.0679(3) 1.2481(8) 0.30512(19)
H6 H 0.0212 1.3650 0.3117
C9 C 0.3477(3) 1.0849(7) -0.13056(17)
H7 H 0.3054 1.2141 -0.1248
C10 C 0.1550(3) 0.8892(9) 0.3352(2)
H8 H 0.1680 0.7626 0.3628
C11 C 0.2387(3) 1.0792(8) -0.02664(18)
H9 H 0.1969 1.0697 -0.0625
H10 H 0.2624 1.2482 -0.0229
C12 C 0.1196(3) 1.2619(8) 0.25467(18)
H11 H 0.1074 1.3898 0.2273
C13 C 0.2454(3) 1.1001(9) 0.18923(18)
H12 H 0.304(3) 1.006(7) 0.198(2)
C14 C 0.3927(3) 1.0728(8) -0.18343(19)
H13 H 0.3797 1.1924 -0.2128
O1 O 0.2708(3) 1.3456(6) 0.17692(13)
H14 H 0.2757 1.3621 0.1408
C15 C 0.2046(3) 0.9034(8) 0.2848(2)
H15 H 0.2501 0.7835 0.2781
C16 C 0.1848(3) 1.0141(9) 0.02744(18)
H16 H 0.1325 1.1291 0.0304
H17 H 0.1590 0.8474 0.0228
C17 C 0.4561(3) 0.8883(9) -0.19345(18)
H18 H 0.4865 0.8823 -0.2291
C18 C 0.3247(3) 0.8551(8) 0.07650(17)
H19 H 0.3011 0.6860 0.0726
H20 H 0.3663 0.8635 0.1124
loop_
_geom_bond_atom_site_label_1
_geom_bond_atom_site_label_2
_geom_bond_site_symmetry_1
_geom_bond_site_symmetry_2
C1 H1 1_555 1_555
H2 C1 1_555 1_555
Br1 C3 1_555 1_555
F1 C5 1_555 1_555
N1 C4 1_555 1_555
N2 C1 1_555 1_555
C2 C12 1_555 1_555
C3 C8 1_555 1_555
C4 C5 1_555 1_555
C5 C7 1_555 1_555
C6 N1 1_555 1_555
H3 C6 1_555 1_555
H4 C6 1_555 1_555
C7 H5 1_555 1_555
C8 H6 1_555 1_555
C9 C4 1_555 1_555
H7 C9 1_555 1_555
C10 C3 1_555 1_555
H8 C10 1_555 1_555
C11 N1 1_555 1_555
H9 C11 1_555 1_555
H10 C11 1_555 1_555
C12 C8 1_555 1_555
H11 C12 1_555 1_555
C13 C1 1_555 1_555
H12 C13 1_555 1_555
C14 C9 1_555 1_555
H13 C14 1_555 1_555
O1 C13 1_555 1_555
H14 O1 1_555 1_555
C15 C2 1_555 1_555
H15 C15 1_555 1_555
C16 N2 1_555 1_555
H16 C16 1_555 1_555
H17 C16 1_555 1_555
C17 C7 1_555 1_555
H18 C17 1_555 1_555
C18 N2 1_555 1_555
H19 C18 1_555 1_555
H20 C18 1_555 1_555
C2 C13 1_555 1_555
C6 C18 1_555 1_555
C10 C15 1_555 1_555
C11 C16 1_555 1_555
C14 C17 1_555 1_555

#END
