
#######################################################################
#
#                 Cambridge Crystallographic Data Centre
#                                CCDC 
#
#######################################################################
#
# If this CIF has been generated from an entry in the Cambridge 
# Structural Database, then it will include bibliographic, chemical, 
# crystal, experimental, refinement or atomic coordinate data resulting 
# from the CCDC's data processing and validation procedures.
#
#######################################################################

data_RAPPIK
_chemical_formula_moiety         'C14 H16 N2'
_chemical_name_systematic        1,2,3-trimethyl-2,3-dihydro-1H-perimidine
_symmetry_cell_setting           monoclinic
_symmetry_space_group_name_H-M   'C 2/c'
_symmetry_Int_Tables_number      15
_space_group_name_Hall           '-C 2yn'
loop_
_symmetry_equiv_pos_site_id
_symmetry_equiv_pos_as_xyz
1 x,y,z
2 -x,y,1/2-z
3 1/2+x,1/2+y,z
4 1/2-x,1/2+y,1/2-z
5 -x,-y,-z
6 x,-y,1/2+z
7 1/2-x,1/2-y,-z
8 1/2+x,1/2-y,1/2+z
_cell_length_a                   32.300(3)
_cell_length_b                   7.2653(6)
_cell_length_c                   10.4316(10)
_cell_angle_alpha                90
_cell_angle_beta                 102.133(5)
_cell_angle_gamma                90
_cell_volume                     2393.29
_exptl_crystal_description       block
_cell_formula_units_Z            8
_exptl_crystal_recrystallization_method ethanol
loop_
_atom_site_label
_atom_site_type_symbol
_atom_site_fract_x
_atom_site_fract_y
_atom_site_fract_z
N1 N 0.09162(4) 0.09647(16) 0.68751(12)
N2 N 0.16555(4) 0.10822(17) 0.70616(12)
C1 C 0.12033(4) 0.28185(17) 0.53648(12)
C2 C 0.07324(6) 0.4657(2) 0.37256(16)
H1 H 0.0689 0.5475 0.3024
C3 C 0.11503(5) 0.40982(19) 0.43173(14)
C4 C 0.08428(4) 0.21484(18) 0.58082(13)
C5 C 0.12998(5) -0.0142(2) 0.70547(15)
H2 H 0.1341 -0.0710 0.7925
C6 C 0.12678(6) -0.1691(2) 0.60560(18)
H3 H 0.1523 -0.2409 0.6240
H4 H 0.1230 -0.1178 0.5191
H5 H 0.1030 -0.2462 0.6107
C7 C 0.16197(4) 0.22733(18) 0.60095(14)
C8 C 0.20685(6) 0.0385(3) 0.7683(2)
H6 H 0.2253 0.1397 0.7999
H7 H 0.2184 -0.0309 0.7058
H8 H 0.2042 -0.0395 0.8405
C9 C 0.05608(6) 0.0140(3) 0.73012(19)
H9 H 0.0402 -0.0600 0.6606
H10 H 0.0382 0.1091 0.7525
H11 H 0.0662 -0.0619 0.8055
C10 C 0.04454(5) 0.2754(2) 0.52104(16)
H12 H 0.0209 0.2328 0.5497
C11 C 0.03967(6) 0.4008(2) 0.41734(17)
H13 H 0.0126 0.4408 0.3781
C12 C 0.19636(5) 0.3015(2) 0.55970(18)
H14 H 0.2236 0.2670 0.6009
C13 C 0.19039(7) 0.4281(3) 0.4563(2)
H15 H 0.2139 0.4773 0.4303
C14 C 0.15122(7) 0.4804(2) 0.39331(18)
H16 H 0.1481 0.5635 0.3241
loop_
_geom_bond_atom_site_label_1
_geom_bond_atom_site_label_2
_geom_bond_site_symmetry_1
_geom_bond_site_symmetry_2
N1 C4 1_555 1_555
N2 C5 1_555 1_555
C1 C3 1_555 1_555
C2 H1 1_555 1_555
C3 C2 1_555 1_555
C4 C1 1_555 1_555
C5 N1 1_555 1_555
H2 C5 1_555 1_555
C6 C5 1_555 1_555
H3 C6 1_555 1_555
H4 C6 1_555 1_555
H5 C6 1_555 1_555
C7 N2 1_555 1_555
C8 N2 1_555 1_555
H6 C8 1_555 1_555
H7 C8 1_555 1_555
H8 C8 1_555 1_555
C9 N1 1_555 1_555
H9 C9 1_555 1_555
H10 C9 1_555 1_555
H11 C9 1_555 1_555
C10 C4 1_555 1_555
H12 C10 1_555 1_555
C11 C2 1_555 1_555
H13 C11 1_555 1_555
C12 C7 1_555 1_555
H14 C12 1_555 1_555
C13 C12 1_555 1_555
H15 C13 1_555 1_555
C14 C3 1_555 1_555
H16 C14 1_555 1_555
C1 C7 1_555 1_555
C10 C11 1_555 1_555
C13 C14 1_555 1_555

#END
