
#######################################################################
#
#                 Cambridge Crystallographic Data Centre
#                                CCDC 
#
#######################################################################
#
# If this CIF has been generated from an entry in the Cambridge 
# Structural Database, then it will include bibliographic, chemical, 
# crystal, experimental, refinement or atomic coordinate data resulting 
# from the CCDC's data processing and validation procedures.
#
#######################################################################

data_RAPQOP
_chemical_compound_source        'stalks of Celastrus hypoleucus (Oliv.) Warb'
_chemical_formula_moiety         'C30 H48 O2'
_chemical_name_systematic        6\a-Hydroxy-12-oleanen-3-one
_symmetry_cell_setting           orthorhombic
_symmetry_space_group_name_H-M   'P 21 21 21'
_symmetry_Int_Tables_number      19
_space_group_name_Hall           'P 2ac 2ab'
loop_
_symmetry_equiv_pos_site_id
_symmetry_equiv_pos_as_xyz
1 x,y,z
2 1/2-x,-y,1/2+z
3 -x,1/2+y,1/2-z
4 1/2+x,1/2-y,-z
_cell_length_a                   11.5254(14)
_cell_length_b                   14.5357(18)
_cell_length_c                   15.769(2)
_cell_angle_alpha                90
_cell_angle_beta                 90
_cell_angle_gamma                90
_cell_volume                     2641.78
_exptl_crystal_colour            colorless
_exptl_crystal_description       prism
_chemical_melting_point          '492-494 K'
_cell_formula_units_Z            4
_exptl_crystal_recrystallization_method methanol
loop_
_atom_site_label
_atom_site_type_symbol
_atom_site_fract_x
_atom_site_fract_y
_atom_site_fract_z
O1 O 0.50968(19) 0.79481(12) 0.82828(11)
O2 O 0.39668(17) 0.47970(10) 0.68236(11)
H1 H 0.4191 0.4264 0.6779
C1 C 0.4647(3) 0.80461(15) 0.61170(16)
H2 H 0.5264 0.8487 0.6019
H3 H 0.4059 0.8145 0.5686
C2 C 0.4114(2) 0.82328(16) 0.69866(15)
H4 H 0.4239 0.8873 0.7136
H5 H 0.3283 0.8129 0.6958
C3 C 0.4621(2) 0.76347(16) 0.76592(15)
C4 C 0.4458(2) 0.66042(15) 0.75275(14)
C5 C 0.44156(18) 0.63853(13) 0.65508(13)
H6 H 0.3608 0.6484 0.6378
C6 C 0.4693(2) 0.53857(13) 0.63255(14)
H7 H 0.5509 0.5258 0.6455
C7 C 0.4468(2) 0.52001(14) 0.53911(13)
H8 H 0.3648 0.5290 0.5281
H9 H 0.4645 0.4560 0.5276
C8 C 0.51612(18) 0.58009(13) 0.47699(14)
C9 C 0.50315(19) 0.68179(12) 0.50502(13)
H10 H 0.4233 0.6985 0.4902
C10 C 0.51490(19) 0.70573(13) 0.60108(14)
C11 C 0.5800(2) 0.74311(16) 0.44856(14)
H11 H 0.5560 0.8067 0.4551
H12 H 0.6598 0.7383 0.4675
C12 C 0.5736(2) 0.71757(15) 0.35750(15)
H13 H 0.6067 0.7584 0.3191
C13 C 0.52523(19) 0.64214(14) 0.32547(14)
C14 C 0.46525(18) 0.57162(13) 0.38316(14)
C15 C 0.4805(2) 0.47344(15) 0.34758(16)
H14 H 0.5573 0.4514 0.3624
H15 H 0.4245 0.4332 0.3747
C16 C 0.4653(2) 0.46659(17) 0.25188(17)
H16 H 0.3859 0.4823 0.2375
H17 H 0.4786 0.4034 0.2345
C17 C 0.5479(2) 0.52986(17) 0.20217(17)
C18 C 0.5246(2) 0.62995(16) 0.22936(14)
H18 H 0.5902 0.6661 0.2080
C19 C 0.4155(2) 0.67143(19) 0.18847(15)
H19 H 0.3480 0.6409 0.2120
H20 H 0.4109 0.7359 0.2041
C20 C 0.4101(3) 0.6642(2) 0.09175(16)
C21 C 0.4224(3) 0.5622(2) 0.06992(18)
H21 H 0.3553 0.5294 0.0915
H22 H 0.4229 0.5554 0.0087
C22 C 0.5313(3) 0.5188(2) 0.10589(18)
H23 H 0.5979 0.5454 0.0774
H24 H 0.5302 0.4536 0.0927
C23 C 0.3264(2) 0.6401(2) 0.79392(17)
H25 H 0.3302 0.6528 0.8536
H26 H 0.3068 0.5766 0.7854
H27 H 0.2683 0.6784 0.7683
C24 C 0.5375(3) 0.60731(17) 0.80285(16)
H28 H 0.6123 0.6170 0.7777
H29 H 0.5192 0.5429 0.8019
H30 H 0.5385 0.6287 0.8604
C25 C 0.6411(2) 0.70775(19) 0.63264(16)
H31 H 0.6683 0.6459 0.6405
H32 H 0.6448 0.7402 0.6856
H33 H 0.6889 0.7384 0.5915
C26 C 0.6443(2) 0.54874(17) 0.47881(17)
H34 H 0.6788 0.5663 0.5318
H35 H 0.6857 0.5773 0.4330
H36 H 0.6480 0.4831 0.4727
C27 C 0.33285(19) 0.59084(19) 0.38107(15)
H37 H 0.3186 0.6535 0.3973
H38 H 0.2941 0.5503 0.4199
H39 H 0.3039 0.5806 0.3248
C28 C 0.6737(2) 0.5043(2) 0.2232(2)
H40 H 0.6879 0.5149 0.2824
H41 H 0.7255 0.5416 0.1901
H42 H 0.6865 0.4406 0.2103
C29 C 0.2934(3) 0.6992(3) 0.0619(2)
H43 H 0.2328 0.6668 0.0911
H44 H 0.2861 0.6893 0.0020
H45 H 0.2873 0.7638 0.0739
C30 C 0.5075(4) 0.7222(2) 0.05027(18)
H46 H 0.5015 0.7180 -0.0103
H47 H 0.5817 0.6993 0.0681
H48 H 0.4997 0.7853 0.0673
loop_
_geom_bond_atom_site_label_1
_geom_bond_atom_site_label_2
_geom_bond_site_symmetry_1
_geom_bond_site_symmetry_2
O1 C3 1_555 1_555
O2 H1 1_555 1_555
C1 H2 1_555 1_555
H3 C1 1_555 1_555
C2 C1 1_555 1_555
H4 C2 1_555 1_555
H5 C2 1_555 1_555
C3 C2 1_555 1_555
C4 C3 1_555 1_555
C5 C4 1_555 1_555
H6 C5 1_555 1_555
C6 O2 1_555 1_555
H7 C6 1_555 1_555
C7 C6 1_555 1_555
H8 C7 1_555 1_555
H9 C7 1_555 1_555
C8 C7 1_555 1_555
C9 C8 1_555 1_555
H10 C9 1_555 1_555
C10 C1 1_555 1_555
C11 C9 1_555 1_555
H11 C11 1_555 1_555
H12 C11 1_555 1_555
C12 C11 1_555 1_555
H13 C12 1_555 1_555
C13 C12 1_555 1_555
C14 C8 1_555 1_555
C15 C14 1_555 1_555
H14 C15 1_555 1_555
H15 C15 1_555 1_555
C16 C15 1_555 1_555
H16 C16 1_555 1_555
H17 C16 1_555 1_555
C17 C16 1_555 1_555
C18 C13 1_555 1_555
H18 C18 1_555 1_555
C19 C18 1_555 1_555
H19 C19 1_555 1_555
H20 C19 1_555 1_555
C20 C19 1_555 1_555
C21 C20 1_555 1_555
H21 C21 1_555 1_555
H22 C21 1_555 1_555
C22 C17 1_555 1_555
H23 C22 1_555 1_555
H24 C22 1_555 1_555
C23 C4 1_555 1_555
H25 C23 1_555 1_555
H26 C23 1_555 1_555
H27 C23 1_555 1_555
C24 C4 1_555 1_555
H28 C24 1_555 1_555
H29 C24 1_555 1_555
H30 C24 1_555 1_555
C25 C10 1_555 1_555
H31 C25 1_555 1_555
H32 C25 1_555 1_555
H33 C25 1_555 1_555
C26 C8 1_555 1_555
H34 C26 1_555 1_555
H35 C26 1_555 1_555
H36 C26 1_555 1_555
C27 C14 1_555 1_555
H37 C27 1_555 1_555
H38 C27 1_555 1_555
H39 C27 1_555 1_555
C28 C17 1_555 1_555
H40 C28 1_555 1_555
H41 C28 1_555 1_555
H42 C28 1_555 1_555
C29 C20 1_555 1_555
H43 C29 1_555 1_555
H44 C29 1_555 1_555
H45 C29 1_555 1_555
C30 C20 1_555 1_555
H46 C30 1_555 1_555
H47 C30 1_555 1_555
H48 C30 1_555 1_555
C5 C6 1_555 1_555
C5 C10 1_555 1_555
C9 C10 1_555 1_555
C13 C14 1_555 1_555
C17 C18 1_555 1_555
C21 C22 1_555 1_555

#END
