
#######################################################################
#
#                 Cambridge Crystallographic Data Centre
#                                CCDC 
#
#######################################################################
#
# If this CIF has been generated from an entry in the Cambridge 
# Structural Database, then it will include bibliographic, chemical, 
# crystal, experimental, refinement or atomic coordinate data resulting 
# from the CCDC's data processing and validation procedures.
#
#######################################################################

data_RAPVEK
_chemical_compound_source        'rhizomes of Paris polyphylla Smith'
_chemical_formula_moiety         'C27 H42 O3,C2 H6 O1 S1'
_chemical_name_systematic        
'(25R)-Spirost-5-en-3-ol dimethyl sulfoxide solvate'
_chemical_properties_biological  'significant biological activities'
_symmetry_cell_setting           orthorhombic
_symmetry_space_group_name_H-M   'P 21 21 21'
_symmetry_Int_Tables_number      19
_space_group_name_Hall           'P 2ac 2ab'
loop_
_symmetry_equiv_pos_site_id
_symmetry_equiv_pos_as_xyz
1 x,y,z
2 1/2-x,-y,1/2+z
3 -x,1/2+y,1/2-z
4 1/2+x,1/2-y,-z
_cell_length_a                   7.4688(15)
_cell_length_b                   9.6157(19)
_cell_length_c                   39.192(8)
_cell_angle_alpha                90
_cell_angle_beta                 90
_cell_angle_gamma                90
_cell_volume                     2814.68
_exptl_crystal_colour            colorless
_exptl_crystal_description       needle
_chemical_melting_point          '480-482 K'
_cell_formula_units_Z            4
_exptl_crystal_recrystallization_method dimethylsulfoxide/ethanol
loop_
_atom_site_label
_atom_site_type_symbol
_atom_site_fract_x
_atom_site_fract_y
_atom_site_fract_z
S1 S 0.8591(3) 0.7839(3) 0.55419(4)
O4 O 0.6777(7) 0.8008(8) 0.53926(11)
C28 C 0.9441(14) 0.6261(9) 0.5391(2)
H43 H 0.8793 0.5505 0.5493
H44 H 1.0685 0.6188 0.5449
H45 H 0.9311 0.6222 0.5147
C29 C 1.0044(12) 0.8895(9) 0.5303(2)
H46 H 0.9794 0.9855 0.5350
H47 H 0.9870 0.8718 0.5064
H48 H 1.1260 0.8690 0.5364
O1 O 0.3893(5) 0.9054(3) 0.90512(8)
O2 O 0.4954(4) 0.7304(3) 0.86924(7)
O3 O 0.3690(6) 0.8042(5) 0.57709(8)
H1 H 0.4703 0.7971 0.5692
C1 C 0.1861(7) 0.8825(5) 0.66328(11)
H2 H 0.0626 0.8873 0.6708
H3 H 0.2398 0.9730 0.6671
C2 C 0.1891(7) 0.8514(6) 0.62483(12)
H4 H 0.1267 0.7648 0.6204
H5 H 0.1275 0.9250 0.6126
C3 C 0.3798(8) 0.8405(6) 0.61211(12)
H6 H 0.4370 0.9319 0.6141
C4 C 0.4858(7) 0.7366(5) 0.63273(12)
H7 H 0.4429 0.6438 0.6274
H8 H 0.6104 0.7416 0.6258
C5 C 0.4753(6) 0.7579(5) 0.67079(11)
C6 C 0.6195(7) 0.7645(5) 0.69025(12)
H9 H 0.7299 0.7611 0.6793
C7 C 0.6209(6) 0.7768(5) 0.72840(11)
H10 H 0.6628 0.8687 0.7347
H11 H 0.7041 0.7093 0.7377
C8 C 0.4362(6) 0.7529(4) 0.74399(10)
H12 H 0.4098 0.6530 0.7437
C9 C 0.2934(6) 0.8300(4) 0.72251(11)
H13 H 0.3327 0.9271 0.7210
C10 C 0.2853(6) 0.7742(4) 0.68510(10)
C11 C 0.1073(6) 0.8323(6) 0.73975(11)
H14 H 0.0294 0.8945 0.7271
H15 H 0.0557 0.7398 0.7387
C12 C 0.1140(7) 0.8794(5) 0.77726(11)
H16 H 0.1512 0.9760 0.7783
H17 H -0.0049 0.8728 0.7871
C13 C 0.2438(6) 0.7905(4) 0.79812(11)
C14 C 0.4279(6) 0.8056(4) 0.78097(10)
H18 H 0.4516 0.9057 0.7798
C15 C 0.5581(6) 0.7478(6) 0.80756(11)
H19 H 0.5507 0.6473 0.8091
H20 H 0.6806 0.7748 0.8027
C16 C 0.4879(6) 0.8181(5) 0.83978(11)
H21 H 0.5535 0.9046 0.8440
C17 C 0.2881(6) 0.8492(5) 0.83411(11)
H22 H 0.2715 0.9503 0.8337
C18 C 0.1821(7) 0.6412(5) 0.79990(13)
H23 H 0.2666 0.5877 0.8129
H24 H 0.1735 0.6039 0.7772
H25 H 0.0669 0.6371 0.8107
C19 C 0.1901(8) 0.6343(5) 0.68314(13)
H26 H 0.2534 0.5675 0.6968
H27 H 0.1869 0.6034 0.6599
H28 H 0.0701 0.6440 0.6916
C20 C 0.1971(6) 0.7915(6) 0.86596(12)
H29 H 0.1518 0.6988 0.8602
C21 C 0.0382(9) 0.8766(8) 0.87911(14)
H30 H -0.0514 0.8828 0.8616
H31 H 0.0780 0.9683 0.8851
H32 H -0.0116 0.8320 0.8989
C22 C 0.3522(7) 0.7718(5) 0.89088(11)
C23 C 0.3314(8) 0.6658(6) 0.91818(13)
H33 H 0.3158 0.5749 0.9079
H34 H 0.2248 0.6864 0.9314
C24 C 0.4942(9) 0.6625(6) 0.94198(14)
H35 H 0.5975 0.6273 0.9297
H36 H 0.4706 0.6005 0.9610
C25 C 0.5341(8) 0.8093(6) 0.95543(12)
H37 H 0.4349 0.8386 0.9701
C26 C 0.5465(9) 0.9083(6) 0.92569(13)
H38 H 0.5648 1.0019 0.9342
H39 H 0.6492 0.8837 0.9118
C27 C 0.7049(10) 0.8098(9) 0.97619(17)
H40 H 0.7257 0.9015 0.9850
H41 H 0.8035 0.7829 0.9619
H42 H 0.6938 0.7453 0.9948
loop_
_geom_bond_atom_site_label_1
_geom_bond_atom_site_label_2
_geom_bond_site_symmetry_1
_geom_bond_site_symmetry_2
S1 O4 1_555 1_555
O1 C22 1_555 1_555
O2 C16 1_555 1_555
O3 H1 1_555 1_555
C1 H2 1_555 1_555
H3 C1 1_555 1_555
C2 C1 1_555 1_555
H4 C2 1_555 1_555
H5 C2 1_555 1_555
C3 O3 1_555 1_555
H6 C3 1_555 1_555
C4 C3 1_555 1_555
H7 C4 1_555 1_555
H8 C4 1_555 1_555
C5 C4 1_555 1_555
C6 C5 1_555 1_555
H9 C6 1_555 1_555
C7 C6 1_555 1_555
H10 C7 1_555 1_555
H11 C7 1_555 1_555
C8 C7 1_555 1_555
H12 C8 1_555 1_555
C9 C8 1_555 1_555
H13 C9 1_555 1_555
C10 C1 1_555 1_555
C11 C9 1_555 1_555
H14 C11 1_555 1_555
H15 C11 1_555 1_555
C12 C11 1_555 1_555
H16 C12 1_555 1_555
H17 C12 1_555 1_555
C13 C12 1_555 1_555
C14 C8 1_555 1_555
H18 C14 1_555 1_555
C15 C14 1_555 1_555
H19 C15 1_555 1_555
H20 C15 1_555 1_555
C16 C15 1_555 1_555
H21 C16 1_555 1_555
C17 C13 1_555 1_555
H22 C17 1_555 1_555
C18 C13 1_555 1_555
H23 C18 1_555 1_555
H24 C18 1_555 1_555
H25 C18 1_555 1_555
C19 C10 1_555 1_555
H26 C19 1_555 1_555
H27 C19 1_555 1_555
H28 C19 1_555 1_555
C20 C17 1_555 1_555
H29 C20 1_555 1_555
C21 C20 1_555 1_555
H30 C21 1_555 1_555
H31 C21 1_555 1_555
H32 C21 1_555 1_555
C22 O2 1_555 1_555
C23 C22 1_555 1_555
H33 C23 1_555 1_555
H34 C23 1_555 1_555
C24 C23 1_555 1_555
H35 C24 1_555 1_555
H36 C24 1_555 1_555
C25 C24 1_555 1_555
H37 C25 1_555 1_555
C26 O1 1_555 1_555
H38 C26 1_555 1_555
H39 C26 1_555 1_555
C27 C25 1_555 1_555
H40 C27 1_555 1_555
H41 C27 1_555 1_555
H42 C27 1_555 1_555
C28 S1 1_555 1_555
H43 C28 1_555 1_555
H44 C28 1_555 1_555
H45 C28 1_555 1_555
C29 S1 1_555 1_555
H46 C29 1_555 1_555
H47 C29 1_555 1_555
H48 C29 1_555 1_555
C2 C3 1_555 1_555
C5 C10 1_555 1_555
C9 C10 1_555 1_555
C13 C14 1_555 1_555
C16 C17 1_555 1_555
C20 C22 1_555 1_555
C25 C26 1_555 1_555

#END
