
#######################################################################
#
#                 Cambridge Crystallographic Data Centre
#                                CCDC 
#
#######################################################################
#
# If this CIF has been generated from an entry in the Cambridge 
# Structural Database, then it will include bibliographic, chemical, 
# crystal, experimental, refinement or atomic coordinate data resulting 
# from the CCDC's data processing and validation procedures.
#
#######################################################################

data_RAPZEN
_chemical_formula_moiety         'C14 H8 S12 1+,F6 P1 1-'
_chemical_name_systematic        
'cis,trans-2,4,6,8-Tetrathia-1,5(2,7)-ditetrathiafulvalenacyclooctaphane hexafluorophosphate'
_symmetry_cell_setting           monoclinic
_symmetry_space_group_name_H-M   'P 21/n'
_symmetry_Int_Tables_number      14
_space_group_name_Hall           '-P 2yn'
loop_
_symmetry_equiv_pos_site_id
_symmetry_equiv_pos_as_xyz
1 x,y,z
2 1/2-x,1/2+y,1/2-z
3 -x,-y,-z
4 1/2+x,1/2-y,1/2+z
_cell_length_a                   9.027(8)
_cell_length_b                   15.513(3)
_cell_length_c                   10.427(2)
_cell_angle_alpha                90
_cell_angle_beta                 109.94(3)
_cell_angle_gamma                90
_cell_volume                     1372.62
_exptl_crystal_colour            black
_cell_formula_units_Z            2
loop_
_atom_site_label
_atom_site_type_symbol
_atom_site_fract_x
_atom_site_fract_y
_atom_site_fract_z
S1 S 0.4868(9) 0.6757(6) 0.8889(8)
S2 S 0.7035(8) 0.5271(6) 1.0157(7)
S3 S 0.7398(9) 0.4789(5) 0.7609(7)
S4 S 0.9501(9) 0.3793(5) 1.1711(7)
S5 S 0.9905(9) 0.3320(5) 0.9161(6)
S6 S 0.7648(9) 0.8041(5) 0.9547(7)
C1 C 0.627(4) 0.742(2) 1.011(3)
C2 C 0.602(3) 0.592(2) 0.873(3)
C3 C 0.624(4) 0.564(2) 0.757(2)
C4 C 0.794(3) 0.460(2) 0.934(2)
C5 C 0.897(3) 0.399(2) 0.997(2)
C6 C 1.078(3) 0.298(2) 1.179(3)
C7 C 0.893(3) 0.723(2) 0.937(3)
H1 H 0.5684 0.7828 1.0470
H2 H 0.6864 0.7064 1.0866
H3 H 0.5717 0.5941 0.6708
H4 H 1.1308 0.2665 1.2635
S5B S 1.0095(9) 0.6680(5) 1.0839(6)
C5B C 1.103(3) 0.601(2) 1.003(2)
S4B S 1.0499(9) 0.6207(5) 0.8289(7)
C6B C 0.922(3) 0.702(2) 0.821(3)
H4B H 0.8692 0.7335 0.7365
C4B C 1.206(3) 0.540(2) 1.066(2)
S2B S 1.2965(8) 0.4729(6) 0.9843(7)
C2B C 1.398(3) 0.408(2) 1.127(3)
S1B S 1.5132(9) 0.3243(6) 1.1111(8)
C1B C 1.373(4) 0.258(2) 0.989(3)
S6B S 1.2352(9) 0.1959(5) 1.0453(7)
C7B C 1.107(3) 0.277(2) 1.063(3)
H1B H 1.4316 0.2172 0.9530
H2B H 1.3136 0.2936 0.9134
C3B C 1.376(4) 0.436(2) 1.243(2)
S3B S 1.2602(9) 0.5211(5) 1.2391(7)
H3B H 1.4283 0.4059 1.3292
P1 P 0.7401(10) 0.5979(6) 1.3987(7)
F1 F 0.742(3) 0.691(1) 1.460(2)
F2 F 0.740(3) 0.505(1) 1.340(2)
F3 F 0.604(2) 0.625(2) 1.265(2)
F4 F 0.876(2) 0.574(2) 1.533(2)
F5 F 0.863(2) 0.629(2) 1.332(2)
F6 F 0.613(2) 0.570(2) 1.465(2)
loop_
_geom_bond_atom_site_label_1
_geom_bond_atom_site_label_2
_geom_bond_site_symmetry_1
_geom_bond_site_symmetry_2
S1 C1 1_555 1_555
S2 C2 1_555 1_555
S3 C3 1_555 1_555
S4 C5 1_555 1_555
S5 C5 1_555 1_555
S6 C1 1_555 1_555
P1 F1 1_555 1_555
F2 P1 1_555 1_555
F3 P1 1_555 1_555
F4 P1 1_555 1_555
F5 P1 1_555 1_555
F6 P1 1_555 1_555
C1 H1 1_555 1_555
C2 S1 1_555 1_555
C3 C2 1_555 1_555
C4 S2 1_555 1_555
C5 C4 1_555 1_555
C6 S4 1_555 1_555
C7 S6 1_555 1_555
H2 C1 1_555 1_555
H3 C3 1_555 1_555
H4 C6 1_555 1_555
S5B C7 1_555 1_555
C5B S5B 1_555 1_555
S4B C5B 1_555 1_555
C6B C7 1_555 1_555
H4B C6B 1_555 1_555
C4B C5B 1_555 1_555
S2B C4B 1_555 1_555
C2B S2B 1_555 1_555
S1B C2B 1_555 1_555
C1B S1B 1_555 1_555
S6B C1B 1_555 1_555
C7B S5 1_555 1_555
H1B C1B 1_555 1_555
H2B C1B 1_555 1_555
C3B C2B 1_555 1_555
S3B C4B 1_555 1_555
H3B C3B 1_555 1_555
S3 C4 1_555 1_555
C6 C7B 1_555 1_555
S4B C6B 1_555 1_555
S6B C7B 1_555 1_555
C3B S3B 1_555 1_555

#END
