
#######################################################################
#
#                 Cambridge Crystallographic Data Centre
#                                CCDC 
#
#######################################################################
#
# If this CIF has been generated from an entry in the Cambridge 
# Structural Database, then it will include bibliographic, chemical, 
# crystal, experimental, refinement or atomic coordinate data resulting 
# from the CCDC's data processing and validation procedures.
#
#######################################################################

data_RAPZAJ
_chemical_formula_moiety         'C20 H20 S12,C1 H1 Cl3'
_chemical_name_systematic        
'trans,trans-2,7,9,14-Tetrathia-1,8(2,6)-ditetrathiafulvalenacyclotetradecaphane chloroform solvate'
_symmetry_cell_setting           monoclinic
_symmetry_space_group_name_H-M   'P 21/n'
_symmetry_Int_Tables_number      14
_space_group_name_Hall           '-P 2yn'
loop_
_symmetry_equiv_pos_site_id
_symmetry_equiv_pos_as_xyz
1 x,y,z
2 1/2-x,1/2+y,1/2-z
3 -x,-y,-z
4 1/2+x,1/2-y,1/2+z
_cell_length_a                   10.995(2)
_cell_length_b                   11.147(3)
_cell_length_c                   26.230(2)
_cell_angle_alpha                90
_cell_angle_beta                 94.40(1)
_cell_angle_gamma                90
_cell_volume                     3205.31
_exptl_crystal_colour            orange
_cell_formula_units_Z            4
loop_
_atom_site_label
_atom_site_type_symbol
_atom_site_fract_x
_atom_site_fract_y
_atom_site_fract_z
Cl1 Cl 0.8916(5) 0.2952(6) 0.4533(2)
Cl2 Cl 0.8706(6) 0.4592(6) 0.3699(2)
Cl3 Cl 0.8992(5) 0.2113(5) 0.3514(2)
C1 C 0.873(3) 0.319(2) 0.3926(8)
S1 S 0.6133(4) 0.1884(4) 0.5832(2)
S2 S 0.5520(4) 0.3346(4) 0.4880(2)
S3 S 0.5665(4) 0.1256(4) 0.4198(2)
S4 S 0.5143(4) 0.5096(4) 0.3869(2)
S5 S 0.5302(4) 0.2965(4) 0.3210(2)
S6 S 0.5495(4) 0.4415(5) 0.2262(2)
S7 S 1.1727 0.3888(4) 0.2148(2)
S8 S 1.2126(4) 0.4047(4) 0.3290(2)
S9 S 1.2302(4) 0.1432(3) 0.3413(2)
S10 S 1.2322(4) 0.4323(4) 0.4539(2)
S11 S 1.2375(4) 0.1700(4) 0.4633(2)
S12 S 1.2393(4) 0.1741(4) 0.5774(2)
C2 C 0.596(1) 0.193(1) 0.5145(6)
C3 C 0.601(1) 0.097(1) 0.4848(6)
C4 C 0.550(1) 0.281(1) 0.4249(6)
C5 C 0.534(1) 0.353(1) 0.3838(6)
C6 C 0.536(1) 0.538(1) 0.3203(6)
C7 C 0.546(1) 0.439(2) 0.2921(6)
C8 C 0.699(1) 0.361(2) 0.2184(6)
C9 C 0.804(2) 0.459(1) 0.2219(6)
C10 C 0.922(1) 0.379(1) 0.2166(6)
C11 C 1.026(1) 0.470(1) 0.2179(6)
C12 C 1.189(1) 0.316(1) 0.2735(5)
C13 C 1.1499(1) 0.195(1) 0.2792(5)
C14 C 1.222(1) 0.283(1) 0.3703(6)
C15 C 1.230(1) 0.293(1) 0.4226(6)
C16 C 1.229(1) 0.375(2) 0.5163(6)
C17 C 1.232(1) 0.254(2) 0.5201(6)
C18 C 1.082(1) 0.108(1) 0.5752(6)
C19 C 0.992(1) 0.210(1) 0.5886(6)
C20 C 0.865(1) 0.149(1) 0.5827(6)
C21 C 0.773(1) 0.251(1) 0.5947(6)
loop_
_geom_bond_atom_site_label_1
_geom_bond_atom_site_label_2
_geom_bond_site_symmetry_1
_geom_bond_site_symmetry_2
Cl1 C1 1_555 1_555
Cl2 C1 1_555 1_555
Cl3 C1 1_555 1_555
S1 C2 1_555 1_555
S2 C2 1_555 1_555
S3 C3 1_555 1_555
S4 C5 1_555 1_555
S5 C5 1_555 1_555
S6 C7 1_555 1_555
S7 C11 1_555 1_555
S8 C12 1_555 1_555
S9 C13 1_555 1_555
S10 C15 1_555 1_555
S11 C15 1_555 1_555
S12 C17 1_555 1_555
C2 C3 1_555 1_555
C4 S2 1_555 1_555
C5 C4 1_555 1_555
C6 S4 1_555 1_555
C7 S5 1_555 1_555
C8 S6 1_555 1_555
C9 C8 1_555 1_555
C10 C9 1_555 1_555
C11 C10 1_555 1_555
C12 S7 1_555 1_555
C13 C12 1_555 1_555
C14 S8 1_555 1_555
C15 C14 1_555 1_555
C16 S10 1_555 1_555
C17 S11 1_555 1_555
C18 S12 1_555 1_555
C19 C18 1_555 1_555
C20 C19 1_555 1_555
C21 S1 1_555 1_555
S3 C4 1_555 1_555
S9 C14 1_555 1_555
C6 C7 1_555 1_555
C16 C17 1_555 1_555
C20 C21 1_555 1_555

#END
