
#######################################################################
#
#                 Cambridge Crystallographic Data Centre
#                                CCDC 
#
#######################################################################
#
# If this CIF has been generated from an entry in the Cambridge 
# Structural Database, then it will include bibliographic, chemical, 
# crystal, experimental, refinement or atomic coordinate data resulting 
# from the CCDC's data processing and validation procedures.
#
#######################################################################

data_RAPZOA
_chemical_formula_moiety         'C36 H40 N2 O6'
_chemical_name_systematic        
"4,4'-((2,5-bis(2-(diethylammonio)ethoxy)-1,4-phenylene)diethyne-2,1-diyl)dibenzoate unknown solvate"
_symmetry_cell_setting           tetragonal
_symmetry_space_group_name_H-M   'P 4/n'
_symmetry_Int_Tables_number      85
_space_group_name_Hall           '-P 4a'
loop_
_symmetry_equiv_pos_site_id
_symmetry_equiv_pos_as_xyz
1 x,y,z
2 1/2-x,1/2-y,z
3 1/2-y,x,z
4 y,1/2-x,z
5 -x,-y,-z
6 1/2+x,1/2+y,-z
7 1/2+y,-x,-z
8 -y,1/2+x,-z
_cell_length_a                   31.2361(8)
_cell_length_b                   31.2361(8)
_cell_length_c                   8.0800(3)
_cell_angle_alpha                90
_cell_angle_beta                 90
_cell_angle_gamma                90
_cell_volume                     7883.61
_exptl_crystal_colour            'pale yellow'
_exptl_crystal_description       block
_cell_formula_units_Z            8
loop_
_atom_site_label
_atom_site_type_symbol
_atom_site_fract_x
_atom_site_fract_y
_atom_site_fract_z
C1 C 0.7071(2) 0.4534(3) 0.8911(11)
C2 C 0.75231(17) 0.46191(19) 0.8227(8)
C3 C 0.7643(2) 0.4440(2) 0.6782(9)
H1 H 0.7448 0.4276 0.6187
C4 C 0.8061(2) 0.4498(2) 0.6161(9)
H2 H 0.8143 0.4372 0.5167
C5 C 0.83474(15) 0.47444(17) 0.7040(7)
C6 C 0.82138(16) 0.49128(18) 0.8479(7)
H3 H 0.8401 0.5080 0.9098
C7 C 0.78015(17) 0.4843(2) 0.9064(8)
H4 H 0.7722 0.4959 1.0078
C8 C 0.87850(15) 0.48132(16) 0.6416(6)
C9 C 0.91430(15) 0.48721(14) 0.5980(6)
C10 C 0.95749(14) 0.49370(14) 0.5466(5)
C11 C 0.98056(14) 0.46151(15) 0.4721(6)
H5 H 0.9676 0.4351 0.4538
C12 C 0.97712(13) 0.53239(14) 0.5766(5)
C13 C 0.97183(16) 0.60313(17) 0.6892(7)
H6 H 0.9758 0.6190 0.5871
H7 H 0.9996 0.5990 0.7401
C14 C 0.94324(17) 0.62797(16) 0.8041(6)
H8 H 0.9315 0.6084 0.8856
H9 H 0.9605 0.6488 0.8628
C15 C 0.87594(18) 0.62234(18) 0.6385(8)
H10 H 0.8573 0.6401 0.5717
H11 H 0.8915 0.6038 0.5634
C16 C 0.8494(3) 0.5957(2) 0.7435(9)
H12 H 0.8672 0.5761 0.8041
H13 H 0.8296 0.5799 0.6763
H14 H 0.8338 0.6135 0.8197
C17 C 0.8854(2) 0.68175(18) 0.8345(8)
H15 H 0.8771 0.6672 0.9356
H16 H 0.8596 0.6921 0.7811
C18 C 0.9132(2) 0.7189(2) 0.8769(12)
H17 H 0.9389 0.7088 0.9292
H18 H 0.8982 0.7376 0.9510
H19 H 0.9205 0.7342 0.7776
N1 N 0.90734(13) 0.65067(12) 0.7227(5)
H20 H 0.9202 0.6676 0.6369
O1 O 0.67960(16) 0.4421(2) 0.7943(8)
O2 O 0.70078(18) 0.4609(3) 1.0334(9)
O3 O 0.95315(10) 0.56331(10) 0.6549(4)
C1D C 1.2929(2) 0.5466(3) 0.1089(11)
C2D C 1.24769(17) 0.53809(19) 0.1773(8)
C3D C 1.2357(2) 0.5560(2) 0.3218(9)
H1D H 1.2552 0.5724 0.3813
C4D C 1.1939(2) 0.5502(2) 0.3839(9)
H2D H 1.1857 0.5628 0.4833
C5D C 1.16526(15) 0.52556(17) 0.2960(7)
C6D C 1.17862(16) 0.50872(18) 0.1521(7)
H3D H 1.1599 0.4920 0.0902
C7D C 1.21985(17) 0.5157(2) 0.0936(8)
H4D H 1.2278 0.5041 -0.0078
C8D C 1.12150(15) 0.51868(16) 0.3584(6)
C9D C 1.08570(15) 0.51279(14) 0.4020(6)
C10D C 1.04251(14) 0.50630(14) 0.4534(5)
C11D C 1.01944(14) 0.53849(15) 0.5279(6)
H5D H 1.0324 0.5649 0.5462
C12D C 1.02288(13) 0.46761(14) 0.4234(5)
C13D C 1.02817(16) 0.39687(17) 0.3108(7)
H6D H 1.0242 0.3810 0.4129
H7D H 1.0004 0.4010 0.2599
C14D C 1.05676(17) 0.37203(16) 0.1959(6)
H8D H 1.0685 0.3916 0.1144
H9D H 1.0395 0.3512 0.1372
C15D C 1.12406(18) 0.37766(18) 0.3615(8)
H10D H 1.1427 0.3599 0.4283
H11D H 1.1085 0.3962 0.4366
C16D C 1.1506(3) 0.4043(2) 0.2565(9)
H12D H 1.1328 0.4239 0.1959
H13D H 1.1704 0.4201 0.3237
H14D H 1.1662 0.3865 0.1803
C17D C 1.1146(2) 0.31825(18) 0.1655(8)
H15D H 1.1229 0.3328 0.0644
H16D H 1.1404 0.3079 0.2189
C18D C 1.0868(2) 0.2811(2) 0.1231(12)
H17D H 1.0611 0.2912 0.0708
H18D H 1.1018 0.2624 0.0490
H19D H 1.0795 0.2658 0.2224
N1D N 1.09266(13) 0.34933(12) 0.2773(5)
H20D H 1.0798 0.3324 0.3631
O1D O 1.32040(16) 0.5579(2) 0.2057(8)
O2D O 1.29922(18) 0.5391(3) -0.0334(9)
O3D O 1.04685(10) 0.43669(10) 0.3451(4)
C19 C 0.4103(3) 0.2218(2) 0.5800(9)
C20 C 0.4228(2) 0.26550(18) 0.6484(7)
C21 C 0.4653(2) 0.27717(19) 0.6473(8)
H21 H 0.4859 0.2580 0.6099
C22 C 0.4773(2) 0.31753(19) 0.7020(8)
H22 H 0.5060 0.3256 0.6980
C23 C 0.4477(2) 0.34545(17) 0.7615(6)
C24 C 0.4050(2) 0.3342(2) 0.7601(7)
H23 H 0.3842 0.3532 0.7967
C25 C 0.3935(2) 0.29343(19) 0.7026(7)
H24 H 0.3648 0.2856 0.7020
C26 C 0.46025(19) 0.38666(17) 0.8215(6)
C27 C 0.47331(15) 0.42012(17) 0.8726(6)
C28 C 0.48746(16) 0.46054(13) 0.9367(5)
C29 C 0.52830(15) 0.46577(15) 1.0050(6)
C30 C 0.45909(15) 0.49566(15) 0.9341(6)
H25 H 0.4317 0.4924 0.8906
C31 C 0.59421(16) 0.43362(16) 1.0844(7)
H26 H 0.5902 0.4448 1.1953
H27 H 0.6126 0.4531 1.0238
C32 C 0.61432(19) 0.38975(19) 1.0919(9)
H28 H 0.6354 0.3896 1.1801
H29 H 0.5923 0.3691 1.1205
C33 C 0.6028(2) 0.3669(3) 0.7997(12)
H30 H 0.5864 0.3415 0.8259
H31 H 0.5831 0.3908 0.7903
C34 C 0.6673(3) 0.3405(3) 0.9703(16)
H32 H 0.6809 0.3333 0.8661
H33 H 0.6893 0.3511 1.0443
C35 C 0.6259(4) 0.3605(6) 0.6351(17)
H34 H 0.6575 0.3644 0.6471
H35 H 0.6169 0.3824 0.5567
H36 H 0.6215 0.3330 0.5872
C36 C 0.6498(4) 0.3034(3) 1.038(2)
H37 H 0.6201 0.3014 1.0080
H38 H 0.6523 0.3044 1.1563
H39 H 0.6649 0.2789 0.9963
N2 N 0.63499(14) 0.37581(17) 0.9400(8)
H40 H 0.6516 0.3999 0.9036
O4 O 0.3719(2) 0.21320(16) 0.5739(9)
O5 O 0.43977(17) 0.19701(13) 0.5303(6)
O6 O 0.55388(11) 0.42971(10) 1.0030(4)
C19D C 0.5897(3) 0.7782(2) 1.4200(9)
C20D C 0.5772(2) 0.73450(18) 1.3516(7)
C21D C 0.5347(2) 0.72283(19) 1.3527(8)
H21D H 0.5141 0.7420 1.3901
C22D C 0.5227(2) 0.68247(19) 1.2980(8)
H22D H 0.4940 0.6744 1.3020
C23D C 0.5523(2) 0.65455(17) 1.2385(6)
C24D C 0.5950(2) 0.6658(2) 1.2399(7)
H23D H 0.6158 0.6468 1.2033
C25D C 0.6065(2) 0.70657(19) 1.2974(7)
H24D H 0.6352 0.7144 1.2980
C26D C 0.53975(19) 0.61334(17) 1.1785(6)
C27D C 0.52669(15) 0.57988(17) 1.1274(6)
C28D C 0.51254(16) 0.53946(13) 1.0633(5)
C29D C 0.47170(15) 0.53423(15) 0.9950(6)
C30D C 0.54091(15) 0.50434(15) 1.0659(6)
H25D H 0.5683 0.5076 1.1094
C31D C 0.40579(16) 0.56638(16) 0.9156(7)
H26D H 0.4098 0.5552 0.8047
H27D H 0.3874 0.5469 0.9762
C32D C 0.38568(19) 0.61025(19) 0.9081(9)
H28D H 0.3646 0.6104 0.8199
H29D H 0.4077 0.6309 0.8795
C33D C 0.3972(2) 0.6331(3) 1.2003(12)
H30D H 0.4136 0.6585 1.1741
H31D H 0.4169 0.6092 1.2097
C34D C 0.3327(3) 0.6595(3) 1.0297(16)
H32D H 0.3191 0.6667 1.1339
H33D H 0.3107 0.6489 0.9557
C35D C 0.3741(4) 0.6395(6) 1.3649(17)
H34D H 0.3425 0.6356 1.3529
H35D H 0.3831 0.6176 1.4433
H36D H 0.3785 0.6670 1.4128
C36D C 0.3502(4) 0.6966(3) 0.962(2)
H37D H 0.3799 0.6986 0.9920
H38D H 0.3477 0.6956 0.8437
H39D H 0.3351 0.7211 1.0037
N2D N 0.36501(14) 0.62419(17) 1.0600(8)
H40D H 0.3484 0.6001 1.0964
O4D O 0.6281(2) 0.78680(16) 1.4261(9)
O5D O 0.56023(17) 0.80299(13) 1.4697(6)
O6D O 0.44612(11) 0.57029(10) 0.9970(4)
loop_
_geom_bond_atom_site_label_1
_geom_bond_atom_site_label_2
_geom_bond_site_symmetry_1
_geom_bond_site_symmetry_2
C1 C2 1_555 1_555
C2 C3 1_555 1_555
C3 H1 1_555 1_555
C4 C3 1_555 1_555
H2 C4 1_555 1_555
C5 C4 1_555 1_555
C6 C5 1_555 1_555
H3 C6 1_555 1_555
C7 C2 1_555 1_555
H4 C7 1_555 1_555
C8 C5 1_555 1_555
C9 C8 1_555 1_555
C10 C9 1_555 1_555
C11 C10 1_555 1_555
H5 C11 1_555 1_555
C12 C10 1_555 1_555
C13 H6 1_555 1_555
H7 C13 1_555 1_555
C14 C13 1_555 1_555
H8 C14 1_555 1_555
H9 C14 1_555 1_555
C15 H10 1_555 1_555
H11 C15 1_555 1_555
C16 C15 1_555 1_555
H12 C16 1_555 1_555
H13 C16 1_555 1_555
H14 C16 1_555 1_555
C17 H15 1_555 1_555
H16 C17 1_555 1_555
C18 C17 1_555 1_555
H17 C18 1_555 1_555
H18 C18 1_555 1_555
H19 C18 1_555 1_555
N1 C14 1_555 1_555
H20 N1 1_555 1_555
O1 C1 1_555 1_555
O2 C1 1_555 1_555
O3 C12 1_555 1_555
C19 C20 1_555 1_555
C20 C21 1_555 1_555
C21 H21 1_555 1_555
C22 C21 1_555 1_555
H22 C22 1_555 1_555
C23 C22 1_555 1_555
C24 C23 1_555 1_555
H23 C24 1_555 1_555
C25 C20 1_555 1_555
H24 C25 1_555 1_555
C26 C23 1_555 1_555
C27 C26 1_555 1_555
C28 C27 1_555 1_555
C29 C28 1_555 1_555
C30 C28 1_555 1_555
H25 C30 1_555 1_555
C31 H26 1_555 1_555
H27 C31 1_555 1_555
C32 C31 1_555 1_555
H28 C32 1_555 1_555
H29 C32 1_555 1_555
C33 H30 1_555 1_555
H31 C33 1_555 1_555
C34 H32 1_555 1_555
H33 C34 1_555 1_555
C35 C33 1_555 1_555
H34 C35 1_555 1_555
H35 C35 1_555 1_555
H36 C35 1_555 1_555
C36 C34 1_555 1_555
H37 C36 1_555 1_555
H38 C36 1_555 1_555
H39 C36 1_555 1_555
N2 C32 1_555 1_555
H40 N2 1_555 1_555
O4 C19 1_555 1_555
O5 C19 1_555 1_555
O6 C29 1_555 1_555
C1D C2D 1_555 1_555
C2D C3D 1_555 1_555
C3D H1D 1_555 1_555
C4D C3D 1_555 1_555
H2D C4D 1_555 1_555
C5D C4D 1_555 1_555
C6D C5D 1_555 1_555
H3D C6D 1_555 1_555
C7D C2D 1_555 1_555
H4D C7D 1_555 1_555
C8D C5D 1_555 1_555
C9D C8D 1_555 1_555
C10D C9D 1_555 1_555
C11D C12 1_555 1_555
H5D C11D 1_555 1_555
C12D C11 1_555 1_555
C13D H6D 1_555 1_555
H7D C13D 1_555 1_555
C14D C13D 1_555 1_555
H8D C14D 1_555 1_555
H9D C14D 1_555 1_555
C15D H10D 1_555 1_555
H11D C15D 1_555 1_555
C16D C15D 1_555 1_555
H12D C16D 1_555 1_555
H13D C16D 1_555 1_555
H14D C16D 1_555 1_555
C17D H15D 1_555 1_555
H16D C17D 1_555 1_555
C18D C17D 1_555 1_555
H17D C18D 1_555 1_555
H18D C18D 1_555 1_555
H19D C18D 1_555 1_555
N1D C14D 1_555 1_555
H20D N1D 1_555 1_555
O1D C1D 1_555 1_555
O2D C1D 1_555 1_555
O3D C12D 1_555 1_555
C19D C20D 1_555 1_555
C20D C21D 1_555 1_555
C21D H21D 1_555 1_555
C22D C21D 1_555 1_555
H22D C22D 1_555 1_555
C23D C22D 1_555 1_555
C24D C23D 1_555 1_555
H23D C24D 1_555 1_555
C25D C20D 1_555 1_555
H24D C25D 1_555 1_555
C26D C23D 1_555 1_555
C27D C26D 1_555 1_555
C28D C27D 1_555 1_555
C29D C30 1_555 1_555
C30D C29 1_555 1_555
H25D C30D 1_555 1_555
C31D H26D 1_555 1_555
H27D C31D 1_555 1_555
C32D C31D 1_555 1_555
H28D C32D 1_555 1_555
H29D C32D 1_555 1_555
C33D H30D 1_555 1_555
H31D C33D 1_555 1_555
C34D H32D 1_555 1_555
H33D C34D 1_555 1_555
C35D C33D 1_555 1_555
H34D C35D 1_555 1_555
H35D C35D 1_555 1_555
H36D C35D 1_555 1_555
C36D C34D 1_555 1_555
H37D C36D 1_555 1_555
H38D C36D 1_555 1_555
H39D C36D 1_555 1_555
N2D C32D 1_555 1_555
H40D N2D 1_555 1_555
O4D C19D 1_555 1_555
O5D C19D 1_555 1_555
O6D C29D 1_555 1_555
C6 C7 1_555 1_555
C13 O3 1_555 1_555
C15 N1 1_555 1_555
C17 N1 1_555 1_555
C24 C25 1_555 1_555
C31 O6 1_555 1_555
C33 N2 1_555 1_555
C34 N2 1_555 1_555
C6D C7D 1_555 1_555
C10D C11D 1_555 1_555
C10D C12D 1_555 1_555
C13D O3D 1_555 1_555
C15D N1D 1_555 1_555
C17D N1D 1_555 1_555
C24D C25D 1_555 1_555
C28D C29D 1_555 1_555
C28D C30D 1_555 1_555
C31D O6D 1_555 1_555
C33D N2D 1_555 1_555
C34D N2D 1_555 1_555

#END
