
#######################################################################
#
#                 Cambridge Crystallographic Data Centre
#                                CCDC 
#
#######################################################################
#
# If this CIF has been generated from an entry in the Cambridge 
# Structural Database, then it will include bibliographic, chemical, 
# crystal, experimental, refinement or atomic coordinate data resulting 
# from the CCDC's data processing and validation procedures.
#
#######################################################################

data_RAQBOD
_chemical_formula_moiety         'C16 H16 F3 N1 O2 S1'
_chemical_name_systematic        
N-methyl-N-(1-(4-(trifluoromethyl)phenyl)ethyl)benzenesulfonamide
_symmetry_cell_setting           monoclinic
_symmetry_space_group_name_H-M   'P 21/n'
_symmetry_Int_Tables_number      14
_space_group_name_Hall           '-P 2yn'
loop_
_symmetry_equiv_pos_site_id
_symmetry_equiv_pos_as_xyz
1 x,y,z
2 1/2-x,1/2+y,1/2-z
3 -x,-y,-z
4 1/2+x,1/2-y,1/2+z
_cell_length_a                   8.5653(13)
_cell_length_b                   10.5123(16)
_cell_length_c                   17.819(3)
_cell_angle_alpha                90
_cell_angle_beta                 94.319(3)
_cell_angle_gamma                90
_cell_volume                     1599.88
_exptl_crystal_colour            colorless
_exptl_crystal_description       block
_cell_formula_units_Z            4
loop_
_atom_site_label
_atom_site_type_symbol
_atom_site_fract_x
_atom_site_fract_y
_atom_site_fract_z
S1 S 0.84141(9) 0.96957(8) 0.23235(4)
O1 O 0.7043(3) 1.0409(2) 0.24563(13)
N1 N 0.8009(3) 0.8860(2) 0.15672(14)
O2 O 0.9075(3) 0.8834(2) 0.28841(13)
C1 C 0.9894(4) 1.0790(3) 0.21203(16)
C2 C 0.5781(3) 0.8515(3) 0.06667(16)
C3 C 0.7067(3) 0.9453(3) 0.09225(16)
H1 H 0.6557 1.0207 0.1116
C4 C 0.3612(4) 0.7235(3) 0.10060(18)
H2 H 0.2942 0.6974 0.1363
C5 C 0.4763(4) 0.8108(3) 0.11930(17)
H3 H 0.4867 0.8436 0.1679
C6 C 0.3447(4) 0.6738(3) 0.02797(18)
C7 C 0.9505(4) 1.2024(3) 0.19083(19)
H4 H 0.8469 1.2296 0.1888
C8 C 1.2214(5) 1.2447(4) 0.1759(2)
H5 H 1.2993 1.3008 0.1633
C9 C 1.1446(4) 1.0381(3) 0.21539(18)
H6 H 1.1698 0.9550 0.2296
F1 F 0.0796(3) 0.6301(3) 0.0061(2)
F2 F 0.2243(4) 0.5262(3) -0.05775(19)
C10 C 0.5579(4) 0.8032(3) -0.00577(18)
H7 H 0.6231 0.8308 -0.0419
C11 C 0.4427(4) 0.7149(3) -0.02514(19)
H8 H 0.4310 0.6831 -0.0739
C12 C 0.8072(4) 0.9896(4) 0.03025(19)
H9 H 0.7415 1.0270 -0.0099
H10 H 0.8815 1.0516 0.0502
H11 H 0.8620 0.9182 0.0113
C13 C 1.0681(5) 1.2848(3) 0.1728(2)
H12 H 1.0433 1.3679 0.1585
F3 F 0.2202(5) 0.4850(4) 0.0551(2)
C14 C 1.2605(4) 1.1214(4) 0.19747(19)
H13 H 1.3644 1.0950 0.1999
C15 C 0.2187(4) 0.5788(4) 0.0089(2)
C16 C 0.9068(4) 0.7826(3) 0.1393(2)
H14 H 0.9607 0.7522 0.1851
H15 H 0.8475 0.7144 0.1154
H16 H 0.9816 0.8133 0.1062
loop_
_geom_bond_atom_site_label_1
_geom_bond_atom_site_label_2
_geom_bond_site_symmetry_1
_geom_bond_site_symmetry_2
S1 O1 1_555 1_555
N1 S1 1_555 1_555
O2 S1 1_555 1_555
C1 S1 1_555 1_555
C2 C3 1_555 1_555
C3 N1 1_555 1_555
H1 C3 1_555 1_555
C4 H2 1_555 1_555
C5 C2 1_555 1_555
H3 C5 1_555 1_555
C6 C4 1_555 1_555
C7 C1 1_555 1_555
H4 C7 1_555 1_555
C8 H5 1_555 1_555
C9 C1 1_555 1_555
H6 C9 1_555 1_555
F1 C15 1_555 1_555
F2 C15 1_555 1_555
C10 C2 1_555 1_555
H7 C10 1_555 1_555
C11 C6 1_555 1_555
H8 C11 1_555 1_555
C12 C3 1_555 1_555
H9 C12 1_555 1_555
H10 C12 1_555 1_555
H11 C12 1_555 1_555
C13 C7 1_555 1_555
H12 C13 1_555 1_555
F3 C15 1_555 1_555
C14 C8 1_555 1_555
H13 C14 1_555 1_555
C15 C6 1_555 1_555
C16 N1 1_555 1_555
H14 C16 1_555 1_555
H15 C16 1_555 1_555
H16 C16 1_555 1_555
C4 C5 1_555 1_555
C8 C13 1_555 1_555
C9 C14 1_555 1_555
C10 C11 1_555 1_555

#END
