
#######################################################################
#
#                 Cambridge Crystallographic Data Centre
#                                CCDC 
#
#######################################################################
#
# If this CIF has been generated from an entry in the Cambridge 
# Structural Database, then it will include bibliographic, chemical, 
# crystal, experimental, refinement or atomic coordinate data resulting 
# from the CCDC's data processing and validation procedures.
#
#######################################################################

data_RAQCEU
_chemical_formula_moiety         'C38 H35 N3 O6 S2,C1 H1 Cl3'
_chemical_name_systematic        
"1-methyl-8'-(1-methyl-2-oxo-2,3-dihydro-1H-indol-3-yl)-1'-(phenylsulfonyl)-2'-((phenylsulfonyl)methyl)-1',5',6',7'-tetrahydro-2'H-spiro[indole-3,3'-indolizin]-2(1H)-one chloroform solvate"
_symmetry_cell_setting           triclinic
_symmetry_space_group_name_H-M   'P -1'
_symmetry_Int_Tables_number      2
_space_group_name_Hall           '-P 1'
loop_
_symmetry_equiv_pos_site_id
_symmetry_equiv_pos_as_xyz
1 x,y,z
2 -x,-y,-z
_cell_length_a                   12.092(2)
_cell_length_b                   12.945(2)
_cell_length_c                   13.599(3)
_cell_angle_alpha                98.723(3)
_cell_angle_beta                 112.832(4)
_cell_angle_gamma                96.192(2)
_cell_volume                     1906.44
_exptl_crystal_colour            colorless
_exptl_crystal_description       Prism
_cell_formula_units_Z            2
loop_
_atom_site_label
_atom_site_type_symbol
_atom_site_fract_x
_atom_site_fract_y
_atom_site_fract_z
S1 S 1.08752(3) 0.23603(3) 0.12298(3)
S2 S 0.76520(3) 0.39727(3) -0.09566(3)
O1 O 1.21331(10) 0.23771(10) 0.19219(10)
O2 O 1.05736(11) 0.24898(11) 0.01242(10)
O3 O 0.65714(10) 0.39662(10) -0.07467(10)
O4 O 0.79191(11) 0.47476(11) -0.15281(10)
O5 O 1.30790(11) 0.19688(10) 0.45064(10)
O6 O 0.92824(11) 0.54743(9) 0.26017(10)
N1 N 1.42181(12) 0.35624(12) 0.56294(11)
N2 N 0.89891(11) 0.31148(10) 0.27071(10)
N3 N 0.71806(12) 0.49668(11) 0.18579(11)
C1 C 1.51926(15) 0.31483(17) 0.63931(14)
H1 H 1.5067 0.3151 0.7063
H2 H 1.5979 0.3595 0.6567
H3 H 1.5189 0.2419 0.6064
C2 C 1.41536(14) 0.46448(14) 0.57030(13)
C3 C 1.49621(16) 0.55082(16) 0.64794(14)
H4 H 1.5667 0.5418 0.7069
C4 C 1.46940(18) 0.65108(16) 0.63552(16)
H5 H 1.5231 0.7122 0.6866
C5 C 1.36558(18) 0.66345(15) 0.54979(17)
H6 H 1.3494 0.7329 0.5433
C6 C 1.28413(16) 0.57526(14) 0.47259(15)
H7 H 1.2126 0.5840 0.4145
C7 C 1.31069(13) 0.47586(13) 0.48339(12)
C8 C 1.24719(13) 0.36762(12) 0.41135(12)
H8 H 1.2540 0.3642 0.3400
C9 C 1.32561(13) 0.29387(13) 0.47382(13)
C10 C 1.11452(13) 0.33979(12) 0.38993(12)
C11 C 1.08642(14) 0.32832(14) 0.48709(13)
H9 H 1.1036 0.3993 0.5346
H10 H 1.1404 0.2841 0.5300
C12 C 0.95330(15) 0.27730(14) 0.45258(14)
H11 H 0.9414 0.2001 0.4235
H12 H 0.9328 0.2867 0.5168
C13 C 0.86950(14) 0.32823(14) 0.36564(14)
H13 H 0.7833 0.2960 0.3445
H14 H 0.8806 0.4053 0.3946
C14 C 1.02381(13) 0.33051(11) 0.29117(12)
C15 C 1.03055(12) 0.34026(12) 0.18424(12)
H15 H 1.0816 0.4104 0.1944
C16 C 0.89669(12) 0.33900(12) 0.10373(12)
H16 H 0.8619 0.2658 0.0573
C17 C 0.82968(13) 0.35909(12) 0.17996(12)
C18 C 0.69448(13) 0.31592(13) 0.13281(13)
C19 C 0.63083(15) 0.21308(14) 0.09261(15)
H17 H 0.6722 0.1550 0.0902
C20 C 0.50289(16) 0.19617(18) 0.05521(16)
H18 H 0.4571 0.1259 0.0269
C21 C 0.44354(15) 0.28106(19) 0.05938(16)
H19 H 0.3571 0.2680 0.0336
C22 C 0.50721(15) 0.38540(17) 0.10047(14)
H20 H 0.4661 0.4436 0.1028
C23 C 0.63329(14) 0.40049(14) 0.13780(13)
C24 C 0.83528(14) 0.47980(12) 0.21541(13)
C25 C 0.68675(18) 0.60067(15) 0.20468(16)
H21 H 0.6560 0.6056 0.2618
H22 H 0.6236 0.6110 0.1371
H23 H 0.7595 0.6556 0.2279
C26 C 0.89653(13) 0.41620(13) 0.02934(12)
H24 H 0.9684 0.4124 0.0119
H25 H 0.9078 0.4891 0.0711
C27 C 0.75749(15) 0.27022(15) -0.16948(14)
C28 C 0.8283(2) 0.2604(2) -0.22990(16)
H26 H 0.8831 0.3199 -0.2280
C29 C 0.8160(3) 0.1613(3) -0.2926(2)
H27 H 0.8624 0.1527 -0.3349
C30 C 0.7374(3) 0.0754(3) -0.2942(2)
H28 H 0.7305 0.0080 -0.3372
C31 C 0.6679(2) 0.08589(19) -0.2338(2)
H29 H 0.6138 0.0259 -0.2356
C32 C 0.67748(18) 0.18494(15) -0.17006(16)
H30 H 0.6304 0.1934 -0.1284
C33 C 0.99738(14) 0.11817(13) 0.11984(14)
C34 C 0.89877(15) 0.06741(14) 0.02221(14)
H31 H 0.8829 0.0941 -0.0423
C35 C 0.82451(16) -0.02248(15) 0.02114(17)
H32 H 0.7576 -0.0584 -0.0447
C36 C 0.84769(19) -0.05975(16) 0.11550(19)
H33 H 0.7959 -0.1209 0.1145
C37 C 0.9462(2) -0.00877(15) 0.21230(18)
H34 H 0.9609 -0.0351 0.2769
C38 C 1.02304(17) 0.08048(14) 0.21493(15)
H35 H 1.0915 0.1148 0.2803
Cl1 Cl 0.6606(5) 0.8580(3) 0.2613(4)
Cl2 Cl 0.8588(3) 0.9693(5) 0.4662(4)
Cl3 Cl 0.6636(3) 1.0663(2) 0.3656(5)
C39 C 0.7006(2) 0.94190(16) 0.38714(19)
Cl4? Cl 0.6476(6) 0.8714(5) 0.2513(5)
Cl5? Cl 0.8590(3) 0.9502(7) 0.4546(6)
Cl6? Cl 0.6484(7) 1.0602(4) 0.3922(6)
loop_
_geom_bond_atom_site_label_1
_geom_bond_atom_site_label_2
_geom_bond_site_symmetry_1
_geom_bond_site_symmetry_2
S1 O1 1_555 1_555
S2 O3 1_555 1_555
O2 S1 1_555 1_555
O4 S2 1_555 1_555
O5 C9 1_555 1_555
O6 C24 1_555 1_555
N1 C1 1_555 1_555
N2 C13 1_555 1_555
N3 C23 1_555 1_555
C1 H1 1_555 1_555
H2 C1 1_555 1_555
H3 C1 1_555 1_555
C2 N1 1_555 1_555
C3 C2 1_555 1_555
H4 C3 1_555 1_555
C4 C3 1_555 1_555
H5 C4 1_555 1_555
C5 C4 1_555 1_555
H6 C5 1_555 1_555
C6 C5 1_555 1_555
H7 C6 1_555 1_555
C7 C2 1_555 1_555
C8 C7 1_555 1_555
H8 C8 1_555 1_555
C9 N1 1_555 1_555
C10 C8 1_555 1_555
C11 C10 1_555 1_555
H9 C11 1_555 1_555
H10 C11 1_555 1_555
C12 C11 1_555 1_555
H11 C12 1_555 1_555
H12 C12 1_555 1_555
C13 C12 1_555 1_555
H13 C13 1_555 1_555
H14 C13 1_555 1_555
C14 N2 1_555 1_555
C15 S1 1_555 1_555
H15 C15 1_555 1_555
C16 C15 1_555 1_555
H16 C16 1_555 1_555
C17 N2 1_555 1_555
C18 C17 1_555 1_555
C19 C18 1_555 1_555
H17 C19 1_555 1_555
C20 C19 1_555 1_555
H18 C20 1_555 1_555
C21 C20 1_555 1_555
H19 C21 1_555 1_555
C22 C21 1_555 1_555
H20 C22 1_555 1_555
C23 C18 1_555 1_555
C24 N3 1_555 1_555
C25 N3 1_555 1_555
H21 C25 1_555 1_555
H22 C25 1_555 1_555
H23 C25 1_555 1_555
C26 S2 1_555 1_555
H24 C26 1_555 1_555
H25 C26 1_555 1_555
C27 S2 1_555 1_555
C28 C27 1_555 1_555
H26 C28 1_555 1_555
C29 C28 1_555 1_555
H27 C29 1_555 1_555
C30 C29 1_555 1_555
H28 C30 1_555 1_555
C31 C30 1_555 1_555
H29 C31 1_555 1_555
C32 C27 1_555 1_555
H30 C32 1_555 1_555
C33 S1 1_555 1_555
C34 C33 1_555 1_555
H31 C34 1_555 1_555
C35 C34 1_555 1_555
H32 C35 1_555 1_555
C36 C35 1_555 1_555
H33 C36 1_555 1_555
C37 C36 1_555 1_555
H34 C37 1_555 1_555
C38 C33 1_555 1_555
H35 C38 1_555 1_555
Cl1 C39 1_555 1_555
Cl2 C39 1_555 1_555
Cl3 C39 1_555 1_555
C6 C7 1_555 1_555
C8 C9 1_555 1_555
C10 C14 1_555 1_555
C14 C15 1_555 1_555
C16 C17 1_555 1_555
C16 C26 1_555 1_555
C17 C24 1_555 1_555
C22 C23 1_555 1_555
C31 C32 1_555 1_555
C37 C38 1_555 1_555

#END
