
#######################################################################
#
#                 Cambridge Crystallographic Data Centre
#                                CCDC 
#
#######################################################################
#
# If this CIF has been generated from an entry in the Cambridge 
# Structural Database, then it will include bibliographic, chemical, 
# crystal, experimental, refinement or atomic coordinate data resulting 
# from the CCDC's data processing and validation procedures.
#
#######################################################################

data_RAQDIW01
_chemical_formula_moiety         'C16 H12 S12 2+,2(I3 1-)'
_chemical_name_systematic        
'cis,cis-2,5,7,10-Tetrathia-1,6(2,7)-ditetrathiafulvalenacyclodecaphane bis(triiodide)'
_symmetry_cell_setting           monoclinic
_symmetry_space_group_name_H-M   'P 21/n'
_symmetry_Int_Tables_number      14
_space_group_name_Hall           '-P 2yn'
loop_
_symmetry_equiv_pos_site_id
_symmetry_equiv_pos_as_xyz
1 x,y,z
2 1/2-x,1/2+y,1/2-z
3 -x,-y,-z
4 1/2+x,1/2-y,1/2+z
_cell_length_a                   15.420(1)
_cell_length_b                   10.106(1)
_cell_length_c                   11.546(1)
_cell_angle_alpha                90
_cell_angle_beta                 108.475(7)
_cell_angle_gamma                90
_cell_volume                     1706.53
_exptl_crystal_description       needle
_cell_formula_units_Z            2
loop_
_atom_site_label
_atom_site_type_symbol
_atom_site_fract_x
_atom_site_fract_y
_atom_site_fract_z
I1 I 0.41313(7) 0.6580(1) 0.35786(9)
I2 I 0.52846(8) 0.6578(1) 0.2025(1)
I3 I 0.28168(9) 0.6415(1) 0.4906(1)
S1 S 0.3161(3) 1.3139(4) 0.3969(4)
S2 S 0.3174(3) 1.0258(4) 0.4069(4)
S3 S 0.4685(3) 1.0299(4) 0.2556(4)
S4 S 0.4530(3) 1.3155(4) 0.2463(4)
S5 S 0.1759(2) 1.0184(4) 0.5393(3)
S6 S 0.3990(3) 0.9733(5) 0.8907(3)
C1 C 0.359(1) 1.169(2) 0.363(1)
C2 C 0.246(1) 1.111(2) 0.474(1)
C3 C 0.249(1) 1.239(2) 0.468(2)
C4 C 0.421(1) 1.169(2) 0.294(1)
C5 C 0.2616(10) 0.942(2) 0.671(1)
C6 C 0.316(1) 1.050(2) 0.756(1)
C7 C 0.525(1) 1.249(1) 0.177(2)
C8 C 0.5345(10) 1.116(2) 0.181(1)
C8B C 0.4655(10) 0.884(2) 0.819(1)
S3B S 0.5315(3) 0.9701(4) 0.7444(4)
C4B C 0.579(1) 0.831(2) 0.706(1)
S4B S 0.5470(3) 0.6845(4) 0.7537(4)
C7B C 0.475(1) 0.751(1) 0.823(2)
C1B C 0.641(1) 0.831(2) 0.637(1)
S1B S 0.6839(3) 0.6861(4) 0.6031(4)
C3B C 0.751(1) 0.761(2) 0.532(2)
C2B C 0.754(1) 0.889(2) 0.526(1)
S2B S 0.6826(3) 0.9742(4) 0.5931(4)
S5B S 0.8241(2) 0.9816(4) 0.4607(3)
C5B C 0.7384(10) 1.058(2) 0.329(1)
C6B C 0.684(1) 0.950(2) 0.244(1)
S6B S 0.6010(3) 1.0267(5) 0.1093(3)
loop_
_geom_bond_atom_site_label_1
_geom_bond_atom_site_label_2
_geom_bond_site_symmetry_1
_geom_bond_site_symmetry_2
I1 I2 1_555 1_555
I3 I1 1_555 1_555
S1 C1 1_555 1_555
S2 C1 1_555 1_555
S3 C4 1_555 1_555
S4 C4 1_555 1_555
S5 C2 1_555 1_555
S6 C6 1_555 1_555
C1 C4 1_555 1_555
C2 S2 1_555 1_555
C3 S1 1_555 1_555
C5 S5 1_555 1_555
C6 C5 1_555 1_555
C7 S4 1_555 1_555
C8 S3 1_555 1_555
C8B S6 1_555 1_555
S3B C8B 1_555 1_555
C4B S3B 1_555 1_555
S4B C4B 1_555 1_555
C7B C8B 1_555 1_555
C1B C4B 1_555 1_555
S1B C1B 1_555 1_555
C3B S1B 1_555 1_555
C2B C3B 1_555 1_555
S2B C1B 1_555 1_555
S5B C2B 1_555 1_555
C5B S5B 1_555 1_555
C6B C5B 1_555 1_555
S6B C8 1_555 1_555
C2 C3 1_555 1_555
C7 C8 1_555 1_555
S4B C7B 1_555 1_555
C2B S2B 1_555 1_555
C6B S6B 1_555 1_555

#END
