
#######################################################################
#
#                 Cambridge Crystallographic Data Centre
#                                CCDC 
#
#######################################################################
#
# If this CIF has been generated from an entry in the Cambridge 
# Structural Database, then it will include bibliographic, chemical, 
# crystal, experimental, refinement or atomic coordinate data resulting 
# from the CCDC's data processing and validation procedures.
#
#######################################################################

data_RAQDUL
_chemical_formula_moiety         'C24 H24 B1 F10 N1'
_chemical_name_systematic        
hydrido(bis(pentafluorophenyl))(1-(2,2,6,6-tetramethylpiperidinium-1-ylidene)propan-2-yl)borate
_symmetry_cell_setting           triclinic
_symmetry_space_group_name_H-M   'P -1'
_symmetry_Int_Tables_number      2
_space_group_name_Hall           '-P 1'
loop_
_symmetry_equiv_pos_site_id
_symmetry_equiv_pos_as_xyz
1 x,y,z
2 -x,-y,-z
_cell_length_a                   9.6021(5)
_cell_length_b                   9.8581(6)
_cell_length_c                   13.1600(7)
_cell_angle_alpha                73.124(2)
_cell_angle_beta                 77.164(2)
_cell_angle_gamma                81.941(2)
_cell_volume                     1158.44
_exptl_crystal_colour            colorless
_exptl_crystal_description       prism
_cell_formula_units_Z            2
loop_
_atom_site_label
_atom_site_type_symbol
_atom_site_fract_x
_atom_site_fract_y
_atom_site_fract_z
N1 N 0.71362(16) 0.73036(15) 0.23041(12)
B1 B 0.3359(2) 0.7548(2) 0.35241(18)
H1 H 0.341(2) 0.6891(19) 0.4369(16)
C1 C 0.60552(19) 0.74105(19) 0.30783(15)
H2 H 0.6065 0.6669 0.3727
C2 C 0.48260(19) 0.84645(19) 0.31340(15)
H3 H 0.4823 0.9189 0.2422
C3 C 0.4857(2) 0.9167(2) 0.40390(16)
H4 H 0.4945 0.8426 0.471
H5 H 0.3969 0.9772 0.4157
H6 H 0.5678 0.9746 0.3823
C4 C 0.81271(19) 0.59160(19) 0.24329(15)
C5 C 0.8484(2) 0.5595(2) 0.13285(16)
H7 H 0.91 0.4693 0.1392
H8 H 0.7581 0.5443 0.1147
C6 C 0.9232(2) 0.6730(2) 0.03948(17)
H9 H 0.8895 0.6773 -0.0273
H10 H 1.0277 0.6466 0.0276
C7 C 0.8944(2) 0.8190(2) 0.06121(17)
H11 H 0.9083 0.8924 -0.0091
H12 H 0.9667 0.829 0.1012
C8 C 0.7450(2) 0.84944(19) 0.12546(15)
C9 C 0.9428(2) 0.6093(2) 0.28603(17)
H13 H 1.0098 0.5243 0.2886
H14 H 0.9114 0.6224 0.3589
H15 H 0.9905 0.6927 0.238
C10 C 0.7358(2) 0.4669(2) 0.32337(17)
H16 H 0.6455 0.4611 0.3024
H17 H 0.7157 0.481 0.3961
H18 H 0.7967 0.3784 0.3231
C11 C 0.6326(2) 0.8568(2) 0.05778(16)
H19 H 0.6306 0.763 0.0467
H20 H 0.6569 0.9264 -0.0125
H21 H 0.5382 0.8856 0.0957
C12 C 0.7483(2) 0.9906(2) 0.15170(17)
H22 H 0.7826 1.0628 0.085
H23 H 0.8129 0.9775 0.2025
H24 H 0.6516 1.0217 0.1843
C13 C 0.18756(19) 0.85925(19) 0.35590(15)
C14 C 0.0634(2) 0.80778(19) 0.42643(15)
F1 F 0.06725(12) 0.67197(11) 0.48900(9)
C15 C -0.0678(2) 0.8852(2) 0.43727(15)
F2 F -0.18269(12) 0.82691(12) 0.50680(10)
C16 C -0.0802(2) 1.0242(2) 0.37614(16)
F3 F -0.20645(11) 1.10304(12) 0.38485(10)
C17 C 0.0382(2) 1.08129(19) 0.30476(15)
F4 F 0.02708(12) 1.21759(11) 0.24404(10)
C18 C 0.1670(2) 0.9988(2) 0.29551(15)
F5 F 0.27562(12) 1.06454(11) 0.22117(9)
C19 C 0.33595(19) 0.64544(19) 0.27844(15)
C20 C 0.3638(2) 0.4995(2) 0.31600(15)
F6 F 0.38570(13) 0.44042(11) 0.41854(9)
C21 C 0.3745(2) 0.4048(2) 0.25443(17)
F7 F 0.40715(14) 0.26535(12) 0.29523(11)
C22 C 0.3546(2) 0.4561(2) 0.14922(17)
F8 F 0.36651(14) 0.36707(13) 0.08652(10)
C23 C 0.3233(2) 0.5993(2) 0.10785(16)
F9 F 0.30301(13) 0.65042(13) 0.00503(9)
C24 C 0.31395(19) 0.68910(19) 0.17293(15)
F10 F 0.28019(12) 0.82936(11) 0.12743(9)
loop_
_geom_bond_atom_site_label_1
_geom_bond_atom_site_label_2
_geom_bond_site_symmetry_1
_geom_bond_site_symmetry_2
N1 C1 1_555 1_555
B1 H1 1_555 1_555
C1 H2 1_555 1_555
C2 B1 1_555 1_555
H3 C2 1_555 1_555
C3 C2 1_555 1_555
H4 C3 1_555 1_555
H5 C3 1_555 1_555
H6 C3 1_555 1_555
C4 N1 1_555 1_555
C5 C4 1_555 1_555
H7 C5 1_555 1_555
H8 C5 1_555 1_555
C6 C5 1_555 1_555
H9 C6 1_555 1_555
H10 C6 1_555 1_555
C7 C6 1_555 1_555
H11 C7 1_555 1_555
H12 C7 1_555 1_555
C8 N1 1_555 1_555
C9 C4 1_555 1_555
H13 C9 1_555 1_555
H14 C9 1_555 1_555
H15 C9 1_555 1_555
C10 C4 1_555 1_555
H16 C10 1_555 1_555
H17 C10 1_555 1_555
H18 C10 1_555 1_555
C11 C8 1_555 1_555
H19 C11 1_555 1_555
H20 C11 1_555 1_555
H21 C11 1_555 1_555
C12 C8 1_555 1_555
H22 C12 1_555 1_555
H23 C12 1_555 1_555
H24 C12 1_555 1_555
C13 B1 1_555 1_555
C14 C13 1_555 1_555
F1 C14 1_555 1_555
C15 C14 1_555 1_555
F2 C15 1_555 1_555
C16 C15 1_555 1_555
F3 C16 1_555 1_555
C17 C16 1_555 1_555
F4 C17 1_555 1_555
C18 C13 1_555 1_555
F5 C18 1_555 1_555
C19 B1 1_555 1_555
C20 C19 1_555 1_555
F6 C20 1_555 1_555
C21 C20 1_555 1_555
F7 C21 1_555 1_555
C22 C21 1_555 1_555
F8 C22 1_555 1_555
C23 C22 1_555 1_555
F9 C23 1_555 1_555
C24 C19 1_555 1_555
F10 C24 1_555 1_555
C1 C2 1_555 1_555
C7 C8 1_555 1_555
C17 C18 1_555 1_555
C23 C24 1_555 1_555

#END
