
#######################################################################
#
#                 Cambridge Crystallographic Data Centre
#                                CCDC 
#
#######################################################################
#
# If this CIF has been generated from an entry in the Cambridge 
# Structural Database, then it will include bibliographic, chemical, 
# crystal, experimental, refinement or atomic coordinate data resulting 
# from the CCDC's data processing and validation procedures.
#
#######################################################################

data_RAQDIZ
_chemical_formula_moiety         'C49 H32 B2 F22 N1 O2 P1,x(C1 H2 Cl2)'
_chemical_name_systematic        
'5,5-bis[3,5-bis(trifluoromethyl)phenyl]-2,2-bis(pentafluorophenyl)-8,8-bis(2,4,6-trimethylphenyl)-5,6,7,8-tetrahydro-2H-4,8,2,5-[1,3,4,2]dioxazaborolo[5,4-f][1,5,2]azaphosphaborinine dichloromethane solvate'
_symmetry_cell_setting           monoclinic
_symmetry_space_group_name_H-M   'P 21/n'
_symmetry_Int_Tables_number      14
_space_group_name_Hall           '-P 2yn'
loop_
_symmetry_equiv_pos_site_id
_symmetry_equiv_pos_as_xyz
1 x,y,z
2 1/2-x,1/2+y,1/2-z
3 -x,-y,-z
4 1/2+x,1/2-y,1/2+z
_cell_length_a                   12.2342(14)
_cell_length_b                   24.232(3)
_cell_length_c                   18.5607(19)
_cell_angle_alpha                90
_cell_angle_beta                 100.311(7)
_cell_angle_gamma                90
_cell_volume                     5413.63
_exptl_crystal_colour            colorless
_exptl_crystal_description       plate
_cell_formula_units_Z            4
loop_
_atom_site_label
_atom_site_type_symbol
_atom_site_fract_x
_atom_site_fract_y
_atom_site_fract_z
B1 B 0.5062(4) 0.30131(18) 0.4179(3)
F1 F 0.4622(3) 0.40077(14) 0.66204(17)
N1 N 0.4526(3) 0.25105(13) 0.45496(19)
O1 O 0.3428(2) 0.18103(11) 0.47187(15)
P1 P 0.31504(8) 0.21292(4) 0.32909(6)
C1 C 0.3563(3) 0.27822(16) 0.2957(2)
H1 H 0.3472 0.2775 0.2416
H2 H 0.3098 0.3083 0.3099
C2 C 0.4806(3) 0.28786(17) 0.3303(2)
H3 H 0.5089 0.3189 0.3042
H4 H 0.5232 0.2545 0.3215
F2 F 0.2876(3) 0.40920(18) 0.6276(2)
O2 O 0.4777(2) 0.24249(11) 0.53059(15)
C3 C 0.3777(3) 0.21509(16) 0.4253(2)
F3 F 0.3921(3) 0.47994(12) 0.63322(18)
F4 F 0.2138(2) 0.48364(13) 0.32917(19)
F5 F 0.3358(3) 0.54240(11) 0.37969(19)
F6 F 0.3707(3) 0.48794(11) 0.29407(18)
C4 C 0.8691(3) 0.40252(19) 0.4222(3)
F7 F 0.842(2) 0.4151(10) 0.3508(5)
F8 F 0.8396(14) 0.4471(5) 0.4577(12)
F9 F 0.9800(7) 0.4005(8) 0.4378(13)
F10 F 0.9799(2) 0.20716(12) 0.52054(17)
F11 F 0.8280(2) 0.16984(12) 0.5382(2)
F12 F 0.9109(2) 0.23014(13) 0.61422(17)
C5 C 0.1704(3) 0.20054(16) 0.3321(2)
C6 C 0.1358(3) 0.14470(16) 0.3380(2)
C7 C 0.0243(3) 0.13461(18) 0.3390(2)
H5 H 0.0009 0.0974 0.342
C8 C -0.0545(3) 0.17608(19) 0.3358(3)
C9 C -0.0187(3) 0.23036(18) 0.3330(2)
H6 H -0.0714 0.2593 0.332
C10 C 0.0921(3) 0.24388(17) 0.3315(2)
C11 C 0.2107(3) 0.09485(17) 0.3443(3)
H7 H 0.1743 0.0638 0.3643
H8 H 0.2809 0.1033 0.377
H9 H 0.2256 0.085 0.2958
C12 C -0.1740(3) 0.1627(2) 0.3379(3)
H10 H -0.2098 0.148 0.2903
H11 H -0.2127 0.1962 0.3488
H12 H -0.1774 0.135 0.376
C13 C 0.1187(4) 0.30470(17) 0.3327(3)
H13 H 0.0539 0.3258 0.3413
H14 H 0.1376 0.3155 0.2856
H15 H 0.1818 0.3123 0.372
C14 C 0.3777(3) 0.16100(16) 0.2796(2)
C15 C 0.3260(3) 0.15337(16) 0.2049(2)
C16 C 0.3744(4) 0.11678(17) 0.1612(3)
H16 H 0.3414 0.1125 0.1111
C17 C 0.4692(4) 0.08663(17) 0.1889(3)
C18 C 0.5181(3) 0.09408(17) 0.2627(3)
H17 H 0.5826 0.0734 0.282
C19 C 0.4754(3) 0.13085(16) 0.3089(2)
C20 C 0.2175(3) 0.18016(17) 0.1699(3)
H18 H 0.2081 0.1768 0.1165
H19 H 0.2186 0.2193 0.1834
H20 H 0.1556 0.1617 0.1871
C21 C 0.5185(4) 0.0471(2) 0.1411(3)
H21 H 0.5431 0.0675 0.1013
H22 H 0.4624 0.0198 0.1205
H23 H 0.5822 0.0282 0.1704
C22 C 0.5376(3) 0.13513(18) 0.3869(3)
H24 H 0.5998 0.109 0.3942
H25 H 0.4872 0.1264 0.4208
H26 H 0.5661 0.1727 0.3961
C23 C 0.4496(3) 0.35780(15) 0.4412(2)
C24 C 0.4422(3) 0.36838(16) 0.5150(3)
H27 H 0.4687 0.3418 0.5516
C25 C 0.3961(3) 0.41784(18) 0.5348(3)
C26 C 0.3579(4) 0.45827(19) 0.4842(3)
H28 H 0.327 0.4916 0.4985
C27 C 0.3664(4) 0.44848(18) 0.4113(3)
C28 C 0.4105(3) 0.39873(16) 0.3895(3)
H29 H 0.4137 0.3928 0.3394
C29 C 0.3868(4) 0.4263(2) 0.6143(3)
C30 C 0.3227(4) 0.49010(19) 0.3532(3)
C31 C 0.6389(3) 0.30283(16) 0.4460(2)
C32 C 0.6973(3) 0.34925(17) 0.4279(2)
H30 H 0.657 0.3795 0.4037
C33 C 0.8133(3) 0.35207(17) 0.4445(2)
C34 C 0.8748(3) 0.30861(18) 0.4800(3)
H31 H 0.9536 0.3101 0.4908
C35 C 0.8173(3) 0.26270(18) 0.4993(3)
C36 C 0.7030(3) 0.25944(16) 0.4826(2)
H32 H 0.6667 0.2274 0.496
C37 C 0.8833(4) 0.2175(2) 0.5423(3)
B2 B 0.4052(4) 0.1947(2) 0.5493(3)
C38 C 0.4780(14) 0.1423(3) 0.5827(18)
C39 C 0.4357(9) 0.0898(3) 0.5714(7)
F13 F 0.3314(9) 0.0816(5) 0.5335(7)
C40 C 0.4939(10) 0.0435(3) 0.5980(5)
F14 F 0.4523(11) -0.0077(3) 0.5838(6)
C41 C 0.5976(10) 0.0492(3) 0.6406(6)
F15 F 0.6595(10) 0.0042(3) 0.6659(6)
C42 C 0.6438(10) 0.1005(4) 0.6544(9)
F16 F 0.7472(10) 0.1061(6) 0.6935(10)
C43 C 0.5805(9) 0.1452(4) 0.6279(8)
F17 F 0.6263(15) 0.1958(4) 0.6471(10)
C44 C 0.3200(3) 0.21825(16) 0.5998(2)
C45 C 0.2480(3) 0.26122(17) 0.5742(2)
F18 F 0.24921(18) 0.28254(10) 0.50549(13)
C46 C 0.1761(3) 0.28561(16) 0.6126(2)
F19 F 0.11036(18) 0.32810(10) 0.58483(14)
C47 C 0.1698(3) 0.26529(17) 0.6809(2)
F20 F 0.0986(2) 0.28839(11) 0.72063(15)
C48 C 0.2369(3) 0.22254(18) 0.7094(2)
F21 F 0.2311(2) 0.20254(10) 0.77732(14)
C49 C 0.3098(3) 0.19979(16) 0.6691(2)
F22 F 0.37429(19) 0.15833(10) 0.70239(13)
F23? F 0.8779(18) 0.3988(8) 0.3511(7)
F24? F 0.819(2) 0.4495(6) 0.4320(17)
F25? F 0.9743(13) 0.4058(13) 0.4589(13)
C50? C 0.485(3) 0.1431(6) 0.579(4)
C51? C 0.4615(18) 0.0884(6) 0.5616(15)
F26? F 0.3626(18) 0.0745(10) 0.5199(14)
C52? C 0.5314(18) 0.0451(6) 0.5865(12)
F27? F 0.500(2) -0.0080(6) 0.5701(12)
C53? C 0.6335(17) 0.0560(6) 0.6287(10)
F28? F 0.703(2) 0.0142(9) 0.6546(13)
C54? C 0.662(2) 0.1094(7) 0.6476(18)
F29? F 0.7572(19) 0.1196(12) 0.6958(17)
C55? C 0.5931(18) 0.1506(7) 0.6162(17)
F30? F 0.628(3) 0.2029(9) 0.634(2)
loop_
_geom_bond_atom_site_label_1
_geom_bond_atom_site_label_2
_geom_bond_site_symmetry_1
_geom_bond_site_symmetry_2
B1 N1 1_555 1_555
F1 C29 1_555 1_555
N1 O2 1_555 1_555
O1 C3 1_555 1_555
P1 C1 1_555 1_555
C1 H1 1_555 1_555
H2 C1 1_555 1_555
C2 B1 1_555 1_555
H3 C2 1_555 1_555
H4 C2 1_555 1_555
F2 C29 1_555 1_555
O2 B2 1_555 1_555
C3 N1 1_555 1_555
F3 C29 1_555 1_555
F4 C30 1_555 1_555
F5 C30 1_555 1_555
F6 C30 1_555 1_555
C4 F7 1_555 1_555
F8 C4 1_555 1_555
F9 C4 1_555 1_555
F10 C37 1_555 1_555
F11 C37 1_555 1_555
F12 C37 1_555 1_555
C5 P1 1_555 1_555
C6 C5 1_555 1_555
C7 C6 1_555 1_555
H5 C7 1_555 1_555
C8 C7 1_555 1_555
C9 C8 1_555 1_555
H6 C9 1_555 1_555
C10 C5 1_555 1_555
C11 C6 1_555 1_555
H7 C11 1_555 1_555
H8 C11 1_555 1_555
H9 C11 1_555 1_555
C12 C8 1_555 1_555
H10 C12 1_555 1_555
H11 C12 1_555 1_555
H12 C12 1_555 1_555
C13 C10 1_555 1_555
H13 C13 1_555 1_555
H14 C13 1_555 1_555
H15 C13 1_555 1_555
C14 P1 1_555 1_555
C15 C14 1_555 1_555
C16 C15 1_555 1_555
H16 C16 1_555 1_555
C17 C16 1_555 1_555
C18 C17 1_555 1_555
H17 C18 1_555 1_555
C19 C14 1_555 1_555
C20 C15 1_555 1_555
H18 C20 1_555 1_555
H19 C20 1_555 1_555
H20 C20 1_555 1_555
C21 C17 1_555 1_555
H21 C21 1_555 1_555
H22 C21 1_555 1_555
H23 C21 1_555 1_555
C22 C19 1_555 1_555
H24 C22 1_555 1_555
H25 C22 1_555 1_555
H26 C22 1_555 1_555
C23 B1 1_555 1_555
C24 C23 1_555 1_555
H27 C24 1_555 1_555
C25 C24 1_555 1_555
C26 C25 1_555 1_555
H28 C26 1_555 1_555
C27 C26 1_555 1_555
C28 C23 1_555 1_555
H29 C28 1_555 1_555
C29 C25 1_555 1_555
C30 C27 1_555 1_555
C31 B1 1_555 1_555
C32 C31 1_555 1_555
H30 C32 1_555 1_555
C33 C4 1_555 1_555
C34 C33 1_555 1_555
H31 C34 1_555 1_555
C35 C34 1_555 1_555
C36 C31 1_555 1_555
H32 C36 1_555 1_555
C37 C35 1_555 1_555
B2 O1 1_555 1_555
C38 B2 1_555 1_555
C39 C38 1_555 1_555
F13 C39 1_555 1_555
C40 C39 1_555 1_555
F14 C40 1_555 1_555
C41 C40 1_555 1_555
F15 C41 1_555 1_555
C42 C41 1_555 1_555
F16 C42 1_555 1_555
C43 C38 1_555 1_555
F17 C43 1_555 1_555
C44 B2 1_555 1_555
C45 C44 1_555 1_555
F18 C45 1_555 1_555
C46 C45 1_555 1_555
F19 C46 1_555 1_555
C47 C46 1_555 1_555
F20 C47 1_555 1_555
C48 C47 1_555 1_555
F21 C48 1_555 1_555
C49 C44 1_555 1_555
F22 C49 1_555 1_555
P1 C3 1_555 1_555
C1 C2 1_555 1_555
C9 C10 1_555 1_555
C18 C19 1_555 1_555
C27 C28 1_555 1_555
C32 C33 1_555 1_555
C35 C36 1_555 1_555
C42 C43 1_555 1_555
C48 C49 1_555 1_555

#END
