
#######################################################################
#
#                 Cambridge Crystallographic Data Centre
#                                CCDC 
#
#######################################################################
#
# If this CIF has been generated from an entry in the Cambridge 
# Structural Database, then it will include bibliographic, chemical, 
# crystal, experimental, refinement or atomic coordinate data resulting 
# from the CCDC's data processing and validation procedures.
#
#######################################################################

data_RAQFIB
_chemical_name_common            
'[1,2-bis(hydroxy)-1-[1-(2,2,6,6-tetramethylpiperidin-1-yl)propan-2-yl]diazen-1-iumato][bis(pentafluorophenyl)]boron'
_chemical_formula_moiety         'C24 H24 B1 F10 N3 O2'
_chemical_name_systematic        
1-(2-(2,2-bis(pentafluorophenyl)-1,3,4,5,2-dioxadiazaborol-4-yl)propyl)-2,2,6,6-tetramethylpiperidine
_symmetry_cell_setting           monoclinic
_symmetry_space_group_name_H-M   'P 21/n'
_symmetry_Int_Tables_number      14
_space_group_name_Hall           '-P 2yn'
loop_
_symmetry_equiv_pos_site_id
_symmetry_equiv_pos_as_xyz
1 x,y,z
2 1/2-x,1/2+y,1/2-z
3 -x,-y,-z
4 1/2+x,1/2-y,1/2+z
_cell_length_a                   7.04320(10)
_cell_length_b                   18.5654(4)
_cell_length_c                   19.9939(4)
_cell_angle_alpha                90
_cell_angle_beta                 98.0220(10)
_cell_angle_gamma                90
_cell_volume                     2588.82
_exptl_crystal_colour            colorless
_exptl_crystal_description       prism
_cell_formula_units_Z            4
loop_
_atom_site_label
_atom_site_type_symbol
_atom_site_fract_x
_atom_site_fract_y
_atom_site_fract_z
O1 O 0.9109(2) 0.91209(8) 0.19042(7)
O2 O 1.2292(2) 0.91055(9) 0.23720(8)
N1 N 0.7901(3) 0.87185(10) 0.37360(9)
N2 N 0.9500(3) 0.94044(10) 0.25269(9)
N3 N 1.1220(3) 0.94025(10) 0.27976(10)
B1 B 1.1049(4) 0.89184(15) 0.16996(13)
C1 C 0.6832(3) 0.90755(13) 0.31510(12)
H1 H 0.5640 0.9268 0.3280
H2 H 0.6483 0.8716 0.2796
C2 C 0.7918(4) 0.96907(12) 0.28583(12)
H3 H 0.8470 1.0007 0.3235
C3 C 0.6621(4) 1.01450(15) 0.23490(14)
H4 H 0.7382 1.0506 0.2157
H5 H 0.5656 1.0381 0.2574
H6 H 0.5999 0.9838 0.1992
C4 C 0.7420(4) 0.89993(13) 0.43932(12)
C5 C 0.8840(5) 0.86817(14) 0.49631(13)
H7 H 1.0129 0.8859 0.4922
H8 H 0.8508 0.8849 0.5397
C6 C 0.8861(5) 0.78692(15) 0.49591(14)
H9 H 0.7598 0.7682 0.5024
H10 H 0.9808 0.7689 0.5326
C7 C 0.9370(5) 0.76253(15) 0.42849(15)
H11 H 0.9331 0.7098 0.4269
H12 H 1.0690 0.7774 0.4253
C8 C 0.8061(4) 0.79189(13) 0.36699(13)
C9 C 0.5356(5) 0.88574(19) 0.45246(16)
H13 H 0.4467 0.9009 0.4135
H14 H 0.5107 0.9127 0.4919
H15 H 0.5190 0.8347 0.4602
C10 C 0.7732(5) 0.98164(14) 0.44148(13)
H16 H 0.9009 0.9925 0.4314
H17 H 0.7598 0.9996 0.4862
H18 H 0.6787 1.0046 0.4083
C11 C 0.6113(5) 0.75167(17) 0.35798(17)
H19 H 0.5644 0.7483 0.4012
H20 H 0.6282 0.7036 0.3407
H21 H 0.5194 0.7779 0.3264
C12 C 0.9036(5) 0.77581(15) 0.30470(16)
H22 H 0.8243 0.7937 0.2646
H23 H 0.9206 0.7242 0.3007
H24 H 1.0277 0.7994 0.3094
C13 C 1.1584(3) 0.94574(13) 0.11142(12)
C14 C 1.1727(4) 1.01904(14) 0.12223(14)
F1 F 1.1333(2) 1.04674(8) 0.18160(8)
C15 C 1.2238(4) 1.06819(15) 0.07634(17)
F2 F 1.2335(3) 1.13885(9) 0.09096(11)
C16 C 1.2634(4) 1.04397(16) 0.01503(16)
F3 F 1.3132(3) 1.09041(11) -0.03089(10)
C17 C 1.2493(4) 0.97229(16) 0.00052(14)
F4 F 1.2845(3) 0.94815(11) -0.05984(8)
C18 C 1.1974(4) 0.92501(14) 0.04810(13)
F5 F 1.1816(3) 0.85569(8) 0.02935(8)
C19 C 1.1199(3) 0.80630(12) 0.15708(11)
C20 C 1.2930(4) 0.77063(14) 0.17136(12)
F6 F 1.4539(2) 0.80970(9) 0.18759(9)
C21 C 1.3116(4) 0.69682(14) 0.16977(13)
F7 F 1.4830(3) 0.66519(10) 0.18550(10)
C22 C 1.1513(4) 0.65554(13) 0.15096(13)
F8 F 1.1664(3) 0.58351(8) 0.14879(9)
C23 C 0.9778(4) 0.68808(14) 0.13338(13)
F9 F 0.8213(3) 0.64814(9) 0.11362(10)
C24 C 0.9647(4) 0.76228(13) 0.13655(12)
F10 F 0.7896(2) 0.79106(8) 0.11939(8)
loop_
_geom_bond_atom_site_label_1
_geom_bond_atom_site_label_2
_geom_bond_site_symmetry_1
_geom_bond_site_symmetry_2
O1 N2 1_555 1_555
O2 N3 1_555 1_555
N1 C1 1_555 1_555
N2 N3 1_555 1_555
B1 O1 1_555 1_555
C1 H1 1_555 1_555
H2 C1 1_555 1_555
C2 N2 1_555 1_555
H3 C2 1_555 1_555
C3 C2 1_555 1_555
H4 C3 1_555 1_555
H5 C3 1_555 1_555
H6 C3 1_555 1_555
C4 N1 1_555 1_555
C5 C4 1_555 1_555
H7 C5 1_555 1_555
H8 C5 1_555 1_555
C6 C5 1_555 1_555
H9 C6 1_555 1_555
H10 C6 1_555 1_555
C7 C6 1_555 1_555
H11 C7 1_555 1_555
H12 C7 1_555 1_555
C8 N1 1_555 1_555
C9 C4 1_555 1_555
H13 C9 1_555 1_555
H14 C9 1_555 1_555
H15 C9 1_555 1_555
C10 C4 1_555 1_555
H16 C10 1_555 1_555
H17 C10 1_555 1_555
H18 C10 1_555 1_555
C11 C8 1_555 1_555
H19 C11 1_555 1_555
H20 C11 1_555 1_555
H21 C11 1_555 1_555
C12 C8 1_555 1_555
H22 C12 1_555 1_555
H23 C12 1_555 1_555
H24 C12 1_555 1_555
C13 B1 1_555 1_555
C14 C13 1_555 1_555
F1 C14 1_555 1_555
C15 C14 1_555 1_555
F2 C15 1_555 1_555
C16 C15 1_555 1_555
F3 C16 1_555 1_555
C17 C16 1_555 1_555
F4 C17 1_555 1_555
C18 C13 1_555 1_555
F5 C18 1_555 1_555
C19 B1 1_555 1_555
C20 C19 1_555 1_555
F6 C20 1_555 1_555
C21 C20 1_555 1_555
F7 C21 1_555 1_555
C22 C21 1_555 1_555
F8 C22 1_555 1_555
C23 C22 1_555 1_555
F9 C23 1_555 1_555
C24 C19 1_555 1_555
F10 C24 1_555 1_555
O2 B1 1_555 1_555
C1 C2 1_555 1_555
C7 C8 1_555 1_555
C17 C18 1_555 1_555
C23 C24 1_555 1_555

#END
