
#######################################################################
#
#                 Cambridge Crystallographic Data Centre
#                                CCDC 
#
#######################################################################
#
# If this CIF has been generated from an entry in the Cambridge 
# Structural Database, then it will include bibliographic, chemical, 
# crystal, experimental, refinement or atomic coordinate data resulting 
# from the CCDC's data processing and validation procedures.
#
#######################################################################

data_RAQGUO
_chemical_formula_moiety         'C30 H46 O3,C5 H5 N1'
_chemical_name_systematic        
'3-hydroxy-4,11b-dimethyl-10-methylene-9-(6-methyl-5-methyleneheptan-2-yl)-2,3,4,4a,5,6,6b,7,8,9,10,10a,11,11b-tetradecahydro-1H-benzo[a]fluorene-4-carboxylic acid pyridine solvate'
_symmetry_cell_setting           orthorhombic
_symmetry_space_group_name_H-M   'P 21 21 21'
_symmetry_Int_Tables_number      19
_space_group_name_Hall           'P 2ac 2ab'
loop_
_symmetry_equiv_pos_site_id
_symmetry_equiv_pos_as_xyz
1 x,y,z
2 1/2-x,-y,1/2+z
3 1/2+x,1/2-y,-z
4 -x,1/2+y,1/2-z
_cell_length_a                   7.2226(3)
_cell_length_b                   9.4454(4)
_cell_length_c                   45.7365(10)
_cell_angle_alpha                90
_cell_angle_beta                 90
_cell_angle_gamma                90
_cell_volume                     3120.16
_cell_formula_units_Z            4
loop_
_atom_site_label
_atom_site_type_symbol
_atom_site_fract_x
_atom_site_fract_y
_atom_site_fract_z
H1 H -0.9180 -0.6255 -0.0037
H2 H -0.3547 -0.6623 -0.1095
H3 H -0.4018 -0.5740 -0.0807
H4 H -0.5167 -0.9777 -0.0400
H5 H -0.4550 -0.8737 -0.0872
H6 H -0.3011 -0.8012 -0.0669
H7 H -0.5372 -0.6999 -0.0376
H8 H -0.7355 -0.5592 -0.0647
H9 H -1.0117 -0.6485 -0.1049
H10 H -1.0603 -0.6094 -0.0716
H11 H -1.0798 -0.4136 -0.1085
H12 H -0.9866 -0.3771 -0.0777
H13 H -0.5107 -0.4210 -0.1537
H14 H -0.3789 -0.4180 -0.1252
H15 H -0.5076 -0.2142 -0.1075
H16 H -0.8145 -0.1719 -0.1100
H17 H -0.8423 -0.3141 -0.1658
H18 H -1.0037 -0.2246 -0.1504
H19 H -0.8273 -0.0132 -0.1569
H20 H -0.8733 -0.0858 -0.1877
H21 H -0.5564 -0.0071 -0.1835
H22 H -0.8114 -0.7278 -0.1345
H23 H -0.6343 -0.8210 -0.1260
H24 H -0.6132 -0.6907 -0.1481
H25 H -0.7504 -0.9303 -0.0916
H26 H -0.9597 -0.8923 -0.0832
H27 H -0.8366 -0.9861 -0.0615
H28 H -0.6077 -0.2998 -0.1972
H29 H -0.2768 -0.1395 -0.2089
H30 H -0.3162 -0.2946 -0.2215
H31 H -0.2862 -0.2722 -0.1871
H32 H -0.7507 -0.0991 -0.2253
H33 H -0.5459 -0.0629 -0.2364
H34 H -0.7207 -0.3305 -0.2474
H35 H -0.5250 -0.2817 -0.2606
H36 H -0.7203 -0.1126 -0.3205
H37 H -0.5249 -0.1542 -0.3041
H38 H -0.9838 -0.1470 -0.2562
H39 H -1.0231 -0.0703 -0.3162
H40 H -0.9904 0.0400 -0.2901
H41 H -1.1782 -0.0496 -0.2916
H42 H -0.9900 -0.3834 -0.2720
H43 H -1.0198 -0.3327 -0.3050
H44 H -1.1773 -0.3045 -0.2811
H45 H -0.2825 -0.0623 -0.1227
H46 H -0.2971 0.0200 -0.1543
C1 C -0.6382(3) -0.6258(2) -0.10469(4)
C2 C -0.4414(3) -0.6551(2) -0.09285(4)
C3 C -0.4284(3) -0.7908(2) -0.07463(4)
C4 C -0.5655(3) -0.7868(2) -0.04931(4)
C5 C -0.7681(3) -0.7730(2) -0.06011(4)
C6 C -0.7763(3) -0.6354(2) -0.07846(4)
C7 C -0.9722(3) -0.5917(2) -0.08779(4)
C8 C -0.9725(3) -0.4339(3) -0.09572(5)
C9 C -0.7979(3) -0.3911(2) -0.11103(4)
C10 C -0.6521(3) -0.4737(2) -0.11530(4)
C11 C -0.5045(3) -0.3967(2) -0.13267(4)
C12 C -0.5578(3) -0.2395(2) -0.12723(4)
C13 C -0.7707(3) -0.2463(2) -0.12394(5)
C14 C -0.8682(3) -0.2300(2) -0.15350(5)
C15 C -0.8024(3) -0.0970(3) -0.16933(6)
C16 C -0.5925(3) -0.1034(3) -0.17649(5)
C17 C -0.4864(3) -0.1288(2) -0.14821(5)
C18 C -0.6779(3) -0.7254(2) -0.13073(4)
C19 C -0.8347(3) -0.9075(2) -0.07552(4)
C20 C -0.8890(3) -0.7525(2) -0.03257(4)
C21 C -0.5460(4) -0.2069(3) -0.20114(5)
C22 C -0.3375(4) -0.2304(3) -0.20501(6)
C23 C -0.6279(5) -0.1405(3) -0.22975(6)
C24 C -0.6485(5) -0.2480(3) -0.25431(6)
C25 C -0.7476(4) -0.1782(3) -0.27999(5)
C26 C -0.6559(5) -0.1453(4) -0.30372(6)
C27 C -0.9555(4) -0.1677(3) -0.27718(5)
C28 C -1.0447(5) -0.0516(3) -0.29537(8)
C29 C -1.0435(5) -0.3097(3) -0.28448(8)
C30 C -0.3416(4) -0.0495(2) -0.14107(6)
O1 O -1.0005(2) -0.83762(18) -0.02394(3)
O2 O -0.8549(2) -0.63025(16) -0.01910(3)
O3 O -0.5441(2) -0.90557(15) -0.03016(3)
H52 H -0.6616 -1.2601 -0.0456
H53 H -0.5721 -1.4687 -0.0231
H54 H -0.2583 -1.5032 -0.0117
H55 H -0.0465 -1.3222 -0.0229
H56 H -0.1551 -1.1124 -0.0427
C33 C -0.5352(4) -1.2719(2) -0.04035(5)
C34 C -0.4830(4) -1.3976(2) -0.02729(5)
C35 C -0.2989(4) -1.4177(3) -0.02051(5)
C36 C -0.1748(4) -1.3107(3) -0.02685(5)
C37 C -0.2405(4) -1.1869(3) -0.03904(5)
N1 N -0.4183(3) -1.1665(2) -0.04604(4)
H47? H -0.5723 -0.2960 -0.1901
C31? C -0.6412(17) -0.2517(11) -0.2306(2)
H48? H -0.5739 -0.3319 -0.2396
H49? H -0.7708 -0.2811 -0.2270
C32? C -0.6357(17) -0.1239(12) -0.2505(2)
H50? H -0.5066 -0.0972 -0.2552
H51? H -0.6988 -0.0419 -0.2414
loop_
_geom_bond_atom_site_label_1
_geom_bond_atom_site_label_2
_geom_bond_site_symmetry_1
_geom_bond_site_symmetry_2
H1 O2 1_555 1_555
H2 C2 1_555 1_555
H3 C2 1_555 1_555
H4 O3 1_555 1_555
H5 C3 1_555 1_555
H6 C3 1_555 1_555
H7 C4 1_555 1_555
H8 C6 1_555 1_555
H9 C7 1_555 1_555
H10 C7 1_555 1_555
H11 C8 1_555 1_555
H12 C8 1_555 1_555
H13 C11 1_555 1_555
H14 C11 1_555 1_555
H15 C12 1_555 1_555
H16 C13 1_555 1_555
H17 C14 1_555 1_555
H18 C14 1_555 1_555
H19 C15 1_555 1_555
H20 C15 1_555 1_555
H21 C16 1_555 1_555
H22 C18 1_555 1_555
H23 C18 1_555 1_555
H24 C18 1_555 1_555
H25 C19 1_555 1_555
H26 C19 1_555 1_555
H27 C19 1_555 1_555
H28 C21 1_555 1_555
H29 C22 1_555 1_555
H30 C22 1_555 1_555
H31 C22 1_555 1_555
H32 C23 1_555 1_555
H33 C23 1_555 1_555
H34 C24 1_555 1_555
H35 C24 1_555 1_555
H36 C26 1_555 1_555
H37 C26 1_555 1_555
H38 C27 1_555 1_555
H39 C28 1_555 1_555
H40 C28 1_555 1_555
H41 C28 1_555 1_555
H42 C29 1_555 1_555
H43 C29 1_555 1_555
H44 C29 1_555 1_555
H45 C30 1_555 1_555
H46 C30 1_555 1_555
C1 C2 1_555 1_555
C2 C3 1_555 1_555
C3 C4 1_555 1_555
C4 C5 1_555 1_555
C5 C6 1_555 1_555
C6 C1 1_555 1_555
C7 C6 1_555 1_555
C8 C7 1_555 1_555
C9 C8 1_555 1_555
C10 C1 1_555 1_555
C11 C10 1_555 1_555
C12 C11 1_555 1_555
C13 C9 1_555 1_555
C14 C13 1_555 1_555
C15 C14 1_555 1_555
C16 C15 1_555 1_555
C17 C12 1_555 1_555
C18 C1 1_555 1_555
C19 C5 1_555 1_555
C20 C5 1_555 1_555
C21 C16 1_555 1_555
C22 C21 1_555 1_555
C23 C21 1_555 1_555
C24 C23 1_555 1_555
C25 C24 1_555 1_555
C26 C25 1_555 1_555
C27 C25 1_555 1_555
C28 C27 1_555 1_555
C29 C27 1_555 1_555
C30 C17 1_555 1_555
O1 C20 1_555 1_555
O2 C20 1_555 1_555
O3 C4 1_555 1_555
H52 C33 1_555 1_555
H53 C34 1_555 1_555
H54 C35 1_555 1_555
H55 C36 1_555 1_555
H56 C37 1_555 1_555
C33 C34 1_555 1_555
C34 C35 1_555 1_555
C35 C36 1_555 1_555
C36 C37 1_555 1_555
C37 N1 1_555 1_555
N1 C33 1_555 1_555
C9 C10 1_555 1_555
C12 C13 1_555 1_555
C16 C17 1_555 1_555

#END
