
#######################################################################
#
#                 Cambridge Crystallographic Data Centre
#                                CCDC 
#
#######################################################################
#
# If this CIF has been generated from an entry in the Cambridge 
# Structural Database, then it will include bibliographic, chemical, 
# crystal, experimental, refinement or atomic coordinate data resulting 
# from the CCDC's data processing and validation procedures.
#
#######################################################################

data_RAQJIF
_chemical_name_common            'dysodensiol H'
_chemical_formula_moiety         'C15 H24 O3'
_chemical_name_systematic        
'8-hydroxy-3-isopropyl-8a-methyl-1,2,3,3a,6,7,8,8a-octahydroazulene-5-carboxylic acid'
_symmetry_cell_setting           monoclinic
_symmetry_space_group_name_H-M   'P 21'
_symmetry_Int_Tables_number      4
_space_group_name_Hall           'P 2yb'
loop_
_symmetry_equiv_pos_site_id
_symmetry_equiv_pos_as_xyz
1 x,y,z
2 -x,1/2+y,-z
_cell_length_a                   8.5994(4)
_cell_length_b                   8.9741(3)
_cell_length_c                   9.7684(4)
_cell_angle_alpha                90
_cell_angle_beta                 110.910(5)
_cell_angle_gamma                90
_cell_volume                     704.199
_exptl_crystal_colour            colorless
_exptl_crystal_description       block
_cell_formula_units_Z            2
loop_
_atom_site_label
_atom_site_type_symbol
_atom_site_fract_x
_atom_site_fract_y
_atom_site_fract_z
C1 C 0.4916(3) 0.4972(2) 0.6623(2)
H1 H 0.5522 0.4310 0.6206
H2 H 0.4456 0.4391 0.7225
C2 C 0.3545(3) 0.5779(3) 0.5421(2)
H3 H 0.2510 0.5227 0.5153
H4 H 0.3842 0.5891 0.4557
C3 C 0.3359(2) 0.7326(2) 0.60518(17)
H5 H 0.3597 0.8093 0.5439
C4 C 0.47497(19) 0.73773(17) 0.75848(16)
H6 H 0.4271 0.7034 0.8302
C5 C 0.5473(2) 0.88963(18) 0.80476(18)
H7 H 0.5137 0.9671 0.7374
C6 C 0.6575(2) 0.91894(17) 0.93798(18)
C7 C 0.7158(2) 0.8015(2) 1.05526(19)
H8 H 0.6198 0.7584 1.0705
H9 H 0.7847 0.8480 1.1464
C8 C 0.8152(2) 0.6772(2) 1.01717(19)
H10 H 0.8930 0.7219 0.9777
H11 H 0.8797 0.6255 1.1066
C9 C 0.7096(2) 0.56346(19) 0.90737(19)
H12 H 0.6302 0.5231 0.9489
C10 C 0.6064(2) 0.62054(18) 0.75325(18)
C11 C 0.7179(2) 0.6810(2) 0.6734(2)
H13 H 0.7833 0.7625 0.7282
H14 H 0.6498 0.7151 0.5775
H15 H 0.7905 0.6033 0.6645
C12 C 0.1592(2) 0.7592(2) 0.6050(2)
H16 H 0.1265 0.6705 0.6467
C13 C 0.0358(3) 0.7774(3) 0.4482(2)
H17 H -0.0754 0.7817 0.4490
H18 H 0.0455 0.6941 0.3901
H19 H 0.0598 0.8678 0.4070
C14 C 0.1481(3) 0.8910(3) 0.6963(3)
H20 H 0.1864 0.9787 0.6617
H21 H 0.2163 0.8736 0.7969
H22 H 0.0346 0.9049 0.6887
C15 C 0.7441(2) 1.06465(19) 0.96964(19)
O1 O 0.81328(16) 0.44057(13) 0.89754(17)
H23 H 0.9042 0.4723 0.9015
O2 O 0.67395(17) 1.17033(15) 0.87349(18)
H24 H 0.7355 1.2432 0.8901
O3 O 0.87074(16) 1.08474(15) 1.07435(15)
loop_
_geom_bond_atom_site_label_1
_geom_bond_atom_site_label_2
_geom_bond_site_symmetry_1
_geom_bond_site_symmetry_2
C1 H1 1_555 1_555
H2 C1 1_555 1_555
C2 C1 1_555 1_555
H3 C2 1_555 1_555
H4 C2 1_555 1_555
C3 C2 1_555 1_555
H5 C3 1_555 1_555
C4 C3 1_555 1_555
H6 C4 1_555 1_555
C5 C4 1_555 1_555
H7 C5 1_555 1_555
C6 C5 1_555 1_555
C7 C6 1_555 1_555
H8 C7 1_555 1_555
H9 C7 1_555 1_555
C8 C7 1_555 1_555
H10 C8 1_555 1_555
H11 C8 1_555 1_555
C9 C8 1_555 1_555
H12 C9 1_555 1_555
C10 C1 1_555 1_555
C11 C10 1_555 1_555
H13 C11 1_555 1_555
H14 C11 1_555 1_555
H15 C11 1_555 1_555
C12 C3 1_555 1_555
H16 C12 1_555 1_555
C13 C12 1_555 1_555
H17 C13 1_555 1_555
H18 C13 1_555 1_555
H19 C13 1_555 1_555
C14 C12 1_555 1_555
H20 C14 1_555 1_555
H21 C14 1_555 1_555
H22 C14 1_555 1_555
C15 C6 1_555 1_555
O1 C9 1_555 1_555
H23 O1 1_555 1_555
O2 C15 1_555 1_555
H24 O2 1_555 1_555
O3 C15 1_555 1_555
C4 C10 1_555 1_555
C9 C10 1_555 1_555

#END
