
#######################################################################
#
#                 Cambridge Crystallographic Data Centre
#                                CCDC 
#
#######################################################################
#
# If this CIF has been generated from an entry in the Cambridge 
# Structural Database, then it will include bibliographic, chemical, 
# crystal, experimental, refinement or atomic coordinate data resulting 
# from the CCDC's data processing and validation procedures.
#
#######################################################################

data_RAQJIE
_chemical_formula_moiety         'C7 H6 Br1 N3,0.5(H2 O1)'
_chemical_name_systematic        
'5-Bromo-3-methyl-1H-pyrazolo[3,4-b]pyridine hemihydrate'
_symmetry_cell_setting           triclinic
_symmetry_space_group_name_H-M   'P -1'
_symmetry_Int_Tables_number      2
_space_group_name_Hall           '-P 1'
loop_
_symmetry_equiv_pos_site_id
_symmetry_equiv_pos_as_xyz
1 x,y,z
2 -x,-y,-z
_cell_length_a                   7.0878(3)
_cell_length_b                   7.5561(3)
_cell_length_c                   16.5281(8)
_cell_angle_alpha                98.267(3)
_cell_angle_beta                 97.046(3)
_cell_angle_gamma                107.894(3)
_cell_volume                     820.421
_exptl_crystal_colour            colorless
_exptl_crystal_description       block
_cell_formula_units_Z            4
loop_
_atom_site_label
_atom_site_type_symbol
_atom_site_fract_x
_atom_site_fract_y
_atom_site_fract_z
Br1 Br 0.65578(10) 1.08898(8) 0.11666(4)
N1 N 0.4409(7) 0.5386(6) 0.1487(3)
N2 N 0.4903(7) 0.4203(6) 0.2743(3)
H1 H 0.4221 0.2999 0.2544
N3 N 0.5849(7) 0.4925(7) 0.3553(3)
C1 C 0.6727(8) 0.6768(7) 0.3619(4)
C2 C 0.6321(8) 0.7295(7) 0.2841(3)
C3 C 0.6802(8) 0.8957(7) 0.2516(4)
H2 H 0.7610 1.0149 0.2847
C4 C 0.6037(9) 0.8764(8) 0.1692(4)
C5 C 0.4863(8) 0.6987(8) 0.1201(3)
H3 H 0.4373 0.6936 0.0633
C6 C 0.5159(8) 0.5590(7) 0.2291(3)
C7 C 0.7898(10) 0.8014(8) 0.4421(4)
H4 H 0.7532 0.7368 0.4881
H5 H 0.7590 0.9200 0.4491
H6 H 0.9342 0.8293 0.4419
Br2 Br -0.12254(9) 0.69802(7) 0.00818(3)
N4 N 0.2304(7) 1.0211(6) 0.2294(3)
N5 N 0.2943(7) 0.9131(6) 0.3566(3)
H7 H 0.3697 1.0232 0.3873
N6 N 0.2455(7) 0.7447(6) 0.3838(3)
C8 C 0.1270(8) 0.6121(7) 0.3213(3)
C9 C 0.0986(8) 0.6934(7) 0.2503(3)
C10 C -0.0035(8) 0.6308(7) 0.1680(3)
H8 H -0.0814 0.5017 0.1467
C11 C 0.0153(8) 0.7662(8) 0.1200(3)
C12 C 0.1313(8) 0.9571(8) 0.1515(3)
H9 H 0.1395 1.0451 0.1153
C13 C 0.2111(8) 0.8866(8) 0.2768(3)
C14 C 0.0420(10) 0.4105(8) 0.3306(4)
H10 H 0.1161 0.3913 0.3808
H11 H 0.0547 0.3268 0.2820
H12 H -0.1005 0.3813 0.3351
O1 O 0.6200(6) 0.2093(5) 0.4428(2)
H13 H 0.5775 0.2889 0.4193
H14 H 0.6529 0.2471 0.4967
loop_
_geom_bond_atom_site_label_1
_geom_bond_atom_site_label_2
_geom_bond_site_symmetry_1
_geom_bond_site_symmetry_2
Br1 C4 1_555 1_555
N1 C5 1_555 1_555
N2 H1 1_555 1_555
N3 N2 1_555 1_555
C1 N3 1_555 1_555
C2 C1 1_555 1_555
C3 C2 1_555 1_555
H2 C3 1_555 1_555
C4 C3 1_555 1_555
C5 C4 1_555 1_555
H3 C5 1_555 1_555
C6 N1 1_555 1_555
C7 C1 1_555 1_555
H4 C7 1_555 1_555
H5 C7 1_555 1_555
H6 C7 1_555 1_555
Br2 C11 1_555 1_555
N4 C12 1_555 1_555
N5 H7 1_555 1_555
N6 N5 1_555 1_555
C8 N6 1_555 1_555
C9 C8 1_555 1_555
C10 C9 1_555 1_555
H8 C10 1_555 1_555
C11 C10 1_555 1_555
C12 C11 1_555 1_555
H9 C12 1_555 1_555
C13 N4 1_555 1_555
C14 C8 1_555 1_555
H10 C14 1_555 1_555
H11 C14 1_555 1_555
H12 C14 1_555 1_555
O1 H13 1_555 1_555
H14 O1 1_555 1_555
N2 C6 1_555 1_555
C2 C6 1_555 1_555
N5 C13 1_555 1_555
C9 C13 1_555 1_555

#END
