
#######################################################################
#
#                 Cambridge Crystallographic Data Centre
#                                CCDC 
#
#######################################################################
#
# If this CIF has been generated from an entry in the Cambridge 
# Structural Database, then it will include bibliographic, chemical, 
# crystal, experimental, refinement or atomic coordinate data resulting 
# from the CCDC's data processing and validation procedures.
#
#######################################################################

data_RAQKIG
_chemical_formula_moiety         'C38 H46 O7'
_chemical_name_systematic        
4b,8b,29b,29d-tetramethyl-4b,8b,11,12,14,15,17,18,20,21,23,24,26,27,29b,29d-hexadecahydrodibenzo[2',3':4',5']pentaleno[1',6':1,2,3]indeno[5,6-b][1,4,7,10,13,16,19]heptaoxacyclohenicosine
_symmetry_cell_setting           triclinic
_symmetry_space_group_name_H-M   'P -1'
_symmetry_Int_Tables_number      2
_space_group_name_Hall           '-P 1'
loop_
_symmetry_equiv_pos_site_id
_symmetry_equiv_pos_as_xyz
1 x,y,z
2 -x,-y,-z
_cell_length_a                   11.2358(6)
_cell_length_b                   11.5376(6)
_cell_length_c                   12.5681(9)
_cell_angle_alpha                85.280(5)
_cell_angle_beta                 89.607(5)
_cell_angle_gamma                87.723(4)
_cell_volume                     1622.44
_exptl_crystal_colour            'light colorless'
_exptl_crystal_description       block
_cell_formula_units_Z            2
loop_
_atom_site_label
_atom_site_type_symbol
_atom_site_fract_x
_atom_site_fract_y
_atom_site_fract_z
O1 O 0.20660(19) 0.2005(2) 0.2497(2)
O2 O 0.3592(3) -0.0764(3) 0.2801(3)
O3 O 0.2786(4) -0.1886(4) 0.4808(4)
O4 O 0.1542(3) -0.0129(3) 0.5980(2)
O5 O 0.0872(4) 0.2268(3) 0.6736(3)
O6 O 0.1783(2) 0.4231(2) 0.55733(18)
O7 O 0.14276(18) 0.3914(2) 0.32863(18)
C1 C -0.2172(2) 0.4300(2) 0.0890(2)
C2 C -0.3236(2) 0.4194(2) 0.1636(2)
C3 C -0.4095(2) 0.3498(2) 0.1269(2)
C4 C -0.3707(2) 0.2938(3) 0.0269(2)
C5 C -0.3378(3) 0.1652(3) 0.0537(2)
C6 C -0.2177(2) 0.1395(2) 0.0402(2)
C7 C -0.1486(2) 0.2462(2) 0.0034(2)
C8 C -0.0650(2) 0.2767(2) 0.0903(2)
C9 C -0.1028(2) 0.3752(2) 0.1374(2)
C10 C -0.2465(2) 0.3502(2) -0.0038(2)
C11 C -0.1988(3) 0.5597(3) 0.0535(3)
H1 H -0.1822 0.6007 0.1148
H2 H -0.2697 0.5932 0.0192
H3 H -0.1331 0.5658 0.0044
C12 C -0.4669(3) 0.3089(3) -0.0592(3)
H4 H -0.4384 0.2750 -0.1223
H5 H -0.4855 0.3902 -0.0758
H6 H -0.5372 0.2708 -0.0335
C13 C -0.0813(3) 0.2257(3) -0.1004(3)
H7 H -0.0416 0.2950 -0.1253
H8 H -0.1367 0.2067 -0.1535
H9 H -0.0236 0.1626 -0.0874
C14 C -0.2489(3) 0.4177(3) -0.1135(3)
H10 H -0.1724 0.4496 -0.1285
H11 H -0.3086 0.4796 -0.1141
H12 H -0.2672 0.3662 -0.1668
C15 C -0.3433(3) 0.4731(3) 0.2573(3)
H13 H -0.2855 0.5191 0.2829
C16 C -0.4494(3) 0.4578(3) 0.3127(3)
H14 H -0.4628 0.4938 0.3754
C17 C -0.5355(3) 0.3894(3) 0.2751(3)
H15 H -0.6068 0.3803 0.3123
C18 C -0.5162(3) 0.3345(3) 0.1827(3)
H16 H -0.5738 0.2877 0.1578
C19 C -0.4135(3) 0.0781(3) 0.0895(3)
H17 H -0.4944 0.0951 0.0982
C20 C -0.3677(3) -0.0345(3) 0.1122(3)
H18 H -0.4180 -0.0930 0.1371
C21 C -0.2480(3) -0.0604(3) 0.0981(3)
H19 H -0.2178 -0.1363 0.1126
C22 C -0.1730(3) 0.0269(3) 0.0625(3)
H20 H -0.0922 0.0097 0.0534
C23 C 0.0401(3) 0.2154(3) 0.1251(2)
H21 H 0.0659 0.1489 0.0932
C24 C 0.1044(2) 0.2548(3) 0.2070(3)
C25 C 0.0678(2) 0.3580(3) 0.2522(2)
C26 C -0.0362(2) 0.4171(3) 0.2189(2)
H22 H -0.0619 0.4840 0.2503
C27 C 0.2385(3) 0.0860(3) 0.2217(3)
H23 H 0.2759 0.0889 0.1518
H24 H 0.1686 0.0395 0.2205
C28 C 0.3243(3) 0.0351(3) 0.3060(3)
H25 H 0.3931 0.0831 0.3080
H26 H 0.2861 0.0315 0.3756
C29 C 0.4344(4) -0.1412(4) 0.3536(4)
H27 H 0.4925 -0.1854 0.3143
H28 H 0.4775 -0.0875 0.3930
C30 C 0.3780(6) -0.2172(7) 0.4259(6)
H29 H 0.3590 -0.2837 0.3876
H30 H 0.4372 -0.2449 0.4788
C31 C 0.3114(6) -0.1557(6) 0.5902(7)
H31 H 0.3519 -0.2203 0.6312
H32 H 0.3622 -0.0894 0.5853
C32 C 0.1931(5) -0.1258(4) 0.6392(4)
H33 H 0.1354 -0.1819 0.6226
H34 H 0.2006 -0.1282 0.7162
C33 C 0.0447(4) 0.0264(5) 0.6414(4)
H35 H 0.0465 0.0129 0.7186
H36 H -0.0198 -0.0168 0.6151
C34 C 0.0237(5) 0.1530(5) 0.6104(4)
H37 H 0.0467 0.1688 0.5362
H38 H -0.0608 0.1721 0.6161
C35 C 0.2078(5) 0.2378(4) 0.6498(4)
H39 H 0.2439 0.1607 0.6444
H40 H 0.2457 0.2712 0.7087
C36 C 0.2329(4) 0.3110(4) 0.5492(3)
H41 H 0.3182 0.3171 0.5393
H42 H 0.2011 0.2758 0.4885
C37 C 0.1967(3) 0.5045(3) 0.4683(3)
H43 H 0.2771 0.4928 0.4416
H44 H 0.1894 0.5826 0.4916
C38 C 0.1103(3) 0.4947(3) 0.3791(3)
H45 H 0.0298 0.4903 0.4071
H46 H 0.1137 0.5623 0.3281
loop_
_geom_bond_atom_site_label_1
_geom_bond_atom_site_label_2
_geom_bond_site_symmetry_1
_geom_bond_site_symmetry_2
O1 C24 1_555 1_555
O2 C28 1_555 1_555
O3 C30 1_555 1_555
O4 C32 1_555 1_555
O5 C34 1_555 1_555
O6 C36 1_555 1_555
O7 C25 1_555 1_555
C1 C2 1_555 1_555
C2 C3 1_555 1_555
C3 C4 1_555 1_555
C4 C5 1_555 1_555
C5 C6 1_555 1_555
C6 C7 1_555 1_555
C7 C8 1_555 1_555
C8 C9 1_555 1_555
C9 C1 1_555 1_555
C10 C1 1_555 1_555
C11 C1 1_555 1_555
H1 C11 1_555 1_555
H2 C11 1_555 1_555
H3 C11 1_555 1_555
C12 C4 1_555 1_555
H4 C12 1_555 1_555
H5 C12 1_555 1_555
H6 C12 1_555 1_555
C13 C7 1_555 1_555
H7 C13 1_555 1_555
H8 C13 1_555 1_555
H9 C13 1_555 1_555
C14 C10 1_555 1_555
H10 C14 1_555 1_555
H11 C14 1_555 1_555
H12 C14 1_555 1_555
C15 C2 1_555 1_555
H13 C15 1_555 1_555
C16 C15 1_555 1_555
H14 C16 1_555 1_555
C17 C16 1_555 1_555
H15 C17 1_555 1_555
C18 C3 1_555 1_555
H16 C18 1_555 1_555
C19 C5 1_555 1_555
H17 C19 1_555 1_555
C20 C19 1_555 1_555
H18 C20 1_555 1_555
C21 C20 1_555 1_555
H19 C21 1_555 1_555
C22 C6 1_555 1_555
H20 C22 1_555 1_555
C23 C8 1_555 1_555
H21 C23 1_555 1_555
C24 C23 1_555 1_555
C25 C24 1_555 1_555
C26 C9 1_555 1_555
H22 C26 1_555 1_555
C27 O1 1_555 1_555
H23 C27 1_555 1_555
H24 C27 1_555 1_555
C28 C27 1_555 1_555
H25 C28 1_555 1_555
H26 C28 1_555 1_555
C29 O2 1_555 1_555
H27 C29 1_555 1_555
H28 C29 1_555 1_555
C30 C29 1_555 1_555
H29 C30 1_555 1_555
H30 C30 1_555 1_555
C31 O3 1_555 1_555
H31 C31 1_555 1_555
H32 C31 1_555 1_555
C32 C31 1_555 1_555
H33 C32 1_555 1_555
H34 C32 1_555 1_555
C33 O4 1_555 1_555
H35 C33 1_555 1_555
H36 C33 1_555 1_555
C34 C33 1_555 1_555
H37 C34 1_555 1_555
H38 C34 1_555 1_555
C35 O5 1_555 1_555
H39 C35 1_555 1_555
H40 C35 1_555 1_555
C36 C35 1_555 1_555
H41 C36 1_555 1_555
H42 C36 1_555 1_555
C37 O6 1_555 1_555
H43 C37 1_555 1_555
H44 C37 1_555 1_555
C38 O7 1_555 1_555
H45 C38 1_555 1_555
H46 C38 1_555 1_555
C4 C10 1_555 1_555
C7 C10 1_555 1_555
C17 C18 1_555 1_555
C21 C22 1_555 1_555
C25 C26 1_555 1_555
C37 C38 1_555 1_555

#END
