
#######################################################################
#
#                 Cambridge Crystallographic Data Centre
#                                CCDC 
#
#######################################################################
#
# If this CIF has been generated from an entry in the Cambridge 
# Structural Database, then it will include bibliographic, chemical, 
# crystal, experimental, refinement or atomic coordinate data resulting 
# from the CCDC's data processing and validation procedures.
#
#######################################################################

data_RAQNOP
_chemical_formula_moiety         'C23 H29 N1 O6 S1 Si1'
_chemical_name_systematic        
(5R,8R,10S)-10-(2-furyl)-7-((4-methylphenyl)sulfonyl)-8-((trimethylsilyl)oxy)-7-azaspiro[4.5]decane-1,6-dione
_symmetry_cell_setting           orthorhombic
_symmetry_space_group_name_H-M   'P 21 21 2'
_symmetry_Int_Tables_number      18
_space_group_name_Hall           'P 2 2ab'
loop_
_symmetry_equiv_pos_site_id
_symmetry_equiv_pos_as_xyz
1 x,y,z
2 -x,-y,z
3 1/2-x,1/2+y,-z
4 1/2+x,1/2-y,-z
_cell_length_a                   11.1118(9)
_cell_length_b                   21.4220(18)
_cell_length_c                   10.2188(9)
_cell_angle_alpha                90
_cell_angle_beta                 90
_cell_angle_gamma                90
_cell_volume                     2432.45
_exptl_crystal_colour            colorless
_exptl_crystal_description       block
_chemical_melting_point          '140-141 deg.C'
_cell_formula_units_Z            4
loop_
_atom_site_label
_atom_site_type_symbol
_atom_site_fract_x
_atom_site_fract_y
_atom_site_fract_z
S1 S 0.62791(8) 0.38574(4) 0.34657(9)
Si1 Si 0.75478(9) 0.30235(4) -0.03699(9)
C1 C 0.5986(2) 0.19910(13) 0.3960(3)
C2 C 0.6607(3) 0.19166(15) 0.5302(3)
H1 H 0.7211 0.1590 0.5267
H2 H 0.6993 0.2304 0.5560
C3 C 0.4811(3) 0.16122(15) 0.4108(4)
C4 C 0.5622(3) 0.17466(18) 0.6253(4)
H3 H 0.5209 0.2117 0.6565
H4 H 0.5943 0.1520 0.6997
C5 C 0.4784(4) 0.13383(19) 0.5457(4)
H5 H 0.5064 0.0910 0.5447
H6 H 0.3975 0.1349 0.5813
C6 C 0.6726(3) 0.17680(13) 0.2781(3)
H7 H 0.6215 0.1791 0.2001
C7 C 0.7168(3) 0.11103(15) 0.2919(3)
C8 C 0.8242(4) 0.08529(16) 0.3089(4)
H8 H 0.8974 0.1063 0.3133
C9 C 0.8072(5) 0.0197(2) 0.3193(4)
H9 H 0.8665 -0.0103 0.3315
C10 C 0.6914(6) 0.01010(19) 0.3082(5)
H10 H 0.6552 -0.0290 0.3117
O1 O 0.4733(2) 0.28726(11) 0.4383(2)
O2 O 0.4093(2) 0.15433(14) 0.3256(3)
O3 O 0.6295(3) 0.06565(11) 0.2906(3)
O4 O 0.7270(2) 0.41154(10) 0.2771(3)
O5 O 0.6159(3) 0.39619(11) 0.4824(2)
O6 O 0.68046(18) 0.28910(9) 0.1027(2)
N1 N 0.6443(2) 0.30733(10) 0.3244(2)
C11 C 0.7336(3) 0.28625(13) 0.2275(3)
H11 H 0.8024 0.3149 0.2295
C12 C 0.5626(3) 0.26772(14) 0.3853(3)
C13 C 0.7775(3) 0.22152(14) 0.2600(3)
H12 H 0.8248 0.2229 0.3397
H13 H 0.8289 0.2065 0.1900
C14 C 0.4946(3) 0.40788(14) 0.2676(3)
C15 C 0.3943(3) 0.42203(14) 0.3396(4)
H14 H 0.3954 0.4187 0.4304
C16 C 0.2873(3) 0.44586(15) 0.1418(5)
C17 C 0.4936(4) 0.41408(16) 0.1339(4)
H15 H 0.5627 0.4058 0.0856
C18 C 0.2913(3) 0.44130(16) 0.2754(5)
H16 H 0.2233 0.4514 0.3240
C19 C 0.3901(4) 0.43253(17) 0.0722(4)
H17 H 0.3893 0.4361 -0.0185
C20 C 0.1712(4) 0.4647(2) 0.0738(6)
H18 H 0.1898 0.4890 -0.0025
H19 H 0.1229 0.4892 0.1326
H20 H 0.1276 0.4280 0.0485
C21 C 0.8095(5) 0.22824(19) -0.1039(5)
H21 H 0.8781 0.2145 -0.0546
H22 H 0.8321 0.2340 -0.1938
H23 H 0.7470 0.1974 -0.0984
C22 C 0.6432(5) 0.3363(2) -0.1489(4)
H24 H 0.5699 0.3126 -0.1443
H25 H 0.6738 0.3352 -0.2367
H26 H 0.6275 0.3787 -0.1241
C23 C 0.8839(5) 0.3543(2) -0.0029(5)
H27 H 0.8584 0.3879 0.0526
H28 H 0.9142 0.3709 -0.0837
H29 H 0.9463 0.3310 0.0400
loop_
_geom_bond_atom_site_label_1
_geom_bond_atom_site_label_2
_geom_bond_site_symmetry_1
_geom_bond_site_symmetry_2
S1 O4 1_555 1_555
Si1 O6 1_555 1_555
C1 C2 1_555 1_555
C2 H1 1_555 1_555
H2 C2 1_555 1_555
C3 C1 1_555 1_555
C4 C2 1_555 1_555
H3 C4 1_555 1_555
H4 C4 1_555 1_555
C5 C3 1_555 1_555
H5 C5 1_555 1_555
H6 C5 1_555 1_555
C6 C1 1_555 1_555
H7 C6 1_555 1_555
C7 C6 1_555 1_555
C8 C7 1_555 1_555
H8 C8 1_555 1_555
C9 C8 1_555 1_555
H9 C9 1_555 1_555
C10 C9 1_555 1_555
H10 C10 1_555 1_555
O1 C12 1_555 1_555
O2 C3 1_555 1_555
O3 C7 1_555 1_555
O5 S1 1_555 1_555
O6 C11 1_555 1_555
N1 S1 1_555 1_555
C11 N1 1_555 1_555
H11 C11 1_555 1_555
C12 C1 1_555 1_555
C13 C6 1_555 1_555
H12 C13 1_555 1_555
H13 C13 1_555 1_555
C14 S1 1_555 1_555
C15 C14 1_555 1_555
H14 C15 1_555 1_555
C16 C18 1_555 1_555
C17 C14 1_555 1_555
H15 C17 1_555 1_555
C18 C15 1_555 1_555
H16 C18 1_555 1_555
C19 C16 1_555 1_555
H17 C19 1_555 1_555
C20 C16 1_555 1_555
H18 C20 1_555 1_555
H19 C20 1_555 1_555
H20 C20 1_555 1_555
C21 Si1 1_555 1_555
H21 C21 1_555 1_555
H22 C21 1_555 1_555
H23 C21 1_555 1_555
C22 Si1 1_555 1_555
H24 C22 1_555 1_555
H25 C22 1_555 1_555
H26 C22 1_555 1_555
C23 Si1 1_555 1_555
H27 C23 1_555 1_555
H28 C23 1_555 1_555
H29 C23 1_555 1_555
C4 C5 1_555 1_555
C10 O3 1_555 1_555
N1 C12 1_555 1_555
C11 C13 1_555 1_555
C17 C19 1_555 1_555

#END
