
#######################################################################
#
#                 Cambridge Crystallographic Data Centre
#                                CCDC 
#
#######################################################################
#
# If this CIF has been generated from an entry in the Cambridge 
# Structural Database, then it will include bibliographic, chemical, 
# crystal, experimental, refinement or atomic coordinate data resulting 
# from the CCDC's data processing and validation procedures.
#
#######################################################################

data_RAQPEG
_chemical_formula_moiety         'C39 H57 N1 O3,0.5(C4 H10 O1)'
_chemical_name_systematic        
"4,4',4''-(Nitrilotris(methylene))tris(2,6-diisopropylphenol) diethyl ether solvate"
_symmetry_cell_setting           monoclinic
_symmetry_space_group_name_H-M   'C 2/c'
_symmetry_Int_Tables_number      15
_space_group_name_Hall           '-C 2yn'
loop_
_symmetry_equiv_pos_site_id
_symmetry_equiv_pos_as_xyz
1 x,y,z
2 -x,y,1/2-z
3 1/2+x,1/2+y,z
4 1/2-x,1/2+y,1/2-z
5 -x,-y,-z
6 x,-y,1/2+z
7 1/2-x,1/2-y,-z
8 1/2+x,1/2-y,1/2+z
_cell_length_a                   22.7335(19)
_cell_length_b                   14.1790(11)
_cell_length_c                   27.293(2)
_cell_angle_alpha                90
_cell_angle_beta                 110.802(2)
_cell_angle_gamma                90
_cell_volume                     8224.09
_exptl_crystal_colour            colorless
_exptl_crystal_description       block
_cell_formula_units_Z            8
loop_
_atom_site_label
_atom_site_type_symbol
_atom_site_fract_x
_atom_site_fract_y
_atom_site_fract_z
N1 N 0.39008(18) 0.0008(3) 0.51350(16)
O1 O 0.45367(16) -0.3063(2) 0.70111(13)
H1 H 0.4383 -0.3560 0.6869
O2 O 0.44128(18) 0.3657(3) 0.65639(15)
H2 H 0.4627 0.3398 0.6838
O3 O 0.11488(17) -0.0328(2) 0.33913(13)
H3 H 0.1013 0.0193 0.3427
C1 C 0.4511(2) -0.0234(4) 0.5529(2)
H4 H 0.4682 0.0322 0.5738
H5 H 0.4796 -0.0409 0.5351
C2 C 0.4488(3) -0.1028(4) 0.58910(19)
C3 C 0.3977(3) -0.1166(4) 0.6045(2)
H6 H 0.3623 -0.0789 0.5898
C4 C 0.3971(3) -0.1847(4) 0.6411(2)
C5 C 0.4519(4) -0.2387(4) 0.6625(2)
C6 C 0.5043(3) -0.2286(4) 0.6479(2)
C7 C 0.5008(3) -0.1609(5) 0.6107(2)
H7 H 0.5347 -0.1539 0.5995
C8 C 0.3913(2) 0.0961(4) 0.4927(2)
H8 H 0.3513 0.1087 0.4651
H9 H 0.4239 0.0993 0.4776
C9 C 0.4034(3) 0.1709(4) 0.5345(2)
C10 C 0.3620(2) 0.1826(4) 0.5610(3)
H10 H 0.3258 0.1459 0.5513
C11 C 0.3729(3) 0.2479(5) 0.6020(2)
C12 C 0.4274(4) 0.3012(4) 0.6152(2)
C13 C 0.4695(3) 0.2943(4) 0.5895(3)
C14 C 0.4565(3) 0.2283(5) 0.5491(3)
H11 H 0.4843 0.2225 0.5312
C15 C 0.3708(3) -0.0696(4) 0.4715(2)
H12 H 0.3764 -0.1321 0.4869
H13 H 0.3978 -0.0645 0.4510
C16 C 0.3032(3) -0.0582(3) 0.4357(3)
C17 C 0.2559(4) -0.0508(3) 0.4569(2)
H14 H 0.2671 -0.0521 0.4932
C18 C 0.1933(3) -0.0417(3) 0.4264(3)
C19 C 0.1781(3) -0.0401(3) 0.3721(3)
C20 C 0.2235(4) -0.0472(3) 0.3488(2)
C21 C 0.2856(3) -0.0553(3) 0.3819(3)
H15 H 0.3167 -0.0590 0.3673
C22 C 0.3403(3) -0.1983(4) 0.6572(2)
H16 H 0.3437 -0.2615 0.6725
C23 C 0.3421(3) -0.1286(5) 0.6998(3)
H17 H 0.3817 -0.1337 0.7282
H18 H 0.3085 -0.1421 0.7123
H19 H 0.3373 -0.0657 0.6858
C24 C 0.2785(3) -0.1940(5) 0.6122(3)
H20 H 0.2455 -0.2153 0.6237
H21 H 0.2804 -0.2337 0.5843
H22 H 0.2703 -0.1302 0.5999
C25 C 0.5620(3) -0.2927(4) 0.6705(2)
H23 H 0.5697 -0.3003 0.7080
C26 C 0.6213(3) -0.2501(5) 0.6658(3)
H24 H 0.6189 -0.2536 0.6300
H25 H 0.6574 -0.2844 0.6877
H26 H 0.6248 -0.1853 0.6767
C27 C 0.5481(3) -0.3904(5) 0.6457(3)
H27 H 0.5129 -0.4173 0.6523
H28 H 0.5843 -0.4301 0.6606
H29 H 0.5384 -0.3853 0.6086
C28 C 0.3266(3) 0.2545(4) 0.6306(2)
H30 H 0.3402 0.3083 0.6546
C29 C 0.3288(4) 0.1703(7) 0.6639(3)
H31 H 0.3045 0.1824 0.6857
H32 H 0.3716 0.1576 0.6856
H33 H 0.3117 0.1168 0.6420
C30 C 0.2616(3) 0.2762(5) 0.5948(3)
H34 H 0.2437 0.2215 0.5742
H35 H 0.2627 0.3272 0.5720
H36 H 0.2364 0.2939 0.6150
C31 C 0.5286(3) 0.3545(4) 0.6034(3)
H37 H 0.5281 0.3988 0.6308
C32 C 0.5880(4) 0.2969(7) 0.6247(5)
H38 H 0.5900 0.2675 0.6569
H39 H 0.6238 0.3373 0.6310
H40 H 0.5880 0.2493 0.5997
C33 C 0.5292(4) 0.4122(5) 0.5566(3)
H41 H 0.5313 0.3706 0.5295
H42 H 0.5653 0.4531 0.5672
H43 H 0.4916 0.4494 0.5436
C34 C 0.1435(2) -0.0348(4) 0.4521(2)
H44 H 0.1045 -0.0125 0.4254
C35 C 0.1606(3) 0.0342(4) 0.4971(2)
H45 H 0.1981 0.0131 0.5245
H46 H 0.1267 0.0382 0.5102
H47 H 0.1680 0.0952 0.4851
C36 C 0.1307(3) -0.1323(5) 0.4693(2)
H48 H 0.1679 -0.1554 0.4963
H49 H 0.1192 -0.1744 0.4398
H50 H 0.0969 -0.1286 0.4825
C37 C 0.2057(3) -0.0437(4) 0.2893(2)
H51 H 0.1650 -0.0756 0.2740
C38 C 0.1963(4) 0.0573(5) 0.2697(3)
H52 H 0.1646 0.0869 0.2802
H53 H 0.1831 0.0577 0.2321
H54 H 0.2351 0.0913 0.2843
C39 C 0.2513(3) -0.0947(5) 0.2698(2)
H55 H 0.2900 -0.0599 0.2795
H56 H 0.2335 -0.1000 0.2323
H57 H 0.2593 -0.1565 0.2850
O4 O 0.5000 0.0903(6) 0.7500
C40 C 0.5141(6) 0.0378(10) 0.7120(6)
H58 H 0.5340 -0.0203 0.7284
H59 H 0.4745 0.0205 0.6851
C41 C 0.5493(7) 0.0741(9) 0.6885(4)
H60 H 0.5304 0.1313 0.6712
H61 H 0.5535 0.0302 0.6632
H62 H 0.5901 0.0879 0.7139
C40A C 0.4859(6) 0.0378(10) 0.7880(6)
H58A H 0.4660 -0.0203 0.7716
H59A H 0.5255 0.0205 0.8149
C41A C 0.4507(7) 0.0741(9) 0.8115(4)
H60A H 0.4696 0.1313 0.8288
H61A H 0.4465 0.0302 0.8368
H62A H 0.4099 0.0879 0.7861
loop_
_geom_bond_atom_site_label_1
_geom_bond_atom_site_label_2
_geom_bond_site_symmetry_1
_geom_bond_site_symmetry_2
N1 C1 1_555 1_555
O1 H1 1_555 1_555
O2 H2 1_555 1_555
O3 H3 1_555 1_555
C1 H4 1_555 1_555
H5 C1 1_555 1_555
C2 C1 1_555 1_555
C3 C2 1_555 1_555
H6 C3 1_555 1_555
C4 C3 1_555 1_555
C5 O1 1_555 1_555
C6 C5 1_555 1_555
C7 C2 1_555 1_555
H7 C7 1_555 1_555
C8 N1 1_555 1_555
H8 C8 1_555 1_555
H9 C8 1_555 1_555
C9 C8 1_555 1_555
C10 C9 1_555 1_555
H10 C10 1_555 1_555
C11 C10 1_555 1_555
C12 O2 1_555 1_555
C13 C12 1_555 1_555
C14 C9 1_555 1_555
H11 C14 1_555 1_555
C15 N1 1_555 1_555
H12 C15 1_555 1_555
H13 C15 1_555 1_555
C16 C15 1_555 1_555
C17 C16 1_555 1_555
H14 C17 1_555 1_555
C18 C17 1_555 1_555
C19 O3 1_555 1_555
C20 C19 1_555 1_555
C21 C16 1_555 1_555
H15 C21 1_555 1_555
C22 C4 1_555 1_555
H16 C22 1_555 1_555
C23 C22 1_555 1_555
H17 C23 1_555 1_555
H18 C23 1_555 1_555
H19 C23 1_555 1_555
C24 C22 1_555 1_555
H20 C24 1_555 1_555
H21 C24 1_555 1_555
H22 C24 1_555 1_555
C25 C6 1_555 1_555
H23 C25 1_555 1_555
C26 C25 1_555 1_555
H24 C26 1_555 1_555
H25 C26 1_555 1_555
H26 C26 1_555 1_555
C27 C25 1_555 1_555
H27 C27 1_555 1_555
H28 C27 1_555 1_555
H29 C27 1_555 1_555
C28 C11 1_555 1_555
H30 C28 1_555 1_555
C29 C28 1_555 1_555
H31 C29 1_555 1_555
H32 C29 1_555 1_555
H33 C29 1_555 1_555
C30 C28 1_555 1_555
H34 C30 1_555 1_555
H35 C30 1_555 1_555
H36 C30 1_555 1_555
C31 C13 1_555 1_555
H37 C31 1_555 1_555
C32 C31 1_555 1_555
H38 C32 1_555 1_555
H39 C32 1_555 1_555
H40 C32 1_555 1_555
C33 C31 1_555 1_555
H41 C33 1_555 1_555
H42 C33 1_555 1_555
H43 C33 1_555 1_555
C34 C18 1_555 1_555
H44 C34 1_555 1_555
C35 C34 1_555 1_555
H45 C35 1_555 1_555
H46 C35 1_555 1_555
H47 C35 1_555 1_555
C36 C34 1_555 1_555
H48 C36 1_555 1_555
H49 C36 1_555 1_555
H50 C36 1_555 1_555
C37 C20 1_555 1_555
H51 C37 1_555 1_555
C38 C37 1_555 1_555
H52 C38 1_555 1_555
H53 C38 1_555 1_555
H54 C38 1_555 1_555
C39 C37 1_555 1_555
H55 C39 1_555 1_555
H56 C39 1_555 1_555
H57 C39 1_555 1_555
O4 C40 1_555 1_555
C40 H58 1_555 1_555
H59 C40 1_555 1_555
C41 C40 1_555 1_555
H60 C41 1_555 1_555
H61 C41 1_555 1_555
H62 C41 1_555 1_555
C40A O4 1_555 1_555
H58A C40A 1_555 1_555
H59A C40A 1_555 1_555
C41A C40A 1_555 1_555
H60A C41A 1_555 1_555
H61A C41A 1_555 1_555
H62A C41A 1_555 1_555
C4 C5 1_555 1_555
C6 C7 1_555 1_555
C11 C12 1_555 1_555
C13 C14 1_555 1_555
C18 C19 1_555 1_555
C20 C21 1_555 1_555

#END
