
#######################################################################
#
#                 Cambridge Crystallographic Data Centre
#                                CCDC 
#
#######################################################################
#
# If this CIF has been generated from an entry in the Cambridge 
# Structural Database, then it will include bibliographic, chemical, 
# crystal, experimental, refinement or atomic coordinate data resulting 
# from the CCDC's data processing and validation procedures.
#
#######################################################################

data_RAQQUY
_chemical_name_common            
'8-isopropyl-8-azabicyclo[3.2.1]octan-3-yl tropate'
_chemical_formula_moiety         'C19 H27 N1 O3'
_chemical_name_systematic        
'8-isopropyl-8-aza-bicyclo[3.2.1]octan-3-yl  3-hydroxy-2-phenylpropanoate'
_symmetry_cell_setting           monoclinic
_symmetry_space_group_name_H-M   'P 21/c'
_symmetry_Int_Tables_number      14
_space_group_name_Hall           '-P 2ybc'
loop_
_symmetry_equiv_pos_site_id
_symmetry_equiv_pos_as_xyz
1 x,y,z
2 -x,1/2+y,1/2-z
3 -x,-y,-z
4 x,1/2-y,1/2+z
_cell_length_a                   6.6207(3)
_cell_length_b                   9.4712(5)
_cell_length_c                   28.0365(14)
_cell_angle_alpha                90
_cell_angle_beta                 94.716(2)
_cell_angle_gamma                90
_cell_volume                     1752.1
_exptl_crystal_colour            colorless
_exptl_crystal_description       block
_cell_formula_units_Z            4
_exptl_crystal_recrystallization_method acetone
loop_
_atom_site_label
_atom_site_type_symbol
_atom_site_fract_x
_atom_site_fract_y
_atom_site_fract_z
C1 C 0.0592(4) 0.4646(2) 0.18951(7)
H1 H -0.0601 0.4098 0.1776
C2 C 0.2416(3) 0.3660(2) 0.20002(8)
H2 H 0.2548 0.3380 0.2334
H3 H 0.2286 0.2819 0.1802
C3 C 0.4235(4) 0.4552(3) 0.18769(9)
H4 H 0.4922 0.4119 0.1622
H5 H 0.5194 0.4671 0.2155
C4 C 0.3290(4) 0.5972(3) 0.17159(8)
H6 H 0.4060 0.6401 0.1469
C5 C 0.3108(4) 0.7001(2) 0.21269(8)
H7 H 0.4458 0.7222 0.2268
H8 H 0.2508 0.7870 0.1999
C6 C 0.1854(4) 0.6464(2) 0.25167(8)
H9 H 0.1305 0.7274 0.2681
C7 C 0.0109(3) 0.5524(2) 0.23254(8)
H10 H -0.0246 0.4895 0.2578
H11 H -0.1062 0.6111 0.2236
C8 C 0.1112(4) 0.4944(3) 0.10365(8)
H12 H 0.1832 0.4040 0.1066
C9 C -0.1072(5) 0.4674(3) 0.08554(9)
H13 H -0.1699 0.4079 0.1078
H14 H -0.1115 0.4217 0.0549
H15 H -0.1786 0.5556 0.0824
C10 C 0.2097(5) 0.5866(4) 0.06798(9)
H16 H 0.1578 0.6810 0.0695
H17 H 0.1798 0.5496 0.0363
H18 H 0.3537 0.5876 0.0756
C11 C 0.2689(4) 0.5636(2) 0.33086(8)
C12 C 0.4050(4) 0.4675(2) 0.36236(7)
H19 H 0.5026 0.4232 0.3426
C13 C 0.2731(4) 0.3524(3) 0.38140(8)
H20 H 0.3552 0.2876 0.4016
H21 H 0.1713 0.3935 0.4002
C14 C 0.5213(4) 0.5459(2) 0.40283(7)
C15 C 0.4295(4) 0.6279(3) 0.43463(10)
H22 H 0.2897 0.6401 0.4307
C16 C 0.5392(6) 0.6935(4) 0.47266(11)
H23 H 0.4727 0.7477 0.4942
C17 C 0.7408(6) 0.6789(4) 0.47843(11)
H24 H 0.8150 0.7234 0.5037
C18 C 0.8343(5) 0.5999(5) 0.44756(12)
H25 H 0.9742 0.5888 0.4517
C19 C 0.7260(4) 0.5341(3) 0.40942(10)
H26 H 0.7946 0.4811 0.3880
N1 N 0.1191(3) 0.56307(18) 0.15160(6)
O1 O 0.3217(2) 0.56699(15) 0.28602(5)
O2 O 0.1282(3) 0.6272(2) 0.34474(6)
O3 O 0.1799(4) 0.2808(2) 0.34130(7)
H27 H 0.090(4) 0.224(3) 0.3508(11)
loop_
_geom_bond_atom_site_label_1
_geom_bond_atom_site_label_2
_geom_bond_site_symmetry_1
_geom_bond_site_symmetry_2
C1 H1 1_555 1_555
C2 C1 1_555 1_555
H2 C2 1_555 1_555
H3 C2 1_555 1_555
C3 C2 1_555 1_555
H4 C3 1_555 1_555
H5 C3 1_555 1_555
C4 C3 1_555 1_555
H6 C4 1_555 1_555
C5 C4 1_555 1_555
H7 C5 1_555 1_555
H8 C5 1_555 1_555
C6 C5 1_555 1_555
H9 C6 1_555 1_555
C7 C1 1_555 1_555
H10 C7 1_555 1_555
H11 C7 1_555 1_555
C8 H12 1_555 1_555
C9 C8 1_555 1_555
H13 C9 1_555 1_555
H14 C9 1_555 1_555
H15 C9 1_555 1_555
C10 C8 1_555 1_555
H16 C10 1_555 1_555
H17 C10 1_555 1_555
H18 C10 1_555 1_555
C11 C12 1_555 1_555
C12 H19 1_555 1_555
C13 C12 1_555 1_555
H20 C13 1_555 1_555
H21 C13 1_555 1_555
C14 C12 1_555 1_555
C15 C14 1_555 1_555
H22 C15 1_555 1_555
C16 C15 1_555 1_555
H23 C16 1_555 1_555
C17 C16 1_555 1_555
H24 C17 1_555 1_555
C18 C17 1_555 1_555
H25 C18 1_555 1_555
C19 C14 1_555 1_555
H26 C19 1_555 1_555
N1 C1 1_555 1_555
O1 C6 1_555 1_555
O2 C11 1_555 1_555
O3 C13 1_555 1_555
H27 O3 1_555 1_555
C4 N1 1_555 1_555
C6 C7 1_555 1_555
C8 N1 1_555 1_555
C11 O1 1_555 1_555
C18 C19 1_555 1_555

#END
