
#######################################################################
#
#                 Cambridge Crystallographic Data Centre
#                                CCDC 
#
#######################################################################
#
# If this CIF has been generated from an entry in the Cambridge 
# Structural Database, then it will include bibliographic, chemical, 
# crystal, experimental, refinement or atomic coordinate data resulting 
# from the CCDC's data processing and validation procedures.
#
#######################################################################

data_RAQSIM
_chemical_formula_moiety         'C19 H20 N2'
_chemical_name_systematic        
15,15-Dimethyl-5,10-dihydro-15H-dipyrrolo[1,2-b:2',1'-e][2,6]benzodiazonine
_symmetry_cell_setting           monoclinic
_symmetry_space_group_name_H-M   'P 21/n'
_symmetry_Int_Tables_number      14
_space_group_name_Hall           '-P 2yn'
loop_
_symmetry_equiv_pos_site_id
_symmetry_equiv_pos_as_xyz
1 x,y,z
2 1/2-x,1/2+y,1/2-z
3 -x,-y,-z
4 1/2+x,1/2-y,1/2+z
_cell_length_a                   10.6174(3)
_cell_length_b                   10.8429(3)
_cell_length_c                   13.0022(4)
_cell_angle_alpha                90
_cell_angle_beta                 92.677(2)
_cell_angle_gamma                90
_cell_volume                     1495.22
_exptl_crystal_colour            colorless
_exptl_crystal_description       rod
_chemical_melting_point          147deg.C
_cell_formula_units_Z            4
_exptl_crystal_recrystallization_method sublimation
loop_
_atom_site_label
_atom_site_type_symbol
_atom_site_fract_x
_atom_site_fract_y
_atom_site_fract_z
C1 C 0.19321(13) 0.80947(13) 0.12976(11)
C2 C 0.13069(13) 0.92385(13) 0.12451(11)
C3 C 0.20028(15) 1.03038(15) 0.10960(12)
C4 C 0.32962(15) 1.02587(17) 0.09915(12)
C5 C 0.39132(16) 0.91422(17) 0.10541(12)
C6 C 0.32316(14) 0.80728(15) 0.12054(12)
C7 C 0.12376(14) 0.68910(14) 0.14445(13)
N1 N 0.02053(11) 0.67131(11) 0.06756(9)
C8 C -0.10859(13) 0.67848(12) 0.07876(11)
C9 C -0.16437(17) 0.66149(14) -0.01755(12)
C10 C -0.06945(17) 0.64587(15) -0.08814(13)
C11 C 0.04297(17) 0.65260(14) -0.03450(12)
C12 C -0.00963(14) 0.93525(14) 0.13844(12)
N2 N -0.04368(10) 0.88542(11) 0.23796(9)
C13 C -0.10528(12) 0.77647(13) 0.25945(11)
C14 C -0.10171(14) 0.76515(16) 0.36487(12)
C15 C -0.03573(15) 0.86724(16) 0.40796(13)
C16 C -0.00058(15) 0.93858(16) 0.32896(12)
C17 C -0.17123(13) 0.69284(13) 0.18078(11)
C18 C -0.18361(18) 0.56302(16) 0.22828(15)
C19 C -0.30507(15) 0.74526(18) 0.15913(16)
H1 H 0.1559(14) 1.1094(15) 0.1070(12)
H2 H 0.3758(14) 1.1014(15) 0.0911(12)
H3 H 0.4830(16) 0.9104(15) 0.0970(12)
H4 H 0.3681(14) 0.7238(16) 0.1230(12)
H5 H 0.1821(14) 0.6209(14) 0.1367(11)
H6 H 0.0872(13) 0.6849(12) 0.2138(12)
H7 H -0.2538(15) 0.6614(14) -0.0338(12)
H8 H -0.0802(16) 0.6306(16) -0.1620(14)
H9 H 0.1288(16) 0.6456(15) -0.0562(13)
H10 H -0.0321(13) 1.0259(16) 0.1377(11)
H11 H -0.0608(14) 0.8905(14) 0.0836(12)
H12 H -0.1404(15) 0.6994(15) 0.4024(13)
H13 H -0.0199(15) 0.8855(15) 0.4828(14)
H14 H 0.0485(15) 1.0181(16) 0.3249(12)
H15 H -0.2312(14) 0.5074(15) 0.1777(12)
H16 H -0.2310(15) 0.5659(15) 0.2946(13)
H17 H -0.0978(18) 0.5255(18) 0.2448(14)
H18 H -0.3570(16) 0.6871(16) 0.1130(14)
H19 H -0.2998(15) 0.8283(17) 0.1219(13)
H20 H -0.3495(16) 0.7546(15) 0.2259(15)
loop_
_geom_bond_atom_site_label_1
_geom_bond_atom_site_label_2
_geom_bond_site_symmetry_1
_geom_bond_site_symmetry_2
C1 C2 1_555 1_555
C2 C3 1_555 1_555
C3 C4 1_555 1_555
C4 C5 1_555 1_555
C5 C6 1_555 1_555
C6 C1 1_555 1_555
C7 C1 1_555 1_555
N1 C7 1_555 1_555
C8 N1 1_555 1_555
C9 C8 1_555 1_555
C10 C9 1_555 1_555
C11 N1 1_555 1_555
C12 C2 1_555 1_555
N2 C12 1_555 1_555
C13 N2 1_555 1_555
C14 C13 1_555 1_555
C15 C14 1_555 1_555
C16 N2 1_555 1_555
C17 C8 1_555 1_555
C18 C17 1_555 1_555
C19 C17 1_555 1_555
H1 C3 1_555 1_555
H2 C4 1_555 1_555
H3 C5 1_555 1_555
H4 C6 1_555 1_555
H5 C7 1_555 1_555
H6 C7 1_555 1_555
H7 C9 1_555 1_555
H8 C10 1_555 1_555
H9 C11 1_555 1_555
H10 C12 1_555 1_555
H11 C12 1_555 1_555
H12 C14 1_555 1_555
H13 C15 1_555 1_555
H14 C16 1_555 1_555
H15 C18 1_555 1_555
H16 C18 1_555 1_555
H17 C18 1_555 1_555
H18 C19 1_555 1_555
H19 C19 1_555 1_555
H20 C19 1_555 1_555
C10 C11 1_555 1_555
C13 C17 1_555 1_555
C15 C16 1_555 1_555

#END
