
#######################################################################
#
#                 Cambridge Crystallographic Data Centre
#                                CCDC 
#
#######################################################################
#
# If this CIF has been generated from an entry in the Cambridge 
# Structural Database, then it will include bibliographic, chemical, 
# crystal, experimental, refinement or atomic coordinate data resulting 
# from the CCDC's data processing and validation procedures.
#
#######################################################################

data_RAQVAJ
_chemical_formula_moiety         'C22 H21 N3 O6'
_chemical_name_systematic        
'ethyl 5-(acetyloxy)-4-(2-nitro-1-phenylethyl)-1-phenyl-1H-pyrazole-3-carboxylate'
_symmetry_cell_setting           monoclinic
_symmetry_space_group_name_H-M   'P 21'
_symmetry_Int_Tables_number      4
_space_group_name_Hall           'P 2yb'
loop_
_symmetry_equiv_pos_site_id
_symmetry_equiv_pos_as_xyz
1 x,y,z
2 -x,1/2+y,-z
_cell_length_a                   5.4178(6)
_cell_length_b                   21.577(2)
_cell_length_c                   9.0649(9)
_cell_angle_alpha                90
_cell_angle_beta                 98.604(2)
_cell_angle_gamma                90
_cell_volume                     1047.76
_cell_formula_units_Z            2
loop_
_atom_site_label
_atom_site_type_symbol
_atom_site_fract_x
_atom_site_fract_y
_atom_site_fract_z
N1 N 0.3066(5) 0.58853(13) 0.5046(3)
N2 N 0.4887(6) 0.56430(13) 0.6070(3)
N3 N 0.5575(9) 0.80239(16) 0.9000(4)
O1 O 0.9023(5) 0.54754(12) 0.8058(3)
O2 O 0.9306(6) 0.64820(14) 0.8566(4)
O3 O 0.7747(8) 0.81689(14) 0.8977(4)
O4 O 0.4099(8) 0.83208(17) 0.9609(4)
O5 O 0.1573(4) 0.68670(10) 0.4093(3)
O6 O 0.4097(5) 0.66719(14) 0.2375(3)
C1 C 0.6033(6) 0.61334(17) 0.6761(4)
C2 C 0.5001(6) 0.67001(16) 0.6192(4)
C3 C 0.3148(6) 0.65136(16) 0.5096(4)
C4 C 0.1491(7) 0.54815(17) 0.4071(4)
C5 C 0.2366(7) 0.49027(17) 0.3784(4)
H1 H 0.3940 0.4776 0.4234
C6 C 0.0886(8) 0.45116(18) 0.2819(5)
H2 H 0.1470 0.4120 0.2621
C7 C -0.1432(8) 0.4696(2) 0.2154(5)
H3 H -0.2415 0.4432 0.1501
C8 C -0.2303(8) 0.5275(2) 0.2456(5)
H4 H -0.3876 0.5401 0.2000
C9 C -0.0866(7) 0.56691(18) 0.3426(4)
H5 H -0.1474 0.6056 0.3645
C10 C 0.8260(7) 0.60528(18) 0.7903(4)
C11 C 1.1328(7) 0.5374(2) 0.9093(4)
H6 H 1.1048 0.5435 1.0115
H7 H 1.2621 0.5658 0.8884
C12 C 1.2067(9) 0.4716(2) 0.8851(5)
H8 H 1.0816 0.4441 0.9123
H9 H 1.3639 0.4630 0.9456
H10 H 1.2217 0.4657 0.7819
C13 C 0.4673(8) 0.74364(17) 0.8218(4)
H11 H 0.2864 0.7442 0.8015
H12 H 0.5171 0.7087 0.8869
C14 C 0.5704(7) 0.73495(16) 0.6760(4)
H13 H 0.7527 0.7359 0.7005
C15 C 0.4979(6) 0.78581(16) 0.5611(4)
C16 C 0.3004(7) 0.82616(18) 0.5659(4)
H14 H 0.2024 0.8223 0.6413
C17 C 0.2473(8) 0.87247(18) 0.4589(4)
H15 H 0.1150 0.8995 0.4636
C18 C 0.3887(8) 0.87830(19) 0.3472(5)
H16 H 0.3527 0.9091 0.2754
C19 C 0.5839(7) 0.83854(19) 0.3414(5)
H17 H 0.6805 0.8424 0.2653
C20 C 0.6381(7) 0.79315(17) 0.4470(4)
H18 H 0.7721 0.7667 0.4417
C21 C 0.2282(7) 0.69168(17) 0.2674(4)
C22 C 0.0448(7) 0.7306(2) 0.1706(4)
H19 H 0.0550 0.7220 0.0678
H20 H 0.0812 0.7736 0.1909
H21 H -0.1205 0.7215 0.1905
loop_
_geom_bond_atom_site_label_1
_geom_bond_atom_site_label_2
_geom_bond_site_symmetry_1
_geom_bond_site_symmetry_2
N1 N2 1_555 1_555
N2 C1 1_555 1_555
N3 O3 1_555 1_555
O1 C10 1_555 1_555
O2 C10 1_555 1_555
O4 N3 1_555 1_555
O5 C3 1_555 1_555
O6 C21 1_555 1_555
C1 C2 1_555 1_555
C2 C3 1_555 1_555
C3 N1 1_555 1_555
C4 N1 1_555 1_555
C5 C4 1_555 1_555
H1 C5 1_555 1_555
C6 C5 1_555 1_555
H2 C6 1_555 1_555
C7 C6 1_555 1_555
H3 C7 1_555 1_555
C8 C7 1_555 1_555
H4 C8 1_555 1_555
C9 C4 1_555 1_555
H5 C9 1_555 1_555
C10 C1 1_555 1_555
C11 O1 1_555 1_555
H6 C11 1_555 1_555
H7 C11 1_555 1_555
C12 C11 1_555 1_555
H8 C12 1_555 1_555
H9 C12 1_555 1_555
H10 C12 1_555 1_555
C13 N3 1_555 1_555
H11 C13 1_555 1_555
H12 C13 1_555 1_555
C14 C2 1_555 1_555
H13 C14 1_555 1_555
C15 C14 1_555 1_555
C16 C15 1_555 1_555
H14 C16 1_555 1_555
C17 C16 1_555 1_555
H15 C17 1_555 1_555
C18 C17 1_555 1_555
H16 C18 1_555 1_555
C19 C18 1_555 1_555
H17 C19 1_555 1_555
C20 C15 1_555 1_555
H18 C20 1_555 1_555
C21 O5 1_555 1_555
C22 C21 1_555 1_555
H19 C22 1_555 1_555
H20 C22 1_555 1_555
H21 C22 1_555 1_555
C8 C9 1_555 1_555
C13 C14 1_555 1_555
C19 C20 1_555 1_555

#END
