
#######################################################################
#
#                 Cambridge Crystallographic Data Centre
#                                CCDC 
#
#######################################################################
#
# If this CIF has been generated from an entry in the Cambridge 
# Structural Database, then it will include bibliographic, chemical, 
# crystal, experimental, refinement or atomic coordinate data resulting 
# from the CCDC's data processing and validation procedures.
#
#######################################################################

data_RAQWAK
_chemical_formula_moiety         'C26 H16 O4 S1'
_chemical_name_systematic        
3-benzoyl-2-(2-methoxyphenyl)naphtho[2,3-b]thiophene-4,9-dione
_symmetry_cell_setting           orthorhombic
_symmetry_space_group_name_H-M   'P b c a'
_symmetry_Int_Tables_number      61
_space_group_name_Hall           '-P 2ac 2ab'
loop_
_symmetry_equiv_pos_site_id
_symmetry_equiv_pos_as_xyz
1 x,y,z
2 1/2-x,-y,1/2+z
3 -x,1/2+y,1/2-z
4 1/2+x,1/2-y,-z
5 -x,-y,-z
6 1/2+x,y,1/2-z
7 x,1/2-y,1/2+z
8 1/2-x,1/2+y,z
_cell_length_a                   13.027(3)
_cell_length_b                   9.071(2)
_cell_length_c                   33.139(7)
_cell_angle_alpha                90
_cell_angle_beta                 90
_cell_angle_gamma                90
_cell_volume                     3915.97
_exptl_crystal_colour            yellow
_exptl_crystal_description       block
_cell_formula_units_Z            8
loop_
_atom_site_label
_atom_site_type_symbol
_atom_site_fract_x
_atom_site_fract_y
_atom_site_fract_z
S1 S 0.69623(3) 0.17100(4) 0.378772(10)
O1 O 1.05478(9) 0.01846(14) 0.39820(4)
O2 O 0.59099(8) 0.27399(13) 0.31867(3)
O3 O 0.66539(9) -0.02695(14) 0.45269(3)
C1 C 0.84137(13) -0.08727(18) 0.46292(4)
C2 C 0.76548(12) 0.33627(15) 0.31270(4)
C3 C 0.79158(11) 0.23734(16) 0.34654(4)
C4 C 0.88212(11) 0.09374(17) 0.39291(4)
C5 C 0.75469(13) -0.01277(17) 0.44192(4)
C6 C 0.78349(12) 0.07805(17) 0.40728(4)
O4 O 1.01355(9) 0.15131(14) 0.30740(3)
C7 C 1.02047(14) -0.15300(18) 0.46816(5)
H1 H 1.0875 -0.1473 0.4586
C8 C 0.66428(12) 0.34995(17) 0.29803(4)
C9 C 1.05824(12) 0.32698(17) 0.35708(4)
C10 C 0.96780(12) 0.01242(18) 0.41187(5)
C11 C 0.94243(13) -0.07719(17) 0.44818(4)
C12 C 0.81976(13) 0.50786(18) 0.26049(5)
H2 H 0.8717 0.5619 0.2481
C13 C 0.84145(12) 0.42020(18) 0.29362(4)
H3 H 0.9083 0.4170 0.3035
C14 C 1.02236(12) 0.42153(18) 0.38700(4)
H4 H 0.9548 0.4146 0.3958
C15 C 0.88760(12) 0.18525(16) 0.35827(4)
C16 C 0.72059(13) 0.51466(18) 0.24589(5)
H5 H 0.7061 0.5722 0.2234
C17 C 0.82119(15) -0.1703(2) 0.49726(5)
H6 H 0.7546 -0.1763 0.5072
C18 C 0.64272(13) 0.43678(18) 0.26445(5)
H7 H 0.5760 0.4423 0.2545
C19 C 1.16002(13) 0.3387(2) 0.34433(5)
H8 H 1.1845 0.2768 0.3241
C20 C 0.98962(12) 0.21571(17) 0.33808(4)
C21 C 0.99916(16) -0.2366(2) 0.50203(6)
H9 H 1.0516 -0.2876 0.5150
C22 C 0.48782(12) 0.2730(2) 0.30395(5)
H10 H 0.4607 0.3714 0.3045
H11 H 0.4465 0.2103 0.3207
H12 H 0.4870 0.2368 0.2767
C23 C 1.08760(14) 0.52635(19) 0.40368(5)
H13 H 1.0632 0.5908 0.4233
C24 C 1.18875(14) 0.5350(2) 0.39115(5)
H14 H 1.2327 0.6039 0.4027
C25 C 0.90010(16) -0.2443(2) 0.51667(5)
H15 H 0.8862 -0.2995 0.5397
C26 C 1.22435(14) 0.4413(2) 0.36154(5)
H16 H 1.2923 0.4474 0.3531
loop_
_geom_bond_atom_site_label_1
_geom_bond_atom_site_label_2
_geom_bond_site_symmetry_1
_geom_bond_site_symmetry_2
S1 C3 1_555 1_555
O1 C10 1_555 1_555
O2 C8 1_555 1_555
O3 C5 1_555 1_555
C1 C5 1_555 1_555
C2 C3 1_555 1_555
C3 C15 1_555 1_555
C4 C6 1_555 1_555
C5 C6 1_555 1_555
C6 S1 1_555 1_555
O4 C20 1_555 1_555
C7 H1 1_555 1_555
C8 C2 1_555 1_555
C9 C14 1_555 1_555
C10 C4 1_555 1_555
C11 C1 1_555 1_555
C12 H2 1_555 1_555
C13 C2 1_555 1_555
H3 C13 1_555 1_555
C14 H4 1_555 1_555
C15 C4 1_555 1_555
C16 C12 1_555 1_555
H5 C16 1_555 1_555
C17 C1 1_555 1_555
H6 C17 1_555 1_555
C18 C8 1_555 1_555
H7 C18 1_555 1_555
C19 C9 1_555 1_555
H8 C19 1_555 1_555
C20 C9 1_555 1_555
C21 C7 1_555 1_555
H9 C21 1_555 1_555
C22 O2 1_555 1_555
H10 C22 1_555 1_555
H11 C22 1_555 1_555
H12 C22 1_555 1_555
C23 C14 1_555 1_555
H13 C23 1_555 1_555
C24 C23 1_555 1_555
H14 C24 1_555 1_555
C25 C17 1_555 1_555
H15 C25 1_555 1_555
C26 C19 1_555 1_555
H16 C26 1_555 1_555
C7 C11 1_555 1_555
C10 C11 1_555 1_555
C12 C13 1_555 1_555
C15 C20 1_555 1_555
C16 C18 1_555 1_555
C21 C25 1_555 1_555
C24 C26 1_555 1_555

#END
