
#######################################################################
#
#                 Cambridge Crystallographic Data Centre
#                                CCDC 
#
#######################################################################
#
# If this CIF has been generated from an entry in the Cambridge 
# Structural Database, then it will include bibliographic, chemical, 
# crystal, experimental, refinement or atomic coordinate data resulting 
# from the CCDC's data processing and validation procedures.
#
#######################################################################

data_RAQZUH
_chemical_formula_moiety         'C9 H11 N4 O1 1+,Cl1 1-'
_chemical_name_systematic        
'4-((4-hydroxybenzylidene)amino)-4,5-dihydro-1H-1,2,4-triazol-2-ium chloride'
_symmetry_cell_setting           triclinic
_symmetry_space_group_name_H-M   'P -1'
_symmetry_Int_Tables_number      2
_space_group_name_Hall           '-P 1'
loop_
_symmetry_equiv_pos_site_id
_symmetry_equiv_pos_as_xyz
1 x,y,z
2 -x,-y,-z
_cell_length_a                   6.4952(13)
_cell_length_b                   7.5138(15)
_cell_length_c                   10.839(2)
_cell_angle_alpha                97.30(3)
_cell_angle_beta                 93.46(3)
_cell_angle_gamma                102.79(3)
_cell_volume                     509.531
_exptl_crystal_colour            yellow
_exptl_crystal_description       block
_cell_formula_units_Z            2
loop_
_atom_site_label
_atom_site_type_symbol
_atom_site_fract_x
_atom_site_fract_y
_atom_site_fract_z
Cl1 Cl 0.13123(8) 0.80509(8) 0.07023(5)
N1 N 0.0763(3) 0.1446(3) 0.33537(17)
N2 N -0.1365(3) 0.0524(3) 0.30679(17)
O1 O 1.0092(3) 0.6233(3) 0.30743(19)
H1 H 1.0448 0.6623 0.2428
N3 N -0.4485(3) -0.0759(3) 0.22814(18)
H2 H -0.5571 -0.1180 0.1745
C1 C 0.3844(3) 0.3234(3) 0.2646(2)
C2 C 0.5114(4) 0.3459(3) 0.3768(2)
H3 H 0.4554 0.2933 0.4442
N4 N -0.4512(3) -0.0916(3) 0.3506(2)
C3 C -0.2622(3) 0.0107(3) 0.1992(2)
C4 C 0.1638(4) 0.2236(3) 0.2484(2)
H4 H 0.0847 0.2172 0.1728
C5 C 0.8049(3) 0.5232(3) 0.2885(2)
C6 C 0.6843(4) 0.4980(4) 0.1758(2)
H5 H 0.7433 0.5461 0.1076
C7 C 0.7189(4) 0.4452(4) 0.3885(2)
H6 H 0.8015 0.4599 0.4639
C8 C 0.4743(4) 0.4003(4) 0.1647(2)
H7 H 0.3925 0.3860 0.0891
C9 C -0.2599(4) -0.0129(4) 0.3976(2)
loop_
_geom_bond_atom_site_label_1
_geom_bond_atom_site_label_2
_geom_bond_site_symmetry_1
_geom_bond_site_symmetry_2
N1 N2 1_555 1_555
N2 C3 1_555 1_555
O1 H1 1_555 1_555
N3 H2 1_555 1_555
C1 C2 1_555 1_555
C2 H3 1_555 1_555
N4 N3 1_555 1_555
C3 N3 1_555 1_555
C4 N1 1_555 1_555
H4 C4 1_555 1_555
C5 O1 1_555 1_555
C6 C5 1_555 1_555
H5 C6 1_555 1_555
C7 C2 1_555 1_555
H6 C7 1_555 1_555
C8 C1 1_555 1_555
H7 C8 1_555 1_555
C9 N2 1_555 1_555
C1 C4 1_555 1_555
N4 C9 1_555 1_555
C5 C7 1_555 1_555
C6 C8 1_555 1_555

#END
