
#######################################################################
#
#                 Cambridge Crystallographic Data Centre
#                                CCDC 
#
#######################################################################
#
# If this CIF has been generated from an entry in the Cambridge 
# Structural Database, then it will include bibliographic, chemical, 
# crystal, experimental, refinement or atomic coordinate data resulting 
# from the CCDC's data processing and validation procedures.
#
#######################################################################

data_RARBAQ
_chemical_formula_moiety         'C9 H9 N4 O1 1+,Cl1 O4 1-'
_chemical_name_systematic        
'4-((4-hydroxybenzylidene)amino)-4H-1,2,4-triazol-1-ium perchlorate'
_symmetry_cell_setting           monoclinic
_symmetry_space_group_name_H-M   'P 21/c'
_symmetry_Int_Tables_number      14
_space_group_name_Hall           '-P 2ybc'
loop_
_symmetry_equiv_pos_site_id
_symmetry_equiv_pos_as_xyz
1 x,y,z
2 -x,1/2+y,1/2-z
3 -x,-y,-z
4 x,1/2-y,1/2+z
_cell_length_a                   7.1870(14)
_cell_length_b                   16.366(3)
_cell_length_c                   10.661(2)
_cell_angle_alpha                90
_cell_angle_beta                 95.43(3)
_cell_angle_gamma                90
_cell_volume                     1248.35
_exptl_crystal_colour            yellow
_exptl_crystal_description       stick
_cell_formula_units_Z            4
loop_
_atom_site_label
_atom_site_type_symbol
_atom_site_fract_x
_atom_site_fract_y
_atom_site_fract_z
O1 O 0.0201(7) 0.2687(3) 0.3435(5)
H1 H 0.0412 0.3094 0.3924
N1 N 0.4525(9) -0.2363(4) 0.7490(6)
C1 C 0.3912(10) -0.1625(5) 0.7288(8)
H2 H 0.3592 -0.1262 0.7903
N2 N 0.4800(9) -0.2654(4) 0.6356(6)
H3 H 0.5202 -0.3139 0.6230
C2 C 0.4400(11) -0.2133(4) 0.5469(7)
H4 H 0.4505 -0.2209 0.4614
N3 N 0.3811(9) -0.1468(3) 0.6014(6)
C3 C 0.2752(10) -0.0155(4) 0.5889(7)
H5 H 0.2871 -0.0164 0.6765
N4 N 0.3190(9) -0.0776(4) 0.5302(6)
C4 C 0.2065(10) 0.0575(4) 0.5242(7)
C5 C 0.1854(10) 0.0613(4) 0.3929(7)
H6 H 0.2142 0.0163 0.3451
C6 C 0.1209(10) 0.1330(4) 0.3345(7)
H7 H 0.1060 0.1360 0.2470
C7 C 0.0786(11) 0.2000(5) 0.4054(7)
C8 C 0.0907(11) 0.1970(5) 0.5343(7)
H8 H 0.0551 0.2412 0.5814
C9 C 0.1599(10) 0.1237(4) 0.5935(7)
H9 H 0.1737 0.1206 0.6810
Cl1 Cl 0.2489(3) 0.04799(12) 0.97598(18)
O2 O 0.3319(7) 0.0239(3) 1.1112(4)
O3 O 0.2072(6) -0.0313(3) 0.9008(4)
O4 O 0.3988(6) 0.0832(3) 0.9036(5)
O5 O 0.0998(7) 0.1066(3) 0.9846(5)
loop_
_geom_bond_atom_site_label_1
_geom_bond_atom_site_label_2
_geom_bond_site_symmetry_1
_geom_bond_site_symmetry_2
O1 H1 1_555 1_555
N1 C1 1_555 1_555
C1 H2 1_555 1_555
N2 N1 1_555 1_555
H3 N2 1_555 1_555
C2 N2 1_555 1_555
H4 C2 1_555 1_555
N3 C1 1_555 1_555
C3 H5 1_555 1_555
N4 N3 1_555 1_555
C4 C3 1_555 1_555
C5 C4 1_555 1_555
H6 C5 1_555 1_555
C6 C5 1_555 1_555
H7 C6 1_555 1_555
C7 O1 1_555 1_555
C8 C7 1_555 1_555
H8 C8 1_555 1_555
C9 C4 1_555 1_555
H9 C9 1_555 1_555
Cl1 O2 1_555 1_555
O3 Cl1 1_555 1_555
O4 Cl1 1_555 1_555
O5 Cl1 1_555 1_555
C2 N3 1_555 1_555
C3 N4 1_555 1_555
C6 C7 1_555 1_555
C8 C9 1_555 1_555

#END
