
#######################################################################
#
#                 Cambridge Crystallographic Data Centre
#                                CCDC 
#
#######################################################################
#
# If this CIF has been generated from an entry in the Cambridge 
# Structural Database, then it will include bibliographic, chemical, 
# crystal, experimental, refinement or atomic coordinate data resulting 
# from the CCDC's data processing and validation procedures.
#
#######################################################################

data_RARBUJ
_chemical_compound_source        
'whole plant of Incarvillea younghusbandii (Bignoniaceae)'
_chemical_name_common            Incarvilleatone
_chemical_formula_moiety         'C16 H20 O6'
_chemical_name_systematic        
rac-4,10-Dihydroxy-2,7,17-trioxahexacyclo[10.7.0.0^1,16^.0^3,11^.0^4,8^.0^10,15^]nonadecan-14-one
_symmetry_cell_setting           monoclinic
_symmetry_space_group_name_H-M   'P 21/c'
_symmetry_Int_Tables_number      14
_space_group_name_Hall           '-P 2ybc'
loop_
_symmetry_equiv_pos_site_id
_symmetry_equiv_pos_as_xyz
1 x,y,z
2 -x,1/2+y,1/2-z
3 -x,-y,-z
4 x,1/2-y,1/2+z
_cell_length_a                   12.3527(5)
_cell_length_b                   9.3339(4)
_cell_length_c                   12.0346(5)
_cell_angle_alpha                90
_cell_angle_beta                 96.164(1)
_cell_angle_gamma                90
_cell_volume                     1379.55
_exptl_crystal_colour            colorless
_exptl_crystal_description       block
_cell_formula_units_Z            4
_exptl_crystal_recrystallization_method chloroform/methanol
loop_
_atom_site_label
_atom_site_type_symbol
_atom_site_fract_x
_atom_site_fract_y
_atom_site_fract_z
C1 C 0.26691(13) -0.33597(17) 0.76859(14)
H1 H 0.3070 -0.4192 0.8034
H2 H 0.1914 -0.3657 0.7432
C2 C 0.26786(13) -0.21147(17) 0.85073(13)
H3 H 0.3354 -0.2115 0.9030
H4 H 0.2043 -0.2160 0.8942
C3 C 0.26219(11) -0.07909(16) 0.77539(11)
C4 C 0.34545(12) 0.04076(16) 0.80229(11)
H5 H 0.3430 0.0755 0.8806
C5 C 0.46130(11) -0.00472(16) 0.78397(12)
H6 H 0.5111 0.0782 0.7964
H7 H 0.4866 -0.0805 0.8382
C6 C 0.46339(12) -0.06003(15) 0.66671(12)
C7 C 0.35402(11) -0.04962(15) 0.59781(11)
H8 H 0.3581 -0.0841 0.5197
C8 C 0.27564(12) -0.14102(15) 0.65777(12)
H9 H 0.2032 -0.1468 0.6120
C9 C 0.01860(13) 0.32127(16) 0.48613(13)
H10 H -0.0611 0.3368 0.4782
H11 H 0.0526 0.3977 0.4446
C10 C 0.06393(12) 0.32428(16) 0.61003(12)
H12 H 0.1311 0.3826 0.6217
H13 H 0.0096 0.3630 0.6569
C11 C 0.08766(11) 0.16659(15) 0.63635(12)
C12 C 0.17306(12) 0.13888(15) 0.73582(11)
H14 H 0.1581 0.2050 0.7978
C13 C 0.29438(11) 0.15306(15) 0.71784(11)
H15 H 0.3218 0.2512 0.7389
C14 C 0.32347(11) 0.11243(15) 0.59973(11)
C15 C 0.23513(11) 0.15570(15) 0.50707(11)
H16 H 0.2373 0.2611 0.4984
H17 H 0.2531 0.1129 0.4361
C16 C 0.11941(12) 0.11247(15) 0.52472(11)
H18 H 0.1109 0.0061 0.5195
O1 O 0.32015(9) -0.28099(11) 0.67672(9)
O2 O 0.04368(8) 0.18196(11) 0.44270(8)
O3 O 0.54494(8) -0.10842(11) 0.63167(8)
O4 O 0.42065(8) 0.19197(11) 0.58495(8)
H19 H 0.4399 0.1745 0.5215
O5 O 0.15919(8) -0.00765(11) 0.77322(8)
O6 O -0.01378(8) 0.10609(11) 0.65941(8)
H20 H -0.0068 0.0171 0.6676
loop_
_geom_bond_atom_site_label_1
_geom_bond_atom_site_label_2
_geom_bond_site_symmetry_1
_geom_bond_site_symmetry_2
C1 H1 1_555 1_555
H2 C1 1_555 1_555
C2 C1 1_555 1_555
H3 C2 1_555 1_555
H4 C2 1_555 1_555
C3 C2 1_555 1_555
C4 C3 1_555 1_555
H5 C4 1_555 1_555
C5 C4 1_555 1_555
H6 C5 1_555 1_555
H7 C5 1_555 1_555
C6 C5 1_555 1_555
C7 C6 1_555 1_555
H8 C7 1_555 1_555
C8 C3 1_555 1_555
H9 C8 1_555 1_555
C9 H10 1_555 1_555
H11 C9 1_555 1_555
C10 C9 1_555 1_555
H12 C10 1_555 1_555
H13 C10 1_555 1_555
C11 C10 1_555 1_555
C12 C11 1_555 1_555
H14 C12 1_555 1_555
C13 C4 1_555 1_555
H15 C13 1_555 1_555
C14 C7 1_555 1_555
C15 C14 1_555 1_555
H16 C15 1_555 1_555
H17 C15 1_555 1_555
C16 C11 1_555 1_555
H18 C16 1_555 1_555
O1 C1 1_555 1_555
O2 C9 1_555 1_555
O3 C6 1_555 1_555
O4 C14 1_555 1_555
H19 O4 1_555 1_555
O5 C3 1_555 1_555
O6 C11 1_555 1_555
H20 O6 1_555 1_555
C7 C8 1_555 1_555
C8 O1 1_555 1_555
C12 C13 1_555 1_555
C12 O5 1_555 1_555
C13 C14 1_555 1_555
C15 C16 1_555 1_555
C16 O2 1_555 1_555

#END
