
#######################################################################
#
#                 Cambridge Crystallographic Data Centre
#                                CCDC 
#
#######################################################################
#
# If this CIF has been generated from an entry in the Cambridge 
# Structural Database, then it will include bibliographic, chemical, 
# crystal, experimental, refinement or atomic coordinate data resulting 
# from the CCDC's data processing and validation procedures.
#
#######################################################################

data_RARBOD
_chemical_formula_moiety         'C24 H30 N3 O3 P3'
_chemical_name_systematic        
cis-2,4,6-tris(4-Methoxyphenyl)-2,4,6-trimethyl-1,3,5,2,4,6-triazatriphosphinine
_symmetry_cell_setting           triclinic
_symmetry_space_group_name_H-M   'P -1'
_symmetry_Int_Tables_number      2
_space_group_name_Hall           '-P 1'
loop_
_symmetry_equiv_pos_site_id
_symmetry_equiv_pos_as_xyz
1 x,y,z
2 -x,-y,-z
_cell_length_a                   11.396(3)
_cell_length_b                   11.992(4)
_cell_length_c                   11.295(5)
_cell_angle_alpha                111.89(3)
_cell_angle_beta                 95.02(3)
_cell_angle_gamma                108.23(3)
_cell_volume                     1323.41
_exptl_crystal_colour            colorless
_exptl_crystal_description       cube
_cell_formula_units_Z            2
loop_
_atom_site_label
_atom_site_type_symbol
_atom_site_fract_x
_atom_site_fract_y
_atom_site_fract_z
P1 P 0.3283(2) 0.1365(2) 0.0814(2)
P2 P 0.2979(2) -0.0815(2) 0.1309(2)
P3 P 0.5055(2) 0.1481(2) 0.2775(2)
O1 O -0.0223(5) 0.4157(6) 0.2855(5)
O2 O 0.4306(5) 0.4002(4) 0.8222(4)
O3 O -0.1130(4) -0.2080(4) 0.4126(5)
N1 N 0.4347(4) -0.0046(4) 0.2299(4)
N2 N 0.2583(4) -0.0145(4) 0.0429(4)
N3 N 0.4640(4) 0.2097(4) 0.1862(4)
C1 C 0.4890(5) 0.2312(6) 0.4423(6)
C2 C 0.4427(6) 0.3302(6) 0.4758(6)
C3 C 0.4234(6) 0.3874(5) 0.6018(7)
C4 C 0.4495(6) 0.3513(6) 0.7007(8)
C5 C 0.4952(6) 0.2506(7) 0.6646(6)
C6 C 0.5169(6) 0.1926(6) 0.5410(7)
C7 C 0.2210(7) 0.2199(6) 0.1399(5)
C8 C 0.2612(6) 0.3537(8) 0.1836(7)
C9 C 0.1813(9) 0.4212(6) 0.2330(7)
C10 C 0.0582(9) 0.3599(8) 0.2405(7)
C11 C 0.0214(5) 0.2259(9) 0.1933(6)
C12 C 0.0985(7) 0.1552(6) 0.1461(5)
C13 C 0.1778(6) -0.1161(5) 0.2202(6)
C14 C 0.2054(6) -0.0855(6) 0.3538(7)
C15 C 0.1095(8) -0.1147(6) 0.4197(5)
C16 C -0.0162(8) -0.1754(6) 0.3555(7)
C17 C -0.0437(6) -0.2043(6) 0.2235(8)
C18 C 0.0496(8) -0.1778(6) 0.1555(6)
C19 C 0.3510(5) 0.1571(5) -0.0644(5)
C20 C 0.6715(5) 0.1829(6) 0.2962(6)
C21 C 0.2896(6) -0.2378(5) 0.0208(5)
C22 C 0.3698(6) 0.4931(6) 0.8535(6)
C23 C 0.0185(8) 0.5529(7) 0.330(1)
C24 C -0.0837(7) -0.1858(7) 0.5486(6)
H1 H 0.4294 0.2266 -0.0516
H2 H 0.3528 0.0797 -0.1344
H3 H 0.2833 0.1761 -0.1020
H4 H 0.7124 0.1906 0.3790
H5 H 0.6912 0.1175 0.2283
H6 H 0.7172 0.2646 0.2912
H7 H 0.2846 -0.2948 0.0631
H8 H 0.2153 -0.2806 -0.0520
H9 H 0.3624 -0.2328 -0.0177
H10 H 0.4194 0.3613 0.4101
H11 H 0.3921 0.4604 0.6250
H12 H 0.5155 0.2158 0.7299
H13 H 0.5517 0.1213 0.5172
H14 H 0.3507 0.3994 0.1789
H15 H 0.2188 0.5170 0.2614
H16 H -0.0674 0.1743 0.1926
H17 H 0.0638 0.0579 0.1145
H18 H 0.2975 -0.0423 0.4013
H19 H 0.1374 -0.0896 0.5150
H20 H -0.1348 -0.2472 0.1732
H21 H 0.0237 -0.2056 0.0580
loop_
_geom_bond_atom_site_label_1
_geom_bond_atom_site_label_2
_geom_bond_site_symmetry_1
_geom_bond_site_symmetry_2
P1 N2 1_555 1_555
P2 N1 1_555 1_555
P3 N1 1_555 1_555
O1 C10 1_555 1_555
O2 C4 1_555 1_555
O3 C16 1_555 1_555
N2 P2 1_555 1_555
N3 P1 1_555 1_555
C1 P3 1_555 1_555
C2 C1 1_555 1_555
C3 C2 1_555 1_555
C4 C3 1_555 1_555
C5 C4 1_555 1_555
C6 C1 1_555 1_555
C7 P1 1_555 1_555
C8 C7 1_555 1_555
C9 C8 1_555 1_555
C10 C9 1_555 1_555
C11 C10 1_555 1_555
C12 C7 1_555 1_555
C13 P2 1_555 1_555
C14 C13 1_555 1_555
C15 C14 1_555 1_555
C16 C15 1_555 1_555
C17 C16 1_555 1_555
C18 C13 1_555 1_555
C19 P1 1_555 1_555
C20 P3 1_555 1_555
C21 P2 1_555 1_555
C22 O2 1_555 1_555
C23 O1 1_555 1_555
C24 O3 1_555 1_555
H1 C19 1_555 1_555
H2 C19 1_555 1_555
H3 C19 1_555 1_555
H4 C20 1_555 1_555
H5 C20 1_555 1_555
H6 C20 1_555 1_555
H7 C21 1_555 1_555
H8 C21 1_555 1_555
H9 C21 1_555 1_555
H10 C2 1_555 1_555
H11 C3 1_555 1_555
H12 C5 1_555 1_555
H13 C6 1_555 1_555
H14 C8 1_555 1_555
H15 C9 1_555 1_555
H16 C11 1_555 1_555
H17 C12 1_555 1_555
H18 C14 1_555 1_555
H19 C15 1_555 1_555
H20 C17 1_555 1_555
H21 C18 1_555 1_555
P3 N3 1_555 1_555
C5 C6 1_555 1_555
C11 C12 1_555 1_555
C17 C18 1_555 1_555

#END
