
#######################################################################
#
#                 Cambridge Crystallographic Data Centre
#                                CCDC 
#
#######################################################################
#
# If this CIF has been generated from an entry in the Cambridge 
# Structural Database, then it will include bibliographic, chemical, 
# crystal, experimental, refinement or atomic coordinate data resulting 
# from the CCDC's data processing and validation procedures.
#
#######################################################################

data_RARCIY
_chemical_formula_moiety         'C16 H10 I2'
_chemical_name_systematic        1,3-Diiodo-2-phenylnaphthalene
_symmetry_cell_setting           monoclinic
_symmetry_space_group_name_H-M   'C 2/c'
_symmetry_Int_Tables_number      15
_space_group_name_Hall           '-C 2yn'
loop_
_symmetry_equiv_pos_site_id
_symmetry_equiv_pos_as_xyz
1 x,y,z
2 -x,y,1/2-z
3 1/2+x,1/2+y,z
4 1/2-x,1/2+y,1/2-z
5 -x,-y,-z
6 x,-y,1/2+z
7 1/2-x,1/2-y,-z
8 1/2+x,1/2-y,1/2+z
_cell_length_a                   19.513(10)
_cell_length_b                   10.041(5)
_cell_length_c                   16.438(9)
_cell_angle_alpha                90
_cell_angle_beta                 115.177(4)
_cell_angle_gamma                90
_cell_volume                     2914.72
_exptl_crystal_colour            colorless
_exptl_crystal_description       block
_cell_formula_units_Z            8
loop_
_atom_site_label
_atom_site_type_symbol
_atom_site_fract_x
_atom_site_fract_y
_atom_site_fract_z
C1 C 0.3892(3) 0.8953(5) 0.1561(3)
C2 C 0.3722(3) 0.9196(5) 0.2270(4)
H1 H 0.3757 1.0061 0.2487
C3 C 0.3495(3) 0.8164(5) 0.2677(3)
C4 C 0.3305(3) 0.8414(6) 0.3410(4)
H2 H 0.3330 0.9278 0.3625
C5 C 0.3089(3) 0.7412(6) 0.3797(4)
H3 H 0.2964 0.7595 0.4272
C6 C 0.3052(3) 0.6102(6) 0.3491(3)
H4 H 0.2905 0.5420 0.3765
C7 C 0.3229(3) 0.5823(5) 0.2791(3)
H5 H 0.3201 0.4948 0.2593
C8 C 0.3455(2) 0.6833(5) 0.2361(3)
C9 C 0.3650(2) 0.6627(4) 0.1624(3)
C10 C 0.3849(2) 0.7642(4) 0.1201(3)
C11 C 0.4009(3) 0.7408(5) 0.0397(3)
C12 C 0.3465(3) 0.7681(5) -0.0452(3)
H6 H 0.2993 0.7994 -0.0529
C13 C 0.3618(3) 0.7494(6) -0.1194(4)
H7 H 0.3250 0.7690 -0.1767
C14 C 0.4311(3) 0.7019(5) -0.1085(4)
H8 H 0.4410 0.6886 -0.1584
C15 C 0.4861(3) 0.6739(6) -0.0236(4)
H9 H 0.5330 0.6419 -0.0163
C16 C 0.4713(3) 0.6934(5) 0.0506(4)
H10 H 0.5085 0.6750 0.1078
I1 I 0.42585(3) 1.05463(4) 0.10154(3)
I2 I 0.35997(3) 0.46557(4) 0.11417(3)
loop_
_geom_bond_atom_site_label_1
_geom_bond_atom_site_label_2
_geom_bond_site_symmetry_1
_geom_bond_site_symmetry_2
C1 C2 1_555 1_555
C2 H1 1_555 1_555
C3 C2 1_555 1_555
C4 C3 1_555 1_555
H2 C4 1_555 1_555
C5 C4 1_555 1_555
H3 C5 1_555 1_555
C6 C5 1_555 1_555
H4 C6 1_555 1_555
C7 C6 1_555 1_555
H5 C7 1_555 1_555
C8 C3 1_555 1_555
C9 C8 1_555 1_555
C10 C1 1_555 1_555
C11 C10 1_555 1_555
C12 C11 1_555 1_555
H6 C12 1_555 1_555
C13 C12 1_555 1_555
H7 C13 1_555 1_555
C14 C13 1_555 1_555
H8 C14 1_555 1_555
C15 C14 1_555 1_555
H9 C15 1_555 1_555
C16 C11 1_555 1_555
H10 C16 1_555 1_555
I1 C1 1_555 1_555
I2 C9 1_555 1_555
C7 C8 1_555 1_555
C9 C10 1_555 1_555
C15 C16 1_555 1_555

#END
