
#######################################################################
#
#                 Cambridge Crystallographic Data Centre
#                                CCDC 
#
#######################################################################
#
# If this CIF has been generated from an entry in the Cambridge 
# Structural Database, then it will include bibliographic, chemical, 
# crystal, experimental, refinement or atomic coordinate data resulting 
# from the CCDC's data processing and validation procedures.
#
#######################################################################

data_RARCAQ
_chemical_name_common            
(12-Methoxy-6,7-dimethyl-6,7-dihydrodibenzo[e,g][1,4]dioxocin-1-yl)(diphenyl)phosphine
_chemical_formula_moiety         'C29 H27 O3 P1'
_chemical_name_systematic        
(R)-(6,6'-((2S,3S)-butadioxy))-2-diphenylphosphino-2'-methoxybiphenyl
_symmetry_cell_setting           orthorhombic
_symmetry_space_group_name_H-M   'P 21 21 21'
_symmetry_Int_Tables_number      19
_space_group_name_Hall           'P 2ac 2ab'
loop_
_symmetry_equiv_pos_site_id
_symmetry_equiv_pos_as_xyz
1 x,y,z
2 1/2-x,-y,1/2+z
3 -x,1/2+y,1/2-z
4 1/2+x,1/2-y,-z
_cell_length_a                   8.0559(3)
_cell_length_b                   14.2981(5)
_cell_length_c                   21.0979(7)
_cell_angle_alpha                90
_cell_angle_beta                 90
_cell_angle_gamma                90
_cell_volume                     2430.14
_exptl_crystal_colour            colorless
_exptl_crystal_description       prism
_cell_formula_units_Z            4
loop_
_atom_site_label
_atom_site_type_symbol
_atom_site_fract_x
_atom_site_fract_y
_atom_site_fract_z
P1 P 0.53326(8) 0.62382(5) 0.78783(3)
O1 O 0.3537(2) 0.55636(12) 0.58511(8)
O2 O 0.4657(2) 0.73422(12) 0.55538(8)
O3 O 0.8226(2) 0.66668(13) 0.69617(8)
C1 C 0.5177(3) 0.54325(18) 0.60399(12)
C2 C 0.6015(4) 0.4636(2) 0.58481(15)
H1 H 0.5504 0.4194 0.5591
C3 C 0.7635(4) 0.4518(2) 0.60507(16)
H2 H 0.8212 0.3982 0.5933
C4 C 0.8412(4) 0.5175(2) 0.64224(14)
H3 H 0.9510 0.5089 0.6546
C5 C 0.7561(3) 0.59576(18) 0.66105(11)
C6 C 0.5890(3) 0.60814(17) 0.64398(11)
C7 C 0.4945(3) 0.69207(16) 0.66445(11)
C8 C 0.4319(3) 0.75230(18) 0.61850(12)
C9 C 0.3475(3) 0.83252(18) 0.63497(14)
H4 H 0.3074 0.8725 0.6037
C10 C 0.3230(3) 0.85318(18) 0.69854(13)
H5 H 0.2686 0.9080 0.7100
C11 C 0.3790(3) 0.79285(17) 0.74458(13)
H6 H 0.3595 0.8066 0.7870
C12 C 0.4649(3) 0.71105(16) 0.72855(11)
C13 C 0.3346(3) 0.58981(19) 0.52074(12)
H7 H 0.4273 0.5669 0.4950
C14 C 0.3311(3) 0.69540(19) 0.51815(12)
H8 H 0.2248 0.7180 0.5348
C15 C 0.1719(4) 0.5478(2) 0.49563(15)
H9 H 0.1786 0.4808 0.4968
H10 H 0.1543 0.5681 0.4528
H11 H 0.0811 0.5684 0.5216
C16 C 0.3554(4) 0.7319(2) 0.45160(12)
H12 H 0.3504 0.7990 0.4519
H13 H 0.2696 0.7078 0.4246
H14 H 0.4617 0.7122 0.4360
C17 C 0.9951(4) 0.6634(2) 0.71084(16)
H15 H 1.0247 0.7173 0.7355
H16 H 1.0583 0.6629 0.6723
H17 H 1.0186 0.6077 0.7346
C18 C 0.3325(3) 0.58749(18) 0.82129(12)
C19 C 0.2769(4) 0.4988(2) 0.80408(14)
H18 H 0.3423 0.4614 0.7780
C20 C 0.1249(5) 0.4657(2) 0.82542(18)
H19 H 0.0889 0.4064 0.8136
C21 C 0.0280(4) 0.5202(3) 0.86378(18)
H20 H -0.0743 0.4981 0.8777
C22 C 0.0810(4) 0.6068(3) 0.88165(16)
H21 H 0.0148 0.6434 0.9079
C23 C 0.2329(3) 0.6405(2) 0.86102(13)
H22 H 0.2684 0.6994 0.8740
C24 C 0.6204(3) 0.69731(18) 0.85071(12)
C25 C 0.6208(4) 0.6663(2) 0.91280(13)
H23 H 0.5644 0.6116 0.9231
C26 C 0.7033(4) 0.7147(3) 0.95989(14)
H24 H 0.7030 0.6920 1.0012
C27 C 0.7846(5) 0.7953(3) 0.94610(18)
H25 H 0.8387 0.8281 0.9780
C28 C 0.7870(4) 0.8279(2) 0.88559(18)
H26 H 0.8428 0.8831 0.8763
C29 C 0.7062(4) 0.7789(2) 0.83731(15)
H27 H 0.7101 0.8012 0.7959
loop_
_geom_bond_atom_site_label_1
_geom_bond_atom_site_label_2
_geom_bond_site_symmetry_1
_geom_bond_site_symmetry_2
P1 C12 1_555 1_555
O1 C1 1_555 1_555
O2 C8 1_555 1_555
O3 C5 1_555 1_555
C1 C2 1_555 1_555
C2 H1 1_555 1_555
C3 C2 1_555 1_555
H2 C3 1_555 1_555
C4 C3 1_555 1_555
H3 C4 1_555 1_555
C5 C4 1_555 1_555
C6 C1 1_555 1_555
C7 C6 1_555 1_555
C8 C7 1_555 1_555
C9 C8 1_555 1_555
H4 C9 1_555 1_555
C10 C9 1_555 1_555
H5 C10 1_555 1_555
C11 C10 1_555 1_555
H6 C11 1_555 1_555
C12 C7 1_555 1_555
C13 O1 1_555 1_555
H7 C13 1_555 1_555
C14 O2 1_555 1_555
H8 C14 1_555 1_555
C15 C13 1_555 1_555
H9 C15 1_555 1_555
H10 C15 1_555 1_555
H11 C15 1_555 1_555
C16 C14 1_555 1_555
H12 C16 1_555 1_555
H13 C16 1_555 1_555
H14 C16 1_555 1_555
C17 O3 1_555 1_555
H15 C17 1_555 1_555
H16 C17 1_555 1_555
H17 C17 1_555 1_555
C18 P1 1_555 1_555
C19 C18 1_555 1_555
H18 C19 1_555 1_555
C20 C19 1_555 1_555
H19 C20 1_555 1_555
C21 C20 1_555 1_555
H20 C21 1_555 1_555
C22 C21 1_555 1_555
H21 C22 1_555 1_555
C23 C18 1_555 1_555
H22 C23 1_555 1_555
C24 P1 1_555 1_555
C25 C24 1_555 1_555
H23 C25 1_555 1_555
C26 C25 1_555 1_555
H24 C26 1_555 1_555
C27 C26 1_555 1_555
H25 C27 1_555 1_555
C28 C27 1_555 1_555
H26 C28 1_555 1_555
C29 C24 1_555 1_555
H27 C29 1_555 1_555
C5 C6 1_555 1_555
C11 C12 1_555 1_555
C13 C14 1_555 1_555
C22 C23 1_555 1_555
C28 C29 1_555 1_555

#END
