
#######################################################################
#
#                 Cambridge Crystallographic Data Centre
#                                CCDC 
#
#######################################################################
#
# If this CIF has been generated from an entry in the Cambridge 
# Structural Database, then it will include bibliographic, chemical, 
# crystal, experimental, refinement or atomic coordinate data resulting 
# from the CCDC's data processing and validation procedures.
#
#######################################################################

data_RARFUN
_chemical_formula_moiety         'C9 H12 Br1 N3 O4 S1'
_chemical_name_systematic        
'(Z)-Methyl 2-bromo-3-(1-(dimethylsulfamoyl)-1H-imidazol-4-yl)acrylate'
_symmetry_cell_setting           triclinic
_symmetry_space_group_name_H-M   'P -1'
_symmetry_Int_Tables_number      2
_space_group_name_Hall           '-P 1'
loop_
_symmetry_equiv_pos_site_id
_symmetry_equiv_pos_as_xyz
1 x,y,z
2 -x,-y,-z
_cell_length_a                   6.3794(10)
_cell_length_b                   9.6296(15)
_cell_length_c                   10.9141(17)
_cell_angle_alpha                90.102(3)
_cell_angle_beta                 101.332(3)
_cell_angle_gamma                106.314(3)
_cell_volume                     629.768
_exptl_crystal_colour            colorless
_exptl_crystal_description       prismatic
_chemical_melting_point          '103-105 deg.C'
_cell_formula_units_Z            2
loop_
_atom_site_label
_atom_site_type_symbol
_atom_site_fract_x
_atom_site_fract_y
_atom_site_fract_z
Br1 Br 0.61226(6) 0.57399(4) 0.69805(3)
S1 S 1.12599(14) 0.79217(10) 0.19937(8)
N1 N 1.0325(5) 0.7698(3) 0.3337(3)
N2 N 0.9164(5) 0.6557(3) 0.4954(3)
N3 N 0.9244(5) 0.7034(3) 0.0897(3)
O1 O 0.3687(5) 0.9166(3) 0.6318(3)
O2 O 0.3665(5) 0.7602(3) 0.7823(2)
O3 O 1.2975(4) 0.7226(3) 0.2150(3)
O4 O 1.1675(5) 0.9417(3) 0.1781(3)
C1 C 1.0376(6) 0.6583(4) 0.4125(3)
H1 H 1.1185 0.5927 0.4067
C2 C 0.8899(6) 0.8391(4) 0.3711(3)
H2 H 0.8498 0.9180 0.3356
C3 C 0.8207(6) 0.7683(4) 0.4700(3)
C4 C 0.6701(6) 0.8079(4) 0.5361(3)
H3 H 0.6323 0.8910 0.5094
C5 C 0.5747(6) 0.7469(4) 0.6287(3)
C6 C 0.4260(6) 0.8172(4) 0.6789(3)
C7 C 0.2326(9) 0.8306(5) 0.8360(5)
H4 H 0.3150 0.9301 0.8591
H5 H 0.1946 0.7827 0.9090
H6 H 0.0986 0.8262 0.7759
C8 C 0.8448(9) 0.5470(5) 0.1018(5)
H7 H 0.7553 0.5283 0.1644
H8 H 0.9701 0.5092 0.1257
H9 H 0.7566 0.5008 0.0230
C9 C 0.7463(8) 0.7720(6) 0.0438(4)
H10 H 0.6556 0.7222 -0.0331
H11 H 0.8120 0.8717 0.0296
H12 H 0.6556 0.7668 0.1051
loop_
_geom_bond_atom_site_label_1
_geom_bond_atom_site_label_2
_geom_bond_site_symmetry_1
_geom_bond_site_symmetry_2
Br1 C5 1_555 1_555
S1 N1 1_555 1_555
N1 C1 1_555 1_555
N2 C1 1_555 1_555
N3 S1 1_555 1_555
O1 C6 1_555 1_555
O2 C6 1_555 1_555
O3 S1 1_555 1_555
O4 S1 1_555 1_555
C1 H1 1_555 1_555
C2 N1 1_555 1_555
H2 C2 1_555 1_555
C3 N2 1_555 1_555
C4 C3 1_555 1_555
H3 C4 1_555 1_555
C5 C4 1_555 1_555
C6 C5 1_555 1_555
C7 O2 1_555 1_555
H4 C7 1_555 1_555
H5 C7 1_555 1_555
H6 C7 1_555 1_555
C8 N3 1_555 1_555
H7 C8 1_555 1_555
H8 C8 1_555 1_555
H9 C8 1_555 1_555
C9 N3 1_555 1_555
H10 C9 1_555 1_555
H11 C9 1_555 1_555
H12 C9 1_555 1_555
C2 C3 1_555 1_555

#END
