
#######################################################################
#
#                 Cambridge Crystallographic Data Centre
#                                CCDC 
#
#######################################################################
#
# If this CIF has been generated from an entry in the Cambridge 
# Structural Database, then it will include bibliographic, chemical, 
# crystal, experimental, refinement or atomic coordinate data resulting 
# from the CCDC's data processing and validation procedures.
#
#######################################################################

data_RARGAU
_chemical_formula_moiety         'C18 H24 N6 O8 S2'
_chemical_name_systematic        
'Dimethyl bis((1-(dimethylsulfamoyl)-1H-imidazol-4-yl)methylene)succinate'
_symmetry_cell_setting           monoclinic
_symmetry_space_group_name_H-M   'P 21/c'
_symmetry_Int_Tables_number      14
_space_group_name_Hall           '-P 2ybc'
loop_
_symmetry_equiv_pos_site_id
_symmetry_equiv_pos_as_xyz
1 x,y,z
2 -x,1/2+y,1/2-z
3 -x,-y,-z
4 x,1/2-y,1/2+z
_cell_length_a                   7.3058(9)
_cell_length_b                   13.4880(16)
_cell_length_c                   23.950(3)
_cell_angle_alpha                90
_cell_angle_beta                 97.257(2)
_cell_angle_gamma                90
_cell_volume                     2341.14
_exptl_crystal_colour            colorless
_exptl_crystal_description       prismatic
_chemical_melting_point          '155 deg.C'
_cell_formula_units_Z            4
loop_
_atom_site_label
_atom_site_type_symbol
_atom_site_fract_x
_atom_site_fract_y
_atom_site_fract_z
S1 S 0.30351(8) 0.05639(4) 0.15255(3)
S2 S 0.67203(8) 0.71900(5) 0.01554(2)
N1 N 0.2946(3) 0.24875(16) 0.26934(8)
N2 N 0.2987(3) 0.15759(14) 0.19322(7)
N3 N 0.4934(3) 0.55396(16) 0.12579(8)
N4 N 0.5704(3) 0.63073(14) 0.05036(7)
N5 N 0.1013(3) 0.04726(18) 0.11913(10)
N6 N 0.5794(3) 0.82106(16) 0.03076(10)
O1 O -0.1196(3) 0.36158(17) 0.08146(8)
O2 O -0.1341(2) 0.39705(14) 0.17168(7)
O3 O 0.2835(3) 0.61854(13) 0.25278(7)
O4 O 0.1296(2) 0.64835(12) 0.16790(7)
O5 O 0.4269(3) 0.07617(15) 0.11325(8)
O6 O 0.3343(3) -0.02224(14) 0.19104(9)
O7 O 0.8574(3) 0.71928(16) 0.04040(9)
O8 O 0.6210(3) 0.69915(15) -0.04176(7)
C1 C 0.3078(4) 0.15977(19) 0.25053(10)
H1 H 0.3219 0.1037 0.2733
C2 C 0.2773(3) 0.25438(16) 0.17509(9)
H2 H 0.2669 0.2770 0.1381
C3 C 0.2744(3) 0.30987(16) 0.22224(8)
C4 C 0.2633(3) 0.41627(16) 0.22928(8)
H3 H 0.3036 0.4407 0.2650
C5 C 0.2019(3) 0.48307(16) 0.19044(8)
C6 C 0.1202(3) 0.45823(16) 0.13236(8)
C7 C 0.1854(3) 0.48758(17) 0.08546(9)
H4 H 0.1160 0.4701 0.0516
C8 C 0.3517(3) 0.54336(17) 0.08139(9)
C9 C 0.3972(3) 0.59069(18) 0.03493(9)
H5 H 0.3263 0.5952 -0.0001
C10 C 0.6196(3) 0.6064(2) 0.10582(10)
H6 H 0.7303 0.6251 0.1267
C11 C -0.0560(3) 0.40014(17) 0.12473(9)
C12 C -0.3053(3) 0.3423(2) 0.16954(13)
H7 H -0.3904 0.3656 0.1385
H8 H -0.3572 0.3521 0.2040
H9 H -0.2817 0.2731 0.1647
C13 C 0.2121(3) 0.58924(17) 0.20799(9)
C14 C 0.1491(5) 0.75313(19) 0.17854(14)
H10 H 0.0794 0.7714 0.2083
H11 H 0.1040 0.7892 0.1450
H12 H 0.2769 0.7687 0.1893
C15 C 0.0576(5) 0.1040(3) 0.06693(15)
H13 H -0.0393 0.0713 0.0430
H14 H 0.1654 0.1084 0.0479
H15 H 0.0181 0.1695 0.0757
C16 C -0.0480(5) 0.0386(4) 0.1546(2)
H16 H -0.0657 0.1014 0.1721
H17 H -0.0159 -0.0106 0.1832
H18 H -0.1600 0.0195 0.1318
C17 C 0.3925(5) 0.8415(3) 0.00362(17)
H19 H 0.3054 0.8044 0.0221
H20 H 0.3825 0.8224 -0.0353
H21 H 0.3670 0.9110 0.0062
C18 C 0.6117(7) 0.8500(3) 0.09032(17)
H22 H 0.5925 0.9200 0.0936
H23 H 0.7361 0.8338 0.1054
H24 H 0.5274 0.8149 0.1109
loop_
_geom_bond_atom_site_label_1
_geom_bond_atom_site_label_2
_geom_bond_site_symmetry_1
_geom_bond_site_symmetry_2
S1 N2 1_555 1_555
S2 N4 1_555 1_555
N1 C1 1_555 1_555
N2 C1 1_555 1_555
N3 C8 1_555 1_555
N4 C9 1_555 1_555
N5 S1 1_555 1_555
N6 S2 1_555 1_555
O1 C11 1_555 1_555
O2 C11 1_555 1_555
O3 C13 1_555 1_555
O4 C13 1_555 1_555
O5 S1 1_555 1_555
O6 S1 1_555 1_555
O7 S2 1_555 1_555
O8 S2 1_555 1_555
C1 H1 1_555 1_555
C2 N2 1_555 1_555
H2 C2 1_555 1_555
C3 N1 1_555 1_555
C4 C3 1_555 1_555
H3 C4 1_555 1_555
C5 C4 1_555 1_555
C6 C5 1_555 1_555
C7 C6 1_555 1_555
H4 C7 1_555 1_555
C8 C7 1_555 1_555
C9 C8 1_555 1_555
H5 C9 1_555 1_555
C10 N3 1_555 1_555
H6 C10 1_555 1_555
C11 C6 1_555 1_555
C12 O2 1_555 1_555
H7 C12 1_555 1_555
H8 C12 1_555 1_555
H9 C12 1_555 1_555
C13 C5 1_555 1_555
C14 O4 1_555 1_555
H10 C14 1_555 1_555
H11 C14 1_555 1_555
H12 C14 1_555 1_555
C15 N5 1_555 1_555
H13 C15 1_555 1_555
H14 C15 1_555 1_555
H15 C15 1_555 1_555
C16 N5 1_555 1_555
H16 C16 1_555 1_555
H17 C16 1_555 1_555
H18 C16 1_555 1_555
C17 N6 1_555 1_555
H19 C17 1_555 1_555
H20 C17 1_555 1_555
H21 C17 1_555 1_555
C18 N6 1_555 1_555
H22 C18 1_555 1_555
H23 C18 1_555 1_555
H24 C18 1_555 1_555
N4 C10 1_555 1_555
C2 C3 1_555 1_555

#END
