
#######################################################################
#
#                 Cambridge Crystallographic Data Centre
#                                CCDC 
#
#######################################################################
#
# If this CIF has been generated from an entry in the Cambridge 
# Structural Database, then it will include bibliographic, chemical, 
# crystal, experimental, refinement or atomic coordinate data resulting 
# from the CCDC's data processing and validation procedures.
#
#######################################################################

data_RARGIC
_chemical_formula_moiety         'C14 H19 N5 O4 S1,H2 O1'
_chemical_name_systematic        
'4-(6,7-bis(Hydroxymethyl)-5,6-dihydroimidazo[1,5-a]pyridin-5-yl)-N,N-dimethyl-1H-imidazole-1-sulfonamide monohydrate'
_symmetry_cell_setting           monoclinic
_symmetry_space_group_name_H-M   'P 21/n'
_symmetry_Int_Tables_number      14
_space_group_name_Hall           '-P 2yn'
loop_
_symmetry_equiv_pos_site_id
_symmetry_equiv_pos_as_xyz
1 x,y,z
2 1/2-x,1/2+y,1/2-z
3 -x,-y,-z
4 1/2+x,1/2-y,1/2+z
_cell_length_a                   12.401(2)
_cell_length_b                   12.639(2)
_cell_length_c                   12.675(2)
_cell_angle_alpha                90
_cell_angle_beta                 118.977(3)
_cell_angle_gamma                90
_cell_volume                     1737.93
_exptl_crystal_colour            colorless
_exptl_crystal_description       prismatic
_cell_formula_units_Z            4
loop_
_atom_site_label
_atom_site_type_symbol
_atom_site_fract_x
_atom_site_fract_y
_atom_site_fract_z
S1 S 0.36550(4) 1.14566(3) 0.03387(4)
N1 N 0.46447(13) 1.12759(10) 0.18283(12)
N2 N 0.54060(13) 1.13249(11) 0.37992(13)
N3 N 0.80344(12) 0.97953(10) 0.39705(11)
N4 N 0.92848(13) 0.97529(13) 0.31955(13)
N5 N 0.25684(13) 1.06416(11) -0.00300(13)
O1 O 0.87209(11) 0.96340(10) 0.70764(10)
H1 H 0.9300 0.9881 0.7016
O2 O 0.44565(11) 0.82189(11) 0.39790(11)
H2 H 0.4475 0.8370 0.4617
O3 O 0.31934(13) 1.24873(9) 0.02621(12)
O4 O 0.43598(12) 1.11796(10) -0.02230(11)
C1 C 0.45232(16) 1.16600(13) 0.27677(16)
H3 H 0.3890 1.2106 0.2685
C2 C 0.56795(15) 1.06378(12) 0.23178(14)
H4 H 0.5995 1.0256 0.1901
C3 C 0.61363(15) 1.06815(12) 0.35202(14)
C4 C 0.72770(14) 1.01611(12) 0.44936(14)
H5 H 0.7745 1.0682 0.5124
C5 C 0.69932(15) 0.92097(12) 0.50626(13)
H6 H 0.6370 0.9421 0.5286
C6 C 0.64876(15) 0.82985(12) 0.41844(14)
C7 C 0.69572(16) 0.81156(13) 0.34454(15)
H7 H 0.6692 0.7530 0.2937
C8 C 0.78694(15) 0.88142(13) 0.34275(14)
C9 C 0.86597(16) 0.88101(15) 0.29718(15)
H8 H 0.8764 0.8244 0.2562
C10 C 0.88740(15) 1.03224(14) 0.37974(15)
H9 H 0.9135 1.1007 0.4069
C11 C 0.81501(16) 0.88284(13) 0.62086(14)
H10 H 0.7920 0.8254 0.6568
H11 H 0.8740 0.8552 0.5983
C12 C 0.55172(16) 0.76177(14) 0.42187(16)
H12 H 0.5289 0.7059 0.3624
H13 H 0.5846 0.7291 0.5007
C13 C 0.2818(2) 0.95180(15) -0.0078(2)
H14 H 0.2974 0.9184 0.0663
H15 H 0.3527 0.9440 -0.0189
H16 H 0.2118 0.9192 -0.0739
C14 C 0.1533(2) 1.08974(18) 0.0173(2)
H17 H 0.0818 1.0507 -0.0385
H18 H 0.1363 1.1642 0.0054
H19 H 0.1738 1.0711 0.0983
O5 O 0.21190(16) 0.86088(14) 0.21202(14)
H20 H 0.292(3) 0.854(2) 0.271(3)
H21 H 0.192(3) 0.917(2) 0.241(3)
loop_
_geom_bond_atom_site_label_1
_geom_bond_atom_site_label_2
_geom_bond_site_symmetry_1
_geom_bond_site_symmetry_2
S1 N1 1_555 1_555
N1 C1 1_555 1_555
N2 C1 1_555 1_555
N3 C4 1_555 1_555
N4 C9 1_555 1_555
N5 S1 1_555 1_555
O1 H1 1_555 1_555
O2 H2 1_555 1_555
O3 S1 1_555 1_555
O4 S1 1_555 1_555
O5 H20 1_555 1_555
C1 H3 1_555 1_555
C2 N1 1_555 1_555
H4 C2 1_555 1_555
C3 N2 1_555 1_555
C4 C3 1_555 1_555
H5 C4 1_555 1_555
C5 C4 1_555 1_555
H6 C5 1_555 1_555
C6 C5 1_555 1_555
C7 C6 1_555 1_555
H7 C7 1_555 1_555
C8 N3 1_555 1_555
C9 C8 1_555 1_555
H8 C9 1_555 1_555
C10 N3 1_555 1_555
H9 C10 1_555 1_555
C11 O1 1_555 1_555
H10 C11 1_555 1_555
H11 C11 1_555 1_555
C12 O2 1_555 1_555
H12 C12 1_555 1_555
H13 C12 1_555 1_555
C13 N5 1_555 1_555
H14 C13 1_555 1_555
H15 C13 1_555 1_555
H16 C13 1_555 1_555
C14 N5 1_555 1_555
H17 C14 1_555 1_555
H18 C14 1_555 1_555
H19 C14 1_555 1_555
H21 O5 1_555 1_555
N4 C10 1_555 1_555
C2 C3 1_555 1_555
C5 C11 1_555 1_555
C6 C12 1_555 1_555
C7 C8 1_555 1_555

#END
