
#######################################################################
#
#                 Cambridge Crystallographic Data Centre
#                                CCDC 
#
#######################################################################
#
# If this CIF has been generated from an entry in the Cambridge 
# Structural Database, then it will include bibliographic, chemical, 
# crystal, experimental, refinement or atomic coordinate data resulting 
# from the CCDC's data processing and validation procedures.
#
#######################################################################

data_RARGEY
_chemical_formula_moiety         'C16 H19 N5 O6 S1'
_chemical_name_systematic        
'Dimethyl 5-(1-(dimethylsulfamoyl)-1H-imidazol-4-yl)-5,6-dihydroimidazo[1,5-a]pyridine-6,7-dicarboxylate'
_symmetry_cell_setting           triclinic
_symmetry_space_group_name_H-M   'P -1'
_symmetry_Int_Tables_number      2
_space_group_name_Hall           '-P 1'
loop_
_symmetry_equiv_pos_site_id
_symmetry_equiv_pos_as_xyz
1 x,y,z
2 -x,-y,-z
_cell_length_a                   7.8606(10)
_cell_length_b                   8.0861(10)
_cell_length_c                   15.4119(18)
_cell_angle_alpha                95.983(2)
_cell_angle_beta                 91.920(2)
_cell_angle_gamma                107.840(2)
_cell_volume                     925.204
_exptl_crystal_colour            colorless
_exptl_crystal_description       prismatic
_chemical_melting_point          '145-147 deg.C'
_cell_formula_units_Z            2
loop_
_atom_site_label
_atom_site_type_symbol
_atom_site_fract_x
_atom_site_fract_y
_atom_site_fract_z
S1 S 0.72604(8) 0.90832(8) 0.59847(4)
O1 O 1.4169(3) 0.6353(3) 0.78210(15)
O2 O 1.3839(2) 0.7963(3) 0.90313(12)
O3 O 1.0284(4) 0.2089(3) 0.87242(16)
O4 O 1.1459(3) 0.1547(3) 0.74884(15)
O5 O 0.8684(3) 1.0338(3) 0.56467(13)
O6 O 0.6498(3) 0.9521(2) 0.67602(12)
N1 N 0.9692(3) 0.5633(3) 0.61060(13)
N2 N 0.8102(3) 0.7476(3) 0.62188(12)
N3 N 0.7645(2) 0.3979(3) 0.81240(12)
N4 N 0.5402(3) 0.3706(4) 0.89823(15)
N5 N 0.5713(3) 0.8283(3) 0.52352(15)
C1 C 0.9348(3) 0.6919(4) 0.57721(17)
H1 H 0.9881 0.7403 0.5289
C2 C 0.7622(3) 0.6421(3) 0.68790(14)
H2 H 0.6789 0.6462 0.7289
C3 C 0.8612(3) 0.5322(3) 0.68040(14)
C4 C 0.8690(3) 0.3916(3) 0.73568(14)
H3 H 0.8192 0.2770 0.7008
C5 C 1.0635(3) 0.4157(3) 0.76718(15)
H4 H 1.1381 0.4397 0.7174
C6 C 1.1320(3) 0.5694(3) 0.83788(14)
C7 C 1.0225(3) 0.6059(3) 0.89603(15)
H5 H 1.0681 0.6947 0.9420
C8 C 0.8344(3) 0.5089(3) 0.88820(15)
C9 C 0.6924(3) 0.4880(4) 0.93931(17)
H6 H 0.6986 0.5465 0.9952
C10 C 0.5896(3) 0.3201(4) 0.82211(17)
H7 H 0.5124 0.2394 0.7796
C11 C 1.0779(4) 0.2467(4) 0.8000(2)
C12 C 1.1513(9) -0.0077(7) 0.7836(5)
H8 H 1.2078 0.0207 0.8418
H9 H 1.2181 -0.0642 0.7467
H10 H 1.0314 -0.0849 0.7849
C13 C 1.3243(3) 0.6673(3) 0.83785(16)
C14 C 1.5729(4) 0.8954(5) 0.9056(2)
H11 H 1.6434 0.8228 0.9201
H12 H 1.5986 0.9956 0.9490
H13 H 1.6014 0.9335 0.8494
C15 C 0.3991(4) 0.7140(5) 0.5454(3)
H14 H 0.3055 0.7239 0.5066
H15 H 0.3781 0.7478 0.6046
H16 H 0.4005 0.5951 0.5393
C16 C 0.6210(5) 0.7992(5) 0.4328(2)
H17 H 0.6271 0.6823 0.4210
H18 H 0.7356 0.8815 0.4256
H19 H 0.5325 0.8149 0.3928
C17? C 1.0668(12) 0.0569(10) 0.8911(6)
H20? H 1.0034 -0.0393 0.8484
H21? H 1.0299 0.0307 0.9482
H22? H 1.1932 0.0756 0.8896
loop_
_geom_bond_atom_site_label_1
_geom_bond_atom_site_label_2
_geom_bond_site_symmetry_1
_geom_bond_site_symmetry_2
S1 O5 1_555 1_555
O1 C13 1_555 1_555
O2 C13 1_555 1_555
O3 C11 1_555 1_555
O4 C11 1_555 1_555
O6 S1 1_555 1_555
N1 C1 1_555 1_555
N2 S1 1_555 1_555
N3 C4 1_555 1_555
N4 C9 1_555 1_555
N5 S1 1_555 1_555
C1 N2 1_555 1_555
H1 C1 1_555 1_555
C2 N2 1_555 1_555
H2 C2 1_555 1_555
C3 N1 1_555 1_555
C4 C3 1_555 1_555
H3 C4 1_555 1_555
C5 C4 1_555 1_555
H4 C5 1_555 1_555
C6 C5 1_555 1_555
C7 C6 1_555 1_555
H5 C7 1_555 1_555
C8 N3 1_555 1_555
C9 C8 1_555 1_555
H6 C9 1_555 1_555
C10 N3 1_555 1_555
H7 C10 1_555 1_555
C11 C5 1_555 1_555
C12 O4 1_555 1_555
H8 C12 1_555 1_555
H9 C12 1_555 1_555
H10 C12 1_555 1_555
C13 C6 1_555 1_555
C14 O2 1_555 1_555
H11 C14 1_555 1_555
H12 C14 1_555 1_555
H13 C14 1_555 1_555
C15 N5 1_555 1_555
H14 C15 1_555 1_555
H15 C15 1_555 1_555
H16 C15 1_555 1_555
C16 N5 1_555 1_555
H17 C16 1_555 1_555
H18 C16 1_555 1_555
H19 C16 1_555 1_555
N4 C10 1_555 1_555
C2 C3 1_555 1_555
C7 C8 1_555 1_555

#END
