
#######################################################################
#
#                 Cambridge Crystallographic Data Centre
#                                CCDC 
#
#######################################################################
#
# If this CIF has been generated from an entry in the Cambridge 
# Structural Database, then it will include bibliographic, chemical, 
# crystal, experimental, refinement or atomic coordinate data resulting 
# from the CCDC's data processing and validation procedures.
#
#######################################################################

data_RARGUO
_chemical_formula_moiety         'C24 H25 Br4 N9 O4 S1,4(C1 H4 O1)'
_chemical_name_systematic        
"N,N'-((5-(1-(Dimethylsulfamoyl)-1H-imidazol-4-yl)-5,6,7,8-tetrahydroimidazo[1,5-a]pyridine-6,7-diyl)bis(methylene))bis(4,5-dibromo-1H-pyrrole-2-carboxamide) methanol solvate"
_symmetry_cell_setting           triclinic
_symmetry_space_group_name_H-M   'P -1'
_symmetry_Int_Tables_number      2
_space_group_name_Hall           '-P 1'
loop_
_symmetry_equiv_pos_site_id
_symmetry_equiv_pos_as_xyz
1 x,y,z
2 -x,-y,-z
_cell_length_a                   12.692(3)
_cell_length_b                   13.102(3)
_cell_length_c                   13.702(3)
_cell_angle_alpha                110.343(3)
_cell_angle_beta                 95.797(4)
_cell_angle_gamma                110.490(3)
_cell_volume                     1935.84
_exptl_crystal_colour            colorless
_exptl_crystal_description       block
_cell_formula_units_Z            2
loop_
_atom_site_label
_atom_site_type_symbol
_atom_site_fract_x
_atom_site_fract_y
_atom_site_fract_z
Br1 Br 0.07099(7) 0.49498(9) 0.37740(7)
Br2 Br 0.09912(9) 0.21325(8) 0.24624(8)
Br3 Br -0.09014(8) 0.75212(9) 0.45468(8)
Br4 Br -0.07656(7) 0.94022(8) 0.30792(8)
S1 S 0.82958(17) 0.52894(18) -0.02935(15)
O1 O 0.5309(5) 0.5404(5) 0.2186(5)
O2 O 0.3476(5) 0.8103(5) 0.4008(4)
O3 O 0.7344(5) 0.4160(5) -0.0811(5)
O4 O 0.9081(5) 0.5769(6) -0.0846(5)
N1 N 0.5124(5) 0.7109(6) 0.3117(5)
H1 H 0.4718 0.7427 0.3505
N2 N 0.2888(5) 0.5646(6) 0.3308(5)
H2 H 0.3005 0.6403 0.3590
N3 N 0.4067(6) 0.9791(6) 0.3727(5)
H3 H 0.3940 1.0415 0.3746
N4 N 0.1392(6) 0.8289(6) 0.4337(5)
H4 H 0.1555 0.7868 0.4659
N5 N 0.4970(5) 0.7697(6) 0.0224(5)
N6 N 0.4114(6) 0.7521(6) -0.1364(5)
N7 N 0.7389(5) 0.7931(6) 0.0421(5)
N8 N 0.7692(5) 0.6283(6) 0.0121(5)
N9 N 0.9019(6) 0.5338(6) 0.0763(5)
C1 C 0.1947(7) 0.4725(7) 0.3253(6)
C2 C 0.2060(7) 0.3673(8) 0.2772(7)
C3 C 0.3154(7) 0.3979(8) 0.2504(6)
H5 H 0.3477 0.3439 0.2158
C4 C 0.3655(7) 0.5199(7) 0.2838(6)
C5 C 0.4759(7) 0.5909(7) 0.2689(6)
C6 C 0.6161(6) 0.7888(7) 0.2959(6)
H6 H 0.6634 0.7438 0.2698
H7 H 0.6629 0.8561 0.3659
C7 C 0.5894(6) 0.8390(7) 0.2154(6)
H8 H 0.6615 0.9073 0.2221
C8 C 0.5517(6) 0.7390(7) 0.1005(6)
H9 H 0.4925 0.6648 0.1007
C9 C 0.4706(7) 0.7106(7) -0.0877(6)
H10 H 0.4922 0.6478 -0.1242
C10 C 0.4009(7) 0.8437(7) -0.0539(6)
H11 H 0.3625 0.8911 -0.0643
C11 C 0.4540(7) 0.8563(7) 0.0449(6)
C12 C 0.4726(7) 0.9382(7) 0.1575(6)
H12 H 0.4042 0.9573 0.1649
H13 H 0.5413 1.0138 0.1762
C13 C 0.4913(6) 0.8829(7) 0.2342(6)
H14 H 0.4178 0.8112 0.2177
C14 C 0.5135(7) 0.9696(7) 0.3509(6)
H15 H 0.5444 0.9410 0.4003
H16 H 0.5724 1.0494 0.3640
C15 C 0.3293(7) 0.8935(7) 0.3895(6)
C16 C 0.2145(7) 0.8981(7) 0.3927(6)
C17 C 0.0375(6) 0.8369(7) 0.4160(6)
C18 C 0.0466(7) 0.9118(7) 0.3639(6)
C19 C 0.1580(7) 0.9491(7) 0.3491(6)
H17 H 0.1890 1.0007 0.3148
C20 C 0.6506(6) 0.7107(7) 0.0643(6)
C21 C 0.6688(6) 0.6114(7) 0.0477(6)
H18 H 0.6221 0.5435 0.0582
C22 C 0.8073(7) 0.7394(7) 0.0104(6)
H19 H 0.8751 0.7735 -0.0111
C23 C 0.8366(9) 0.4736(11) 0.1367(9)
H20 H 0.8854 0.4478 0.1739
H21 H 0.7670 0.4037 0.0871
H22 H 0.8135 0.5287 0.1896
C24 C 1.0044(8) 0.6441(8) 0.1399(7)
H23 H 0.9806 0.7047 0.1843
H24 H 1.0461 0.6728 0.0918
H25 H 1.0555 0.6291 0.1865
C25 C 0.8359(17) 0.056(3) 0.9805(15)
H26 H 0.8959 0.1385 1.0122
H27 H 0.7766 0.0476 0.9227
H28 H 0.8714 0.0008 0.9510
O5 O 0.7819(11) 0.0263(8) 1.0589(9)
H38 H 0.7697 -0.0446 1.0479
C26 C 0.6229(9) 0.7255(10) 0.5580(8)
H29 H 0.7024 0.7665 0.5542
H30 H 0.5695 0.6902 0.4868
H31 H 0.6190 0.6623 0.5821
O6 O 0.5918(10) 0.8062(8) 0.6297(13)
H39 H 0.5209 0.7734 0.6268
C27 C 0.3339(10) 0.5585(9) 0.6072(8)
H32 H 0.3351 0.5300 0.5312
H33 H 0.2540 0.5240 0.6130
H34 H 0.3830 0.5340 0.6457
O7 O 0.3770(6) 0.6855(5) 0.6531(5)
H40 H 0.3790 0.7101 0.7190
C28 C 0.1859(9) 0.8065(9) 0.6885(8)
H35 H 0.1909 0.7557 0.7254
H36 H 0.1048 0.7944 0.6682
H37 H 0.2334 0.8905 0.7367
O8 O 0.2271(6) 0.7761(6) 0.5953(5)
H41 H 0.2804 0.7589 0.6166
loop_
_geom_bond_atom_site_label_1
_geom_bond_atom_site_label_2
_geom_bond_site_symmetry_1
_geom_bond_site_symmetry_2
Br1 C1 1_555 1_555
Br2 C2 1_555 1_555
Br3 C17 1_555 1_555
Br4 C18 1_555 1_555
S1 O3 1_555 1_555
O1 C5 1_555 1_555
O2 C15 1_555 1_555
O4 S1 1_555 1_555
N1 H1 1_555 1_555
N2 H2 1_555 1_555
N3 H3 1_555 1_555
N4 H4 1_555 1_555
N5 C8 1_555 1_555
N6 C9 1_555 1_555
N7 C20 1_555 1_555
N8 S1 1_555 1_555
N9 S1 1_555 1_555
C1 N2 1_555 1_555
C2 C1 1_555 1_555
C3 C2 1_555 1_555
H5 C3 1_555 1_555
C4 N2 1_555 1_555
C5 N1 1_555 1_555
C6 N1 1_555 1_555
H6 C6 1_555 1_555
H7 C6 1_555 1_555
C7 C6 1_555 1_555
H8 C7 1_555 1_555
C8 C7 1_555 1_555
H9 C8 1_555 1_555
C9 N5 1_555 1_555
H10 C9 1_555 1_555
C10 N6 1_555 1_555
H11 C10 1_555 1_555
C11 N5 1_555 1_555
C12 C11 1_555 1_555
H12 C12 1_555 1_555
H13 C12 1_555 1_555
C13 C7 1_555 1_555
H14 C13 1_555 1_555
C14 N3 1_555 1_555
H15 C14 1_555 1_555
H16 C14 1_555 1_555
C15 N3 1_555 1_555
C16 N4 1_555 1_555
C17 N4 1_555 1_555
C18 C17 1_555 1_555
C19 C16 1_555 1_555
H17 C19 1_555 1_555
C20 C8 1_555 1_555
C21 N8 1_555 1_555
H18 C21 1_555 1_555
C22 N7 1_555 1_555
H19 C22 1_555 1_555
C23 N9 1_555 1_555
H20 C23 1_555 1_555
H21 C23 1_555 1_555
H22 C23 1_555 1_555
C24 N9 1_555 1_555
H23 C24 1_555 1_555
H24 C24 1_555 1_555
H25 C24 1_555 1_555
C25 H26 1_555 1_555
H27 C25 1_555 1_555
H28 C25 1_555 1_555
C26 H29 1_555 1_555
H30 C26 1_555 1_555
H31 C26 1_555 1_555
C27 H32 1_555 1_555
H33 C27 1_555 1_555
H34 C27 1_555 1_555
C28 H35 1_555 1_555
H36 C28 1_555 1_555
H37 C28 1_555 1_555
O5 C25 1_555 1_555
H38 O5 1_555 1_555
O6 C26 1_555 1_555
H39 O6 1_555 1_555
O7 C27 1_555 1_555
H40 O7 1_555 1_555
O8 C28 1_555 1_555
H41 O8 1_555 1_555
N8 C22 1_555 1_555
C3 C4 1_555 1_555
C4 C5 1_555 1_555
C10 C11 1_555 1_555
C12 C13 1_555 1_555
C13 C14 1_555 1_555
C15 C16 1_555 1_555
C18 C19 1_555 1_555
C20 C21 1_555 1_555

#END
