
#######################################################################
#
#                 Cambridge Crystallographic Data Centre
#                                CCDC 
#
#######################################################################
#
# If this CIF has been generated from an entry in the Cambridge 
# Structural Database, then it will include bibliographic, chemical, 
# crystal, experimental, refinement or atomic coordinate data resulting 
# from the CCDC's data processing and validation procedures.
#
#######################################################################

data_RARMEF
_chemical_formula_moiety         'C11 H12 N4 O4'
_chemical_name_systematic        
"1,1'-methylenebis(5-methyl-1H-pyrazole-4-carboxylic acid)"
_symmetry_cell_setting           orthorhombic
_symmetry_space_group_name_H-M   'P n a 21'
_symmetry_Int_Tables_number      33
_space_group_name_Hall           'P 2c -2n'
loop_
_symmetry_equiv_pos_site_id
_symmetry_equiv_pos_as_xyz
1 x,y,z
2 -x,-y,1/2+z
3 1/2+x,1/2-y,z
4 1/2-x,1/2+y,1/2+z
_cell_length_a                   23.952(7)
_cell_length_b                   4.0594(13)
_cell_length_c                   12.531(4)
_cell_angle_alpha                90
_cell_angle_beta                 90
_cell_angle_gamma                90
_cell_volume                     1218.4
_exptl_crystal_colour            colorless
_exptl_crystal_description       block
_cell_formula_units_Z            4
loop_
_atom_site_label
_atom_site_type_symbol
_atom_site_fract_x
_atom_site_fract_y
_atom_site_fract_z
C1 C 0.29682(19) 0.3960(12) 0.1716(4)
H1 H 0.2763 0.2427 0.1285
H2 H 0.3356 0.3890 0.1521
H3 H 0.2826 0.6143 0.1603
C2 C 0.29074(16) 0.3067(10) 0.2856(4)
C3 C 0.32473(16) 0.1355(10) 0.3547(4)
C4 C 0.37945(17) -0.0095(12) 0.3322(4)
C5 C 0.29694(18) 0.1265(11) 0.4537(4)
H4 H 0.3107 0.0238 0.5146
C6 C 0.19727(19) 0.5799(9) 0.3150(4)
H5 H 0.2074 0.7265 0.2570
H6 H 0.1854 0.7144 0.3749
C7 C 0.0969(2) 0.3536(12) 0.4535(4)
H7 H 0.1313 0.3241 0.4915
H8 H 0.0690 0.2093 0.4826
H9 H 0.0847 0.5779 0.4606
C8 C 0.10554(16) 0.2751(10) 0.3382(4)
C9 C 0.07325(18) 0.0962(10) 0.2660(4)
C10 C 0.01960(19) -0.0572(10) 0.2848(4)
C11 C 0.10309(18) 0.1022(11) 0.1695(4)
H10 H 0.0911 0.0011 0.1070
N1 N 0.24858(16) 0.2834(9) 0.4486(3)
N2 N 0.24560(14) 0.3900(8) 0.3458(3)
N3 N 0.15099(14) 0.3731(8) 0.2813(3)
N4 N 0.15023(15) 0.2683(10) 0.1782(3)
O1 O 0.40046(14) -0.0097(11) 0.2422(3)
O2 O 0.40390(16) -0.1371(11) 0.4150(3)
H11 H 0.4355 -0.1957 0.3987
O3 O -0.00279(14) -0.1907(10) 0.2012(3)
H12 H -0.0279 -0.3157 0.2197
O4 O -0.00225(15) -0.0621(11) 0.3747(3)
loop_
_geom_bond_atom_site_label_1
_geom_bond_atom_site_label_2
_geom_bond_site_symmetry_1
_geom_bond_site_symmetry_2
C1 H1 1_555 1_555
H2 C1 1_555 1_555
H3 C1 1_555 1_555
C2 C1 1_555 1_555
C3 C2 1_555 1_555
C4 C3 1_555 1_555
C5 C3 1_555 1_555
H4 C5 1_555 1_555
C6 H5 1_555 1_555
H6 C6 1_555 1_555
C7 H7 1_555 1_555
H8 C7 1_555 1_555
H9 C7 1_555 1_555
C8 C7 1_555 1_555
C9 C8 1_555 1_555
C10 C9 1_555 1_555
C11 C9 1_555 1_555
H10 C11 1_555 1_555
N1 C5 1_555 1_555
N2 C2 1_555 1_555
N3 C6 1_555 1_555
N4 C11 1_555 1_555
O1 C4 1_555 1_555
O2 C4 1_555 1_555
H11 O2 1_555 1_555
O3 C10 1_555 1_555
H12 O3 1_555 1_555
O4 C10 1_555 1_555
C6 N2 1_555 1_555
C8 N3 1_555 1_555
N1 N2 1_555 1_555
N3 N4 1_555 1_555

#END
