
#######################################################################
#
#                 Cambridge Crystallographic Data Centre
#                                CCDC 
#
#######################################################################
#
# If this CIF has been generated from an entry in the Cambridge 
# Structural Database, then it will include bibliographic, chemical, 
# crystal, experimental, refinement or atomic coordinate data resulting 
# from the CCDC's data processing and validation procedures.
#
#######################################################################

data_RARNAB
_chemical_formula_moiety         'C29 H27 Br1 N2 O3'
_chemical_name_systematic        
'(E)-Ethyl 2-(3-benzoyl-9-bromo-1,5,6,10b-tetrahydropyrazolo[5,1-a]isoquinolin-2(3H)-ylidene)-3-phenylpropanoate'
_symmetry_cell_setting           monoclinic
_symmetry_space_group_name_H-M   'P 21/c'
_symmetry_Int_Tables_number      14
_space_group_name_Hall           '-P 2ybc'
loop_
_symmetry_equiv_pos_site_id
_symmetry_equiv_pos_as_xyz
1 x,y,z
2 -x,1/2+y,1/2-z
3 -x,-y,-z
4 x,1/2-y,1/2+z
_cell_length_a                   13.005(3)
_cell_length_b                   9.985(2)
_cell_length_c                   23.363(4)
_cell_angle_alpha                90
_cell_angle_beta                 123.320(3)
_cell_angle_gamma                90
_cell_volume                     2535.09
_exptl_crystal_colour            colorless
_exptl_crystal_description       block
_cell_formula_units_Z            4
loop_
_atom_site_label
_atom_site_type_symbol
_atom_site_fract_x
_atom_site_fract_y
_atom_site_fract_z
Br1 Br -0.32880(3) 0.06376(4) 0.02684(2)
O1 O -0.0063(2) 0.3710(2) -0.13942(11)
O2 O 0.0756(2) 0.5664(2) -0.14198(11)
O3 O 0.2693(2) 0.6256(2) 0.08568(11)
N1 N 0.2429(2) 0.3983(3) 0.07991(13)
N2 N 0.2108(2) 0.2961(3) 0.11096(13)
C1 C 0.1561(3) 0.3969(3) 0.00660(15)
C2 C 0.0454(3) 0.3201(3) -0.00633(15)
H1 H 0.0363 0.2344 -0.0300
H2 H -0.0308 0.3733 -0.0342
C3 C 0.0742(3) 0.2956(3) 0.06617(15)
H3 H 0.0438 0.3749 0.0788
C4 C 0.0189(3) 0.1720(3) 0.07602(15)
C5 C -0.1071(3) 0.1703(3) 0.04815(15)
H4 H -0.1579 0.2421 0.0202
C6 C -0.1572(3) 0.0625(3) 0.06182(16)
C7 C -0.0858(3) -0.0443(3) 0.10149(16)
H5 H -0.1216 -0.1174 0.1106
C8 C 0.0383(3) -0.0423(3) 0.12749(17)
H6 H 0.0881 -0.1154 0.1545
C9 C 0.0925(3) 0.0642(3) 0.11520(16)
C10 C 0.2287(3) 0.0646(4) 0.1438(2)
H7 H 0.2538 -0.0257 0.1384
H8 H 0.2750 0.0855 0.1933
C11 C 0.2612(3) 0.1666(3) 0.10784(18)
H9 H 0.3516 0.1727 0.1310
H10 H 0.2250 0.1400 0.0596
C12 C 0.1774(3) 0.4531(3) -0.03788(15)
C13 C 0.0729(3) 0.4549(3) -0.11093(16)
C14 C -0.0263(4) 0.5858(4) -0.21274(18)
H11 H -0.1056 0.5746 -0.2166
H12 H -0.0222 0.5187 -0.2426
C15 C -0.0176(5) 0.7211(4) -0.2338(2)
H13 H -0.0891 0.7385 -0.2801
H14 H 0.0578 0.7289 -0.2335
H15 H -0.0157 0.7865 -0.2020
C16 C 0.2983(3) 0.5144(3) -0.01920(16)
H16 H 0.3629 0.4901 0.0286
H17 H 0.2905 0.6132 -0.0218
C17 C 0.3363(3) 0.4669(3) -0.06660(16)
C18 C 0.3561(3) 0.3328(4) -0.07035(19)
H18 H 0.3471 0.2708 -0.0425
C19 C 0.3890(4) 0.2871(4) -0.1142(2)
H19 H 0.4022 0.1942 -0.1164
C20 C 0.4025(4) 0.3762(4) -0.1546(2)
H20 H 0.4252 0.3451 -0.1846
C21 C 0.3829(4) 0.5099(4) -0.1513(2)
H21 H 0.3920 0.5719 -0.1791
C22 C 0.3500(3) 0.5549(4) -0.10748(19)
H22 H 0.3366 0.6478 -0.1055
C23 C 0.2821(3) 0.5205(3) 0.11508(16)
C24 C 0.3415(3) 0.5163(4) 0.19089(16)
C25 C 0.3066(4) 0.6151(4) 0.21850(19)
H23 H 0.2474 0.6802 0.1894
C26 C 0.3577(5) 0.6194(5) 0.2884(2)
H24 H 0.3313 0.6853 0.3070
C27 C 0.4465(5) 0.5285(6) 0.3309(2)
H25 H 0.4825 0.5324 0.3789
C28 C 0.4836(4) 0.4317(5) 0.3041(2)
H26 H 0.5460 0.3699 0.3339
C29 C 0.4310(3) 0.4232(4) 0.23381(18)
H27 H 0.4556 0.3550 0.2154
loop_
_geom_bond_atom_site_label_1
_geom_bond_atom_site_label_2
_geom_bond_site_symmetry_1
_geom_bond_site_symmetry_2
Br1 C6 1_555 1_555
O1 C13 1_555 1_555
O2 C13 1_555 1_555
O3 C23 1_555 1_555
N1 N2 1_555 1_555
N2 C3 1_555 1_555
C1 N1 1_555 1_555
C2 C1 1_555 1_555
H1 C2 1_555 1_555
H2 C2 1_555 1_555
C3 C2 1_555 1_555
H3 C3 1_555 1_555
C4 C3 1_555 1_555
C5 C4 1_555 1_555
H4 C5 1_555 1_555
C6 C5 1_555 1_555
C7 C6 1_555 1_555
H5 C7 1_555 1_555
C8 C7 1_555 1_555
H6 C8 1_555 1_555
C9 C4 1_555 1_555
C10 C9 1_555 1_555
H7 C10 1_555 1_555
H8 C10 1_555 1_555
C11 N2 1_555 1_555
H9 C11 1_555 1_555
H10 C11 1_555 1_555
C12 C1 1_555 1_555
C13 C12 1_555 1_555
C14 O2 1_555 1_555
H11 C14 1_555 1_555
H12 C14 1_555 1_555
C15 C14 1_555 1_555
H13 C15 1_555 1_555
H14 C15 1_555 1_555
H15 C15 1_555 1_555
C16 C12 1_555 1_555
H16 C16 1_555 1_555
H17 C16 1_555 1_555
C17 C16 1_555 1_555
C18 C17 1_555 1_555
H18 C18 1_555 1_555
C19 C18 1_555 1_555
H19 C19 1_555 1_555
C20 C19 1_555 1_555
H20 C20 1_555 1_555
C21 C20 1_555 1_555
H21 C21 1_555 1_555
C22 C17 1_555 1_555
H22 C22 1_555 1_555
C23 N1 1_555 1_555
C24 C23 1_555 1_555
C25 C24 1_555 1_555
H23 C25 1_555 1_555
C26 C25 1_555 1_555
H24 C26 1_555 1_555
C27 C26 1_555 1_555
H25 C27 1_555 1_555
C28 C27 1_555 1_555
H26 C28 1_555 1_555
C29 C24 1_555 1_555
H27 C29 1_555 1_555
C8 C9 1_555 1_555
C10 C11 1_555 1_555
C21 C22 1_555 1_555
C28 C29 1_555 1_555

#END
