
#######################################################################
#
#                 Cambridge Crystallographic Data Centre
#                                CCDC 
#
#######################################################################
#
# If this CIF has been generated from an entry in the Cambridge 
# Structural Database, then it will include bibliographic, chemical, 
# crystal, experimental, refinement or atomic coordinate data resulting 
# from the CCDC's data processing and validation procedures.
#
#######################################################################

data_RARNIJ
_chemical_formula_moiety         'C20 H14 Br2 N2 O1'
_chemical_name_systematic        
N,N'-bis(4-Bromophenyl)-2-oxo-2-phenylethanimidamide
_symmetry_cell_setting           triclinic
_symmetry_space_group_name_H-M   'P -1'
_symmetry_Int_Tables_number      2
_space_group_name_Hall           '-P 1'
loop_
_symmetry_equiv_pos_site_id
_symmetry_equiv_pos_as_xyz
1 x,y,z
2 -x,-y,-z
_cell_length_a                   6.5710(13)
_cell_length_b                   10.686(2)
_cell_length_c                   12.740(3)
_cell_angle_alpha                85.28(3)
_cell_angle_beta                 76.99(3)
_cell_angle_gamma                84.92(3)
_cell_volume                     866.393
_cell_formula_units_Z            2
loop_
_atom_site_label
_atom_site_type_symbol
_atom_site_fract_x
_atom_site_fract_y
_atom_site_fract_z
C1 C 0.5406(16) 0.9114(9) 0.8065(9)
Br1 Br 1.27544(16) 0.42549(10) 0.64211(10)
Br2 Br -0.24434(17) 1.21434(11) 0.55588(10)
O1 O 0.7226(11) 0.9187(7) 0.9497(6)
C2 C 0.2465(15) 1.0543(9) 0.7566(8)
C3 C 0.1456(16) 1.0879(10) 0.5830(9)
H1 H 0.1737 1.0782 0.5075
C4 C 1.0672(15) 0.5580(9) 0.6694(9)
C5 C 0.8809(15) 0.5540(9) 0.6338(9)
H2 H 0.8577 0.4846 0.5970
C6 C 0.9505(16) 0.7623(9) 0.7364(8)
H3 H 0.9785 0.8348 0.7678
C7 C -0.0433(16) 1.1460(9) 0.6361(9)
C8 C 0.0527(17) 1.1117(11) 0.8040(8)
H4 H 0.0212 1.1193 0.8799
C9 C 0.4488(17) 0.5936(11) 1.1190(8)
H5 H 0.4994 0.5467 1.1756
C10 C 0.7564(15) 0.7590(9) 0.7084(8)
C11 C 0.2916(16) 1.0446(9) 0.6435(9)
H6 H 0.4239 1.0078 0.6085
C12 C 1.1005(16) 0.6647(10) 0.7199(9)
H7 H 1.2279 0.6687 0.7425
C13 C 0.5566(16) 0.6922(10) 1.0605(9)
H8 H 0.6793 0.7158 1.0792
C14 C 0.4854(16) 0.7568(10) 0.9744(8)
C15 C 0.1939(17) 0.6298(11) 1.0072(10)
H9 H 0.0710 0.6075 0.9879
C16 C 0.3014(16) 0.7256(10) 0.9509(9)
H10 H 0.2494 0.7721 0.8945
N1 N 0.3867(13) 1.0103(8) 0.8219(7)
H11 H 0.3758 1.0508 0.8805
C17 C 0.2615(17) 0.5650(10) 1.0918(10)
H12 H 0.1821 0.5003 1.1325
C18 C 0.7303(14) 0.6551(9) 0.6540(8)
H13 H 0.6044 0.6531 0.6295
C19 C 0.5979(15) 0.8640(9) 0.9138(9)
C20 C -0.0942(15) 1.1578(9) 0.7475(8)
H14 H -0.2253 1.1961 0.7824
N2 N 0.6027(13) 0.8594(8) 0.7189(7)
loop_
_geom_bond_atom_site_label_1
_geom_bond_atom_site_label_2
_geom_bond_site_symmetry_1
_geom_bond_site_symmetry_2
C1 N1 1_555 1_555
Br1 C4 1_555 1_555
Br2 C7 1_555 1_555
O1 C19 1_555 1_555
C2 C8 1_555 1_555
C3 H1 1_555 1_555
C4 C5 1_555 1_555
C5 H2 1_555 1_555
C6 H3 1_555 1_555
C7 C3 1_555 1_555
C8 H4 1_555 1_555
C9 H5 1_555 1_555
C10 C6 1_555 1_555
C11 C2 1_555 1_555
H6 C11 1_555 1_555
C12 C4 1_555 1_555
H7 C12 1_555 1_555
C13 C9 1_555 1_555
H8 C13 1_555 1_555
C14 C13 1_555 1_555
C15 H9 1_555 1_555
C16 C14 1_555 1_555
H10 C16 1_555 1_555
N1 C2 1_555 1_555
H11 N1 1_555 1_555
C17 C9 1_555 1_555
H12 C17 1_555 1_555
C18 C5 1_555 1_555
H13 C18 1_555 1_555
C19 C1 1_555 1_555
C20 C7 1_555 1_555
H14 C20 1_555 1_555
N2 C1 1_555 1_555
C3 C11 1_555 1_555
C6 C12 1_555 1_555
C8 C20 1_555 1_555
C10 C18 1_555 1_555
C10 N2 1_555 1_555
C14 C19 1_555 1_555
C15 C16 1_555 1_555
C15 C17 1_555 1_555

#END
