
#######################################################################
#
#                 Cambridge Crystallographic Data Centre
#                                CCDC 
#
#######################################################################
#
# If this CIF has been generated from an entry in the Cambridge 
# Structural Database, then it will include bibliographic, chemical, 
# crystal, experimental, refinement or atomic coordinate data resulting 
# from the CCDC's data processing and validation procedures.
#
#######################################################################

data_RARQUY
_chemical_formula_moiety         'C19 H18 Br2 N2 O5'
_chemical_name_systematic        
(1R,2R,3S,4R,5R,6S)-3,5-bis(4-Bromophenyl)-2-methyl-4,6-dinitrocyclohexanol
_symmetry_cell_setting           monoclinic
_symmetry_space_group_name_H-M   'C 2'
_symmetry_Int_Tables_number      5
_space_group_name_Hall           'C 2y'
loop_
_symmetry_equiv_pos_site_id
_symmetry_equiv_pos_as_xyz
1 x,y,z
2 -x,y,-z
3 1/2+x,1/2+y,z
4 1/2-x,1/2+y,-z
_cell_length_a                   25.066(18)
_cell_length_b                   8.156(6)
_cell_length_c                   20.605(15)
_cell_angle_alpha                90
_cell_angle_beta                 104.031(7)
_cell_angle_gamma                90
_cell_volume                     4086.77
_exptl_crystal_colour            colorless
_exptl_crystal_description       block
_chemical_melting_point          '211-213 deg.C'
_cell_formula_units_Z            8
loop_
_atom_site_label
_atom_site_type_symbol
_atom_site_fract_x
_atom_site_fract_y
_atom_site_fract_z
Br1 Br 0.03204(3) -0.06573(9) 0.09814(4)
Br2 Br 0.51893(5) -0.07106(16) 0.13460(8)
C1 C 0.1608(3) 0.2624(10) 0.1564(4)
H1 H 0.1794 0.3110 0.1963
C2 C 0.1194(3) 0.1455(10) 0.1569(4)
H2 H 0.1121 0.1117 0.1970
C3 C 0.0901(3) 0.0829(10) 0.0971(4)
C4 C 0.1002(3) 0.1305(10) 0.0378(4)
H3 H 0.0789 0.0907 -0.0026
C5 C 0.1420(3) 0.2379(9) 0.0389(4)
H4 H 0.1496 0.2675 -0.0015
C6 C 0.1739(2) 0.3056(8) 0.0977(3)
C7 C 0.2207(2) 0.4190(8) 0.0957(3)
H5 H 0.2108 0.4768 0.0528
C8 C 0.2334(2) 0.5507(8) 0.1509(3)
H6 H 0.2416 0.4960 0.1946
C9 C 0.2820(3) 0.6546(9) 0.1467(4)
H7 H 0.2870 0.7391 0.1814
C10 C 0.3341(2) 0.5536(8) 0.1583(3)
H8 H 0.3394 0.5002 0.2020
C11 C 0.3273(2) 0.4205(8) 0.1057(3)
H9 H 0.3244 0.4773 0.0631
C12 C 0.2741(2) 0.3197(8) 0.0970(3)
H10 H 0.2683 0.2629 0.0539
C13 C 0.3766(3) 0.3064(9) 0.1143(4)
C14 C 0.4088(3) 0.2595(10) 0.1772(4)
H11 H 0.4018 0.3049 0.2157
C15 C 0.4504(3) 0.1478(12) 0.1826(5)
H12 H 0.4716 0.1169 0.2244
C16 C 0.4605(4) 0.0823(12) 0.1255(6)
C17 C 0.4302(4) 0.1231(11) 0.0653(5)
H13 H 0.4372 0.0743 0.0274
C18 C 0.3885(3) 0.2370(10) 0.0585(4)
H14 H 0.3684 0.2669 0.0161
C19 C 0.3844(3) 0.6634(11) 0.1603(4)
H15 H 0.3795 0.7206 0.1185
H16 H 0.4169 0.5968 0.1676
H17 H 0.3882 0.7414 0.1960
N1 N 0.2818(2) 0.1886(8) 0.1505(4)
N2 N 0.1843(3) 0.6590(9) 0.1457(4)
O1 O 0.2821(2) 0.0483(8) 0.1346(4)
O2 O 0.28763(19) 0.2356(6) 0.2091(3)
O3 O 0.1466(2) 0.6580(8) 0.0958(3)
O4 O 0.1854(2) 0.7479(7) 0.1933(3)
O5 O 0.27091(19) 0.7346(6) 0.0825(2)
H35 H 0.2404 0.7071 0.0603
Br3 Br 0.46967(4) 1.15485(10) 0.39975(5)
Br4 Br -0.02059(5) 1.16107(15) 0.36605(7)
C20 C 0.3258(2) 0.9110(9) 0.3183(3)
H18 H 0.2995 0.9110 0.2777
C21 C 0.3701(3) 1.0182(9) 0.3266(4)
H19 H 0.3740 1.0887 0.2926
C22 C 0.4080(3) 1.0152(10) 0.3876(4)
C23 C 0.4021(3) 0.9116(10) 0.4377(3)
H20 H 0.4283 0.9110 0.4783
C24 C 0.3566(3) 0.8066(9) 0.4279(4)
H21 H 0.3518 0.7380 0.4621
C25 C 0.3193(3) 0.8068(9) 0.3669(3)
C26 C 0.2687(2) 0.6898(7) 0.3517(3)
H22 H 0.2647 0.6513 0.3058
C27 C 0.2748(2) 0.5403(8) 0.3943(3)
H23 H 0.2829 0.5738 0.4413
C28 C 0.2239(2) 0.4298(11) 0.3797(3)
H24 H 0.2305 0.3352 0.4099
C29 C 0.1742(2) 0.5264(9) 0.3904(3)
H25 H 0.1822 0.5616 0.4372
C30 C 0.1645(2) 0.6805(8) 0.3458(3)
H26 H 0.1553 0.6396 0.2997
C31 C 0.2159(2) 0.7861(8) 0.3518(3)
H27 H 0.2088 0.8597 0.3131
C32 C 0.1233(3) 0.4149(10) 0.3771(4)
H28 H 0.0926 0.4748 0.3854
H29 H 0.1306 0.3214 0.4062
H30 H 0.1147 0.3789 0.3313
C33 C 0.1166(3) 0.7891(9) 0.3513(4)
C34 C 0.1063(3) 0.8285(10) 0.4120(4)
H31 H 0.1274 0.7812 0.4508
C35 C 0.0649(3) 0.9378(13) 0.4161(4)
H32 H 0.0581 0.9642 0.4573
C36 C 0.0339(3) 1.0068(11) 0.3577(6)
C37 C 0.0424(3) 0.9705(10) 0.2985(5)
H33 H 0.0211 1.0179 0.2597
C38 C 0.0843(3) 0.8592(10) 0.2955(4)
H34 H 0.0902 0.8322 0.2539
N3 N 0.3220(2) 0.4358(9) 0.3834(3)
N4 N 0.22567(19) 0.8929(8) 0.4142(3)
O6 O 0.3415(3) 0.3378(8) 0.4263(3)
O7 O 0.3350(2) 0.4473(7) 0.3303(3)
O8 O 0.24050(19) 0.8243(7) 0.4681(2)
O9 O 0.2173(2) 1.0394(7) 0.4065(3)
O10 O 0.21326(19) 0.3744(6) 0.3124(2)
H36 H 0.2077 0.2753 0.3112
loop_
_geom_bond_atom_site_label_1
_geom_bond_atom_site_label_2
_geom_bond_site_symmetry_1
_geom_bond_site_symmetry_2
Br1 C3 1_555 1_555
Br2 C16 1_555 1_555
Br3 C22 1_555 1_555
Br4 C36 1_555 1_555
C1 H1 1_555 1_555
C2 C1 1_555 1_555
H2 C2 1_555 1_555
C3 C2 1_555 1_555
C4 C3 1_555 1_555
H3 C4 1_555 1_555
C5 C4 1_555 1_555
H4 C5 1_555 1_555
C6 C1 1_555 1_555
C7 C6 1_555 1_555
H5 C7 1_555 1_555
C8 C7 1_555 1_555
H6 C8 1_555 1_555
C9 C8 1_555 1_555
H7 C9 1_555 1_555
C10 C9 1_555 1_555
H8 C10 1_555 1_555
C11 C10 1_555 1_555
H9 C11 1_555 1_555
C12 C7 1_555 1_555
H10 C12 1_555 1_555
C13 C11 1_555 1_555
C14 C13 1_555 1_555
H11 C14 1_555 1_555
C15 C14 1_555 1_555
H12 C15 1_555 1_555
C16 C15 1_555 1_555
C17 C16 1_555 1_555
H13 C17 1_555 1_555
C18 C13 1_555 1_555
H14 C18 1_555 1_555
C19 C10 1_555 1_555
H15 C19 1_555 1_555
H16 C19 1_555 1_555
H17 C19 1_555 1_555
C20 H18 1_555 1_555
C21 C20 1_555 1_555
H19 C21 1_555 1_555
C22 C21 1_555 1_555
C23 C22 1_555 1_555
H20 C23 1_555 1_555
C24 C23 1_555 1_555
H21 C24 1_555 1_555
C25 C20 1_555 1_555
C26 C25 1_555 1_555
H22 C26 1_555 1_555
C27 C26 1_555 1_555
H23 C27 1_555 1_555
C28 C27 1_555 1_555
H24 C28 1_555 1_555
C29 C28 1_555 1_555
H25 C29 1_555 1_555
C30 C29 1_555 1_555
H26 C30 1_555 1_555
C31 C26 1_555 1_555
H27 C31 1_555 1_555
C32 C29 1_555 1_555
H28 C32 1_555 1_555
H29 C32 1_555 1_555
H30 C32 1_555 1_555
C33 C30 1_555 1_555
C34 C33 1_555 1_555
H31 C34 1_555 1_555
C35 C34 1_555 1_555
H32 C35 1_555 1_555
C36 C35 1_555 1_555
C37 C36 1_555 1_555
H33 C37 1_555 1_555
C38 C33 1_555 1_555
H34 C38 1_555 1_555
N1 C12 1_555 1_555
N2 C8 1_555 1_555
N3 C27 1_555 1_555
N4 C31 1_555 1_555
O1 N1 1_555 1_555
O2 N1 1_555 1_555
O3 N2 1_555 1_555
O4 N2 1_555 1_555
O5 C9 1_555 1_555
H35 O5 1_555 1_555
O6 N3 1_555 1_555
O7 N3 1_555 1_555
O8 N4 1_555 1_555
O9 N4 1_555 1_555
O10 C28 1_555 1_555
H36 O10 1_555 1_555
C5 C6 1_555 1_555
C11 C12 1_555 1_555
C17 C18 1_555 1_555
C24 C25 1_555 1_555
C30 C31 1_555 1_555
C37 C38 1_555 1_555

#END
