
#######################################################################
#
#                 Cambridge Crystallographic Data Centre
#                                CCDC 
#
#######################################################################
#
# If this CIF has been generated from an entry in the Cambridge 
# Structural Database, then it will include bibliographic, chemical, 
# crystal, experimental, refinement or atomic coordinate data resulting 
# from the CCDC's data processing and validation procedures.
#
#######################################################################

data_RARTAI
_chemical_compound_source        'Siraitia grosvenorii'
_chemical_name_common            'aglycone mogrol methanol solvate octahydrate'
_chemical_formula_moiety         'C31 H54 O3,C30 H52 O4,3(C1 H4 O1),8(H2 O1)'
_chemical_name_systematic        
'9,10,14-trimethyl-4,9-cyclo-9,10-secocholest-5-ene-1,11,24,25-tetrol  9,10,14,25-tetramethyl-4,9-cyclo-9,10-secocholest-5-ene-1,11,24-triol methanol solvate octahydrate'
_symmetry_cell_setting           triclinic
_symmetry_space_group_name_H-M   'P 1'
_symmetry_Int_Tables_number      1
_space_group_name_Hall           'P 1'
loop_
_symmetry_equiv_pos_site_id
_symmetry_equiv_pos_as_xyz
1 x,y,z
_cell_length_a                   14.9136(6)
_cell_length_b                   14.9888(6)
_cell_length_c                   22.7918(9)
_cell_angle_alpha                97.926(2)
_cell_angle_beta                 93.125(2)
_cell_angle_gamma                114.454(2)
_cell_volume                     4558.15
_exptl_crystal_colour            colorless
_exptl_crystal_description       block
_cell_formula_units_Z            1
loop_
_atom_site_label
_atom_site_type_symbol
_atom_site_fract_x
_atom_site_fract_y
_atom_site_fract_z
C1 C -0.22748(19) 0.68644(18) 0.28496(11)
H1 H -0.2475 0.7010 0.3241
C2 C -0.21614(18) 0.77128(17) 0.25055(11)
C3 C -0.16468(16) 0.76241(14) 0.19415(10)
C4 C -0.06835(16) 0.75246(15) 0.20396(10)
H2 H -0.0221 0.8125 0.2313
C5 C -0.08822(18) 0.66385(17) 0.23679(11)
H3 H -0.1344 0.6029 0.2110
H4 H -0.0266 0.6580 0.2453
C6 C -0.1305(2) 0.67622(19) 0.29439(11)
H5 H -0.0823 0.7349 0.3211
H6 H -0.1419 0.6191 0.3134
C7 C -0.31857(18) 0.76942(19) 0.23629(12)
H7 H -0.3579 0.7127 0.2061
H8 H -0.3110 0.8292 0.2221
H9 H -0.3510 0.7652 0.2717
C8 C -0.1512(2) 0.8717(2) 0.29102(12)
H10 H -0.1844 0.8805 0.3248
H11 H -0.1400 0.9247 0.2689
H12 H -0.0887 0.8726 0.3046
C9 C -0.20055(16) 0.76716(15) 0.14087(10)
H13 H -0.2635 0.7658 0.1370
C10 C -0.14876(16) 0.77444(16) 0.08698(10)
H14 H -0.1593 0.8220 0.0660
H15 H -0.1783 0.7102 0.0607
C11 C -0.03685(16) 0.80619(15) 0.09985(10)
H16 H -0.0172 0.7830 0.0625
C12 C -0.01760(16) 0.74554(15) 0.14655(10)
C13 C -0.06045(18) 0.63648(16) 0.11419(11)
H17 H -0.0340 0.6000 0.1355
H18 H -0.0425 0.6344 0.0744
H19 H -0.1314 0.6071 0.1126
C14 C 0.09689(16) 0.78350(15) 0.16025(10)
H20 H 0.1194 0.7619 0.1237
C15 C 0.15561(15) 0.89543(14) 0.17577(10)
H21 H 0.2256 0.9115 0.1838
H22 H 0.1352 0.9205 0.2117
C16 C 0.13966(16) 0.94702(15) 0.12435(10)
C17 C 0.02661(15) 0.92092(15) 0.11374(10)
C18 C -0.00797(15) 0.97089(14) 0.16557(10)
H23 H -0.0792 0.9408 0.1619
H24 H 0.0157 1.0406 0.1644
H25 H 0.0180 0.9624 0.2028
C19 C 0.17854(16) 0.90818(16) 0.06930(10)
H26 H 0.2405 0.9069 0.0816
H27 H 0.1881 0.9515 0.0405
H28 H 0.1310 0.8422 0.0517
C20 C 0.18523(16) 1.06232(15) 0.13098(11)
H29 H 0.1637 1.0864 0.1673
C21 C 0.12248(17) 1.07312(16) 0.07722(11)
H30 H 0.1068 1.1294 0.0882
H31 H 0.1595 1.0838 0.0432
C22 C 0.02626(16) 0.97580(16) 0.06149(11)
H32 H -0.0317 0.9897 0.0586
H33 H 0.0269 0.9368 0.0240
C23 C 0.29824(16) 1.12414(16) 0.13631(11)
H34 H 0.3243 1.0921 0.1057
C24 C 0.34761(18) 1.12688(17) 0.19706(12)
H35 H 0.3254 1.1609 0.2276
H36 H 0.4183 1.1614 0.1984
H37 H 0.3303 1.0601 0.2035
C25 C 0.32498(17) 1.23013(17) 0.12615(12)
H38 H 0.3024 1.2634 0.1575
H39 H 0.2893 1.2272 0.0885
C26 C 0.43563(17) 1.29262(16) 0.12497(12)
H40 H 0.4709 1.3007 0.1638
H41 H 0.4597 1.2569 0.0959
C27 C 0.45924(18) 1.39401(16) 0.10979(12)
H42 H 0.4125 1.3854 0.0753
C28 C 0.56432(18) 1.44895(17) 0.09390(11)
C29 C 0.5797(2) 1.55016(19) 0.08040(14)
H43 H 0.5340 1.5418 0.0465
H44 H 0.6465 1.5848 0.0718
H45 H 0.5683 1.5880 0.1144
C30 C 0.5843(2) 1.3879(2) 0.04170(12)
H46 H 0.5851 1.3292 0.0536
H47 H 0.6474 1.4269 0.0295
H48 H 0.5330 1.3690 0.0090
O1 O -0.30245(12) 0.59503(12) 0.25324(8)
H49 H -0.3053 0.5494 0.2704
O2 O 0.12413(11) 0.73971(11) 0.20541(7)
H50 H 0.1101 0.6812 0.1922
O3 O 0.44138(14) 1.45201(13) 0.15892(9)
H51 H 0.4227 1.4911 0.1466
O4 O 0.63668(13) 1.46045(12) 0.14201(9)
H52 H 0.6304 1.4934 0.1720
C31 C -0.1654(2) -0.0960(2) 0.66833(12)
H53 H -0.1863 -0.0792 0.7067
C32 C -0.16468(18) -0.01961(18) 0.62830(11)
C33 C -0.11105(17) -0.02725(15) 0.57356(10)
C34 C -0.00978(17) -0.02778(16) 0.58564(10)
H54 H 0.0336 0.0351 0.6118
C35 C -0.02448(19) -0.11339(18) 0.62099(12)
H55 H -0.0707 -0.1764 0.5972
H56 H 0.0384 -0.1168 0.6293
C36 C -0.0646(2) -0.0955(2) 0.67951(13)
H57 H -0.0693 -0.1470 0.7023
H58 H -0.0188 -0.0318 0.7029
C37 C -0.27010(19) -0.0348(2) 0.61228(12)
H59 H -0.3052 -0.0962 0.5847
H60 H -0.2699 0.0194 0.5942
H61 H -0.3024 -0.0374 0.6477
C38 C -0.1089(2) 0.0866(2) 0.66544(13)
H62 H -0.1417 0.0926 0.6999
H63 H -0.1086 0.1346 0.6415
H64 H -0.0418 0.0985 0.6780
C39 C -0.14848(17) -0.02763(16) 0.51941(11)
H65 H -0.2133 -0.0341 0.5143
C40 C -0.09342(17) -0.01831(18) 0.46562(11)
H66 H -0.1064 0.0269 0.4436
H67 H -0.1194 -0.0829 0.4399
C41 C 0.01900(17) 0.01922(17) 0.47987(10)
H68 H 0.0407 -0.0040 0.4434
C42 C 0.04162(17) -0.03624(16) 0.52819(11)
C43 C 0.00514(18) -0.14498(17) 0.49885(12)
H69 H 0.0316 -0.1781 0.5231
H70 H 0.0269 -0.1484 0.4601
H71 H -0.0661 -0.1769 0.4949
C44 C 0.07726(16) 0.13397(16) 0.49155(11)
C45 C 0.19197(16) 0.16521(17) 0.50277(10)
C46 C 0.21089(16) 0.12044(16) 0.55578(11)
H72 H 0.2815 0.1396 0.5641
H73 H 0.1894 0.1467 0.5908
C47 C 0.15569(16) 0.00710(16) 0.54329(11)
H74 H 0.1800 -0.0152 0.5076
C48 C 0.04108(16) 0.18430(15) 0.54217(11)
H75 H -0.0302 0.1538 0.5378
H76 H 0.0644 0.2538 0.5404
H77 H 0.0663 0.1767 0.5799
C49 C 0.23251(17) 0.12620(18) 0.44862(11)
H78 H 0.1898 0.0572 0.4342
H79 H 0.2982 0.1334 0.4607
H80 H 0.2347 0.1638 0.4175
C50 C 0.23401(16) 0.27987(16) 0.50693(11)
H81 H 0.2151 0.3059 0.5437
C51 C 0.16769(19) 0.28683(19) 0.45355(12)
H82 H 0.1488 0.3409 0.4646
H83 H 0.2038 0.2990 0.4192
C52 C 0.07357(17) 0.18530(18) 0.43849(12)
H84 H 0.0136 0.1956 0.4349
H85 H 0.0762 0.1462 0.4015
C53 C 0.34479(17) 0.34032(18) 0.50814(11)
H86 H 0.3669 0.3082 0.4753
C54 C 0.4022(2) 0.3427(2) 0.56624(13)
H87 H 0.3734 0.3621 0.5995
H88 H 0.4702 0.3897 0.5683
H89 H 0.3991 0.2777 0.5675
C55 C 0.37020(19) 0.44750(19) 0.49881(14)
H90 H 0.3301 0.4454 0.4632
H91 H 0.3533 0.4821 0.5325
C56 C 0.47978(18) 0.50586(17) 0.49235(13)
H92 H 0.5186 0.5189 0.5307
H93 H 0.4997 0.4646 0.4644
C57 C 0.50466(18) 0.60409(17) 0.47113(13)
H94 H 0.4552 0.5913 0.4372
C58 C 0.60694(19) 0.65158(18) 0.45002(13)
C59 C 0.6920(2) 0.6697(2) 0.49711(15)
H95 H 0.6929 0.7157 0.5312
H96 H 0.7538 0.6970 0.4808
H97 H 0.6830 0.6078 0.5090
C60 C 0.6218(2) 0.7475(2) 0.42847(16)
H98 H 0.5636 0.7370 0.4030
H99 H 0.6781 0.7675 0.4066
H100 H 0.6332 0.7986 0.4622
O5 O -0.23338(17) -0.19342(15) 0.64086(10)
H101 H -0.2898 -0.2021 0.6471
O6 O 0.18406(12) -0.03376(11) 0.59027(8)
H102 H 0.2315 -0.0454 0.5821
O7 O 0.60944(14) 0.58364(13) 0.39922(9)
H103 H 0.6280 0.5439 0.4108
O8 O 0.49332(14) 0.67250(13) 0.51733(10)
H104 H 0.5176 0.7286 0.5091
C61 C 1.0774(2) 0.44098(18) 0.28479(11)
H105 H 1.1076 0.4563 0.3263
C62 C 0.9865(2) 0.46276(18) 0.28281(12)
H106 H 0.9429 0.4277 0.3102
H107 H 1.0071 0.5335 0.2958
C63 C 0.93077(18) 0.43160(16) 0.22123(11)
H108 H 0.9737 0.4690 0.1943
H109 H 0.8743 0.4480 0.2218
C64 C 0.89356(16) 0.31905(15) 0.19715(10)
H110 H 0.8521 0.2833 0.2258
C65 C 0.98521(16) 0.29839(15) 0.19938(10)
C66 C 1.05053(18) 0.33047(17) 0.25949(11)
C67 C 1.1471(2) 0.3184(2) 0.25665(14)
H111 H 1.1834 0.3541 0.2274
H112 H 1.1321 0.2490 0.2457
H113 H 1.1864 0.3443 0.2950
C68 C 0.9924(2) 0.2663(2) 0.30399(12)
H114 H 1.0318 0.2880 0.3423
H115 H 0.9777 0.1977 0.2899
H116 H 0.9316 0.2731 0.3075
C69 C 1.00573(16) 0.25147(15) 0.15179(10)
H117 H 1.0657 0.2462 0.1550
C70 C 0.94073(17) 0.20686(16) 0.09402(10)
H118 H 0.9426 0.1439 0.0791
H119 H 0.9672 0.2506 0.0655
C71 C 0.83352(16) 0.18889(15) 0.09759(10)
H120 H 0.8062 0.1850 0.0567
C72 C 0.82818(17) 0.28286(15) 0.13516(10)
C73 C 0.8635(2) 0.36576(16) 0.09697(11)
H121 H 0.8442 0.4173 0.1122
H122 H 0.8339 0.3383 0.0564
H123 H 0.9345 0.3932 0.0986
C74 C 0.71713(16) 0.25833(15) 0.14198(10)
H124 H 0.6857 0.2585 0.1031
C75 C 0.65529(15) 0.15708(15) 0.15955(11)
H125 H 0.5871 0.1479 0.1607
H126 H 0.6815 0.1553 0.1990
C76 C 0.65851(16) 0.07273(15) 0.11401(10)
C77 C 0.76763(16) 0.08782(15) 0.11550(10)
C78 C 0.80902(15) 0.07680(14) 0.17601(10)
H127 H 0.8792 0.0966 0.1771
H128 H 0.7769 0.0086 0.1811
H129 H 0.7968 0.1183 0.2075
C79 C 0.75624(17) -0.00383(16) 0.07116(11)
H130 H 0.8124 -0.0196 0.0778
H131 H 0.7503 0.0066 0.0303
C80 C 0.65915(17) -0.08780(16) 0.08431(11)
H132 H 0.6743 -0.1338 0.1043
H133 H 0.6164 -0.1245 0.0474
C81 C 0.60673(15) -0.03714(15) 0.12504(10)
H134 H 0.6281 -0.0371 0.1665
C82 C 0.61144(17) 0.07398(15) 0.05186(10)
H135 H 0.5469 0.0725 0.0551
H136 H 0.6053 0.0168 0.0242
H137 H 0.6530 0.1334 0.0379
C83 C 0.49380(16) -0.09436(16) 0.11457(11)
H138 H 0.4724 -0.0993 0.0724
C84 C 0.44230(17) -0.04217(18) 0.15131(13)
H139 H 0.4741 -0.0210 0.1917
H140 H 0.3739 -0.0872 0.1506
H141 H 0.4463 0.0148 0.1349
C85 C 0.46288(17) -0.20163(16) 0.12698(12)
H142 H 0.4934 -0.2344 0.1006
H143 H 0.4887 -0.1979 0.1677
C86 C 0.35091(18) -0.26537(17) 0.11842(13)
H144 H 0.3236 -0.2479 0.1535
H145 H 0.3216 -0.2495 0.0846
C87 C 0.32103(17) -0.37695(16) 0.10797(12)
H146 H 0.3469 -0.3933 0.0714
C88 C 0.20818(17) -0.43991(16) 0.09862(11)
C89 C 0.15920(18) -0.41636(18) 0.04614(12)
H147 H 0.1574 -0.3531 0.0575
H148 H 0.0927 -0.4672 0.0349
H149 H 0.1966 -0.4140 0.0130
C90 C 0.1842(2) -0.55052(18) 0.08787(14)
H150 H 0.2080 -0.5672 0.0515
H151 H 0.1137 -0.5889 0.0847
H152 H 0.2159 -0.5652 0.1206
O9 O 1.14710(14) 0.50462(14) 0.25106(9)
H153 H 1.1272 0.5444 0.2410
O10 O 0.70758(12) 0.33298(10) 0.18406(8)
H154 H 0.7066 0.3774 0.1670
O11 O 0.36740(13) -0.40150(13) 0.15553(9)
H155 H 0.3915 -0.3536 0.1829
O12 O 0.16533(11) -0.41629(11) 0.14958(8)
H156 H 0.2095 -0.3821 0.1769
C91 C 0.5420(2) 0.02957(19) 0.32758(12)
H157 H 0.5403 -0.0101 0.2892
C92 C 0.63837(18) 0.04995(17) 0.36724(11)
C93 C 0.65789(16) 0.13066(16) 0.42184(10)
C94 C 0.65038(17) 0.22599(16) 0.40926(10)
H158 H 0.7005 0.2565 0.3832
C95 C 0.54723(19) 0.19210(17) 0.37381(12)
H159 H 0.4960 0.1573 0.3976
H160 H 0.5385 0.2499 0.3654
C96 C 0.5368(2) 0.12365(19) 0.31549(13)
H161 H 0.4739 0.1072 0.2923
H162 H 0.5896 0.1575 0.2924
C97 C 0.63065(19) -0.04675(18) 0.38431(12)
H163 H 0.5822 -0.0673 0.4116
H164 H 0.6940 -0.0372 0.4030
H165 H 0.6109 -0.0971 0.3491
C98 C 0.7254(2) 0.08634(18) 0.33073(12)
H166 H 0.7123 0.0384 0.2950
H167 H 0.7848 0.0945 0.3539
H168 H 0.7338 0.1490 0.3203
C99 C 0.67053(17) 0.30512(16) 0.46706(11)
C100 C 0.75041(17) 0.30783(16) 0.51536(11)
H169 H 0.7450 0.3476 0.5517
C101 C 0.72015(19) 0.20271(17) 0.52969(11)
H170 H 0.7765 0.2011 0.5520
H171 H 0.6676 0.1891 0.5551
C102 C 0.68533(17) 0.12220(16) 0.47596(10)
H172 H 0.6828 0.0608 0.4811
C103 C 0.85930(18) 0.36041(16) 0.50364(11)
C104 C 0.88414(17) 0.46958(16) 0.49227(11)
C105 C 0.81280(17) 0.46131(16) 0.43931(11)
H173 H 0.8273 0.5273 0.4309
H174 H 0.8221 0.4226 0.4044
C106 C 0.70552(16) 0.41193(16) 0.45175(11)
H175 H 0.7009 0.4535 0.4875
C107 C 0.88574(16) 0.30011(16) 0.45321(12)
H176 H 0.8581 0.2314 0.4575
H177 H 0.9566 0.3252 0.4552
H178 H 0.8591 0.3060 0.4154
C108 C 0.93869(19) 0.38509(18) 0.55708(12)
H179 H 0.9518 0.3278 0.5610
H180 H 0.9177 0.4061 0.5940
C109 C 1.03146(19) 0.47090(18) 0.54190(13)
H181 H 1.0808 0.4471 0.5311
H182 H 1.0605 0.5242 0.5762
C110 C 0.99816(18) 0.50974(17) 0.48837(12)
H183 H 1.0064 0.4727 0.4517
C111 C 0.87231(18) 0.53667(17) 0.54670(12)
H184 H 0.8110 0.5007 0.5617
H185 H 0.8720 0.5954 0.5346
H186 H 0.9267 0.5553 0.5774
C112 C 1.05767(18) 0.62000(17) 0.48726(11)
H187 H 1.0412 0.6578 0.5201
C113 C 1.0293(2) 0.6472(2) 0.42922(13)
H188 H 1.0294 0.6004 0.3960
H189 H 1.0763 0.7130 0.4260
H190 H 0.9642 0.6455 0.4291
C114 C 1.1683(2) 0.65042(19) 0.49692(16)
H191 H 1.1867 0.6164 0.4637
H192 H 1.1841 0.6292 0.5329
C115 C 1.23088(18) 0.76435(18) 0.50277(14)
H193 H 1.2247 0.7833 0.4642
H194 H 1.2037 0.7986 0.5306
C116 C 1.33981(18) 0.79882(18) 0.52389(13)
H195 H 1.3442 0.7666 0.5578
C117 C 1.39673(18) 0.91159(19) 0.54492(13)
C118 C 1.5039(2) 0.9377(2) 0.56787(17)
H196 H 1.5054 0.9072 0.6020
H197 H 1.5398 1.0087 0.5790
H198 H 1.5340 0.9138 0.5371
C119 C 1.3906(2) 0.9713(2) 0.49850(14)
H199 H 1.4145 0.9511 0.4631
H200 H 1.4306 1.0407 0.5135
H201 H 1.3229 0.9602 0.4892
C120 C 0.57545(18) 0.28239(18) 0.49610(12)
H202 H 0.5276 0.2903 0.4700
H203 H 0.5899 0.3274 0.5333
H204 H 0.5491 0.2151 0.5033
O13 O 1.35436(13) 0.93878(14) 0.59540(9)
H205 H 1.3799 0.9308 0.6258
O14 O 0.45782(16) -0.02573(16) 0.35388(10)
H206 H 0.4586 0.0058 0.3865
O15 O 0.64013(11) 0.41626(11) 0.40545(8)
H207 H 0.6512 0.3943 0.3730
O16 O 1.38706(14) 0.76665(15) 0.47787(10)
H208 H 1.3753 0.7081 0.4776
C121 C 0.51473(19) 0.16890(19) 0.71025(11)
H209 H 0.5087 0.1293 0.6710
C122 C 0.4976(2) 0.2575(2) 0.70094(12)
H210 H 0.4297 0.2357 0.6831
H211 H 0.5414 0.2922 0.6735
C123 C 0.51606(18) 0.32866(18) 0.75949(12)
H212 H 0.4695 0.2949 0.7859
H213 H 0.5040 0.3850 0.7517
C124 C 0.62335(16) 0.36705(16) 0.79097(10)
H214 H 0.6687 0.4004 0.7632
C125 C 0.63898(15) 0.27473(16) 0.79926(10)
C126 C 0.61883(18) 0.19747(18) 0.74314(11)
C127 C 0.6269(2) 0.10255(18) 0.75587(13)
H215 H 0.5830 0.0745 0.7844
H216 H 0.6939 0.1190 0.7717
H217 H 0.6088 0.0550 0.7195
C128 C 0.6974(2) 0.2423(2) 0.70099(12)
H218 H 0.6867 0.1930 0.6664
H219 H 0.7626 0.2629 0.7215
H220 H 0.6915 0.2987 0.6889
C129 C 0.67145(16) 0.26450(16) 0.85207(10)
H221 H 0.6738 0.2042 0.8551
C130 C 0.70464(16) 0.34253(16) 0.90707(10)
H222 H 0.7629 0.3427 0.9283
H223 H 0.6527 0.3252 0.9329
C131 C 0.72925(16) 0.44670(15) 0.89489(10)
H224 H 0.7248 0.4840 0.9326
C132 C 0.64534(16) 0.44481(16) 0.84913(10)
C133 C 0.55317(16) 0.41912(18) 0.88118(11)
H225 H 0.5020 0.4251 0.8568
H226 H 0.5692 0.4641 0.9185
H227 H 0.5302 0.3521 0.8884
C134 C 0.83798(16) 0.50444(15) 0.88126(10)
C135 C 0.85857(16) 0.61266(15) 0.87196(11)
C136 C 0.78185(16) 0.60333(15) 0.82024(10)
H228 H 0.7940 0.6690 0.8123
H229 H 0.7890 0.5650 0.7844
C137 C 0.67687(16) 0.55233(15) 0.83627(10)
H230 H 0.6735 0.5927 0.8730
C138 C 0.86229(15) 0.44615(15) 0.82846(11)
H231 H 0.8345 0.3768 0.8313
H232 H 0.9330 0.4708 0.8294
H233 H 0.8346 0.4544 0.7917
C139 C 0.84674(16) 0.67606(16) 0.92857(11)
H234 H 0.7867 0.6376 0.9441
H235 H 0.8437 0.7348 0.9183
H236 H 0.9025 0.6949 0.9583
C140 C 0.91862(17) 0.52780(16) 0.93294(11)
H237 H 0.9341 0.4713 0.9346
H238 H 0.8981 0.5455 0.9708
C141 C 1.00930(17) 0.61763(16) 0.91826(12)
H239 H 1.0603 0.5971 0.9064
H240 H 1.0372 0.6701 0.9530
C142 C 0.97120(17) 0.65587(15) 0.86580(11)
H241 H 0.9779 0.6186 0.8287
C143 C 1.03000(17) 0.76659(16) 0.86308(12)
H242 H 1.0121 0.8055 0.8945
C144 C 1.00181(19) 0.78834(18) 0.80339(13)
H243 H 1.0168 0.7493 0.7718
H244 H 1.0387 0.8578 0.8023
H245 H 0.9321 0.7717 0.7984
C145 C 1.14121(19) 0.79909(18) 0.87365(14)
H246 H 1.1597 0.7625 0.8418
H247 H 1.1566 0.7807 0.9108
C146 C 1.20512(18) 0.91050(18) 0.87673(14)
H248 H 1.1906 0.9292 0.8395
H249 H 1.1870 0.9475 0.9085
C147 C 1.31428(18) 0.93962(18) 0.88749(12)
H250 H 1.3266 0.9108 0.9214
C148 C 1.38022(18) 1.05458(18) 0.90175(11)
C149 C 1.3539(2) 1.1002(2) 0.95818(13)
H251 H 1.2876 1.0947 0.9511
H252 H 1.3996 1.1692 0.9691
H253 H 1.3579 1.0656 0.9899
C150 C 1.4883(2) 1.0727(2) 0.90876(14)
H254 H 1.4993 1.0379 0.9387
H255 H 1.5295 1.1427 0.9205
H256 H 1.5048 1.0489 0.8714
O17 O 0.60947(11) 0.55714(11) 0.79055(8)
O18 O 1.34324(13) 0.89718(14) 0.83607(10)
H257 H 1.3934 0.8903 0.8458
O19 O 1.36113(12) 1.10083(12) 0.85577(8)
H258 H 1.3971 1.1006 0.8299
O20 O 0.44091(12) 0.10767(12) 0.74349(8)
H259 H 0.3881 0.1103 0.7349
H260 H 0.5664(12) 0.5630(18) 0.7683(10)
C151 C 1.26161(19) 0.45612(18) 0.71116(11)
H261 H 1.2557 0.4657 0.6697
C152 C 1.2850(2) 0.36641(19) 0.71210(12)
H262 H 1.3493 0.3806 0.6986
H263 H 1.2356 0.3094 0.6848
C153 C 1.28589(17) 0.34116(18) 0.77490(11)
H264 H 1.3373 0.3972 0.8017
H265 H 1.3019 0.2846 0.7741
C154 C 1.18574(15) 0.31666(15) 0.79890(10)
H266 H 1.1352 0.2614 0.7703
C155 C 1.16420(15) 0.40788(15) 0.79747(10)
C156 C 1.16365(18) 0.44167(18) 0.73623(11)
C157 C 1.1527(2) 0.53826(19) 0.73949(13)
H267 H 1.2043 0.5892 0.7681
H268 H 1.0892 0.5289 0.7514
H269 H 1.1579 0.5578 0.7010
C158 C 1.0779(2) 0.3621(2) 0.69324(12)
H270 H 1.0760 0.3840 0.6557
H271 H 1.0168 0.3501 0.7095
H272 H 1.0867 0.3017 0.6872
C159 C 1.14345(16) 0.45312(15) 0.84551(11)
H273 H 1.1377 0.5119 0.8429
C160 C 1.12892(17) 0.41663(16) 0.90276(11)
H274 H 1.0745 0.4273 0.9188
H275 H 1.1883 0.4562 0.9307
C161 C 1.10662(16) 0.30573(15) 0.89897(10)
H276 H 1.1232 0.2983 0.9397
C162 C 1.18133(16) 0.28171(16) 0.86076(10)
C163 C 1.28332(17) 0.33364(18) 0.89815(11)
H277 H 1.3286 0.3113 0.8798
H278 H 1.2776 0.3178 0.9376
H279 H 1.3078 0.4044 0.9006
C164 C 1.14976(15) 0.16721(16) 0.85294(10)
H280 H 1.1697 0.1546 0.8915
C165 C 1.04056(15) 0.09937(14) 0.83694(10)
H281 H 1.0302 0.0308 0.8356
H282 H 1.0182 0.1059 0.7977
C166 C 0.97960(16) 0.12529(15) 0.88286(10)
C167 C 0.99659(16) 0.23510(15) 0.88162(10)
C168 C 0.95347(15) 0.24618(14) 0.82101(10)
H283 H 0.9731 0.3155 0.8199
H284 H 0.8823 0.2121 0.8166
H285 H 0.9783 0.2178 0.7891
C169 C 0.92675(17) 0.24678(16) 0.92587(11)
H286 H 0.9073 0.2989 0.9186
H287 H 0.9582 0.2625 0.9667
C170 C 0.83663(16) 0.14482(15) 0.91414(11)
H288 H 0.7798 0.1498 0.8947
H289 H 0.8196 0.1219 0.9515
C171 C 0.86432(16) 0.07126(15) 0.87371(10)
H290 H 0.8426 0.0716 0.8324
C172 C 1.01306(16) 0.10958(16) 0.94409(10)
H291 H 1.0119 0.0445 0.9404
H292 H 0.9689 0.1153 0.9719
H293 H 1.0793 0.1591 0.9582
C173 C 0.81046(17) -0.03563(15) 0.88462(11)
H294 H 0.8297 -0.0362 0.9263
C174 C 0.8409(2) -0.10661(17) 0.84550(14)
H295 H 0.8315 -0.1007 0.8045
H296 H 0.8010 -0.1737 0.8504
H297 H 0.9096 -0.0902 0.8569
C175 C 0.69796(18) -0.07049(17) 0.87575(12)
H298 H 0.6785 -0.0648 0.8356
H299 H 0.6811 -0.0262 0.9034
C176 C 0.63776(18) -0.17750(17) 0.88485(12)
H300 H 0.6428 -0.2227 0.8518
H301 H 0.6669 -0.1875 0.9211
C177 C 0.52865(17) -0.20412(16) 0.88934(11)
H302 H 0.5253 -0.1615 0.9251
C178 C 0.46877(18) -0.31316(17) 0.89695(12)
C179 C 0.36101(19) -0.3313(2) 0.90072(15)
H303 H 0.3571 -0.2911 0.9362
H304 H 0.3218 -0.4003 0.9020
H305 H 0.3362 -0.3140 0.8664
C180 C 0.5092(2) -0.33769(19) 0.95103(12)
H306 H 0.5754 -0.3307 0.9469
H307 H 0.4678 -0.4050 0.9549
H308 H 0.5103 -0.2931 0.9859
C181 C 0.47443(13) -0.37789(13) 0.84645(10)
H309 H 0.4086 -0.4244 0.8290
H310 H 0.5106 -0.4135 0.8589
H311 H 0.5078 -0.3393 0.8175
O21 O 1.34424(14) 0.54158(13) 0.74419(9)
H312 H 1.3511 0.5908 0.7297
O22 O 1.20330(11) 0.13612(11) 0.81050(7)
H313 H 1.2481 0.1282 0.8283
O23 O 0.48582(13) -0.18171(13) 0.83997(9)
H314 H 0.5240 -0.1274 0.8331
O24 O 0.23772(16) 0.0502(2) 0.70567(11)
O25 O 0.2039(4) 0.8508(3) 0.7262(2)
H315 H 0.2071 0.8310 0.7577
C182 C 0.1649(7) 0.7732(5) 0.6813(4)
H316 H 0.1759 0.7964 0.6440
H317 H 0.0949 0.7382 0.6828
H318 H 0.1960 0.7291 0.6849
O26 O 0.35028(16) 0.61170(16) 0.27738(11)
O27 O 0.35788(18) 0.77239(16) 0.35810(12)
O28 O 0.55994(19) 0.70504(19) 0.63705(12)
O29 O 0.4378(2) 0.73471(18) 0.71913(12)
O30 O 0.50386(19) 0.5521(2) 0.29218(14)
O31 O 0.3908(3) 0.8960(2) 0.70342(14)
O32 O 0.6719(2) 0.41309(17) 0.29047(11)
O33 O 0.1849(3) 0.7944(3) 0.32350(17)
H319 H 0.1664 0.7596 0.3491
C183 C 0.1904(4) 0.8865(4) 0.34371(19)
H320 H 0.2083 0.9030 0.3862
H321 H 0.1270 0.8869 0.3341
H322 H 0.2396 0.9347 0.3250
O34 O 0.6037(3) 0.5503(3) 0.67099(18)
H327 H 0.5673 0.4945 0.6767
C185 C 0.6861(3) 0.5492(3) 0.65134(19)
H328 H 0.6774 0.5365 0.6085
H329 H 0.6988 0.4978 0.6657
H330 H 0.7411 0.6126 0.6657
O36 O 0.4524(5) 0.3745(6) 0.2762(3)
H335 H 0.4448 0.3247 0.2526
C186 C 0.4018(7) 0.3484(10) 0.3198(5)
H336 H 0.3645 0.2774 0.3126
H337 H 0.3570 0.3796 0.3230
H338 H 0.4459 0.3689 0.3562
H323? H 0.2035 0.7832 0.3550
C184? C 0.2497(5) 0.8588(5) 0.3088(3)
H324? H 0.3116 0.8630 0.3264
H325? H 0.2450 0.9203 0.3216
H326? H 0.2465 0.8467 0.2660
H331? H 0.6616 0.4894 0.6681
H332? H 0.7562 0.5724 0.6502
H333? H 0.6532 0.5356 0.6116
O35? O 0.6679(5) 0.6199(4) 0.6854(3)
H334? H 0.6151 0.6185 0.6719
loop_
_geom_bond_atom_site_label_1
_geom_bond_atom_site_label_2
_geom_bond_site_symmetry_1
_geom_bond_site_symmetry_2
C1 H1 1_555 1_555
C2 C1 1_555 1_555
C3 C2 1_555 1_555
C4 C3 1_555 1_555
H2 C4 1_555 1_555
C5 C4 1_555 1_555
H3 C5 1_555 1_555
H4 C5 1_555 1_555
C6 C1 1_555 1_555
H5 C6 1_555 1_555
H6 C6 1_555 1_555
C7 C2 1_555 1_555
H7 C7 1_555 1_555
H8 C7 1_555 1_555
H9 C7 1_555 1_555
C8 C2 1_555 1_555
H10 C8 1_555 1_555
H11 C8 1_555 1_555
H12 C8 1_555 1_555
C9 C3 1_555 1_555
H13 C9 1_555 1_555
C10 C9 1_555 1_555
H14 C10 1_555 1_555
H15 C10 1_555 1_555
C11 C10 1_555 1_555
H16 C11 1_555 1_555
C12 C4 1_555 1_555
C13 C12 1_555 1_555
H17 C13 1_555 1_555
H18 C13 1_555 1_555
H19 C13 1_555 1_555
C14 C12 1_555 1_555
H20 C14 1_555 1_555
C15 C14 1_555 1_555
H21 C15 1_555 1_555
H22 C15 1_555 1_555
C16 C15 1_555 1_555
C17 C11 1_555 1_555
C18 C17 1_555 1_555
H23 C18 1_555 1_555
H24 C18 1_555 1_555
H25 C18 1_555 1_555
C19 C16 1_555 1_555
H26 C19 1_555 1_555
H27 C19 1_555 1_555
H28 C19 1_555 1_555
C20 C16 1_555 1_555
H29 C20 1_555 1_555
C21 C20 1_555 1_555
H30 C21 1_555 1_555
H31 C21 1_555 1_555
C22 C17 1_555 1_555
H32 C22 1_555 1_555
H33 C22 1_555 1_555
C23 C20 1_555 1_555
H34 C23 1_555 1_555
C24 C23 1_555 1_555
H35 C24 1_555 1_555
H36 C24 1_555 1_555
H37 C24 1_555 1_555
C25 C23 1_555 1_555
H38 C25 1_555 1_555
H39 C25 1_555 1_555
C26 C25 1_555 1_555
H40 C26 1_555 1_555
H41 C26 1_555 1_555
C27 C26 1_555 1_555
H42 C27 1_555 1_555
C28 C27 1_555 1_555
C29 C28 1_555 1_555
H43 C29 1_555 1_555
H44 C29 1_555 1_555
H45 C29 1_555 1_555
C30 C28 1_555 1_555
H46 C30 1_555 1_555
H47 C30 1_555 1_555
H48 C30 1_555 1_555
O1 C1 1_555 1_555
H49 O1 1_555 1_555
O2 C14 1_555 1_555
H50 O2 1_555 1_555
O3 C27 1_555 1_555
H51 O3 1_555 1_555
O4 C28 1_555 1_555
H52 O4 1_555 1_555
C31 H53 1_555 1_555
C32 C31 1_555 1_555
C33 C32 1_555 1_555
C34 C33 1_555 1_555
H54 C34 1_555 1_555
C35 C34 1_555 1_555
H55 C35 1_555 1_555
H56 C35 1_555 1_555
C36 C31 1_555 1_555
H57 C36 1_555 1_555
H58 C36 1_555 1_555
C37 C32 1_555 1_555
H59 C37 1_555 1_555
H60 C37 1_555 1_555
H61 C37 1_555 1_555
C38 C32 1_555 1_555
H62 C38 1_555 1_555
H63 C38 1_555 1_555
H64 C38 1_555 1_555
C39 C33 1_555 1_555
H65 C39 1_555 1_555
C40 C39 1_555 1_555
H66 C40 1_555 1_555
H67 C40 1_555 1_555
C41 C40 1_555 1_555
H68 C41 1_555 1_555
C42 C34 1_555 1_555
C43 C42 1_555 1_555
H69 C43 1_555 1_555
H70 C43 1_555 1_555
H71 C43 1_555 1_555
C44 C41 1_555 1_555
C45 C44 1_555 1_555
C46 C45 1_555 1_555
H72 C46 1_555 1_555
H73 C46 1_555 1_555
C47 C42 1_555 1_555
H74 C47 1_555 1_555
C48 C44 1_555 1_555
H75 C48 1_555 1_555
H76 C48 1_555 1_555
H77 C48 1_555 1_555
C49 C45 1_555 1_555
H78 C49 1_555 1_555
H79 C49 1_555 1_555
H80 C49 1_555 1_555
C50 C45 1_555 1_555
H81 C50 1_555 1_555
C51 C50 1_555 1_555
H82 C51 1_555 1_555
H83 C51 1_555 1_555
C52 C44 1_555 1_555
H84 C52 1_555 1_555
H85 C52 1_555 1_555
C53 C50 1_555 1_555
H86 C53 1_555 1_555
C54 C53 1_555 1_555
H87 C54 1_555 1_555
H88 C54 1_555 1_555
H89 C54 1_555 1_555
C55 C53 1_555 1_555
H90 C55 1_555 1_555
H91 C55 1_555 1_555
C56 C55 1_555 1_555
H92 C56 1_555 1_555
H93 C56 1_555 1_555
C57 C56 1_555 1_555
H94 C57 1_555 1_555
C58 C57 1_555 1_555
C59 C58 1_555 1_555
H95 C59 1_555 1_555
H96 C59 1_555 1_555
H97 C59 1_555 1_555
C60 C58 1_555 1_555
H98 C60 1_555 1_555
H99 C60 1_555 1_555
H100 C60 1_555 1_555
O5 C31 1_555 1_555
H101 O5 1_555 1_555
O6 C47 1_555 1_555
H102 O6 1_555 1_555
O7 C58 1_555 1_555
H103 O7 1_555 1_555
O8 C57 1_555 1_555
H104 O8 1_555 1_555
C61 H105 1_555 1_555
C62 C61 1_555 1_555
H106 C62 1_555 1_555
H107 C62 1_555 1_555
C63 C62 1_555 1_555
H108 C63 1_555 1_555
H109 C63 1_555 1_555
C64 C63 1_555 1_555
H110 C64 1_555 1_555
C65 C64 1_555 1_555
C66 C61 1_555 1_555
C67 C66 1_555 1_555
H111 C67 1_555 1_555
H112 C67 1_555 1_555
H113 C67 1_555 1_555
C68 C66 1_555 1_555
H114 C68 1_555 1_555
H115 C68 1_555 1_555
H116 C68 1_555 1_555
C69 C65 1_555 1_555
H117 C69 1_555 1_555
C70 C69 1_555 1_555
H118 C70 1_555 1_555
H119 C70 1_555 1_555
C71 C70 1_555 1_555
H120 C71 1_555 1_555
C72 C64 1_555 1_555
C73 C72 1_555 1_555
H121 C73 1_555 1_555
H122 C73 1_555 1_555
H123 C73 1_555 1_555
C74 C72 1_555 1_555
H124 C74 1_555 1_555
C75 C74 1_555 1_555
H125 C75 1_555 1_555
H126 C75 1_555 1_555
C76 C75 1_555 1_555
C77 C71 1_555 1_555
C78 C77 1_555 1_555
H127 C78 1_555 1_555
H128 C78 1_555 1_555
H129 C78 1_555 1_555
C79 C77 1_555 1_555
H130 C79 1_555 1_555
H131 C79 1_555 1_555
C80 C79 1_555 1_555
H132 C80 1_555 1_555
H133 C80 1_555 1_555
C81 C76 1_555 1_555
H134 C81 1_555 1_555
C82 C76 1_555 1_555
H135 C82 1_555 1_555
H136 C82 1_555 1_555
H137 C82 1_555 1_555
C83 C81 1_555 1_555
H138 C83 1_555 1_555
C84 C83 1_555 1_555
H139 C84 1_555 1_555
H140 C84 1_555 1_555
H141 C84 1_555 1_555
C85 C83 1_555 1_555
H142 C85 1_555 1_555
H143 C85 1_555 1_555
C86 C85 1_555 1_555
H144 C86 1_555 1_555
H145 C86 1_555 1_555
C87 C86 1_555 1_555
H146 C87 1_555 1_555
C88 C87 1_555 1_555
C89 C88 1_555 1_555
H147 C89 1_555 1_555
H148 C89 1_555 1_555
H149 C89 1_555 1_555
C90 C88 1_555 1_555
H150 C90 1_555 1_555
H151 C90 1_555 1_555
H152 C90 1_555 1_555
O9 C61 1_555 1_555
H153 O9 1_555 1_555
O10 C74 1_555 1_555
H154 O10 1_555 1_555
O11 C87 1_555 1_555
H155 O11 1_555 1_555
O12 C88 1_555 1_555
H156 O12 1_555 1_555
C91 H157 1_555 1_555
C92 C91 1_555 1_555
C93 C92 1_555 1_555
C94 C93 1_555 1_555
H158 C94 1_555 1_555
C95 C94 1_555 1_555
H159 C95 1_555 1_555
H160 C95 1_555 1_555
C96 C91 1_555 1_555
H161 C96 1_555 1_555
H162 C96 1_555 1_555
C97 C92 1_555 1_555
H163 C97 1_555 1_555
H164 C97 1_555 1_555
H165 C97 1_555 1_555
C98 C92 1_555 1_555
H166 C98 1_555 1_555
H167 C98 1_555 1_555
H168 C98 1_555 1_555
C99 C94 1_555 1_555
C100 C99 1_555 1_555
H169 C100 1_555 1_555
C101 C100 1_555 1_555
H170 C101 1_555 1_555
H171 C101 1_555 1_555
C102 C93 1_555 1_555
H172 C102 1_555 1_555
C103 C100 1_555 1_555
C104 C103 1_555 1_555
C105 C104 1_555 1_555
H173 C105 1_555 1_555
H174 C105 1_555 1_555
C106 C99 1_555 1_555
H175 C106 1_555 1_555
C107 C103 1_555 1_555
H176 C107 1_555 1_555
H177 C107 1_555 1_555
H178 C107 1_555 1_555
C108 C103 1_555 1_555
H179 C108 1_555 1_555
H180 C108 1_555 1_555
C109 C108 1_555 1_555
H181 C109 1_555 1_555
H182 C109 1_555 1_555
C110 C104 1_555 1_555
H183 C110 1_555 1_555
C111 C104 1_555 1_555
H184 C111 1_555 1_555
H185 C111 1_555 1_555
H186 C111 1_555 1_555
C112 C110 1_555 1_555
H187 C112 1_555 1_555
C113 C112 1_555 1_555
H188 C113 1_555 1_555
H189 C113 1_555 1_555
H190 C113 1_555 1_555
C114 C112 1_555 1_555
H191 C114 1_555 1_555
H192 C114 1_555 1_555
C115 C114 1_555 1_555
H193 C115 1_555 1_555
H194 C115 1_555 1_555
C116 C115 1_555 1_555
H195 C116 1_555 1_555
C117 C116 1_555 1_555
C118 C117 1_555 1_555
H196 C118 1_555 1_555
H197 C118 1_555 1_555
H198 C118 1_555 1_555
C119 C117 1_555 1_555
H199 C119 1_555 1_555
H200 C119 1_555 1_555
H201 C119 1_555 1_555
C120 C99 1_555 1_555
H202 C120 1_555 1_555
H203 C120 1_555 1_555
H204 C120 1_555 1_555
O13 C117 1_555 1_555
H205 O13 1_555 1_555
O14 C91 1_555 1_555
H206 O14 1_555 1_555
O15 C106 1_555 1_555
H207 O15 1_555 1_555
O16 C116 1_555 1_555
H208 O16 1_555 1_555
C121 H209 1_555 1_555
C122 C121 1_555 1_555
H210 C122 1_555 1_555
H211 C122 1_555 1_555
C123 C122 1_555 1_555
H212 C123 1_555 1_555
H213 C123 1_555 1_555
C124 C123 1_555 1_555
H214 C124 1_555 1_555
C125 C124 1_555 1_555
C126 C121 1_555 1_555
C127 C126 1_555 1_555
H215 C127 1_555 1_555
H216 C127 1_555 1_555
H217 C127 1_555 1_555
C128 C126 1_555 1_555
H218 C128 1_555 1_555
H219 C128 1_555 1_555
H220 C128 1_555 1_555
C129 C125 1_555 1_555
H221 C129 1_555 1_555
C130 C129 1_555 1_555
H222 C130 1_555 1_555
H223 C130 1_555 1_555
C131 C130 1_555 1_555
H224 C131 1_555 1_555
C132 C124 1_555 1_555
C133 C132 1_555 1_555
H225 C133 1_555 1_555
H226 C133 1_555 1_555
H227 C133 1_555 1_555
C134 C131 1_555 1_555
C135 C134 1_555 1_555
C136 C135 1_555 1_555
H228 C136 1_555 1_555
H229 C136 1_555 1_555
C137 C132 1_555 1_555
H230 C137 1_555 1_555
C138 C134 1_555 1_555
H231 C138 1_555 1_555
H232 C138 1_555 1_555
H233 C138 1_555 1_555
C139 C135 1_555 1_555
H234 C139 1_555 1_555
H235 C139 1_555 1_555
H236 C139 1_555 1_555
C140 C134 1_555 1_555
H237 C140 1_555 1_555
H238 C140 1_555 1_555
C141 C140 1_555 1_555
H239 C141 1_555 1_555
H240 C141 1_555 1_555
C142 C135 1_555 1_555
H241 C142 1_555 1_555
C143 C142 1_555 1_555
H242 C143 1_555 1_555
C144 C143 1_555 1_555
H243 C144 1_555 1_555
H244 C144 1_555 1_555
H245 C144 1_555 1_555
C145 C143 1_555 1_555
H246 C145 1_555 1_555
H247 C145 1_555 1_555
C146 C145 1_555 1_555
H248 C146 1_555 1_555
H249 C146 1_555 1_555
C147 C146 1_555 1_555
H250 C147 1_555 1_555
C148 C147 1_555 1_555
C149 C148 1_555 1_555
H251 C149 1_555 1_555
H252 C149 1_555 1_555
H253 C149 1_555 1_555
C150 C148 1_555 1_555
H254 C150 1_555 1_555
H255 C150 1_555 1_555
H256 C150 1_555 1_555
O17 C137 1_555 1_555
O18 C147 1_555 1_555
H257 O18 1_555 1_555
O19 C148 1_555 1_555
H258 O19 1_555 1_555
O20 C121 1_555 1_555
H259 O20 1_555 1_555
H260 O17 1_555 1_555
C151 H261 1_555 1_555
C152 C151 1_555 1_555
H262 C152 1_555 1_555
H263 C152 1_555 1_555
C153 C152 1_555 1_555
H264 C153 1_555 1_555
H265 C153 1_555 1_555
C154 C153 1_555 1_555
H266 C154 1_555 1_555
C155 C154 1_555 1_555
C156 C151 1_555 1_555
C157 C156 1_555 1_555
H267 C157 1_555 1_555
H268 C157 1_555 1_555
H269 C157 1_555 1_555
C158 C156 1_555 1_555
H270 C158 1_555 1_555
H271 C158 1_555 1_555
H272 C158 1_555 1_555
C159 C155 1_555 1_555
H273 C159 1_555 1_555
C160 C159 1_555 1_555
H274 C160 1_555 1_555
H275 C160 1_555 1_555
C161 C160 1_555 1_555
H276 C161 1_555 1_555
C162 C154 1_555 1_555
C163 C162 1_555 1_555
H277 C163 1_555 1_555
H278 C163 1_555 1_555
H279 C163 1_555 1_555
C164 C162 1_555 1_555
H280 C164 1_555 1_555
C165 C164 1_555 1_555
H281 C165 1_555 1_555
H282 C165 1_555 1_555
C166 C165 1_555 1_555
C167 C161 1_555 1_555
C168 C167 1_555 1_555
H283 C168 1_555 1_555
H284 C168 1_555 1_555
H285 C168 1_555 1_555
C169 C167 1_555 1_555
H286 C169 1_555 1_555
H287 C169 1_555 1_555
C170 C169 1_555 1_555
H288 C170 1_555 1_555
H289 C170 1_555 1_555
C171 C166 1_555 1_555
H290 C171 1_555 1_555
C172 C166 1_555 1_555
H291 C172 1_555 1_555
H292 C172 1_555 1_555
H293 C172 1_555 1_555
C173 C171 1_555 1_555
H294 C173 1_555 1_555
C174 C173 1_555 1_555
H295 C174 1_555 1_555
H296 C174 1_555 1_555
H297 C174 1_555 1_555
C175 C173 1_555 1_555
H298 C175 1_555 1_555
H299 C175 1_555 1_555
C176 C175 1_555 1_555
H300 C176 1_555 1_555
H301 C176 1_555 1_555
C177 C176 1_555 1_555
H302 C177 1_555 1_555
C178 C177 1_555 1_555
C179 C178 1_555 1_555
H303 C179 1_555 1_555
H304 C179 1_555 1_555
H305 C179 1_555 1_555
C180 C178 1_555 1_555
H306 C180 1_555 1_555
H307 C180 1_555 1_555
H308 C180 1_555 1_555
C181 C178 1_555 1_555
H309 C181 1_555 1_555
H310 C181 1_555 1_555
H311 C181 1_555 1_555
O21 C151 1_555 1_555
H312 O21 1_555 1_555
O22 C164 1_555 1_555
H313 O22 1_555 1_555
O23 C177 1_555 1_555
H314 O23 1_555 1_555
O25 H315 1_555 1_555
C182 O25 1_555 1_555
H316 C182 1_555 1_555
H317 C182 1_555 1_555
H318 C182 1_555 1_555
O33 H319 1_555 1_555
C183 O33 1_555 1_555
H320 C183 1_555 1_555
H321 C183 1_555 1_555
H322 C183 1_555 1_555
O34 H327 1_555 1_555
C185 O34 1_555 1_555
H328 C185 1_555 1_555
H329 C185 1_555 1_555
H330 C185 1_555 1_555
O36 H335 1_555 1_555
C186 O36 1_555 1_555
H336 C186 1_555 1_555
H337 C186 1_555 1_555
H338 C186 1_555 1_555
C5 C6 1_555 1_555
C11 C12 1_555 1_555
C16 C17 1_555 1_555
C21 C22 1_555 1_555
C35 C36 1_555 1_555
C41 C42 1_555 1_555
C46 C47 1_555 1_555
C51 C52 1_555 1_555
C65 C66 1_555 1_555
C71 C72 1_555 1_555
C76 C77 1_555 1_555
C80 C81 1_555 1_555
C95 C96 1_555 1_555
C101 C102 1_555 1_555
C105 C106 1_555 1_555
C109 C110 1_555 1_555
C125 C126 1_555 1_555
C131 C132 1_555 1_555
C136 C137 1_555 1_555
C141 C142 1_555 1_555
C155 C156 1_555 1_555
C161 C162 1_555 1_555
C166 C167 1_555 1_555
C170 C171 1_555 1_555

#END
