
#######################################################################
#
#                 Cambridge Crystallographic Data Centre
#                                CCDC 
#
#######################################################################
#
# If this CIF has been generated from an entry in the Cambridge 
# Structural Database, then it will include bibliographic, chemical, 
# crystal, experimental, refinement or atomic coordinate data resulting 
# from the CCDC's data processing and validation procedures.
#
#######################################################################

data_RARVAK
_chemical_compound_source        
'isolated from the stems and leaves of Hypericum perforatum'
_chemical_name_common            '15-epi-hyperforatin D'
_chemical_formula_moiety         'C36 H54 O6'
_chemical_name_systematic        
4-(2-hydroxypropan-2-yl)-1-isobutyryl-11-(4-methoxy-4-methylpent-2-en-1-yl)-11-methyl-8,10-bis(3-methylbut-2-en-1-yl)-3-oxatricyclo[6.3.1.0^2,6^]dodec-2(6)-ene-7,12-dione
_chemical_properties_biological  
'moderate acetylcholinesterase (AChE) inhibitory activity'
_symmetry_cell_setting           orthorhombic
_symmetry_space_group_name_H-M   'P 21 21 21'
_symmetry_Int_Tables_number      19
_space_group_name_Hall           'P 2ac 2ab'
loop_
_symmetry_equiv_pos_site_id
_symmetry_equiv_pos_as_xyz
1 x,y,z
2 1/2+x,1/2-y,-z
3 -x,1/2+y,1/2-z
4 1/2-x,-y,1/2+z
_cell_length_a                   10.8783(3)
_cell_length_b                   11.8013(3)
_cell_length_c                   26.1780(8)
_cell_angle_alpha                90
_cell_angle_beta                 90
_cell_angle_gamma                90
_cell_volume                     3360.68
_exptl_crystal_colour            colorless
_exptl_crystal_description       block
_cell_formula_units_Z            4
loop_
_atom_site_label
_atom_site_type_symbol
_atom_site_fract_x
_atom_site_fract_y
_atom_site_fract_z
O1 O 0.33442(13) -0.16354(12) 0.85599(5)
O2 O 0.88853(12) 0.22144(10) 0.79240(4)
O3 O 1.04184(14) 0.15740(12) 0.72118(5)
H1 H 1.1062 0.1419 0.7049
O4 O 0.77419(13) 0.57996(11) 0.84483(5)
O5 O 0.87699(13) 0.30934(11) 0.96237(5)
O6 O 0.89559(13) 0.04405(11) 0.89855(5)
C1 C 0.3196(2) -0.1120(2) 0.90440(8)
H2 H 0.3516 -0.1625 0.9310
H3 H 0.2321 -0.0976 0.9106
H4 H 0.3647 -0.0401 0.9052
C2 C 0.46088(18) -0.17585(17) 0.83986(8)
C3 C 0.51389(18) -0.05964(16) 0.83080(7)
H5 H 0.4703 -0.0126 0.8076
C4 C 0.61443(18) -0.01515(15) 0.85145(7)
H6 H 0.6562 -0.0581 0.8768
C5 C 0.66645(18) 0.09823(16) 0.83752(7)
H7 H 0.6123 0.1325 0.8113
H8 H 0.7476 0.0858 0.8214
C6 C 0.68355(17) 0.18722(15) 0.88184(7)
C7 C 0.82179(16) 0.23285(15) 0.88066(6)
C8 C 0.82972(17) 0.32630(15) 0.92119(7)
C9 C 0.75964(16) 0.43385(15) 0.90805(7)
C10 C 0.77542(18) 0.52630(16) 0.94898(7)
H9 H 0.7218 0.5912 0.9402
H10 H 0.7473 0.4959 0.9822
C11 C 0.90487(18) 0.56827(16) 0.95474(7)
H11 H 0.9676 0.5123 0.9550
C12 C 0.94162(18) 0.67560(16) 0.95955(7)
C13 C 1.0750(2) 0.70315(19) 0.96793(9)
H12 H 1.1210 0.6330 0.9739
H13 H 1.0832 0.7529 0.9977
H14 H 1.1078 0.7415 0.9377
C14 C 0.65615(18) 0.13592(16) 0.93470(7)
H15 H 0.6648 0.1946 0.9609
H16 H 0.7142 0.0743 0.9416
H17 H 0.5720 0.1062 0.9352
C15 C 0.84934(16) 0.28814(15) 0.83025(6)
C16 C 0.89676(17) 0.29186(15) 0.74520(7)
H18 H 0.8349 0.2636 0.7200
C17 C 1.02544(18) 0.27703(16) 0.72255(7)
C18 C 1.0247(2) 0.3246(2) 0.66865(8)
H19 H 1.1045 0.3106 0.6525
H20 H 1.0092 0.4064 0.6699
H21 H 0.9598 0.2876 0.6487
C19 C 1.1251(2) 0.33328(19) 0.75398(9)
H22 H 1.1169 0.3103 0.7898
H23 H 1.1170 0.4158 0.7514
H24 H 1.2059 0.3102 0.7411
C20 C 0.86056(19) 0.41299(16) 0.76158(7)
H25 H 0.9288 0.4670 0.7559
H26 H 0.7868 0.4396 0.7429
C21 C 0.83415(17) 0.39825(15) 0.81790(7)
C22 C 0.79126(16) 0.47914(15) 0.85449(7)
C23 C 0.62296(17) 0.39318(16) 0.90664(7)
H27 H 0.5975 0.3738 0.9419
H28 H 0.5711 0.4572 0.8952
C24 C 0.59650(17) 0.29064(15) 0.87198(7)
H29 H 0.6107 0.3158 0.8360
C25 C 0.45854(18) 0.26040(17) 0.87664(8)
H30 H 0.4421 0.1895 0.8576
H31 H 0.4381 0.2469 0.9130
C26 C 0.37789(18) 0.35338(17) 0.85605(8)
H32 H 0.3766 0.3614 0.8199
C27 C 0.30793(19) 0.42607(17) 0.88221(8)
C28 C 0.2957(2) 0.4266(2) 0.93943(9)
H33 H 0.3405 0.3619 0.9537
H34 H 0.2086 0.4210 0.9487
H35 H 0.3299 0.4971 0.9531
C29 C 0.2350(2) 0.51668(19) 0.85587(10)
H36 H 0.2506 0.5135 0.8190
H37 H 0.2594 0.5911 0.8691
H38 H 0.1472 0.5047 0.8623
C30 C 0.85842(19) 0.77661(16) 0.95878(8)
H39 H 0.7803 0.7561 0.9426
H40 H 0.8974 0.8379 0.9394
H41 H 0.8431 0.8020 0.9939
C31 C 0.92186(17) 0.14226(15) 0.89144(6)
C32 C 1.05597(18) 0.18027(17) 0.89158(7)
H42 H 1.0603 0.2634 0.8843
C33 C 1.1114(2) 0.15651(19) 0.94431(8)
H43 H 1.0695 0.2030 0.9700
H44 H 1.1991 0.1752 0.9439
H45 H 1.1008 0.0762 0.9527
C34 C 1.12810(18) 0.11547(17) 0.85074(8)
H46 H 1.1284 0.0345 0.8591
H47 H 1.2128 0.1436 0.8497
H48 H 1.0893 0.1269 0.8174
C35 C 0.4509(2) -0.2379(2) 0.78877(9)
H49 H 0.4102 -0.3111 0.7940
H50 H 0.5334 -0.2503 0.7748
H51 H 0.4027 -0.1921 0.7648
C36 C 0.5334(2) -0.24690(17) 0.87777(9)
H52 H 0.5418 -0.2052 0.9100
H53 H 0.6151 -0.2629 0.8638
H54 H 0.4899 -0.3183 0.8840
loop_
_geom_bond_atom_site_label_1
_geom_bond_atom_site_label_2
_geom_bond_site_symmetry_1
_geom_bond_site_symmetry_2
O1 C1 1_555 1_555
O2 C15 1_555 1_555
O3 H1 1_555 1_555
O4 C22 1_555 1_555
O5 C8 1_555 1_555
O6 C31 1_555 1_555
C1 H2 1_555 1_555
H3 C1 1_555 1_555
H4 C1 1_555 1_555
C2 O1 1_555 1_555
C3 C2 1_555 1_555
H5 C3 1_555 1_555
C4 C3 1_555 1_555
H6 C4 1_555 1_555
C5 C4 1_555 1_555
H7 C5 1_555 1_555
H8 C5 1_555 1_555
C6 C5 1_555 1_555
C7 C6 1_555 1_555
C8 C7 1_555 1_555
C9 C8 1_555 1_555
C10 C9 1_555 1_555
H9 C10 1_555 1_555
H10 C10 1_555 1_555
C11 C10 1_555 1_555
H11 C11 1_555 1_555
C12 C11 1_555 1_555
C13 C12 1_555 1_555
H12 C13 1_555 1_555
H13 C13 1_555 1_555
H14 C13 1_555 1_555
C14 C6 1_555 1_555
H15 C14 1_555 1_555
H16 C14 1_555 1_555
H17 C14 1_555 1_555
C15 C7 1_555 1_555
C16 O2 1_555 1_555
H18 C16 1_555 1_555
C17 O3 1_555 1_555
C18 C17 1_555 1_555
H19 C18 1_555 1_555
H20 C18 1_555 1_555
H21 C18 1_555 1_555
C19 C17 1_555 1_555
H22 C19 1_555 1_555
H23 C19 1_555 1_555
H24 C19 1_555 1_555
C20 C16 1_555 1_555
H25 C20 1_555 1_555
H26 C20 1_555 1_555
C21 C15 1_555 1_555
C22 C9 1_555 1_555
C23 C9 1_555 1_555
H27 C23 1_555 1_555
H28 C23 1_555 1_555
C24 C6 1_555 1_555
H29 C24 1_555 1_555
C25 C24 1_555 1_555
H30 C25 1_555 1_555
H31 C25 1_555 1_555
C26 C25 1_555 1_555
H32 C26 1_555 1_555
C27 C26 1_555 1_555
C28 C27 1_555 1_555
H33 C28 1_555 1_555
H34 C28 1_555 1_555
H35 C28 1_555 1_555
C29 C27 1_555 1_555
H36 C29 1_555 1_555
H37 C29 1_555 1_555
H38 C29 1_555 1_555
C30 C12 1_555 1_555
H39 C30 1_555 1_555
H40 C30 1_555 1_555
H41 C30 1_555 1_555
C31 C7 1_555 1_555
C32 C31 1_555 1_555
H42 C32 1_555 1_555
C33 C32 1_555 1_555
H43 C33 1_555 1_555
H44 C33 1_555 1_555
H45 C33 1_555 1_555
C34 C32 1_555 1_555
H46 C34 1_555 1_555
H47 C34 1_555 1_555
H48 C34 1_555 1_555
C35 C2 1_555 1_555
H49 C35 1_555 1_555
H50 C35 1_555 1_555
H51 C35 1_555 1_555
C36 C2 1_555 1_555
H52 C36 1_555 1_555
H53 C36 1_555 1_555
H54 C36 1_555 1_555
C16 C17 1_555 1_555
C20 C21 1_555 1_555
C21 C22 1_555 1_555
C23 C24 1_555 1_555

#END
