
#######################################################################
#
#                 Cambridge Crystallographic Data Centre
#                                CCDC 
#
#######################################################################
#
# If this CIF has been generated from an entry in the Cambridge 
# Structural Database, then it will include bibliographic, chemical, 
# crystal, experimental, refinement or atomic coordinate data resulting 
# from the CCDC's data processing and validation procedures.
#
#######################################################################

data_RARVEO01
_chemical_formula_moiety         'C3 H10 N1 O9 P3 2-,2(C4 H12 N1 1+),3(H2 O1)'
_chemical_name_systematic        
'bis(2-methylpropan-2-aminium) (azaniumyltris(methylene))tris(hydrogen (phosphonate)) trihydrate'
_symmetry_cell_setting           triclinic
_symmetry_space_group_name_H-M   'P -1'
_symmetry_Int_Tables_number      2
_space_group_name_Hall           '-P 1'
loop_
_symmetry_equiv_pos_site_id
_symmetry_equiv_pos_as_xyz
1 x,y,z
2 -x,-y,-z
_cell_length_a                   9.474(4)
_cell_length_b                   10.294(4)
_cell_length_c                   13.926(5)
_cell_angle_alpha                98.394(3)
_cell_angle_beta                 105.105(3)
_cell_angle_gamma                115.340(4)
_cell_volume                     1132.27
_exptl_crystal_colour            colorless
_exptl_crystal_description       Prism
_cell_formula_units_Z            2
loop_
_atom_site_label
_atom_site_type_symbol
_atom_site_fract_x
_atom_site_fract_y
_atom_site_fract_z
C1 C 0.8736(2) 0.6666(2) -0.04288(15)
H1 H 0.9956 0.7085 -0.0070
H2 H 0.8554 0.6706 -0.1155
C2 C 0.8166(2) 0.7525(2) 0.11293(14)
H3 H 0.9156 0.7443 0.1497
H4 H 0.7159 0.6563 0.1012
C3 C 0.6655(2) 0.7583(2) -0.06371(15)
H5 H 0.6088 0.7897 -0.0224
H6 H 0.5882 0.6522 -0.1061
N1 N 0.82249(19) 0.77043(17) 0.00884(12)
H7 H 0.9044 0.8591 0.0208
O1 O 0.83209(17) 0.39951(15) -0.11865(11)
O2 O 0.84763(17) 0.46846(15) 0.06824(11)
H8 H 0.9541(2) 0.515(2) 0.0910(18)
O3 O 0.58618(17) 0.40647(15) -0.07717(11)
O4 O 0.91304(17) 1.05280(15) 0.18491(11)
O5 O 0.86562(17) 0.88346(16) 0.30498(11)
O6 O 0.62548(17) 0.86942(16) 0.16231(11)
H9 H 0.554(2) 0.7785(13) 0.1417(19)
O7 O 0.76892(18) 0.80052(16) -0.22790(11)
H10 H 0.877(2) 0.839(3) -0.2101(19)
O8 O 0.55187(17) 0.87037(16) -0.20794(12)
O9 O 0.85551(17) 1.02645(15) -0.08038(11)
P1 P 0.77109(6) 0.46908(5) -0.04712(4)
P2 P 0.71262(6) 0.87596(5) -0.14973(4)
P3 P 0.81211(6) 0.90233(5) 0.19896(4)
C4 C 0.8388(3) 0.2647(2) 0.38090(16)
H11 H 0.7192 0.2101 0.3697
H12 H 0.9010 0.3324 0.4522
H13 H 0.8793 0.1927 0.3701
C5 C 0.8648(2) 0.3561(2) 0.30414(15)
C6 C 1.0477(3) 0.4378(2) 0.31518(17)
H14 H 1.0855 0.3642 0.3021
H15 H 1.1155 0.5066 0.3858
H16 H 1.0600 0.4951 0.2647
C7 C 0.7961(3) 0.4659(2) 0.31453(18)
H17 H 0.8026 0.5141 0.2589
H18 H 0.8628 0.5429 0.3823
H19 H 0.6792 0.4109 0.3090
N2 N 0.7653(2) 0.24641(19) 0.19651(13)
H20 H 0.7783 0.2971 0.1483
H21 H 0.6550 0.1970 0.1881
H22 H 0.8024 0.1789 0.1880
C8 C 0.5003(3) 0.6146(2) 0.34660(16)
H23 H 0.4008 0.6181 0.3066
H24 H 0.4658 0.5200 0.3646
H25 H 0.5703 0.6211 0.3047
C9 C 0.6000(3) 0.7467(2) 0.44608(15)
C10 C 0.7562(3) 0.7450(2) 0.51067(17)
H26 H 0.8257 0.7482 0.4689
H27 H 0.7229 0.6528 0.5319
H28 H 0.8202 0.8327 0.5727
C11 C 0.4925(3) 0.7506(3) 0.50963(17)
H29 H 0.5618 0.8336 0.5744
H30 H 0.4444 0.6553 0.5260
H31 H 0.4020 0.7656 0.4694
N3 N 0.6580(2) 0.88882(18) 0.41413(13)
H32 H 0.5675 0.8919 0.3739
H33 H 0.7248 0.8904 0.3773
H34 H 0.7166 0.9700 0.4719
O10 O 0.84610(19) 0.13266(17) 0.59871(11)
H35 H 0.9357(15) 0.133(3) 0.6312(13)
H36 H 0.799(2) 0.138(3) 0.6425(11)
O11 O 0.64386(18) 0.12550(16) 0.72011(11)
H37 H 0.605(3) 0.0524(13) 0.7447(13)
H38 H 0.697(3) 0.2032(12) 0.7727(9)
O12 O 0.6464(4) 0.1199(3) -0.00858(18)
H39 H 0.696(3) 0.078(3) -0.032(2)
H40 H 0.556(2) 0.090(4) -0.0590(15)
loop_
_geom_bond_atom_site_label_1
_geom_bond_atom_site_label_2
_geom_bond_site_symmetry_1
_geom_bond_site_symmetry_2
C1 H1 1_555 1_555
H2 C1 1_555 1_555
C2 H3 1_555 1_555
H4 C2 1_555 1_555
C3 H5 1_555 1_555
H6 C3 1_555 1_555
N1 C1 1_555 1_555
H7 N1 1_555 1_555
O1 P1 1_555 1_555
O2 H8 1_555 1_555
O3 P1 1_555 1_555
O4 P3 1_555 1_555
O5 P3 1_555 1_555
O6 H9 1_555 1_555
O7 H10 1_555 1_555
O8 P2 1_555 1_555
O9 P2 1_555 1_555
P1 C1 1_555 1_555
P2 C3 1_555 1_555
P3 C2 1_555 1_555
C4 H11 1_555 1_555
H12 C4 1_555 1_555
H13 C4 1_555 1_555
C5 C4 1_555 1_555
C6 C5 1_555 1_555
H14 C6 1_555 1_555
H15 C6 1_555 1_555
H16 C6 1_555 1_555
C7 C5 1_555 1_555
H17 C7 1_555 1_555
H18 C7 1_555 1_555
H19 C7 1_555 1_555
N2 C5 1_555 1_555
H20 N2 1_555 1_555
H21 N2 1_555 1_555
H22 N2 1_555 1_555
C8 H23 1_555 1_555
H24 C8 1_555 1_555
H25 C8 1_555 1_555
C9 C8 1_555 1_555
C10 C9 1_555 1_555
H26 C10 1_555 1_555
H27 C10 1_555 1_555
H28 C10 1_555 1_555
C11 C9 1_555 1_555
H29 C11 1_555 1_555
H30 C11 1_555 1_555
H31 C11 1_555 1_555
N3 C9 1_555 1_555
H32 N3 1_555 1_555
H33 N3 1_555 1_555
H34 N3 1_555 1_555
O10 H35 1_555 1_555
H36 O10 1_555 1_555
O11 H37 1_555 1_555
H38 O11 1_555 1_555
O12 H39 1_555 1_555
H40 O12 1_555 1_555
C2 N1 1_555 1_555
C3 N1 1_555 1_555
O2 P1 1_555 1_555
O6 P3 1_555 1_555
O7 P2 1_555 1_555

#END
