
#######################################################################
#
#                 Cambridge Crystallographic Data Centre
#                                CCDC 
#
#######################################################################
#
# If this CIF has been generated from an entry in the Cambridge 
# Structural Database, then it will include bibliographic, chemical, 
# crystal, experimental, refinement or atomic coordinate data resulting 
# from the CCDC's data processing and validation procedures.
#
#######################################################################

data_RARWIT
_chemical_formula_moiety         
'6(C4 H12 N1 1+),H3 O1 1+,C3 H9 N1 O9 P3 3-,C3 H8 N1 O9 P3 4-,2(H2 O1)'
_chemical_name_systematic        
'hexakis(t-butylammonium) oxonium (trihydrogen (nitrilotris(methylene))tris(phosphonate)) (dihydrogen (nitrilotris(methylene))tris(phosphonate)) dihydrate'
_symmetry_cell_setting           triclinic
_symmetry_space_group_name_H-M   'P -1'
_symmetry_Int_Tables_number      2
_space_group_name_Hall           '-P 1'
loop_
_symmetry_equiv_pos_site_id
_symmetry_equiv_pos_as_xyz
1 x,y,z
2 -x,-y,-z
_cell_length_a                   11.474(9)
_cell_length_b                   11.641(9)
_cell_length_c                   11.834(9)
_cell_angle_alpha                103.678(9)
_cell_angle_beta                 99.604(5)
_cell_angle_gamma                102.404(11)
_cell_volume                     1460
_exptl_crystal_colour            colorless
_exptl_crystal_description       Prism
_cell_formula_units_Z            1
loop_
_atom_site_label
_atom_site_type_symbol
_atom_site_fract_x
_atom_site_fract_y
_atom_site_fract_z
O10 O 0.5000 0.0000 0.0000
O11 O 0.9460(5) 0.2231(7) 0.5037(5)
C4 C 0.2684(2) 0.3421(2) 0.3026(2)
H9 H 0.3286 0.3890 0.2721
H10 H 0.2471 0.3959 0.3661
H11 H 0.1965 0.3003 0.2398
C5 C 0.32044(18) 0.24877(18) 0.34983(16)
C6 C 0.4390(3) 0.3070(3) 0.4436(2)
H12 H 0.4736 0.2440 0.4630
H13 H 0.4231 0.3556 0.5141
H14 H 0.4957 0.3584 0.4133
C7 C 0.2272(3) 0.1719(2) 0.3975(2)
H15 H 0.1546 0.1312 0.3352
H16 H 0.2068 0.2238 0.4630
H17 H 0.2611 0.1118 0.4244
N2 N 0.34878(14) 0.16474(14) 0.24632(13)
H18 H 0.3952 0.2092 0.2104
H19 H 0.2792 0.1201 0.1944
H20 H 0.3887 0.1152 0.2729
C8 C 0.8321(3) 0.1787(3) 0.7416(3)
H21 H 0.8752 0.1587 0.8080
H22 H 0.8895 0.2110 0.6991
H23 H 0.7735 0.1061 0.6890
C9 C 0.7662(2) 0.27354(19) 0.78687(19)
C10 C 0.6933(3) 0.3043(3) 0.6846(2)
H24 H 0.6363 0.2308 0.6317
H25 H 0.7481 0.3403 0.6417
H26 H 0.6492 0.3614 0.7155
C11 C 0.8511(3) 0.3889(3) 0.8752(3)
H27 H 0.8035 0.4404 0.9096
H28 H 0.9037 0.4319 0.8350
H29 H 0.8999 0.3677 0.9372
N3 N 0.67655(14) 0.21695(14) 0.85014(14)
H30 H 0.6235 0.1501 0.7991
H31 H 0.6363 0.2706 0.8785
H32 H 0.7167 0.1966 0.9103
C12 C 0.7712(3) 0.4743(3) 0.4005(3)
H33 H 0.7677 0.4197 0.4500
H34 H 0.6925 0.4900 0.3813
H35 H 0.8317 0.5501 0.4425
C13 C 0.80508(19) 0.41668(19) 0.28743(19)
C14 C 0.9333(3) 0.4005(3) 0.3148(4)
H36 H 0.9904 0.4788 0.3552
H37 H 0.9546 0.3656 0.2416
H38 H 0.9362 0.3469 0.3651
C15 C 0.7959(4) 0.4911(3) 0.1994(3)
H39 H 0.7148 0.5023 0.1839
H40 H 0.8123 0.4488 0.1261
H41 H 0.8547 0.5697 0.2321
N4 N 0.71786(15) 0.29204(14) 0.23184(14)
H42 H 0.7136 0.2513 0.2866
H43 H 0.7443 0.2510 0.1722
H44 H 0.6439 0.2997 0.2037
P1 P 0.85133(4) 1.05615(4) 0.05635(4)
P2 P 0.61093(4) 1.01716(4) 0.34306(4)
P3 P 0.56728(5) 0.68355(4) -0.00634(5)
O1 O 0.49206(12) 1.00674(12) 0.25659(12)
O2 O 0.58650(14) 0.98194(14) 0.45589(12)
O3 O 0.70361(14) 1.13972(13) 0.37154(12)
O4 O 0.76159(12) 1.13112(12) 0.03991(11)
O5 O 0.84676(11) 0.95646(12) -0.05392(11)
O6 O 0.98367(11) 1.14642(12) 0.10362(12)
H1 H 1.0371(16) 1.1102(19) 0.087(2)
O7 O 0.51814(12) 0.74721(12) -0.09314(13)
O8 O 0.60833(16) 0.57250(12) -0.07553(15)
H2 H 0.579(2) 0.5025(13) -0.070(2)
O9 O 0.48051(14) 0.64381(11) 0.06905(14)
C1 C 0.67502(18) 0.89546(17) 0.27164(16)
H3 H 0.7478 0.8962 0.3272
H4 H 0.6159 0.8172 0.2572
C2 C 0.82799(16) 0.99312(17) 0.17937(15)
H5 H 0.8924 0.9538 0.1973
H6 H 0.8357 1.0600 0.2494
C3 C 0.71253(17) 0.78192(16) 0.08639(17)
H7 H 0.7448 0.7399 0.1410
H8 H 0.7695 0.7941 0.0356
N1 N 0.70829(13) 0.90340(13) 0.15698(13)
O12? O 0.9492(13) 0.1268(12) 0.4970(14)
H45? H 0.476(4) 0.068(3) 0.020(5)
H46? H 0.493(5) 0.009(5) 0.0747(19)
H47? H 0.5797(13) 0.034(4) 0.011(5)
H48? H 0.5000 1.0000 0.5000
loop_
_geom_bond_atom_site_label_1
_geom_bond_atom_site_label_2
_geom_bond_site_symmetry_1
_geom_bond_site_symmetry_2
P1 O4 1_555 1_555
P2 O1 1_555 1_555
P3 O7 1_555 1_555
O2 P2 1_555 1_555
O3 P2 1_555 1_555
O5 P1 1_555 1_555
O6 P1 1_555 1_555
H1 O6 1_555 1_555
O8 P3 1_555 1_555
H2 O8 1_555 1_555
O9 P3 1_555 1_555
C1 P2 1_555 1_555
H3 C1 1_555 1_555
H4 C1 1_555 1_555
C2 P1 1_555 1_555
H5 C2 1_555 1_555
H6 C2 1_555 1_555
C3 P3 1_555 1_555
H7 C3 1_555 1_555
H8 C3 1_555 1_555
N1 C1 1_555 1_555
C4 H9 1_555 1_555
H10 C4 1_555 1_555
H11 C4 1_555 1_555
C5 C4 1_555 1_555
C6 C5 1_555 1_555
H12 C6 1_555 1_555
H13 C6 1_555 1_555
H14 C6 1_555 1_555
C7 C5 1_555 1_555
H15 C7 1_555 1_555
H16 C7 1_555 1_555
H17 C7 1_555 1_555
N2 C5 1_555 1_555
H18 N2 1_555 1_555
H19 N2 1_555 1_555
H20 N2 1_555 1_555
C8 H21 1_555 1_555
H22 C8 1_555 1_555
H23 C8 1_555 1_555
C9 C8 1_555 1_555
C10 C9 1_555 1_555
H24 C10 1_555 1_555
H25 C10 1_555 1_555
H26 C10 1_555 1_555
C11 C9 1_555 1_555
H27 C11 1_555 1_555
H28 C11 1_555 1_555
H29 C11 1_555 1_555
N3 C9 1_555 1_555
H30 N3 1_555 1_555
H31 N3 1_555 1_555
H32 N3 1_555 1_555
C12 H33 1_555 1_555
H34 C12 1_555 1_555
H35 C12 1_555 1_555
C13 C12 1_555 1_555
C14 C13 1_555 1_555
H36 C14 1_555 1_555
H37 C14 1_555 1_555
H38 C14 1_555 1_555
C15 C13 1_555 1_555
H39 C15 1_555 1_555
H40 C15 1_555 1_555
H41 C15 1_555 1_555
N4 C13 1_555 1_555
H42 N4 1_555 1_555
H43 N4 1_555 1_555
H44 N4 1_555 1_555
C2 N1 1_555 1_555
C3 N1 1_555 1_555

#END
