
#######################################################################
#
#                 Cambridge Crystallographic Data Centre
#                                CCDC 
#
#######################################################################
#
# If this CIF has been generated from an entry in the Cambridge 
# Structural Database, then it will include bibliographic, chemical, 
# crystal, experimental, refinement or atomic coordinate data resulting 
# from the CCDC's data processing and validation procedures.
#
#######################################################################

data_RARYAN
_chemical_compound_source        
'stems and leaves of Hypericum perforatum (St John s Wort)'
_chemical_name_common            'Hyperforatin E'
_chemical_formula_moiety         'C35 H52 O6'
_chemical_name_systematic        
6-(3-hydroxy-4-methylpent-4-en-1-yl)-2-(2-hydroxypropan-2-yl)-6-methyl-5,9-bis(3-methylbut-2-en-1-yl)-7-(2-methylpropanoyl)-2,3,4,5,6,7-hexahydro-8H-3a,7-methanocycloocta[b]furan-8,10-dione
_symmetry_cell_setting           monoclinic
_symmetry_space_group_name_H-M   'P 21'
_symmetry_Int_Tables_number      4
_space_group_name_Hall           'P 2yb'
loop_
_symmetry_equiv_pos_site_id
_symmetry_equiv_pos_as_xyz
1 x,y,z
2 -x,1/2+y,-z
_cell_length_a                   11.0667(6)
_cell_length_b                   12.8612(7)
_cell_length_c                   11.6775(6)
_cell_angle_alpha                90
_cell_angle_beta                 90.897(3)
_cell_angle_gamma                90
_cell_volume                     1661.87
_exptl_crystal_colour            colorless
_exptl_crystal_description       prism
_chemical_melting_point          '108-109 deg.C'
_cell_formula_units_Z            2
loop_
_atom_site_label
_atom_site_type_symbol
_atom_site_fract_x
_atom_site_fract_y
_atom_site_fract_z
O1 O 0.8427(4) 0.2412(4) 0.6366(4)
H1 H 0.8012 0.2401 0.6962
O2 O 0.8679(4) 0.1999(3) 0.4030(3)
O3 O 0.7232(4) 0.3952(3) 0.1252(4)
O4 O 1.0100(4) 0.0887(3) -0.3039(4)
H2 H 0.9603 0.1321 -0.3305
O5 O 0.8076(4) 0.0649(3) 0.0316(3)
O6 O 0.7531(4) 0.2736(4) -0.1448(3)
C1 C 0.6605(6) 0.2664(6) 0.5244(6)
H3 H 0.6670 0.1955 0.4943
H4 H 0.6221 0.3113 0.4667
H5 H 0.6115 0.2657 0.5936
C2 C 0.7863(5) 0.3078(5) 0.5537(5)
C3 C 0.8699(5) 0.3053(5) 0.4517(5)
H6 H 0.9540 0.3221 0.4783
C4 C 0.8358(6) 0.3764(5) 0.3517(5)
H7 H 0.8800 0.4432 0.3567
H8 H 0.7479 0.3906 0.3501
C5 C 0.8734(6) 0.3143(5) 0.2448(5)
C6 C 1.0080(6) 0.3358(5) 0.2142(5)
H9 H 1.0176 0.4104 0.1955
H10 H 1.0602 0.3203 0.2816
C7 C 1.0496(5) 0.2697(5) 0.1116(5)
H11 H 1.0492 0.1955 0.1373
C8 C 0.9632(5) 0.2769(4) 0.0072(4)
C9 C 1.0027(5) 0.1944(5) -0.0831(5)
H12 H 1.0486 0.1394 -0.0423
H13 H 0.9288 0.1618 -0.1155
C10 C 1.0790(5) 0.2319(5) -0.1826(5)
H14 H 1.1531 0.2657 -0.1521
H15 H 1.0328 0.2844 -0.2273
C11 C 1.1144(6) 0.1415(5) -0.2621(5)
H16 H 1.1608 0.0906 -0.2140
C12 C 1.1964(6) 0.1750(5) -0.3557(5)
C13 C 1.3218(6) 0.2065(6) -0.3199(6)
H17 H 1.3680 0.2253 -0.3878
H18 H 1.3616 0.1485 -0.2802
H19 H 1.3178 0.2665 -0.2684
C14 C 0.7819(7) 0.4182(6) 0.5992(6)
H20 H 0.7317 0.4204 0.6675
H21 H 0.7474 0.4642 0.5403
H22 H 0.8640 0.4414 0.6191
C15 C 0.8590(5) 0.2051(5) 0.2867(4)
C16 C 0.7984(5) 0.3277(5) 0.1415(5)
C17 C 0.8303(5) 0.2484(5) 0.0469(4)
C18 C 1.1811(6) 0.2972(6) 0.0848(5)
H23 H 1.2062 0.2562 0.0175
H24 H 1.1850 0.3716 0.0635
C19 C 1.2698(6) 0.2778(7) 0.1812(5)
H25 H 1.2865 0.3350 0.2304
C20 C 1.3263(7) 0.1916(7) 0.2047(6)
C21 C 1.3105(9) 0.0946(7) 0.1352(8)
H26 H 1.2551 0.0474 0.1741
H27 H 1.3890 0.0605 0.1264
H28 H 1.2771 0.1125 0.0595
C22 C 1.4183(7) 0.1837(7) 0.3037(6)
H29 H 1.4195 0.2492 0.3466
H30 H 1.4987 0.1702 0.2731
H31 H 1.3954 0.1267 0.3546
C23 C 1.1611(6) 0.1745(6) -0.4676(5)
H32 H 1.0820 0.1523 -0.4886
H33 H 1.2157 0.1963 -0.5249
C24 C 0.9623(6) 0.3876(5) -0.0415(5)
H34 H 0.9346 0.4362 0.0172
H35 H 0.9075 0.3908 -0.1082
H36 H 1.0441 0.4066 -0.0646
C25 C 0.8264(5) 0.1362(5) 0.0980(4)
C26 C 0.8412(6) 0.1207(5) 0.2225(5)
C27 C 0.8294(8) 0.0122(5) 0.2708(6)
H37 H 0.8324 -0.0389 0.2075
H38 H 0.8985 -0.0019 0.3235
C28 C 0.7131(6) -0.0015(5) 0.3345(6)
H39 H 0.6410 0.0025 0.2894
C29 C 0.6986(6) -0.0185(5) 0.4456(5)
C30 C 0.5777(8) -0.0307(8) 0.4957(9)
H40 H 0.5624 0.0272 0.5482
H41 H 0.5742 -0.0965 0.5379
H42 H 0.5162 -0.0308 0.4344
C31 C 0.7985(7) -0.0267(6) 0.5308(6)
H43 H 0.8748 -0.0077 0.4948
H44 H 0.8036 -0.0983 0.5593
H45 H 0.7832 0.0205 0.5949
C32 C 0.7305(6) 0.2504(5) -0.0455(5)
C33 C 0.6013(6) 0.2221(6) -0.0172(6)
H46 H 0.5967 0.2063 0.0665
C34 C 0.5633(8) 0.1249(7) -0.0856(8)
H47 H 0.5731 0.1381 -0.1676
H48 H 0.4785 0.1088 -0.0705
H49 H 0.6141 0.0660 -0.0623
C35 C 0.5179(6) 0.3138(7) -0.0451(7)
H50 H 0.5409 0.3735 0.0025
H51 H 0.4341 0.2943 -0.0297
H52 H 0.5253 0.3322 -0.1261
loop_
_geom_bond_atom_site_label_1
_geom_bond_atom_site_label_2
_geom_bond_site_symmetry_1
_geom_bond_site_symmetry_2
O1 H1 1_555 1_555
O2 C3 1_555 1_555
O3 C16 1_555 1_555
O4 H2 1_555 1_555
O5 C25 1_555 1_555
O6 C32 1_555 1_555
C1 H3 1_555 1_555
H4 C1 1_555 1_555
H5 C1 1_555 1_555
C2 O1 1_555 1_555
C3 C2 1_555 1_555
H6 C3 1_555 1_555
C4 C3 1_555 1_555
H7 C4 1_555 1_555
H8 C4 1_555 1_555
C5 C4 1_555 1_555
C6 C5 1_555 1_555
H9 C6 1_555 1_555
H10 C6 1_555 1_555
C7 C6 1_555 1_555
H11 C7 1_555 1_555
C8 C7 1_555 1_555
C9 C8 1_555 1_555
H12 C9 1_555 1_555
H13 C9 1_555 1_555
C10 C9 1_555 1_555
H14 C10 1_555 1_555
H15 C10 1_555 1_555
C11 O4 1_555 1_555
H16 C11 1_555 1_555
C12 C11 1_555 1_555
C13 C12 1_555 1_555
H17 C13 1_555 1_555
H18 C13 1_555 1_555
H19 C13 1_555 1_555
C14 C2 1_555 1_555
H20 C14 1_555 1_555
H21 C14 1_555 1_555
H22 C14 1_555 1_555
C15 O2 1_555 1_555
C16 C5 1_555 1_555
C17 C8 1_555 1_555
C18 C7 1_555 1_555
H23 C18 1_555 1_555
H24 C18 1_555 1_555
C19 C18 1_555 1_555
H25 C19 1_555 1_555
C20 C19 1_555 1_555
C21 C20 1_555 1_555
H26 C21 1_555 1_555
H27 C21 1_555 1_555
H28 C21 1_555 1_555
C22 C20 1_555 1_555
H29 C22 1_555 1_555
H30 C22 1_555 1_555
H31 C22 1_555 1_555
C23 C12 1_555 1_555
H32 C23 1_555 1_555
H33 C23 1_555 1_555
C24 C8 1_555 1_555
H34 C24 1_555 1_555
H35 C24 1_555 1_555
H36 C24 1_555 1_555
C25 C17 1_555 1_555
C26 C15 1_555 1_555
C27 C26 1_555 1_555
H37 C27 1_555 1_555
H38 C27 1_555 1_555
C28 C27 1_555 1_555
H39 C28 1_555 1_555
C29 C28 1_555 1_555
C30 C29 1_555 1_555
H40 C30 1_555 1_555
H41 C30 1_555 1_555
H42 C30 1_555 1_555
C31 C29 1_555 1_555
H43 C31 1_555 1_555
H44 C31 1_555 1_555
H45 C31 1_555 1_555
C32 C17 1_555 1_555
C33 C32 1_555 1_555
H46 C33 1_555 1_555
C34 C33 1_555 1_555
H47 C34 1_555 1_555
H48 C34 1_555 1_555
H49 C34 1_555 1_555
C35 C33 1_555 1_555
H50 C35 1_555 1_555
H51 C35 1_555 1_555
H52 C35 1_555 1_555
C1 C2 1_555 1_555
C5 C15 1_555 1_555
C10 C11 1_555 1_555
C16 C17 1_555 1_555
C25 C26 1_555 1_555

#END
