
#######################################################################
#
#                 Cambridge Crystallographic Data Centre
#                                CCDC 
#
#######################################################################
#
# If this CIF has been generated from an entry in the Cambridge 
# Structural Database, then it will include bibliographic, chemical, 
# crystal, experimental, refinement or atomic coordinate data resulting 
# from the CCDC's data processing and validation procedures.
#
#######################################################################

data_RARZAO
_chemical_formula_moiety         'C25 H29 N1 O2'
_chemical_name_systematic        
2-benzyl-5-(4-t-butylphenyl)hexahydro-1H-isoindole-1,3(2H)-dione
_symmetry_cell_setting           orthorhombic
_symmetry_space_group_name_H-M   'P 21 21 21'
_symmetry_Int_Tables_number      19
_space_group_name_Hall           'P 2ac 2ab'
loop_
_symmetry_equiv_pos_site_id
_symmetry_equiv_pos_as_xyz
1 x,y,z
2 1/2-x,-y,1/2+z
3 -x,1/2+y,1/2-z
4 1/2+x,1/2-y,-z
_cell_length_a                   6.2939(2)
_cell_length_b                   10.3537(3)
_cell_length_c                   31.1490(8)
_cell_angle_alpha                90
_cell_angle_beta                 90
_cell_angle_gamma                90
_cell_volume                     2029.83
_exptl_crystal_colour            colorless
_exptl_crystal_description       rod
_cell_formula_units_Z            4
loop_
_atom_site_label
_atom_site_type_symbol
_atom_site_fract_x
_atom_site_fract_y
_atom_site_fract_z
C1 C 0.3583(3) 0.59243(16) 0.57630(5)
C2 C 0.4612(3) 0.72474(16) 0.57683(5)
H1 H 0.553795 0.730780 0.550826
C3 C 0.6018(3) 0.74917(17) 0.61585(5)
H2 H 0.699140 0.821844 0.609529
H3 H 0.689588 0.671546 0.621331
C4 C 0.4734(3) 0.78092(16) 0.65628(5)
H4 H 0.378298 0.705635 0.662241
C5 C 0.3312(3) 0.89782(17) 0.64709(5)
H5 H 0.255949 0.923761 0.673630
H6 H 0.419462 0.971487 0.637456
C6 C 0.1705(3) 0.86343(17) 0.61241(5)
H7 H 0.081534 0.940171 0.606387
H8 H 0.075950 0.794534 0.623402
C7 C 0.2732(3) 0.81705(16) 0.56992(5)
H9 H 0.314414 0.891762 0.551366
C8 C 0.1095(3) 0.73286(16) 0.54805(5)
C9 C 0.0140(3) 0.49854(16) 0.54945(5)
H10 H -0.132710 0.528797 0.554965
H11 H 0.045336 0.429013 0.570331
C10 C 0.0238(3) 0.44236(15) 0.50449(5)
C11 C 0.2015(3) 0.45598(16) 0.47859(5)
H12 H 0.319488 0.505316 0.488239
C12 C 0.2068(3) 0.39713(17) 0.43835(5)
H13 H 0.328520 0.406615 0.420595
C13 C 0.0360(3) 0.32510(17) 0.42414(5)
H14 H 0.040937 0.284240 0.396851
C14 C -0.1416(3) 0.31267(18) 0.44964(6)
H15 H -0.259979 0.264241 0.439718
C15 C -0.1482(3) 0.37078(17) 0.48990(5)
H16 H -0.270664 0.361446 0.507449
C16 C 0.6146(3) 0.79949(16) 0.69520(5)
C17 C 0.7458(3) 0.90727(19) 0.69972(6)
H17 H 0.750000 0.970271 0.677561
C18 C 0.8702(3) 0.92386(18) 0.73600(6)
H18 H 0.958988 0.997802 0.738062
C19 C 0.8684(3) 0.83451(17) 0.76968(5)
C20 C 0.7388(3) 0.72686(16) 0.76468(5)
H19 H 0.734520 0.663560 0.786744
C21 C 0.6151(3) 0.70967(16) 0.72811(5)
H20 H 0.529077 0.634629 0.725665
C22 C 1.0055(3) 0.85761(17) 0.80956(5)
C23 C 0.9611(3) 0.75898(18) 0.84501(5)
H21 H 1.051181 0.777700 0.869902
H22 H 0.992250 0.671938 0.834378
H23 H 0.811322 0.764126 0.853460
C24 C 1.2409(3) 0.8476(2) 0.79705(6)
H24 H 1.272493 0.910440 0.774401
H25 H 1.271029 0.760263 0.786555
H26 H 1.329560 0.865710 0.822209
C25 C 0.9608(3) 0.99279(17) 0.82767(5)
H27 H 0.811007 0.998960 0.836025
H28 H 0.991979 1.057845 0.805705
H29 H 1.050814 1.007868 0.852846
N1 N 0.1601(2) 0.60550(13) 0.55708(4)
O1 O 0.4313(2) 0.49096(12) 0.58881(4)
O2 O -0.04821(18) 0.76537(11) 0.52857(4)
loop_
_geom_bond_atom_site_label_1
_geom_bond_atom_site_label_2
_geom_bond_site_symmetry_1
_geom_bond_site_symmetry_2
C1 C2 1_555 1_555
C2 H1 1_555 1_555
C3 C2 1_555 1_555
H2 C3 1_555 1_555
H3 C3 1_555 1_555
C4 C3 1_555 1_555
H4 C4 1_555 1_555
C5 C4 1_555 1_555
H5 C5 1_555 1_555
H6 C5 1_555 1_555
C6 C5 1_555 1_555
H7 C6 1_555 1_555
H8 C6 1_555 1_555
C7 C2 1_555 1_555
H9 C7 1_555 1_555
C8 C7 1_555 1_555
C9 H10 1_555 1_555
H11 C9 1_555 1_555
C10 C9 1_555 1_555
C11 C10 1_555 1_555
H12 C11 1_555 1_555
C12 C11 1_555 1_555
H13 C12 1_555 1_555
C13 C12 1_555 1_555
H14 C13 1_555 1_555
C14 C13 1_555 1_555
H15 C14 1_555 1_555
C15 C10 1_555 1_555
H16 C15 1_555 1_555
C16 C4 1_555 1_555
C17 C16 1_555 1_555
H17 C17 1_555 1_555
C18 C17 1_555 1_555
H18 C18 1_555 1_555
C19 C18 1_555 1_555
C20 C19 1_555 1_555
H19 C20 1_555 1_555
C21 C16 1_555 1_555
H20 C21 1_555 1_555
C22 C19 1_555 1_555
C23 C22 1_555 1_555
H21 C23 1_555 1_555
H22 C23 1_555 1_555
H23 C23 1_555 1_555
C24 C22 1_555 1_555
H24 C24 1_555 1_555
H25 C24 1_555 1_555
H26 C24 1_555 1_555
C25 C22 1_555 1_555
H27 C25 1_555 1_555
H28 C25 1_555 1_555
H29 C25 1_555 1_555
N1 C1 1_555 1_555
O1 C1 1_555 1_555
O2 C8 1_555 1_555
C6 C7 1_555 1_555
C8 N1 1_555 1_555
C9 N1 1_555 1_555
C14 C15 1_555 1_555
C20 C21 1_555 1_555

#END
