
#######################################################################
#
#                 Cambridge Crystallographic Data Centre
#                                CCDC 
#
#######################################################################
#
# If this CIF has been generated from an entry in the Cambridge 
# Structural Database, then it will include bibliographic, chemical, 
# crystal, experimental, refinement or atomic coordinate data resulting 
# from the CCDC's data processing and validation procedures.
#
#######################################################################

data_RARZES
_chemical_formula_moiety         'C23 H28 N2 O6'
_chemical_name_systematic        
'di-t-butyl 2,4-dioxo-8-phenyl-1,3-diazaspiro[4.4]non-6-ene-1,3-dicarboxylate'
_symmetry_cell_setting           orthorhombic
_symmetry_space_group_name_H-M   'P 21 21 21'
_symmetry_Int_Tables_number      19
_space_group_name_Hall           'P 2ac 2ab'
loop_
_symmetry_equiv_pos_site_id
_symmetry_equiv_pos_as_xyz
1 x,y,z
2 1/2-x,-y,1/2+z
3 -x,1/2+y,1/2-z
4 1/2+x,1/2-y,-z
_cell_length_a                   5.7357(3)
_cell_length_b                   14.8413(7)
_cell_length_c                   25.5453(12)
_cell_angle_alpha                90
_cell_angle_beta                 90
_cell_angle_gamma                90
_cell_volume                     2174.55
_exptl_crystal_colour            colorless
_exptl_crystal_description       column
_cell_formula_units_Z            4
loop_
_atom_site_label
_atom_site_type_symbol
_atom_site_fract_x
_atom_site_fract_y
_atom_site_fract_z
C1 C 0.4635(3) 0.39693(11) 0.39214(6)
C2 C 0.2760(3) 0.33450(11) 0.36857(6)
H1 H 0.3116 0.3214 0.3314
H2 H 0.1206 0.3634 0.3705
C3 C 0.2791(3) 0.24620(11) 0.40129(6)
H3 H 0.1386 0.2445 0.4244
C4 C 0.4945(4) 0.25705(11) 0.43460(6)
H4 H 0.5533 0.2107 0.4566
C5 C 0.5936(3) 0.33691(12) 0.43042(7)
H5 H 0.7294 0.3547 0.4490
C6 C 0.6319(3) 0.43269(11) 0.35079(7)
C7 C 0.4889(3) 0.55820(11) 0.39573(6)
C8 C 0.2830(3) 0.16203(11) 0.36719(6)
C9 C 0.0984(4) 0.10158(12) 0.36862(7)
H6 H -0.0277 0.1117 0.3920
C10 C 0.0964(4) 0.02636(12) 0.33613(7)
H7 H -0.0313 -0.0144 0.3374
C11 C 0.2785(4) 0.01043(12) 0.30197(7)
H8 H 0.2760 -0.0407 0.2796
C12 C 0.4655(4) 0.07006(12) 0.30061(7)
H9 H 0.5922 0.0593 0.2775
C13 C 0.4673(3) 0.14529(12) 0.33294(7)
H10 H 0.5954 0.1858 0.3317
C14 C 0.2139(3) 0.48045(11) 0.45652(6)
C15 C 0.0341(3) 0.57668(12) 0.52317(6)
C16 C 0.1366(4) 0.52440(13) 0.56836(7)
H11 H 0.1151 0.4597 0.5623
H12 H 0.0579 0.5418 0.6009
H13 H 0.3035 0.5378 0.5712
C17 C 0.0627(4) 0.67735(13) 0.53139(8)
H14 H 0.2276 0.6913 0.5373
H15 H -0.0288 0.6962 0.5619
H16 H 0.0078 0.7096 0.5003
C18 C -0.2178(4) 0.55329(16) 0.51325(9)
H17 H -0.2744 0.5871 0.4828
H18 H -0.3111 0.5691 0.5441
H19 H -0.2316 0.4885 0.5064
C19 C 0.8276(3) 0.58035(12) 0.33397(6)
C20 C 0.8891(4) 0.73569(11) 0.30559(7)
C21 C 1.0416(4) 0.71289(13) 0.25890(7)
H20 H 1.1635 0.6705 0.2697
H21 H 1.1138 0.7681 0.2454
H22 H 0.9459 0.6854 0.2314
C22 C 1.0300(4) 0.76141(13) 0.35353(7)
H23 H 0.9248 0.7705 0.3833
H24 H 1.1156 0.8173 0.3466
H25 H 1.1406 0.7131 0.3617
C23 C 0.7092(4) 0.80676(12) 0.29178(8)
H26 H 0.6116 0.7849 0.2629
H27 H 0.7885 0.8623 0.2811
H28 H 0.6112 0.8190 0.3224
N1 N 0.3792(3) 0.48206(9) 0.41600(5)
N2 N 0.6469(3) 0.52551(10) 0.35739(5)
O1 O 0.7324(3) 0.38846(8) 0.31850(5)
O2 O 0.4675(3) 0.63527(8) 0.40791(5)
O3 O 1.0226(2) 0.55320(8) 0.33075(5)
O4 O 0.7365(2) 0.65740(8) 0.31948(5)
O5 O 0.1254(2) 0.41086(8) 0.47036(5)
O6 O 0.1774(2) 0.56214(8) 0.47523(5)
loop_
_geom_bond_atom_site_label_1
_geom_bond_atom_site_label_2
_geom_bond_site_symmetry_1
_geom_bond_site_symmetry_2
C1 C2 1_555 1_555
C2 H1 1_555 1_555
H2 C2 1_555 1_555
C3 C2 1_555 1_555
H3 C3 1_555 1_555
C4 C3 1_555 1_555
H4 C4 1_555 1_555
C5 C1 1_555 1_555
H5 C5 1_555 1_555
C6 C1 1_555 1_555
C7 N1 1_555 1_555
C8 C3 1_555 1_555
C9 C8 1_555 1_555
H6 C9 1_555 1_555
C10 C9 1_555 1_555
H7 C10 1_555 1_555
C11 C10 1_555 1_555
H8 C11 1_555 1_555
C12 C11 1_555 1_555
H9 C12 1_555 1_555
C13 C8 1_555 1_555
H10 C13 1_555 1_555
C14 N1 1_555 1_555
C15 C16 1_555 1_555
C16 H11 1_555 1_555
H12 C16 1_555 1_555
H13 C16 1_555 1_555
C17 C15 1_555 1_555
H14 C17 1_555 1_555
H15 C17 1_555 1_555
H16 C17 1_555 1_555
C18 C15 1_555 1_555
H17 C18 1_555 1_555
H18 C18 1_555 1_555
H19 C18 1_555 1_555
C19 N2 1_555 1_555
C20 C21 1_555 1_555
C21 H20 1_555 1_555
H21 C21 1_555 1_555
H22 C21 1_555 1_555
C22 C20 1_555 1_555
H23 C22 1_555 1_555
H24 C22 1_555 1_555
H25 C22 1_555 1_555
C23 C20 1_555 1_555
H26 C23 1_555 1_555
H27 C23 1_555 1_555
H28 C23 1_555 1_555
N1 C1 1_555 1_555
N2 C6 1_555 1_555
O1 C6 1_555 1_555
O2 C7 1_555 1_555
O3 C19 1_555 1_555
O4 C19 1_555 1_555
O5 C14 1_555 1_555
O6 C14 1_555 1_555
C4 C5 1_555 1_555
C7 N2 1_555 1_555
C12 C13 1_555 1_555
C15 O6 1_555 1_555
C20 O4 1_555 1_555

#END
