
#######################################################################
#
#                 Cambridge Crystallographic Data Centre
#                                CCDC 
#
#######################################################################
#
# If this CIF has been generated from an entry in the Cambridge 
# Structural Database, then it will include bibliographic, chemical, 
# crystal, experimental, refinement or atomic coordinate data resulting 
# from the CCDC's data processing and validation procedures.
#
#######################################################################

data_RASDUM
_chemical_formula_moiety         'C10 H10 N8'
_chemical_name_systematic        
5,5'-(1,2-Phenylenebis(methylene))bis(1H-tetrazole)
_symmetry_cell_setting           monoclinic
_symmetry_space_group_name_H-M   'P 21/c'
_symmetry_Int_Tables_number      14
_space_group_name_Hall           '-P 2ybc'
loop_
_symmetry_equiv_pos_site_id
_symmetry_equiv_pos_as_xyz
1 x,y,z
2 -x,1/2+y,1/2-z
3 -x,-y,-z
4 x,1/2-y,1/2+z
_cell_length_a                   6.939(3)
_cell_length_b                   17.797(8)
_cell_length_c                   9.715(4)
_cell_angle_alpha                90
_cell_angle_beta                 110.510(7)
_cell_angle_gamma                90
_cell_volume                     1123.69
_exptl_crystal_colour            colorless
_exptl_crystal_description       block
_cell_formula_units_Z            4
loop_
_atom_site_label
_atom_site_type_symbol
_atom_site_fract_x
_atom_site_fract_y
_atom_site_fract_z
N1 N 0.3390(2) 0.27698(9) 0.09205(17)
N2 N -0.1645(2) 0.27659(9) -0.13739(17)
C1 C 0.3330(3) 0.21979(10) 0.17822(18)
N3 N 0.3321(2) 0.24784(9) 0.30384(15)
N4 N 0.3413(3) 0.34221(9) 0.16265(17)
N5 N -0.1716(2) 0.24685(8) 0.07397(15)
C2 C -0.1454(3) 0.21993(10) -0.04479(17)
N6 N 0.3379(2) 0.32412(9) 0.29051(16)
N7 N -0.2058(3) 0.34027(9) -0.07802(17)
N8 N -0.2094(2) 0.32206(9) 0.04926(16)
C3 C -0.1023(3) 0.14031(11) -0.0714(2)
H1 H 0.0066 0.1390 -0.1124
H2 H -0.2245 0.1185 -0.1430
C4 C -0.0389(3) 0.09355(10) 0.0673(2)
C5 C 0.1633(3) 0.09339(10) 0.1674(2)
C6 C 0.2101(4) 0.05004(12) 0.2934(2)
H3 H 0.3437 0.0494 0.3611
C7 C 0.3319(3) 0.13832(11) 0.1403(2)
H4 H 0.4639 0.1166 0.1977
H5 H 0.3161 0.1339 0.0374
C8 C -0.1872(4) 0.05051(12) 0.0960(3)
H6 H -0.3215 0.0502 0.0293
C9 C -0.1371(7) 0.00844(15) 0.2221(5)
H7 H -0.2384 -0.0196 0.2407
C10 C 0.0572(8) 0.00730(15) 0.3193(4)
H8 H 0.0896 -0.0220 0.4037
H9 H -0.156(3) 0.2751(10) -0.228(2)
H10 H 0.341(3) 0.2755(11) -0.002(3)
loop_
_geom_bond_atom_site_label_1
_geom_bond_atom_site_label_2
_geom_bond_site_symmetry_1
_geom_bond_site_symmetry_2
N1 C1 1_555 1_555
N2 C2 1_555 1_555
C1 N3 1_555 1_555
N3 N6 1_555 1_555
N4 N1 1_555 1_555
N5 C2 1_555 1_555
C2 C3 1_555 1_555
N6 N4 1_555 1_555
N7 N2 1_555 1_555
N8 N5 1_555 1_555
C3 H1 1_555 1_555
H2 C3 1_555 1_555
C4 C3 1_555 1_555
C5 C4 1_555 1_555
C6 C5 1_555 1_555
H3 C6 1_555 1_555
C7 C1 1_555 1_555
H4 C7 1_555 1_555
H5 C7 1_555 1_555
C8 C4 1_555 1_555
H6 C8 1_555 1_555
C9 C8 1_555 1_555
H7 C9 1_555 1_555
C10 C6 1_555 1_555
H8 C10 1_555 1_555
H9 N2 1_555 1_555
H10 N1 1_555 1_555
N7 N8 1_555 1_555
C5 C7 1_555 1_555
C9 C10 1_555 1_555

#END
