
#######################################################################
#
#                 Cambridge Crystallographic Data Centre
#                                CCDC 
#
#######################################################################
#
# If this CIF has been generated from an entry in the Cambridge 
# Structural Database, then it will include bibliographic, chemical, 
# crystal, experimental, refinement or atomic coordinate data resulting 
# from the CCDC's data processing and validation procedures.
#
#######################################################################

data_RASDIB
_chemical_formula_moiety         'C24 H29 Br1 O6'
_chemical_name_systematic        
'ethyl 8-((3-bromobenzoyl)oxy)-6,6-dimethyl-3-oxodecahydronaphtho[1,2-c]furan-9a(3H)-carboxylate'
_symmetry_cell_setting           orthorhombic
_symmetry_space_group_name_H-M   'C 2 2 21'
_symmetry_Int_Tables_number      20
_space_group_name_Hall           'C 2n 2'
loop_
_symmetry_equiv_pos_site_id
_symmetry_equiv_pos_as_xyz
1 x,y,z
2 -x,-y,1/2+z
3 x,-y,-z
4 -x,y,1/2-z
5 1/2+x,1/2+y,z
6 1/2-x,1/2-y,1/2+z
7 1/2+x,1/2-y,-z
8 1/2-x,1/2+y,1/2-z
_cell_length_a                   9.8374(8)
_cell_length_b                   26.514(2)
_cell_length_c                   18.0667(16)
_cell_angle_alpha                90
_cell_angle_beta                 90
_cell_angle_gamma                90
_cell_volume                     4712.32
_cell_formula_units_Z            8
loop_
_atom_site_label
_atom_site_type_symbol
_atom_site_fract_x
_atom_site_fract_y
_atom_site_fract_z
Br1 Br 1.29449(9) 0.71917(3) 0.24986(6)
O1 O 0.3197(4) 0.70577(16) 0.4721(2)
O2 O 0.2095(5) 0.69386(18) 0.5786(3)
O3 O 0.9345(4) 0.61858(16) 0.4137(2)
O4 O 0.9636(5) 0.53536(17) 0.3980(3)
O5 O 0.5156(6) 0.59849(17) 0.4241(2)
O6 O 0.4118(4) 0.60783(15) 0.5327(2)
C1 C 1.2465(6) 0.6517(3) 0.2701(3)
C2 C 1.3154(7) 0.6135(3) 0.2352(4)
H1 H 1.3858 0.6209 0.2026
C3 C 1.2795(8) 0.5644(3) 0.2487(5)
H2 H 1.3264 0.5383 0.2257
C4 C 1.1742(7) 0.5538(3) 0.2962(4)
H3 H 1.1487 0.5205 0.3041
C5 C 1.1055(6) 0.5923(3) 0.3324(3)
C6 C 1.1435(6) 0.6414(3) 0.3199(3)
H4 H 1.1002 0.6676 0.3448
C7 C 0.9960(8) 0.5779(3) 0.3843(3)
C8 C 0.8195(6) 0.6088(2) 0.4630(4)
H5 H 0.7657 0.5801 0.4452
C9 C 0.7366(6) 0.6563(2) 0.4624(3)
H6 H 0.7038 0.6623 0.4125
H7 H 0.7944 0.6844 0.4761
C10 C 0.6149(6) 0.65430(19) 0.5152(3)
C11 C 0.5475(6) 0.7078(2) 0.5154(3)
H8 H 0.6193 0.7334 0.5168
C12 C 0.4565(6) 0.7181(3) 0.4498(4)
H9 H 0.4623 0.7533 0.4355
H10 H 0.4836 0.6974 0.4080
C13 C 0.3131(7) 0.7029(2) 0.5476(4)
C14 C 0.4493(6) 0.7173(2) 0.5788(3)
H11 H 0.4462 0.7540 0.5845
C15 C 0.4853(8) 0.6973(2) 0.6542(3)
H12 H 0.4024 0.6940 0.6829
H13 H 0.5426 0.7218 0.6790
C16 C 0.5587(6) 0.6463(2) 0.6538(3)
H14 H 0.5996 0.6407 0.7019
H15 H 0.4927 0.6197 0.6455
C17 C 0.6689(6) 0.6432(2) 0.5944(3)
H16 H 0.7304 0.6713 0.6054
C18 C 0.7598(6) 0.5952(2) 0.5994(3)
C19 C 0.8736(7) 0.5987(3) 0.5408(4)
H17 H 0.9356 0.6256 0.5544
H18 H 0.9245 0.5674 0.5405
C20 C 0.5118(7) 0.61666(19) 0.4841(3)
C21 C 0.3007(8) 0.5757(3) 0.5095(4)
H19 H 0.3345 0.5485 0.4787
H20 H 0.2352 0.5950 0.4811
C22 C 0.2360(7) 0.5551(3) 0.5768(5)
H21 H 0.1569 0.5360 0.5631
H22 H 0.2098 0.5823 0.6088
H23 H 0.2992 0.5335 0.6021
C23 C 0.8308(8) 0.5938(3) 0.6755(4)
H24 H 0.8711 0.6261 0.6855
H25 H 0.9003 0.5684 0.6751
H26 H 0.7653 0.5861 0.7132
C24 C 0.6787(8) 0.5459(2) 0.5890(4)
H27 H 0.6060 0.5447 0.6244
H28 H 0.7378 0.5176 0.5963
H29 H 0.6417 0.5448 0.5398
loop_
_geom_bond_atom_site_label_1
_geom_bond_atom_site_label_2
_geom_bond_site_symmetry_1
_geom_bond_site_symmetry_2
Br1 C1 1_555 1_555
O1 C12 1_555 1_555
O2 C13 1_555 1_555
O3 C7 1_555 1_555
O4 C7 1_555 1_555
O5 C20 1_555 1_555
O6 C20 1_555 1_555
C1 C2 1_555 1_555
C2 H1 1_555 1_555
C3 C2 1_555 1_555
H2 C3 1_555 1_555
C4 C3 1_555 1_555
H3 C4 1_555 1_555
C5 C4 1_555 1_555
C6 C1 1_555 1_555
H4 C6 1_555 1_555
C7 C5 1_555 1_555
C8 O3 1_555 1_555
H5 C8 1_555 1_555
C9 C8 1_555 1_555
H6 C9 1_555 1_555
H7 C9 1_555 1_555
C10 C9 1_555 1_555
C11 C10 1_555 1_555
H8 C11 1_555 1_555
C12 C11 1_555 1_555
H9 C12 1_555 1_555
H10 C12 1_555 1_555
C13 O1 1_555 1_555
C14 C11 1_555 1_555
H11 C14 1_555 1_555
C15 C14 1_555 1_555
H12 C15 1_555 1_555
H13 C15 1_555 1_555
C16 C15 1_555 1_555
H14 C16 1_555 1_555
H15 C16 1_555 1_555
C17 C10 1_555 1_555
H16 C17 1_555 1_555
C18 C17 1_555 1_555
C19 C8 1_555 1_555
H17 C19 1_555 1_555
H18 C19 1_555 1_555
C20 C10 1_555 1_555
C21 O6 1_555 1_555
H19 C21 1_555 1_555
H20 C21 1_555 1_555
C22 C21 1_555 1_555
H21 C22 1_555 1_555
H22 C22 1_555 1_555
H23 C22 1_555 1_555
C23 C18 1_555 1_555
H24 C23 1_555 1_555
H25 C23 1_555 1_555
H26 C23 1_555 1_555
C24 C18 1_555 1_555
H27 C24 1_555 1_555
H28 C24 1_555 1_555
H29 C24 1_555 1_555
C5 C6 1_555 1_555
C13 C14 1_555 1_555
C16 C17 1_555 1_555
C18 C19 1_555 1_555

#END
