
#######################################################################
#
#                 Cambridge Crystallographic Data Centre
#                                CCDC 
#
#######################################################################
#
# If this CIF has been generated from an entry in the Cambridge 
# Structural Database, then it will include bibliographic, chemical, 
# crystal, experimental, refinement or atomic coordinate data resulting 
# from the CCDC's data processing and validation procedures.
#
#######################################################################

data_RASFAV
_chemical_formula_moiety         'C38 H36 N2 O4'
_chemical_name_systematic        
3,3'-([1,1'-biphenyl]-4,4'-diyl)bis[7-(diethylamino)-2H-1-benzopyran-2-one]
_symmetry_cell_setting           monoclinic
_symmetry_space_group_name_H-M   'C 2/c'
_symmetry_Int_Tables_number      15
_space_group_name_Hall           '-C 2yn'
loop_
_symmetry_equiv_pos_site_id
_symmetry_equiv_pos_as_xyz
1 x,y,z
2 -x,y,1/2-z
3 1/2+x,1/2+y,z
4 1/2-x,1/2+y,1/2-z
5 -x,-y,-z
6 x,-y,1/2+z
7 1/2-x,1/2-y,-z
8 1/2+x,1/2-y,1/2+z
_cell_length_a                   20.9909(18)
_cell_length_b                   6.4790(6)
_cell_length_c                   23.584(2)
_cell_angle_alpha                90
_cell_angle_beta                 110.878(3)
_cell_angle_gamma                90
_cell_volume                     2996.83
_cell_formula_units_Z            4
loop_
_atom_site_label
_atom_site_type_symbol
_atom_site_fract_x
_atom_site_fract_y
_atom_site_fract_z
N1 N 1.8321(3) 1.2794(12) 0.6695(5)
O1 O 1.60662(11) 1.5415(3) 0.62647(10)
O2 O 1.50688(12) 1.6888(4) 0.60057(13)
C1 C 1.53634(17) 1.5297(6) 0.59974(16)
C2 C 1.50682(16) 1.3321(5) 0.57546(14)
C3 C 1.54943(16) 1.1732(5) 0.57694(14)
H1 H 1.5305 1.0472 0.5604
C4 C 1.62090(17) 1.1897(5) 0.60224(15)
C5 C 1.64861(17) 1.3771(5) 0.62849(16)
C6 C 1.718(2) 1.406(6) 0.6491(12)
H2 H 1.7357 1.5339 0.6643
C7 C 1.7621(9) 1.245(3) 0.6477(6)
C8 C 1.7344(13) 1.057(4) 0.6218(7)
H3 H 1.7630 0.9488 0.6205
C9 C 1.665(3) 1.030(10) 0.5982(18)
H4 H 1.6471 0.9065 0.5794
C10 C 1.43198(16) 1.3114(5) 0.55227(14)
C11 C 1.38764(17) 1.4668(5) 0.52078(16)
H5 H 1.4055 1.5907 0.5131
C12 C 1.31814(17) 1.4412(5) 0.50076(15)
H6 H 1.2904 1.5487 0.4797
C13 C 1.28758(16) 1.2621(5) 0.51064(15)
C14 C 1.33186(17) 1.1072(5) 0.54140(18)
H7 H 1.3138 0.9834 0.5488
C15 C 1.40185(18) 1.1296(5) 0.56148(17)
H8 H 1.4295 1.0205 0.5816
C16 C 1.8624(5) 1.4671(18) 0.6993(5)
H9 H 1.8361 1.5833 0.6770
H10 H 1.9081 1.4789 0.6985
C17 C 1.8659(10) 1.478(3) 0.7646(5)
H11 H 1.8205 1.4818 0.7655
H12 H 1.8900 1.6004 0.7834
H13 H 1.8893 1.3587 0.7863
C18 C 1.8817(6) 1.133(2) 0.6646(7)
H14 H 1.9191 1.2075 0.6589
H15 H 1.8608 1.0469 0.6292
C19 C 1.9092(8) 0.9987(19) 0.7202(7)
H16 H 1.9416 1.0756 0.7525
H17 H 1.9312 0.8801 0.7110
H18 H 1.8724 0.9546 0.7324
N1F N 0.6679(3) 1.2206(12) 0.3305(5)
O1F O 0.89338(11) 0.9585(3) 0.37353(10)
O2F O 0.99312(12) 0.8112(4) 0.39943(13)
C1F C 0.96366(17) 0.9703(6) 0.40026(16)
C2F C 0.99318(16) 1.1679(5) 0.42454(14)
C3F C 0.95057(16) 1.3268(5) 0.42306(14)
H1F H 0.9695 1.4528 0.4396
C4F C 0.87910(17) 1.3103(5) 0.39776(15)
C5F C 0.85139(17) 1.1229(5) 0.37151(16)
C6F C 0.782(2) 1.094(6) 0.3509(12)
H2F H 0.7643 0.9661 0.3357
C7F C 0.7379(9) 1.255(3) 0.3523(6)
C8F C 0.7656(13) 1.443(4) 0.3782(7)
H3F H 0.7370 1.5512 0.3795
C9F C 0.835(3) 1.470(10) 0.4018(18)
H4F H 0.8529 1.5935 0.4206
C10F C 1.06802(16) 1.1886(5) 0.44773(14)
C11F C 1.11236(17) 1.0332(5) 0.47922(16)
H5F H 1.0945 0.9093 0.4869
C12F C 1.18186(17) 1.0588(5) 0.49924(15)
H6F H 1.2096 0.9513 0.5203
C13F C 1.21242(16) 1.2379(5) 0.48936(15)
C14F C 1.16814(17) 1.3928(5) 0.45860(18)
H7F H 1.1862 1.5166 0.4512
C15F C 1.09815(18) 1.3704(5) 0.43852(17)
H8F H 1.0705 1.4795 0.4184
C16F C 0.6376(5) 1.0329(18) 0.3007(5)
H9F H 0.6639 0.9167 0.3230
H10F H 0.5919 1.0211 0.3015
C17F C 0.6341(10) 1.022(3) 0.2354(5)
H11F H 0.6795 1.0182 0.2345
H12F H 0.6100 0.8996 0.2166
H13F H 0.6107 1.1413 0.2137
C18F C 0.6183(6) 1.367(2) 0.3354(7)
H14F H 0.5809 1.2925 0.3411
H15F H 0.6392 1.4531 0.3708
C19F C 0.5908(8) 1.5013(19) 0.2798(7)
H16F H 0.5584 1.4244 0.2475
H17F H 0.5688 1.6199 0.2890
H18F H 0.6276 1.5454 0.2676
N2? N 1.8314(4) 1.2785(14) 0.7088(6)
C20? C 1.715(3) 1.413(8) 0.6670(17)
H19? H 1.7282 1.5378 0.6871
C21? C 1.7613(11) 1.254(3) 0.6741(8)
C22? C 1.7375(17) 1.064(6) 0.6455(9)
H20? H 1.7685 0.9589 0.6479
C23? C 1.670(4) 1.031(13) 0.614(2)
H21? H 1.6551 0.8990 0.6002
C24? C 1.8536(11) 1.487(3) 0.7331(8)
H22? H 1.8321 1.5216 0.7621
H23? H 1.8379 1.5860 0.7001
C25? C 1.9292(6) 1.5091(19) 0.7635(5)
H24? H 1.9434 1.4463 0.8030
H25? H 1.9411 1.6528 0.7677
H26? H 1.9516 1.4422 0.7395
C26? C 1.8751(5) 1.097(2) 0.7216(5)
H27? H 1.8483 0.9796 0.7255
H28? H 1.9111 1.1172 0.7607
C27? C 1.9076(11) 1.043(3) 0.6763(9)
H29? H 1.8728 1.0079 0.6383
H30? H 1.9376 0.9277 0.6909
H31? H 1.9331 1.1593 0.6707
loop_
_geom_bond_atom_site_label_1
_geom_bond_atom_site_label_2
_geom_bond_site_symmetry_1
_geom_bond_site_symmetry_2
N1 C7 1_555 1_555
O1 C1 1_555 1_555
O2 C1 1_555 1_555
C1 C2 1_555 1_555
C2 C3 1_555 1_555
C3 H1 1_555 1_555
C4 C3 1_555 1_555
C5 O1 1_555 1_555
C6 C5 1_555 1_555
H2 C6 1_555 1_555
C7 C6 1_555 1_555
C8 C7 1_555 1_555
H3 C8 1_555 1_555
C9 C4 1_555 1_555
H4 C9 1_555 1_555
C10 C2 1_555 1_555
C11 C10 1_555 1_555
H5 C11 1_555 1_555
C12 C11 1_555 1_555
H6 C12 1_555 1_555
C13 C12 1_555 1_555
C14 C13 1_555 1_555
H7 C14 1_555 1_555
C15 C10 1_555 1_555
H8 C15 1_555 1_555
C16 N1 1_555 1_555
H9 C16 1_555 1_555
H10 C16 1_555 1_555
C17 C16 1_555 1_555
H11 C17 1_555 1_555
H12 C17 1_555 1_555
H13 C17 1_555 1_555
C18 N1 1_555 1_555
H14 C18 1_555 1_555
H15 C18 1_555 1_555
C19 C18 1_555 1_555
H16 C19 1_555 1_555
H17 C19 1_555 1_555
H18 C19 1_555 1_555
N1F C7F 1_555 1_555
O1F C1F 1_555 1_555
O2F C1F 1_555 1_555
C1F C2F 1_555 1_555
C2F C3F 1_555 1_555
C3F H1F 1_555 1_555
C4F C3F 1_555 1_555
C5F O1F 1_555 1_555
C6F C5F 1_555 1_555
H2F C6F 1_555 1_555
C7F C6F 1_555 1_555
C8F C7F 1_555 1_555
H3F C8F 1_555 1_555
C9F C4F 1_555 1_555
H4F C9F 1_555 1_555
C10F C2F 1_555 1_555
C11F C10F 1_555 1_555
H5F C11F 1_555 1_555
C12F C11F 1_555 1_555
H6F C12F 1_555 1_555
C13F C13 1_555 1_555
C14F C13F 1_555 1_555
H7F C14F 1_555 1_555
C15F C10F 1_555 1_555
H8F C15F 1_555 1_555
C16F N1F 1_555 1_555
H9F C16F 1_555 1_555
H10F C16F 1_555 1_555
C17F C16F 1_555 1_555
H11F C17F 1_555 1_555
H12F C17F 1_555 1_555
H13F C17F 1_555 1_555
C18F N1F 1_555 1_555
H14F C18F 1_555 1_555
H15F C18F 1_555 1_555
C19F C18F 1_555 1_555
H16F C19F 1_555 1_555
H17F C19F 1_555 1_555
H18F C19F 1_555 1_555
C4 C5 1_555 1_555
C8 C9 1_555 1_555
C14 C15 1_555 1_555
C4F C5F 1_555 1_555
C8F C9F 1_555 1_555
C12F C13F 1_555 1_555
C14F C15F 1_555 1_555

#END
