
#######################################################################
#
#                 Cambridge Crystallographic Data Centre
#                                CCDC 
#
#######################################################################
#
# If this CIF has been generated from an entry in the Cambridge 
# Structural Database, then it will include bibliographic, chemical, 
# crystal, experimental, refinement or atomic coordinate data resulting 
# from the CCDC's data processing and validation procedures.
#
#######################################################################

data_RASJED
_chemical_formula_moiety         'C20 H33 N1 O1'
_chemical_name_systematic        
3-(3,7-dimethyl-2,4,5,6,7,7a-hexahydro-1H-inden-4-yl)-2-methyl-N-(3-methylbutyl)acrylamide
_symmetry_cell_setting           orthorhombic
_symmetry_space_group_name_H-M   'P 21 21 21'
_symmetry_Int_Tables_number      19
_space_group_name_Hall           'P 2ac 2ab'
loop_
_symmetry_equiv_pos_site_id
_symmetry_equiv_pos_as_xyz
1 x,y,z
2 1/2-x,-y,1/2+z
3 -x,1/2+y,1/2-z
4 1/2+x,1/2-y,-z
_cell_length_a                   9.8456(4)
_cell_length_b                   16.7784(10)
_cell_length_c                   23.0838(12)
_cell_angle_alpha                90
_cell_angle_beta                 90
_cell_angle_gamma                90
_cell_volume                     3813.29
_exptl_crystal_colour            colorless
_exptl_crystal_description       needle
_cell_formula_units_Z            8
loop_
_atom_site_label
_atom_site_type_symbol
_atom_site_fract_x
_atom_site_fract_y
_atom_site_fract_z
O1 O 0.4102(2) 0.41972(15) 0.74312(10)
N1 N 0.6257(2) 0.37731(17) 0.73676(12)
C1 C 0.7579(3) 0.5805(2) 0.84143(14)
H1 H 0.6833 0.5999 0.8657
C2 C 0.5317(3) 0.4283(2) 0.75653(13)
C3 C 0.7052(3) 0.5134(2) 0.80462(13)
H2 H 0.7696 0.4806 0.7873
C4 C 0.5939(3) 0.3152(2) 0.69519(14)
H3 H 0.5000 0.2990 0.7001
H4 H 0.6510 0.2691 0.7026
C5 C 0.5742(3) 0.49627(19) 0.79433(13)
C6 C 0.8688(3) 0.54977(19) 0.88065(14)
C7 C 0.8546(3) 0.5141(2) 0.93166(15)
C8 C 0.5816(3) 0.2811(2) 0.58709(14)
H5 H 0.6240 0.2308 0.5989
C9 C 0.8083(3) 0.6504(2) 0.80333(16)
H6 H 0.7453 0.6579 0.7715
H7 H 0.8080 0.6988 0.8263
C10 C 0.6158(3) 0.3432(2) 0.63308(14)
H8 H 0.7101 0.3587 0.6285
H9 H 0.5604 0.3901 0.6264
C11 C 1.0153(3) 0.5489(2) 0.85980(16)
H10 H 1.0255 0.5041 0.8329
C12 C 0.9498(4) 0.6377(2) 0.77889(17)
H11 H 0.9756 0.6838 0.7560
H12 H 0.9493 0.5916 0.7536
C13 C 0.4590(3) 0.5458(2) 0.81858(16)
H13 H 0.4583 0.5415 0.8601
H14 H 0.3742 0.5268 0.8034
H15 H 0.4714 0.6006 0.8077
C14 C 0.9903(4) 0.4865(3) 0.95528(17)
H16 H 0.9989 0.4290 0.9528
H17 H 1.0018 0.5028 0.9953
C15 C 1.0550(3) 0.6251(2) 0.82734(17)
H18 H 1.1436 0.6161 0.8091
C16 C 1.0938(4) 0.5279(3) 0.9159(2)
H19 H 1.1694 0.4927 0.9075
H20 H 1.1286 0.5758 0.9342
C17 C 0.7260(4) 0.4959(3) 0.96324(17)
H21 H 0.6499 0.5131 0.9405
H22 H 0.7257 0.5234 0.9997
H23 H 0.7198 0.4395 0.9698
C18 C 1.0668(4) 0.6981(2) 0.8662(2)
H24 H 1.0786 0.7448 0.8426
H25 H 1.1437 0.6922 0.8914
H26 H 0.9857 0.7035 0.8889
C19 C 0.4300(4) 0.2667(3) 0.58253(19)
H27 H 0.3858 0.3148 0.5703
H28 H 0.3953 0.2509 0.6196
H29 H 0.4130 0.2252 0.5548
C20 C 0.6430(6) 0.3049(3) 0.52914(18)
H30 H 0.7389 0.3131 0.5336
H31 H 0.6014 0.3534 0.5159
H32 H 0.6274 0.2634 0.5013
H33 H 0.706(4) 0.381(2) 0.7466(16)
O2 O -0.0884(2) 0.37342(18) 0.73970(12)
N2 N 0.1271(3) 0.4162(2) 0.73260(12)
C21 C 0.3623(3) 0.20167(19) 0.85734(13)
C22 C 0.1936(3) 0.3014(2) 0.82137(15)
H34 H 0.2587 0.3154 0.7940
C23 C 0.0666(3) 0.3255(2) 0.81081(15)
C24 C 0.4975(3) 0.2410(2) 0.84547(14)
H35 H 0.4883 0.2741 0.8107
C25 C 0.4223(4) 0.3528(2) 0.90793(15)
H36 H 0.4468 0.3873 0.9400
H37 H 0.4089 0.3861 0.8741
C26 C 0.0304(3) 0.3729(2) 0.75824(15)
C27 C 0.3707(3) 0.1225(2) 0.85759(14)
C28 C 0.2430(3) 0.2542(2) 0.87273(15)
H38 H 0.1687 0.2205 0.8869
C29 C 0.5142(3) 0.0946(2) 0.84772(16)
H39 H 0.5179 0.0556 0.8167
H40 H 0.5515 0.0710 0.8826
C30 C 0.5393(3) 0.2950(2) 0.89625(15)
H41 H 0.6184 0.3263 0.8841
C31 C 0.5921(3) 0.1704(2) 0.83108(16)
H42 H 0.6141 0.1700 0.7901
H43 H 0.6759 0.1742 0.8530
C32 C 0.2892(4) 0.3105(2) 0.92225(15)
H44 H 0.2191 0.3500 0.9292
H45 H 0.3007 0.2798 0.9575
C33 C 0.0847(4) 0.4689(2) 0.57188(16)
H46 H -0.0134 0.4776 0.5753
C34 C 0.1017(3) 0.4661(2) 0.68150(16)
H47 H 0.1592 0.5129 0.6833
H48 H 0.0079 0.4837 0.6819
C35 C 0.1290(4) 0.4223(3) 0.62593(16)
H49 H 0.0815 0.3717 0.6267
H50 H 0.2255 0.4111 0.6232
C36 C 0.2600(4) 0.0634(2) 0.86793(18)
H51 H 0.2831 0.0306 0.9006
H52 H 0.2492 0.0305 0.8342
H53 H 0.1766 0.0910 0.8756
C37 C 0.5783(5) 0.2481(3) 0.95033(18)
H54 H 0.5892 0.2841 0.9823
H55 H 0.6622 0.2205 0.9436
H56 H 0.5082 0.2103 0.9591
C38 C -0.0539(3) 0.3059(3) 0.84907(18)
H57 H -0.0236 0.2758 0.8820
H58 H -0.1185 0.2750 0.8275
H59 H -0.0958 0.3544 0.8620
C39 C 0.1071(6) 0.4194(4) 0.5179(2)
H60 H 0.0790 0.4492 0.4845
H61 H 0.0547 0.3713 0.5205
H62 H 0.2016 0.4063 0.5146
C40 C 0.1485(9) 0.5483(5) 0.5675(3)
H63 H 0.2451 0.5424 0.5638
H64 H 0.1282 0.5787 0.6016
H65 H 0.1137 0.5756 0.5341
H66 H 0.209(5) 0.411(3) 0.746(2)
loop_
_geom_bond_atom_site_label_1
_geom_bond_atom_site_label_2
_geom_bond_site_symmetry_1
_geom_bond_site_symmetry_2
O1 C2 1_555 1_555
N1 C2 1_555 1_555
C1 H1 1_555 1_555
C2 C5 1_555 1_555
C3 C1 1_555 1_555
H2 C3 1_555 1_555
C4 N1 1_555 1_555
H3 C4 1_555 1_555
H4 C4 1_555 1_555
C5 C3 1_555 1_555
C6 C1 1_555 1_555
C7 C6 1_555 1_555
C8 H5 1_555 1_555
C9 C1 1_555 1_555
H6 C9 1_555 1_555
H7 C9 1_555 1_555
C10 C4 1_555 1_555
H8 C10 1_555 1_555
H9 C10 1_555 1_555
C11 C6 1_555 1_555
H10 C11 1_555 1_555
C12 C9 1_555 1_555
H11 C12 1_555 1_555
H12 C12 1_555 1_555
C13 C5 1_555 1_555
H13 C13 1_555 1_555
H14 C13 1_555 1_555
H15 C13 1_555 1_555
C14 C7 1_555 1_555
H16 C14 1_555 1_555
H17 C14 1_555 1_555
C15 C11 1_555 1_555
H18 C15 1_555 1_555
C16 C11 1_555 1_555
H19 C16 1_555 1_555
H20 C16 1_555 1_555
C17 C7 1_555 1_555
H21 C17 1_555 1_555
H22 C17 1_555 1_555
H23 C17 1_555 1_555
C18 C15 1_555 1_555
H24 C18 1_555 1_555
H25 C18 1_555 1_555
H26 C18 1_555 1_555
C19 C8 1_555 1_555
H27 C19 1_555 1_555
H28 C19 1_555 1_555
H29 C19 1_555 1_555
C20 C8 1_555 1_555
H30 C20 1_555 1_555
H31 C20 1_555 1_555
H32 C20 1_555 1_555
H33 N1 1_555 1_555
O2 C26 1_555 1_555
N2 C26 1_555 1_555
C21 C24 1_555 1_555
C22 H34 1_555 1_555
C23 C22 1_555 1_555
C24 H35 1_555 1_555
C25 H36 1_555 1_555
H37 C25 1_555 1_555
C26 C23 1_555 1_555
C27 C21 1_555 1_555
C28 C21 1_555 1_555
H38 C28 1_555 1_555
C29 C27 1_555 1_555
H39 C29 1_555 1_555
H40 C29 1_555 1_555
C30 C24 1_555 1_555
H41 C30 1_555 1_555
C31 C24 1_555 1_555
H42 C31 1_555 1_555
H43 C31 1_555 1_555
C32 C25 1_555 1_555
H44 C32 1_555 1_555
H45 C32 1_555 1_555
C33 H46 1_555 1_555
C34 N2 1_555 1_555
H47 C34 1_555 1_555
H48 C34 1_555 1_555
C35 C33 1_555 1_555
H49 C35 1_555 1_555
H50 C35 1_555 1_555
C36 C27 1_555 1_555
H51 C36 1_555 1_555
H52 C36 1_555 1_555
H53 C36 1_555 1_555
C37 C30 1_555 1_555
H54 C37 1_555 1_555
H55 C37 1_555 1_555
H56 C37 1_555 1_555
C38 C23 1_555 1_555
H57 C38 1_555 1_555
H58 C38 1_555 1_555
H59 C38 1_555 1_555
C39 C33 1_555 1_555
H60 C39 1_555 1_555
H61 C39 1_555 1_555
H62 C39 1_555 1_555
C40 C33 1_555 1_555
H63 C40 1_555 1_555
H64 C40 1_555 1_555
H65 C40 1_555 1_555
H66 N2 1_555 1_555
C8 C10 1_555 1_555
C12 C15 1_555 1_555
C14 C16 1_555 1_555
C22 C28 1_555 1_555
C25 C30 1_555 1_555
C28 C32 1_555 1_555
C29 C31 1_555 1_555
C34 C35 1_555 1_555

#END
