
#######################################################################
#
#                 Cambridge Crystallographic Data Centre
#                                CCDC 
#
#######################################################################
#
# If this CIF has been generated from an entry in the Cambridge 
# Structural Database, then it will include bibliographic, chemical, 
# crystal, experimental, refinement or atomic coordinate data resulting 
# from the CCDC's data processing and validation procedures.
#
#######################################################################

data_RASJIH
_chemical_name_common            
'1-butylpyridin-1-ium 1,3,5(4,11)-tris(5,12-dimethoxytriptycena)cyclohexaphane hexafluorophosphate unknown solvate'
_chemical_formula_moiety         'C69 H54 O6,C9 H14 N1 1+,F6 P1 1-'
_chemical_name_systematic        
'1-butylpyridin-1-ium dimethoxy-2,6-helic[6]arene hexafluorophosphate unknown solvate'
_symmetry_cell_setting           monoclinic
_symmetry_space_group_name_H-M   'C 2/c'
_symmetry_Int_Tables_number      15
_space_group_name_Hall           '-C 2yn'
loop_
_symmetry_equiv_pos_site_id
_symmetry_equiv_pos_as_xyz
1 x,y,z
2 -x,y,1/2-z
3 1/2+x,1/2+y,z
4 1/2-x,1/2+y,1/2-z
5 -x,-y,-z
6 x,-y,1/2+z
7 1/2-x,1/2-y,-z
8 1/2+x,1/2-y,1/2+z
_cell_length_a                   42.201(8)
_cell_length_b                   15.139(3)
_cell_length_c                   25.498(5)
_cell_angle_alpha                90
_cell_angle_beta                 104.65(3)
_cell_angle_gamma                90
_cell_volume                     15760.6
_exptl_crystal_colour            colorless
_exptl_crystal_description       block
_cell_formula_units_Z            8
loop_
_atom_site_label
_atom_site_type_symbol
_atom_site_fract_x
_atom_site_fract_y
_atom_site_fract_z
P1 P 0.06802(13) 0.5502(3) 0.0940(2)
F1 F 0.0786(4) 0.6456(7) 0.0813(6)
F2 F 0.0299(3) 0.5754(12) 0.0808(7)
F3 F 0.0852(4) 0.5431(12) 0.0447(6)
F4 F 0.1046(3) 0.5069(9) 0.1104(6)
F5 F 0.0576(4) 0.4559(7) 0.1093(6)
F6 F 0.0669(4) 0.5203(11) 0.1536(5)
P2 P 0.13747(9) 0.6403(2) 0.34514(15)
F7 F 0.1553(2) 0.7046(6) 0.3125(4)
F8 F 0.1216(2) 0.5764(5) 0.3814(3)
F9 F 0.1409(3) 0.5579(6) 0.3078(4)
F10 F 0.1226(3) 0.7219(7) 0.3682(5)
F11 F 0.1603(4) 0.6810(10) 0.3975(5)
F12 F 0.1696(4) 0.5885(9) 0.3544(6)
O1 O 0.03498(10) 0.8782(3) 0.02358(18)
O2 O 0.11846(11) 1.0946(3) -0.02889(19)
O3 O 0.19185(11) 0.6420(3) 0.20460(18)
O4 O 0.26748(10) 0.9226(3) 0.19710(17)
O5 O 0.08916(10) 1.0042(3) 0.33337(18)
O6 O 0.13762(11) 1.2919(3) 0.26335(19)
C1 C 0.0207(2) 0.8164(5) 0.0518(3)
H1 H 0.0200 0.7585 0.0344
H2 H -0.0016 0.8353 0.0513
H3 H 0.0338 0.8124 0.0894
C2 C 0.03767(14) 0.9640(4) 0.0425(3)
C3 C 0.02715(14) 0.9920(4) 0.0879(3)
H4 H 0.0177 0.9514 0.1080
C4 C 0.03086(14) 1.0786(4) 0.1023(2)
C5 C 0.04536(14) 1.1403(4) 0.0746(2)
C6 C 0.05551(14) 1.1101(4) 0.0298(2)
H5 H 0.0651 1.1512 0.0102
C7 C 0.05233(15) 1.0238(4) 0.0126(3)
C8 C 0.02105(14) 1.1191(4) 0.1503(3)
H6 H 0.0110 1.0758 0.1709
C9 C -0.00197(15) 1.1965(4) 0.1262(3)
C10 C -0.03333(15) 1.2092(5) 0.1316(3)
H7 H -0.0425 1.1688 0.1522
C11 C -0.05171(18) 1.2824(5) 0.1065(3)
H8 H -0.0736 1.2903 0.1093
C12 C -0.03850(18) 1.3407(5) 0.0787(3)
H9 H -0.0510 1.3903 0.0624
C13 C -0.00539(17) 1.3292(5) 0.0734(3)
H10 H 0.0040 1.3705 0.0536
C14 C 0.01219(15) 1.2570(4) 0.0975(3)
C15 C 0.04695(14) 1.2340(4) 0.0967(3)
H11 H 0.0568 1.2771 0.0757
C16 C 0.06649(14) 1.2252(4) 0.1566(2)
C17 C 0.09455(15) 1.2696(4) 0.1814(3)
H12 H 0.1040 1.3112 0.1618
C18 C 0.10903(14) 1.2522(4) 0.2361(3)
C19 C 0.09543(15) 1.1937(4) 0.2650(2)
C20 C 0.06660(15) 1.1491(4) 0.2392(2)
H13 H 0.0569 1.1084 0.2589
C21 C 0.05247(14) 1.1642(4) 0.1855(3)
C22 C 0.14925(18) 1.3657(5) 0.2376(3)
H14 H 0.1561 1.3449 0.2058
H15 H 0.1679 1.3932 0.2633
H16 H 0.1316 1.4091 0.2263
C23 C 0.11237(15) 1.1741(4) 0.3242(2)
H17 H 0.1255 1.2263 0.3400
H18 H 0.0954 1.1651 0.3443
C24 C 0.13421(15) 1.0953(4) 0.3325(2)
C25 C 0.12238(15) 1.0097(4) 0.3372(2)
C26 C 0.07498(18) 0.9210(5) 0.3341(3)
H19 H 0.0771 0.8871 0.3024
H20 H 0.0518 0.9279 0.3332
H21 H 0.0862 0.8897 0.3672
C27 C 0.14379(14) 0.9367(4) 0.3484(2)
H22 H 0.1357 0.8794 0.3529
C28 C 0.17615(15) 0.9498(4) 0.3528(2)
C29 C 0.18885(14) 1.0329(4) 0.3466(2)
C30 C 0.16758(14) 1.1047(4) 0.3361(2)
H23 H 0.1760 1.1615 0.3312
C31 C 0.22581(13) 1.0337(4) 0.3532(2)
H24 H 0.2346 1.0936 0.3483
C32 C 0.24029(15) 0.9945(4) 0.4094(2)
C33 C 0.26166(16) 1.0378(5) 0.4515(3)
H25 H 0.2690 1.0959 0.4467
C34 C 0.27234(19) 0.9941(6) 0.5016(3)
H26 H 0.2882 1.0207 0.5304
C35 C 0.25957(19) 0.9122(6) 0.5086(3)
H27 H 0.2656 0.8848 0.5432
C36 C 0.23771(17) 0.8685(5) 0.4653(3)
H28 H 0.2301 0.8106 0.4698
C37 C 0.22772(15) 0.9111(4) 0.4169(2)
C38 C 0.20306(16) 0.8787(4) 0.3659(2)
H29 H 0.1942 0.8187 0.3706
C39 C 0.22019(14) 0.8820(4) 0.3200(2)
C40 C 0.22492(14) 0.8144(4) 0.2872(2)
H30 H 0.2174 0.7569 0.2931
C41 C 0.24057(14) 0.8273(4) 0.2450(2)
C42 C 0.25119(14) 0.9114(4) 0.2386(2)
C43 C 0.24805(13) 0.9820(4) 0.2719(2)
H31 H 0.2561 1.0390 0.2667
C44 C 0.23246(14) 0.9654(4) 0.3135(2)
C45 C 0.26472(18) 1.0069(4) 0.1712(3)
H32 H 0.2690 1.0007 0.1354
H33 H 0.2807 1.0477 0.1933
H34 H 0.2425 1.0301 0.1671
C46 C 0.24576(15) 0.7523(4) 0.2094(2)
H35 H 0.2480 0.6967 0.2304
H36 H 0.2665 0.7623 0.1989
C47 C 0.21808(14) 0.7417(3) 0.1581(2)
C48 C 0.21900(14) 0.7874(4) 0.1113(2)
H37 H 0.2372 0.8243 0.1113
C49 C 0.19385(14) 0.7802(4) 0.0646(2)
C50 C 0.16690(14) 0.7250(4) 0.0646(2)
C51 C 0.16574(14) 0.6778(4) 0.1102(2)
H38 H 0.1478 0.6396 0.1098
C52 C 0.19121(15) 0.6867(4) 0.1567(2)
C53 C 0.1677(2) 0.5751(5) 0.2020(3)
H39 H 0.1683 0.5336 0.1728
H40 H 0.1459 0.6024 0.1947
H41 H 0.1721 0.5433 0.2365
C54 C 0.19139(13) 0.8271(4) 0.0103(2)
H42 H 0.2107 0.8652 0.0102
C55 C 0.18571(14) 0.7542(4) -0.0321(2)
C56 C 0.20327(14) 0.7390(4) -0.0696(2)
H43 H 0.2219 0.7740 -0.0696
C57 C 0.19359(14) 0.6715(4) -0.1079(2)
H44 H 0.2058 0.6612 -0.1340
C58 C 0.16704(15) 0.6205(4) -0.1082(2)
H45 H 0.1608 0.5755 -0.1348
C59 C 0.14845(15) 0.6333(4) -0.0695(2)
H46 H 0.1301 0.5972 -0.0693
C60 C 0.15828(14) 0.7011(4) -0.0321(2)
C61 C 0.14115(13) 0.7277(4) 0.0116(2)
H47 H 0.1217 0.6901 0.0116
C62 C 0.13220(14) 0.8262(4) -0.0011(2)
C63 C 0.10110(14) 0.8624(4) -0.0137(2)
H48 H 0.0825 0.8258 -0.0161
C64 C 0.09732(14) 0.9522(4) -0.0230(3)
C65 C 0.12438(15) 1.0052(4) -0.0204(3)
C66 C 0.15611(15) 0.9673(4) -0.0098(2)
H49 H 0.1747 1.0030 -0.0093
C67 C 0.15952(14) 0.8775(4) -0.0003(2)
C68 C 0.14557(18) 1.1526(5) -0.0206(3)
H50 H 0.1561 1.1463 -0.0505
H51 H 0.1613 1.1381 0.0137
H52 H 0.1381 1.2137 -0.0193
C69 C 0.06187(15) 0.9924(4) -0.0365(3)
H53 H 0.0607 1.0425 -0.0619
H54 H 0.0460 0.9470 -0.0549
N1 N 0.1310(3) 0.9786(8) 0.1667(5)
C70 C 0.1436(4) 0.9372(10) 0.2122(7)
H55 H 0.1566 0.9687 0.2422
C71 C 0.1379(3) 0.8457(9) 0.2168(6)
H56 H 0.1482 0.8150 0.2492
C72 C 0.1191(4) 0.8048(11) 0.1777(7)
H57 H 0.1117 0.7473 0.1836
C73 C 0.1098(4) 0.8401(10) 0.1292(7)
H58 H 0.1000 0.8081 0.0971
C74 C 0.1157(4) 0.9278(11) 0.1308(7)
H59 H 0.1063 0.9569 0.0975
C75 C 0.1392(4) 1.0790(11) 0.1652(7)
H60 H 0.1213 1.1088 0.1385
H61 H 0.1403 1.1051 0.2013
C76 C 0.1692(4) 1.0949(11) 0.1515(7)
H62 H 0.1685 1.0662 0.1163
H63 H 0.1872 1.0676 0.1792
C77 C 0.1758(5) 1.1878(12) 0.1477(8)
H64 H 0.1792 1.2154 0.1838
H65 H 0.1568 1.2167 0.1229
C78 C 0.2057(4) 1.2019(12) 0.1270(7)
H66 H 0.2053 1.1609 0.0970
H67 H 0.2254 1.1911 0.1563
H68 H 0.2060 1.2628 0.1141
loop_
_geom_bond_atom_site_label_1
_geom_bond_atom_site_label_2
_geom_bond_site_symmetry_1
_geom_bond_site_symmetry_2
P1 F1 1_555 1_555
F2 P1 1_555 1_555
F3 P1 1_555 1_555
F4 P1 1_555 1_555
F5 P1 1_555 1_555
F6 P1 1_555 1_555
P2 F7 1_555 1_555
F8 P2 1_555 1_555
F9 P2 1_555 1_555
F10 P2 1_555 1_555
F11 P2 1_555 1_555
F12 P2 1_555 1_555
O1 C1 1_555 1_555
O2 C65 1_555 1_555
O3 C52 1_555 1_555
O4 C42 1_555 1_555
O5 C25 1_555 1_555
O6 C18 1_555 1_555
C1 H1 1_555 1_555
H2 C1 1_555 1_555
H3 C1 1_555 1_555
C2 O1 1_555 1_555
C3 C2 1_555 1_555
H4 C3 1_555 1_555
C4 C3 1_555 1_555
C5 C4 1_555 1_555
C6 C5 1_555 1_555
H5 C6 1_555 1_555
C7 C2 1_555 1_555
C8 C4 1_555 1_555
H6 C8 1_555 1_555
C9 C8 1_555 1_555
C10 C9 1_555 1_555
H7 C10 1_555 1_555
C11 C10 1_555 1_555
H8 C11 1_555 1_555
C12 C11 1_555 1_555
H9 C12 1_555 1_555
C13 C12 1_555 1_555
H10 C13 1_555 1_555
C14 C9 1_555 1_555
C15 C5 1_555 1_555
H11 C15 1_555 1_555
C16 C15 1_555 1_555
C17 C16 1_555 1_555
H12 C17 1_555 1_555
C18 C17 1_555 1_555
C19 C18 1_555 1_555
C20 C19 1_555 1_555
H13 C20 1_555 1_555
C21 C8 1_555 1_555
C22 O6 1_555 1_555
H14 C22 1_555 1_555
H15 C22 1_555 1_555
H16 C22 1_555 1_555
C23 C19 1_555 1_555
H17 C23 1_555 1_555
H18 C23 1_555 1_555
C24 C23 1_555 1_555
C25 C24 1_555 1_555
C26 O5 1_555 1_555
H19 C26 1_555 1_555
H20 C26 1_555 1_555
H21 C26 1_555 1_555
C27 C25 1_555 1_555
H22 C27 1_555 1_555
C28 C27 1_555 1_555
C29 C28 1_555 1_555
C30 C24 1_555 1_555
H23 C30 1_555 1_555
C31 C29 1_555 1_555
H24 C31 1_555 1_555
C32 C31 1_555 1_555
C33 C32 1_555 1_555
H25 C33 1_555 1_555
C34 C33 1_555 1_555
H26 C34 1_555 1_555
C35 C34 1_555 1_555
H27 C35 1_555 1_555
C36 C35 1_555 1_555
H28 C36 1_555 1_555
C37 C32 1_555 1_555
C38 C28 1_555 1_555
H29 C38 1_555 1_555
C39 C38 1_555 1_555
C40 C39 1_555 1_555
H30 C40 1_555 1_555
C41 C40 1_555 1_555
C42 C41 1_555 1_555
C43 C42 1_555 1_555
H31 C43 1_555 1_555
C44 C31 1_555 1_555
C45 O4 1_555 1_555
H32 C45 1_555 1_555
H33 C45 1_555 1_555
H34 C45 1_555 1_555
C46 C41 1_555 1_555
H35 C46 1_555 1_555
H36 C46 1_555 1_555
C47 C46 1_555 1_555
C48 C47 1_555 1_555
H37 C48 1_555 1_555
C49 C48 1_555 1_555
C50 C49 1_555 1_555
C51 C50 1_555 1_555
H38 C51 1_555 1_555
C52 C47 1_555 1_555
C53 O3 1_555 1_555
H39 C53 1_555 1_555
H40 C53 1_555 1_555
H41 C53 1_555 1_555
C54 C49 1_555 1_555
H42 C54 1_555 1_555
C55 C54 1_555 1_555
C56 C55 1_555 1_555
H43 C56 1_555 1_555
C57 C56 1_555 1_555
H44 C57 1_555 1_555
C58 C57 1_555 1_555
H45 C58 1_555 1_555
C59 C58 1_555 1_555
H46 C59 1_555 1_555
C60 C55 1_555 1_555
C61 C50 1_555 1_555
H47 C61 1_555 1_555
C62 C61 1_555 1_555
C63 C62 1_555 1_555
H48 C63 1_555 1_555
C64 C63 1_555 1_555
C65 C64 1_555 1_555
C66 C65 1_555 1_555
H49 C66 1_555 1_555
C67 C54 1_555 1_555
C68 O2 1_555 1_555
H50 C68 1_555 1_555
H51 C68 1_555 1_555
H52 C68 1_555 1_555
C69 C7 1_555 1_555
H53 C69 1_555 1_555
H54 C69 1_555 1_555
N1 C70 1_555 1_555
C70 H55 1_555 1_555
C71 C70 1_555 1_555
H56 C71 1_555 1_555
C72 C71 1_555 1_555
H57 C72 1_555 1_555
C73 C72 1_555 1_555
H58 C73 1_555 1_555
C74 N1 1_555 1_555
H59 C74 1_555 1_555
C75 N1 1_555 1_555
H60 C75 1_555 1_555
H61 C75 1_555 1_555
C76 C75 1_555 1_555
H62 C76 1_555 1_555
H63 C76 1_555 1_555
C77 C76 1_555 1_555
H64 C77 1_555 1_555
H65 C77 1_555 1_555
C78 C77 1_555 1_555
H66 C78 1_555 1_555
H67 C78 1_555 1_555
H68 C78 1_555 1_555
C6 C7 1_555 1_555
C13 C14 1_555 1_555
C14 C15 1_555 1_555
C16 C21 1_555 1_555
C20 C21 1_555 1_555
C29 C30 1_555 1_555
C36 C37 1_555 1_555
C37 C38 1_555 1_555
C39 C44 1_555 1_555
C43 C44 1_555 1_555
C51 C52 1_555 1_555
C59 C60 1_555 1_555
C60 C61 1_555 1_555
C62 C67 1_555 1_555
C64 C69 1_555 1_555
C66 C67 1_555 1_555
C73 C74 1_555 1_555

#END
