
#######################################################################
#
#                 Cambridge Crystallographic Data Centre
#                                CCDC 
#
#######################################################################
#
# If this CIF has been generated from an entry in the Cambridge 
# Structural Database, then it will include bibliographic, chemical, 
# crystal, experimental, refinement or atomic coordinate data resulting 
# from the CCDC's data processing and validation procedures.
#
#######################################################################

data_RASLAB
_chemical_formula_moiety         'C31 H34 B1 F2 N6 1+,C1 F3 O3 S1 1-'
_chemical_name_systematic        
'[2-(1-{4-[(4-ethyl-3,5-dimethyl-1H-pyrrol-2-yl)(4-ethyl-3,5-dimethyl-2H-pyrrol-2-ylidene)methyl]phenyl}-1H-1,2,3-triazol-4-yl)-1-methylpyridin-1-iumato](difluoro)boron trifluoromethanesulfonate'
_symmetry_cell_setting           monoclinic
_symmetry_space_group_name_H-M   'P 21'
_symmetry_Int_Tables_number      4
_space_group_name_Hall           'P 2yb'
loop_
_symmetry_equiv_pos_site_id
_symmetry_equiv_pos_as_xyz
1 x,y,z
2 -x,1/2+y,-z
_cell_length_a                   7.57530(9)
_cell_length_b                   12.1883(2)
_cell_length_c                   17.3804(2)
_cell_angle_alpha                90
_cell_angle_beta                 96.031(1)
_cell_angle_gamma                90
_cell_volume                     1595.85
_exptl_crystal_colour            'intense red'
_exptl_crystal_description       plate
_cell_formula_units_Z            2
_exptl_crystal_recrystallization_method Dichloromethane/Methanol
loop_
_atom_site_label
_atom_site_type_symbol
_atom_site_fract_x
_atom_site_fract_y
_atom_site_fract_z
B1 B 0.3219(2) 0.73012(15) 0.06208(11)
F1 F 0.16267(12) 0.76081(9) 0.08966(6)
F2 F 0.30906(14) 0.74876(9) -0.01727(6)
N1 N 0.47710(17) 0.79669(11) 0.10398(8)
C1 C 0.4915(2) 0.90686(14) 0.10650(9)
C2 C 0.3570(2) 0.98097(15) 0.06453(11)
H1 H 0.3162 0.9492 0.0140
H2 H 0.4106 1.0529 0.0573
H3 H 0.2558 0.9894 0.0948
C3 C 0.6449(2) 0.93783(13) 0.15460(9)
C4 C 0.6959(2) 1.05360(13) 0.17629(10)
H4 H 0.6648 1.1022 0.1313
H5 H 0.8260 1.0576 0.1899
C5 C 0.6021(3) 1.09410(15) 0.24472(11)
H6 H 0.4736 1.0951 0.2302
H7 H 0.6430 1.1684 0.2589
H8 H 0.6296 1.0448 0.2889
C6 C 0.7281(2) 0.84200(13) 0.18254(9)
C7 C 0.8961(2) 0.83748(14) 0.23688(10)
H9 H 0.9945 0.8135 0.2085
H10 H 0.8811 0.7855 0.2787
H11 H 0.9221 0.9105 0.2588
C8 C 0.62143(19) 0.75271(13) 0.15097(8)
C9 C 0.63416(19) 0.63942(13) 0.16251(9)
C10 C 0.78715(19) 0.59435(12) 0.21406(8)
C11 C 0.95263(19) 0.58432(14) 0.18716(8)
H12 H 0.9689 0.6088 0.1365
C12 C 1.0945(2) 0.53903(13) 0.23342(9)
H13 H 1.2074 0.5320 0.2148
C13 C 1.06847(19) 0.50404(13) 0.30772(9)
C14 C 0.9046(2) 0.51527(14) 0.33623(9)
H14 H 0.8889 0.4925 0.3873
C15 C 0.76480(19) 0.56031(13) 0.28884(9)
H15 H 0.6521 0.5681 0.3076
N2 N 1.21511(17) 0.45737(11) 0.35534(8)
N3 N 1.37586(19) 0.45216(14) 0.32743(9)
N4 N 1.48556(19) 0.40579(14) 0.38000(9)
C16 C 1.2244(2) 0.41451(13) 0.42723(9)
H16 H 1.1319 0.4084 0.4599
C17 C 1.3986(2) 0.38151(13) 0.44251(9)
C18 C 1.4854(2) 0.33433(13) 0.51391(9)
C19 C 1.4207(2) 0.35444(15) 0.58436(10)
H17 H 1.3149 0.3960 0.5856
C20 C 1.5067(3) 0.31541(16) 0.65208(10)
H18 H 1.4610 0.3296 0.6999
C21 C 1.6613(2) 0.25491(17) 0.65010(11)
H19 H 1.7241 0.2283 0.6965
C22 C 1.7214(2) 0.23428(15) 0.58015(11)
H20 H 1.8272 0.1930 0.5783
N5 N 1.63346(18) 0.27148(12) 0.51329(8)
C23 C 1.7020(3) 0.23623(17) 0.44102(11)
H21 H 1.7617 0.2980 0.4186
H22 H 1.6032 0.2112 0.4043
H23 H 1.7867 0.1760 0.4521
C24 C 0.50748(19) 0.56748(13) 0.12729(8)
C25 C 0.4956(2) 0.44981(13) 0.12781(9)
C26 C 0.6194(2) 0.37013(13) 0.17032(10)
H24 H 0.6067 0.3742 0.2258
H25 H 0.7418 0.3881 0.1616
H26 H 0.5910 0.2957 0.1515
C27 C 0.3425(2) 0.42244(14) 0.08067(9)
C28 C 0.2668(2) 0.30916(14) 0.06519(11)
H27 H 0.3650 0.2569 0.0601
H28 H 0.1894 0.3096 0.0156
C29 C 0.1595(3) 0.27050(17) 0.12991(12)
H29 H 0.2312 0.2785 0.1799
H30 H 0.1270 0.1933 0.1217
H31 H 0.0516 0.3149 0.1296
C30 C 0.2638(2) 0.52111(14) 0.05188(9)
C31 C 0.0957(2) 0.53057(16) -0.00114(10)
H32 H 0.0647 0.6082 -0.0087
H33 H -0.0002 0.4925 0.0217
H34 H 0.1125 0.4972 -0.0512
N6 N 0.36168(17) 0.60736(11) 0.07932(7)
O1 O 0.38540(18) 0.08015(14) 0.47186(9)
O2 O 0.11226(19) 0.17244(12) 0.49525(8)
O3 O 0.1134(2) -0.02503(13) 0.47182(9)
S1 S 0.19464(6) 0.08021(4) 0.46113(2)
C32 C 0.1486(3) 0.10421(16) 0.35735(11)
F3 F 0.20545(17) 0.02188(10) 0.31638(7)
F4 F 0.2253(2) 0.19500(11) 0.33549(7)
F5 F -0.02585(19) 0.11179(16) 0.33733(8)
loop_
_geom_bond_atom_site_label_1
_geom_bond_atom_site_label_2
_geom_bond_site_symmetry_1
_geom_bond_site_symmetry_2
B1 F1 1_555 1_555
F2 B1 1_555 1_555
N1 B1 1_555 1_555
C1 N1 1_555 1_555
C2 C1 1_555 1_555
H1 C2 1_555 1_555
H2 C2 1_555 1_555
H3 C2 1_555 1_555
C3 C1 1_555 1_555
C4 C3 1_555 1_555
H4 C4 1_555 1_555
H5 C4 1_555 1_555
C5 C4 1_555 1_555
H6 C5 1_555 1_555
H7 C5 1_555 1_555
H8 C5 1_555 1_555
C6 C3 1_555 1_555
C7 C6 1_555 1_555
H9 C7 1_555 1_555
H10 C7 1_555 1_555
H11 C7 1_555 1_555
C8 N1 1_555 1_555
C9 C8 1_555 1_555
C10 C9 1_555 1_555
C11 C10 1_555 1_555
H12 C11 1_555 1_555
C12 C11 1_555 1_555
H13 C12 1_555 1_555
C13 C12 1_555 1_555
C14 C13 1_555 1_555
H14 C14 1_555 1_555
C15 C10 1_555 1_555
H15 C15 1_555 1_555
N2 C13 1_555 1_555
N3 N2 1_555 1_555
N4 N3 1_555 1_555
C16 N2 1_555 1_555
H16 C16 1_555 1_555
C17 N4 1_555 1_555
C18 C17 1_555 1_555
C19 C18 1_555 1_555
H17 C19 1_555 1_555
C20 C19 1_555 1_555
H18 C20 1_555 1_555
C21 C20 1_555 1_555
H19 C21 1_555 1_555
C22 C21 1_555 1_555
H20 C22 1_555 1_555
N5 C18 1_555 1_555
C23 N5 1_555 1_555
H21 C23 1_555 1_555
H22 C23 1_555 1_555
H23 C23 1_555 1_555
C24 C9 1_555 1_555
C25 C24 1_555 1_555
C26 C25 1_555 1_555
H24 C26 1_555 1_555
H25 C26 1_555 1_555
H26 C26 1_555 1_555
C27 C25 1_555 1_555
C28 C27 1_555 1_555
H27 C28 1_555 1_555
H28 C28 1_555 1_555
C29 C28 1_555 1_555
H29 C29 1_555 1_555
H30 C29 1_555 1_555
H31 C29 1_555 1_555
C30 C27 1_555 1_555
C31 C30 1_555 1_555
H32 C31 1_555 1_555
H33 C31 1_555 1_555
H34 C31 1_555 1_555
N6 B1 1_555 1_555
O1 S1 1_555 1_555
O2 S1 1_555 1_555
O3 S1 1_555 1_555
S1 C32 1_555 1_555
C32 F3 1_555 1_555
F4 C32 1_555 1_555
F5 C32 1_555 1_555
C6 C8 1_555 1_555
C14 C15 1_555 1_555
C16 C17 1_555 1_555
C22 N5 1_555 1_555
C24 N6 1_555 1_555
C30 N6 1_555 1_555

#END
