
#######################################################################
#
#                 Cambridge Crystallographic Data Centre
#                                CCDC 
#
#######################################################################
#
# If this CIF has been generated from an entry in the Cambridge 
# Structural Database, then it will include bibliographic, chemical, 
# crystal, experimental, refinement or atomic coordinate data resulting 
# from the CCDC's data processing and validation procedures.
#
#######################################################################

data_RASMAA
_chemical_formula_moiety         'C31 H33 N1 O2 Si1'
_chemical_name_systematic        
((2R)-2-Methyl-3-hydroxy-1-propyl)((1R)-1-(benzoylamino)-2-phenylethyl)diphenylsilane
_symmetry_cell_setting           monoclinic
_symmetry_space_group_name_H-M   'P 21'
_symmetry_Int_Tables_number      4
_space_group_name_Hall           'P 2yb'
loop_
_symmetry_equiv_pos_site_id
_symmetry_equiv_pos_as_xyz
1 x,y,z
2 -x,1/2+y,-z
_cell_length_a                   13.8822(8)
_cell_length_b                   8.4270(6)
_cell_length_c                   24.2031(14)
_cell_angle_alpha                90
_cell_angle_beta                 92.353(5)
_cell_angle_gamma                90
_cell_volume                     2829.02
_exptl_crystal_colour            colorless
_exptl_crystal_description       prism
_cell_formula_units_Z            4
loop_
_atom_site_label
_atom_site_type_symbol
_atom_site_fract_x
_atom_site_fract_y
_atom_site_fract_z
Si1 Si 0.76415(12) 0.5923(2) 0.89458(6)
C1 C 1.0011(5) 0.7492(9) 0.8340(3)
H1 H 1.0188(5) 0.8364(9) 0.8103(3)
H2 H 1.0580(5) 0.7174(9) 0.8558(3)
C2 C 0.9240(5) 0.8031(7) 0.8719(3)
H3 H 0.8687(5) 0.8393(7) 0.8488(3)
C3 C 0.8890(4) 0.6701(7) 0.9096(2)
H4 H 0.8925(4) 0.7088(7) 0.9474(2)
H5 H 0.9337(4) 0.5820(7) 0.9076(2)
C4 C 0.7551(4) 0.4546(6) 0.8319(2)
H6 H 0.6887(4) 0.4151(6) 0.8288(2)
C5 C 0.7130(5) 0.5357(7) 0.7370(3)
C6 C 0.9629(6) 0.9464(9) 0.9055(4)
H7 H 0.9146(6) 0.9823(9) 0.9298(4)
H8 H 0.9785(6) 1.0306(9) 0.8807(4)
H9 H 1.0196(6) 0.9156(9) 0.9268(4)
C7 C 0.7235(6) 0.4699(8) 0.9544(3)
C8 C 0.7855(8) 0.3772(12) 0.9850(3)
H10 H 0.8505(8) 0.3781(12) 0.9771(3)
C9 C 0.7550(13) 0.2796(18) 1.0283(5)
H11 H 0.7988(13) 0.2171(18) 1.0487(5)
C10 C 0.6617(18) 0.2796(20) 1.0391(5)
H12 H 0.6406(18) 0.2154(20) 1.0674(5)
C11 C 0.5970(10) 0.3690(15) 1.0106(5)
H13 H 0.5327(10) 0.3656(15) 1.0197(5)
C12 C 0.6248(7) 0.4691(9) 0.9665(3)
H14 H 0.5800(7) 0.5311(9) 0.9467(3)
C13 C 0.6795(5) 0.7628(7) 0.8848(3)
C14 C 0.6892(5) 0.8951(8) 0.9191(3)
H15 H 0.7386(5) 0.8971(8) 0.9462(3)
C15 C 0.6277(7) 1.0232(10) 0.9140(4)
H16 H 0.6354(7) 1.1103(10) 0.9373(4)
C16 C 0.5552(7) 1.0197(11) 0.8738(5)
H17 H 0.5138(7) 1.1062(11) 0.8699(5)
C17 C 0.5421(5) 0.8937(11) 0.8398(4)
H18 H 0.4917(5) 0.8924(11) 0.8133(4)
C18 C 0.6054(5) 0.7659(9) 0.8451(3)
H19 H 0.5974(5) 0.6801(9) 0.8211(3)
C19 C 0.8221(4) 0.3086(7) 0.8408(2)
H20 H 0.8870(4) 0.3458(7) 0.8498(2)
H21 H 0.8008(4) 0.2485(7) 0.8722(2)
C20 C 0.8247(4) 0.1995(6) 0.7912(2)
C21 C 0.7473(5) 0.1051(8) 0.7780(3)
H22 H 0.6937(5) 0.1065(8) 0.7998(3)
C22 C 0.7485(6) 0.0066(9) 0.7319(4)
H23 H 0.6950(6) -0.0560(9) 0.7228(4)
C23 C 0.8252(7) 0.0007(11) 0.7006(3)
H24 H 0.8257(7) -0.0670(11) 0.6703(3)
C24 C 0.9014(6) 0.0925(13) 0.7131(4)
H25 H 0.9548(6) 0.0892(13) 0.6911(4)
C25 C 0.9017(5) 0.1933(10) 0.7588(3)
H26 H 0.9552(5) 0.2568(10) 0.7671(3)
C26 C 0.7505(6) 0.5863(9) 0.6818(3)
C27 C 0.8444(8) 0.5680(11) 0.6701(3)
H27 H 0.8872(8) 0.5239(11) 0.6964(3)
C28 C 0.8782(11) 0.6157(14) 0.6179(5)
H28 H 0.9430(11) 0.6071(14) 0.6102(5)
C29 C 0.8134(16) 0.6740(18) 0.5797(5)
H29 H 0.8333(16) 0.7007(18) 0.5447(5)
C30 C 0.7197(13) 0.6937(17) 0.5920(5)
H30 H 0.6774(13) 0.7408(17) 0.5661(5)
C31 C 0.6854(8) 0.6451(10) 0.6426(4)
H31 H 0.6202(8) 0.6522(10) 0.6496(4)
N1 N 0.7753(3) 0.5331(5) 0.7798(2)
H32 H 0.8301(3) 0.5795(5) 0.7768(2)
O1 O 0.9676(3) 0.6194(6) 0.8009(2)
O2 O 0.6275(4) 0.4985(6) 0.7400(2)
H65 H 1.0191 0.6224 0.7719
Si2 Si 0.29777(14) 0.3782(2) 0.60881(8)
C32 C 0.4960(6) 0.1988(11) 0.7128(4)
H33 H 0.4993(6) 0.1157(11) 0.7406(4)
H34 H 0.5603(6) 0.2143(11) 0.6995(4)
C33 C 0.4289(6) 0.1480(8) 0.6653(4)
H35 H 0.3656(6) 0.1244(8) 0.6797(4)
C34 C 0.4167(5) 0.2780(9) 0.6208(3)
H36 H 0.4340(5) 0.2316(9) 0.5859(3)
H37 H 0.4639(5) 0.3600(9) 0.6296(3)
C35 C 0.2585(4) 0.5065(7) 0.6686(2)
H38 H 0.1910(4) 0.5360(7) 0.6607(2)
C36 C 0.1928(5) 0.4355(6) 0.7571(2)
C37 C 0.4702(6) -0.0048(9) 0.6415(4)
H39 H 0.4292(6) -0.0406(9) 0.6111(4)
H40 H 0.4736(6) -0.0850(9) 0.6696(4)
H41 H 0.5337(6) 0.0154(9) 0.6288(4)
C38 C 0.3116(6) 0.5130(9) 0.5485(3)
C39 C 0.3941(6) 0.6000(11) 0.5406(3)
H42 H 0.4459(6) 0.5888(11) 0.5659(3)
C40 C 0.4031(9) 0.7044(14) 0.4962(5)
H43 H 0.4589(9) 0.7643(14) 0.4932(5)
C41 C 0.3311(13) 0.7177(14) 0.4580(5)
H44 H 0.3371(13) 0.7860(14) 0.4282(5)
C42 C 0.2493(10) 0.6318(14) 0.4628(5)
H45 H 0.2000(10) 0.6388(14) 0.4357(5)
C43 C 0.2391(8) 0.5336(11) 0.5082(4)
H46 H 0.1813(8) 0.4793(11) 0.5116(4)
C44 C 0.2017(6) 0.2312(9) 0.5923(3)
C45 C 0.2205(7) 0.0889(10) 0.5657(3)
H47 H 0.2839(7) 0.0637(10) 0.5582(3)
C46 C 0.1477(12) -0.0168(14) 0.5499(4)
H48 H 0.1627(12) -0.1119(14) 0.5327(4)
C47 C 0.0559(13) 0.0184(23) 0.5592(6)
H49 H 0.0067(13) -0.0499(23) 0.5473(6)
C48 C 0.0352(10) 0.1532(22) 0.5860(6)
H50 H -0.0283(10) 0.1761(22) 0.5940(6)
C49 C 0.1087(8) 0.2589(15) 0.6019(5)
H51 H 0.0926(8) 0.3522(15) 0.6198(5)
C50 C 0.3177(5) 0.6628(8) 0.6732(3)
H52 H 0.3847(5) 0.6372(8) 0.6820(3)
H53 H 0.3146(5) 0.7162(8) 0.6376(3)
C51 C 0.2820(5) 0.7734(7) 0.7164(3)
C52 C 0.2093(6) 0.8834(9) 0.7040(3)
H54 H 0.1827(6) 0.8918(9) 0.6682(3)
C53 C 0.1768(6) 0.9818(9) 0.7467(4)
H55 H 0.1283(6) 1.0560(9) 0.7393(4)
C54 C 0.2160(7) 0.9673(10) 0.7974(4)
H56 H 0.1933(7) 1.0315(10) 0.8253(4)
C55 C 0.2862(7) 0.8651(10) 0.8099(3)
H57 H 0.3132(7) 0.8595(10) 0.8457(3)
C56 C 0.3183(6) 0.7679(9) 0.7692(3)
H58 H 0.3668(6) 0.6952(9) 0.7782(3)
C57 C 0.2147(5) 0.3817(7) 0.8158(2)
C58 C 0.3070(5) 0.3598(9) 0.8378(3)
H59 H 0.3595(5) 0.3778(9) 0.8160(3)
C59 C 0.3224(7) 0.3114(11) 0.8921(4)
H60 H 0.3848(7) 0.2966(11) 0.9066(4)
C60 C 0.2443(10) 0.2851(12) 0.9247(3)
H61 H 0.2541(10) 0.2496(12) 0.9609(3)
C61 C 0.1540(8) 0.3108(10) 0.9041(3)
H62 H 0.1019(8) 0.2963(10) 0.9264(3)
C62 C 0.1387(6) 0.3586(8) 0.8500(3)
H63 H 0.0760(6) 0.3755(8) 0.8363(3)
N2 N 0.2631(3) 0.4264(5) 0.7218(2)
H64 H 0.3133(3) 0.3709(5) 0.7307(2)
O3 O 0.4637(3) 0.3427(8) 0.7373(3)
O4 O 0.1112(3) 0.4841(5) 0.7435(2)
H66 H 0.5225 0.3983 0.7381
loop_
_geom_bond_atom_site_label_1
_geom_bond_atom_site_label_2
_geom_bond_site_symmetry_1
_geom_bond_site_symmetry_2
Si1 C3 1_555 1_555
C1 H1 1_555 1_555
H2 C1 1_555 1_555
C2 C1 1_555 1_555
H3 C2 1_555 1_555
C3 C2 1_555 1_555
H4 C3 1_555 1_555
H5 C3 1_555 1_555
C4 Si1 1_555 1_555
H6 C4 1_555 1_555
C5 C26 1_555 1_555
C6 C2 1_555 1_555
H7 C6 1_555 1_555
H8 C6 1_555 1_555
H9 C6 1_555 1_555
C7 Si1 1_555 1_555
C8 C7 1_555 1_555
H10 C8 1_555 1_555
C9 C8 1_555 1_555
H11 C9 1_555 1_555
C10 C9 1_555 1_555
H12 C10 1_555 1_555
C11 C10 1_555 1_555
H13 C11 1_555 1_555
C12 C7 1_555 1_555
H14 C12 1_555 1_555
C13 Si1 1_555 1_555
C14 C13 1_555 1_555
H15 C14 1_555 1_555
C15 C14 1_555 1_555
H16 C15 1_555 1_555
C16 C15 1_555 1_555
H17 C16 1_555 1_555
C17 C16 1_555 1_555
H18 C17 1_555 1_555
C18 C13 1_555 1_555
H19 C18 1_555 1_555
C19 C4 1_555 1_555
H20 C19 1_555 1_555
H21 C19 1_555 1_555
C20 C19 1_555 1_555
C21 C20 1_555 1_555
H22 C21 1_555 1_555
C22 C21 1_555 1_555
H23 C22 1_555 1_555
C23 C22 1_555 1_555
H24 C23 1_555 1_555
C24 C23 1_555 1_555
H25 C24 1_555 1_555
C25 C20 1_555 1_555
H26 C25 1_555 1_555
C26 C27 1_555 1_555
C27 H27 1_555 1_555
C28 C27 1_555 1_555
H28 C28 1_555 1_555
C29 C28 1_555 1_555
H29 C29 1_555 1_555
C30 C29 1_555 1_555
H30 C30 1_555 1_555
C31 C26 1_555 1_555
H31 C31 1_555 1_555
N1 C4 1_555 1_555
H32 N1 1_555 1_555
O1 C1 1_555 1_555
O2 C5 1_555 1_555
Si2 C34 1_555 1_555
C32 H33 1_555 1_555
H34 C32 1_555 1_555
C33 C32 1_555 1_555
H35 C33 1_555 1_555
C34 C33 1_555 1_555
H36 C34 1_555 1_555
H37 C34 1_555 1_555
C35 Si2 1_555 1_555
H38 C35 1_555 1_555
C36 C57 1_555 1_555
C37 C33 1_555 1_555
H39 C37 1_555 1_555
H40 C37 1_555 1_555
H41 C37 1_555 1_555
C38 Si2 1_555 1_555
C39 C38 1_555 1_555
H42 C39 1_555 1_555
C40 C39 1_555 1_555
H43 C40 1_555 1_555
C41 C40 1_555 1_555
H44 C41 1_555 1_555
C42 C41 1_555 1_555
H45 C42 1_555 1_555
C43 C38 1_555 1_555
H46 C43 1_555 1_555
C44 Si2 1_555 1_555
C45 C44 1_555 1_555
H47 C45 1_555 1_555
C46 C45 1_555 1_555
H48 C46 1_555 1_555
C47 C46 1_555 1_555
H49 C47 1_555 1_555
C48 C47 1_555 1_555
H50 C48 1_555 1_555
C49 C44 1_555 1_555
H51 C49 1_555 1_555
C50 C35 1_555 1_555
H52 C50 1_555 1_555
H53 C50 1_555 1_555
C51 C50 1_555 1_555
C52 C51 1_555 1_555
H54 C52 1_555 1_555
C53 C52 1_555 1_555
H55 C53 1_555 1_555
C54 C53 1_555 1_555
H56 C54 1_555 1_555
C55 C54 1_555 1_555
H57 C55 1_555 1_555
C56 C51 1_555 1_555
H58 C56 1_555 1_555
C57 C58 1_555 1_555
C58 H59 1_555 1_555
C59 C58 1_555 1_555
H60 C59 1_555 1_555
C60 C59 1_555 1_555
H61 C60 1_555 1_555
C61 C60 1_555 1_555
H62 C61 1_555 1_555
C62 C57 1_555 1_555
H63 C62 1_555 1_555
N2 C35 1_555 1_555
H64 N2 1_555 1_555
O3 C32 1_555 1_555
O4 C36 1_555 1_555
H65 O1 1_555 1_555
H66 O3 1_555 1_555
C5 N1 1_555 1_555
C11 C12 1_555 1_555
C17 C18 1_555 1_555
C24 C25 1_555 1_555
C30 C31 1_555 1_555
C36 N2 1_555 1_555
C42 C43 1_555 1_555
C48 C49 1_555 1_555
C55 C56 1_555 1_555
C61 C62 1_555 1_555

#END
