
#######################################################################
#
#                 Cambridge Crystallographic Data Centre
#                                CCDC 
#
#######################################################################
#
# If this CIF has been generated from an entry in the Cambridge 
# Structural Database, then it will include bibliographic, chemical, 
# crystal, experimental, refinement or atomic coordinate data resulting 
# from the CCDC's data processing and validation procedures.
#
#######################################################################

data_RASSUC
_chemical_compound_source        
'isolated from the roots of Peucedanum japonicum Thunb'
_chemical_name_common            
(3'S,4'S)-3'-O-acetyl-4'-O-senecioylkhellactone
_chemical_formula_moiety         'C21 H22 O7'
_chemical_name_systematic        
'9-acetoxy-8,8-dimethyl-2-oxo-9,10-dihydro-2H,8H-pyrano[2,3-f]chromen-10-yl 3-methylbut-2-enoate'
_symmetry_cell_setting           monoclinic
_symmetry_space_group_name_H-M   'P 21'
_symmetry_Int_Tables_number      4
_space_group_name_Hall           'P 2yb'
loop_
_symmetry_equiv_pos_site_id
_symmetry_equiv_pos_as_xyz
1 x,y,z
2 -x,1/2+y,-z
_cell_length_a                   9.68785(12)
_cell_length_b                   6.62844(9)
_cell_length_c                   15.2024(2)
_cell_angle_alpha                90
_cell_angle_beta                 103.8888(13)
_cell_angle_gamma                90
_cell_volume                     947.686
_exptl_crystal_colour            'light colorless'
_exptl_crystal_description       block
_cell_formula_units_Z            2
_exptl_crystal_recrystallization_method 'Re-crystallisation from solvent'
loop_
_atom_site_label
_atom_site_type_symbol
_atom_site_fract_x
_atom_site_fract_y
_atom_site_fract_z
O1 O 0.68710(11) 0.48612(18) 0.75977(7)
O2 O 0.69241(11) 0.69633(18) 0.58590(7)
O3 O 0.32677(11) 0.7049(2) 0.74682(7)
O4 O 0.66575(12) 0.6859(2) 0.91679(7)
O5 O 0.90944(12) 0.6058(2) 0.81497(9)
O6 O 0.86906(12) 0.6960(2) 0.51671(8)
O7 O 0.77017(14) 0.9911(2) 0.92152(8)
C1 C 0.54944(15) 0.6992(3) 0.58353(10)
C2 C 0.51515(15) 0.6986(3) 0.66729(10)
C3 C 0.83134(16) 0.4676(3) 0.78408(10)
C4 C 0.44703(16) 0.7027(3) 0.50170(10)
C5 C 0.37154(16) 0.7005(3) 0.66833(10)
C6 C 0.49508(17) 0.7013(3) 0.41927(10)
H1 H 0.4289 0.7032 0.3637
C7 C 0.30322(16) 0.7065(3) 0.50575(10)
H2 H 0.2325 0.7091 0.4522
C8 C 0.74192(16) 0.6967(3) 0.50701(10)
C9 C 0.26537(16) 0.7064(3) 0.58731(11)
H3 H 0.1700 0.7103 0.5888
C10 C 0.56798(16) 0.7420(3) 0.83354(10)
H4 H 0.5539 0.8884 0.8341
C11 C 0.63471(17) 0.6972(3) 0.42176(10)
H5 H 0.6634 0.6947 0.3676
C12 C 0.97299(16) 0.2215(3) 0.72117(11)
C13 C 0.62991(16) 0.6902(3) 0.75350(10)
H6 H 0.7051 0.7868 0.7502
C14 C 0.76837(18) 0.8243(3) 0.95199(11)
C15 C 0.42519(18) 0.6396(3) 0.83068(11)
C16 C 0.87380(17) 0.2610(3) 0.76648(11)
H7 H 0.8296 0.1534 0.7879
C17 C 0.43284(19) 0.4097(3) 0.83298(12)
H8 H 0.3437 0.3559 0.8393
H9 H 0.5074 0.3674 0.8834
H10 H 0.4522 0.3612 0.7777
C18 C 1.04760(19) 0.3802(3) 0.67989(13)
H11 H 1.0057 0.5094 0.6854
H12 H 1.0386 0.3500 0.6170
H13 H 1.1464 0.3830 0.7108
C19 C 1.0142(2) 0.0089(3) 0.70555(14)
H14 H 0.9648 -0.0825 0.7363
H15 H 1.1149 -0.0073 0.7286
H16 H 0.9893 -0.0196 0.6418
C20 C 0.8750(2) 0.7402(3) 1.03116(12)
H17 H 0.8310 0.6379 1.0599
H18 H 0.9098 0.8462 1.0737
H19 H 0.9527 0.6824 1.0108
C21 C 0.36011(19) 0.7212(4) 0.90522(12)
H20 H 0.3655 0.8658 0.9060
H21 H 0.4114 0.6691 0.9627
H22 H 0.2624 0.6801 0.8940
loop_
_geom_bond_atom_site_label_1
_geom_bond_atom_site_label_2
_geom_bond_site_symmetry_1
_geom_bond_site_symmetry_2
O1 C3 1_555 1_555
O2 C1 1_555 1_555
O3 C5 1_555 1_555
O4 C10 1_555 1_555
O5 C3 1_555 1_555
O6 C8 1_555 1_555
O7 C14 1_555 1_555
C1 C2 1_555 1_555
C2 C5 1_555 1_555
C3 C16 1_555 1_555
C4 C1 1_555 1_555
C5 C9 1_555 1_555
C6 C4 1_555 1_555
H1 C6 1_555 1_555
C7 C4 1_555 1_555
H2 C7 1_555 1_555
C8 O2 1_555 1_555
C9 C7 1_555 1_555
H3 C9 1_555 1_555
C10 H4 1_555 1_555
C11 C6 1_555 1_555
H5 C11 1_555 1_555
C12 C16 1_555 1_555
C13 O1 1_555 1_555
H6 C13 1_555 1_555
C14 O4 1_555 1_555
C15 O3 1_555 1_555
C16 H7 1_555 1_555
C17 C15 1_555 1_555
H8 C17 1_555 1_555
H9 C17 1_555 1_555
H10 C17 1_555 1_555
C18 C12 1_555 1_555
H11 C18 1_555 1_555
H12 C18 1_555 1_555
H13 C18 1_555 1_555
C19 C12 1_555 1_555
H14 C19 1_555 1_555
H15 C19 1_555 1_555
H16 C19 1_555 1_555
C20 C14 1_555 1_555
H17 C20 1_555 1_555
H18 C20 1_555 1_555
H19 C20 1_555 1_555
C21 C15 1_555 1_555
H20 C21 1_555 1_555
H21 C21 1_555 1_555
H22 C21 1_555 1_555
C2 C13 1_555 1_555
C8 C11 1_555 1_555
C10 C13 1_555 1_555
C10 C15 1_555 1_555

#END
