
#######################################################################
#
#                 Cambridge Crystallographic Data Centre
#                                CCDC 
#
#######################################################################
#
# If this CIF has been generated from an entry in the Cambridge 
# Structural Database, then it will include bibliographic, chemical, 
# crystal, experimental, refinement or atomic coordinate data resulting 
# from the CCDC's data processing and validation procedures.
#
#######################################################################

data_RASYIT
_chemical_formula_moiety         'C8 H9 Br2 N1 O2'
_chemical_name_systematic        N-(n-Butyl)-3,4-dibromomaleimide
_symmetry_cell_setting           monoclinic
_symmetry_space_group_name_H-M   'P 21/c'
_symmetry_Int_Tables_number      14
_space_group_name_Hall           '-P 2ybc'
loop_
_symmetry_equiv_pos_site_id
_symmetry_equiv_pos_as_xyz
1 x,y,z
2 -x,1/2+y,1/2-z
3 -x,-y,-z
4 x,1/2-y,1/2+z
_cell_length_a                   7.405(2)
_cell_length_b                   18.481(2)
_cell_length_c                   8.1246(9)
_cell_angle_alpha                90
_cell_angle_beta                 111.14(1)
_cell_angle_gamma                90
_cell_volume                     1037.04
_exptl_crystal_colour            colorless
_cell_formula_units_Z            4
loop_
_atom_site_label
_atom_site_type_symbol
_atom_site_fract_x
_atom_site_fract_y
_atom_site_fract_z
Br1 Br 0.7358(1) 1.10605(4) 0.5192(1)
Br2 Br 0.7413(1) 0.96957(4) 0.19415(8)
O1 O 0.7526(7) 0.9974(3) 0.8377(6)
O2 O 0.7650(7) 0.8259(3) 0.4396(6)
N1 N 0.7736(7) 0.8970(3) 0.6774(6)
C1 C 0.7592(8) 0.9700(3) 0.7062(8)
C2 C 0.7478(8) 1.0064(3) 0.5378(8)
C3 C 0.7515(8) 0.9581(3) 0.4220(7)
C4 C 0.7648(8) 0.8841(4) 0.5067(8)
C5 C 0.7843(9) 0.8411(4) 0.8086(9)
H1 H 0.7521(9) 0.7947(4) 0.7498(9)
H2 H 0.6889(9) 0.8515(4) 0.8617(9)
C6 C 0.9819(9) 0.8364(4) 0.9521(8)
H3 H 1.0215(9) 0.8844(4) 0.9998(8)
H4 H 0.9736(9) 0.8063(4) 1.0469(8)
C7 C 1.1319(10) 0.8062(4) 0.8896(10)
H5 H 1.1387(10) 0.8360(4) 0.7937(10)
H6 H 1.0928(10) 0.7580(4) 0.8431(10)
C8 C 1.3304(11) 0.8021(4) 1.0309(11)
H7 H 1.4199(11) 0.7822(4) 0.9821(11)
H8 H 1.3260(11) 0.7716(4) 1.1251(11)
H9 H 1.3718(11) 0.8497(4) 1.0757(11)
loop_
_geom_bond_atom_site_label_1
_geom_bond_atom_site_label_2
_geom_bond_site_symmetry_1
_geom_bond_site_symmetry_2
Br1 C2 1_555 1_555
Br2 C3 1_555 1_555
O1 C1 1_555 1_555
O2 C4 1_555 1_555
N1 C1 1_555 1_555
C1 C2 1_555 1_555
C2 C3 1_555 1_555
C3 C4 1_555 1_555
C4 N1 1_555 1_555
C5 N1 1_555 1_555
H1 C5 1_555 1_555
H2 C5 1_555 1_555
C6 C5 1_555 1_555
H3 C6 1_555 1_555
H4 C6 1_555 1_555
C7 C6 1_555 1_555
H5 C7 1_555 1_555
H6 C7 1_555 1_555
C8 C7 1_555 1_555
H7 C8 1_555 1_555
H8 C8 1_555 1_555
H9 C8 1_555 1_555

#END
