
#######################################################################
#
#                 Cambridge Crystallographic Data Centre
#                                CCDC 
#
#######################################################################
#
# If this CIF has been generated from an entry in the Cambridge 
# Structural Database, then it will include bibliographic, chemical, 
# crystal, experimental, refinement or atomic coordinate data resulting 
# from the CCDC's data processing and validation procedures.
#
#######################################################################

data_RATPIL
_chemical_formula_moiety         'C19 H31 I1 O3 Si1'
_chemical_name_systematic        
(1R,2S,6R,8R,10R,11S)-5-((E)-1-Iodo-1-(trimethylsilyl)methylidene)-11-isopropyl-10-methoxy-6-methyl-9-oxatricyclo(6.2.1.0^2,6^)undecan-7-one
_symmetry_cell_setting           orthorhombic
_symmetry_space_group_name_H-M   'P 21 21 2'
_symmetry_Int_Tables_number      18
_space_group_name_Hall           'P 2 2ab'
loop_
_symmetry_equiv_pos_site_id
_symmetry_equiv_pos_as_xyz
1 x,y,z
2 -x,-y,z
3 1/2+x,1/2-y,-z
4 1/2-x,1/2+y,-z
_cell_length_a                   16.377(2)
_cell_length_b                   29.029(2)
_cell_length_c                   8.932(2)
_cell_angle_alpha                90
_cell_angle_beta                 90
_cell_angle_gamma                90
_cell_volume                     4246.34
_exptl_crystal_colour            colorless
_chemical_melting_point          128.0-129.0deg.C
_cell_formula_units_Z            8
loop_
_atom_site_label
_atom_site_type_symbol
_atom_site_fract_x
_atom_site_fract_y
_atom_site_fract_z
I1 I 0.84396(3) 0.77553(2) 0.22878(5)
Si1 Si 0.88580(10) 0.67827(6) 0.41565(22)
O1 O 0.90324(23) 0.77251(14) 0.75193(53)
O2 O 0.89717(34) 0.84528(16) 0.86517(71)
O3 O 1.03451(32) 0.68122(15) 0.70117(59)
C1 C 0.93194(39) 0.81934(20) 0.74985(75)
C2 C 0.80899(53) 0.84514(31) 0.8620(12)
C3 C 1.02193(38) 0.81622(22) 0.77615(76)
C4 C 1.02364(36) 0.77756(22) 0.89619(64)
C5 C 1.10609(48) 0.75804(34) 0.95317(88)
C6 C 1.15617(51) 0.79609(44) 1.0261(10)
C7 C 1.09128(50) 0.71714(39) 1.0572(10)
C8 C 0.96575(36) 0.74423(20) 0.81747(71)
C9 C 1.01376(35) 0.72190(19) 0.69039(63)
C10 C 1.04392(31) 0.75408(18) 0.56503(66)
C11 C 1.11702(37) 0.73200(24) 0.48227(86)
C12 C 0.97888(33) 0.76726(17) 0.44628(63)
C13 C 0.99903(49) 0.81698(21) 0.40384(78)
C14 C 1.06450(44) 0.83455(22) 0.50235(81)
C15 C 1.06946(39) 0.80166(22) 0.63436(73)
C16 C 0.92154(32) 0.74076(18) 0.38826(61)
C17 C 0.82738(50) 0.67416(24) 0.5947(10)
C18 C 0.97069(45) 0.63622(23) 0.39806(93)
C19 C 0.81498(50) 0.66076(26) 0.2659(12)
H1 H 0.91925(41) 0.83342(22) 0.65608(72)
H2 H 0.78493(41) 0.86274(22) 0.94478(72)
H3 H 0.78725(41) 0.85785(22) 0.77004(72)
H4 H 0.78589(41) 0.81372(22) 0.87120(72)
H5 H 1.04647(41) 0.84953(22) 0.78700(72)
H6 H 0.98747(41) 0.78272(22) 0.98440(72)
H7 H 1.11947(41) 0.81023(22) 1.10640(72)
H8 H 1.15487(41) 0.74613(22) 0.87030(72)
H9 H 1.20657(41) 0.78913(22) 1.04700(72)
H10 H 1.14087(41) 0.82473(22) 0.95210(72)
H11 H 1.14267(41) 0.71913(22) 1.08240(72)
H12 H 1.06127(41) 0.69993(22) 1.01210(72)
H13 H 1.03967(41) 0.72183(22) 1.15160(72)
H14 H 0.93517(41) 0.72003(22) 0.87050(72)
H15 H 1.16157(41) 0.71843(22) 0.55260(72)
H16 H 1.10647(41) 0.70143(22) 0.40030(72)
H17 H 1.15897(41) 0.75033(22) 0.42670(72)
H18 H 0.94657(41) 0.83133(22) 0.42790(72)
H19 H 1.00067(41) 0.82003(22) 0.32000(72)
H20 H 1.11897(41) 0.84193(22) 0.46670(72)
H21 H 1.04437(41) 0.87163(22) 0.52440(72)
H22 H 1.13057(41) 0.79653(22) 0.66780(72)
H23 H 0.78327(41) 0.64743(22) 0.61380(72)
H24 H 0.80297(41) 0.70373(22) 0.64110(72)
H25 H 0.86965(41) 0.66581(22) 0.66698(72)
H26 H 1.01467(41) 0.63703(22) 0.47590(72)
H27 H 0.93657(41) 0.59983(22) 0.42060(72)
H28 H 0.99987(41) 0.63883(22) 0.31490(72)
H29 H 0.80201(41) 0.62765(22) 0.26249(72)
H30 H 0.84717(41) 0.66953(22) 0.18800(72)
H31 H 0.76187(41) 0.67993(22) 0.25530(72)
I2 I 1.13953(3) 0.56645(1) 1.03549(5)
Si2 Si 1.14721(10) 0.45979(5) 0.88953(17)
O4 O 1.35746(25) 0.51332(14) 0.70429(46)
O5 O 1.45790(25) 0.56886(15) 0.65424(53)
O6 O 1.21381(24) 0.44527(13) 0.52000(56)
C20 C 1.37365(33) 0.55943(20) 0.65348(72)
C21 C 1.48985(42) 0.57285(25) 0.80206(87)
C22 C 1.34326(34) 0.56044(18) 0.49042(66)
C23 C 1.36928(33) 0.51130(20) 0.44083(72)
C24 C 1.34329(35) 0.49458(21) 0.28671(73)
C25 C 1.37636(43) 0.52557(29) 0.16188(90)
C26 C 1.37021(45) 0.44512(26) 0.26414(93)
C27 C 1.33831(33) 0.48539(18) 0.57591(70)
C28 C 1.24501(31) 0.48194(17) 0.55624(64)
C29 C 1.19744(32) 0.52737(18) 0.56075(62)
C30 C 1.11491(34) 0.52199(21) 0.48338(70)
C31 C 1.18285(30) 0.54693(17) 0.71939(67)
C32 C 1.18762(38) 0.59918(19) 0.70594(76)
C33 C 1.21714(39) 0.61004(19) 0.54965(80)
C34 C 1.25056(34) 0.56539(18) 0.47982(66)
C35 C 1.16354(32) 0.52322(18) 0.84100(63)
C36 C 1.24409(39) 0.42771(23) 0.87894(84)
C37 C 1.06607(35) 0.43447(21) 0.76614(80)
C38 C 1.10644(41) 0.45224(22) 1.08536(72)
H32 H 1.34227(41) 0.58033(22) 0.74460(72)
H33 H 1.54947(41) 0.58232(22) 0.80100(72)
H34 H 1.48285(41) 0.54356(22) 0.85531(72)
H35 H 1.45721(41) 0.59513(22) 0.85929(72)
H36 H 1.36257(41) 0.58833(22) 0.43470(72)
H37 H 1.43647(41) 0.51063(22) 0.44750(72)
H38 H 1.28447(41) 0.49792(22) 0.28550(72)
H39 H 1.43087(41) 0.52632(22) 0.15590(72)
H40 H 1.36887(41) 0.51373(22) 0.03570(72)
H41 H 1.35405(41) 0.55634(22) 0.17472(72)
H42 H 1.36627(41) 0.44335(22) 0.15780(72)
H43 H 1.32568(41) 0.41514(22) 0.29838(72)
H44 H 1.41697(41) 0.43942(22) 0.27650(72)
H45 H 1.35817(41) 0.45332(22) 0.57580(72)
H46 H 1.07517(41) 0.50713(22) 0.55110(72)
H47 H 1.08597(41) 0.54883(22) 0.48410(72)
H48 H 1.13667(41) 0.51272(22) 0.36560(72)
H49 H 1.13557(41) 0.61613(22) 0.73220(72)
H50 H 1.23337(41) 0.60733(22) 0.79220(72)
H51 H 1.24047(41) 0.64673(22) 0.55610(72)
H52 H 1.16347(41) 0.62262(22) 0.47620(72)
H53 H 1.23397(41) 0.56043(22) 0.37130(72)
H54 H 1.24007(41) 0.38723(22) 0.89360(72)
H55 H 1.25627(41) 0.41562(22) 0.75970(72)
H56 H 1.08797(41) 0.43442(22) 0.67210(72)
H57 H 1.05457(41) 0.41192(22) 0.79720(72)
H58 H 1.28769(41) 0.44212(22) 0.93058(72)
H59 H 1.01720(41) 0.45408(22) 0.76781(72)
H60 H 1.06818(41) 0.47728(22) 1.08832(72)
H61 H 1.14387(41) 0.46272(22) 1.15800(72)
H62 H 1.07487(41) 0.43052(22) 1.10650(72)
loop_
_geom_bond_atom_site_label_1
_geom_bond_atom_site_label_2
_geom_bond_site_symmetry_1
_geom_bond_site_symmetry_2
I1 C16 1_555 1_555
I2 C35 1_555 1_555
Si1 C16 1_555 1_555
Si2 C35 1_555 1_555
O1 C1 1_555 1_555
O2 C1 1_555 1_555
O3 C9 1_555 1_555
O4 C20 1_555 1_555
O5 C20 1_555 1_555
O6 C28 1_555 1_555
C1 C3 1_555 1_555
C2 O2 1_555 1_555
C3 C4 1_555 1_555
C4 C5 1_555 1_555
C5 C6 1_555 1_555
C6 H7 1_555 1_555
C7 C5 1_555 1_555
C8 O1 1_555 1_555
C9 C8 1_555 1_555
C10 C9 1_555 1_555
C11 C10 1_555 1_555
C12 C10 1_555 1_555
C13 C12 1_555 1_555
C14 C13 1_555 1_555
C15 C3 1_555 1_555
C16 C12 1_555 1_555
C17 Si1 1_555 1_555
C18 Si1 1_555 1_555
C19 Si1 1_555 1_555
C20 C22 1_555 1_555
C21 O5 1_555 1_555
C22 C23 1_555 1_555
C23 C24 1_555 1_555
C24 C25 1_555 1_555
C25 H39 1_555 1_555
C26 C24 1_555 1_555
C27 O4 1_555 1_555
C28 C27 1_555 1_555
C29 C28 1_555 1_555
C30 C29 1_555 1_555
C31 C29 1_555 1_555
C32 C31 1_555 1_555
C33 C32 1_555 1_555
C34 C22 1_555 1_555
C35 C31 1_555 1_555
C36 Si2 1_555 1_555
C37 Si2 1_555 1_555
C38 Si2 1_555 1_555
H1 C1 1_555 1_555
H2 C2 1_555 1_555
H3 C2 1_555 1_555
H4 C2 1_555 1_555
H5 C3 1_555 1_555
H6 C4 1_555 1_555
H8 C5 1_555 1_555
H9 C6 1_555 1_555
H10 C6 1_555 1_555
H11 C7 1_555 1_555
H12 C7 1_555 1_555
H13 C7 1_555 1_555
H14 C8 1_555 1_555
H15 C11 1_555 1_555
H16 C11 1_555 1_555
H17 C11 1_555 1_555
H18 C13 1_555 1_555
H19 C13 1_555 1_555
H20 C14 1_555 1_555
H21 C14 1_555 1_555
H22 C15 1_555 1_555
H23 C17 1_555 1_555
H24 C17 1_555 1_555
H25 C17 1_555 1_555
H26 C18 1_555 1_555
H27 C18 1_555 1_555
H28 C18 1_555 1_555
H29 C19 1_555 1_555
H30 C19 1_555 1_555
H31 C19 1_555 1_555
H32 C20 1_555 1_555
H33 C21 1_555 1_555
H34 C21 1_555 1_555
H35 C21 1_555 1_555
H36 C22 1_555 1_555
H37 C23 1_555 1_555
H38 C24 1_555 1_555
H40 C25 1_555 1_555
H41 C25 1_555 1_555
H42 C26 1_555 1_555
H43 C26 1_555 1_555
H44 C26 1_555 1_555
H45 C27 1_555 1_555
H46 C30 1_555 1_555
H47 C30 1_555 1_555
H48 C30 1_555 1_555
H49 C32 1_555 1_555
H50 C32 1_555 1_555
H51 C33 1_555 1_555
H52 C33 1_555 1_555
H53 C34 1_555 1_555
H54 C36 1_555 1_555
H55 C36 1_555 1_555
H56 C37 1_555 1_555
H57 C37 1_555 1_555
H58 C36 1_555 1_555
H59 C37 1_555 1_555
H60 C38 1_555 1_555
H61 C38 1_555 1_555
H62 C38 1_555 1_555
C4 C8 1_555 1_555
C10 C15 1_555 1_555
C14 C15 1_555 1_555
C23 C27 1_555 1_555
C29 C34 1_555 1_555
C33 C34 1_555 1_555

#END
