
#######################################################################
#
#                 Cambridge Crystallographic Data Centre
#                                CCDC 
#
#######################################################################
#
# If this CIF has been generated from an entry in the Cambridge 
# Structural Database, then it will include bibliographic, chemical, 
# crystal, experimental, refinement or atomic coordinate data resulting 
# from the CCDC's data processing and validation procedures.
#
#######################################################################

data_RATSUD
_chemical_formula_moiety         'C34 H34 O6'
_chemical_name_systematic        
'diisopropyl 11-formyl-12-hydroxy-2-methyl-9-(4-methylphenyl)-9,10-secogona-1(10),2,4,8(14),9,12-hexaen-6-yne-16,16-dicarboxylate'
_symmetry_cell_setting           monoclinic
_symmetry_space_group_name_H-M   'P 21/n'
_symmetry_Int_Tables_number      14
_space_group_name_Hall           '-P 2yn'
loop_
_symmetry_equiv_pos_site_id
_symmetry_equiv_pos_as_xyz
1 x,y,z
2 1/2-x,1/2+y,1/2-z
3 -x,-y,-z
4 1/2+x,1/2-y,1/2+z
_cell_length_a                   8.8837(7)
_cell_length_b                   13.8392(10)
_cell_length_c                   24.3793(18)
_cell_angle_alpha                90
_cell_angle_beta                 92.3040(10)
_cell_angle_gamma                90
_cell_volume                     2994.85
_exptl_crystal_colour            colorless
_exptl_crystal_description       block
_cell_formula_units_Z            4
loop_
_atom_site_label
_atom_site_type_symbol
_atom_site_fract_x
_atom_site_fract_y
_atom_site_fract_z
C1 C 0.7730(2) 0.64821(14) 0.13373(8)
O1 O 1.01151(18) 0.60632(14) 0.09736(7)
C2 C 0.7355(2) 0.70754(14) 0.08088(8)
H1 H 0.7264 0.7757 0.0894
H2 H 0.8132 0.6993 0.0544
O2 O 0.97143(16) 0.57755(12) 0.18474(6)
C3 C 0.58824(19) 0.66771(13) 0.05896(7)
O3 O 0.6584(2) 0.69756(14) 0.21751(7)
C4 C 0.4967(2) 0.70601(13) 0.01637(7)
O4 O 0.84756(17) 0.78282(11) 0.18534(6)
C5 C 0.36186(19) 0.65779(13) 0.00163(7)
O5 O 0.16654(16) 0.43414(11) 0.03015(6)
C6 C 0.32774(19) 0.56995(13) 0.02797(7)
O6 O 0.39369(15) 0.45072(9) 0.09730(6)
H3 H 0.3196 0.4245 0.0827
C7 C 0.4227(2) 0.53382(13) 0.07059(7)
C8 C 0.5510(2) 0.58470(13) 0.08666(7)
C9 C 0.6634(2) 0.56028(15) 0.13179(8)
H4 H 0.7165 0.5011 0.1237
H5 H 0.6146 0.5528 0.1664
C10 C 0.9327(2) 0.61021(15) 0.13565(9)
C11 C 1.1166(3) 0.52815(19) 0.19269(10)
H6 H 1.1817 0.5466 0.1629
C12 C 1.0895(4) 0.4246(2) 0.18986(17)
H7 H 1.0329 0.4050 0.2207
H8 H 1.1841 0.3910 0.1906
H9 H 1.0336 0.4096 0.1564
C13 C 1.1850(4) 0.5631(3) 0.24510(15)
H10 H 1.1192 0.5488 0.2743
H11 H 1.2002 0.6317 0.2431
H12 H 1.2802 0.5317 0.2521
C14 C 0.7504(2) 0.71005(16) 0.18413(9)
C15 C 0.8490(3) 0.85132(19) 0.23119(10)
H13 H 0.7533 0.8477 0.2497
C16 C 0.9743(4) 0.8240(3) 0.26988(12)
H14 H 0.9624 0.7579 0.2809
H15 H 0.9734 0.8650 0.3016
H16 H 1.0683 0.8314 0.2523
C17 C 0.8652(5) 0.9494(2) 0.20562(15)
H17 H 0.9560 0.9514 0.1856
H18 H 0.8697 0.9977 0.2339
H19 H 0.7802 0.9617 0.1811
C18 C 0.5399(2) 0.79410(14) -0.00916(8)
C19 C 0.5781(2) 0.86758(15) -0.02963(8)
C20 C 0.6159(2) 0.95556(14) -0.05713(9)
C21 C 0.5160(3) 0.99581(17) -0.09522(10)
H20 H 0.4237 0.9660 -0.1028
C22 C 0.5511(3) 1.07975(19) -0.12230(11)
H21 H 0.4817 1.1053 -0.1480
C23 C 0.6848(4) 1.12649(17) -0.11251(12)
C24 C 0.7832(3) 1.08676(19) -0.07445(13)
H22 H 0.8753 1.1170 -0.0671
C25 C 0.7502(3) 1.00281(17) -0.04634(11)
H23 H 0.8190 0.9783 -0.0201
C26 C 0.7223(4) 1.21902(18) -0.14179(14)
H24 H 0.6976 1.2732 -0.1193
H25 H 0.6652 1.2224 -0.1760
H26 H 0.8279 1.2203 -0.1487
C27 C 0.2529(2) 0.70205(13) -0.03891(8)
C28 C 0.2922(2) 0.72579(16) -0.09177(8)
H27 H 0.3888 0.7127 -0.1030
C29 C 0.1885(3) 0.76872(16) -0.12771(9)
H28 H 0.2169 0.7841 -0.1629
C30 C 0.0437(2) 0.78939(15) -0.11279(9)
C31 C 0.0053(2) 0.76558(16) -0.06056(9)
H29 H -0.0915 0.7787 -0.0495
C32 C 0.1077(2) 0.72259(14) -0.02418(9)
H30 H 0.0784 0.7071 0.0109
C33 C -0.0690(3) 0.8338(2) -0.15290(11)
H31 H -0.1657 0.8042 -0.1488
H32 H -0.0372 0.8236 -0.1896
H33 H -0.0762 0.9019 -0.1459
C34 C 0.1999(2) 0.51109(15) 0.00933(9)
H34 H 0.1401 0.5334 -0.0202
loop_
_geom_bond_atom_site_label_1
_geom_bond_atom_site_label_2
_geom_bond_site_symmetry_1
_geom_bond_site_symmetry_2
C1 C2 1_555 1_555
O1 C10 1_555 1_555
C2 H1 1_555 1_555
H2 C2 1_555 1_555
O2 C10 1_555 1_555
C3 C2 1_555 1_555
O3 C14 1_555 1_555
C4 C3 1_555 1_555
O4 C14 1_555 1_555
C5 C4 1_555 1_555
O5 C34 1_555 1_555
C6 C5 1_555 1_555
O6 H3 1_555 1_555
C7 C6 1_555 1_555
C8 C3 1_555 1_555
C9 C1 1_555 1_555
H4 C9 1_555 1_555
H5 C9 1_555 1_555
C10 C1 1_555 1_555
C11 O2 1_555 1_555
H6 C11 1_555 1_555
C12 C11 1_555 1_555
H7 C12 1_555 1_555
H8 C12 1_555 1_555
H9 C12 1_555 1_555
C13 C11 1_555 1_555
H10 C13 1_555 1_555
H11 C13 1_555 1_555
H12 C13 1_555 1_555
C14 C1 1_555 1_555
C15 O4 1_555 1_555
H13 C15 1_555 1_555
C16 C15 1_555 1_555
H14 C16 1_555 1_555
H15 C16 1_555 1_555
H16 C16 1_555 1_555
C17 C15 1_555 1_555
H17 C17 1_555 1_555
H18 C17 1_555 1_555
H19 C17 1_555 1_555
C18 C4 1_555 1_555
C19 C18 1_555 1_555
C20 C19 1_555 1_555
C21 C20 1_555 1_555
H20 C21 1_555 1_555
C22 C21 1_555 1_555
H21 C22 1_555 1_555
C23 C22 1_555 1_555
C24 C23 1_555 1_555
H22 C24 1_555 1_555
C25 C20 1_555 1_555
H23 C25 1_555 1_555
C26 C23 1_555 1_555
H24 C26 1_555 1_555
H25 C26 1_555 1_555
H26 C26 1_555 1_555
C27 C5 1_555 1_555
C28 C27 1_555 1_555
H27 C28 1_555 1_555
C29 C28 1_555 1_555
H28 C29 1_555 1_555
C30 C29 1_555 1_555
C31 C30 1_555 1_555
H29 C31 1_555 1_555
C32 C27 1_555 1_555
H30 C32 1_555 1_555
C33 C30 1_555 1_555
H31 C33 1_555 1_555
H32 C33 1_555 1_555
H33 C33 1_555 1_555
C34 C6 1_555 1_555
H34 C34 1_555 1_555
O6 C7 1_555 1_555
C7 C8 1_555 1_555
C8 C9 1_555 1_555
C24 C25 1_555 1_555
C31 C32 1_555 1_555

#END
