
#######################################################################
#
#                 Cambridge Crystallographic Data Centre
#                                CCDC 
#
#######################################################################
#
# If this CIF has been generated from an entry in the Cambridge 
# Structural Database, then it will include bibliographic, chemical, 
# crystal, experimental, refinement or atomic coordinate data resulting 
# from the CCDC's data processing and validation procedures.
#
#######################################################################

data_RATTEO
_chemical_formula_moiety         'C33 H32 O6'
_chemical_name_systematic        
'diisopropyl 11-acetyl-12-hydroxy-9-phenyl-9,10-secogona-1(10),2,4,8(14),9,12-hexaen-6-yne-16,16-dicarboxylate'
_symmetry_cell_setting           triclinic
_symmetry_space_group_name_H-M   'P -1'
_symmetry_Int_Tables_number      2
_space_group_name_Hall           '-P 1'
loop_
_symmetry_equiv_pos_site_id
_symmetry_equiv_pos_as_xyz
1 x,y,z
2 -x,-y,-z
_cell_length_a                   11.2314(11)
_cell_length_b                   11.2600(11)
_cell_length_c                   12.1475(11)
_cell_angle_alpha                100.2950(10)
_cell_angle_beta                 96.1740(10)
_cell_angle_gamma                101.5470(10)
_cell_volume                     1464.46
_exptl_crystal_colour            colorless
_exptl_crystal_description       block
_cell_formula_units_Z            2
loop_
_atom_site_label
_atom_site_type_symbol
_atom_site_fract_x
_atom_site_fract_y
_atom_site_fract_z
C1 C 0.22012(17) 0.72108(18) 0.84231(15)
C2 C 0.12342(19) 0.5975(2) 0.79124(17)
H1 H 0.1294 0.5361 0.8371
H2 H 0.0406 0.6111 0.7854
C3 C 0.15667(16) 0.55746(17) 0.67714(15)
C4 C 0.10547(16) 0.44671(17) 0.60069(16)
C5 C 0.14889(16) 0.42112(17) 0.49638(16)
C6 C 0.24353(15) 0.51113(17) 0.47040(15)
C7 C 0.29244(15) 0.62342(16) 0.54814(15)
C8 C 0.24587(16) 0.64574(17) 0.64985(15)
C9 C 0.27709(18) 0.76180(18) 0.74044(15)
H3 H 0.2415 0.8262 0.7161
H4 H 0.3654 0.7922 0.7598
C10 C 0.32182(18) 0.6990(2) 0.92377(16)
C11 C 0.4895(3) 0.8068(3) 1.0719(3)
H5 H 0.4863 0.7235 1.0866
C12 C 0.6030(3) 0.8518(4) 1.0256(4)
H6 H 0.5994 0.8036 0.9511
H7 H 0.6730 0.8436 1.0739
H8 H 0.6101 0.9373 1.0217
C13 C 0.4765(5) 0.8944(5) 1.1766(3)
H9 H 0.4652 0.9709 1.1575
H10 H 0.5494 0.9101 1.2310
H11 H 0.4067 0.8581 1.2083
C14 C 0.15674(19) 0.8137(2) 0.90418(17)
C15 C 0.0480(3) 0.8459(3) 1.0631(3)
H12 H 0.0382 0.9191 1.0331
C16 C -0.0698(4) 0.7669(7) 1.0612(5)
H13 H -0.0603 0.6842 1.0619
H14 H -0.1232 0.7668 0.9939
H15 H -0.1046 0.7969 1.1265
C17 C 0.1117(5) 0.8819(7) 1.1759(5)
H16 H 0.0598 0.9149 1.2253
H17 H 0.1850 0.9441 1.1787
H18 H 0.1335 0.8112 1.1995
C18 C 0.0923(2) 0.29807(19) 0.42079(18)
C19 C 0.1464(3) 0.2400(2) 0.3244(2)
H19 H 0.0974 0.1584 0.2927
H20 H 0.2286 0.2347 0.3506
H21 H 0.1483 0.2894 0.2676
C20 C 0.29223(17) 0.49693(17) 0.36106(15)
C21 C 0.3983(2) 0.4536(2) 0.34929(19)
H22 H 0.4382 0.4296 0.4099
C22 C 0.4451(2) 0.4459(2) 0.2486(2)
H23 H 0.5163 0.4166 0.2418
C23 C 0.3878(3) 0.4807(3) 0.1585(2)
H24 H 0.4196 0.4749 0.0907
C24 C 0.2825(2) 0.5245(3) 0.1689(2)
H25 H 0.2429 0.5481 0.1079
C25 C 0.23603(19) 0.5332(2) 0.27023(17)
H26 H 0.1657 0.5640 0.2771
C26 C 0.39362(17) 0.71006(17) 0.52449(15)
C27 C 0.48391(18) 0.77345(18) 0.50426(17)
C28 C 0.59611(17) 0.83678(19) 0.47454(17)
C29 C 0.6551(2) 0.7729(2) 0.3970(2)
H27 H 0.6212 0.6901 0.3645
C30 C 0.7636(2) 0.8314(3) 0.3678(3)
H28 H 0.8029 0.7876 0.3165
C31 C 0.8138(2) 0.9540(3) 0.4143(3)
H29 H 0.8868 0.9934 0.3941
C32 C 0.7567(2) 1.0171(3) 0.4894(3)
H30 H 0.7909 1.1003 0.5203
C33 C 0.6486(2) 0.9605(2) 0.5210(2)
H31 H 0.6110 1.0052 0.5734
O1 O 0.34325(16) 0.60099(15) 0.92888(13)
O2 O 0.38712(15) 0.80589(15) 0.98594(15)
O3 O 0.13794(16) 0.90484(16) 0.87483(14)
O4 O 0.11899(18) 0.77452(17) 0.99374(15)
O5 O 0.01567(14) 0.36826(14) 0.63317(14)
H32 H -0.0122 0.3081 0.5814
O6 O -0.00263(16) 0.23618(15) 0.44206(16)
loop_
_geom_bond_atom_site_label_1
_geom_bond_atom_site_label_2
_geom_bond_site_symmetry_1
_geom_bond_site_symmetry_2
C1 C2 1_555 1_555
C2 H1 1_555 1_555
H2 C2 1_555 1_555
C3 C2 1_555 1_555
C4 C3 1_555 1_555
C5 C4 1_555 1_555
C6 C5 1_555 1_555
C7 C6 1_555 1_555
C8 C3 1_555 1_555
C9 C1 1_555 1_555
H3 C9 1_555 1_555
H4 C9 1_555 1_555
C10 C1 1_555 1_555
C11 H5 1_555 1_555
C12 C11 1_555 1_555
H6 C12 1_555 1_555
H7 C12 1_555 1_555
H8 C12 1_555 1_555
C13 C11 1_555 1_555
H9 C13 1_555 1_555
H10 C13 1_555 1_555
H11 C13 1_555 1_555
C14 C1 1_555 1_555
C15 H12 1_555 1_555
C16 C15 1_555 1_555
H13 C16 1_555 1_555
H14 C16 1_555 1_555
H15 C16 1_555 1_555
C17 C15 1_555 1_555
H16 C17 1_555 1_555
H17 C17 1_555 1_555
H18 C17 1_555 1_555
C18 C5 1_555 1_555
C19 C18 1_555 1_555
H19 C19 1_555 1_555
H20 C19 1_555 1_555
H21 C19 1_555 1_555
C20 C6 1_555 1_555
C21 C20 1_555 1_555
H22 C21 1_555 1_555
C22 C21 1_555 1_555
H23 C22 1_555 1_555
C23 C22 1_555 1_555
H24 C23 1_555 1_555
C24 C23 1_555 1_555
H25 C24 1_555 1_555
C25 C20 1_555 1_555
H26 C25 1_555 1_555
C26 C7 1_555 1_555
C27 C26 1_555 1_555
C28 C27 1_555 1_555
C29 C28 1_555 1_555
H27 C29 1_555 1_555
C30 C29 1_555 1_555
H28 C30 1_555 1_555
C31 C30 1_555 1_555
H29 C31 1_555 1_555
C32 C31 1_555 1_555
H30 C32 1_555 1_555
C33 C28 1_555 1_555
H31 C33 1_555 1_555
O1 C10 1_555 1_555
O2 C10 1_555 1_555
O3 C14 1_555 1_555
O4 C14 1_555 1_555
O5 C4 1_555 1_555
H32 O5 1_555 1_555
O6 C18 1_555 1_555
C7 C8 1_555 1_555
C8 C9 1_555 1_555
C11 O2 1_555 1_555
C15 O4 1_555 1_555
C24 C25 1_555 1_555
C32 C33 1_555 1_555

#END
