
#######################################################################
#
#                 Cambridge Crystallographic Data Centre
#                                CCDC 
#
#######################################################################
#
# If this CIF has been generated from an entry in the Cambridge 
# Structural Database, then it will include bibliographic, chemical, 
# crystal, experimental, refinement or atomic coordinate data resulting 
# from the CCDC's data processing and validation procedures.
#
#######################################################################

data_RATYUJ
_chemical_name_common            
3,8-bis(5-(triisopropylsilyl)thiophen-2-yl)naphtho[2,3-b:6,7-b']dithiophene-2,7-dione
_chemical_formula_moiety         'C40 H50 O2 S4 Si2'
_chemical_name_systematic        
3,8-bis(5-(triisopropylsilyl)-2-thienyl)thieno[2',3':6,7]naphtho[2,3-b]thiophene-2,7-dione
_symmetry_cell_setting           triclinic
_symmetry_space_group_name_H-M   'P -1'
_symmetry_Int_Tables_number      2
_space_group_name_Hall           '-P 1'
loop_
_symmetry_equiv_pos_site_id
_symmetry_equiv_pos_as_xyz
1 x,y,z
2 -x,-y,-z
_cell_length_a                   7.3081(4)
_cell_length_b                   7.5292(4)
_cell_length_c                   18.6254(13)
_cell_angle_alpha                89.088(4)
_cell_angle_beta                 88.339(4)
_cell_angle_gamma                73.130(4)
_cell_volume                     980.301
_exptl_crystal_colour            gold
_exptl_crystal_description       block
_chemical_melting_point          '234-240 deg.C (dec.)'
_cell_formula_units_Z            1
_exptl_crystal_recrystallization_method toluene
loop_
_atom_site_label
_atom_site_type_symbol
_atom_site_fract_x
_atom_site_fract_y
_atom_site_fract_z
S1 S 0.13841(9) 0.15272(9) 0.97716(3)
S2 S 0.54745(9) -0.18752(9) 0.78235(4)
Si1 Si 0.84325(10) -0.43101(9) 0.67168(4)
O1 O 0.2416(3) -0.1217(3) 0.88414(11)
C1 C 0.2808(3) 0.4290(3) 1.02708(13)
H1 H 0.1739 0.4650 1.0594
C2 C 0.3010(3) 0.2828(3) 0.98291(13)
C3 C 0.4618(3) 0.0613(3) 0.89546(13)
C4 C 0.4196(3) 0.5290(3) 1.02517(13)
C5 C 0.4004(3) 0.6807(3) 1.06875(13)
H2 H 0.2941 0.7174 1.1013
C6 C 0.4637(3) 0.2173(3) 0.93415(12)
C7 C 0.8927(4) -0.1848(4) 0.78589(13)
H3 H 1.0263 -0.2115 0.7763
C8 C 0.7967(4) -0.0624(3) 0.83978(13)
H4 H 0.8582 0.0028 0.8696
C9 C 0.2863(4) 0.0055(3) 0.91077(13)
C10 C 0.6034(4) -0.0461(3) 0.84529(12)
C11 C 0.6390(4) -0.5329(4) 0.65940(15)
H5 H 0.5195 -0.4265 0.6621
C12 C 1.0800(4) -0.6030(4) 0.69432(15)
H6 H 1.1755 -0.5311 0.6935
C13 C 0.7774(4) -0.2629(3) 0.74797(13)
C14 C 0.8732(5) -0.2979(4) 0.58764(15)
H7 H 0.9013 -0.3879 0.5470
C15 C 0.6192(5) -0.6693(5) 0.71956(18)
H8 H 0.6182 -0.6114 0.7664
H9 H 0.4994 -0.7011 0.7143
H10 H 0.7273 -0.7823 0.7163
C16 C 0.6889(6) -0.1463(5) 0.5701(2)
H11 H 0.5828 -0.2011 0.5680
H12 H 0.6609 -0.0513 0.6074
H13 H 0.7050 -0.0895 0.5235
C17 C 1.1485(5) -0.7522(5) 0.6367(2)
H14 H 1.1421 -0.6929 0.5893
H15 H 1.2808 -0.8245 0.6457
H16 H 1.0665 -0.8347 0.6383
C18 C 0.6407(5) -0.6215(5) 0.58566(17)
H17 H 0.6533 -0.5336 0.5478
H18 H 0.7488 -0.7344 0.5820
H19 H 0.5209 -0.6531 0.5800
C19 C 1.0414(6) -0.2169(5) 0.5912(2)
H20 H 1.1577 -0.3159 0.6025
H21 H 1.0593 -0.1604 0.5448
H22 H 1.0153 -0.1222 0.6287
C20 C 1.0882(5) -0.6909(5) 0.76888(19)
H23 H 1.0439 -0.5933 0.8049
H24 H 1.0059 -0.7731 0.7711
H25 H 1.2202 -0.7629 0.7786
S1A S 0.86159(9) 0.84728(9) 1.02284(3)
S2A S 0.45255(9) 1.18752(9) 1.21765(4)
Si1A Si 0.15675(10) 1.43101(9) 1.32832(4)
O1A O 0.7584(3) 1.1217(3) 1.11586(11)
C1A C 0.7192(3) 0.5710(3) 0.97292(13)
H1A H 0.8261 0.5350 0.9406
C2A C 0.6990(3) 0.7172(3) 1.01709(13)
C3A C 0.5382(3) 0.9387(3) 1.10454(13)
C4A C 0.5804(3) 0.4710(3) 0.97483(13)
C5A C 0.5996(3) 0.3193(3) 0.93125(13)
H2A H 0.7059 0.2826 0.8987
C6A C 0.5363(3) 0.7827(3) 1.06585(12)
C7A C 0.1073(4) 1.1848(4) 1.21411(13)
H3A H -0.0263 1.2115 1.2237
C8A C 0.2033(4) 1.0624(3) 1.16022(13)
H4A H 0.1418 0.9972 1.1304
C9A C 0.7137(4) 0.9945(3) 1.08923(13)
C10A C 0.3966(4) 1.0461(3) 1.15471(12)
C11A C 0.3610(4) 1.5329(4) 1.34060(15)
H5A H 0.4805 1.4265 1.3379
C12A C -0.0800(4) 1.6030(4) 1.30568(15)
H6A H -0.1755 1.5311 1.3065
C13A C 0.2226(4) 1.2629(3) 1.25203(13)
C14A C 0.1268(5) 1.2979(4) 1.41236(15)
H7A H 0.0987 1.3879 1.4530
C15A C 0.3808(5) 1.6693(5) 1.28044(18)
H8A H 0.3818 1.6114 1.2336
H9A H 0.5006 1.7011 1.2857
H10A H 0.2727 1.7823 1.2837
C16A C 0.3111(6) 1.1463(5) 1.4299(2)
H11A H 0.4172 1.2011 1.4320
H12A H 0.3391 1.0513 1.3926
H13A H 0.2950 1.0895 1.4765
C17A C -0.1485(5) 1.7522(5) 1.3633(2)
H14A H -0.1421 1.6929 1.4107
H15A H -0.2808 1.8245 1.3543
H16A H -0.0665 1.8347 1.3617
C18A C 0.3593(5) 1.6215(5) 1.41434(17)
H17A H 0.3467 1.5336 1.4522
H18A H 0.2512 1.7344 1.4180
H19A H 0.4791 1.6531 1.4200
C19A C -0.0414(6) 1.2169(5) 1.4088(2)
H20A H -0.1577 1.3159 1.3975
H21A H -0.0593 1.1604 1.4552
H22A H -0.0153 1.1222 1.3713
C20A C -0.0882(5) 1.6909(5) 1.23112(19)
H23A H -0.0439 1.5933 1.1951
H24A H -0.0059 1.7731 1.2289
H25A H -0.2202 1.7629 1.2214
loop_
_geom_bond_atom_site_label_1
_geom_bond_atom_site_label_2
_geom_bond_site_symmetry_1
_geom_bond_site_symmetry_2
S1 C2 1_555 1_555
S2 C10 1_555 1_555
Si1 C11 1_555 1_555
O1 C9 1_555 1_555
C1 H1 1_555 1_555
C2 C1 1_555 1_555
C3 C6 1_555 1_555
C4 C1 1_555 1_555
C5 C4 1_555 1_555
H2 C5 1_555 1_555
C6 C2 1_555 1_555
C7 H3 1_555 1_555
C8 C7 1_555 1_555
H4 C8 1_555 1_555
C9 S1 1_555 1_555
C10 C3 1_555 1_555
C11 H5 1_555 1_555
C12 Si1 1_555 1_555
H6 C12 1_555 1_555
C13 S2 1_555 1_555
C14 Si1 1_555 1_555
H7 C14 1_555 1_555
C15 C11 1_555 1_555
H8 C15 1_555 1_555
H9 C15 1_555 1_555
H10 C15 1_555 1_555
C16 C14 1_555 1_555
H11 C16 1_555 1_555
H12 C16 1_555 1_555
H13 C16 1_555 1_555
C17 C12 1_555 1_555
H14 C17 1_555 1_555
H15 C17 1_555 1_555
H16 C17 1_555 1_555
C18 C11 1_555 1_555
H17 C18 1_555 1_555
H18 C18 1_555 1_555
H19 C18 1_555 1_555
C19 C14 1_555 1_555
H20 C19 1_555 1_555
H21 C19 1_555 1_555
H22 C19 1_555 1_555
C20 C12 1_555 1_555
H23 C20 1_555 1_555
H24 C20 1_555 1_555
H25 C20 1_555 1_555
S1A C2A 1_555 1_555
S2A C10A 1_555 1_555
Si1A C11A 1_555 1_555
O1A C9A 1_555 1_555
C1A H1A 1_555 1_555
C2A C1A 1_555 1_555
C3A C6A 1_555 1_555
C4A C4 1_555 1_555
C5A C6 1_555 1_555
H2A C5A 1_555 1_555
C6A C5 1_555 1_555
C7A H3A 1_555 1_555
C8A C7A 1_555 1_555
H4A C8A 1_555 1_555
C9A S1A 1_555 1_555
C10A C3A 1_555 1_555
C11A H5A 1_555 1_555
C12A Si1A 1_555 1_555
H6A C12A 1_555 1_555
C13A S2A 1_555 1_555
C14A Si1A 1_555 1_555
H7A C14A 1_555 1_555
C15A C11A 1_555 1_555
H8A C15A 1_555 1_555
H9A C15A 1_555 1_555
H10A C15A 1_555 1_555
C16A C14A 1_555 1_555
H11A C16A 1_555 1_555
H12A C16A 1_555 1_555
H13A C16A 1_555 1_555
C17A C12A 1_555 1_555
H14A C17A 1_555 1_555
H15A C17A 1_555 1_555
H16A C17A 1_555 1_555
C18A C11A 1_555 1_555
H17A C18A 1_555 1_555
H18A C18A 1_555 1_555
H19A C18A 1_555 1_555
C19A C14A 1_555 1_555
H20A C19A 1_555 1_555
H21A C19A 1_555 1_555
H22A C19A 1_555 1_555
C20A C12A 1_555 1_555
H23A C20A 1_555 1_555
H24A C20A 1_555 1_555
H25A C20A 1_555 1_555
Si1 C13 1_555 1_555
C3 C9 1_555 1_555
C7 C13 1_555 1_555
C8 C10 1_555 1_555
Si1A C13A 1_555 1_555
C1A C4A 1_555 1_555
C2A C6A 1_555 1_555
C3A C9A 1_555 1_555
C4A C5A 1_555 1_555
C7A C13A 1_555 1_555
C8A C10A 1_555 1_555

#END
