
#######################################################################
#
#                 Cambridge Crystallographic Data Centre
#                                CCDC 
#
#######################################################################
#
# If this CIF has been generated from an entry in the Cambridge 
# Structural Database, then it will include bibliographic, chemical, 
# crystal, experimental, refinement or atomic coordinate data resulting 
# from the CCDC's data processing and validation procedures.
#
#######################################################################

data_RATYOD
_chemical_name_common            
"3,6-bis(5-(triisopropylsilyl)thiophen-2-yl)benzo[2,1-b:3,4-b']dithiophene-2,7-dione benzene solvate"
_chemical_formula_moiety         'C36 H48 O2 S4 Si2,0.5(C6 H6)'
_chemical_name_systematic        
'3,6-bis(5-(triisopropylsilyl)-2-thienyl)thieno[3,2-g][1]benzothiophene-2,7-dione benzene solvate'
_symmetry_cell_setting           triclinic
_symmetry_space_group_name_H-M   'P -1'
_symmetry_Int_Tables_number      2
_space_group_name_Hall           '-P 1'
loop_
_symmetry_equiv_pos_site_id
_symmetry_equiv_pos_as_xyz
1 x,y,z
2 -x,-y,-z
_cell_length_a                   7.7497(3)
_cell_length_b                   11.0957(5)
_cell_length_c                   24.2810(8)
_cell_angle_alpha                92.381(2)
_cell_angle_beta                 94.7206(19)
_cell_angle_gamma                95.1866(19)
_cell_volume                     2069.76
_exptl_crystal_colour            black
_exptl_crystal_description       block
_chemical_melting_point          '215-217 deg.C (dec.)'
_cell_formula_units_Z            2
_exptl_crystal_recrystallization_method 'ethyl acetate'
loop_
_atom_site_label
_atom_site_type_symbol
_atom_site_fract_x
_atom_site_fract_y
_atom_site_fract_z
S1 S 0.07603(8) 0.22905(6) 0.35061(2)
S2 S -0.30178(8) 0.08658(6) 0.48968(3)
S3 S 0.07042(9) 0.20267(6) 0.79946(2)
S4 S -0.31937(8) 0.09057(6) 0.62821(3)
Si1 Si 0.34424(11) 0.21230(7) 0.90383(3)
Si2 Si 0.33495(10) 0.33121(6) 0.26689(3)
O1 O -0.2234(2) 0.1055(2) 0.38667(8)
O2 O -0.2612(3) 0.1181(2) 0.73708(8)
C1 C 0.0113(3) 0.16531(19) 0.45684(9)
C2 C 0.1795(3) 0.2089(2) 0.55166(9)
H1 H 0.2841 0.2397 0.5373
C3 C -0.0094(3) 0.15083(19) 0.68620(9)
C4 C 0.0184(3) 0.16064(19) 0.63074(9)
C5 C 0.0303(3) 0.16853(18) 0.51411(9)
C6 C 0.1383(3) 0.20018(19) 0.41869(8)
C7 C -0.1346(3) 0.12841(19) 0.59405(9)
C8 C -0.1280(3) 0.12954(19) 0.53853(9)
C9 C 0.1741(3) 0.2039(2) 0.60699(9)
H2 H 0.2757 0.2296 0.6306
C10 C 0.3966(3) 0.2562(2) 0.38077(10)
H3 H 0.5192 0.2712 0.3807
C11 C -0.1950(3) 0.1216(2) 0.69364(10)
C12 C -0.1681(3) 0.1206(2) 0.43470(10)
C13 C 0.1185(3) 0.1630(2) 0.73298(9)
C14 C 0.2845(3) 0.2700(2) 0.33540(9)
C15 C 0.2785(4) 0.1939(2) 0.82753(10)
C16 C 0.3155(3) 0.2179(2) 0.42739(9)
H4 H 0.3777 0.2055 0.4617
C17 C 0.3801(4) 0.1595(3) 0.78676(10)
H5 H 0.5001 0.1489 0.7936
C18 C 0.2900(4) 0.1417(3) 0.73415(10)
H6 H 0.3432 0.1171 0.7022
C19 C 0.3242(6) 0.5000(3) 0.27317(14)
H7 H 0.3532 0.5324 0.2369
C20 C 0.5632(5) 0.2983(4) 0.25578(14)
H8 H 0.6373 0.3380 0.2884
C21 C 0.1551(5) 0.2668(3) 0.21444(12)
H9 H 0.0463 0.2912 0.2294
C22 C 0.3046(7) 0.0576(3) 0.93361(13)
H10 H 0.3508 0.0660 0.9734
C23 C 0.1997(5) 0.3184(3) 0.93509(12)
H11 H 0.0783 0.2820 0.9243
C24 C 0.1405(7) 0.5334(4) 0.2825(2)
H12 H 0.0572 0.4924 0.2536
H13 H 0.1098 0.5077 0.3188
H14 H 0.1374 0.6213 0.2809
C25 C 0.6635(6) 0.2630(6) 0.97229(18)
H15 H 0.6161 0.1916 0.9905
H16 H 0.7898 0.2620 0.9720
H17 H 0.6376 0.3365 0.9925
C26 C 0.5816(5) 0.2611(5) 0.91323(16)
H18 H 0.6338 0.1925 0.8948
C27 C 0.1585(7) 0.3240(4) 0.15809(15)
H19 H 0.1752 0.4124 0.1636
H20 H 0.2543 0.2956 0.1387
H21 H 0.0480 0.3006 0.1360
C28 C 0.5955(6) 0.1661(4) 0.25565(15)
H22 H 0.5521 0.1303 0.2887
H23 H 0.5347 0.1235 0.2225
H24 H 0.7206 0.1587 0.2557
C29 C 0.4601(7) 0.5619(3) 0.3174(2)
H25 H 0.5756 0.5387 0.3103
H26 H 0.4595 0.6500 0.3161
H27 H 0.4319 0.5365 0.3540
C30 C 0.1297(7) 0.1312(4) 0.20861(17)
H28 H 0.1282 0.0980 0.2454
H29 H 0.0190 0.1060 0.1870
H30 H 0.2252 0.1010 0.1897
C31 C 0.2180(7) 0.3252(5) 0.99885(15)
H31 H 0.2114 0.2431 1.0123
H32 H 0.3304 0.3686 1.0122
H33 H 0.1240 0.3684 1.0125
C32 C 0.2095(6) 0.4454(4) 0.91232(18)
H34 H 0.1976 0.4386 0.8718
H35 H 0.1154 0.4893 0.9255
H36 H 0.3219 0.4896 0.9251
C33 C 0.1091(8) 0.0182(5) 0.93213(19)
H37 H 0.0510 0.0813 0.9507
H38 H 0.0601 0.0057 0.8936
H39 H 0.0916 -0.0576 0.9511
C34 C 0.6465(7) 0.3640(6) 0.8845(2)
H40 H 0.5908 0.3595 0.8467
H41 H 0.6205 0.4385 0.9039
H42 H 0.7727 0.3640 0.8834
C35 C 0.6283(7) 0.3603(6) 0.2049(2)
H43 H 0.6048 0.4456 0.2067
H44 H 0.7537 0.3550 0.2044
H45 H 0.5679 0.3198 0.1712
C36 C 0.4047(11) -0.0354(4) 0.90557(18)
H46 H 0.5282 -0.0058 0.9077
H47 H 0.3911 -0.1119 0.9242
H48 H 0.3595 -0.0486 0.8667
C37? C -0.239(3) 0.4433(14) 0.5285(11)
C38? C -0.094(3) 0.4839(11) 0.5025(19)
C39? C -0.014(3) 0.4932(7) 0.5479(3)
C40? C -0.177(3) 0.4632(10) 0.4400(8)
C41? C -0.2681(19) 0.4446(11) 0.4815(11)
loop_
_geom_bond_atom_site_label_1
_geom_bond_atom_site_label_2
_geom_bond_site_symmetry_1
_geom_bond_site_symmetry_2
S1 C6 1_555 1_555
S2 C8 1_555 1_555
S3 C13 1_555 1_555
S4 C7 1_555 1_555
Si1 C15 1_555 1_555
Si2 C14 1_555 1_555
O1 C12 1_555 1_555
O2 C11 1_555 1_555
C1 C5 1_555 1_555
C2 H1 1_555 1_555
C3 C4 1_555 1_555
C4 C7 1_555 1_555
C5 C2 1_555 1_555
C6 C1 1_555 1_555
C7 C8 1_555 1_555
C8 C5 1_555 1_555
C9 C2 1_555 1_555
H2 C9 1_555 1_555
C10 H3 1_555 1_555
C11 S4 1_555 1_555
C12 S2 1_555 1_555
C13 C3 1_555 1_555
C14 S1 1_555 1_555
C15 S3 1_555 1_555
C16 C6 1_555 1_555
H4 C16 1_555 1_555
C17 C15 1_555 1_555
H5 C17 1_555 1_555
C18 C13 1_555 1_555
H6 C18 1_555 1_555
C19 Si2 1_555 1_555
H7 C19 1_555 1_555
C20 Si2 1_555 1_555
H8 C20 1_555 1_555
C21 Si2 1_555 1_555
H9 C21 1_555 1_555
C22 Si1 1_555 1_555
H10 C22 1_555 1_555
C23 Si1 1_555 1_555
H11 C23 1_555 1_555
C24 C19 1_555 1_555
H12 C24 1_555 1_555
H13 C24 1_555 1_555
H14 C24 1_555 1_555
C25 H15 1_555 1_555
H16 C25 1_555 1_555
H17 C25 1_555 1_555
C26 Si1 1_555 1_555
H18 C26 1_555 1_555
C27 C21 1_555 1_555
H19 C27 1_555 1_555
H20 C27 1_555 1_555
H21 C27 1_555 1_555
C28 C20 1_555 1_555
H22 C28 1_555 1_555
H23 C28 1_555 1_555
H24 C28 1_555 1_555
C29 C19 1_555 1_555
H25 C29 1_555 1_555
H26 C29 1_555 1_555
H27 C29 1_555 1_555
C30 C21 1_555 1_555
H28 C30 1_555 1_555
H29 C30 1_555 1_555
H30 C30 1_555 1_555
C31 C23 1_555 1_555
H31 C31 1_555 1_555
H32 C31 1_555 1_555
H33 C31 1_555 1_555
C32 C23 1_555 1_555
H34 C32 1_555 1_555
H35 C32 1_555 1_555
H36 C32 1_555 1_555
C33 C22 1_555 1_555
H37 C33 1_555 1_555
H38 C33 1_555 1_555
H39 C33 1_555 1_555
C34 C26 1_555 1_555
H40 C34 1_555 1_555
H41 C34 1_555 1_555
H42 C34 1_555 1_555
C35 C20 1_555 1_555
H43 C35 1_555 1_555
H44 C35 1_555 1_555
H45 C35 1_555 1_555
C36 C22 1_555 1_555
H46 C36 1_555 1_555
H47 C36 1_555 1_555
H48 C36 1_555 1_555
C1 C12 1_555 1_555
C3 C11 1_555 1_555
C4 C9 1_555 1_555
C10 C14 1_555 1_555
C10 C16 1_555 1_555
C17 C18 1_555 1_555
C25 C26 1_555 1_555

#END
