
#######################################################################
#
#                 Cambridge Crystallographic Data Centre
#                                CCDC 
#
#######################################################################
#
# If this CIF has been generated from an entry in the Cambridge 
# Structural Database, then it will include bibliographic, chemical, 
# crystal, experimental, refinement or atomic coordinate data resulting 
# from the CCDC's data processing and validation procedures.
#
#######################################################################

data_RAVMUZ
_chemical_formula_moiety         'C6 H12 N10 2+,O4 S1 2-'
_chemical_name_systematic        
"3,3'-(ethene-1,2-diyl)bis(4,5-diamino-4H-1,2,4-triazol-1-ium) sulfate"
_symmetry_cell_setting           monoclinic
_symmetry_space_group_name_H-M   'P 21/c'
_symmetry_Int_Tables_number      14
_space_group_name_Hall           '-P 2ybc'
loop_
_symmetry_equiv_pos_site_id
_symmetry_equiv_pos_as_xyz
1 x,y,z
2 -x,1/2+y,1/2-z
3 -x,-y,-z
4 x,1/2-y,1/2+z
_cell_length_a                   6.4108(6)
_cell_length_b                   13.4566(14)
_cell_length_c                   14.2343(11)
_cell_angle_alpha                90
_cell_angle_beta                 98.654(3)
_cell_angle_gamma                90
_cell_volume                     1213.98
_exptl_crystal_description       needle
_cell_formula_units_Z            4
loop_
_atom_site_label
_atom_site_type_symbol
_atom_site_fract_x
_atom_site_fract_y
_atom_site_fract_z
C1 C 0.8640(4) 0.08357(18) 0.18986(17)
H1 H 0.7180 0.0726 0.1691
C2 C 0.9933(4) 0.09588(18) 0.12564(17)
H2 H 1.1410 0.0989 0.1466
C3 C 0.9369(4) 0.11562(18) 0.44203(17)
C4 C 0.9420(4) 0.08669(18) 0.29056(18)
C5 C 0.9248(4) 0.14037(18) -0.12536(18)
C6 C 0.9163(4) 0.10480(17) 0.02520(17)
N1 N 1.1376(3) 0.08257(16) 0.32999(14)
N2 N 1.1336(4) 0.10083(16) 0.42511(15)
H3 H 1.246(3) 0.100(2) 0.4680(16)
N3 N 0.8116(3) 0.10624(15) 0.35789(14)
N4 N 0.8753(4) 0.13687(19) 0.52421(16)
H4 H 0.968(4) 0.159(2) 0.5697(16)
H5 H 0.745(3) 0.136(2) 0.528(2)
N5 N 0.5932(3) 0.12471(17) 0.34789(16)
H6 H 0.523(4) 0.0698(16) 0.3332(18)
H7 H 0.560(4) 0.1650(18) 0.2976(16)
N6 N 0.7224(3) 0.09509(16) -0.01675(14)
N7 N 0.7297(4) 0.11780(16) -0.11147(15)
H8 H 0.618(3) 0.113(2) -0.1567(15)
N8 N 1.0475(3) 0.13179(15) -0.04009(14)
N9 N 0.9881(4) 0.16701(17) -0.20556(16)
H9 H 0.893(4) 0.181(2) -0.2536(16)
H10 H 1.122(3) 0.169(2) -0.209(2)
N10 N 1.2662(4) 0.14989(19) -0.02843(17)
H11 H 1.332(4) 0.0931(15) -0.0132(19)
H12 H 1.294(4) 0.1922(18) 0.0199(16)
O1 O 0.4580(3) 0.41057(13) 0.07937(12)
O2 O 0.4108(3) 0.40623(13) 0.24444(12)
O3 O 0.6127(3) 0.27783(13) 0.18132(13)
O4 O 0.2355(3) 0.28615(13) 0.13449(13)
S1 S 0.43027(10) 0.34494(5) 0.15960(5)
loop_
_geom_bond_atom_site_label_1
_geom_bond_atom_site_label_2
_geom_bond_site_symmetry_1
_geom_bond_site_symmetry_2
C1 H1 1_555 1_555
C2 C1 1_555 1_555
H2 C2 1_555 1_555
C3 N2 1_555 1_555
C4 C1 1_555 1_555
C5 N7 1_555 1_555
C6 C2 1_555 1_555
N1 C4 1_555 1_555
N2 N1 1_555 1_555
H3 N2 1_555 1_555
N3 C3 1_555 1_555
N4 C3 1_555 1_555
H4 N4 1_555 1_555
H5 N4 1_555 1_555
N5 N3 1_555 1_555
H6 N5 1_555 1_555
H7 N5 1_555 1_555
N6 C6 1_555 1_555
N7 N6 1_555 1_555
H8 N7 1_555 1_555
N8 C5 1_555 1_555
N9 C5 1_555 1_555
H9 N9 1_555 1_555
H10 N9 1_555 1_555
N10 N8 1_555 1_555
H11 N10 1_555 1_555
H12 N10 1_555 1_555
O1 S1 1_555 1_555
O2 S1 1_555 1_555
O3 S1 1_555 1_555
O4 S1 1_555 1_555
C4 N3 1_555 1_555
C6 N8 1_555 1_555

#END
