
#######################################################################
#
#                 Cambridge Crystallographic Data Centre
#                                CCDC 
#
#######################################################################
#
# If this CIF has been generated from an entry in the Cambridge 
# Structural Database, then it will include bibliographic, chemical, 
# crystal, experimental, refinement or atomic coordinate data resulting 
# from the CCDC's data processing and validation procedures.
#
#######################################################################

data_RAVMIL
_chemical_formula_moiety         'C24 H24 N2 2+,2(Cl1 O4 1-)'
_chemical_name_systematic        
'1-Ethyl-4-((E)-2-(1-ethylquinolinium-4-yl)-1-ethenyl)quinolinium bis(perchlorate)'
_symmetry_cell_setting           monoclinic
_symmetry_space_group_name_H-M   'P 21/n'
_symmetry_Int_Tables_number      14
_space_group_name_Hall           '-P 2yn'
loop_
_symmetry_equiv_pos_site_id
_symmetry_equiv_pos_as_xyz
1 x,y,z
2 1/2-x,1/2+y,1/2-z
3 -x,-y,-z
4 1/2+x,1/2-y,1/2+z
_cell_length_a                   13.0362(5)
_cell_length_b                   6.8504(2)
_cell_length_c                   14.5061(5)
_cell_angle_alpha                90
_cell_angle_beta                 115.552(2)
_cell_angle_gamma                90
_cell_volume                     1168.74
_chemical_melting_point          '295-297deg. C(dec.)'
_cell_formula_units_Z            2
_chemical_properties_physical    air-sensitive
_exptl_crystal_recrystallization_method acetonitrile
loop_
_atom_site_label
_atom_site_type_symbol
_atom_site_fract_x
_atom_site_fract_y
_atom_site_fract_z
Cl1 Cl 0.22747(3) 0.53256(5) 0.03413(2)
O1 O 0.19687(11) 0.59812(19) 0.11322(9)
O2 O 0.13581(10) 0.41689(19) -0.03854(8)
O3 O 0.24674(11) 0.69949(19) -0.01687(10)
O4 O 0.32942(11) 0.4159(2) 0.07813(11)
N1 N 0.01603(10) 0.25985(18) 0.20395(8)
C1 C 0.05954(13) 0.4263(2) 0.25267(11)
C2 C 0.04893(13) 0.4822(2) 0.34041(11)
C3 C -0.00877(12) 0.3644(2) 0.38024(11)
C4 C -0.05420(12) 0.1830(2) 0.32993(10)
C5 C -0.11107(13) 0.0471(2) 0.36597(11)
C6 C -0.15452(13) -0.1235(2) 0.31463(11)
C7 C -0.14262(14) -0.1683(2) 0.22465(12)
C8 C -0.08675(13) -0.0443(2) 0.18791(11)
C9 C -0.04125(12) 0.1328(2) 0.23980(10)
C10 C -0.02490(15) 0.4246(2) 0.47051(12)
C11 C 0.03475(13) 0.2128(2) 0.11158(10)
C12 C 0.13822(15) 0.0831(3) 0.13909(13)
H1 H -0.0345(15) 0.149(3) 0.0618(13)
H2 H 0.0949(16) 0.503(3) 0.2242(14)
H3 H -0.1197(17) 0.072(3) 0.4239(16)
H4 H 0.0429(16) 0.339(3) 0.0852(14)
H5 H -0.0787(18) -0.079(3) 0.1326(17)
H6 H 0.0814(16) 0.598(3) 0.3704(15)
H7 H -0.1706(17) -0.281(3) 0.1940(15)
H8 H -0.1910(18) -0.214(3) 0.3414(16)
H9 H 0.1489(17) 0.063(3) 0.0758(16)
H10 H 0.1271(18) -0.042(3) 0.1626(16)
H11 H 0.2045(18) 0.152(3) 0.1891(17)
H12 H -0.083(2) 0.359(4) 0.481(2)
N1B N -0.01603(10) 0.74015(18) 0.79605(8)
C1B C -0.05954(13) 0.5737(2) 0.74733(11)
C2B C -0.04893(13) 0.5178(2) 0.65959(11)
C3B C 0.00877(12) 0.6356(2) 0.61976(11)
C4B C 0.05420(12) 0.8170(2) 0.67007(10)
C5B C 0.11107(13) 0.9529(2) 0.63403(11)
C6B C 0.15452(13) 1.1235(2) 0.68537(11)
C7B C 0.14262(14) 1.1683(2) 0.77535(12)
C8B C 0.08675(13) 1.0443(2) 0.81209(11)
C9B C 0.04125(12) 0.8672(2) 0.76020(10)
C10B C 0.02490(15) 0.5754(2) 0.52949(12)
C11B C -0.03475(13) 0.7872(2) 0.88842(10)
C12B C -0.13822(15) 0.9169(3) 0.86091(13)
H1B H 0.0345(15) 0.851(3) 0.9382(13)
H2B H -0.0949(16) 0.497(3) 0.7758(14)
H3B H 0.1197(17) 0.928(3) 0.5761(16)
H4B H -0.0429(16) 0.661(3) 0.9148(14)
H5B H 0.0787(18) 1.079(3) 0.8674(17)
H6B H -0.0814(16) 0.402(3) 0.6296(15)
H7B H 0.1706(17) 1.281(3) 0.8060(15)
H8B H 0.1910(18) 1.214(3) 0.6586(16)
H9B H -0.1489(17) 0.937(3) 0.9242(16)
H10B H -0.1271(18) 1.042(3) 0.8374(16)
H11B H -0.2045(18) 0.848(3) 0.8109(17)
H12B H 0.083(2) 0.641(4) 0.519(2)
loop_
_geom_bond_atom_site_label_1
_geom_bond_atom_site_label_2
_geom_bond_site_symmetry_1
_geom_bond_site_symmetry_2
Cl1 O1 1_555 1_555
O2 Cl1 1_555 1_555
O3 Cl1 1_555 1_555
O4 Cl1 1_555 1_555
N1 C1 1_555 1_555
C1 C2 1_555 1_555
C2 C3 1_555 1_555
C3 C4 1_555 1_555
C4 C5 1_555 1_555
C5 C6 1_555 1_555
C6 C7 1_555 1_555
C7 C8 1_555 1_555
C8 C9 1_555 1_555
C9 N1 1_555 1_555
C10 C3 1_555 1_555
C11 N1 1_555 1_555
C12 C11 1_555 1_555
H1 C11 1_555 1_555
H2 C1 1_555 1_555
H3 C5 1_555 1_555
H4 C11 1_555 1_555
H5 C8 1_555 1_555
H6 C2 1_555 1_555
H7 C7 1_555 1_555
H8 C6 1_555 1_555
H9 C12 1_555 1_555
H10 C12 1_555 1_555
H11 C12 1_555 1_555
H12 C10 1_555 1_555
N1B C1B 1_555 1_555
C1B C2B 1_555 1_555
C2B C3B 1_555 1_555
C3B C4B 1_555 1_555
C4B C5B 1_555 1_555
C5B C6B 1_555 1_555
C6B C7B 1_555 1_555
C7B C8B 1_555 1_555
C8B C9B 1_555 1_555
C9B N1B 1_555 1_555
C10B C10 1_555 1_555
C11B N1B 1_555 1_555
C12B C11B 1_555 1_555
H1B C11B 1_555 1_555
H2B C1B 1_555 1_555
H3B C5B 1_555 1_555
H4B C11B 1_555 1_555
H5B C8B 1_555 1_555
H6B C2B 1_555 1_555
H7B C7B 1_555 1_555
H8B C6B 1_555 1_555
H9B C12B 1_555 1_555
H10B C12B 1_555 1_555
H11B C12B 1_555 1_555
H12B C10B 1_555 1_555
C4 C9 1_555 1_555
C3B C10B 1_555 1_555
C4B C9B 1_555 1_555

#END
