
#######################################################################
#
#                 Cambridge Crystallographic Data Centre
#                                CCDC 
#
#######################################################################
#
# If this CIF has been generated from an entry in the Cambridge 
# Structural Database, then it will include bibliographic, chemical, 
# crystal, experimental, refinement or atomic coordinate data resulting 
# from the CCDC's data processing and validation procedures.
#
#######################################################################

data_RAVNAG
_chemical_formula_moiety         'C6 H12 N10 2+,2(C6 H2 N3 O7 1-)'
_chemical_name_systematic        
"3,3'-(ethene-1,2-diyl)bis(4,5-diamino-4H-1,2,4-triazol-1-ium) bis(2,4,6-trinitrophenolate)"
_symmetry_cell_setting           monoclinic
_symmetry_space_group_name_H-M   'P 21/n'
_symmetry_Int_Tables_number      14
_space_group_name_Hall           '-P 2yn'
loop_
_symmetry_equiv_pos_site_id
_symmetry_equiv_pos_as_xyz
1 x,y,z
2 1/2-x,1/2+y,1/2-z
3 -x,-y,-z
4 1/2+x,1/2-y,1/2+z
_cell_length_a                   6.804(2)
_cell_length_b                   8.943(3)
_cell_length_c                   21.067(7)
_cell_angle_alpha                90
_cell_angle_beta                 92.639(6)
_cell_angle_gamma                90
_cell_volume                     1280.53
_exptl_crystal_colour            colorless
_exptl_crystal_description       block
_cell_formula_units_Z            2
loop_
_atom_site_label
_atom_site_type_symbol
_atom_site_fract_x
_atom_site_fract_y
_atom_site_fract_z
O1 O 0.6564(5) 0.7221(4) 0.37877(14)
O2 O 0.4478(5) 0.9281(4) 0.43684(14)
O3 O 0.1468(4) 0.9484(4) 0.40177(13)
O4 O -0.0429(5) 0.8633(4) 0.18610(14)
O5 O 0.1390(5) 0.7247(4) 0.12792(14)
O6 O 0.8852(4) 0.5985(4) 0.29393(15)
O7 O 0.7534(5) 0.5460(4) 0.20170(15)
N1 N 0.3176(5) 0.9064(5) 0.39527(16)
N2 N 0.1102(6) 0.7926(5) 0.17778(16)
N3 N 0.7468(6) 0.6069(5) 0.25436(18)
C1 C 0.5436(7) 0.7482(6) 0.3321(2)
C2 C 0.3623(6) 0.8319(6) 0.33579(19)
C3 C 0.2219(6) 0.8458(6) 0.28723(19)
H1 H 0.1019 0.8969 0.2935
C4 C 0.2598(6) 0.7832(6) 0.22864(19)
C5 C 0.4329(6) 0.7079(6) 0.2187(2)
H2 H 0.4571 0.6681 0.1780
C6 C 0.5701(6) 0.6911(6) 0.2682(2)
N4 N 0.9967(5) 0.6382(5) 0.43115(16)
H3 H 0.9061 0.6290 0.4002
N5 N 1.1721(5) 0.5614(5) 0.43333(17)
N6 N 1.1467(5) 0.7086(5) 0.51692(16)
N7 N 1.1858(6) 0.7855(5) 0.57435(17)
H4 H 1.3010 0.8258 0.5736
H5 H 1.0993 0.8550 0.5787
N8 N 0.8324(5) 0.8175(5) 0.49373(17)
H6 H 0.7288 0.8230 0.4672
H7 H 0.8377 0.8719 0.5286
C7 C 0.9787(6) 0.7284(6) 0.4813(2)
C8 C 1.2613(6) 0.6063(6) 0.4866(2)
C9 C 1.4506(6) 0.5554(6) 0.5121(2)
H8 H 1.5068 0.6051 0.5484
N4B N 2.0033(5) 0.3618(5) 0.56885(16)
H3B H 2.0939 0.3710 0.5998
N5B N 1.8279(5) 0.4386(5) 0.56667(17)
N6B N 1.8533(5) 0.2914(5) 0.48308(16)
N7B N 1.8142(6) 0.2145(5) 0.42565(17)
H4B H 1.6990 0.1742 0.4264
H5B H 1.9007 0.1450 0.4213
N8B N 2.1676(5) 0.1825(5) 0.50627(17)
H6B H 2.2712 0.1770 0.5328
H7B H 2.1623 0.1281 0.4714
C7B C 2.0213(6) 0.2716(6) 0.5187(2)
C8B C 1.7387(6) 0.3937(6) 0.5134(2)
C9B C 1.5494(6) 0.4446(6) 0.4879(2)
H8B H 1.4932 0.3949 0.4516
loop_
_geom_bond_atom_site_label_1
_geom_bond_atom_site_label_2
_geom_bond_site_symmetry_1
_geom_bond_site_symmetry_2
O1 C1 1_555 1_555
O2 N1 1_555 1_555
O3 N1 1_555 1_555
O4 N2 1_555 1_555
O5 N2 1_555 1_555
O6 N3 1_555 1_555
O7 N3 1_555 1_555
N1 C2 1_555 1_555
N2 C4 1_555 1_555
N3 C6 1_555 1_555
C1 C2 1_555 1_555
C2 C3 1_555 1_555
C3 H1 1_555 1_555
C4 C3 1_555 1_555
C5 C4 1_555 1_555
H2 C5 1_555 1_555
C6 C1 1_555 1_555
N4 H3 1_555 1_555
N5 N4 1_555 1_555
N6 N7 1_555 1_555
N7 H4 1_555 1_555
H5 N7 1_555 1_555
N8 H6 1_555 1_555
H7 N8 1_555 1_555
C7 N4 1_555 1_555
C8 N5 1_555 1_555
C9 C8 1_555 1_555
H8 C9 1_555 1_555
N4B H3B 1_555 1_555
N5B N4B 1_555 1_555
N6B N7B 1_555 1_555
N7B H4B 1_555 1_555
H5B N7B 1_555 1_555
N8B H6B 1_555 1_555
H7B N8B 1_555 1_555
C7B N4B 1_555 1_555
C8B N5B 1_555 1_555
C9B C9 1_555 1_555
H8B C9B 1_555 1_555
C5 C6 1_555 1_555
N6 C7 1_555 1_555
N6 C8 1_555 1_555
N8 C7 1_555 1_555
N6B C7B 1_555 1_555
N6B C8B 1_555 1_555
N8B C7B 1_555 1_555
C8B C9B 1_555 1_555

#END
