
#######################################################################
#
#                 Cambridge Crystallographic Data Centre
#                                CCDC 
#
#######################################################################
#
# If this CIF has been generated from an entry in the Cambridge 
# Structural Database, then it will include bibliographic, chemical, 
# crystal, experimental, refinement or atomic coordinate data resulting 
# from the CCDC's data processing and validation procedures.
#
#######################################################################

data_RAVNEK
_chemical_formula_moiety         'C6 H12 N10 2+,2(C6 H2 N3 O9 1-)'
_chemical_name_systematic        
"3,3'-(ethene-1,2-diyl)bis(4,5-diamino-4H-1,2,4-triazol-1-ium) bis(3,5-dihydroxy-2,4,6-trinitrophenolate)"
_symmetry_cell_setting           monoclinic
_symmetry_space_group_name_H-M   'P 21/n'
_symmetry_Int_Tables_number      14
_space_group_name_Hall           '-P 2yn'
loop_
_symmetry_equiv_pos_site_id
_symmetry_equiv_pos_as_xyz
1 x,y,z
2 1/2-x,1/2+y,1/2-z
3 -x,-y,-z
4 1/2+x,1/2-y,1/2+z
_cell_length_a                   11.2505(7)
_cell_length_b                   5.1854(3)
_cell_length_c                   23.7693(12)
_cell_angle_alpha                90
_cell_angle_beta                 101.493(5)
_cell_angle_gamma                90
_cell_volume                     1358.86
_exptl_crystal_colour            yellow
_exptl_crystal_description       prism
_cell_formula_units_Z            2
loop_
_atom_site_label
_atom_site_type_symbol
_atom_site_fract_x
_atom_site_fract_y
_atom_site_fract_z
O1 O 0.5301(5) 0.1403(10) 0.54781(19)
H1 H 0.5352 -0.0082 0.5599
O2 O 0.3471(6) -0.0131(12) 0.5812(2)
O3 O 0.3404(5) 0.0276(10) 0.66801(18)
O4 O 0.4289(4) 0.4431(9) 0.71998(15)
O5 O 0.5916(5) 0.7565(10) 0.77954(17)
O6 O 0.6647(5) 1.0207(9) 0.72810(19)
O7 O 0.7456(4) 0.8348(10) 0.64501(19)
H2 H 0.738(10) 0.94(2) 0.673(5)
O8 O 0.8079(8) 0.581(2) 0.5630(3)
O9 O 0.6773(8) 0.410(2) 0.5086(3)
N1 N 0.3817(4) 0.0943(10) 0.62809(18)
N2 N 0.6147(4) 0.8132(10) 0.73348(18)
N3 N 0.7099(6) 0.4991(15) 0.5538(3)
C1 C 0.5452(5) 0.3013(12) 0.5912(2)
C2 C 0.4736(5) 0.2847(11) 0.6334(2)
C3 C 0.4934(5) 0.4534(11) 0.6835(2)
C4 C 0.5891(5) 0.6410(10) 0.6853(2)
C5 C 0.6599(5) 0.6613(11) 0.6431(2)
C6 C 0.6374(5) 0.4872(12) 0.5965(2)
N4 N 0.3371(5) 0.0701(12) 0.7949(2)
H3 H 0.360(9) 0.07(2) 0.761(4)
H4 H 0.260(8) -0.003(16) 0.799(3)
N5 N 0.4639(5) 0.4122(12) 0.83671(19)
H5 H 0.495(7) 0.483(15) 0.813(3)
N6 N 0.5017(5) 0.5216(11) 0.89015(19)
N7 N 0.3824(4) 0.1886(9) 0.89328(17)
N8 N 0.3054(6) 0.0071(12) 0.9110(2)
H6 H 0.351(10) -0.13(2) 0.930(4)
H7 H 0.243(10) 0.17(2) 0.916(4)
C7 C 0.3912(5) 0.2157(12) 0.8377(2)
C8 C 0.4509(5) 0.3819(12) 0.9236(2)
C9 C 0.4616(5) 0.4194(14) 0.9852(2)
H8 H 0.404(6) 0.315(12) 1.002(3)
N4B N 0.6629(5) 0.9299(12) 1.2051(2)
H3B H 0.640(9) 0.93(2) 1.239(4)
H4B H 0.740(8) 1.003(16) 1.201(3)
N5B N 0.5361(5) 0.5878(12) 1.16329(19)
H5B H 0.505(7) 0.517(15) 1.187(3)
N6B N 0.4983(5) 0.4784(11) 1.10985(19)
N7B N 0.6176(4) 0.8114(9) 1.10672(17)
N8B N 0.6946(6) 0.9929(12) 1.0890(2)
H6B H 0.649(10) 1.13(2) 1.070(4)
H7B H 0.757(10) 0.83(2) 1.084(4)
C7B C 0.6088(5) 0.7843(12) 1.1623(2)
C8B C 0.5491(5) 0.6181(12) 1.0764(2)
C9B C 0.5384(5) 0.5806(14) 1.0148(2)
H8B H 0.596(6) 0.685(12) 0.998(3)
loop_
_geom_bond_atom_site_label_1
_geom_bond_atom_site_label_2
_geom_bond_site_symmetry_1
_geom_bond_site_symmetry_2
O1 H1 1_555 1_555
O2 N1 1_555 1_555
O3 N1 1_555 1_555
O4 C3 1_555 1_555
O5 N2 1_555 1_555
O6 N2 1_555 1_555
O7 H2 1_555 1_555
O8 N3 1_555 1_555
O9 N3 1_555 1_555
N1 C2 1_555 1_555
N2 C4 1_555 1_555
N3 C6 1_555 1_555
C1 O1 1_555 1_555
C2 C1 1_555 1_555
C3 C2 1_555 1_555
C4 C3 1_555 1_555
C5 O7 1_555 1_555
C6 C1 1_555 1_555
N4 H3 1_555 1_555
H4 N4 1_555 1_555
N5 H5 1_555 1_555
N6 N5 1_555 1_555
N7 N8 1_555 1_555
N8 H6 1_555 1_555
H7 N8 1_555 1_555
C7 N4 1_555 1_555
C8 N6 1_555 1_555
C9 C8 1_555 1_555
H8 C9 1_555 1_555
N4B H3B 1_555 1_555
H4B N4B 1_555 1_555
N5B H5B 1_555 1_555
N6B N5B 1_555 1_555
N7B N8B 1_555 1_555
N8B H6B 1_555 1_555
H7B N8B 1_555 1_555
C7B N4B 1_555 1_555
C8B N6B 1_555 1_555
C9B C9 1_555 1_555
H8B C9B 1_555 1_555
C4 C5 1_555 1_555
C5 C6 1_555 1_555
N5 C7 1_555 1_555
N7 C7 1_555 1_555
N7 C8 1_555 1_555
N5B C7B 1_555 1_555
N7B C7B 1_555 1_555
N7B C8B 1_555 1_555
C8B C9B 1_555 1_555

#END
