
#######################################################################
#
#                 Cambridge Crystallographic Data Centre
#                                CCDC 
#
#######################################################################
#
# If this CIF has been generated from an entry in the Cambridge 
# Structural Database, then it will include bibliographic, chemical, 
# crystal, experimental, refinement or atomic coordinate data resulting 
# from the CCDC's data processing and validation procedures.
#
#######################################################################

data_RAVNOU
_chemical_formula_moiety         'C6 H12 N10 2+,2(C3 N5 O6 1-)'
_chemical_name_systematic        
"5,5'-(ethene-1,2-diyl)bis(4-amino-2,4-dihydro-3H-1,2,4-triazol-3-iminium) bis(3,4,5-trinitropyrazol-1-ide)"
_symmetry_cell_setting           monoclinic
_symmetry_space_group_name_H-M   'P 2/n'
_symmetry_Int_Tables_number      13
_space_group_name_Hall           '-P 2yac'
loop_
_symmetry_equiv_pos_site_id
_symmetry_equiv_pos_as_xyz
1 x,y,z
2 1/2-x,y,1/2-z
3 -x,-y,-z
4 1/2+x,-y,1/2+z
_cell_length_a                   13.4466(13)
_cell_length_b                   5.9301(6)
_cell_length_c                   15.0419(16)
_cell_angle_alpha                90
_cell_angle_beta                 97.917(4)
_cell_angle_gamma                90
_cell_volume                     1188
_exptl_crystal_description       block
_cell_formula_units_Z            2
loop_
_atom_site_label
_atom_site_type_symbol
_atom_site_fract_x
_atom_site_fract_y
_atom_site_fract_z
C1 C 0.49613(16) 0.9101(4) 0.47311(14)
H1 H 0.4683 0.7755 0.4934
C2 C 0.54790(16) 0.7875(4) 0.25080(15)
C3 C 0.52820(16) 0.9111(4) 0.38552(14)
N1 N 0.57909(14) 1.0681(3) 0.35125(12)
N2 N 0.59192(15) 0.9865(3) 0.26732(12)
H2 H 0.6274(16) 1.054(4) 0.2314(15)
N3 N 0.50749(14) 0.7359(3) 0.32538(12)
N4 N 0.54361(16) 0.6625(4) 0.17810(14)
H3 H 0.5072(19) 0.545(4) 0.1738(16)
H4 H 0.5667(18) 0.727(4) 0.1337(17)
N5 N 0.45637(16) 0.5374(3) 0.34235(14)
H5 H 0.4980(16) 0.426(3) 0.3389(16)
H6 H 0.3958(13) 0.533(4) 0.3079(14)
C1B C 0.50387(16) 1.0899(4) 0.52689(14)
H1B H 0.5317 1.2245 0.5066
C2B C 0.45210(16) 1.2125(4) 0.74920(15)
C3B C 0.47180(16) 1.0889(4) 0.61448(14)
N1B N 0.42091(14) 0.9319(3) 0.64875(12)
N2B N 0.40808(15) 1.0135(3) 0.73268(12)
H2B H 0.3726(16) 0.946(4) 0.7686(15)
N3B N 0.49251(14) 1.2641(3) 0.67462(12)
N4B N 0.45639(16) 1.3375(4) 0.82190(14)
H3B H 0.4928(19) 1.455(4) 0.8262(16)
H4B H 0.4333(18) 1.273(4) 0.8663(17)
N5B N 0.54363(16) 1.4626(3) 0.65765(14)
H5B H 0.5020(16) 1.574(3) 0.6611(16)
H6B H 0.6042(13) 1.467(4) 0.6921(14)
C4 C 0.14292(17) 1.0130(4) 0.48052(15)
C5 C 0.19968(16) 0.8286(4) 0.46521(14)
C6 C 0.21595(17) 0.7287(4) 0.54951(15)
N6 N 0.17150(15) 0.8466(3) 0.60939(13)
N7 N 0.12537(14) 1.0235(3) 0.56576(13)
N8 N 0.09708(15) 1.1798(4) 0.41814(15)
N9 N 0.23627(15) 0.7644(4) 0.38226(13)
N10 N 0.27573(14) 0.5342(3) 0.57703(14)
O1 O 0.05872(14) 1.3447(3) 0.44936(13)
O2 O 0.09907(13) 1.1467(3) 0.33772(11)
O3 O 0.29547(13) 0.8911(3) 0.35392(11)
O4 O 0.20497(14) 0.5882(3) 0.34644(11)
O5 O 0.32282(14) 0.4515(3) 0.52068(12)
O6 O 0.27768(14) 0.4652(3) 0.65336(12)
loop_
_geom_bond_atom_site_label_1
_geom_bond_atom_site_label_2
_geom_bond_site_symmetry_1
_geom_bond_site_symmetry_2
C1 H1 1_555 1_555
C2 N2 1_555 1_555
C3 C1 1_555 1_555
N1 C3 1_555 1_555
N2 N1 1_555 1_555
H2 N2 1_555 1_555
N3 C2 1_555 1_555
N4 C2 1_555 1_555
H3 N4 1_555 1_555
H4 N4 1_555 1_555
N5 N3 1_555 1_555
H5 N5 1_555 1_555
H6 N5 1_555 1_555
C4 C5 1_555 1_555
C5 C6 1_555 1_555
C6 N6 1_555 1_555
N6 N7 1_555 1_555
N7 C4 1_555 1_555
N8 C4 1_555 1_555
N9 C5 1_555 1_555
N10 C6 1_555 1_555
O1 N8 1_555 1_555
O2 N8 1_555 1_555
O3 N9 1_555 1_555
O4 N9 1_555 1_555
O5 N10 1_555 1_555
O6 N10 1_555 1_555
C1B C1 1_555 1_555
H1B C1B 1_555 1_555
C2B N2B 1_555 1_555
C3B C1B 1_555 1_555
N1B C3B 1_555 1_555
N2B N1B 1_555 1_555
H2B N2B 1_555 1_555
N3B C2B 1_555 1_555
N4B C2B 1_555 1_555
H3B N4B 1_555 1_555
H4B N4B 1_555 1_555
N5B N3B 1_555 1_555
H5B N5B 1_555 1_555
H6B N5B 1_555 1_555
C3 N3 1_555 1_555
C3B N3B 1_555 1_555

#END
