
#######################################################################
#
#                 Cambridge Crystallographic Data Centre
#                                CCDC 
#
#######################################################################
#
# If this CIF has been generated from an entry in the Cambridge 
# Structural Database, then it will include bibliographic, chemical, 
# crystal, experimental, refinement or atomic coordinate data resulting 
# from the CCDC's data processing and validation procedures.
#
#######################################################################

data_RAVPUZ
_chemical_formula_moiety         'C12 H11 N3 O2 S1,H2 O1'
_chemical_name_systematic        
'5-Methylthiophene-2-carboxaldehyde 4-nitrophenylhydrazone monohydrate'
_symmetry_cell_setting           monoclinic
_symmetry_space_group_name_H-M   'P 21'
_symmetry_Int_Tables_number      4
_space_group_name_Hall           'P 2yb'
loop_
_symmetry_equiv_pos_site_id
_symmetry_equiv_pos_as_xyz
1 x,y,z
2 -x,1/2+y,-z
_cell_length_a                   9.844(7)
_cell_length_b                   3.901(3)
_cell_length_c                   17.245(15)
_cell_angle_alpha                90
_cell_angle_beta                 93.17(6)
_cell_angle_gamma                90
_cell_volume                     661.22
_exptl_crystal_colour            red
_cell_formula_units_Z            2
loop_
_atom_site_label
_atom_site_type_symbol
_atom_site_fract_x
_atom_site_fract_y
_atom_site_fract_z
S1 S 0.40396(7) 0.2768 0.07180(4)
N1 N 1.1457(3) 0.3460(9) 0.3692(2)
N2 N 0.5354(2) 0.1264(8) 0.23212(13)
N3 N 0.5998(3) 0.0453(8) 0.30243(14)
H1 H 0.5571(25) -0.0621(76) 0.3369(13)
O1 O 1.2075(2) 0.5160(9) 0.32268(14)
O2 O 1.1992(2) 0.2465(12) 0.43152(12)
C1 C 0.3325(3) 0.0991(8) 0.1518(2)
C2 C 0.2002(3) 0.0232(10) 0.1353(2)
H2 H 0.1435(3) -0.0705(10) 0.1711(2)
C3 C 0.1574(3) 0.1016(10) 0.0577(2)
H3 H 0.0694(3) 0.0597(10) 0.0375(2)
C4 C 0.2526(3) 0.2395(11) 0.0159(2)
C5 C 0.2452(3) 0.3520(10) -0.0670(2)
H4 H 0.3175(15) 0.2466(45) -0.0935(3)
H5 H 0.2542(22) 0.5968(11) -0.0693(2)
H6 H 0.1592(10) 0.2850(51) -0.0913(4)
C6 C 0.4110(3) 0.0388(9) 0.2232(2)
H7 H 0.3667(24) -0.0677(73) 0.2660(13)
C7 C 0.7329(3) 0.1219(8) 0.31731(15)
C8 C 0.7959(3) 0.0273(10) 0.3891(2)
H8 H 0.7422(25) -0.0709(80) 0.4288(14)
C9 C 0.9305(3) 0.0979(9) 0.4052(2)
H9 H 0.9721(3) 0.0341(9) 0.4527(2)
C10 C 1.0049(3) 0.2635(12) 0.35095(15)
C11 C 0.9445(3) 0.3574(8) 0.2799(2)
H10 H 0.9961(3) 0.4664(8) 0.2436(2)
C12 C 0.8107(3) 0.2923(12) 0.26235(14)
H11 H 0.7705(3) 0.3592(12) 0.21466(14)
O3 O 0.4667(3) -0.2938(11) 0.4377(2)
H12 H 0.391(4) -0.366(13) 0.424(2)
H13 H 0.461(4) -0.111(11) 0.467(2)
loop_
_geom_bond_atom_site_label_1
_geom_bond_atom_site_label_2
_geom_bond_site_symmetry_1
_geom_bond_site_symmetry_2
S1 C1 1_555 1_555
N1 O1 1_555 1_555
N2 N3 1_555 1_555
N3 H1 1_555 1_555
O2 N1 1_555 1_555
C1 C2 1_555 1_555
C2 H2 1_555 1_555
C3 C2 1_555 1_555
H3 C3 1_555 1_555
C4 S1 1_555 1_555
C5 C4 1_555 1_555
H4 C5 1_555 1_555
H5 C5 1_555 1_555
H6 C5 1_555 1_555
C6 N2 1_555 1_555
H7 C6 1_555 1_555
C7 N3 1_555 1_555
C8 C7 1_555 1_555
H8 C8 1_555 1_555
C9 C8 1_555 1_555
H9 C9 1_555 1_555
C10 N1 1_555 1_555
C11 C10 1_555 1_555
H10 C11 1_555 1_555
C12 C7 1_555 1_555
H11 C12 1_555 1_555
O3 H12 1_555 1_555
H13 O3 1_555 1_555
C1 C6 1_555 1_555
C3 C4 1_555 1_555
C9 C10 1_555 1_555
C11 C12 1_555 1_555

#END
