
#######################################################################
#
#                 Cambridge Crystallographic Data Centre
#                                CCDC 
#
#######################################################################
#
# If this CIF has been generated from an entry in the Cambridge 
# Structural Database, then it will include bibliographic, chemical, 
# crystal, experimental, refinement or atomic coordinate data resulting 
# from the CCDC's data processing and validation procedures.
#
#######################################################################

data_RAVTOZ
_chemical_compound_source        'Dried roots of Euphorbia prolifera'
_chemical_name_common            'Euphorbialoid A hydrate'
_chemical_formula_moiety         'C38 H45 N1 O11,0.87(H2 O1)'
_chemical_name_systematic        
'(3-Acetoxy-4-(benzoyloxy)-7a,9-dihydroxy-1,1,6,9-tetramethyl-8-oxo-5-(propionyloxy)tetradecahydro-3aH-cyclopropa[3,4]benzo[1,2-f]azulen-3a-yl)methyl nicotinate hydrate'
_symmetry_cell_setting           monoclinic
_symmetry_space_group_name_H-M   'P 21'
_symmetry_Int_Tables_number      4
_space_group_name_Hall           'P 2yb'
loop_
_symmetry_equiv_pos_site_id
_symmetry_equiv_pos_as_xyz
1 x,y,z
2 -x,1/2+y,-z
_cell_length_a                   12.099(2)
_cell_length_b                   20.246(4)
_cell_length_c                   14.958(3)
_cell_angle_alpha                90
_cell_angle_beta                 93.712(4)
_cell_angle_gamma                90
_cell_volume                     3656.37
_exptl_crystal_colour            colorless
_exptl_crystal_description       prism
_cell_formula_units_Z            4
loop_
_atom_site_label
_atom_site_type_symbol
_atom_site_fract_x
_atom_site_fract_y
_atom_site_fract_z
N1 N 0.4997(2) 0.29121(13) 1.20905(16)
O1 O 0.62553(13) 0.60790(10) 0.99872(11)
O2 O 0.72806(16) 0.59186(11) 1.12800(13)
O3 O 0.49876(14) 0.49326(9) 0.98036(11)
O4 O 0.58436(15) 0.48915(11) 0.84964(12)
O5 O 0.32899(14) 0.44193(10) 1.08361(11)
O6 O 0.39285(17) 0.51795(11) 1.18462(12)
O7 O 0.34391(14) 0.45209(9) 0.80471(11)
O8 O 0.4278(2) 0.35275(13) 0.80135(17)
O9 O 0.09395(15) 0.63947(10) 0.84974(13)
H1 H 0.1114 0.6717 0.8182
O10 O 0.26736(15) 0.70420(11) 0.82267(13)
O11 O 0.47796(14) 0.66558(10) 0.86855(12)
H2 H 0.4791 0.7033 0.8452
C2 C 0.4159(2) 0.72115(15) 1.00185(18)
H7 H 0.3501 0.7269 1.0371
H8 H 0.4310 0.7632 0.9712
C3 C 0.5180(2) 0.69884(15) 1.06271(18)
H9 H 0.5011 0.7063 1.1265
C4 C 0.5297(2) 0.62321(14) 1.04792(17)
H10 H 0.5341 0.5996 1.1067
C5 C 0.42278(19) 0.60436(13) 0.99298(15)
H11 H 0.3631 0.6028 1.0362
C6 C 0.41594(19) 0.53890(13) 0.94147(16)
H12 H 0.4327 0.5477 0.8780
C7 C 0.3008(2) 0.50518(13) 0.94151(16)
C8 C 0.3091(2) 0.43774(14) 0.89292(17)
H13 H 0.3683 0.4110 0.9256
C9 C 0.2023(2) 0.39729(14) 0.88748(18)
H14 H 0.2026 0.3685 0.8340
H15 H 0.2033 0.3681 0.9406
C10 C 0.0947(2) 0.43573(15) 0.88260(17)
H16 H 0.0368 0.4162 0.9194
C11 C 0.0478(2) 0.47498(14) 0.80307(18)
C12 C 0.0978(2) 0.51040(14) 0.88487(16)
H17 H 0.0421 0.5308 0.9230
C13 C 0.2086(2) 0.54692(14) 0.88737(15)
H18 H 0.2306 0.5467 0.8241
C14 C 0.18573(19) 0.62163(13) 0.90921(16)
C15 C 0.2829(2) 0.66655(14) 0.88500(16)
C16 C 0.3985(2) 0.66442(14) 0.93397(16)
C17 C 0.6213(2) 0.73902(16) 1.0444(2)
H19 H 0.6370 0.7344 0.9812
H20 H 0.6845 0.7228 1.0824
H21 H 0.6085 0.7857 1.0578
C18 C 0.2626(2) 0.49160(15) 1.03524(17)
H22 H 0.2659 0.5332 1.0701
H23 H 0.1844 0.4768 1.0300
C19 C -0.0778(2) 0.47633(17) 0.7904(2)
H24 H -0.1094 0.4779 0.8490
H25 H -0.1038 0.4365 0.7583
H26 H -0.1012 0.5155 0.7556
C20 C 0.1023(2) 0.47531(16) 0.71542(18)
H27 H 0.0765 0.5136 0.6799
H28 H 0.0830 0.4347 0.6823
H29 H 0.1829 0.4778 0.7270
C21 C 0.1501(2) 0.63805(15) 1.00320(17)
H30 H 0.1214 0.6833 1.0039
H31 H 0.2140 0.6342 1.0466
H32 H 0.0922 0.6072 1.0192
C22 C 0.7200(2) 0.59441(15) 1.04746(17)
C23 C 0.8147(2) 0.58400(17) 0.9878(2)
H33 H 0.8844 0.5962 1.0221
H34 H 0.8189 0.5363 0.9737
C24 C 0.8086(4) 0.6211(3) 0.9028(4)
H35 H 0.7404 0.6091 0.8675
H36 H 0.8728 0.6101 0.8690
H37 H 0.8084 0.6685 0.9155
C25 C 0.5794(2) 0.47321(14) 0.92678(17)
C26 C 0.6584(2) 0.42768(14) 0.97485(18)
C27 C 0.6667(2) 0.42255(17) 1.06801(19)
H38 H 0.6217 0.4492 1.1033
C28 C 0.7416(2) 0.37802(18) 1.1086(2)
H39 H 0.7461 0.3734 1.1720
C29 C 0.8092(2) 0.34045(17) 1.0582(2)
H40 H 0.8601 0.3103 1.0868
C30 C 0.8032(2) 0.34659(17) 0.9655(2)
H41 H 0.8502 0.3209 0.9307
C31 C 0.7284(2) 0.39026(15) 0.9243(2)
H42 H 0.7247 0.3949 0.8610
C32 C 0.4020(2) 0.40437(17) 0.7649(2)
C33 C 0.4252(3) 0.4240(2) 0.6722(2)
H43 H 0.4724 0.3907 0.6464
H44 H 0.4631 0.4668 0.6736
H45 H 0.3553 0.4275 0.6355
C34 C 0.3886(2) 0.46178(14) 1.15789(16)
C35 C 0.4475(2) 0.40559(15) 1.20393(17)
C36 C 0.4455(2) 0.34207(15) 1.17013(18)
H46 H 0.4028 0.3341 1.1157
C37 C 0.5582(3) 0.30339(18) 1.2866(2)
H47 H 0.5964 0.2678 1.3161
C38 C 0.5655(3) 0.36504(19) 1.3256(2)
H48 H 0.6088 0.3716 1.3802
C39 C 0.5087(2) 0.41750(16) 1.28405(19)
H49 H 0.5117 0.4604 1.3098
N2 N 1.2027(2) 0.33004(16) 0.2955(2)
O12 O 0.72789(16) 0.58169(11) 0.46044(12)
C1 C 0.6967(4) 0.5249(3) 0.5946(2)
H3 H 0.7747 0.5253 0.6110
H4 H 0.6675 0.4837 0.6145
O13 O 0.91856(15) 0.53024(10) 0.37182(11)
O14 O 0.96135(18) 0.51775(11) 0.51991(13)
O15 O 1.07441(17) 0.51553(10) 0.24771(12)
O16 O 1.00698(16) 0.48901(11) 0.10905(13)
O17 O 1.13592(14) 0.62298(10) 0.47176(11)
O18 O 1.23457(18) 0.53696(12) 0.52948(13)
O19 O 1.02050(16) 0.80159(10) 0.25003(13)
H5 H 0.9841 0.8318 0.2729
O20 O 0.84143(18) 0.81171(11) 0.32865(15)
O21 O 0.80546(19) 0.71087(12) 0.45038(12)
H6 H 0.8728 0.7149 0.4669
C40 C 0.6724(2) 0.70725(18) 0.3208(2)
H50 H 0.6352 0.7431 0.3524
H51 H 0.6672 0.7169 0.2558
C41 C 0.6193(3) 0.64025(17) 0.3394(2)
H52 H 0.5803 0.6241 0.2825
C42 C 0.7165(2) 0.59271(16) 0.36488(18)
H53 H 0.7062 0.5498 0.3322
C43 C 0.8194(2) 0.62864(14) 0.33573(17)
H54 H 0.8201 0.6241 0.2692
C44 C 0.9294(2) 0.60179(14) 0.37614(16)
H55 H 0.9404 0.6160 0.4401
C45 C 1.0350(2) 0.61872(15) 0.32574(16)
C46 C 1.1364(2) 0.59153(15) 0.38448(16)
H56 H 1.1248 0.5431 0.3930
C47 C 1.2485(2) 0.60098(16) 0.34477(17)
H57 H 1.3060 0.6034 0.3948
H58 H 1.2640 0.5611 0.3093
C48 C 1.2608(2) 0.66056(16) 0.28593(18)
H59 H 1.3034 0.6514 0.2321
C49 C 1.2666(2) 0.73227(15) 0.31581(18)
C50 C 1.1630(2) 0.70616(15) 0.26675(17)
H60 H 1.1526 0.7208 0.2029
C51 C 1.0544(2) 0.69464(14) 0.31221(16)
H61 H 1.0661 0.7138 0.3737
C52 C 0.9659(2) 0.73990(14) 0.26083(18)
C53 C 0.8650(2) 0.75449(14) 0.31549(17)
C54 C 0.7942(2) 0.70111(15) 0.35601(17)
C55 C 0.5350(3) 0.6460(3) 0.4099(4)
H62 H 0.5721 0.6610 0.4664
H63 H 0.5009 0.6028 0.4187
H64 H 0.4778 0.6780 0.3900
C56 C 1.0303(3) 0.58196(14) 0.23492(18)
H65 H 0.9527 0.5797 0.2097
H66 H 1.0742 0.6063 0.1921
C57 C 1.3369(2) 0.77775(18) 0.2623(2)
H67 H 1.3114 0.8234 0.2684
H68 H 1.3301 0.7649 0.1990
H69 H 1.4145 0.7744 0.2849
C58 C 1.2667(2) 0.75237(16) 0.41300(19)
H70 H 1.3432 0.7559 0.4383
H71 H 1.2272 0.7191 0.4462
H72 H 1.2297 0.7952 0.4175
C59 C 0.9246(2) 0.71704(15) 0.16686(17)
H73 H 0.8794 0.7519 0.1375
H74 H 0.8799 0.6770 0.1715
H75 H 0.9882 0.7076 0.1315
C60 C 0.6800(3) 0.52841(19) 0.4943(2)
O22 O 0.6259(4) 0.48967(17) 0.4499(2)
C61 C 0.9395(2) 0.49434(15) 0.44684(18)
C62 C 0.9365(2) 0.42237(15) 0.42611(19)
C63 C 0.9960(3) 0.37927(18) 0.4840(2)
H76 H 1.0324 0.3958 0.5376
C64 C 1.0023(3) 0.31315(19) 0.4642(2)
H77 H 1.0443 0.2844 0.5033
C65 C 0.9478(3) 0.28864(18) 0.3876(2)
H78 H 0.9520 0.2429 0.3741
C66 C 0.8872(3) 0.33022(18) 0.3306(3)
H79 H 0.8483 0.3130 0.2785
C67 C 0.8827(3) 0.39721(16) 0.3493(2)
H80 H 0.8424 0.4260 0.3090
C68 C 1.1926(2) 0.59009(16) 0.53862(17)
C69 C 1.1966(3) 0.62843(17) 0.62420(19)
H81 H 1.1222 0.6305 0.6464
H82 H 1.2232 0.6733 0.6134
H83 H 1.2470 0.6066 0.6688
C70 C 1.0556(2) 0.47406(14) 0.17878(17)
C71 C 1.1031(2) 0.40745(15) 0.19844(18)
C72 C 1.1619(2) 0.39175(16) 0.2786(2)
H84 H 1.1740 0.4251 0.3229
C73 C 1.1835(3) 0.2840(2) 0.2299(3)
H85 H 1.2104 0.2405 0.2409
C74 C 1.1283(3) 0.29648(19) 0.1500(3)
H86 H 1.1179 0.2627 0.1062
C75 C 1.0881(3) 0.35832(17) 0.1339(2)
H87 H 1.0495 0.3680 0.0781
C76 C 0.6420(12) 0.5822(6) 0.6433(4)
H88 H 0.6763 0.6240 0.6272
H89 H 0.6523 0.5755 0.7082
H90 H 0.5627 0.5835 0.6254
O23 O 0.6899(4) 0.8112(2) 0.5251(3)
O24 O 0.3765(4) 0.4433(3) 0.4573(3)
O25 O 0.9019(7) 0.6464(4) 0.6153(5)
C77? C 0.7051(11) 0.4505(9) 0.6142(9)
H91? H 0.6360 0.5450 0.6227
H92? H 0.7641 0.5467 0.6151
H93? H 0.6391 0.4281 0.5875
H94? H 0.7102 0.4433 0.6791
H95? H 0.7712 0.4326 0.5884
loop_
_geom_bond_atom_site_label_1
_geom_bond_atom_site_label_2
_geom_bond_site_symmetry_1
_geom_bond_site_symmetry_2
N1 C36 1_555 1_555
N2 C72 1_555 1_555
O1 C4 1_555 1_555
O2 C22 1_555 1_555
O3 C6 1_555 1_555
O4 C25 1_555 1_555
O5 C18 1_555 1_555
O6 C34 1_555 1_555
O7 C8 1_555 1_555
O8 C32 1_555 1_555
O9 H1 1_555 1_555
O10 C15 1_555 1_555
O11 H2 1_555 1_555
O12 C42 1_555 1_555
C1 H3 1_555 1_555
H4 C1 1_555 1_555
O13 C44 1_555 1_555
O14 C61 1_555 1_555
O15 C56 1_555 1_555
O16 C70 1_555 1_555
O17 C46 1_555 1_555
O18 C68 1_555 1_555
O19 H5 1_555 1_555
O20 C53 1_555 1_555
O21 H6 1_555 1_555
C2 H7 1_555 1_555
H8 C2 1_555 1_555
C3 C2 1_555 1_555
H9 C3 1_555 1_555
C4 C3 1_555 1_555
H10 C4 1_555 1_555
C5 C4 1_555 1_555
H11 C5 1_555 1_555
C6 C5 1_555 1_555
H12 C6 1_555 1_555
C7 C6 1_555 1_555
C8 C7 1_555 1_555
H13 C8 1_555 1_555
C9 C8 1_555 1_555
H14 C9 1_555 1_555
H15 C9 1_555 1_555
C10 C9 1_555 1_555
H16 C10 1_555 1_555
C11 C10 1_555 1_555
C12 C10 1_555 1_555
H17 C12 1_555 1_555
C13 C7 1_555 1_555
H18 C13 1_555 1_555
C14 O9 1_555 1_555
C15 C14 1_555 1_555
C16 O11 1_555 1_555
C17 C3 1_555 1_555
H19 C17 1_555 1_555
H20 C17 1_555 1_555
H21 C17 1_555 1_555
C18 C7 1_555 1_555
H22 C18 1_555 1_555
H23 C18 1_555 1_555
C19 C11 1_555 1_555
H24 C19 1_555 1_555
H25 C19 1_555 1_555
H26 C19 1_555 1_555
C20 C11 1_555 1_555
H27 C20 1_555 1_555
H28 C20 1_555 1_555
H29 C20 1_555 1_555
C21 C14 1_555 1_555
H30 C21 1_555 1_555
H31 C21 1_555 1_555
H32 C21 1_555 1_555
C22 O1 1_555 1_555
C23 C22 1_555 1_555
H33 C23 1_555 1_555
H34 C23 1_555 1_555
C24 C23 1_555 1_555
H35 C24 1_555 1_555
H36 C24 1_555 1_555
H37 C24 1_555 1_555
C25 O3 1_555 1_555
C26 C25 1_555 1_555
C27 C26 1_555 1_555
H38 C27 1_555 1_555
C28 C27 1_555 1_555
H39 C28 1_555 1_555
C29 C28 1_555 1_555
H40 C29 1_555 1_555
C30 C29 1_555 1_555
H41 C30 1_555 1_555
C31 C26 1_555 1_555
H42 C31 1_555 1_555
C32 O7 1_555 1_555
C33 C32 1_555 1_555
H43 C33 1_555 1_555
H44 C33 1_555 1_555
H45 C33 1_555 1_555
C34 O5 1_555 1_555
C35 C34 1_555 1_555
C36 C35 1_555 1_555
H46 C36 1_555 1_555
C37 N1 1_555 1_555
H47 C37 1_555 1_555
C38 C37 1_555 1_555
H48 C38 1_555 1_555
C39 C35 1_555 1_555
H49 C39 1_555 1_555
C40 H50 1_555 1_555
H51 C40 1_555 1_555
C41 C40 1_555 1_555
H52 C41 1_555 1_555
C42 C41 1_555 1_555
H53 C42 1_555 1_555
C43 C42 1_555 1_555
H54 C43 1_555 1_555
C44 C43 1_555 1_555
H55 C44 1_555 1_555
C45 C44 1_555 1_555
C46 C45 1_555 1_555
H56 C46 1_555 1_555
C47 C46 1_555 1_555
H57 C47 1_555 1_555
H58 C47 1_555 1_555
C48 C47 1_555 1_555
H59 C48 1_555 1_555
C49 C48 1_555 1_555
C50 C48 1_555 1_555
H60 C50 1_555 1_555
C51 C45 1_555 1_555
H61 C51 1_555 1_555
C52 O19 1_555 1_555
C53 C52 1_555 1_555
C54 O21 1_555 1_555
C55 C41 1_555 1_555
H62 C55 1_555 1_555
H63 C55 1_555 1_555
H64 C55 1_555 1_555
C56 C45 1_555 1_555
H65 C56 1_555 1_555
H66 C56 1_555 1_555
C57 C49 1_555 1_555
H67 C57 1_555 1_555
H68 C57 1_555 1_555
H69 C57 1_555 1_555
C58 C49 1_555 1_555
H70 C58 1_555 1_555
H71 C58 1_555 1_555
H72 C58 1_555 1_555
C59 C52 1_555 1_555
H73 C59 1_555 1_555
H74 C59 1_555 1_555
H75 C59 1_555 1_555
C60 O12 1_555 1_555
O22 C60 1_555 1_555
C61 O13 1_555 1_555
C62 C61 1_555 1_555
C63 C62 1_555 1_555
H76 C63 1_555 1_555
C64 C63 1_555 1_555
H77 C64 1_555 1_555
C65 C64 1_555 1_555
H78 C65 1_555 1_555
C66 C65 1_555 1_555
H79 C66 1_555 1_555
C67 C62 1_555 1_555
H80 C67 1_555 1_555
C68 O17 1_555 1_555
C69 C68 1_555 1_555
H81 C69 1_555 1_555
H82 C69 1_555 1_555
H83 C69 1_555 1_555
C70 O15 1_555 1_555
C71 C70 1_555 1_555
C72 C71 1_555 1_555
H84 C72 1_555 1_555
C73 N2 1_555 1_555
H85 C73 1_555 1_555
C74 C73 1_555 1_555
H86 C74 1_555 1_555
C75 C71 1_555 1_555
H87 C75 1_555 1_555
C76 C1 1_555 1_555
H88 C76 1_555 1_555
H89 C76 1_555 1_555
H90 C76 1_555 1_555
C1 C60 1_555 1_555
C2 C16 1_555 1_555
C5 C16 1_555 1_555
C11 C12 1_555 1_555
C12 C13 1_555 1_555
C13 C14 1_555 1_555
C15 C16 1_555 1_555
C30 C31 1_555 1_555
C38 C39 1_555 1_555
C40 C54 1_555 1_555
C43 C54 1_555 1_555
C49 C50 1_555 1_555
C50 C51 1_555 1_555
C51 C52 1_555 1_555
C53 C54 1_555 1_555
C66 C67 1_555 1_555
C74 C75 1_555 1_555

#END
