
#######################################################################
#
#                 Cambridge Crystallographic Data Centre
#                                CCDC 
#
#######################################################################
#
# If this CIF has been generated from an entry in the Cambridge 
# Structural Database, then it will include bibliographic, chemical, 
# crystal, experimental, refinement or atomic coordinate data resulting 
# from the CCDC's data processing and validation procedures.
#
#######################################################################

data_RAVXEU
_chemical_formula_moiety         'C18 H18 Cl1 N3 O1'
_chemical_name_systematic        
4-(4-chlorophenyl)-2-phenyl-3-(1H-1,2,4-triazol-1-yl)butan-2-ol
_symmetry_cell_setting           monoclinic
_symmetry_space_group_name_H-M   'P 21'
_symmetry_Int_Tables_number      4
_space_group_name_Hall           'P 2yb'
loop_
_symmetry_equiv_pos_site_id
_symmetry_equiv_pos_as_xyz
1 x,y,z
2 -x,1/2+y,-z
_cell_length_a                   11.6963(15)
_cell_length_b                   7.8375(10)
_cell_length_c                   18.213(2)
_cell_angle_alpha                90
_cell_angle_beta                 96.443(2)
_cell_angle_gamma                90
_cell_volume                     1659.04
_exptl_crystal_colour            colorless
_exptl_crystal_description       block
_cell_formula_units_Z            4
loop_
_atom_site_label
_atom_site_type_symbol
_atom_site_fract_x
_atom_site_fract_y
_atom_site_fract_z
Cl1 Cl 0.33217(7) 0.28456(10) 0.38654(4)
O1 O 0.54128(16) 0.3713(3) 0.85742(11)
H1 H 0.563191 0.278326 0.840764
N1 N 0.40174(19) 0.1817(3) 0.73850(12)
N2 N 0.50758(19) 0.1078(3) 0.75324(13)
N3 N 0.3760(2) -0.0853(3) 0.70548(16)
C1 C 0.4194(2) 0.3856(3) 0.84154(14)
C2 C 0.3844(2) 0.3613(3) 0.75685(14)
H2 H 0.300388 0.386983 0.746326
C3 C 0.3887(2) 0.5656(4) 0.86599(15)
H3 H 0.414634 0.580031 0.918684
H4 H 0.305174 0.581680 0.857493
H5 H 0.426742 0.650236 0.837406
C4 C 0.3263(3) 0.0657(4) 0.71051(16)
H6 H 0.247114 0.088016 0.696007
C5 C 0.4865(3) -0.0513(4) 0.73290(18)
H7 H 0.544559 -0.136603 0.737116
C6 C 0.4490(3) 0.4758(4) 0.70706(14)
H8 H 0.428292 0.596429 0.714882
H9 H 0.532808 0.463415 0.721114
C7 C 0.4210(2) 0.4316(3) 0.62616(14)
C8 C 0.4887(2) 0.3173(4) 0.59156(15)
H10 H 0.554979 0.269430 0.618918
C9 C 0.4618(2) 0.2718(4) 0.51816(14)
H11 H 0.508792 0.194000 0.495099
C10 C 0.3652(2) 0.3419(4) 0.47937(15)
C11 C 0.2957(2) 0.4551(4) 0.51144(16)
H12 H 0.229489 0.501871 0.483651
C12 C 0.3240(3) 0.5000(4) 0.58522(15)
H13 H 0.276628 0.578133 0.607866
C13 C 0.3568(2) 0.2500(3) 0.88271(13)
C14 C 0.4157(2) 0.1327(4) 0.92983(15)
H14 H 0.497167 0.139173 0.939067
C15 C 0.3571(3) 0.0056(4) 0.96380(16)
H15 H 0.398490 -0.073191 0.996320
C16 C 0.2389(3) -0.0057(4) 0.95020(16)
H16 H 0.198796 -0.093230 0.972757
C17 C 0.1790(2) 0.1111(4) 0.90347(16)
H17 H 0.097645 0.103749 0.894067
C18 C 0.2372(2) 0.2384(4) 0.87050(15)
H18 H 0.195180 0.318866 0.839136
Cl2 Cl 0.76319(7) 1.08508(10) 0.95917(4)
O2 O 1.03269(16) 0.2019(2) 0.73221(11)
H19 H 1.035562 0.099547 0.718922
N4 N 0.98687(18) 0.5739(3) 0.73423(11)
N5 N 1.10129(19) 0.5723(3) 0.75822(14)
N6 N 1.0479(2) 0.8316(3) 0.71271(14)
C19 C 0.9225(2) 0.2705(3) 0.70733(14)
C20 C 0.9080(2) 0.4369(3) 0.75106(15)
H20 H 0.828674 0.479367 0.734563
C21 C 0.8276(2) 0.1446(4) 0.72322(17)
H21 H 0.825756 0.048943 0.688438
H22 H 0.753007 0.202888 0.717503
H23 H 0.843504 0.101542 0.773863
C22 C 0.9582(3) 0.7288(3) 0.70837(16)
H24 H 0.882408 0.761166 0.689158
C23 C 1.1330(2) 0.7281(3) 0.74308(17)
H25 H 1.210432 0.765557 0.752798
C24 C 0.9152(3) 0.4178(3) 0.83567(15)
H26 H 0.864748 0.323102 0.848141
H27 H 0.995120 0.389806 0.855839
C25 C 0.8782(2) 0.5819(4) 0.87022(14)
C26 C 0.7623(2) 0.6272(4) 0.86363(16)
H28 H 0.706709 0.551129 0.839839
C27 C 0.7263(2) 0.7802(4) 0.89088(16)
H29 H 0.647043 0.809942 0.885527
C28 C 0.8079(2) 0.8894(4) 0.92615(15)
C29 C 0.9229(2) 0.8464(4) 0.93548(15)
H30 H 0.977761 0.920955 0.961068
C30 C 0.9576(2) 0.6933(4) 0.90706(15)
H31 H 1.036862 0.663808 0.912848
C31 C 0.9102(2) 0.3086(3) 0.62411(14)
C32 C 0.9964(3) 0.2680(4) 0.58051(16)
H32 H 1.067225 0.222835 0.603000
C33 C 0.9807(3) 0.2922(5) 0.50475(18)
H33 H 1.039749 0.260243 0.475648
C34 C 0.8801(3) 0.3623(4) 0.47126(18)
H34 H 0.870015 0.379717 0.419318
C35 C 0.7940(3) 0.4071(4) 0.51377(17)
H35 H 0.724669 0.456444 0.491062
C36 C 0.8086(3) 0.3800(4) 0.58946(16)
H36 H 0.748722 0.410325 0.618186
loop_
_geom_bond_atom_site_label_1
_geom_bond_atom_site_label_2
_geom_bond_site_symmetry_1
_geom_bond_site_symmetry_2
Cl1 C10 1_555 1_555
O1 H1 1_555 1_555
N1 N2 1_555 1_555
N2 C5 1_555 1_555
N3 C4 1_555 1_555
C1 O1 1_555 1_555
C2 N1 1_555 1_555
H2 C2 1_555 1_555
C3 C1 1_555 1_555
H3 C3 1_555 1_555
H4 C3 1_555 1_555
H5 C3 1_555 1_555
C4 N1 1_555 1_555
H6 C4 1_555 1_555
C5 N3 1_555 1_555
H7 C5 1_555 1_555
C6 C2 1_555 1_555
H8 C6 1_555 1_555
H9 C6 1_555 1_555
C7 C6 1_555 1_555
C8 C7 1_555 1_555
H10 C8 1_555 1_555
C9 C8 1_555 1_555
H11 C9 1_555 1_555
C10 C9 1_555 1_555
C11 C10 1_555 1_555
H12 C11 1_555 1_555
C12 C7 1_555 1_555
H13 C12 1_555 1_555
C13 C1 1_555 1_555
C14 C13 1_555 1_555
H14 C14 1_555 1_555
C15 C14 1_555 1_555
H15 C15 1_555 1_555
C16 C15 1_555 1_555
H16 C16 1_555 1_555
C17 C16 1_555 1_555
H17 C17 1_555 1_555
C18 C13 1_555 1_555
H18 C18 1_555 1_555
Cl2 C28 1_555 1_555
O2 H19 1_555 1_555
N4 N5 1_555 1_555
N5 C23 1_555 1_555
N6 C22 1_555 1_555
C19 O2 1_555 1_555
C20 N4 1_555 1_555
H20 C20 1_555 1_555
C21 C19 1_555 1_555
H21 C21 1_555 1_555
H22 C21 1_555 1_555
H23 C21 1_555 1_555
C22 N4 1_555 1_555
H24 C22 1_555 1_555
C23 N6 1_555 1_555
H25 C23 1_555 1_555
C24 C20 1_555 1_555
H26 C24 1_555 1_555
H27 C24 1_555 1_555
C25 C24 1_555 1_555
C26 C25 1_555 1_555
H28 C26 1_555 1_555
C27 C26 1_555 1_555
H29 C27 1_555 1_555
C28 C27 1_555 1_555
C29 C28 1_555 1_555
H30 C29 1_555 1_555
C30 C25 1_555 1_555
H31 C30 1_555 1_555
C31 C19 1_555 1_555
C32 C31 1_555 1_555
H32 C32 1_555 1_555
C33 C32 1_555 1_555
H33 C33 1_555 1_555
C34 C33 1_555 1_555
H34 C34 1_555 1_555
C35 C34 1_555 1_555
H35 C35 1_555 1_555
C36 C31 1_555 1_555
H36 C36 1_555 1_555
C1 C2 1_555 1_555
C11 C12 1_555 1_555
C17 C18 1_555 1_555
C19 C20 1_555 1_555
C29 C30 1_555 1_555
C35 C36 1_555 1_555

#END
