
#######################################################################
#
#                 Cambridge Crystallographic Data Centre
#                                CCDC 
#
#######################################################################
#
# If this CIF has been generated from an entry in the Cambridge 
# Structural Database, then it will include bibliographic, chemical, 
# crystal, experimental, refinement or atomic coordinate data resulting 
# from the CCDC's data processing and validation procedures.
#
#######################################################################

data_RAVYUK
_chemical_formula_moiety         
'4(Na1 1+),C62 H68 N16 O24 S4 4-,12(C2 H1 F3 O2),12.5(H2 O1)'
_chemical_name_systematic        
"Tetra-sodium 3,3',3'',3'''-((19b,19c,25b,25c-tetramethyl-6,8,10,12,19,21,23,25-octaoxo-5a,6a,7a,8a,9a,10a,11a,12a,18a,19a,20a,21a,22a,23a,24a,25a-hexadecaazabenzo[5,6]cyclohepta[1,2,3-cd]benzo[5'''''',6'''''']cyclohepta[1'''''',2'''''',3'''''':3''''',4''''']pentaleno[1''''',6''''':5'''',6'''',7'''']cycloocta[1'''',2'''',3'''':3''',4''']pentaleno[1''',6''':5'',6'',7'']cycloocta[1'',2'',3'':3',4']pentaleno[1',6':5,6,7]cycloocta[1,2,3-gh]pentalene-1,4,14,17-tetrayl)tetraoxy)tetrapropane-1-sulfonate acyclic cucurbit[6]uril bis(trifluoroacetic acid) clathrate trifluoroacetic acid solvate hydrate"
_symmetry_cell_setting           triclinic
_symmetry_space_group_name_H-M   'P -1'
_symmetry_Int_Tables_number      2
_space_group_name_Hall           '-P 1'
loop_
_symmetry_equiv_pos_site_id
_symmetry_equiv_pos_as_xyz
1 x,y,z
2 -x,-y,-z
_cell_length_a                   19.457(2)
_cell_length_b                   23.652(2)
_cell_length_c                   29.876(3)
_cell_angle_alpha                80.705(1)
_cell_angle_beta                 87.973(1)
_cell_angle_gamma                75.360(1)
_cell_volume                     13127.6
_exptl_crystal_colour            colorless
_exptl_crystal_description       prism
_cell_formula_units_Z            4
loop_
_atom_site_label
_atom_site_type_symbol
_atom_site_fract_x
_atom_site_fract_y
_atom_site_fract_z
Na1 Na 0.86463(10) 0.94973(9) 0.79165(6)
Na2 Na 0.81120(11) 1.14072(9) 0.75904(7)
Na3 Na 0.86835(10) 0.91082(8) 0.69187(6)
Na4 Na 0.73372(18) 0.87793(12) 0.76776(8)
Na5 Na 1.11561(17) 0.58414(16) 0.96645(8)
Na6 Na 0.59114(13) 1.07512(10) 0.80784(8)
Na7 Na 0.34483(16) 0.53777(13) 0.54967(11)
Na8 Na 1.0437(3) 0.4772(2) 1.02365(14)
S1 S 0.61216(12) 0.96022(10) 0.91449(7)
O1 O 0.5591(3) 0.9458(3) 0.8877(3)
O2 O 0.6656(3) 0.9766(2) 0.88728(19)
O3 O 0.5748(4) 1.0049(3) 0.9406(2)
S2 S 0.79475(10) 0.40012(6) 1.21846(5)
O4 O 0.7464(3) 0.39082(18) 1.25524(15)
O5 O 0.8681(3) 0.3891(2) 1.23390(15)
O6 O 0.7905(3) 0.36756(18) 1.18160(14)
S3 S 0.69415(8) 1.15706(6) 0.85560(4)
O7 O 0.6634(4) 1.2086(2) 0.87664(18)
O8 O 0.6391(3) 1.1344(2) 0.84082(17)
O9 O 0.7406(2) 1.17143(19) 0.82068(15)
S4 S 1.09464(9) 0.74657(7) 1.21498(5)
O10 O 1.0378(3) 0.72473(18) 1.24041(13)
O11 O 1.1180(3) 0.7883(2) 1.23612(13)
O12 O 1.1516(3) 0.6975(2) 1.20634(16)
N1 N 0.6573(3) 0.6921(2) 0.95359(15)
N2 N 0.6961(3) 0.5905(2) 0.98903(16)
N3 N 0.6697(3) 0.6725(2) 0.88394(15)
N4 N 0.7406(3) 0.5765(2) 0.92152(16)
N5 N 0.7534(3) 0.6788(2) 0.82230(15)
N6 N 0.8269(3) 0.5866(2) 0.86254(15)
N7 N 0.8481(3) 0.70428(19) 0.79063(14)
N8 N 0.9223(3) 0.6153(2) 0.83491(15)
N9 N 0.9435(2) 0.75347(18) 0.78203(14)
N10 N 1.0138(2) 0.66696(17) 0.83042(15)
N11 N 1.0186(2) 0.80720(16) 0.79269(13)
N12 N 1.0780(2) 0.72474(17) 0.85051(13)
N13 N 1.0594(2) 0.87365(16) 0.83414(12)
N14 N 1.1224(2) 0.79068(17) 0.88929(13)
N15 N 1.0435(2) 0.92809(16) 0.88914(12)
N16 N 1.1128(2) 0.84917(17) 0.94148(13)
O13 O 0.7585(2) 0.79136(15) 0.99307(12)
O14 O 0.8242(2) 0.56471(15) 1.09359(11)
O15 O 0.6776(2) 0.76432(18) 0.89647(13)
O16 O 0.8093(3) 0.52949(19) 0.98609(14)
O17 O 0.7457(2) 0.77830(18) 0.79788(12)
O18 O 0.9319(3) 0.55234(17) 0.90355(14)
O19 O 0.90335(18) 0.85489(14) 0.76952(10)
O20 O 1.0716(2) 0.64066(15) 0.89958(12)
O21 O 0.95407(18) 0.94432(13) 0.83691(11)
O22 O 1.1120(2) 0.75082(15) 0.96363(12)
O23 O 0.86789(17) 1.01733(13) 0.94221(10)
O24 O 1.03011(17) 0.83598(13) 1.06570(10)
C1 C 0.8369(3) 0.7157(2) 1.04552(16)
C2 C 0.8872(3) 0.7501(2) 1.04578(18)
H1 H 0.8774 0.7888 1.0287
C3 C 0.9493(4) 0.7288(3) 1.07002(19)
H2 H 0.9829 0.7520 1.0687
C4 C 0.9633(4) 0.6717(3) 1.0972(2)
H3 H 1.0060 0.6572 1.1145
C5 C 0.9156(3) 0.6381(2) 1.09851(18)
H4 H 0.9248 0.6007 1.1175
C6 C 0.8530(3) 0.6577(2) 1.07214(16)
C7 C 0.7735(3) 0.7350(2) 1.02027(16)
C8 C 0.7239(4) 0.8378(3) 1.0160(2)
H5 H 0.7574 0.8442 1.0378
H6 H 0.6836 0.8270 1.0334
C9 C 0.6977(4) 0.8927(3) 0.9844(3)
H7 H 0.6765 0.9246 1.0022
H8 H 0.7388 0.9033 0.9679
C10 C 0.6452(5) 0.8915(4) 0.9509(3)
H9 H 0.6047 0.8795 0.9671
H10 H 0.6669 0.8610 0.9319
C11 C 0.8047(3) 0.6227(2) 1.06950(16)
C12 C 0.7871(3) 0.5570(2) 1.13582(17)
H11 H 0.7353 0.5663 1.1304
H12 H 0.7965 0.5834 1.1561
C13 C 0.8146(4) 0.4927(2) 1.1570(2)
H13 H 0.8160 0.4671 1.1337
H14 H 0.8636 0.4862 1.1684
C14 C 0.7679(4) 0.4766(2) 1.1953(2)
H15 H 0.7183 0.4862 1.1843
H16 H 0.7694 0.5004 1.2194
C15 C 0.7282(3) 0.6996(2) 1.01849(17)
C16 C 0.7460(3) 0.6408(2) 1.04308(17)
C17 C 0.6592(3) 0.7227(3) 0.99155(19)
H17 H 0.6190 0.7183 1.0120
H18 H 0.6528 0.7654 0.9802
C18 C 0.7018(4) 0.5974(3) 1.03681(18)
H19 H 0.7237 0.5582 1.0547
H20 H 0.6535 0.6115 1.0489
C19 C 0.6437(4) 0.6329(3) 0.9588(2)
C20 C 0.5680(4) 0.6361(4) 0.9717(2)
H21 H 0.5614 0.5959 0.9795
H22 H 0.5369 0.6576 0.9461
H23 H 0.5561 0.6568 0.9979
C21 C 0.6689(3) 0.7139(3) 0.91022(19)
C22 C 0.7553(5) 0.5617(3) 0.9679(2)
C23 C 0.6680(4) 0.6154(3) 0.9112(2)
C24 C 0.6204(5) 0.5848(4) 0.8908(2)
H24 H 0.6399 0.5744 0.8617
H25 H 0.5728 0.6114 0.8860
H26 H 0.6176 0.5488 0.9115
C25 C 0.6798(4) 0.6849(3) 0.83570(18)
H27 H 0.6525 0.7259 0.8244
H28 H 0.6602 0.6578 0.8209
C26 C 0.7885(4) 0.5484(3) 0.88953(19)
H29 H 0.7612 0.5332 0.8689
H30 H 0.8232 0.5141 0.9062
C27 C 0.8028(4) 0.6222(3) 0.81917(18)
H31 H 0.7842 0.5994 0.7991
C28 C 0.7791(3) 0.7255(3) 0.80292(17)
C29 C 0.8967(4) 0.5820(2) 0.87042(19)
C30 C 0.8692(3) 0.6402(2) 0.79943(19)
H32 H 0.8842 0.6236 0.7709
C31 C 0.8863(3) 0.7397(2) 0.76050(17)
H33 H 0.9056 0.7183 0.7351
H34 H 0.8525 0.7772 0.7475
C32 C 0.9949(3) 0.6113(2) 0.8296(2)
H35 H 1.0102 0.5977 0.8004
H36 H 1.0211 0.5812 0.8541
C33 C 1.0126(3) 0.7098(2) 0.79055(17)
H37 H 1.0296 0.6907 0.7633
C34 C 0.9506(3) 0.80977(19) 0.78021(15)
C35 C 1.0564(3) 0.6737(2) 0.86392(17)
C36 C 1.0618(3) 0.7472(2) 0.80216(16)
H38 H 1.1058 0.7414 0.7833
C37 C 1.0469(3) 0.8590(2) 0.79018(15)
H39 H 1.0132 0.8933 0.7727
H40 H 1.0922 0.8521 0.7733
C38 C 1.1384(3) 0.7348(2) 0.87226(19)
H41 H 1.1777 0.7339 0.8502
H42 H 1.1549 0.7022 0.8978
C39 C 1.1242(3) 0.8476(2) 0.86175(16)
C40 C 1.1902(3) 0.8444(3) 0.83367(19)
H43 H 1.1915 0.8177 0.8116
H44 H 1.2321 0.8294 0.8535
H45 H 1.1902 0.8840 0.8177
C41 C 1.0126(3) 0.9179(2) 0.85198(15)
C42 C 1.1147(3) 0.7934(2) 0.93432(17)
C43 C 1.1142(3) 0.8892(2) 0.89878(15)
C44 C 1.1699(3) 0.9241(2) 0.89907(18)
H46 H 1.1589 0.9488 0.9230
H47 H 1.1698 0.9494 0.8696
H48 H 1.2168 0.8967 0.9047
C45 C 1.0083(3) 0.97068(19) 0.91761(15)
H49 H 0.9695 1.0001 0.8998
H50 H 1.0429 0.9920 0.9254
C46 C 1.0975(3) 0.8704(2) 0.98463(16)
H51 H 1.1249 0.9000 0.9865
H52 H 1.1146 0.8368 1.0093
C47 C 0.9770(3) 0.94530(19) 0.96167(15)
C48 C 1.0192(3) 0.89845(19) 0.99311(15)
C49 C 0.9085(3) 0.96996(19) 0.97207(15)
C50 C 0.8249(3) 0.9992(2) 0.91206(16)
H53 H 0.7869 0.9843 0.9292
H54 H 0.8544 0.9670 0.8971
C51 C 0.7928(3) 1.0519(2) 0.87709(15)
H55 H 0.7652 1.0395 0.8550
H56 H 0.8314 1.0665 0.8604
C52 C 0.7445(3) 1.1020(2) 0.89785(16)
H57 H 0.7736 1.1202 0.9149
H58 H 0.7118 1.0859 0.9195
C53 C 0.9893(3) 0.88069(19) 1.03386(15)
C54 C 1.0699(3) 0.8592(2) 1.09470(16)
H59 H 1.0375 0.8902 1.1094
H60 H 1.1049 0.8771 1.0766
C55 C 1.1082(3) 0.8087(2) 1.13059(16)
H61 H 1.1398 0.8233 1.1487
H62 H 1.1381 0.7768 1.1155
C56 C 1.0553(3) 0.7838(2) 1.16220(16)
H63 H 1.0372 0.7559 1.1473
H64 H 1.0144 0.8166 1.1676
C57 C 0.8763(3) 0.9516(2) 1.01379(15)
C58 C 0.8058(3) 0.9777(2) 1.02527(16)
H65 H 0.7773 1.0088 1.0045
C59 C 0.7782(3) 0.9590(2) 1.06554(17)
H66 H 0.7305 0.9769 1.0727
C60 C 0.8195(3) 0.9136(2) 1.09669(17)
H67 H 0.7998 0.9011 1.1250
C61 C 0.8878(3) 0.8871(2) 1.08677(16)
H68 H 0.9148 0.8557 1.1080
C62 C 0.9188(3) 0.90568(19) 1.04534(15)
S5 S 0.11447(7) 0.99602(6) 0.40581(4)
O25 O 0.1624(2) 1.01878(17) 0.37445(12)
O26 O 0.0746(2) 0.96147(18) 0.38436(14)
O27 O 0.0657(2) 1.04094(17) 0.42745(13)
S6 S 0.26664(7) 0.98038(5) 0.26002(4)
O28 O 0.2215(2) 0.94755(16) 0.24431(13)
O29 O 0.22488(18) 1.03912(14) 0.26641(11)
O30 O 0.3254(2) 0.98552(17) 0.23019(12)
S7 S 0.76940(8) 0.82068(6) 0.66215(5)
O31 O 0.7876(2) 0.85371(16) 0.69467(12)
O32 O 0.8272(2) 0.8004(2) 0.63243(15)
O33 O 0.7436(3) 0.77026(18) 0.68433(14)
N17 N 0.1272(2) 0.7197(2) 0.44201(14)
N18 N 0.1532(3) 0.6197(2) 0.48223(16)
N19 N 0.1603(2) 0.6933(2) 0.37523(14)
N20 N 0.2181(3) 0.6007(2) 0.42035(16)
N21 N 0.2558(2) 0.69282(19) 0.32067(14)
N22 N 0.3184(3) 0.60367(19) 0.36990(16)
N23 N 0.3577(2) 0.71128(18) 0.29485(14)
N24 N 0.4195(2) 0.62430(18) 0.34646(15)
N25 N 0.4602(2) 0.75119(18) 0.28322(13)
N26 N 0.5210(2) 0.66676(19) 0.33833(14)
N27 N 0.5490(2) 0.79529(18) 0.28264(13)
N28 N 0.5942(2) 0.72144(19) 0.34887(15)
N29 N 0.6016(2) 0.86594(19) 0.31134(15)
N30 N 0.6460(2) 0.7920(2) 0.37745(15)
N31 N 0.5758(2) 0.92510(18) 0.36291(14)
N32 N 0.6527(2) 0.8591(2) 0.41990(16)
O34 O 0.2069(2) 0.82493(15) 0.49626(11)
O35 O 0.2593(2) 0.59754(16) 0.59472(14)
O36 O 0.1652(2) 0.78621(16) 0.38812(12)
O37 O 0.2666(2) 0.55962(18) 0.49131(15)
O38 O 0.25743(19) 0.78962(15) 0.29257(11)
O39 O 0.4161(2) 0.57032(16) 0.41805(13)
O40 O 0.43953(19) 0.85062(15) 0.25394(11)
O41 O 0.49394(19) 0.93588(15) 0.30679(11)
O42 O 0.5763(2) 0.64943(18) 0.40774(13)
O43 O 0.6372(2) 0.76892(18) 0.45514(14)
O44 O 0.38964(17) 0.98977(14) 0.40670(10)
O45 O 0.5727(2) 0.85576(14) 0.54354(12)
C63 C 0.2768(3) 0.7493(2) 0.55235(18)
C64 C 0.3234(3) 0.7838(2) 0.5587(2)
H69 H 0.3163 0.8223 0.5415
C65 C 0.3786(4) 0.7639(3) 0.5887(2)
H70 H 0.4110 0.7873 0.5914
C66 C 0.3868(4) 0.7082(3) 0.6156(2)
H71 H 0.4238 0.6950 0.6377
C67 C 0.3439(4) 0.6729(3) 0.6112(2)
H72 H 0.3507 0.6354 0.6299
C68 C 0.2878(3) 0.6922(2) 0.57826(19)
C69 C 0.2195(3) 0.7681(2) 0.52168(16)
C70 C 0.1642(3) 0.8704(2) 0.51948(18)
H73 H 0.1953 0.8874 0.5360
H74 H 0.1332 0.8532 0.5418
C71 C 0.1193(3) 0.9182(2) 0.48493(19)
H75 H 0.0901 0.9498 0.5006
H76 H 0.0866 0.9012 0.4697
C72 C 0.1655(3) 0.9449(2) 0.44924(17)
H77 H 0.1979 0.9127 0.4357
H78 H 0.1950 0.9651 0.4642
C73 C 0.2448(3) 0.6546(2) 0.57013(19)
C74 C 0.2159(4) 0.5934(3) 0.6343(2)
H79 H 0.1651 0.6109 0.6264
H80 H 0.2296 0.6144 0.6573
C75 C 0.2288(9) 0.5281(6) 0.6521(10)
H81 H 0.1879 0.5210 0.6708
H82 H 0.2325 0.5061 0.6263
C76 C 0.2949(7) 0.5056(4) 0.6799(6)
H83 H 0.2932 0.5308 0.7036
H84 H 0.3361 0.5092 0.6602
S8 S 0.3079(4) 0.4296(2) 0.7068(2)
O46 O 0.2499(7) 0.4277(7) 0.7381(5)
O47 O 0.3764(5) 0.4135(4) 0.7294(4)
O48 O 0.3091(7) 0.3946(5) 0.6709(4)
C77 C 0.1764(3) 0.7323(2) 0.51382(17)
C78 C 0.1904(3) 0.6730(2) 0.53858(18)
C79 C 0.1179(3) 0.7537(3) 0.47997(18)
H85 H 0.0725 0.7514 0.4954
H86 H 0.1145 0.7957 0.4677
C80 C 0.1470(3) 0.6317(3) 0.52906(19)
H87 H 0.1624 0.5938 0.5500
H88 H 0.0964 0.6492 0.5354
C81 C 0.1131(3) 0.6610(3) 0.44576(19)
C82 C 0.0332(3) 0.6671(3) 0.4501(2)
H89 H 0.0236 0.6281 0.4514
H90 H 0.0088 0.6938 0.4237
H91 H 0.0160 0.6831 0.4778
C83 C 0.1523(3) 0.7373(2) 0.40115(17)
C84 C 0.2171(3) 0.5908(2) 0.4675(2)
C85 C 0.1506(3) 0.6394(3) 0.40142(19)
C86 C 0.1100(4) 0.6080(3) 0.3763(2)
H92 H 0.1404 0.5897 0.3531
H93 H 0.0680 0.6365 0.3619
H94 H 0.0950 0.5773 0.3977
C87 C 0.1798(3) 0.7032(3) 0.32827(17)
H95 H 0.1567 0.7446 0.3151
H96 H 0.1612 0.6769 0.3119
C88 C 0.2735(3) 0.5687(2) 0.3949(2)
H97 H 0.2519 0.5507 0.3731
H98 H 0.3038 0.5360 0.4160
C89 C 0.3031(3) 0.6342(2) 0.32412(19)
H99 H 0.2867 0.6094 0.3047
C90 C 0.2874(3) 0.7367(2) 0.30164(16)
C91 C 0.3875(3) 0.5974(2) 0.38172(19)
C92 C 0.3745(3) 0.6476(2) 0.30736(18)
H100 H 0.3933 0.6273 0.2810
C93 C 0.3993(3) 0.7414(2) 0.26282(16)
H101 H 0.4154 0.7177 0.2383
H102 H 0.3688 0.7801 0.2490
C94 C 0.4965(3) 0.6136(2) 0.34404(19)
H103 H 0.5175 0.5878 0.3722
H104 H 0.5136 0.5922 0.3183
C95 C 0.5228(3) 0.7027(2) 0.29456(17)
H105 H 0.5346 0.6779 0.2699
C96 C 0.4786(3) 0.8043(2) 0.27137(15)
C97 C 0.5651(3) 0.6765(2) 0.36842(18)
C98 C 0.5811(3) 0.7342(2) 0.30027(17)
H106 H 0.6248 0.7183 0.2830
C99 C 0.5885(3) 0.8401(2) 0.27241(17)
H107 H 0.5620 0.8721 0.2492
H108 H 0.6347 0.8223 0.2592
C100 C 0.6564(3) 0.7316(2) 0.3686(2)
H109 H 0.6970 0.7228 0.3477
H110 H 0.6687 0.7039 0.3974
C101 C 0.6593(3) 0.8413(2) 0.3435(2)
C102 C 0.7299(3) 0.8256(3) 0.3221(2)
H111 H 0.7653 0.8034 0.3451
H112 H 0.7430 0.8619 0.3082
H113 H 0.7281 0.8013 0.2987
C103 C 0.5508(3) 0.9116(2) 0.32496(17)
C104 C 0.6439(3) 0.8037(2) 0.4206(2)
C105 C 0.6486(3) 0.8920(2) 0.37404(19)
C106 C 0.6990(3) 0.9304(3) 0.3670(2)
H114 H 0.6851 0.9616 0.3859
H115 H 0.6982 0.9484 0.3350
H116 H 0.7471 0.9066 0.3754
C107 C 0.5360(3) 0.9693(2) 0.38780(17)
H117 H 0.4951 0.9940 0.3690
H118 H 0.5665 0.9953 0.3932
C108 C 0.6348(3) 0.8895(2) 0.45940(19)
H119 H 0.6551 0.9244 0.4551
H120 H 0.6577 0.8625 0.4866
C109 C 0.5081(3) 0.9449(2) 0.43337(16)
C110 C 0.5555(3) 0.9099(2) 0.46826(17)
C111 C 0.4365(3) 0.9602(2) 0.44141(15)
C112 C 0.3656(3) 0.9488(2) 0.38341(15)
H121 H 0.3310 0.9316 0.4024
H122 H 0.4064 0.9163 0.3775
C113 C 0.3309(3) 0.9830(2) 0.33875(16)
H123 H 0.2916 1.0166 0.3449
H124 H 0.3662 0.9992 0.3196
C114 C 0.3021(3) 0.94265(19) 0.31364(15)
H125 H 0.2646 0.9286 0.3320
H126 H 0.3408 0.9077 0.3094
C115 C 0.5280(3) 0.8932(2) 0.50981(16)
C116 C 0.6091(3) 0.8868(2) 0.56949(18)
H127 H 0.5752 0.9092 0.5898
H128 H 0.6301 0.9150 0.5488
C117 C 0.6669(3) 0.8403(2) 0.59713(18)
H129 H 0.6463 0.8098 0.6152
H130 H 0.7032 0.8208 0.5767
C118 C 0.7006(3) 0.8701(2) 0.62821(17)
H131 H 0.6636 0.8898 0.6482
H132 H 0.7200 0.9011 0.6097
C119 C 0.4081(3) 0.9473(2) 0.48537(16)
C120 C 0.3365(3) 0.9688(2) 0.49560(17)
H133 H 0.3042 0.9914 0.4723
C121 C 0.3124(3) 0.9573(2) 0.53919(17)
H134 H 0.2638 0.9731 0.5458
C122 C 0.3573(3) 0.9235(2) 0.57334(18)
H135 H 0.3395 0.9155 0.6031
C123 C 0.4275(3) 0.9016(2) 0.56451(17)
H136 H 0.4582 0.8780 0.5882
C124 C 0.4551(3) 0.9135(2) 0.52061(16)
O49 O 0.7942(2) 0.79779(19) 0.89205(14)
H137 H 0.7598 0.7821 0.8942
O50 O 0.8553(3) 0.70915(18) 0.92800(15)
C125 C 0.8486(4) 0.7615(3) 0.91346(18)
C126 C 0.9067(3) 0.7923(3) 0.91856(18)
F1 F 0.9624(2) 0.75618(17) 0.94019(13)
F2 F 0.88378(18) 0.83798(14) 0.94070(11)
F3 F 0.9278(2) 0.81370(17) 0.87788(11)
O51 O 0.2880(2) 0.80802(17) 0.39861(14)
H138 H 0.2471 0.8023 0.3993
O52 O 0.3189(2) 0.71640(17) 0.43877(17)
C127 C 0.3307(3) 0.7637(2) 0.4230(2)
C128 C 0.4015(4) 0.7765(3) 0.4307(3)
F4 F 0.4436(3) 0.7308(2) 0.4572(3)
F5 F 0.3936(2) 0.82220(16) 0.45236(13)
F6 F 0.4335(2) 0.7892(2) 0.3939(2)
O53 O 0.7734(3) 0.9128(2) 0.83458(18)
O54 O 0.9154(3) 0.9766(3) 0.7231(2)
O55 O 0.3885(3) 0.6147(3) 0.5018(2)
O56 O 0.9629(5) 0.8552(4) 0.6691(3)
O60 O 0.8652(6) 1.1144(5) 0.6793(4)
O57? O 0.9152(5) 1.0874(4) 0.7805(3)
O58? O 0.3128(6) 0.4536(5) 0.5716(3)
O59? O 0.5003(6) 1.0914(5) 0.8457(4)
O61? O 1.1477(6) 0.6211(5) 1.0202(4)
O62? O 1.0838(8) 0.5040(6) 0.9645(5)
O63? O 0.4267(8) 0.5387(6) 0.5942(5)
O64? O 0.9727(9) 0.4161(7) 0.9823(6)
O65? O 1.2171(8) 0.5807(6) 0.9389(5)
O66? O 1.0910(9) 0.3880(7) 1.0207(6)
O67? O 0.6349(10) 0.8877(8) 0.7393(7)
C129? C 0.2159(4) 0.5934(3) 0.6343(2)
C130? C 0.2128(9) 0.5332(6) 0.6586(11)
C131? C 0.2854(7) 0.4981(4) 0.6740(7)
H139? H 0.1667 0.6157 0.6255
H140? H 0.2323 0.6142 0.6564
H141? H 0.1810 0.5375 0.6850
H142? H 0.1933 0.5123 0.6379
H143? H 0.3026 0.5174 0.6969
H144? H 0.3182 0.4979 0.6479
O68? O 0.4355(9) 0.4790(7) 0.5256(5)
O69? O 0.6274(14) 0.8995(11) 0.7656(10)
O70? O 0.2293(7) 0.4254(8) 0.7302(5)
O71? O 0.3575(6) 0.3986(4) 0.7189(5)
O72? O 0.2773(8) 0.3926(6) 0.6615(4)
O73? O 1.0569(6) 0.5074(4) 0.9471(4)
O74? O 1.0204(5) 0.3819(4) 1.0133(3)
O75? O 0.5386(6) 1.0177(5) 0.7817(4)
S9? S 0.2873(4) 0.4227(2) 0.6984(3)
loop_
_geom_bond_atom_site_label_1
_geom_bond_atom_site_label_2
_geom_bond_site_symmetry_1
_geom_bond_site_symmetry_2
S1 O1 1_555 1_555
O2 S1 1_555 1_555
O3 S1 1_555 1_555
S2 O4 1_555 1_555
O5 S2 1_555 1_555
O6 S2 1_555 1_555
S3 O7 1_555 1_555
O8 S3 1_555 1_555
O9 S3 1_555 1_555
S4 O10 1_555 1_555
O11 S4 1_555 1_555
O12 S4 1_555 1_555
N1 C17 1_555 1_555
N2 C18 1_555 1_555
N3 C21 1_555 1_555
N4 C22 1_555 1_555
N5 C25 1_555 1_555
N6 C26 1_555 1_555
N7 C28 1_555 1_555
N8 C29 1_555 1_555
N9 C31 1_555 1_555
N10 C32 1_555 1_555
N11 C34 1_555 1_555
N12 C35 1_555 1_555
N13 C37 1_555 1_555
N14 C38 1_555 1_555
N15 C41 1_555 1_555
N16 C42 1_555 1_555
O13 C7 1_555 1_555
O14 C11 1_555 1_555
O15 C21 1_555 1_555
O16 C22 1_555 1_555
O17 C28 1_555 1_555
O18 C29 1_555 1_555
O19 C34 1_555 1_555
O20 C35 1_555 1_555
O21 C41 1_555 1_555
O22 C42 1_555 1_555
O23 C49 1_555 1_555
O24 C53 1_555 1_555
C1 C2 1_555 1_555
C2 H1 1_555 1_555
C3 C2 1_555 1_555
H2 C3 1_555 1_555
C4 C3 1_555 1_555
H3 C4 1_555 1_555
C5 C4 1_555 1_555
H4 C5 1_555 1_555
C6 C1 1_555 1_555
C7 C1 1_555 1_555
C8 O13 1_555 1_555
H5 C8 1_555 1_555
H6 C8 1_555 1_555
C9 C8 1_555 1_555
H7 C9 1_555 1_555
H8 C9 1_555 1_555
C10 S1 1_555 1_555
H9 C10 1_555 1_555
H10 C10 1_555 1_555
C11 C6 1_555 1_555
C12 O14 1_555 1_555
H11 C12 1_555 1_555
H12 C12 1_555 1_555
C13 C12 1_555 1_555
H13 C13 1_555 1_555
H14 C13 1_555 1_555
C14 S2 1_555 1_555
H15 C14 1_555 1_555
H16 C14 1_555 1_555
C15 C7 1_555 1_555
C16 C11 1_555 1_555
C17 C15 1_555 1_555
H17 C17 1_555 1_555
H18 C17 1_555 1_555
C18 C16 1_555 1_555
H19 C18 1_555 1_555
H20 C18 1_555 1_555
C19 N1 1_555 1_555
C20 C19 1_555 1_555
H21 C20 1_555 1_555
H22 C20 1_555 1_555
H23 C20 1_555 1_555
C21 N1 1_555 1_555
C22 N2 1_555 1_555
C23 N3 1_555 1_555
C24 C23 1_555 1_555
H24 C24 1_555 1_555
H25 C24 1_555 1_555
H26 C24 1_555 1_555
C25 N3 1_555 1_555
H27 C25 1_555 1_555
H28 C25 1_555 1_555
C26 N4 1_555 1_555
H29 C26 1_555 1_555
H30 C26 1_555 1_555
C27 N5 1_555 1_555
H31 C27 1_555 1_555
C28 N5 1_555 1_555
C29 N6 1_555 1_555
C30 N7 1_555 1_555
H32 C30 1_555 1_555
C31 N7 1_555 1_555
H33 C31 1_555 1_555
H34 C31 1_555 1_555
C32 N8 1_555 1_555
H35 C32 1_555 1_555
H36 C32 1_555 1_555
C33 N9 1_555 1_555
H37 C33 1_555 1_555
C34 N9 1_555 1_555
C35 N10 1_555 1_555
C36 N11 1_555 1_555
H38 C36 1_555 1_555
C37 N11 1_555 1_555
H39 C37 1_555 1_555
H40 C37 1_555 1_555
C38 N12 1_555 1_555
H41 C38 1_555 1_555
H42 C38 1_555 1_555
C39 N13 1_555 1_555
C40 C39 1_555 1_555
H43 C40 1_555 1_555
H44 C40 1_555 1_555
H45 C40 1_555 1_555
C41 N13 1_555 1_555
C42 N14 1_555 1_555
C43 N15 1_555 1_555
C44 C43 1_555 1_555
H46 C44 1_555 1_555
H47 C44 1_555 1_555
H48 C44 1_555 1_555
C45 N15 1_555 1_555
H49 C45 1_555 1_555
H50 C45 1_555 1_555
C46 N16 1_555 1_555
H51 C46 1_555 1_555
H52 C46 1_555 1_555
C47 C45 1_555 1_555
C48 C46 1_555 1_555
C49 C47 1_555 1_555
C50 O23 1_555 1_555
H53 C50 1_555 1_555
H54 C50 1_555 1_555
C51 C50 1_555 1_555
H55 C51 1_555 1_555
H56 C51 1_555 1_555
C52 S3 1_555 1_555
H57 C52 1_555 1_555
H58 C52 1_555 1_555
C53 C48 1_555 1_555
C54 O24 1_555 1_555
H59 C54 1_555 1_555
H60 C54 1_555 1_555
C55 C54 1_555 1_555
H61 C55 1_555 1_555
H62 C55 1_555 1_555
C56 S4 1_555 1_555
H63 C56 1_555 1_555
H64 C56 1_555 1_555
C57 C49 1_555 1_555
C58 C57 1_555 1_555
H65 C58 1_555 1_555
C59 C58 1_555 1_555
H66 C59 1_555 1_555
C60 C59 1_555 1_555
H67 C60 1_555 1_555
C61 C60 1_555 1_555
H68 C61 1_555 1_555
C62 C53 1_555 1_555
S5 O25 1_555 1_555
O26 S5 1_555 1_555
O27 S5 1_555 1_555
S6 O28 1_555 1_555
O29 S6 1_555 1_555
O30 S6 1_555 1_555
S7 O31 1_555 1_555
O32 S7 1_555 1_555
O33 S7 1_555 1_555
N17 C79 1_555 1_555
N18 C80 1_555 1_555
N19 C83 1_555 1_555
N20 C84 1_555 1_555
N21 C87 1_555 1_555
N22 C88 1_555 1_555
N23 C90 1_555 1_555
N24 C91 1_555 1_555
N25 C93 1_555 1_555
N26 C94 1_555 1_555
N27 C96 1_555 1_555
N28 C97 1_555 1_555
N29 C99 1_555 1_555
N30 C100 1_555 1_555
N31 C103 1_555 1_555
N32 C104 1_555 1_555
O34 C69 1_555 1_555
O35 C73 1_555 1_555
O36 C83 1_555 1_555
O37 C84 1_555 1_555
O38 C90 1_555 1_555
O39 C91 1_555 1_555
O40 C96 1_555 1_555
O41 C103 1_555 1_555
O42 C97 1_555 1_555
O43 C104 1_555 1_555
O44 C111 1_555 1_555
O45 C115 1_555 1_555
C63 C64 1_555 1_555
C64 H69 1_555 1_555
C65 C64 1_555 1_555
H70 C65 1_555 1_555
C66 C65 1_555 1_555
H71 C66 1_555 1_555
C67 C66 1_555 1_555
H72 C67 1_555 1_555
C68 C63 1_555 1_555
C69 C63 1_555 1_555
C70 O34 1_555 1_555
H73 C70 1_555 1_555
H74 C70 1_555 1_555
C71 C70 1_555 1_555
H75 C71 1_555 1_555
H76 C71 1_555 1_555
C72 S5 1_555 1_555
H77 C72 1_555 1_555
H78 C72 1_555 1_555
C73 C68 1_555 1_555
C74 O35 1_555 1_555
H79 C74 1_555 1_555
H80 C74 1_555 1_555
C75 C74 1_555 1_555
H81 C75 1_555 1_555
H82 C75 1_555 1_555
C76 C75 1_555 1_555
H83 C76 1_555 1_555
H84 C76 1_555 1_555
S8 C76 1_555 1_555
O46 S8 1_555 1_555
O47 S8 1_555 1_555
O48 S8 1_555 1_555
C77 C69 1_555 1_555
C78 C73 1_555 1_555
C79 C77 1_555 1_555
H85 C79 1_555 1_555
H86 C79 1_555 1_555
C80 C78 1_555 1_555
H87 C80 1_555 1_555
H88 C80 1_555 1_555
C81 N17 1_555 1_555
C82 C81 1_555 1_555
H89 C82 1_555 1_555
H90 C82 1_555 1_555
H91 C82 1_555 1_555
C83 N17 1_555 1_555
C84 N18 1_555 1_555
C85 N19 1_555 1_555
C86 C85 1_555 1_555
H92 C86 1_555 1_555
H93 C86 1_555 1_555
H94 C86 1_555 1_555
C87 N19 1_555 1_555
H95 C87 1_555 1_555
H96 C87 1_555 1_555
C88 N20 1_555 1_555
H97 C88 1_555 1_555
H98 C88 1_555 1_555
C89 N21 1_555 1_555
H99 C89 1_555 1_555
C90 N21 1_555 1_555
C91 N22 1_555 1_555
C92 N23 1_555 1_555
H100 C92 1_555 1_555
C93 N23 1_555 1_555
H101 C93 1_555 1_555
H102 C93 1_555 1_555
C94 N24 1_555 1_555
H103 C94 1_555 1_555
H104 C94 1_555 1_555
C95 N25 1_555 1_555
H105 C95 1_555 1_555
C96 N25 1_555 1_555
C97 N26 1_555 1_555
C98 N27 1_555 1_555
H106 C98 1_555 1_555
C99 N27 1_555 1_555
H107 C99 1_555 1_555
H108 C99 1_555 1_555
C100 N28 1_555 1_555
H109 C100 1_555 1_555
H110 C100 1_555 1_555
C101 N29 1_555 1_555
C102 C101 1_555 1_555
H111 C102 1_555 1_555
H112 C102 1_555 1_555
H113 C102 1_555 1_555
C103 N29 1_555 1_555
C104 N30 1_555 1_555
C105 N31 1_555 1_555
C106 C105 1_555 1_555
H114 C106 1_555 1_555
H115 C106 1_555 1_555
H116 C106 1_555 1_555
C107 N31 1_555 1_555
H117 C107 1_555 1_555
H118 C107 1_555 1_555
C108 N32 1_555 1_555
H119 C108 1_555 1_555
H120 C108 1_555 1_555
C109 C107 1_555 1_555
C110 C108 1_555 1_555
C111 C109 1_555 1_555
C112 O44 1_555 1_555
H121 C112 1_555 1_555
H122 C112 1_555 1_555
C113 C112 1_555 1_555
H123 C113 1_555 1_555
H124 C113 1_555 1_555
C114 S6 1_555 1_555
H125 C114 1_555 1_555
H126 C114 1_555 1_555
C115 C110 1_555 1_555
C116 O45 1_555 1_555
H127 C116 1_555 1_555
H128 C116 1_555 1_555
C117 C116 1_555 1_555
H129 C117 1_555 1_555
H130 C117 1_555 1_555
C118 S7 1_555 1_555
H131 C118 1_555 1_555
H132 C118 1_555 1_555
C119 C111 1_555 1_555
C120 C119 1_555 1_555
H133 C120 1_555 1_555
C121 C120 1_555 1_555
H134 C121 1_555 1_555
C122 C121 1_555 1_555
H135 C122 1_555 1_555
C123 C122 1_555 1_555
H136 C123 1_555 1_555
C124 C115 1_555 1_555
O49 H137 1_555 1_555
O50 C125 1_555 1_555
C125 O49 1_555 1_555
C126 C125 1_555 1_555
F1 C126 1_555 1_555
F2 C126 1_555 1_555
F3 C126 1_555 1_555
O51 H138 1_555 1_555
O52 C127 1_555 1_555
C127 O51 1_555 1_555
C128 C127 1_555 1_555
F4 C128 1_555 1_555
F5 C128 1_555 1_555
F6 C128 1_555 1_555
N2 C19 1_555 1_555
N4 C23 1_555 1_555
N6 C27 1_555 1_555
N8 C30 1_555 1_555
N10 C33 1_555 1_555
N12 C36 1_555 1_555
N14 C39 1_555 1_555
N16 C43 1_555 1_555
C5 C6 1_555 1_555
C9 C10 1_555 1_555
C13 C14 1_555 1_555
C15 C16 1_555 1_555
C19 C23 1_555 1_555
C27 C30 1_555 1_555
C33 C36 1_555 1_555
C39 C43 1_555 1_555
C47 C48 1_555 1_555
C51 C52 1_555 1_555
C55 C56 1_555 1_555
C57 C62 1_555 1_555
C61 C62 1_555 1_555
N18 C81 1_555 1_555
N20 C85 1_555 1_555
N22 C89 1_555 1_555
N24 C92 1_555 1_555
N26 C95 1_555 1_555
N28 C98 1_555 1_555
N30 C101 1_555 1_555
N32 C105 1_555 1_555
C67 C68 1_555 1_555
C71 C72 1_555 1_555
C77 C78 1_555 1_555
C81 C85 1_555 1_555
C89 C92 1_555 1_555
C95 C98 1_555 1_555
C101 C105 1_555 1_555
C109 C110 1_555 1_555
C113 C114 1_555 1_555
C117 C118 1_555 1_555
C119 C124 1_555 1_555
C123 C124 1_555 1_555

#END
