
#######################################################################
#
#                 Cambridge Crystallographic Data Centre
#                                CCDC 
#
#######################################################################
#
# If this CIF has been generated from an entry in the Cambridge 
# Structural Database, then it will include bibliographic, chemical, 
# crystal, experimental, refinement or atomic coordinate data resulting 
# from the CCDC's data processing and validation procedures.
#
#######################################################################

data_RAVZAQ
_chemical_formula_moiety         'C11 H18 N4 O3 S1'
_chemical_name_systematic        Histidinyl-methionine
_symmetry_cell_setting           monoclinic
_symmetry_space_group_name_H-M   'P 21'
_symmetry_Int_Tables_number      4
_space_group_name_Hall           'P 2yb'
loop_
_symmetry_equiv_pos_site_id
_symmetry_equiv_pos_as_xyz
1 x,y,z
2 -x,1/2+y,-z
_cell_length_a                   6.5893(13)
_cell_length_b                   5.4676(11)
_cell_length_c                   18.392(3)
_cell_angle_alpha                90
_cell_angle_beta                 96.499(6)
_cell_angle_gamma                90
_cell_volume                     658.363
_exptl_crystal_colour            colorless
_exptl_crystal_description       platy
_cell_formula_units_Z            2
loop_
_atom_site_label
_atom_site_type_symbol
_atom_site_fract_x
_atom_site_fract_y
_atom_site_fract_z
C1 C 0.3269(10) 1.0882(15) -0.0008(4)
H1 H 0.3959 1.2136 -0.0239
N1 N 0.2497(7) 0.8800(13) -0.0360(3)
C2 C 0.1683(9) 0.7581(15) 0.0148(3)
H2 H 0.1041 0.6032 0.0070
N2 N 0.1862(8) 0.8780(13) 0.0795(3)
H3 H 0.1389 0.8288 0.1200
C3 C 0.2934(9) 1.0940(15) 0.0704(4)
C4 C 0.3324(9) 1.2735(15) 0.1290(3)
H4 H 0.2003 1.3134 0.1470
H5 H 0.3827 1.4249 0.1075
C5 C 0.4867(9) 1.2023(14) 0.1964(4)
H6 H 0.4910 1.3367 0.2334
C6 C 0.4220(10) 0.9670(14) 0.2311(4)
N3 N 0.6981(7) 1.1667(12) 0.1741(3)
H7 H 0.7897 1.2532 0.2047
H8 H 0.7010 1.2204 0.1274
H9 H 0.7311 1.0051 0.1767
O1 O 0.5123(6) 0.7712(11) 0.2205(2)
N4 N 0.2706(8) 0.9811(12) 0.2733(3)
H10 H 0.2197 1.1248 0.2829
C7 C 0.1887(10) 0.7609(16) 0.3037(3)
H11 H 0.3091 0.6506 0.3154
C8 C 0.0983(14) 0.794(2) 0.3759(5)
H12 H 0.1924 0.8918 0.4101
H13 H 0.0804 0.6318 0.3986
C9 C -0.1090(13) 0.923(2) 0.3617(5)
H14 H -0.1894 0.8485 0.3186
H15 H -0.0868 1.0977 0.3504
S1 S -0.2530(5) 0.9021(8) 0.4406(2)
C10 C -0.3204(17) 0.5770(16) 0.4353(6)
H16 H -0.3999 0.5350 0.4754
H17 H -0.1954 0.4783 0.4391
H18 H -0.4018 0.5436 0.3884
C11 C 0.0445(10) 0.6212(15) 0.2469(4)
O2 O -0.0317(7) 0.7270(11) 0.1882(3)
O3 O 0.0053(6) 0.4051(11) 0.2634(2)
C12? C 0.057(4) 0.863(4) 0.3612(14)
H19? H 0.1514 0.9266 0.4027
H20? H -0.0211 1.0036 0.3390
C13? C -0.093(4) 0.690(4) 0.3925(10)
H21? H -0.0255 0.5298 0.4026
H22? H -0.2108 0.6629 0.3548
S2? S -0.1898(14) 0.797(2) 0.4760(5)
C14? C -0.322(4) 1.075(4) 0.4424(15)
H23? H -0.3810 1.1558 0.4827
H24? H -0.4308 1.0335 0.4036
H25? H -0.2244 1.1860 0.4228
C15? C 0.083(11) 0.832(11) 0.371(3)
H26? H 0.1862 0.9193 0.4047
H27? H -0.0232 0.9538 0.3539
C16? C -0.019(11) 0.644(16) 0.417(8)
H28? H 0.0716 0.6139 0.4629
H29? H -0.0340 0.4876 0.3897
S3? S -0.269(9) 0.743(12) 0.439(5)
C17? C -0.25(2) 1.072(13) 0.424(16)
H30? H -0.3608 1.1566 0.4435
H31? H -0.2528 1.1039 0.3714
H32? H -0.1176 1.1313 0.4489
loop_
_geom_bond_atom_site_label_1
_geom_bond_atom_site_label_2
_geom_bond_site_symmetry_1
_geom_bond_site_symmetry_2
C1 H1 1_555 1_555
N1 C1 1_555 1_555
C2 N1 1_555 1_555
H2 C2 1_555 1_555
N2 C2 1_555 1_555
H3 N2 1_555 1_555
C3 C1 1_555 1_555
C4 C3 1_555 1_555
H4 C4 1_555 1_555
H5 C4 1_555 1_555
C5 C4 1_555 1_555
H6 C5 1_555 1_555
C6 C5 1_555 1_555
N3 C5 1_555 1_555
H7 N3 1_555 1_555
H8 N3 1_555 1_555
H9 N3 1_555 1_555
O1 C6 1_555 1_555
N4 C6 1_555 1_555
H10 N4 1_555 1_555
C7 N4 1_555 1_555
H11 C7 1_555 1_555
C8 C7 1_555 1_555
H12 C8 1_555 1_555
H13 C8 1_555 1_555
C9 C8 1_555 1_555
H14 C9 1_555 1_555
H15 C9 1_555 1_555
S1 C9 1_555 1_555
C10 S1 1_555 1_555
H16 C10 1_555 1_555
H17 C10 1_555 1_555
H18 C10 1_555 1_555
C11 C7 1_555 1_555
O2 C11 1_555 1_555
O3 C11 1_555 1_555
N2 C3 1_555 1_555

#END
