
#######################################################################
#
#                 Cambridge Crystallographic Data Centre
#                                CCDC 
#
#######################################################################
#
# If this CIF has been generated from an entry in the Cambridge 
# Structural Database, then it will include bibliographic, chemical, 
# crystal, experimental, refinement or atomic coordinate data resulting 
# from the CCDC's data processing and validation procedures.
#
#######################################################################

data_RAVZUK
_chemical_formula_moiety         'C11 H16 N4 O5'
_chemical_name_systematic        Histidinyl-glutamate
_symmetry_cell_setting           monoclinic
_symmetry_space_group_name_H-M   'P 21'
_symmetry_Int_Tables_number      4
_space_group_name_Hall           'P 2yb'
loop_
_symmetry_equiv_pos_site_id
_symmetry_equiv_pos_as_xyz
1 x,y,z
2 -x,1/2+y,-z
_cell_length_a                   4.9316(7)
_cell_length_b                   15.472(2)
_cell_length_c                   8.6253(13)
_cell_angle_alpha                90
_cell_angle_beta                 99.102(4)
_cell_angle_gamma                90
_cell_volume                     649.838
_exptl_crystal_colour            colorless
_exptl_crystal_description       prism
_cell_formula_units_Z            2
loop_
_atom_site_label
_atom_site_type_symbol
_atom_site_fract_x
_atom_site_fract_y
_atom_site_fract_z
O1 O -0.1383(5) 0.03587(14) 0.4192(3)
O2 O 0.8998(5) 0.24537(15) 0.8958(3)
O3 O -0.0473(5) 0.29968(15) 0.4575(3)
O4 O 0.1260(5) 0.21888(15) 0.2820(3)
O5 O 0.7342(5) 0.16502(17) 1.0722(3)
H1 H 0.8584 0.1901 1.1339
N1 N 0.2899(5) 0.09193(17) 0.4862(3)
H2 H 0.4667 0.0805 0.4969
N2 N 0.5635(6) -0.09250(19) 0.0542(3)
N3 N 0.0472(5) -0.10400(17) 0.2759(3)
H3 H 0.0275 -0.1292 0.3688
H4 H 0.1219 -0.1427 0.2153
H5 H -0.1202 -0.0869 0.2251
N4 N 0.3330(6) -0.12246(18) -0.1808(3)
H6 H 0.2903 -0.1458 -0.2745
C1 C 0.4283(7) 0.2121(2) 0.6662(3)
H7 H 0.5924 0.2187 0.6144
H8 H 0.3718 0.2703 0.6962
C2 C 0.2540(7) 0.0180(2) 0.1506(4)
H9 H 0.0768 0.0463 0.1102
H10 H 0.3959 0.0636 0.1705
C3 C 0.3270(7) -0.0425(2) 0.0282(4)
C4 C 0.1097(8) 0.0359(2) 0.4113(4)
C5 C 0.7317(7) 0.1941(2) 0.9302(4)
C6 C 0.5560(7) -0.1399(2) -0.0762(4)
H11 H 0.6923 -0.1808 -0.0924
C7 C 0.5022(7) 0.1577(2) 0.8125(4)
H12 H 0.3372 0.1514 0.8637
H13 H 0.5555 0.0993 0.7814
C8 C 0.0846(6) 0.2357(2) 0.4173(4)
C9 C 0.2303(7) -0.0276(2) 0.3060(3)
H14 H 0.4164 -0.0464 0.3583
C10 C 0.1828(8) -0.0618(2) -0.1160(4)
H15 H 0.0117 -0.0378 -0.1623
C11 C 0.1973(6) 0.1721(2) 0.5508(4)
H16 H 0.0440 0.1576 0.6095
loop_
_geom_bond_atom_site_label_1
_geom_bond_atom_site_label_2
_geom_bond_site_symmetry_1
_geom_bond_site_symmetry_2
O1 C4 1_555 1_555
O2 C5 1_555 1_555
O3 C8 1_555 1_555
O4 C8 1_555 1_555
O5 H1 1_555 1_555
N1 H2 1_555 1_555
N2 C3 1_555 1_555
N3 H3 1_555 1_555
H4 N3 1_555 1_555
H5 N3 1_555 1_555
N4 H6 1_555 1_555
C1 H7 1_555 1_555
H8 C1 1_555 1_555
C2 H9 1_555 1_555
H10 C2 1_555 1_555
C3 C2 1_555 1_555
C4 N1 1_555 1_555
C5 O5 1_555 1_555
C6 N2 1_555 1_555
H11 C6 1_555 1_555
C7 C1 1_555 1_555
H12 C7 1_555 1_555
H13 C7 1_555 1_555
C8 C11 1_555 1_555
C9 N3 1_555 1_555
H14 C9 1_555 1_555
C10 N4 1_555 1_555
H15 C10 1_555 1_555
C11 N1 1_555 1_555
H16 C11 1_555 1_555
N4 C6 1_555 1_555
C1 C11 1_555 1_555
C2 C9 1_555 1_555
C3 C10 1_555 1_555
C4 C9 1_555 1_555
C5 C7 1_555 1_555

#END
