
#######################################################################
#
#                 Cambridge Crystallographic Data Centre
#                                CCDC 
#
#######################################################################
#
# If this CIF has been generated from an entry in the Cambridge 
# Structural Database, then it will include bibliographic, chemical, 
# crystal, experimental, refinement or atomic coordinate data resulting 
# from the CCDC's data processing and validation procedures.
#
#######################################################################

data_RAWBAT
_chemical_formula_moiety         'C9 H14 N4 O3,C2 H6 O1,0.5(H2 O1)'
_chemical_name_systematic        'Alanyl-histidine ethanol solvate hemihydrate'
_symmetry_cell_setting           orthorhombic
_symmetry_space_group_name_H-M   'P 21 21 2'
_symmetry_Int_Tables_number      18
_space_group_name_Hall           'P 2 2ab'
loop_
_symmetry_equiv_pos_site_id
_symmetry_equiv_pos_as_xyz
1 x,y,z
2 -x,-y,z
3 1/2-x,1/2+y,-z
4 1/2+x,1/2-y,-z
_cell_length_a                   9.283(2)
_cell_length_b                   18.035(4)
_cell_length_c                   8.549(2)
_cell_angle_alpha                90
_cell_angle_beta                 90
_cell_angle_gamma                90
_cell_volume                     1431.26
_exptl_crystal_colour            colorless
_exptl_crystal_description       columnar
_cell_formula_units_Z            4
loop_
_atom_site_label
_atom_site_type_symbol
_atom_site_fract_x
_atom_site_fract_y
_atom_site_fract_z
C1 C 0.1281(3) 0.18638(14) 1.0169(3)
H1 H 0.080(3) 0.2219(15) 1.068(3)
C2 C 0.1828(2) 0.07790(11) 0.9244(3)
H2 H 0.177(3) 0.0266(13) 0.904(3)
C3 C 0.2766(2) 0.12911(9) 0.8656(2)
C4 C 0.40304(19) 0.11758(10) 0.7622(2)
H3 H 0.477(2) 0.1550(12) 0.776(3)
H4 H 0.448(2) 0.0699(12) 0.778(3)
C5 C 0.37256(17) 0.11811(8) 0.5858(2)
H5 H 0.461(2) 0.1079(11) 0.539(3)
C6 C 0.39495(16) 0.25048(8) 0.5254(2)
C7 C 0.32390(17) 0.31761(8) 0.4494(2)
H6 H 0.222(2) 0.3141(11) 0.458(2)
C8 C 0.3676(3) 0.32441(12) 0.2796(3)
H7 H 0.323(3) 0.3728(14) 0.233(3)
H8 H 0.329(3) 0.2821(14) 0.220(3)
H9 H 0.479(3) 0.3285(15) 0.274(3)
C9 C 0.26948(17) 0.05545(8) 0.5362(2)
N1 N 0.2397(2) 0.19818(9) 0.9245(2)
N2 N 0.0898(2) 0.11485(12) 1.0188(2)
H10 H 0.028(4) 0.0995(16) 1.073(4)
N3 N 0.31549(15) 0.18898(7) 0.53074(18)
H11 H 0.231(3) 0.1896(12) 0.490(3)
N4 N 0.37124(15) 0.38480(7) 0.53572(19)
H12 H 0.355(2) 0.3778(11) 0.636(3)
H13 H 0.325(2) 0.4258(12) 0.500(2)
H14 H 0.468(3) 0.3901(12) 0.525(3)
O1 O 0.52010(12) 0.25489(6) 0.57394(17)
O2 O 0.16426(12) 0.07211(6) 0.45127(16)
O3 O 0.30066(14) -0.00825(6) 0.58347(18)
O4 O 0.0000 0.0000 0.2298(2)
H15 H 0.061(2) 0.0230(12) 0.298(3)
H15A H -0.061(2) -0.0230(12) 0.298(3)
O5 O 0.7936(5) 0.1533(4) 0.1554(10)
H16 H 0.779(4) 0.1999(17) 0.133(6)
C10 C 0.6741(3) 0.1126(2) 0.0992(4)
H17 H 0.7004 0.0595 0.0941
H18 H 0.6516 0.1293 -0.0084
C11 C 0.5439(4) 0.1209(3) 0.1976(5)
H19 H 0.5629 0.1007 0.3020
H20 H 0.4636 0.0940 0.1496
H21 H 0.5191 0.1736 0.2063
O6? O 0.7615(12) 0.1578(11) 0.170(3)
H22? H 0.779(4) 0.198(2) 0.119(11)
C12? C 0.6119(10) 0.1437(4) 0.1587(13)
H23? H 0.5766 0.1604 0.0552
H24? H 0.5601 0.1722 0.2402
C13? C 0.5811(9) 0.0635(4) 0.1782(11)
H25? H 0.6308 0.0353 0.0963
H26? H 0.4771 0.0550 0.1703
H27? H 0.6152 0.0471 0.2811
loop_
_geom_bond_atom_site_label_1
_geom_bond_atom_site_label_2
_geom_bond_site_symmetry_1
_geom_bond_site_symmetry_2
C1 H1 1_555 1_555
C2 H2 1_555 1_555
C3 C2 1_555 1_555
C4 C3 1_555 1_555
H3 C4 1_555 1_555
H4 C4 1_555 1_555
C5 C4 1_555 1_555
H5 C5 1_555 1_555
C6 C7 1_555 1_555
C7 H6 1_555 1_555
C8 C7 1_555 1_555
H7 C8 1_555 1_555
H8 C8 1_555 1_555
H9 C8 1_555 1_555
C9 C5 1_555 1_555
N1 C1 1_555 1_555
N2 C1 1_555 1_555
H10 N2 1_555 1_555
N3 C5 1_555 1_555
H11 N3 1_555 1_555
N4 C7 1_555 1_555
H12 N4 1_555 1_555
H13 N4 1_555 1_555
H14 N4 1_555 1_555
O1 C6 1_555 1_555
O2 C9 1_555 1_555
O3 C9 1_555 1_555
O4 H15 1_555 1_555
O5 H16 1_555 1_555
C10 O5 1_555 1_555
H17 C10 1_555 1_555
H18 C10 1_555 1_555
C11 C10 1_555 1_555
H19 C11 1_555 1_555
H20 C11 1_555 1_555
H21 C11 1_555 1_555
H15A O4 1_555 1_555
C2 N2 1_555 1_555
C3 N1 1_555 1_555
C6 N3 1_555 1_555

#END
