
#######################################################################
#
#                 Cambridge Crystallographic Data Centre
#                                CCDC 
#
#######################################################################
#
# If this CIF has been generated from an entry in the Cambridge 
# Structural Database, then it will include bibliographic, chemical, 
# crystal, experimental, refinement or atomic coordinate data resulting 
# from the CCDC's data processing and validation procedures.
#
#######################################################################

data_RAWGIH
_chemical_formula_moiety         'C15 H10 Br1 N1'
_chemical_name_systematic        3-(4-Bromophenyl)quinoline
_symmetry_cell_setting           monoclinic
_symmetry_space_group_name_H-M   'P 21/c'
_symmetry_Int_Tables_number      14
_space_group_name_Hall           '-P 2ybc'
loop_
_symmetry_equiv_pos_site_id
_symmetry_equiv_pos_as_xyz
1 x,y,z
2 -x,1/2+y,1/2-z
3 -x,-y,-z
4 x,1/2-y,1/2+z
_cell_length_a                   14.1173(12)
_cell_length_b                   5.8848(7)
_cell_length_c                   14.7685(14)
_cell_angle_alpha                90
_cell_angle_beta                 109.122(10)
_cell_angle_gamma                90
_cell_volume                     1159.23
_exptl_crystal_colour            yellow
_exptl_crystal_description       platelet
_cell_formula_units_Z            4
loop_
_atom_site_label
_atom_site_type_symbol
_atom_site_fract_x
_atom_site_fract_y
_atom_site_fract_z
Br1 Br 0.03973(4) 0.91149(14) 0.16643(5)
N1 N 0.6140(3) 1.3384(7) 0.4769(3)
C1 C 0.7873(4) 1.2343(10) 0.5279(4)
H1 H 0.8039 1.3718 0.5604
C2 C 0.8605(4) 1.0836(11) 0.5288(4)
H2 H 0.9270 1.1187 0.5625
C3 C 0.8377(4) 0.8773(10) 0.4801(4)
H3 H 0.8888 0.7773 0.4804
C4 C 0.7406(4) 0.8227(9) 0.4322(4)
H4 H 0.7255 0.6834 0.4010
C5 C 0.6622(3) 0.9756(9) 0.4291(3)
C6 C 0.6860(4) 1.1821(9) 0.4778(3)
C7 C 0.5212(4) 1.2862(9) 0.4283(3)
H5 H 0.4725 1.3937 0.4270
C8 C 0.4879(3) 1.0820(8) 0.3775(3)
C9 C 0.5614(4) 0.9290(8) 0.3792(3)
H6 H 0.5441 0.7919 0.3467
C10 C 0.3798(3) 1.0430(9) 0.3266(3)
C11 C 0.3468(4) 0.8493(10) 0.2733(4)
H7 H 0.3936 0.7427 0.2686
C12 C 0.2461(4) 0.8088(10) 0.2266(4)
H8 H 0.2254 0.6756 0.1919
C13 C 0.1774(4) 0.9669(10) 0.2321(4)
C14 C 0.2068(4) 1.1611(10) 0.2830(4)
H9 H 0.1595 1.2680 0.2862
C15 C 0.3069(4) 1.1989(9) 0.3299(4)
H10 H 0.3265 1.3322 0.3648
loop_
_geom_bond_atom_site_label_1
_geom_bond_atom_site_label_2
_geom_bond_site_symmetry_1
_geom_bond_site_symmetry_2
Br1 C13 1_555 1_555
N1 C6 1_555 1_555
C1 H1 1_555 1_555
C2 C1 1_555 1_555
H2 C2 1_555 1_555
C3 C2 1_555 1_555
H3 C3 1_555 1_555
C4 C3 1_555 1_555
H4 C4 1_555 1_555
C5 C4 1_555 1_555
C6 C1 1_555 1_555
C7 N1 1_555 1_555
H5 C7 1_555 1_555
C8 C7 1_555 1_555
C9 C5 1_555 1_555
H6 C9 1_555 1_555
C10 C8 1_555 1_555
C11 C10 1_555 1_555
H7 C11 1_555 1_555
C12 C11 1_555 1_555
H8 C12 1_555 1_555
C13 C12 1_555 1_555
C14 C13 1_555 1_555
H9 C14 1_555 1_555
C15 C10 1_555 1_555
H10 C15 1_555 1_555
C5 C6 1_555 1_555
C8 C9 1_555 1_555
C14 C15 1_555 1_555

#END
