
#######################################################################
#
#                 Cambridge Crystallographic Data Centre
#                                CCDC 
#
#######################################################################
#
# If this CIF has been generated from an entry in the Cambridge 
# Structural Database, then it will include bibliographic, chemical, 
# crystal, experimental, refinement or atomic coordinate data resulting 
# from the CCDC's data processing and validation procedures.
#
#######################################################################

data_RAWGAZ
_chemical_formula_moiety         'C25 H30 O4'
_chemical_name_systematic        
8'-(Prop-1-en-1-oxy)-4,4'-dimethoxy-5,5',6,6',7,7',8,8'-octahydro-1,1'-binaphthalen-8-ol
_symmetry_cell_setting           triclinic
_symmetry_space_group_name_H-M   'P -1'
_symmetry_Int_Tables_number      2
_space_group_name_Hall           '-P 1'
loop_
_symmetry_equiv_pos_site_id
_symmetry_equiv_pos_as_xyz
1 x,y,z
2 -x,-y,-z
_cell_length_a                   8.3371(8)
_cell_length_b                   9.8497(9)
_cell_length_c                   14.2726(15)
_cell_angle_alpha                103.760(4)
_cell_angle_beta                 94.510(4)
_cell_angle_gamma                99.692(4)
_cell_volume                     1113.5
_exptl_crystal_colour            colorless
_cell_formula_units_Z            2
loop_
_atom_site_label
_atom_site_type_symbol
_atom_site_fract_x
_atom_site_fract_y
_atom_site_fract_z
C1 C 0.4943(2) -0.17157(17) 0.70666(12)
C2 C 0.3949(2) -0.06975(17) 0.70818(12)
C3 C 0.2232(2) -0.10332(18) 0.73495(14)
H1 H 0.2285 -0.1386 0.7943
H2 H 0.1564 -0.1806 0.6819
C4 C 0.1392(2) 0.0245(2) 0.75280(14)
H3 H 0.0203 -0.0076 0.7533
H4 H 0.1847 0.0902 0.8168
C5 C 0.1663(2) 0.1013(2) 0.67307(15)
H5 H 0.1289 0.0335 0.6087
H6 H 0.1016 0.1779 0.6803
C6 C 0.3471(2) 0.16470(18) 0.67955(14)
H7 H 0.3652 0.2030 0.6215
C7 C 0.4547(2) 0.05500(17) 0.68187(12)
C8 C 0.6148(2) 0.07902(17) 0.65534(12)
C9 C 0.7073(2) -0.02573(18) 0.65208(13)
H8 H 0.8133 -0.0117 0.6317
C10 C 0.6491(2) -0.15134(18) 0.67787(13)
H9 H 0.7148 -0.2218 0.6757
C11 C 0.5186(3) -0.3977(2) 0.73502(17)
H10 H 0.5492 -0.4336 0.6701
H11 H 0.4544 -0.4763 0.7552
H12 H 0.6180 -0.3565 0.7813
C12 C 0.6871(2) 0.21590(17) 0.63241(12)
C13 C 0.6458(2) 0.23889(18) 0.54291(13)
H13 H 0.5713 0.1669 0.4956
C14 C 0.7109(2) 0.36551(18) 0.52011(13)
H14 H 0.6822 0.3792 0.4577
C15 C 0.8176(2) 0.47062(17) 0.58940(13)
C16 C 0.8629(2) 0.45218(17) 0.68151(12)
C17 C 0.9783(2) 0.57198(18) 0.75518(13)
H15 H 0.9454 0.6635 0.7536
H16 H 1.0907 0.5764 0.7367
C18 C 0.9797(2) 0.55396(19) 0.85818(13)
H17 H 1.0724 0.6225 0.9009
H18 H 0.8766 0.5739 0.8836
C19 C 0.9966(2) 0.40293(19) 0.85857(13)
H19 H 1.0065 0.3940 0.9263
H20 H 1.0976 0.3820 0.8307
C20 C 0.8489(2) 0.29619(19) 0.79959(13)
C21 C 0.7986(2) 0.32347(17) 0.70257(12)
C22 C 0.8320(2) 0.6312(2) 0.48666(14)
H21 H 0.8550 0.5602 0.4311
H22 H 0.8890 0.7262 0.4854
H23 H 0.7137 0.6288 0.4830
O1 O 0.42289(15) -0.29102(12) 0.73272(9)
O2 O 0.38527(16) 0.28094(13) 0.76526(11)
H24 H 0.4834 0.2901 0.7884
O3 O 0.88809(15) 0.59987(12) 0.57484(9)
O4 O 0.7083(18) 0.293(2) 0.8530(13)
C23 C 0.7001(18) 0.1988(18) 0.9110(12)
H25 H 0.5985 0.1910 0.9415
C24 C 0.7987(6) 0.1161(5) 0.9302(3)
H26 H 0.8987 0.1191 0.9025
C25 C 0.7616(8) 0.0170(6) 0.9937(4)
H27 H 0.8515 -0.0336 0.9982
H28 H 0.7513 0.0700 1.0583
H29 H 0.6629 -0.0509 0.9676
O5? O 0.725(6) 0.295(6) 0.851(4)
C26? C 0.681(6) 0.202(6) 0.908(4)
H30? H 0.7653 0.1342 0.9096
C27? C 0.5690(16) 0.2038(13) 0.9684(9)
H31? H 0.5164 0.2833 0.9835
H32? H 0.4360 0.0964 1.0535
H33? H 0.4872 -0.0112 0.9665
H34? H 0.6164 0.0702 1.0566
O6? O 0.694(2) 0.3301(13) 0.8537(9)
C28? C 0.6772(11) 0.2694(10) 0.9315(6)
H35? H 0.7318 0.1908 0.9337
C29? C 0.5931(11) 0.3172(9) 1.0033(6)
H36? H 0.5796 0.2675 1.0533
C30? C 0.5112(15) 0.4441(11) 1.0079(8)
H37? H 0.4527 0.4625 1.0656
H38? H 0.5901 0.5298 1.0121
H39? H 0.4304 0.4298 0.9519
C31? C 0.476(2) 0.9194(16) 0.9859(11)
loop_
_geom_bond_atom_site_label_1
_geom_bond_atom_site_label_2
_geom_bond_site_symmetry_1
_geom_bond_site_symmetry_2
C1 C2 1_555 1_555
C2 C3 1_555 1_555
C3 H1 1_555 1_555
H2 C3 1_555 1_555
C4 C3 1_555 1_555
H3 C4 1_555 1_555
H4 C4 1_555 1_555
C5 C4 1_555 1_555
H5 C5 1_555 1_555
H6 C5 1_555 1_555
C6 C5 1_555 1_555
H7 C6 1_555 1_555
C7 C2 1_555 1_555
C8 C7 1_555 1_555
C9 C8 1_555 1_555
H8 C9 1_555 1_555
C10 C1 1_555 1_555
H9 C10 1_555 1_555
C11 H10 1_555 1_555
H11 C11 1_555 1_555
H12 C11 1_555 1_555
C12 C8 1_555 1_555
C13 C12 1_555 1_555
H13 C13 1_555 1_555
C14 C13 1_555 1_555
H14 C14 1_555 1_555
C15 C14 1_555 1_555
C16 C15 1_555 1_555
C17 C16 1_555 1_555
H15 C17 1_555 1_555
H16 C17 1_555 1_555
C18 C17 1_555 1_555
H17 C18 1_555 1_555
H18 C18 1_555 1_555
C19 C18 1_555 1_555
H19 C19 1_555 1_555
H20 C19 1_555 1_555
C20 C19 1_555 1_555
C21 C12 1_555 1_555
C22 H21 1_555 1_555
H22 C22 1_555 1_555
H23 C22 1_555 1_555
O1 C1 1_555 1_555
O2 C6 1_555 1_555
H24 O2 1_555 1_555
O3 C15 1_555 1_555
O4 C20 1_555 1_555
C23 O4 1_555 1_555
H25 C23 1_555 1_555
C24 C23 1_555 1_555
H26 C24 1_555 1_555
C25 C24 1_555 1_555
H27 C25 1_555 1_555
H28 C25 1_555 1_555
H29 C25 1_555 1_555
C6 C7 1_555 1_555
C9 C10 1_555 1_555
C11 O1 1_555 1_555
C16 C21 1_555 1_555
C20 C21 1_555 1_555
C22 O3 1_555 1_555

#END
