
#######################################################################
#
#                 Cambridge Crystallographic Data Centre
#                                CCDC 
#
#######################################################################
#
# If this CIF has been generated from an entry in the Cambridge 
# Structural Database, then it will include bibliographic, chemical, 
# crystal, experimental, refinement or atomic coordinate data resulting 
# from the CCDC's data processing and validation procedures.
#
#######################################################################

data_RAWNAG
_chemical_compound_source        
'marincytotoxice-derived Streptomyces variabilis'
_chemical_name_common            'Ammosamide D trihydrate'
_chemical_formula_moiety         'C12 H9 Cl1 N4 O4,3(H2 O1)'
_chemical_name_systematic        
'8-Amino-7-chloro-N^4^-methyl-5,6-dioxo-5,6-dihydroquinoline-2,4-dicarboxamide trihydrate'
_chemical_properties_biological  'cytotoxic activity'
_symmetry_cell_setting           triclinic
_symmetry_space_group_name_H-M   'P -1'
_symmetry_Int_Tables_number      2
_space_group_name_Hall           '-P 1'
loop_
_symmetry_equiv_pos_site_id
_symmetry_equiv_pos_as_xyz
1 x,y,z
2 -x,-y,-z
_cell_length_a                   7.4256(10)
_cell_length_b                   9.7072(13)
_cell_length_c                   10.5790(14)
_cell_angle_alpha                92.607(1)
_cell_angle_beta                 94.560(2)
_cell_angle_gamma                94.160(1)
_cell_volume                     757.129
_exptl_crystal_colour            red
_exptl_crystal_description       prism
_cell_formula_units_Z            2
loop_
_atom_site_label
_atom_site_type_symbol
_atom_site_fract_x
_atom_site_fract_y
_atom_site_fract_z
Cl1 Cl 1.10721(4) 0.20705(3) 0.80381(3)
O1 O 1.03547(13) 0.71737(10) 0.88452(9)
O2 O 1.22425(12) 0.49070(10) 0.90916(9)
O3 O 0.15378(12) 0.62205(10) 0.58028(9)
O4 O 0.80442(13) 0.92989(10) 0.72901(8)
N1 N 0.53942(14) 0.44052(11) 0.66671(9)
N2 N 0.72908(15) 0.21969(11) 0.68963(10)
H7 H 0.784(3) 0.136(2) 0.6985(18)
H8 H 0.617(3) 0.223(2) 0.6584(17)
N3 N 0.20339(15) 0.39578(12) 0.54633(10)
H9 H 0.270(3) 0.331(2) 0.5573(17)
H10 H 0.101(3) 0.382(2) 0.517(2)
N4 N 0.69156(14) 0.89142(11) 0.92000(10)
H11 H 0.635(2) 0.834(2) 0.9584(16)
C1 C 0.43968(16) 0.54964(13) 0.65584(10)
C2 C 0.49980(17) 0.68282(13) 0.70223(11)
H12 H 0.422(3) 0.757(2) 0.6928(16)
C3 C 0.67268(16) 0.70503(13) 0.76302(11)
C4 C 0.77858(16) 0.59266(12) 0.77677(10)
C5 C 0.96434(16) 0.60691(13) 0.84190(11)
C6 C 1.06944(16) 0.47681(13) 0.85346(11)
C7 C 0.98399(16) 0.35145(13) 0.79889(11)
C8 C 0.80956(16) 0.33802(12) 0.73875(10)
C9 C 0.70446(15) 0.46255(12) 0.72694(10)
C10 C 0.25220(16) 0.52390(13) 0.59017(11)
C11 C 0.73394(16) 0.85290(12) 0.80595(11)
C12 C 0.73791(19) 1.03155(14) 0.97571(13)
H13 H 0.861(3) 1.058(2) 0.9673(18)
H14 H 0.711(2) 1.0367(19) 1.0599(16)
H15 H 0.673(3) 1.098(2) 0.9340(17)
O5 O 0.36713(15) 0.12670(12) 0.54523(11)
H1 H 0.316(3) 0.061(3) 0.578(2)
H2 H 0.338(4) 0.108(3) 0.463(3)
O6 O 0.48799(14) 0.68507(10) 0.04208(9)
H3 H 0.570(4) 0.637(3) 0.068(2)
H4 H 0.406(4) 0.640(3) 0.001(3)
O7 O 0.16305(16) 0.91178(12) 0.64576(12)
H5 H 0.159(3) 0.833(3) 0.617(2)
H6 H 0.060(4) 0.921(3) 0.681(3)
loop_
_geom_bond_atom_site_label_1
_geom_bond_atom_site_label_2
_geom_bond_site_symmetry_1
_geom_bond_site_symmetry_2
Cl1 C7 1_555 1_555
O1 C5 1_555 1_555
O2 C6 1_555 1_555
O3 C10 1_555 1_555
O4 C11 1_555 1_555
O5 H1 1_555 1_555
H2 O5 1_555 1_555
O6 H3 1_555 1_555
H4 O6 1_555 1_555
O7 H5 1_555 1_555
H6 O7 1_555 1_555
N1 C1 1_555 1_555
N2 H7 1_555 1_555
H8 N2 1_555 1_555
N3 H9 1_555 1_555
H10 N3 1_555 1_555
N4 H11 1_555 1_555
C1 C2 1_555 1_555
C2 H12 1_555 1_555
C3 C2 1_555 1_555
C4 C3 1_555 1_555
C5 C4 1_555 1_555
C6 C5 1_555 1_555
C7 C6 1_555 1_555
C8 N2 1_555 1_555
C9 N1 1_555 1_555
C10 N3 1_555 1_555
C11 N4 1_555 1_555
C12 N4 1_555 1_555
H13 C12 1_555 1_555
H14 C12 1_555 1_555
H15 C12 1_555 1_555
C1 C10 1_555 1_555
C3 C11 1_555 1_555
C4 C9 1_555 1_555
C7 C8 1_555 1_555
C8 C9 1_555 1_555

#END
