
#######################################################################
#
#                 Cambridge Crystallographic Data Centre
#                                CCDC 
#
#######################################################################
#
# If this CIF has been generated from an entry in the Cambridge 
# Structural Database, then it will include bibliographic, chemical, 
# crystal, experimental, refinement or atomic coordinate data resulting 
# from the CCDC's data processing and validation procedures.
#
#######################################################################

data_RAWPAG
_chemical_formula_moiety         'C16 H26 O3 Si1'
_chemical_name_systematic        
7,7-bis(Hydroxymethyl)-2-(t-butyldimethylsilyl)bicyclo(3.3.0)octa-1,5-dien-3-one
_symmetry_cell_setting           monoclinic
_symmetry_space_group_name_H-M   'P 21/c'
_symmetry_Int_Tables_number      14
_space_group_name_Hall           '-P 2ybc'
loop_
_symmetry_equiv_pos_site_id
_symmetry_equiv_pos_as_xyz
1 x,y,z
2 -x,1/2+y,1/2-z
3 -x,-y,-z
4 x,1/2-y,1/2+z
_cell_length_a                   11.111(2)
_cell_length_b                   13.042(4)
_cell_length_c                   11.733(2)
_cell_angle_alpha                90
_cell_angle_beta                 100.280(8)
_cell_angle_gamma                90
_cell_volume                     1672.93
_exptl_crystal_colour            white
_chemical_melting_point          151-153deg.C
_cell_formula_units_Z            4
loop_
_atom_site_label
_atom_site_type_symbol
_atom_site_fract_x
_atom_site_fract_y
_atom_site_fract_z
Si1 Si 0.84958(8) 0.17363(7) 0.13567(8)
O1 O 0.7549(2) -0.0085(2) -0.0572(2)
O2 O 0.3419(2) 0.1851(2) 0.1646(2)
O3 O 0.4488(2) 0.4190(2) -0.1298(2)
C1 C 0.4066(3) 0.2925(2) 0.0130(3)
C2 C 0.3962(3) 0.2055(2) -0.0732(2)
C3 C 0.4996(3) 0.1540(2) -0.0670(2)
C4 C 0.5529(3) 0.0638(2) -0.1182(2)
C5 C 0.6817(3) 0.0593(2) -0.0470(3)
C6 C 0.7014(3) 0.1455(2) 0.0356(2)
C7 C 0.5943(2) 0.1969(2) 0.0215(2)
C8 C 0.5419(3) 0.2875(2) 0.0737(3)
C9 C 0.8683(3) 0.0865(3) 0.2660(3)
C10 C 0.9960(4) 0.1011(4) 0.3384(4)
C11 C 0.8539(4) -0.0250(3) 0.2287(4)
C12 C 0.7720(4) 0.1113(4) 0.3401(4)
C13 C 0.8471(3) 0.3094(3) 0.1831(4)
C14 C 0.9779(3) 0.1545(3) 0.0552(4)
C15 C 0.3193(3) 0.2763(2) 0.0992(3)
C16 C 0.3748(3) 0.3954(2) -0.0469(3)
H1 H 0.3007 0.1321 0.1152
H2 H 0.4187 0.3708 -0.2022
H3 H 0.3238 0.1898 -0.1256
H4 H 0.5082 0.0031 -0.1094
H5 H 0.5544 0.0746 -0.1981
H6 H 1.0054 0.0578 0.4045
H7 H 1.0561 0.0846 0.2932
H8 H 1.0058 0.1708 0.3629
H9 H 0.7745 -0.0356 0.1857
H10 H 0.9133 -0.0413 0.1827
H11 H 0.8659 -0.0674 0.2959
H12 H 0.7803 0.1807 0.3637
H13 H 0.6932 0.1000 0.2958
H14 H 0.7842 0.0679 0.4061
H15 H 0.9221 0.3248 0.2336
H16 H 0.8382 0.3530 0.1175
H17 H 0.7810 0.3195 0.2229
H18 H 0.9793 0.0849 0.0314
H19 H 0.9674 0.1979 -0.0102
H20 H 1.0533 0.1703 0.1050
H21 H 0.2381 0.2740 0.0576
H22 H 0.3279 0.3327 0.1516
H23 H 0.3858 0.4481 0.0103
H24 H 0.2921 0.3940 -0.0846
H25 H 0.5838 0.3489 0.0601
H26 H 0.5472 0.2789 0.1552
loop_
_geom_bond_atom_site_label_1
_geom_bond_atom_site_label_2
_geom_bond_site_symmetry_1
_geom_bond_site_symmetry_2
Si1 C6 1_555 1_555
O1 C5 1_555 1_555
O2 C15 1_555 1_555
O3 C16 1_555 1_555
C1 C2 1_555 1_555
C2 C3 1_555 1_555
C3 C4 1_555 1_555
C4 C5 1_555 1_555
C5 C6 1_555 1_555
C6 C7 1_555 1_555
C7 C3 1_555 1_555
C8 C1 1_555 1_555
C9 Si1 1_555 1_555
C10 C9 1_555 1_555
C11 C9 1_555 1_555
C12 C9 1_555 1_555
C13 Si1 1_555 1_555
C14 Si1 1_555 1_555
C15 C1 1_555 1_555
C16 C1 1_555 1_555
H1 O2 1_555 1_555
H2 O3 1_555 1_555
H3 C2 1_555 1_555
H4 C4 1_555 1_555
H5 C4 1_555 1_555
H6 C10 1_555 1_555
H7 C10 1_555 1_555
H8 C10 1_555 1_555
H9 C11 1_555 1_555
H10 C11 1_555 1_555
H11 C11 1_555 1_555
H12 C12 1_555 1_555
H13 C12 1_555 1_555
H14 C12 1_555 1_555
H15 C13 1_555 1_555
H16 C13 1_555 1_555
H17 C13 1_555 1_555
H18 C14 1_555 1_555
H19 C14 1_555 1_555
H20 C14 1_555 1_555
H21 C15 1_555 1_555
H22 C15 1_555 1_555
H23 C16 1_555 1_555
H24 C16 1_555 1_555
H25 C8 1_555 1_555
H26 C8 1_555 1_555
C7 C8 1_555 1_555

#END
