
#######################################################################
#
#                 Cambridge Crystallographic Data Centre
#                                CCDC 
#
#######################################################################
#
# If this CIF has been generated from an entry in the Cambridge 
# Structural Database, then it will include bibliographic, chemical, 
# crystal, experimental, refinement or atomic coordinate data resulting 
# from the CCDC's data processing and validation procedures.
#
#######################################################################

data_RAWTAN
_chemical_formula_moiety         'C114 H95 Br5 O24 Te19 4+,4(Br1 1-),12(H2 O1)'
_chemical_name_systematic        
'tetracosakis(\m-oxo)-nonadecaphenyl-pentabromo-nonadeca-tellurium tetrakis(bromide) dodecahydrate'
_symmetry_cell_setting           monoclinic
_symmetry_space_group_name_H-M   'C 2/c'
_symmetry_Int_Tables_number      15
_space_group_name_Hall           '-C 2yn'
loop_
_symmetry_equiv_pos_site_id
_symmetry_equiv_pos_as_xyz
1 x,y,z
2 -x,y,1/2-z
3 1/2+x,1/2+y,z
4 1/2-x,1/2+y,1/2-z
5 -x,-y,-z
6 x,-y,1/2+z
7 1/2-x,1/2-y,-z
8 1/2+x,1/2-y,1/2+z
_cell_length_a                   31.6005(11)
_cell_length_b                   30.5468(11)
_cell_length_c                   37.0295(13)
_cell_angle_alpha                90
_cell_angle_beta                 90.1590(10)
_cell_angle_gamma                90
_cell_volume                     35744.2
_exptl_crystal_colour            yellow
_exptl_crystal_description       block
_cell_formula_units_Z            8
loop_
_atom_site_label
_atom_site_type_symbol
_atom_site_fract_x
_atom_site_fract_y
_atom_site_fract_z
O25 O 0.3888(3) 0.2870(3) 0.0188(3)
O26 O 0.57907(16) 0.73849(17) 0.32236(15)
O27 O 0.56135(18) 0.80704(15) 0.32015(15)
O28 O 0.6042(3) 0.8112(3) 0.3605(2)
O29 O 0.5526(6) 0.7750(6) 0.3582(5)
O30 O 0.5945(5) 0.7664(4) 0.3761(3)
O31 O 0.5652(6) 0.7578(6) 0.2995(5)
O32 O 0.4775(3) 0.77956(19) 0.34001(18)
O33 O 0.4933(2) 0.76372(18) 0.32656(17)
O34 O 0.3061(4) 0.4172(5) 0.0130(3)
O35 O 0.3126(4) 0.4478(5) -0.0175(3)
O36 O 0.2850(4) 0.4837(5) -0.0340(3)
O37 O 0.3436(3) 0.4149(5) -0.0565(3)
O38 O 0.5293(3) 0.8509(3) 0.2613(2)
O39 O 0.3662(8) 0.2623(8) -0.0741(5)
Br6 Br 0.55329(3) 0.28730(3) 0.36498(2)
Br7 Br 0.47250(3) 0.41065(3) 0.19493(2)
O1 O 0.36499(17) 0.36403(17) 0.26934(13)
O2 O 0.34471(17) 0.30476(17) 0.22710(13)
O3 O 0.35559(17) 0.22874(18) 0.25130(14)
Te1 Te 0.35258(2) 0.24218(2) 0.20033(2)
C1 C 0.28650(11) 0.23803(13) 0.19681(11)
C2 C 0.26526(14) 0.24895(19) 0.16515(11)
H1 H 0.2807 0.2584 0.1446
C3 C 0.22140(14) 0.2460(2) 0.16353(14)
H2 H 0.2069 0.2535 0.1419
C4 C 0.19878(11) 0.2322(2) 0.19357(16)
H3 H 0.1688 0.2302 0.1925
C5 C 0.22002(14) 0.2213(2) 0.22524(14)
H4 H 0.2046 0.2118 0.2458
C6 C 0.26388(14) 0.22418(18) 0.22686(11)
H5 H 0.2784 0.2167 0.2485
Te2 Te 0.38601(3) 0.17166(3) 0.27119(3)
O4 O 0.3804(3) 0.2084(3) 0.3141(2)
O5 O 0.4109(3) 0.1328(3) 0.3124(2)
C7 C 0.32808(19) 0.1401(2) 0.28064(19)
C8 C 0.3045(2) 0.1507(3) 0.3111(2)
H6 H 0.3138 0.1733 0.3268
C9 C 0.2674(3) 0.1281(4) 0.3185(2)
H7 H 0.2513 0.1352 0.3393
C10 C 0.2538(2) 0.0949(3) 0.2955(3)
H8 H 0.2284 0.0795 0.3006
C11 C 0.2774(3) 0.0844(3) 0.2651(3)
H9 H 0.2681 0.0617 0.2494
C12 C 0.3145(2) 0.1070(3) 0.2576(2)
H10 H 0.3306 0.0998 0.2368
Te3 Te 0.42585(3) 0.21803(3) 0.35632(2)
O6 O 0.4000(3) 0.2737(3) 0.3550(2)
O7 O 0.4573(3) 0.2498(3) 0.4005(2)
C13 C 0.3794(2) 0.1917(2) 0.3913(2)
C14 C 0.3611(3) 0.1509(2) 0.3855(3)
H11 H 0.3713 0.1325 0.3667
C15 C 0.3280(3) 0.1369(3) 0.4072(3)
H12 H 0.3155 0.1090 0.4032
C16 C 0.3130(3) 0.1637(4) 0.4347(3)
H13 H 0.2904 0.1541 0.4495
C17 C 0.3313(3) 0.2045(4) 0.4405(3)
H14 H 0.3211 0.2229 0.4592
C18 C 0.3645(3) 0.2185(3) 0.4188(2)
H15 H 0.3769 0.2464 0.4227
Te4 Te 0.43346(2) 0.33183(2) 0.36867(2)
O8 O 0.39477(17) 0.34556(18) 0.33028(13)
O9 O 0.43845(15) 0.40047(15) 0.36762(12)
C19 C 0.38883(12) 0.33602(14) 0.41045(10)
C20 C 0.39946(14) 0.32533(18) 0.44582(11)
H16 H 0.4271 0.3150 0.4513
C21 C 0.36967(18) 0.3297(2) 0.47312(10)
H17 H 0.3769 0.3224 0.4973
C22 C 0.32923(16) 0.3448(2) 0.46505(13)
H18 H 0.3089 0.3478 0.4837
C23 C 0.31859(13) 0.3555(2) 0.42969(15)
H19 H 0.2910 0.3658 0.4242
C24 C 0.34839(13) 0.35110(18) 0.40238(11)
H20 H 0.3411 0.3584 0.3782
Te5 Te 0.40012(2) 0.40418(2) 0.29649(2)
O10 O 0.38237(17) 0.44091(17) 0.25253(13)
C25 C 0.34978(12) 0.42970(13) 0.32716(10)
C26 C 0.35670(14) 0.45849(16) 0.35563(12)
H21 H 0.3845 0.4688 0.3606
C27 C 0.32298(18) 0.4722(2) 0.37684(14)
H22 H 0.3277 0.4919 0.3963
C28 C 0.28234(16) 0.4571(2) 0.36956(16)
H23 H 0.2593 0.4665 0.3841
C29 C 0.27542(12) 0.4283(2) 0.34108(16)
H24 H 0.2476 0.4180 0.3361
C30 C 0.30914(13) 0.41462(16) 0.31988(13)
H25 H 0.3044 0.3949 0.3004
Te6 Te 0.36062(3) 0.37095(3) 0.19435(2)
O11 O 0.3432(3) 0.3273(3) 0.1592(2)
C31 C 0.29804(19) 0.3895(2) 0.20465(17)
C32 C 0.2896(2) 0.4290(2) 0.2218(2)
H26 H 0.3122 0.4466 0.2305
C33 C 0.2480(3) 0.4427(3) 0.2263(3)
H27 H 0.2422 0.4697 0.2380
C34 C 0.2149(2) 0.4170(3) 0.2136(3)
H28 H 0.1864 0.4263 0.2167
C35 C 0.2233(2) 0.3775(3) 0.1964(3)
H29 H 0.2007 0.3599 0.1878
C36 C 0.2649(2) 0.3637(2) 0.1920(2)
H30 H 0.2707 0.3367 0.1802
Te7 Te 0.35576(3) 0.33437(3) 0.10605(2)
O12 O 0.3380(3) 0.2744(3) 0.1073(2)
C37 C 0.2928(2) 0.3549(3) 0.09658(19)
C38 C 0.2625(2) 0.3241(3) 0.0868(3)
H31 H 0.2706 0.2946 0.0827
C39 C 0.2204(2) 0.3365(4) 0.0831(3)
H32 H 0.1997 0.3155 0.0764
C40 C 0.2086(2) 0.3797(4) 0.0892(3)
H33 H 0.1798 0.3882 0.0866
C41 C 0.2389(3) 0.4105(3) 0.0989(3)
H34 H 0.2309 0.4401 0.1030
C42 C 0.2810(3) 0.3981(3) 0.1026(3)
H35 H 0.3018 0.4192 0.1093
Te8 Te 0.37168(3) 0.22155(3) 0.08893(2)
O13 O 0.35478(16) 0.20132(17) 0.13345(14)
C43 C 0.3178(2) 0.2055(3) 0.0586(2)
C44 C 0.2816(3) 0.1936(4) 0.0774(2)
H36 H 0.2816 0.1937 0.1031
C45 C 0.2452(3) 0.1814(5) 0.0587(3)
H37 H 0.2205 0.1733 0.0715
C46 C 0.2452(3) 0.1812(5) 0.0211(3)
H38 H 0.2204 0.1730 0.0083
C47 C 0.2814(4) 0.1932(5) 0.0023(2)
H39 H 0.2814 0.1930 -0.0233
C48 C 0.3177(3) 0.2053(4) 0.0211(2)
H40 H 0.3425 0.2134 0.0083
O14 O 0.35631(16) 0.17383(17) 0.19930(14)
Te9 Te 0.37847(3) 0.14197(3) 0.15694(3)
C49 C 0.3222(2) 0.1152(2) 0.1428(2)
C50 C 0.2824(2) 0.1307(3) 0.1521(2)
H41 H 0.2798 0.1559 0.1670
C51 C 0.2463(2) 0.1094(3) 0.1396(3)
H42 H 0.2191 0.1201 0.1460
C52 C 0.2501(2) 0.0726(3) 0.1178(3)
H43 H 0.2254 0.0581 0.1092
C53 C 0.2899(3) 0.0571(3) 0.1085(3)
H44 H 0.2925 0.0319 0.0935
C54 C 0.3260(2) 0.0783(3) 0.1210(3)
H45 H 0.3532 0.0677 0.1146
O15 O 0.3821(3) 0.0905(3) 0.1898(2)
Te10 Te 0.42912(3) 0.05827(3) 0.21047(3)
C55 C 0.3908(3) 0.0032(2) 0.2113(2)
C56 C 0.3490(3) 0.0072(3) 0.1999(3)
H46 H 0.3378 0.0353 0.1943
C57 C 0.3236(3) -0.0297(4) 0.1969(4)
H47 H 0.2951 -0.0270 0.1891
C58 C 0.3400(4) -0.0708(3) 0.2051(4)
H48 H 0.3227 -0.0961 0.2030
C59 C 0.3818(4) -0.0748(2) 0.2164(3)
H49 H 0.3931 -0.1029 0.2220
C60 C 0.4072(3) -0.0378(3) 0.2195(3)
H50 H 0.4358 -0.0406 0.2272
O16 O 0.4137(3) 0.0806(3) 0.2573(2)
Te11 Te 0.44843(3) 0.08418(3) 0.30597(3)
C61 C 0.4106(2) 0.0334(2) 0.3262(2)
C62 C 0.3674(2) 0.0332(3) 0.3192(3)
H51 H 0.3553 0.0553 0.3044
C63 C 0.3419(2) 0.0007(3) 0.3338(3)
H52 H 0.3124 0.0006 0.3290
C64 C 0.3596(3) -0.0316(3) 0.3555(3)
H53 H 0.3422 -0.0539 0.3655
C65 C 0.4028(4) -0.0315(3) 0.3626(3)
H54 H 0.4150 -0.0536 0.3774
C66 C 0.4284(3) 0.0010(3) 0.3479(3)
H55 H 0.4579 0.0011 0.3527
Te12 Te 0.50998(3) 0.11263(3) 0.38657(2)
C67 C 0.4894(3) 0.0815(3) 0.4334(2)
C68 C 0.4459(3) 0.0764(4) 0.4370(3)
H56 H 0.4274 0.0874 0.4188
C69 C 0.4295(3) 0.0552(5) 0.4671(4)
H57 H 0.3997 0.0518 0.4695
C70 C 0.4565(5) 0.0391(5) 0.4936(3)
H58 H 0.4453 0.0247 0.5141
C71 C 0.5000(4) 0.0442(5) 0.4900(3)
H59 H 0.5185 0.0332 0.5081
C72 C 0.5165(3) 0.0654(4) 0.4599(3)
H60 H 0.5462 0.0688 0.4575
Te13 Te 0.50297(3) 0.23032(4) 0.42956(3)
C73 C 0.4690(3) 0.2140(3) 0.4784(2)
C74 C 0.4554(4) 0.1710(3) 0.4820(3)
H61 H 0.4615 0.1502 0.4637
C75 C 0.4328(5) 0.1584(4) 0.5125(4)
H62 H 0.4235 0.1290 0.5150
C76 C 0.4238(5) 0.1889(5) 0.5392(3)
H63 H 0.4083 0.1803 0.5600
C77 C 0.4374(5) 0.2320(4) 0.5356(3)
H64 H 0.4312 0.2528 0.5539
C78 C 0.4600(4) 0.2445(3) 0.5051(3)
H65 H 0.4693 0.2739 0.5026
Te14 Te 0.53478(2) 0.34420(2) 0.44257(2)
C79 C 0.51881(16) 0.36634(15) 0.49472(10)
C80 C 0.54866(16) 0.3652(2) 0.52235(13)
H66 H 0.5764 0.3547 0.5177
C81 C 0.5379(2) 0.3792(2) 0.55681(12)
H67 H 0.5583 0.3784 0.5757
C82 C 0.4972(2) 0.3945(2) 0.56364(12)
H68 H 0.4899 0.4041 0.5872
C83 C 0.46739(19) 0.3957(2) 0.53602(16)
H69 H 0.4396 0.4061 0.5407
C84 C 0.47818(16) 0.3816(2) 0.50156(13)
H70 H 0.4578 0.3824 0.4827
Te15 Te 0.48445(2) 0.43228(2) 0.38786(2)
C85 C 0.45131(12) 0.45809(12) 0.43186(9)
C86 C 0.41129(13) 0.44277(15) 0.44088(12)
H71 H 0.3985 0.4202 0.4270
C87 C 0.39001(14) 0.4604(2) 0.47027(14)
H72 H 0.3627 0.4500 0.4764
C88 C 0.40874(18) 0.4934(2) 0.49064(13)
H73 H 0.3942 0.5055 0.5107
C89 C 0.44876(18) 0.50874(17) 0.48162(13)
H74 H 0.4616 0.5313 0.4955
C90 C 0.47004(14) 0.49108(14) 0.45223(12)
H75 H 0.4974 0.5015 0.4461
Te16 Te 0.47868(2) 0.51236(2) 0.31793(2)
C91 C 0.44802(16) 0.57087(14) 0.33283(12)
C92 C 0.46891(17) 0.61088(16) 0.33415(16)
H76 H 0.4982 0.6124 0.3288
C93 C 0.4469(2) 0.64863(14) 0.34335(19)
H77 H 0.4611 0.6760 0.3442
C94 C 0.4039(2) 0.64636(18) 0.3512(2)
H78 H 0.3889 0.6722 0.3575
C95 C 0.38306(17) 0.6063(2) 0.3499(2)
H79 H 0.3537 0.6048 0.3553
C96 C 0.40510(16) 0.56859(17) 0.34071(16)
H80 H 0.3908 0.5412 0.3398
Te17 Te 0.41493(2) 0.49050(2) 0.23662(2)
C97 C 0.37047(15) 0.53856(14) 0.25000(13)
C98 C 0.33619(17) 0.52834(17) 0.27188(16)
H81 H 0.3317 0.4990 0.2793
C99 C 0.30857(19) 0.5611(2) 0.2829(2)
H82 H 0.2851 0.5541 0.2978
C100 C 0.3152(2) 0.6041(2) 0.2720(2)
H83 H 0.2963 0.6265 0.2795
C101 C 0.3495(2) 0.61433(14) 0.2501(2)
H84 H 0.3540 0.6437 0.2426
C102 C 0.37712(18) 0.58155(16) 0.23910(16)
H85 H 0.4005 0.5885 0.2241
Te18 Te 0.39596(2) 0.46208(2) 0.14435(2)
C103 C 0.34603(19) 0.49784(18) 0.12029(14)
C104 C 0.3073(2) 0.5006(2) 0.13787(16)
H86 H 0.3036 0.4869 0.1607
C105 C 0.2740(2) 0.5234(3) 0.1221(2)
H87 H 0.2475 0.5252 0.1341
C106 C 0.2794(3) 0.5434(3) 0.0887(2)
H88 H 0.2566 0.5590 0.0779
C107 C 0.3181(3) 0.5406(3) 0.07111(18)
H89 H 0.3218 0.5543 0.0483
C108 C 0.3514(2) 0.5179(2) 0.08691(15)
H90 H 0.3779 0.5160 0.0749
O17 O 0.4621(3) 0.0936(3) 0.3606(3)
O18 O 0.4801(2) 0.1667(3) 0.4011(2)
O19 O 0.50013(18) 0.29228(18) 0.45110(15)
O20 O 0.48842(16) 0.37076(17) 0.41898(13)
O21 O 0.46050(18) 0.48447(17) 0.36162(14)
O22 O 0.43113(17) 0.48847(16) 0.29259(13)
O23 O 0.37844(18) 0.48228(19) 0.19078(14)
O24 O 0.36227(17) 0.40913(18) 0.14959(13)
Br1 Br 0.36582(5) 0.31270(6) 0.03121(4)
Br2 Br 0.41282(5) 0.14685(4) 0.06532(4)
Br3 Br 0.58250(3) 0.42734(3) 0.43542(2)
Br4 Br 0.44280(4) 0.54662(4) 0.13941(3)
Br5 Br 0.55408(7) 0.02865(6) 0.36775(6)
Te19 Te 0.36792(3) 0.30279(3) 0.27542(2)
C109 C 0.30770(19) 0.2993(2) 0.29818(19)
C110 C 0.3028(2) 0.2835(3) 0.3331(2)
C111 C 0.2629(3) 0.2827(4) 0.3489(2)
C112 C 0.2280(2) 0.2977(4) 0.3297(3)
C113 C 0.2329(2) 0.3136(4) 0.2947(3)
C114 C 0.2727(2) 0.3144(3) 0.2790(2)
H91 H 0.2090 0.3239 0.2816
H92 H 0.2761 0.3252 0.2551
H93 H 0.3267 0.2732 0.3462
H94 H 0.2596 0.2719 0.3727
H95 H 0.2007 0.2972 0.3404
O1A O 0.63501(17) 0.36403(17) 0.23066(13)
O2A O 0.65529(17) 0.30476(17) 0.27290(13)
O3A O 0.64441(17) 0.22874(18) 0.24870(14)
Te1A Te 0.64742(2) 0.24218(2) 0.29967(2)
C1A C 0.71350(11) 0.23803(13) 0.30319(11)
C2A C 0.73474(14) 0.24895(19) 0.33485(11)
H1A H 0.7193 0.2584 0.3554
C3A C 0.77860(14) 0.2460(2) 0.33647(14)
H2A H 0.7931 0.2535 0.3581
C4A C 0.80122(11) 0.2322(2) 0.30643(16)
H3A H 0.8312 0.2302 0.3075
C5A C 0.77998(14) 0.2213(2) 0.27476(14)
H4A H 0.7954 0.2118 0.2542
C6A C 0.73612(14) 0.22418(18) 0.27314(11)
H5A H 0.7216 0.2167 0.2515
Te2A Te 0.61399(3) 0.17166(3) 0.22881(3)
O4A O 0.6196(3) 0.2084(3) 0.1859(2)
O5A O 0.5891(3) 0.1328(3) 0.1876(2)
C7A C 0.67192(19) 0.1401(2) 0.21936(19)
C8A C 0.6955(2) 0.1507(3) 0.1889(2)
H6A H 0.6862 0.1733 0.1732
C9A C 0.7326(3) 0.1281(4) 0.1815(2)
H7A H 0.7487 0.1352 0.1607
C10A C 0.7462(2) 0.0949(3) 0.2045(3)
H8A H 0.7716 0.0795 0.1994
C11A C 0.7226(3) 0.0844(3) 0.2349(3)
H9A H 0.7319 0.0617 0.2506
C12A C 0.6855(2) 0.1070(3) 0.2424(2)
H10A H 0.6694 0.0998 0.2632
Te3A Te 0.57415(3) 0.21803(3) 0.14368(2)
O6A O 0.6000(3) 0.2737(3) 0.1450(2)
O7A O 0.5427(3) 0.2498(3) 0.0995(2)
C13A C 0.6206(2) 0.1917(2) 0.1087(2)
C14A C 0.6389(3) 0.1509(2) 0.1145(3)
H11A H 0.6287 0.1325 0.1333
C15A C 0.6720(3) 0.1369(3) 0.0928(3)
H12A H 0.6845 0.1090 0.0968
C16A C 0.6870(3) 0.1637(4) 0.0653(3)
H13A H 0.7096 0.1541 0.0505
C17A C 0.6687(3) 0.2045(4) 0.0595(3)
H14A H 0.6789 0.2229 0.0408
C18A C 0.6355(3) 0.2185(3) 0.0812(2)
H15A H 0.6231 0.2464 0.0773
Te4A Te 0.56654(2) 0.33183(2) 0.13133(2)
O8A O 0.60523(17) 0.34556(18) 0.16972(13)
O9A O 0.56155(15) 0.40047(15) 0.13238(12)
C19A C 0.61117(12) 0.33602(14) 0.08955(10)
C20A C 0.60054(14) 0.32533(18) 0.05418(11)
H16A H 0.5729 0.3150 0.0487
C21A C 0.63033(18) 0.3297(2) 0.02688(10)
H17A H 0.6231 0.3224 0.0027
C22A C 0.67077(16) 0.3448(2) 0.03495(13)
H18A H 0.6911 0.3478 0.0163
C23A C 0.68141(13) 0.3555(2) 0.07031(15)
H19A H 0.7090 0.3658 0.0758
C24A C 0.65161(13) 0.35110(18) 0.09762(11)
H20A H 0.6589 0.3584 0.1218
Te5A Te 0.59988(2) 0.40418(2) 0.20351(2)
O10A O 0.61763(17) 0.44091(17) 0.24747(13)
C25A C 0.65022(12) 0.42970(13) 0.17284(10)
C26A C 0.64330(14) 0.45849(16) 0.14437(12)
H21A H 0.6155 0.4688 0.1394
C27A C 0.67702(18) 0.4722(2) 0.12316(14)
H22A H 0.6723 0.4919 0.1037
C28A C 0.71766(16) 0.4571(2) 0.13044(16)
H23A H 0.7407 0.4665 0.1159
C29A C 0.72458(12) 0.4283(2) 0.15892(16)
H24A H 0.7524 0.4180 0.1639
C30A C 0.69086(13) 0.41462(16) 0.18012(13)
H25A H 0.6956 0.3949 0.1996
Te6A Te 0.63938(3) 0.37095(3) 0.30565(2)
O11A O 0.6568(3) 0.3273(3) 0.3408(2)
C31A C 0.70196(19) 0.3895(2) 0.29535(17)
C32A C 0.7104(2) 0.4290(2) 0.2782(2)
H26A H 0.6878 0.4466 0.2695
C33A C 0.7520(3) 0.4427(3) 0.2737(3)
H27A H 0.7578 0.4697 0.2620
C34A C 0.7851(2) 0.4170(3) 0.2864(3)
H28A H 0.8136 0.4263 0.2833
C35A C 0.7767(2) 0.3775(3) 0.3036(3)
H29A H 0.7993 0.3599 0.3122
C36A C 0.7351(2) 0.3637(2) 0.3080(2)
H30A H 0.7293 0.3367 0.3198
Te7A Te 0.64424(3) 0.33437(3) 0.39395(2)
O12A O 0.6620(3) 0.2744(3) 0.3927(2)
C37A C 0.7072(2) 0.3549(3) 0.40342(19)
C38A C 0.7375(2) 0.3241(3) 0.4132(3)
H31A H 0.7294 0.2946 0.4173
C39A C 0.7796(2) 0.3365(4) 0.4169(3)
H32A H 0.8003 0.3155 0.4236
C40A C 0.7914(2) 0.3797(4) 0.4108(3)
H33A H 0.8202 0.3882 0.4134
C41A C 0.7611(3) 0.4105(3) 0.4011(3)
H34A H 0.7691 0.4401 0.3970
C42A C 0.7190(3) 0.3981(3) 0.3974(3)
H35A H 0.6982 0.4192 0.3907
Te8A Te 0.62832(3) 0.22155(3) 0.41107(2)
O13A O 0.64522(16) 0.20132(17) 0.36655(14)
C43A C 0.6822(2) 0.2055(3) 0.4414(2)
C44A C 0.7184(3) 0.1936(4) 0.4226(2)
H36A H 0.7184 0.1937 0.3969
C45A C 0.7548(3) 0.1814(5) 0.4413(3)
H37A H 0.7795 0.1733 0.4285
C46A C 0.7548(3) 0.1812(5) 0.4789(3)
H38A H 0.7796 0.1730 0.4917
C47A C 0.7186(4) 0.1932(5) 0.4977(2)
H39A H 0.7186 0.1930 0.5233
C48A C 0.6823(3) 0.2053(4) 0.4789(2)
H40A H 0.6575 0.2134 0.4917
O14A O 0.64369(16) 0.17383(17) 0.30070(14)
Te9A Te 0.62153(3) 0.14197(3) 0.34306(3)
C49A C 0.6778(2) 0.1152(2) 0.3572(2)
C50A C 0.7176(2) 0.1307(3) 0.3479(2)
H41A H 0.7202 0.1559 0.3330
C51A C 0.7537(2) 0.1094(3) 0.3604(3)
H42A H 0.7809 0.1201 0.3540
C52A C 0.7499(2) 0.0726(3) 0.3822(3)
H43A H 0.7746 0.0581 0.3908
C53A C 0.7101(3) 0.0571(3) 0.3915(3)
H44A H 0.7075 0.0319 0.4065
C54A C 0.6740(2) 0.0783(3) 0.3790(3)
H45A H 0.6468 0.0677 0.3854
O15A O 0.6179(3) 0.0905(3) 0.3102(2)
Te10A Te 0.57088(3) 0.05827(3) 0.28953(3)
C55A C 0.6092(3) 0.0032(2) 0.2887(2)
C56A C 0.6510(3) 0.0072(3) 0.3001(3)
H46A H 0.6622 0.0353 0.3057
C57A C 0.6764(3) -0.0297(4) 0.3031(4)
H47A H 0.7049 -0.0270 0.3109
C58A C 0.6600(4) -0.0708(3) 0.2949(4)
H48A H 0.6773 -0.0961 0.2970
C59A C 0.6182(4) -0.0748(2) 0.2836(3)
H49A H 0.6069 -0.1029 0.2780
C60A C 0.5928(3) -0.0378(3) 0.2805(3)
H50A H 0.5642 -0.0406 0.2728
O16A O 0.5863(3) 0.0806(3) 0.2427(2)
Te11A Te 0.55157(3) 0.08418(3) 0.19403(3)
C61A C 0.5894(2) 0.0334(2) 0.1738(2)
C62A C 0.6326(2) 0.0332(3) 0.1808(3)
H51A H 0.6447 0.0553 0.1956
C63A C 0.6581(2) 0.0007(3) 0.1662(3)
H52A H 0.6876 0.0006 0.1710
C64A C 0.6404(3) -0.0316(3) 0.1445(3)
H53A H 0.6578 -0.0539 0.1345
C65A C 0.5972(4) -0.0315(3) 0.1374(3)
H54A H 0.5850 -0.0536 0.1226
C66A C 0.5716(3) 0.0010(3) 0.1521(3)
H55A H 0.5421 0.0011 0.1473
Te12A Te 0.49002(3) 0.11263(3) 0.11343(2)
C67A C 0.5106(3) 0.0815(3) 0.0666(2)
C68A C 0.5541(3) 0.0764(4) 0.0630(3)
H56A H 0.5726 0.0874 0.0812
C69A C 0.5705(3) 0.0552(5) 0.0329(4)
H57A H 0.6003 0.0518 0.0305
C70A C 0.5435(5) 0.0391(5) 0.0064(3)
H58A H 0.5547 0.0247 -0.0141
C71A C 0.5000(4) 0.0442(5) 0.0100(3)
H59A H 0.4815 0.0332 -0.0081
C72A C 0.4835(3) 0.0654(4) 0.0401(3)
H60A H 0.4538 0.0688 0.0425
Te13A Te 0.49703(3) 0.23032(4) 0.07044(3)
C73A C 0.5310(3) 0.2140(3) 0.0216(2)
C74A C 0.5446(4) 0.1710(3) 0.0180(3)
H61A H 0.5385 0.1502 0.0363
C75A C 0.5672(5) 0.1584(4) -0.0125(4)
H62A H 0.5765 0.1290 -0.0150
C76A C 0.5762(5) 0.1889(5) -0.0392(3)
H63A H 0.5917 0.1803 -0.0600
C77A C 0.5626(5) 0.2320(4) -0.0356(3)
H64A H 0.5688 0.2528 -0.0539
C78A C 0.5400(4) 0.2445(3) -0.0051(3)
H65A H 0.5307 0.2739 -0.0026
Te14A Te 0.46522(2) 0.34420(2) 0.05743(2)
C79A C 0.48119(16) 0.36634(15) 0.00528(10)
C80A C 0.45134(16) 0.3652(2) -0.02235(13)
H66A H 0.4236 0.3547 -0.0177
C81A C 0.4621(2) 0.3792(2) -0.05681(12)
H67A H 0.4417 0.3784 -0.0757
C82A C 0.5028(2) 0.3945(2) -0.06364(12)
H68A H 0.5101 0.4041 -0.0872
C83A C 0.53261(19) 0.3957(2) -0.03602(16)
H69A H 0.5604 0.4061 -0.0407
C84A C 0.52182(16) 0.3816(2) -0.00156(13)
H70A H 0.5422 0.3824 0.0173
Te15A Te 0.51555(2) 0.43228(2) 0.11214(2)
C85A C 0.54869(12) 0.45809(12) 0.06814(9)
C86A C 0.58871(13) 0.44277(15) 0.05912(12)
H71A H 0.6015 0.4202 0.0730
C87A C 0.60999(14) 0.4604(2) 0.02973(14)
H72A H 0.6373 0.4500 0.0236
C88A C 0.59126(18) 0.4934(2) 0.00936(13)
H73A H 0.6058 0.5055 -0.0107
C89A C 0.55124(18) 0.50874(17) 0.01838(13)
H74A H 0.5384 0.5313 0.0045
C90A C 0.52996(14) 0.49108(14) 0.04777(12)
H75A H 0.5026 0.5015 0.0539
Te16A Te 0.52132(2) 0.51236(2) 0.18207(2)
C91A C 0.55198(16) 0.57087(14) 0.16717(12)
C92A C 0.53109(17) 0.61088(16) 0.16585(16)
H76A H 0.5018 0.6124 0.1712
C93A C 0.5531(2) 0.64863(14) 0.15665(19)
H77A H 0.5389 0.6760 0.1558
C94A C 0.5961(2) 0.64636(18) 0.1488(2)
H78A H 0.6111 0.6722 0.1425
C95A C 0.61694(17) 0.6063(2) 0.1501(2)
H79A H 0.6463 0.6048 0.1447
C96A C 0.59490(16) 0.56859(17) 0.15929(16)
H80A H 0.6092 0.5412 0.1602
Te17A Te 0.58507(2) 0.49050(2) 0.26338(2)
C97A C 0.62953(15) 0.53856(14) 0.25000(13)
C98A C 0.66381(17) 0.52834(17) 0.22812(16)
H81A H 0.6683 0.4990 0.2207
C99A C 0.69143(19) 0.5611(2) 0.2171(2)
H82A H 0.7149 0.5541 0.2022
C100A C 0.6848(2) 0.6041(2) 0.2280(2)
H83A H 0.7037 0.6265 0.2205
C101A C 0.6505(2) 0.61433(14) 0.2499(2)
H84A H 0.6460 0.6437 0.2574
C102A C 0.62288(18) 0.58155(16) 0.26090(16)
H85A H 0.5995 0.5885 0.2759
Te18A Te 0.60404(2) 0.46208(2) 0.35565(2)
C103A C 0.65397(19) 0.49784(18) 0.37971(14)
C104A C 0.6927(2) 0.5006(2) 0.36213(16)
H86A H 0.6964 0.4869 0.3393
C105A C 0.7260(2) 0.5234(3) 0.3779(2)
H87A H 0.7525 0.5252 0.3659
C106A C 0.7206(3) 0.5434(3) 0.4113(2)
H88A H 0.7434 0.5590 0.4221
C107A C 0.6819(3) 0.5406(3) 0.42889(18)
H89A H 0.6782 0.5543 0.4517
C108A C 0.6486(2) 0.5179(2) 0.41309(15)
H90A H 0.6221 0.5160 0.4251
O17A O 0.5379(3) 0.0936(3) 0.1394(3)
O18A O 0.5199(2) 0.1667(3) 0.0989(2)
O19A O 0.49987(18) 0.29228(18) 0.04890(15)
O20A O 0.51158(16) 0.37076(17) 0.08102(13)
O21A O 0.53950(18) 0.48447(17) 0.13838(14)
O22A O 0.56887(17) 0.48847(16) 0.20741(13)
O23A O 0.62156(18) 0.48228(19) 0.30922(14)
O24A O 0.63773(17) 0.40913(18) 0.35041(13)
Br1A Br 0.63418(5) 0.31270(6) 0.46879(4)
Br2A Br 0.58718(5) 0.14685(4) 0.43468(4)
Br3A Br 0.41750(3) 0.42734(3) 0.06458(2)
Br4A Br 0.55720(4) 0.54662(4) 0.36059(3)
Br5A Br 0.44592(7) 0.02865(6) 0.13225(6)
Te19A Te 0.63208(3) 0.30279(3) 0.22458(2)
C109A C 0.69230(19) 0.2993(2) 0.20182(19)
C110A C 0.6972(2) 0.2835(3) 0.1669(2)
C111A C 0.7371(3) 0.2827(4) 0.1511(2)
C112A C 0.7720(2) 0.2977(4) 0.1703(3)
C113A C 0.7671(2) 0.3136(4) 0.2053(3)
C114A C 0.7273(2) 0.3144(3) 0.2210(2)
H91A H 0.7910 0.3239 0.2184
H92A H 0.7239 0.3252 0.2449
H93A H 0.6733 0.2732 0.1538
H94A H 0.7404 0.2719 0.1273
H95A H 0.7993 0.2972 0.1596
Te20? Te 0.38265(3) 0.27237(4) 0.30615(3)
C115? C 0.3213(3) 0.2756(4) 0.3253(3)
C116? C 0.2898(4) 0.2939(5) 0.3038(3)
H96? H 0.2967 0.3057 0.2808
C117? C 0.2482(4) 0.2950(6) 0.3159(4)
H97? H 0.2267 0.3075 0.3012
C118? C 0.2381(3) 0.2778(6) 0.3496(4)
H98? H 0.2097 0.2786 0.3579
C119? C 0.2696(4) 0.2596(7) 0.3711(4)
H99? H 0.2627 0.2478 0.3941
C120? C 0.3112(4) 0.2585(5) 0.3590(3)
H100? H 0.3327 0.2460 0.3737
Te21? Te 0.38813(4) 0.16976(5) 0.27620(4)
O40? O 0.3870(4) 0.2152(5) 0.3116(4)
O41? O 0.4143(5) 0.1368(5) 0.3169(4)
C121? C 0.3271(3) 0.1453(4) 0.2870(3)
C122? C 0.2999(4) 0.1693(4) 0.3089(4)
H101? H 0.3081 0.1974 0.3173
C123? C 0.2607(4) 0.1522(6) 0.3183(4)
H102? H 0.2422 0.1686 0.3333
C124? C 0.2487(4) 0.1110(6) 0.3060(5)
H103? H 0.2220 0.0993 0.3124
C125? C 0.2759(5) 0.0870(4) 0.2841(5)
H104? H 0.2677 0.0589 0.2757
C126? C 0.3151(4) 0.1042(4) 0.2747(4)
H105? H 0.3336 0.0878 0.2597
Te22? Te 0.44217(4) 0.20260(4) 0.36825(4)
O42? O 0.4104(4) 0.2654(4) 0.3533(4)
O43? O 0.4534(5) 0.2451(5) 0.4045(4)
C127? C 0.3890(4) 0.1814(4) 0.3984(4)
C128? C 0.3698(5) 0.1419(4) 0.3897(4)
H106? H 0.3792 0.1256 0.3695
C129? C 0.3367(5) 0.1262(5) 0.4107(6)
H107? H 0.3235 0.0992 0.4048
C130? C 0.3228(5) 0.1501(6) 0.4404(5)
H108? H 0.3002 0.1393 0.4547
C131? C 0.3421(6) 0.1896(6) 0.4491(4)
H109? H 0.3327 0.2059 0.4694
C132? C 0.3752(5) 0.2053(5) 0.4281(4)
H110? H 0.3884 0.2323 0.4340
Te23? Te 0.35896(4) 0.35527(4) 0.21354(3)
O44? O 0.3431(5) 0.3260(5) 0.1643(4)
C133? C 0.2976(3) 0.3817(4) 0.2171(3)
C134? C 0.2910(4) 0.4265(4) 0.2132(4)
H111? H 0.3145 0.4458 0.2113
C135? C 0.2500(5) 0.4430(4) 0.2123(5)
H112? H 0.2455 0.4736 0.2096
C136? C 0.2157(4) 0.4148(6) 0.2151(5)
H113? H 0.1877 0.4261 0.2145
C137? C 0.2223(3) 0.3701(5) 0.2190(5)
H114? H 0.1988 0.3508 0.2209
C138? C 0.2633(4) 0.3535(4) 0.2200(4)
H115? H 0.2678 0.3230 0.2226
Te24? Te 0.35666(4) 0.34706(4) 0.11879(3)
O45? O 0.3379(4) 0.2858(5) 0.0980(4)
C139? C 0.2965(4) 0.3686(4) 0.1024(3)
C140? C 0.2603(4) 0.3540(5) 0.1199(4)
H116? H 0.2625 0.3324 0.1383
C141? C 0.2210(4) 0.3708(7) 0.1104(5)
H117? H 0.1962 0.3608 0.1224
C142? C 0.2178(4) 0.4024(7) 0.0835(5)
H118? H 0.1910 0.4139 0.0770
C143? C 0.2541(6) 0.4171(6) 0.0661(5)
H119? H 0.2519 0.4386 0.0477
C144? C 0.2934(5) 0.4002(5) 0.0755(4)
H120? H 0.3182 0.4102 0.0636
Te25? Te 0.36831(5) 0.23518(5) 0.08764(4)
C145? C 0.3138(4) 0.2051(5) 0.0624(4)
C146? C 0.2848(5) 0.1828(7) 0.0837(4)
H121? H 0.2928 0.1728 0.1070
C147? C 0.2441(5) 0.1751(8) 0.0708(6)
H122? H 0.2243 0.1598 0.0854
C148? C 0.2325(5) 0.1897(9) 0.0367(6)
H123? H 0.2047 0.1845 0.0279
C149? C 0.2615(6) 0.2120(9) 0.0154(5)
H124? H 0.2535 0.2220 -0.0080
C150? C 0.3022(5) 0.2197(7) 0.0283(4)
H125? H 0.3220 0.2350 0.0137
Te26? Te 0.38063(4) 0.14533(4) 0.16290(4)
C151? C 0.3243(3) 0.1088(4) 0.1432(3)
C152? C 0.2894(4) 0.1218(5) 0.1633(4)
H126? H 0.2930 0.1409 0.1833
C153? C 0.2492(3) 0.1068(6) 0.1541(5)
H127? H 0.2254 0.1156 0.1679
C154? C 0.2440(4) 0.0788(6) 0.1248(5)
H128? H 0.2165 0.0685 0.1186
C155? C 0.2789(5) 0.0658(6) 0.1047(5)
H129? H 0.2753 0.0467 0.0847
C156? C 0.3190(4) 0.0808(5) 0.1139(4)
H130? H 0.3429 0.0720 0.1001
O46? O 0.3893(4) 0.1047(4) 0.2114(4)
Te27? Te 0.43081(4) 0.06283(4) 0.21439(4)
C157? C 0.3886(4) 0.0082(4) 0.2195(4)
C158? C 0.3472(5) 0.0142(5) 0.2078(5)
H131? H 0.3380 0.0422 0.1997
C159? C 0.3191(5) -0.0208(6) 0.2078(6)
H132? H 0.2908 -0.0168 0.1998
C160? C 0.3324(6) -0.0618(5) 0.2196(6)
H133? H 0.3132 -0.0857 0.2196
C161? C 0.3738(6) -0.0677(4) 0.2313(6)
H134? H 0.3830 -0.0957 0.2394
C162? C 0.4019(5) -0.0327(4) 0.2313(5)
H135? H 0.4302 -0.0368 0.2393
O47? O 0.4149(5) 0.0632(5) 0.2699(4)
Te28? Te 0.44681(5) 0.08210(5) 0.31190(4)
C163? C 0.4039(4) 0.0493(4) 0.3468(3)
C164? C 0.4089(4) 0.0559(5) 0.3837(4)
H136? H 0.4310 0.0741 0.3924
C165? C 0.3815(6) 0.0359(6) 0.4079(3)
H137? H 0.3849 0.0404 0.4331
C166? C 0.3490(5) 0.0092(6) 0.3951(5)
H138? H 0.3303 -0.0045 0.4117
C167? C 0.3440(5) 0.0026(6) 0.3582(5)
H139? H 0.3218 -0.0156 0.3495
C168? C 0.3714(4) 0.0227(5) 0.3341(4)
H140? H 0.3680 0.0182 0.3088
Te29? Te 0.50678(5) 0.23695(4) 0.43331(4)
C169? C 0.4656(5) 0.2060(5) 0.4714(4)
C170? C 0.4501(6) 0.1640(5) 0.4657(5)
H141? H 0.4596 0.1474 0.4456
C171? C 0.4206(7) 0.1463(6) 0.4893(6)
H142? H 0.4100 0.1176 0.4854
C172? C 0.4067(7) 0.1706(8) 0.5187(6)
H143? H 0.3866 0.1585 0.5349
C173? C 0.4222(7) 0.2126(7) 0.5245(5)
H144? H 0.4127 0.2292 0.5446
C174? C 0.4517(6) 0.2303(5) 0.5008(5)
H145? H 0.4623 0.2591 0.5047
Te30? Te 0.42947(5) 0.12186(5) 0.05719(4)
C175? C 0.3876(5) 0.0918(4) 0.0188(3)
C176? C 0.3442(5) 0.0956(5) 0.0239(4)
H146? H 0.3336 0.1130 0.0432
C177? C 0.3164(5) 0.0740(7) 0.0009(5)
H147? H 0.2867 0.0766 0.0044
C178? C 0.3319(6) 0.0486(7) -0.0272(5)
H148? H 0.3129 0.0339 -0.0429
C179? C 0.3753(6) 0.0448(6) -0.0323(4)
H149? H 0.3859 0.0275 -0.0516
C180? C 0.4032(5) 0.0664(5) -0.0093(4)
H150? H 0.4328 0.0638 -0.0128
Te31? Te 0.46292(5) 0.04417(5) 0.12112(4)
O48? O 0.4256(5) 0.0597(5) 0.1590(4)
O49? O 0.4207(5) 0.0705(5) 0.0902(4)
O50? O 0.3886(5) 0.1497(5) 0.0843(4)
Br8? Br 0.42446(9) 0.19923(8) 0.01121(6)
Br9? Br 0.50261(8) 0.14989(7) 0.37681(6)
Br10? Br 0.49027(8) -0.00402(7) 0.31265(7)
Br11? Br 0.50709(9) 0.04732(8) 0.04846(7)
Br12? Br 0.5000 0.14350(10) 0.2500
Br13? Br 0.41860(10) 0.26483(10) 0.01719(7)
O51? O 0.3689(6) 0.4173(8) -0.0684(6)
O52? O 0.4282(12) 0.2507(13) -0.0830(7)
Br14? Br 0.52698(4) 0.16231(4) 0.30391(4)
Br15? Br 0.5000 0.00697(6) 0.2500
Br16? Br 0.5000 0.56574(4) 0.2500
loop_
_geom_bond_atom_site_label_1
_geom_bond_atom_site_label_2
_geom_bond_site_symmetry_1
_geom_bond_site_symmetry_2
O1 Te5 1_555 1_555
O2 Te1 1_555 1_555
O3 Te1 1_555 1_555
Te1 C1 1_555 1_555
C1 C2 1_555 1_555
C2 H1 1_555 1_555
C3 C2 1_555 1_555
H2 C3 1_555 1_555
C4 C3 1_555 1_555
H3 C4 1_555 1_555
C5 C4 1_555 1_555
H4 C5 1_555 1_555
C6 C1 1_555 1_555
H5 C6 1_555 1_555
Te2 O3 1_555 1_555
O4 Te2 1_555 1_555
O5 Te2 1_555 1_555
C7 Te2 1_555 1_555
C8 C7 1_555 1_555
H6 C8 1_555 1_555
C9 C8 1_555 1_555
H7 C9 1_555 1_555
C10 C9 1_555 1_555
H8 C10 1_555 1_555
C11 C10 1_555 1_555
H9 C11 1_555 1_555
C12 C7 1_555 1_555
H10 C12 1_555 1_555
Te3 O4 1_555 1_555
O6 Te3 1_555 1_555
O7 Te3 1_555 1_555
C13 Te3 1_555 1_555
C14 C13 1_555 1_555
H11 C14 1_555 1_555
C15 C14 1_555 1_555
H12 C15 1_555 1_555
C16 C15 1_555 1_555
H13 C16 1_555 1_555
C17 C16 1_555 1_555
H14 C17 1_555 1_555
C18 C13 1_555 1_555
H15 C18 1_555 1_555
Te4 O6 1_555 1_555
O8 Te4 1_555 1_555
O9 Te4 1_555 1_555
C19 Te4 1_555 1_555
C20 C19 1_555 1_555
H16 C20 1_555 1_555
C21 C20 1_555 1_555
H17 C21 1_555 1_555
C22 C21 1_555 1_555
H18 C22 1_555 1_555
C23 C22 1_555 1_555
H19 C23 1_555 1_555
C24 C19 1_555 1_555
H20 C24 1_555 1_555
Te5 O8 1_555 1_555
O10 Te5 1_555 1_555
C25 Te5 1_555 1_555
C26 C25 1_555 1_555
H21 C26 1_555 1_555
C27 C26 1_555 1_555
H22 C27 1_555 1_555
C28 C27 1_555 1_555
H23 C28 1_555 1_555
C29 C28 1_555 1_555
H24 C29 1_555 1_555
C30 C25 1_555 1_555
H25 C30 1_555 1_555
Te6 O2 1_555 1_555
O11 Te6 1_555 1_555
C31 Te6 1_555 1_555
C32 C31 1_555 1_555
H26 C32 1_555 1_555
C33 C32 1_555 1_555
H27 C33 1_555 1_555
C34 C33 1_555 1_555
H28 C34 1_555 1_555
C35 C34 1_555 1_555
H29 C35 1_555 1_555
C36 C31 1_555 1_555
H30 C36 1_555 1_555
Te7 O11 1_555 1_555
O12 Te7 1_555 1_555
C37 Te7 1_555 1_555
C38 C37 1_555 1_555
H31 C38 1_555 1_555
C39 C38 1_555 1_555
H32 C39 1_555 1_555
C40 C39 1_555 1_555
H33 C40 1_555 1_555
C41 C40 1_555 1_555
H34 C41 1_555 1_555
C42 C37 1_555 1_555
H35 C42 1_555 1_555
Te8 O12 1_555 1_555
O13 Te8 1_555 1_555
C43 Te8 1_555 1_555
C44 C43 1_555 1_555
H36 C44 1_555 1_555
C45 C44 1_555 1_555
H37 C45 1_555 1_555
C46 C45 1_555 1_555
H38 C46 1_555 1_555
C47 C46 1_555 1_555
H39 C47 1_555 1_555
C48 C43 1_555 1_555
H40 C48 1_555 1_555
O14 Te1 1_555 1_555
Te9 O13 1_555 1_555
C49 Te9 1_555 1_555
C50 C49 1_555 1_555
H41 C50 1_555 1_555
C51 C50 1_555 1_555
H42 C51 1_555 1_555
C52 C51 1_555 1_555
H43 C52 1_555 1_555
C53 C52 1_555 1_555
H44 C53 1_555 1_555
C54 C49 1_555 1_555
H45 C54 1_555 1_555
O15 Te9 1_555 1_555
Te10 O15 1_555 1_555
C55 Te10 1_555 1_555
C56 C55 1_555 1_555
H46 C56 1_555 1_555
C57 C56 1_555 1_555
H47 C57 1_555 1_555
C58 C57 1_555 1_555
H48 C58 1_555 1_555
C59 C58 1_555 1_555
H49 C59 1_555 1_555
C60 C55 1_555 1_555
H50 C60 1_555 1_555
O16 Te10 1_555 1_555
Te11 O5 1_555 1_555
C61 Te11 1_555 1_555
C62 C61 1_555 1_555
H51 C62 1_555 1_555
C63 C62 1_555 1_555
H52 C63 1_555 1_555
C64 C63 1_555 1_555
H53 C64 1_555 1_555
C65 C64 1_555 1_555
H54 C65 1_555 1_555
C66 C61 1_555 1_555
H55 C66 1_555 1_555
Te12 C67 1_555 1_555
C67 C68 1_555 1_555
C68 H56 1_555 1_555
C69 C68 1_555 1_555
H57 C69 1_555 1_555
C70 C69 1_555 1_555
H58 C70 1_555 1_555
C71 C70 1_555 1_555
H59 C71 1_555 1_555
C72 C67 1_555 1_555
H60 C72 1_555 1_555
Te13 O7 1_555 1_555
C73 Te13 1_555 1_555
C74 C73 1_555 1_555
H61 C74 1_555 1_555
C75 C74 1_555 1_555
H62 C75 1_555 1_555
C76 C75 1_555 1_555
H63 C76 1_555 1_555
C77 C76 1_555 1_555
H64 C77 1_555 1_555
C78 C73 1_555 1_555
H65 C78 1_555 1_555
Te14 C79 1_555 1_555
C79 C80 1_555 1_555
C80 H66 1_555 1_555
C81 C80 1_555 1_555
H67 C81 1_555 1_555
C82 C81 1_555 1_555
H68 C82 1_555 1_555
C83 C82 1_555 1_555
H69 C83 1_555 1_555
C84 C79 1_555 1_555
H70 C84 1_555 1_555
Te15 O9 1_555 1_555
C85 Te15 1_555 1_555
C86 C85 1_555 1_555
H71 C86 1_555 1_555
C87 C86 1_555 1_555
H72 C87 1_555 1_555
C88 C87 1_555 1_555
H73 C88 1_555 1_555
C89 C88 1_555 1_555
H74 C89 1_555 1_555
C90 C85 1_555 1_555
H75 C90 1_555 1_555
Te16 C91 1_555 1_555
C91 C92 1_555 1_555
C92 H76 1_555 1_555
C93 C92 1_555 1_555
H77 C93 1_555 1_555
C94 C93 1_555 1_555
H78 C94 1_555 1_555
C95 C94 1_555 1_555
H79 C95 1_555 1_555
C96 C91 1_555 1_555
H80 C96 1_555 1_555
Te17 O10 1_555 1_555
C97 Te17 1_555 1_555
C98 C97 1_555 1_555
H81 C98 1_555 1_555
C99 C98 1_555 1_555
H82 C99 1_555 1_555
C100 C99 1_555 1_555
H83 C100 1_555 1_555
C101 C100 1_555 1_555
H84 C101 1_555 1_555
C102 C97 1_555 1_555
H85 C102 1_555 1_555
Te18 C103 1_555 1_555
C103 C104 1_555 1_555
C104 H86 1_555 1_555
C105 C104 1_555 1_555
H87 C105 1_555 1_555
C106 C105 1_555 1_555
H88 C106 1_555 1_555
C107 C106 1_555 1_555
H89 C107 1_555 1_555
C108 C103 1_555 1_555
H90 C108 1_555 1_555
O17 Te11 1_555 1_555
O18 Te12 1_555 1_555
O19 Te13 1_555 1_555
O20 Te14 1_555 1_555
O21 Te15 1_555 1_555
O22 Te16 1_555 1_555
O23 Te17 1_555 1_555
O24 Te6 1_555 1_555
Br1 Te7 1_555 1_555
Br2 Te8 1_555 1_555
Br3 Te14 1_555 1_555
Br4 Te18 1_555 1_555
Br5 Te12 1_555 1_555
Te19 O1 1_555 1_555
C109 Te19 1_555 1_555
C110 C109 1_555 1_555
C111 C110 1_555 1_555
C112 C111 1_555 1_555
C113 C112 1_555 1_555
C114 C109 1_555 1_555
H91 C113 1_555 1_555
H92 C114 1_555 1_555
H93 C110 1_555 1_555
H94 C111 1_555 1_555
H95 C112 1_555 1_555
O1A Te5A 1_555 1_555
O2A Te1A 1_555 1_555
O3A Te1A 1_555 1_555
Te1A C1A 1_555 1_555
C1A C2A 1_555 1_555
C2A H1A 1_555 1_555
C3A C2A 1_555 1_555
H2A C3A 1_555 1_555
C4A C3A 1_555 1_555
H3A C4A 1_555 1_555
C5A C4A 1_555 1_555
H4A C5A 1_555 1_555
C6A C1A 1_555 1_555
H5A C6A 1_555 1_555
Te2A O3A 1_555 1_555
O4A Te2A 1_555 1_555
O5A Te2A 1_555 1_555
C7A Te2A 1_555 1_555
C8A C7A 1_555 1_555
H6A C8A 1_555 1_555
C9A C8A 1_555 1_555
H7A C9A 1_555 1_555
C10A C9A 1_555 1_555
H8A C10A 1_555 1_555
C11A C10A 1_555 1_555
H9A C11A 1_555 1_555
C12A C7A 1_555 1_555
H10A C12A 1_555 1_555
Te3A O4A 1_555 1_555
O6A Te3A 1_555 1_555
O7A Te3A 1_555 1_555
C13A Te3A 1_555 1_555
C14A C13A 1_555 1_555
H11A C14A 1_555 1_555
C15A C14A 1_555 1_555
H12A C15A 1_555 1_555
C16A C15A 1_555 1_555
H13A C16A 1_555 1_555
C17A C16A 1_555 1_555
H14A C17A 1_555 1_555
C18A C13A 1_555 1_555
H15A C18A 1_555 1_555
Te4A O6A 1_555 1_555
O8A Te4A 1_555 1_555
O9A Te4A 1_555 1_555
C19A Te4A 1_555 1_555
C20A C19A 1_555 1_555
H16A C20A 1_555 1_555
C21A C20A 1_555 1_555
H17A C21A 1_555 1_555
C22A C21A 1_555 1_555
H18A C22A 1_555 1_555
C23A C22A 1_555 1_555
H19A C23A 1_555 1_555
C24A C19A 1_555 1_555
H20A C24A 1_555 1_555
Te5A O8A 1_555 1_555
O10A Te5A 1_555 1_555
C25A Te5A 1_555 1_555
C26A C25A 1_555 1_555
H21A C26A 1_555 1_555
C27A C26A 1_555 1_555
H22A C27A 1_555 1_555
C28A C27A 1_555 1_555
H23A C28A 1_555 1_555
C29A C28A 1_555 1_555
H24A C29A 1_555 1_555
C30A C25A 1_555 1_555
H25A C30A 1_555 1_555
Te6A O2A 1_555 1_555
O11A Te6A 1_555 1_555
C31A Te6A 1_555 1_555
C32A C31A 1_555 1_555
H26A C32A 1_555 1_555
C33A C32A 1_555 1_555
H27A C33A 1_555 1_555
C34A C33A 1_555 1_555
H28A C34A 1_555 1_555
C35A C34A 1_555 1_555
H29A C35A 1_555 1_555
C36A C31A 1_555 1_555
H30A C36A 1_555 1_555
Te7A O11A 1_555 1_555
O12A Te7A 1_555 1_555
C37A Te7A 1_555 1_555
C38A C37A 1_555 1_555
H31A C38A 1_555 1_555
C39A C38A 1_555 1_555
H32A C39A 1_555 1_555
C40A C39A 1_555 1_555
H33A C40A 1_555 1_555
C41A C40A 1_555 1_555
H34A C41A 1_555 1_555
C42A C37A 1_555 1_555
H35A C42A 1_555 1_555
Te8A O12A 1_555 1_555
O13A Te8A 1_555 1_555
C43A Te8A 1_555 1_555
C44A C43A 1_555 1_555
H36A C44A 1_555 1_555
C45A C44A 1_555 1_555
H37A C45A 1_555 1_555
C46A C45A 1_555 1_555
H38A C46A 1_555 1_555
C47A C46A 1_555 1_555
H39A C47A 1_555 1_555
C48A C43A 1_555 1_555
H40A C48A 1_555 1_555
O14A Te1A 1_555 1_555
Te9A O13A 1_555 1_555
C49A Te9A 1_555 1_555
C50A C49A 1_555 1_555
H41A C50A 1_555 1_555
C51A C50A 1_555 1_555
H42A C51A 1_555 1_555
C52A C51A 1_555 1_555
H43A C52A 1_555 1_555
C53A C52A 1_555 1_555
H44A C53A 1_555 1_555
C54A C49A 1_555 1_555
H45A C54A 1_555 1_555
O15A Te9A 1_555 1_555
Te10A Br5 1_555 1_555
C55A Te10A 1_555 1_555
C56A C55A 1_555 1_555
H46A C56A 1_555 1_555
C57A C56A 1_555 1_555
H47A C57A 1_555 1_555
C58A C57A 1_555 1_555
H48A C58A 1_555 1_555
C59A C58A 1_555 1_555
H49A C59A 1_555 1_555
C60A C55A 1_555 1_555
H50A C60A 1_555 1_555
O16A Te10A 1_555 1_555
Te11A O5A 1_555 1_555
C61A Te11A 1_555 1_555
C62A C61A 1_555 1_555
H51A C62A 1_555 1_555
C63A C62A 1_555 1_555
H52A C63A 1_555 1_555
C64A C63A 1_555 1_555
H53A C64A 1_555 1_555
C65A C64A 1_555 1_555
H54A C65A 1_555 1_555
C66A C61A 1_555 1_555
H55A C66A 1_555 1_555
Te12A C67A 1_555 1_555
C67A C68A 1_555 1_555
C68A H56A 1_555 1_555
C69A C68A 1_555 1_555
H57A C69A 1_555 1_555
C70A C69A 1_555 1_555
H58A C70A 1_555 1_555
C71A C70A 1_555 1_555
H59A C71A 1_555 1_555
C72A C67A 1_555 1_555
H60A C72A 1_555 1_555
Te13A O7A 1_555 1_555
C73A Te13A 1_555 1_555
C74A C73A 1_555 1_555
H61A C74A 1_555 1_555
C75A C74A 1_555 1_555
H62A C75A 1_555 1_555
C76A C75A 1_555 1_555
H63A C76A 1_555 1_555
C77A C76A 1_555 1_555
H64A C77A 1_555 1_555
C78A C73A 1_555 1_555
H65A C78A 1_555 1_555
Te14A C79A 1_555 1_555
C79A C80A 1_555 1_555
C80A H66A 1_555 1_555
C81A C80A 1_555 1_555
H67A C81A 1_555 1_555
C82A C81A 1_555 1_555
H68A C82A 1_555 1_555
C83A C82A 1_555 1_555
H69A C83A 1_555 1_555
C84A C79A 1_555 1_555
H70A C84A 1_555 1_555
Te15A O9A 1_555 1_555
C85A Te15A 1_555 1_555
C86A C85A 1_555 1_555
H71A C86A 1_555 1_555
C87A C86A 1_555 1_555
H72A C87A 1_555 1_555
C88A C87A 1_555 1_555
H73A C88A 1_555 1_555
C89A C88A 1_555 1_555
H74A C89A 1_555 1_555
C90A C85A 1_555 1_555
H75A C90A 1_555 1_555
Te16A Br4 1_555 1_555
C91A Te16A 1_555 1_555
C92A C91A 1_555 1_555
H76A C92A 1_555 1_555
C93A C92A 1_555 1_555
H77A C93A 1_555 1_555
C94A C93A 1_555 1_555
H78A C94A 1_555 1_555
C95A C94A 1_555 1_555
H79A C95A 1_555 1_555
C96A C91A 1_555 1_555
H80A C96A 1_555 1_555
Te17A O10A 1_555 1_555
C97A Te17A 1_555 1_555
C98A C97A 1_555 1_555
H81A C98A 1_555 1_555
C99A C98A 1_555 1_555
H82A C99A 1_555 1_555
C100A C99A 1_555 1_555
H83A C100A 1_555 1_555
C101A C100A 1_555 1_555
H84A C101A 1_555 1_555
C102A C97A 1_555 1_555
H85A C102A 1_555 1_555
Te18A C103A 1_555 1_555
C103A C104A 1_555 1_555
C104A H86A 1_555 1_555
C105A C104A 1_555 1_555
H87A C105A 1_555 1_555
C106A C105A 1_555 1_555
H88A C106A 1_555 1_555
C107A C106A 1_555 1_555
H89A C107A 1_555 1_555
C108A C103A 1_555 1_555
H90A C108A 1_555 1_555
O17A Te11A 1_555 1_555
O18A Te12A 1_555 1_555
O19A Te13A 1_555 1_555
O20A Te14A 1_555 1_555
O21A Te15A 1_555 1_555
O22A Te16A 1_555 1_555
O23A Te17A 1_555 1_555
O24A Te6A 1_555 1_555
Br1A Te7A 1_555 1_555
Br2A Te8A 1_555 1_555
Br3A Te14A 1_555 1_555
Br4A Te16 1_555 1_555
Br5A Te10 1_555 1_555
Te19A O1A 1_555 1_555
C109A Te19A 1_555 1_555
C110A C109A 1_555 1_555
C111A C110A 1_555 1_555
C112A C111A 1_555 1_555
C113A C112A 1_555 1_555
C114A C109A 1_555 1_555
H91A C113A 1_555 1_555
H92A C114A 1_555 1_555
H93A C110A 1_555 1_555
H94A C111A 1_555 1_555
H95A C112A 1_555 1_555
O2 Te19 1_555 1_555
O3 Te19 1_555 1_555
C5 C6 1_555 1_555
C11 C12 1_555 1_555
C17 C18 1_555 1_555
C23 C24 1_555 1_555
C29 C30 1_555 1_555
C35 C36 1_555 1_555
C41 C42 1_555 1_555
C47 C48 1_555 1_555
O14 Te9 1_555 1_555
C53 C54 1_555 1_555
C59 C60 1_555 1_555
O16 Te11 1_555 1_555
C65 C66 1_555 1_555
Te12 O17 1_555 1_555
C71 C72 1_555 1_555
Te13 O18 1_555 1_555
C77 C78 1_555 1_555
Te14 O19 1_555 1_555
C83 C84 1_555 1_555
Te15 O20 1_555 1_555
C89 C90 1_555 1_555
Te16 O21 1_555 1_555
C95 C96 1_555 1_555
Te17 O22 1_555 1_555
C101 C102 1_555 1_555
Te18 O23 1_555 1_555
Te18 O24 1_555 1_555
C107 C108 1_555 1_555
C113 C114 1_555 1_555
O2A Te19A 1_555 1_555
O3A Te19A 1_555 1_555
C5A C6A 1_555 1_555
C11A C12A 1_555 1_555
C17A C18A 1_555 1_555
C23A C24A 1_555 1_555
C29A C30A 1_555 1_555
C35A C36A 1_555 1_555
C41A C42A 1_555 1_555
C47A C48A 1_555 1_555
O14A Te9A 1_555 1_555
C53A C54A 1_555 1_555
O15A Te10A 1_555 1_555
C59A C60A 1_555 1_555
O16A Te11A 1_555 1_555
C65A C66A 1_555 1_555
Te12A O17A 1_555 1_555
Te12A Br5A 1_555 1_555
C71A C72A 1_555 1_555
Te13A O18A 1_555 1_555
C77A C78A 1_555 1_555
Te14A O19A 1_555 1_555
C83A C84A 1_555 1_555
Te15A O20A 1_555 1_555
C89A C90A 1_555 1_555
Te16A O21A 1_555 1_555
C95A C96A 1_555 1_555
Te17A O22A 1_555 1_555
C101A C102A 1_555 1_555
Te18A O23A 1_555 1_555
Te18A O24A 1_555 1_555
Te18A Br4A 1_555 1_555
C107A C108A 1_555 1_555
C113A C114A 1_555 1_555

#END
