
#######################################################################
#
#                 Cambridge Crystallographic Data Centre
#                                CCDC 
#
#######################################################################
#
# If this CIF has been generated from an entry in the Cambridge 
# Structural Database, then it will include bibliographic, chemical, 
# crystal, experimental, refinement or atomic coordinate data resulting 
# from the CCDC's data processing and validation procedures.
#
#######################################################################

data_RAWXOC
_chemical_formula_moiety         'C20 H10 B1 F20 N8 Na1,C5 H3 F5 N2'
_chemical_name_systematic        
'(Hydrogentris(3-(pentafluoroethyl)pyrazolyl)borato)-(3-(pentafluoroethyl)pyrazolyl)-sodium 3-(pentafluoroethyl)pyrazole solvate'
_symmetry_cell_setting           monoclinic
_symmetry_space_group_name_H-M   'P 21/n'
_symmetry_Int_Tables_number      14
_space_group_name_Hall           '-P 2yn'
loop_
_symmetry_equiv_pos_site_id
_symmetry_equiv_pos_as_xyz
1 x,y,z
2 1/2-x,1/2+y,1/2-z
3 -x,-y,-z
4 1/2+x,1/2-y,1/2+z
_cell_length_a                   12.019(2)
_cell_length_b                   17.284(3)
_cell_length_c                   17.784(4)
_cell_angle_alpha                90
_cell_angle_beta                 96.294(12)
_cell_angle_gamma                90
_cell_volume                     3672.12
_exptl_crystal_colour            colorless
_cell_formula_units_Z            4
loop_
_atom_site_label
_atom_site_type_symbol
_atom_site_fract_x
_atom_site_fract_y
_atom_site_fract_z
Na1 Na 0.5205(2) 0.8797(1) 0.2295(1)
N1 N 0.5312(3) 1.0386(2) 0.1289(2)
N2 N 0.5773(3) 0.9673(2) 0.1376(2)
N3 N 0.4892(3) 1.0682(2) 0.2627(2)
N4 N 0.5229(3) 1.0033(2) 0.3019(2)
N5 N 0.3369(3) 1.0132(2) 0.1667(2)
N6 N 0.3416(3) 0.9353(2) 0.1746(2)
C1 C 0.6456(4) 0.9614(3) 0.0838(3)
C2 C 0.6448(4) 1.0289(3) 0.0405(3)
C3 C 0.5712(4) 1.0758(3) 0.0708(3)
C4 C 0.7059(5) 0.8878(3) 0.0774(3)
C5 C 0.8221(6) 0.8844(5) 0.1152(4)
C6 C 0.5665(4) 1.0288(3) 0.3704(3)
C7 C 0.5602(5) 1.1077(3) 0.3752(3)
C8 C 0.5104(5) 1.1307(3) 0.3061(3)
C9 C 0.6157(4) 0.9720(3) 0.4269(3)
C10 C 0.7279(5) 0.9374(4) 0.4105(3)
C11 C 0.2367(4) 0.9108(3) 0.1555(3)
C12 C 0.1647(5) 0.9718(4) 0.1355(3)
C13 C 0.2308(4) 1.0360(3) 0.1431(3)
C14 C 0.2119(5) 0.8273(3) 0.1554(3)
C15 C 0.2729(8) 0.7790(4) 0.1006(4)
F1 F 0.6520(3) 0.8268(2) 0.1107(2)
F2 F 0.7078(3) 0.8658(2) 0.0041(2)
F3 F 0.8811(3) 0.9369(3) 0.0804(3)
F4 F 0.8677(3) 0.8139(3) 0.1080(2)
F5 F 0.8263(3) 0.9001(3) 0.1877(2)
F6 F 0.6361(3) 1.0069(2) 0.4957(2)
F7 F 0.5472(3) 0.9120(2) 0.4351(2)
F8 F 0.7148(3) 0.8995(2) 0.3451(2)
F9 F 0.7666(3) 0.8875(2) 0.4634(2)
F10 F 0.8029(3) 0.9913(2) 0.4062(2)
F11 F 0.1023(3) 0.8149(3) 0.1304(4)
F12 F 0.2342(4) 0.7936(2) 0.2216(2)
F13 F 0.3848(4) 0.7782(3) 0.1286(3)
F14 F 0.2693(5) 0.8032(2) 0.0347(2)
F15 F 0.2359(5) 0.7055(2) 0.1008(2)
B1 B 0.4409(5) 1.0660(3) 0.1779(3)
N7 N 0.4047(4) 0.7819(3) 0.3691(2)
N8 N 0.4831(4) 0.7799(2) 0.3202(2)
C16 C 0.5490(5) 0.7220(3) 0.3450(3)
C17 C 0.5130(6) 0.6871(4) 0.4080(4)
C18 C 0.4218(6) 0.7274(4) 0.4214(3)
C19 C 0.6470(5) 0.7026(3) 0.3033(4)
C20 C 0.6338(9) 0.6323(5) 0.2556(6)
F16 F 0.7406(3) 0.6937(3) 0.3510(3)
F17 F 0.6687(3) 0.7618(2) 0.2566(2)
F18 F 0.6109(6) 0.5719(3) 0.2950(4)
F19 F 0.7244(5) 0.6166(3) 0.2231(4)
F20 F 0.5487(5) 0.6430(3) 0.2020(3)
H1 H 0.6855(4) 1.0392(3) 0.0001(3)
H2 H 0.5514(4) 1.1255(3) 0.0543(3)
H3 H 0.5845(5) 1.1388(3) 0.4165(3)
H4 H 0.4940(5) 1.1815(3) 0.2916(3)
H5 H 0.0882(5) 0.9694(4) 0.1202(3)
H6 H 0.2073(4) 1.0866(3) 0.1337(3)
H7 H 0.4188(36) 1.1214(27) 0.1646(24)
H8 H 0.3478 0.8249 0.3584
H9 H 0.5448(6) 0.6451(4) 0.4350(4)
H10 H 0.3782(6) 0.7186(4) 0.4606(3)
N9 N 0.2717(4) 0.9791(3) 0.3418(2)
N10 N 0.2463(4) 0.9075(3) 0.3620(2)
C21 C 0.1392(5) 0.9120(3) 0.3740(3)
C22 C 0.0990(5) 0.9862(4) 0.3624(4)
C23 C 0.1853(5) 1.0274(2) 0.3407(3)
C24 C 0.0787(5) 0.8415(4) 0.3979(4)
C25 C 0.0727(6) 0.8372(4) 0.4809(4)
F21 F -0.0277(3) 0.8401(3) 0.3630(2)
F22 F 0.1289(4) 0.7762(2) 0.3766(3)
F23 F 0.0130(4) 0.7739(2) 0.4967(3)
F24 F 0.1743(3) 0.8310(3) 0.5171(2)
F25 F 0.0241(3) 0.8988(2) 0.5046(2)
H11 H 0.3450 0.9916 0.3184
H12 H 0.0275(5) 1.0041(4) 0.3683(4)
H13 H 0.1846(5) 1.0795(3) 0.3276(3)
loop_
_geom_bond_atom_site_label_1
_geom_bond_atom_site_label_2
_geom_bond_site_symmetry_1
_geom_bond_site_symmetry_2
Na1 N2 1_555 1_555
N1 N2 1_555 1_555
N2 C1 1_555 1_555
N3 N4 1_555 1_555
N4 Na1 1_555 1_555
N5 N6 1_555 1_555
N6 Na1 1_555 1_555
C1 C2 1_555 1_555
C2 C3 1_555 1_555
C3 N1 1_555 1_555
C4 C1 1_555 1_555
C5 C4 1_555 1_555
C6 N4 1_555 1_555
C7 C6 1_555 1_555
C8 N3 1_555 1_555
C9 C6 1_555 1_555
C10 C9 1_555 1_555
C11 N6 1_555 1_555
C12 C11 1_555 1_555
C13 N5 1_555 1_555
C14 C11 1_555 1_555
C15 C14 1_555 1_555
F1 Na1 1_555 1_555
F2 C4 1_555 1_555
F3 C5 1_555 1_555
F4 C5 1_555 1_555
F5 C5 1_555 1_555
F6 C9 1_555 1_555
F7 C9 1_555 1_555
F8 Na1 1_555 1_555
F9 C10 1_555 1_555
F10 C10 1_555 1_555
F11 C14 1_555 1_555
F12 C14 1_555 1_555
F13 Na1 1_555 1_555
F14 C15 1_555 1_555
F15 C15 1_555 1_555
B1 N1 1_555 1_555
N7 N8 1_555 1_555
N8 Na1 1_555 1_555
C16 N8 1_555 1_555
C17 C16 1_555 1_555
C18 N7 1_555 1_555
C19 C16 1_555 1_555
C20 C19 1_555 1_555
F16 C19 1_555 1_555
F17 Na1 1_555 1_555
F18 C20 1_555 1_555
F19 C20 1_555 1_555
F20 C20 1_555 1_555
N9 N10 1_555 1_555
N10 C21 1_555 1_555
C21 C22 1_555 1_555
C22 C23 1_555 1_555
C23 N9 1_555 1_555
C24 C21 1_555 1_555
C25 C24 1_555 1_555
F21 C24 1_555 1_555
F22 C24 1_555 1_555
F23 C25 1_555 1_555
F24 C25 1_555 1_555
F25 C25 1_555 1_555
H1 C2 1_555 1_555
H2 C3 1_555 1_555
H3 C7 1_555 1_555
H4 C8 1_555 1_555
H5 C12 1_555 1_555
H6 C13 1_555 1_555
H7 B1 1_555 1_555
H8 N7 1_555 1_555
H9 C17 1_555 1_555
H10 C18 1_555 1_555
H11 N9 1_555 1_555
H12 C22 1_555 1_555
H13 C23 1_555 1_555
N3 B1 1_555 1_555
N5 B1 1_555 1_555
C4 F1 1_555 1_555
C7 C8 1_555 1_555
C10 F8 1_555 1_555
C12 C13 1_555 1_555
C15 F13 1_555 1_555
C17 C18 1_555 1_555
C19 F17 1_555 1_555

#END
