
#######################################################################
#
#                 Cambridge Crystallographic Data Centre
#                                CCDC 
#
#######################################################################
#
# If this CIF has been generated from an entry in the Cambridge 
# Structural Database, then it will include bibliographic, chemical, 
# crystal, experimental, refinement or atomic coordinate data resulting 
# from the CCDC's data processing and validation procedures.
#
#######################################################################

data_RAWZAS
_chemical_formula_moiety         'C20 H21 Cl1 F4 N2 O3 S1'
_chemical_name_systematic        
'(S)-Methyl 3-(5-chloropyridin-2-yl)-3-((R)-t-butylsulfinamido)-3-(3-fluoro-5-(trifluoromethyl)phenyl)propanoate'
_symmetry_cell_setting           orthorhombic
_symmetry_space_group_name_H-M   'P 21 21 21'
_symmetry_Int_Tables_number      19
_space_group_name_Hall           'P 2ac 2ab'
loop_
_symmetry_equiv_pos_site_id
_symmetry_equiv_pos_as_xyz
1 x,y,z
2 1/2-x,-y,1/2+z
3 1/2+x,1/2-y,-z
4 -x,1/2+y,1/2-z
_cell_length_a                   8.1431(4)
_cell_length_b                   9.2182(9)
_cell_length_c                   31.437(3)
_cell_angle_alpha                90
_cell_angle_beta                 90
_cell_angle_gamma                90
_cell_volume                     2359.81
_exptl_crystal_colour            colorless
_exptl_crystal_description       plate
_cell_formula_units_Z            4
loop_
_atom_site_label
_atom_site_type_symbol
_atom_site_fract_x
_atom_site_fract_y
_atom_site_fract_z
S1 S 0.48212(12) 0.52791(10) 0.81219(3)
Cl1 Cl 1.12416(15) 0.92115(18) 0.75762(4)
O1 O 0.3232(4) 0.5731(3) 0.79423(9)
N1 N 0.5086(4) 0.5950(3) 0.86134(9)
H1 H 0.4145 0.5808 0.8758
N2 N 0.7012(4) 0.9159(4) 0.81828(11)
C1 C 0.7009(5) 0.7855(4) 0.83723(11)
O2 O 0.1793(4) 0.9587(3) 0.88355(11)
C2 C 0.8342(5) 0.6928(4) 0.83359(13)
H2 H 0.8341 0.6042 0.8477
O3 O 0.2254(4) 0.7281(4) 0.90193(10)
C3 C 0.6604(6) 0.6623(6) 0.93669(13)
H3 H 0.6604 0.5679 0.9263
C4 C 0.2634(5) 0.8358(5) 0.88250(13)
C5 C 0.6632(7) 0.9393(6) 0.96943(15)
C6 C 0.5523(5) 0.7511(4) 0.86543(11)
C7 C 0.9626(5) 0.8633(5) 0.78903(12)
C8 C 0.4069(5) 0.8494(4) 0.85361(11)
H4 H 0.4438 0.9495 0.8538
H5 H 0.3721 0.8263 0.8249
C9 C 0.6064(5) 0.7764(4) 0.91178(11)
C10 C 0.9663(5) 0.7321(4) 0.80904(12)
H6 H 1.0562 0.6707 0.8061
C11 C 0.8288(5) 0.9533(5) 0.79458(13)
H7 H 0.8283 1.0433 0.7812
C12 C 0.6083(5) 0.9152(5) 0.92863(13)
H8 H 0.5720 0.9928 0.9122
F1 F 0.7670(6) 0.5803(5) 1.00136(10)
C13 C 0.4606(7) 0.3358(4) 0.82810(14)
C14 C 0.7143(7) 0.6920(7) 0.97731(14)
C15 C 0.4336(8) 0.2568(5) 0.78661(17)
H9 H 0.4464 0.1543 0.7910
H10 H 0.5124 0.2894 0.7660
H11 H 0.3247 0.2763 0.7764
C16 C 0.7169(7) 0.8265(9) 0.99462(16)
H12 H 0.7532 0.8421 1.0223
C17 C 0.0326(7) 0.9619(8) 0.90967(19)
H13 H -0.0396 0.8847 0.9012
H14 H -0.0222 1.0533 0.9061
H15 H 0.0623 0.9497 0.9390
C18 C 0.6226(9) 0.2900(6) 0.84779(19)
H16 H 0.6322 0.3314 0.8757
H17 H 0.7115 0.3236 0.8303
H18 H 0.6266 0.1862 0.8498
C19 C 0.3165(10) 0.3211(6) 0.8581(2)
H19 H 0.2237 0.3719 0.8467
H20 H 0.3449 0.3616 0.8853
H21 H 0.2896 0.2203 0.8615
F2 F 0.6306(17) 1.0937(11) 1.02750(18)
C20 C 0.6642(9) 1.0881(8) 0.98641(18)
F3 F 0.8011(12) 1.1604(13) 0.9775(5)
F4 F 0.5394(12) 1.1761(8) 0.9687(3)
F5? F 0.7974(16) 1.0975(12) 1.0152(4)
F6? F 0.703(2) 1.1902(10) 0.9586(3)
F7? F 0.5377(16) 1.1249(18) 1.0098(6)
loop_
_geom_bond_atom_site_label_1
_geom_bond_atom_site_label_2
_geom_bond_site_symmetry_1
_geom_bond_site_symmetry_2
S1 O1 1_555 1_555
Cl1 C7 1_555 1_555
N1 S1 1_555 1_555
H1 N1 1_555 1_555
N2 C1 1_555 1_555
C1 C2 1_555 1_555
O2 C4 1_555 1_555
C2 H2 1_555 1_555
O3 C4 1_555 1_555
C3 H3 1_555 1_555
C4 C8 1_555 1_555
C5 C12 1_555 1_555
C6 N1 1_555 1_555
C7 C10 1_555 1_555
C8 C6 1_555 1_555
H4 C8 1_555 1_555
H5 C8 1_555 1_555
C9 C3 1_555 1_555
C10 C2 1_555 1_555
H6 C10 1_555 1_555
C11 N2 1_555 1_555
H7 C11 1_555 1_555
C12 C9 1_555 1_555
H8 C12 1_555 1_555
F1 C14 1_555 1_555
C13 S1 1_555 1_555
C14 C3 1_555 1_555
C15 C13 1_555 1_555
H9 C15 1_555 1_555
H10 C15 1_555 1_555
H11 C15 1_555 1_555
C16 C5 1_555 1_555
H12 C16 1_555 1_555
C17 O2 1_555 1_555
H13 C17 1_555 1_555
H14 C17 1_555 1_555
H15 C17 1_555 1_555
C18 C13 1_555 1_555
H16 C18 1_555 1_555
H17 C18 1_555 1_555
H18 C18 1_555 1_555
C19 C13 1_555 1_555
H19 C19 1_555 1_555
H20 C19 1_555 1_555
H21 C19 1_555 1_555
F2 C20 1_555 1_555
C20 C5 1_555 1_555
F3 C20 1_555 1_555
F4 C20 1_555 1_555
C1 C6 1_555 1_555
C6 C9 1_555 1_555
C7 C11 1_555 1_555
C14 C16 1_555 1_555

#END
