
#######################################################################
#
#                 Cambridge Crystallographic Data Centre
#                                CCDC 
#
#######################################################################
#
# If this CIF has been generated from an entry in the Cambridge 
# Structural Database, then it will include bibliographic, chemical, 
# crystal, experimental, refinement or atomic coordinate data resulting 
# from the CCDC's data processing and validation procedures.
#
#######################################################################

data_RAXDAW
_chemical_formula_moiety         'C9 H9 N5 O1 S1'
_chemical_name_systematic        
3-((3-Methyl-2-thienyl)methylenehydrazinocarbonyl)-(1H)-1,2,4-triazole
_chemical_properties_biological  'some antibacterial activity'
_symmetry_cell_setting           monoclinic
_symmetry_space_group_name_H-M   'P 21/n'
_symmetry_Int_Tables_number      14
_space_group_name_Hall           '-P 2yn'
loop_
_symmetry_equiv_pos_site_id
_symmetry_equiv_pos_as_xyz
1 x,y,z
2 1/2-x,1/2+y,1/2-z
3 -x,-y,-z
4 1/2+x,1/2-y,1/2+z
_cell_length_a                   9.5550(10)
_cell_length_b                   11.9847(12)
_cell_length_c                   10.1074(11)
_cell_angle_alpha                90
_cell_angle_beta                 112.995(2)
_cell_angle_gamma                90
_cell_volume                     1065.47
_exptl_crystal_colour            colorless
_exptl_crystal_description       block
_chemical_melting_point          261-262deg.C
_cell_formula_units_Z            4
_exptl_crystal_recrystallization_method ethanol
loop_
_atom_site_label
_atom_site_type_symbol
_atom_site_fract_x
_atom_site_fract_y
_atom_site_fract_z
S1 S 0.83015(5) 1.10262(4) 0.40129(6)
O1 O 0.83968(14) 0.77019(11) 0.69545(15)
N1 N 0.61348(18) 0.81676(13) 0.51750(17)
N2 N 0.67728(18) 0.90691(12) 0.47621(17)
N3 N 0.47261(19) 0.63714(14) 0.5901(2)
N4 N 0.70013(18) 0.57766(14) 0.74983(19)
N5 N 0.58846(18) 0.50625(15) 0.74276(18)
C1 C 0.70374(19) 0.75197(14) 0.62622(19)
C2 C 0.6242(2) 0.65478(14) 0.65607(19)
C3 C 0.4565(2) 0.54205(18) 0.6487(2)
C4 C 0.5882(2) 0.96247(15) 0.3685(2)
C5 C 0.6444(2) 1.05687(15) 0.3145(2)
C6 C 0.5681(2) 1.11842(16) 0.1924(2)
C7 C 0.6622(2) 1.20134(18) 0.1707(2)
C8 C 0.8047(3) 1.20301(17) 0.2741(2)
C9 C 0.4048(3) 1.1008(3) 0.0927(3)
H1 H 0.520(3) 0.7958(19) 0.476(3)
H2 H 0.365(3) 0.5054(19) 0.634(2)
H3 H 0.491(3) 0.9412(19) 0.326(3)
H4 H 0.605(3) 0.444(2) 0.786(2)
H5 H 0.624(3) 1.254(2) 0.091(3)
H6 H 0.890(3) 1.2514(19) 0.288(2)
H7 H 0.360(4) 1.047(3) 0.118(4)
H8 H 0.396(4) 1.096(2) -0.002(2)
H9 H 0.350(5) 1.161(4) 0.088(5)
loop_
_geom_bond_atom_site_label_1
_geom_bond_atom_site_label_2
_geom_bond_site_symmetry_1
_geom_bond_site_symmetry_2
S1 C5 1_555 1_555
O1 C1 1_555 1_555
N1 N2 1_555 1_555
N2 C4 1_555 1_555
N3 C2 1_555 1_555
N4 N5 1_555 1_555
N5 C3 1_555 1_555
C1 N1 1_555 1_555
C2 N4 1_555 1_555
C3 N3 1_555 1_555
C4 C5 1_555 1_555
C5 C6 1_555 1_555
C6 C7 1_555 1_555
C7 C8 1_555 1_555
C8 S1 1_555 1_555
C9 C6 1_555 1_555
H1 N1 1_555 1_555
H2 C3 1_555 1_555
H3 C4 1_555 1_555
H4 N5 1_555 1_555
H5 C7 1_555 1_555
H6 C8 1_555 1_555
H7 C9 1_555 1_555
H8 C9 1_555 1_555
H9 C9 1_555 1_555
C1 C2 1_555 1_555

#END
