
#######################################################################
#
#                 Cambridge Crystallographic Data Centre
#                                CCDC 
#
#######################################################################
#
# If this CIF has been generated from an entry in the Cambridge 
# Structural Database, then it will include bibliographic, chemical, 
# crystal, experimental, refinement or atomic coordinate data resulting 
# from the CCDC's data processing and validation procedures.
#
#######################################################################

data_RAXFII
_chemical_formula_moiety         'C17 H12 F3 N1 O2'
_chemical_name_systematic        
5-methyl-6a-(trifluoromethyl)-5H-isoindolo[2,1-a][3,1]benzoxazin-11(6aH)-one
_symmetry_cell_setting           monoclinic
_symmetry_space_group_name_H-M   'P 21/c'
_symmetry_Int_Tables_number      14
_space_group_name_Hall           '-P 2ybc'
loop_
_symmetry_equiv_pos_site_id
_symmetry_equiv_pos_as_xyz
1 x,y,z
2 -x,1/2+y,1/2-z
3 -x,-y,-z
4 x,1/2-y,1/2+z
_cell_length_a                   8.1579(3)
_cell_length_b                   11.1217(4)
_cell_length_c                   15.8276(6)
_cell_angle_alpha                90
_cell_angle_beta                 93.7730(18)
_cell_angle_gamma                90
_cell_volume                     1432.92
_exptl_crystal_colour            yellow
_exptl_crystal_description       Rectangular
_cell_formula_units_Z            4
_exptl_crystal_recrystallization_method dichloromethane/hexane
loop_
_atom_site_label
_atom_site_type_symbol
_atom_site_fract_x
_atom_site_fract_y
_atom_site_fract_z
C1 C 0.44861(17) 0.15438(12) -0.04412(9)
C2 C 0.5271(2) 0.13466(15) -0.11813(10)
H1 H 0.4727 0.0945 -0.1632
C3 C 0.6865(2) 0.17498(17) -0.12468(11)
H2 H 0.7394 0.1602 -0.174
C4 C 0.7675(2) 0.23658(16) -0.05909(11)
H3 H 0.8748 0.2626 -0.0641
C5 C 0.68997(18) 0.25999(15) 0.01424(10)
H4 H 0.743 0.3036 0.0581
C6 C 0.53243(16) 0.21742(13) 0.02112(9)
N1 N 0.44678(13) 0.23261(11) 0.09607(7)
C7 C 0.49734(17) 0.18032(13) 0.17332(9)
C8 C 0.34686(17) 0.15916(13) 0.21838(9)
C9 C 0.3297(2) 0.10504(15) 0.29570(10)
H5 H 0.4208 0.0818 0.3303
C10 C 0.1718(2) 0.08668(17) 0.31974(11)
H6 H 0.1562 0.0495 0.3712
C11 C 0.0365(2) 0.12262(17) 0.26856(11)
H7 H -0.0684 0.1085 0.2861
C12 C 0.05439(18) 0.17888(15) 0.19214(10)
H8 H -0.0365 0.2044 0.1583
C13 C 0.21205(16) 0.19608(13) 0.16758(9)
C14 C 0.26912(16) 0.25275(13) 0.08769(9)
C15 C 0.27800(17) 0.11211(13) -0.02753(10)
H9 H 0.2864 0.0445 0.0123
C16 C 0.1698(2) 0.07616(16) -0.10357(11)
H10 H 0.0633 0.0542 -0.0862
H11 H 0.2177 0.0088 -0.1308
H12 H 0.1592 0.1424 -0.1424
C17 C 0.23880(19) 0.38865(14) 0.08608(10)
F1 F 0.29244(13) 0.44033(9) 0.15842(7)
F2 F 0.07921(12) 0.41362(9) 0.07422(7)
F3 F 0.31382(14) 0.44242(9) 0.02438(7)
O1 O 0.63820(12) 0.15536(11) 0.19522(7)
O2 O 0.19377(11) 0.21132(9) 0.01139(6)
loop_
_geom_bond_atom_site_label_1
_geom_bond_atom_site_label_2
_geom_bond_site_symmetry_1
_geom_bond_site_symmetry_2
C1 C2 1_555 1_555
C2 H1 1_555 1_555
C3 C2 1_555 1_555
H2 C3 1_555 1_555
C4 C3 1_555 1_555
H3 C4 1_555 1_555
C5 C4 1_555 1_555
H4 C5 1_555 1_555
C6 C1 1_555 1_555
N1 C6 1_555 1_555
C7 N1 1_555 1_555
C8 C7 1_555 1_555
C9 C8 1_555 1_555
H5 C9 1_555 1_555
C10 C9 1_555 1_555
H6 C10 1_555 1_555
C11 C10 1_555 1_555
H7 C11 1_555 1_555
C12 C11 1_555 1_555
H8 C12 1_555 1_555
C13 C8 1_555 1_555
C14 N1 1_555 1_555
C15 C1 1_555 1_555
H9 C15 1_555 1_555
C16 C15 1_555 1_555
H10 C16 1_555 1_555
H11 C16 1_555 1_555
H12 C16 1_555 1_555
C17 C14 1_555 1_555
F1 C17 1_555 1_555
F2 C17 1_555 1_555
F3 C17 1_555 1_555
O1 C7 1_555 1_555
O2 C14 1_555 1_555
C5 C6 1_555 1_555
C12 C13 1_555 1_555
C13 C14 1_555 1_555
C15 O2 1_555 1_555

#END
