
#######################################################################
#
#                 Cambridge Crystallographic Data Centre
#                                CCDC 
#
#######################################################################
#
# If this CIF has been generated from an entry in the Cambridge 
# Structural Database, then it will include bibliographic, chemical, 
# crystal, experimental, refinement or atomic coordinate data resulting 
# from the CCDC's data processing and validation procedures.
#
#######################################################################

data_RAXFAA
_chemical_formula_moiety         'C20 H22 F3 N1 O1'
_chemical_name_systematic        
4,4,12c-trimethyl-12b-(trifluoromethyl)-2,3,4,6,12b,12c-hexahydroisoindolo[1,2-a]isoquinolin-8(1H)-one
_symmetry_cell_setting           monoclinic
_symmetry_space_group_name_H-M   'C c'
_symmetry_Int_Tables_number      9
_space_group_name_Hall           'C -2yc'
loop_
_symmetry_equiv_pos_site_id
_symmetry_equiv_pos_as_xyz
1 x,y,z
2 x,-y,1/2+z
3 1/2+x,1/2+y,z
4 1/2+x,1/2-y,1/2+z
_cell_length_a                   20.930(3)
_cell_length_b                   15.7044(14)
_cell_length_c                   23.073(4)
_cell_angle_alpha                90
_cell_angle_beta                 111.741(3)
_cell_angle_gamma                90
_cell_volume                     7044.47
_exptl_crystal_colour            white
_exptl_crystal_description       Rectangular
_cell_formula_units_Z            16
_exptl_crystal_recrystallization_method chloroform/hexane
loop_
_atom_site_label
_atom_site_type_symbol
_atom_site_fract_x
_atom_site_fract_y
_atom_site_fract_z
C1 C 0.0165(13) 1.0817(14) 0.1427(11)
H1 H 0.033 1.1333 0.1624
C2 C -0.0374(14) 1.081(2) 0.0846(11)
H2 H -0.0557 1.1315 0.0639
C3 C -0.0631(15) 1.000(3) 0.0583(13)
H3 H -0.0995 0.9979 0.02
C4 C -0.0362(16) 0.927(2) 0.0873(14)
H4 H -0.0544 0.8748 0.0706
C5 C 0.0188(14) 0.9330(15) 0.1421(12)
C6 C 0.0569(15) 0.8601(17) 0.1818(16)
C7 C 0.1525(15) 0.8477(15) 0.2812(14)
H5 H 0.1588 0.7931 0.2645
H6 H 0.1365 0.837 0.3151
C8 C 0.2219(13) 0.8947(17) 0.3071(12)
H7 H 0.2586 0.8667 0.3369
C9 C 0.2332(14) 0.9708(15) 0.2903(11)
C10 C 0.3072(13) 1.0097(19) 0.3204(11)
C11 C 0.3038(13) 1.1081(15) 0.3180(11)
H8 H 0.2884 1.1281 0.3504
H9 H 0.3498 1.1302 0.3271
C12 C 0.2564(14) 1.1445(16) 0.2558(13)
H10 H 0.2571 1.2062 0.2576
H11 H 0.2718 1.1268 0.2229
C13 C 0.1867(12) 1.1135(13) 0.2429(9)
H12 H 0.1563 1.139 0.2042
H13 H 0.1721 1.1333 0.2759
C14 C 0.1774(12) 1.0175(13) 0.2375(9)
C15 C 0.1055(12) 0.9861(13) 0.2335(10)
C16 C 0.0450(10) 1.0081(13) 0.1707(10)
C17 C 0.0824(13) 1.0209(13) 0.2813(11)
C18 C 0.3492(14) 0.973(2) 0.2805(18)
H14 H 0.333 0.9999 0.2402
H15 H 0.3425 0.9129 0.2757
H16 H 0.3972 0.9854 0.3017
C19 C 0.3474(14) 0.9858(18) 0.3866(12)
H17 H 0.3866 1.0226 0.4034
H18 H 0.3627 0.9278 0.3883
H19 H 0.3188 0.9914 0.4107
C20 C 0.1845(12) 0.9898(15) 0.1728(9)
H20 H 0.2273 1.0106 0.172
H21 H 0.147 1.0136 0.1384
H22 H 0.1834 0.9289 0.1695
F1 F 0.0629(8) 1.1030(9) 0.2776(6)
F2 F 0.0274(8) 0.9803(9) 0.2867(6)
F3 F 0.1305(8) 1.0148(10) 0.3406(6)
N1 N 0.1028(10) 0.8940(10) 0.2348(10)
O1 O 0.0509(11) 0.7845(10) 0.1701(11)
C21 C 0.5184(12) 0.0824(15) 0.1435(11)
H23 H 0.537 0.1329 0.1639
C22 C 0.4640(15) 0.0857(18) 0.0863(13)
H24 H 0.4451 0.1369 0.0675
C23 C 0.4378(15) 0.002(3) 0.0569(12)
H25 H 0.4027 0.0007 0.0177
C24 C 0.4634(15) -0.072(2) 0.0854(12)
H26 H 0.4448 -0.124 0.0673
C25 C 0.5182(12) -0.0702(14) 0.1424(11)
C26 C 0.5602(13) -0.1395(16) 0.1848(13)
C27 C 0.6525(14) -0.1528(15) 0.2838(12)
H27 H 0.6577 -0.2084 0.2679
H28 H 0.6371 -0.1605 0.3183
C28 C 0.7223(14) -0.1046(18) 0.3063(13)
H29 H 0.7601 -0.1332 0.3341
C29 C 0.7330(13) -0.0289(12) 0.2904(11)
C30 C 0.8052(13) 0.011(2) 0.3207(12)
C31 C 0.8039(14) 0.1075(15) 0.3183(12)
H30 H 0.7886 0.1288 0.3504
H31 H 0.8504 0.128 0.3277
C32 C 0.7583(14) 0.1433(14) 0.2567(13)
H32 H 0.7601 0.205 0.258
H33 H 0.7738 0.1242 0.2241
C33 C 0.6865(12) 0.1139(12) 0.2431(10)
H34 H 0.6566 0.1405 0.2046
H35 H 0.6722 0.1335 0.2762
C34 C 0.6762(11) 0.0172(13) 0.2367(9)
C35 C 0.6037(11) -0.0103(12) 0.2327(10)
C36 C 0.5447(11) 0.0072(13) 0.1701(9)
C37 C 0.5830(12) 0.0208(15) 0.2848(11)
C38 C 0.8488(13) -0.025(2) 0.2813(16)
H36 H 0.828 -0.0065 0.2387
H37 H 0.8494 -0.086 0.2828
H38 H 0.8951 -0.0037 0.2989
C39 C 0.8458(14) -0.0140(19) 0.3883(11)
H39 H 0.8838 0.0244 0.4061
H40 H 0.8629 -0.071 0.3895
H41 H 0.8164 -0.0113 0.4117
C40 C 0.6840(11) -0.0084(14) 0.1734(8)
H42 H 0.7297 0.0049 0.1758
H43 H 0.6512 0.0227 0.1396
H44 H 0.6759 -0.0683 0.1664
F4 F 0.5272(9) -0.0210(10) 0.2863(7)
F5 F 0.6301(8) 0.0152(9) 0.3413(6)
F6 F 0.5623(8) 0.1034(9) 0.2767(6)
N2 N 0.6036(10) -0.1038(11) 0.2360(9)
O2 O 0.5501(11) -0.2142(10) 0.1698(11)
C41 C 0.8265(13) 0.3352(15) 0.1175(10)
H45 H 0.8095 0.3873 0.0992
C42 C 0.8792(17) 0.330(2) 0.1728(15)
H46 H 0.8975 0.3805 0.1926
C43 C 0.9071(17) 0.259(3) 0.2013(14)
H47 H 0.9453 0.262 0.2383
C44 C 0.8806(16) 0.181(2) 0.1771(15)
H48 H 0.8981 0.131 0.198
C45 C 0.8260(14) 0.1822(16) 0.1194(11)
C46 C 0.7913(14) 0.1123(17) 0.0840(14)
C47 C 0.6907(16) 0.0989(16) -0.0223(14)
H49 H 0.7072 0.0876 -0.0556
H50 H 0.6828 0.0446 -0.0061
C48 C 0.6290(15) 0.1423(17) -0.0465(12)
H51 H 0.5946 0.1152 -0.0791
C49 C 0.6114(12) 0.2192(17) -0.0296(11)
C50 C 0.5399(13) 0.2536(17) -0.0567(12)
C51 C 0.5418(17) 0.353(3) -0.0566(13)
H52 H 0.5585 0.3717 -0.0886
H53 H 0.4952 0.374 -0.068
C52 C 0.5858(14) 0.3930(14) 0.0044(13)
H54 H 0.572 0.3733 0.0379
H55 H 0.582 0.4546 0.0019
C53 C 0.6609(12) 0.3643(14) 0.0156(12)
H56 H 0.6927 0.3924 0.0524
H57 H 0.6726 0.3807 -0.0198
C54 C 0.6678(10) 0.2660(12) 0.0245(9)
C55 C 0.7422(11) 0.2387(11) 0.0283(8)
C56 C 0.7981(11) 0.2558(14) 0.0886(9)
C57 C 0.7642(14) 0.2714(17) -0.0263(11)
C58 C 0.4924(14) 0.2319(16) -0.0259(11)
H58 H 0.4939 0.1716 -0.0185
H59 H 0.4466 0.2482 -0.052
H60 H 0.5056 0.2616 0.0132
C59 C 0.5110(17) 0.230(2) -0.1271(12)
H61 H 0.5437 0.2462 -0.1454
H62 H 0.4687 0.2603 -0.1478
H63 H 0.5028 0.1701 -0.1318
C60 C 0.6617(12) 0.2431(13) 0.0837(10)
H64 H 0.6925 0.2776 0.1166
H65 H 0.6734 0.1841 0.0926
H66 H 0.6153 0.2525 0.0809
F7 F 0.8172(8) 0.2294(10) -0.0268(7)
F8 F 0.7825(7) 0.3532(8) -0.0179(6)
F9 F 0.7158(8) 0.2644(9) -0.0827(6)
N3 N 0.7444(12) 0.1460(12) 0.0283(10)
O3 O 0.7934(10) 0.0334(12) 0.0893(12)
C61 C 0.8258(12) 0.1639(16) 0.6167(10)
H67 H 0.8087 0.1112 0.5995
C62 C 0.8801(16) 0.175(2) 0.6733(14)
H68 H 0.9003 0.1252 0.6933
C63 C 0.9071(18) 0.245(3) 0.7028(14)
H69 H 0.9444 0.2436 0.7406
C64 C 0.8778(17) 0.320(2) 0.6753(16)
H70 H 0.893 0.3717 0.6956
C65 C 0.8259(13) 0.3189(17) 0.6178(11)
C66 C 0.7905(14) 0.3873(16) 0.5807(15)
C67 C 0.6901(15) 0.4017(15) 0.4771(15)
H71 H 0.6826 0.4559 0.4938
H72 H 0.7065 0.4133 0.4438
C68 C 0.6263(15) 0.3567(16) 0.4523(11)
H73 H 0.5908 0.3833 0.4203
C69 C 0.6126(12) 0.2805(17) 0.4704(10)
C70 C 0.5402(13) 0.2409(16) 0.4409(11)
C71 C 0.5396(15) 0.148(2) 0.4457(17)
H74 H 0.5494 0.1254 0.4108
H75 H 0.493 0.1316 0.4398
C72 C 0.5864(14) 0.1056(13) 0.5031(14)
H76 H 0.5828 0.0443 0.498
H77 H 0.5743 0.121 0.5384
C73 C 0.6605(12) 0.1354(12) 0.5140(14)
H78 H 0.6721 0.1198 0.4784
H79 H 0.6927 0.1072 0.5506
C74 C 0.6668(11) 0.2339(12) 0.5235(10)
C75 C 0.7415(12) 0.2599(11) 0.5281(9)
C76 C 0.7994(12) 0.2445(14) 0.5880(10)
C77 C 0.7632(14) 0.2292(16) 0.4734(11)
C78 C 0.4941(13) 0.2713(16) 0.4746(10)
H80 H 0.5079 0.2444 0.5147
H81 H 0.4472 0.2567 0.4504
H82 H 0.4981 0.3319 0.4799
C79 C 0.5098(16) 0.273(2) 0.3717(14)
H83 H 0.5087 0.3345 0.3713
H84 H 0.4639 0.2518 0.3516
H85 H 0.538 0.2536 0.3498
C80 C 0.6609(11) 0.2563(13) 0.5837(9)
H86 H 0.6147 0.2463 0.581
H87 H 0.6722 0.3153 0.5927
H88 H 0.692 0.2218 0.6163
F10 F 0.7832(7) 0.1471(8) 0.4818(6)
F11 F 0.8174(8) 0.2714(10) 0.4728(7)
F12 F 0.7155(8) 0.2357(9) 0.4171(6)
N4 N 0.7430(11) 0.3531(11) 0.5269(10)
O4 O 0.7949(11) 0.4679(12) 0.5906(11)
loop_
_geom_bond_atom_site_label_1
_geom_bond_atom_site_label_2
_geom_bond_site_symmetry_1
_geom_bond_site_symmetry_2
C1 H1 1_555 1_555
C2 C1 1_555 1_555
H2 C2 1_555 1_555
C3 C2 1_555 1_555
H3 C3 1_555 1_555
C4 C3 1_555 1_555
H4 C4 1_555 1_555
C5 C4 1_555 1_555
C6 C5 1_555 1_555
C7 H5 1_555 1_555
H6 C7 1_555 1_555
C8 C7 1_555 1_555
H7 C8 1_555 1_555
C9 C8 1_555 1_555
C10 C9 1_555 1_555
C11 C10 1_555 1_555
H8 C11 1_555 1_555
H9 C11 1_555 1_555
C12 C11 1_555 1_555
H10 C12 1_555 1_555
H11 C12 1_555 1_555
C13 C12 1_555 1_555
H12 C13 1_555 1_555
H13 C13 1_555 1_555
C14 C9 1_555 1_555
C15 C14 1_555 1_555
C16 C1 1_555 1_555
C17 C15 1_555 1_555
C18 C10 1_555 1_555
H14 C18 1_555 1_555
H15 C18 1_555 1_555
H16 C18 1_555 1_555
C19 C10 1_555 1_555
H17 C19 1_555 1_555
H18 C19 1_555 1_555
H19 C19 1_555 1_555
C20 C14 1_555 1_555
H20 C20 1_555 1_555
H21 C20 1_555 1_555
H22 C20 1_555 1_555
F1 C17 1_555 1_555
F2 C17 1_555 1_555
F3 C17 1_555 1_555
N1 C6 1_555 1_555
O1 C6 1_555 1_555
C21 H23 1_555 1_555
C22 C21 1_555 1_555
H24 C22 1_555 1_555
C23 C22 1_555 1_555
H25 C23 1_555 1_555
C24 C23 1_555 1_555
H26 C24 1_555 1_555
C25 C24 1_555 1_555
C26 C25 1_555 1_555
C27 H27 1_555 1_555
H28 C27 1_555 1_555
C28 C27 1_555 1_555
H29 C28 1_555 1_555
C29 C28 1_555 1_555
C30 C29 1_555 1_555
C31 C30 1_555 1_555
H30 C31 1_555 1_555
H31 C31 1_555 1_555
C32 C31 1_555 1_555
H32 C32 1_555 1_555
H33 C32 1_555 1_555
C33 C32 1_555 1_555
H34 C33 1_555 1_555
H35 C33 1_555 1_555
C34 C29 1_555 1_555
C35 C34 1_555 1_555
C36 C21 1_555 1_555
C37 C35 1_555 1_555
C38 C30 1_555 1_555
H36 C38 1_555 1_555
H37 C38 1_555 1_555
H38 C38 1_555 1_555
C39 C30 1_555 1_555
H39 C39 1_555 1_555
H40 C39 1_555 1_555
H41 C39 1_555 1_555
C40 C34 1_555 1_555
H42 C40 1_555 1_555
H43 C40 1_555 1_555
H44 C40 1_555 1_555
F4 C37 1_555 1_555
F5 C37 1_555 1_555
F6 C37 1_555 1_555
N2 C26 1_555 1_555
O2 C26 1_555 1_555
C41 H45 1_555 1_555
C42 C41 1_555 1_555
H46 C42 1_555 1_555
C43 C42 1_555 1_555
H47 C43 1_555 1_555
C44 C43 1_555 1_555
H48 C44 1_555 1_555
C45 C44 1_555 1_555
C46 C45 1_555 1_555
C47 H49 1_555 1_555
H50 C47 1_555 1_555
C48 C47 1_555 1_555
H51 C48 1_555 1_555
C49 C48 1_555 1_555
C50 C49 1_555 1_555
C51 C50 1_555 1_555
H52 C51 1_555 1_555
H53 C51 1_555 1_555
C52 C51 1_555 1_555
H54 C52 1_555 1_555
H55 C52 1_555 1_555
C53 C52 1_555 1_555
H56 C53 1_555 1_555
H57 C53 1_555 1_555
C54 C49 1_555 1_555
C55 C54 1_555 1_555
C56 C41 1_555 1_555
C57 C55 1_555 1_555
C58 C50 1_555 1_555
H58 C58 1_555 1_555
H59 C58 1_555 1_555
H60 C58 1_555 1_555
C59 C50 1_555 1_555
H61 C59 1_555 1_555
H62 C59 1_555 1_555
H63 C59 1_555 1_555
C60 C54 1_555 1_555
H64 C60 1_555 1_555
H65 C60 1_555 1_555
H66 C60 1_555 1_555
F7 C57 1_555 1_555
F8 C57 1_555 1_555
F9 C57 1_555 1_555
N3 C46 1_555 1_555
O3 C46 1_555 1_555
C61 H67 1_555 1_555
C62 C61 1_555 1_555
H68 C62 1_555 1_555
C63 C62 1_555 1_555
H69 C63 1_555 1_555
C64 C63 1_555 1_555
H70 C64 1_555 1_555
C65 C64 1_555 1_555
C66 C65 1_555 1_555
C67 H71 1_555 1_555
H72 C67 1_555 1_555
C68 C67 1_555 1_555
H73 C68 1_555 1_555
C69 C68 1_555 1_555
C70 C69 1_555 1_555
C71 C70 1_555 1_555
H74 C71 1_555 1_555
H75 C71 1_555 1_555
C72 C71 1_555 1_555
H76 C72 1_555 1_555
H77 C72 1_555 1_555
C73 C72 1_555 1_555
H78 C73 1_555 1_555
H79 C73 1_555 1_555
C74 C69 1_555 1_555
C75 C74 1_555 1_555
C76 C61 1_555 1_555
C77 C75 1_555 1_555
C78 C70 1_555 1_555
H80 C78 1_555 1_555
H81 C78 1_555 1_555
H82 C78 1_555 1_555
C79 C70 1_555 1_555
H83 C79 1_555 1_555
H84 C79 1_555 1_555
H85 C79 1_555 1_555
C80 C74 1_555 1_555
H86 C80 1_555 1_555
H87 C80 1_555 1_555
H88 C80 1_555 1_555
F10 C77 1_555 1_555
F11 C77 1_555 1_555
F12 C77 1_555 1_555
N4 C66 1_555 1_555
O4 C66 1_555 1_555
C5 C16 1_555 1_555
C7 N1 1_555 1_555
C13 C14 1_555 1_555
C15 C16 1_555 1_555
C15 N1 1_555 1_555
C25 C36 1_555 1_555
C27 N2 1_555 1_555
C33 C34 1_555 1_555
C35 C36 1_555 1_555
C35 N2 1_555 1_555
C45 C56 1_555 1_555
C47 N3 1_555 1_555
C53 C54 1_555 1_555
C55 C56 1_555 1_555
C55 N3 1_555 1_555
C65 C76 1_555 1_555
C67 N4 1_555 1_555
C73 C74 1_555 1_555
C75 C76 1_555 1_555
C75 N4 1_555 1_555

#END
