
#######################################################################
#
#                 Cambridge Crystallographic Data Centre
#                                CCDC 
#
#######################################################################
#
# If this CIF has been generated from an entry in the Cambridge 
# Structural Database, then it will include bibliographic, chemical, 
# crystal, experimental, refinement or atomic coordinate data resulting 
# from the CCDC's data processing and validation procedures.
#
#######################################################################

data_RAXJOQ
_chemical_formula_moiety         'C31 H22 F6 O3 S2'
_chemical_name_systematic        
3,3,4,4,5,5-hexafluoro-1-(2-methyl-5-(4-formylphenyl)thien-3-yl)-2-(2-methyl-5-(4-(1,3-dioxolan-2-yl)phenyl)thien-3-yl)-cyclopent-1-ene
_symmetry_cell_setting           monoclinic
_symmetry_space_group_name_H-M   'P 21/c'
_symmetry_Int_Tables_number      14
_space_group_name_Hall           '-P 2ybc'
loop_
_symmetry_equiv_pos_site_id
_symmetry_equiv_pos_as_xyz
1 x,y,z
2 -x,1/2+y,1/2-z
3 -x,-y,-z
4 x,1/2-y,1/2+z
_cell_length_a                   27.158(12)
_cell_length_b                   9.3336(18)
_cell_length_c                   10.929(3)
_cell_angle_alpha                90
_cell_angle_beta                 92.10(3)
_cell_angle_gamma                90
_cell_volume                     2768.44
_exptl_crystal_colour            blue
_exptl_crystal_description       plate
_chemical_melting_point          '458-459 K'
_cell_formula_units_Z            4
_exptl_crystal_recrystallization_method chloroform
loop_
_atom_site_label
_atom_site_type_symbol
_atom_site_fract_x
_atom_site_fract_y
_atom_site_fract_z
S1 S 0.11016(5) 0.67978(12) 0.13023(9)
S2 S 0.33231(4) 0.73003(11) 0.19097(9)
O1 O 0.54126(10) 0.8202(3) 0.6165(2)
O2 O 0.51530(12) 0.6730(3) 0.7433(2)
O3 O -0.06593(11) 0.5753(4) -0.4311(2)
F1 F 0.29374(10) 0.1931(2) 0.30785(19)
F2 F 0.31420(9) 0.2037(2) 0.1199(2)
F3 F 0.21792(10) 0.0576(3) 0.2576(2)
F4 F 0.24935(9) 0.0133(3) 0.0845(2)
F5 F 0.14905(8) 0.1685(2) 0.1322(2)
F6 F 0.19424(10) 0.1916(2) -0.02390(18)
C1 C 0.20829(13) 0.3619(3) 0.1360(3)
C2 C 0.25322(13) 0.3707(4) 0.1780(3)
C3 C 0.27594(14) 0.2221(4) 0.2010(4)
C4 C 0.23727(14) 0.1143(4) 0.1549(3)
C5 C 0.19360(13) 0.2053(4) 0.1011(3)
C6 C 0.16029(12) 0.5840(4) 0.1856(3)
C7 C 0.17082(13) 0.4681(4) 0.1103(3)
C8 C 0.13728(12) 0.4655(4) 0.0073(3)
H1 H 0.1398 0.3974 -0.0543
C9 C 0.10037(14) 0.5701(4) 0.0029(3)
C10 C 0.18290(14) 0.6272(4) 0.3095(3)
H2 H 0.2121 0.5719 0.3264
H3 H 0.1596 0.6099 0.3719
H4 H 0.1912 0.7272 0.3083
C11 C 0.06030(12) 0.5924(4) -0.0858(3)
C12 C 0.06256(13) 0.5267(4) -0.2016(3)
H5 H 0.0901 0.4752 -0.2243
C13 C 0.02128(13) 0.5430(4) -0.2803(3)
H6 H 0.0223 0.5027 -0.3579
C14 C -0.02029(14) 0.6139(4) -0.2509(3)
C15 C -0.02069(15) 0.6754(4) -0.1381(3)
H7 H -0.0482 0.7276 -0.1163
C16 C 0.01835(13) 0.6626(4) -0.0557(3)
H8 H 0.0162 0.7024 0.0219
C17 C 0.29003(12) 0.6096(4) 0.1334(3)
C18 C 0.28401(12) 0.4911(4) 0.2056(3)
C19 C 0.32001(12) 0.5038(4) 0.3097(3)
H9 H 0.3230 0.4329 0.3693
C20 C 0.34788(14) 0.6206(4) 0.3147(3)
C21 C 0.26236(14) 0.6404(4) 0.0123(3)
H10 H 0.2643 0.5583 -0.0403
H11 H 0.2769 0.7215 -0.0265
H12 H 0.2285 0.6608 0.0274
C22 C 0.38584(13) 0.6665(3) 0.4064(3)
C23 C 0.40921(12) 0.5663(4) 0.4815(3)
H13 H 0.3994 0.4710 0.4760
C24 C 0.44554(13) 0.6020(4) 0.5618(3)
H14 H 0.4607 0.5304 0.6088
C25 C 0.46073(11) 0.7379(4) 0.5768(3)
C26 C 0.43953(14) 0.8422(4) 0.5021(3)
H15 H 0.4506 0.9364 0.5085
C27 C 0.40257(15) 0.8084(4) 0.4191(3)
H16 H 0.3883 0.8801 0.3705
C28 C 0.49833(13) 0.7836(5) 0.6669(4)
H17 H 0.4861 0.8631 0.7158
C29 C 0.58243(15) 0.8007(4) 0.6950(3)
H18 H 0.5933 0.8900 0.7325
H19 H 0.6096 0.7571 0.6533
C30 C 0.56095(15) 0.7003(4) 0.7870(4)
H20 H 0.5801 0.6127 0.7937
H21 H 0.5602 0.7450 0.8670
C31 C -0.06741(17) 0.6283(4) -0.3329(3)
H22 H -0.0953 0.6756 -0.3068
loop_
_geom_bond_atom_site_label_1
_geom_bond_atom_site_label_2
_geom_bond_site_symmetry_1
_geom_bond_site_symmetry_2
S1 C6 1_555 1_555
S2 C17 1_555 1_555
O1 C28 1_555 1_555
O2 C28 1_555 1_555
O3 C31 1_555 1_555
F1 C3 1_555 1_555
F2 C3 1_555 1_555
F3 C4 1_555 1_555
F4 C4 1_555 1_555
F5 C5 1_555 1_555
F6 C5 1_555 1_555
C1 C2 1_555 1_555
C2 C3 1_555 1_555
C3 C4 1_555 1_555
C4 C5 1_555 1_555
C5 C1 1_555 1_555
C6 C7 1_555 1_555
C7 C1 1_555 1_555
C8 C7 1_555 1_555
H1 C8 1_555 1_555
C9 S1 1_555 1_555
C10 C6 1_555 1_555
H2 C10 1_555 1_555
H3 C10 1_555 1_555
H4 C10 1_555 1_555
C11 C9 1_555 1_555
C12 C11 1_555 1_555
H5 C12 1_555 1_555
C13 C12 1_555 1_555
H6 C13 1_555 1_555
C14 C13 1_555 1_555
C15 C14 1_555 1_555
H7 C15 1_555 1_555
C16 C11 1_555 1_555
H8 C16 1_555 1_555
C17 C18 1_555 1_555
C18 C2 1_555 1_555
C19 C18 1_555 1_555
H9 C19 1_555 1_555
C20 S2 1_555 1_555
C21 C17 1_555 1_555
H10 C21 1_555 1_555
H11 C21 1_555 1_555
H12 C21 1_555 1_555
C22 C20 1_555 1_555
C23 C22 1_555 1_555
H13 C23 1_555 1_555
C24 C23 1_555 1_555
H14 C24 1_555 1_555
C25 C24 1_555 1_555
C26 C25 1_555 1_555
H15 C26 1_555 1_555
C27 C22 1_555 1_555
H16 C27 1_555 1_555
C28 C25 1_555 1_555
H17 C28 1_555 1_555
C29 O1 1_555 1_555
H18 C29 1_555 1_555
H19 C29 1_555 1_555
C30 O2 1_555 1_555
H20 C30 1_555 1_555
H21 C30 1_555 1_555
C31 C14 1_555 1_555
H22 C31 1_555 1_555
C8 C9 1_555 1_555
C15 C16 1_555 1_555
C19 C20 1_555 1_555
C26 C27 1_555 1_555
C29 C30 1_555 1_555

#END
