
#######################################################################
#
#                 Cambridge Crystallographic Data Centre
#                                CCDC 
#
#######################################################################
#
# If this CIF has been generated from an entry in the Cambridge 
# Structural Database, then it will include bibliographic, chemical, 
# crystal, experimental, refinement or atomic coordinate data resulting 
# from the CCDC's data processing and validation procedures.
#
#######################################################################

data_RAXWEU
_chemical_formula_moiety         'C29 H26 B2 F4 N4 O1'
_chemical_name_systematic        
5,5,5',5'-Tetrafluoro-10-(4-methoxyphenyl)-1',3',7',9'-tetramethyl-5H,5'H-8,10'-bi-4\l^5^,5\l^5^-dipyrrolo[1,2-c:2',1'-f][1,3,2]diazaborinine
_symmetry_cell_setting           monoclinic
_symmetry_space_group_name_H-M   'P 21/n'
_symmetry_Int_Tables_number      14
_space_group_name_Hall           '-P 2yn'
loop_
_symmetry_equiv_pos_site_id
_symmetry_equiv_pos_as_xyz
1 x,y,z
2 1/2-x,1/2+y,1/2-z
3 -x,-y,-z
4 1/2+x,1/2-y,1/2+z
_cell_length_a                   13.7354(3)
_cell_length_b                   14.3655(3)
_cell_length_c                   13.8591(3)
_cell_angle_alpha                90
_cell_angle_beta                 100.259(2)
_cell_angle_gamma                90
_cell_volume                     2690.9
_exptl_crystal_colour            red
_exptl_crystal_description       plate
_cell_formula_units_Z            4
loop_
_atom_site_label
_atom_site_type_symbol
_atom_site_fract_x
_atom_site_fract_y
_atom_site_fract_z
F1 F 1.27495(9) 0.48527(8) 0.70483(9)
F2 F 1.23894(8) 0.47429(8) 0.54015(9)
F3 F 0.78247(9) 0.03147(8) 0.68517(10)
N1 N 1.39142(11) 0.40666(10) 0.62403(11)
O1 O 1.57283(10) -0.06386(10) 0.87657(13)
F4 F 0.72945(8) 0.17534(9) 0.63399(9)
N2 N 0.86816(10) 0.11131(11) 0.57282(11)
N3 N 0.88447(11) 0.16249(11) 0.74554(11)
N4 N 1.23072(10) 0.33480(10) 0.63544(11)
C1 C 1.41461(13) 0.13534(13) 0.82031(14)
H1 H 1.3684 0.1673 0.8492
C2 C 1.43437(12) 0.16508(12) 0.72993(14)
C3 C 1.01891(12) 0.18451(12) 0.65541(13)
C4 C 0.96238(12) 0.14764(13) 0.57078(13)
C5 C 1.11752(12) 0.22580(13) 0.65313(13)
C6 C 0.86473(15) 0.18181(15) 0.83500(15)
C7 C 1.38454(12) 0.24923(12) 0.68426(12)
C8 C 0.98262(12) 0.18822(13) 0.74359(13)
C9 C 1.43864(13) 0.32421(12) 0.65826(13)
C10 C 1.46099(15) 0.46711(15) 0.60872(18)
H2 H 1.4489 0.5278 0.5865
C11 C 1.54993(14) 0.03778(14) 0.73395(17)
H3 H 1.5945 0.0043 0.7043
C12 C 1.54119(14) 0.33750(14) 0.66204(15)
H4 H 1.5907 0.2939 0.6821
C13 C 1.20992(12) 0.18606(12) 0.68129(13)
H5 H 1.2229 0.1254 0.7034
C14 C 1.02464(15) 0.22126(16) 0.83826(15)
C15 C 1.53015(13) 0.01070(13) 0.82419(16)
C16 C 1.28056(12) 0.25406(12) 0.67033(13)
C17 C 1.13339(12) 0.31691(12) 0.62537(13)
H6 H 1.0835 0.3595 0.6030
B1 B 1.28134(16) 0.42974(14) 0.62438(16)
C18 C 0.83244(15) 0.07538(14) 0.48364(15)
C19 C 1.46248(14) 0.05944(14) 0.86729(15)
H7 H 1.4493 0.0410 0.9280
C20 C 0.98304(14) 0.13291(14) 0.47457(14)
C21 C 1.50260(14) 0.11554(14) 0.68785(16)
H8 H 1.5169 0.1346 0.6278
C22 C 0.95008(17) 0.21672(17) 0.89319(15)
H9 H 0.9560 0.2342 0.9586
B2 B 0.81232(15) 0.11895(16) 0.65956(17)
C23 C 0.90212(16) 0.08771(16) 0.42289(15)
H10 H 0.8950 0.0685 0.3579
C24 C 1.12924(19) 0.2511(2) 0.87697(18)
H11 H 1.1347 0.2705 0.9440
H12 H 1.1464 0.3021 0.8384
H13 H 1.1733 0.1999 0.8732
C25 C 0.73408(16) 0.02809(17) 0.46012(19)
H14 H 0.7389 -0.0331 0.4883
H15 H 0.7144 0.0234 0.3903
H16 H 0.6858 0.0636 0.4867
C26 C 1.07317(16) 0.15950(19) 0.43445(15)
H17 H 1.0751 0.1248 0.3756
H18 H 1.1312 0.1459 0.4821
H19 H 1.0711 0.2249 0.4198
C27 C 1.55419(15) 0.42613(16) 0.63088(18)
H20 H 1.6141 0.4539 0.6255
C28 C 1.65215(16) -0.11014(16) 0.8429(2)
H21 H 1.6285 -0.1369 0.7795
H22 H 1.6776 -0.1585 0.8882
H23 H 1.7038 -0.0662 0.8381
C29 C 0.76573(17) 0.1692(2) 0.86244(18)
H24 H 0.7160 0.1955 0.8124
H25 H 0.7643 0.2001 0.9236
H26 H 0.7530 0.1040 0.8690
loop_
_geom_bond_atom_site_label_1
_geom_bond_atom_site_label_2
_geom_bond_site_symmetry_1
_geom_bond_site_symmetry_2
F1 B1 1_555 1_555
F2 B1 1_555 1_555
F3 B2 1_555 1_555
N1 C9 1_555 1_555
O1 C15 1_555 1_555
F4 B2 1_555 1_555
N2 C4 1_555 1_555
N3 C6 1_555 1_555
N4 C16 1_555 1_555
C1 H1 1_555 1_555
C2 C1 1_555 1_555
C3 C4 1_555 1_555
C4 C20 1_555 1_555
C5 C3 1_555 1_555
C6 C22 1_555 1_555
C7 C2 1_555 1_555
C8 N3 1_555 1_555
C9 C7 1_555 1_555
C10 N1 1_555 1_555
H2 C10 1_555 1_555
C11 H3 1_555 1_555
C12 C9 1_555 1_555
H4 C12 1_555 1_555
C13 C5 1_555 1_555
H5 C13 1_555 1_555
C14 C8 1_555 1_555
C15 C11 1_555 1_555
C16 C7 1_555 1_555
C17 N4 1_555 1_555
H6 C17 1_555 1_555
B1 N1 1_555 1_555
C18 N2 1_555 1_555
C19 C1 1_555 1_555
H7 C19 1_555 1_555
C20 C23 1_555 1_555
C21 C2 1_555 1_555
H8 C21 1_555 1_555
C22 C14 1_555 1_555
H9 C22 1_555 1_555
B2 N2 1_555 1_555
C23 C18 1_555 1_555
H10 C23 1_555 1_555
C24 C14 1_555 1_555
H11 C24 1_555 1_555
H12 C24 1_555 1_555
H13 C24 1_555 1_555
C25 C18 1_555 1_555
H14 C25 1_555 1_555
H15 C25 1_555 1_555
H16 C25 1_555 1_555
C26 C20 1_555 1_555
H17 C26 1_555 1_555
H18 C26 1_555 1_555
H19 C26 1_555 1_555
C27 C10 1_555 1_555
H20 C27 1_555 1_555
C28 O1 1_555 1_555
H21 C28 1_555 1_555
H22 C28 1_555 1_555
H23 C28 1_555 1_555
C29 C6 1_555 1_555
H24 C29 1_555 1_555
H25 C29 1_555 1_555
H26 C29 1_555 1_555
N3 B2 1_555 1_555
N4 B1 1_555 1_555
C3 C8 1_555 1_555
C5 C17 1_555 1_555
C11 C21 1_555 1_555
C12 C27 1_555 1_555
C13 C16 1_555 1_555
C15 C19 1_555 1_555

#END
