
#######################################################################
#
#                 Cambridge Crystallographic Data Centre
#                                CCDC 
#
#######################################################################
#
# If this CIF has been generated from an entry in the Cambridge 
# Structural Database, then it will include bibliographic, chemical, 
# crystal, experimental, refinement or atomic coordinate data resulting 
# from the CCDC's data processing and validation procedures.
#
#######################################################################

data_RAXWOE
_chemical_formula_moiety         'C28 H22 B2 Cl2 F4 N4'
_chemical_name_systematic        
10-(2,6-Dichlorophenyl)-5,5,5',5'-tetrafluoro-1',3',7',9'-tetramethyl-5,5'-dihydro-8,10'-bi-4\l^5^,5\l^5^-dipyrrolo[1,2-c:2',1'-f][1,3,2]diazaborinine
_symmetry_cell_setting           monoclinic
_symmetry_space_group_name_H-M   'P 21/n'
_symmetry_Int_Tables_number      14
_space_group_name_Hall           '-P 2yn'
loop_
_symmetry_equiv_pos_site_id
_symmetry_equiv_pos_as_xyz
1 x,y,z
2 1/2-x,1/2+y,1/2-z
3 -x,-y,-z
4 1/2+x,1/2-y,1/2+z
_cell_length_a                   19.4958(14)
_cell_length_b                   14.4053(11)
_cell_length_c                   20.2393(15)
_cell_angle_alpha                90
_cell_angle_beta                 91.3190(10)
_cell_angle_gamma                90
_cell_volume                     5682.56
_cell_formula_units_Z            8
loop_
_atom_site_label
_atom_site_type_symbol
_atom_site_fract_x
_atom_site_fract_y
_atom_site_fract_z
B1 B 0.7418(2) 0.2633(3) 1.1249(2)
B2 B 0.6087(2) 0.1879(4) 0.7686(2)
C1 C 0.8223(2) 0.2917(4) 1.2254(2)
H1 H 0.7878 0.3014 1.2556
C2 C 0.8926(2) 0.2965(4) 1.2407(2)
H2 H 0.9129 0.3079 1.2819
C3 C 0.92524(19) 0.2812(3) 1.18334(19)
H3 H 0.9724 0.2822 1.1778
C4 C 0.87568(17) 0.2637(3) 1.13403(17)
C5 C 0.88103(17) 0.2405(3) 1.06790(17)
C6 C 0.82344(17) 0.2247(3) 1.02795(17)
C7 C 0.81558(18) 0.2049(3) 0.96033(17)
H4 H 0.8507 0.1943 0.9309
C8 C 0.74569(18) 0.2043(3) 0.94546(16)
C9 C 0.71270(18) 0.2220(3) 1.00410(17)
H5 H 0.6653 0.2247 1.0083
C10 C 0.95111(19) 0.2318(4) 1.04064(18)
C11 C 0.9884(2) 0.1494(5) 1.0475(2)
C12 C 1.0568(3) 0.1476(7) 1.0254(3)
H6 H 1.0829 0.0941 1.0313
C13 C 1.0850(4) 0.2224(10) 0.9958(4)
H7 H 1.1297 0.2194 0.9808
C14 C 1.0495(4) 0.2987(7) 0.9884(4)
H8 H 1.0697 0.3497 0.9684
C15 C 0.9821(3) 0.3056(5) 1.0098(3)
C16 C 0.69658(17) 0.1125(3) 0.85058(18)
C17 C 0.72289(19) 0.0212(3) 0.8636(2)
C18 C 0.6959(2) -0.0329(3) 0.8134(3)
H9 H 0.7047 -0.0959 0.8081
C19 C 0.6537(2) 0.0195(4) 0.7720(2)
C20 C 0.7703(2) -0.0112(3) 0.9174(2)
H10 H 0.7718 -0.0778 0.9174
H11 H 0.7543 0.0103 0.9591
H12 H 0.8154 0.0129 0.9102
C21 C 0.6119(3) -0.0116(4) 0.7135(3)
H13 H 0.5641 -0.0021 0.7219
H14 H 0.6200 -0.0763 0.7057
H15 H 0.6245 0.0236 0.6754
C22 C 0.70849(17) 0.1969(3) 0.88115(17)
C23 C 0.68187(19) 0.2791(3) 0.85477(18)
C24 C 0.6930(2) 0.3738(3) 0.8716(2)
C25 C 0.6553(3) 0.4245(4) 0.8275(3)
H16 H 0.6531 0.4890 0.8266
C26 C 0.6204(2) 0.3656(4) 0.7837(3)
C27 C 0.7395(3) 0.4154(3) 0.9234(2)
H17 H 0.7376 0.4818 0.9204
H18 H 0.7857 0.3948 0.9167
H19 H 0.7252 0.3961 0.9663
C28 C 0.5728(3) 0.3902(4) 0.7275(3)
H20 H 0.5923 0.3705 0.6867
H21 H 0.5660 0.4562 0.7265
H22 H 0.5295 0.3599 0.7331
Cl1 Cl 0.95188(9) 0.05604(12) 1.08388(8)
Cl2 Cl 0.93559(11) 0.40754(15) 0.99820(11)
F1 F 0.70110(10) 0.19768(15) 1.15445(10)
F2 F 0.70764(11) 0.34681(15) 1.12474(11)
F3 F 0.54164(10) 0.17374(19) 0.78888(12)
F4 F 0.60950(12) 0.19277(18) 0.70069(11)
N1 N 0.81154(14) 0.2715(2) 1.16182(14)
N2 N 0.75839(13) 0.2348(2) 1.05406(13)
N3 N 0.63721(15) 0.2771(2) 0.79960(15)
N4 N 0.65412(14) 0.1081(2) 0.79372(14)
B3 B 0.3871(2) 0.3053(3) 0.2799(2)
B4 B 0.7709(2) 0.2762(3) 0.4037(2)
C29 C 0.2829(2) 0.3089(3) 0.1988(2)
H23 H 0.2502 0.3221 0.2302
C30 C 0.2688(2) 0.2958(3) 0.1323(2)
H24 H 0.2257 0.2979 0.1116
C31 C 0.3295(2) 0.2794(3) 0.10232(19)
H25 H 0.3358 0.2685 0.0576
C32 C 0.38065(17) 0.2819(3) 0.15221(16)
C33 C 0.45091(17) 0.2700(2) 0.14933(16)
C34 C 0.49241(16) 0.2748(2) 0.20633(16)
C35 C 0.56342(18) 0.2659(3) 0.21565(17)
H26 H 0.5950 0.2535 0.1831
C36 C 0.57804(17) 0.2790(3) 0.28190(17)
C37 C 0.51503(18) 0.2954(3) 0.31095(18)
H27 H 0.5097 0.3067 0.3558
C38 C 0.48124(19) 0.2545(3) 0.08365(18)
C39 C 0.5042(2) 0.3275(4) 0.0458(2)
C40 C 0.5283(3) 0.3161(6) -0.0167(3)
H28 H 0.5446 0.3667 -0.0402
C41 C 0.5281(3) 0.2315(7) -0.0437(3)
H29 H 0.5419 0.2237 -0.0870
C42 C 0.5079(3) 0.1573(5) -0.0085(3)
H30 H 0.5095 0.0985 -0.0273
C43 C 0.4849(2) 0.1676(4) 0.0555(2)
C44 C 0.64534(17) 0.2767(3) 0.31734(16)
C45 C 0.67050(18) 0.1924(3) 0.34207(18)
C46 C 0.6465(2) 0.0998(3) 0.3360(2)
C47 C 0.6951(3) 0.0462(3) 0.3678(3)
H31 H 0.6932 -0.0180 0.3719
C48 C 0.7474(2) 0.1017(3) 0.3929(2)
C49 C 0.5820(3) 0.0650(4) 0.3020(3)
H32 H 0.5787 -0.0010 0.3077
H33 H 0.5833 0.0793 0.2557
H34 H 0.5429 0.0945 0.3209
C50 C 0.8104(3) 0.0733(3) 0.4314(2)
H35 H 0.8504 0.0943 0.4090
H36 H 0.8116 0.0069 0.4353
H37 H 0.8096 0.1006 0.4747
C51 C 0.68142(18) 0.3591(3) 0.32676(16)
C52 C 0.6721(2) 0.4497(3) 0.3004(2)
C53 C 0.7254(3) 0.5019(3) 0.3238(2)
H38 H 0.7323 0.5644 0.3148
C54 C 0.7679(2) 0.4464(3) 0.3635(2)
C55 C 0.6162(2) 0.4851(3) 0.2542(2)
H39 H 0.6244 0.5493 0.2442
H40 H 0.5726 0.4791 0.2749
H41 H 0.6159 0.4496 0.2141
C56 C 0.8329(2) 0.4735(3) 0.3999(2)
H42 H 0.8319 0.4504 0.4443
H43 H 0.8368 0.5400 0.4007
H44 H 0.8715 0.4476 0.3778
Cl3 Cl 0.50591(11) 0.43864(12) 0.08146(9)
Cl4 Cl 0.45892(12) 0.07321(12) 0.10050(10)
F5 F 0.36428(11) 0.23566(18) 0.32036(11)
F6 F 0.37559(11) 0.38924(18) 0.30986(11)
F7 F 0.84025(11) 0.26857(17) 0.39444(13)
F8 F 0.75870(14) 0.28798(18) 0.47059(10)
N5 N 0.35010(14) 0.3000(2) 0.21176(14)
N6 N 0.46375(13) 0.2928(2) 0.26695(13)
N7 N 0.73295(15) 0.1912(2) 0.37771(14)
N8 N 0.74204(15) 0.3602(2) 0.36512(13)
loop_
_geom_bond_atom_site_label_1
_geom_bond_atom_site_label_2
_geom_bond_site_symmetry_1
_geom_bond_site_symmetry_2
B1 F1 1_555 1_555
B2 F3 1_555 1_555
B3 F5 1_555 1_555
B4 F7 1_555 1_555
C1 H1 1_555 1_555
C2 C1 1_555 1_555
H2 C2 1_555 1_555
C3 C2 1_555 1_555
H3 C3 1_555 1_555
C4 C3 1_555 1_555
C5 C4 1_555 1_555
C6 C5 1_555 1_555
C7 C6 1_555 1_555
H4 C7 1_555 1_555
C8 C7 1_555 1_555
C9 C8 1_555 1_555
H5 C9 1_555 1_555
C10 C5 1_555 1_555
C11 C10 1_555 1_555
C12 C11 1_555 1_555
H6 C12 1_555 1_555
C13 C12 1_555 1_555
H7 C13 1_555 1_555
C14 C13 1_555 1_555
H8 C14 1_555 1_555
C15 C10 1_555 1_555
C16 C17 1_555 1_555
C17 C18 1_555 1_555
C18 H9 1_555 1_555
C19 C18 1_555 1_555
C20 C17 1_555 1_555
H10 C20 1_555 1_555
H11 C20 1_555 1_555
H12 C20 1_555 1_555
C21 C19 1_555 1_555
H13 C21 1_555 1_555
H14 C21 1_555 1_555
H15 C21 1_555 1_555
C22 C8 1_555 1_555
C23 C22 1_555 1_555
C24 C23 1_555 1_555
C25 C24 1_555 1_555
H16 C25 1_555 1_555
C26 C25 1_555 1_555
C27 C24 1_555 1_555
H17 C27 1_555 1_555
H18 C27 1_555 1_555
H19 C27 1_555 1_555
C28 C26 1_555 1_555
H20 C28 1_555 1_555
H21 C28 1_555 1_555
H22 C28 1_555 1_555
C29 H23 1_555 1_555
C30 C29 1_555 1_555
H24 C30 1_555 1_555
C31 C30 1_555 1_555
H25 C31 1_555 1_555
C32 C31 1_555 1_555
C33 C32 1_555 1_555
C34 C33 1_555 1_555
C35 C34 1_555 1_555
H26 C35 1_555 1_555
C36 C35 1_555 1_555
C37 C36 1_555 1_555
H27 C37 1_555 1_555
C38 C33 1_555 1_555
C39 C38 1_555 1_555
C40 C39 1_555 1_555
H28 C40 1_555 1_555
C41 C40 1_555 1_555
H29 C41 1_555 1_555
C42 C41 1_555 1_555
H30 C42 1_555 1_555
C43 C38 1_555 1_555
C44 C36 1_555 1_555
C45 C44 1_555 1_555
C46 C45 1_555 1_555
C47 C46 1_555 1_555
H31 C47 1_555 1_555
C48 C47 1_555 1_555
C49 C46 1_555 1_555
H32 C49 1_555 1_555
H33 C49 1_555 1_555
H34 C49 1_555 1_555
C50 C48 1_555 1_555
H35 C50 1_555 1_555
H36 C50 1_555 1_555
H37 C50 1_555 1_555
C51 C44 1_555 1_555
C52 C51 1_555 1_555
C53 C52 1_555 1_555
H38 C53 1_555 1_555
C54 C53 1_555 1_555
C55 C52 1_555 1_555
H39 C55 1_555 1_555
H40 C55 1_555 1_555
H41 C55 1_555 1_555
C56 C54 1_555 1_555
H42 C56 1_555 1_555
H43 C56 1_555 1_555
H44 C56 1_555 1_555
Cl1 C11 1_555 1_555
Cl2 C15 1_555 1_555
Cl3 C39 1_555 1_555
Cl4 C43 1_555 1_555
F2 B1 1_555 1_555
F4 B2 1_555 1_555
F6 B3 1_555 1_555
F8 B4 1_555 1_555
N1 B1 1_555 1_555
N2 B1 1_555 1_555
N3 B2 1_555 1_555
N4 B2 1_555 1_555
N5 B3 1_555 1_555
N6 B3 1_555 1_555
N7 B4 1_555 1_555
N8 B4 1_555 1_555
C1 N1 1_555 1_555
C4 N1 1_555 1_555
C6 N2 1_555 1_555
C9 N2 1_555 1_555
C14 C15 1_555 1_555
C16 C22 1_555 1_555
C16 N4 1_555 1_555
C19 N4 1_555 1_555
C23 N3 1_555 1_555
C26 N3 1_555 1_555
C29 N5 1_555 1_555
C32 N5 1_555 1_555
C34 N6 1_555 1_555
C37 N6 1_555 1_555
C42 C43 1_555 1_555
C45 N7 1_555 1_555
C48 N7 1_555 1_555
C51 N8 1_555 1_555
C54 N8 1_555 1_555

#END
