
#######################################################################
#
#                 Cambridge Crystallographic Data Centre
#                                CCDC 
#
#######################################################################
#
# If this CIF has been generated from an entry in the Cambridge 
# Structural Database, then it will include bibliographic, chemical, 
# crystal, experimental, refinement or atomic coordinate data resulting 
# from the CCDC's data processing and validation procedures.
#
#######################################################################

data_RAXXOG
_chemical_name_common            BMS-929075
_chemical_formula_moiety         'C31 H24 F2 N4 O3'
_chemical_name_systematic        
4-fluoro-2-(4-fluorophenyl)-N-methyl-5-(2-methyl-5-{[1-(pyrimidin-2-yl)cyclopropyl]carbamoyl}phenyl)-1-benzofuran-3-carboxamide
_chemical_properties_biological  
'Hepatitis C Virus NS5B Replicase Palm Site Allosteric Inhibitor'
_symmetry_cell_setting           monoclinic
_symmetry_space_group_name_H-M   'P 21/n'
_symmetry_Int_Tables_number      14
_space_group_name_Hall           '-P 2yn'
loop_
_symmetry_equiv_pos_site_id
_symmetry_equiv_pos_as_xyz
1 x,y,z
2 1/2-x,1/2+y,1/2-z
3 -x,-y,-z
4 1/2+x,1/2-y,1/2+z
_cell_length_a                   11.7106(2)
_cell_length_b                   28.1565(7)
_cell_length_c                   17.5667(4)
_cell_angle_alpha                90
_cell_angle_beta                 107.878(1)
_cell_angle_gamma                90
_cell_volume                     5512.56
_exptl_crystal_description       blade
_cell_formula_units_Z            8
_exptl_crystal_recrystallization_method acetonitrile
loop_
_atom_site_label
_atom_site_type_symbol
_atom_site_fract_x
_atom_site_fract_y
_atom_site_fract_z
F1 F 0.43388(19) 0.19878(9) 0.69299(16)
F2 F -0.2947(3) 0.05897(16) 0.3504(3)
O1 O 0.0298(2) 0.21530(10) 0.56267(19)
O2 O 0.2821(3) 0.10778(13) 0.5268(2)
O3 O 0.6031(2) 0.42198(11) 0.73055(18)
N1 N 0.3070(3) 0.09970(14) 0.6562(2)
H1 H 0.2892 0.1096 0.6975
N2 N 0.7021(3) 0.42679(13) 0.8634(2)
H2 H 0.7162 0.4131 0.9092
N3 N 0.5521(5) 0.50532(17) 0.8325(3)
N4 N 0.7116(6) 0.5556(2) 0.8309(4)
C1 C -0.2041(5) 0.0867(3) 0.3979(4)
C2 C -0.0254(4) 0.14111(17) 0.4954(3)
C3 C -0.1307(4) 0.1616(2) 0.4481(3)
H3 H -0.1402 0.1944 0.4489
C4 C -0.2215(5) 0.1342(2) 0.3998(4)
H4 H -0.2931 0.1479 0.3692
C5 C -0.0114(5) 0.0923(2) 0.4911(4)
H5 H 0.0598 0.0782 0.5216
C6 C -0.1007(6) 0.0643(2) 0.4427(5)
H6 H -0.0917 0.0316 0.4403
C7 C 0.1879(3) 0.16441(15) 0.5886(3)
C8 C 0.0686(4) 0.17084(16) 0.5483(3)
C9 C 0.2628(4) 0.12154(15) 0.5872(3)
C10 C 0.3853(6) 0.0591(2) 0.6632(4)
H7 H 0.3644 0.0424 0.6132
H8 H 0.3764 0.0383 0.7043
H9 H 0.4670 0.0697 0.6767
C11 C 0.2271(3) 0.20806(15) 0.6307(3)
C12 C 0.1280(4) 0.23790(16) 0.6136(3)
C13 C 0.3342(3) 0.22625(15) 0.6807(3)
C14 C 0.3429(3) 0.27055(15) 0.7159(3)
C15 C 0.2372(4) 0.29806(16) 0.6964(3)
H10 H 0.2403 0.3279 0.7195
C16 C 0.1295(4) 0.28280(16) 0.6446(3)
H11 H 0.0613 0.3019 0.6314
C17 C 0.4571(3) 0.28892(15) 0.7733(3)
C18 C 0.5258(4) 0.26261(15) 0.8399(3)
C19 C 0.4946(3) 0.33432(15) 0.7612(3)
H12 H 0.4488 0.3518 0.7176
C20 C 0.5988(3) 0.35453(15) 0.8125(2)
C21 C 0.6687(4) 0.32677(16) 0.8759(3)
H13 H 0.7407 0.3386 0.9095
C22 C 0.6310(4) 0.28229(16) 0.8885(3)
H14 H 0.6781 0.2646 0.9314
C23 C 0.4897(4) 0.21546(18) 0.8627(3)
H15 H 0.4038 0.2130 0.8447
H16 H 0.5185 0.2120 0.9198
H17 H 0.5234 0.1909 0.8383
C24 C 0.6335(3) 0.40392(16) 0.7977(3)
C25 C 0.7519(4) 0.47264(17) 0.8601(3)
C26 C 0.8745(5) 0.4798(2) 0.9229(4)
H18 H 0.8932 0.5111 0.9465
H19 H 0.9072 0.4536 0.9589
C27 C 0.8670(5) 0.4740(3) 0.8363(4)
H20 H 0.8952 0.4443 0.8204
H21 H 0.8812 0.5018 0.8079
C28 C 0.6639(6) 0.51334(18) 0.8395(3)
C29 C 0.5126(10) 0.5851(4) 0.8017(6)
H22 H 0.4577 0.6099 0.7874
C30 C 0.4793(7) 0.5417(3) 0.8136(4)
H23 H 0.3987 0.5366 0.8083
C31 C 0.6295(11) 0.5917(3) 0.8110(6)
H24 H 0.6559 0.6220 0.8036
F3 F 0.48803(19) 0.17255(9) 0.26870(15)
F4 F -0.2507(3) 0.09492(14) -0.1429(2)
O4 O 0.0983(2) 0.21504(10) 0.13006(17)
O5 O 0.3904(3) 0.12198(12) 0.09873(18)
O6 O 0.7432(3) 0.36803(11) 0.29581(19)
N5 N 0.2698(3) 0.07419(13) 0.1432(2)
H25 H 0.2128 0.0729 0.1644
N6 N 0.8385(3) 0.38297(12) 0.4258(2)
H26 H 0.8520 0.3737 0.4744
N7 N 0.8639(4) 0.50401(16) 0.3563(3)
N8 N 0.7123(4) 0.46741(16) 0.3997(3)
C32 C -0.1590(4) 0.1126(2) -0.0807(3)
C33 C 0.0270(3) 0.14980(16) 0.0403(3)
C34 C -0.0918(4) 0.16458(18) 0.0302(3)
H27 H -0.1077 0.1870 0.0645
C35 C 0.0480(4) 0.11642(18) -0.0116(3)
H28 H 0.1262 0.1064 -0.0049
C36 C -0.0448(4) 0.09756(19) -0.0735(3)
H29 H -0.0302 0.0755 -0.1088
C37 C -0.1854(4) 0.1451(2) -0.0318(4)
H30 H -0.2644 0.1543 -0.0394
C38 C 0.2405(3) 0.15841(15) 0.1431(2)
C39 C 0.3077(4) 0.11617(17) 0.1270(3)
C40 C 0.1246(3) 0.17107(16) 0.1040(3)
C41 C 0.3220(5) 0.03015(19) 0.1259(4)
H31 H 0.3031 0.0263 0.0691
H32 H 0.2900 0.0039 0.1476
H33 H 0.4076 0.0312 0.1497
C42 C 0.2915(3) 0.19648(14) 0.1974(3)
C43 C 0.2010(3) 0.23065(16) 0.1866(3)
C44 C 0.4000(3) 0.20589(16) 0.2548(3)
C45 C 0.2147(4) 0.27319(16) 0.2257(3)
H34 H 0.1529 0.2953 0.2160
C46 C 0.3261(4) 0.28149(16) 0.2806(3)
H35 H 0.3395 0.3103 0.3077
C47 C 0.4205(4) 0.24790(16) 0.2973(3)
C48 C 0.5391(3) 0.26041(15) 0.3566(3)
C49 C 0.7530(4) 0.29132(15) 0.4636(3)
H36 H 0.8242 0.3018 0.5001
C50 C 0.6018(3) 0.29821(15) 0.3377(3)
H37 H 0.5717 0.3128 0.2881
C51 C 0.7070(3) 0.31465(14) 0.3902(2)
C52 C 0.6939(4) 0.25322(16) 0.4819(3)
H38 H 0.7277 0.2374 0.5300
C53 C 0.5849(4) 0.23748(16) 0.4307(3)
C54 C 0.5187(5) 0.1975(2) 0.4570(3)
H39 H 0.4474 0.2098 0.4659
H40 H 0.5696 0.1838 0.5056
H41 H 0.4971 0.1737 0.4160
C55 C 0.7636(3) 0.35709(15) 0.3660(3)
C56 C 0.8962(4) 0.42547(15) 0.4103(3)
C57 C 1.0245(4) 0.43217(18) 0.4630(3)
H42 H 1.0514 0.4643 0.4789
H43 H 1.0586 0.4080 0.5029
C58 C 1.0004(4) 0.41911(18) 0.3774(3)
H44 H 1.0200 0.3871 0.3654
H45 H 1.0128 0.4433 0.3414
C59 C 0.8174(4) 0.46830(17) 0.3864(3)
C60 C 0.6478(6) 0.5072(3) 0.3785(5)
H46 H 0.5721 0.5085 0.3852
C61 C 0.7978(7) 0.5428(2) 0.3375(4)
H47 H 0.8271 0.5689 0.3167
C62 C 0.6873(8) 0.5453(3) 0.3481(5)
H48 H 0.6407 0.5726 0.3347
loop_
_geom_bond_atom_site_label_1
_geom_bond_atom_site_label_2
_geom_bond_site_symmetry_1
_geom_bond_site_symmetry_2
F1 C13 1_555 1_555
F2 C1 1_555 1_555
O1 C8 1_555 1_555
O2 C9 1_555 1_555
O3 C24 1_555 1_555
N1 H1 1_555 1_555
N2 H2 1_555 1_555
N3 C28 1_555 1_555
N4 C28 1_555 1_555
C1 C4 1_555 1_555
C2 C3 1_555 1_555
C3 H3 1_555 1_555
C4 C3 1_555 1_555
H4 C4 1_555 1_555
C5 C2 1_555 1_555
H5 C5 1_555 1_555
C6 C1 1_555 1_555
H6 C6 1_555 1_555
C7 C8 1_555 1_555
C8 C2 1_555 1_555
C9 N1 1_555 1_555
C10 N1 1_555 1_555
H7 C10 1_555 1_555
H8 C10 1_555 1_555
H9 C10 1_555 1_555
C11 C7 1_555 1_555
C12 O1 1_555 1_555
C13 C11 1_555 1_555
C14 C13 1_555 1_555
C15 C14 1_555 1_555
H10 C15 1_555 1_555
C16 C12 1_555 1_555
H11 C16 1_555 1_555
C17 C14 1_555 1_555
C18 C17 1_555 1_555
C19 C17 1_555 1_555
H12 C19 1_555 1_555
C20 C19 1_555 1_555
C21 C20 1_555 1_555
H13 C21 1_555 1_555
C22 C18 1_555 1_555
H14 C22 1_555 1_555
C23 C18 1_555 1_555
H15 C23 1_555 1_555
H16 C23 1_555 1_555
H17 C23 1_555 1_555
C24 N2 1_555 1_555
C25 N2 1_555 1_555
C26 C25 1_555 1_555
H18 C26 1_555 1_555
H19 C26 1_555 1_555
C27 C25 1_555 1_555
H20 C27 1_555 1_555
H21 C27 1_555 1_555
C28 C25 1_555 1_555
C29 H22 1_555 1_555
C30 N3 1_555 1_555
H23 C30 1_555 1_555
C31 N4 1_555 1_555
H24 C31 1_555 1_555
F3 C44 1_555 1_555
F4 C32 1_555 1_555
O4 C40 1_555 1_555
O5 C39 1_555 1_555
O6 C55 1_555 1_555
N5 H25 1_555 1_555
N6 H26 1_555 1_555
N7 C59 1_555 1_555
N8 C59 1_555 1_555
C32 C36 1_555 1_555
C33 C34 1_555 1_555
C34 H27 1_555 1_555
C35 C33 1_555 1_555
H28 C35 1_555 1_555
C36 C35 1_555 1_555
H29 C36 1_555 1_555
C37 C32 1_555 1_555
H30 C37 1_555 1_555
C38 C39 1_555 1_555
C39 N5 1_555 1_555
C40 C33 1_555 1_555
C41 N5 1_555 1_555
H31 C41 1_555 1_555
H32 C41 1_555 1_555
H33 C41 1_555 1_555
C42 C38 1_555 1_555
C43 O4 1_555 1_555
C44 C42 1_555 1_555
C45 C43 1_555 1_555
H34 C45 1_555 1_555
C46 C45 1_555 1_555
H35 C46 1_555 1_555
C47 C44 1_555 1_555
C48 C47 1_555 1_555
C49 H36 1_555 1_555
C50 C48 1_555 1_555
H37 C50 1_555 1_555
C51 C49 1_555 1_555
C52 C49 1_555 1_555
H38 C52 1_555 1_555
C53 C48 1_555 1_555
C54 C53 1_555 1_555
H39 C54 1_555 1_555
H40 C54 1_555 1_555
H41 C54 1_555 1_555
C55 N6 1_555 1_555
C56 N6 1_555 1_555
C57 C56 1_555 1_555
H42 C57 1_555 1_555
H43 C57 1_555 1_555
C58 C56 1_555 1_555
H44 C58 1_555 1_555
H45 C58 1_555 1_555
C59 C56 1_555 1_555
C60 N8 1_555 1_555
H46 C60 1_555 1_555
C61 N7 1_555 1_555
H47 C61 1_555 1_555
C62 C60 1_555 1_555
H48 C62 1_555 1_555
C5 C6 1_555 1_555
C7 C9 1_555 1_555
C11 C12 1_555 1_555
C15 C16 1_555 1_555
C20 C24 1_555 1_555
C21 C22 1_555 1_555
C26 C27 1_555 1_555
C29 C30 1_555 1_555
C29 C31 1_555 1_555
C34 C37 1_555 1_555
C38 C40 1_555 1_555
C42 C43 1_555 1_555
C46 C47 1_555 1_555
C50 C51 1_555 1_555
C51 C55 1_555 1_555
C52 C53 1_555 1_555
C57 C58 1_555 1_555
C61 C62 1_555 1_555

#END
