
#######################################################################
#
#                 Cambridge Crystallographic Data Centre
#                                CCDC 
#
#######################################################################
#
# If this CIF has been generated from an entry in the Cambridge 
# Structural Database, then it will include bibliographic, chemical, 
# crystal, experimental, refinement or atomic coordinate data resulting 
# from the CCDC's data processing and validation procedures.
#
#######################################################################

data_RAXYIA
_chemical_formula_moiety         'C30 H26 Cl2 O1'
_chemical_name_systematic        
8-Chloro-1-(4-chlorophenyl)-4-phenyl-2,3-dipropylcyclopenta[c]chromene
_symmetry_cell_setting           triclinic
_symmetry_space_group_name_H-M   'P -1'
_symmetry_Int_Tables_number      2
_space_group_name_Hall           '-P 1'
loop_
_symmetry_equiv_pos_site_id
_symmetry_equiv_pos_as_xyz
1 x,y,z
2 -x,-y,-z
_cell_length_a                   10.012(4)
_cell_length_b                   10.685(4)
_cell_length_c                   11.953(4)
_cell_angle_alpha                102.786(4)
_cell_angle_beta                 91.396(5)
_cell_angle_gamma                100.230(5)
_cell_volume                     1224.48
_exptl_crystal_colour            colorless
_exptl_crystal_description       block
_cell_formula_units_Z            2
loop_
_atom_site_label
_atom_site_type_symbol
_atom_site_fract_x
_atom_site_fract_y
_atom_site_fract_z
Cl1 Cl 0.15596(8) 0.39692(7) -0.41706(5)
Cl2 Cl 0.42207(9) -0.03451(7) -0.15630(7)
O1 O 0.11092(16) 0.78477(14) 0.00313(12)
C1 C 0.1420(2) 0.5108(3) -0.28982(19)
C2 C 0.0966(3) 0.6232(3) -0.2967(2)
H1 H 0.0720 0.6380 -0.3675
C3 C 0.0884(3) 0.7131(2) -0.1965(2)
H2 H 0.0580 0.7899 -0.1987
C4 C 0.1256(2) 0.6887(2) -0.09222(18)
C5 C 0.1730(2) 0.5762(2) -0.08346(17)
C6 C 0.1805(2) 0.4872(2) -0.18698(18)
H3 H 0.2122 0.4107 -0.1860
C7 C 0.2085(2) 0.5619(2) 0.03069(17)
C8 C 0.1859(2) 0.6644(2) 0.12764(17)
C9 C 0.1387(2) 0.7699(2) 0.11187(18)
C10 C 0.1042(3) 0.8789(2) 0.19936(18)
C11 C 0.2012(3) 0.9836(2) 0.2551(2)
H4 H 0.2910 0.9897 0.2353
C12 C 0.1653(4) 1.0805(2) 0.3412(2)
H5 H 0.2312 1.1510 0.3788
C13 C 0.0345(3) 1.0722(3) 0.3701(2)
H6 H 0.0114 1.1358 0.4291
C14 C -0.0634(3) 0.9707(3) 0.3130(2)
H7 H -0.1537 0.9662 0.3312
C15 C -0.0272(3) 0.8750(2) 0.2281(2)
H8 H -0.0941 0.8060 0.1894
C16 C 0.2529(2) 0.4666(2) 0.07419(17)
C17 C 0.2915(2) 0.3434(2) 0.01375(17)
C18 C 0.3943(3) 0.3405(2) -0.06314(19)
H9 H 0.4372 0.4184 -0.0794
C19 C 0.4342(3) 0.2263(2) -0.1155(2)
H10 H 0.5026 0.2272 -0.1667
C20 C 0.3722(3) 0.1111(2) -0.0917(2)
C21 C 0.2703(3) 0.1091(2) -0.0166(2)
H11 H 0.2280 0.0306 -0.0010
C22 C 0.2317(2) 0.2244(2) 0.03507(19)
H12 H 0.1631 0.2224 0.0861
C23 C 0.2199(2) 0.6259(2) 0.23312(17)
C24 C 0.2165(3) 0.7020(2) 0.35423(18)
H13 H 0.1890 0.6412 0.4025
H14 H 0.1480 0.7561 0.3562
C25 C 0.3506(3) 0.7885(2) 0.4045(2)
H15 H 0.3837 0.8430 0.3523
H16 H 0.4168 0.7342 0.4117
C26 C 0.3380(3) 0.8755(3) 0.5218(2)
H17 H 0.2812 0.9369 0.5136
H18 H 0.4266 0.9219 0.5537
H19 H 0.2983 0.8225 0.5721
C27 C 0.2597(2) 0.5081(2) 0.20017(17)
C28 C 0.3103(2) 0.4335(2) 0.27976(18)
H20 H 0.2620 0.3437 0.2583
H21 H 0.2885 0.4704 0.3573
C29 C 0.4619(3) 0.4340(2) 0.2798(2)
H22 H 0.4853 0.4017 0.2017
H23 H 0.5110 0.5231 0.3063
C30 C 0.5065(3) 0.3506(3) 0.3558(3)
H24 H 0.6028 0.3539 0.3531
H25 H 0.4596 0.2619 0.3290
H26 H 0.4854 0.3833 0.4335
loop_
_geom_bond_atom_site_label_1
_geom_bond_atom_site_label_2
_geom_bond_site_symmetry_1
_geom_bond_site_symmetry_2
Cl1 C1 1_555 1_555
Cl2 C20 1_555 1_555
O1 C4 1_555 1_555
C1 C2 1_555 1_555
C2 H1 1_555 1_555
C3 C2 1_555 1_555
H2 C3 1_555 1_555
C4 C3 1_555 1_555
C5 C4 1_555 1_555
C6 C1 1_555 1_555
H3 C6 1_555 1_555
C7 C5 1_555 1_555
C8 C7 1_555 1_555
C9 O1 1_555 1_555
C10 C9 1_555 1_555
C11 C10 1_555 1_555
H4 C11 1_555 1_555
C12 C11 1_555 1_555
H5 C12 1_555 1_555
C13 C12 1_555 1_555
H6 C13 1_555 1_555
C14 C13 1_555 1_555
H7 C14 1_555 1_555
C15 C10 1_555 1_555
H8 C15 1_555 1_555
C16 C7 1_555 1_555
C17 C16 1_555 1_555
C18 C17 1_555 1_555
H9 C18 1_555 1_555
C19 C18 1_555 1_555
H10 C19 1_555 1_555
C20 C19 1_555 1_555
C21 C20 1_555 1_555
H11 C21 1_555 1_555
C22 C17 1_555 1_555
H12 C22 1_555 1_555
C23 C8 1_555 1_555
C24 C23 1_555 1_555
H13 C24 1_555 1_555
H14 C24 1_555 1_555
C25 C24 1_555 1_555
H15 C25 1_555 1_555
H16 C25 1_555 1_555
C26 C25 1_555 1_555
H17 C26 1_555 1_555
H18 C26 1_555 1_555
H19 C26 1_555 1_555
C27 C16 1_555 1_555
C28 C27 1_555 1_555
H20 C28 1_555 1_555
H21 C28 1_555 1_555
C29 C28 1_555 1_555
H22 C29 1_555 1_555
H23 C29 1_555 1_555
C30 C29 1_555 1_555
H24 C30 1_555 1_555
H25 C30 1_555 1_555
H26 C30 1_555 1_555
C5 C6 1_555 1_555
C8 C9 1_555 1_555
C14 C15 1_555 1_555
C21 C22 1_555 1_555
C23 C27 1_555 1_555

#END
