
#######################################################################
#
#                 Cambridge Crystallographic Data Centre
#                                CCDC 
#
#######################################################################
#
# If this CIF has been generated from an entry in the Cambridge 
# Structural Database, then it will include bibliographic, chemical, 
# crystal, experimental, refinement or atomic coordinate data resulting 
# from the CCDC's data processing and validation procedures.
#
#######################################################################

data_RAXZUN
_chemical_formula_moiety         'C28 H24 Cl1 N1 O2 S1'
_chemical_name_systematic        
4-Chloro-2-(((2-((4-methylphenyl)sulfinyl)-1,2-diphenylethyl)imino)methyl)phenol
_symmetry_cell_setting           monoclinic
_symmetry_space_group_name_H-M   'P 21'
_symmetry_Int_Tables_number      4
_space_group_name_Hall           'P 2yb'
loop_
_symmetry_equiv_pos_site_id
_symmetry_equiv_pos_as_xyz
1 x,y,z
2 -x,1/2+y,-z
_cell_length_a                   12.290(4)
_cell_length_b                   5.9017(17)
_cell_length_c                   16.991(5)
_cell_angle_alpha                90
_cell_angle_beta                 104.225(5)
_cell_angle_gamma                90
_cell_volume                     1194.6
_exptl_crystal_description       block
_cell_formula_units_Z            2
loop_
_atom_site_label
_atom_site_type_symbol
_atom_site_fract_x
_atom_site_fract_y
_atom_site_fract_z
C1 C 0.6408(3) 0.9604(8) 0.4682(2)
C2 C 0.6660(3) 1.1752(8) 0.4473(3)
H1 H 0.7354 1.2396 0.4711
C3 C 0.5874(4) 1.2938(8) 0.3906(3)
H2 H 0.6039 1.4402 0.3770
C4 C 0.4838(3) 1.1996(8) 0.3533(2)
C5 C 0.4590(3) 0.9795(7) 0.3759(2)
C6 C 0.5384(3) 0.8623(7) 0.4339(2)
H3 H 0.5224 0.7176 0.4496
C7 C 0.3538(3) 0.8722(7) 0.3371(2)
H4 H 0.3416 0.7243 0.3518
C8 C 0.1741(3) 0.8399(7) 0.2483(2)
H5 H 0.1915 0.6778 0.2542
C9 C 0.0887(3) 0.8959(7) 0.2968(2)
C10 C 0.0357(4) 1.1042(8) 0.2919(3)
H6 H 0.0498 1.2140 0.2564
C11 C -0.0376(4) 1.1494(9) 0.3390(3)
H7 H -0.0736 1.2891 0.3346
C12 C -0.0589(4) 0.9913(11) 0.3929(3)
H8 H -0.1079 1.0246 0.4252
C13 C -0.0069(4) 0.7840(11) 0.3986(3)
H9 H -0.0215 0.6755 0.4343
C14 C 0.0668(4) 0.7365(8) 0.3513(2)
H10 H 0.1023 0.5962 0.3559
C15 C 0.1389(3) 0.8976(7) 0.1573(2)
H11 H 0.1068 1.0504 0.1511
C16 C 0.2341(3) 0.8895(7) 0.1165(2)
C17 C 0.2508(4) 1.0666(8) 0.0673(3)
H12 H 0.2036 1.1919 0.0615
C18 C 0.3342(4) 1.0632(10) 0.0272(3)
H13 H 0.3421 1.1819 -0.0070
C19 C 0.4068(4) 0.8806(10) 0.0381(3)
H14 H 0.4658 0.8781 0.0127
C20 C 0.3917(4) 0.7042(10) 0.0860(3)
H15 H 0.4394 0.5798 0.0916
C21 C 0.3076(4) 0.7060(9) 0.1263(2)
H16 H 0.2998 0.5858 0.1599
C22 C -0.0882(3) 0.7863(8) 0.1302(2)
C23 C -0.1383(4) 0.9929(9) 0.1034(3)
H17 H -0.1095 1.0841 0.0687
C24 C -0.2315(4) 1.0605(10) 0.1290(3)
H18 H -0.2654 1.1980 0.1107
C25 C -0.2747(4) 0.9342(12) 0.1795(3)
C26 C -0.2275(4) 0.7254(12) 0.2028(3)
H19 H -0.2590 0.6332 0.2357
C27 C -0.1352(4) 0.6501(8) 0.1788(3)
H20 H -0.1046 0.5085 0.1951
C28 C -0.3718(5) 1.0175(18) 0.2143(5)
H21 H -0.3424 1.0740 0.2683
H22 H -0.4222 0.8941 0.2157
H23 H -0.4115 1.1365 0.1806
Cl1 Cl 0.74000(9) 0.8016(2) 0.53771(7)
N1 N 0.2772(3) 0.9693(6) 0.28411(18)
O1 O 0.4109(3) 1.3216(6) 0.2964(2)
H24 H 0.350(3) 1.261(11) 0.277(3)
O2 O 0.0625(3) 0.4648(5) 0.1349(2)
S1 S 0.03246(9) 0.69610(19) 0.09926(6)
loop_
_geom_bond_atom_site_label_1
_geom_bond_atom_site_label_2
_geom_bond_site_symmetry_1
_geom_bond_site_symmetry_2
C1 C2 1_555 1_555
C2 H1 1_555 1_555
C3 C2 1_555 1_555
H2 C3 1_555 1_555
C4 C3 1_555 1_555
C5 C4 1_555 1_555
C6 C1 1_555 1_555
H3 C6 1_555 1_555
C7 C5 1_555 1_555
H4 C7 1_555 1_555
C8 H5 1_555 1_555
C9 C8 1_555 1_555
C10 C9 1_555 1_555
H6 C10 1_555 1_555
C11 C10 1_555 1_555
H7 C11 1_555 1_555
C12 C11 1_555 1_555
H8 C12 1_555 1_555
C13 C12 1_555 1_555
H9 C13 1_555 1_555
C14 C9 1_555 1_555
H10 C14 1_555 1_555
C15 C8 1_555 1_555
H11 C15 1_555 1_555
C16 C15 1_555 1_555
C17 C16 1_555 1_555
H12 C17 1_555 1_555
C18 C17 1_555 1_555
H13 C18 1_555 1_555
C19 C18 1_555 1_555
H14 C19 1_555 1_555
C20 C19 1_555 1_555
H15 C20 1_555 1_555
C21 C16 1_555 1_555
H16 C21 1_555 1_555
C22 C23 1_555 1_555
C23 H17 1_555 1_555
C24 C23 1_555 1_555
H18 C24 1_555 1_555
C25 C24 1_555 1_555
C26 C25 1_555 1_555
H19 C26 1_555 1_555
C27 C22 1_555 1_555
H20 C27 1_555 1_555
C28 C25 1_555 1_555
H21 C28 1_555 1_555
H22 C28 1_555 1_555
H23 C28 1_555 1_555
Cl1 C1 1_555 1_555
N1 C7 1_555 1_555
O1 C4 1_555 1_555
H24 O1 1_555 1_555
O2 S1 1_555 1_555
S1 C15 1_555 1_555
C5 C6 1_555 1_555
C8 N1 1_555 1_555
C13 C14 1_555 1_555
C20 C21 1_555 1_555
C22 S1 1_555 1_555
C26 C27 1_555 1_555

#END
