
#######################################################################
#
#                 Cambridge Crystallographic Data Centre
#                                CCDC 
#
#######################################################################
#
# If this CIF has been generated from an entry in the Cambridge 
# Structural Database, then it will include bibliographic, chemical, 
# crystal, experimental, refinement or atomic coordinate data resulting 
# from the CCDC's data processing and validation procedures.
#
#######################################################################

data_RAYCUS
_chemical_formula_moiety         'C15 H14 Cl1 N1 O2'
_chemical_name_systematic        
5'-chloro-1',5-dimethyl-3H-spiro[cyclohex-4-ene-1,3'-indole]-2',3(1'H)-dione
_symmetry_cell_setting           orthorhombic
_symmetry_space_group_name_H-M   'P 21 21 21'
_symmetry_Int_Tables_number      19
_space_group_name_Hall           'P 2ac 2ab'
loop_
_symmetry_equiv_pos_site_id
_symmetry_equiv_pos_as_xyz
1 x,y,z
2 1/2-x,-y,1/2+z
3 -x,1/2+y,1/2-z
4 1/2+x,1/2-y,-z
_cell_length_a                   6.1777(9)
_cell_length_b                   11.9099(18)
_cell_length_c                   18.713(3)
_cell_angle_alpha                90
_cell_angle_beta                 90
_cell_angle_gamma                90
_cell_volume                     1376.82
_exptl_crystal_colour            colorless
_exptl_crystal_description       prismatic
_cell_formula_units_Z            4
loop_
_atom_site_label
_atom_site_type_symbol
_atom_site_fract_x
_atom_site_fract_y
_atom_site_fract_z
Cl1 Cl 1.20970(16) 0.56415(9) 0.78551(5)
N1 N 0.4418(4) 0.3197(2) 0.69289(14)
O1 O 0.2658(4) 0.3237(2) 0.58554(14)
O2 O 0.6373(5) 0.73476(18) 0.58245(13)
C1 C 0.6231(5) 0.3699(2) 0.72323(15)
C2 C 0.7012(6) 0.3595(3) 0.79157(16)
H1 H 0.6329 0.3131 0.8245
C3 C 0.8822(6) 0.4192(3) 0.81005(16)
H2 H 0.9379 0.4137 0.8561
C4 C 0.9816(5) 0.4875(3) 0.76053(16)
C5 C 0.9047(5) 0.4986(2) 0.69197(15)
H3 H 0.9743 0.5448 0.6592
C6 C 0.7226(5) 0.4396(2) 0.67312(14)
C7 C 0.5899(5) 0.4375(2) 0.60545(15)
C8 C 0.4100(6) 0.3538(3) 0.62418(18)
C9 C 0.7133(6) 0.3970(2) 0.53864(15)
H4 H 0.8108 0.3370 0.5525
H5 H 0.6100 0.3662 0.5049
C10 C 0.8409(6) 0.4864(3) 0.50221(15)
C11 C 0.8130(6) 0.5952(2) 0.51629(16)
H6 H 0.9033 0.6470 0.4940
C12 C 0.6489(6) 0.6363(3) 0.56455(16)
C13 C 0.4866(5) 0.5521(3) 0.59046(17)
H7 H 0.3741 0.5433 0.5547
H8 H 0.4195 0.5799 0.6339
C14 C 1.0025(6) 0.4471(3) 0.44864(19)
H9 H 1.0760 0.5107 0.4285
H10 H 0.9298 0.4066 0.4114
H11 H 1.1058 0.3989 0.4715
C15 C 0.2993(6) 0.2417(3) 0.7290(2)
H12 H 0.1653 0.2363 0.7033
H13 H 0.2715 0.2679 0.7766
H14 H 0.3667 0.1691 0.7311
loop_
_geom_bond_atom_site_label_1
_geom_bond_atom_site_label_2
_geom_bond_site_symmetry_1
_geom_bond_site_symmetry_2
Cl1 C4 1_555 1_555
N1 C1 1_555 1_555
O1 C8 1_555 1_555
O2 C12 1_555 1_555
C1 C2 1_555 1_555
C2 H1 1_555 1_555
C3 C2 1_555 1_555
H2 C3 1_555 1_555
C4 C3 1_555 1_555
C5 C4 1_555 1_555
H3 C5 1_555 1_555
C6 C1 1_555 1_555
C7 C6 1_555 1_555
C8 N1 1_555 1_555
C9 C7 1_555 1_555
H4 C9 1_555 1_555
H5 C9 1_555 1_555
C10 C9 1_555 1_555
C11 C10 1_555 1_555
H6 C11 1_555 1_555
C12 C11 1_555 1_555
C13 C7 1_555 1_555
H7 C13 1_555 1_555
H8 C13 1_555 1_555
C14 C10 1_555 1_555
H9 C14 1_555 1_555
H10 C14 1_555 1_555
H11 C14 1_555 1_555
C15 N1 1_555 1_555
H12 C15 1_555 1_555
H13 C15 1_555 1_555
H14 C15 1_555 1_555
C5 C6 1_555 1_555
C7 C8 1_555 1_555
C12 C13 1_555 1_555

#END
