
#######################################################################
#
#                 Cambridge Crystallographic Data Centre
#                                CCDC 
#
#######################################################################
#
# If this CIF has been generated from an entry in the Cambridge 
# Structural Database, then it will include bibliographic, chemical, 
# crystal, experimental, refinement or atomic coordinate data resulting 
# from the CCDC's data processing and validation procedures.
#
#######################################################################

data_RAYFUV
_chemical_name_common            
'(S)-1-ethyl 3-(4-nitrobenzyl) 2-((S)-2-(1, 3-dioxoisoindolin-2-yl)-3-phenylpropyl)-2-methylmalonate'
_chemical_formula_moiety         'C30 H28 N2 O8'
_chemical_name_systematic        
'(2S,4S)-ethyl (4-nitrophenyl)methyl [2-(1,3-dioxo-1,3-dihydro-2H-isoindol-2-yl)-3-phenylpropyl](methyl)propanedioate'
_symmetry_cell_setting           orthorhombic
_symmetry_space_group_name_H-M   'P 21 21 21'
_symmetry_Int_Tables_number      19
_space_group_name_Hall           'P 2ac 2ab'
loop_
_symmetry_equiv_pos_site_id
_symmetry_equiv_pos_as_xyz
1 x,y,z
2 1/2-x,-y,1/2+z
3 -x,1/2+y,1/2-z
4 1/2+x,1/2-y,-z
_cell_length_a                   8.5572(3)
_cell_length_b                   14.4690(6)
_cell_length_c                   21.6842(9)
_cell_angle_alpha                90
_cell_angle_beta                 90
_cell_angle_gamma                90
_cell_volume                     2684.81
_exptl_crystal_colour            colorless
_exptl_crystal_description       block
_chemical_melting_point          '398 K'
_cell_formula_units_Z            4
_chemical_properties_physical    ', Hygroscopic'
_exptl_crystal_recrystallization_method 'dichloromethane/diethyl ether/hexanes'
loop_
_atom_site_label
_atom_site_type_symbol
_atom_site_fract_x
_atom_site_fract_y
_atom_site_fract_z
O1 O 0.05256(11) 0.68625(7) 0.29464(5)
O2 O 0.06156(13) 0.54059(7) 0.25815(5)
O3 O 0.18883(11) 0.60108(6) 0.41163(4)
O4 O 0.35721(13) 0.71601(7) 0.38871(5)
O5 O -0.15944(14) 0.45655(9) 0.70153(5)
O6 O -0.16755(16) 0.33918(9) 0.63925(6)
O7 O 0.71303(12) 0.61550(7) 0.39900(5)
O8 O 0.33864(12) 0.39580(7) 0.43856(4)
N1 N -0.13188(14) 0.41934(9) 0.65163(6)
N2 N 0.51814(13) 0.50334(7) 0.40228(5)
C1 C -0.16795(18) 0.78698(11) 0.28948(8)
H1 H -0.1684 0.7905 0.3346
H2 H -0.2747 0.7949 0.2740
H3 H -0.1010 0.8359 0.2728
C2 C -0.10613(16) 0.69421(10) 0.26965(7)
H4 H -0.1732 0.6441 0.2859
H5 H -0.1041 0.6898 0.2241
C3 C 0.12128(15) 0.60459(9) 0.28468(6)
C4 C 0.28971(15) 0.60474(9) 0.30936(6)
C5 C 0.38737(17) 0.66605(10) 0.26627(7)
H6 H 0.3472 0.7295 0.2675
H7 H 0.3805 0.6423 0.2240
H8 H 0.4967 0.6655 0.2798
C6 C 0.28602(14) 0.64799(9) 0.37351(6)
C7 C 0.16346(18) 0.64599(10) 0.47021(6)
H9 H 0.0955 0.7006 0.4642
H10 H 0.2647 0.6677 0.4869
C8 C 0.08871(15) 0.58159(9) 0.51545(6)
C9 C 0.07890(15) 0.61329(10) 0.57641(6)
H11 H 0.1211 0.6719 0.5869
C10 C 0.00842(16) 0.55994(10) 0.62127(6)
H12 H 0.0005 0.5814 0.6626
C11 C -0.05060(16) 0.47424(10) 0.60450(6)
C12 C -0.04168(17) 0.44050(9) 0.54475(6)
H13 H -0.0825 0.3813 0.5347
C13 C 0.02851(16) 0.49537(9) 0.49984(6)
H14 H 0.0353 0.4739 0.4585
C14 C 0.34574(16) 0.50332(9) 0.31027(6)
H15 H 0.2698 0.4670 0.3347
H16 H 0.3419 0.4796 0.2675
C15 C 0.50913(15) 0.48395(9) 0.33596(6)
H17 H 0.5852 0.5250 0.3142
C16 C 0.55235(17) 0.38240(9) 0.32162(6)
H18 H 0.4629 0.3425 0.3330
H19 H 0.5687 0.3762 0.2766
C17 C 0.69616(16) 0.34764(9) 0.35442(6)
C18 C 0.68179(17) 0.29080(9) 0.40625(7)
H20 H 0.5808 0.2741 0.4206
C19 C 0.8136(2) 0.25819(10) 0.43716(7)
H21 H 0.8020 0.2203 0.4726
C20 C 0.96157(19) 0.28115(11) 0.41606(8)
H22 H 1.0516 0.2583 0.4367
C21 C 0.97757(18) 0.33765(12) 0.36465(8)
H23 H 1.0789 0.3535 0.3502
C22 C 0.84587(18) 0.37128(10) 0.33422(7)
H24 H 0.8580 0.4106 0.2995
C23 C 0.62382(15) 0.56728(8) 0.42789(6)
C24 C 0.66877(16) 0.61298(9) 0.54269(6)
H25 H 0.7480 0.6572 0.5343
C25 C 0.61825(17) 0.59519(10) 0.60294(6)
H26 H 0.6628 0.6288 0.6362
C26 C 0.50375(18) 0.52905(10) 0.61510(6)
H27 H 0.4725 0.5181 0.6565
C27 C 0.43416(17) 0.47853(9) 0.56747(6)
H28 H 0.3565 0.4332 0.5756
C28 C 0.43286(15) 0.45659(8) 0.44794(6)
C29 C 0.59807(15) 0.56311(9) 0.49590(6)
C30 C 0.48348(15) 0.49743(9) 0.50790(6)
loop_
_geom_bond_atom_site_label_1
_geom_bond_atom_site_label_2
_geom_bond_site_symmetry_1
_geom_bond_site_symmetry_2
O1 C2 1_555 1_555
O2 C3 1_555 1_555
O3 C6 1_555 1_555
O4 C6 1_555 1_555
O5 N1 1_555 1_555
O6 N1 1_555 1_555
O7 C23 1_555 1_555
O8 C28 1_555 1_555
N1 C11 1_555 1_555
N2 C15 1_555 1_555
C1 H1 1_555 1_555
H2 C1 1_555 1_555
H3 C1 1_555 1_555
C2 C1 1_555 1_555
H4 C2 1_555 1_555
H5 C2 1_555 1_555
C3 O1 1_555 1_555
C4 C3 1_555 1_555
C5 C4 1_555 1_555
H6 C5 1_555 1_555
H7 C5 1_555 1_555
H8 C5 1_555 1_555
C6 C4 1_555 1_555
C7 O3 1_555 1_555
H9 C7 1_555 1_555
H10 C7 1_555 1_555
C8 C7 1_555 1_555
C9 C8 1_555 1_555
H11 C9 1_555 1_555
C10 C9 1_555 1_555
H12 C10 1_555 1_555
C11 C10 1_555 1_555
C12 C11 1_555 1_555
H13 C12 1_555 1_555
C13 C8 1_555 1_555
H14 C13 1_555 1_555
C14 C4 1_555 1_555
H15 C14 1_555 1_555
H16 C14 1_555 1_555
C15 C14 1_555 1_555
H17 C15 1_555 1_555
C16 C15 1_555 1_555
H18 C16 1_555 1_555
H19 C16 1_555 1_555
C17 C16 1_555 1_555
C18 C17 1_555 1_555
H20 C18 1_555 1_555
C19 C18 1_555 1_555
H21 C19 1_555 1_555
C20 C19 1_555 1_555
H22 C20 1_555 1_555
C21 C20 1_555 1_555
H23 C21 1_555 1_555
C22 C17 1_555 1_555
H24 C22 1_555 1_555
C23 N2 1_555 1_555
C24 H25 1_555 1_555
C25 C24 1_555 1_555
H26 C25 1_555 1_555
C26 C25 1_555 1_555
H27 C26 1_555 1_555
C27 C26 1_555 1_555
H28 C27 1_555 1_555
C28 N2 1_555 1_555
C29 C23 1_555 1_555
C30 C27 1_555 1_555
C12 C13 1_555 1_555
C21 C22 1_555 1_555
C24 C29 1_555 1_555
C28 C30 1_555 1_555
C29 C30 1_555 1_555

#END
