
#######################################################################
#
#                 Cambridge Crystallographic Data Centre
#                                CCDC 
#
#######################################################################
#
# If this CIF has been generated from an entry in the Cambridge 
# Structural Database, then it will include bibliographic, chemical, 
# crystal, experimental, refinement or atomic coordinate data resulting 
# from the CCDC's data processing and validation procedures.
#
#######################################################################

data_RAYLIN
_chemical_formula_moiety         'C26 H18 B2 N2 O3,2(C2 H6 O1)'
_chemical_name_systematic        
'Tetrabenzo(c,g,k,o)-2,10,17-trioxa-6,14-diaza-1,9-diboratetracyclo(7.7.1.0^1,6^.0^9,14^)heptadeca-3,5,7,11,13,15-hexaene ethanol solvate'
_chemical_properties_biological  'negligible antifungal activity'
_symmetry_cell_setting           triclinic
_symmetry_space_group_name_H-M   'P -1'
_symmetry_Int_Tables_number      2
_space_group_name_Hall           '-P 1'
loop_
_symmetry_equiv_pos_site_id
_symmetry_equiv_pos_as_xyz
1 x,y,z
2 -x,-y,-z
_cell_length_a                   9.7915(4)
_cell_length_b                   10.8569(5)
_cell_length_c                   12.8445(6)
_cell_angle_alpha                102.067(1)
_cell_angle_beta                 96.011(1)
_cell_angle_gamma                90.458(1)
_cell_volume                     1327.3
_exptl_crystal_colour            yellow
_exptl_crystal_description       parallelepiped
_chemical_melting_point          '362-363 deg.C'
_cell_formula_units_Z            2
loop_
_atom_site_label
_atom_site_type_symbol
_atom_site_fract_x
_atom_site_fract_y
_atom_site_fract_z
B1 B 0.49085(17) 0.25752(16) 0.20881(14)
B2 B 0.53172(17) 0.05170(16) 0.23408(13)
O1 O 0.43024(10) 0.14354(10) 0.22478(8)
O2 O 0.38955(12) 0.35763(11) 0.21074(9)
O3 O 0.46486(11) -0.06955(10) 0.23653(9)
C1 C 0.33925(15) 0.40201(14) 0.12591(14)
C2 C 0.23319(18) 0.48783(16) 0.13660(17)
C3 C 0.18193(19) 0.53680(18) 0.04991(19)
C4 C 0.2323(2) 0.50237(19) -0.04853(18)
C5 C 0.33503(19) 0.41637(17) -0.06066(16)
C6 C 0.38940(16) 0.36563(15) 0.02615(13)
C7 C 0.49229(15) 0.27221(15) 0.01274(13)
N1 N 0.54294(12) 0.22361(12) 0.09109(10)
C8 C 0.63785(14) 0.12276(14) 0.07494(12)
C9 C 0.63489(14) 0.03650(14) 0.14177(12)
C10 C 0.72563(16) -0.06231(15) 0.12500(13)
C11 C 0.81376(17) -0.07535(17) 0.04591(14)
C12 C 0.81489(17) 0.01240(17) -0.01789(14)
C13 C 0.72751(16) 0.11301(17) -0.00346(13)
C14 C 0.49583(15) -0.13646(14) 0.31108(12)
C15 C 0.43112(17) -0.25412(15) 0.30047(14)
C16 C 0.46202(19) -0.32500(16) 0.37654(15)
C17 C 0.55652(19) -0.28122(16) 0.46577(15)
C18 C 0.61935(18) -0.16440(16) 0.47821(14)
C19 C 0.59008(15) -0.09078(14) 0.40149(12)
C20 C 0.64860(15) 0.03405(14) 0.41742(12)
N2 N 0.62639(12) 0.10204(11) 0.34662(9)
C21 C 0.68091(14) 0.22886(14) 0.36362(12)
C22 C 0.62171(15) 0.30615(14) 0.29737(12)
C23 C 0.67495(17) 0.42925(15) 0.31629(14)
C24 C 0.77957(18) 0.47491(16) 0.39685(15)
C25 C 0.83564(17) 0.39574(17) 0.46045(14)
C26 C 0.78792(16) 0.27242(16) 0.44380(13)
H6 H 0.1984(19) 0.5098(17) 0.2042(16)
H7 H 0.111(2) 0.595(2) 0.0621(17)
H8 H 0.194(2) 0.538(2) -0.1094(18)
H9 H 0.376(2) 0.391(2) -0.1325(18)
H10 H 0.5239(17) 0.2438(16) -0.0599(14)
H11 H 0.7257(19) -0.1256(18) 0.1699(15)
H12 H 0.874(2) -0.1444(19) 0.0364(16)
H13 H 0.876(2) 0.0037(18) -0.0742(16)
H14 H 0.7262(19) 0.1768(18) -0.0467(15)
H15 H 0.362(2) -0.2801(19) 0.2382(17)
H16 H 0.414(2) -0.406(2) 0.3670(17)
H17 H 0.577(2) -0.3317(19) 0.5183(17)
H18 H 0.6829(19) -0.1300(17) 0.5440(15)
H19 H 0.7065(18) 0.0667(16) 0.4840(15)
H20 H 0.636(2) 0.4849(18) 0.2725(15)
H21 H 0.811(2) 0.564(2) 0.4097(16)
H22 H 0.910(2) 0.4246(19) 0.5180(17)
H23 H 0.825(2) 0.2166(18) 0.4874(15)
C27 C 0.0116(2) 0.2473(3) 0.22097(19)
C28 C 0.1137(2) 0.2233(2) 0.30802(17)
O4 O 0.17681(13) 0.10541(13) 0.27889(11)
H24 H 0.059(3) 0.253(2) 0.155(2)
H25 H -0.031(3) 0.336(3) 0.248(2)
H26 H -0.060(3) 0.177(3) 0.206(2)
H27 H 0.184(3) 0.297(2) 0.331(2)
H28 H 0.073(3) 0.219(2) 0.371(2)
H29 H 0.259(3) 0.119(2) 0.257(2)
C29 C -0.0359(6) 0.7589(3) 0.2894(4)
H1 H 0.0094 0.7538 0.2242
H2 H -0.1342 0.7387 0.2701
H3 H 0.0047 0.6987 0.3301
C30 C -0.0181(3) 0.8813(3) 0.3523(2)
H4 H -0.0654 0.9404 0.3126
H5 H -0.0627 0.8848 0.4185
O5 O 0.11881(18) 0.9217(2) 0.38057(19)
H30 H 0.145(4) 0.976(4) 0.339(3)
loop_
_geom_bond_atom_site_label_1
_geom_bond_atom_site_label_2
_geom_bond_site_symmetry_1
_geom_bond_site_symmetry_2
B1 O1 1_555 1_555
B2 O1 1_555 1_555
O2 B1 1_555 1_555
O3 B2 1_555 1_555
C1 O2 1_555 1_555
C2 C1 1_555 1_555
C3 C2 1_555 1_555
C4 C3 1_555 1_555
C5 C4 1_555 1_555
C6 C1 1_555 1_555
C7 C6 1_555 1_555
N1 B1 1_555 1_555
C8 N1 1_555 1_555
C9 B2 1_555 1_555
C10 C9 1_555 1_555
C11 C10 1_555 1_555
C12 C11 1_555 1_555
C13 C8 1_555 1_555
C14 O3 1_555 1_555
C15 C14 1_555 1_555
C16 C15 1_555 1_555
C17 C16 1_555 1_555
C18 C17 1_555 1_555
C19 C14 1_555 1_555
C20 C19 1_555 1_555
N2 B2 1_555 1_555
C21 N2 1_555 1_555
C22 B1 1_555 1_555
C23 C22 1_555 1_555
C24 C23 1_555 1_555
C25 C24 1_555 1_555
C26 C21 1_555 1_555
C27 C28 1_555 1_555
C28 O4 1_555 1_555
O4 H29 1_555 1_555
C29 H1 1_555 1_555
H2 C29 1_555 1_555
H3 C29 1_555 1_555
C30 C29 1_555 1_555
H4 C30 1_555 1_555
H5 C30 1_555 1_555
O5 C30 1_555 1_555
H6 C2 1_555 1_555
H7 C3 1_555 1_555
H8 C4 1_555 1_555
H9 C5 1_555 1_555
H10 C7 1_555 1_555
H11 C10 1_555 1_555
H12 C11 1_555 1_555
H13 C12 1_555 1_555
H14 C13 1_555 1_555
H15 C15 1_555 1_555
H16 C16 1_555 1_555
H17 C17 1_555 1_555
H18 C18 1_555 1_555
H19 C20 1_555 1_555
H20 C23 1_555 1_555
H21 C24 1_555 1_555
H22 C25 1_555 1_555
H23 C26 1_555 1_555
H24 C27 1_555 1_555
H25 C27 1_555 1_555
H26 C27 1_555 1_555
H27 C28 1_555 1_555
H28 C28 1_555 1_555
H30 O5 1_555 1_555
C5 C6 1_555 1_555
C7 N1 1_555 1_555
C8 C9 1_555 1_555
C12 C13 1_555 1_555
C18 C19 1_555 1_555
C20 N2 1_555 1_555
C21 C22 1_555 1_555
C25 C26 1_555 1_555

#END
