
#######################################################################
#
#                 Cambridge Crystallographic Data Centre
#                                CCDC 
#
#######################################################################
#
# If this CIF has been generated from an entry in the Cambridge 
# Structural Database, then it will include bibliographic, chemical, 
# crystal, experimental, refinement or atomic coordinate data resulting 
# from the CCDC's data processing and validation procedures.
#
#######################################################################

data_RAYMAI
_chemical_formula_moiety         'C14 H16 B1 Br1 N2 O2'
_chemical_name_systematic        
3-bromo-1-methyl-5-nitro-2-(2,4,6-trimethylphenyl)-1,2-dihydro-1,2-azaborinine
_symmetry_cell_setting           monoclinic
_symmetry_space_group_name_H-M   'C 2/c'
_symmetry_Int_Tables_number      15
_space_group_name_Hall           '-C 2yn'
loop_
_symmetry_equiv_pos_site_id
_symmetry_equiv_pos_as_xyz
1 x,y,z
2 -x,y,1/2-z
3 1/2+x,1/2+y,z
4 1/2-x,1/2+y,1/2-z
5 -x,-y,-z
6 x,-y,1/2+z
7 1/2-x,1/2-y,-z
8 1/2+x,1/2-y,1/2+z
_cell_length_a                   22.097(2)
_cell_length_b                   8.6341(8)
_cell_length_c                   34.242(4)
_cell_angle_alpha                90
_cell_angle_beta                 107.183(4)
_cell_angle_gamma                90
_cell_volume                     6241.36
_exptl_crystal_colour            colorless
_exptl_crystal_description       block
_cell_formula_units_Z            16
loop_
_atom_site_label
_atom_site_type_symbol
_atom_site_fract_x
_atom_site_fract_y
_atom_site_fract_z
Br1 Br 0.12225(3) 0.30118(10) 0.41444(3)
B1 B 0.2347(3) 0.4770(7) 0.41003(16)
N1 N 0.3575(3) 0.1258(6) 0.47771(14)
N2 N 0.30258(19) 0.4849(5) 0.42154(12)
O1 O 0.4144(2) 0.1453(6) 0.48507(13)
O2 O 0.3348(3) 0.0074(6) 0.48677(19)
C1 C 0.2112(2) 0.3330(6) 0.42595(16)
C2 C 0.2490(3) 0.2245(6) 0.44735(16)
H1 H 0.2325 0.1365 0.4562
C3 C 0.3150(2) 0.2462(6) 0.45639(14)
C4 C 0.3401(2) 0.3735(6) 0.44403(15)
H2 H 0.3839 0.3845 0.4511
C5 C 0.3366(3) 0.6165(7) 0.4079(2)
H3 H 0.3812 0.6091 0.4215
H4 H 0.3210 0.7135 0.4147
H5 H 0.3293 0.6106 0.3789
C6 C 0.1929(2) 0.6066(6) 0.38352(15)
C7 C 0.1692(3) 0.5907(7) 0.34110(17)
C8 C 0.1311(3) 0.7075(10) 0.3176(2)
H6 H 0.1163 0.6963 0.2894
C9 C 0.1150(3) 0.8378(9) 0.3353(2)
C10 C 0.1370(3) 0.8517(7) 0.3773(2)
H7 H 0.1253 0.9374 0.3899
C11 C 0.1766(2) 0.7387(6) 0.40145(16)
C12 C 0.1858(4) 0.4474(10) 0.3207(2)
H8 H 0.2305 0.4460 0.3242
H9 H 0.1631 0.4490 0.2921
H10 H 0.1742 0.3565 0.3330
C13 C 0.0736(4) 0.9611(13) 0.3096(3)
H11 H 0.0873 0.9814 0.2860
H12 H 0.0767 1.0543 0.3254
H13 H 0.0304 0.9262 0.3011
C14 C 0.1995(4) 0.7607(8) 0.4471(2)
H14 H 0.1823 0.6805 0.4601
H15 H 0.1858 0.8599 0.4540
H16 H 0.2449 0.7558 0.4564
Br2 Br 0.39315(5) 0.36345(11) 0.31514(3)
B2 B 0.4352(3) 0.0982(7) 0.37154(18)
N3 N 0.5462(3) 0.3958(6) 0.46511(19)
N4 N 0.47202(17) 0.0468(4) 0.41140(12)
O3 O 0.5445(4) 0.5343(6) 0.4587(2)
O4 O 0.5773(3) 0.3363(6) 0.49702(17)
C15 C 0.4400(3) 0.2721(7) 0.36563(18)
C16 C 0.4762(3) 0.3642(6) 0.39466(19)
H17 H 0.4789 0.4699 0.3902
C17 C 0.5099(2) 0.2968(6) 0.43215(17)
C18 C 0.5079(2) 0.1439(6) 0.43987(15)
H18 H 0.5315 0.1049 0.4651
C19 C 0.4706(2) -0.1159(6) 0.42408(16)
H19 H 0.5085 -0.1388 0.4457
H20 H 0.4680 -0.1827 0.4012
H21 H 0.4343 -0.1323 0.4336
C20 C 0.3952(2) -0.0201(6) 0.33917(15)
C21 C 0.3318(2) -0.0497(6) 0.33729(15)
C22 C 0.2974(3) -0.1567(7) 0.30865(16)
H22 H 0.2556 -0.1776 0.3075
C23 C 0.3238(3) -0.2323(6) 0.28205(16)
C24 C 0.3857(3) -0.2025(7) 0.28454(17)
H23 H 0.4042 -0.2560 0.2674
C25 C 0.4220(3) -0.0947(7) 0.31188(16)
C26 C 0.4891(3) -0.0615(11) 0.3125(2)
H24 H 0.5018 -0.1339 0.2952
H25 H 0.5166 -0.0714 0.3400
H26 H 0.4918 0.0419 0.3029
C27 C 0.2844(4) -0.3458(9) 0.2511(2)
H27 H 0.3083 -0.3806 0.2335
H28 H 0.2463 -0.2959 0.2351
H29 H 0.2737 -0.4330 0.2652
C28 C 0.3008(3) 0.0308(8) 0.3653(2)
H30 H 0.2606 -0.0166 0.3629
H31 H 0.2947 0.1382 0.3579
H32 H 0.3274 0.0222 0.3930
loop_
_geom_bond_atom_site_label_1
_geom_bond_atom_site_label_2
_geom_bond_site_symmetry_1
_geom_bond_site_symmetry_2
Br1 C1 1_555 1_555
B1 N2 1_555 1_555
N1 O1 1_555 1_555
N2 C4 1_555 1_555
O2 N1 1_555 1_555
C1 B1 1_555 1_555
C2 C1 1_555 1_555
H1 C2 1_555 1_555
C3 N1 1_555 1_555
C4 C3 1_555 1_555
H2 C4 1_555 1_555
C5 N2 1_555 1_555
H3 C5 1_555 1_555
H4 C5 1_555 1_555
H5 C5 1_555 1_555
C6 B1 1_555 1_555
C7 C6 1_555 1_555
C8 C7 1_555 1_555
H6 C8 1_555 1_555
C9 C8 1_555 1_555
C10 C9 1_555 1_555
H7 C10 1_555 1_555
C11 C6 1_555 1_555
C12 C7 1_555 1_555
H8 C12 1_555 1_555
H9 C12 1_555 1_555
H10 C12 1_555 1_555
C13 C9 1_555 1_555
H11 C13 1_555 1_555
H12 C13 1_555 1_555
H13 C13 1_555 1_555
C14 C11 1_555 1_555
H14 C14 1_555 1_555
H15 C14 1_555 1_555
H16 C14 1_555 1_555
Br2 C15 1_555 1_555
B2 N4 1_555 1_555
N3 O3 1_555 1_555
N4 C18 1_555 1_555
O4 N3 1_555 1_555
C15 B2 1_555 1_555
C16 C15 1_555 1_555
H17 C16 1_555 1_555
C17 N3 1_555 1_555
C18 C17 1_555 1_555
H18 C18 1_555 1_555
C19 N4 1_555 1_555
H19 C19 1_555 1_555
H20 C19 1_555 1_555
H21 C19 1_555 1_555
C20 B2 1_555 1_555
C21 C20 1_555 1_555
C22 C21 1_555 1_555
H22 C22 1_555 1_555
C23 C22 1_555 1_555
C24 C23 1_555 1_555
H23 C24 1_555 1_555
C25 C20 1_555 1_555
C26 C25 1_555 1_555
H24 C26 1_555 1_555
H25 C26 1_555 1_555
H26 C26 1_555 1_555
C27 C23 1_555 1_555
H27 C27 1_555 1_555
H28 C27 1_555 1_555
H29 C27 1_555 1_555
C28 C21 1_555 1_555
H30 C28 1_555 1_555
H31 C28 1_555 1_555
H32 C28 1_555 1_555
C2 C3 1_555 1_555
C10 C11 1_555 1_555
C16 C17 1_555 1_555
C24 C25 1_555 1_555

#END
