
#######################################################################
#
#                 Cambridge Crystallographic Data Centre
#                                CCDC 
#
#######################################################################
#
# If this CIF has been generated from an entry in the Cambridge 
# Structural Database, then it will include bibliographic, chemical, 
# crystal, experimental, refinement or atomic coordinate data resulting 
# from the CCDC's data processing and validation procedures.
#
#######################################################################

data_RAYNIR
_chemical_formula_moiety         'C30 H40 N2 S1'
_chemical_name_systematic        
1-[2,6-bis(propan-2-yl)phenyl]-4-{[2,6-bis(propan-2-yl)phenyl]amino}-6-methylpyridine-2(1H)-thione
_symmetry_cell_setting           monoclinic
_symmetry_space_group_name_H-M   'P 21/n'
_symmetry_Int_Tables_number      14
_space_group_name_Hall           '-P 2yn'
loop_
_symmetry_equiv_pos_site_id
_symmetry_equiv_pos_as_xyz
1 x,y,z
2 1/2-x,1/2+y,1/2-z
3 -x,-y,-z
4 1/2+x,1/2-y,1/2+z
_cell_length_a                   15.054(10)
_cell_length_b                   9.028(6)
_cell_length_c                   20.224(14)
_cell_angle_alpha                90
_cell_angle_beta                 91.151(11)
_cell_angle_gamma                90
_cell_volume                     2748.04
_exptl_crystal_colour            colorless
_exptl_crystal_description       prism
_cell_formula_units_Z            4
loop_
_atom_site_label
_atom_site_type_symbol
_atom_site_fract_x
_atom_site_fract_y
_atom_site_fract_z
C1 C 0.4677(5) 0.4667(9) 0.3715(3)
C2 C 0.5164(5) 0.4044(8) 0.4226(3)
H1 H 0.4940 0.4151 0.4648
C3 C 0.5942(5) 0.3286(8) 0.4175(3)
C4 C 0.6224(5) 0.2995(8) 0.3504(4)
H2 H 0.6728 0.2426 0.3433
C5 C 0.5765(5) 0.3538(9) 0.2993(3)
C6 C 0.6063(6) 0.3218(12) 0.2301(4)
H3 H 0.6584 0.2606 0.2320
H4 H 0.6196 0.4132 0.2082
H5 H 0.5597 0.2711 0.2062
C7 C 0.4601(5) 0.5066(8) 0.2497(3)
C8 C 0.4015(5) 0.4243(10) 0.2118(4)
C9 C 0.3698(6) 0.4912(11) 0.1538(4)
H6 H 0.3317 0.4378 0.1260
C10 C 0.3921(7) 0.6283(14) 0.1367(5)
H7 H 0.3702 0.6680 0.0972
C11 C 0.4477(6) 0.7129(11) 0.1774(4)
H8 H 0.4609 0.8102 0.1661
C12 C 0.4839(5) 0.6510(10) 0.2353(4)
C13 C 0.3718(6) 0.2730(10) 0.2294(4)
H9 H 0.4124 0.2369 0.2642
C14 C 0.3727(8) 0.1588(12) 0.1738(5)
H10 H 0.4312 0.1537 0.1558
H11 H 0.3309 0.1873 0.1397
H12 H 0.3567 0.0635 0.1910
C15 C 0.2760(7) 0.2764(14) 0.2595(6)
H13 H 0.2747 0.3473 0.2948
H14 H 0.2616 0.1800 0.2763
H15 H 0.2334 0.3038 0.2257
C16 C 0.5469(7) 0.7427(11) 0.2787(5)
H16 H 0.5475 0.6978 0.3228
C17 C 0.6399(7) 0.7352(16) 0.2541(6)
H17 H 0.6581 0.6336 0.2510
H18 H 0.6791 0.7868 0.2842
H19 H 0.6423 0.7805 0.2112
C18 C 0.5145(9) 0.9015(13) 0.2863(6)
H20 H 0.5556 0.9555 0.3141
H21 H 0.4571 0.9013 0.3060
H22 H 0.5105 0.9479 0.2436
C19 C 0.7255(6) 0.2096(9) 0.4657(3)
C20 C 0.8042(6) 0.2938(10) 0.4581(4)
C21 C 0.8818(7) 0.2135(12) 0.4529(4)
H23 H 0.9348 0.2650 0.4480
C22 C 0.8848(7) 0.0620(13) 0.4547(4)
H24 H 0.9384 0.0119 0.4508
C23 C 0.8078(7) -0.0130(10) 0.4624(4)
H25 H 0.8097 -0.1160 0.4625
C24 C 0.7269(5) 0.0548(10) 0.4701(3)
C25 C 0.8022(6) 0.4619(10) 0.4564(4)
H26 H 0.7399 0.4922 0.4594
C26 C 0.8353(10) 0.5191(12) 0.3932(5)
H27 H 0.8007 0.4779 0.3573
H28 H 0.8964 0.4916 0.3886
H29 H 0.8302 0.6251 0.3925
C27 C 0.8502(9) 0.5230(12) 0.5157(5)
H30 H 0.8478 0.6293 0.5146
H31 H 0.9111 0.4913 0.5155
H32 H 0.8226 0.4878 0.5551
C28 C 0.6440(6) -0.0280(11) 0.4828(5)
H33 H 0.5947 0.0269 0.4620
C29 C 0.6411(8) -0.1881(13) 0.4554(6)
H34 H 0.6497 -0.1861 0.4085
H35 H 0.5845 -0.2318 0.4645
H36 H 0.6875 -0.2456 0.4763
C30 C 0.6273(8) -0.0335(14) 0.5575(5)
H37 H 0.6279 0.0653 0.5751
H38 H 0.6731 -0.0909 0.5791
H39 H 0.5706 -0.0783 0.5651
N1 N 0.5031(4) 0.4393(7) 0.3074(2)
N2 N 0.6429(4) 0.2817(8) 0.4687(3)
H40 H 0.6219 0.2968 0.5074
S1 S 0.37610(15) 0.5680(3) 0.37841(10)
loop_
_geom_bond_atom_site_label_1
_geom_bond_atom_site_label_2
_geom_bond_site_symmetry_1
_geom_bond_site_symmetry_2
C1 C2 1_555 1_555
C2 H1 1_555 1_555
C3 C2 1_555 1_555
C4 C3 1_555 1_555
H2 C4 1_555 1_555
C5 C4 1_555 1_555
C6 C5 1_555 1_555
H3 C6 1_555 1_555
H4 C6 1_555 1_555
H5 C6 1_555 1_555
C7 C8 1_555 1_555
C8 C9 1_555 1_555
C9 H6 1_555 1_555
C10 C9 1_555 1_555
H7 C10 1_555 1_555
C11 C10 1_555 1_555
H8 C11 1_555 1_555
C12 C7 1_555 1_555
C13 C8 1_555 1_555
H9 C13 1_555 1_555
C14 C13 1_555 1_555
H10 C14 1_555 1_555
H11 C14 1_555 1_555
H12 C14 1_555 1_555
C15 C13 1_555 1_555
H13 C15 1_555 1_555
H14 C15 1_555 1_555
H15 C15 1_555 1_555
C16 C12 1_555 1_555
H16 C16 1_555 1_555
C17 C16 1_555 1_555
H17 C17 1_555 1_555
H18 C17 1_555 1_555
H19 C17 1_555 1_555
C18 C16 1_555 1_555
H20 C18 1_555 1_555
H21 C18 1_555 1_555
H22 C18 1_555 1_555
C19 C20 1_555 1_555
C20 C21 1_555 1_555
C21 H23 1_555 1_555
C22 C21 1_555 1_555
H24 C22 1_555 1_555
C23 C22 1_555 1_555
H25 C23 1_555 1_555
C24 C19 1_555 1_555
C25 C20 1_555 1_555
H26 C25 1_555 1_555
C26 C25 1_555 1_555
H27 C26 1_555 1_555
H28 C26 1_555 1_555
H29 C26 1_555 1_555
C27 C25 1_555 1_555
H30 C27 1_555 1_555
H31 C27 1_555 1_555
H32 C27 1_555 1_555
C28 C24 1_555 1_555
H33 C28 1_555 1_555
C29 C28 1_555 1_555
H34 C29 1_555 1_555
H35 C29 1_555 1_555
H36 C29 1_555 1_555
C30 C28 1_555 1_555
H37 C30 1_555 1_555
H38 C30 1_555 1_555
H39 C30 1_555 1_555
N1 C1 1_555 1_555
N2 C3 1_555 1_555
H40 N2 1_555 1_555
S1 C1 1_555 1_555
C5 N1 1_555 1_555
C7 N1 1_555 1_555
C11 C12 1_555 1_555
C19 N2 1_555 1_555
C23 C24 1_555 1_555

#END
