
#######################################################################
#
#                 Cambridge Crystallographic Data Centre
#                                CCDC 
#
#######################################################################
#
# If this CIF has been generated from an entry in the Cambridge 
# Structural Database, then it will include bibliographic, chemical, 
# crystal, experimental, refinement or atomic coordinate data resulting 
# from the CCDC's data processing and validation procedures.
#
#######################################################################

data_RAYVOF
_chemical_name_common            
1,4-diketo-2,5-dibutyl-3,6-bis(p-chlorophenyl)pyrrolo[3,4,c]pyrrole
_chemical_formula_moiety         'C26 H26 Cl2 N2 O2'
_chemical_name_systematic        
2,5-dibutyl-3,6-bis(4-chlorophenyl)-2,5-dihydropyrrolo[3,4-c]pyrrole-1,4-dione
_symmetry_cell_setting           monoclinic
_symmetry_space_group_name_H-M   'C 2/c'
_symmetry_Int_Tables_number      15
_space_group_name_Hall           '-C 2yn'
loop_
_symmetry_equiv_pos_site_id
_symmetry_equiv_pos_as_xyz
1 x,y,z
2 -x,y,1/2-z
3 1/2+x,1/2+y,z
4 1/2-x,1/2+y,1/2-z
5 -x,-y,-z
6 x,-y,1/2+z
7 1/2-x,1/2-y,-z
8 1/2+x,1/2-y,1/2+z
_cell_length_a                   22.809(6)
_cell_length_b                   17.989(4)
_cell_length_c                   15.485(7)
_cell_angle_alpha                90
_cell_angle_beta                 131.863(3)
_cell_angle_gamma                90
_cell_volume                     4731.85
_exptl_crystal_colour            red
_exptl_crystal_description       block
_cell_formula_units_Z            8
_exptl_crystal_recrystallization_method methanol/dichloromethane
loop_
_atom_site_label
_atom_site_type_symbol
_atom_site_fract_x
_atom_site_fract_y
_atom_site_fract_z
O1 O 0.15213(10) 0.70932(10) 0.99550(16)
O2 O -0.13891(11) 0.53510(10) 0.73270(18)
C1 C 0.05213(17) 0.30524(15) 0.9035(2)
C2 C 0.10011(17) 0.34120(16) 0.8935(3)
H1 H 0.1308 0.3141 0.8851
C3 C 0.10289(16) 0.41746(15) 0.8959(2)
H2 H 0.1353 0.4420 0.8886
C4 C 0.05770(14) 0.45819(14) 0.9092(2)
C5 C 0.00766(16) 0.41994(14) 0.9153(2)
H3 H -0.0246 0.4464 0.9211
C6 C 0.00513(18) 0.34390(16) 0.9128(2)
H4 H -0.0283 0.3188 0.9174
C7 C 0.05702(14) 0.53895(14) 0.9110(2)
C8 C -0.00594(14) 0.58520(13) 0.8583(2)
C9 C 0.01932(14) 0.65983(13) 0.8812(2)
C10 C 0.10363(14) 0.65980(14) 0.9529(2)
C11 C 0.20538(17) 0.56084(19) 1.0520(3)
H5 H 0.2131 0.5225 1.0163
H6 H 0.2373 0.6031 1.0665
C12 C 0.2350(2) 0.5334(2) 1.1614(4)
H7 H 0.2001 0.4946 1.1480
H8 H 0.2863 0.5113 1.2023
C13 C 0.2417(4) 0.5890(3) 1.2323(5)
H9 H 0.1895 0.6018 1.2015
H10 H 0.2645 0.6332 1.2289
C14 C 0.2950(3) 0.5641(3) 1.3658(4)
H11 H 0.2713 0.5220 1.3703
H12 H 0.2988 0.6045 1.4097
H13 H 0.3468 0.5510 1.3968
C15 C -0.09060(15) 0.58482(14) 0.7767(2)
C16 C -0.04502(14) 0.70557(14) 0.8181(2)
C17 C -0.19172(15) 0.68250(16) 0.6969(2)
H14 H -0.2282 0.6468 0.6366
H15 H -0.2030 0.7307 0.6607
C18 C -0.20374(16) 0.68625(18) 0.7832(3)
H16 H -0.1797 0.6429 0.8331
H17 H -0.1770 0.7299 0.8316
C19 C -0.28871(18) 0.6895(2) 0.7254(3)
H18 H -0.3135 0.7313 0.6723
H19 H -0.3149 0.6445 0.6803
C20 C -0.2995(2) 0.6972(3) 0.8095(4)
H20 H -0.2802 0.6534 0.8568
H21 H -0.3545 0.7034 0.7682
H22 H -0.2709 0.7398 0.8578
C21 C -0.04723(14) 0.78642(14) 0.8137(2)
C22 C 0.00313(17) 0.82575(16) 0.9164(2)
H23 H 0.0369 0.8002 0.9864
C23 C 0.00396(19) 0.90194(17) 0.9165(3)
H24 H 0.0372 0.9280 0.9861
C24 C -0.04443(18) 0.93893(15) 0.8137(3)
C25 C -0.09323(16) 0.90167(15) 0.7101(3)
H25 H -0.1248 0.9278 0.6406
C26 C -0.09518(15) 0.82540(14) 0.7100(2)
H26 H -0.1288 0.7998 0.6401
Cl1 Cl 0.05094(6) 0.20941(4) 0.90421(9)
Cl2 Cl -0.04454(7) 1.03506(5) 0.81302(10)
N1 N 0.12355(12) 0.58351(11) 0.96871(19)
N2 N -0.11117(12) 0.66085(12) 0.75450(18)
loop_
_geom_bond_atom_site_label_1
_geom_bond_atom_site_label_2
_geom_bond_site_symmetry_1
_geom_bond_site_symmetry_2
O1 C10 1_555 1_555
O2 C15 1_555 1_555
C1 C2 1_555 1_555
C2 H1 1_555 1_555
C3 C2 1_555 1_555
H2 C3 1_555 1_555
C4 C3 1_555 1_555
C5 C4 1_555 1_555
H3 C5 1_555 1_555
C6 C1 1_555 1_555
H4 C6 1_555 1_555
C7 C4 1_555 1_555
C8 C7 1_555 1_555
C9 C8 1_555 1_555
C10 C9 1_555 1_555
C11 H5 1_555 1_555
H6 C11 1_555 1_555
C12 C11 1_555 1_555
H7 C12 1_555 1_555
H8 C12 1_555 1_555
C13 C12 1_555 1_555
H9 C13 1_555 1_555
H10 C13 1_555 1_555
C14 C13 1_555 1_555
H11 C14 1_555 1_555
H12 C14 1_555 1_555
H13 C14 1_555 1_555
C15 C8 1_555 1_555
C16 C9 1_555 1_555
C17 H14 1_555 1_555
H15 C17 1_555 1_555
C18 C17 1_555 1_555
H16 C18 1_555 1_555
H17 C18 1_555 1_555
C19 C18 1_555 1_555
H18 C19 1_555 1_555
H19 C19 1_555 1_555
C20 C19 1_555 1_555
H20 C20 1_555 1_555
H21 C20 1_555 1_555
H22 C20 1_555 1_555
C21 C16 1_555 1_555
C22 C21 1_555 1_555
H23 C22 1_555 1_555
C23 C22 1_555 1_555
H24 C23 1_555 1_555
C24 C23 1_555 1_555
C25 C24 1_555 1_555
H25 C25 1_555 1_555
C26 C21 1_555 1_555
H26 C26 1_555 1_555
Cl1 C1 1_555 1_555
Cl2 C24 1_555 1_555
N1 C7 1_555 1_555
N2 C15 1_555 1_555
C5 C6 1_555 1_555
C10 N1 1_555 1_555
C11 N1 1_555 1_555
C16 N2 1_555 1_555
C17 N2 1_555 1_555
C25 C26 1_555 1_555

#END
