
#######################################################################
#
#                 Cambridge Crystallographic Data Centre
#                                CCDC 
#
#######################################################################
#
# If this CIF has been generated from an entry in the Cambridge 
# Structural Database, then it will include bibliographic, chemical, 
# crystal, experimental, refinement or atomic coordinate data resulting 
# from the CCDC's data processing and validation procedures.
#
#######################################################################

data_RAYXUN
_chemical_name_common            'Emodin acetonitrile solvate'
_chemical_formula_moiety         'C15 H10 O5,C2 H3 N1'
_chemical_name_systematic        
'1,3,8-trihydroxy-6-methyl-9,10-anthraquinone acetonitrile solvate'
_symmetry_cell_setting           monoclinic
_symmetry_space_group_name_H-M   'P 21'
_symmetry_Int_Tables_number      4
_space_group_name_Hall           'P 2yb'
loop_
_symmetry_equiv_pos_site_id
_symmetry_equiv_pos_as_xyz
1 x,y,z
2 -x,1/2+y,-z
_cell_length_a                   3.7206(2)
_cell_length_b                   18.3471(9)
_cell_length_c                   10.1369(5)
_cell_angle_alpha                90
_cell_angle_beta                 98.126(3)
_cell_angle_gamma                90
_cell_volume                     685.02
_exptl_crystal_colour            yellow
_exptl_crystal_description       needle
_cell_formula_units_Z            2
loop_
_atom_site_label
_atom_site_type_symbol
_atom_site_fract_x
_atom_site_fract_y
_atom_site_fract_z
C1 C 0.6029(12) 0.1973(2) 0.3526(5)
C2 C 0.5957(12) 0.0603(2) 0.3508(4)
C3 C 0.3885(12) 0.1984(2) 0.2233(4)
C4 C 0.2696(9) 0.1295(4) 0.1573(3)
C5 C 0.7040(9) 0.1326(4) 0.4182(3)
C6 C 0.3936(12) 0.0596(2) 0.2254(4)
C7 C 0.2990(14) -0.0030(2) 0.1603(5)
H1 H 0.1641 -0.0018 0.0734
C8 C 0.6129(14) 0.3304(3) 0.3468(5)
H2 H 0.6888 0.3755 0.3875
C9 C 0.2968(13) 0.2655(2) 0.1581(5)
H3 H 0.1577 0.2660 0.0719
C10 C 0.4087(14) 0.3295(3) 0.2192(5)
C11 C 0.7030(13) 0.2663(3) 0.4126(5)
C12 C 0.7050(14) -0.0062(3) 0.4119(5)
C13 C 0.6033(14) -0.0716(3) 0.3473(5)
H4 H 0.6735 -0.1165 0.3901
C14 C 0.4038(14) -0.0720(3) 0.2232(5)
O1 O 0.2993(13) 0.39721(19) 0.1495(4)
H5 H 0.4451 0.4305 0.1776
O2 O 0.8924(7) 0.1300(3) 0.5336(2)
O3 O 0.9035(10) 0.2703(2) 0.5334(3)
H6 H 0.9855 0.2288 0.5561
O4 O 0.0647(7) 0.1300(3) 0.0502(2)
C15 C 0.2991(13) -0.1359(2) 0.1500(5)
H7 H 0.4923 -0.1504 0.0989
H8 H 0.0755 -0.1266 0.0888
H9 H 0.2568 -0.1752 0.2115
O5 O 0.8939(10) -0.01098(19) 0.5360(3)
H10 H 0.9035 0.0302 0.5724
N1 N 0.5461(16) 0.5360(3) 0.2133(6)
C16 C 0.5503(19) 0.5917(4) 0.1959(7)
C17 C 0.5471(14) 0.6713(3) 0.1992(5)
H11 H 0.3628 0.6896 0.1283
H12 H 0.7862 0.6898 0.1857
H13 H 0.4902 0.6878 0.2858
loop_
_geom_bond_atom_site_label_1
_geom_bond_atom_site_label_2
_geom_bond_site_symmetry_1
_geom_bond_site_symmetry_2
C1 C3 1_555 1_555
C2 C5 1_555 1_555
C3 C4 1_555 1_555
C4 C6 1_555 1_555
C5 C1 1_555 1_555
C6 C2 1_555 1_555
C7 C6 1_555 1_555
H1 C7 1_555 1_555
C8 H2 1_555 1_555
C9 C3 1_555 1_555
H3 C9 1_555 1_555
C10 C8 1_555 1_555
C11 C1 1_555 1_555
C12 C2 1_555 1_555
C13 C12 1_555 1_555
H4 C13 1_555 1_555
C14 C7 1_555 1_555
O1 C10 1_555 1_555
H5 O1 1_555 1_555
O2 C5 1_555 1_555
O3 C11 1_555 1_555
H6 O3 1_555 1_555
O4 C4 1_555 1_555
C15 C14 1_555 1_555
H7 C15 1_555 1_555
H8 C15 1_555 1_555
H9 C15 1_555 1_555
O5 C12 1_555 1_555
H10 O5 1_555 1_555
N1 C16 1_555 1_555
C16 C17 1_555 1_555
C17 H11 1_555 1_555
H12 C17 1_555 1_555
H13 C17 1_555 1_555
C8 C11 1_555 1_555
C9 C10 1_555 1_555
C13 C14 1_555 1_555

#END
