
#######################################################################
#
#                 Cambridge Crystallographic Data Centre
#                                CCDC 
#
#######################################################################
#
# If this CIF has been generated from an entry in the Cambridge 
# Structural Database, then it will include bibliographic, chemical, 
# crystal, experimental, refinement or atomic coordinate data resulting 
# from the CCDC's data processing and validation procedures.
#
#######################################################################

data_RAYXEX
_chemical_name_common            'Emodin methanol solvate'
_chemical_formula_moiety         'C15 H10 O5,C1 H4 O1'
_chemical_name_systematic        
'1,3,8-trihydroxy-6-methyl-9,10-anthraquinone methanol solvate'
_symmetry_cell_setting           monoclinic
_symmetry_space_group_name_H-M   'P 21/n'
_symmetry_Int_Tables_number      14
_space_group_name_Hall           '-P 2yn'
loop_
_symmetry_equiv_pos_site_id
_symmetry_equiv_pos_as_xyz
1 x,y,z
2 1/2-x,1/2+y,1/2-z
3 -x,-y,-z
4 1/2+x,1/2-y,1/2+z
_cell_length_a                   3.8735(5)
_cell_length_b                   15.890(2)
_cell_length_c                   21.215(3)
_cell_angle_alpha                90
_cell_angle_beta                 92.664(6)
_cell_angle_gamma                90
_cell_volume                     1304.37
_exptl_crystal_colour            yellow
_exptl_crystal_description       needle
_cell_formula_units_Z            4
loop_
_atom_site_label
_atom_site_type_symbol
_atom_site_fract_x
_atom_site_fract_y
_atom_site_fract_z
O1 O -0.4800(8) 0.78159(18) 0.25250(11)
H1 H -0.5203 0.7301 0.2571
O2 O 0.4692(8) 0.86357(15) -0.09407(12)
H2 H 0.408(13) 0.897(3) -0.062(2)
O3 O -0.0605(8) 0.97235(14) 0.10773(12)
H3 H 0.0269 0.9747 0.0723
O4 O -0.0271(7) 0.59677(14) 0.08008(11)
O5 O 0.2075(7) 0.91610(13) 0.00817(11)
C1 C -0.3276(10) 0.7942(3) 0.19661(15)
C2 C -0.2367(9) 0.7259(2) 0.15854(15)
H4 H -0.2825 0.6698 0.1712
C3 C -0.0804(9) 0.7414(2) 0.10267(14)
C4 C 0.0212(9) 0.66917(19) 0.06305(14)
C5 C 0.1799(8) 0.68719(19) 0.00236(14)
C6 C 0.2431(9) 0.77124(18) -0.01544(14)
C7 C 0.3943(9) 0.78530(19) -0.07298(15)
C8 C -0.2670(11) 0.8746(2) 0.17861(17)
H5 H -0.3311 0.9198 0.2050
C9 C -0.1148(10) 0.8918(2) 0.12301(16)
C10 C -0.0169(9) 0.82431(19) 0.08321(15)
C11 C 0.2672(9) 0.62161(19) -0.03626(15)
H6 H 0.2261 0.5654 -0.0234
C12 C 0.4153(9) 0.63634(19) -0.09411(15)
C13 C 0.5044(10) 0.5654(2) -0.13634(16)
H7 H 0.6514 0.5862 -0.1693
H8 H 0.2919 0.5415 -0.1558
H9 H 0.6283 0.5219 -0.1116
C14 C 0.4786(9) 0.7185(2) -0.11123(15)
H10 H 0.5824 0.7294 -0.1501
C15 C 0.1468(9) 0.8411(2) 0.02482(15)
O6 O 0.0420(15) 0.1285(3) 0.21326(17)
H11 H 0.0533 0.1256 0.1739
C16 C 0.2402(16) 0.0696(3) 0.2401(3)
H12 H 0.4702 0.0718 0.2228
H13 H 0.1371 0.0142 0.2316
H14 H 0.2603 0.0792 0.2857
loop_
_geom_bond_atom_site_label_1
_geom_bond_atom_site_label_2
_geom_bond_site_symmetry_1
_geom_bond_site_symmetry_2
O1 H1 1_555 1_555
O2 H2 1_555 1_555
O3 H3 1_555 1_555
O4 C4 1_555 1_555
O5 C15 1_555 1_555
C1 O1 1_555 1_555
C2 C1 1_555 1_555
H4 C2 1_555 1_555
C3 C2 1_555 1_555
C4 C3 1_555 1_555
C5 C4 1_555 1_555
C6 C5 1_555 1_555
C7 O2 1_555 1_555
C8 C1 1_555 1_555
H5 C8 1_555 1_555
C9 O3 1_555 1_555
C10 C3 1_555 1_555
C11 C5 1_555 1_555
H6 C11 1_555 1_555
C12 C11 1_555 1_555
C13 C12 1_555 1_555
H7 C13 1_555 1_555
H8 C13 1_555 1_555
H9 C13 1_555 1_555
C14 C7 1_555 1_555
H10 C14 1_555 1_555
C15 C6 1_555 1_555
O6 H11 1_555 1_555
C16 O6 1_555 1_555
H12 C16 1_555 1_555
H13 C16 1_555 1_555
H14 C16 1_555 1_555
C6 C7 1_555 1_555
C8 C9 1_555 1_555
C9 C10 1_555 1_555
C10 C15 1_555 1_555
C12 C14 1_555 1_555

#END
