
#######################################################################
#
#                 Cambridge Crystallographic Data Centre
#                                CCDC 
#
#######################################################################
#
# If this CIF has been generated from an entry in the Cambridge 
# Structural Database, then it will include bibliographic, chemical, 
# crystal, experimental, refinement or atomic coordinate data resulting 
# from the CCDC's data processing and validation procedures.
#
#######################################################################

data_RAYXUK
_chemical_formula_moiety         'C11 H8 N2 O5'
_chemical_name_systematic        3-Methoxy-7-nitro-1H-1-benzazepine-2,5-dione
_symmetry_cell_setting           triclinic
_symmetry_space_group_name_H-M   'P -1'
_symmetry_Int_Tables_number      2
_space_group_name_Hall           '-P 1'
loop_
_symmetry_equiv_pos_site_id
_symmetry_equiv_pos_as_xyz
1 x,y,z
2 -x,-y,-z
_cell_length_a                   3.880(2)
_cell_length_b                   11.865(4)
_cell_length_c                   11.956(3)
_cell_angle_alpha                87.90(2)
_cell_angle_beta                 89.26(4)
_cell_angle_gamma                84.09(5)
_cell_volume                     547.092
_exptl_crystal_colour            colorless
_chemical_melting_point          252-253deg.C
_cell_formula_units_Z            2
loop_
_atom_site_label
_atom_site_type_symbol
_atom_site_fract_x
_atom_site_fract_y
_atom_site_fract_z
O1 O 0.3021(12) 0.0543(3) 0.3649(3)
O2 O -0.0294(10) 0.2408(3) 0.6893(3)
O3 O -0.4073(10) 0.4020(3) 0.5995(3)
O4 O 0.4601(15) 0.3552(5) -0.0523(4)
O5 O 0.6438(14) 0.1888(4) 0.0108(4)
N1 N -0.1746(11) 0.3890(3) 0.4288(4)
N2 N 0.4857(16) 0.2816(5) 0.0213(5)
C1 C 0.1736(13) 0.2462(4) 0.3166(4)
C2 C 0.3252(14) 0.2250(5) 0.2127(5)
C3 C 0.3173(16) 0.3075(6) 0.1304(5)
C4 C 0.1581(17) 0.4150(5) 0.1462(5)
C5 C 0.0045(15) 0.4373(4) 0.2462(5)
C6 C 0.0062(14) 0.3548(4) 0.3336(4)
C7 C 0.2090(14) 0.1493(5) 0.3983(5)
C8 C 0.1627(14) 0.1593(4) 0.5181(5)
C9 C 0.0001(14) 0.2426(4) 0.5776(5)
C10 C -0.2115(14) 0.3489(4) 0.5349(5)
C11 C 0.1543(16) 0.1484(5) 0.7533(5)
H1 H -0.3090 0.4598 0.4163
H2 H 0.4364 0.1516 0.1988
H3 H 0.1562 0.4721 0.0882
H4 H -0.1079 0.5110 0.2578
H5 H 0.2645 0.0963 0.5616
H6 H 0.0887 0.1620 0.8409
H7 H 0.1413 0.0709 0.7387
H8 H 0.4270 0.1395 0.7247
loop_
_geom_bond_atom_site_label_1
_geom_bond_atom_site_label_2
_geom_bond_site_symmetry_1
_geom_bond_site_symmetry_2
O1 C7 1_555 1_555
O2 C9 1_555 1_555
O3 C10 1_555 1_555
O4 N2 1_555 1_555
O5 N2 1_555 1_555
N1 C6 1_555 1_555
N2 C3 1_555 1_555
C1 C2 1_555 1_555
C2 C3 1_555 1_555
C3 C4 1_555 1_555
C4 C5 1_555 1_555
C5 C6 1_555 1_555
C6 C1 1_555 1_555
C7 C1 1_555 1_555
C8 C7 1_555 1_555
C9 C8 1_555 1_555
C10 N1 1_555 1_555
C11 O2 1_555 1_555
H1 N1 1_555 1_555
H2 C2 1_555 1_555
H3 C4 1_555 1_555
H4 C5 1_555 1_555
H5 C8 1_555 1_555
H6 C11 1_555 1_555
H7 C11 1_555 1_555
H8 C11 1_555 1_555
C9 C10 1_555 1_555

#END
