
#######################################################################
#
#                 Cambridge Crystallographic Data Centre
#                                CCDC 
#
#######################################################################
#
# If this CIF has been generated from an entry in the Cambridge 
# Structural Database, then it will include bibliographic, chemical, 
# crystal, experimental, refinement or atomic coordinate data resulting 
# from the CCDC's data processing and validation procedures.
#
#######################################################################

data_RAYYAR
_chemical_formula_moiety         'C11 H9 N1 O3,0.5(H2 O1)'
_chemical_name_systematic        
'3-Hydroxy-9-methyl-1H-1-benzazepine-2,5-dione hemihydrate'
_symmetry_cell_setting           monoclinic
_symmetry_space_group_name_H-M   'C 2/c'
_symmetry_Int_Tables_number      15
_space_group_name_Hall           '-C 2yn'
loop_
_symmetry_equiv_pos_site_id
_symmetry_equiv_pos_as_xyz
1 x,y,z
2 -x,y,1/2-z
3 1/2+x,1/2+y,z
4 1/2-x,1/2+y,1/2-z
5 -x,-y,-z
6 x,-y,1/2+z
7 1/2-x,1/2-y,-z
8 1/2+x,1/2-y,1/2+z
_cell_length_a                   21.298(4)
_cell_length_b                   7.233(3)
_cell_length_c                   15.095(2)
_cell_angle_alpha                90
_cell_angle_beta                 124.40(3)
_cell_angle_gamma                90
_cell_volume                     1918.69
_exptl_crystal_colour            brown
_chemical_melting_point          184-186deg.C(dec.)
_cell_formula_units_Z            8
loop_
_atom_site_label
_atom_site_type_symbol
_atom_site_fract_x
_atom_site_fract_y
_atom_site_fract_z
O1 O 0.3257(2) 0.1496(7) 0.5369(3)
O2 O 0.4445(2) 0.0742(7) 0.5420(3)
O3 O 0.3577(3) 0.2143(7) 0.1963(4)
N1 N 0.2446(3) 0.1759(8) 0.3586(4)
C1 C 0.1310(3) 0.1499(11) 0.1841(5)
C2 C 0.0932(4) 0.1414(12) 0.0744(5)
C3 C 0.1307(4) 0.1396(12) 0.0248(5)
C4 C 0.2077(4) 0.1480(11) 0.0856(5)
C5 C 0.2504(3) 0.1631(9) 0.1985(4)
C6 C 0.2111(3) 0.1595(9) 0.2481(4)
C7 C 0.3149(3) 0.1468(10) 0.4483(5)
C8 C 0.3816(3) 0.1122(10) 0.4445(5)
C9 C 0.3884(3) 0.1281(10) 0.3620(5)
C10 C 0.3335(4) 0.1747(10) 0.2521(5)
C11 C 0.0859(3) 0.1475(11) 0.2327(5)
H1 H 0.4189 0.0003 0.5907
H2 H 0.0336 0.1297 0.1778
H3 H 0.0923 0.2619 0.2679
H4 H 0.1034 0.0495 0.2833
H6 H 0.2095 0.2173 0.3743
H7 H 0.0392 0.1368 0.0315
H8 H 0.1030 0.1324 -0.0512
H9 H 0.2338 0.1437 0.0512
H10 H 0.4380 0.1043 0.3794
O4 O 0.5000 0.0665(10) 0.2500
H5 H 0.4510 0.1632 0.2446
H5A H 0.5490 0.1632 0.2554
loop_
_geom_bond_atom_site_label_1
_geom_bond_atom_site_label_2
_geom_bond_site_symmetry_1
_geom_bond_site_symmetry_2
O1 C7 1_555 1_555
O2 C8 1_555 1_555
O3 C10 1_555 1_555
O4 H5 1_555 1_555
N1 C6 1_555 1_555
C1 C2 1_555 1_555
C2 C3 1_555 1_555
C3 C4 1_555 1_555
C4 C5 1_555 1_555
C5 C6 1_555 1_555
C6 C1 1_555 1_555
C7 N1 1_555 1_555
C8 C7 1_555 1_555
C9 C8 1_555 1_555
C10 C5 1_555 1_555
C11 C1 1_555 1_555
H1 O2 1_555 1_555
H2 C11 1_555 1_555
H3 C11 1_555 1_555
H4 C11 1_555 1_555
H6 N1 1_555 1_555
H7 C2 1_555 1_555
H8 C3 1_555 1_555
H9 C4 1_555 1_555
H10 C9 1_555 1_555
H5A O4 1_555 1_555
C9 C10 1_555 1_555

#END
