
#######################################################################
#
#                 Cambridge Crystallographic Data Centre
#                                CCDC 
#
#######################################################################
#
# If this CIF has been generated from an entry in the Cambridge 
# Structural Database, then it will include bibliographic, chemical, 
# crystal, experimental, refinement or atomic coordinate data resulting 
# from the CCDC's data processing and validation procedures.
#
#######################################################################

data_RAZLIO
_chemical_formula_moiety         'C23 H24 F1 N4 O2 1+,Cl1 1-,2(H2 O1)'
_chemical_name_systematic        
'(+-)-(3aS,4R,8aS,8bR)-4-(2-(2-fluorobenzyl)-1,3-dioxodecahydropyrrolo[3,4-a]pyrrolizin-4-yl)benzamidine hydrochloride dihydrate'
_chemical_properties_biological  'inhibitory activity against thrombin'
_symmetry_cell_setting           monoclinic
_symmetry_space_group_name_H-M   'P 21/c'
_symmetry_Int_Tables_number      14
_space_group_name_Hall           '-P 2ybc'
loop_
_symmetry_equiv_pos_site_id
_symmetry_equiv_pos_as_xyz
1 x,y,z
2 -x,1/2+y,1/2-z
3 -x,-y,-z
4 x,1/2-y,1/2+z
_cell_length_a                   15.9963(6)
_cell_length_b                   14.4021(5)
_cell_length_c                   10.0665(3)
_cell_angle_alpha                90
_cell_angle_beta                 90.945(1)
_cell_angle_gamma                90
_cell_volume                     2318.81
_exptl_crystal_colour            colorless
_cell_formula_units_Z            4
loop_
_atom_site_label
_atom_site_type_symbol
_atom_site_fract_x
_atom_site_fract_y
_atom_site_fract_z
C1 C 0.3791(3) 1.1037(3) 0.6321(4)
N1 N 0.3369(3) 1.1418(2) 0.7401(3)
C2 C 0.2531(3) 1.1201(3) 0.7394(3)
C3 C 0.2357(3) 1.0549(2) 0.6264(3)
H1 H 0.1902 1.0793 0.5684
C4 C 0.3176(3) 1.0492(2) 0.5501(3)
H2 H 0.3111 1.0758 0.4599
O1 O 0.4523(3) 1.1155(3) 0.6117(3)
O2 O 0.2037(2) 1.1515(2) 0.8170(2)
C5 C 0.3782(4) 1.2061(3) 0.8360(4)
H3 H 0.3380 1.2538 0.8621
H4 H 0.4246 1.2373 0.7921
C6 C 0.4110(3) 1.1578(3) 0.9588(4)
C7 C 0.3579(3) 1.1200(3) 1.0528(4)
H5 H 0.3000 1.1247 1.0369
C8 C 0.3846(4) 1.0759(4) 1.1681(5)
H6 H 0.3447 1.0527 1.2270
C9 C 0.4630(4) 1.0659(5) 1.1966(7)
H7 H 0.4793 1.0348 1.2749
C10 C 0.5211(4) 1.0994(6) 1.1156(8)
H8 H 0.5782 1.0935 1.1371
C11 C 0.4938(4) 1.1456(6) 0.9928(7)
F1 F 0.5495(3) 1.1743(7) 0.9092(6)
C12 C 0.2170(2) 0.9534(2) 0.6680(3)
H9 H 0.1799 0.9253 0.5993
N2 N 0.29896(17) 0.90757(19) 0.6621(2)
C13 C 0.2903(3) 0.8080(3) 0.6330(3)
H10 H 0.2431 0.7817 0.6812
H11 H 0.3413 0.7746 0.6597
C14 C 0.2751(4) 0.7998(3) 0.4804(4)
H12 H 0.3066 0.7476 0.4440
H13 H 0.2156 0.7907 0.4599
C15 C 0.3057(3) 0.8917(3) 0.4236(3)
H14 H 0.2596 0.9255 0.3804
H15 H 0.3496 0.8811 0.3585
C16 C 0.3404(2) 0.9465(2) 0.5443(3)
H16 H 0.4018 0.9385 0.5523
C17 C 0.1778(2) 0.9382(2) 0.8023(3)
C18 C 0.2252(2) 0.9472(3) 0.9193(3)
H17 H 0.2820 0.9632 0.9150
C19 C 0.1890(2) 0.9328(2) 1.0415(3)
H18 H 0.2213 0.9394 1.1197
C20 C 0.1056(2) 0.9087(2) 1.0492(3)
C21 C 0.0579(2) 0.8991(3) 0.9327(3)
H19 H 0.0013 0.8817 0.9369
C22 C 0.0941(2) 0.9152(3) 0.8110(3)
H20 H 0.0613 0.9105 0.7330
C23 C 0.0665(2) 0.8930(3) 1.1794(3)
N3 N 0.08658(19) 0.9469(2) 1.2797(3)
H21 H 0.0642 0.9379 1.3568
H22 H 0.1223 0.9918 1.2692
N4 N 0.0130(2) 0.8251(3) 1.1929(3)
H23 H -0.0098 0.8152 1.2694
H24 H 0.0003 0.7898 1.1254
Cl1 Cl -0.02813(6) 0.85324(7) 1.50591(8)
O3 O -0.1701(3) 0.7184(3) 1.4359(3)
O4 O -0.17874(19) 0.8883(2) 1.7121(3)
loop_
_geom_bond_atom_site_label_1
_geom_bond_atom_site_label_2
_geom_bond_site_symmetry_1
_geom_bond_site_symmetry_2
C1 N1 1_555 1_555
N1 C2 1_555 1_555
C2 C3 1_555 1_555
C3 H1 1_555 1_555
C4 C1 1_555 1_555
H2 C4 1_555 1_555
O1 C1 1_555 1_555
O2 C2 1_555 1_555
C5 N1 1_555 1_555
H3 C5 1_555 1_555
H4 C5 1_555 1_555
C6 C5 1_555 1_555
C7 C6 1_555 1_555
H5 C7 1_555 1_555
C8 C7 1_555 1_555
H6 C8 1_555 1_555
C9 C8 1_555 1_555
H7 C9 1_555 1_555
C10 C9 1_555 1_555
H8 C10 1_555 1_555
C11 C6 1_555 1_555
F1 C11 1_555 1_555
C12 C3 1_555 1_555
H9 C12 1_555 1_555
N2 C12 1_555 1_555
C13 N2 1_555 1_555
H10 C13 1_555 1_555
H11 C13 1_555 1_555
C14 C13 1_555 1_555
H12 C14 1_555 1_555
H13 C14 1_555 1_555
C15 C14 1_555 1_555
H14 C15 1_555 1_555
H15 C15 1_555 1_555
C16 C4 1_555 1_555
H16 C16 1_555 1_555
C17 C12 1_555 1_555
C18 C17 1_555 1_555
H17 C18 1_555 1_555
C19 C18 1_555 1_555
H18 C19 1_555 1_555
C20 C19 1_555 1_555
C21 C20 1_555 1_555
H19 C21 1_555 1_555
C22 C17 1_555 1_555
H20 C22 1_555 1_555
C23 C20 1_555 1_555
N3 C23 1_555 1_555
H21 N3 1_555 1_555
H22 N3 1_555 1_555
N4 C23 1_555 1_555
H23 N4 1_555 1_555
H24 N4 1_555 1_555
C3 C4 1_555 1_555
C10 C11 1_555 1_555
N2 C16 1_555 1_555
C15 C16 1_555 1_555
C21 C22 1_555 1_555

#END
