
#######################################################################
#
#                 Cambridge Crystallographic Data Centre
#                                CCDC 
#
#######################################################################
#
# If this CIF has been generated from an entry in the Cambridge 
# Structural Database, then it will include bibliographic, chemical, 
# crystal, experimental, refinement or atomic coordinate data resulting 
# from the CCDC's data processing and validation procedures.
#
#######################################################################

data_RAZLEK
_chemical_formula_moiety         'C11 H8 F1 N1 O2'
_chemical_name_systematic        N-(4-fluorobenzyl)maleimide
_symmetry_cell_setting           triclinic
_symmetry_space_group_name_H-M   'P -1'
_symmetry_Int_Tables_number      2
_space_group_name_Hall           '-P 1'
loop_
_symmetry_equiv_pos_site_id
_symmetry_equiv_pos_as_xyz
1 x,y,z
2 -x,-y,-z
_cell_length_a                   10.4112(2)
_cell_length_b                   11.4529(3)
_cell_length_c                   12.6696(3)
_cell_angle_alpha                72.734(1)
_cell_angle_beta                 78.112(1)
_cell_angle_gamma                89.319(1)
_cell_volume                     1409.72
_exptl_crystal_colour            colorless
_cell_formula_units_Z            6
loop_
_atom_site_label
_atom_site_type_symbol
_atom_site_fract_x
_atom_site_fract_y
_atom_site_fract_z
N1 N 0.82467(10) 0.78604(10) -0.08825(9)
C1 C 0.88170(12) 0.67292(11) -0.06133(10)
C2 C 0.98247(13) 0.68527(12) 0.00431(11)
H1 H 1.0379 0.6231 0.0340
C3 C 0.98135(13) 0.79775(12) 0.01408(11)
H2 H 1.0357 0.8293 0.0520
C4 C 0.88004(12) 0.86629(12) -0.04472(11)
O1 O 0.84983(10) 0.97137(8) -0.05501(8)
O2 O 0.85199(9) 0.58558(8) -0.08797(8)
C5 C 0.72064(12) 0.81462(12) -0.15262(10)
H3 H 0.7354 0.7721 -0.2113
H4 H 0.7256 0.9038 -0.1915
C6 C 0.58490(12) 0.77714(11) -0.07892(10)
C7 C 0.51345(13) 0.67687(12) -0.08241(11)
H5 H 0.5505 0.6314 -0.1319
C8 C 0.38860(14) 0.64233(12) -0.01446(12)
H6 H 0.3397 0.5739 -0.0166
C9 C 0.33828(12) 0.71073(12) 0.05602(11)
C10 C 0.40473(13) 0.81113(12) 0.06185(11)
H7 H 0.3665 0.8566 0.1110
C11 C 0.52948(13) 0.84389(11) -0.00653(11)
H8 H 0.5776 0.9126 -0.0039
F1 F 0.21702(8) 0.67730(8) 0.12471(7)
N2 N 0.82829(10) 1.01417(10) -0.74820(9)
C12 C 0.88172(13) 0.90090(12) -0.71234(11)
C13 C 0.98807(13) 0.92016(12) -0.65485(11)
H9 H 1.0428 0.8591 -0.6220
C14 C 0.99311(12) 1.03700(12) -0.65741(10)
H10 H 1.0517 1.0733 -0.6264
C15 C 0.89079(12) 1.10153(11) -0.71751(10)
O3 O 0.86571(9) 1.20861(8) -0.73885(8)
O4 O 0.84521(10) 0.80777(9) -0.72667(9)
C16 C 0.72095(13) 1.03767(12) -0.80901(11)
H11 H 0.7316 0.9891 -0.8629
H12 H 0.7264 1.1253 -0.8533
C17 C 0.58682(12) 1.00580(11) -0.73099(10)
C18 C 0.51899(13) 0.89596(12) -0.71487(11)
H13 H 0.5580 0.8396 -0.7523
C19 C 0.39427(13) 0.86741(13) -0.64435(11)
H14 H 0.3472 0.7928 -0.6336
C20 C 0.34210(13) 0.95091(13) -0.59099(11)
C21 C 0.40547(14) 1.06075(13) -0.60433(11)
H15 H 0.3661 1.1162 -0.5660
C22 C 0.52876(13) 1.08780(12) -0.67568(11)
H16 H 0.5743 1.1634 -0.6870
F2 F 0.22078(8) 0.92341(9) -0.52142(7)
N3 N 0.82594(10) 0.54288(10) -0.41737(9)
C23 C 0.88663(12) 0.43324(11) -0.38411(11)
C24 C 0.99114(12) 0.45753(12) -0.32669(11)
H17 H 1.0495 0.3996 -0.2952
C25 C 0.98847(12) 0.57386(12) -0.32726(11)
H18 H 1.0448 0.6130 -0.2964
C26 C 0.88181(12) 0.63257(11) -0.38465(11)
O5 O 0.84712(10) 0.73685(8) -0.40163(8)
O6 O 0.85748(9) 0.33903(8) -0.40072(8)
C27 C 0.71699(12) 0.56120(12) -0.47568(11)
H19 H 0.7194 0.5007 -0.5178
H20 H 0.7283 0.6439 -0.5314
C28 C 0.58415(12) 0.54858(11) -0.39638(10)
C29 C 0.55189(13) 0.45069(12) -0.29752(11)
H21 H 0.6152 0.3920 -0.2786
C30 C 0.42897(14) 0.43749(13) -0.22626(12)
H22 H 0.4076 0.3709 -0.1586
C31 C 0.33857(12) 0.52343(12) -0.25605(11)
C32 C 0.36580(13) 0.62154(12) -0.35292(11)
H23 H 0.3017 0.6794 -0.3715
C33 C 0.49009(13) 0.63345(12) -0.42278(11)
H24 H 0.5111 0.7008 -0.4898
F3 F 0.21789(8) 0.51037(8) -0.18641(7)
loop_
_geom_bond_atom_site_label_1
_geom_bond_atom_site_label_2
_geom_bond_site_symmetry_1
_geom_bond_site_symmetry_2
N1 C1 1_555 1_555
C1 C2 1_555 1_555
C2 H1 1_555 1_555
C3 C2 1_555 1_555
H2 C3 1_555 1_555
C4 N1 1_555 1_555
O1 C4 1_555 1_555
O2 C1 1_555 1_555
C5 N1 1_555 1_555
H3 C5 1_555 1_555
H4 C5 1_555 1_555
C6 C5 1_555 1_555
C7 C6 1_555 1_555
H5 C7 1_555 1_555
C8 C7 1_555 1_555
H6 C8 1_555 1_555
C9 C8 1_555 1_555
C10 C9 1_555 1_555
H7 C10 1_555 1_555
C11 C6 1_555 1_555
H8 C11 1_555 1_555
F1 C9 1_555 1_555
N2 C12 1_555 1_555
C12 C13 1_555 1_555
C13 H9 1_555 1_555
C14 C13 1_555 1_555
H10 C14 1_555 1_555
C15 N2 1_555 1_555
O3 C15 1_555 1_555
O4 C12 1_555 1_555
C16 N2 1_555 1_555
H11 C16 1_555 1_555
H12 C16 1_555 1_555
C17 C16 1_555 1_555
C18 C17 1_555 1_555
H13 C18 1_555 1_555
C19 C18 1_555 1_555
H14 C19 1_555 1_555
C20 C19 1_555 1_555
C21 C20 1_555 1_555
H15 C21 1_555 1_555
C22 C17 1_555 1_555
H16 C22 1_555 1_555
F2 C20 1_555 1_555
N3 C23 1_555 1_555
C23 C24 1_555 1_555
C24 H17 1_555 1_555
C25 C24 1_555 1_555
H18 C25 1_555 1_555
C26 N3 1_555 1_555
O5 C26 1_555 1_555
O6 C23 1_555 1_555
C27 N3 1_555 1_555
H19 C27 1_555 1_555
H20 C27 1_555 1_555
C28 C27 1_555 1_555
C29 C28 1_555 1_555
H21 C29 1_555 1_555
C30 C29 1_555 1_555
H22 C30 1_555 1_555
C31 C30 1_555 1_555
C32 C31 1_555 1_555
H23 C32 1_555 1_555
C33 C28 1_555 1_555
H24 C33 1_555 1_555
F3 C31 1_555 1_555
C3 C4 1_555 1_555
C10 C11 1_555 1_555
C14 C15 1_555 1_555
C21 C22 1_555 1_555
C25 C26 1_555 1_555
C32 C33 1_555 1_555

#END
