
#######################################################################
#
#                 Cambridge Crystallographic Data Centre
#                                CCDC 
#
#######################################################################
#
# If this CIF has been generated from an entry in the Cambridge 
# Structural Database, then it will include bibliographic, chemical, 
# crystal, experimental, refinement or atomic coordinate data resulting 
# from the CCDC's data processing and validation procedures.
#
#######################################################################

data_RAZMUC
_chemical_formula_moiety         'C40 H24 O8 S4,H2 O1'
_chemical_name_systematic        
'5,17-Diformyl-26,28-dihydroxy-2,8,14,20-tetrathiacalix(4)arene-25,27-diyl dibenzoate monohydrate'
_symmetry_cell_setting           rhombohedral
_symmetry_space_group_name_H-M   'R -3'
_symmetry_Int_Tables_number      148
_space_group_name_Hall           '-R 3'
loop_
_symmetry_equiv_pos_site_id
_symmetry_equiv_pos_as_xyz
1 x,y,z
2 -y,x-y,z
3 -x+y,-x,z
4 2/3+x,1/3+y,1/3+z
5 2/3-y,1/3+x-y,1/3+z
6 2/3-x+y,1/3-x,1/3+z
7 1/3+x,2/3+y,2/3+z
8 1/3-y,2/3+x-y,2/3+z
9 1/3-x+y,2/3-x,2/3+z
10 -x,-y,-z
11 y,-x+y,-z
12 x-y,x,-z
13 1/3-x,2/3-y,2/3-z
14 1/3+y,2/3-x+y,2/3-z
15 1/3+x-y,2/3+x,2/3-z
16 2/3-x,1/3-y,1/3-z
17 2/3+y,1/3-x+y,1/3-z
18 2/3+x-y,1/3+x,1/3-z
_cell_length_a                   25.766(4)
_cell_length_b                   25.766(4)
_cell_length_c                   29.978(6)
_cell_angle_alpha                90
_cell_angle_beta                 90
_cell_angle_gamma                120
_cell_volume                     17235.6
_exptl_crystal_colour            colorless
_exptl_crystal_description       block
_cell_formula_units_Z            18
loop_
_atom_site_label
_atom_site_type_symbol
_atom_site_fract_x
_atom_site_fract_y
_atom_site_fract_z
S1 S 0.57844(5) 0.06211(5) 0.03523(4)
S2 S 0.74698(6) 0.14230(6) -0.09661(4)
S3 S 0.85839(5) 0.04045(5) -0.00321(4)
S4 S 0.68112(5) -0.05104(5) 0.12399(4)
O1 O 0.67463(14) 0.15189(13) -0.02541(10)
O2 O 0.72706(16) 0.15336(15) 0.03314(12)
O3 O 0.77761(13) 0.09538(14) -0.01841(9)
H1 H 0.7960 0.0961 0.0041
O4 O 0.8994(2) 0.1161(3) -0.20499(16)
O5 O 0.80614(14) 0.02007(14) 0.08974(10)
O6 O 0.80632(15) 0.10269(15) 0.06759(11)
O7 O 0.67759(12) 0.04189(13) 0.06984(10)
H2 H 0.6757 0.0670 0.0542
O8 O 0.4068(2) -0.1298(2) 0.12625(17)
C1 C 0.65484(17) 0.09310(18) -0.03612(12)
C2 C 0.68136(19) 0.0815(2) -0.07283(13)
C3 C 0.6584(2) 0.0237(2) -0.08725(15)
H3 H 0.6748 0.0154 -0.1120
C4 C 0.6111(2) -0.0219(2) -0.06519(17)
H4 H 0.5955 -0.0610 -0.0755
C5 C 0.58636(19) -0.0119(2) -0.02877(16)
H5 H 0.5549 -0.0439 -0.0140
C6 C 0.60806(17) 0.04658(18) -0.01323(12)
C7 C 0.7170(2) 0.1795(2) 0.00462(17)
C8 C 0.7493(2) 0.2465(2) -0.00054(19)
C9 C 0.7419(3) 0.2717(3) -0.0362(2)
H6 H 0.7158 0.2482 -0.0586
C10 C 0.7743(4) 0.3356(4) -0.0404(3)
H7 H 0.7677 0.3545 -0.0643
C11 C 0.8136(4) 0.3666(3) -0.0093(4)
H8 H 0.8368 0.4077 -0.0136
C12 C 0.8233(3) 0.3442(3) 0.0279(3)
H9 H 0.8497 0.3687 0.0499
C13 C 0.7895(3) 0.2785(3) 0.0320(2)
H10 H 0.7956 0.2594 0.0561
C14 C 0.80600(18) 0.09124(17) -0.05448(12)
C15 C 0.79488(18) 0.11183(19) -0.09489(12)
C16 C 0.82564(19) 0.1123(2) -0.13325(14)
H11 H 0.8185 0.1257 -0.1601
C17 C 0.8664(2) 0.0931(2) -0.13121(15)
C18 C 0.87490(19) 0.0693(2) -0.09165(15)
H12 H 0.9012 0.0545 -0.0911
C19 C 0.84409(19) 0.0680(2) -0.05349(13)
C20 C 0.9014(3) 0.0953(3) -0.17087(18)
H13 H 0.9264 0.0791 -0.1686
C21 C 0.76456(19) -0.01511(17) 0.05647(13)
C22 C 0.78424(18) -0.01335(17) 0.01288(13)
C23 C 0.7435(2) -0.0536(2) -0.01738(15)
H14 H 0.7554 -0.0535 -0.0467
C24 C 0.6851(2) -0.0941(2) -0.00462(16)
H15 H 0.6584 -0.1211 -0.0253
C25 C 0.6666(2) -0.09445(18) 0.03802(15)
H16 H 0.6276 -0.1218 0.0465
C26 C 0.70706(18) -0.05327(17) 0.06909(13)
C27 C 0.8228(2) 0.0774(2) 0.09234(14)
C28 C 0.86849(18) 0.1089(2) 0.12823(13)
C29 C 0.8889(2) 0.1707(3) 0.13359(17)
H17 H 0.8736 0.1893 0.1157
C30 C 0.9329(3) 0.2042(3) 0.16654(19)
H18 H 0.9470 0.2448 0.1711
C31 C 0.9537(3) 0.1727(4) 0.1915(2)
H19 H 0.9828 0.1935 0.2131
C32 C 0.9341(4) 0.1142(4) 0.1863(3)
H20 H 0.9500 0.0956 0.2037
C33 C 0.8901(3) 0.0813(3) 0.15485(19)
H21 H 0.8755 0.0404 0.1520
C34 C 0.62318(17) 0.00144(16) 0.08281(13)
C35 C 0.61679(18) -0.04592(18) 0.10929(12)
C36 C 0.5608(2) -0.0880(2) 0.12542(15)
H22 H 0.5572 -0.1189 0.1436
C37 C 0.51018(19) -0.0845(2) 0.11479(14)
C38 C 0.51609(18) -0.03827(19) 0.08705(13)
H23 H 0.4824 -0.0357 0.0796
C39 C 0.57158(19) 0.00362(18) 0.07057(13)
C40 C 0.4537(3) -0.1284(3) 0.13299(18)
H24 H 0.4531 -0.1579 0.1512
O9 O 0.95298(12) 0.02526(12) 0.07432(16)
loop_
_geom_bond_atom_site_label_1
_geom_bond_atom_site_label_2
_geom_bond_site_symmetry_1
_geom_bond_site_symmetry_2
S1 C6 1_555 1_555
S2 C2 1_555 1_555
S3 C19 1_555 1_555
S4 C26 1_555 1_555
O1 C1 1_555 1_555
O2 C7 1_555 1_555
O3 H1 1_555 1_555
O4 C20 1_555 1_555
O5 C21 1_555 1_555
O6 C27 1_555 1_555
O7 H2 1_555 1_555
O8 C40 1_555 1_555
C1 C2 1_555 1_555
C2 C3 1_555 1_555
C3 H3 1_555 1_555
C4 C3 1_555 1_555
H4 C4 1_555 1_555
C5 C4 1_555 1_555
H5 C5 1_555 1_555
C6 C1 1_555 1_555
C7 O1 1_555 1_555
C8 C7 1_555 1_555
C9 C8 1_555 1_555
H6 C9 1_555 1_555
C10 C9 1_555 1_555
H7 C10 1_555 1_555
C11 C10 1_555 1_555
H8 C11 1_555 1_555
C12 C11 1_555 1_555
H9 C12 1_555 1_555
C13 C8 1_555 1_555
H10 C13 1_555 1_555
C14 O3 1_555 1_555
C15 S2 1_555 1_555
C16 C15 1_555 1_555
H11 C16 1_555 1_555
C17 C16 1_555 1_555
C18 C17 1_555 1_555
H12 C18 1_555 1_555
C19 C14 1_555 1_555
C20 C17 1_555 1_555
H13 C20 1_555 1_555
C21 C22 1_555 1_555
C22 S3 1_555 1_555
C23 C22 1_555 1_555
H14 C23 1_555 1_555
C24 C23 1_555 1_555
H15 C24 1_555 1_555
C25 C24 1_555 1_555
H16 C25 1_555 1_555
C26 C21 1_555 1_555
C27 O5 1_555 1_555
C28 C27 1_555 1_555
C29 C28 1_555 1_555
H17 C29 1_555 1_555
C30 C29 1_555 1_555
H18 C30 1_555 1_555
C31 C30 1_555 1_555
H19 C31 1_555 1_555
C32 C31 1_555 1_555
H20 C32 1_555 1_555
C33 C28 1_555 1_555
H21 C33 1_555 1_555
C34 O7 1_555 1_555
C35 S4 1_555 1_555
C36 C35 1_555 1_555
H22 C36 1_555 1_555
C37 C36 1_555 1_555
C38 C37 1_555 1_555
H23 C38 1_555 1_555
C39 S1 1_555 1_555
C40 C37 1_555 1_555
H24 C40 1_555 1_555
C5 C6 1_555 1_555
C12 C13 1_555 1_555
C14 C15 1_555 1_555
C18 C19 1_555 1_555
C25 C26 1_555 1_555
C32 C33 1_555 1_555
C34 C35 1_555 1_555
C34 C39 1_555 1_555
C38 C39 1_555 1_555

#END
