
#######################################################################
#
#                 Cambridge Crystallographic Data Centre
#                                CCDC 
#
#######################################################################
#
# If this CIF has been generated from an entry in the Cambridge 
# Structural Database, then it will include bibliographic, chemical, 
# crystal, experimental, refinement or atomic coordinate data resulting 
# from the CCDC's data processing and validation procedures.
#
#######################################################################

data_RAZSER
_chemical_formula_moiety         'C14 H12 O8'
_chemical_name_systematic        
"dimethyl 2,6-dioxo-2H,4bH-pyrano(2',3':3,4)cyclobuta(1,2-b)pyran-4a,8a(6H,8bH)-dicarboxylate"
_symmetry_cell_setting           monoclinic
_symmetry_space_group_name_H-M   'P 21/c'
_symmetry_Int_Tables_number      14
_space_group_name_Hall           '-P 2ybc'
loop_
_symmetry_equiv_pos_site_id
_symmetry_equiv_pos_as_xyz
1 x,y,z
2 -x,1/2+y,1/2-z
3 -x,-y,-z
4 x,1/2-y,1/2+z
_cell_length_a                   6.8704(2)
_cell_length_b                   11.0378(5)
_cell_length_c                   8.9827(3)
_cell_angle_alpha                90
_cell_angle_beta                 107.545(1)
_cell_angle_gamma                90
_cell_volume                     649.506
_exptl_crystal_colour            colorless
_exptl_crystal_description       block
_cell_formula_units_Z            2
loop_
_atom_site_label
_atom_site_type_symbol
_atom_site_fract_x
_atom_site_fract_y
_atom_site_fract_z
O1 O 0.2196(2) 0.01863(9) 0.3878(1)
O2 O 0.1008(2) 0.17971(8) 0.2340(1)
O3 O 0.2527(1) 0.00001(8) -0.1181(1)
O4 O 0.4571(1) -0.14021(9) -0.1579(1)
C1 C 0.2362(3) 0.0931(1) 0.5251(2)
C2 C 0.1471(2) 0.0743(1) 0.2513(2)
C3 C 0.1162(2) -0.0146(1) 0.1166(1)
C4 C 0.1168(2) 0.0458(1) -0.0387(1)
C5 C 0.2400(2) -0.1274(1) 0.1547(2)
C6 C 0.3420(2) -0.1698(1) 0.0621(2)
C7 C 0.3550(2) -0.1066(1) -0.0779(1)
H1 H 0.2882 0.0468 0.6170
H2 H 0.1035 0.1231 0.5208
H3 H 0.3234 0.1604 0.5268
H4 H 0.1399 0.1315 -0.0298
H5 H 0.2161 -0.1692 0.2461
H6 H 0.4161 -0.2384 0.0822
O1B O -0.2196(2) -0.01863(9) -0.3878(1)
O2B O -0.1008(2) -0.17971(8) -0.2340(1)
O3B O -0.2527(1) -0.00001(8) 0.1181(1)
O4B O -0.4571(1) 0.14021(9) 0.1579(1)
C1B C -0.2362(3) -0.0931(1) -0.5251(2)
C2B C -0.1471(2) -0.0743(1) -0.2513(2)
C3B C -0.1162(2) 0.0146(1) -0.1166(1)
C4B C -0.1168(2) -0.0458(1) 0.0387(1)
C5B C -0.2400(2) 0.1274(1) -0.1547(2)
C6B C -0.3420(2) 0.1698(1) -0.0621(2)
C7B C -0.3550(2) 0.1066(1) 0.0779(1)
H1B H -0.2882 -0.0468 -0.6170
H2B H -0.1035 -0.1231 -0.5208
H3B H -0.3234 -0.1604 -0.5268
H4B H -0.1399 -0.1315 0.0298
H5B H -0.2161 0.1692 -0.2461
H6B H -0.4161 0.2384 -0.0822
loop_
_geom_bond_atom_site_label_1
_geom_bond_atom_site_label_2
_geom_bond_site_symmetry_1
_geom_bond_site_symmetry_2
O1 C1 1_555 1_555
O2 C2 1_555 1_555
O3 C4 1_555 1_555
O4 C7 1_555 1_555
C1 H1 1_555 1_555
C2 O1 1_555 1_555
C3 C2 1_555 1_555
C4 C3 1_555 1_555
C5 C3 1_555 1_555
C6 C5 1_555 1_555
C7 O3 1_555 1_555
H2 C1 1_555 1_555
H3 C1 1_555 1_555
H4 C4 1_555 1_555
H5 C5 1_555 1_555
H6 C6 1_555 1_555
O1B C1B 1_555 1_555
O2B C2B 1_555 1_555
O3B C4B 1_555 1_555
O4B C7B 1_555 1_555
C1B H1B 1_555 1_555
C2B O1B 1_555 1_555
C3B C4 1_555 1_555
C4B C3 1_555 1_555
C5B C3B 1_555 1_555
C6B C5B 1_555 1_555
C7B O3B 1_555 1_555
H2B C1B 1_555 1_555
H3B C1B 1_555 1_555
H4B C4B 1_555 1_555
H5B C5B 1_555 1_555
H6B C6B 1_555 1_555
C6 C7 1_555 1_555
C2B C3B 1_555 1_555
C3B C4B 1_555 1_555
C6B C7B 1_555 1_555

#END
