
#######################################################################
#
#                 Cambridge Crystallographic Data Centre
#                                CCDC 
#
#######################################################################
#
# If this CIF has been generated from an entry in the Cambridge 
# Structural Database, then it will include bibliographic, chemical, 
# crystal, experimental, refinement or atomic coordinate data resulting 
# from the CCDC's data processing and validation procedures.
#
#######################################################################

data_RAZVOD
_chemical_formula_moiety         'C24 H26 N2 O2 S3'
_chemical_name_systematic        
2-(Morpholinylthioformyl)-2-phenyl-4-morpholinyl-5-phenyl-1,3-dithiole
_symmetry_cell_setting           monoclinic
_symmetry_space_group_name_H-M   'P 21/n'
_symmetry_Int_Tables_number      14
_space_group_name_Hall           '-P 2yn'
loop_
_symmetry_equiv_pos_site_id
_symmetry_equiv_pos_as_xyz
1 x,y,z
2 1/2-x,1/2+y,1/2-z
3 -x,-y,-z
4 1/2+x,1/2-y,1/2+z
_cell_length_a                   9.746(2)
_cell_length_b                   21.124(8)
_cell_length_c                   11.484(3)
_cell_angle_alpha                90
_cell_angle_beta                 99.98(2)
_cell_angle_gamma                90
_cell_volume                     2328.49
_exptl_crystal_colour            'pale yellow'
_chemical_melting_point          149-151deg.C
_cell_formula_units_Z            4
loop_
_atom_site_label
_atom_site_type_symbol
_atom_site_fract_x
_atom_site_fract_y
_atom_site_fract_z
S1 S 0.2337(1) 0.32805(5) 0.40435(10)
S2 S 0.5141(1) 0.32640(5) 0.53214(9)
S3 S 0.4383(1) 0.22221(7) 0.6821(1)
O1 O 0.1169(5) 0.5135(2) 0.1234(5)
O2 O 0.0051(5) 0.1023(2) 0.4641(4)
N1 N 0.2921(3) 0.4329(2) 0.2776(3)
N2 N 0.2334(4) 0.1858(2) 0.5162(4)
C1 C 0.3478(4) 0.3874(2) 0.3630(3)
C2 C 0.4798(4) 0.3847(2) 0.4197(3)
C3 C 0.3763(4) 0.2733(2) 0.4583(3)
C4 C 0.2232(6) 0.4111(2) 0.1631(4)
C5 C 0.1918(9) 0.4660(3) 0.0789(5)
C6 C 0.1785(7) 0.5338(3) 0.2349(6)
C7 C 0.2095(5) 0.4821(3) 0.3227(5)
C8 C 0.5965(4) 0.4246(2) 0.4008(3)
C9 C 0.2077(9) 0.1321(4) 0.5922(6)
C10 C 0.5811(4) 0.4875(2) 0.3672(4)
C11 C 0.6939(5) 0.5235(2) 0.3474(5)
C12 C 0.8227(5) 0.4964(3) 0.3577(6)
C13 C 0.8411(5) 0.4352(3) 0.3897(5)
C14 C 0.7300(5) 0.3982(2) 0.4107(4)
C15 C 0.4337(4) 0.2373(2) 0.3605(4)
C16 C 0.3758(5) 0.2417(2) 0.2422(4)
C17 C 0.4394(7) 0.2105(3) 0.1577(4)
C18 C 0.5551(7) 0.1744(3) 0.1918(6)
C19 C 0.6102(6) 0.1689(3) 0.3098(6)
C20 C 0.5504(5) 0.1998(2) 0.3923(4)
C21 C 0.3379(4) 0.2257(2) 0.5500(4)
C22 C 0.1489(6) 0.1806(3) 0.3973(5)
C23 C 0.0233(9) 0.1553(4) 0.3928(6)
C24 C 0.0793(10) 0.1089(4) 0.5768(7)
loop_
_geom_bond_atom_site_label_1
_geom_bond_atom_site_label_2
_geom_bond_site_symmetry_1
_geom_bond_site_symmetry_2
S1 C1 1_555 1_555
S2 C2 1_555 1_555
S3 C21 1_555 1_555
O1 C5 1_555 1_555
O2 C23 1_555 1_555
N1 C1 1_555 1_555
N2 C9 1_555 1_555
C1 C2 1_555 1_555
C2 C8 1_555 1_555
C3 S1 1_555 1_555
C4 N1 1_555 1_555
C5 C4 1_555 1_555
C6 O1 1_555 1_555
C7 N1 1_555 1_555
C8 C10 1_555 1_555
C9 C24 1_555 1_555
C10 C11 1_555 1_555
C11 C12 1_555 1_555
C12 C13 1_555 1_555
C13 C14 1_555 1_555
C14 C8 1_555 1_555
C15 C3 1_555 1_555
C16 C15 1_555 1_555
C17 C16 1_555 1_555
C18 C17 1_555 1_555
C19 C18 1_555 1_555
C20 C15 1_555 1_555
C21 N2 1_555 1_555
C22 N2 1_555 1_555
C23 C22 1_555 1_555
C24 O2 1_555 1_555
S2 C3 1_555 1_555
C3 C21 1_555 1_555
C6 C7 1_555 1_555
C19 C20 1_555 1_555

#END
