
#######################################################################
#
#                 Cambridge Crystallographic Data Centre
#                                CCDC 
#
#######################################################################
#
# If this CIF has been generated from an entry in the Cambridge 
# Structural Database, then it will include bibliographic, chemical, 
# crystal, experimental, refinement or atomic coordinate data resulting 
# from the CCDC's data processing and validation procedures.
#
#######################################################################

data_RAZXOI
_chemical_formula_moiety         'C50 H55 B2 N1 S1'
_chemical_name_systematic        
3,7-bis(dimesitylboryl)-10-ethyl-10H-phenothiazine
_symmetry_cell_setting           monoclinic
_symmetry_space_group_name_H-M   'C 2/c'
_symmetry_Int_Tables_number      15
_space_group_name_Hall           '-C 2yn'
loop_
_symmetry_equiv_pos_site_id
_symmetry_equiv_pos_as_xyz
1 x,y,z
2 -x,y,1/2-z
3 1/2+x,1/2+y,z
4 1/2-x,1/2+y,1/2-z
5 -x,-y,-z
6 x,-y,1/2+z
7 1/2-x,1/2-y,-z
8 1/2+x,1/2-y,1/2+z
_cell_length_a                   41.419(5)
_cell_length_b                   8.4275(11)
_cell_length_c                   24.911(3)
_cell_angle_alpha                90
_cell_angle_beta                 107.953(3)
_cell_angle_gamma                90
_cell_volume                     8272.02
_exptl_crystal_colour            'pale green'
_exptl_crystal_description       PLATES
_cell_formula_units_Z            8
loop_
_atom_site_label
_atom_site_type_symbol
_atom_site_fract_x
_atom_site_fract_y
_atom_site_fract_z
S1 S 0.187163(19) 0.57195(10) 0.10059(3)
N1 N 0.19913(6) 0.4898(3) -0.00768(10)
C1 C 0.25467(7) 0.4962(3) 0.14039(12)
H1 H 0.2524 0.5172 0.1757
C2 C 0.16835(7) 0.4274(4) -0.00292(12)
C3 C 0.28703(7) 0.4537(3) 0.13694(12)
C4 C 0.22841(7) 0.4761(3) 0.03921(12)
C5 C 0.28413(7) 0.3996(4) 0.32006(12)
H2 H 0.2707 0.3298 0.3327
C6 C 0.16059(7) 0.4486(3) 0.04758(12)
C7 C 0.25976(7) 0.4303(3) 0.03493(12)
H3 H 0.2618 0.4058 -0.0003
C8 C 0.31139(7) 0.4692(3) 0.24999(12)
C9 C 0.28806(7) 0.4207(3) 0.08232(12)
H4 H 0.3087 0.3911 0.0777
C10 C 0.14553(7) 0.3406(4) -0.04559(12)
H5 H 0.1490 0.3312 -0.0806
C11 C 0.31645(7) 0.6361(4) 0.33153(13)
H6 H 0.3248 0.7277 0.3519
C12 C 0.22628(7) 0.5079(3) 0.09355(12)
C13 C 0.32413(7) 0.6067(4) 0.28197(12)
C14 C 0.07243(7) 0.2063(4) 0.08286(12)
C15 C 0.11776(7) 0.2681(4) -0.03630(13)
H7 H 0.1032 0.2094 -0.0654
C16 C 0.09518(7) -0.1022(4) -0.01078(12)
C17 C 0.35559(7) 0.4126(4) 0.18842(12)
C18 C 0.29670(7) 0.5336(4) 0.35176(12)
C19 C 0.20296(8) 0.5089(4) -0.06383(12)
H8 H 0.1807 0.5162 -0.0916
H9 H 0.2142 0.4160 -0.0727
C20 C 0.07196(7) 0.0175(4) -0.00920(12)
C21 C 0.40501(8) 0.4871(4) 0.16066(13)
H10 H 0.4154 0.5587 0.1428
C22 C 0.27627(8) 0.2147(4) 0.23972(13)
H11 H 0.2872 0.1251 0.2616
H12 H 0.2799 0.2122 0.2035
H13 H 0.2524 0.2107 0.2349
C23 C 0.37407(8) 0.2788(4) 0.21506(13)
C24 C 0.29092(7) 0.3658(4) 0.26997(12)
B1 B 0.08381(8) 0.1699(4) 0.02914(15)
C25 C 0.11062(7) 0.2796(4) 0.01523(12)
C26 C 0.22323(8) 0.6550(4) -0.06777(13)
H14 H 0.2130 0.7465 -0.0568
H15 H 0.2235 0.6678 -0.1059
H16 H 0.2460 0.6434 -0.0431
B2 B 0.31833(9) 0.4439(4) 0.19146(15)
C27 C 0.13269(7) 0.3769(3) 0.05591(12)
H17 H 0.1283 0.3937 0.0899
C28 C 0.28849(8) 0.5701(4) 0.40517(13)
H18 H 0.3044 0.6463 0.4269
H19 H 0.2899 0.4745 0.4268
H20 H 0.2659 0.6126 0.3959
C29 C 0.05057(8) -0.2577(4) -0.07596(13)
C30 C 0.03794(7) 0.0001(4) -0.04311(13)
C31 C 0.06026(7) 0.3591(4) 0.09120(13)
C32 C 0.05649(8) 0.2811(4) 0.18356(14)
C33 C 0.06761(8) 0.1329(4) 0.17468(14)
H21 H 0.0700 0.0560 0.2024
C34 C 0.40682(8) 0.2526(4) 0.21327(14)
H22 H 0.4184 0.1627 0.2308
C35 C 0.37207(8) 0.5167(4) 0.16043(12)
C36 C 0.34427(8) 0.7305(4) 0.26260(13)
H23 H 0.3526 0.8079 0.2919
H24 H 0.3300 0.7817 0.2293
H25 H 0.3630 0.6809 0.2542
C37 C 0.08412(8) -0.2387(4) -0.04305(13)
H26 H 0.0996 -0.3189 -0.0425
C38 C 0.01233(7) 0.1293(4) -0.04599(14)
H27 H 0.0166 0.2169 -0.0675
H28 H 0.0142 0.1644 -0.0085
H29 H -0.0101 0.0890 -0.0638
C39 C 0.07540(8) 0.0928(4) 0.12589(13)
C40 C 0.05268(8) 0.3930(4) 0.14075(14)
H30 H 0.0448 0.4938 0.1455
C41 C 0.42296(8) 0.3550(4) 0.18645(13)
C42 C 0.05325(8) 0.4874(4) 0.04633(14)
H31 H 0.0317 0.5361 0.0428
H32 H 0.0527 0.4412 0.0109
H33 H 0.0708 0.5662 0.0569
C43 C 0.02788(8) -0.1364(4) -0.07592(13)
H34 H 0.0054 -0.1463 -0.0983
C44 C 0.08889(9) -0.0729(4) 0.12341(14)
H35 H 0.1130 -0.0684 0.1304
H36 H 0.0783 -0.1174 0.0867
H37 H 0.0840 -0.1379 0.1515
C45 C 0.13240(8) -0.0920(4) 0.02207(15)
H38 H 0.1444 -0.0417 -0.0007
H39 H 0.1413 -0.1969 0.0320
H40 H 0.1352 -0.0310 0.0558
C46 C 0.04825(10) 0.3201(5) 0.23710(15)
H41 H 0.0363 0.2327 0.2470
H42 H 0.0343 0.4133 0.2312
H43 H 0.0689 0.3390 0.2671
C47 C 0.35561(8) 0.6673(4) 0.13185(14)
H44 H 0.3699 0.7562 0.1474
H45 H 0.3340 0.6809 0.1379
H46 H 0.3525 0.6604 0.0921
C48 C 0.03960(9) -0.4054(4) -0.11153(15)
H47 H 0.0250 -0.4677 -0.0965
H48 H 0.0592 -0.4666 -0.1110
H49 H 0.0276 -0.3754 -0.1497
C49 C 0.35913(8) 0.1578(4) 0.24564(15)
H50 H 0.3756 0.0767 0.2613
H51 H 0.3393 0.1108 0.2196
H52 H 0.3530 0.2091 0.2755
C50 C 0.45873(8) 0.3239(5) 0.18505(16)
H53 H 0.4581 0.2971 0.1473
H54 H 0.4684 0.2375 0.2099
H55 H 0.4723 0.4173 0.1970
loop_
_geom_bond_atom_site_label_1
_geom_bond_atom_site_label_2
_geom_bond_site_symmetry_1
_geom_bond_site_symmetry_2
S1 C6 1_555 1_555
N1 C2 1_555 1_555
C1 H1 1_555 1_555
C2 C6 1_555 1_555
C3 C1 1_555 1_555
C4 N1 1_555 1_555
C5 H2 1_555 1_555
C6 C27 1_555 1_555
C7 C4 1_555 1_555
H3 C7 1_555 1_555
C8 C13 1_555 1_555
C9 C3 1_555 1_555
H4 C9 1_555 1_555
C10 C2 1_555 1_555
H5 C10 1_555 1_555
C11 H6 1_555 1_555
C12 S1 1_555 1_555
C13 C11 1_555 1_555
C14 B1 1_555 1_555
C15 C10 1_555 1_555
H7 C15 1_555 1_555
C16 C20 1_555 1_555
C17 C23 1_555 1_555
C18 C5 1_555 1_555
C19 N1 1_555 1_555
H8 C19 1_555 1_555
H9 C19 1_555 1_555
C20 B1 1_555 1_555
C21 H10 1_555 1_555
C22 H11 1_555 1_555
H12 C22 1_555 1_555
H13 C22 1_555 1_555
C23 C34 1_555 1_555
C24 C5 1_555 1_555
B1 C25 1_555 1_555
C25 C15 1_555 1_555
C26 C19 1_555 1_555
H14 C26 1_555 1_555
H15 C26 1_555 1_555
H16 C26 1_555 1_555
B2 C3 1_555 1_555
C27 C25 1_555 1_555
H17 C27 1_555 1_555
C28 C18 1_555 1_555
H18 C28 1_555 1_555
H19 C28 1_555 1_555
H20 C28 1_555 1_555
C29 C37 1_555 1_555
C30 C20 1_555 1_555
C31 C14 1_555 1_555
C32 C33 1_555 1_555
C33 H21 1_555 1_555
C34 H22 1_555 1_555
C35 C17 1_555 1_555
C36 C13 1_555 1_555
H23 C36 1_555 1_555
H24 C36 1_555 1_555
H25 C36 1_555 1_555
C37 C16 1_555 1_555
H26 C37 1_555 1_555
C38 C30 1_555 1_555
H27 C38 1_555 1_555
H28 C38 1_555 1_555
H29 C38 1_555 1_555
C39 C14 1_555 1_555
C40 C31 1_555 1_555
H30 C40 1_555 1_555
C41 C21 1_555 1_555
C42 C31 1_555 1_555
H31 C42 1_555 1_555
H32 C42 1_555 1_555
H33 C42 1_555 1_555
C43 C29 1_555 1_555
H34 C43 1_555 1_555
C44 C39 1_555 1_555
H35 C44 1_555 1_555
H36 C44 1_555 1_555
H37 C44 1_555 1_555
C45 C16 1_555 1_555
H38 C45 1_555 1_555
H39 C45 1_555 1_555
H40 C45 1_555 1_555
C46 C32 1_555 1_555
H41 C46 1_555 1_555
H42 C46 1_555 1_555
H43 C46 1_555 1_555
C47 C35 1_555 1_555
H44 C47 1_555 1_555
H45 C47 1_555 1_555
H46 C47 1_555 1_555
C48 C29 1_555 1_555
H47 C48 1_555 1_555
H48 C48 1_555 1_555
H49 C48 1_555 1_555
C49 C23 1_555 1_555
H50 C49 1_555 1_555
H51 C49 1_555 1_555
H52 C49 1_555 1_555
C50 C41 1_555 1_555
H53 C50 1_555 1_555
H54 C50 1_555 1_555
H55 C50 1_555 1_555
C1 C12 1_555 1_555
C4 C12 1_555 1_555
C7 C9 1_555 1_555
C8 C24 1_555 1_555
C8 B2 1_555 1_555
C11 C18 1_555 1_555
C17 B2 1_555 1_555
C21 C35 1_555 1_555
C22 C24 1_555 1_555
C30 C43 1_555 1_555
C32 C40 1_555 1_555
C33 C39 1_555 1_555
C34 C41 1_555 1_555

#END
