
#######################################################################
#
#                 Cambridge Crystallographic Data Centre
#                                CCDC 
#
#######################################################################
#
# If this CIF has been generated from an entry in the Cambridge 
# Structural Database, then it will include bibliographic, chemical, 
# crystal, experimental, refinement or atomic coordinate data resulting 
# from the CCDC's data processing and validation procedures.
#
#######################################################################

data_RAZXIC
_chemical_formula_moiety         'C32 H33 B1 Br1 N1 S1'
_chemical_name_systematic        
3-bromo-7-(dimesitylboryl)-10-ethyl-10H-phenothiazine
_symmetry_cell_setting           trigonal
_symmetry_space_group_name_H-M   'P 31'
_symmetry_Int_Tables_number      144
_space_group_name_Hall           'P 31'
loop_
_symmetry_equiv_pos_site_id
_symmetry_equiv_pos_as_xyz
1 x,y,z
2 -y,x-y,1/3+z
3 -x+y,-x,2/3+z
_cell_length_a                   14.2085(7)
_cell_length_b                   14.2085(7)
_cell_length_c                   11.5638(11)
_cell_angle_alpha                90
_cell_angle_beta                 90
_cell_angle_gamma                120
_cell_volume                     2021.75
_exptl_crystal_colour            colorless
_exptl_crystal_description       BLOCKS
_cell_formula_units_Z            3
loop_
_atom_site_label
_atom_site_type_symbol
_atom_site_fract_x
_atom_site_fract_y
_atom_site_fract_z
Br1 Br 1.65642(3) 0.93303(4) 0.18632(4)
S1 S 1.26547(5) 0.92684(5) 0.11315(6)
C1 C 0.6426(2) 0.5235(2) 0.1417(2)
C2 C 0.8412(2) 0.9272(3) 0.3956(2)
C3 C 1.3552(2) 0.8771(2) 0.0806(2)
C4 C 0.8680(2) 0.8560(2) 0.2165(2)
C5 C 1.1415(2) 0.8044(2) 0.0898(2)
C6 C 1.0500(2) 0.7800(2) 0.1559(2)
H1 H 1.0558 0.8266 0.2153
C7 C 0.4660(3) 0.2133(3) 0.1601(3)
H2 H 0.4130 0.2039 0.2173
H3 H 0.4897 0.1617 0.1734
H4 H 0.4343 0.2020 0.0845
C8 C 0.8071(2) 0.8278(2) 0.4469(2)
H5 H 0.7854 0.8179 0.5239
C9 C 1.5230(2) 0.8801(3) 0.1081(3)
N1 N 1.22927(19) 0.7649(2) -0.0684(2)
C10 C 0.8921(3) 0.8753(3) 0.0880(2)
H6 H 0.8684 0.9235 0.0597
H7 H 0.8543 0.8073 0.0475
H8 H 0.9689 0.9072 0.0755
C11 C 0.7483(3) 0.4512(2) 0.2284(2)
C12 C 0.8705(2) 0.9400(2) 0.2796(3)
H9 H 0.8921 1.0063 0.2437
C13 C 0.8043(2) 0.7412(2) 0.3861(2)
C14 C 1.4015(3) 0.7679(3) -0.0392(3)
H10 H 1.3846 0.7176 -0.0983
B1 B 0.8425(2) 0.6615(2) 0.2000(2)
C15 C 1.2156(3) 0.7183(3) -0.1853(3)
H11 H 1.1424 0.6942 -0.2125
H12 H 1.2257 0.6557 -0.1824
C16 C 0.9480(2) 0.6166(2) 0.0475(2)
H13 H 0.8834 0.5525 0.0328
C17 C 1.3287(2) 0.8031(2) -0.0102(2)
C18 C 1.4993(2) 0.8078(3) 0.0200(3)
H14 H 1.5483 0.7853 -0.0003
C19 C 0.5569(2) 0.4164(3) 0.1289(3)
H15 H 0.4936 0.4047 0.0925
C20 C 1.1362(2) 0.7355(2) 0.0008(2)
C21 C 1.0379(2) 0.6387(2) -0.0169(2)
H16 H 1.0335 0.5894 -0.0725
C22 C 0.5625(2) 0.3276(3) 0.1682(3)
C23 C 0.9484(2) 0.6856(2) 0.1345(2)
C24 C 0.7408(2) 0.5419(2) 0.1906(2)
C25 C 0.6605(3) 0.3470(2) 0.2185(3)
H17 H 0.6666 0.2887 0.2458
C26 C 0.8375(2) 0.7545(2) 0.2687(2)
C27 C 0.8487(4) 1.0217(3) 0.4636(3)
H18 H 0.7942 0.9948 0.5230
H19 H 0.8373 1.0684 0.4126
H20 H 0.9193 1.0619 0.4983
C28 C 1.4516(2) 0.9155(3) 0.1410(3)
H21 H 1.4683 0.9639 0.2021
C29 C 0.8498(3) 0.4650(3) 0.2872(3)
H22 H 0.8301 0.4073 0.3419
H23 H 0.8857 0.5336 0.3268
H24 H 0.8979 0.4630 0.2302
C30 C 0.6262(2) 0.6157(3) 0.1029(3)
H25 H 0.6449 0.6671 0.1649
H26 H 0.5514 0.5877 0.0819
H27 H 0.6717 0.6511 0.0373
C31 C 1.2980(3) 0.8027(3) -0.2695(3)
H28 H 1.2848 0.8625 -0.2763
H29 H 1.2904 0.7698 -0.3440
H30 H 1.3703 0.8287 -0.2409
C32 C 0.7649(3) 0.6353(3) 0.4498(3)
H31 H 0.7060 0.5777 0.4077
H32 H 0.7403 0.6408 0.5255
H33 H 0.8233 0.6201 0.4566
loop_
_geom_bond_atom_site_label_1
_geom_bond_atom_site_label_2
_geom_bond_site_symmetry_1
_geom_bond_site_symmetry_2
Br1 C9 1_555 1_555
S1 C3 1_555 1_555
C1 C19 1_555 1_555
C2 C8 1_555 1_555
C3 C17 1_555 1_555
C4 C10 1_555 1_555
C5 S1 1_555 1_555
C6 C5 1_555 1_555
H1 C6 1_555 1_555
C7 H2 1_555 1_555
H3 C7 1_555 1_555
H4 C7 1_555 1_555
C8 H5 1_555 1_555
C9 C18 1_555 1_555
N1 C15 1_555 1_555
C10 H6 1_555 1_555
H7 C10 1_555 1_555
H8 C10 1_555 1_555
C11 C24 1_555 1_555
C12 C2 1_555 1_555
H9 C12 1_555 1_555
C13 C8 1_555 1_555
C14 H10 1_555 1_555
B1 C23 1_555 1_555
C15 H11 1_555 1_555
H12 C15 1_555 1_555
C16 H13 1_555 1_555
C17 N1 1_555 1_555
C18 C14 1_555 1_555
H14 C18 1_555 1_555
C19 H15 1_555 1_555
C20 C5 1_555 1_555
C21 C16 1_555 1_555
H16 C21 1_555 1_555
C22 C7 1_555 1_555
C23 C6 1_555 1_555
C24 C1 1_555 1_555
C25 C11 1_555 1_555
H17 C25 1_555 1_555
C26 C4 1_555 1_555
C27 C2 1_555 1_555
H18 C27 1_555 1_555
H19 C27 1_555 1_555
H20 C27 1_555 1_555
C28 C3 1_555 1_555
H21 C28 1_555 1_555
C29 C11 1_555 1_555
H22 C29 1_555 1_555
H23 C29 1_555 1_555
H24 C29 1_555 1_555
C30 C1 1_555 1_555
H25 C30 1_555 1_555
H26 C30 1_555 1_555
H27 C30 1_555 1_555
C31 C15 1_555 1_555
H28 C31 1_555 1_555
H29 C31 1_555 1_555
H30 C31 1_555 1_555
C32 C13 1_555 1_555
H31 C32 1_555 1_555
H32 C32 1_555 1_555
H33 C32 1_555 1_555
C4 C12 1_555 1_555
C9 C28 1_555 1_555
N1 C20 1_555 1_555
C13 C26 1_555 1_555
C14 C17 1_555 1_555
B1 C24 1_555 1_555
B1 C26 1_555 1_555
C16 C23 1_555 1_555
C19 C22 1_555 1_555
C20 C21 1_555 1_555
C22 C25 1_555 1_555

#END
