
#######################################################################
#
#                 Cambridge Crystallographic Data Centre
#                                CCDC 
#
#######################################################################
#
# If this CIF has been generated from an entry in the Cambridge 
# Structural Database, then it will include bibliographic, chemical, 
# crystal, experimental, refinement or atomic coordinate data resulting 
# from the CCDC's data processing and validation procedures.
#
#######################################################################

data_RAZYAV
_chemical_formula_moiety         'C22 H21 Br1 F1 N1 O6'
_chemical_name_systematic        
'Methyl 6-(4-bromophenyl)-1-fluoro-3-formyl-2-hydroxy-2-methyl-5-nitro-4-phenylcyclohexane-1-carboxylate'
_symmetry_cell_setting           monoclinic
_symmetry_space_group_name_H-M   'C 2'
_symmetry_Int_Tables_number      5
_space_group_name_Hall           'C 2y'
loop_
_symmetry_equiv_pos_site_id
_symmetry_equiv_pos_as_xyz
1 x,y,z
2 -x,y,-z
3 1/2+x,1/2+y,z
4 1/2-x,1/2+y,-z
_cell_length_a                   16.3318(8)
_cell_length_b                   5.7416(3)
_cell_length_c                   23.6498(12)
_cell_angle_alpha                90
_cell_angle_beta                 104.368(6)
_cell_angle_gamma                90
_cell_volume                     2148.29
_exptl_crystal_colour            colorless
_exptl_crystal_description       plate
_cell_formula_units_Z            4
loop_
_atom_site_label
_atom_site_type_symbol
_atom_site_fract_x
_atom_site_fract_y
_atom_site_fract_z
Br1 Br 0.64958(4) 0.5647(2) 0.48264(2)
F1 F 0.4923(2) 0.7558(6) 0.73249(14)
O1 O 0.4859(3) 0.2037(8) 0.80370(17)
H1 H 0.4648 0.1385 0.7716
O2 O 0.3653(2) 0.5675(9) 0.65717(16)
O3 O 0.4128(3) 0.2093(7) 0.68169(17)
O4 O 0.7364(4) 0.7352(14) 0.7342(3)
O5 O 0.6562(3) 0.8923(9) 0.7811(2)
O6 O 0.5334(3) 0.6014(16) 0.93823(18)
C1 C 0.4811(3) 0.4479(11) 0.7963(2)
C2 C 0.4931(3) 0.5173(10) 0.7348(2)
C3 C 0.5743(3) 0.4167(9) 0.7243(2)
H2 H 0.5685 0.2442 0.7276
C4 C 0.6538(3) 0.4823(10) 0.7733(2)
H3 H 0.6997 0.3721 0.7697
C5 C 0.6415(3) 0.4528(11) 0.8348(2)
H4 H 0.6390 0.2808 0.8408
C6 C 0.5576(3) 0.5474(12) 0.84288(19)
H5 H 0.5575 0.7212 0.8402
C7 C 0.5499(4) 0.4756(15) 0.9029(3)
H6 H 0.5590 0.3160 0.9131
C8 C 0.3992(3) 0.5436(17) 0.8057(2)
H7 H 0.3521 0.4933 0.7736
H8 H 0.4018 0.7141 0.8067
H9 H 0.3908 0.4854 0.8428
C9 C 0.4156(3) 0.4356(11) 0.6862(2)
C10 C 0.3423(4) 0.1142(12) 0.6374(3)
H10 H 0.3509 0.1459 0.5985
H11 H 0.2895 0.1872 0.6409
H12 H 0.3391 -0.0544 0.6429
N1 N 0.6836(3) 0.7242(11) 0.7626(2)
C11 C 0.5882(3) 0.4562(10) 0.6638(2)
C12 C 0.5629(4) 0.6569(11) 0.6319(2)
H13 H 0.5332 0.7751 0.6468
C13 C 0.5814(4) 0.6841(12) 0.5773(2)
H14 H 0.5630 0.8201 0.5549
C14 C 0.6247(3) 0.5206(14) 0.5565(2)
C15 C 0.6519(4) 0.3162(13) 0.5873(3)
H15 H 0.6819 0.2002 0.5720
C16 C 0.6334(4) 0.2888(11) 0.6408(2)
H16 H 0.6518 0.1517 0.6627
C17 C 0.7192(3) 0.5355(13) 0.88060(19)
C18 C 0.7900(4) 0.3951(15) 0.8928(3)
H17 H 0.7882 0.2488 0.8738
C19 C 0.8639(4) 0.464(2) 0.9323(3)
H18 H 0.9124 0.3664 0.9393
C20 C 0.8668(4) 0.6717(19) 0.9612(3)
H19 H 0.9174 0.7198 0.9880
C21 C 0.7970(5) 0.8086(15) 0.9513(3)
H20 H 0.7984 0.9507 0.9721
C22 C 0.7231(4) 0.7422(13) 0.9108(3)
H21 H 0.6749 0.8406 0.9039
loop_
_geom_bond_atom_site_label_1
_geom_bond_atom_site_label_2
_geom_bond_site_symmetry_1
_geom_bond_site_symmetry_2
Br1 C14 1_555 1_555
F1 C2 1_555 1_555
O1 H1 1_555 1_555
O2 C9 1_555 1_555
O3 C9 1_555 1_555
O4 N1 1_555 1_555
O5 N1 1_555 1_555
O6 C7 1_555 1_555
C1 O1 1_555 1_555
C2 C1 1_555 1_555
C3 C2 1_555 1_555
H2 C3 1_555 1_555
C4 C3 1_555 1_555
H3 C4 1_555 1_555
C5 C4 1_555 1_555
H4 C5 1_555 1_555
C6 C1 1_555 1_555
H5 C6 1_555 1_555
C7 C6 1_555 1_555
H6 C7 1_555 1_555
C8 C1 1_555 1_555
H7 C8 1_555 1_555
H8 C8 1_555 1_555
H9 C8 1_555 1_555
C9 C2 1_555 1_555
C10 O3 1_555 1_555
H10 C10 1_555 1_555
H11 C10 1_555 1_555
H12 C10 1_555 1_555
N1 C4 1_555 1_555
C11 C3 1_555 1_555
C12 C11 1_555 1_555
H13 C12 1_555 1_555
C13 C12 1_555 1_555
H14 C13 1_555 1_555
C14 C13 1_555 1_555
C15 C14 1_555 1_555
H15 C15 1_555 1_555
C16 C11 1_555 1_555
H16 C16 1_555 1_555
C17 C5 1_555 1_555
C18 C17 1_555 1_555
H17 C18 1_555 1_555
C19 C18 1_555 1_555
H18 C19 1_555 1_555
C20 C19 1_555 1_555
H19 C20 1_555 1_555
C21 C20 1_555 1_555
H20 C21 1_555 1_555
C22 C17 1_555 1_555
H21 C22 1_555 1_555
C5 C6 1_555 1_555
C15 C16 1_555 1_555
C21 C22 1_555 1_555

#END
