
#######################################################################
#
#                 Cambridge Crystallographic Data Centre
#                                CCDC 
#
#######################################################################
#
# If this CIF has been generated from an entry in the Cambridge 
# Structural Database, then it will include bibliographic, chemical, 
# crystal, experimental, refinement or atomic coordinate data resulting 
# from the CCDC's data processing and validation procedures.
#
#######################################################################

data_REBBOR
_chemical_formula_moiety         'C24 H14 O2'
_chemical_name_systematic        2,2'-Binaphtho[2,3-b]furan
_symmetry_cell_setting           triclinic
_symmetry_space_group_name_H-M   'P -1'
_symmetry_Int_Tables_number      2
_space_group_name_Hall           '-P 1'
loop_
_symmetry_equiv_pos_site_id
_symmetry_equiv_pos_as_xyz
1 x,y,z
2 -x,-y,-z
_cell_length_a                   5.986(4)
_cell_length_b                   7.803(5)
_cell_length_c                   17.433(11)
_cell_angle_alpha                85.512(11)
_cell_angle_beta                 82.285(10)
_cell_angle_gamma                85.930(11)
_cell_volume                     802.92
_exptl_crystal_colour            yellow-green
_chemical_melting_point          'above 300 deg.C'
_cell_formula_units_Z            2
_exptl_crystal_recrystallization_method chlorobenzene
loop_
_atom_site_label
_atom_site_type_symbol
_atom_site_fract_x
_atom_site_fract_y
_atom_site_fract_z
C1 C 0.4597(3) 0.4706(2) 0.03779(11)
O1 O 0.2740(10) 0.3906(10) 0.0577(5)
C2 C 0.2331(3) 0.3484(2) 0.13484(11)
C3 C 0.0630(3) 0.2682(2) 0.18074(10)
H1 H -0.0580 0.2309 0.1595
C4 C 0.0752(2) 0.2434(2) 0.26112(10)
C5 C -0.0944(3) 0.1616(2) 0.31277(11)
H2 H -0.2168 0.1221 0.2931
C6 C -0.0829(3) 0.1391(2) 0.39045(12)
H3 H -0.1974 0.0859 0.4231
C7 C 0.1021(3) 0.1963(2) 0.42137(12)
H4 H 0.1098 0.1805 0.4744
C8 C 0.2704(3) 0.2750(2) 0.37359(11)
H5 H 0.3917 0.3120 0.3948
C9 C 0.2643(2) 0.3014(2) 0.29288(10)
C10 C 0.4364(2) 0.3838(2) 0.24316(10)
H6 H 0.5590 0.4226 0.2629
C11 C 0.4202(3) 0.4056(2) 0.16564(11)
C12 C 0.5753(18) 0.4873(15) 0.1054(8)
H7 H 0.7104 0.5366 0.1087
C1A C 0.5403(3) 0.5294(2) -0.03779(11)
O1A O 0.7260(10) 0.6094(10) -0.0577(5)
C2A C 0.7669(3) 0.6516(2) -0.13484(11)
C3A C 0.9370(3) 0.7318(2) -0.18074(10)
H1A H 1.0580 0.7691 -0.1595
C4A C 0.9248(2) 0.7566(2) -0.26112(10)
C5A C 1.0944(3) 0.8384(2) -0.31277(11)
H2A H 1.2168 0.8779 -0.2931
C6A C 1.0829(3) 0.8609(2) -0.39045(12)
H3A H 1.1974 0.9141 -0.4231
C7A C 0.8979(3) 0.8037(2) -0.42137(12)
H4A H 0.8902 0.8195 -0.4744
C8A C 0.7296(3) 0.7250(2) -0.37359(11)
H5A H 0.6083 0.6880 -0.3948
C9A C 0.7357(2) 0.6986(2) -0.29288(10)
C10A C 0.5636(2) 0.6162(2) -0.24316(10)
H6A H 0.4410 0.5774 -0.2629
C11A C 0.5798(3) 0.5944(2) -0.16564(11)
C12A C 0.4247(18) 0.5127(15) -0.1054(8)
H7A H 0.2896 0.4634 -0.1087
C13 C -0.0486(3) -0.0312(3) 0.03707(11)
O2 O 0.0575(9) -0.1313(10) 0.0847(5)
C14 C -0.0749(3) -0.1696(2) 0.15318(10)
C15 C -0.0358(2) -0.2638(2) 0.21982(10)
H8 H 0.1036 -0.3218 0.2241
C16 C -0.2121(2) -0.2711(2) 0.28204(10)
C17 C -0.1829(3) -0.3622(2) 0.35407(11)
H9 H -0.0453 -0.4214 0.3601
C18 C -0.3523(3) -0.3648(3) 0.41433(12)
H10 H -0.3295 -0.4246 0.4612
C19 C -0.5619(3) -0.2773(3) 0.40606(12)
H11 H -0.6769 -0.2798 0.4476
C20 C -0.5986(3) -0.1892(2) 0.33820(11)
H12 H -0.7389 -0.1327 0.3339
C21 C -0.4267(2) -0.1815(2) 0.27374(10)
C22 C -0.4609(3) -0.0884(2) 0.20318(10)
H13 H -0.6006 -0.0328 0.1968
C23 C -0.2864(3) -0.0811(2) 0.14454(10)
C24 C -0.2803(16) 0.0109(16) 0.0689(7)
H14 H -0.3932 0.0781 0.0470
C13A C 0.0486(3) 0.0312(3) -0.03707(11)
O2A O -0.0575(9) 0.1313(10) -0.0847(5)
C14A C 0.0749(3) 0.1696(2) -0.15318(10)
C15A C 0.0358(2) 0.2638(2) -0.21982(10)
H8A H -0.1036 0.3218 -0.2241
C16A C 0.2121(2) 0.2711(2) -0.28204(10)
C17A C 0.1829(3) 0.3622(2) -0.35407(11)
H9A H 0.0453 0.4214 -0.3601
C18A C 0.3523(3) 0.3648(3) -0.41433(12)
H10A H 0.3295 0.4246 -0.4612
C19A C 0.5619(3) 0.2773(3) -0.40606(12)
H11A H 0.6769 0.2798 -0.4476
C20A C 0.5986(3) 0.1892(2) -0.33820(11)
H12A H 0.7389 0.1327 -0.3339
C21A C 0.4267(2) 0.1815(2) -0.27374(10)
C22A C 0.4609(3) 0.0884(2) -0.20318(10)
H13A H 0.6006 0.0328 -0.1968
C23A C 0.2864(3) 0.0811(2) -0.14454(10)
C24A C 0.2803(16) -0.0109(16) -0.0689(7)
H14A H 0.3932 -0.0781 -0.0470
C25? C 0.237(3) 0.386(2) 0.0504(12)
C26? C 0.099(3) -0.146(3) 0.0864(12)
H15? H 0.2492 -0.1877 0.0773
H16? H 0.1360 0.3650 0.0165
O3? O 0.5404(16) 0.4754(14) 0.0999(8)
O4? O -0.2415(17) -0.0051(17) 0.0716(8)
loop_
_geom_bond_atom_site_label_1
_geom_bond_atom_site_label_2
_geom_bond_site_symmetry_1
_geom_bond_site_symmetry_2
C1 O1 1_555 1_555
O1 C2 1_555 1_555
C2 C3 1_555 1_555
C3 H1 1_555 1_555
C4 C3 1_555 1_555
C5 C4 1_555 1_555
H2 C5 1_555 1_555
C6 C5 1_555 1_555
H3 C6 1_555 1_555
C7 C6 1_555 1_555
H4 C7 1_555 1_555
C8 C7 1_555 1_555
H5 C8 1_555 1_555
C9 C4 1_555 1_555
C10 C9 1_555 1_555
H6 C10 1_555 1_555
C11 C2 1_555 1_555
C12 C1 1_555 1_555
H7 C12 1_555 1_555
C13 O2 1_555 1_555
O2 C14 1_555 1_555
C14 C15 1_555 1_555
C15 H8 1_555 1_555
C16 C15 1_555 1_555
C17 C16 1_555 1_555
H9 C17 1_555 1_555
C18 C17 1_555 1_555
H10 C18 1_555 1_555
C19 C18 1_555 1_555
H11 C19 1_555 1_555
C20 C19 1_555 1_555
H12 C20 1_555 1_555
C21 C16 1_555 1_555
C22 C21 1_555 1_555
H13 C22 1_555 1_555
C23 C14 1_555 1_555
C24 C13 1_555 1_555
H14 C24 1_555 1_555
C1A C1 1_555 1_555
O1A C1A 1_555 1_555
C2A O1A 1_555 1_555
C3A C2A 1_555 1_555
H1A C3A 1_555 1_555
C4A C3A 1_555 1_555
C5A C4A 1_555 1_555
H2A C5A 1_555 1_555
C6A C5A 1_555 1_555
H3A C6A 1_555 1_555
C7A C6A 1_555 1_555
H4A C7A 1_555 1_555
C8A C7A 1_555 1_555
H5A C8A 1_555 1_555
C9A C4A 1_555 1_555
C10A C9A 1_555 1_555
H6A C10A 1_555 1_555
C11A C2A 1_555 1_555
C12A C1A 1_555 1_555
H7A C12A 1_555 1_555
C13A C13 1_555 1_555
O2A C13A 1_555 1_555
C14A O2A 1_555 1_555
C15A C14A 1_555 1_555
H8A C15A 1_555 1_555
C16A C15A 1_555 1_555
C17A C16A 1_555 1_555
H9A C17A 1_555 1_555
C18A C17A 1_555 1_555
H10A C18A 1_555 1_555
C19A C18A 1_555 1_555
H11A C19A 1_555 1_555
C20A C19A 1_555 1_555
H12A C20A 1_555 1_555
C21A C16A 1_555 1_555
C22A C21A 1_555 1_555
H13A C22A 1_555 1_555
C23A C14A 1_555 1_555
C24A C13A 1_555 1_555
H14A C24A 1_555 1_555
C8 C9 1_555 1_555
C10 C11 1_555 1_555
C11 C12 1_555 1_555
C20 C21 1_555 1_555
C22 C23 1_555 1_555
C23 C24 1_555 1_555
C8A C9A 1_555 1_555
C10A C11A 1_555 1_555
C11A C12A 1_555 1_555
C20A C21A 1_555 1_555
C22A C23A 1_555 1_555
C23A C24A 1_555 1_555

#END
