
#######################################################################
#
#                 Cambridge Crystallographic Data Centre
#                                CCDC 
#
#######################################################################
#
# If this CIF has been generated from an entry in the Cambridge 
# Structural Database, then it will include bibliographic, chemical, 
# crystal, experimental, refinement or atomic coordinate data resulting 
# from the CCDC's data processing and validation procedures.
#
#######################################################################

data_REBBIK
_chemical_formula_moiety         'C21 H18 F1 N3 O5,H2 O1'
_chemical_name_systematic        
'2-(1,3-Dioxo-2,3,4,5,6,7-hexahydro-1H-isoindol-2-yl)-N-(7-fluoro-3-oxo-4-(prop-2-ynyl)-3,4-dihydro-2H-benzoxazin-6-yl)acetamide monohydrate'
_chemical_properties_biological  
'potential protoporphyrinogen oxidase-inhibiting herbicidal activity'
_symmetry_cell_setting           monoclinic
_symmetry_space_group_name_H-M   'P 21/n'
_symmetry_Int_Tables_number      14
_space_group_name_Hall           '-P 2yn'
loop_
_symmetry_equiv_pos_site_id
_symmetry_equiv_pos_as_xyz
1 x,y,z
2 1/2-x,1/2+y,1/2-z
3 -x,-y,-z
4 1/2+x,1/2-y,1/2+z
_cell_length_a                   19.2192(19)
_cell_length_b                   4.7354(5)
_cell_length_c                   23.421(2)
_cell_angle_alpha                90
_cell_angle_beta                 92.091(2)
_cell_angle_gamma                90
_cell_volume                     2130.14
_exptl_crystal_colour            colorless
_exptl_crystal_description       plate
_cell_formula_units_Z            4
_exptl_crystal_recrystallization_method 'petroleum ether/methanol'
loop_
_atom_site_label
_atom_site_type_symbol
_atom_site_fract_x
_atom_site_fract_y
_atom_site_fract_z
C1 C 0.60720(14) 0.3328(6) 0.25928(13)
C2 C 0.67121(16) 0.5108(7) 0.26634(16)
H1 H 0.6689 0.6674 0.2396
H2 H 0.7121 0.3992 0.2587
C3 C 0.6759(5) 0.6245(16) 0.3289(3)
H5 H 0.7246 0.6607 0.3386
H6 H 0.6521 0.8050 0.3293
C4 C 0.6479(3) 0.449(2) 0.3748(3)
H7 H 0.6771 0.2834 0.3804
H8 H 0.6494 0.5557 0.4102
C7 C 0.57636(19) 0.3595(8) 0.36171(14)
H13 H 0.5450 0.5147 0.3691
H14 H 0.5647 0.2044 0.3867
C8 C 0.56631(15) 0.2680(6) 0.30106(12)
C9 C 0.51170(16) 0.0716(6) 0.27794(14)
C10 C 0.58168(16) 0.1905(6) 0.20636(13)
C11 C 0.48188(16) -0.1380(6) 0.18286(15)
H17 H 0.4741 -0.3203 0.2004
H18 H 0.5059 -0.1696 0.1477
C12 C 0.41243(16) 0.0004(6) 0.16902(13)
C13 C 0.29117(14) -0.0937(5) 0.14129(11)
C14 C 0.23624(17) -0.2209(6) 0.16667(12)
C15 C 0.16832(16) -0.1680(7) 0.14993(13)
H19 H 0.1320 -0.2587 0.1676
C16 C 0.15525(15) 0.0221(6) 0.10650(12)
C17 C 0.20908(14) 0.1585(5) 0.07990(11)
C18 C 0.27669(14) 0.0991(6) 0.09790(11)
H20 H 0.3133 0.1902 0.0806
C19 C 0.12532(17) 0.4154(7) 0.02037(14)
C20 C 0.07094(19) 0.2847(10) 0.05558(18)
H21 H 0.0533 0.4312 0.0801
H22 H 0.0328 0.2285 0.0298
C21 C 0.24822(16) 0.4908(6) 0.00510(13)
H23 H 0.2806 0.5739 0.0330
H24 H 0.2283 0.6429 -0.0179
C22 C 0.28642(18) 0.3003(8) -0.03184(14)
C23 C 0.3179(2) 0.1523(11) -0.06122(17)
H25 H 0.3430 0.0343 -0.0846
F1 F 0.24981(10) -0.4117(4) 0.20857(8)
N1 N 0.52498(12) 0.0312(5) 0.22077(10)
N2 N 0.36005(13) -0.1729(5) 0.15766(11)
H26 H 0.3664(15) -0.347(3) 0.1656(12)
N3 N 0.19275(12) 0.3509(5) 0.03497(9)
O1 O 0.46553(13) -0.0447(6) 0.30249(11)
O2 O 0.60517(13) 0.2019(6) 0.15932(10)
O3 O 0.4102(10) 0.2615(12) 0.1619(18)
O5 O 0.10951(12) 0.5820(6) -0.01787(10)
O6 O 0.08732(11) 0.0605(6) 0.08892(11)
O7 O 0.494(3) 0.865(8) 0.006(3)
H27 H 0.506(3) 0.951(13) 0.035(2)
H28 H 0.505(9) 0.693(9) 0.012(6)
H3? H 0.6601 0.7070 0.2583
H4? H 0.7062 0.4495 0.2402
C5? C 0.6984(6) 0.488(4) 0.3266(4)
H9? H 0.7375 0.6136 0.3338
H10? H 0.7125 0.2959 0.3357
C6? C 0.6357(6) 0.576(3) 0.3607(8)
H11? H 0.6173 0.7515 0.3448
H12? H 0.6515 0.6144 0.3998
H15? H 0.5893 0.2029 0.3866
H16? H 0.5342 0.4456 0.3752
O4? O 0.399(2) 0.255(5) 0.185(3)
O8? O 0.494(7) 0.595(14) -0.013(4)
H29? H 0.494(7) 0.768(16) -0.009(4)
H30? H 0.474(3) 0.555(12) -0.044(3)
loop_
_geom_bond_atom_site_label_1
_geom_bond_atom_site_label_2
_geom_bond_site_symmetry_1
_geom_bond_site_symmetry_2
C1 C2 1_555 1_555
C2 H1 1_555 1_555
H2 C2 1_555 1_555
C3 C2 1_555 1_555
H5 C3 1_555 1_555
H6 C3 1_555 1_555
C4 C3 1_555 1_555
H7 C4 1_555 1_555
H8 C4 1_555 1_555
C7 C4 1_555 1_555
H13 C7 1_555 1_555
H14 C7 1_555 1_555
C8 C1 1_555 1_555
C9 C8 1_555 1_555
C10 C1 1_555 1_555
C11 H17 1_555 1_555
H18 C11 1_555 1_555
C12 C11 1_555 1_555
C13 C14 1_555 1_555
C14 C15 1_555 1_555
C15 H19 1_555 1_555
C16 C15 1_555 1_555
C17 C16 1_555 1_555
C18 C13 1_555 1_555
H20 C18 1_555 1_555
C19 C20 1_555 1_555
C20 H21 1_555 1_555
H22 C20 1_555 1_555
C21 H23 1_555 1_555
H24 C21 1_555 1_555
C22 C21 1_555 1_555
C23 C22 1_555 1_555
H25 C23 1_555 1_555
F1 C14 1_555 1_555
N1 C9 1_555 1_555
N2 C12 1_555 1_555
H26 N2 1_555 1_555
N3 C17 1_555 1_555
O1 C9 1_555 1_555
O2 C10 1_555 1_555
O3 C12 1_555 1_555
O5 C19 1_555 1_555
O6 C16 1_555 1_555
O7 H27 1_555 1_555
H28 O7 1_555 1_555
C7 C8 1_555 1_555
C10 N1 1_555 1_555
C11 N1 1_555 1_555
C13 N2 1_555 1_555
C17 C18 1_555 1_555
C19 N3 1_555 1_555
C20 O6 1_555 1_555
C21 N3 1_555 1_555

#END
