
#######################################################################
#
#                 Cambridge Crystallographic Data Centre
#                                CCDC 
#
#######################################################################
#
# If this CIF has been generated from an entry in the Cambridge 
# Structural Database, then it will include bibliographic, chemical, 
# crystal, experimental, refinement or atomic coordinate data resulting 
# from the CCDC's data processing and validation procedures.
#
#######################################################################

data_REBCEH
_chemical_formula_moiety         'C14 H10 N2 O2'
_chemical_name_systematic        3-(N-Phthalimidomethyl)pyridine
_symmetry_cell_setting           triclinic
_symmetry_space_group_name_H-M   'P -1'
_symmetry_Int_Tables_number      2
_space_group_name_Hall           '-P 1'
loop_
_symmetry_equiv_pos_site_id
_symmetry_equiv_pos_as_xyz
1 x,y,z
2 -x,-y,-z
_cell_length_a                   7.13(4)
_cell_length_b                   8.05(4)
_cell_length_c                   10.57(7)
_cell_angle_alpha                91.84(8)
_cell_angle_beta                 100.53(9)
_cell_angle_gamma                109.15(10)
_cell_volume                     560.683
_exptl_crystal_colour            white
_exptl_crystal_description       prism
_cell_formula_units_Z            2
_exptl_crystal_recrystallization_method acetonitrile
loop_
_atom_site_label
_atom_site_type_symbol
_atom_site_fract_x
_atom_site_fract_y
_atom_site_fract_z
O1 O 0.2128(3) 0.0485(3) -0.2875(2)
O2 O 0.2697(2) 0.50744(17) 0.00005(15)
N1 N -0.2884(3) 0.4541(3) -0.36944(19)
N2 N 0.2406(2) 0.3039(2) -0.16811(17)
C1 C 0.2670(3) 0.2076(2) 0.0352(2)
C2 C 0.2477(3) 0.0680(3) -0.0526(2)
C3 C 0.2485(3) -0.0936(3) -0.0113(3)
H1 H 0.2351 -0.1874 -0.0700
C4 C 0.2699(3) -0.1111(3) 0.1192(3)
H2 H 0.2725 -0.2179 0.1492
C5 C 0.2876(3) 0.0279(3) 0.2064(3)
H3 H 0.3002 0.0119 0.2939
C6 C 0.2869(3) 0.1918(3) 0.1663(2)
H4 H 0.2993 0.2854 0.2249
C7 C 0.2310(3) 0.1278(3) -0.1835(2)
C8 C 0.2599(3) 0.3606(2) -0.03866(19)
C9 C -0.0966(3) 0.4762(4) -0.3108(2)
H5 H -0.0368 0.5611 -0.2402
C10 C 0.0187(3) 0.3810(3) -0.3485(2)
C11 C -0.0701(3) 0.2554(3) -0.4542(2)
H6 H 0.0022 0.1897 -0.4832
C12 C -0.2686(3) 0.2290(3) -0.5163(2)
H7 H -0.3318 0.1450 -0.5871
C13 C -0.3704(3) 0.3304(3) -0.4706(2)
H8 H -0.5034 0.3115 -0.5125
C14 C 0.2336(3) 0.4161(4) -0.2738(2)
H9 H 0.3153 0.3954 -0.3325
H10 H 0.2922 0.5392 -0.2387
loop_
_geom_bond_atom_site_label_1
_geom_bond_atom_site_label_2
_geom_bond_site_symmetry_1
_geom_bond_site_symmetry_2
O1 C7 1_555 1_555
O2 C8 1_555 1_555
N1 C9 1_555 1_555
N2 C7 1_555 1_555
C1 C2 1_555 1_555
C2 C3 1_555 1_555
C3 H1 1_555 1_555
C4 C3 1_555 1_555
H2 C4 1_555 1_555
C5 C4 1_555 1_555
H3 C5 1_555 1_555
C6 C1 1_555 1_555
H4 C6 1_555 1_555
C7 C2 1_555 1_555
C8 N2 1_555 1_555
C9 H5 1_555 1_555
C10 C9 1_555 1_555
C11 C10 1_555 1_555
H6 C11 1_555 1_555
C12 C11 1_555 1_555
H7 C12 1_555 1_555
C13 N1 1_555 1_555
H8 C13 1_555 1_555
C14 N2 1_555 1_555
H9 C14 1_555 1_555
H10 C14 1_555 1_555
C1 C8 1_555 1_555
C5 C6 1_555 1_555
C10 C14 1_555 1_555
C12 C13 1_555 1_555

#END
