
#######################################################################
#
#                 Cambridge Crystallographic Data Centre
#                                CCDC 
#
#######################################################################
#
# If this CIF has been generated from an entry in the Cambridge 
# Structural Database, then it will include bibliographic, chemical, 
# crystal, experimental, refinement or atomic coordinate data resulting 
# from the CCDC's data processing and validation procedures.
#
#######################################################################

data_REBCIL
_chemical_name_common            'Risperidone chloride hydrate'
_chemical_formula_moiety         'C23 H28 F1 N4 O2 1+,Cl1 1-,2.5(H2 O1)'
_chemical_name_systematic        
'4-(6-Fluoro-1,2-benzisoxazol-3-yl)-1-(2-(2-methyl-4-oxo-3,4,6,7,8,9-hexahydro-2H-pyrido(1,2-a)pyrimidin-3-yl)ethyl)piperidinium chloride hydrate'
_chemical_properties_biological  'Risperidone is an antipsychotic agent'
_symmetry_cell_setting           monoclinic
_symmetry_space_group_name_H-M   'P 21/n'
_symmetry_Int_Tables_number      14
_space_group_name_Hall           '-P 2yn'
loop_
_symmetry_equiv_pos_site_id
_symmetry_equiv_pos_as_xyz
1 x,y,z
2 1/2-x,1/2+y,1/2-z
3 -x,-y,-z
4 1/2+x,1/2-y,1/2+z
_cell_length_a                   10.027(3)
_cell_length_b                   18.431(4)
_cell_length_c                   13.394(4)
_cell_angle_alpha                90
_cell_angle_beta                 100.613(11)
_cell_angle_gamma                90
_cell_volume                     2432.97
_exptl_crystal_colour            brown
_exptl_crystal_description       block
_cell_formula_units_Z            4
_exptl_crystal_recrystallization_method acetone/water/HCl
loop_
_atom_site_label
_atom_site_type_symbol
_atom_site_fract_x
_atom_site_fract_y
_atom_site_fract_z
Cl1 Cl 0.46396(4) 0.41240(2) 0.66523(4)
F1 F 0.02999(12) 0.69441(6) 0.76030(10)
O1 O 0.47576(12) 0.78289(6) 0.75840(10)
O2 O 1.03858(12) 0.36035(6) 0.49888(10)
N1 N 0.74081(12) 0.47731(6) 0.66009(9)
N2 N 0.59673(14) 0.74596(6) 0.74586(12)
N3 N 1.01137(13) 0.23864(6) 0.47595(10)
N4 N 0.80844(14) 0.18132(6) 0.49170(11)
C1 C 0.67478(16) 0.62490(8) 0.71696(12)
C2 C 0.63629(17) 0.59535(8) 0.60874(12)
C3 C 0.73354(17) 0.53766(8) 0.58494(12)
C4 C 0.79240(16) 0.50553(8) 0.76470(12)
C5 C 0.69638(17) 0.56216(8) 0.79342(12)
C6 C 0.56730(17) 0.67718(6) 0.73657(12)
C7 C 0.42758(17) 0.66399(8) 0.74123(12)
C8 C 0.34043(17) 0.60384(8) 0.73419(12)
C9 C 0.20728(18) 0.61562(10) 0.74066(13)
C10 C 0.16310(19) 0.68616(10) 0.75505(13)
C11 C 0.24287(19) 0.74639(9) 0.76278(12)
C12 C 0.37643(18) 0.73260(8) 0.75525(12)
C13 C 0.81998(16) 0.41241(8) 0.63667(12)
C14 C 0.77004(18) 0.38422(8) 0.52978(12)
C15 C 0.82572(17) 0.31013(8) 0.51264(12)
C16 C 0.96252(17) 0.30763(8) 0.49650(12)
C17 C 1.15257(18) 0.23649(9) 0.45730(14)
C18 C 1.1889(2) 0.16528(11) 0.41497(19)
C19 C 1.1395(2) 0.10295(11) 0.46773(19)
C20 C 0.9888(2) 0.10563(9) 0.45534(16)
C21 C 0.93185(18) 0.17862(8) 0.47537(12)
C22 C 0.75375(17) 0.24736(8) 0.51052(12)
C23 C 0.6117(2) 0.24280(10) 0.53038(17)
H1 H 0.7605 0.6515 0.7224
H2 H 0.3721 0.5573 0.7254
H3 H 0.1468 0.5770 0.7355
H4 H 0.2105 0.7927 0.7723
H5 H 0.5461 0.5745 0.6002
H6 H 0.6360 0.6352 0.5615
H7 H 0.7017 0.5189 0.5171
H8 H 0.8230 0.5587 0.5887
H9 H 0.8810 0.5273 0.7669
H10 H 0.8000 0.4657 0.8127
H11 H 0.7342 0.5813 0.8601
H12 H 0.6096 0.5395 0.7953
H13 H 0.6619 0.4594 0.6620
H14 H 0.9147 0.4259 0.6434
H15 H 0.8111 0.3742 0.6848
H16 H 0.7977 0.4179 0.4818
H17 H 0.6718 0.3814 0.5181
H18 H 1.2140 0.2452 0.5211
H19 H 1.1633 0.2746 0.4094
H20 H 1.2869 0.1621 0.4227
H21 H 1.1486 0.1631 0.3434
H22 H 1.1791 0.1050 0.5394
H23 H 1.1661 0.0581 0.4390
H24 H 0.9612 0.0710 0.5021
H25 H 0.9507 0.0917 0.3861
H26 H 0.5988 0.1969 0.5611
H27 H 0.5968 0.2813 0.5753
H28 H 0.5486 0.2473 0.4674
O3 O 0.16081(13) 0.44177(6) 0.67188(12)
H29 H 0.2503 0.4394 0.6708
H30 H 0.1343 0.4154 0.6128
O4 O 0.1315(2) 0.43621(9) 0.88382(14)
H31 H 0.1321 0.4318 0.8111
H32 H 0.1861 0.3978 0.9181
O5 O 0.0347(4) 0.5558(2) 0.9741(3)
H33 H 0.0590 0.5152 0.9434
H34 H -0.0290 0.5442 1.0134
loop_
_geom_bond_atom_site_label_1
_geom_bond_atom_site_label_2
_geom_bond_site_symmetry_1
_geom_bond_site_symmetry_2
F1 C10 1_555 1_555
O1 N2 1_555 1_555
O2 C16 1_555 1_555
N1 C3 1_555 1_555
N2 C6 1_555 1_555
N3 C16 1_555 1_555
N4 C21 1_555 1_555
C1 C2 1_555 1_555
C2 C3 1_555 1_555
C3 H7 1_555 1_555
C4 N1 1_555 1_555
C5 C1 1_555 1_555
C6 C1 1_555 1_555
C7 C6 1_555 1_555
C8 C7 1_555 1_555
C9 C8 1_555 1_555
C10 C9 1_555 1_555
C11 C10 1_555 1_555
C12 O1 1_555 1_555
C13 N1 1_555 1_555
C14 C13 1_555 1_555
C15 C14 1_555 1_555
C16 C15 1_555 1_555
C17 N3 1_555 1_555
C18 C17 1_555 1_555
C19 C18 1_555 1_555
C20 C19 1_555 1_555
C21 N3 1_555 1_555
C22 N4 1_555 1_555
C23 C22 1_555 1_555
H1 C1 1_555 1_555
H2 C8 1_555 1_555
H3 C9 1_555 1_555
H4 C11 1_555 1_555
H5 C2 1_555 1_555
H6 C2 1_555 1_555
H8 C3 1_555 1_555
H9 C4 1_555 1_555
H10 C4 1_555 1_555
H11 C5 1_555 1_555
H12 C5 1_555 1_555
H13 N1 1_555 1_555
H14 C13 1_555 1_555
H15 C13 1_555 1_555
H16 C14 1_555 1_555
H17 C14 1_555 1_555
H18 C17 1_555 1_555
H19 C17 1_555 1_555
H20 C18 1_555 1_555
H21 C18 1_555 1_555
H22 C19 1_555 1_555
H23 C19 1_555 1_555
H24 C20 1_555 1_555
H25 C20 1_555 1_555
H26 C23 1_555 1_555
H27 C23 1_555 1_555
H28 C23 1_555 1_555
O3 H29 1_555 1_555
H30 O3 1_555 1_555
O4 H31 1_555 1_555
H32 O4 1_555 1_555
O5 H33 1_555 1_555
H34 O5 1_555 1_555
C4 C5 1_555 1_555
C7 C12 1_555 1_555
C11 C12 1_555 1_555
C15 C22 1_555 1_555
C20 C21 1_555 1_555

#END
