
#######################################################################
#
#                 Cambridge Crystallographic Data Centre
#                                CCDC 
#
#######################################################################
#
# If this CIF has been generated from an entry in the Cambridge 
# Structural Database, then it will include bibliographic, chemical, 
# crystal, experimental, refinement or atomic coordinate data resulting 
# from the CCDC's data processing and validation procedures.
#
#######################################################################

data_REBFIO
_chemical_formula_moiety         'C42 H44 N2 O8 S2'
_chemical_name_systematic        
1,4-bis(N-(4-(Ethoxycarbonyl)benzyl)-N-(4-tolylsulfonyl)aminomethyl)benzene
_symmetry_cell_setting           triclinic
_symmetry_space_group_name_H-M   'P -1'
_symmetry_Int_Tables_number      2
_space_group_name_Hall           '-P 1'
loop_
_symmetry_equiv_pos_site_id
_symmetry_equiv_pos_as_xyz
1 x,y,z
2 -x,-y,-z
_cell_length_a                   6.7007(2)
_cell_length_b                   11.7108(5)
_cell_length_c                   13.1888(5)
_cell_angle_alpha                78.912(2)
_cell_angle_beta                 80.801(2)
_cell_angle_gamma                73.492(2)
_cell_volume                     967.642
_exptl_crystal_colour            colorless
_exptl_crystal_description       plates
_cell_formula_units_Z            1
_exptl_crystal_recrystallization_method dichloromethane
loop_
_atom_site_label
_atom_site_type_symbol
_atom_site_fract_x
_atom_site_fract_y
_atom_site_fract_z
C1 C 0.4984(2) 0.65949(12) 0.30046(10)
H1 H 0.3758 0.7304 0.3030
H2 H 0.6263 0.6889 0.2868
N1 N 0.49049(18) 0.59688(10) 0.21448(9)
C2 C 0.6894(2) 0.53321(13) 0.16246(11)
H3 H 0.7953 0.5777 0.1613
H4 H 0.6707 0.5333 0.0895
C3 C 0.4990(2) 0.57808(11) 0.40480(10)
C4 C 0.6828(2) 0.52703(12) 0.45081(10)
H5 H 0.8091 0.5453 0.4174
C5 C 0.3150(2) 0.55030(12) 0.45507(10)
H6 H 0.1876 0.5845 0.4247
S1 S 0.28165(5) 0.63536(3) 0.15451(3)
O1 O 0.29672(18) 0.54015(9) 0.09724(8)
O2 O 0.10614(16) 0.66712(9) 0.23119(8)
C6 C 0.2911(2) 0.76617(13) 0.06414(10)
C7 C 0.3742(2) 0.75645(15) -0.03863(11)
H7 H 0.4235 0.6799 -0.0610
C8 C 0.3832(2) 0.86099(16) -0.10753(12)
H8 H 0.4386 0.8552 -0.1779
C9 C 0.3136(2) 0.97381(15) -0.07668(13)
C10 C 0.2345(3) 0.98064(14) 0.02642(13)
H9 H 0.1878 1.0571 0.0490
C11 C 0.2223(2) 0.87802(13) 0.09710(11)
H10 H 0.1674 0.8841 0.1674
C12 C 0.3215(3) 1.08596(18) -0.15428(16)
H11 H 0.4504 1.0697 -0.2023
H12 H 0.3195 1.1514 -0.1174
H13 H 0.1999 1.1096 -0.1935
C13 C 0.7718(2) 0.40369(12) 0.21379(11)
C14 C 0.6429(2) 0.34215(12) 0.28211(11)
H14 H 0.5003 0.3820 0.2997
C15 C 0.7220(2) 0.22236(13) 0.32479(12)
H15 H 0.6338 0.1813 0.3725
C16 C 0.9281(2) 0.16269(13) 0.29817(11)
C17 C 1.0573(3) 0.22446(14) 0.23012(13)
H16 H 1.1995 0.1843 0.2119
C18 C 0.9792(2) 0.34431(14) 0.18887(12)
H17 H 1.0689 0.3861 0.1431
C19 C 1.0153(3) 0.03273(13) 0.33856(12)
O3 O 1.19523(19) -0.02306(10) 0.32096(9)
O4 O 0.86780(19) -0.01640(9) 0.39566(9)
C20 C 0.9336(3) -0.14474(13) 0.43493(14)
H18 H 1.0511 -0.1622 0.4773
H19 H 0.9796 -0.1918 0.3767
C21 C 0.7456(3) -0.17623(16) 0.50028(15)
H20 H 0.7815 -0.2624 0.5286
H21 H 0.6306 -0.1579 0.4573
H22 H 0.7023 -0.1290 0.5576
C1A C 0.5016(2) 0.34051(12) 0.69954(10)
H1A H 0.6242 0.2696 0.6970
H2A H 0.3737 0.3111 0.7132
N1A N 0.50951(18) 0.40312(10) 0.78552(9)
C2A C 0.3106(2) 0.46679(13) 0.83754(11)
H3A H 0.2047 0.4223 0.8387
H4A H 0.3293 0.4667 0.9105
C3A C 0.5010(2) 0.42192(11) 0.59520(10)
C4A C 0.3172(2) 0.47297(12) 0.54919(10)
H5A H 0.1909 0.4547 0.5826
C5A C 0.6850(2) 0.44970(12) 0.54493(10)
H6A H 0.8124 0.4155 0.5753
S1A S 0.71835(5) 0.36464(3) 0.84549(3)
O1A O 0.70328(18) 0.45985(9) 0.90276(8)
O2A O 0.89386(16) 0.33288(9) 0.76881(8)
C6A C 0.7089(2) 0.23383(13) 0.93586(10)
C7A C 0.6258(2) 0.24355(15) 1.03863(11)
H7A H 0.5765 0.3201 1.0610
C8A C 0.6168(2) 0.13901(16) 1.10753(12)
H8A H 0.5614 0.1448 1.1779
C9A C 0.6864(2) 0.02619(15) 1.07668(13)
C10A C 0.7655(3) 0.01936(14) 0.97358(13)
H9A H 0.8122 -0.0571 0.9510
C11A C 0.7777(2) 0.12198(13) 0.90290(11)
H10A H 0.8326 0.1159 0.8326
C12A C 0.6785(3) -0.08596(18) 1.15428(16)
H11A H 0.5496 -0.0697 1.2023
H12A H 0.6805 -0.1514 1.1174
H13A H 0.8001 -0.1096 1.1935
C13A C 0.2282(2) 0.59631(12) 0.78621(11)
C14A C 0.3571(2) 0.65785(12) 0.71789(11)
H14A H 0.4997 0.6180 0.7003
C15A C 0.2780(2) 0.77764(13) 0.67521(12)
H15A H 0.3662 0.8187 0.6275
C16A C 0.0719(2) 0.83731(13) 0.70183(11)
C17A C -0.0573(3) 0.77554(14) 0.76988(13)
H16A H -0.1995 0.8157 0.7881
C18A C 0.0208(2) 0.65569(14) 0.81113(12)
H17A H -0.0689 0.6139 0.8569
C19A C -0.0153(3) 0.96727(13) 0.66144(12)
O3A O -0.19523(19) 1.02306(10) 0.67904(9)
O4A O 0.13220(19) 1.01640(9) 0.60434(9)
C20A C 0.0664(3) 1.14474(13) 0.56507(14)
H18A H -0.0511 1.1622 0.5227
H19A H 0.0204 1.1918 0.6233
C21A C 0.2544(3) 1.17623(16) 0.49972(15)
H20A H 0.2185 1.2624 0.4714
H21A H 0.3694 1.1579 0.5427
H22A H 0.2977 1.1290 0.4424
loop_
_geom_bond_atom_site_label_1
_geom_bond_atom_site_label_2
_geom_bond_site_symmetry_1
_geom_bond_site_symmetry_2
C1 H1 1_555 1_555
H2 C1 1_555 1_555
N1 C1 1_555 1_555
C2 N1 1_555 1_555
H3 C2 1_555 1_555
H4 C2 1_555 1_555
C3 C1 1_555 1_555
C4 C3 1_555 1_555
H5 C4 1_555 1_555
C5 C3 1_555 1_555
H6 C5 1_555 1_555
S1 N1 1_555 1_555
O1 S1 1_555 1_555
O2 S1 1_555 1_555
C6 S1 1_555 1_555
C7 C6 1_555 1_555
H7 C7 1_555 1_555
C8 C7 1_555 1_555
H8 C8 1_555 1_555
C9 C8 1_555 1_555
C10 C9 1_555 1_555
H9 C10 1_555 1_555
C11 C6 1_555 1_555
H10 C11 1_555 1_555
C12 C9 1_555 1_555
H11 C12 1_555 1_555
H12 C12 1_555 1_555
H13 C12 1_555 1_555
C13 C2 1_555 1_555
C14 C13 1_555 1_555
H14 C14 1_555 1_555
C15 C14 1_555 1_555
H15 C15 1_555 1_555
C16 C15 1_555 1_555
C17 C16 1_555 1_555
H16 C17 1_555 1_555
C18 C13 1_555 1_555
H17 C18 1_555 1_555
C19 C16 1_555 1_555
O3 C19 1_555 1_555
O4 C19 1_555 1_555
C20 O4 1_555 1_555
H18 C20 1_555 1_555
H19 C20 1_555 1_555
C21 C20 1_555 1_555
H20 C21 1_555 1_555
H21 C21 1_555 1_555
H22 C21 1_555 1_555
C1A H1A 1_555 1_555
H2A C1A 1_555 1_555
N1A C1A 1_555 1_555
C2A N1A 1_555 1_555
H3A C2A 1_555 1_555
H4A C2A 1_555 1_555
C3A C1A 1_555 1_555
C4A C5 1_555 1_555
H5A C4A 1_555 1_555
C5A C4 1_555 1_555
H6A C5A 1_555 1_555
S1A N1A 1_555 1_555
O1A S1A 1_555 1_555
O2A S1A 1_555 1_555
C6A S1A 1_555 1_555
C7A C6A 1_555 1_555
H7A C7A 1_555 1_555
C8A C7A 1_555 1_555
H8A C8A 1_555 1_555
C9A C8A 1_555 1_555
C10A C9A 1_555 1_555
H9A C10A 1_555 1_555
C11A C6A 1_555 1_555
H10A C11A 1_555 1_555
C12A C9A 1_555 1_555
H11A C12A 1_555 1_555
H12A C12A 1_555 1_555
H13A C12A 1_555 1_555
C13A C2A 1_555 1_555
C14A C13A 1_555 1_555
H14A C14A 1_555 1_555
C15A C14A 1_555 1_555
H15A C15A 1_555 1_555
C16A C15A 1_555 1_555
C17A C16A 1_555 1_555
H16A C17A 1_555 1_555
C18A C13A 1_555 1_555
H17A C18A 1_555 1_555
C19A C16A 1_555 1_555
O3A C19A 1_555 1_555
O4A C19A 1_555 1_555
C20A O4A 1_555 1_555
H18A C20A 1_555 1_555
H19A C20A 1_555 1_555
C21A C20A 1_555 1_555
H20A C21A 1_555 1_555
H21A C21A 1_555 1_555
H22A C21A 1_555 1_555
C10 C11 1_555 1_555
C17 C18 1_555 1_555
C3A C4A 1_555 1_555
C3A C5A 1_555 1_555
C10A C11A 1_555 1_555
C17A C18A 1_555 1_555

#END
