
#######################################################################
#
#                 Cambridge Crystallographic Data Centre
#                                CCDC 
#
#######################################################################
#
# If this CIF has been generated from an entry in the Cambridge 
# Structural Database, then it will include bibliographic, chemical, 
# crystal, experimental, refinement or atomic coordinate data resulting 
# from the CCDC's data processing and validation procedures.
#
#######################################################################

data_REBGIR
_chemical_formula_moiety         'C62 H46 N2 2+,2(Cl1 1-),5.3(H2 O1)'
_chemical_name_systematic        
"1,1'-bis(4-(triphenylvinyl)phenyl)-4,4'-bipyridinium dichloride hydrate"
_symmetry_cell_setting           monoclinic
_symmetry_space_group_name_H-M   'C 2'
_symmetry_Int_Tables_number      5
_space_group_name_Hall           'C 2y'
loop_
_symmetry_equiv_pos_site_id
_symmetry_equiv_pos_as_xyz
1 x,y,z
2 -x,y,-z
3 1/2+x,1/2+y,z
4 1/2-x,1/2+y,-z
_cell_length_a                   54.96(2)
_cell_length_b                   9.068(3)
_cell_length_c                   12.209(4)
_cell_angle_alpha                90
_cell_angle_beta                 101.194(9)
_cell_angle_gamma                90
_cell_volume                     5968.93
_exptl_crystal_colour            yellow
_exptl_crystal_description       block
_cell_formula_units_Z            4
loop_
_atom_site_label
_atom_site_type_symbol
_atom_site_fract_x
_atom_site_fract_y
_atom_site_fract_z
C1 C 0.18598(12) 0.7389(8) 0.5843(6)
C2 C 0.17350(12) 0.7167(7) 0.4840(6)
C3 C 0.17547(12) 0.7367(9) 0.6896(6)
C4 C 0.18830(14) 0.6678(9) 0.7865(6)
H1 H 0.2036 0.6209 0.7825
C5 C 0.18081(18) 0.6628(11) 0.8833(8)
H2 H 0.1905 0.6148 0.9462
C6 C 0.1584(2) 0.7297(14) 0.8903(9)
H3 H 0.1527 0.7297 0.9591
C7 C 0.14503(19) 0.7928(11) 0.8019(11)
H4 H 0.1295 0.8356 0.8074
C8 C 0.15310(14) 0.7988(10) 0.6980(8)
H5 H 0.1431 0.8453 0.6352
C9 C 0.21354(11) 0.7749(8) 0.6060(6)
C10 C 0.22354(13) 0.9026(9) 0.6578(6)
H6 H 0.2129 0.9695 0.6855
C11 C 0.24753(14) 0.9353(10) 0.6704(7)
H7 H 0.2536 1.0260 0.7039
C12 C 0.26389(14) 0.8367(10) 0.6343(7)
H8 H 0.2811 0.8579 0.6453
C13 C 0.25451(13) 0.7082(10) 0.5826(7)
H9 H 0.2654 0.6410 0.5565
C14 C 0.22991(14) 0.6762(9) 0.5683(6)
H10 H 0.2238 0.5868 0.5327
C15 C 0.18364(12) 0.7368(8) 0.3812(6)
C16 C 0.19741(15) 0.8625(10) 0.3626(7)
H11 H 0.2001 0.9391 0.4167
C17 C 0.20677(19) 0.8752(11) 0.2681(8)
H12 H 0.2153 0.9630 0.2555
C18 C 0.20438(19) 0.7672(14) 0.1921(7)
H13 H 0.2118 0.7770 0.1284
C19 C 0.1910(2) 0.6402(12) 0.2064(7)
H14 H 0.1887 0.5650 0.1511
C20 C 0.18118(16) 0.6247(10) 0.3003(7)
H15 H 0.1725 0.5368 0.3111
C21 C 0.14660(12) 0.6719(8) 0.4617(6)
C22 C 0.12891(14) 0.7619(10) 0.4019(9)
H16 H 0.1337 0.8531 0.3742
C23 C 0.10387(15) 0.7212(11) 0.3811(10)
H17 H 0.0916 0.7839 0.3396
C24 C 0.09736(13) 0.5873(11) 0.4224(9)
C25 C 0.11496(13) 0.4931(9) 0.4773(8)
H18 H 0.1104 0.3980 0.4988
C26 C 0.13944(13) 0.5365(9) 0.5013(7)
H19 H 0.1515 0.4746 0.5448
C27 C 0.05485(17) 0.6519(14) 0.4206(13)
H20 H 0.0603 0.7462 0.4495
C28 C 0.02933(16) 0.6172(13) 0.3948(14)
H21 H 0.0174 0.6897 0.4040
C29 C 0.02192(16) 0.4837(12) 0.3579(13)
C30 C 0.03878(17) 0.3782(13) 0.3512(14)
H22 H 0.0334 0.2795 0.3354
C31 C 0.06376(17) 0.4114(12) 0.3671(14)
H23 H 0.0754 0.3402 0.3529
C32 C -0.00543(18) 0.4471(13) 0.3371(17)
C33 C -0.02221(18) 0.5577(13) 0.2877(15)
H24 H -0.0164 0.6540 0.2761
C34 C -0.04671(16) 0.5252(11) 0.2569(14)
H25 H -0.0582 0.5993 0.2251
C35 C -0.03975(17) 0.2843(12) 0.3204(13)
H26 H -0.0459 0.1906 0.3369
C36 C -0.01414(17) 0.3145(13) 0.3489(13)
H27 H -0.0030 0.2374 0.3772
C37 C -0.08175(15) 0.3560(11) 0.2392(9)
C38 C -0.09865(14) 0.4544(10) 0.2644(8)
H28 H -0.0936 0.5451 0.3009
C39 C -0.12391(14) 0.4155(9) 0.2339(7)
H29 H -0.1361 0.4810 0.2510
C40 C -0.13125(12) 0.2857(9) 0.1802(6)
C41 C -0.11321(13) 0.1876(9) 0.1567(8)
H30 H -0.1180 0.0969 0.1199
C42 C -0.08852(15) 0.2236(11) 0.1875(10)
H31 H -0.0762 0.1571 0.1730
C43 C -0.15836(11) 0.2429(8) 0.1521(6)
C44 C -0.16928(13) 0.2139(8) 0.0477(6)
C45 C -0.16948(13) 0.2385(8) 0.2514(6)
C46 C -0.15681(18) 0.1846(10) 0.3502(7)
H32 H -0.1404 0.1498 0.3521
C47 C -0.1658(2) 0.1766(12) 0.4471(9)
H33 H -0.1564 0.1315 0.5119
C48 C -0.1880(2) 0.2333(13) 0.4485(10)
H34 H -0.1943 0.2329 0.5158
C49 C -0.20175(19) 0.2912(11) 0.3552(11)
H35 H -0.2177 0.3290 0.3578
C50 C -0.19311(15) 0.2978(10) 0.2532(8)
H36 H -0.2029 0.3406 0.1883
C51 C -0.19552(12) 0.1533(8) 0.0197(6)
C52 C -0.20246(13) 0.0336(9) 0.0754(7)
H37 H -0.1907 -0.0116 0.1329
C53 C -0.22605(15) -0.0217(10) 0.0495(7)
H38 H -0.2306 -0.1012 0.0920
C54 C -0.24345(13) 0.0363(11) -0.0381(7)
H39 H -0.2598 -0.0027 -0.0562
C55 C -0.23644(13) 0.1488(10) -0.0958(6)
H40 H -0.2479 0.1872 -0.1576
C56 C -0.21310(13) 0.2109(9) -0.0684(6)
H41 H -0.2090 0.2931 -0.1094
C57 C -0.15738(13) 0.2300(10) -0.0509(6)
C58 C -0.15789(19) 0.1195(14) -0.1262(8)
H42 H -0.1660 0.0298 -0.1153
C59 C -0.1468(2) 0.133(2) -0.2190(11)
H43 H -0.1479 0.0555 -0.2717
C60 C -0.1349(2) 0.255(2) -0.2333(10)
H44 H -0.1268 0.2616 -0.2951
C61 C -0.13371(19) 0.3714(16) -0.1643(9)
H45 H -0.1255 0.4599 -0.1774
C62 C -0.14534(16) 0.3559(12) -0.0714(8)
H46 H -0.1448 0.4363 -0.0211
N1 N 0.07118(11) 0.5499(8) 0.4038(8)
N2 N -0.05495(12) 0.3841(9) 0.2718(9)
O1 O 0.0308(5) 0.030(2) 0.432(3)
Cl1 Cl 0.9236(2) 0.8404(13) 0.3378(11)
O2 O 0.9328(5) 0.603(5) 0.912(3)
O3 O 0.9698(8) 0.916(2) 0.295(5)
Cl2 Cl 0.09174(16) 0.1042(9) 0.4950(10)
loop_
_geom_bond_atom_site_label_1
_geom_bond_atom_site_label_2
_geom_bond_site_symmetry_1
_geom_bond_site_symmetry_2
C1 C2 1_555 1_555
C2 C15 1_555 1_555
C3 C1 1_555 1_555
C4 C3 1_555 1_555
H1 C4 1_555 1_555
C5 C4 1_555 1_555
H2 C5 1_555 1_555
C6 C5 1_555 1_555
H3 C6 1_555 1_555
C7 C6 1_555 1_555
H4 C7 1_555 1_555
C8 C3 1_555 1_555
H5 C8 1_555 1_555
C9 C1 1_555 1_555
C10 C9 1_555 1_555
H6 C10 1_555 1_555
C11 C10 1_555 1_555
H7 C11 1_555 1_555
C12 C11 1_555 1_555
H8 C12 1_555 1_555
C13 C12 1_555 1_555
H9 C13 1_555 1_555
C14 C9 1_555 1_555
H10 C14 1_555 1_555
C15 C16 1_555 1_555
C16 H11 1_555 1_555
C17 C16 1_555 1_555
H12 C17 1_555 1_555
C18 C17 1_555 1_555
H13 C18 1_555 1_555
C19 C18 1_555 1_555
H14 C19 1_555 1_555
C20 C15 1_555 1_555
H15 C20 1_555 1_555
C21 C2 1_555 1_555
C22 C21 1_555 1_555
H16 C22 1_555 1_555
C23 C22 1_555 1_555
H17 C23 1_555 1_555
C24 C23 1_555 1_555
C25 C24 1_555 1_555
H18 C25 1_555 1_555
C26 C21 1_555 1_555
H19 C26 1_555 1_555
C27 H20 1_555 1_555
C28 C27 1_555 1_555
H21 C28 1_555 1_555
C29 C28 1_555 1_555
C30 C29 1_555 1_555
H22 C30 1_555 1_555
C31 C30 1_555 1_555
H23 C31 1_555 1_555
C32 C29 1_555 1_555
C33 C32 1_555 1_555
H24 C33 1_555 1_555
C34 C33 1_555 1_555
H25 C34 1_555 1_555
C35 H26 1_555 1_555
C36 C32 1_555 1_555
H27 C36 1_555 1_555
C37 C38 1_555 1_555
C38 H28 1_555 1_555
C39 C38 1_555 1_555
H29 C39 1_555 1_555
C40 C39 1_555 1_555
C41 C40 1_555 1_555
H30 C41 1_555 1_555
C42 C37 1_555 1_555
H31 C42 1_555 1_555
C43 C40 1_555 1_555
C44 C43 1_555 1_555
C45 C43 1_555 1_555
C46 C45 1_555 1_555
H32 C46 1_555 1_555
C47 C46 1_555 1_555
H33 C47 1_555 1_555
C48 C47 1_555 1_555
H34 C48 1_555 1_555
C49 C48 1_555 1_555
H35 C49 1_555 1_555
C50 C45 1_555 1_555
H36 C50 1_555 1_555
C51 C44 1_555 1_555
C52 C51 1_555 1_555
H37 C52 1_555 1_555
C53 C52 1_555 1_555
H38 C53 1_555 1_555
C54 C53 1_555 1_555
H39 C54 1_555 1_555
C55 C54 1_555 1_555
H40 C55 1_555 1_555
C56 C51 1_555 1_555
H41 C56 1_555 1_555
C57 C44 1_555 1_555
C58 C57 1_555 1_555
H42 C58 1_555 1_555
C59 C58 1_555 1_555
H43 C59 1_555 1_555
C60 C59 1_555 1_555
H44 C60 1_555 1_555
C61 C60 1_555 1_555
H45 C61 1_555 1_555
C62 C57 1_555 1_555
H46 C62 1_555 1_555
N1 C24 1_555 1_555
N2 C34 1_555 1_555
C7 C8 1_555 1_555
C13 C14 1_555 1_555
C19 C20 1_555 1_555
C25 C26 1_555 1_555
C27 N1 1_555 1_555
C31 N1 1_555 1_555
C35 C36 1_555 1_555
C35 N2 1_555 1_555
C37 N2 1_555 1_555
C41 C42 1_555 1_555
C49 C50 1_555 1_555
C55 C56 1_555 1_555
C61 C62 1_555 1_555

#END
