
#######################################################################
#
#                 Cambridge Crystallographic Data Centre
#                                CCDC 
#
#######################################################################
#
# If this CIF has been generated from an entry in the Cambridge 
# Structural Database, then it will include bibliographic, chemical, 
# crystal, experimental, refinement or atomic coordinate data resulting 
# from the CCDC's data processing and validation procedures.
#
#######################################################################

data_REBHOW
_chemical_formula_moiety         'C14 H11 N3 O2'
_chemical_name_systematic        2-(3-Methyl-2-nitrophenyl)benzimidazole
_symmetry_cell_setting           monoclinic
_symmetry_space_group_name_H-M   'P 21/c'
_symmetry_Int_Tables_number      14
_space_group_name_Hall           '-P 2ybc'
loop_
_symmetry_equiv_pos_site_id
_symmetry_equiv_pos_as_xyz
1 x,y,z
2 -x,1/2+y,1/2-z
3 -x,-y,-z
4 x,1/2-y,1/2+z
_cell_length_a                   7.7550(10)
_cell_length_b                   17.229(2)
_cell_length_c                   9.7792(12)
_cell_angle_alpha                90
_cell_angle_beta                 105.598(2)
_cell_angle_gamma                90
_cell_volume                     1258.49
_exptl_crystal_colour            yellow
_exptl_crystal_description       plate
_cell_formula_units_Z            4
_exptl_crystal_recrystallization_method THF
loop_
_atom_site_label
_atom_site_type_symbol
_atom_site_fract_x
_atom_site_fract_y
_atom_site_fract_z
O1 O 0.1315(3) 0.93223(13) 0.6428(2)
O2 O 0.3049(3) 0.93405(12) 0.8565(3)
N1 N 0.2419(3) 0.75972(11) 0.76393(18)
N2 N 0.2373(3) 0.71427(10) 0.97512(18)
H1 H 0.2038 0.7080 1.0514
N3 N 0.1622(3) 0.92207(11) 0.7707(3)
C1 C 0.3741(3) 0.70340(12) 0.8063(2)
C2 C 0.4948(4) 0.67434(15) 0.7374(3)
H2 H 0.4959 0.6921 0.6479
C3 C 0.6129(4) 0.61833(16) 0.8060(3)
H3 H 0.6949 0.5978 0.7618
C4 C 0.6125(5) 0.59179(17) 0.9398(3)
H4 H 0.6953 0.5543 0.9836
C5 C 0.4936(4) 0.61916(15) 1.0088(3)
H5 H 0.4935 0.6011 1.0984
C6 C 0.3732(4) 0.67509(12) 0.9395(2)
C7 C 0.1657(3) 0.76448(12) 0.8688(2)
C8 C 0.0210(3) 0.81823(14) 0.8751(2)
C9 C -0.1178(4) 0.79537(18) 0.9311(3)
H6 H -0.1202 0.7453 0.9659
C10 C -0.2530(4) 0.8477(2) 0.9350(3)
H7 H -0.3457 0.8319 0.9723
C11 C -0.2523(4) 0.9218(2) 0.8851(3)
H8 H -0.3445 0.9554 0.8891
C12 C -0.1177(3) 0.94750(17) 0.8290(3)
C13 C 0.0146(3) 0.89396(14) 0.8251(2)
C14 C -0.1166(4) 1.02973(17) 0.7793(3)
H9 H -0.0143 1.0378 0.7435
H10 H -0.1108 1.0644 0.8573
H11 H -0.2240 1.0397 0.7054
loop_
_geom_bond_atom_site_label_1
_geom_bond_atom_site_label_2
_geom_bond_site_symmetry_1
_geom_bond_site_symmetry_2
O1 N3 1_555 1_555
O2 N3 1_555 1_555
N1 C1 1_555 1_555
N2 H1 1_555 1_555
N3 C13 1_555 1_555
C1 C2 1_555 1_555
C2 H2 1_555 1_555
C3 C2 1_555 1_555
H3 C3 1_555 1_555
C4 C3 1_555 1_555
H4 C4 1_555 1_555
C5 C4 1_555 1_555
H5 C5 1_555 1_555
C6 N2 1_555 1_555
C7 N1 1_555 1_555
C8 C7 1_555 1_555
C9 C8 1_555 1_555
H6 C9 1_555 1_555
C10 C9 1_555 1_555
H7 C10 1_555 1_555
C11 C10 1_555 1_555
H8 C11 1_555 1_555
C12 C11 1_555 1_555
C13 C8 1_555 1_555
C14 C12 1_555 1_555
H9 C14 1_555 1_555
H10 C14 1_555 1_555
H11 C14 1_555 1_555
N2 C7 1_555 1_555
C1 C6 1_555 1_555
C5 C6 1_555 1_555
C12 C13 1_555 1_555

#END
