
#######################################################################
#
#                 Cambridge Crystallographic Data Centre
#                                CCDC 
#
#######################################################################
#
# If this CIF has been generated from an entry in the Cambridge 
# Structural Database, then it will include bibliographic, chemical, 
# crystal, experimental, refinement or atomic coordinate data resulting 
# from the CCDC's data processing and validation procedures.
#
#######################################################################

data_REBJAK
_chemical_formula_moiety         'C22 H25 F5 N4 O9'
_chemical_name_systematic        
'Pentafluorophenyl (3R,4R,5R)-5-(((3R,4R,5R)-5-azidomethyl-3,4-dimethoxy-2,3,4,5-tetrahydrofuran-3-carbonylamino)methyl)-3,4-dimethoxy-2,3,4,5-tetrahydrofuran-3-carboxylate'
_symmetry_cell_setting           orthorhombic
_symmetry_space_group_name_H-M   'P 21 21 21'
_symmetry_Int_Tables_number      19
_space_group_name_Hall           'P 2ac 2ab'
loop_
_symmetry_equiv_pos_site_id
_symmetry_equiv_pos_as_xyz
1 x,y,z
2 1/2+x,1/2-y,-z
3 -x,1/2+y,1/2-z
4 1/2-x,-y,1/2+z
_cell_length_a                   7.18471(11)
_cell_length_b                   11.04142(15)
_cell_length_c                   32.6727(5)
_cell_angle_alpha                90
_cell_angle_beta                 90
_cell_angle_gamma                90
_cell_volume                     2591.91
_exptl_crystal_colour            colorless
_exptl_crystal_description       lath
_cell_formula_units_Z            4
_exptl_crystal_recrystallization_method dichloromethane/cyclohexane
loop_
_atom_site_label
_atom_site_type_symbol
_atom_site_fract_x
_atom_site_fract_y
_atom_site_fract_z
O1 O 0.2249(3) 0.58178(16) 0.76221(5)
O2 O 0.1532(3) 0.66323(16) 0.60192(5)
F1 F 0.0797(3) 0.46794(18) 0.43728(5)
F2 F -0.3609(2) 0.65310(16) 0.52301(5)
O3 O -0.0124(3) 0.56503(15) 0.51413(5)
O4 O 0.3012(2) 0.35309(18) 0.68901(5)
O5 O -0.1177(2) 0.43686(17) 0.70491(5)
O6 O -0.1422(3) 0.40677(17) 0.59803(5)
O7 O 0.2815(3) 0.37069(16) 0.57241(5)
N1 N 0.0521(3) 0.59896(18) 0.68589(6)
F3 F -0.1759(3) 0.45764(19) 0.37705(5)
F4 F -0.5202(3) 0.5498(2) 0.38863(6)
O8 O 0.0116(4) 0.36179(17) 0.51341(6)
F5 F -0.6115(3) 0.64942(19) 0.46177(7)
O9 O 0.2700(3) 0.3302(2) 0.78835(7)
N2 N 0.5502(3) 0.2964(2) 0.84412(7)
C1 C 0.1661(3) 0.4742(2) 0.74192(7)
C2 C -0.1368(4) 0.5586(2) 0.48162(7)
C3 C 0.1615(4) 0.4710(2) 0.56830(7)
C4 C 0.0187(3) 0.5017(2) 0.70912(7)
C5 C -0.0763(3) 0.6374(2) 0.65421(7)
C6 C 0.4169(4) 0.3390(3) 0.75934(8)
C7 C 0.0248(4) 0.4698(2) 0.60462(7)
C8 C -0.0180(4) 0.6029(2) 0.61125(7)
C9 C 0.2586(4) 0.5935(3) 0.57352(7)
C10 C -0.3142(4) 0.6050(3) 0.48672(8)
C11 C 0.5819(4) 0.3878(3) 0.78228(8)
N3 N 0.6467(3) 0.3025(3) 0.81486(8)
N4 N 0.4711(4) 0.2836(3) 0.87426(8)
C12 C 0.3459(4) 0.4209(3) 0.72428(7)
C13 C 0.1054(4) 0.3741(3) 0.77071(9)
C14 C 0.0506(4) 0.4548(2) 0.52899(7)
C15 C -0.2226(6) 0.5058(3) 0.41321(8)
C16 C -0.0917(4) 0.5098(3) 0.44416(8)
C17 C -0.3964(5) 0.5523(3) 0.41902(9)
C18 C -0.1239(5) 0.2786(3) 0.60382(10)
C19 C -0.4410(4) 0.6028(3) 0.45602(10)
C20 C 0.4599(5) 0.3180(4) 0.66591(10)
C21 C 0.4293(5) 0.3663(3) 0.54282(11)
C22 C 0.0981(6) 0.6264(3) 0.79185(10)
H1 H -0.0899 0.7268 0.6563
H2 H -0.1990 0.5981 0.6594
H3 H 0.4413 0.2586 0.7484
H4 H 0.0889 0.4387 0.6294
H5 H -0.1121 0.6319 0.5909
H6 H 0.2639 0.6369 0.5467
H7 H 0.3825 0.5806 0.5845
H8 H 0.6842 0.4000 0.7632
H9 H 0.5487 0.4654 0.7955
H10 H 0.4355 0.4855 0.7174
H11 H 0.0405 0.3081 0.7561
H12 H 0.0217 0.4038 0.7920
H13 H -0.2449 0.2424 0.6020
H14 H -0.0467 0.2455 0.5819
H15 H -0.0668 0.2635 0.6306
H16 H 0.4143 0.2762 0.6411
H17 H 0.5264 0.3928 0.6588
H18 H 0.5365 0.2637 0.6820
H19 H 0.4888 0.2887 0.5447
H20 H 0.3813 0.3773 0.5154
H21 H 0.5206 0.4291 0.5487
H22 H 0.1359 0.7089 0.7991
H23 H -0.0278 0.6307 0.7815
H24 H 0.1014 0.5761 0.8165
H25 H 0.1579 0.6462 0.6911
loop_
_geom_bond_atom_site_label_1
_geom_bond_atom_site_label_2
_geom_bond_site_symmetry_1
_geom_bond_site_symmetry_2
O1 C1 1_555 1_555
O2 C8 1_555 1_555
F1 C16 1_555 1_555
F2 C10 1_555 1_555
O3 C2 1_555 1_555
O4 C12 1_555 1_555
O5 C4 1_555 1_555
O6 C7 1_555 1_555
O7 C3 1_555 1_555
N1 C4 1_555 1_555
F3 C15 1_555 1_555
F4 C17 1_555 1_555
O8 C14 1_555 1_555
F5 C19 1_555 1_555
O9 C6 1_555 1_555
N2 N3 1_555 1_555
C1 C4 1_555 1_555
C2 C10 1_555 1_555
C3 C7 1_555 1_555
C5 N1 1_555 1_555
C6 C11 1_555 1_555
C7 C8 1_555 1_555
C8 C5 1_555 1_555
C9 O2 1_555 1_555
C10 C19 1_555 1_555
C11 N3 1_555 1_555
N4 N2 1_555 1_555
C12 C1 1_555 1_555
C13 O9 1_555 1_555
C14 O3 1_555 1_555
C15 C16 1_555 1_555
C16 C2 1_555 1_555
C17 C15 1_555 1_555
C18 O6 1_555 1_555
C19 C17 1_555 1_555
C20 O4 1_555 1_555
C21 O7 1_555 1_555
C22 O1 1_555 1_555
H1 C5 1_555 1_555
H2 C5 1_555 1_555
H3 C6 1_555 1_555
H4 C7 1_555 1_555
H5 C8 1_555 1_555
H6 C9 1_555 1_555
H7 C9 1_555 1_555
H8 C11 1_555 1_555
H9 C11 1_555 1_555
H10 C12 1_555 1_555
H11 C13 1_555 1_555
H12 C13 1_555 1_555
H13 C18 1_555 1_555
H14 C18 1_555 1_555
H15 C18 1_555 1_555
H16 C20 1_555 1_555
H17 C20 1_555 1_555
H18 C20 1_555 1_555
H19 C21 1_555 1_555
H20 C21 1_555 1_555
H21 C21 1_555 1_555
H22 C22 1_555 1_555
H23 C22 1_555 1_555
H24 C22 1_555 1_555
H25 N1 1_555 1_555
C1 C13 1_555 1_555
C3 C9 1_555 1_555
C3 C14 1_555 1_555
C6 C12 1_555 1_555

#END
