
#######################################################################
#
#                 Cambridge Crystallographic Data Centre
#                                CCDC 
#
#######################################################################
#
# If this CIF has been generated from an entry in the Cambridge 
# Structural Database, then it will include bibliographic, chemical, 
# crystal, experimental, refinement or atomic coordinate data resulting 
# from the CCDC's data processing and validation procedures.
#
#######################################################################

data_REBKEP
_chemical_compound_source        'roots of Sinomenium acutum'
_chemical_name_common            8-Oxotetrahydropalmatine
_chemical_formula_moiety         'C21 H23 N1 O5'
_chemical_name_systematic        
2,3,9,10-Tetramethoxy-5,6,13,13a-tetrahydroisoquino(3,2-a)isoquinolin-8-one
_chemical_properties_biological  
'roots and stems of source plant used in folk medicine to cure rheumatism, dropsy and dermatophytosis'
_symmetry_cell_setting           monoclinic
_symmetry_space_group_name_H-M   'P 21'
_symmetry_Int_Tables_number      4
_space_group_name_Hall           'P 2yb'
loop_
_symmetry_equiv_pos_site_id
_symmetry_equiv_pos_as_xyz
1 x,y,z
2 -x,1/2+y,-z
_cell_length_a                   7.8750(10)
_cell_length_b                   7.8700(10)
_cell_length_c                   15.139(3)
_cell_angle_alpha                90
_cell_angle_beta                 93.335(15)
_cell_angle_gamma                90
_cell_volume                     936.669
_exptl_crystal_colour            yellow
_exptl_crystal_description       block
_cell_formula_units_Z            2
_exptl_crystal_recrystallization_method 'petroleum ether/acetone'
loop_
_atom_site_label
_atom_site_type_symbol
_atom_site_fract_x
_atom_site_fract_y
_atom_site_fract_z
O1 O 0.1582(4) 0.4489(4) 0.09476(14)
O2 O 0.3142(4) 0.7033(5) 0.03323(13)
O3 O 0.2758(3) 1.0031(2) 0.56790(13)
O4 O 0.2274(3) 0.8467(3) 0.72332(13)
O5 O 0.2325(3) 0.5582(3) 0.80954(11)
N1 N 0.2087(3) 0.8574(3) 0.44350(14)
C1 C 0.1574(4) 0.5759(4) 0.24272(17)
H1 H 0.1018 0.4827 0.2654
C2 C 0.1964(4) 0.5767(5) 0.15431(18)
C3 C 0.2794(4) 0.7157(5) 0.12087(19)
C4 C 0.3171(4) 0.8521(5) 0.17394(19)
H2 H 0.3703 0.9459 0.1504
C5 C 0.3114(4) 1.0098(4) 0.31884(18)
H3 H 0.2959 1.1107 0.2825
H4 H 0.4280 1.0081 0.3433
C6 C 0.1908(4) 1.0144(4) 0.39305(19)
H5 H 0.2170 1.1109 0.4313
H6 H 0.0746 1.0262 0.3688
C7 C 0.2462(4) 0.8664(3) 0.53230(17)
C8 C 0.2420(3) 0.7020(4) 0.67474(17)
C9 C 0.2405(3) 0.5464(4) 0.71995(17)
C10 C 0.2468(4) 0.3969(4) 0.67366(17)
H7 H 0.2432 0.2937 0.7034
C11 C 0.2586(4) 0.3990(3) 0.58252(18)
H8 H 0.2663 0.2969 0.5521
C12 C 0.2747(4) 0.5575(4) 0.43811(16)
H9 H 0.2391 0.4496 0.4121
H10 H 0.3929 0.5754 0.4259
C13 C 0.2775(3) 0.8548(4) 0.26350(17)
C14 C 0.2007(3) 0.7134(4) 0.29786(17)
C15 C 0.1679(4) 0.6984(4) 0.39601(15)
H11 H 0.0475 0.6717 0.4018
C16 C 0.2490(3) 0.7043(4) 0.58232(16)
C17 C 0.2591(3) 0.5501(4) 0.53646(16)
C18 C 0.0655(6) 0.3100(5) 0.1208(2)
H12 H 0.1315 0.2471 0.1650
H13 H 0.0387 0.2384 0.0706
H14 H -0.0378 0.3483 0.1450
C19 C 0.3840(7) 0.8456(8) -0.0072(2)
H15 H 0.3141 0.9433 0.0019
H16 H 0.3891 0.8250 -0.0695
H17 H 0.4967 0.8659 0.0183
C20 C 0.3873(5) 0.9198(4) 0.75308(19)
H18 H 0.4575 0.8342 0.7819
H19 H 0.3683 1.0101 0.7940
H20 H 0.4431 0.9640 0.7033
C21 C 0.1907(5) 0.4072(5) 0.8559(2)
H21 H 0.0872 0.3600 0.8297
H22 H 0.1758 0.4340 0.9168
H23 H 0.2810 0.3260 0.8523
loop_
_geom_bond_atom_site_label_1
_geom_bond_atom_site_label_2
_geom_bond_site_symmetry_1
_geom_bond_site_symmetry_2
O1 C2 1_555 1_555
O2 C3 1_555 1_555
O3 C7 1_555 1_555
O4 C8 1_555 1_555
O5 C9 1_555 1_555
N1 C6 1_555 1_555
C1 H1 1_555 1_555
C2 C1 1_555 1_555
C3 C2 1_555 1_555
C4 C3 1_555 1_555
H2 C4 1_555 1_555
C5 H3 1_555 1_555
H4 C5 1_555 1_555
C6 C5 1_555 1_555
H5 C6 1_555 1_555
H6 C6 1_555 1_555
C7 N1 1_555 1_555
C8 C9 1_555 1_555
C9 C10 1_555 1_555
C10 H7 1_555 1_555
C11 C10 1_555 1_555
H8 C11 1_555 1_555
C12 H9 1_555 1_555
H10 C12 1_555 1_555
C13 C4 1_555 1_555
C14 C1 1_555 1_555
C15 N1 1_555 1_555
H11 C15 1_555 1_555
C16 C7 1_555 1_555
C17 C11 1_555 1_555
C18 O1 1_555 1_555
H12 C18 1_555 1_555
H13 C18 1_555 1_555
H14 C18 1_555 1_555
C19 O2 1_555 1_555
H15 C19 1_555 1_555
H16 C19 1_555 1_555
H17 C19 1_555 1_555
C20 O4 1_555 1_555
H18 C20 1_555 1_555
H19 C20 1_555 1_555
H20 C20 1_555 1_555
C21 O5 1_555 1_555
H21 C21 1_555 1_555
H22 C21 1_555 1_555
H23 C21 1_555 1_555
C5 C13 1_555 1_555
C8 C16 1_555 1_555
C12 C15 1_555 1_555
C12 C17 1_555 1_555
C13 C14 1_555 1_555
C14 C15 1_555 1_555
C16 C17 1_555 1_555

#END
