
#######################################################################
#
#                 Cambridge Crystallographic Data Centre
#                                CCDC 
#
#######################################################################
#
# If this CIF has been generated from an entry in the Cambridge 
# Structural Database, then it will include bibliographic, chemical, 
# crystal, experimental, refinement or atomic coordinate data resulting 
# from the CCDC's data processing and validation procedures.
#
#######################################################################

data_REBMET
_chemical_formula_moiety         'C175 H149 N13 O4,4(H2 O1)'
_chemical_name_systematic        
'2,6-bis((3,8-di-t-butyl-10-{[6-({3,8-di-t-butyl-10-[(4-methoxy-3-{[1-(naphthalen-1-yl)ethyl]carbamoyl}phenyl)ethynyl]-11,12-dihydroindolo[2,3-a]carbazol-1-yl}ethynyl)pyridin-2-yl]ethynyl}-11,12-dihydroindolo[2,3-a]carbazol-1-yl)ethynyl)pyridine unknown solvate tetrahydrate'
_symmetry_cell_setting           triclinic
_symmetry_space_group_name_H-M   'P -1'
_symmetry_Int_Tables_number      2
_space_group_name_Hall           '-P 1'
loop_
_symmetry_equiv_pos_site_id
_symmetry_equiv_pos_as_xyz
1 x,y,z
2 -x,-y,-z
_cell_length_a                   18.4463(12)
_cell_length_b                   18.6186(12)
_cell_length_c                   27.4771(17)
_cell_angle_alpha                76.253(3)
_cell_angle_beta                 73.468(3)
_cell_angle_gamma                68.847(3)
_cell_volume                     8340.51
_exptl_crystal_colour            'light yellow'
_exptl_crystal_description       block
_cell_formula_units_Z            2
_exptl_crystal_recrystallization_method 'Vapour deposition'
loop_
_atom_site_label
_atom_site_type_symbol
_atom_site_fract_x
_atom_site_fract_y
_atom_site_fract_z
O1 O -0.09461(8) 0.66126(8) 0.40782(5)
O2 O 0.14111(8) 0.60262(8) 0.41970(6)
O3 O 0.27786(9) 0.59763(10) 0.01485(6)
O4 O 0.36855(10) 0.37175(10) 0.08884(7)
N1 N 0.30541(9) 0.30355(9) 0.45080(6)
H1 H 0.277062 0.347324 0.435239
N2 N 0.42413(9) 0.40908(9) 0.41734(6)
H2 H 0.385198 0.438440 0.401905
N3 N 0.08968(10) 0.52371(9) 0.29470(6)
H3 H 0.139043 0.512384 0.297587
N4 N 0.14368(10) 0.33922(10) 0.32822(6)
H4 H 0.185681 0.351622 0.327648
N5 N 0.37412(11) 0.53460(11) 0.20048(7)
H5 H 0.364566 0.489875 0.212244
N6 N 0.21624(11) 0.55773(12) 0.16723(7)
H6 H 0.229490 0.509549 0.183315
N7 N 0.53695(11) 0.18785(11) 0.21139(7)
H7 H 0.502565 0.225444 0.195521
N8 N 0.62523(10) 0.31537(10) 0.16162(7)
H8 H 0.579610 0.336112 0.151836
N9 N 0.30563(10) 0.64838(10) 0.30545(6)
N10 N 0.41385(10) 0.28360(10) 0.32299(7)
N11 N 0.22007(11) 0.29886(12) 0.20470(7)
N12 N 0.03796(9) 0.69957(9) 0.39565(6)
H9 H -0.010210 0.714621 0.389784
N13 N 0.27558(11) 0.45078(12) 0.04589(7)
H10 H 0.256409 0.497191 0.028748
C1 C 0.20806(11) 0.22791(11) 0.47877(7)
C2 C 0.28116(11) 0.23848(11) 0.47311(8)
C3 C 0.38193(11) 0.28795(11) 0.45715(8)
C4 C 0.43183(11) 0.33442(11) 0.44379(8)
C5 C 0.48789(11) 0.42959(12) 0.41933(8)
C6 C 0.50635(12) 0.49927(12) 0.39949(8)
C7 C 0.57182(12) 0.50624(12) 0.41202(8)
H11 H 0.584398 0.553428 0.399464
C8 C 0.61987(12) 0.44649(13) 0.44240(8)
C9 C 0.60282(12) 0.37647(13) 0.45845(9)
H12 H 0.635911 0.334233 0.477421
C10 C 0.53797(12) 0.36742(12) 0.44711(8)
C11 C 0.50316(11) 0.30515(12) 0.46143(8)
C12 C 0.52794(12) 0.22906(12) 0.48778(9)
H13 H 0.577462 0.209927 0.497952
C13 C 0.48068(12) 0.18253(12) 0.49878(8)
H14 H 0.497537 0.130663 0.515977
C14 C 0.40689(12) 0.21238(12) 0.48433(8)
C15 C 0.34293(11) 0.18039(11) 0.49402(8)
C16 C 0.33089(12) 0.10947(11) 0.51986(8)
H15 H 0.372041 0.070054 0.534265
C17 C 0.25966(12) 0.09628(11) 0.52459(8)
C18 C 0.19930(12) 0.15592(11) 0.50364(8)
H16 H 0.150626 0.146909 0.506510
C19 C 0.05400(12) 0.66892(12) 0.26886(8)
C20 C 0.03976(12) 0.59697(11) 0.28095(7)
C21 C 0.04865(12) 0.47098(12) 0.30320(7)
C22 C 0.07234(12) 0.39003(12) 0.31766(7)
C23 C 0.13695(13) 0.26506(12) 0.33989(8)
C24 C 0.19417(13) 0.19406(12) 0.35346(8)
C25 C 0.17287(14) 0.12675(12) 0.36087(8)
H17 H 0.210209 0.077986 0.370166
C26 C 0.10040(13) 0.12727(13) 0.35541(8)
C27 C 0.04458(13) 0.19857(12) 0.34275(8)
H18 H -0.005654 0.200156 0.339034
C28 C 0.06242(13) 0.26792(12) 0.33550(8)
C29 C 0.01934(13) 0.34952(12) 0.32195(8)
C30 C -0.05769(13) 0.38927(13) 0.31294(8)
H19 H -0.093253 0.361190 0.316304
C31 C -0.08108(13) 0.46830(12) 0.29937(8)
H20 H -0.133039 0.495290 0.293295
C32 C -0.02832(12) 0.50991(12) 0.29436(8)
C33 C -0.03377(12) 0.59161(12) 0.28009(7)
C34 C -0.09527(12) 0.65929(12) 0.26789(8)
H21 H -0.145141 0.655708 0.267409
C35 C -0.08323(12) 0.73168(12) 0.25648(8)
C36 C -0.00866(12) 0.73467(12) 0.25684(8)
H22 H -0.000265 0.783998 0.248463
C37 C 0.49711(13) 0.50592(13) 0.23324(8)
C38 C 0.43718(14) 0.55286(14) 0.20641(9)
C39 C 0.32902(14) 0.59827(14) 0.17308(8)
C40 C 0.25781(14) 0.60930(14) 0.15836(8)
C41 C 0.15041(15) 0.59480(14) 0.14654(8)
C42 C 0.09225(14) 0.56430(15) 0.14541(9)
C43 C 0.03156(16) 0.61259(16) 0.12053(9)
H23 H -0.009168 0.593296 0.119692
C44 C 0.02877(16) 0.68943(16) 0.09652(9)
C45 C 0.08730(16) 0.71780(16) 0.09915(9)
H24 H 0.085451 0.769640 0.083730
C46 C 0.14922(15) 0.67156(15) 0.12411(9)
C47 C 0.21929(15) 0.68072(15) 0.13212(9)
C48 C 0.25377(16) 0.74210(15) 0.11986(9)
H25 H 0.228377 0.790891 0.101772
C49 C 0.32247(16) 0.73158(15) 0.13377(9)
H26 H 0.344398 0.773110 0.125330
C50 C 0.36187(15) 0.65901(14) 0.16082(9)
C51 C 0.43178(15) 0.62911(14) 0.18246(9)
C52 C 0.48913(15) 0.66010(15) 0.18543(9)
H27 H 0.486163 0.712071 0.169696
C53 C 0.55006(15) 0.61661(15) 0.21082(9)
C54 C 0.55358(15) 0.53964(14) 0.23400(9)
H28 H 0.595831 0.509381 0.250811
C55 C 0.45755(13) 0.09658(14) 0.25252(8)
C56 C 0.52602(13) 0.11961(13) 0.24014(8)
C57 C 0.61239(13) 0.18612(13) 0.21218(8)
C58 C 0.65022(13) 0.24326(13) 0.19076(8)
C59 C 0.68479(13) 0.34906(13) 0.15060(8)
C60 C 0.68704(13) 0.42138(13) 0.12181(8)
C61 C 0.75682(13) 0.44023(14) 0.11487(9)
H29 H 0.760465 0.488352 0.094597
C62 C 0.82145(14) 0.39114(15) 0.13654(9)
C63 C 0.81610(14) 0.32038(15) 0.16554(10)
H30 H 0.858874 0.286706 0.180973
C64 C 0.74895(13) 0.29793(14) 0.17237(9)
C65 C 0.72677(13) 0.22898(14) 0.19874(9)
C66 C 0.76459(14) 0.15958(14) 0.22773(11)
H31 H 0.815813 0.151423 0.233081
C67 C 0.72762(14) 0.10291(14) 0.24857(10)
H32 H 0.753295 0.055574 0.267889
C68 C 0.65082(13) 0.11669(13) 0.24059(9)
C69 C 0.59411(13) 0.07340(13) 0.25916(8)
C70 C 0.59443(13) 0.00302(13) 0.29146(9)
H33 H 0.640475 -0.028192 0.304375
C71 C 0.52726(14) -0.02168(13) 0.30485(8)
C72 C 0.46117(14) 0.02523(14) 0.28466(8)
H34 H 0.415993 0.007804 0.293203
C73 C 0.36586(12) 0.66749(12) 0.31162(8)
C74 C 0.25499(12) 0.70220(12) 0.27789(8)
C75 C 0.26300(13) 0.77525(13) 0.25562(8)
H35 H 0.226282 0.811704 0.236310
C76 C 0.32586(13) 0.79352(13) 0.26230(9)
H36 H 0.332728 0.842891 0.247600
C77 C 0.37805(13) 0.73942(12) 0.29041(9)
H37 H 0.421538 0.750689 0.295318
C78 C 0.40695(13) 0.21429(12) 0.34856(8)
C79 C 0.48434(13) 0.29527(13) 0.31329(8)
C80 C 0.55067(14) 0.23817(14) 0.32940(9)
H38 H 0.600741 0.246886 0.321185
C81 C 0.54097(15) 0.16896(14) 0.35754(9)
H39 H 0.584313 0.130268 0.370194
C82 C 0.46993(14) 0.15548(14) 0.36738(9)
H40 H 0.463214 0.107682 0.386429
C83 C 0.14394(14) 0.33350(14) 0.19887(8)
C84 C 0.24502(14) 0.22081(14) 0.21674(8)
C85 C 0.19622(14) 0.17557(15) 0.22237(9)
H41 H 0.216508 0.120402 0.229571
C86 C 0.11906(15) 0.21117(16) 0.21746(9)
H42 H 0.084817 0.181260 0.221821
C87 C 0.09175(14) 0.29160(15) 0.20601(9)
H43 H 0.038095 0.317821 0.203074
C88 C 0.09429(11) 0.35229(11) 0.45191(8)
C89 C 0.14473(11) 0.29240(11) 0.46240(8)
C90 C 0.45841(12) 0.56081(12) 0.36874(8)
C91 C 0.41703(12) 0.60986(12) 0.34246(8)
C92 C 0.18834(12) 0.68351(12) 0.27345(8)
C93 C 0.12793(12) 0.67558(12) 0.27063(8)
C94 C 0.26954(14) 0.19497(12) 0.35570(8)
C95 C 0.33188(13) 0.20343(12) 0.35460(8)
C96 C 0.49020(13) 0.36903(14) 0.28432(9)
C97 C 0.49593(13) 0.43112(13) 0.26038(8)
C98 C 0.10140(14) 0.48440(16) 0.16669(9)
C99 C 0.12047(14) 0.41551(16) 0.18326(8)
C100 C 0.32463(15) 0.18313(15) 0.22469(9)
C101 C 0.38704(15) 0.14381(14) 0.23617(9)
C102 C 0.62038(14) 0.46980(13) 0.09998(8)
C103 C 0.56109(13) 0.50216(13) 0.08324(8)
C104 C 0.04184(11) 0.42939(11) 0.44040(7)
C105 C 0.07307(11) 0.49014(11) 0.43165(7)
H44 H 0.126902 0.478148 0.433552
C106 C 0.02888(11) 0.56755(11) 0.42024(7)
C107 C -0.05108(11) 0.58458(11) 0.41840(7)
C108 C -0.17826(12) 0.68064(13) 0.41202(9)
H45 H -0.187198 0.660568 0.385079
H46 H -0.202579 0.737382 0.408102
H47 H -0.202374 0.657257 0.445770
C109 C -0.08328(12) 0.52417(11) 0.42738(8)
H48 H -0.137298 0.535856 0.426015
C110 C -0.03722(12) 0.44699(11) 0.43833(8)
H49 H -0.059811 0.406343 0.444381
C111 C 0.07306(11) 0.62489(11) 0.41188(7)
C112 C 0.07930(12) 0.75654(11) 0.38757(8)
H50 H 0.134566 0.735100 0.367185
C113 C 0.08542(11) 0.77075(10) 0.43827(8)
C114 C 0.02546(12) 0.76638(12) 0.48086(8)
H51 H -0.018835 0.754324 0.477948
C115 C 0.02781(14) 0.77926(13) 0.52867(9)
H52 H -0.014739 0.776133 0.557448
C116 C 0.09048(14) 0.79610(12) 0.53386(8)
H53 H 0.092195 0.803811 0.566427
C117 C 0.15371(12) 0.80231(11) 0.49087(8)
C118 C 0.21887(13) 0.82172(12) 0.49534(9)
H54 H 0.220734 0.829963 0.527715
C119 C 0.27883(13) 0.82872(14) 0.45388(10)
H55 H 0.321602 0.842684 0.457385
C120 C 0.27765(13) 0.81537(14) 0.40599(9)
H56 H 0.320009 0.819756 0.377342
C121 C 0.21591(12) 0.79605(12) 0.40022(8)
H57 H 0.216078 0.787037 0.367570
C122 C 0.15156(11) 0.78930(11) 0.44240(8)
C123 C 0.03670(14) 0.83082(12) 0.35589(9)
H58 H 0.037852 0.819333 0.322616
H59 H 0.063560 0.869801 0.350430
H60 H -0.018725 0.851101 0.374228
C124 C 0.48936(13) 0.53096(13) 0.06504(8)
C125 C 0.44707(13) 0.47906(14) 0.07088(8)
H61 H 0.467935 0.426888 0.086537
C126 C 0.37650(13) 0.50003(13) 0.05499(8)
C127 C 0.34718(13) 0.57785(14) 0.03093(8)
C128 C 0.24976(15) 0.67383(15) -0.01298(10)
H62 H 0.291411 0.682252 -0.043014
H63 H 0.236426 0.712903 0.009272
H64 H 0.202195 0.678544 -0.024282
C129 C 0.38849(14) 0.62949(14) 0.02462(9)
H65 H 0.368488 0.681526 0.008472
C130 C 0.45863(13) 0.60656(14) 0.04149(8)
H66 H 0.485973 0.643072 0.036868
C131 C 0.33976(14) 0.43671(14) 0.06450(8)
C132 C 0.23586(14) 0.39317(15) 0.05259(9)
H67 H 0.228688 0.368107 0.089351
C133 C 0.28252(15) 0.33023(15) 0.01916(9)
C134 C 0.34208(16) 0.34050(17) -0.02261(9)
H68 H 0.356108 0.386833 -0.029552
C135 C 0.3826(2) 0.2839(2) -0.05522(11)
H69 H 0.424089 0.292041 -0.083502
C136 C 0.3630(2) 0.2178(2) -0.04674(12)
H70 H 0.390766 0.180132 -0.069239
C137 C 0.30136(19) 0.20424(18) -0.00450(11)
C138 C 0.2791(2) 0.1356(2) 0.00434(13)
H71 H 0.305330 0.098318 -0.018525
C139 C 0.2206(2) 0.1232(2) 0.04537(13)
H72 H 0.205530 0.077743 0.050683
C140 C 0.1826(2) 0.1769(2) 0.07956(12)
H73 H 0.142228 0.167331 0.108228
C141 C 0.20283(17) 0.24335(17) 0.07244(10)
H74 H 0.177007 0.278609 0.096663
C142 C 0.26146(16) 0.26007(16) 0.02960(9)
C143 C 0.15397(15) 0.43651(17) 0.04066(10)
H75 H 0.122886 0.473048 0.065133
H76 H 0.126343 0.399058 0.043465
H77 H 0.159969 0.465314 0.005692
C144 C 0.24682(12) 0.01899(11) 0.55434(8)
C145 C 0.24357(19) 0.01487(15) 0.61114(9)
H78 H 0.292964 0.019558 0.614744
H79 H 0.237530 -0.035103 0.630056
H80 H 0.198126 0.057529 0.625023
C146 C 0.16944(14) 0.01068(13) 0.54956(10)
H81 H 0.123982 0.053624 0.563078
H82 H 0.163658 -0.039035 0.569206
H83 H 0.171255 0.012129 0.513358
C147 C 0.31606(14) -0.04935(13) 0.53374(10)
H84 H 0.320992 -0.045156 0.496785
H85 H 0.306152 -0.098352 0.551365
H86 H 0.365519 -0.048426 0.539847
C148 C 0.69030(12) 0.45733(13) 0.45584(9)
C149 C 0.69823(15) 0.41684(15) 0.51077(10)
H87 H 0.649137 0.439310 0.535218
H88 H 0.743251 0.424456 0.518714
H89 H 0.707350 0.360988 0.513312
C150 C 0.76754(14) 0.41995(19) 0.41885(12)
H90 H 0.774990 0.364390 0.421636
H91 H 0.812659 0.426092 0.427636
H92 H 0.764403 0.445425 0.383595
C151 C 0.67911(15) 0.54325(14) 0.45334(10)
H93 H 0.682391 0.569040 0.417623
H94 H 0.720922 0.548063 0.466577
H95 H 0.626813 0.567886 0.474198
C152 C -0.14944(13) 0.80840(13) 0.24585(9)
C153 C -0.22449(14) 0.79469(14) 0.24189(10)
H96 H -0.211029 0.763799 0.214382
H97 H -0.264477 0.844932 0.234202
H98 H -0.245976 0.766573 0.274545
C154 C -0.11962(17) 0.85712(16) 0.19588(10)
H99 H -0.075383 0.871268 0.199574
H100 H -0.163092 0.904557 0.188503
H101 H -0.101305 0.826698 0.167600
C155 C -0.17172(15) 0.85464(14) 0.29012(10)
H102 H -0.192853 0.825031 0.322170
H103 H -0.212278 0.904768 0.283130
H104 H -0.124275 0.863686 0.293374
C156 C 0.08428(15) 0.04924(13) 0.36245(9)
C157 C 0.00425(15) 0.06002(14) 0.35188(12)
H105 H -0.038427 0.092343 0.375636
H106 H -0.003177 0.009049 0.356716
H107 H 0.002706 0.085611 0.316463
C158 C 0.15077(15) -0.00244(14) 0.32452(10)
H108 H 0.148642 0.023120 0.289165
H109 H 0.142710 -0.053183 0.329689
H110 H 0.202890 -0.009859 0.330797
C159 C 0.08655(18) 0.00723(14) 0.41739(10)
H111 H 0.138992 -0.002467 0.424020
H112 H 0.076745 -0.042487 0.421646
H113 H 0.045352 0.039742 0.441667
C160 C 0.61375(16) 0.64856(16) 0.21513(11)
C161 C 0.69400(17) 0.6072(2) 0.18219(13)
H114 H 0.708435 0.550991 0.194350
H115 H 0.735084 0.626908 0.184872
H116 H 0.689782 0.617177 0.146272
C162 C 0.62134(18) 0.63406(18) 0.27129(11)
H117 H 0.570011 0.659971 0.292574
H118 H 0.661888 0.655039 0.273336
H119 H 0.636945 0.577941 0.283710
C163 C 0.59398(18) 0.73648(16) 0.19645(11)
H120 H 0.592790 0.747120 0.159953
H121 H 0.634728 0.754766 0.201236
H122 H 0.541785 0.763737 0.216226
C164 C -0.03546(17) 0.73506(17) 0.06529(11)
C165 C -0.11851(18) 0.73191(19) 0.09530(13)
H123 H -0.118216 0.677632 0.103897
H124 H -0.157584 0.761905 0.074210
H125 H -0.132802 0.754187 0.126960
C166 C -0.0142(2) 0.6966(2) 0.01683(12)
H126 H 0.035489 0.703766 -0.005379
H127 H -0.057186 0.720836 -0.001854
H128 H -0.007279 0.640797 0.027014
C167 C -0.0400(2) 0.82060(19) 0.04791(12)
H129 H -0.049043 0.845058 0.077912
H130 H -0.084119 0.847588 0.030321
H131 H 0.010091 0.824010 0.024354
C168 C 0.52299(15) -0.09724(14) 0.34117(9)
C169 C 0.59590(15) -0.13736(15) 0.36471(10)
H132 H 0.643685 -0.151451 0.337365
H133 H 0.589666 -0.184532 0.388121
H134 H 0.601186 -0.101894 0.383786
C170 C 0.5166(3) -0.15375(18) 0.31085(13)
H135 H 0.468829 -0.129586 0.296583
H136 H 0.513154 -0.202042 0.333855
H137 H 0.563876 -0.165558 0.282848
C171 C 0.44858(15) -0.07852(19) 0.38518(11)
H138 H 0.451719 -0.041115 0.403668
H139 H 0.446050 -0.126485 0.408885
H140 H 0.400694 -0.056055 0.370946
C172 C 0.89642(15) 0.41417(17) 0.13048(10)
C173 C 0.97095(15) 0.34530(19) 0.11540(10)
H141 H 0.971890 0.300636 0.142873
H142 H 1.018748 0.360206 0.110162
H143 H 0.969740 0.331153 0.083558
C174 C 0.8998(2) 0.4845(2) 0.08944(13)
H144 H 0.902462 0.472107 0.056124
H145 H 0.947136 0.498166 0.087675
H146 H 0.851914 0.528622 0.098060
C175 C 0.89626(15) 0.43392(16) 0.18114(10)
H147 H 0.849335 0.478607 0.190286
H148 H 0.944646 0.446890 0.177671
H149 H 0.894680 0.388987 0.208104
O5 O 0.28318(8) 0.50900(8) 0.37116(6)
H150 H 0.239353 0.531880 0.391599
H151 H 0.298271 0.543693 0.346994
O6 O 0.26749(9) 0.40296(9) 0.32455(7)
H152 H 0.313146 0.366402 0.319344
H153 H 0.271475 0.437982 0.338817
O7 O 0.29179(10) 0.40502(11) 0.21879(6)
H154 H 0.272693 0.412546 0.250645
H155 H 0.263716 0.383085 0.210267
O8 O 0.44895(9) 0.32938(10) 0.16644(6)
H156 H 0.430608 0.341420 0.138696
H157 H 0.412019 0.351684 0.190940
loop_
_geom_bond_atom_site_label_1
_geom_bond_atom_site_label_2
_geom_bond_site_symmetry_1
_geom_bond_site_symmetry_2
O1 C107 1_555 1_555
O2 C111 1_555 1_555
O3 C127 1_555 1_555
O4 C131 1_555 1_555
N1 H1 1_555 1_555
N2 H2 1_555 1_555
N3 H3 1_555 1_555
N4 H4 1_555 1_555
N5 H5 1_555 1_555
N6 H6 1_555 1_555
N7 H7 1_555 1_555
N8 H8 1_555 1_555
N9 C73 1_555 1_555
N10 C78 1_555 1_555
N11 C83 1_555 1_555
N12 H9 1_555 1_555
N13 H10 1_555 1_555
C1 C2 1_555 1_555
C2 N1 1_555 1_555
C3 N1 1_555 1_555
C4 N2 1_555 1_555
C5 N2 1_555 1_555
C6 C5 1_555 1_555
C7 C6 1_555 1_555
H11 C7 1_555 1_555
C8 C7 1_555 1_555
C9 C8 1_555 1_555
H12 C9 1_555 1_555
C10 C5 1_555 1_555
C11 C4 1_555 1_555
C12 C11 1_555 1_555
H13 C12 1_555 1_555
C13 C12 1_555 1_555
H14 C13 1_555 1_555
C14 C3 1_555 1_555
C15 C2 1_555 1_555
C16 C15 1_555 1_555
H15 C16 1_555 1_555
C17 C16 1_555 1_555
C18 C1 1_555 1_555
H16 C18 1_555 1_555
C19 C20 1_555 1_555
C20 N3 1_555 1_555
C21 N3 1_555 1_555
C22 N4 1_555 1_555
C23 N4 1_555 1_555
C24 C23 1_555 1_555
C25 C24 1_555 1_555
H17 C25 1_555 1_555
C26 C25 1_555 1_555
C27 C26 1_555 1_555
H18 C27 1_555 1_555
C28 C23 1_555 1_555
C29 C22 1_555 1_555
C30 C29 1_555 1_555
H19 C30 1_555 1_555
C31 C30 1_555 1_555
H20 C31 1_555 1_555
C32 C21 1_555 1_555
C33 C20 1_555 1_555
C34 C33 1_555 1_555
H21 C34 1_555 1_555
C35 C34 1_555 1_555
C36 C19 1_555 1_555
H22 C36 1_555 1_555
C37 C38 1_555 1_555
C38 N5 1_555 1_555
C39 N5 1_555 1_555
C40 N6 1_555 1_555
C41 N6 1_555 1_555
C42 C41 1_555 1_555
C43 C42 1_555 1_555
H23 C43 1_555 1_555
C44 C43 1_555 1_555
C45 C44 1_555 1_555
H24 C45 1_555 1_555
C46 C41 1_555 1_555
C47 C40 1_555 1_555
C48 C47 1_555 1_555
H25 C48 1_555 1_555
C49 C48 1_555 1_555
H26 C49 1_555 1_555
C50 C39 1_555 1_555
C51 C38 1_555 1_555
C52 C51 1_555 1_555
H27 C52 1_555 1_555
C53 C52 1_555 1_555
C54 C37 1_555 1_555
H28 C54 1_555 1_555
C55 C56 1_555 1_555
C56 N7 1_555 1_555
C57 N7 1_555 1_555
C58 N8 1_555 1_555
C59 N8 1_555 1_555
C60 C59 1_555 1_555
C61 C60 1_555 1_555
H29 C61 1_555 1_555
C62 C61 1_555 1_555
C63 C62 1_555 1_555
H30 C63 1_555 1_555
C64 C59 1_555 1_555
C65 C58 1_555 1_555
C66 C65 1_555 1_555
H31 C66 1_555 1_555
C67 C66 1_555 1_555
H32 C67 1_555 1_555
C68 C57 1_555 1_555
C69 C56 1_555 1_555
C70 C69 1_555 1_555
H33 C70 1_555 1_555
C71 C70 1_555 1_555
C72 C55 1_555 1_555
H34 C72 1_555 1_555
C73 C77 1_555 1_555
C74 N9 1_555 1_555
C75 C74 1_555 1_555
H35 C75 1_555 1_555
C76 C75 1_555 1_555
H36 C76 1_555 1_555
C77 C76 1_555 1_555
H37 C77 1_555 1_555
C78 C82 1_555 1_555
C79 N10 1_555 1_555
C80 C79 1_555 1_555
H38 C80 1_555 1_555
C81 C80 1_555 1_555
H39 C81 1_555 1_555
C82 C81 1_555 1_555
H40 C82 1_555 1_555
C83 C87 1_555 1_555
C84 N11 1_555 1_555
C85 C84 1_555 1_555
H41 C85 1_555 1_555
C86 C85 1_555 1_555
H42 C86 1_555 1_555
C87 C86 1_555 1_555
H43 C87 1_555 1_555
C88 C89 1_555 1_555
C89 C1 1_555 1_555
C90 C6 1_555 1_555
C91 C73 1_555 1_555
C92 C74 1_555 1_555
C93 C19 1_555 1_555
C94 C24 1_555 1_555
C95 C78 1_555 1_555
C96 C79 1_555 1_555
C97 C37 1_555 1_555
C98 C42 1_555 1_555
C99 C83 1_555 1_555
C100 C84 1_555 1_555
C101 C55 1_555 1_555
C102 C60 1_555 1_555
C103 C102 1_555 1_555
C104 C88 1_555 1_555
C105 C104 1_555 1_555
H44 C105 1_555 1_555
C106 C105 1_555 1_555
C107 C106 1_555 1_555
C108 O1 1_555 1_555
H45 C108 1_555 1_555
H46 C108 1_555 1_555
H47 C108 1_555 1_555
C109 C107 1_555 1_555
H48 C109 1_555 1_555
C110 C104 1_555 1_555
H49 C110 1_555 1_555
C111 N12 1_555 1_555
C112 N12 1_555 1_555
H50 C112 1_555 1_555
C113 C112 1_555 1_555
C114 C113 1_555 1_555
H51 C114 1_555 1_555
C115 C114 1_555 1_555
H52 C115 1_555 1_555
C116 C115 1_555 1_555
H53 C116 1_555 1_555
C117 C116 1_555 1_555
C118 C117 1_555 1_555
H54 C118 1_555 1_555
C119 C118 1_555 1_555
H55 C119 1_555 1_555
C120 C119 1_555 1_555
H56 C120 1_555 1_555
C121 C120 1_555 1_555
H57 C121 1_555 1_555
C122 C113 1_555 1_555
C123 C112 1_555 1_555
H58 C123 1_555 1_555
H59 C123 1_555 1_555
H60 C123 1_555 1_555
C124 C103 1_555 1_555
C125 C124 1_555 1_555
H61 C125 1_555 1_555
C126 C125 1_555 1_555
C127 C126 1_555 1_555
C128 O3 1_555 1_555
H62 C128 1_555 1_555
H63 C128 1_555 1_555
H64 C128 1_555 1_555
C129 C127 1_555 1_555
H65 C129 1_555 1_555
C130 C124 1_555 1_555
H66 C130 1_555 1_555
C131 N13 1_555 1_555
C132 N13 1_555 1_555
H67 C132 1_555 1_555
C133 C132 1_555 1_555
C134 C133 1_555 1_555
H68 C134 1_555 1_555
C135 C134 1_555 1_555
H69 C135 1_555 1_555
C136 C135 1_555 1_555
H70 C136 1_555 1_555
C137 C136 1_555 1_555
C138 C137 1_555 1_555
H71 C138 1_555 1_555
C139 C138 1_555 1_555
H72 C139 1_555 1_555
C140 C139 1_555 1_555
H73 C140 1_555 1_555
C141 C140 1_555 1_555
H74 C141 1_555 1_555
C142 C133 1_555 1_555
C143 C132 1_555 1_555
H75 C143 1_555 1_555
H76 C143 1_555 1_555
H77 C143 1_555 1_555
C144 C17 1_555 1_555
C145 C144 1_555 1_555
H78 C145 1_555 1_555
H79 C145 1_555 1_555
H80 C145 1_555 1_555
C146 C144 1_555 1_555
H81 C146 1_555 1_555
H82 C146 1_555 1_555
H83 C146 1_555 1_555
C147 C144 1_555 1_555
H84 C147 1_555 1_555
H85 C147 1_555 1_555
H86 C147 1_555 1_555
C148 C8 1_555 1_555
C149 C148 1_555 1_555
H87 C149 1_555 1_555
H88 C149 1_555 1_555
H89 C149 1_555 1_555
C150 C148 1_555 1_555
H90 C150 1_555 1_555
H91 C150 1_555 1_555
H92 C150 1_555 1_555
C151 C148 1_555 1_555
H93 C151 1_555 1_555
H94 C151 1_555 1_555
H95 C151 1_555 1_555
C152 C35 1_555 1_555
C153 C152 1_555 1_555
H96 C153 1_555 1_555
H97 C153 1_555 1_555
H98 C153 1_555 1_555
C154 C152 1_555 1_555
H99 C154 1_555 1_555
H100 C154 1_555 1_555
H101 C154 1_555 1_555
C155 C152 1_555 1_555
H102 C155 1_555 1_555
H103 C155 1_555 1_555
H104 C155 1_555 1_555
C156 C26 1_555 1_555
C157 C156 1_555 1_555
H105 C157 1_555 1_555
H106 C157 1_555 1_555
H107 C157 1_555 1_555
C158 C156 1_555 1_555
H108 C158 1_555 1_555
H109 C158 1_555 1_555
H110 C158 1_555 1_555
C159 C156 1_555 1_555
H111 C159 1_555 1_555
H112 C159 1_555 1_555
H113 C159 1_555 1_555
C160 C53 1_555 1_555
C161 C160 1_555 1_555
H114 C161 1_555 1_555
H115 C161 1_555 1_555
H116 C161 1_555 1_555
C162 C160 1_555 1_555
H117 C162 1_555 1_555
H118 C162 1_555 1_555
H119 C162 1_555 1_555
C163 C160 1_555 1_555
H120 C163 1_555 1_555
H121 C163 1_555 1_555
H122 C163 1_555 1_555
C164 C44 1_555 1_555
C165 C164 1_555 1_555
H123 C165 1_555 1_555
H124 C165 1_555 1_555
H125 C165 1_555 1_555
C166 C164 1_555 1_555
H126 C166 1_555 1_555
H127 C166 1_555 1_555
H128 C166 1_555 1_555
C167 C164 1_555 1_555
H129 C167 1_555 1_555
H130 C167 1_555 1_555
H131 C167 1_555 1_555
C168 C71 1_555 1_555
C169 C168 1_555 1_555
H132 C169 1_555 1_555
H133 C169 1_555 1_555
H134 C169 1_555 1_555
C170 C168 1_555 1_555
H135 C170 1_555 1_555
H136 C170 1_555 1_555
H137 C170 1_555 1_555
C171 C168 1_555 1_555
H138 C171 1_555 1_555
H139 C171 1_555 1_555
H140 C171 1_555 1_555
C172 C62 1_555 1_555
C173 C172 1_555 1_555
H141 C173 1_555 1_555
H142 C173 1_555 1_555
H143 C173 1_555 1_555
C174 C172 1_555 1_555
H144 C174 1_555 1_555
H145 C174 1_555 1_555
H146 C174 1_555 1_555
C175 C172 1_555 1_555
H147 C175 1_555 1_555
H148 C175 1_555 1_555
H149 C175 1_555 1_555
O5 H150 1_555 1_555
H151 O5 1_555 1_555
O6 H152 1_555 1_555
H153 O6 1_555 1_555
O7 H154 1_555 1_555
H155 O7 1_555 1_555
O8 H156 1_555 1_555
H157 O8 1_555 1_555
C3 C4 1_555 1_555
C9 C10 1_555 1_555
C10 C11 1_555 1_555
C13 C14 1_555 1_555
C14 C15 1_555 1_555
C17 C18 1_555 1_555
C21 C22 1_555 1_555
C27 C28 1_555 1_555
C28 C29 1_555 1_555
C31 C32 1_555 1_555
C32 C33 1_555 1_555
C35 C36 1_555 1_555
C39 C40 1_555 1_555
C45 C46 1_555 1_555
C46 C47 1_555 1_555
C49 C50 1_555 1_555
C50 C51 1_555 1_555
C53 C54 1_555 1_555
C57 C58 1_555 1_555
C63 C64 1_555 1_555
C64 C65 1_555 1_555
C67 C68 1_555 1_555
C68 C69 1_555 1_555
C71 C72 1_555 1_555
C90 C91 1_555 1_555
C92 C93 1_555 1_555
C94 C95 1_555 1_555
C96 C97 1_555 1_555
C98 C99 1_555 1_555
C100 C101 1_555 1_555
C106 C111 1_555 1_555
C109 C110 1_555 1_555
C117 C122 1_555 1_555
C121 C122 1_555 1_555
C126 C131 1_555 1_555
C129 C130 1_555 1_555
C137 C142 1_555 1_555
C141 C142 1_555 1_555

#END
