
#######################################################################
#
#                 Cambridge Crystallographic Data Centre
#                                CCDC 
#
#######################################################################
#
# If this CIF has been generated from an entry in the Cambridge 
# Structural Database, then it will include bibliographic, chemical, 
# crystal, experimental, refinement or atomic coordinate data resulting 
# from the CCDC's data processing and validation procedures.
#
#######################################################################

data_REBMIX
_chemical_formula_moiety         'C165 H141 N13 O2,4(H2 O1)'
_chemical_name_systematic        
'2,6-bis({3,8-di-t-butyl-10-[(6-{[3,8-di-t-butyl-10-({3-[(1-phenylethyl)carbamoyl]phenyl}ethynyl)-11,12-dihydroindolo[2,3-a]carbazol-1-yl]ethynyl}pyridin-2-yl)ethynyl]-11,12-dihydroindolo[2,3-a]carbazol-1-yl}ethynyl)pyridine tetrahydrate'
_symmetry_cell_setting           monoclinic
_symmetry_space_group_name_H-M   'P 21/n'
_symmetry_Int_Tables_number      14
_space_group_name_Hall           '-P 2yn'
loop_
_symmetry_equiv_pos_site_id
_symmetry_equiv_pos_as_xyz
1 x,y,z
2 1/2-x,1/2+y,1/2-z
3 -x,-y,-z
4 1/2+x,1/2-y,1/2+z
_cell_length_a                   25.792(5)
_cell_length_b                   30.143(6)
_cell_length_c                   39.026(8)
_cell_angle_alpha                90
_cell_angle_beta                 96.73(3)
_cell_angle_gamma                90
_cell_volume                     30131.6
_exptl_crystal_colour            'light yellow'
_exptl_crystal_description       block
_cell_formula_units_Z            8
_exptl_crystal_recrystallization_method 'Vapour deposition'
loop_
_atom_site_label
_atom_site_type_symbol
_atom_site_fract_x
_atom_site_fract_y
_atom_site_fract_z
O1 O 0.77866(8) 0.38383(8) 0.65511(6)
O2 O 1.09012(6) 0.12138(6) 0.61949(4)
N1 N 0.77316(8) 0.19658(6) 0.55631(5)
H1 H 0.793854 0.212843 0.569890
N2 N 0.83388(7) 0.25342(6) 0.50510(5)
H2 H 0.847456 0.261656 0.525275
N3 N 0.90636(8) 0.20538(7) 0.68974(5)
H3 H 0.908727 0.205541 0.667943
N4 N 0.84326(8) 0.11648(6) 0.66345(5)
H4 H 0.853050 0.126670 0.644656
N5 N 1.00532(7) 0.21135(6) 0.57457(5)
H5 H 0.982893 0.192083 0.579723
N6 N 1.03163(7) 0.20136(6) 0.65690(5)
H6 H 1.006557 0.182772 0.651997
N7 N 0.92912(7) 0.01275(6) 0.53335(4)
H7 H 0.949439 0.029218 0.547009
N8 N 0.98835(7) 0.07156(5) 0.48217(4)
H8 H 1.001092 0.080579 0.502314
N9 N 0.95369(7) 0.31899(6) 0.58596(4)
N10 N 0.85480(7) 0.11195(5) 0.54214(5)
N11 N 0.95867(7) 0.06047(6) 0.67630(5)
N12 N 0.86487(11) 0.37978(9) 0.66645(10)
H9 H 0.891171 0.363523 0.673953
N13 N 1.16590(8) 0.14229(7) 0.64926(5)
H10 H 1.195792 0.154903 0.649187
C1 C 0.72621(10) 0.15618(8) 0.59962(7)
C2 C 0.73840(10) 0.16640(8) 0.56627(7)
C3 C 0.76939(9) 0.19654(8) 0.52048(6)
C4 C 0.79527(9) 0.22140(8) 0.49810(6)
C5 C 0.84658(9) 0.26960(8) 0.47433(6)
C6 C 0.88266(9) 0.30201(8) 0.46865(6)
C7 C 0.88692(10) 0.31439(9) 0.43441(6)
H11 H 0.910713 0.336284 0.430081
C8 C 0.85616(10) 0.29455(9) 0.40664(6)
C9 C 0.82097(10) 0.26132(9) 0.41335(6)
H12 H 0.800903 0.247511 0.395035
C10 C 0.81549(9) 0.24863(8) 0.44676(6)
C11 C 0.78282(9) 0.21689(8) 0.46236(6)
C12 C 0.74458(10) 0.18637(9) 0.44906(7)
H13 H 0.735902 0.183759 0.425339
C13 C 0.72002(11) 0.16040(9) 0.47107(7)
H14 H 0.695481 0.139527 0.462218
C14 C 0.73195(10) 0.16527(8) 0.50749(7)
C15 C 0.71240(10) 0.14568(8) 0.53668(8)
C16 C 0.67507(12) 0.11299(9) 0.54129(9)
H15 H 0.657677 0.098930 0.522070
C17 C 0.66363(12) 0.10128(9) 0.57385(10)
C18 C 0.68916(11) 0.12309(9) 0.60257(8)
H16 H 0.681210 0.115293 0.624408
C19 C 0.94857(9) 0.27856(8) 0.70761(6)
C20 C 0.92521(9) 0.23792(8) 0.71283(6)
C21 C 0.88309(9) 0.17253(8) 0.70734(6)
C22 C 0.85507(10) 0.13479(8) 0.69603(6)
C23 C 0.81308(10) 0.07905(8) 0.66632(6)
C24 C 0.79213(11) 0.04983(8) 0.64082(7)
C25 C 0.76461(12) 0.01329(9) 0.65152(7)
H17 H 0.750604 -0.007049 0.635053
C26 C 0.75730(13) 0.00615(9) 0.68664(8)
C27 C 0.77802(12) 0.03564(9) 0.71095(7)
H18 H 0.773432 0.031338 0.734005
C28 C 0.80626(11) 0.07248(8) 0.70130(7)
C29 C 0.83257(10) 0.10844(8) 0.72041(6)
C30 C 0.83927(11) 0.11941(9) 0.75560(7)
H19 H 0.824680 0.101525 0.771361
C31 C 0.86698(11) 0.15603(9) 0.76673(6)
H20 H 0.871604 0.163151 0.790072
C32 C 0.88861(10) 0.18310(9) 0.74273(6)
C33 C 0.91515(9) 0.22523(8) 0.74639(6)
C34 C 0.92668(9) 0.25405(9) 0.77388(6)
H21 H 0.919732 0.245478 0.795773
C35 C 0.94855(9) 0.29575(8) 0.76935(6)
C36 C 0.95976(9) 0.30667(9) 0.73621(6)
H22 H 0.975406 0.333902 0.732931
C37 C 0.98185(8) 0.21575(7) 0.51048(6)
C38 C 1.01050(8) 0.22704(7) 0.54193(6)
C39 C 1.04255(8) 0.23205(7) 0.59754(6)
C40 C 1.05371(8) 0.22790(7) 0.63361(6)
C41 C 1.05650(9) 0.20980(7) 0.68891(6)
C42 C 1.05113(9) 0.18835(7) 0.72038(6)
C43 C 1.08039(9) 0.20452(7) 0.74979(6)
H23 H 1.076811 0.191082 0.770835
C44 C 1.11521(9) 0.24026(8) 0.74925(6)
C45 C 1.12197(9) 0.25931(8) 0.71749(6)
H24 H 1.145680 0.282380 0.716435
C46 C 1.09340(9) 0.24392(7) 0.68743(6)
C47 C 1.09218(9) 0.25490(7) 0.65116(6)
C48 C 1.12198(9) 0.28426(8) 0.63291(6)
H25 H 1.148196 0.301375 0.644790
C49 C 1.11211(9) 0.28737(8) 0.59779(6)
H26 H 1.131759 0.306345 0.585648
C50 C 1.07197(8) 0.26163(7) 0.58020(6)
C51 C 1.05124(8) 0.25827(7) 0.54385(6)
C52 C 1.06451(9) 0.27741(7) 0.51377(6)
H27 H 1.091707 0.297809 0.514916
C53 C 1.03750(9) 0.26640(7) 0.48175(6)
C54 C 0.99630(8) 0.23607(7) 0.48082(6)
H28 H 0.977757 0.229149 0.459603
C55 C 0.88153(9) -0.02830(8) 0.57622(6)
C56 C 0.89394(8) -0.01759(7) 0.54318(6)
C57 C 0.92626(8) 0.01225(7) 0.49769(5)
C58 C 0.95199(8) 0.03823(7) 0.47548(5)
C59 C 1.00091(8) 0.08807(7) 0.45126(5)
C60 C 1.03608(9) 0.12152(7) 0.44495(5)
C61 C 1.04022(9) 0.13173(7) 0.41053(5)
H29 H 1.062945 0.154228 0.405702
C62 C 1.01160(10) 0.10956(8) 0.38282(5)
C63 C 0.97774(9) 0.07611(7) 0.38986(5)
H30 H 0.958947 0.060755 0.371824
C64 C 0.97164(9) 0.06526(7) 0.42397(5)
C65 C 0.93997(9) 0.03282(7) 0.43970(5)
C66 C 0.90260(9) 0.00133(7) 0.42607(6)
H31 H 0.895012 -0.001938 0.402316
C67 C 0.87761(9) -0.02434(8) 0.44787(6)
H32 H 0.853190 -0.045273 0.438944
C68 C 0.88891(9) -0.01907(7) 0.48420(6)
C69 C 0.86792(9) -0.03844(7) 0.51349(6)
C70 C 0.82836(9) -0.06918(8) 0.51685(7)
H33 H 0.810892 -0.082439 0.497294
C71 C 0.81488(9) -0.08011(8) 0.54941(7)
C72 C 0.84207(10) -0.05976(8) 0.57817(7)
H34 H 0.833513 -0.067523 0.599872
C73 C 0.96683(9) 0.34005(8) 0.55767(6)
C74 C 0.98308(9) 0.32811(8) 0.61637(6)
C75 C 1.02413(10) 0.35799(9) 0.61916(6)
H35 H 1.043444 0.363248 0.640425
C76 C 1.03595(11) 0.37968(9) 0.59027(7)
H36 H 1.063205 0.400045 0.591763
C77 C 1.00713(10) 0.37113(9) 0.55892(6)
H37 H 1.014397 0.385754 0.539045
C78 C 0.81982(8) 0.07897(7) 0.54333(6)
C79 C 0.86821(8) 0.12301(7) 0.51118(6)
C80 C 0.84709(8) 0.10244(7) 0.48071(6)
H38 H 0.857145 0.111141 0.459596
C81 C 0.81118(9) 0.06911(8) 0.48241(6)
H39 H 0.796555 0.054975 0.462389
C82 C 0.79702(9) 0.05680(7) 0.51392(6)
H40 H 0.772835 0.034259 0.515629
C83 C 0.96633(9) 0.07472(8) 0.70945(6)
C84 C 0.93024(9) 0.02321(8) 0.66988(6)
C85 C 0.90907(10) -0.00043(8) 0.69588(6)
H41 H 0.889377 -0.025905 0.690660
C86 C 0.91803(10) 0.01484(9) 0.72935(6)
H42 H 0.904495 -0.000418 0.747012
C87 C 0.94680(9) 0.05238(8) 0.73648(6)
H43 H 0.953274 0.062894 0.758974
C88 C 0.76549(10) 0.20901(9) 0.64956(7)
C89 C 0.74822(10) 0.18272(9) 0.62804(7)
C90 C 0.91382(9) 0.32022(7) 0.49819(6)
C91 C 0.93718(9) 0.32945(8) 0.52561(6)
C92 C 0.96806(9) 0.30730(8) 0.64680(6)
C93 C 0.95921(9) 0.29316(8) 0.67406(6)
C94 C 0.79872(10) 0.05761(8) 0.60586(7)
C95 C 0.80706(9) 0.06731(7) 0.57716(6)
C96 C 0.90728(8) 0.15677(7) 0.51060(6)
C97 C 0.94105(8) 0.18402(7) 0.50962(6)
C98 C 1.01989(9) 0.14888(8) 0.71966(6)
C99 C 0.99568(9) 0.11524(8) 0.71538(6)
C100 C 0.91933(9) 0.00824(8) 0.63466(6)
C101 C 0.90472(9) -0.00755(8) 0.60706(6)
C102 C 1.06836(9) 0.14232(7) 0.47249(5)
C103 C 1.09648(9) 0.15778(7) 0.49615(6)
C104 C 0.78299(9) 0.24334(9) 0.67338(7)
C105 C 0.79628(10) 0.28454(9) 0.66084(7)
H44 H 0.794795 0.288770 0.637144
C106 C 0.81138(10) 0.31875(10) 0.68246(8)
C107 C 0.81478(11) 0.31272(10) 0.71777(8)
H45 H 0.825595 0.335910 0.732635
C108 C 0.80199(11) 0.27196(11) 0.73093(7)
H46 H 0.804503 0.267806 0.754680
C109 C 0.78556(10) 0.23750(10) 0.70902(7)
H47 H 0.776212 0.210454 0.717982
C110 C 0.81750(11) 0.36365(10) 0.66740(8)
C111 C 0.87487(14) 0.42460(10) 0.65307(10)
H48 H 0.844406 0.433970 0.637363
C112 C 0.88417(14) 0.45776(13) 0.68203(11)
C113 C 0.8687(3) 0.49980(15) 0.67663(15)
H49 H 0.850823 0.507485 0.655368
C114 C 0.8786(4) 0.53303(18) 0.70229(18)
H50 H 0.866646 0.561904 0.698429
C115 C 0.9063(3) 0.5212(2) 0.73278(15)
H51 H 0.917112 0.542723 0.749126
C116 C 0.9182(3) 0.4773(2) 0.73936(15)
H52 H 0.932432 0.468410 0.761291
C117 C 0.9093(2) 0.4478(2) 0.71412(14)
H53 H 0.920730 0.418804 0.718375
C118 C 0.92134(15) 0.42279(13) 0.63353(11)
H54 H 0.951495 0.413958 0.648784
H55 H 0.927238 0.451556 0.624171
H56 H 0.915125 0.401681 0.615083
C119 C 1.12858(8) 0.17108(7) 0.52692(5)
C120 C 1.11841(8) 0.15184(7) 0.55783(5)
H57 H 1.091043 0.131751 0.557854
C121 C 1.14847(8) 0.16215(7) 0.58860(5)
C122 C 1.18919(9) 0.19223(8) 0.58864(6)
H58 H 1.209620 0.199200 0.609169
C123 C 1.19935(10) 0.21184(8) 0.55804(6)
H59 H 1.226480 0.232184 0.558175
C124 C 1.16958(9) 0.20148(8) 0.52733(6)
H60 H 1.176829 0.214736 0.506902
C125 C 1.13277(9) 0.14034(8) 0.62041(6)
C126 C 1.15103(11) 0.12276(8) 0.68117(6)
H61 H 1.114678 0.130948 0.682985
C127 C 1.15405(11) 0.07266(8) 0.67983(6)
C128 C 1.19723(15) 0.05093(11) 0.67202(9)
H62 H 1.226233 0.067141 0.667277
C129 C 1.1989(2) 0.00532(13) 0.67099(11)
H63 H 1.228778 -0.008877 0.665438
C130 C 1.1568(2) -0.01934(12) 0.67805(9)
H64 H 1.158170 -0.050163 0.677477
C131 C 1.11302(19) 0.00178(12) 0.68593(8)
H65 H 1.084291 -0.014690 0.690801
C132 C 1.11112(13) 0.04819(10) 0.68670(7)
H66 H 1.081045 0.062529 0.691830
C133 C 1.18453(12) 0.14268(9) 0.71158(6)
H67 H 1.220126 0.133633 0.711129
H68 H 1.172433 0.132647 0.732599
H69 H 1.182338 0.174448 0.710367
C134 C 0.62288(16) 0.06483(11) 0.57786(11)
C135 C 0.57158(18) 0.07764(18) 0.55957(17)
H70 H 0.562272 0.106639 0.566993
H71 H 0.545623 0.056609 0.564700
H72 H 0.573546 0.077998 0.535163
C136 C 0.6154(2) 0.05789(18) 0.61629(14)
H73 H 0.648268 0.050319 0.629095
H74 H 0.590874 0.034306 0.618199
H75 H 0.602377 0.084729 0.625399
C137 C 0.6461(2) 0.02106(13) 0.56798(17)
H76 H 0.678812 0.016270 0.581923
H77 H 0.651639 0.021851 0.544084
H78 H 0.622513 -0.002645 0.571665
C138 C 0.86108(11) 0.30803(10) 0.36910(6)
C139 C 0.80616(13) 0.31997(13) 0.35105(7)
H79 H 0.783959 0.294363 0.350601
H80 H 0.808926 0.329501 0.327866
H81 H 0.791558 0.343443 0.363504
C140 C 0.89638(14) 0.34748(11) 0.36675(7)
H82 H 0.884588 0.371599 0.379912
H83 H 0.895631 0.356314 0.343061
H84 H 0.931419 0.339660 0.375772
C141 C 0.88256(13) 0.26788(11) 0.35043(7)
H85 H 0.886843 0.276008 0.327140
H86 H 0.858475 0.243574 0.350229
H87 H 0.915682 0.259165 0.362329
C142 C 0.95547(11) 0.32919(9) 0.79874(6)
C143 C 0.99514(16) 0.36577(12) 0.79316(8)
H88 H 1.028986 0.352764 0.792513
H89 H 0.996601 0.386746 0.811752
H90 H 0.984599 0.380639 0.771716
C144 C 0.97235(14) 0.30750(10) 0.83356(7)
H91 H 0.945335 0.287910 0.839319
H92 H 0.978494 0.330017 0.850954
H93 H 1.003853 0.290915 0.832316
C145 C 0.90244(15) 0.35148(14) 0.80115(10)
H94 H 0.891102 0.366326 0.779820
H95 H 0.905840 0.372677 0.819639
H96 H 0.877232 0.329369 0.805503
C146 C 0.72710(18) -0.03526(10) 0.69552(9)
C147 C 0.7588(2) -0.07630(11) 0.68760(10)
H97 H 0.764014 -0.076259 0.663640
H98 H 0.740253 -0.102624 0.692715
H99 H 0.792105 -0.075694 0.701502
C148 C 0.71995(18) -0.03606(12) 0.73447(9)
H100 H 0.753429 -0.033575 0.747957
H101 H 0.703744 -0.063445 0.739875
H102 H 0.698273 -0.011646 0.739653
C149 C 0.6726(2) -0.03570(15) 0.67467(12)
H103 H 0.652248 -0.011604 0.682024
H104 H 0.655576 -0.063292 0.678407
H105 H 0.676086 -0.032475 0.650569
C150 C 1.05440(9) 0.28636(8) 0.44904(6)
C151 C 1.02078(10) 0.27030(9) 0.41635(6)
H106 H 1.023342 0.238615 0.414687
H107 H 1.032908 0.283729 0.396455
H108 H 0.985049 0.278500 0.417459
C152 C 1.05066(11) 0.33736(8) 0.45066(7)
H109 H 1.015570 0.345793 0.453638
H110 H 1.059956 0.349875 0.429598
H111 H 1.074107 0.348172 0.469753
C153 C 1.11123(10) 0.27266(9) 0.44631(7)
H112 H 1.133379 0.283871 0.465884
H113 H 1.122152 0.284662 0.425531
H114 H 1.113634 0.240885 0.445825
C154 C 1.14655(10) 0.25600(8) 0.78277(6)
C155 C 1.17347(18) 0.29935(14) 0.77824(9)
H115 H 1.194076 0.297060 0.759360
H116 H 1.195725 0.306424 0.798986
H117 H 1.147855 0.322315 0.773466
C156 C 1.18549(16) 0.21969(15) 0.79466(10)
H118 H 1.167555 0.191835 0.795187
H119 H 1.202095 0.226575 0.817349
H120 H 1.211394 0.217745 0.778955
C157 C 1.11001(17) 0.26285(15) 0.80993(10)
H121 H 1.083882 0.284311 0.801861
H122 H 1.129478 0.273367 0.830820
H123 H 1.093466 0.235240 0.814330
C158 C 0.77287(10) -0.11471(9) 0.55490(8)
C159 C 0.79859(14) -0.15500(11) 0.57327(12)
H124 H 0.826040 -0.165599 0.560782
H125 H 0.773063 -0.177969 0.574380
H126 H 0.812893 -0.146830 0.596219
C160 C 0.74286(13) -0.13054(11) 0.52045(10)
H127 H 0.725283 -0.105782 0.508770
H128 H 0.717677 -0.152574 0.524989
H129 H 0.766999 -0.143085 0.506182
C161 C 0.73270(12) -0.09378(11) 0.57559(9)
H130 H 0.749142 -0.085869 0.598108
H131 H 0.705130 -0.114613 0.577780
H132 H 0.718519 -0.067671 0.563923
C162 C 1.02064(11) 0.12291(8) 0.34593(6)
C163 C 1.00416(13) 0.17149(9) 0.33910(6)
H133 H 0.968084 0.174983 0.342409
H134 H 1.008901 0.179281 0.315822
H135 H 1.025216 0.190504 0.354819
C164 C 0.98910(12) 0.09409(9) 0.31877(6)
H136 H 0.998623 0.063534 0.322529
H137 H 0.996348 0.102948 0.296187
H138 H 0.952527 0.097685 0.320540
C165 C 1.07887(12) 0.11750(9) 0.34206(6)
H139 H 1.098618 0.139557 0.355699
H140 H 1.084101 0.121063 0.318259
H141 H 1.090286 0.088486 0.349787
O3 O 1.27854(9) 0.13978(8) 0.64509(6)
O4 O 1.58771(7) 0.39231(6) 0.62579(5)
N14 N 1.22468(8) 0.35721(7) 0.61644(5)
H142 H 1.247170 0.336059 0.619103
N15 N 1.24231(7) 0.33226(6) 0.53955(5)
H143 H 1.261494 0.313642 0.552003
N16 N 1.40136(8) 0.29540(7) 0.67170(5)
H144 H 1.395298 0.295856 0.649561
N17 N 1.34594(8) 0.38754(6) 0.65494(5)
H145 H 1.348525 0.376277 0.634961
N18 N 1.49960(7) 0.28924(6) 0.57862(5)
H146 H 1.478566 0.310255 0.582613
N19 N 1.53026(7) 0.30660(6) 0.66032(5)
H147 H 1.505927 0.325671 0.654745
N20 N 1.42993(6) 0.49121(5) 0.53174(4)
H148 H 1.449743 0.475397 0.546204
N21 N 1.48760(6) 0.42672(5) 0.48405(4)
H149 H 1.500286 0.419445 0.504647
N22 N 1.37463(8) 0.22431(7) 0.56054(6)
N23 N 1.35675(7) 0.39262(6) 0.53801(5)
N24 N 1.46147(7) 0.45269(6) 0.67486(4)
N25 N 1.35996(11) 0.12179(10) 0.66818(8)
H150 H 1.385712 0.128430 0.683352
N26 N 1.66584(8) 0.37475(7) 0.65410(5)
H151 H 1.695780 0.362284 0.653828
C166 C 1.20652(10) 0.36715(9) 0.67753(6)
C167 C 1.20185(9) 0.37821(9) 0.64242(6)
C168 C 1.20474(9) 0.37641(8) 0.58524(6)
C169 C 1.21187(9) 0.36549(8) 0.55168(6)
C170 C 1.23634(9) 0.33443(8) 0.50419(6)
C171 C 1.26057(10) 0.30800(8) 0.48071(6)
C172 C 1.24902(11) 0.31827(9) 0.44585(6)
H152 H 1.264667 0.301670 0.429794
C173 C 1.21480(11) 0.35255(9) 0.43391(6)
C174 C 1.19117(10) 0.37711(9) 0.45775(6)
H153 H 1.167911 0.399565 0.450127
C175 C 1.20177(10) 0.36863(8) 0.49313(6)
C176 C 1.18594(9) 0.38887(8) 0.52392(6)
C177 C 1.15254(10) 0.42446(8) 0.52991(6)
H154 H 1.135516 0.440312 0.511467
C178 C 1.14535(10) 0.43556(9) 0.56342(7)
H155 H 1.123700 0.459149 0.567566
C179 C 1.17070(9) 0.41127(8) 0.59118(6)
C180 C 1.16849(10) 0.41166(8) 0.62855(6)
C181 C 1.13717(11) 0.43430(9) 0.64973(7)
H156 H 1.114711 0.456547 0.640558
C182 C 1.13970(11) 0.42347(9) 0.68449(7)
C183 C 1.17455(11) 0.39075(10) 0.69771(7)
H157 H 1.176701 0.384256 0.721125
C184 C 1.44410(10) 0.22159(9) 0.68018(7)
C185 C 1.42567(10) 0.26175(9) 0.69116(7)
C186 C 1.38834(10) 0.32829(8) 0.69365(6)
C187 C 1.36348(10) 0.36843(8) 0.68632(6)
C188 C 1.32358(9) 0.42780(7) 0.66122(6)
C189 C 1.30235(9) 0.45893(8) 0.63680(6)
C190 C 1.28146(9) 0.49729(8) 0.64985(7)
H158 H 1.267184 0.518741 0.634406
C191 C 1.28113(9) 0.50476(8) 0.68519(7)
C192 C 1.30313(10) 0.47321(8) 0.70864(7)
H159 H 1.303181 0.477882 0.732195
C193 C 1.32509(10) 0.43462(8) 0.69682(6)
C194 C 1.35169(11) 0.39615(8) 0.71334(7)
C195 C 1.36671(12) 0.38333(9) 0.74806(7)
H160 H 1.358757 0.401463 0.766009
C196 C 1.39282(12) 0.34442(9) 0.75516(7)
H161 H 1.403006 0.336461 0.777981
C197 C 1.40454(11) 0.31614(9) 0.72834(7)
C198 C 1.42940(11) 0.27345(9) 0.72687(7)
C199 C 1.45334(11) 0.24348(10) 0.75096(8)
H162 H 1.456107 0.250650 0.774282
C200 C 1.47295(11) 0.20363(10) 0.74117(8)
C201 C 1.46834(11) 0.19331(10) 0.70555(8)
H163 H 1.482018 0.166603 0.698753
C202 C 1.47892(9) 0.28177(7) 0.51417(6)
C203 C 1.50452(9) 0.27065(7) 0.54679(6)
C204 C 1.53464(9) 0.26798(7) 0.60310(6)
C205 C 1.54838(9) 0.27516(7) 0.63851(6)
C206 C 1.55803(9) 0.30184(7) 0.69224(6)
C207 C 1.55652(10) 0.32760(8) 0.72191(6)
C208 C 1.58968(10) 0.31532(8) 0.75156(6)
H164 H 1.588505 0.331661 0.771668
C209 C 1.62429(10) 0.27964(8) 0.75213(6)
C210 C 1.62606(10) 0.25531(8) 0.72154(6)
H165 H 1.649422 0.231860 0.721133
C211 C 1.59303(10) 0.26609(8) 0.69181(6)
C212 C 1.58671(9) 0.24923(8) 0.65668(6)
C213 C 1.61255(10) 0.21546(8) 0.64032(6)
H166 H 1.637349 0.197708 0.652963
C214 C 1.60056(10) 0.20915(8) 0.60545(6)
H167 H 1.617978 0.187558 0.594195
C215 C 1.56205(9) 0.23527(8) 0.58681(6)
C216 C 1.54305(9) 0.23754(8) 0.55039(6)
C217 C 1.55718(9) 0.21549(8) 0.52155(6)
H168 H 1.583180 0.193959 0.524142
C218 C 1.53234(9) 0.22565(8) 0.48865(6)
C219 C 1.49403(9) 0.25862(8) 0.48582(6)
H169 H 1.477687 0.265589 0.463963
C220 C 1.38399(7) 0.53694(6) 0.57251(5)
C221 C 1.39553(7) 0.52337(6) 0.53996(5)
C222 C 1.42708(7) 0.48873(6) 0.49607(5)
C223 C 1.45206(7) 0.46015(6) 0.47546(5)
C224 C 1.49946(8) 0.40687(6) 0.45409(5)
C225 C 1.53417(8) 0.37193(6) 0.45023(5)
C226 C 1.53894(8) 0.35860(7) 0.41627(5)
H170 H 1.561476 0.335345 0.412876
C227 C 1.51149(8) 0.37855(7) 0.38735(5)
C228 C 1.47760(8) 0.41357(7) 0.39208(5)
H171 H 1.459207 0.427343 0.373079
C229 C 1.47134(7) 0.42794(6) 0.42558(5)
C230 C 1.44031(8) 0.46256(6) 0.43918(5)
C231 C 1.40407(8) 0.49402(7) 0.42398(5)
H172 H 1.396781 0.495641 0.400101
C232 C 1.37957(8) 0.52230(7) 0.44467(5)
H173 H 1.355792 0.543138 0.434753
C233 C 1.39055(7) 0.51968(6) 0.48106(5)
C234 C 1.36980(7) 0.54222(6) 0.50948(5)
C235 C 1.33166(8) 0.57437(7) 0.51149(5)
H174 H 1.314316 0.586380 0.491374
C236 C 1.31925(8) 0.58873(7) 0.54354(5)
C237 C 1.34603(8) 0.56979(7) 0.57326(5)
H175 H 1.338108 0.579630 0.594628
C238 C 1.36505(10) 0.21984(8) 0.52603(7)
C239 C 1.41425(11) 0.20085(9) 0.57687(8)
C240 C 1.44472(12) 0.17188(9) 0.56035(8)
H176 H 1.471990 0.156410 0.572693
C241 C 1.43376(12) 0.16651(10) 0.52531(9)
H177 H 1.453227 0.146817 0.513655
C242 C 1.39363(12) 0.19054(9) 0.50745(8)
H178 H 1.385740 0.187375 0.483709
C243 C 1.32253(8) 0.42571(7) 0.53863(6)
C244 C 1.36969(8) 0.37909(7) 0.50729(6)
C245 C 1.34788(9) 0.39789(8) 0.47640(6)
H179 H 1.357071 0.387714 0.455440
C246 C 1.31213(9) 0.43215(8) 0.47743(6)
H180 H 1.297123 0.445314 0.457098
C247 C 1.29917(9) 0.44637(7) 0.50860(6)
H181 H 1.275318 0.469295 0.509811
C248 C 1.47294(9) 0.44154(7) 0.70856(5)
C249 C 1.43574(8) 0.49094(7) 0.66760(5)
C250 C 1.42074(9) 0.51876(8) 0.69322(5)
H182 H 1.402937 0.545030 0.687421
C251 C 1.43273(10) 0.50669(8) 0.72732(6)
H183 H 1.422927 0.524699 0.744813
C252 C 1.45928(9) 0.46785(8) 0.73521(5)
H184 H 1.467954 0.459331 0.758065
C253 C 1.26102(11) 0.29648(11) 0.69801(7)
C254 C 1.23760(11) 0.33003(10) 0.68998(6)
C255 C 1.29573(10) 0.27410(9) 0.49423(7)
C256 C 1.32530(10) 0.24748(9) 0.50861(7)
C257 C 1.42557(11) 0.20736(9) 0.61362(8)
C258 C 1.43605(11) 0.21181(9) 0.64435(8)
C259 C 1.30493(9) 0.45031(7) 0.60117(7)
C260 C 1.31118(9) 0.43948(7) 0.57233(6)
C261 C 1.40778(9) 0.34426(8) 0.50833(6)
C262 C 1.44022(9) 0.31552(7) 0.51047(6)
C263 C 1.52520(10) 0.36695(8) 0.72014(6)
C264 C 1.50064(9) 0.40064(8) 0.71520(5)
C265 C 1.42302(8) 0.50341(7) 0.63204(5)
C266 C 1.40733(8) 0.51798(6) 0.60413(5)
C267 C 1.56503(8) 0.35301(6) 0.47924(6)
C268 C 1.59111(9) 0.33939(7) 0.50427(6)
C269 C 1.28639(10) 0.25529(11) 0.70780(7)
C270 C 1.29145(10) 0.22249(10) 0.68368(7)
H185 H 1.278634 0.227519 0.660734
C271 C 1.31515(11) 0.18234(11) 0.69286(8)
C272 C 1.33403(12) 0.17505(13) 0.72719(8)
H186 H 1.350173 0.148283 0.733747
C273 C 1.32896(13) 0.20717(14) 0.75147(8)
H187 H 1.341316 0.201636 0.774422
C274 C 1.30618(12) 0.24708(13) 0.74269(7)
H188 H 1.303654 0.268693 0.759419
C275 C 1.31652(11) 0.14682(10) 0.66663(8)
C276 C 1.36576(15) 0.08424(11) 0.64570(10)
H189 H 1.336039 0.064062 0.646073
C277 C 1.62123(9) 0.32807(7) 0.53642(6)
C278 C 1.61363(8) 0.35274(7) 0.56532(6)
H190 H 1.589432 0.375746 0.563299
C279 C 1.64132(9) 0.34391(7) 0.59724(6)
C280 C 1.67663(10) 0.30884(8) 0.60040(7)
H191 H 1.695032 0.302301 0.621735
C281 C 1.68437(10) 0.28369(8) 0.57174(7)
H192 H 1.707902 0.260196 0.573969
C282 C 1.65740(10) 0.29318(8) 0.53979(7)
H193 H 1.663272 0.276436 0.520607
C283 C 1.62971(9) 0.37189(8) 0.62689(6)
C284 C 1.65383(12) 0.39939(9) 0.68444(6)
H194 H 1.617731 0.392625 0.688124
C285 C 1.65800(11) 0.44947(9) 0.67924(6)
C286 C 1.61601(12) 0.47619(11) 0.68357(7)
H195 H 1.585413 0.463508 0.689485
C287 C 1.61868(15) 0.52184(11) 0.67923(7)
H196 H 1.590460 0.539629 0.683050
C288 C 1.66278(18) 0.54056(11) 0.66937(8)
H197 H 1.664314 0.570964 0.665584
C289 C 1.70448(16) 0.51430(12) 0.66511(10)
H198 H 1.734850 0.527063 0.658893
C290 C 1.70234(13) 0.46950(11) 0.66984(8)
H199 H 1.731249 0.452188 0.666688
C291 C 1.68943(14) 0.38270(11) 0.71567(7)
H200 H 1.685903 0.351107 0.717485
H201 H 1.679833 0.396527 0.736174
H202 H 1.724992 0.389939 0.713040
C292 C 1.10247(13) 0.44407(11) 0.70846(8)
C293 C 1.06764(15) 0.47976(13) 0.69042(9)
H203 H 1.088858 0.503649 0.683649
H204 H 1.044307 0.490768 0.705882
H205 H 1.047772 0.467403 0.670335
C294 C 1.06746(14) 0.40777(12) 0.72023(9)
H206 H 1.045716 0.396149 0.700638
H207 H 1.045935 0.419903 0.736389
H208 H 1.088675 0.384383 0.731095
C295 C 1.13412(17) 0.46408(14) 0.74006(9)
H209 H 1.157346 0.442053 0.750983
H210 H 1.110934 0.474077 0.755983
H211 H 1.154045 0.488735 0.733153
C296 C 1.20618(13) 0.36285(10) 0.39506(7)
C297 C 1.1588(2) 0.39301(17) 0.38575(9)
H212 H 1.128870 0.380453 0.394627
H213 H 1.151989 0.395633 0.361120
H214 H 1.165837 0.421835 0.395681
C298 C 1.19786(17) 0.32085(12) 0.37371(8)
H215 H 1.227049 0.301307 0.379177
H216 H 1.194765 0.328263 0.349637
H217 H 1.166498 0.306396 0.378819
C299 C 1.25555(18) 0.38601(15) 0.38535(8)
H218 H 1.252823 0.389738 0.360776
H219 H 1.285610 0.368231 0.392889
H220 H 1.259026 0.414532 0.396332
C300 C 1.49931(12) 0.16941(11) 0.76670(9)
C301 C 1.46814(15) 0.12616(13) 0.76501(11)
H221 H 1.433125 0.132142 0.769768
H222 H 1.484368 0.105702 0.781825
H223 H 1.467347 0.113486 0.742393
C302 C 1.55481(13) 0.16038(12) 0.75789(10)
H224 H 1.553094 0.147776 0.735197
H225 H 1.572022 0.140007 0.774389
H226 H 1.574027 0.187704 0.758586
C303 C 1.50331(15) 0.18677(14) 0.80413(9)
H227 H 1.522107 0.214325 0.805763
H228 H 1.521430 0.165427 0.819385
H229 H 1.468885 0.191362 0.810520
C304 C 1.25753(10) 0.54804(9) 0.69677(7)
C305 C 1.29068(11) 0.58729(9) 0.68785(8)
H230 H 1.324771 0.585117 0.700575
H231 H 1.274401 0.614424 0.693796
H232 H 1.293753 0.587073 0.663577
C306 C 1.25440(12) 0.54874(10) 0.73577(8)
H233 H 1.234716 0.523593 0.742044
H234 H 1.237533 0.575543 0.741807
H235 H 1.288999 0.547525 0.747857
C307 C 1.20183(11) 0.55372(11) 0.67815(8)
H236 H 1.203358 0.556939 0.653815
H237 H 1.186104 0.579652 0.686796
H238 H 1.181327 0.528087 0.682241
C308 C 1.54961(11) 0.20370(9) 0.45661(6)
C309 C 1.56644(16) 0.15576(10) 0.46326(8)
H239 H 1.595921 0.154883 0.480713
H240 H 1.575889 0.142927 0.442345
H241 H 1.538123 0.139235 0.470902
C310 C 1.59908(15) 0.22882(11) 0.44749(10)
H242 H 1.591506 0.259929 0.445127
H243 H 1.608954 0.217576 0.426171
H244 H 1.627218 0.224422 0.465559
C311 C 1.50859(18) 0.2067(2) 0.42630(10)
H245 H 1.520149 0.191213 0.407075
H246 H 1.502415 0.237273 0.420280
H247 H 1.476859 0.193504 0.432063
C312 C 1.66126(11) 0.27068(9) 0.78503(6)
C313 C 1.69748(13) 0.31009(10) 0.79302(8)
H248 H 1.720094 0.312967 0.775283
H249 H 1.718074 0.305544 0.814863
H250 H 1.677118 0.336628 0.793954
C314 C 1.69398(11) 0.22852(9) 0.78209(7)
H251 H 1.671172 0.203476 0.777685
H252 H 1.716252 0.223927 0.803282
H253 H 1.714934 0.231819 0.763484
C315 C 1.62875(13) 0.26356(11) 0.81565(7)
H254 H 1.605415 0.288151 0.816973
H255 H 1.651808 0.261486 0.836760
H256 H 1.608933 0.236652 0.812137
C316 C 1.27760(9) 0.62402(8) 0.54773(6)
C317 C 1.30240(12) 0.66273(10) 0.56883(9)
H257 H 1.317340 0.652205 0.591035
H258 H 1.276230 0.684605 0.571748
H259 H 1.329254 0.675737 0.556998
C318 C 1.25273(12) 0.64167(10) 0.51295(7)
H260 H 1.279141 0.654934 0.500862
H261 H 1.226860 0.663518 0.516617
H262 H 1.236554 0.617667 0.499509
C319 C 1.23428(11) 0.60403(11) 0.56673(8)
H263 H 1.219365 0.578850 0.554119
H264 H 1.207664 0.625883 0.568542
H265 H 1.248703 0.594835 0.589412
C320 C 1.52061(9) 0.36152(7) 0.35147(5)
C321 C 1.57894(9) 0.36612(8) 0.34760(6)
H266 H 1.589898 0.396099 0.352609
H267 H 1.584687 0.358835 0.324392
H268 H 1.598707 0.346312 0.363365
C322 C 1.48945(10) 0.38806(8) 0.32242(6)
H269 H 1.452781 0.384822 0.324021
H270 H 1.497216 0.377115 0.300488
H271 H 1.498861 0.418828 0.324582
C323 C 1.50431(10) 0.31274(8) 0.34747(6)
H272 H 1.525415 0.295165 0.364241
H273 H 1.509060 0.302704 0.324706
H274 H 1.468246 0.309788 0.350975
C324 C 1.4140(3) 0.0607(3) 0.6561(4)
C325 C 1.4582(3) 0.0859(4) 0.6495(3)
H275 H 1.455969 0.113215 0.638367
C326 C 1.5060(4) 0.0650(3) 0.6618(3)
H276 H 1.537905 0.078130 0.659063
C327 C 1.5034(5) 0.0233(4) 0.6782(4)
H277 H 1.534322 0.007110 0.681275
C328 C 1.4596(4) 0.0030(5) 0.6906(4)
H278 H 1.462188 -0.020753 0.705951
C329 C 1.4115(5) 0.0227(3) 0.6773(3)
H279 H 1.379781 0.011199 0.682224
C330 C 1.3700(4) 0.09964(18) 0.60784(16)
H280 H 1.343702 0.121566 0.601222
H281 H 1.364916 0.074633 0.592584
H282 H 1.403892 0.112174 0.606487
O5 O 0.87230(6) 0.24942(5) 0.57950(4)
H289 H 0.893570 0.269991 0.586423
H290 H 0.883495 0.224852 0.588108
O6 O 0.89494(7) 0.15875(5) 0.60371(4)
H291 H 0.879117 0.146739 0.585795
H292 H 0.929415 0.143203 0.612416
O7 O 1.00710(6) 0.07431(5) 0.55893(4)
H293 H 0.996219 0.086654 0.576357
H294 H 1.033958 0.058833 0.565526
O8 O 0.98945(6) 0.11591(6) 0.62491(4)
H295 H 1.029711 0.119794 0.626718
H296 H 0.979964 0.093418 0.642447
O9 O 1.31452(7) 0.29037(6) 0.59319(5)
H297 H 1.338169 0.310208 0.595693
H298 H 1.324740 0.268899 0.581594
O10 O 1.39934(7) 0.34941(6) 0.59746(5)
H299 H 1.380238 0.354894 0.580526
H300 H 1.429222 0.363775 0.607313
O11 O 1.48612(6) 0.39103(5) 0.62649(4)
H301 H 1.519157 0.390010 0.630441
H302 H 1.481574 0.410310 0.640488
O12 O 1.50562(6) 0.43033(5) 0.56068(4)
H303 H 1.495895 0.417257 0.578182
H304 H 1.531523 0.447038 0.567200
H283? H 1.333363 0.067094 0.644953
C331? C 1.4332(3) -0.0225(3) 0.68112(18)
H284? H 1.423800 -0.051513 0.685596
C332? C 1.4074(2) 0.0549(2) 0.65985(19)
C333? C 1.5041(4) 0.0365(3) 0.6815(3)
H285? H 1.538658 0.045645 0.685851
C334? C 1.4616(2) 0.0635(4) 0.6679(2)
H286? H 1.470992 0.092537 0.663432
C335? C 1.4853(3) -0.0067(3) 0.6873(2)
H287? H 1.510128 -0.027277 0.696215
C336? C 1.3968(3) 0.0101(2) 0.66750(17)
H288? H 1.362194 0.001057 0.663107
loop_
_geom_bond_atom_site_label_1
_geom_bond_atom_site_label_2
_geom_bond_site_symmetry_1
_geom_bond_site_symmetry_2
O1 C110 1_555 1_555
O2 C125 1_555 1_555
N1 H1 1_555 1_555
N2 H2 1_555 1_555
N3 H3 1_555 1_555
N4 H4 1_555 1_555
N5 H5 1_555 1_555
N6 H6 1_555 1_555
N7 H7 1_555 1_555
N8 H8 1_555 1_555
N9 C73 1_555 1_555
N10 C78 1_555 1_555
N11 C83 1_555 1_555
N12 H9 1_555 1_555
N13 H10 1_555 1_555
C1 C2 1_555 1_555
C2 N1 1_555 1_555
C3 N1 1_555 1_555
C4 N2 1_555 1_555
C5 N2 1_555 1_555
C6 C5 1_555 1_555
C7 C6 1_555 1_555
H11 C7 1_555 1_555
C8 C7 1_555 1_555
C9 C8 1_555 1_555
H12 C9 1_555 1_555
C10 C5 1_555 1_555
C11 C4 1_555 1_555
C12 C11 1_555 1_555
H13 C12 1_555 1_555
C13 C12 1_555 1_555
H14 C13 1_555 1_555
C14 C3 1_555 1_555
C15 C2 1_555 1_555
C16 C15 1_555 1_555
H15 C16 1_555 1_555
C17 C16 1_555 1_555
C18 C1 1_555 1_555
H16 C18 1_555 1_555
C19 C20 1_555 1_555
C20 N3 1_555 1_555
C21 N3 1_555 1_555
C22 N4 1_555 1_555
C23 N4 1_555 1_555
C24 C23 1_555 1_555
C25 C24 1_555 1_555
H17 C25 1_555 1_555
C26 C25 1_555 1_555
C27 C26 1_555 1_555
H18 C27 1_555 1_555
C28 C23 1_555 1_555
C29 C22 1_555 1_555
C30 C29 1_555 1_555
H19 C30 1_555 1_555
C31 C30 1_555 1_555
H20 C31 1_555 1_555
C32 C21 1_555 1_555
C33 C20 1_555 1_555
C34 C33 1_555 1_555
H21 C34 1_555 1_555
C35 C34 1_555 1_555
C36 C19 1_555 1_555
H22 C36 1_555 1_555
C37 C38 1_555 1_555
C38 N5 1_555 1_555
C39 N5 1_555 1_555
C40 N6 1_555 1_555
C41 N6 1_555 1_555
C42 C41 1_555 1_555
C43 C42 1_555 1_555
H23 C43 1_555 1_555
C44 C43 1_555 1_555
C45 C44 1_555 1_555
H24 C45 1_555 1_555
C46 C41 1_555 1_555
C47 C40 1_555 1_555
C48 C47 1_555 1_555
H25 C48 1_555 1_555
C49 C48 1_555 1_555
H26 C49 1_555 1_555
C50 C39 1_555 1_555
C51 C38 1_555 1_555
C52 C51 1_555 1_555
H27 C52 1_555 1_555
C53 C52 1_555 1_555
C54 C37 1_555 1_555
H28 C54 1_555 1_555
C55 C56 1_555 1_555
C56 N7 1_555 1_555
C57 N7 1_555 1_555
C58 N8 1_555 1_555
C59 N8 1_555 1_555
C60 C59 1_555 1_555
C61 C60 1_555 1_555
H29 C61 1_555 1_555
C62 C61 1_555 1_555
C63 C62 1_555 1_555
H30 C63 1_555 1_555
C64 C59 1_555 1_555
C65 C58 1_555 1_555
C66 C65 1_555 1_555
H31 C66 1_555 1_555
C67 C66 1_555 1_555
H32 C67 1_555 1_555
C68 C57 1_555 1_555
C69 C56 1_555 1_555
C70 C69 1_555 1_555
H33 C70 1_555 1_555
C71 C70 1_555 1_555
C72 C55 1_555 1_555
H34 C72 1_555 1_555
C73 C77 1_555 1_555
C74 N9 1_555 1_555
C75 C74 1_555 1_555
H35 C75 1_555 1_555
C76 C75 1_555 1_555
H36 C76 1_555 1_555
C77 C76 1_555 1_555
H37 C77 1_555 1_555
C78 C82 1_555 1_555
C79 N10 1_555 1_555
C80 C79 1_555 1_555
H38 C80 1_555 1_555
C81 C80 1_555 1_555
H39 C81 1_555 1_555
C82 C81 1_555 1_555
H40 C82 1_555 1_555
C83 C87 1_555 1_555
C84 N11 1_555 1_555
C85 C84 1_555 1_555
H41 C85 1_555 1_555
C86 C85 1_555 1_555
H42 C86 1_555 1_555
C87 C86 1_555 1_555
H43 C87 1_555 1_555
C88 C89 1_555 1_555
C89 C1 1_555 1_555
C90 C6 1_555 1_555
C91 C73 1_555 1_555
C92 C74 1_555 1_555
C93 C19 1_555 1_555
C94 C24 1_555 1_555
C95 C78 1_555 1_555
C96 C79 1_555 1_555
C97 C37 1_555 1_555
C98 C42 1_555 1_555
C99 C83 1_555 1_555
C100 C84 1_555 1_555
C101 C55 1_555 1_555
C102 C60 1_555 1_555
C103 C102 1_555 1_555
C104 C88 1_555 1_555
C105 C104 1_555 1_555
H44 C105 1_555 1_555
C106 C105 1_555 1_555
C107 C106 1_555 1_555
H45 C107 1_555 1_555
C108 C107 1_555 1_555
H46 C108 1_555 1_555
C109 C104 1_555 1_555
H47 C109 1_555 1_555
C110 N12 1_555 1_555
C111 N12 1_555 1_555
H48 C111 1_555 1_555
C112 C111 1_555 1_555
C113 C112 1_555 1_555
H49 C113 1_555 1_555
C114 C113 1_555 1_555
H50 C114 1_555 1_555
C115 C114 1_555 1_555
H51 C115 1_555 1_555
C116 C115 1_555 1_555
H52 C116 1_555 1_555
C117 C112 1_555 1_555
H53 C117 1_555 1_555
C118 C111 1_555 1_555
H54 C118 1_555 1_555
H55 C118 1_555 1_555
H56 C118 1_555 1_555
C119 C103 1_555 1_555
C120 C119 1_555 1_555
H57 C120 1_555 1_555
C121 C120 1_555 1_555
C122 C121 1_555 1_555
H58 C122 1_555 1_555
C123 C122 1_555 1_555
H59 C123 1_555 1_555
C124 C119 1_555 1_555
H60 C124 1_555 1_555
C125 N13 1_555 1_555
C126 N13 1_555 1_555
H61 C126 1_555 1_555
C127 C126 1_555 1_555
C128 C127 1_555 1_555
H62 C128 1_555 1_555
C129 C128 1_555 1_555
H63 C129 1_555 1_555
C130 C129 1_555 1_555
H64 C130 1_555 1_555
C131 C130 1_555 1_555
H65 C131 1_555 1_555
C132 C127 1_555 1_555
H66 C132 1_555 1_555
C133 C126 1_555 1_555
H67 C133 1_555 1_555
H68 C133 1_555 1_555
H69 C133 1_555 1_555
C134 C17 1_555 1_555
C135 C134 1_555 1_555
H70 C135 1_555 1_555
H71 C135 1_555 1_555
H72 C135 1_555 1_555
C136 C134 1_555 1_555
H73 C136 1_555 1_555
H74 C136 1_555 1_555
H75 C136 1_555 1_555
C137 C134 1_555 1_555
H76 C137 1_555 1_555
H77 C137 1_555 1_555
H78 C137 1_555 1_555
C138 C8 1_555 1_555
C139 C138 1_555 1_555
H79 C139 1_555 1_555
H80 C139 1_555 1_555
H81 C139 1_555 1_555
C140 C138 1_555 1_555
H82 C140 1_555 1_555
H83 C140 1_555 1_555
H84 C140 1_555 1_555
C141 C138 1_555 1_555
H85 C141 1_555 1_555
H86 C141 1_555 1_555
H87 C141 1_555 1_555
C142 C35 1_555 1_555
C143 C142 1_555 1_555
H88 C143 1_555 1_555
H89 C143 1_555 1_555
H90 C143 1_555 1_555
C144 C142 1_555 1_555
H91 C144 1_555 1_555
H92 C144 1_555 1_555
H93 C144 1_555 1_555
C145 C142 1_555 1_555
H94 C145 1_555 1_555
H95 C145 1_555 1_555
H96 C145 1_555 1_555
C146 C26 1_555 1_555
C147 C146 1_555 1_555
H97 C147 1_555 1_555
H98 C147 1_555 1_555
H99 C147 1_555 1_555
C148 C146 1_555 1_555
H100 C148 1_555 1_555
H101 C148 1_555 1_555
H102 C148 1_555 1_555
C149 C146 1_555 1_555
H103 C149 1_555 1_555
H104 C149 1_555 1_555
H105 C149 1_555 1_555
C150 C53 1_555 1_555
C151 C150 1_555 1_555
H106 C151 1_555 1_555
H107 C151 1_555 1_555
H108 C151 1_555 1_555
C152 C150 1_555 1_555
H109 C152 1_555 1_555
H110 C152 1_555 1_555
H111 C152 1_555 1_555
C153 C150 1_555 1_555
H112 C153 1_555 1_555
H113 C153 1_555 1_555
H114 C153 1_555 1_555
C154 C44 1_555 1_555
C155 C154 1_555 1_555
H115 C155 1_555 1_555
H116 C155 1_555 1_555
H117 C155 1_555 1_555
C156 C154 1_555 1_555
H118 C156 1_555 1_555
H119 C156 1_555 1_555
H120 C156 1_555 1_555
C157 C154 1_555 1_555
H121 C157 1_555 1_555
H122 C157 1_555 1_555
H123 C157 1_555 1_555
C158 C71 1_555 1_555
C159 C158 1_555 1_555
H124 C159 1_555 1_555
H125 C159 1_555 1_555
H126 C159 1_555 1_555
C160 C158 1_555 1_555
H127 C160 1_555 1_555
H128 C160 1_555 1_555
H129 C160 1_555 1_555
C161 C158 1_555 1_555
H130 C161 1_555 1_555
H131 C161 1_555 1_555
H132 C161 1_555 1_555
C162 C62 1_555 1_555
C163 C162 1_555 1_555
H133 C163 1_555 1_555
H134 C163 1_555 1_555
H135 C163 1_555 1_555
C164 C162 1_555 1_555
H136 C164 1_555 1_555
H137 C164 1_555 1_555
H138 C164 1_555 1_555
C165 C162 1_555 1_555
H139 C165 1_555 1_555
H140 C165 1_555 1_555
H141 C165 1_555 1_555
O3 C275 1_555 1_555
O4 C283 1_555 1_555
N14 H142 1_555 1_555
N15 H143 1_555 1_555
N16 H144 1_555 1_555
N17 H145 1_555 1_555
N18 H146 1_555 1_555
N19 H147 1_555 1_555
N20 H148 1_555 1_555
N21 H149 1_555 1_555
N22 C238 1_555 1_555
N23 C243 1_555 1_555
N24 C248 1_555 1_555
N25 H150 1_555 1_555
N26 H151 1_555 1_555
C166 C167 1_555 1_555
C167 N14 1_555 1_555
C168 N14 1_555 1_555
C169 N15 1_555 1_555
C170 N15 1_555 1_555
C171 C170 1_555 1_555
C172 C171 1_555 1_555
H152 C172 1_555 1_555
C173 C172 1_555 1_555
C174 C173 1_555 1_555
H153 C174 1_555 1_555
C175 C170 1_555 1_555
C176 C169 1_555 1_555
C177 C176 1_555 1_555
H154 C177 1_555 1_555
C178 C177 1_555 1_555
H155 C178 1_555 1_555
C179 C168 1_555 1_555
C180 C167 1_555 1_555
C181 C180 1_555 1_555
H156 C181 1_555 1_555
C182 C181 1_555 1_555
C183 C166 1_555 1_555
H157 C183 1_555 1_555
C184 C185 1_555 1_555
C185 N16 1_555 1_555
C186 N16 1_555 1_555
C187 N17 1_555 1_555
C188 N17 1_555 1_555
C189 C188 1_555 1_555
C190 C189 1_555 1_555
H158 C190 1_555 1_555
C191 C190 1_555 1_555
C192 C191 1_555 1_555
H159 C192 1_555 1_555
C193 C188 1_555 1_555
C194 C187 1_555 1_555
C195 C194 1_555 1_555
H160 C195 1_555 1_555
C196 C195 1_555 1_555
H161 C196 1_555 1_555
C197 C186 1_555 1_555
C198 C185 1_555 1_555
C199 C198 1_555 1_555
H162 C199 1_555 1_555
C200 C199 1_555 1_555
C201 C184 1_555 1_555
H163 C201 1_555 1_555
C202 C203 1_555 1_555
C203 N18 1_555 1_555
C204 N18 1_555 1_555
C205 N19 1_555 1_555
C206 N19 1_555 1_555
C207 C206 1_555 1_555
C208 C207 1_555 1_555
H164 C208 1_555 1_555
C209 C208 1_555 1_555
C210 C209 1_555 1_555
H165 C210 1_555 1_555
C211 C206 1_555 1_555
C212 C205 1_555 1_555
C213 C212 1_555 1_555
H166 C213 1_555 1_555
C214 C213 1_555 1_555
H167 C214 1_555 1_555
C215 C204 1_555 1_555
C216 C203 1_555 1_555
C217 C216 1_555 1_555
H168 C217 1_555 1_555
C218 C217 1_555 1_555
C219 C202 1_555 1_555
H169 C219 1_555 1_555
C220 C221 1_555 1_555
C221 N20 1_555 1_555
C222 N20 1_555 1_555
C223 N21 1_555 1_555
C224 N21 1_555 1_555
C225 C224 1_555 1_555
C226 C225 1_555 1_555
H170 C226 1_555 1_555
C227 C226 1_555 1_555
C228 C227 1_555 1_555
H171 C228 1_555 1_555
C229 C224 1_555 1_555
C230 C223 1_555 1_555
C231 C230 1_555 1_555
H172 C231 1_555 1_555
C232 C231 1_555 1_555
H173 C232 1_555 1_555
C233 C222 1_555 1_555
C234 C221 1_555 1_555
C235 C234 1_555 1_555
H174 C235 1_555 1_555
C236 C235 1_555 1_555
C237 C220 1_555 1_555
H175 C237 1_555 1_555
C238 C242 1_555 1_555
C239 N22 1_555 1_555
C240 C239 1_555 1_555
H176 C240 1_555 1_555
C241 C240 1_555 1_555
H177 C241 1_555 1_555
C242 C241 1_555 1_555
H178 C242 1_555 1_555
C243 C247 1_555 1_555
C244 N23 1_555 1_555
C245 C244 1_555 1_555
H179 C245 1_555 1_555
C246 C245 1_555 1_555
H180 C246 1_555 1_555
C247 C246 1_555 1_555
H181 C247 1_555 1_555
C248 C252 1_555 1_555
C249 N24 1_555 1_555
C250 C249 1_555 1_555
H182 C250 1_555 1_555
C251 C250 1_555 1_555
H183 C251 1_555 1_555
C252 C251 1_555 1_555
H184 C252 1_555 1_555
C253 C254 1_555 1_555
C254 C166 1_555 1_555
C255 C171 1_555 1_555
C256 C238 1_555 1_555
C257 C239 1_555 1_555
C258 C184 1_555 1_555
C259 C189 1_555 1_555
C260 C243 1_555 1_555
C261 C244 1_555 1_555
C262 C202 1_555 1_555
C263 C207 1_555 1_555
C264 C248 1_555 1_555
C265 C249 1_555 1_555
C266 C220 1_555 1_555
C267 C225 1_555 1_555
C268 C267 1_555 1_555
C269 C253 1_555 1_555
C270 C269 1_555 1_555
H185 C270 1_555 1_555
C271 C270 1_555 1_555
C272 C271 1_555 1_555
H186 C272 1_555 1_555
C273 C272 1_555 1_555
H187 C273 1_555 1_555
C274 C269 1_555 1_555
H188 C274 1_555 1_555
C275 N25 1_555 1_555
C276 N25 1_555 1_555
H189 C276 1_555 1_555
C277 C268 1_555 1_555
C278 C277 1_555 1_555
H190 C278 1_555 1_555
C279 C278 1_555 1_555
C280 C279 1_555 1_555
H191 C280 1_555 1_555
C281 C280 1_555 1_555
H192 C281 1_555 1_555
C282 C277 1_555 1_555
H193 C282 1_555 1_555
C283 N26 1_555 1_555
C284 N26 1_555 1_555
H194 C284 1_555 1_555
C285 C284 1_555 1_555
C286 C285 1_555 1_555
H195 C286 1_555 1_555
C287 C286 1_555 1_555
H196 C287 1_555 1_555
C288 C287 1_555 1_555
H197 C288 1_555 1_555
C289 C288 1_555 1_555
H198 C289 1_555 1_555
C290 C285 1_555 1_555
H199 C290 1_555 1_555
C291 C284 1_555 1_555
H200 C291 1_555 1_555
H201 C291 1_555 1_555
H202 C291 1_555 1_555
C292 C182 1_555 1_555
C293 C292 1_555 1_555
H203 C293 1_555 1_555
H204 C293 1_555 1_555
H205 C293 1_555 1_555
C294 C292 1_555 1_555
H206 C294 1_555 1_555
H207 C294 1_555 1_555
H208 C294 1_555 1_555
C295 C292 1_555 1_555
H209 C295 1_555 1_555
H210 C295 1_555 1_555
H211 C295 1_555 1_555
C296 C173 1_555 1_555
C297 C296 1_555 1_555
H212 C297 1_555 1_555
H213 C297 1_555 1_555
H214 C297 1_555 1_555
C298 C296 1_555 1_555
H215 C298 1_555 1_555
H216 C298 1_555 1_555
H217 C298 1_555 1_555
C299 C296 1_555 1_555
H218 C299 1_555 1_555
H219 C299 1_555 1_555
H220 C299 1_555 1_555
C300 C200 1_555 1_555
C301 C300 1_555 1_555
H221 C301 1_555 1_555
H222 C301 1_555 1_555
H223 C301 1_555 1_555
C302 C300 1_555 1_555
H224 C302 1_555 1_555
H225 C302 1_555 1_555
H226 C302 1_555 1_555
C303 C300 1_555 1_555
H227 C303 1_555 1_555
H228 C303 1_555 1_555
H229 C303 1_555 1_555
C304 C191 1_555 1_555
C305 C304 1_555 1_555
H230 C305 1_555 1_555
H231 C305 1_555 1_555
H232 C305 1_555 1_555
C306 C304 1_555 1_555
H233 C306 1_555 1_555
H234 C306 1_555 1_555
H235 C306 1_555 1_555
C307 C304 1_555 1_555
H236 C307 1_555 1_555
H237 C307 1_555 1_555
H238 C307 1_555 1_555
C308 C218 1_555 1_555
C309 C308 1_555 1_555
H239 C309 1_555 1_555
H240 C309 1_555 1_555
H241 C309 1_555 1_555
C310 C308 1_555 1_555
H242 C310 1_555 1_555
H243 C310 1_555 1_555
H244 C310 1_555 1_555
C311 C308 1_555 1_555
H245 C311 1_555 1_555
H246 C311 1_555 1_555
H247 C311 1_555 1_555
C312 C209 1_555 1_555
C313 C312 1_555 1_555
H248 C313 1_555 1_555
H249 C313 1_555 1_555
H250 C313 1_555 1_555
C314 C312 1_555 1_555
H251 C314 1_555 1_555
H252 C314 1_555 1_555
H253 C314 1_555 1_555
C315 C312 1_555 1_555
H254 C315 1_555 1_555
H255 C315 1_555 1_555
H256 C315 1_555 1_555
C316 C236 1_555 1_555
C317 C316 1_555 1_555
H257 C317 1_555 1_555
H258 C317 1_555 1_555
H259 C317 1_555 1_555
C318 C316 1_555 1_555
H260 C318 1_555 1_555
H261 C318 1_555 1_555
H262 C318 1_555 1_555
C319 C316 1_555 1_555
H263 C319 1_555 1_555
H264 C319 1_555 1_555
H265 C319 1_555 1_555
C320 C227 1_555 1_555
C321 C320 1_555 1_555
H266 C321 1_555 1_555
H267 C321 1_555 1_555
H268 C321 1_555 1_555
C322 C320 1_555 1_555
H269 C322 1_555 1_555
H270 C322 1_555 1_555
H271 C322 1_555 1_555
C323 C320 1_555 1_555
H272 C323 1_555 1_555
H273 C323 1_555 1_555
H274 C323 1_555 1_555
C324 C276 1_555 1_555
C325 C324 1_555 1_555
H275 C325 1_555 1_555
C326 C325 1_555 1_555
H276 C326 1_555 1_555
C327 C326 1_555 1_555
H277 C327 1_555 1_555
C328 C327 1_555 1_555
H278 C328 1_555 1_555
C329 C324 1_555 1_555
H279 C329 1_555 1_555
C330 C276 1_555 1_555
H280 C330 1_555 1_555
H281 C330 1_555 1_555
H282 C330 1_555 1_555
O5 H289 1_555 1_555
H290 O5 1_555 1_555
O6 H291 1_555 1_555
H292 O6 1_555 1_555
O7 H293 1_555 1_555
H294 O7 1_555 1_555
O8 H295 1_555 1_555
H296 O8 1_555 1_555
O9 H297 1_555 1_555
H298 O9 1_555 1_555
O10 H299 1_555 1_555
H300 O10 1_555 1_555
O11 H301 1_555 1_555
H302 O11 1_555 1_555
O12 H303 1_555 1_555
H304 O12 1_555 1_555
C3 C4 1_555 1_555
C9 C10 1_555 1_555
C10 C11 1_555 1_555
C13 C14 1_555 1_555
C14 C15 1_555 1_555
C17 C18 1_555 1_555
C21 C22 1_555 1_555
C27 C28 1_555 1_555
C28 C29 1_555 1_555
C31 C32 1_555 1_555
C32 C33 1_555 1_555
C35 C36 1_555 1_555
C39 C40 1_555 1_555
C45 C46 1_555 1_555
C46 C47 1_555 1_555
C49 C50 1_555 1_555
C50 C51 1_555 1_555
C53 C54 1_555 1_555
C57 C58 1_555 1_555
C63 C64 1_555 1_555
C64 C65 1_555 1_555
C67 C68 1_555 1_555
C68 C69 1_555 1_555
C71 C72 1_555 1_555
C90 C91 1_555 1_555
C92 C93 1_555 1_555
C94 C95 1_555 1_555
C96 C97 1_555 1_555
C98 C99 1_555 1_555
C100 C101 1_555 1_555
C106 C110 1_555 1_555
C108 C109 1_555 1_555
C116 C117 1_555 1_555
C121 C125 1_555 1_555
C123 C124 1_555 1_555
C131 C132 1_555 1_555
C168 C169 1_555 1_555
C174 C175 1_555 1_555
C175 C176 1_555 1_555
C178 C179 1_555 1_555
C179 C180 1_555 1_555
C182 C183 1_555 1_555
C186 C187 1_555 1_555
C192 C193 1_555 1_555
C193 C194 1_555 1_555
C196 C197 1_555 1_555
C197 C198 1_555 1_555
C200 C201 1_555 1_555
C204 C205 1_555 1_555
C210 C211 1_555 1_555
C211 C212 1_555 1_555
C214 C215 1_555 1_555
C215 C216 1_555 1_555
C218 C219 1_555 1_555
C222 C223 1_555 1_555
C228 C229 1_555 1_555
C229 C230 1_555 1_555
C232 C233 1_555 1_555
C233 C234 1_555 1_555
C236 C237 1_555 1_555
C255 C256 1_555 1_555
C257 C258 1_555 1_555
C259 C260 1_555 1_555
C261 C262 1_555 1_555
C263 C264 1_555 1_555
C265 C266 1_555 1_555
C271 C275 1_555 1_555
C273 C274 1_555 1_555
C279 C283 1_555 1_555
C281 C282 1_555 1_555
C289 C290 1_555 1_555
C328 C329 1_555 1_555

#END
