
#######################################################################
#
#                 Cambridge Crystallographic Data Centre
#                                CCDC 
#
#######################################################################
#
# If this CIF has been generated from an entry in the Cambridge 
# Structural Database, then it will include bibliographic, chemical, 
# crystal, experimental, refinement or atomic coordinate data resulting 
# from the CCDC's data processing and validation procedures.
#
#######################################################################

data_REBNOD
_chemical_formula_moiety         'C11 H10 Cl1 N1 O3'
_chemical_name_systematic        
N-(4-Chlorophenyl)-2-oxotetrahydrofuran-3-carboxamide
_symmetry_cell_setting           orthorhombic
_symmetry_space_group_name_H-M   'P 21 21 21'
_symmetry_Int_Tables_number      19
_space_group_name_Hall           'P 2ac 2ab'
loop_
_symmetry_equiv_pos_site_id
_symmetry_equiv_pos_as_xyz
1 x,y,z
2 1/2-x,-y,1/2+z
3 -x,1/2+y,1/2-z
4 1/2+x,1/2-y,-z
_cell_length_a                   5.294(3)
_cell_length_b                   10.197(5)
_cell_length_c                   19.812(10)
_cell_angle_alpha                90
_cell_angle_beta                 90
_cell_angle_gamma                90
_cell_volume                     1069.51
_exptl_crystal_colour            colorless
_exptl_crystal_description       block
_cell_formula_units_Z            4
loop_
_atom_site_label
_atom_site_type_symbol
_atom_site_fract_x
_atom_site_fract_y
_atom_site_fract_z
Cl1 Cl 0.04282(16) 0.77502(8) 0.85191(4)
C1 C 0.6438(6) 0.5849(3) 0.44024(17)
C2 C 0.9387(6) 0.4340(3) 0.40699(15)
H1 H 1.1014 0.4746 0.3985
H2 H 0.9305 0.3516 0.3827
C3 C 0.8986(6) 0.4125(3) 0.48203(15)
H3 H 1.0572 0.3965 0.5051
H4 H 0.7845 0.3399 0.4904
C4 C 0.7826(6) 0.5420(3) 0.50358(14)
H5 H 0.9171 0.6050 0.5138
C5 C 0.5969(6) 0.5370(3) 0.56208(15)
C6 C 0.4719(6) 0.6658(3) 0.66362(14)
C7 C 0.5500(6) 0.7704(3) 0.70410(14)
H6 H 0.6922 0.8186 0.6921
C8 C 0.4187(6) 0.8024(3) 0.76128(15)
H7 H 0.4732 0.8715 0.7883
C9 C 0.2070(5) 0.7328(3) 0.77888(14)
C10 C 0.1250(6) 0.6288(3) 0.73987(15)
H8 H -0.0170 0.5812 0.7526
C11 C 0.2563(5) 0.5960(3) 0.68155(15)
H9 H 0.2001 0.5274 0.6545
O1 O 0.7338(4) 0.5206(2) 0.38673(11)
O2 O 0.4766(5) 0.6623(2) 0.43586(12)
O3 O 0.4443(4) 0.4480(2) 0.56719(10)
N1 N 0.6179(5) 0.6387(2) 0.60599(13)
H10 H 0.749(5) 0.690(3) 0.5944(14)
loop_
_geom_bond_atom_site_label_1
_geom_bond_atom_site_label_2
_geom_bond_site_symmetry_1
_geom_bond_site_symmetry_2
Cl1 C9 1_555 1_555
C1 C4 1_555 1_555
C2 H1 1_555 1_555
H2 C2 1_555 1_555
C3 C2 1_555 1_555
H3 C3 1_555 1_555
H4 C3 1_555 1_555
C4 C3 1_555 1_555
H5 C4 1_555 1_555
C5 C4 1_555 1_555
C6 C7 1_555 1_555
C7 H6 1_555 1_555
C8 C7 1_555 1_555
H7 C8 1_555 1_555
C9 C8 1_555 1_555
C10 C9 1_555 1_555
H8 C10 1_555 1_555
C11 C6 1_555 1_555
H9 C11 1_555 1_555
O1 C1 1_555 1_555
O2 C1 1_555 1_555
O3 C5 1_555 1_555
N1 C5 1_555 1_555
H10 N1 1_555 1_555
C2 O1 1_555 1_555
C6 N1 1_555 1_555
C10 C11 1_555 1_555

#END
