
#######################################################################
#
#                 Cambridge Crystallographic Data Centre
#                                CCDC 
#
#######################################################################
#
# If this CIF has been generated from an entry in the Cambridge 
# Structural Database, then it will include bibliographic, chemical, 
# crystal, experimental, refinement or atomic coordinate data resulting 
# from the CCDC's data processing and validation procedures.
#
#######################################################################

data_REBPUL
_chemical_name_common            
'(E) methyl-3 methoxy-2-[2-(2-phenylamino-6-trifluoromethylpyrimidin-4-yloxymethyl)phenyl]acrylate'
_chemical_formula_moiety         'C23 H20 F3 N3 O4'
_chemical_name_systematic        
'Methyl 2-(2-(((2-anilino-6-(trifluoromethyl)pyrimidin-4-yl)oxy)methyl)phenyl)-3-methoxyacrylate'
_symmetry_cell_setting           triclinic
_symmetry_space_group_name_H-M   'P -1'
_symmetry_Int_Tables_number      2
_space_group_name_Hall           '-P 1'
loop_
_symmetry_equiv_pos_site_id
_symmetry_equiv_pos_as_xyz
1 x,y,z
2 -x,-y,-z
_cell_length_a                   9.6980(19)
_cell_length_b                   11.051(2)
_cell_length_c                   11.367(2)
_cell_angle_alpha                82.16(3)
_cell_angle_beta                 66.31(3)
_cell_angle_gamma                90.00(3)
_cell_volume                     1103.13
_exptl_crystal_colour            'light yellow'
_cell_formula_units_Z            2
loop_
_atom_site_label
_atom_site_type_symbol
_atom_site_fract_x
_atom_site_fract_y
_atom_site_fract_z
O1 O 0.2955(3) 0.5707(3) 1.0417(3)
O2 O 0.1118(5) 0.9106(4) 1.0816(5)
O3 O 0.5559(4) 0.7242(4) 1.0559(4)
O4 O 0.3698(5) 0.7432(4) 1.2467(4)
N1 N -0.1158(5) 0.7006(4) 0.9553(4)
H1 H -0.2120 0.7055 0.9912
N2 N -0.1495(5) 0.6327(4) 1.1647(4)
N3 N 0.0972(4) 0.6324(3) 0.9915(4)
F1 F -0.3218(5) 0.4978(5) 1.4039(4)
F2 F -0.2518(7) 0.6709(6) 1.4257(5)
F3 F -0.1435(5) 0.5123(5) 1.4660(4)
C1 C -0.1470(7) 0.7714(8) 0.7640(6)
H2 H -0.2504 0.7611 0.8138
C2 C -0.0937(9) 0.8176(10) 0.6312(7)
H3 H -0.1611 0.8362 0.5929
C3 C 0.0586(9) 0.8350(9) 0.5585(7)
H4 H 0.0956 0.8665 0.4706
C4 C 0.1554(7) 0.8055(7) 0.6165(6)
H5 H 0.2588 0.8171 0.5672
C5 C 0.1032(7) 0.7587(6) 0.7470(6)
H6 H 0.1712 0.7390 0.7845
C6 C -0.0491(6) 0.7412(5) 0.8213(5)
C7 C -0.0515(5) 0.6544(4) 1.0378(5)
C8 C -0.0903(6) 0.5870(5) 1.2470(5)
C9 C 0.0608(5) 0.5644(5) 1.2125(5)
H7 H 0.0999 0.5352 1.2727
C10 C 0.1490(5) 0.5897(4) 1.0783(5)
C11 C 0.3932(6) 0.5974(5) 0.9058(5)
H8 H 0.3509 0.5536 0.8584
H9 H 0.4900 0.5646 0.8936
C12 C 0.4207(5) 0.7297(5) 0.8451(5)
C13 C 0.4836(7) 0.7502(7) 0.7112(5)
H10 H 0.5013 0.6836 0.6662
C14 C 0.5212(8) 0.8672(8) 0.6417(7)
H11 H 0.5673 0.8793 0.5514
C15 C 0.4888(9) 0.9656(7) 0.7095(7)
H12 H 0.5089 1.0448 0.6645
C16 C 0.4281(7) 0.9474(6) 0.8411(6)
H13 H 0.4075 1.0146 0.8852
C17 C 0.3957(5) 0.8299(5) 0.9117(5)
C18 C 0.3371(6) 0.8182(5) 1.0559(5)
C19 C 0.2070(6) 0.8596(5) 1.1306(6)
H14 H 0.1810 0.8530 1.2195
C20 C -0.0317(8) 0.9411(7) 1.1743(9)
H15 H -0.0981 0.8687 1.2105
H16 H -0.0752 1.0004 1.1315
H17 H -0.0173 0.9745 1.2425
C21 C 0.4337(6) 0.7585(5) 1.1165(5)
C22 C 0.4620(9) 0.6817(7) 1.3087(7)
H18 H 0.4577 0.5955 1.3052
H19 H 0.4243 0.6948 1.3977
H20 H 0.5646 0.7142 1.2640
C23 C -0.1976(8) 0.5649(7) 1.3837(7)
loop_
_geom_bond_atom_site_label_1
_geom_bond_atom_site_label_2
_geom_bond_site_symmetry_1
_geom_bond_site_symmetry_2
O1 C10 1_555 1_555
O2 C19 1_555 1_555
O3 C21 1_555 1_555
O4 C21 1_555 1_555
N1 H1 1_555 1_555
N2 C7 1_555 1_555
N3 C7 1_555 1_555
F1 C23 1_555 1_555
F2 C23 1_555 1_555
F3 C23 1_555 1_555
C1 H2 1_555 1_555
C2 C1 1_555 1_555
H3 C2 1_555 1_555
C3 C2 1_555 1_555
H4 C3 1_555 1_555
C4 C3 1_555 1_555
H5 C4 1_555 1_555
C5 C4 1_555 1_555
H6 C5 1_555 1_555
C6 N1 1_555 1_555
C7 N1 1_555 1_555
C8 N2 1_555 1_555
C9 C8 1_555 1_555
H7 C9 1_555 1_555
C10 N3 1_555 1_555
C11 O1 1_555 1_555
H8 C11 1_555 1_555
H9 C11 1_555 1_555
C12 C11 1_555 1_555
C13 C12 1_555 1_555
H10 C13 1_555 1_555
C14 C13 1_555 1_555
H11 C14 1_555 1_555
C15 C14 1_555 1_555
H12 C15 1_555 1_555
C16 C15 1_555 1_555
H13 C16 1_555 1_555
C17 C12 1_555 1_555
C18 C17 1_555 1_555
C19 C18 1_555 1_555
H14 C19 1_555 1_555
C20 O2 1_555 1_555
H15 C20 1_555 1_555
H16 C20 1_555 1_555
H17 C20 1_555 1_555
C21 C18 1_555 1_555
C22 O4 1_555 1_555
H18 C22 1_555 1_555
H19 C22 1_555 1_555
H20 C22 1_555 1_555
C23 C8 1_555 1_555
C1 C6 1_555 1_555
C5 C6 1_555 1_555
C9 C10 1_555 1_555
C16 C17 1_555 1_555

#END
