
#######################################################################
#
#                 Cambridge Crystallographic Data Centre
#                                CCDC 
#
#######################################################################
#
# If this CIF has been generated from an entry in the Cambridge 
# Structural Database, then it will include bibliographic, chemical, 
# crystal, experimental, refinement or atomic coordinate data resulting 
# from the CCDC's data processing and validation procedures.
#
#######################################################################

data_REBPEV
_chemical_formula_moiety         'C12 H12 O3'
_chemical_name_systematic        3-Ethyl-6-methoxy-1H-isochromen-1-one
_symmetry_cell_setting           monoclinic
_symmetry_space_group_name_H-M   'P 21/c'
_symmetry_Int_Tables_number      14
_space_group_name_Hall           '-P 2ybc'
loop_
_symmetry_equiv_pos_site_id
_symmetry_equiv_pos_as_xyz
1 x,y,z
2 -x,1/2+y,1/2-z
3 -x,-y,-z
4 x,1/2-y,1/2+z
_cell_length_a                   7.8837(16)
_cell_length_b                   14.156(3)
_cell_length_c                   18.850(4)
_cell_angle_alpha                90
_cell_angle_beta                 98.14(3)
_cell_angle_gamma                90
_cell_volume                     2082.5
_exptl_crystal_colour            colorless
_exptl_crystal_description       block
_cell_formula_units_Z            8
loop_
_atom_site_label
_atom_site_type_symbol
_atom_site_fract_x
_atom_site_fract_y
_atom_site_fract_z
O1 O 0.12357(19) 0.33546(10) 0.19838(8)
C1 C 0.0147(2) 0.29457(14) 0.30799(11)
C2 C 0.0087(2) 0.19930(14) 0.28745(11)
C3 C 0.0647(2) 0.17415(15) 0.22027(10)
H1 H 0.0644 0.1098 0.2059
O4 O -0.1658(2) 0.09976(11) 0.44314(8)
C7 C -0.0981(3) 0.25538(16) 0.41644(11)
H3 H -0.1339 0.2739 0.4604
C8 C -0.0525(3) 0.13136(15) 0.33214(11)
H4 H -0.0582 0.0667 0.3186
C10 C 0.1169(2) 0.24095(15) 0.17830(11)
O5 O 0.0899(2) 0.45015(11) 0.27500(9)
C12 C -0.1043(3) 0.15993(16) 0.39598(11)
C14 C -0.0402(3) 0.32174(16) 0.37274(11)
H7 H -0.0371 0.3864 0.3863
C15 C 0.1722(3) 0.23060(16) 0.10603(11)
H8 H 0.2875 0.2589 0.1075
H9 H 0.0924 0.2669 0.0709
C18 C 0.0760(3) 0.36580(16) 0.26241(11)
C21 C 0.1785(3) 0.12915(18) 0.07985(12)
H15 H 0.2161 0.1284 0.0325
H16 H 0.0641 0.1009 0.0766
H17 H 0.2592 0.0928 0.1136
C24 C -0.1863(4) 0.00198(18) 0.42232(15)
H22 H -0.2309 -0.0336 0.4603
H23 H -0.0752 -0.0241 0.4147
H24 H -0.2668 -0.0028 0.3778
O2 O 0.28101(18) 0.66389(10) 0.43378(7)
O3 O 0.4864(2) 0.89979(11) 0.17089(8)
C4 C 0.3890(2) 0.69581(15) 0.32156(10)
H2 H 0.4079 0.6307 0.3133
C5 C 0.3988(3) 0.85982(15) 0.28488(11)
C6 C 0.4266(2) 0.76420(15) 0.27193(10)
C9 C 0.4911(3) 0.73822(16) 0.20658(11)
H5 H 0.5158 0.6740 0.1976
O6 O 0.4169(2) 1.01651(13) 0.23923(11)
C11 C 0.2984(3) 0.82072(16) 0.39604(12)
H6 H 0.2559 0.8395 0.4386
C13 C 0.5161(3) 0.80490(17) 0.15857(11)
C16 C 0.3241(2) 0.72469(15) 0.38254(10)
C17 C 0.3105(3) 0.56468(15) 0.42380(12)
H10 H 0.2746 0.5290 0.4637
H11 H 0.4328 0.5539 0.4223
H12 H 0.2443 0.5437 0.3786
C19 C 0.5720(3) 0.79223(19) 0.08680(12)
H13 H 0.6777 0.8296 0.0854
H14 H 0.4824 0.8183 0.0499
C20 C 0.4327(3) 0.93148(17) 0.23327(13)
C22 C 0.3347(3) 0.88739(16) 0.34757(12)
H18 H 0.3165 0.9524 0.3564
C23 C 0.6066(3) 0.6906(2) 0.06736(12)
H19 H 0.6423 0.6886 0.0197
H20 H 0.5020 0.6531 0.0673
H21 H 0.6978 0.6645 0.1026
loop_
_geom_bond_atom_site_label_1
_geom_bond_atom_site_label_2
_geom_bond_site_symmetry_1
_geom_bond_site_symmetry_2
O1 C10 1_555 1_555
O2 C16 1_555 1_555
O3 C13 1_555 1_555
C1 C2 1_555 1_555
C2 C3 1_555 1_555
C3 H1 1_555 1_555
C4 H2 1_555 1_555
C5 C6 1_555 1_555
O4 C12 1_555 1_555
C6 C4 1_555 1_555
C7 H3 1_555 1_555
C8 C2 1_555 1_555
H4 C8 1_555 1_555
C9 C6 1_555 1_555
H5 C9 1_555 1_555
C10 C3 1_555 1_555
O5 C18 1_555 1_555
O6 C20 1_555 1_555
C11 H6 1_555 1_555
C12 C7 1_555 1_555
C13 C9 1_555 1_555
C14 C1 1_555 1_555
H7 C14 1_555 1_555
C15 C10 1_555 1_555
H8 C15 1_555 1_555
H9 C15 1_555 1_555
C16 C4 1_555 1_555
C17 O2 1_555 1_555
H10 C17 1_555 1_555
H11 C17 1_555 1_555
H12 C17 1_555 1_555
C18 O1 1_555 1_555
C19 C13 1_555 1_555
H13 C19 1_555 1_555
H14 C19 1_555 1_555
C20 O3 1_555 1_555
C21 C15 1_555 1_555
H15 C21 1_555 1_555
H16 C21 1_555 1_555
H17 C21 1_555 1_555
C22 C5 1_555 1_555
H18 C22 1_555 1_555
C23 C19 1_555 1_555
H19 C23 1_555 1_555
H20 C23 1_555 1_555
H21 C23 1_555 1_555
C24 O4 1_555 1_555
H22 C24 1_555 1_555
H23 C24 1_555 1_555
H24 C24 1_555 1_555
C1 C18 1_555 1_555
C5 C20 1_555 1_555
C7 C14 1_555 1_555
C8 C12 1_555 1_555
C11 C16 1_555 1_555
C11 C22 1_555 1_555

#END
