
#######################################################################
#
#                 Cambridge Crystallographic Data Centre
#                                CCDC 
#
#######################################################################
#
# If this CIF has been generated from an entry in the Cambridge 
# Structural Database, then it will include bibliographic, chemical, 
# crystal, experimental, refinement or atomic coordinate data resulting 
# from the CCDC's data processing and validation procedures.
#
#######################################################################

data_REBYEE
_chemical_formula_moiety         'C28 H20 O16 S4 4-,4(Na1 1+),14(H2 O1)'
_chemical_name_systematic        
'Tetra-sodium 25,26,27,28-tetrahydroxycalix(4)arene-5,11,17,23-tetrasulfonate tetradecahydrate'
_symmetry_cell_setting           monoclinic
_symmetry_space_group_name_H-M   'P 2'
_symmetry_Int_Tables_number      3
_space_group_name_Hall           'P 2y'
loop_
_symmetry_equiv_pos_site_id
_symmetry_equiv_pos_as_xyz
1 x,y,z
2 -x,y,-z
_cell_length_a                   10.270(2)
_cell_length_b                   15.365(4)
_cell_length_c                   57.437(13)
_cell_angle_alpha                90
_cell_angle_beta                 94.865(7)
_cell_angle_gamma                90
_cell_volume                     9030.82
_exptl_crystal_colour            'light brown'
_exptl_crystal_description       prism
_cell_formula_units_Z            8
loop_
_atom_site_label
_atom_site_type_symbol
_atom_site_fract_x
_atom_site_fract_y
_atom_site_fract_z
Na1 Na 0.36347(11) 0.37984(7) 0.477956(19)
Na2 Na -0.25489(10) 0.62583(7) 0.495141(19)
Na3 Na 0.0000 0.79569(18) 0.5000
Na4 Na -0.14647(11) 1.05784(7) 0.47995(2)
Na5 Na 0.5000 0.80122(10) 0.5000
Na6 Na 0.87289(10) 1.30848(7) 0.255004(19)
Na7 Na 0.61900(12) 1.14033(14) 0.24983(2)
Na8 Na 0.76396(11) 0.87598(8) 0.27015(2)
Na9 Na 0.25490(11) 1.55429(7) 0.272076(19)
Na10 Na 0.11846(10) 1.13368(8) 0.250026(18)
Na11 Na -0.52792(11) 0.87628(7) 0.22975(2)
Na12 Na -0.01835(11) 1.55451(7) 0.228085(19)
Na13 Na -0.63602(10) 1.30806(7) 0.245198(19)
Na14 Na 0.38445(11) 1.05460(7) 0.021912(19)
Na15 Na -0.24999(10) 0.80811(7) 0.004922(19)
Na16 Na 0.0000 0.63870(18) 0.0000
Na17 Na 0.5000 0.63293(10) 0.0000
Na18 Na -0.12684(11) 0.37631(7) 0.02023(2)
S1 S -0.20956(5) 0.60293(4) 0.034958(9)
O1 O -0.00948(16) 0.64038(11) 0.13427(3)
H1 H -0.0330 0.6861 0.1400
C1 C -0.14806(19) 0.61515(13) 0.06458(3)
O2 O -0.3496(2) 0.5938(2) 0.03475(4)
C2 C -0.17622(19) 0.69176(13) 0.07630(4)
H2 H -0.2247 0.7354 0.0684
O3 O -0.1740(3) 0.68333(14) 0.02314(4)
C3 C -0.13187(18) 0.70327(12) 0.09985(3)
O4 O -0.1433(2) 0.52901(13) 0.02557(3)
C4 C -0.05583(18) 0.63655(13) 0.11116(3)
C5 C -0.02379(18) 0.56050(13) 0.09912(3)
C6 C -0.07148(19) 0.55005(14) 0.07589(4)
H3 H -0.0524 0.4997 0.0679
C7 C 0.06514(19) 0.49059(13) 0.11081(4)
H4 H 0.0282 0.4338 0.1069
H5 H 0.0675 0.4975 0.1276
S5 S 0.43900(7) 0.34060(4) 0.067765(12)
O17 O 0.25422(16) 0.62973(11) 0.12391(3)
H21 H 0.1785 0.6228 0.1270
C29 C 0.3810(2) 0.42842(14) 0.08374(4)
O18 O 0.4005(2) 0.26187(12) 0.07951(3)
C30 C 0.2527(2) 0.42698(13) 0.09009(4)
H22 H 0.1982 0.3809 0.0853
O19 O 0.3750(4) 0.3458(2) 0.04441(4)
C31 C 0.20487(19) 0.49379(13) 0.10354(3)
O20 O 0.5790(3) 0.3505(2) 0.06851(8)
C32 C 0.29007(19) 0.56244(12) 0.11041(3)
C33 C 0.41859(19) 0.56613(13) 0.10369(4)
C34 C 0.4632(2) 0.49814(14) 0.09043(4)
H23 H 0.5483 0.4991 0.0860
C35 C 0.50633(19) 0.64232(15) 0.11124(4)
H24 H 0.5947 0.6297 0.1075
H25 H 0.5080 0.6491 0.1280
S9 S 0.46474(5) 0.82692(3) 0.034258(8)
O33 O 0.37620(16) 0.79155(11) 0.13433(2)
H41 H 0.4059 0.7459 0.1400
C56 C 0.43708(19) 0.81555(13) 0.06418(3)
O34 O 0.38389(19) 0.90000(12) 0.02527(3)
C57 C 0.47902(19) 0.73957(13) 0.07588(3)
H42 H 0.5193 0.6960 0.0678
O35 O 0.42230(19) 0.74569(12) 0.02292(3)
C58 C 0.46116(18) 0.72824(13) 0.09944(3)
O36 O 0.60484(17) 0.84336(15) 0.03346(3)
C59 C 0.39808(18) 0.79511(14) 0.11100(3)
C60 C 0.35167(18) 0.87059(13) 0.09930(3)
C61 C 0.37435(19) 0.88051(13) 0.07570(3)
H43 H 0.3472 0.9309 0.0677
C62 C 0.27608(19) 0.94065(13) 0.11126(3)
H44 H 0.2905 0.9333 0.1281
H45 H 0.3098 0.9973 0.1074
S13 S -0.13974(6) 1.09183(4) 0.069171(11)
O49 O 0.10167(15) 0.80072(11) 0.12408(3)
H61 H 0.1804 0.8079 0.1272
C84 C -0.0654(2) 1.00372(13) 0.08500(4)
O50 O -0.2784(2) 1.08472(18) 0.07058(6)
C85 C 0.0694(2) 1.00532(13) 0.09105(4)
H62 H 0.1190 1.0516 0.0862
O51 O -0.08384(19) 1.17141(11) 0.07967(3)
C86 C 0.12992(19) 0.93812(13) 0.10423(3)
O52 O -0.1051(4) 1.08227(15) 0.04512(4)
C87 C 0.05175(19) 0.86884(13) 0.11095(3)
C88 C -0.0830(2) 0.86532(14) 0.10440(4)
C89 C -0.1419(2) 0.93406(14) 0.09148(4)
H63 H -0.2313 0.9334 0.0872
C90 C -0.16384(19) 0.78832(14) 0.11186(4)
H64 H -0.1486 0.7808 0.1286
H65 H -0.2558 0.8013 0.1083
S2 S 0.05061(5) 1.32697(3) 0.215817(8)
O5 O -0.13272(16) 1.29117(11) 0.11572(2)
H6 H -0.1087 1.2456 0.1100
C8 C -0.00540(18) 1.31521(13) 0.18595(3)
O6 O -0.02188(18) 1.40024(12) 0.22481(3)
C9 C -0.07922(19) 1.38034(13) 0.17438(3)
H7 H -0.0995 1.4306 0.1824
O7 O 0.01912(19) 1.24564(12) 0.22719(3)
C10 C -0.12319(18) 1.37075(12) 0.15079(3)
O8 O 0.19100(17) 1.34360(14) 0.21671(3)
C11 C -0.08939(18) 1.29416(14) 0.13899(3)
C12 C -0.01503(18) 1.22774(13) 0.15064(3)
C13 C 0.02546(18) 1.23948(13) 0.17425(4)
H8 H 0.0737 1.1961 0.1823
C14 C 0.0188(2) 1.14291(14) 0.13874(4)
H9 H 0.0039 1.1500 0.1219
H10 H 0.1109 1.1305 0.1424
S6 S -0.00696(7) 0.84055(4) 0.182222(12)
O21 O -0.24517(15) 1.12992(11) 0.12617(3)
H26 H -0.3239 1.1231 0.1230
C36 C -0.0802(2) 0.92845(14) 0.16619(4)
O22 O -0.0475(4) 0.8458(2) 0.20562(4)
C37 C -0.0041(2) 0.99832(14) 0.15969(4)
H27 H 0.0849 0.9996 0.1644
O23 O 0.1320(3) 0.8513(2) 0.18187(8)
C38 C -0.06084(19) 1.06624(13) 0.14624(4)
O24 O -0.0567(2) 0.76153(12) 0.17056(3)
C39 C -0.19641(19) 1.06229(13) 0.13967(3)
C40 C -0.2747(2) 0.99391(13) 0.14651(3)
C41 C -0.2151(2) 0.92626(14) 0.15992(4)
H28 H -0.2650 0.8800 0.1646
C42 C -0.42156(19) 0.99067(13) 0.13919(4)
H29 H -0.4351 0.9975 0.1224
H30 H -0.4549 0.9339 0.1431
S10 S -0.62487(5) 1.10314(4) 0.215013(9)
O37 O -0.51830(16) 1.14026(10) 0.11574(3)
H46 H -0.5468 1.1862 0.1101
C63 C -0.59080(19) 1.11553(13) 0.18545(3)
O38 O -0.5505(2) 1.02855(14) 0.22435(3)
C64 C -0.52498(19) 1.05057(13) 0.17427(3)
H47 H -0.4980 1.0004 0.1824
O39 O -0.7645(2) 1.0932(2) 0.21517(4)
C65 C -0.49922(18) 1.06066(13) 0.15081(4)
O40 O -0.5778(2) 1.18331(14) 0.22684(3)
C66 C -0.54256(18) 1.13619(13) 0.13872(3)
C67 C -0.60727(18) 1.20349(13) 0.15007(4)
C68 C -0.62999(19) 1.19197(14) 0.17363(4)
H48 H -0.6715 1.2356 0.1814
C69 C -0.65144(19) 1.28845(14) 0.13805(4)
H49 H -0.6519 1.2811 0.1213
H50 H -0.7402 1.3012 0.1416
S14 S -0.58705(7) 1.59174(4) 0.180880(11)
O53 O -0.39753(16) 1.30098(11) 0.12598(3)
H66 H -0.3213 1.3077 0.1231
C91 C -0.5275(2) 1.50378(14) 0.16499(4)
O54 O -0.7275(2) 1.58375(18) 0.17938(6)
C92 C -0.6092(2) 1.43382(14) 0.15855(4)
H67 H -0.6943 1.4330 0.1629
O55 O -0.5297(4) 1.58203(16) 0.20497(4)
C93 C -0.5638(2) 1.36525(13) 0.14563(4)
O56 O -0.54072(19) 1.67158(11) 0.17033(3)
C94 C -0.43493(19) 1.36906(13) 0.13903(3)
C95 C -0.35022(19) 1.43792(12) 0.14583(3)
C96 C -0.3984(2) 1.50584(13) 0.15900(3)
H68 H -0.3444 1.5523 0.1637
C97 C -0.21055(19) 1.44102(13) 0.13877(3)
H69 H -0.1735 1.4978 0.1427
H70 H -0.2119 1.4338 0.1220
S3 S 0.18593(5) 1.32652(3) 0.284457(8)
O9 O 0.37166(16) 1.29102(11) 0.38447(3)
H11 H 0.3483 1.2452 0.3902
C15 C 0.24257(19) 1.31486(13) 0.31431(3)
O10 O 0.25758(18) 1.39995(12) 0.27543(3)
C16 C 0.3159(2) 1.37997(13) 0.32581(3)
H12 H 0.3352 1.4304 0.3178
O11 O 0.04529(17) 1.34314(15) 0.28361(3)
C17 C 0.36128(18) 1.37042(13) 0.34945(3)
O12 O 0.21737(19) 1.24539(12) 0.27311(3)
C18 C 0.32719(19) 1.29420(14) 0.36119(3)
C19 C 0.25344(18) 1.22705(13) 0.34961(4)
C20 C 0.21174(19) 1.23901(14) 0.32607(4)
H13 H 0.1627 1.1958 0.3181
C21 C 0.21901(19) 1.14238(14) 0.36158(4)
H14 H 0.2342 1.1494 0.3784
H15 H 0.1269 1.1300 0.3579
S7 S 0.24431(7) 0.84116(4) 0.317658(11)
O25 O 0.48310(16) 1.12936(11) 0.37409(3)
H31 H 0.5619 1.1226 0.3771
C43 C 0.3176(2) 0.92915(14) 0.33374(4)
O26 O 0.2881(4) 0.8459(2) 0.29449(4)
C44 C 0.2418(2) 0.99841(15) 0.34047(4)
H32 H 0.1526 0.9995 0.3360
O27 O 0.1052(2) 0.8526(2) 0.31775(8)
C45 C 0.2988(2) 1.06645(13) 0.35395(4)
O28 O 0.2929(2) 0.76208(12) 0.32944(3)
C46 C 0.4343(2) 1.06187(13) 0.36057(4)
C47 C 0.5127(2) 0.99341(13) 0.35348(3)
C48 C 0.4524(2) 0.92686(14) 0.34002(4)
H33 H 0.5020 0.8806 0.3352
C49 C 0.65929(19) 0.99039(13) 0.36075(4)
H34 H 0.6730 0.9976 0.3776
H35 H 0.6928 0.9336 0.3569
S11 S 0.86108(5) 1.10245(4) 0.284722(9)
O41 O 0.75674(16) 1.14017(11) 0.38418(3)
H51 H 0.7853 1.1860 0.3899
C70 C 0.82781(19) 1.11531(14) 0.31433(3)
O42 O 0.7857(2) 1.02836(14) 0.27549(3)
C71 C 0.7621(2) 1.05023(13) 0.32561(4)
H52 H 0.7353 1.0000 0.3176
O43 O 0.8150(3) 1.18276(14) 0.27283(4)
C72 C 0.73641(18) 1.06037(13) 0.34894(3)
O44 O 1.0010(2) 1.0923(2) 0.28469(4)
C73 C 0.78054(19) 1.13645(13) 0.36113(3)
C74 C 0.84493(19) 1.20375(13) 0.34959(4)
C75 C 0.86724(19) 1.19149(14) 0.32609(4)
H53 H 0.9090 1.2348 0.3182
C76 C 0.88858(19) 1.28769(14) 0.36151(4)
H54 H 0.9773 1.3004 0.3580
H55 H 0.8892 1.2801 0.3783
S15 S 0.82469(7) 1.59252(4) 0.319287(11)
O57 O 0.63574(16) 1.30054(11) 0.37381(3)
H71 H 0.5599 1.3074 0.3769
C98 C 0.7646(2) 1.50438(14) 0.33510(4)
O58 O 0.9650(3) 1.58505(19) 0.32102(7)
C99 C 0.8469(2) 1.43399(14) 0.34125(4)
H72 H 0.9318 1.4332 0.3368
O59 O 0.7691(4) 1.58280(16) 0.29515(4)
C100 C 0.8012(2) 1.36521(13) 0.35409(4)
O60 O 0.7772(2) 1.67188(11) 0.32976(3)
C101 C 0.67254(19) 1.36857(13) 0.36074(4)
C102 C 0.58842(19) 1.43781(13) 0.35417(3)
C103 C 0.6357(2) 1.50582(14) 0.34109(4)
H73 H 0.5813 1.5521 0.3364
C104 C 0.44851(19) 1.44058(13) 0.36127(4)
H74 H 0.4502 1.4336 0.3781
H75 H 0.4112 1.4972 0.3573
S4 S 0.37399(7) 1.09273(4) 0.432269(11)
O13 O 0.13495(16) 0.80454(11) 0.37600(3)
H16 H 0.0562 0.8116 0.3729
C22 C 0.3002(2) 1.00487(14) 0.41618(4)
O14 O 0.5128(2) 1.0827(2) 0.43202(7)
C23 C 0.3766(2) 0.93554(14) 0.40942(4)
H17 H 0.4659 0.9345 0.4138
O15 O 0.3257(2) 1.17147(12) 0.42060(3)
C24 C 0.3183(2) 0.86779(14) 0.39605(4)
O16 O 0.3317(4) 1.08709(19) 0.45564(4)
C25 C 0.18379(19) 0.87138(13) 0.38948(3)
C26 C 0.10566(19) 0.94000(13) 0.39642(3)
C27 C 0.1658(2) 1.00626(14) 0.41005(4)
H18 H 0.1157 1.0518 0.4151
C28 C -0.0404(2) 0.94324(13) 0.38936(4)
H19 H -0.0546 0.9365 0.3725
H20 H -0.0734 1.0000 0.3933
S8 S -0.24278(5) 0.83115(4) 0.465264(9)
O29 O -0.13855(16) 0.79375(11) 0.36595(3)
H36 H -0.1670 0.7479 0.3603
O30 O -0.1669(2) 0.90515(13) 0.47462(3)
C50 C -0.1438(2) 0.88376(14) 0.42438(4)
H37 H -0.1172 0.9341 0.4324
O31 O -0.3830(2) 0.8401(2) 0.46534(4)
C51 C -0.11803(19) 0.87354(14) 0.40102(3)
O32 O -0.1960(2) 0.75160(14) 0.47724(4)
C52 C -0.16300(19) 0.79750(13) 0.38918(3)
C53 C -0.22707(18) 0.73061(14) 0.40049(4)
C54 C -0.24899(19) 0.74263(14) 0.42390(4)
H38 H -0.2908 0.6993 0.4318
C55 C -0.2713(2) 0.64502(14) 0.38853(4)
H39 H -0.3596 0.6320 0.3922
H40 H -0.2728 0.6523 0.3717
S12 S -0.20618(7) 0.34115(4) 0.430805(11)
O45 O -0.01747(16) 0.63357(11) 0.37626(3)
H56 H 0.0583 0.6265 0.3731
C77 C -0.1467(2) 0.42967(15) 0.41513(4)
O46 O -0.1505(4) 0.35141(16) 0.45485(4)
C78 C -0.2294(2) 0.49984(15) 0.40880(4)
H57 H -0.3146 0.5005 0.4132
O47 O -0.3468(2) 0.34792(18) 0.42896(6)
C79 C -0.18358(19) 0.56881(14) 0.39587(4)
O48 O -0.1589(2) 0.26204(11) 0.42030(3)
C80 C -0.05471(19) 0.56514(13) 0.38929(4)
C81 C 0.0304(2) 0.49562(14) 0.39582(3)
C82 C -0.0181(2) 0.42822(13) 0.40883(4)
H58 H 0.0359 0.3816 0.4134
C83 C 0.1702(2) 0.49303(13) 0.38879(4)
H59 H 0.1687 0.5002 0.3720
H60 H 0.2075 0.4364 0.3927
S16 S 0.43267(5) 0.60715(3) 0.465590(8)
O61 O 0.24688(16) 0.64319(11) 0.36563(3)
H76 H 0.2708 0.6891 0.3601
C105 C 0.37692(19) 0.61910(13) 0.43568(3)
C106 C 0.3019(2) 0.55331(14) 0.42421(4)
H77 H 0.2819 0.5031 0.4322
O62 O 0.57302(16) 0.58981(15) 0.46640(3)
C107 C 0.25734(18) 0.56342(13) 0.40074(3)
O63 O 0.4007(2) 0.68889(12) 0.47695(3)
C108 C 0.29103(19) 0.63886(13) 0.38876(3)
O64 O 0.36099(19) 0.53485(12) 0.47458(3)
C109 C 0.36628(19) 0.70609(13) 0.40038(4)
C110 C 0.40695(19) 0.69486(14) 0.42408(4)
H78 H 0.4545 0.7385 0.4321
C111 C 0.3994(2) 0.79107(15) 0.38856(4)
H79 H 0.3849 0.7840 0.3718
H80 H 0.4914 0.8039 0.3923
C112 C -0.20902(19) 0.81882(14) 0.43568(3)
O65 O 0.3994(2) 0.40422(14) 0.51945(3)
O66 O -0.1258(3) 0.5101(2) 0.48141(7)
O67 O -0.0737(3) 0.6382(3) 0.52367(6)
O68 O 0.1350(3) 0.3941(4) 0.47457(9)
O69 O 0.3679(3) 0.22808(17) 0.48796(5)
O70 O 0.3812(2) 0.34622(16) 0.43848(4)
O71 O 0.3722(3) 0.9106(2) 0.47900(6)
O72 O -0.2078(2) 1.09205(16) 0.44012(4)
O73 O 0.0833(2) 1.03299(18) 0.47766(4)
O74 O -0.3785(3) 1.0529(3) 0.48443(5)
O75 O -0.1286(3) 1.21216(16) 0.48850(5)
O76 O -0.5096(3) 0.72071(16) 0.23852(5)
O77 O -0.7604(3) 0.8815(2) 0.23442(5)
O78 O -0.5883(3) 0.84291(16) 0.18991(4)
O79 O -0.2996(2) 0.90054(17) 0.22741(4)
O80 O 0.7461(3) 0.72119(16) 0.26137(5)
O81 O -0.4650(2) 1.21340(19) 0.31878(4)
O82 O 0.8245(2) 0.84247(16) 0.31002(4)
O83 O 0.5360(2) 0.90076(17) 0.27236(4)
O84 O 0.2466(3) 1.0227(2) 0.27071(6)
O85 O -0.4548(3) 1.2951(3) 0.27336(6)
O86 O -0.0091(3) 1.0234(2) 0.22890(6)
O87 O -0.5065(3) 1.4250(2) 0.23202(7)
O88 O 0.7017(2) 1.21396(18) 0.18132(4)
O89 O 0.7417(2) 1.0843(2) 0.21829(5)
O90 O 0.4958(2) 1.0850(2) 0.28138(5)
O91 O 0.6914(3) 1.2945(3) 0.22669(6)
O92 O 0.7443(3) 1.4257(2) 0.26814(7)
O93 O 0.4847(3) 1.5413(4) 0.27577(9)
O94 O 0.2358(2) 1.58820(16) 0.31159(4)
O95 O 0.2499(3) 1.70544(16) 0.26189(5)
O96 O 0.01816(19) 1.52966(13) 0.26956(3)
O97 O 0.21890(19) 1.52977(13) 0.23058(3)
O98 O -0.0134(4) 1.70579(17) 0.23828(5)
O99 O 0.0012(2) 1.58823(16) 0.18846(4)
O100 O -0.2491(3) 1.5407(4) 0.22449(9)
O101 O -0.2888(5) 1.7184(5) 0.19686(10)
O102 O 0.4400(2) 1.08883(16) 0.06161(4)
O103 O 0.3798(3) 1.20585(16) 0.01195(5)
O104 O 0.38121(19) 1.02983(13) -0.01946(3)
O105 O 0.1576(3) 1.0399(4) 0.02535(9)
O106 O -0.1086(3) 0.9232(2) 0.01852(7)
O107 O -0.0963(3) 0.7968(3) -0.02370(5)
O108 O 0.3916(3) 0.5236(2) 0.02109(6)
O109 O 0.1485(2) 0.71392(18) 0.06872(4)
O110 O 0.1532(2) 0.5858(2) 0.03159(5)
O111 O 0.1417(5) 0.2193(5) 0.05339(10)
O112 O 0.1045(2) 0.40126(17) 0.02250(4)
O113 O -0.1502(3) 0.34254(17) 0.06010(4)
O114 O -0.1170(3) 0.22127(17) 0.01150(5)
O115 O -0.3632(3) 0.3822(2) 0.01572(5)
O116 O 0.5260(5) 1.7183(5) 0.30346(10)
O117 O 0.0923(4) 0.2207(5) 0.44632(11)
O118 O 0.0847(2) 0.72021(18) 0.43133(4)
O119 O 0.1231(2) 0.8478(2) 0.46844(5)
O120 O 0.9963(3) 0.8818(2) 0.26563(5)
loop_
_geom_bond_atom_site_label_1
_geom_bond_atom_site_label_2
_geom_bond_site_symmetry_1
_geom_bond_site_symmetry_2
S1 C1 1_555 1_555
O1 H1 1_555 1_555
C1 C2 1_555 1_555
O2 S1 1_555 1_555
C2 H2 1_555 1_555
O3 S1 1_555 1_555
C3 C2 1_555 1_555
O4 S1 1_555 1_555
C4 O1 1_555 1_555
C5 C4 1_555 1_555
C6 C1 1_555 1_555
H3 C6 1_555 1_555
C7 C5 1_555 1_555
H4 C7 1_555 1_555
H5 C7 1_555 1_555
S2 C8 1_555 1_555
O5 H6 1_555 1_555
C8 C9 1_555 1_555
O6 S2 1_555 1_555
C9 H7 1_555 1_555
O7 S2 1_555 1_555
C10 C9 1_555 1_555
O8 S2 1_555 1_555
C11 O5 1_555 1_555
C12 C11 1_555 1_555
C13 C8 1_555 1_555
H8 C13 1_555 1_555
C14 C12 1_555 1_555
H9 C14 1_555 1_555
H10 C14 1_555 1_555
S3 C15 1_555 1_555
O9 H11 1_555 1_555
C15 C16 1_555 1_555
O10 S3 1_555 1_555
C16 H12 1_555 1_555
O11 S3 1_555 1_555
C17 C16 1_555 1_555
O12 S3 1_555 1_555
C18 O9 1_555 1_555
C19 C18 1_555 1_555
C20 C15 1_555 1_555
H13 C20 1_555 1_555
C21 C19 1_555 1_555
H14 C21 1_555 1_555
H15 C21 1_555 1_555
S4 C22 1_555 1_555
O13 H16 1_555 1_555
C22 C23 1_555 1_555
O14 S4 1_555 1_555
C23 H17 1_555 1_555
O15 S4 1_555 1_555
C24 C23 1_555 1_555
O16 S4 1_555 1_555
C25 O13 1_555 1_555
C26 C25 1_555 1_555
C27 C22 1_555 1_555
H18 C27 1_555 1_555
C28 C26 1_555 1_555
H19 C28 1_555 1_555
H20 C28 1_555 1_555
S5 C29 1_555 1_555
O17 H21 1_555 1_555
C29 C30 1_555 1_555
O18 S5 1_555 1_555
C30 H22 1_555 1_555
O19 S5 1_555 1_555
C31 C7 1_555 1_555
O20 S5 1_555 1_555
C32 O17 1_555 1_555
C33 C32 1_555 1_555
C34 C29 1_555 1_555
H23 C34 1_555 1_555
C35 C33 1_555 1_555
H24 C35 1_555 1_555
H25 C35 1_555 1_555
S6 C36 1_555 1_555
O21 H26 1_555 1_555
C36 C37 1_555 1_555
O22 S6 1_555 1_555
C37 H27 1_555 1_555
O23 S6 1_555 1_555
C38 C14 1_555 1_555
O24 S6 1_555 1_555
C39 O21 1_555 1_555
C40 C39 1_555 1_555
C41 C36 1_555 1_555
H28 C41 1_555 1_555
C42 C40 1_555 1_555
H29 C42 1_555 1_555
H30 C42 1_555 1_555
S7 C43 1_555 1_555
O25 H31 1_555 1_555
C43 C44 1_555 1_555
O26 S7 1_555 1_555
C44 H32 1_555 1_555
O27 S7 1_555 1_555
C45 C21 1_555 1_555
O28 S7 1_555 1_555
C46 O25 1_555 1_555
C47 C46 1_555 1_555
C48 C43 1_555 1_555
H33 C48 1_555 1_555
C49 C47 1_555 1_555
H34 C49 1_555 1_555
H35 C49 1_555 1_555
S8 O30 1_555 1_555
O29 H36 1_555 1_555
C50 H37 1_555 1_555
O31 S8 1_555 1_555
C51 C28 1_555 1_555
O32 S8 1_555 1_555
C52 O29 1_555 1_555
C53 C52 1_555 1_555
C54 C53 1_555 1_555
H38 C54 1_555 1_555
C55 C53 1_555 1_555
H39 C55 1_555 1_555
H40 C55 1_555 1_555
S9 C56 1_555 1_555
O33 H41 1_555 1_555
C56 C57 1_555 1_555
O34 S9 1_555 1_555
C57 H42 1_555 1_555
O35 S9 1_555 1_555
C58 C35 1_555 1_555
O36 S9 1_555 1_555
C59 O33 1_555 1_555
C60 C59 1_555 1_555
C61 C56 1_555 1_555
H43 C61 1_555 1_555
C62 C60 1_555 1_555
H44 C62 1_555 1_555
H45 C62 1_555 1_555
S10 C63 1_555 1_555
O37 H46 1_555 1_555
C63 C64 1_555 1_555
O38 S10 1_555 1_555
C64 H47 1_555 1_555
O39 S10 1_555 1_555
C65 C42 1_555 1_555
O40 S10 1_555 1_555
C66 O37 1_555 1_555
C67 C66 1_555 1_555
C68 C63 1_555 1_555
H48 C68 1_555 1_555
C69 C67 1_555 1_555
H49 C69 1_555 1_555
H50 C69 1_555 1_555
S11 C70 1_555 1_555
O41 H51 1_555 1_555
C70 C71 1_555 1_555
O42 S11 1_555 1_555
C71 H52 1_555 1_555
O43 S11 1_555 1_555
C72 C49 1_555 1_555
O44 S11 1_555 1_555
C73 O41 1_555 1_555
C74 C73 1_555 1_555
C75 C70 1_555 1_555
H53 C75 1_555 1_555
C76 C74 1_555 1_555
H54 C76 1_555 1_555
H55 C76 1_555 1_555
S12 C77 1_555 1_555
O45 H56 1_555 1_555
C77 C78 1_555 1_555
O46 S12 1_555 1_555
C78 H57 1_555 1_555
O47 S12 1_555 1_555
C79 C55 1_555 1_555
O48 S12 1_555 1_555
C80 O45 1_555 1_555
C81 C80 1_555 1_555
C82 C77 1_555 1_555
H58 C82 1_555 1_555
C83 C81 1_555 1_555
H59 C83 1_555 1_555
H60 C83 1_555 1_555
S13 C84 1_555 1_555
O49 H61 1_555 1_555
C84 C85 1_555 1_555
O50 S13 1_555 1_555
C85 H62 1_555 1_555
O51 S13 1_555 1_555
C86 C62 1_555 1_555
O52 S13 1_555 1_555
C87 O49 1_555 1_555
C88 C87 1_555 1_555
C89 C84 1_555 1_555
H63 C89 1_555 1_555
C90 C3 1_555 1_555
H64 C90 1_555 1_555
H65 C90 1_555 1_555
S14 C91 1_555 1_555
O53 H66 1_555 1_555
C91 C92 1_555 1_555
O54 S14 1_555 1_555
C92 H67 1_555 1_555
O55 S14 1_555 1_555
C93 C69 1_555 1_555
O56 S14 1_555 1_555
C94 O53 1_555 1_555
C95 C94 1_555 1_555
C96 C91 1_555 1_555
H68 C96 1_555 1_555
C97 C10 1_555 1_555
H69 C97 1_555 1_555
H70 C97 1_555 1_555
S15 C98 1_555 1_555
O57 H71 1_555 1_555
C98 C99 1_555 1_555
O58 S15 1_555 1_555
C99 H72 1_555 1_555
O59 S15 1_555 1_555
C100 C76 1_555 1_555
O60 S15 1_555 1_555
C101 O57 1_555 1_555
C102 C101 1_555 1_555
C103 C98 1_555 1_555
H73 C103 1_555 1_555
C104 C17 1_555 1_555
H74 C104 1_555 1_555
H75 C104 1_555 1_555
S16 C105 1_555 1_555
O61 H76 1_555 1_555
C105 C106 1_555 1_555
C106 H77 1_555 1_555
O62 S16 1_555 1_555
C107 C83 1_555 1_555
O63 S16 1_555 1_555
C108 O61 1_555 1_555
O64 S16 1_555 1_555
C109 C108 1_555 1_555
C110 C105 1_555 1_555
H78 C110 1_555 1_555
C111 C24 1_555 1_555
H79 C111 1_555 1_555
H80 C111 1_555 1_555
C112 S8 1_555 1_555
C3 C4 1_555 1_555
C5 C6 1_555 1_555
C10 C11 1_555 1_555
C12 C13 1_555 1_555
C17 C18 1_555 1_555
C19 C20 1_555 1_555
C24 C25 1_555 1_555
C26 C27 1_555 1_555
C30 C31 1_555 1_555
C31 C32 1_555 1_555
C33 C34 1_555 1_555
C37 C38 1_555 1_555
C38 C39 1_555 1_555
C40 C41 1_555 1_555
C44 C45 1_555 1_555
C45 C46 1_555 1_555
C47 C48 1_555 1_555
C50 C51 1_555 1_555
C50 C112 1_555 1_555
C51 C52 1_555 1_555
C54 C112 1_555 1_555
C57 C58 1_555 1_555
C58 C59 1_555 1_555
C60 C61 1_555 1_555
C64 C65 1_555 1_555
C65 C66 1_555 1_555
C67 C68 1_555 1_555
C71 C72 1_555 1_555
C72 C73 1_555 1_555
C74 C75 1_555 1_555
C78 C79 1_555 1_555
C79 C80 1_555 1_555
C81 C82 1_555 1_555
C85 C86 1_555 1_555
C86 C87 1_555 1_555
C88 C89 1_555 1_555
C88 C90 1_555 1_555
C92 C93 1_555 1_555
C93 C94 1_555 1_555
C95 C96 1_555 1_555
C95 C97 1_555 1_555
C99 C100 1_555 1_555
C100 C101 1_555 1_555
C102 C103 1_555 1_555
C102 C104 1_555 1_555
C106 C107 1_555 1_555
C107 C108 1_555 1_555
C109 C110 1_555 1_555
C109 C111 1_555 1_555

#END
