
#######################################################################
#
#                 Cambridge Crystallographic Data Centre
#                                CCDC 
#
#######################################################################
#
# If this CIF has been generated from an entry in the Cambridge 
# Structural Database, then it will include bibliographic, chemical, 
# crystal, experimental, refinement or atomic coordinate data resulting 
# from the CCDC's data processing and validation procedures.
#
#######################################################################

data_RECLUJ
_chemical_name_common            
'resveratrol bis(piperine) toluene solvate monohydrate'
_chemical_formula_moiety         'C14 H12 O3,2(C17 H19 N1 O3),C7 H8,H2 O1'
_chemical_name_systematic        
'5-(2-(4-hydroxyphenyl)vinyl)benzene-1,3-diol bis(5-(1,3-benzodioxol-5-yl)-1-(piperidin-1-yl)penta-2,4-dien-1-one) toluene solvate monohydrate'
_symmetry_cell_setting           monoclinic
_symmetry_space_group_name_H-M   'P 21/c'
_symmetry_Int_Tables_number      14
_space_group_name_Hall           '-P 2ybc'
loop_
_symmetry_equiv_pos_site_id
_symmetry_equiv_pos_as_xyz
1 x,y,z
2 -x,1/2+y,1/2-z
3 -x,-y,-z
4 x,1/2-y,1/2+z
_cell_length_a                   33.8536(12)
_cell_length_b                   8.3030(3)
_cell_length_c                   17.6214(6)
_cell_angle_alpha                90
_cell_angle_beta                 102.686(2)
_cell_angle_gamma                90
_cell_volume                     4832.22
_exptl_crystal_colour            colorless
_exptl_crystal_description       plate
_cell_formula_units_Z            4
loop_
_atom_site_label
_atom_site_type_symbol
_atom_site_fract_x
_atom_site_fract_y
_atom_site_fract_z
O1 O 0.03930(5) 0.1303(2) 0.26568(10)
H1 H 0.0320(10) 0.145(4) 0.216(2)
H2 H 0.0188(9) 0.097(3) 0.2846(16)
C1 C 0.48539(16) 0.1918(8) 0.5662(3)
H3 H 0.4855 0.3018 0.5495
H4 H 0.4988 0.1257 0.5349
H5 H 0.4994 0.1839 0.6198
C2 C 0.42589(13) 0.0657(4) 0.4912(2)
H6 H 0.4392 0.0450 0.4512
C3 C 0.44671(13) 0.1410(4) 0.5586(2)
C4 C 0.42585(17) 0.1660(5) 0.6163(2)
H7 H 0.4391 0.2163 0.6620
C5 C 0.38594(16) 0.1194(5) 0.6091(2)
C6 C 0.38607(13) 0.0214(5) 0.4825(2)
H8 H 0.3723 -0.0258 0.4364
C7 C 0.36674(13) 0.0467(5) 0.5415(2)
H9 H 0.3400 0.0138 0.5357
O2 O 0.75938(5) 0.4194(2) 0.81273(8)
O3 O 1.02899(5) 0.24092(17) 1.11852(7)
O4 O 0.72274(5) 0.5193(2) 0.89888(9)
C9 C 1.13064(7) 0.1110(3) 0.97279(13)
H13 H 1.1549 0.1603 0.9623
H14 H 1.1319 -0.0038 0.9635
C10 C 1.09355(7) 0.1815(3) 0.91896(12)
H15 H 1.0942 0.2978 0.9241
H16 H 1.0942 0.1555 0.8656
C11 C 1.05467(7) 0.1182(3) 0.93664(11)
H17 H 1.0318 0.1722 0.9038
H18 H 1.0523 0.0038 0.9253
N1 N 1.05398(6) 0.1452(2) 1.01891(9)
C12 C 1.02473(7) 0.2181(2) 1.04585(11)
C13 C 0.98678(7) 0.2690(3) 0.99378(12)
H19 H 0.9844 0.2669 0.9402
C14 C 0.95558(7) 0.3185(2) 1.02286(12)
H20 H 0.9603 0.3279 1.0767
C15 C 0.91571(7) 0.3585(2) 0.98048(12)
H21 H 0.9102 0.3608 0.9264
C16 C 0.88605(7) 0.3930(2) 1.01809(12)
H22 H 0.8939 0.3940 1.0721
C17 C 0.84347(7) 0.4291(3) 0.98610(12)
C18 C 0.82454(7) 0.4015(3) 0.90763(12)
H23 H 0.8388 0.3590 0.8727
C19 C 0.78467(7) 0.4396(3) 0.88500(12)
C20 C 0.72046(8) 0.4748(3) 0.81979(13)
H24 H 0.7005 0.3902 0.8046
H25 H 0.7124 0.5668 0.7860
C21 C 1.12881(7) 0.1406(3) 1.05722(13)
H26 H 1.1515 0.0876 1.0912
H27 H 1.1309 0.2552 1.0680
C22 C 1.08965(7) 0.0773(3) 1.07345(12)
H28 H 1.0892 -0.0391 1.0689
H29 H 1.0883 0.1046 1.1263
C23 C 0.82061(7) 0.4918(3) 1.03689(12)
H30 H 0.8333 0.5086 1.0887
C24 C 0.77991(7) 0.5296(3) 1.01283(12)
H31 H 0.7652 0.5720 1.0469
C25 C 0.76256(7) 0.5010(3) 0.93615(13)
O5 O 0.56492(6) 0.5036(3) 0.20126(13)
O6 O 0.30893(5) 0.59887(19) 0.35137(9)
O7 O 0.60574(6) 0.3415(3) 0.29302(13)
C26 C 0.25362(9) 0.5048(4) 0.58230(16)
H32 H 0.2356 0.4299 0.6001
H33 H 0.2546 0.6030 0.6125
C27 C 0.29554(9) 0.4325(4) 0.59504(15)
H34 H 0.2937 0.3260 0.5720
H35 H 0.3066 0.4212 0.6504
C28 C 0.32395(8) 0.5359(4) 0.55956(14)
H36 H 0.3286 0.6377 0.5871
H37 H 0.3498 0.4817 0.5650
N2 N 0.30649(6) 0.5656(2) 0.47707(11)
C29 C 0.32575(7) 0.5534(3) 0.41828(13)
C30 C 0.36730(8) 0.4879(3) 0.43254(14)
H38 H 0.3780 0.4324 0.4783
C31 C 0.38923(8) 0.5088(3) 0.37979(15)
H39 H 0.3767 0.5613 0.3342
C32 C 0.43044(8) 0.4589(4) 0.38542(16)
H40 H 0.4436 0.4030 0.4295
C33 C 0.45046(9) 0.4896(4) 0.32989(18)
H41 H 0.4359 0.5463 0.2873
C34 C 0.49204(9) 0.4471(4) 0.32602(17)
C35 C 0.50644(9) 0.5039(4) 0.26223(17)
H42 H 0.4903 0.5665 0.2237
C36 C 0.54518(9) 0.4634(4) 0.25901(17)
C37 C 0.60431(10) 0.4366(5) 0.2260(2)
H43 H 0.6107 0.3709 0.1848
H44 H 0.6242 0.5223 0.2376
C38 C 0.23731(8) 0.5422(4) 0.49727(16)
H45 H 0.2319 0.4421 0.4685
H46 H 0.2119 0.5999 0.4915
C39 C 0.26636(8) 0.6416(3) 0.46352(15)
H47 H 0.2559 0.6544 0.4080
H48 H 0.2688 0.7478 0.4870
C40 C 0.51719(9) 0.3531(4) 0.38222(18)
H49 H 0.5075 0.3174 0.4247
C41 C 0.55638(9) 0.3107(4) 0.37693(18)
H50 H 0.5730 0.2476 0.4145
C42 C 0.56897(8) 0.3671(4) 0.31354(18)
O8 O 0.31447(5) -0.0892(2) 0.32566(10)
H51 H 0.3089 -0.1831 0.3135
O9 O 0.10789(4) 0.97032(17) 0.28980(8)
H52 H 0.0862 1.0176 0.2769
O10 O 0.02521(4) 0.53245(17) 0.17472(8)
H53 H 0.0267 0.4369 0.1638
C43 C 0.27971(7) 0.0006(3) 0.31278(13)
C44 C 0.24184(7) -0.0648(3) 0.28418(12)
H54 H 0.2391 -0.1746 0.2739
C45 C 0.20803(7) 0.0330(3) 0.27092(12)
H55 H 0.1827 -0.0121 0.2512
C46 C 0.21092(7) 0.1980(3) 0.28636(11)
C47 C 0.17391(7) 0.2956(3) 0.27116(11)
H56 H 0.1499 0.2412 0.2511
C48 C 0.17080(7) 0.4534(3) 0.28276(11)
H57 H 0.1947 0.5072 0.3045
C49 C 0.13398(6) 0.5513(3) 0.26504(11)
C50 C 0.09660(7) 0.4886(3) 0.22701(11)
H58 H 0.0944 0.3811 0.2118
C51 C 0.06289(7) 0.5870(3) 0.21214(11)
C52 C 0.06557(7) 0.7491(3) 0.23285(11)
H59 H 0.0427 0.8143 0.2225
C53 C 0.10272(7) 0.8116(3) 0.26905(11)
C54 C 0.13652(7) 0.7135(3) 0.28593(11)
H60 H 0.1612 0.7563 0.3115
C55 C 0.28333(7) 0.1639(3) 0.32837(13)
H61 H 0.3087 0.2085 0.3478
C56 C 0.24943(7) 0.2612(3) 0.31530(12)
H62 H 0.2523 0.3708 0.3260
C8? C 0.3760(3) 0.1461(12) 0.6781(5)
H10? H 0.3750 0.0454 0.7043
H11? H 0.3500 0.1976 0.6696
H12? H 0.3960 0.2145 0.7095
loop_
_geom_bond_atom_site_label_1
_geom_bond_atom_site_label_2
_geom_bond_site_symmetry_1
_geom_bond_site_symmetry_2
O1 H1 1_555 1_555
H2 O1 1_555 1_555
C1 H3 1_555 1_555
H4 C1 1_555 1_555
H5 C1 1_555 1_555
C2 H6 1_555 1_555
C3 C1 1_555 1_555
C4 C3 1_555 1_555
H7 C4 1_555 1_555
C5 C4 1_555 1_555
C6 C2 1_555 1_555
H8 C6 1_555 1_555
C7 C5 1_555 1_555
H9 C7 1_555 1_555
O2 C19 1_555 1_555
O3 C12 1_555 1_555
O4 C20 1_555 1_555
C9 H13 1_555 1_555
H14 C9 1_555 1_555
C10 C9 1_555 1_555
H15 C10 1_555 1_555
H16 C10 1_555 1_555
C11 C10 1_555 1_555
H17 C11 1_555 1_555
H18 C11 1_555 1_555
N1 C11 1_555 1_555
C12 N1 1_555 1_555
C13 C12 1_555 1_555
H19 C13 1_555 1_555
C14 C13 1_555 1_555
H20 C14 1_555 1_555
C15 C14 1_555 1_555
H21 C15 1_555 1_555
C16 C15 1_555 1_555
H22 C16 1_555 1_555
C17 C16 1_555 1_555
C18 C17 1_555 1_555
H23 C18 1_555 1_555
C19 C18 1_555 1_555
C20 O2 1_555 1_555
H24 C20 1_555 1_555
H25 C20 1_555 1_555
C21 C9 1_555 1_555
H26 C21 1_555 1_555
H27 C21 1_555 1_555
C22 N1 1_555 1_555
H28 C22 1_555 1_555
H29 C22 1_555 1_555
C23 C17 1_555 1_555
H30 C23 1_555 1_555
C24 C23 1_555 1_555
H31 C24 1_555 1_555
C25 O4 1_555 1_555
O5 C36 1_555 1_555
O6 C29 1_555 1_555
O7 C37 1_555 1_555
C26 H32 1_555 1_555
H33 C26 1_555 1_555
C27 C26 1_555 1_555
H34 C27 1_555 1_555
H35 C27 1_555 1_555
C28 C27 1_555 1_555
H36 C28 1_555 1_555
H37 C28 1_555 1_555
N2 C28 1_555 1_555
C29 N2 1_555 1_555
C30 C29 1_555 1_555
H38 C30 1_555 1_555
C31 C30 1_555 1_555
H39 C31 1_555 1_555
C32 C31 1_555 1_555
H40 C32 1_555 1_555
C33 C32 1_555 1_555
H41 C33 1_555 1_555
C34 C33 1_555 1_555
C35 C34 1_555 1_555
H42 C35 1_555 1_555
C36 C35 1_555 1_555
C37 O5 1_555 1_555
H43 C37 1_555 1_555
H44 C37 1_555 1_555
C38 C26 1_555 1_555
H45 C38 1_555 1_555
H46 C38 1_555 1_555
C39 N2 1_555 1_555
H47 C39 1_555 1_555
H48 C39 1_555 1_555
C40 C34 1_555 1_555
H49 C40 1_555 1_555
C41 C40 1_555 1_555
H50 C41 1_555 1_555
C42 O7 1_555 1_555
O8 H51 1_555 1_555
O9 H52 1_555 1_555
O10 H53 1_555 1_555
C43 O8 1_555 1_555
C44 C43 1_555 1_555
H54 C44 1_555 1_555
C45 C44 1_555 1_555
H55 C45 1_555 1_555
C46 C45 1_555 1_555
C47 C46 1_555 1_555
H56 C47 1_555 1_555
C48 C47 1_555 1_555
H57 C48 1_555 1_555
C49 C48 1_555 1_555
C50 C49 1_555 1_555
H58 C50 1_555 1_555
C51 O10 1_555 1_555
C52 C51 1_555 1_555
H59 C52 1_555 1_555
C53 O9 1_555 1_555
C54 C49 1_555 1_555
H60 C54 1_555 1_555
C55 C43 1_555 1_555
H61 C55 1_555 1_555
C56 C46 1_555 1_555
H62 C56 1_555 1_555
C2 C3 1_555 1_555
C6 C7 1_555 1_555
C19 C25 1_555 1_555
C21 C22 1_555 1_555
C24 C25 1_555 1_555
C36 C42 1_555 1_555
C38 C39 1_555 1_555
C41 C42 1_555 1_555
C50 C51 1_555 1_555
C52 C53 1_555 1_555
C53 C54 1_555 1_555
C55 C56 1_555 1_555

#END
