
#######################################################################
#
#                 Cambridge Crystallographic Data Centre
#                                CCDC 
#
#######################################################################
#
# If this CIF has been generated from an entry in the Cambridge 
# Structural Database, then it will include bibliographic, chemical, 
# crystal, experimental, refinement or atomic coordinate data resulting 
# from the CCDC's data processing and validation procedures.
#
#######################################################################

data_RECQOH01
_chemical_formula_moiety         'C19 H14 Br2 O1 S1'
_chemical_name_systematic        
"2',6-Dibromobiphenyl-2-yl 4-methylphenyl sulfoxide"
_symmetry_cell_setting           monoclinic
_symmetry_space_group_name_H-M   'P 21'
_symmetry_Int_Tables_number      4
_space_group_name_Hall           'P 2yb'
loop_
_symmetry_equiv_pos_site_id
_symmetry_equiv_pos_as_xyz
1 x,y,z
2 -x,1/2+y,-z
_cell_length_a                   9.9805(9)
_cell_length_b                   7.5249(4)
_cell_length_c                   11.9402(11)
_cell_angle_alpha                90
_cell_angle_beta                 91.105(3)
_cell_angle_gamma                90
_cell_volume                     896.569
_exptl_crystal_colour            colorless
_exptl_crystal_description       prism
_cell_formula_units_Z            2
loop_
_atom_site_label
_atom_site_type_symbol
_atom_site_fract_x
_atom_site_fract_y
_atom_site_fract_z
C1 C 0.9211(4) 1.1247(5) 0.3067(3)
C2 C 0.9611(5) 1.2440(6) 0.3896(4)
H1 H 1.0240 1.3346 0.3732
C3 C 0.9104(6) 1.2315(8) 0.4944(5)
H2 H 0.9374 1.3135 0.5509
C4 C 0.8198(6) 1.0996(8) 0.5178(4)
H3 H 0.7853 1.0893 0.5911
C5 C 0.7787(5) 0.9812(7) 0.4347(4)
C6 C 0.8264(4) 0.9921(5) 0.3263(3)
C7 C 0.7777(4) 0.8733(5) 0.2330(3)
C8 C 0.6826(4) 0.9310(5) 0.1565(3)
C9 C 0.6408(4) 0.8267(6) 0.0666(3)
H4 H 0.5755 0.8695 0.0143
C10 C 0.6964(4) 0.6575(8) 0.0545(4)
H5 H 0.6697 0.5841 -0.0067
C11 C 0.7896(5) 0.5983(6) 0.1313(4)
H6 H 0.8275 0.4835 0.1227
C12 C 0.8295(5) 0.7029(5) 0.2211(4)
H7 H 0.8925 0.6583 0.2747
C13 C 1.1177(5) 0.9826(6) 0.1821(3)
C14 C 1.1064(5) 0.8337(6) 0.1152(3)
H8 H 1.0354 0.8243 0.0614
C15 C 1.1983(5) 0.6997(6) 0.1268(4)
H9 H 1.1885 0.5960 0.0820
C16 C 1.3052(5) 0.7115(6) 0.2021(4)
C17 C 1.3173(5) 0.8669(6) 0.2653(4)
H10 H 1.3914 0.8796 0.3158
C18 C 1.2245(4) 1.0031(6) 0.2565(3)
H11 H 1.2340 1.1079 0.3004
C19 C 1.4025(6) 0.5611(7) 0.2185(5)
H12 H 1.3538 0.4480 0.2172
H13 H 1.4496 0.5747 0.2908
H14 H 1.4677 0.5624 0.1582
O1 O 1.0623(4) 1.3261(5) 0.1725(3)
S1 S 0.99233(11) 1.15143(18) 0.16910(9)
Br1 Br 0.65025(6) 0.80315(9) 0.47073(4)
Br2 Br 0.60618(5) 1.16101(5) 0.17079(4)
loop_
_geom_bond_atom_site_label_1
_geom_bond_atom_site_label_2
_geom_bond_site_symmetry_1
_geom_bond_site_symmetry_2
C1 C2 1_555 1_555
C2 H1 1_555 1_555
C3 C2 1_555 1_555
H2 C3 1_555 1_555
C4 C3 1_555 1_555
H3 C4 1_555 1_555
C5 C4 1_555 1_555
C6 C1 1_555 1_555
C7 C6 1_555 1_555
C8 C7 1_555 1_555
C9 C8 1_555 1_555
H4 C9 1_555 1_555
C10 C9 1_555 1_555
H5 C10 1_555 1_555
C11 C10 1_555 1_555
H6 C11 1_555 1_555
C12 C7 1_555 1_555
H7 C12 1_555 1_555
C13 C14 1_555 1_555
C14 H8 1_555 1_555
C15 C14 1_555 1_555
H9 C15 1_555 1_555
C16 C15 1_555 1_555
C17 C16 1_555 1_555
H10 C17 1_555 1_555
C18 C13 1_555 1_555
H11 C18 1_555 1_555
C19 C16 1_555 1_555
H12 C19 1_555 1_555
H13 C19 1_555 1_555
H14 C19 1_555 1_555
O1 S1 1_555 1_555
S1 C1 1_555 1_555
Br1 C5 1_555 1_555
Br2 C8 1_555 1_555
C5 C6 1_555 1_555
C11 C12 1_555 1_555
C13 S1 1_555 1_555
C17 C18 1_555 1_555

#END
