
#######################################################################
#
#                 Cambridge Crystallographic Data Centre
#                                CCDC 
#
#######################################################################
#
# If this CIF has been generated from an entry in the Cambridge 
# Structural Database, then it will include bibliographic, chemical, 
# crystal, experimental, refinement or atomic coordinate data resulting 
# from the CCDC's data processing and validation procedures.
#
#######################################################################

data_RECQIC
_chemical_formula_moiety         'C3 H1 N4 O5 1-,H4 N1 1+'
_chemical_name_systematic        
'ammonium dinitro(1,2,4-oxadiazol-3-yl)methanide'
_symmetry_cell_setting           triclinic
_symmetry_space_group_name_H-M   'P -1'
_symmetry_Int_Tables_number      2
_space_group_name_Hall           '-P 1'
loop_
_symmetry_equiv_pos_site_id
_symmetry_equiv_pos_as_xyz
1 x,y,z
2 -x,-y,-z
_cell_length_a                   7.0339(14)
_cell_length_b                   7.2398(14)
_cell_length_c                   7.9636(15)
_cell_angle_alpha                84.593(3)
_cell_angle_beta                 83.386(4)
_cell_angle_gamma                64.874(3)
_cell_volume                     364.258
_exptl_crystal_colour            'yellowish yellow'
_exptl_crystal_description       block
_cell_formula_units_Z            2
loop_
_atom_site_label
_atom_site_type_symbol
_atom_site_fract_x
_atom_site_fract_y
_atom_site_fract_z
O1 O 0.4269(2) 0.7707(2) 0.1206(2)
O2 O 0.1669(2) 0.7331(3) 0.2735(2)
O3 O 0.7821(2) 0.4506(2) 0.1097(2)
O4 O 0.7787(3) 0.1775(2) 0.2470(2)
N1 N 0.6857(3) 0.3628(3) 0.2003(2)
O5 O 0.2618(3) 0.1960(3) 0.5601(2)
N2 N 0.3553(3) 0.6626(3) 0.2126(2)
N3 N 0.2805(4) 0.2372(4) 0.2847(3)
C1 C 0.4749(3) 0.4607(3) 0.2537(2)
C2 C 0.3741(3) 0.3409(3) 0.3539(2)
N4 N 0.3701(4) 0.3212(4) 0.5165(2)
C3 C 0.2168(5) 0.1558(5) 0.4159(3)
H1 H 0.1447 0.0750 0.4096
N5 N -0.1819(3) 0.8321(3) 0.0509(2)
H2 H -0.257(5) 0.753(5) 0.100(4)
H3 H -0.235(7) 0.945(7) -0.006(5)
H4 H -0.053(7) 0.772(7) -0.006(5)
H5 H -0.150(7) 0.880(7) 0.133(6)
loop_
_geom_bond_atom_site_label_1
_geom_bond_atom_site_label_2
_geom_bond_site_symmetry_1
_geom_bond_site_symmetry_2
O1 N2 1_555 1_555
O2 N2 1_555 1_555
O3 N1 1_555 1_555
O4 N1 1_555 1_555
N1 C1 1_555 1_555
O5 N4 1_555 1_555
N2 C1 1_555 1_555
N3 C2 1_555 1_555
C1 C2 1_555 1_555
C2 N4 1_555 1_555
C3 O5 1_555 1_555
H1 C3 1_555 1_555
N5 H2 1_555 1_555
H3 N5 1_555 1_555
H4 N5 1_555 1_555
H5 N5 1_555 1_555
N3 C3 1_555 1_555

#END
