
#######################################################################
#
#                 Cambridge Crystallographic Data Centre
#                                CCDC 
#
#######################################################################
#
# If this CIF has been generated from an entry in the Cambridge 
# Structural Database, then it will include bibliographic, chemical, 
# crystal, experimental, refinement or atomic coordinate data resulting 
# from the CCDC's data processing and validation procedures.
#
#######################################################################

data_RECROI
_chemical_formula_moiety         'C12 H7 Br2 I1'
_chemical_name_systematic        2,2'-Dibromo-6-iodobiphenyl
_symmetry_cell_setting           orthorhombic
_symmetry_space_group_name_H-M   'P 21 21 2'
_symmetry_Int_Tables_number      18
_space_group_name_Hall           'P 2 2ab'
loop_
_symmetry_equiv_pos_site_id
_symmetry_equiv_pos_as_xyz
1 x,y,z
2 -x,-y,z
3 1/2+x,1/2-y,-z
4 1/2-x,1/2+y,-z
_cell_length_a                   16.7820(4)
_cell_length_b                   18.8039(5)
_cell_length_c                   7.9459(2)
_cell_angle_alpha                90
_cell_angle_beta                 90
_cell_angle_gamma                90
_cell_volume                     2507.46
_exptl_crystal_colour            colorless
_exptl_crystal_description       prism
_cell_formula_units_Z            8
loop_
_atom_site_label
_atom_site_type_symbol
_atom_site_fract_x
_atom_site_fract_y
_atom_site_fract_z
C1 C 0.6668(3) 0.8969(3) 0.5409(8)
C2 C 0.7385(4) 0.8816(4) 0.6269(8)
H1 H 0.7623 0.9158 0.6991
C3 C 0.7731(4) 0.8161(4) 0.6037(8)
H2 H 0.8211 0.8045 0.6606
C4 C 0.7376(4) 0.7668(4) 0.4970(10)
H3 H 0.7616 0.7214 0.4830
C5 C 0.6694(4) 0.7822(3) 0.4123(9)
H4 H 0.6463 0.7476 0.3401
C6 C 0.6329(3) 0.8485(3) 0.4303(8)
C7 C 0.5632(4) 0.8667(3) 0.3243(10)
C8 C 0.5730(4) 0.8971(4) 0.1672(11)
C9 C 0.5077(6) 0.9094(4) 0.0600(12)
H5 H 0.5151 0.9276 -0.0504
C10 C 0.4325(5) 0.8943(5) 0.1205(16)
H6 H 0.3880 0.9036 0.0498
C11 C 0.4191(5) 0.8673(5) 0.2727(17)
H7 H 0.3663 0.8583 0.3105
C12 C 0.4846(4) 0.8526(4) 0.3755(10)
Br1 Br 0.61932(4) 0.98749(4) 0.57282(10)
Br2 Br 0.46782(5) 0.81440(5) 0.59560(14)
I1 I 0.68695(3) 0.92597(3) 0.08424(6)
C13 C 0.6689(3) 0.5919(3) 0.0312(8)
C14 C 0.7329(4) 0.6072(4) 0.1350(9)
H8 H 0.7507 0.5738 0.2164
C15 C 0.7706(4) 0.6730(4) 0.1172(10)
H9 H 0.8163 0.6833 0.1833
C16 C 0.7427(4) 0.7229(4) 0.0054(11)
H10 H 0.7680 0.7680 -0.0027
C17 C 0.6772(4) 0.7073(3) -0.0960(9)
H11 H 0.6580 0.7417 -0.1738
C18 C 0.6400(3) 0.6417(3) -0.0834(9)
C19 C 0.5727(3) 0.6248(3) -0.2018(9)
C20 C 0.4946(4) 0.6425(4) -0.1672(9)
C21 C 0.4340(4) 0.6313(4) -0.2797(11)
H12 H 0.3808 0.6436 -0.2506
C22 C 0.4507(4) 0.6015(4) -0.4391(12)
H13 H 0.4093 0.5939 -0.5187
C23 C 0.5281(5) 0.5836(4) -0.4764(10)
H14 H 0.5409 0.5634 -0.5826
C24 C 0.5868(4) 0.5951(4) -0.3590(9)
Br3 Br 0.61808(4) 0.50250(4) 0.05412(9)
Br4 Br 0.69296(4) 0.56408(4) -0.41418(9)
I2 I 0.46685(3) 0.69054(3) 0.06398(8)
loop_
_geom_bond_atom_site_label_1
_geom_bond_atom_site_label_2
_geom_bond_site_symmetry_1
_geom_bond_site_symmetry_2
C1 C2 1_555 1_555
C2 H1 1_555 1_555
C3 C2 1_555 1_555
H2 C3 1_555 1_555
C4 C3 1_555 1_555
H3 C4 1_555 1_555
C5 C4 1_555 1_555
H4 C5 1_555 1_555
C6 C1 1_555 1_555
C7 C6 1_555 1_555
C8 C7 1_555 1_555
C9 C8 1_555 1_555
H5 C9 1_555 1_555
C10 C9 1_555 1_555
H6 C10 1_555 1_555
C11 C10 1_555 1_555
H7 C11 1_555 1_555
C12 C7 1_555 1_555
C13 C14 1_555 1_555
C14 H8 1_555 1_555
C15 C14 1_555 1_555
H9 C15 1_555 1_555
C16 C15 1_555 1_555
H10 C16 1_555 1_555
C17 C16 1_555 1_555
H11 C17 1_555 1_555
C18 C13 1_555 1_555
C19 C18 1_555 1_555
C20 C19 1_555 1_555
C21 C20 1_555 1_555
H12 C21 1_555 1_555
C22 C21 1_555 1_555
H13 C22 1_555 1_555
C23 C22 1_555 1_555
H14 C23 1_555 1_555
C24 C19 1_555 1_555
Br1 C1 1_555 1_555
Br2 C12 1_555 1_555
Br3 C13 1_555 1_555
Br4 C24 1_555 1_555
I1 C8 1_555 1_555
I2 C20 1_555 1_555
C5 C6 1_555 1_555
C11 C12 1_555 1_555
C17 C18 1_555 1_555
C23 C24 1_555 1_555

#END
