
#######################################################################
#
#                 Cambridge Crystallographic Data Centre
#                                CCDC 
#
#######################################################################
#
# If this CIF has been generated from an entry in the Cambridge 
# Structural Database, then it will include bibliographic, chemical, 
# crystal, experimental, refinement or atomic coordinate data resulting 
# from the CCDC's data processing and validation procedures.
#
#######################################################################

data_RECRUO
_chemical_formula_moiety         'C13 H10 Br1 Cl1'
_chemical_name_systematic        2'-Bromo-2-chloro-6-methylbiphenyl
_symmetry_cell_setting           monoclinic
_symmetry_space_group_name_H-M   'P 21'
_symmetry_Int_Tables_number      4
_space_group_name_Hall           'P 2yb'
loop_
_symmetry_equiv_pos_site_id
_symmetry_equiv_pos_as_xyz
1 x,y,z
2 -x,1/2+y,-z
_cell_length_a                   7.5983(4)
_cell_length_b                   7.4524(5)
_cell_length_c                   10.7101(4)
_cell_angle_alpha                90
_cell_angle_beta                 102.699(3)
_cell_angle_gamma                90
_cell_volume                     591.63
_exptl_crystal_colour            colorless
_exptl_crystal_description       block
_cell_formula_units_Z            2
loop_
_atom_site_label
_atom_site_type_symbol
_atom_site_fract_x
_atom_site_fract_y
_atom_site_fract_z
C1 C 0.5464(4) 0.1210(5) 0.2182(3)
C2 C 0.6259(5) 0.0067(6) 0.1437(3)
H1 H 0.7370 0.0403 0.1234
C3 C 0.5472(4) -0.1543(10) 0.0986(3)
H2 H 0.6051 -0.2303 0.0488
C4 C 0.3836(5) -0.2060(5) 0.1256(3)
H3 H 0.3269 -0.3156 0.0940
C5 C 0.3061(4) -0.0902(5) 0.2011(3)
C6 C 0.3837(4) 0.0688(5) 0.2491(3)
C7 C 0.6327(5) 0.2990(6) 0.2651(4)
H4 H 0.5421 0.3945 0.2460
H5 H 0.7311 0.3246 0.2220
H6 H 0.6807 0.2930 0.3578
C8 C 0.2997(4) 0.1832(5) 0.3357(3)
C9 C 0.1672(4) 0.3092(5) 0.2911(3)
C10 C 0.0929(5) 0.4144(5) 0.3731(3)
H7 H 0.0023 0.5004 0.3401
C11 C 0.1530(5) 0.3922(5) 0.5039(3)
H8 H 0.1035 0.4637 0.5611
C12 C 0.2837(5) 0.2675(6) 0.5514(3)
H9 H 0.3234 0.2519 0.6413
C13 C 0.3582(5) 0.1638(5) 0.4678(3)
H10 H 0.4499 0.0790 0.5011
Cl1 Cl 0.09845(10) -0.15437(18) 0.23266(8)
Br1 Br 0.07946(3) 0.33815(4) 0.11090(2)
loop_
_geom_bond_atom_site_label_1
_geom_bond_atom_site_label_2
_geom_bond_site_symmetry_1
_geom_bond_site_symmetry_2
C1 C2 1_555 1_555
C2 H1 1_555 1_555
C3 C2 1_555 1_555
H2 C3 1_555 1_555
C4 C3 1_555 1_555
H3 C4 1_555 1_555
C5 C4 1_555 1_555
C6 C1 1_555 1_555
C7 C1 1_555 1_555
H4 C7 1_555 1_555
H5 C7 1_555 1_555
H6 C7 1_555 1_555
C8 C6 1_555 1_555
C9 C8 1_555 1_555
C10 C9 1_555 1_555
H7 C10 1_555 1_555
C11 C10 1_555 1_555
H8 C11 1_555 1_555
C12 C11 1_555 1_555
H9 C12 1_555 1_555
C13 C8 1_555 1_555
H10 C13 1_555 1_555
Cl1 C5 1_555 1_555
Br1 C9 1_555 1_555
C5 C6 1_555 1_555
C12 C13 1_555 1_555

#END
