
#######################################################################
#
#                 Cambridge Crystallographic Data Centre
#                                CCDC 
#
#######################################################################
#
# If this CIF has been generated from an entry in the Cambridge 
# Structural Database, then it will include bibliographic, chemical, 
# crystal, experimental, refinement or atomic coordinate data resulting 
# from the CCDC's data processing and validation procedures.
#
#######################################################################

data_RECSEZ
_chemical_formula_moiety         'C36 H27 Cl1 P2'
_chemical_name_systematic        
(6-Chlorobiphenyl-2,2'-diyl)bis(diphenylphosphine)
_symmetry_cell_setting           orthorhombic
_symmetry_space_group_name_H-M   'P 21 21 21'
_symmetry_Int_Tables_number      19
_space_group_name_Hall           'P 2ac 2ab'
loop_
_symmetry_equiv_pos_site_id
_symmetry_equiv_pos_as_xyz
1 x,y,z
2 1/2-x,-y,1/2+z
3 1/2+x,1/2-y,-z
4 -x,1/2+y,1/2-z
_cell_length_a                   10.0900(5)
_cell_length_b                   14.5161(4)
_cell_length_c                   19.4341(8)
_cell_angle_alpha                90
_cell_angle_beta                 90
_cell_angle_gamma                90
_cell_volume                     2846.46
_exptl_crystal_colour            colorless
_exptl_crystal_description       prism
_cell_formula_units_Z            4
loop_
_atom_site_label
_atom_site_type_symbol
_atom_site_fract_x
_atom_site_fract_y
_atom_site_fract_z
C1 C 0.4848(3) 0.5175(2) 0.93302(15)
C2 C 0.4995(4) 0.6111(2) 0.91916(16)
H1 H 0.4910 0.6326 0.8732
C3 C 0.5261(4) 0.6730(2) 0.97101(18)
H2 H 0.5359 0.7366 0.9607
C4 C 0.5384(4) 0.6424(2) 1.03824(17)
H3 H 0.5562 0.6850 1.0742
C5 C 0.5248(3) 0.5501(2) 1.05280(16)
H4 H 0.5336 0.5290 1.0989
C6 C 0.4982(3) 0.4877(2) 1.00065(14)
H5 H 0.4891 0.4241 1.0112
C7 C 0.3805(3) 0.3383(2) 0.90237(15)
C8 C 0.2440(4) 0.3255(3) 0.90716(18)
H6 H 0.1855 0.3716 0.8903
C9 C 0.1930(4) 0.2454(3) 0.9365(2)
H7 H 0.0997 0.2374 0.9396
C10 C 0.2760(5) 0.1776(3) 0.9612(2)
H8 H 0.2403 0.1230 0.9808
C11 C 0.4120(4) 0.1898(2) 0.95732(18)
H9 H 0.4704 0.1439 0.9747
C12 C 0.4622(3) 0.2694(2) 0.92784(16)
H10 H 0.5555 0.2771 0.9250
C13 C 0.6020(3) 0.40676(18) 0.82680(14)
C14 C 0.7213(3) 0.4406(2) 0.85309(15)
H11 H 0.7201 0.4805 0.8918
C15 C 0.8416(3) 0.4168(2) 0.82345(17)
H12 H 0.9219 0.4396 0.8425
C16 C 0.8450(4) 0.3601(2) 0.76636(18)
H13 H 0.9271 0.3451 0.7451
C17 C 0.7273(3) 0.3252(2) 0.74048(15)
C18 C 0.6041(3) 0.34693(19) 0.76877(14)
C19 C 0.4788(3) 0.30483(19) 0.74231(14)
C20 C 0.4488(4) 0.2144(2) 0.76242(16)
H14 H 0.5096 0.1813 0.7904
C21 C 0.3317(4) 0.1726(2) 0.74212(17)
H15 H 0.3117 0.1118 0.7569
C22 C 0.2451(4) 0.2194(2) 0.70064(17)
H16 H 0.1644 0.1911 0.6871
C23 C 0.2746(4) 0.3082(2) 0.67825(17)
H17 H 0.2147 0.3392 0.6485
C24 C 0.3910(3) 0.3521(2) 0.69904(14)
C25 C 0.2785(3) 0.53111(19) 0.67114(15)
C26 C 0.2614(3) 0.6058(2) 0.62683(16)
H18 H 0.3271 0.6186 0.5931
C27 C 0.1502(4) 0.6619(2) 0.63105(18)
H19 H 0.1398 0.7121 0.6001
C28 C 0.0547(4) 0.6446(2) 0.68029(18)
H20 H -0.0217 0.6826 0.6834
C29 C 0.0711(4) 0.5714(2) 0.72507(16)
H21 H 0.0055 0.5594 0.7590
C30 C 0.1818(3) 0.5155(2) 0.72107(15)
H22 H 0.1920 0.4660 0.7526
C31 C 0.4559(3) 0.4443(2) 0.57602(15)
C32 C 0.5839(3) 0.4292(2) 0.55232(17)
H23 H 0.6563 0.4344 0.5834
C33 C 0.6081(4) 0.4065(3) 0.4836(2)
H24 H 0.6959 0.3950 0.4682
C34 C 0.5039(4) 0.4010(3) 0.43841(19)
H25 H 0.5198 0.3868 0.3914
C35 C 0.3766(4) 0.4159(2) 0.46098(17)
H26 H 0.3052 0.4116 0.4293
C36 C 0.3512(3) 0.4371(2) 0.52876(16)
H27 H 0.2626 0.4468 0.5436
P1 P 0.43938(9) 0.44312(5) 0.85997(4)
P2 P 0.43621(9) 0.46851(5) 0.66874(4)
Cl1 Cl 0.73494(9) 0.25103(6) 0.67047(4)
loop_
_geom_bond_atom_site_label_1
_geom_bond_atom_site_label_2
_geom_bond_site_symmetry_1
_geom_bond_site_symmetry_2
C1 C2 1_555 1_555
C2 H1 1_555 1_555
C3 C2 1_555 1_555
H2 C3 1_555 1_555
C4 C3 1_555 1_555
H3 C4 1_555 1_555
C5 C4 1_555 1_555
H4 C5 1_555 1_555
C6 C1 1_555 1_555
H5 C6 1_555 1_555
C7 C8 1_555 1_555
C8 H6 1_555 1_555
C9 C8 1_555 1_555
H7 C9 1_555 1_555
C10 C9 1_555 1_555
H8 C10 1_555 1_555
C11 C10 1_555 1_555
H9 C11 1_555 1_555
C12 C7 1_555 1_555
H10 C12 1_555 1_555
C13 C14 1_555 1_555
C14 H11 1_555 1_555
C15 C14 1_555 1_555
H12 C15 1_555 1_555
C16 C15 1_555 1_555
H13 C16 1_555 1_555
C17 C16 1_555 1_555
C18 C13 1_555 1_555
C19 C18 1_555 1_555
C20 C19 1_555 1_555
H14 C20 1_555 1_555
C21 C20 1_555 1_555
H15 C21 1_555 1_555
C22 C21 1_555 1_555
H16 C22 1_555 1_555
C23 C22 1_555 1_555
H17 C23 1_555 1_555
C24 C19 1_555 1_555
C25 C26 1_555 1_555
C26 H18 1_555 1_555
C27 C26 1_555 1_555
H19 C27 1_555 1_555
C28 C27 1_555 1_555
H20 C28 1_555 1_555
C29 C28 1_555 1_555
H21 C29 1_555 1_555
C30 C25 1_555 1_555
H22 C30 1_555 1_555
C31 C32 1_555 1_555
C32 H23 1_555 1_555
C33 C32 1_555 1_555
H24 C33 1_555 1_555
C34 C33 1_555 1_555
H25 C34 1_555 1_555
C35 C34 1_555 1_555
H26 C35 1_555 1_555
C36 C31 1_555 1_555
H27 C36 1_555 1_555
P1 C1 1_555 1_555
P2 C24 1_555 1_555
Cl1 C17 1_555 1_555
C5 C6 1_555 1_555
C7 P1 1_555 1_555
C11 C12 1_555 1_555
C13 P1 1_555 1_555
C17 C18 1_555 1_555
C23 C24 1_555 1_555
C25 P2 1_555 1_555
C29 C30 1_555 1_555
C31 P2 1_555 1_555
C35 C36 1_555 1_555

#END
