
#######################################################################
#
#                 Cambridge Crystallographic Data Centre
#                                CCDC 
#
#######################################################################
#
# If this CIF has been generated from an entry in the Cambridge 
# Structural Database, then it will include bibliographic, chemical, 
# crystal, experimental, refinement or atomic coordinate data resulting 
# from the CCDC's data processing and validation procedures.
#
#######################################################################

data_RECWUS
_chemical_name_common            
cis-1,2-bis(4-trifluoromethylphenyl)-1-(pinacolboranyl)-2-(catecholboryl)ethene
_chemical_formula_moiety         'C28 H24 B2 F6 O4'
_chemical_name_systematic        
cis-1,2-bis(4-trifluoromethylphenyl)-1-(4,4,5,5-tetramethyl-(1,3,2)-dioxaborolan-2-yl)-2-(catecholboryl)ethene
_symmetry_cell_setting           monoclinic
_symmetry_space_group_name_H-M   'P 2/c'
_symmetry_Int_Tables_number      13
_space_group_name_Hall           '-P 2yc'
loop_
_symmetry_equiv_pos_site_id
_symmetry_equiv_pos_as_xyz
1 x,y,z
2 -x,y,1/2-z
3 -x,-y,-z
4 x,-y,1/2+z
_cell_length_a                   11.588(1)
_cell_length_b                   13.554(1)
_cell_length_c                   26.571(3)
_cell_angle_alpha                90
_cell_angle_beta                 101.58(1)
_cell_angle_gamma                90
_cell_volume                     4088.39
_exptl_crystal_colour            colorless
_exptl_crystal_description       block
_cell_formula_units_Z            6
loop_
_atom_site_label
_atom_site_type_symbol
_atom_site_fract_x
_atom_site_fract_y
_atom_site_fract_z
O4 O 0.8918(2) 0.5653(2) 0.04687(9)
O5 O 0.8701(2) 0.60780(19) 0.12744(9)
O6 O 0.4804(2) 0.64527(18) 0.10476(9)
O7 O 0.6275(2) 0.68918(18) 0.06342(9)
C21 C 1.0008(3) 0.6181(3) 0.07008(15)
C22 C 0.9642(3) 0.6722(3) 0.11602(15)
C23 C 1.0939(4) 0.5397(4) 0.0860(2)
H21 H 1.0713 0.4988 0.1129
H22 H 1.1703 0.5708 0.0993
H23 H 1.0999 0.4982 0.0564
C24 C 1.0346(4) 0.6856(5) 0.02992(18)
H24 H 1.0512 0.6474 0.0008
H25 H 1.1048 0.7234 0.0456
H26 H 0.9692 0.7311 0.0176
C25 C 1.0600(4) 0.6790(4) 0.16402(18)
H27 H 1.0289 0.7142 0.1907
H28 H 1.1276 0.7153 0.1563
H29 H 1.0854 0.6128 0.1765
C26 C 0.9072(4) 0.7721(3) 0.1025(2)
H30 H 0.8451 0.7657 0.0716
H31 H 0.9670 0.8189 0.0958
H32 H 0.8727 0.7966 0.1309
C27 C 0.4734(3) 0.7461(3) 0.09482(13)
C28 C 0.5622(3) 0.7731(3) 0.07005(13)
C29 C 0.5754(4) 0.8672(3) 0.05416(16)
H33 H 0.6359 0.8844 0.0363
C30 C 0.4937(4) 0.9362(3) 0.06501(16)
H34 H 0.5003 1.0030 0.0551
C31 C 0.4058(4) 0.9092(3) 0.09046(16)
H35 H 0.3517 0.9576 0.0973
C32 C 0.3936(4) 0.8128(3) 0.10627(15)
H36 H 0.3335 0.7936 0.1239
C33 C 0.7250(3) 0.4775(2) 0.08131(12)
C34 C 0.6136(3) 0.5035(2) 0.08533(12)
C35 C 0.7610(3) 0.3733(2) 0.07535(12)
C36 C 0.6966(3) 0.3112(3) 0.03808(13)
H37 H 0.6279 0.3355 0.0159
C37 C 0.7329(3) 0.2147(3) 0.03287(14)
H38 H 0.6883 0.1723 0.0078
C38 C 0.8342(3) 0.1800(3) 0.06452(14)
C39 C 0.8996(3) 0.2401(3) 0.10169(14)
H39 H 0.9685 0.2154 0.1236
C40 C 0.8633(3) 0.3368(3) 0.10663(13)
H40 H 0.9090 0.3786 0.1316
C41 C 0.8735(3) 0.0766(2) 0.05809(15)
C42 C 0.5208(3) 0.4281(2) 0.08859(12)
C43 C 0.4112(3) 0.4337(3) 0.05548(13)
H41 H 0.3942 0.4885 0.0329
C44 C 0.3273(3) 0.3618(3) 0.05514(13)
H42 H 0.2534 0.3661 0.0320
C45 C 0.3511(3) 0.2831(3) 0.08867(14)
C46 C 0.4575(3) 0.2782(3) 0.12346(15)
H43 H 0.4724 0.2253 0.1473
C47 C 0.5421(3) 0.3507(3) 0.12335(14)
H44 H 0.6148 0.3474 0.1473
C48 C 0.2611(3) 0.2044(3) 0.08588(18)
F13 F 0.8858(7) 0.0626(5) 0.0071(2)
F14 F 0.7979(5) 0.0121(4) 0.0659(5)
F15 F 0.9780(4) 0.0536(3) 0.0852(2)
F16 F 0.1546(2) 0.2386(2) 0.0855(2)
F17 F 0.2842(3) 0.1410(3) 0.12566(16)
F18 F 0.2532(4) 0.1475(3) 0.04460(18)
B2 B 0.8287(3) 0.5542(3) 0.08455(15)
B3 B 0.5764(3) 0.6134(3) 0.08531(14)
O1? O 0.7249(2) 0.84127(19) 0.28223(12)
O2? O 0.6411(6) 0.8588(5) 0.2048(2)
O3? O 0.5508(5) 0.8967(4) 0.2256(2)
C1? C 0.7630(4) 0.9316(3) 0.2628(2)
C2? C 0.7240(7) 0.9341(6) 0.2168(3)
C3? C 0.7492(10) 1.0056(8) 0.1877(4)
H1? H 0.7102 1.0134 0.1530
C4? C 0.8363(11) 1.0732(9) 0.2117(5)
H2? H 0.8629 1.1229 0.1915
C5? C 0.8889(10) 1.0649(8) 0.2637(4)
H3? H 0.9445 1.1120 0.2802
C6? C 0.8567(9) 0.9881(8) 0.2934(4)
H4? H 0.8932 0.9728 0.3278
C7? C 0.6251(7) 0.9827(6) 0.2385(3)
C8? C 0.8159(10) 0.9140(9) 0.2127(4)
H5? H 0.7633 0.8715 0.1884
H6? H 0.8932 0.8824 0.2226
H7? H 0.8246 0.9777 0.1964
C9? C 0.8248(10) 0.9913(8) 0.3019(4)
H8? H 0.7821 0.9961 0.3301
H9? H 0.8344 1.0573 0.2883
H10? H 0.9025 0.9620 0.3146
C10? C 0.6181(11) 1.0481(9) 0.1909(5)
H11? H 0.6451 1.0089 0.1645
H12? H 0.6690 1.1060 0.1993
H13? H 0.5368 1.0697 0.1779
C11? C 0.5775(9) 1.0386(7) 0.2801(4)
H14? H 0.5842 0.9955 0.3102
H15? H 0.4951 1.0586 0.2685
H16? H 0.6265 1.0973 0.2894
C12? C 0.5595(3) 0.7137(3) 0.25165(13)
C13? C 0.6288(3) 0.6207(3) 0.25646(13)
C14? C 0.7079(3) 0.6021(3) 0.22411(13)
H17? H 0.7209 0.6511 0.2003
C15? C 0.7678(3) 0.5138(3) 0.22690(14)
H18? H 0.8189 0.5012 0.2038
C16? C 0.7515(3) 0.4429(3) 0.26261(14)
C17? C 0.6790(3) 0.4632(3) 0.29697(14)
H19? H 0.6705 0.4165 0.3226
C18? C 0.6182(3) 0.5513(3) 0.29365(13)
H20? H 0.5681 0.5646 0.3171
C19? C 0.8034(5) 0.3396(4) 0.2649(2)
F1? F 0.8456(9) 0.3195(7) 0.2247(2)
F2? F 0.8953(5) 0.3326(3) 0.30438(16)
F3? F 0.7335(4) 0.2683(3) 0.2718(3)
C20? C 0.8396(11) 0.3660(9) 0.2649(5)
F4? F 0.8279(11) 0.3108(11) 0.2219(4)
F5? F 0.8289(15) 0.3045(12) 0.3022(5)
F6? F 0.9504(12) 0.3926(13) 0.2741(6)
B1? B 0.6277(6) 0.8138(4) 0.25005(18)
F7? F 0.8095(3) 0.0234(2) 0.02100(15)
F8? F 0.8608(3) 0.0202(2) 0.10199(15)
F9? F 0.9849(3) 0.0629(2) 0.05740(15)
F10? F 0.9439(3) 0.0761(2) 0.02376(15)
F11? F 0.7893(3) 0.0134(2) 0.04462(15)
F12? F 0.9408(3) 0.0437(2) 0.10216(15)
F19? F 0.302(2) 0.122(2) 0.0789(12)
F20? F 0.164(2) 0.2192(19) 0.0517(9)
F21? F 0.226(2) 0.1981(19) 0.1299(9)
loop_
_geom_bond_atom_site_label_1
_geom_bond_atom_site_label_2
_geom_bond_site_symmetry_1
_geom_bond_site_symmetry_2
O4 C21 1_555 1_555
O5 C22 1_555 1_555
O6 C27 1_555 1_555
O7 C28 1_555 1_555
C21 C22 1_555 1_555
C22 C25 1_555 1_555
C23 C21 1_555 1_555
H21 C23 1_555 1_555
H22 C23 1_555 1_555
H23 C23 1_555 1_555
C24 C21 1_555 1_555
H24 C24 1_555 1_555
H25 C24 1_555 1_555
H26 C24 1_555 1_555
C25 H27 1_555 1_555
H28 C25 1_555 1_555
H29 C25 1_555 1_555
C26 C22 1_555 1_555
H30 C26 1_555 1_555
H31 C26 1_555 1_555
H32 C26 1_555 1_555
C27 C28 1_555 1_555
C28 C29 1_555 1_555
C29 H33 1_555 1_555
C30 C29 1_555 1_555
H34 C30 1_555 1_555
C31 C30 1_555 1_555
H35 C31 1_555 1_555
C32 C27 1_555 1_555
H36 C32 1_555 1_555
C33 C34 1_555 1_555
C34 C42 1_555 1_555
C35 C33 1_555 1_555
C36 C35 1_555 1_555
H37 C36 1_555 1_555
C37 C36 1_555 1_555
H38 C37 1_555 1_555
C38 C37 1_555 1_555
C39 C38 1_555 1_555
H39 C39 1_555 1_555
C40 C35 1_555 1_555
H40 C40 1_555 1_555
C41 C38 1_555 1_555
C42 C43 1_555 1_555
C43 H41 1_555 1_555
C44 C43 1_555 1_555
H42 C44 1_555 1_555
C45 C44 1_555 1_555
C46 C45 1_555 1_555
H43 C46 1_555 1_555
C47 C42 1_555 1_555
H44 C47 1_555 1_555
C48 C45 1_555 1_555
F13 C41 1_555 1_555
F14 C41 1_555 1_555
F15 C41 1_555 1_555
F16 C48 1_555 1_555
F17 C48 1_555 1_555
F18 C48 1_555 1_555
B2 O4 1_555 1_555
B3 O6 1_555 1_555
O5 B2 1_555 1_555
O7 B3 1_555 1_555
C31 C32 1_555 1_555
C33 B2 1_555 1_555
C34 B3 1_555 1_555
C39 C40 1_555 1_555
C46 C47 1_555 1_555

#END
