
#######################################################################
#
#                 Cambridge Crystallographic Data Centre
#                                CCDC 
#
#######################################################################
#
# If this CIF has been generated from an entry in the Cambridge 
# Structural Database, then it will include bibliographic, chemical, 
# crystal, experimental, refinement or atomic coordinate data resulting 
# from the CCDC's data processing and validation procedures.
#
#######################################################################

data_REDFOY
_chemical_formula_moiety         'C13 H12 F3 N1 O2'
_chemical_name_systematic        
4-(2,2-difluoroethyl)-6-fluoro-2,4-dimethylisoquinoline-1,3(2H,4H)-dione
_symmetry_cell_setting           monoclinic
_symmetry_space_group_name_H-M   'P 21/n'
_symmetry_Int_Tables_number      14
_space_group_name_Hall           '-P 2yn'
loop_
_symmetry_equiv_pos_site_id
_symmetry_equiv_pos_as_xyz
1 x,y,z
2 1/2-x,1/2+y,1/2-z
3 -x,-y,-z
4 1/2+x,1/2-y,1/2+z
_cell_length_a                   8.3643(6)
_cell_length_b                   11.0918(9)
_cell_length_c                   14.0147(11)
_cell_angle_alpha                90
_cell_angle_beta                 107.36
_cell_angle_gamma                90
_cell_volume                     1240.99
_exptl_crystal_colour            colorless
_exptl_crystal_description       block
_cell_formula_units_Z            4
loop_
_atom_site_label
_atom_site_type_symbol
_atom_site_fract_x
_atom_site_fract_y
_atom_site_fract_z
F1 F 0.9992(4) 0.0115(2) 0.1145(2)
F2 F 0.9902(5) 0.3248(3) 0.4719(2)
F3 F 1.1351(4) 0.4184(3) 0.3903(2)
N1 N 1.0443(4) 0.5799(2) 0.1655(2)
O1 O 0.8660(4) 0.6190(2) 0.2524(3)
O2 O 1.2513(4) 0.5404(3) 0.0978(3)
C1 C 1.1384(5) 0.5002(3) 0.1275(3)
C2 C 1.0983(4) 0.3723(3) 0.1258(2)
C3 C 0.9699(5) 0.3290(3) 0.1606(3)
C4 C 0.8662(5) 0.4143(3) 0.2031(3)
C5 C 0.9276(5) 0.5444(3) 0.2114(3)
C6 C 1.1906(5) 0.2915(4) 0.0860(3)
H1 H 1.2751 0.3207 0.0617
C7 C 1.1585(5) 0.1706(4) 0.0822(3)
H2 H 1.2212 0.1173 0.0567
C8 C 1.0312(5) 0.1299(3) 0.1170(3)
C9 C 0.9355(5) 0.2065(3) 0.1557(3)
H3 H 0.8494 0.1762 0.1782
C10 C 0.6843(5) 0.4186(4) 0.1300(3)
H4 H 0.6168 0.4709 0.1567
H5 H 0.6372 0.3389 0.1221
H6 H 0.6869 0.4486 0.0662
C11 C 0.8539(5) 0.3739(3) 0.3052(3)
H7 H 0.8058 0.4394 0.3334
H8 H 0.7765 0.3066 0.2948
C12 C 1.0144(6) 0.3368(5) 0.3806(3)
H9 H 1.0512 0.2594 0.3606
C13 C 1.0818(6) 0.7096(3) 0.1636(3)
H10 H 1.1777 0.7289 0.2191
H11 H 0.9872 0.7557 0.1682
H12 H 1.1050 0.7288 0.1023
loop_
_geom_bond_atom_site_label_1
_geom_bond_atom_site_label_2
_geom_bond_site_symmetry_1
_geom_bond_site_symmetry_2
F1 C8 1_555 1_555
F2 C12 1_555 1_555
F3 C12 1_555 1_555
N1 C1 1_555 1_555
O1 C5 1_555 1_555
O2 C1 1_555 1_555
C1 C2 1_555 1_555
C2 C3 1_555 1_555
C3 C4 1_555 1_555
C4 C5 1_555 1_555
C5 N1 1_555 1_555
C6 C2 1_555 1_555
H1 C6 1_555 1_555
C7 C6 1_555 1_555
H2 C7 1_555 1_555
C8 C7 1_555 1_555
C9 C3 1_555 1_555
H3 C9 1_555 1_555
C10 C4 1_555 1_555
H4 C10 1_555 1_555
H5 C10 1_555 1_555
H6 C10 1_555 1_555
C11 C4 1_555 1_555
H7 C11 1_555 1_555
H8 C11 1_555 1_555
C12 C11 1_555 1_555
H9 C12 1_555 1_555
C13 N1 1_555 1_555
H10 C13 1_555 1_555
H11 C13 1_555 1_555
H12 C13 1_555 1_555
C8 C9 1_555 1_555

#END
