
#######################################################################
#
#                 Cambridge Crystallographic Data Centre
#                                CCDC 
#
#######################################################################
#
# If this CIF has been generated from an entry in the Cambridge 
# Structural Database, then it will include bibliographic, chemical, 
# crystal, experimental, refinement or atomic coordinate data resulting 
# from the CCDC's data processing and validation procedures.
#
#######################################################################

data_REDFUE
_chemical_formula_moiety         'C14 H15 F2 N1 O3'
_chemical_name_systematic        
4-(2,2-difluoroethyl)-6-methoxy-2,4-dimethylisoquinoline-1,3(2H,4H)-dione
_symmetry_cell_setting           monoclinic
_symmetry_space_group_name_H-M   'P 21/c'
_symmetry_Int_Tables_number      14
_space_group_name_Hall           '-P 2ybc'
loop_
_symmetry_equiv_pos_site_id
_symmetry_equiv_pos_as_xyz
1 x,y,z
2 -x,1/2+y,1/2-z
3 -x,-y,-z
4 x,1/2-y,1/2+z
_cell_length_a                   7.9457(7)
_cell_length_b                   19.7796(15)
_cell_length_c                   8.9411(8)
_cell_angle_alpha                90
_cell_angle_beta                 107.130(9)
_cell_angle_gamma                90
_cell_volume                     1342.87
_exptl_crystal_colour            colorless
_exptl_crystal_description       block
_cell_formula_units_Z            4
loop_
_atom_site_label
_atom_site_type_symbol
_atom_site_fract_x
_atom_site_fract_y
_atom_site_fract_z
C1 C 0.6139(3) 0.15539(13) 0.3623(3)
C2 C 0.4456(3) 0.13268(12) 0.2551(3)
C3 C 0.2894(3) 0.13679(12) 0.2931(3)
C4 C 0.2867(3) 0.16342(12) 0.4519(3)
C5 C 0.4684(4) 0.17935(14) 0.5633(3)
C6 C 0.4439(4) 0.10840(14) 0.1074(3)
H1 H 0.5488 0.1053 0.0816
C7 C 0.2901(4) 0.08923(15) 0.0011(3)
H2 H 0.2906 0.0725 -0.0959
C8 C 0.1332(4) 0.09470(14) 0.0378(3)
C9 C 0.1321(3) 0.11790(13) 0.1833(3)
H3 H 0.0265 0.1209 0.2079
C10 C 0.1859(4) 0.23091(13) 0.4294(3)
H4 H 0.2439 0.2631 0.3811
H5 H 0.1834 0.2478 0.5294
H6 H 0.0676 0.2240 0.3638
C11 C 0.7822(4) 0.20270(19) 0.6145(4)
H7 H 0.7601 0.2307 0.6944
H8 H 0.8438 0.2284 0.5560
H9 H 0.8525 0.1646 0.6622
C12 C -0.1779(4) 0.08203(19) -0.0474(4)
H10 H -0.1769 0.0551 0.0421
H11 H -0.2697 0.0665 -0.1367
H12 H -0.1986 0.1285 -0.0271
C13 C 0.1943(3) 0.11268(13) 0.5329(3)
H13 H 0.2042 0.1292 0.6373
H14 H 0.0701 0.1114 0.4753
C14 C 0.2656(4) 0.04214(15) 0.5456(3)
H15 H 0.2470 0.0226 0.4413
F1 F 0.1844(3) 0.00399(10) 0.6299(2)
F2 F 0.4391(3) 0.04120(11) 0.6265(3)
N1 N 0.6134(3) 0.17875(11) 0.5085(3)
O1 O 0.7515(2) 0.15414(11) 0.3274(2)
O2 O 0.4831(3) 0.19571(12) 0.6974(2)
O3 O -0.0133(3) 0.07620(12) -0.0778(2)
loop_
_geom_bond_atom_site_label_1
_geom_bond_atom_site_label_2
_geom_bond_site_symmetry_1
_geom_bond_site_symmetry_2
C1 C2 1_555 1_555
C2 C3 1_555 1_555
C3 C4 1_555 1_555
C4 C5 1_555 1_555
C5 N1 1_555 1_555
C6 C2 1_555 1_555
H1 C6 1_555 1_555
C7 C6 1_555 1_555
H2 C7 1_555 1_555
C8 C7 1_555 1_555
C9 C3 1_555 1_555
H3 C9 1_555 1_555
C10 C4 1_555 1_555
H4 C10 1_555 1_555
H5 C10 1_555 1_555
H6 C10 1_555 1_555
C11 H7 1_555 1_555
H8 C11 1_555 1_555
H9 C11 1_555 1_555
C12 H10 1_555 1_555
H11 C12 1_555 1_555
H12 C12 1_555 1_555
C13 C4 1_555 1_555
H13 C13 1_555 1_555
H14 C13 1_555 1_555
C14 C13 1_555 1_555
H15 C14 1_555 1_555
F1 C14 1_555 1_555
F2 C14 1_555 1_555
N1 C1 1_555 1_555
O1 C1 1_555 1_555
O2 C5 1_555 1_555
O3 C8 1_555 1_555
C8 C9 1_555 1_555
C11 N1 1_555 1_555
C12 O3 1_555 1_555

#END
