
#######################################################################
#
#                 Cambridge Crystallographic Data Centre
#                                CCDC 
#
#######################################################################
#
# If this CIF has been generated from an entry in the Cambridge 
# Structural Database, then it will include bibliographic, chemical, 
# crystal, experimental, refinement or atomic coordinate data resulting 
# from the CCDC's data processing and validation procedures.
#
#######################################################################

data_REDGUD
_chemical_formula_moiety         'C11 H14 N2 O3 S1'
_chemical_name_systematic        N-ethoxycarbonyl-N'-(2-methoxyphenyl)thiourea
_symmetry_cell_setting           monoclinic
_symmetry_space_group_name_H-M   'P 21/c'
_symmetry_Int_Tables_number      14
_space_group_name_Hall           '-P 2ybc'
loop_
_symmetry_equiv_pos_site_id
_symmetry_equiv_pos_as_xyz
1 x,y,z
2 -x,1/2+y,1/2-z
3 -x,-y,-z
4 x,1/2-y,1/2+z
_cell_length_a                   9.690(2)
_cell_length_b                   8.595(2)
_cell_length_c                   15.944(4)
_cell_angle_alpha                90
_cell_angle_beta                 106.467(4)
_cell_angle_gamma                90
_cell_volume                     1273.44
_exptl_crystal_colour            colorless
_exptl_crystal_description       block
_chemical_melting_point          '138-139 deg.C'
_cell_formula_units_Z            4
_exptl_crystal_recrystallization_method chloroform
loop_
_atom_site_label
_atom_site_type_symbol
_atom_site_fract_x
_atom_site_fract_y
_atom_site_fract_z
S1 S 0.63655(6) 0.16401(9) 1.08869(4)
N1 N 0.86856(18) 0.1802(2) 1.02755(12)
H1 H 0.898(2) 0.153(2) 0.9833(10)
N2 N 0.67440(18) 0.0406(2) 0.94758(11)
H2 H 0.5900(14) 0.002(2) 0.9418(14)
O1 O 1.09218(17) 0.2643(2) 0.98630(11)
O2 O 0.83658(18) 0.0617(2) 0.86771(11)
O3 O 0.62873(16) -0.0683(2) 0.81829(10)
C1 C 0.7362(2) 0.1303(2) 1.02064(13)
C2 C 0.9613(2) 0.2802(2) 1.08795(13)
C3 C 1.0813(2) 0.3290(3) 1.06244(14)
C4 C 1.1768(3) 0.4330(3) 1.11300(18)
H3 H 1.2545 0.4682 1.0949
C5 C 1.1574(3) 0.4852(4) 1.19062(18)
H4 H 1.2221 0.5560 1.2246
C6 C 1.0437(3) 0.4335(3) 1.21803(16)
H5 H 1.0326 0.4679 1.2710
C7 C 0.9455(2) 0.3306(3) 1.16718(14)
H6 H 0.8687 0.2952 1.1861
C8 C 1.2062(3) 0.3113(3) 0.95247(17)
H7 H 1.2002 0.4213 0.9417
H8 H 1.1990 0.2571 0.8987
H9 H 1.2967 0.2872 0.9941
C9 C 0.7247(2) 0.0156(3) 0.87644(14)
C10 C 0.6610(3) -0.0989(4) 0.73621(17)
H10 H 0.7510 -0.1553 0.7468
H11 H 0.6695 -0.0019 0.7070
C11 C 0.5431(3) -0.1916(5) 0.6823(2)
H12 H 0.5400 -0.2902 0.7099
H13 H 0.5578 -0.2079 0.6259
H14 H 0.4538 -0.1377 0.6755
loop_
_geom_bond_atom_site_label_1
_geom_bond_atom_site_label_2
_geom_bond_site_symmetry_1
_geom_bond_site_symmetry_2
S1 C1 1_555 1_555
N1 H1 1_555 1_555
N2 H2 1_555 1_555
O1 C3 1_555 1_555
O2 C9 1_555 1_555
O3 C9 1_555 1_555
C1 N1 1_555 1_555
C2 N1 1_555 1_555
C3 C2 1_555 1_555
C4 C3 1_555 1_555
H3 C4 1_555 1_555
C5 C4 1_555 1_555
H4 C5 1_555 1_555
C6 C5 1_555 1_555
H5 C6 1_555 1_555
C7 C2 1_555 1_555
H6 C7 1_555 1_555
C8 O1 1_555 1_555
H7 C8 1_555 1_555
H8 C8 1_555 1_555
H9 C8 1_555 1_555
C9 N2 1_555 1_555
C10 O3 1_555 1_555
H10 C10 1_555 1_555
H11 C10 1_555 1_555
C11 C10 1_555 1_555
H12 C11 1_555 1_555
H13 C11 1_555 1_555
H14 C11 1_555 1_555
N2 C1 1_555 1_555
C6 C7 1_555 1_555

#END
