
#######################################################################
#
#                 Cambridge Crystallographic Data Centre
#                                CCDC 
#
#######################################################################
#
# If this CIF has been generated from an entry in the Cambridge 
# Structural Database, then it will include bibliographic, chemical, 
# crystal, experimental, refinement or atomic coordinate data resulting 
# from the CCDC's data processing and validation procedures.
#
#######################################################################

data_REDGIR
_chemical_formula_moiety         'C25 H24 O2 S1'
_chemical_name_systematic        
(Z)-2-phenyl-1-(p-tolyl)-1-(p-tolylsulfonyl)penta-1,4-diene
_symmetry_cell_setting           triclinic
_symmetry_space_group_name_H-M   'P -1'
_symmetry_Int_Tables_number      2
_space_group_name_Hall           '-P 1'
loop_
_symmetry_equiv_pos_site_id
_symmetry_equiv_pos_as_xyz
1 x,y,z
2 -x,-y,-z
_cell_length_a                   8.5858(6)
_cell_length_b                   11.5065(8)
_cell_length_c                   11.7576(8)
_cell_angle_alpha                72.0620(10)
_cell_angle_beta                 82.8060(10)
_cell_angle_gamma                72.6040(10)
_cell_volume                     1053.85
_chemical_melting_point          '119-120 deg.C'
_cell_formula_units_Z            2
loop_
_atom_site_label
_atom_site_type_symbol
_atom_site_fract_x
_atom_site_fract_y
_atom_site_fract_z
S1 S -0.02356(11) 0.26763(9) 0.40765(8)
O1 O -0.1129(3) 0.3984(3) 0.3926(3)
O2 O -0.1114(4) 0.1731(3) 0.4538(3)
C1 C 0.2698(17) 0.3909(9) -0.1009(8)
H1 H 0.2479 0.3338 -0.1338
H2 H 0.2753 0.4705 -0.1496
C2 C 0.2911(11) 0.3617(6) 0.0051(6)
H3 H 0.3118 0.4272 0.0260
C3 C 0.2934(6) 0.2527(4) 0.1086(4)
H4 H 0.4059 0.2072 0.1286
H5 H 0.2452 0.1957 0.0883
C4 C 0.2017(5) 0.2883(4) 0.2177(3)
C5 C 0.0705(5) 0.2467(4) 0.2668(3)
C6 C -0.0127(5) 0.1830(4) 0.2102(3)
C7 C -0.0040(5) 0.0556(4) 0.2527(4)
H6 H 0.0542 0.0059 0.3208
C8 C -0.0808(6) 0.0006(4) 0.1953(4)
H7 H -0.0713 -0.0860 0.2248
C9 C -0.1708(6) 0.0710(5) 0.0958(4)
C10 C -0.1802(7) 0.1984(5) 0.0535(4)
H8 H -0.2401 0.2478 -0.0139
C11 C -0.1028(7) 0.2546(5) 0.1088(4)
H9 H -0.1109 0.3409 0.0782
C12 C -0.2569(7) 0.0108(7) 0.0350(5)
H10 H -0.2370 -0.0780 0.0765
H11 H -0.2163 0.0210 -0.0463
H12 H -0.3722 0.0514 0.0362
C13 C 0.2703(5) 0.3693(4) 0.2631(3)
C14 C 0.4291(5) 0.3260(4) 0.3049(4)
H13 H 0.4937 0.2455 0.3039
C15 C 0.4902(6) 0.4020(6) 0.3475(5)
H14 H 0.5948 0.3715 0.3770
C16 C 0.3979(7) 0.5221(6) 0.3467(5)
H15 H 0.4392 0.5721 0.3770
C17 C 0.2459(7) 0.5682(5) 0.3017(5)
H16 H 0.1852 0.6508 0.2989
C18 C 0.1806(5) 0.4929(4) 0.2597(4)
H17 H 0.0765 0.5253 0.2292
C19 C 0.1397(4) 0.2279(3) 0.5030(3)
C20 C 0.1605(5) 0.3175(4) 0.5506(3)
H18 H 0.0877 0.3983 0.5342
C21 C 0.2908(5) 0.2859(4) 0.6232(4)
H19 H 0.3035 0.3455 0.6570
C22 C 0.4025(5) 0.1670(4) 0.6462(4)
C23 C 0.3761(5) 0.0782(4) 0.5996(4)
H20 H 0.4482 -0.0029 0.6167
C24 C 0.2454(5) 0.1064(4) 0.5283(3)
H21 H 0.2290 0.0453 0.4981
C25 C 0.5516(6) 0.1355(6) 0.7176(5)
H22 H 0.6147 0.0495 0.7239
H23 H 0.5183 0.1446 0.7961
H24 H 0.6168 0.1922 0.6780
loop_
_geom_bond_atom_site_label_1
_geom_bond_atom_site_label_2
_geom_bond_site_symmetry_1
_geom_bond_site_symmetry_2
S1 O1 1_555 1_555
O2 S1 1_555 1_555
C1 H1 1_555 1_555
H2 C1 1_555 1_555
C2 C1 1_555 1_555
H3 C2 1_555 1_555
C3 C2 1_555 1_555
H4 C3 1_555 1_555
H5 C3 1_555 1_555
C4 C3 1_555 1_555
C5 S1 1_555 1_555
C6 C5 1_555 1_555
C7 C6 1_555 1_555
H6 C7 1_555 1_555
C8 C7 1_555 1_555
H7 C8 1_555 1_555
C9 C8 1_555 1_555
C10 C9 1_555 1_555
H8 C10 1_555 1_555
C11 C6 1_555 1_555
H9 C11 1_555 1_555
C12 C9 1_555 1_555
H10 C12 1_555 1_555
H11 C12 1_555 1_555
H12 C12 1_555 1_555
C13 C4 1_555 1_555
C14 C13 1_555 1_555
H13 C14 1_555 1_555
C15 C14 1_555 1_555
H14 C15 1_555 1_555
C16 C15 1_555 1_555
H15 C16 1_555 1_555
C17 C16 1_555 1_555
H16 C17 1_555 1_555
C18 C13 1_555 1_555
H17 C18 1_555 1_555
C19 S1 1_555 1_555
C20 C19 1_555 1_555
H18 C20 1_555 1_555
C21 C20 1_555 1_555
H19 C21 1_555 1_555
C22 C21 1_555 1_555
C23 C22 1_555 1_555
H20 C23 1_555 1_555
C24 C19 1_555 1_555
H21 C24 1_555 1_555
C25 C22 1_555 1_555
H22 C25 1_555 1_555
H23 C25 1_555 1_555
H24 C25 1_555 1_555
C4 C5 1_555 1_555
C10 C11 1_555 1_555
C17 C18 1_555 1_555
C23 C24 1_555 1_555

#END
