
#######################################################################
#
#                 Cambridge Crystallographic Data Centre
#                                CCDC 
#
#######################################################################
#
# If this CIF has been generated from an entry in the Cambridge 
# Structural Database, then it will include bibliographic, chemical, 
# crystal, experimental, refinement or atomic coordinate data resulting 
# from the CCDC's data processing and validation procedures.
#
#######################################################################

data_REDNUL
_chemical_formula_moiety         'C22 H18 B1 F2 N3 O2'
_chemical_name_systematic        
5,5-Difluoro-2,3-bis(4-methoxyphenyl)-5H-6\l^5^,5\l^5^-imidazo[1',2':3,4][1,3,2]diazaborolo[1,5-a]pyridine
_symmetry_cell_setting           triclinic
_symmetry_space_group_name_H-M   'P -1'
_symmetry_Int_Tables_number      2
_space_group_name_Hall           '-P 1'
loop_
_symmetry_equiv_pos_site_id
_symmetry_equiv_pos_as_xyz
1 x,y,z
2 -x,-y,-z
_cell_length_a                   11.453(10)
_cell_length_b                   13.193(11)
_cell_length_c                   14.853(13)
_cell_angle_alpha                100.148(3)
_cell_angle_beta                 111.036(9)
_cell_angle_gamma                99.754(10)
_cell_volume                     1994.73
_cell_formula_units_Z            4
loop_
_atom_site_label
_atom_site_type_symbol
_atom_site_fract_x
_atom_site_fract_y
_atom_site_fract_z
C1 C 0.6511(3) 0.1848(2) 1.0369(2)
H1 H 0.6417 0.2505 1.0252
C2 C 0.6175(3) 0.1485(2) 1.1095(2)
H2 H 0.5838 0.1897 1.1466
C3 C 0.6347(3) 0.0506(2) 1.1258(2)
H3 H 0.6143 0.0269 1.1750
C4 C 0.6811(3) -0.0106(2) 1.07026(19)
H4 H 0.6924 -0.0761 1.0814
C5 C 0.6984(2) 0.12013(18) 0.98354(17)
C6 C 0.7428(2) 0.13435(17) 0.90555(17)
C7 C 0.8177(2) 0.07173(18) 0.79699(16)
C8 C 0.7986(2) 0.17217(18) 0.79045(16)
C9 C 0.8213(2) 0.23744(17) 0.72439(16)
C10 C 0.9292(2) 0.2432(2) 0.70111(19)
H5 H 0.9862 0.2022 0.7248
C11 C 0.9530(3) 0.3091(2) 0.6432(2)
H6 H 1.0255 0.3120 0.6283
C12 C 0.8689(2) 0.37082(19) 0.60749(18)
C13 C 0.7596(2) 0.3651(2) 0.62880(19)
H7 H 0.7018 0.4051 0.6040
C14 C 0.7375(2) 0.29928(19) 0.68731(18)
H8 H 0.6649 0.2964 0.7021
C15 C 0.8647(2) -0.00517(18) 0.74261(17)
C16 C 0.9488(2) -0.0590(2) 0.79415(18)
H9 H 0.9785 -0.0434 0.8633
C17 C 0.9900(3) -0.1361(2) 0.7450(2)
H10 H 1.0461 -0.1717 0.7810
C18 C 0.9471(3) -0.15930(19) 0.6425(2)
C19 C 0.8657(3) -0.1052(2) 0.58973(19)
H11 H 0.8378 -0.1207 0.5207
C20 C 0.8245(2) -0.0277(2) 0.63842(18)
H12 H 0.7706 0.0091 0.6020
C21 C 0.8081(4) 0.4841(3) 0.4993(3)
H13 H 0.8432 0.5270 0.4646
H14 H 0.7841 0.5282 0.5449
H15 H 0.7331 0.4301 0.4520
C22 C 1.0716(5) -0.2864(4) 0.6411(3)
H16 H 1.0865 -0.3379 0.5949
H17 H 1.0387 -0.3215 0.6817
H18 H 1.1514 -0.2344 0.6830
B1 B 0.7583(3) -0.0413(2) 0.9215(2)
N1 N 0.7104(2) 0.02325(15) 0.99962(15)
N2 N 0.7829(2) 0.04938(15) 0.87219(14)
N3 N 0.75063(19) 0.21017(15) 0.85911(14)
O1 O 0.9024(2) 0.43540(16) 0.55307(16)
O2 O 0.9797(2) -0.23492(16) 0.58725(17)
F1 F 0.6593(2) -0.12653(13) 0.85745(14)
F2 F 0.86551(19) -0.07186(14) 0.97297(13)
C23 C 0.0944(3) 0.3033(2) 1.0181(2)
H19 H 0.0694 0.2294 0.9998
C24 C 0.0581(3) 0.3612(2) 1.0861(2)
H20 H 0.0061 0.3263 1.1128
C25 C 0.0991(3) 0.4711(2) 1.1145(2)
H21 H 0.0786 0.5100 1.1627
C26 C 0.1703(3) 0.5224(2) 1.07114(19)
H22 H 0.1969 0.5963 1.0892
C27 C 0.1682(2) 0.35771(18) 0.97827(18)
C28 C 0.2223(2) 0.32098(18) 0.90766(18)
C29 C 0.3259(2) 0.35774(17) 0.81452(17)
C30 C 0.2866(2) 0.24770(17) 0.80128(17)
C31 C 0.3077(2) 0.15890(17) 0.73823(17)
C32 C 0.4291(2) 0.15864(18) 0.73907(19)
H23 H 0.4986 0.2167 0.7788
C33 C 0.4491(2) 0.0734(2) 0.6817(2)
H24 H 0.5314 0.0744 0.6837
C34 C 0.3454(3) -0.0134(2) 0.62112(19)
C35 C 0.2236(3) -0.0142(2) 0.61963(19)
H25 H 0.1540 -0.0718 0.5792
C36 C 0.2052(2) 0.07043(19) 0.67798(19)
H26 H 0.1233 0.0684 0.6771
C37 C 0.3951(2) 0.41915(18) 0.76709(17)
C38 C 0.4772(2) 0.52041(19) 0.81851(19)
H27 H 0.4873 0.5496 0.8834
C39 C 0.5439(2) 0.5783(2) 0.77485(19)
H28 H 0.5975 0.6458 0.8103
C40 C 0.5307(2) 0.53555(19) 0.67803(19)
C41 C 0.4495(3) 0.4347(2) 0.62597(19)
H29 H 0.4404 0.4052 0.5614
C42 C 0.3824(2) 0.37832(19) 0.66985(18)
H30 H 0.3273 0.3115 0.6337
C43 C 0.4764(4) -0.1150(4) 0.5740(4)
H31 H 0.4679 -0.1791 0.5275
H32 H 0.5209 -0.1200 0.6409
H33 H 0.5247 -0.0554 0.5625
C44 C 0.6773(4) 0.6861(3) 0.6776(3)
H34 H 0.7131 0.7118 0.6340
H35 H 0.7459 0.6811 0.7359
H36 H 0.6316 0.7345 0.6969
B2 B 0.2751(3) 0.5117(2) 0.9373(2)
N4 N 0.20153(19) 0.46601(15) 1.00281(15)
N5 N 0.28469(19) 0.40333(15) 0.88445(15)
N6 N 0.22115(19) 0.22590(15) 0.86060(16)
O3 O 0.5912(2) 0.58452(16) 0.62727(15)
O4 O 0.3543(2) -0.10118(18) 0.56134(17)
F3 F 0.19765(16) 0.55966(12) 0.87401(12)
F4 F 0.39136(15) 0.58189(11) 1.00081(11)
loop_
_geom_bond_atom_site_label_1
_geom_bond_atom_site_label_2
_geom_bond_site_symmetry_1
_geom_bond_site_symmetry_2
C1 H1 1_555 1_555
C2 C1 1_555 1_555
H2 C2 1_555 1_555
C3 C2 1_555 1_555
H3 C3 1_555 1_555
C4 C3 1_555 1_555
H4 C4 1_555 1_555
C5 C1 1_555 1_555
C6 C5 1_555 1_555
C7 C8 1_555 1_555
C8 C9 1_555 1_555
C9 C10 1_555 1_555
C10 H5 1_555 1_555
C11 C10 1_555 1_555
H6 C11 1_555 1_555
C12 C11 1_555 1_555
C13 C12 1_555 1_555
H7 C13 1_555 1_555
C14 C9 1_555 1_555
H8 C14 1_555 1_555
C15 C7 1_555 1_555
C16 C15 1_555 1_555
H9 C16 1_555 1_555
C17 C16 1_555 1_555
H10 C17 1_555 1_555
C18 C17 1_555 1_555
C19 C18 1_555 1_555
H11 C19 1_555 1_555
C20 C15 1_555 1_555
H12 C20 1_555 1_555
C21 H13 1_555 1_555
H14 C21 1_555 1_555
H15 C21 1_555 1_555
C22 H16 1_555 1_555
H17 C22 1_555 1_555
H18 C22 1_555 1_555
C23 H19 1_555 1_555
C24 C23 1_555 1_555
H20 C24 1_555 1_555
C25 C24 1_555 1_555
H21 C25 1_555 1_555
C26 C25 1_555 1_555
H22 C26 1_555 1_555
C27 C23 1_555 1_555
C28 C27 1_555 1_555
C29 C30 1_555 1_555
C30 C31 1_555 1_555
C31 C32 1_555 1_555
C32 H23 1_555 1_555
C33 C32 1_555 1_555
H24 C33 1_555 1_555
C34 C33 1_555 1_555
C35 C34 1_555 1_555
H25 C35 1_555 1_555
C36 C31 1_555 1_555
H26 C36 1_555 1_555
C37 C29 1_555 1_555
C38 C37 1_555 1_555
H27 C38 1_555 1_555
C39 C38 1_555 1_555
H28 C39 1_555 1_555
C40 C39 1_555 1_555
C41 C40 1_555 1_555
H29 C41 1_555 1_555
C42 C37 1_555 1_555
H30 C42 1_555 1_555
C43 H31 1_555 1_555
H32 C43 1_555 1_555
H33 C43 1_555 1_555
C44 H34 1_555 1_555
H35 C44 1_555 1_555
H36 C44 1_555 1_555
B1 N1 1_555 1_555
B2 N4 1_555 1_555
N1 C4 1_555 1_555
N2 C6 1_555 1_555
N3 C6 1_555 1_555
N4 C26 1_555 1_555
N5 C28 1_555 1_555
N6 C28 1_555 1_555
O1 C12 1_555 1_555
O2 C18 1_555 1_555
O3 C40 1_555 1_555
O4 C34 1_555 1_555
F1 B1 1_555 1_555
F2 B1 1_555 1_555
F3 B2 1_555 1_555
F4 B2 1_555 1_555
C5 N1 1_555 1_555
C7 N2 1_555 1_555
C8 N3 1_555 1_555
C13 C14 1_555 1_555
C19 C20 1_555 1_555
C21 O1 1_555 1_555
C22 O2 1_555 1_555
C27 N4 1_555 1_555
C29 N5 1_555 1_555
C30 N6 1_555 1_555
C35 C36 1_555 1_555
C41 C42 1_555 1_555
C43 O4 1_555 1_555
C44 O3 1_555 1_555
B1 N2 1_555 1_555
B2 N5 1_555 1_555

#END
