
#######################################################################
#
#                 Cambridge Crystallographic Data Centre
#                                CCDC 
#
#######################################################################
#
# If this CIF has been generated from an entry in the Cambridge 
# Structural Database, then it will include bibliographic, chemical, 
# crystal, experimental, refinement or atomic coordinate data resulting 
# from the CCDC's data processing and validation procedures.
#
#######################################################################

data_REDWAB
_chemical_formula_moiety         'C24 H29 F2 N1 O2'
_chemical_name_systematic        
'methyl [2-(3,3-difluoro-1-phenylnon-4-en-5-yl)-4-methylphenyl]carbamate'
_symmetry_cell_setting           triclinic
_symmetry_space_group_name_H-M   'P -1'
_symmetry_Int_Tables_number      2
_space_group_name_Hall           '-P 1'
loop_
_symmetry_equiv_pos_site_id
_symmetry_equiv_pos_as_xyz
1 x,y,z
2 -x,-y,-z
_cell_length_a                   10.3937(6)
_cell_length_b                   10.4003(7)
_cell_length_c                   12.3501(8)
_cell_angle_alpha                73.044(6)
_cell_angle_beta                 86.560(5)
_cell_angle_gamma                64.181(6)
_cell_volume                     1146.02
_exptl_crystal_description       block
_cell_formula_units_Z            2
loop_
_atom_site_label
_atom_site_type_symbol
_atom_site_fract_x
_atom_site_fract_y
_atom_site_fract_z
O1 O 0.64931(13) -0.20895(15) 0.90923(12)
F1 F -0.00165(15) -0.10949(18) 0.86284(12)
O2 O 0.64880(15) 0.00841(16) 0.90469(13)
F2 F 0.21607(18) -0.25832(16) 0.83986(12)
N1 N 0.46027(16) -0.00247(19) 0.83025(14)
C1 C 0.21724(18) 0.1786(2) 0.76287(13)
C2 C 0.17296(17) 0.0567(2) 0.77378(14)
C3 C 0.17887(18) -0.0353(2) 0.87543(15)
H1 H 0.2109 -0.0190 0.9367
C4 C 0.35790(18) 0.1479(2) 0.79301(14)
C5 C 0.1562(2) -0.2495(2) 1.02494(18)
H2 H 0.1197 -0.3230 1.0329
H3 H 0.0982 -0.1819 1.0674
C6 C 0.59120(17) -0.05980(19) 0.88349(14)
C7 C 0.3192(2) -0.4111(2) 1.20062(17)
C8 C 0.1250(2) 0.0485(2) 0.66411(16)
H4 H 0.0463 0.1438 0.6258
H5 H 0.0899 -0.0272 0.6810
C9 C 0.3093(2) -0.3290(2) 1.07632(19)
H6 H 0.3674 -0.3996 1.0361
H7 H 0.3472 -0.2565 1.0674
C10 C 0.1393(2) -0.1624(2) 0.90181(17)
C11 C 0.1176(2) 0.3275(2) 0.72216(16)
H8 H 0.0244 0.3486 0.7011
C12 C 0.3930(2) 0.2657(2) 0.78030(17)
H9 H 0.4867 0.2458 0.7982
C13 C 0.2448(3) 0.0114(3) 0.58549(19)
H10 H 0.2737 0.0918 0.5636
H11 H 0.3267 -0.0788 0.6267
C14 C 0.2808(3) -0.3359(3) 1.2810(2)
H12 H 0.2489 -0.2328 1.2584
C15 C 0.1510(2) 0.4458(2) 0.71150(18)
C16 C 0.2889(3) -0.4103(4) 1.3941(3)
H13 H 0.2635 -0.3571 1.4471
C17 C 0.7943(2) -0.2889(3) 0.9596(2)
H14 H 0.8250 -0.3944 0.9751
H15 H 0.7988 -0.2669 1.0292
H16 H 0.8559 -0.2588 0.9081
C18 C 0.2907(3) 0.4113(2) 0.74150(18)
H17 H 0.3161 0.4884 0.7353
C19 C 0.2050(3) -0.0114(3) 0.48029(19)
H18 H 0.1858 -0.0985 0.5019
H19 H 0.1172 0.0744 0.4433
C20 C 0.3642(3) -0.5628(3) 1.2372(2)
H20 H 0.3911 -0.6169 1.1849
C21 C 0.0395(3) 0.6061(3) 0.6677(3)
H21 H -0.0506 0.6082 0.6511
H22 H 0.0691 0.6561 0.5998
H23 H 0.0292 0.6559 0.7243
C22 C 0.3699(4) -0.6364(3) 1.3519(3)
H24 H 0.3992 -0.7391 1.3754
C23 C 0.3334(4) -0.5602(4) 1.4296(3)
H25 H 0.3388 -0.6101 1.5063
C24 C 0.3167(5) -0.0324(5) 0.3979(3)
H26 H 0.2844 -0.0467 0.3330
H27 H 0.4035 -0.1186 0.4331
H28 H 0.3346 0.0544 0.3742
H29 H 0.438(2) -0.060(2) 0.8316(17)
loop_
_geom_bond_atom_site_label_1
_geom_bond_atom_site_label_2
_geom_bond_site_symmetry_1
_geom_bond_site_symmetry_2
O1 C6 1_555 1_555
F1 C10 1_555 1_555
O2 C6 1_555 1_555
F2 C10 1_555 1_555
N1 C4 1_555 1_555
C1 C2 1_555 1_555
C2 C3 1_555 1_555
C3 H1 1_555 1_555
C4 C1 1_555 1_555
C5 H2 1_555 1_555
H3 C5 1_555 1_555
C6 N1 1_555 1_555
C7 C9 1_555 1_555
C8 C2 1_555 1_555
H4 C8 1_555 1_555
H5 C8 1_555 1_555
C9 C5 1_555 1_555
H6 C9 1_555 1_555
H7 C9 1_555 1_555
C10 C3 1_555 1_555
C11 C1 1_555 1_555
H8 C11 1_555 1_555
C12 C4 1_555 1_555
H9 C12 1_555 1_555
C13 C8 1_555 1_555
H10 C13 1_555 1_555
H11 C13 1_555 1_555
C14 C7 1_555 1_555
H12 C14 1_555 1_555
C15 C11 1_555 1_555
C16 C14 1_555 1_555
H13 C16 1_555 1_555
C17 O1 1_555 1_555
H14 C17 1_555 1_555
H15 C17 1_555 1_555
H16 C17 1_555 1_555
C18 C12 1_555 1_555
H17 C18 1_555 1_555
C19 C13 1_555 1_555
H18 C19 1_555 1_555
H19 C19 1_555 1_555
C20 C7 1_555 1_555
H20 C20 1_555 1_555
C21 C15 1_555 1_555
H21 C21 1_555 1_555
H22 C21 1_555 1_555
H23 C21 1_555 1_555
C22 C20 1_555 1_555
H24 C22 1_555 1_555
C23 C16 1_555 1_555
H25 C23 1_555 1_555
C24 C19 1_555 1_555
H26 C24 1_555 1_555
H27 C24 1_555 1_555
H28 C24 1_555 1_555
H29 N1 1_555 1_555
C5 C10 1_555 1_555
C15 C18 1_555 1_555
C22 C23 1_555 1_555

#END
