
#######################################################################
#
#                 Cambridge Crystallographic Data Centre
#                                CCDC 
#
#######################################################################
#
# If this CIF has been generated from an entry in the Cambridge 
# Structural Database, then it will include bibliographic, chemical, 
# crystal, experimental, refinement or atomic coordinate data resulting 
# from the CCDC's data processing and validation procedures.
#
#######################################################################

data_REFCAJ
_chemical_formula_moiety         'C36 H32 Br1 N1 O10'
_chemical_name_systematic        
"dimethyl 2-(2'-benzyl-4'-(4-bromophenyl)-5'-(methoxycarbonyl)-5'-(2-methoxy-2-oxoethyl)-1,3-dioxo-1,3-dihydro-1'H-spiro[indene-2,3'-pyrrolidin]-1'-yl)but-2-enedioate"
_symmetry_cell_setting           monoclinic
_symmetry_space_group_name_H-M   'P 21/c'
_symmetry_Int_Tables_number      14
_space_group_name_Hall           '-P 2ybc'
loop_
_symmetry_equiv_pos_site_id
_symmetry_equiv_pos_as_xyz
1 x,y,z
2 -x,1/2+y,1/2-z
3 -x,-y,-z
4 x,1/2-y,1/2+z
_cell_length_a                   12.6056(18)
_cell_length_b                   14.4361(19)
_cell_length_c                   18.910(3)
_cell_angle_alpha                90
_cell_angle_beta                 102.705(4)
_cell_angle_gamma                90
_cell_volume                     3356.9
_exptl_crystal_colour            colorless
_exptl_crystal_description       block
_cell_formula_units_Z            4
loop_
_atom_site_label
_atom_site_type_symbol
_atom_site_fract_x
_atom_site_fract_y
_atom_site_fract_z
Br1 Br 0.4741(2) -0.13255(12) 0.04820(10)
C1 C -0.0343(4) -0.0429(3) 0.1592(2)
C2 C -0.1085(5) -0.1005(4) 0.1161(3)
H1 H -0.1255 -0.1581 0.1326
C3 C -0.1570(5) -0.0697(5) 0.0474(3)
H2 H -0.2085 -0.1066 0.0174
C4 C -0.1298(6) 0.0148(5) 0.0228(3)
H3 H -0.1635 0.0337 -0.0237
C5 C -0.0544(5) 0.0720(4) 0.0649(3)
H4 H -0.0362 0.1289 0.0477
C6 C -0.0062(4) 0.0412(3) 0.1344(2)
C7 C 0.0732(4) 0.0897(3) 0.1903(2)
C8 C 0.1022(3) 0.0281(3) 0.2580(2)
C9 C 0.0278(3) -0.0569(3) 0.2349(2)
C10 C 0.2212(3) -0.0056(3) 0.2775(2)
H5 H 0.2175 -0.0639 0.3035
C11 C 0.2783(3) -0.0324(3) 0.2174(2)
C12 C 0.3078(4) -0.1242(3) 0.2137(3)
H6 H 0.2884 -0.1670 0.2454
C13 C 0.3658(5) -0.1536(4) 0.1634(3)
H7 H 0.3859 -0.2155 0.1619
C14 C 0.3932(4) -0.0917(4) 0.1164(2)
C15 C 0.3640(4) -0.0001(3) 0.1181(2)
H8 H 0.3836 0.0420 0.0860
C16 C 0.3055(4) 0.0293(3) 0.1677(2)
H9 H 0.2840 0.0909 0.1678
C17 C -0.1502(4) 0.1650(3) 0.2184(3)
H10 H -0.1128 0.2093 0.1976
C18 C -0.2506(5) 0.1370(4) 0.1816(4)
H11 H -0.2800 0.1611 0.1358
C19 C -0.3089(5) 0.0728(4) 0.2123(4)
H12 H -0.3771 0.0532 0.1871
C20 C -0.2647(5) 0.0378(4) 0.2809(4)
H13 H -0.3037 -0.0045 0.3023
C21 C -0.1642(4) 0.0658(3) 0.3166(3)
H14 H -0.1355 0.0424 0.3627
C22 C -0.1023(4) 0.1291(3) 0.2860(2)
C23 C 0.0103(4) 0.1541(3) 0.3233(2)
H15 H 0.0102 0.1788 0.3710
H16 H 0.0377 0.2018 0.2959
C24 C 0.0860(3) 0.0682(3) 0.3310(2)
H17 H 0.0532 0.0195 0.3554
C25 C 0.2171(4) 0.1242(3) 0.4427(2)
C26 C 0.1394(4) 0.0996(3) 0.4894(2)
C27 C 0.0277(5) 0.1575(4) 0.5643(3)
H18 H -0.0342 0.1197 0.5440
H19 H 0.0034 0.2159 0.5793
H20 H 0.0717 0.1267 0.6054
C28 C 0.3078(4) 0.1713(3) 0.4721(2)
H21 H 0.3496 0.1954 0.4416
C29 C 0.3435(4) 0.1864(3) 0.5498(2)
C30 C 0.4831(4) 0.2519(5) 0.6401(3)
H22 H 0.4423 0.2951 0.6621
H23 H 0.5555 0.2751 0.6438
H24 H 0.4863 0.1933 0.6645
C31 C 0.2829(3) 0.0617(3) 0.3378(2)
C32 C 0.3322(4) 0.1479(3) 0.3094(2)
C33 C 0.2986(5) 0.3041(4) 0.2735(3)
H25 H 0.3713 0.3211 0.2974
H26 H 0.2495 0.3532 0.2786
H27 H 0.2958 0.2935 0.2230
C34 C 0.3775(4) 0.0081(3) 0.3864(2)
H28 H 0.4230 -0.0176 0.3561
H29 H 0.4215 0.0515 0.4196
C35 C 0.3433(4) -0.0690(4) 0.4297(3)
C36 C 0.3414(6) -0.1216(4) 0.5471(3)
H30 H 0.2642 -0.1182 0.5429
H31 H 0.3780 -0.1102 0.5964
H32 H 0.3603 -0.1821 0.5328
N1 N 0.1961(3) 0.0855(2) 0.37458(16)
O1 O 0.1119(3) 0.1647(2) 0.18277(17)
O2 O 0.0210(3) -0.1224(2) 0.27315(18)
O3 O 0.1236(3) 0.0217(2) 0.50515(16)
O4 O 0.0916(3) 0.1733(2) 0.50977(17)
O5 O 0.3032(3) 0.1541(3) 0.59700(18)
O6 O 0.4308(3) 0.2402(3) 0.56475(17)
O7 O 0.4181(3) 0.1483(2) 0.29367(19)
O8 O 0.2676(3) 0.2203(2) 0.30584(15)
O9 O 0.2941(4) -0.1363(3) 0.4054(2)
O10 O 0.3741(3) -0.0524(3) 0.50038(17)
Br2? Br 0.432(2) -0.1089(15) 0.0287(11)
loop_
_geom_bond_atom_site_label_1
_geom_bond_atom_site_label_2
_geom_bond_site_symmetry_1
_geom_bond_site_symmetry_2
Br1 C14 1_555 1_555
C1 C2 1_555 1_555
C2 H1 1_555 1_555
C3 C2 1_555 1_555
H2 C3 1_555 1_555
C4 C3 1_555 1_555
H3 C4 1_555 1_555
C5 C4 1_555 1_555
H4 C5 1_555 1_555
C6 C1 1_555 1_555
C7 C6 1_555 1_555
C8 C7 1_555 1_555
C9 C1 1_555 1_555
C10 C8 1_555 1_555
H5 C10 1_555 1_555
C11 C10 1_555 1_555
C12 C11 1_555 1_555
H6 C12 1_555 1_555
C13 C12 1_555 1_555
H7 C13 1_555 1_555
C14 C13 1_555 1_555
C15 C14 1_555 1_555
H8 C15 1_555 1_555
C16 C11 1_555 1_555
H9 C16 1_555 1_555
C17 H10 1_555 1_555
C18 C17 1_555 1_555
H11 C18 1_555 1_555
C19 C18 1_555 1_555
H12 C19 1_555 1_555
C20 C19 1_555 1_555
H13 C20 1_555 1_555
C21 C20 1_555 1_555
H14 C21 1_555 1_555
C22 C17 1_555 1_555
C23 C22 1_555 1_555
H15 C23 1_555 1_555
H16 C23 1_555 1_555
C24 C8 1_555 1_555
H17 C24 1_555 1_555
C25 C26 1_555 1_555
C26 O3 1_555 1_555
C27 H18 1_555 1_555
H19 C27 1_555 1_555
H20 C27 1_555 1_555
C28 C25 1_555 1_555
H21 C28 1_555 1_555
C29 C28 1_555 1_555
C30 H22 1_555 1_555
H23 C30 1_555 1_555
H24 C30 1_555 1_555
C31 C10 1_555 1_555
C32 C31 1_555 1_555
C33 H25 1_555 1_555
H26 C33 1_555 1_555
H27 C33 1_555 1_555
C34 C31 1_555 1_555
H28 C34 1_555 1_555
H29 C34 1_555 1_555
C35 C34 1_555 1_555
C36 H30 1_555 1_555
H31 C36 1_555 1_555
H32 C36 1_555 1_555
N1 C24 1_555 1_555
O1 C7 1_555 1_555
O2 C9 1_555 1_555
O4 C26 1_555 1_555
O5 C29 1_555 1_555
O6 C29 1_555 1_555
O7 C32 1_555 1_555
O8 C32 1_555 1_555
O9 C35 1_555 1_555
O10 C35 1_555 1_555
C5 C6 1_555 1_555
C8 C9 1_555 1_555
C15 C16 1_555 1_555
C21 C22 1_555 1_555
C23 C24 1_555 1_555
C25 N1 1_555 1_555
C27 O4 1_555 1_555
C30 O6 1_555 1_555
C31 N1 1_555 1_555
C33 O8 1_555 1_555
C36 O10 1_555 1_555

#END
