
#######################################################################
#
#                 Cambridge Crystallographic Data Centre
#                                CCDC 
#
#######################################################################
#
# If this CIF has been generated from an entry in the Cambridge 
# Structural Database, then it will include bibliographic, chemical, 
# crystal, experimental, refinement or atomic coordinate data resulting 
# from the CCDC's data processing and validation procedures.
#
#######################################################################

data_REFDUC
_chemical_formula_moiety         'C17 H26 N2 O3'
_chemical_name_systematic        N'-Acetyl-2-(octyloxy)benzohydrazide
_symmetry_cell_setting           monoclinic
_symmetry_space_group_name_H-M   'P 21/c'
_symmetry_Int_Tables_number      14
_space_group_name_Hall           '-P 2ybc'
loop_
_symmetry_equiv_pos_site_id
_symmetry_equiv_pos_as_xyz
1 x,y,z
2 -x,1/2+y,1/2-z
3 -x,-y,-z
4 x,1/2-y,1/2+z
_cell_length_a                   8.329(2)
_cell_length_b                   23.399(6)
_cell_length_c                   9.458(3)
_cell_angle_alpha                90
_cell_angle_beta                 108.075(9)
_cell_angle_gamma                90
_cell_volume                     1752.31
_exptl_crystal_colour            colorless
_exptl_crystal_description       block
_chemical_melting_point          102-3deg.C
_cell_formula_units_Z            4
loop_
_atom_site_label
_atom_site_type_symbol
_atom_site_fract_x
_atom_site_fract_y
_atom_site_fract_z
O1 O 0.03571(18) 0.28049(5) -0.03657(15)
O2 O -0.0800(2) 0.45035(6) -0.13186(17)
O3 O 0.2869(2) 0.36282(6) 0.28851(18)
N1 N 0.0718(2) 0.38815(7) 0.03249(18)
H1 H 0.0977 0.3530 0.0548
N2 N 0.1502(2) 0.43026(7) 0.13142(18)
H2 H 0.1319 0.4659 0.1102
C1 C 0.3324(4) 0.45982(10) 0.3695(3)
H3 H 0.2674 0.4650 0.4364
H4 H 0.3327 0.4947 0.3161
H5 H 0.4462 0.4497 0.4250
C2 C 0.2559(3) 0.41323(9) 0.2619(2)
C3 C -0.0427(3) 0.40053(8) -0.0964(2)
C4 C -0.1251(2) 0.35190(8) -0.1941(2)
C5 C -0.2492(3) 0.36621(9) -0.3251(2)
H6 H -0.2726 0.4046 -0.3473
C6 C -0.3388(3) 0.32572(9) -0.4231(2)
H7 H -0.4213 0.3364 -0.5106
C7 C -0.3039(3) 0.26939(10) -0.3892(2)
H8 H -0.3648 0.2415 -0.4538
C8 C -0.1807(3) 0.25324(9) -0.2615(2)
H9 H -0.1585 0.2146 -0.2410
C9 C -0.0898(2) 0.29387(8) -0.1634(2)
C10 C 0.0812(3) 0.22136(8) -0.0021(2)
H10 H 0.1154 0.2040 -0.0813
H11 H -0.0143 0.2002 0.0092
C11 C 0.2245(3) 0.22069(8) 0.1403(2)
H12 H 0.1915 0.2417 0.2153
H13 H 0.3206 0.2401 0.1250
C12 C 0.2770(3) 0.16111(8) 0.1973(2)
H14 H 0.3193 0.1409 0.1265
H15 H 0.1794 0.1405 0.2058
C13 C 0.4129(3) 0.16230(8) 0.3477(2)
H16 H 0.5096 0.1829 0.3374
H17 H 0.3701 0.1837 0.4164
C14 C 0.4723(3) 0.10453(9) 0.4158(2)
H18 H 0.5190 0.0833 0.3496
H19 H 0.3762 0.0833 0.4254
C15 C 0.6049(3) 0.10906(10) 0.5677(3)
H20 H 0.6997 0.1309 0.5576
H21 H 0.5572 0.1302 0.6334
C16 C 0.6695(4) 0.05266(11) 0.6394(3)
H22 H 0.7206 0.0318 0.5756
H23 H 0.5750 0.0303 0.6481
C17 C 0.7981(4) 0.05913(15) 0.7920(3)
H24 H 0.8887 0.0832 0.7852
H25 H 0.8420 0.0222 0.8288
H26 H 0.7450 0.0760 0.8586
loop_
_geom_bond_atom_site_label_1
_geom_bond_atom_site_label_2
_geom_bond_site_symmetry_1
_geom_bond_site_symmetry_2
O1 C9 1_555 1_555
O2 C3 1_555 1_555
O3 C2 1_555 1_555
N1 H1 1_555 1_555
N2 N1 1_555 1_555
H2 N2 1_555 1_555
C1 H3 1_555 1_555
H4 C1 1_555 1_555
H5 C1 1_555 1_555
C2 N2 1_555 1_555
C3 N1 1_555 1_555
C4 C3 1_555 1_555
C5 C4 1_555 1_555
H6 C5 1_555 1_555
C6 C5 1_555 1_555
H7 C6 1_555 1_555
C7 C6 1_555 1_555
H8 C7 1_555 1_555
C8 C7 1_555 1_555
H9 C8 1_555 1_555
C9 C4 1_555 1_555
C10 O1 1_555 1_555
H10 C10 1_555 1_555
H11 C10 1_555 1_555
C11 C10 1_555 1_555
H12 C11 1_555 1_555
H13 C11 1_555 1_555
C12 C11 1_555 1_555
H14 C12 1_555 1_555
H15 C12 1_555 1_555
C13 C12 1_555 1_555
H16 C13 1_555 1_555
H17 C13 1_555 1_555
C14 C13 1_555 1_555
H18 C14 1_555 1_555
H19 C14 1_555 1_555
C15 C14 1_555 1_555
H20 C15 1_555 1_555
H21 C15 1_555 1_555
C16 C15 1_555 1_555
H22 C16 1_555 1_555
H23 C16 1_555 1_555
C17 C16 1_555 1_555
H24 C17 1_555 1_555
H25 C17 1_555 1_555
H26 C17 1_555 1_555
C1 C2 1_555 1_555
C8 C9 1_555 1_555

#END
