
#######################################################################
#
#                 Cambridge Crystallographic Data Centre
#                                CCDC 
#
#######################################################################
#
# If this CIF has been generated from an entry in the Cambridge 
# Structural Database, then it will include bibliographic, chemical, 
# crystal, experimental, refinement or atomic coordinate data resulting 
# from the CCDC's data processing and validation procedures.
#
#######################################################################

data_REFDOY
_chemical_formula_moiety         'C22 H20 N4 O4 S1'
_chemical_name_systematic        
4-(3-azidophenyl)-3-(2-thienyl)-1-(3,4,5-trimethoxyphenyl)azetidin-2-one
_symmetry_cell_setting           triclinic
_symmetry_space_group_name_H-M   'P -1'
_symmetry_Int_Tables_number      2
_space_group_name_Hall           '-P 1'
loop_
_symmetry_equiv_pos_site_id
_symmetry_equiv_pos_as_xyz
1 x,y,z
2 -x,-y,-z
_cell_length_a                   8.108(3)
_cell_length_b                   9.366(4)
_cell_length_c                   14.677(6)
_cell_angle_alpha                74.94(2)
_cell_angle_beta                 89.47(2)
_cell_angle_gamma                81.16(2)
_cell_volume                     1062.95
_cell_formula_units_Z            2
loop_
_atom_site_label
_atom_site_type_symbol
_atom_site_fract_x
_atom_site_fract_y
_atom_site_fract_z
S1 S 0.6047(3) 0.3322(3) 0.24843(16)
O1 O 0.4534(4) 0.6891(4) 0.1847(3)
O2 O -0.2313(4) 0.6822(4) -0.0721(2)
O3 O -0.0621(4) 0.8672(4) -0.1920(2)
O4 O 0.1964(4) 0.9704(4) -0.1324(2)
N1 N -0.2332(8) 0.3283(8) 0.5132(4)
N2 N -0.1473(10) 0.2078(8) 0.5333(5)
N3 N -0.0822(14) 0.0924(10) 0.5607(6)
N4 N 0.1848(4) 0.6248(4) 0.1756(2)
C1 C 0.4382(6) 0.3536(5) 0.3150(3)
C2 C 0.4132(5) 0.2019(4) 0.3942(3)
H1 H 0.3278 0.1801 0.4358
C3 C 0.5817(11) 0.1035(8) 0.3775(5)
H2 H 0.6138 0.0066 0.4151
C4 C 0.6740(9) 0.1629(9) 0.3091(5)
H3 H 0.7746 0.1108 0.2959
C5 C 0.3168(5) 0.4939(5) 0.2993(3)
H4 H 0.3044 0.5296 0.3565
C6 C 0.1402(5) 0.4990(5) 0.2510(3)
H5 H 0.1366 0.4100 0.2281
C7 C 0.3417(6) 0.6193(5) 0.2133(3)
C8 C -0.0081(6) 0.5313(5) 0.3071(3)
C9 C -0.0520(6) 0.4167(6) 0.3797(3)
H6 H 0.0085 0.3207 0.3906
C10 C -0.1828(6) 0.4434(6) 0.4351(3)
C11 C -0.2798(7) 0.5852(8) 0.4180(4)
H7 H -0.3728 0.6028 0.4534
C12 C -0.2339(8) 0.6942(8) 0.3490(4)
H8 H -0.2958 0.7896 0.3380
C13 C -0.1000(7) 0.6729(6) 0.2932(4)
H9 H -0.0715 0.7528 0.2467
C14 C 0.1125(5) 0.6965(5) 0.0853(3)
C15 C -0.0314(5) 0.6526(4) 0.0574(3)
H10 H -0.0855 0.5834 0.0992
C16 C -0.0910(5) 0.7149(5) -0.0341(3)
C17 C -0.0104(5) 0.8171(5) -0.0984(3)
C18 C 0.1290(5) 0.8646(5) -0.0669(3)
C19 C 0.1936(5) 0.8015(5) 0.0254(3)
H11 H 0.2888 0.8297 0.0460
C20 C -0.3366(6) 0.5966(6) -0.0071(4)
H12 H -0.2746 0.5003 0.0235
H13 H -0.4317 0.5838 -0.0409
H14 H -0.3736 0.6488 0.0396
C21 C -0.2048(8) 0.9809(7) -0.2120(4)
H15 H -0.3015 0.9376 -0.2207
H16 H -0.1881 1.0557 -0.2684
H17 H -0.2212 1.0261 -0.1602
C22 C 0.3393(6) 1.0192(6) -0.1035(4)
H18 H 0.3135 1.0588 -0.0500
H19 H 0.3726 1.0956 -0.1544
H20 H 0.4287 0.9362 -0.0865
loop_
_geom_bond_atom_site_label_1
_geom_bond_atom_site_label_2
_geom_bond_site_symmetry_1
_geom_bond_site_symmetry_2
S1 C1 1_555 1_555
O1 C7 1_555 1_555
O2 C16 1_555 1_555
O3 C17 1_555 1_555
O4 C18 1_555 1_555
N1 N2 1_555 1_555
N2 N3 1_555 1_555
N4 C6 1_555 1_555
C1 C2 1_555 1_555
C2 H1 1_555 1_555
C3 C2 1_555 1_555
H2 C3 1_555 1_555
C4 S1 1_555 1_555
H3 C4 1_555 1_555
C5 C1 1_555 1_555
H4 C5 1_555 1_555
C6 C5 1_555 1_555
H5 C6 1_555 1_555
C7 N4 1_555 1_555
C8 C6 1_555 1_555
C9 C8 1_555 1_555
H6 C9 1_555 1_555
C10 N1 1_555 1_555
C11 C10 1_555 1_555
H7 C11 1_555 1_555
C12 C11 1_555 1_555
H8 C12 1_555 1_555
C13 C8 1_555 1_555
H9 C13 1_555 1_555
C14 N4 1_555 1_555
C15 C14 1_555 1_555
H10 C15 1_555 1_555
C16 C15 1_555 1_555
C17 C16 1_555 1_555
C18 C17 1_555 1_555
C19 C14 1_555 1_555
H11 C19 1_555 1_555
C20 O2 1_555 1_555
H12 C20 1_555 1_555
H13 C20 1_555 1_555
H14 C20 1_555 1_555
C21 O3 1_555 1_555
H15 C21 1_555 1_555
H16 C21 1_555 1_555
H17 C21 1_555 1_555
C22 O4 1_555 1_555
H18 C22 1_555 1_555
H19 C22 1_555 1_555
H20 C22 1_555 1_555
C3 C4 1_555 1_555
C5 C7 1_555 1_555
C9 C10 1_555 1_555
C12 C13 1_555 1_555
C18 C19 1_555 1_555

#END
