
#######################################################################
#
#                 Cambridge Crystallographic Data Centre
#                                CCDC 
#
#######################################################################
#
# If this CIF has been generated from an entry in the Cambridge 
# Structural Database, then it will include bibliographic, chemical, 
# crystal, experimental, refinement or atomic coordinate data resulting 
# from the CCDC's data processing and validation procedures.
#
#######################################################################

data_REFKAR
_chemical_name_common            
1-{4-[4-(3-aminophenyl)-1H-1,2,3-triazol-1-yl]butyl}-10-{[4-(dimethylamino)-3-hydroxy-6-methyloxan-2-yl]oxy}-4-ethyl-7-fluoro-11-methoxy-3a,7,9,11,13,15-hexamethyloctahydro-2H-oxacyclotetradecino[4,3-d][1,3]oxazole-2,6,8,14(1H,7H,9H)-tetrone
_chemical_formula_moiety         'C43 H65 F1 N6 O10'
_chemical_name_systematic        solithromycin
_chemical_properties_biological  'antibiotic activity'
_symmetry_cell_setting           orthorhombic
_symmetry_space_group_name_H-M   'P 21 21 21'
_symmetry_Int_Tables_number      19
_space_group_name_Hall           'P 2ac 2ab'
loop_
_symmetry_equiv_pos_site_id
_symmetry_equiv_pos_as_xyz
1 x,y,z
2 1/2-x,-y,1/2+z
3 -x,1/2+y,1/2-z
4 1/2+x,1/2-y,-z
_cell_length_a                   8.60670(10)
_cell_length_b                   19.0255(2)
_cell_length_c                   28.0976(2)
_cell_angle_alpha                90
_cell_angle_beta                 90
_cell_angle_gamma                90
_cell_volume                     4600.89
_exptl_crystal_colour            colorless
_exptl_crystal_description       block
_cell_formula_units_Z            4
loop_
_atom_site_label
_atom_site_type_symbol
_atom_site_fract_x
_atom_site_fract_y
_atom_site_fract_z
F1 F 0.53525(13) 1.17493(6) 0.10564(4)
O1 O 0.46398(14) 0.94154(6) 0.02107(4)
O2 O 0.28046(15) 0.85712(6) 0.01124(4)
O3 O 0.61647(14) 1.13959(7) 0.18706(4)
O4 O 0.21681(14) 1.06336(7) 0.11546(4)
O5 O 0.87940(16) 1.08492(7) 0.28210(4)
O6 O 0.45796(19) 0.97316(7) -0.07555(5)
H1 H 0.4899 0.9680 -0.1036
O7 O 0.72222(18) 0.85310(7) 0.19899(5)
C1 C 0.3463(2) 1.08335(9) 0.10557(6)
O8 O 0.49084(13) 0.96932(6) 0.14963(4)
O9 O 0.83085(19) 1.02314(8) 0.34899(5)
N1 N 0.72775(19) 0.99104(8) 0.27686(5)
N2 N 0.2410(2) 0.83761(9) 0.40415(6)
C2 C 0.3417(2) 0.92043(10) -0.00814(6)
H2 H 0.2595 0.9575 -0.0089
O10 O 0.37510(16) 1.10953(8) 0.21164(5)
C3 C 0.9681(2) 0.90149(11) 0.10449(7)
H3 H 1.0003 0.9503 0.1098
H4 H 0.9737 0.8907 0.0704
H5 H 1.0373 0.8698 0.1221
C4 C 0.1798(2) 0.74204(11) 0.44079(7)
C5 C 0.2820(3) 0.79701(11) 0.44101(7)
H6 H 0.3647 0.8048 0.4628
C6 C 0.4052(2) 0.90800(10) -0.05780(6)
H7 H 0.4943 0.8744 -0.0561
C7 C 0.6915(2) 0.94269(10) 0.09569(6)
H8 H 0.7205 0.9913 0.1047
H9 H 0.7101 0.9377 0.0611
C8 C 0.8694(2) 0.95964(10) 0.20058(6)
H10 H 0.9220 0.9879 0.1753
C9 C 0.7879(2) 0.89786(9) 0.17591(7)
C10 C 0.5174(2) 0.93317(9) 0.10495(6)
C11 C 0.2054(2) 0.81287(10) -0.06603(7)
H11 H 0.1150 0.7972 -0.0851
H12 H 0.2819 0.7740 -0.0652
C12 C 0.4638(2) 1.12954(9) 0.18146(7)
C13 C 0.7558(2) 1.00937(9) 0.22684(6)
H13 H 0.6545 1.0107 0.2094
N3 N 0.3415(2) 0.86719(9) -0.13779(6)
C14 C 0.8125(2) 1.03101(10) 0.30639(7)
C15 C 0.0977(3) 0.76484(12) 0.01094(8)
H14 H 0.1804 0.7294 0.0110
H15 H 0.0055 0.7457 -0.0049
H16 H 0.0717 0.7776 0.0438
C16 C 0.2786(3) 0.87726(10) -0.08946(7)
H17 H 0.1952 0.9136 -0.0920
C17 C 0.6791(2) 1.13696(10) 0.23527(6)
H18 H 0.5980 1.1185 0.2575
C18 C 0.8005(2) 0.89153(10) 0.12203(6)
H19 H 0.7680 0.8428 0.1133
C19 C 0.1662(2) 0.67984(11) 0.47171(7)
C20 C 0.4710(2) 0.85587(10) 0.10662(7)
H20 H 0.5161 0.8339 0.1350
H21 H 0.5096 0.8320 0.0781
H22 H 0.3575 0.8521 0.1079
C21 C 0.3594(2) 0.94752(10) 0.17697(6)
H23 H 0.2659 0.9493 0.1571
H24 H 0.3466 0.9790 0.2043
H25 H 0.3756 0.8993 0.1883
C22 C 0.1529(2) 0.82965(11) -0.01558(7)
H26 H 0.0673 0.8652 -0.0166
C23 C 0.4092(2) 1.14904(9) 0.13134(7)
C24 C 0.4432(2) 1.05135(9) 0.06635(6)
H27 H 0.5552 1.0622 0.0722
C25 C 0.1451(3) 0.56031(13) 0.52846(9)
H28 H 0.1387 0.5189 0.5473
C26 C 0.4201(2) 0.97121(9) 0.06623(6)
H29 H 0.3077 0.9609 0.0719
C27 C 0.5067(2) 0.94959(11) 0.32632(7)
H30 H 0.4277 0.9749 0.3073
H31 H 0.5429 0.9815 0.3518
C28 C 0.3120(3) 0.90146(12) 0.38551(8)
H32 H 0.3606 0.9280 0.4119
H33 H 0.2308 0.9316 0.3711
C29 C 0.2435(2) 0.67665(11) 0.51530(7)
H34 H 0.3044 0.7155 0.5254
C30 C 0.8171(2) 1.08570(10) 0.23368(6)
C31 C 0.2329(3) 0.61704(12) 0.54437(8)
C32 C 0.9459(2) 1.11079(11) 0.20102(7)
H35 H 0.9790 1.1580 0.2107
H36 H 0.9077 1.1122 0.1682
H37 H 1.0342 1.0784 0.2031
C33 C 0.6427(2) 0.92991(11) 0.29467(7)
H38 H 0.7149 0.8996 0.3129
H39 H 0.6037 0.9023 0.2673
N4 N 0.1198(2) 0.80929(12) 0.38075(8)
C34 C 0.2863(3) 1.20583(11) 0.13450(8)
H40 H 0.3275 1.2460 0.1524
H41 H 0.1945 1.1872 0.1508
H42 H 0.2575 1.2210 0.1024
N5 N 0.0822(2) 0.75107(11) 0.40315(8)
C35 C 0.0674(3) 0.56353(13) 0.48577(9)
H43 H 0.0065 0.5246 0.4758
C36 C 0.9969(2) 0.93032(12) 0.23322(8)
H44 H 0.9495 0.9015 0.2582
H45 H 1.0541 0.9693 0.2478
H46 H 1.0686 0.9014 0.2145
C37 C 0.3907(2) 1.08719(10) 0.01970(6)
H47 H 0.2788 1.0803 0.0154
H48 H 0.4467 1.0664 -0.0072
H49 H 0.4135 1.1376 0.0213
C38 C 0.0765(3) 0.62261(12) 0.45701(9)
H50 H 0.0223 0.6241 0.4276
C39 C 0.5762(3) 1.25686(12) 0.25723(9)
H51 H 0.5090 1.2549 0.2291
H52 H 0.6073 1.3057 0.2631
H53 H 0.5195 1.2389 0.2849
N6 N 0.3044(3) 0.61523(11) 0.58841(7)
H54 H 0.2946 0.5779 0.6067
H55 H 0.3597 0.6514 0.5982
C40 C 0.4509(3) 0.81009(12) -0.14248(8)
H56 H 0.5335 0.8154 -0.1188
H57 H 0.4962 0.8108 -0.1745
H58 H 0.3971 0.7653 -0.1374
C41 C 0.4336(3) 0.88442(11) 0.34849(8)
H59 H 0.3853 0.8559 0.3230
H60 H 0.5163 0.8557 0.3634
C42 C 0.2203(4) 0.86080(18) -0.17318(9)
H61 H 0.2662 0.8634 -0.2050
H62 H 0.1453 0.8991 -0.1692
H63 H 0.1672 0.8156 -0.1693
C43 C 0.7195(3) 1.21235(11) 0.24885(8)
H64 H 0.7835 1.2120 0.2781
H65 H 0.7822 1.2337 0.2231
loop_
_geom_bond_atom_site_label_1
_geom_bond_atom_site_label_2
_geom_bond_site_symmetry_1
_geom_bond_site_symmetry_2
F1 C23 1_555 1_555
O1 C2 1_555 1_555
O2 C2 1_555 1_555
O3 C12 1_555 1_555
O4 C1 1_555 1_555
O5 C14 1_555 1_555
O6 H1 1_555 1_555
O7 C9 1_555 1_555
C1 C23 1_555 1_555
O8 C10 1_555 1_555
O9 C14 1_555 1_555
N1 C13 1_555 1_555
N2 C5 1_555 1_555
C2 H2 1_555 1_555
O10 C12 1_555 1_555
C3 H3 1_555 1_555
H4 C3 1_555 1_555
H5 C3 1_555 1_555
C4 C5 1_555 1_555
C5 H6 1_555 1_555
C6 O6 1_555 1_555
H7 C6 1_555 1_555
C7 H8 1_555 1_555
H9 C7 1_555 1_555
C8 H10 1_555 1_555
C9 C8 1_555 1_555
C10 C7 1_555 1_555
C11 H11 1_555 1_555
H12 C11 1_555 1_555
C12 C23 1_555 1_555
C13 C8 1_555 1_555
H13 C13 1_555 1_555
N3 C16 1_555 1_555
C14 N1 1_555 1_555
C15 H14 1_555 1_555
H15 C15 1_555 1_555
H16 C15 1_555 1_555
C16 C6 1_555 1_555
H17 C16 1_555 1_555
C17 O3 1_555 1_555
H18 C17 1_555 1_555
C18 C3 1_555 1_555
H19 C18 1_555 1_555
C19 C4 1_555 1_555
C20 C10 1_555 1_555
H20 C20 1_555 1_555
H21 C20 1_555 1_555
H22 C20 1_555 1_555
C21 O8 1_555 1_555
H23 C21 1_555 1_555
H24 C21 1_555 1_555
H25 C21 1_555 1_555
C22 O2 1_555 1_555
H26 C22 1_555 1_555
C23 C34 1_555 1_555
C24 C1 1_555 1_555
H27 C24 1_555 1_555
C25 H28 1_555 1_555
C26 O1 1_555 1_555
H29 C26 1_555 1_555
C27 H30 1_555 1_555
H31 C27 1_555 1_555
C28 N2 1_555 1_555
H32 C28 1_555 1_555
H33 C28 1_555 1_555
C29 C19 1_555 1_555
H34 C29 1_555 1_555
C30 O5 1_555 1_555
C31 C25 1_555 1_555
C32 C30 1_555 1_555
H35 C32 1_555 1_555
H36 C32 1_555 1_555
H37 C32 1_555 1_555
C33 N1 1_555 1_555
H38 C33 1_555 1_555
H39 C33 1_555 1_555
N4 N2 1_555 1_555
C34 H40 1_555 1_555
H41 C34 1_555 1_555
H42 C34 1_555 1_555
N5 C4 1_555 1_555
C35 C25 1_555 1_555
H43 C35 1_555 1_555
C36 C8 1_555 1_555
H44 C36 1_555 1_555
H45 C36 1_555 1_555
H46 C36 1_555 1_555
C37 C24 1_555 1_555
H47 C37 1_555 1_555
H48 C37 1_555 1_555
H49 C37 1_555 1_555
C38 C19 1_555 1_555
H50 C38 1_555 1_555
C39 H51 1_555 1_555
H52 C39 1_555 1_555
H53 C39 1_555 1_555
N6 C31 1_555 1_555
H54 N6 1_555 1_555
H55 N6 1_555 1_555
C40 N3 1_555 1_555
H56 C40 1_555 1_555
H57 C40 1_555 1_555
H58 C40 1_555 1_555
C41 C27 1_555 1_555
H59 C41 1_555 1_555
H60 C41 1_555 1_555
C42 N3 1_555 1_555
H61 C42 1_555 1_555
H62 C42 1_555 1_555
H63 C42 1_555 1_555
C43 C17 1_555 1_555
H64 C43 1_555 1_555
H65 C43 1_555 1_555
C2 C6 1_555 1_555
C7 C18 1_555 1_555
C9 C18 1_555 1_555
C10 C26 1_555 1_555
C11 C16 1_555 1_555
C11 C22 1_555 1_555
C13 C30 1_555 1_555
C15 C22 1_555 1_555
C17 C30 1_555 1_555
C24 C26 1_555 1_555
C27 C33 1_555 1_555
C28 C41 1_555 1_555
C29 C31 1_555 1_555
N4 N5 1_555 1_555
C35 C38 1_555 1_555
C39 C43 1_555 1_555

#END
