
#######################################################################
#
#                 Cambridge Crystallographic Data Centre
#                                CCDC 
#
#######################################################################
#
# If this CIF has been generated from an entry in the Cambridge 
# Structural Database, then it will include bibliographic, chemical, 
# crystal, experimental, refinement or atomic coordinate data resulting 
# from the CCDC's data processing and validation procedures.
#
#######################################################################

data_REFLIA
_chemical_formula_moiety         'C32 H34 F3 N3 O3'
_chemical_name_systematic        
'2,6-di-t-butyl-4-[2-{1-[(2,4-difluorophenyl)methyl]-4,5-dihydro-1H-imidazol-3-ium-2-yl}-1-(4-fluorophenyl)-2-nitroethenyl]phenolate unknown solvate'
_symmetry_cell_setting           monoclinic
_symmetry_space_group_name_H-M   'P 21/c'
_symmetry_Int_Tables_number      14
_space_group_name_Hall           '-P 2ybc'
loop_
_symmetry_equiv_pos_site_id
_symmetry_equiv_pos_as_xyz
1 x,y,z
2 -x,1/2+y,1/2-z
3 -x,-y,-z
4 x,1/2-y,1/2+z
_cell_length_a                   13.960(3)
_cell_length_b                   19.710(4)
_cell_length_c                   15.380(3)
_cell_angle_alpha                90
_cell_angle_beta                 116.320(3)
_cell_angle_gamma                90
_cell_volume                     3793.12
_exptl_crystal_colour            colorless
_exptl_crystal_description       block
_cell_formula_units_Z            4
loop_
_atom_site_label
_atom_site_type_symbol
_atom_site_fract_x
_atom_site_fract_y
_atom_site_fract_z
F1 F 0.2467(3) 1.3023(2) 0.3233(3)
F2 F -0.1578(4) 0.8685(3) 0.4690(4)
F3 F 0.1825(4) 0.9635(3) 0.6445(3)
N1 N 0.4418(4) 1.0043(3) 0.3543(4)
N2 N 0.2881(4) 0.9123(3) 0.4597(4)
N3 N 0.4319(5) 0.8789(3) 0.4434(5)
H1 H 0.4835 0.8793 0.4273
O1 O 0.4340(4) 1.0512(3) 0.2970(4)
O2 O 0.5321(3) 0.9814(2) 0.4104(4)
O3 O -0.1054(4) 0.8782(3) 0.0495(4)
C1 C -0.1424(6) 1.0879(4) 0.1329(6)
H2 H -0.1166 1.0867 0.2020
H3 H -0.2134 1.1063 0.1034
H4 H -0.0962 1.1158 0.1168
C2 C -0.1440(5) 1.0131(3) 0.0937(5)
C3 C -0.2248(6) 0.9738(4) 0.1233(6)
H5 H -0.2241 0.9263 0.1095
H6 H -0.2956 0.9914 0.0868
H7 H -0.2034 0.9798 0.1913
C4 C -0.1936(6) 1.0162(4) -0.0188(5)
H8 H -0.1433 1.0362 -0.0381
H9 H -0.2575 1.0432 -0.0432
H10 H -0.2108 0.9711 -0.0448
C5 C -0.0375(5) 0.9792(3) 0.1375(4)
C6 C -0.0302(5) 0.9086(3) 0.1114(5)
C7 C 0.0776(5) 0.8727(3) 0.1639(4)
C8 C 0.0817(6) 0.7968(3) 0.1467(5)
C9 C 0.0663(9) 0.7821(4) 0.0460(7)
H11 H -0.0024 0.7987 0.0002
H12 H 0.0699 0.7341 0.0380
H13 H 0.1213 0.8042 0.0352
C10 C -0.0044(8) 0.7604(4) 0.1683(8)
H14 H -0.0093 0.7822 0.2220
H15 H 0.0155 0.7137 0.1842
H16 H -0.0723 0.7627 0.1121
C11 C 0.1912(8) 0.7670(4) 0.2155(8)
H17 H 0.2469 0.7940 0.2126
H18 H 0.1963 0.7213 0.1963
H19 H 0.1987 0.7670 0.2807
C12 C 0.0549(5) 1.0122(3) 0.1998(4)
H20 H 0.0495 1.0567 0.2172
C13 C 0.1581(5) 0.9817(3) 0.2389(4)
C14 C 0.1607(5) 0.9112(3) 0.2232(4)
H21 H 0.2259 0.8894 0.2570
C15 C 0.2494(5) 1.0175(3) 0.2977(4)
C16 C 0.2480(4) 1.0922(3) 0.3042(5)
C17 C 0.1998(5) 1.1317(3) 0.2197(5)
H22 H 0.1662 1.1111 0.1592
C18 C 0.2030(5) 1.2046(3) 0.2278(5)
H23 H 0.1749 1.2319 0.1728
C19 C 0.2474(5) 1.2317(3) 0.3164(6)
C20 C 0.2929(5) 1.1965(4) 0.3991(6)
H24 H 0.3231 1.2183 0.4589
C21 C 0.2939(5) 1.1245(3) 0.3925(5)
H25 H 0.3261 1.0989 0.4489
C22 C 0.3481(4) 0.9821(3) 0.3597(5)
C23 C 0.3582(5) 0.9258(3) 0.4192(4)
C24 C 0.3243(6) 0.8493(4) 0.5165(6)
H26 H 0.3455 0.8582 0.5846
H27 H 0.2672 0.8160 0.4939
C25 C 0.4144(7) 0.8244(4) 0.5029(7)
H28 H 0.3977 0.7814 0.4687
H29 H 0.4769 0.8188 0.5647
C26 C 0.2346(6) 0.9614(4) 0.4860(5)
H30 H 0.2199 1.0002 0.4431
H31 H 0.2800 0.9766 0.5515
C27 C 0.1307(5) 0.9349(3) 0.4810(4)
C28 C 0.0499(5) 0.9076(3) 0.3980(5)
H32 H 0.0607 0.9051 0.3426
C29 C -0.0436(5) 0.8844(4) 0.3923(5)
H33 H -0.0945 0.8649 0.3356
C30 C -0.0608(6) 0.8902(4) 0.4703(6)
C31 C 0.0114(6) 0.9161(4) 0.5575(6)
H34 H -0.0030 0.9191 0.6109
C32 C 0.1064(5) 0.9373(3) 0.5605(4)
loop_
_geom_bond_atom_site_label_1
_geom_bond_atom_site_label_2
_geom_bond_site_symmetry_1
_geom_bond_site_symmetry_2
F1 C19 1_555 1_555
F2 C30 1_555 1_555
F3 C32 1_555 1_555
N1 O1 1_555 1_555
N2 C23 1_555 1_555
N3 H1 1_555 1_555
O2 N1 1_555 1_555
O3 C6 1_555 1_555
C1 H2 1_555 1_555
H3 C1 1_555 1_555
H4 C1 1_555 1_555
C2 C1 1_555 1_555
C3 C2 1_555 1_555
H5 C3 1_555 1_555
H6 C3 1_555 1_555
H7 C3 1_555 1_555
C4 C2 1_555 1_555
H8 C4 1_555 1_555
H9 C4 1_555 1_555
H10 C4 1_555 1_555
C5 C2 1_555 1_555
C6 C5 1_555 1_555
C7 C6 1_555 1_555
C8 C7 1_555 1_555
C9 C8 1_555 1_555
H11 C9 1_555 1_555
H12 C9 1_555 1_555
H13 C9 1_555 1_555
C10 C8 1_555 1_555
H14 C10 1_555 1_555
H15 C10 1_555 1_555
H16 C10 1_555 1_555
C11 C8 1_555 1_555
H17 C11 1_555 1_555
H18 C11 1_555 1_555
H19 C11 1_555 1_555
C12 C5 1_555 1_555
H20 C12 1_555 1_555
C13 C12 1_555 1_555
C14 C7 1_555 1_555
H21 C14 1_555 1_555
C15 C13 1_555 1_555
C16 C15 1_555 1_555
C17 C16 1_555 1_555
H22 C17 1_555 1_555
C18 C17 1_555 1_555
H23 C18 1_555 1_555
C19 C18 1_555 1_555
C20 C19 1_555 1_555
H24 C20 1_555 1_555
C21 C16 1_555 1_555
H25 C21 1_555 1_555
C22 N1 1_555 1_555
C23 N3 1_555 1_555
C24 N2 1_555 1_555
H26 C24 1_555 1_555
H27 C24 1_555 1_555
C25 N3 1_555 1_555
H28 C25 1_555 1_555
H29 C25 1_555 1_555
C26 N2 1_555 1_555
H30 C26 1_555 1_555
H31 C26 1_555 1_555
C27 C26 1_555 1_555
C28 C27 1_555 1_555
H32 C28 1_555 1_555
C29 C28 1_555 1_555
H33 C29 1_555 1_555
C30 C29 1_555 1_555
C31 C30 1_555 1_555
H34 C31 1_555 1_555
C32 C27 1_555 1_555
C13 C14 1_555 1_555
C15 C22 1_555 1_555
C20 C21 1_555 1_555
C22 C23 1_555 1_555
C24 C25 1_555 1_555
C31 C32 1_555 1_555

#END
