
#######################################################################
#
#                 Cambridge Crystallographic Data Centre
#                                CCDC 
#
#######################################################################
#
# If this CIF has been generated from an entry in the Cambridge 
# Structural Database, then it will include bibliographic, chemical, 
# crystal, experimental, refinement or atomic coordinate data resulting 
# from the CCDC's data processing and validation procedures.
#
#######################################################################

data_REFNAT
_chemical_formula_moiety         
'C26 H38 N2 O8,C28 H28 N4 O4 2+,2(C3 H6 O1),2(F6 P1 1-)'
_chemical_name_systematic        
"3,6,9,12,20,23,26,29-Octaoxa-35,36-diazatricyclo[29.3.1.1^14,18^]hexatriaconta-1(35),14(36),15,17,31,33-hexaene N,N'-bis(2-(phenylaminocarbonyloxy)ethyl)-4,4'-bipyridinium bis(hexafluorophosphate) acetone solvate"
_symmetry_cell_setting           triclinic
_symmetry_space_group_name_H-M   'P -1'
_symmetry_Int_Tables_number      2
_space_group_name_Hall           '-P 1'
loop_
_symmetry_equiv_pos_site_id
_symmetry_equiv_pos_as_xyz
1 x,y,z
2 -x,-y,-z
_cell_length_a                   13.148(3)
_cell_length_b                   14.211(3)
_cell_length_c                   18.928(4)
_cell_angle_alpha                80.69(3)
_cell_angle_beta                 79.12(3)
_cell_angle_gamma                69.76(3)
_cell_volume                     3240.69
_exptl_crystal_colour            colorless
_exptl_crystal_description       plate
_cell_formula_units_Z            2
loop_
_atom_site_label
_atom_site_type_symbol
_atom_site_fract_x
_atom_site_fract_y
_atom_site_fract_z
N1 N 0.3792(4) -0.0369(4) 0.0674(2)
N2 N 0.1209(4) 0.0566(4) 0.4303(3)
C1 C 0.4650(5) -0.0817(4) 0.1040(3)
C2 C 0.5154(5) -0.0275(4) 0.1307(3)
H1 H 0.5742 -0.0607 0.1560
C3 C 0.4782(5) 0.0763(5) 0.1198(3)
H2 H 0.5109 0.1139 0.1381
C4 C 0.3920(5) 0.1235(5) 0.0814(3)
H3 H 0.3660 0.1934 0.0724
C5 C 0.3450(5) 0.0644(5) 0.0566(3)
C6 C 0.2507(6) 0.1089(6) 0.0142(4)
H4 H 0.2755 0.0941 -0.0357
H5 H 0.1945 0.0783 0.0341
C7 C 0.1384(12) 0.2764(11) -0.0339(8)
C8 C 0.0212(12) 0.2803(11) -0.0060(7)
C9 C -0.1302(12) 0.3536(10) 0.0795(7)
H6 H -0.1760 0.3438 0.0479
C10 C -0.1796(6) 0.4157(8) 0.1329(4)
C11 C -0.2010(5) 0.3625(5) 0.2583(4)
H7 H -0.2225 0.3068 0.2501
H8 H -0.2666 0.4204 0.2658
C12 C -0.1436(5) 0.3347(4) 0.3232(3)
H9 H -0.1048 0.3816 0.3236
H10 H -0.1968 0.3391 0.3667
C13 C -0.0110(5) 0.2059(4) 0.3821(3)
H11 H -0.0601 0.2316 0.4248
H12 H 0.0479 0.2345 0.3736
C14 C 0.0354(5) 0.0924(4) 0.3942(3)
C15 C -0.0117(5) 0.0306(4) 0.3722(3)
H13 H -0.0707 0.0576 0.3463
C16 C 0.0314(5) -0.0720(5) 0.3895(3)
H14 H 0.0012 -0.1154 0.3759
C17 C 0.1202(5) -0.1100(5) 0.4276(3)
H15 H 0.1505 -0.1790 0.4400
C18 C 0.1623(5) -0.0426(5) 0.4466(3)
C19 C 0.2560(5) -0.0753(5) 0.4889(3)
H16 H 0.3030 -0.0344 0.4710
H17 H 0.2283 -0.0652 0.5393
C20 C 0.4015(6) -0.2110(6) 0.5280(4)
H18 H 0.3694 -0.2137 0.5785
H19 H 0.4426 -0.1643 0.5196
C21 C 0.4749(6) -0.3115(5) 0.5113(3)
H20 H 0.5268 -0.3376 0.5457
H21 H 0.4324 -0.3567 0.5164
C22 C 0.6162(6) -0.4009(5) 0.4260(4)
H22 H 0.5836 -0.4514 0.4227
H23 H 0.6593 -0.4245 0.4656
C23 C 0.6879(6) -0.3886(6) 0.3585(4)
H24 H 0.7149 -0.3336 0.3598
H25 H 0.7503 -0.4497 0.3534
C24 C 0.6972(5) -0.3528(5) 0.2329(3)
H26 H 0.7604 -0.4129 0.2257
H27 H 0.7232 -0.2973 0.2347
C25 C 0.6329(5) -0.3298(4) 0.1716(3)
H28 H 0.6817 -0.3355 0.1260
H29 H 0.5933 -0.3772 0.1758
C26 C 0.5030(6) -0.1943(4) 0.1131(3)
H30 H 0.4406 -0.2180 0.1195
H31 H 0.5516 -0.2200 0.0701
O1 O 0.2063(4) 0.2133(4) 0.0162(3)
O2 O -0.0203(4) 0.3336(4) 0.0555(2)
O3 O -0.1286(4) 0.3859(4) 0.1973(2)
O4 O -0.0681(4) 0.2348(3) 0.3224(2)
O5 O 0.3167(4) -0.1769(3) 0.4832(2)
O6 O 0.5325(4) -0.3099(3) 0.4409(2)
O7 O 0.6307(3) -0.3683(3) 0.2987(2)
O8 O 0.5583(4) -0.2301(3) 0.1738(2)
N3 N 0.4522(4) 1.3523(4) 0.0586(2)
H32 H 0.4680 1.3243 0.1007
N4 N 0.1600(4) 1.2823(4) 0.2155(3)
N5 N 0.0568(4) 0.6562(4) 0.4462(3)
H33 H 0.0356 0.6884 0.4062
N6 N 0.3393(4) 0.7556(4) 0.2855(3)
C27 C 0.6428(6) 1.2808(7) 0.0142(4)
H34 H 0.6492 1.2368 0.0565
C28 C 0.7334(7) 1.2759(8) -0.0366(4)
H35 H 0.8002 1.2273 -0.0292
C29 C 0.7262(8) 1.3422(8) -0.0984(4)
H36 H 0.7882 1.3407 -0.1319
C30 C 0.6254(8) 1.4112(6) -0.1097(3)
H37 H 0.6197 1.4555 -0.1518
C31 C 0.5328(7) 1.4157(5) -0.0598(3)
H38 H 0.4653 1.4621 -0.0684
C32 C 0.5417(6) 1.3508(5) 0.0030(3)
C33 C 0.3455(6) 1.3930(5) 0.0521(3)
C34 C 0.1695(5) 1.4198(5) 0.1213(3)
H39 H 0.1483 1.3878 0.0876
H40 H 0.1436 1.4922 0.1087
C35 C 0.1230(6) 1.3931(5) 0.1973(4)
H41 H 0.1465 1.4242 0.2304
H42 H 0.0437 1.4187 0.2025
C36 C 0.2392(5) 1.2360(5) 0.2568(3)
H43 H 0.2716 1.2743 0.2745
C37 C 0.2731(5) 1.1346(5) 0.2731(3)
H44 H 0.3257 1.1045 0.3038
C38 C 0.1156(5) 1.2277(5) 0.1869(3)
H45 H 0.0616 1.2601 0.1576
C39 C 0.1492(5) 1.1247(5) 0.2004(3)
H46 H 0.1180 1.0878 0.1801
C40 C 0.2295(4) 1.0752(5) 0.2440(3)
C41 C 0.2675(4) 0.9623(5) 0.2592(3)
C42 C 0.2205(5) 0.9043(5) 0.2322(3)
H47 H 0.1642 0.9352 0.2044
C43 C 0.2570(5) 0.8023(5) 0.2465(3)
H48 H 0.2243 0.7640 0.2290
C44 C 0.3517(5) 0.9135(5) 0.2995(3)
H49 H 0.3850 0.9504 0.3179
C45 C 0.3860(5) 0.8100(5) 0.3124(3)
H50 H 0.4421 0.7772 0.3400
C46 C 0.3784(5) 0.6447(5) 0.3009(3)
H51 H 0.4578 0.6203 0.2943
H52 H 0.3544 0.6151 0.2671
C47 C 0.3350(5) 0.6122(5) 0.3776(3)
H53 H 0.3657 0.5397 0.3883
H54 H 0.3545 0.6446 0.4119
C48 C 0.1651(5) 0.6248(5) 0.4494(3)
C49 C -0.0251(5) 0.6410(4) 0.5024(3)
C50 C -0.0011(6) 0.5680(5) 0.5609(3)
H55 H 0.0712 0.5302 0.5657
C51 C -0.0861(7) 0.5521(6) 0.6119(3)
H56 H -0.0705 0.5042 0.6516
C52 C -0.1908(7) 0.6057(6) 0.6043(4)
H57 H -0.2471 0.5932 0.6382
C53 C -0.2163(6) 0.6796(6) 0.5463(4)
H58 H -0.2888 0.7174 0.5418
C54 C -0.1312(6) 0.6957(6) 0.4950(4)
H59 H -0.1468 0.7441 0.4556
O9 O 0.3036(4) 1.4314(4) -0.0014(2)
O10 O 0.2863(3) 1.3837(3) 0.1192(2)
O11 O 0.2111(4) 0.5883(3) 0.5011(2)
O12 O 0.2194(3) 0.6415(3) 0.3821(2)
P1 P 0.97076(18) 0.7308(2) 0.24080(10)
F1 F 0.9212(5) 0.6536(7) 0.2949(4)
F2 F 0.9767(6) 0.6603(7) 0.1853(4)
F3 F 1.0903(4) 0.6596(6) 0.2574(3)
F4 F 0.8547(4) 0.7995(4) 0.2236(3)
F5 F 0.9628(11) 0.7756(10) 0.3074(5)
F6 F 1.0217(5) 0.7952(8) 0.1865(6)
P2 P 0.50754(15) 0.32342(15) 0.26363(9)
F7 F 0.5632(3) 0.3804(3) 0.1958(2)
F8 F 0.5271(3) 0.3909(3) 0.3157(2)
F9 F 0.4861(4) 0.2573(3) 0.2105(2)
F10 F 0.4510(3) 0.2675(3) 0.3310(2)
F11 F 0.3904(3) 0.4067(3) 0.2545(2)
F12 F 0.6234(3) 0.2403(3) 0.2734(2)
C55 C 0.6224(8) 0.9997(8) 0.3015(5)
H60 H 0.5677 1.0429 0.2729
H61 H 0.6609 0.9385 0.2793
H62 H 0.6731 1.0333 0.3047
C56 C 0.6420(7) 0.9084(7) 0.4265(4)
H63 H 0.5984 0.8977 0.4719
H64 H 0.6932 0.9393 0.4336
H65 H 0.6812 0.8449 0.4076
C57 C 0.5695(5) 0.9756(5) 0.3744(3)
O13 O 0.4720(4) 1.0068(4) 0.3918(3)
C58 C -0.1312(7) 0.0043(7) 0.0857(4)
H66 H -0.0857 -0.0166 0.0413
H67 H -0.1969 0.0574 0.0752
H68 H -0.1496 -0.0519 0.1133
C59 C -0.1308(8) 0.0761(10) 0.1980(6)
H69 H -0.0848 0.0983 0.2207
H70 H -0.1490 0.0217 0.2286
H71 H -0.1966 0.1310 0.1906
C60 C -0.0719(5) 0.0411(5) 0.1275(3)
O14 O 0.0232(4) 0.0374(5) 0.1077(3)
H72? H -0.1390 0.4605 0.0298
C61? C 0.1136(12) 0.2369(11) -0.0287(8)
C62? C 0.0395(12) 0.3354(11) -0.0136(7)
C63? C -0.1113(11) 0.4124(11) 0.0706(8)
loop_
_geom_bond_atom_site_label_1
_geom_bond_atom_site_label_2
_geom_bond_site_symmetry_1
_geom_bond_site_symmetry_2
N1 C1 1_555 1_555
N2 C14 1_555 1_555
C1 C2 1_555 1_555
C2 H1 1_555 1_555
C3 C2 1_555 1_555
H2 C3 1_555 1_555
C4 C3 1_555 1_555
H3 C4 1_555 1_555
C5 N1 1_555 1_555
C6 C5 1_555 1_555
H4 C6 1_555 1_555
H5 C6 1_555 1_555
C7 C8 1_555 1_555
C8 O2 1_555 1_555
C9 H6 1_555 1_555
C10 C9 1_555 1_555
C11 H7 1_555 1_555
H8 C11 1_555 1_555
C12 C11 1_555 1_555
H9 C12 1_555 1_555
H10 C12 1_555 1_555
C13 H11 1_555 1_555
H12 C13 1_555 1_555
C14 C13 1_555 1_555
C15 C14 1_555 1_555
H13 C15 1_555 1_555
C16 C15 1_555 1_555
H14 C16 1_555 1_555
C17 C16 1_555 1_555
H15 C17 1_555 1_555
C18 N2 1_555 1_555
C19 C18 1_555 1_555
H16 C19 1_555 1_555
H17 C19 1_555 1_555
C20 H18 1_555 1_555
H19 C20 1_555 1_555
C21 C20 1_555 1_555
H20 C21 1_555 1_555
H21 C21 1_555 1_555
C22 H22 1_555 1_555
H23 C22 1_555 1_555
C23 C22 1_555 1_555
H24 C23 1_555 1_555
H25 C23 1_555 1_555
C24 H26 1_555 1_555
H27 C24 1_555 1_555
C25 C24 1_555 1_555
H28 C25 1_555 1_555
H29 C25 1_555 1_555
C26 C1 1_555 1_555
H30 C26 1_555 1_555
H31 C26 1_555 1_555
O1 C6 1_555 1_555
O2 C9 1_555 1_555
O3 C10 1_555 1_555
O4 C12 1_555 1_555
O5 C19 1_555 1_555
O6 C21 1_555 1_555
O7 C23 1_555 1_555
O8 C25 1_555 1_555
N3 H32 1_555 1_555
N4 C35 1_555 1_555
N5 H33 1_555 1_555
N6 C43 1_555 1_555
C27 H34 1_555 1_555
C28 C27 1_555 1_555
H35 C28 1_555 1_555
C29 C28 1_555 1_555
H36 C29 1_555 1_555
C30 C29 1_555 1_555
H37 C30 1_555 1_555
C31 C30 1_555 1_555
H38 C31 1_555 1_555
C32 N3 1_555 1_555
C33 N3 1_555 1_555
C34 H39 1_555 1_555
H40 C34 1_555 1_555
C35 C34 1_555 1_555
H41 C35 1_555 1_555
H42 C35 1_555 1_555
C36 N4 1_555 1_555
H43 C36 1_555 1_555
C37 C36 1_555 1_555
H44 C37 1_555 1_555
C38 N4 1_555 1_555
H45 C38 1_555 1_555
C39 C38 1_555 1_555
H46 C39 1_555 1_555
C40 C37 1_555 1_555
C41 C40 1_555 1_555
C42 C41 1_555 1_555
H47 C42 1_555 1_555
C43 C42 1_555 1_555
H48 C43 1_555 1_555
C44 C41 1_555 1_555
H49 C44 1_555 1_555
C45 N6 1_555 1_555
H50 C45 1_555 1_555
C46 N6 1_555 1_555
H51 C46 1_555 1_555
H52 C46 1_555 1_555
C47 C46 1_555 1_555
H53 C47 1_555 1_555
H54 C47 1_555 1_555
C48 N5 1_555 1_555
C49 N5 1_555 1_555
C50 C49 1_555 1_555
H55 C50 1_555 1_555
C51 C50 1_555 1_555
H56 C51 1_555 1_555
C52 C51 1_555 1_555
H57 C52 1_555 1_555
C53 C52 1_555 1_555
H58 C53 1_555 1_555
C54 C49 1_555 1_555
H59 C54 1_555 1_555
O9 C33 1_555 1_555
O10 C33 1_555 1_555
O11 C48 1_555 1_555
O12 C47 1_555 1_555
P1 F1 1_555 1_555
F2 P1 1_555 1_555
F3 P1 1_555 1_555
F4 P1 1_555 1_555
F5 P1 1_555 1_555
F6 P1 1_555 1_555
P2 F7 1_555 1_555
F8 P2 1_555 1_555
F9 P2 1_555 1_555
F10 P2 1_555 1_555
F11 P2 1_555 1_555
F12 P2 1_555 1_555
C55 H60 1_555 1_555
H61 C55 1_555 1_555
H62 C55 1_555 1_555
C56 H63 1_555 1_555
H64 C56 1_555 1_555
H65 C56 1_555 1_555
C57 C55 1_555 1_555
O13 C57 1_555 1_555
C58 H66 1_555 1_555
H67 C58 1_555 1_555
H68 C58 1_555 1_555
C59 H69 1_555 1_555
H70 C59 1_555 1_555
H71 C59 1_555 1_555
C60 C58 1_555 1_555
O14 C60 1_555 1_555
C4 C5 1_555 1_555
C7 O1 1_555 1_555
C11 O3 1_555 1_555
C13 O4 1_555 1_555
C17 C18 1_555 1_555
C20 O5 1_555 1_555
C22 O6 1_555 1_555
C24 O7 1_555 1_555
C26 O8 1_555 1_555
C27 C32 1_555 1_555
C31 C32 1_555 1_555
C34 O10 1_555 1_555
C39 C40 1_555 1_555
C44 C45 1_555 1_555
C48 O12 1_555 1_555
C53 C54 1_555 1_555
C56 C57 1_555 1_555
C59 C60 1_555 1_555

#END
