
#######################################################################
#
#                 Cambridge Crystallographic Data Centre
#                                CCDC 
#
#######################################################################
#
# If this CIF has been generated from an entry in the Cambridge 
# Structural Database, then it will include bibliographic, chemical, 
# crystal, experimental, refinement or atomic coordinate data resulting 
# from the CCDC's data processing and validation procedures.
#
#######################################################################

data_REFPIB
_chemical_formula_moiety         'C56 H62 N2 O8,3(C3 H6 O1)'
_chemical_name_systematic        
'cis-5,11,17,23-Tetra-t-butyl-25,26,27,28-tetrahydroxy-2,14-bis(4-nitrophenyl)calix(4)arene acetone solvate'
_symmetry_cell_setting           monoclinic
_symmetry_space_group_name_H-M   'C 2/c'
_symmetry_Int_Tables_number      15
_space_group_name_Hall           '-C 2yn'
loop_
_symmetry_equiv_pos_site_id
_symmetry_equiv_pos_as_xyz
1 x,y,z
2 -x,y,1/2-z
3 1/2+x,1/2+y,z
4 1/2-x,1/2+y,1/2-z
5 -x,-y,-z
6 x,-y,1/2+z
7 1/2-x,1/2-y,-z
8 1/2+x,1/2-y,1/2+z
_cell_length_a                   31.808(8)
_cell_length_b                   21.826(5)
_cell_length_c                   17.223(5)
_cell_angle_alpha                90
_cell_angle_beta                 92.37(2)
_cell_angle_gamma                90
_cell_volume                     11946.7
_exptl_crystal_colour            'light yellow'
_chemical_melting_point          337-339deg.C
_cell_formula_units_Z            8
loop_
_atom_site_label
_atom_site_type_symbol
_atom_site_fract_x
_atom_site_fract_y
_atom_site_fract_z
C10 C 0.2867(4) 0.0655(6) 0.5819(6)
C21 C 0.2567(2) 0.0160(4) 0.5862(7)
C32 C 0.2408(3) 0.0015(4) 0.6641(5)
O10 O 0.2463(2) -0.0090(2) 0.5249(3)
C63 C 0.0517(9) -0.1467(13) 0.8532(33)
C64 C 0.0301(8) -0.1974(9) 0.8326(13)
C65 C 0.0842(8) -0.1601(16) 0.8158(20)
C66 C 0.0461(7) -0.1124(9) 0.9400(10)
C67 C 0.0184(5) -0.0974(6) 0.8258(9)
C1 C 0.1361(2) -0.0697(3) 0.6734(4)
C2 C 0.1284(2) -0.0158(3) 0.7132(4)
C3 C 0.1479(2) -0.0030(2) 0.7842(4)
C4 C 0.1767(2) -0.0451(3) 0.8176(4)
C5 C 0.1839(2) -0.1009(3) 0.7803(4)
C6 C 0.1637(2) -0.1129(3) 0.7101(5)
C7 C 0.1422(2) 0.0599(3) 0.8227(4)
C8 C 0.1721(2) 0.1050(3) 0.7872(4)
C9 C 0.1617(2) 0.1324(3) 0.7161(4)
C11 C 0.1895(2) 0.1707(3) 0.6781(4)
C12 C 0.2288(2) 0.1808(3) 0.7141(4)
C13 C 0.2403(2) 0.1538(3) 0.7849(5)
C14 C 0.2121(2) 0.1162(3) 0.8222(5)
C15 C 0.2847(2) 0.1661(3) 0.8204(4)
C16 C 0.3183(2) 0.1232(3) 0.7918(5)
C17 C 0.3435(2) 0.1397(4) 0.7326(5)
C18 C 0.3735(3) 0.1018(4) 0.7039(6)
C19 C 0.3780(2) 0.0434(3) 0.7375(5)
C20 C 0.3543(2) 0.0244(3) 0.7979(5)
C22 C 0.3239(2) 0.0650(3) 0.8257(5)
C23 C 0.3590(2) -0.0396(3) 0.8341(4)
C24 C 0.3279(2) -0.0828(3) 0.7914(5)
C25 C 0.3363(2) -0.1071(3) 0.7191(5)
C26 C 0.3078(2) -0.1454(3) 0.6780(5)
C27 C 0.2701(2) -0.1582(3) 0.7130(5)
C28 C 0.2597(2) -0.1332(3) 0.7854(5)
C29 C 0.2892(2) -0.0959(3) 0.8233(5)
C30 C 0.2162(2) -0.1465(3) 0.8133(4)
C31 C 0.1173(3) -0.0820(4) 0.5911(6)
C33 C 0.1378(3) -0.1309(4) 0.5464(5)
C34 C 0.1177(4) -0.0255(5) 0.5449(5)
C35 C 0.0700(3) -0.0896(7) 0.5956(6)
C36 C 0.1759(2) 0.2023(4) 0.6014(5)
C37 C 0.2119(2) 0.2341(4) 0.5622(5)
C38 C 0.1430(2) 0.2506(4) 0.6213(5)
C39 C 0.1549(2) 0.1560(4) 0.5446(4)
C40 C 0.4024(3) 0.1214(5) 0.6399(8)
C41 C 0.4474(3) 0.1257(6) 0.6749(8)
C42 C 0.4037(4) 0.0742(5) 0.5775(7)
C44 C 0.3895(3) 0.1809(4) 0.6017(6)
C45 C 0.3196(2) -0.1742(3) 0.6006(5)
C46 C 0.3512(2) -0.2254(3) 0.6184(4)
C47 C 0.2818(2) -0.2018(3) 0.5547(4)
C48 C 0.3392(2) -0.1266(3) 0.5485(4)
C49 C 0.0969(2) 0.0815(3) 0.8249(4)
C50 C 0.0875(2) 0.1427(3) 0.8295(4)
C51 C 0.0460(2) 0.1620(3) 0.8402(4)
C52 C 0.0152(2) 0.1192(3) 0.8464(4)
C53 C 0.0235(2) 0.0575(3) 0.8425(4)
C55 C 0.0649(2) 0.0393(3) 0.8323(4)
C56 C 0.4049(2) -0.0609(3) 0.8389(4)
C57 C 0.4166(2) -0.1206(3) 0.8249(4)
C58 C 0.4586(2) -0.1389(3) 0.8339(4)
C59 C 0.4873(2) -0.0959(4) 0.8570(4)
C60 C 0.4768(2) -0.0369(3) 0.8747(4)
C61 C 0.4356(2) -0.0206(3) 0.8663(4)
H1 H 0.1096(2) 0.0125(3) 0.6912(4)
H2 H 0.1682(2) -0.1503(3) 0.6859(5)
H3 H 0.1520(2) 0.0550(3) 0.8770(4)
H4 H 0.1352(2) 0.1250(3) 0.6929(4)
H5 H 0.2479(2) 0.2063(3) 0.6903(4)
H6 H 0.2925(2) 0.2079(3) 0.8087(4)
H7 H 0.2839(2) 0.1624(3) 0.8765(4)
H8 H 0.3402(2) 0.1785(4) 0.7110(5)
H9 H 0.3977(2) 0.0166(3) 0.7181(5)
H10 H 0.3499(2) -0.0363(3) 0.8876(4)
H11 H 0.3617(2) -0.0975(3) 0.6971(5)
H12 H 0.2509(2) -0.1843(3) 0.6876(5)
H13 H 0.2168(2) -0.1447(3) 0.8696(4)
H14 H 0.2079(2) -0.1876(3) 0.7977(4)
H15 H 0.1275(25) -0.1295(31) 0.4932(14)
H16 H 0.1314(26) -0.1701(5) 0.5683(38)
H17 H 0.1677(5) -0.1248(27) 0.5487(50)
H18 H 0.1000(27) -0.0307(18) 0.4988(32)
H19 H 0.1459(7) -0.0169(27) 0.5305(53)
H20 H 0.1074(32) 0.0079(11) 0.5750(23)
H21 H 0.0639(4) -0.1297(24) 0.6153(75)
H22 H 0.0570(5) -0.0850(63) 0.5447(15)
H23 H 0.0593(7) -0.0591(40) 0.6297(64)
H24 H 0.2018(5) 0.2514(24) 0.5137(17)
H25 H 0.2336(8) 0.2048(7) 0.5527(31)
H26 H 0.2231(12) 0.2660(18) 0.5953(16)
H27 H 0.1187(7) 0.2307(4) 0.6408(31)
H28 H 0.1349(13) 0.2734(18) 0.5753(9)
H29 H 0.1547(6) 0.2780(16) 0.6600(24)
H30 H 0.1323(13) 0.1356(21) 0.5693(13)
H31 H 0.1753(5) 0.1262(17) 0.5297(28)
H32 H 0.1441(18) 0.1771(5) 0.4992(17)
H33 H 0.4523(13) 0.1662(18) 0.6948(64)
H34 H 0.4670(3) 0.1170(55) 0.6355(19)
H35 H 0.4510(12) 0.0965(40) 0.7164(48)
H36 H 0.4230(25) 0.0869(24) 0.5393(32)
H37 H 0.3761(8) 0.0695(34) 0.5534(41)
H38 H 0.4127(32) 0.0358(13) 0.5997(12)
H39 H 0.4097(14) 0.1921(20) 0.5644(35)
H40 H 0.3882(25) 0.2124(9) 0.6405(9)
H41 H 0.3623(12) 0.1762(11) 0.5760(41)
H42 H 0.3382(5) -0.2566(10) 0.6485(22)
H43 H 0.3751(6) -0.2091(5) 0.6472(22)
H44 H 0.3601(10) -0.2428(14) 0.5706(4)
H45 H 0.2700(9) -0.2344(14) 0.5842(12)
H46 H 0.2909(3) -0.2176(19) 0.5061(12)
H47 H 0.2609(6) -0.1707(6) 0.5450(24)
H48 H 0.3641(7) -0.1103(14) 0.5742(11)
H49 H 0.3195(5) -0.0941(10) 0.5379(20)
H50 H 0.3465(12) -0.1456(5) 0.5006(10)
H51 H 0.1088(2) 0.1716(3) 0.8255(4)
H52 H 0.0396(2) 0.2035(3) 0.8429(4)
H53 H 0.0020(2) 0.0288(3) 0.8465(4)
H54 H 0.0711(2) -0.0023(3) 0.8304(4)
H55 H 0.3962(2) -0.1491(3) 0.8094(4)
H56 H 0.4666(2) -0.1791(3) 0.8244(4)
H57 H 0.4972(2) -0.0089(3) 0.8919(4)
H58 H 0.4278(2) 0.0190(3) 0.8794(4)
N1 N -0.0285(2) 0.1386(3) 0.8574(4)
N2 N 0.5323(2) -0.1137(4) 0.8594(4)
O1 O 0.19782(12) -0.0317(2) 0.8875(3)
O3 O 0.22297(13) 0.0898(2) 0.8928(3)
O4 O 0.30021(14) 0.0468(2) 0.8869(3)
O5 O 0.27848(14) -0.0709(2) 0.8936(3)
O6 O -0.05574(14) 0.1004(2) 0.8634(3)
O7 O -0.03517(14) 0.1949(3) 0.8590(3)
O8 O 0.5590(2) -0.0736(3) 0.8675(4)
O9 O 0.5417(2) -0.1682(3) 0.8532(3)
C43? C 0.5235(4) -0.2261(5) 1.0226(7)
C54? C 0.5778(5) -0.1684(8) 1.1150(12)
C62? C 0.5737(14) -0.2074(11) 1.0840(20)
O2? O 0.5361(3) -0.1282(5) 1.0459(5)
loop_
_geom_bond_atom_site_label_1
_geom_bond_atom_site_label_2
_geom_bond_site_symmetry_1
_geom_bond_site_symmetry_2
C1 C2 1_555 1_555
C2 C3 1_555 1_555
C3 C4 1_555 1_555
C4 C5 1_555 1_555
C5 C6 1_555 1_555
C6 C1 1_555 1_555
C7 C3 1_555 1_555
C8 C7 1_555 1_555
C9 C8 1_555 1_555
C10 C21 1_555 1_555
C11 C9 1_555 1_555
C12 C11 1_555 1_555
C13 C12 1_555 1_555
C14 C8 1_555 1_555
C15 C13 1_555 1_555
C16 C15 1_555 1_555
C17 C16 1_555 1_555
C18 C17 1_555 1_555
C19 C18 1_555 1_555
C20 C19 1_555 1_555
C21 C32 1_555 1_555
C22 C16 1_555 1_555
C23 C20 1_555 1_555
C24 C23 1_555 1_555
C25 C24 1_555 1_555
C26 C25 1_555 1_555
C27 C26 1_555 1_555
C28 C27 1_555 1_555
C29 C24 1_555 1_555
C30 C5 1_555 1_555
C31 C1 1_555 1_555
C33 C31 1_555 1_555
C34 C31 1_555 1_555
C35 C31 1_555 1_555
C36 C11 1_555 1_555
C37 C36 1_555 1_555
C38 C36 1_555 1_555
C39 C36 1_555 1_555
C40 C18 1_555 1_555
C41 C40 1_555 1_555
C42 C40 1_555 1_555
C44 C40 1_555 1_555
C45 C26 1_555 1_555
C46 C45 1_555 1_555
C47 C45 1_555 1_555
C48 C45 1_555 1_555
C49 C7 1_555 1_555
C50 C49 1_555 1_555
C51 C50 1_555 1_555
C52 C51 1_555 1_555
C53 C52 1_555 1_555
C55 C49 1_555 1_555
C56 C23 1_555 1_555
C57 C56 1_555 1_555
C58 C57 1_555 1_555
C59 C58 1_555 1_555
C60 C59 1_555 1_555
C61 C56 1_555 1_555
C63 C64 1_555 1_555
C65 C63 1_555 1_555
C66 C63 1_555 1_555
C67 C63 1_555 1_555
H1 C2 1_555 1_555
H2 C6 1_555 1_555
H3 C7 1_555 1_555
H4 C9 1_555 1_555
H5 C12 1_555 1_555
H6 C15 1_555 1_555
H7 C15 1_555 1_555
H8 C17 1_555 1_555
H9 C19 1_555 1_555
H10 C23 1_555 1_555
H11 C25 1_555 1_555
H12 C27 1_555 1_555
H13 C30 1_555 1_555
H14 C30 1_555 1_555
H15 C33 1_555 1_555
H16 C33 1_555 1_555
H17 C33 1_555 1_555
H18 C34 1_555 1_555
H19 C34 1_555 1_555
H20 C34 1_555 1_555
H21 C35 1_555 1_555
H22 C35 1_555 1_555
H23 C35 1_555 1_555
H24 C37 1_555 1_555
H25 C37 1_555 1_555
H26 C37 1_555 1_555
H27 C38 1_555 1_555
H28 C38 1_555 1_555
H29 C38 1_555 1_555
H30 C39 1_555 1_555
H31 C39 1_555 1_555
H32 C39 1_555 1_555
H33 C41 1_555 1_555
H34 C41 1_555 1_555
H35 C41 1_555 1_555
H36 C42 1_555 1_555
H37 C42 1_555 1_555
H38 C42 1_555 1_555
H39 C44 1_555 1_555
H40 C44 1_555 1_555
H41 C44 1_555 1_555
H42 C46 1_555 1_555
H43 C46 1_555 1_555
H44 C46 1_555 1_555
H45 C47 1_555 1_555
H46 C47 1_555 1_555
H47 C47 1_555 1_555
H48 C48 1_555 1_555
H49 C48 1_555 1_555
H50 C48 1_555 1_555
H51 C50 1_555 1_555
H52 C51 1_555 1_555
H53 C53 1_555 1_555
H54 C55 1_555 1_555
H55 C57 1_555 1_555
H56 C58 1_555 1_555
H57 C60 1_555 1_555
H58 C61 1_555 1_555
N1 C52 1_555 1_555
N2 C59 1_555 1_555
O1 C4 1_555 1_555
O3 C14 1_555 1_555
O4 C22 1_555 1_555
O5 C29 1_555 1_555
O6 N1 1_555 1_555
O7 N1 1_555 1_555
O8 N2 1_555 1_555
O9 N2 1_555 1_555
O10 C21 1_555 1_555
C13 C14 1_555 1_555
C20 C22 1_555 1_555
C28 C30 1_555 1_555
C28 C29 1_555 1_555
C53 C55 1_555 1_555
C60 C61 1_555 1_555

#END
