
#######################################################################
#
#                 Cambridge Crystallographic Data Centre
#                                CCDC 
#
#######################################################################
#
# If this CIF has been generated from an entry in the Cambridge 
# Structural Database, then it will include bibliographic, chemical, 
# crystal, experimental, refinement or atomic coordinate data resulting 
# from the CCDC's data processing and validation procedures.
#
#######################################################################

data_REFQEB
_chemical_formula_moiety         'C11 H18 N2 O2'
_chemical_name_systematic        
1-(1,3-dimethyl-1,3-dihydro-2H-imidazol-2-ylidene)-6-hydroxyhexan-2-one
_symmetry_cell_setting           triclinic
_symmetry_space_group_name_H-M   'P -1'
_symmetry_Int_Tables_number      2
_space_group_name_Hall           '-P 1'
loop_
_symmetry_equiv_pos_site_id
_symmetry_equiv_pos_as_xyz
1 x,y,z
2 -x,-y,-z
_cell_length_a                   7.5941(13)
_cell_length_b                   8.6701(15)
_cell_length_c                   9.0386(16)
_cell_angle_alpha                86.210(3)
_cell_angle_beta                 77.541(3)
_cell_angle_gamma                76.473(3)
_cell_volume                     564.905
_exptl_crystal_colour            colorless
_exptl_crystal_description       block
_cell_formula_units_Z            2
loop_
_atom_site_label
_atom_site_type_symbol
_atom_site_fract_x
_atom_site_fract_y
_atom_site_fract_z
N1 N 0.3313(2) -0.06556(19) -0.12146(18)
N2 N 0.2520(2) 0.18921(19) -0.15321(18)
O1 O 0.2008(2) 0.31472(17) 0.17934(15)
O2 O -0.3403(2) 0.59534(16) 0.60374(16)
H1 H -0.2811 0.6225 0.6593
C1 C 0.3554(3) -0.2220(2) -0.0513(3)
H2 H 0.3787 -0.2163 0.0483
H3 H 0.4583 -0.2928 -0.1117
H4 H 0.2452 -0.2607 -0.0438
C2 C 0.3996(3) -0.0316(3) -0.2708(2)
H5 H 0.4671 -0.1048 -0.3444
C3 C 0.3516(3) 0.1251(3) -0.2910(2)
H6 H 0.3798 0.1812 -0.3810
C4 C 0.1529(3) 0.3546(2) -0.1330(3)
H7 H 0.0234 0.3597 -0.0957
H8 H 0.1701 0.4104 -0.2285
H9 H 0.2000 0.4025 -0.0616
C5 C 0.2388(3) 0.0713(2) -0.0489(2)
C6 C 0.1431(3) 0.0779(2) 0.1052(2)
H10 H 0.0834 -0.0037 0.1405
C7 C 0.1303(3) 0.1943(2) 0.2081(2)
C8 C 0.0288(3) 0.1719(2) 0.3703(2)
H11 H 0.1169 0.1530 0.4365
H12 H -0.0228 0.0789 0.3757
C9 C -0.1266(3) 0.3149(2) 0.4269(2)
H13 H -0.0804 0.4108 0.4026
H14 H -0.2263 0.3210 0.3738
C10 C -0.2034(3) 0.3081(2) 0.5972(2)
H15 H -0.2382 0.2075 0.6234
H16 H -0.1073 0.3135 0.6508
C11 C -0.3706(3) 0.4423(2) 0.6487(2)
H17 H -0.4731 0.4262 0.6081
H18 H -0.4062 0.4378 0.7584
loop_
_geom_bond_atom_site_label_1
_geom_bond_atom_site_label_2
_geom_bond_site_symmetry_1
_geom_bond_site_symmetry_2
N1 C1 1_555 1_555
N2 C3 1_555 1_555
O1 C7 1_555 1_555
O2 H1 1_555 1_555
C1 H2 1_555 1_555
H3 C1 1_555 1_555
H4 C1 1_555 1_555
C2 N1 1_555 1_555
H5 C2 1_555 1_555
C3 C2 1_555 1_555
H6 C3 1_555 1_555
C4 N2 1_555 1_555
H7 C4 1_555 1_555
H8 C4 1_555 1_555
H9 C4 1_555 1_555
C5 N1 1_555 1_555
C6 C5 1_555 1_555
H10 C6 1_555 1_555
C7 C6 1_555 1_555
C8 C7 1_555 1_555
H11 C8 1_555 1_555
H12 C8 1_555 1_555
C9 C8 1_555 1_555
H13 C9 1_555 1_555
H14 C9 1_555 1_555
C10 C9 1_555 1_555
H15 C10 1_555 1_555
H16 C10 1_555 1_555
C11 O2 1_555 1_555
H17 C11 1_555 1_555
H18 C11 1_555 1_555
N2 C5 1_555 1_555
C10 C11 1_555 1_555

#END
