
#######################################################################
#
#                 Cambridge Crystallographic Data Centre
#                                CCDC 
#
#######################################################################
#
# If this CIF has been generated from an entry in the Cambridge 
# Structural Database, then it will include bibliographic, chemical, 
# crystal, experimental, refinement or atomic coordinate data resulting 
# from the CCDC's data processing and validation procedures.
#
#######################################################################

data_REFVUW
_chemical_formula_moiety         'C16 H13 N1 O2 S1'
_chemical_name_systematic        
'2-(1,3-benzothiazol-2-yl)-4-methylphenyl acetate'
_symmetry_cell_setting           monoclinic
_symmetry_space_group_name_H-M   'P 21/c'
_symmetry_Int_Tables_number      14
_space_group_name_Hall           '-P 2ybc'
loop_
_symmetry_equiv_pos_site_id
_symmetry_equiv_pos_as_xyz
1 x,y,z
2 -x,1/2+y,1/2-z
3 -x,-y,-z
4 x,1/2-y,1/2+z
_cell_length_a                   5.9844(7)
_cell_length_b                   14.7874(18)
_cell_length_c                   15.885(2)
_cell_angle_alpha                90
_cell_angle_beta                 95.348(2)
_cell_angle_gamma                90
_cell_volume                     1399.6
_exptl_crystal_colour            colorless
_exptl_crystal_description       Block
_cell_formula_units_Z            4
loop_
_atom_site_label
_atom_site_type_symbol
_atom_site_fract_x
_atom_site_fract_y
_atom_site_fract_z
C1 C -0.0395(4) 0.89218(15) 0.39488(14)
C2 C -0.2074(4) 0.94297(19) 0.42825(17)
H1 H -0.2218 0.9436 0.4860
C3 C -0.3506(4) 0.99192(19) 0.37301(19)
H2 H -0.4633 1.0263 0.3939
C4 C -0.3309(4) 0.99123(17) 0.28734(18)
H3 H -0.4304 1.0251 0.2516
C5 C -0.1669(4) 0.94150(15) 0.25372(16)
H4 H -0.1550 0.9412 0.1958
C6 C -0.0185(3) 0.89140(14) 0.30858(14)
C7 C 0.2596(3) 0.79748(14) 0.34816(13)
C8 C 0.4542(3) 0.73784(13) 0.33880(13)
C9 C 0.5527(3) 0.68211(14) 0.40169(13)
C10 C 0.7425(4) 0.63224(16) 0.39030(16)
H5 H 0.8093 0.5971 0.4342
C11 C 0.8325(4) 0.63469(16) 0.31400(17)
H6 H 0.9614 0.6015 0.3068
C12 C 0.7339(4) 0.68615(15) 0.24714(15)
C13 C 0.5475(4) 0.73777(15) 0.26146(14)
H7 H 0.4822 0.7737 0.2178
C14 C 0.8291(5) 0.6879(2) 0.16267(18)
H8 H 0.9567 0.6484 0.1642
H9 H 0.7168 0.6679 0.1195
H10 H 0.8742 0.7484 0.1504
C15 C 0.3267(4) 0.60549(16) 0.49275(14)
C16 C 0.2433(5) 0.6100(2) 0.57774(15)
H11 H 0.3024 0.6630 0.6068
H12 H 0.0823 0.6127 0.5719
H13 H 0.2913 0.5571 0.6096
N1 N 0.1539(3) 0.83766(12) 0.28376(11)
O1 O 0.4639(3) 0.67789(10) 0.48034(9)
O2 O 0.2855(3) 0.54856(12) 0.44080(10)
S1 S 0.16179(10) 0.82262(4) 0.44607(4)
loop_
_geom_bond_atom_site_label_1
_geom_bond_atom_site_label_2
_geom_bond_site_symmetry_1
_geom_bond_site_symmetry_2
C1 C2 1_555 1_555
C2 H1 1_555 1_555
C3 C2 1_555 1_555
H2 C3 1_555 1_555
C4 C3 1_555 1_555
H3 C4 1_555 1_555
C5 C4 1_555 1_555
H4 C5 1_555 1_555
C6 C1 1_555 1_555
C7 C8 1_555 1_555
C8 C9 1_555 1_555
C9 C10 1_555 1_555
C10 H5 1_555 1_555
C11 C10 1_555 1_555
H6 C11 1_555 1_555
C12 C11 1_555 1_555
C13 C8 1_555 1_555
H7 C13 1_555 1_555
C14 C12 1_555 1_555
H8 C14 1_555 1_555
H9 C14 1_555 1_555
H10 C14 1_555 1_555
C15 C16 1_555 1_555
C16 H11 1_555 1_555
H12 C16 1_555 1_555
H13 C16 1_555 1_555
N1 C6 1_555 1_555
O1 C9 1_555 1_555
O2 C15 1_555 1_555
S1 C1 1_555 1_555
C5 C6 1_555 1_555
C7 N1 1_555 1_555
C7 S1 1_555 1_555
C12 C13 1_555 1_555
C15 O1 1_555 1_555

#END
