
#######################################################################
#
#                 Cambridge Crystallographic Data Centre
#                                CCDC 
#
#######################################################################
#
# If this CIF has been generated from an entry in the Cambridge 
# Structural Database, then it will include bibliographic, chemical, 
# crystal, experimental, refinement or atomic coordinate data resulting 
# from the CCDC's data processing and validation procedures.
#
#######################################################################

data_REFWOO
_chemical_formula_moiety         'C64 H68 N6 O16 S4'
_chemical_name_systematic        
7,9,25,27-tetrakis(Ethoxycarbonyl)-2,11,20,29-tetrakis(4-tolylsulfonyl)-2,11,20,29-tetra-aza(3.3)(2,6)pyridino(1,3)benzeno(3.3)(4,6)benzeno(2,6)pyridino(3)phane
_symmetry_cell_setting           triclinic
_symmetry_space_group_name_H-M   'P -1'
_symmetry_Int_Tables_number      2
_space_group_name_Hall           '-P 1'
loop_
_symmetry_equiv_pos_site_id
_symmetry_equiv_pos_as_xyz
1 x,y,z
2 -x,-y,-z
_cell_length_a                   12.045(3)
_cell_length_b                   14.782(8)
_cell_length_c                   18.263(5)
_cell_angle_alpha                83.54(3)
_cell_angle_beta                 82.10(2)
_cell_angle_gamma                80.78(3)
_cell_volume                     3165.59
_exptl_crystal_colour            colorless
_chemical_melting_point          291deg.C
_cell_formula_units_Z            2
loop_
_atom_site_label
_atom_site_type_symbol
_atom_site_fract_x
_atom_site_fract_y
_atom_site_fract_z
C1 C 0.0379(4) 0.4022(3) 0.6442(3)
H1 H 0.1139(4) 0.4038(3) 0.6554(3)
H2 H -0.0151(4) 0.4331(3) 0.6816(3)
N1 N 0.0191(3) 0.3046(2) 0.6479(2)
C2 C -0.1011(4) 0.2906(3) 0.6538(3)
H3 H -0.1460(4) 0.3283(3) 0.6904(3)
H4 H -0.1073(4) 0.2267(3) 0.6703(3)
C3 C -0.1465(4) 0.3153(3) 0.5804(3)
C4 C -0.1026(4) 0.2699(3) 0.5175(3)
C5 C -0.1402(4) 0.3045(4) 0.4515(3)
H5 H -0.1112(4) 0.2752(4) 0.4090(3)
C6 C -0.2206(4) 0.3825(3) 0.4464(3)
C7 C -0.2639(4) 0.4220(3) 0.5119(3)
N2 N -0.2288(3) 0.3870(3) 0.5779(2)
C8 C -0.3533(4) 0.5061(3) 0.5177(3)
H6 H -0.3830(4) 0.5222(3) 0.4704(3)
H7 H -0.4154(4) 0.4916(3) 0.5547(3)
N3 N -0.3090(3) 0.5858(3) 0.5382(2)
C9 C -0.2147(4) 0.6219(3) 0.4897(3)
H8 H -0.2089(4) 0.6824(3) 0.5034(3)
H9 H -0.2319(4) 0.6292(3) 0.4388(3)
C10 C -0.1017(4) 0.5614(3) 0.4936(3)
C11 C -0.0758(4) 0.5159(3) 0.5613(3)
H10 H -0.1267(4) 0.5273(3) 0.6035(3)
C12 C 0.0232(4) 0.4538(3) 0.5687(3)
S1 S 0.09911(11) 0.23238(9) 0.70153(7)
O1 O 0.0669(3) 0.1432(2) 0.7005(2)
O2 O 0.2136(3) 0.2477(2) 0.6778(2)
C13 C 0.0643(4) 0.2635(3) 0.7930(3)
C14 C 0.1209(4) 0.3254(4) 0.8178(3)
H11 H 0.1771(4) 0.3512(4) 0.7860(3)
C15 C 0.0947(5) 0.3493(4) 0.8895(3)
H12 H 0.1335(5) 0.3912(4) 0.9059(3)
C16 C 0.0107(5) 0.3116(4) 0.9376(3)
C17 C -0.0468(5) 0.2510(4) 0.9116(3)
H13 H -0.1041(5) 0.2262(4) 0.9430(3)
C18 C -0.0211(5) 0.2263(4) 0.8400(3)
H14 H -0.0606(5) 0.1851(4) 0.8233(3)
C19 C -0.0157(6) 0.3381(5) 1.0158(3)
H15 H 0.0330(6) 0.3808(5) 1.0234(3)
H16 H -0.0038(6) 0.2842(5) 1.0499(3)
H17 H -0.0933(6) 0.3665(5) 1.0240(3)
C20 C -0.0228(5) 0.1812(4) 0.5230(4)
O3 O -0.0462(4) 0.1136(3) 0.5617(3)
O4 O 0.0711(3) 0.1859(3) 0.4767(3)
C21 C 0.1514(6) 0.0981(5) 0.4737(5)
H18 H 0.1089(6) 0.0468(5) 0.4790(5)
H19 H 0.1975(6) 0.0979(5) 0.4257(5)
C22 C 0.2241(6) 0.0867(5) 0.5316(4)
H20 H 0.2748(6) 0.0298(5) 0.5284(4)
H21 H 0.1787(6) 0.0859(5) 0.5792(4)
H22 H 0.2671(6) 0.1369(5) 0.5259(4)
C23 C -0.2532(5) 0.4235(5) 0.3722(3)
O5 O -0.2797(4) 0.5040(3) 0.3548(2)
O6 O -0.2464(4) 0.3583(3) 0.3271(2)
C24 C -0.2815(7) 0.3880(6) 0.2521(4)
H23 H -0.3180(7) 0.3410(6) 0.2361(4)
H24 H -0.3351(7) 0.4444(6) 0.2537(4)
C25 C -0.1845(8) 0.4027(7) 0.2016(5)
H25 H -0.2065(8) 0.4219(7) 0.1531(5)
H26 H -0.1320(8) 0.3466(7) 0.2000(5)
H27 H -0.1491(8) 0.4496(7) 0.2176(5)
S2 S -0.38053(11) 0.64535(10) 0.60256(8)
O7 O -0.4900(3) 0.6169(3) 0.6178(2)
O8 O -0.3704(3) 0.7408(2) 0.5813(2)
C26 C -0.3119(4) 0.6139(4) 0.6823(3)
C27 C -0.3273(5) 0.5325(4) 0.7248(3)
H28 H -0.3761(5) 0.4955(4) 0.7123(3)
C28 C -0.2696(5) 0.5065(4) 0.7859(3)
H29 H -0.2795(5) 0.4512(4) 0.8140(3)
C29 C -0.1989(5) 0.5594(5) 0.8061(4)
C30 C -0.1842(5) 0.6406(5) 0.7634(4)
H30 H -0.1358(5) 0.6775(5) 0.7765(4)
C31 C -0.2398(5) 0.6682(4) 0.7019(4)
H31 H -0.2288(5) 0.7231(4) 0.6736(4)
C32 C -0.1391(6) 0.5312(5) 0.8740(4)
H32 H -0.0929(6) 0.5766(5) 0.8796(4)
H33 H -0.0921(6) 0.4728(5) 0.8687(4)
H34 H -0.1941(6) 0.5262(5) 0.9170(4)
C10A C 0.1017(4) 0.4386(3) 0.5064(3)
C9A C 0.2147(4) 0.3781(3) 0.5103(3)
N3A N 0.3090(3) 0.4142(3) 0.4618(2)
C8A C 0.3533(4) 0.4939(3) 0.4823(3)
C7A C 0.2639(4) 0.5780(3) 0.4881(3)
C6A C 0.2206(4) 0.6175(3) 0.5536(3)
C5A C 0.1402(4) 0.6955(4) 0.5485(3)
C4A C 0.1026(4) 0.7301(3) 0.4825(3)
C3A C 0.1465(4) 0.6847(3) 0.4196(3)
C2A C 0.1011(4) 0.7094(3) 0.3462(3)
N1A N -0.0191(3) 0.6954(2) 0.3521(2)
C1A C -0.0379(4) 0.5978(3) 0.3558(3)
H1A H -0.1139(4) 0.5962(3) 0.3446(3)
H2A H 0.0151(4) 0.5669(3) 0.3184(3)
C12A C -0.0232(4) 0.5462(3) 0.4313(3)
C11A C 0.0758(4) 0.4841(3) 0.4387(3)
H10A H 0.1267(4) 0.4727(3) 0.3965(3)
S1A S -0.09911(11) 0.76762(9) 0.29847(7)
O1A O -0.0669(3) 0.8568(2) 0.2995(2)
O2A O -0.2136(3) 0.7523(2) 0.3222(2)
C13A C -0.0643(4) 0.7365(3) 0.2070(3)
C14A C -0.1209(4) 0.6746(4) 0.1822(3)
H11A H -0.1771(4) 0.6488(4) 0.2140(3)
C15A C -0.0947(5) 0.6507(4) 0.1105(3)
H12A H -0.1335(5) 0.6088(4) 0.0941(3)
C16A C -0.0107(5) 0.6884(4) 0.0624(3)
C17A C 0.0468(5) 0.7490(4) 0.0884(3)
H13A H 0.1041(5) 0.7738(4) 0.0570(3)
C18A C 0.0211(5) 0.7737(4) 0.1600(3)
H14A H 0.0606(5) 0.8149(4) 0.1767(3)
C19A C 0.0157(6) 0.6619(5) -0.0158(3)
H15A H -0.0330(6) 0.6192(5) -0.0234(3)
H16A H 0.0038(6) 0.7158(5) -0.0499(3)
H17A H 0.0933(6) 0.6335(5) -0.0240(3)
H3A H 0.1460(4) 0.6717(3) 0.3096(3)
H4A H 0.1073(4) 0.7733(3) 0.3297(3)
N2A N 0.2288(3) 0.6130(3) 0.4221(2)
C20A C 0.0228(5) 0.8188(4) 0.4770(4)
O3A O 0.0462(4) 0.8864(3) 0.4383(3)
O4A O -0.0711(3) 0.8141(3) 0.5233(3)
C21A C -0.1514(6) 0.9019(5) 0.5263(5)
H18A H -0.1089(6) 0.9532(5) 0.5210(5)
H19A H -0.1975(6) 0.9021(5) 0.5743(5)
C22A C -0.2241(6) 0.9133(5) 0.4684(4)
H20A H -0.2748(6) 0.9702(5) 0.4716(4)
H21A H -0.1787(6) 0.9141(5) 0.4208(4)
H22A H -0.2671(6) 0.8631(5) 0.4741(4)
H5A H 0.1112(4) 0.7248(4) 0.5910(3)
C23A C 0.2532(5) 0.5765(5) 0.6278(3)
O5A O 0.2797(4) 0.4960(3) 0.6452(2)
O6A O 0.2464(4) 0.6417(3) 0.6729(2)
C24A C 0.2815(7) 0.6120(6) 0.7479(4)
H23A H 0.3180(7) 0.6590(6) 0.7639(4)
H24A H 0.3351(7) 0.5556(6) 0.7463(4)
C25A C 0.1845(8) 0.5973(7) 0.7984(5)
H25A H 0.2065(8) 0.5781(7) 0.8469(5)
H26A H 0.1320(8) 0.6534(7) 0.8000(5)
H27A H 0.1491(8) 0.5504(7) 0.7824(5)
H6A H 0.3830(4) 0.4778(3) 0.5296(3)
H7A H 0.4154(4) 0.5084(3) 0.4453(3)
S2A S 0.38053(11) 0.35465(10) 0.39744(8)
O7A O 0.4900(3) 0.3831(3) 0.3822(2)
O8A O 0.3704(3) 0.2592(2) 0.4187(2)
C26A C 0.3119(4) 0.3861(4) 0.3177(3)
C27A C 0.3273(5) 0.4675(4) 0.2752(3)
H28A H 0.3761(5) 0.5045(4) 0.2877(3)
C28A C 0.2696(5) 0.4935(4) 0.2141(3)
H29A H 0.2795(5) 0.5488(4) 0.1860(3)
C29A C 0.1989(5) 0.4406(5) 0.1939(4)
C30A C 0.1842(5) 0.3594(5) 0.2366(4)
H30A H 0.1358(5) 0.3225(5) 0.2235(4)
C31A C 0.2398(5) 0.3318(4) 0.2981(4)
H31A H 0.2288(5) 0.2769(4) 0.3264(4)
C32A C 0.1391(6) 0.4688(5) 0.1260(4)
H32A H 0.0929(6) 0.4234(5) 0.1204(4)
H33A H 0.0921(6) 0.5272(5) 0.1313(4)
H34A H 0.1941(6) 0.4738(5) 0.0830(4)
H8A H 0.2089(4) 0.3176(3) 0.4966(3)
H9A H 0.2319(4) 0.3708(3) 0.5612(3)
C33 C 0.4496(4) 0.8809(3) 0.1348(3)
H35 H 0.4780(4) 0.9046(3) 0.1748(3)
H36 H 0.3685(4) 0.8821(3) 0.1476(3)
N4 N 0.5040(3) 0.7842(3) 0.1280(2)
C34 C 0.6296(4) 0.7689(3) 0.1272(3)
H37 H 0.6556(4) 0.7037(3) 0.1375(3)
H38 H 0.6495(4) 0.8007(3) 0.1661(3)
C35 C 0.6884(4) 0.8031(3) 0.0533(3)
C36 C 0.6807(4) 0.7692(3) -0.0131(3)
C37 C 0.7278(4) 0.8122(4) -0.0786(3)
H39 H 0.7226(4) 0.7907(4) -0.1237(3)
C38 C 0.7829(4) 0.8873(4) -0.0768(3)
C39 C 0.7909(4) 0.9155(3) -0.0085(3)
N5 N 0.7477(3) 0.8719(3) 0.0557(2)
C40 C 0.8485(4) 0.9965(3) 0.0023(3)
H40 H 0.9099(4) 0.9751(3) 0.0322(3)
H41 H 0.8808(4) 1.0222(3) -0.0456(3)
N6 N 0.7688(3) 1.0684(3) 0.0388(2)
C41 C 0.6743(4) 1.1176(3) -0.0004(3)
H42 H 0.7036(4) 1.1364(3) -0.0511(3)
H43 H 0.6421(4) 1.1728(3) 0.0236(3)
C42 C 0.5811(4) 1.0594(3) -0.0017(3)
C43 C 0.5491(4) 1.0033(3) 0.0618(3)
H44 H 0.5812(4) 1.0067(3) 0.1047(3)
C44 C 0.4713(4) 0.9427(3) 0.0640(3)
S3 S 0.43433(12) 0.70915(10) 0.18322(8)
O9 O 0.5015(3) 0.6215(2) 0.1796(2)
O10 O 0.3219(3) 0.7239(3) 0.1627(2)
C45 C 0.4246(4) 0.7403(4) 0.2748(3)
C46 C 0.3360(4) 0.8051(4) 0.2997(3)
H45 H 0.2827(4) 0.8323(4) 0.2685(3)
C47 C 0.3269(5) 0.8291(4) 0.3711(4)
H46 H 0.2669(5) 0.8727(4) 0.3877(4)
C48 C 0.4043(5) 0.7900(4) 0.4185(3)
C49 C 0.4936(5) 0.7263(4) 0.3919(4)
H47 H 0.5476(5) 0.7001(4) 0.4229(4)
C50 C 0.5043(5) 0.7010(4) 0.3215(4)
H48 H 0.5647(5) 0.6577(4) 0.3048(4)
C51 C 0.3919(6) 0.8167(5) 0.4976(4)
H49 H 0.4530(6) 0.7829(5) 0.5225(4)
H50 H 0.3210(6) 0.8024(5) 0.5235(4)
H51 H 0.3938(6) 0.8814(5) 0.4966(4)
C52 C 0.6265(5) 0.6848(4) -0.0140(4)
O11 O 0.6511(4) 0.6147(3) 0.0233(3)
O12 O 0.5556(4) 0.6975(3) -0.0649(3)
C53 C 0.5065(8) 0.6137(6) -0.0816(6)
H52 H 0.4890(8) 0.6202(6) -0.1324(6)
H53 H 0.5591(8) 0.5575(6) -0.0737(6)
C54 C 0.4070(9) 0.6132(6) -0.0309(7)
H54 H 0.3703(9) 0.5621(6) -0.0376(7)
H55 H 0.3567(9) 0.6696(6) -0.0394(7)
H56 H 0.4262(9) 0.6074(6) 0.0189(7)
C55 C 0.8258(4) 0.9395(5) -0.1482(3)
O13 O 0.8134(3) 1.0225(3) -0.1592(2)
O14 O 0.8771(4) 0.8844(3) -0.1980(2)
C56 C 0.9287(7) 0.9306(5) -0.2678(4)
H57 H 0.8715(7) 0.9505(5) -0.3011(4)
H58 H 0.9573(7) 0.9847(5) -0.2569(4)
C57 C 1.0177(7) 0.8707(7) -0.3026(4)
H59 H 1.0500(7) 0.9018(7) -0.3476(4)
H60 H 0.9892(7) 0.8176(7) -0.3140(4)
H61 H 1.0749(7) 0.8518(7) -0.2699(4)
S4 S 0.80543(11) 1.11373(10) 0.10678(8)
O15 O 0.9148(3) 1.0681(3) 0.1196(2)
O16 O 0.7880(4) 1.2120(3) 0.0914(2)
C58 C 0.7086(4) 1.0876(3) 0.1843(3)
C59 C 0.7216(5) 1.0033(4) 0.2248(3)
H62 H 0.7832(5) 0.9591(4) 0.2116(3)
C60 C 0.6442(5) 0.9842(4) 0.2844(3)
H63 H 0.6531(5) 0.9262(4) 0.3104(3)
C61 C 0.5542(5) 1.0478(4) 0.3069(3)
C62 C 0.5415(6) 1.1314(5) 0.2652(4)
H64 H 0.4799(6) 1.1754(5) 0.2787(4)
C63 C 0.6171(6) 1.1521(4) 0.2043(4)
H65 H 0.6063(6) 1.2092(4) 0.1769(4)
C64 C 0.4711(6) 1.0274(5) 0.3747(4)
H66 H 0.4142(6) 1.0801(5) 0.3815(4)
H67 H 0.5107(6) 1.0134(5) 0.4177(4)
H68 H 0.4359(6) 0.9756(5) 0.3677(4)
C42A C 0.4189(4) 0.9406(3) 0.0017(3)
C41A C 0.3257(4) 0.8824(3) 0.0004(3)
N6A N 0.2312(3) 0.9316(3) -0.0388(2)
C40A C 0.1515(4) 1.0035(3) -0.0023(3)
C39A C 0.2091(4) 1.0845(3) 0.0085(3)
C38A C 0.2171(4) 1.1127(4) 0.0768(3)
C37A C 0.2722(4) 1.1878(4) 0.0786(3)
C36A C 0.3193(4) 1.2308(3) 0.0131(3)
C35A C 0.3116(4) 1.1969(3) -0.0533(3)
C34A C 0.3704(4) 1.2311(3) -0.1272(3)
N4A N 0.4960(3) 1.2158(3) -0.1280(2)
C33A C 0.5504(4) 1.1191(3) -0.1348(3)
H35A H 0.5220(4) 1.0954(3) -0.1748(3)
H36A H 0.6315(4) 1.1179(3) -0.1476(3)
C44A C 0.5287(4) 1.0573(3) -0.0640(3)
C43A C 0.4509(4) 0.9967(3) -0.0618(3)
H44A H 0.4188(4) 0.9933(3) -0.1047(3)
S3A S 0.56567(12) 1.29085(10) -0.18322(8)
O9A O 0.4985(3) 1.3785(2) -0.1796(2)
O10A O 0.6781(3) 1.2761(3) -0.1627(2)
C45A C 0.5754(4) 1.2597(4) -0.2748(3)
C46A C 0.6640(4) 1.1949(4) -0.2997(3)
H45A H 0.7173(4) 1.1677(4) -0.2685(3)
C47A C 0.6731(5) 1.1709(4) -0.3711(4)
H46A H 0.7331(5) 1.1273(4) -0.3877(4)
C48A C 0.5957(5) 1.2100(4) -0.4185(3)
C49A C 0.5064(5) 1.2737(4) -0.3919(4)
H47A H 0.4524(5) 1.2999(4) -0.4229(4)
C50A C 0.4957(5) 1.2990(4) -0.3215(4)
H48A H 0.4353(5) 1.3423(4) -0.3048(4)
C51A C 0.6081(6) 1.1833(5) -0.4976(4)
H49A H 0.5470(6) 1.2171(5) -0.5225(4)
H50A H 0.6790(6) 1.1976(5) -0.5235(4)
H51A H 0.6062(6) 1.1186(5) -0.4966(4)
H37A H 0.3444(4) 1.2963(3) -0.1375(3)
H38A H 0.3505(4) 1.1993(3) -0.1661(3)
N5A N 0.2523(3) 1.1281(3) -0.0557(2)
C52A C 0.3735(5) 1.3152(4) 0.0140(4)
O11A O 0.3489(4) 1.3853(3) -0.0233(3)
O12A O 0.4444(4) 1.3025(3) 0.0649(3)
C53A C 0.4935(8) 1.3863(6) 0.0816(6)
H52A H 0.5110(8) 1.3798(6) 0.1324(6)
H53A H 0.4409(8) 1.4425(6) 0.0737(6)
C54A C 0.5930(9) 1.3868(6) 0.0309(7)
H54A H 0.6297(9) 1.4379(6) 0.0376(7)
H55A H 0.6433(9) 1.3304(6) 0.0394(7)
H56A H 0.5738(9) 1.3926(6) -0.0189(7)
H39A H 0.2774(4) 1.2093(4) 0.1237(3)
C55A C 0.1742(4) 1.0605(5) 0.1482(3)
O13A O 0.1866(3) 0.9775(3) 0.1592(2)
O14A O 0.1229(4) 1.1156(3) 0.1980(2)
C56A C 0.0713(7) 1.0694(5) 0.2678(4)
H57A H 0.1285(7) 1.0495(5) 0.3011(4)
H58A H 0.0427(7) 1.0153(5) 0.2569(4)
C57A C -0.0177(7) 1.1293(7) 0.3026(4)
H59A H -0.0500(7) 1.0982(7) 0.3476(4)
H60A H 0.0108(7) 1.1824(7) 0.3140(4)
H61A H -0.0749(7) 1.1482(7) 0.2699(4)
H40A H 0.0901(4) 1.0249(3) -0.0322(3)
H41A H 0.1192(4) 0.9778(3) 0.0456(3)
S4A S 0.19457(11) 0.88627(10) -0.10678(8)
O15A O 0.0852(3) 0.9319(3) -0.1196(2)
O16A O 0.2120(4) 0.7880(3) -0.0914(2)
C58A C 0.2914(4) 0.9124(3) -0.1843(3)
C59A C 0.2784(5) 0.9967(4) -0.2248(3)
H62A H 0.2168(5) 1.0409(4) -0.2116(3)
C60A C 0.3558(5) 1.0158(4) -0.2844(3)
H63A H 0.3469(5) 1.0738(4) -0.3104(3)
C61A C 0.4458(5) 0.9522(4) -0.3069(3)
C62A C 0.4585(6) 0.8686(5) -0.2652(4)
H64A H 0.5201(6) 0.8246(5) -0.2787(4)
C63A C 0.3829(6) 0.8479(4) -0.2043(4)
H65A H 0.3937(6) 0.7908(4) -0.1769(4)
C64A C 0.5289(6) 0.9726(5) -0.3747(4)
H66A H 0.5858(6) 0.9199(5) -0.3815(4)
H67A H 0.4893(6) 0.9866(5) -0.4177(4)
H68A H 0.5641(6) 1.0244(5) -0.3677(4)
H42A H 0.2964(4) 0.8636(3) 0.0511(3)
H43A H 0.3579(4) 0.8272(3) -0.0236(3)
loop_
_geom_bond_atom_site_label_1
_geom_bond_atom_site_label_2
_geom_bond_site_symmetry_1
_geom_bond_site_symmetry_2
C1 H1 1_555 1_555
H2 C1 1_555 1_555
N1 C1 1_555 1_555
C2 N1 1_555 1_555
H3 C2 1_555 1_555
H4 C2 1_555 1_555
C3 C2 1_555 1_555
C4 C3 1_555 1_555
C5 C4 1_555 1_555
H5 C5 1_555 1_555
C6 C5 1_555 1_555
C7 C6 1_555 1_555
N2 C3 1_555 1_555
C8 C7 1_555 1_555
H6 C8 1_555 1_555
H7 C8 1_555 1_555
N3 C8 1_555 1_555
C9 N3 1_555 1_555
H8 C9 1_555 1_555
H9 C9 1_555 1_555
C10 C9 1_555 1_555
C11 C10 1_555 1_555
H10 C11 1_555 1_555
C12 C1 1_555 1_555
S1 N1 1_555 1_555
O1 S1 1_555 1_555
O2 S1 1_555 1_555
C13 S1 1_555 1_555
C14 C13 1_555 1_555
H11 C14 1_555 1_555
C15 C14 1_555 1_555
H12 C15 1_555 1_555
C16 C15 1_555 1_555
C17 C16 1_555 1_555
H13 C17 1_555 1_555
C18 C13 1_555 1_555
H14 C18 1_555 1_555
C19 C16 1_555 1_555
H15 C19 1_555 1_555
H16 C19 1_555 1_555
H17 C19 1_555 1_555
C20 C4 1_555 1_555
O3 C20 1_555 1_555
O4 C20 1_555 1_555
C21 O4 1_555 1_555
H18 C21 1_555 1_555
H19 C21 1_555 1_555
C22 C21 1_555 1_555
H20 C22 1_555 1_555
H21 C22 1_555 1_555
H22 C22 1_555 1_555
C23 C6 1_555 1_555
O5 C23 1_555 1_555
O6 C23 1_555 1_555
C24 O6 1_555 1_555
H23 C24 1_555 1_555
H24 C24 1_555 1_555
C25 C24 1_555 1_555
H25 C25 1_555 1_555
H26 C25 1_555 1_555
H27 C25 1_555 1_555
S2 N3 1_555 1_555
O7 S2 1_555 1_555
O8 S2 1_555 1_555
C26 S2 1_555 1_555
C27 C26 1_555 1_555
H28 C27 1_555 1_555
C28 C27 1_555 1_555
H29 C28 1_555 1_555
C29 C28 1_555 1_555
C30 C29 1_555 1_555
H30 C30 1_555 1_555
C31 C26 1_555 1_555
H31 C31 1_555 1_555
C32 C29 1_555 1_555
H32 C32 1_555 1_555
H33 C32 1_555 1_555
H34 C32 1_555 1_555
C33 H35 1_555 1_555
H36 C33 1_555 1_555
N4 C33 1_555 1_555
C34 N4 1_555 1_555
H37 C34 1_555 1_555
H38 C34 1_555 1_555
C35 C34 1_555 1_555
C36 C35 1_555 1_555
C37 C36 1_555 1_555
H39 C37 1_555 1_555
C38 C37 1_555 1_555
C39 C38 1_555 1_555
N5 C35 1_555 1_555
C40 C39 1_555 1_555
H40 C40 1_555 1_555
H41 C40 1_555 1_555
N6 C40 1_555 1_555
C41 N6 1_555 1_555
H42 C41 1_555 1_555
H43 C41 1_555 1_555
C42 C41 1_555 1_555
C43 C42 1_555 1_555
H44 C43 1_555 1_555
C44 C33 1_555 1_555
S3 N4 1_555 1_555
O9 S3 1_555 1_555
O10 S3 1_555 1_555
C45 S3 1_555 1_555
C46 C45 1_555 1_555
H45 C46 1_555 1_555
C47 C46 1_555 1_555
H46 C47 1_555 1_555
C48 C47 1_555 1_555
C49 C48 1_555 1_555
H47 C49 1_555 1_555
C50 C45 1_555 1_555
H48 C50 1_555 1_555
C51 C48 1_555 1_555
H49 C51 1_555 1_555
H50 C51 1_555 1_555
H51 C51 1_555 1_555
C52 C36 1_555 1_555
O11 C52 1_555 1_555
O12 C52 1_555 1_555
C53 O12 1_555 1_555
H52 C53 1_555 1_555
H53 C53 1_555 1_555
C54 C53 1_555 1_555
H54 C54 1_555 1_555
H55 C54 1_555 1_555
H56 C54 1_555 1_555
C55 C38 1_555 1_555
O13 C55 1_555 1_555
O14 C55 1_555 1_555
C56 O14 1_555 1_555
H57 C56 1_555 1_555
H58 C56 1_555 1_555
C57 C56 1_555 1_555
H59 C57 1_555 1_555
H60 C57 1_555 1_555
H61 C57 1_555 1_555
S4 N6 1_555 1_555
O15 S4 1_555 1_555
O16 S4 1_555 1_555
C58 S4 1_555 1_555
C59 C58 1_555 1_555
H62 C59 1_555 1_555
C60 C59 1_555 1_555
H63 C60 1_555 1_555
C61 C60 1_555 1_555
C62 C61 1_555 1_555
H64 C62 1_555 1_555
C63 C58 1_555 1_555
H65 C63 1_555 1_555
C64 C61 1_555 1_555
H66 C64 1_555 1_555
H67 C64 1_555 1_555
H68 C64 1_555 1_555
C10A C12 1_555 1_555
C9A C10A 1_555 1_555
N3A C9A 1_555 1_555
C8A N3A 1_555 1_555
C7A C8A 1_555 1_555
C6A C7A 1_555 1_555
C5A C6A 1_555 1_555
C4A C5A 1_555 1_555
C3A C4A 1_555 1_555
C2A C3A 1_555 1_555
N1A C2A 1_555 1_555
C1A N1A 1_555 1_555
H1A C1A 1_555 1_555
H2A C1A 1_555 1_555
C12A C10 1_555 1_555
C11A C10A 1_555 1_555
H10A C11A 1_555 1_555
S1A N1A 1_555 1_555
O1A S1A 1_555 1_555
O2A S1A 1_555 1_555
C13A S1A 1_555 1_555
C14A C13A 1_555 1_555
H11A C14A 1_555 1_555
C15A C14A 1_555 1_555
H12A C15A 1_555 1_555
C16A C15A 1_555 1_555
C17A C16A 1_555 1_555
H13A C17A 1_555 1_555
C18A C13A 1_555 1_555
H14A C18A 1_555 1_555
C19A C16A 1_555 1_555
H15A C19A 1_555 1_555
H16A C19A 1_555 1_555
H17A C19A 1_555 1_555
H3A C2A 1_555 1_555
H4A C2A 1_555 1_555
N2A C7A 1_555 1_555
C20A C4A 1_555 1_555
O3A C20A 1_555 1_555
O4A C20A 1_555 1_555
C21A O4A 1_555 1_555
H18A C21A 1_555 1_555
H19A C21A 1_555 1_555
C22A C21A 1_555 1_555
H20A C22A 1_555 1_555
H21A C22A 1_555 1_555
H22A C22A 1_555 1_555
H5A C5A 1_555 1_555
C23A C6A 1_555 1_555
O5A C23A 1_555 1_555
O6A C23A 1_555 1_555
C24A O6A 1_555 1_555
H23A C24A 1_555 1_555
H24A C24A 1_555 1_555
C25A C24A 1_555 1_555
H25A C25A 1_555 1_555
H26A C25A 1_555 1_555
H27A C25A 1_555 1_555
H6A C8A 1_555 1_555
H7A C8A 1_555 1_555
S2A N3A 1_555 1_555
O7A S2A 1_555 1_555
O8A S2A 1_555 1_555
C26A S2A 1_555 1_555
C27A C26A 1_555 1_555
H28A C27A 1_555 1_555
C28A C27A 1_555 1_555
H29A C28A 1_555 1_555
C29A C28A 1_555 1_555
C30A C29A 1_555 1_555
H30A C30A 1_555 1_555
C31A C26A 1_555 1_555
H31A C31A 1_555 1_555
C32A C29A 1_555 1_555
H32A C32A 1_555 1_555
H33A C32A 1_555 1_555
H34A C32A 1_555 1_555
H8A C9A 1_555 1_555
H9A C9A 1_555 1_555
C42A C44 1_555 1_555
C41A C42A 1_555 1_555
N6A C41A 1_555 1_555
C40A N6A 1_555 1_555
C39A C40A 1_555 1_555
C38A C39A 1_555 1_555
C37A C38A 1_555 1_555
C36A C37A 1_555 1_555
C35A C36A 1_555 1_555
C34A C35A 1_555 1_555
N4A C34A 1_555 1_555
C33A N4A 1_555 1_555
H35A C33A 1_555 1_555
H36A C33A 1_555 1_555
C44A C42 1_555 1_555
C43A C42A 1_555 1_555
H44A C43A 1_555 1_555
S3A N4A 1_555 1_555
O9A S3A 1_555 1_555
O10A S3A 1_555 1_555
C45A S3A 1_555 1_555
C46A C45A 1_555 1_555
H45A C46A 1_555 1_555
C47A C46A 1_555 1_555
H46A C47A 1_555 1_555
C48A C47A 1_555 1_555
C49A C48A 1_555 1_555
H47A C49A 1_555 1_555
C50A C45A 1_555 1_555
H48A C50A 1_555 1_555
C51A C48A 1_555 1_555
H49A C51A 1_555 1_555
H50A C51A 1_555 1_555
H51A C51A 1_555 1_555
H37A C34A 1_555 1_555
H38A C34A 1_555 1_555
N5A C39A 1_555 1_555
C52A C36A 1_555 1_555
O11A C52A 1_555 1_555
O12A C52A 1_555 1_555
C53A O12A 1_555 1_555
H52A C53A 1_555 1_555
H53A C53A 1_555 1_555
C54A C53A 1_555 1_555
H54A C54A 1_555 1_555
H55A C54A 1_555 1_555
H56A C54A 1_555 1_555
H39A C37A 1_555 1_555
C55A C38A 1_555 1_555
O13A C55A 1_555 1_555
O14A C55A 1_555 1_555
C56A O14A 1_555 1_555
H57A C56A 1_555 1_555
H58A C56A 1_555 1_555
C57A C56A 1_555 1_555
H59A C57A 1_555 1_555
H60A C57A 1_555 1_555
H61A C57A 1_555 1_555
H40A C40A 1_555 1_555
H41A C40A 1_555 1_555
S4A N6A 1_555 1_555
O15A S4A 1_555 1_555
O16A S4A 1_555 1_555
C58A S4A 1_555 1_555
C59A C58A 1_555 1_555
H62A C59A 1_555 1_555
C60A C59A 1_555 1_555
H63A C60A 1_555 1_555
C61A C60A 1_555 1_555
C62A C61A 1_555 1_555
H64A C62A 1_555 1_555
C63A C58A 1_555 1_555
H65A C63A 1_555 1_555
C64A C61A 1_555 1_555
H66A C64A 1_555 1_555
H67A C64A 1_555 1_555
H68A C64A 1_555 1_555
H42A C41A 1_555 1_555
H43A C41A 1_555 1_555
C7 N2 1_555 1_555
C11 C12 1_555 1_555
C17 C18 1_555 1_555
C30 C31 1_555 1_555
C39 N5 1_555 1_555
C43 C44 1_555 1_555
C49 C50 1_555 1_555
C62 C63 1_555 1_555
C3A N2A 1_555 1_555
C1A C12A 1_555 1_555
C12A C11A 1_555 1_555
C17A C18A 1_555 1_555
C30A C31A 1_555 1_555
C35A N5A 1_555 1_555
C33A C44A 1_555 1_555
C44A C43A 1_555 1_555
C49A C50A 1_555 1_555
C62A C63A 1_555 1_555

#END
