
#######################################################################
#
#                 Cambridge Crystallographic Data Centre
#                                CCDC 
#
#######################################################################
#
# If this CIF has been generated from an entry in the Cambridge 
# Structural Database, then it will include bibliographic, chemical, 
# crystal, experimental, refinement or atomic coordinate data resulting 
# from the CCDC's data processing and validation procedures.
#
#######################################################################

data_REGDUF
_chemical_formula_moiety         'C42 H42 N28 O14,C9 H14 N1 1+,13(H2 O1),Cl1 1-'
_chemical_name_systematic        
'1-phenylpropan-2-aminium chloride cucurbit[7]uril tridecahydrate'
_symmetry_cell_setting           triclinic
_symmetry_space_group_name_H-M   'P -1'
_symmetry_Int_Tables_number      2
_space_group_name_Hall           '-P 1'
loop_
_symmetry_equiv_pos_site_id
_symmetry_equiv_pos_as_xyz
1 x,y,z
2 -x,-y,-z
_cell_length_a                   22.108(4)
_cell_length_b                   22.470(5)
_cell_length_c                   22.473(5)
_cell_angle_alpha                99.67(3)
_cell_angle_beta                 103.58(3)
_cell_angle_gamma                100.83(3)
_cell_volume                     10392.1
_exptl_crystal_colour            colorless
_exptl_crystal_description       Block
_cell_formula_units_Z            6
loop_
_atom_site_label
_atom_site_type_symbol
_atom_site_fract_x
_atom_site_fract_y
_atom_site_fract_z
Cl1 Cl 0.9314(2) 0.7302(2) 0.0320(2)
Cl2 Cl 0.9462(6) 0.0627(6) 0.2622(9)
Cl3 Cl 0.5964(4) 0.9018(4) 0.4658(4)
Cl4 Cl 0.5366(7) 0.5366(6) 0.4399(7)
O1 O 0.4473(10) 0.5337(8) 0.5011(9)
O2 O 0.5259(5) 0.4476(4) 0.3541(5)
O3 O 0.5552(4) 0.6443(4) 0.4584(4)
O4 O 0.3321(6) 0.5305(5) 0.4315(4)
O5 O 0.024(2) 0.0617(19) 0.056(3)
O6 O 0.5210(5) 0.4113(4) 0.0873(5)
O7 O 0.0309(5) 0.6190(6) 0.4429(5)
O8 O 0.7618(5) 0.3047(5) 0.0256(5)
O9 O 0.0935(5) 0.5300(5) 0.3943(5)
O10 O 0.2203(6) 0.0042(6) 0.3294(7)
O11 O 0.1041(5) 0.9542(5) 0.3520(5)
O12 O 0.6267(5) 0.4338(4) 0.0351(4)
O13 O 0.5575(5) 0.9452(5) 0.1355(7)
O14 O 0.6640(5) 0.9891(6) 0.2451(6)
O15 O 0.0732(6) 0.8811(8) 0.4343(6)
O16 O 0.9483(5) 0.3550(6) 0.1123(6)
O17 O 0.8514(5) 0.4158(5) 0.0751(5)
O18 O 0.0246(7) 0.7638(7) 0.3406(6)
O19 O 0.5735(7) 0.6936(7) 0.9939(6)
O20 O 0.2029(7) 0.2716(6) 0.0576(6)
O21 O 0.0175(8) 0.9639(7) 0.2472(8)
O22 O 0.9027(10) 0.1609(11) 0.0723(9)
O23 O 0.0590(8) 0.9332(8) 0.1398(8)
O24 O 0.2279(7) 0.0684(7) 0.2309(10)
O25 O 0.6354(9) 0.9221(7) 0.0532(7)
O26 O 0.9186(10) 0.0467(10) 0.1203(9)
O27 O 0.9542(10) 0.8703(9) 0.0472(11)
O28 O -0.0025(11) 0.2519(16) 0.0748(11)
O29 O 0.0132(7) 0.2971(8) 0.2156(8)
O30 O -0.0197(13) 0.342(3) 0.244(2)
O31 O 0.0857(11) 0.2737(9) 0.2152(8)
O32 O 0.0466(8) 0.1731(10) 0.2563(7)
O33 O 0.0028(6) 0.4200(7) 0.3408(11)
O34 O 0.2545(19) 0.9651(10) 0.0148(11)
O35 O 0.2238(18) 1.008(2) 0.087(3)
O36 O 0.6749(9) 0.9883(6) 0.5686(7)
O37 O 0.2673(6) 0.1372(11) 0.0093(7)
O38 O 0.8559(8) 0.9248(9) 0.0776(8)
O39 O 0.2435(6) 0.2669(6) 0.2480(6)
O40 O 0.2035(19) 0.213(2) 0.176(3)
O41 O 0.2972(6) 0.2367(10) 0.0120(6)
O42 O 0.4513(4) 0.6791(4) 0.8478(4)
O43 O 0.2725(4) 0.6752(4) 0.8412(4)
O44 O 0.1443(4) 0.6568(4) 0.7053(4)
O45 O 0.1767(4) 0.6505(4) 0.5472(4)
O46 O 0.3058(4) 0.6408(4) 0.4736(4)
O47 O 0.4738(4) 0.6549(4) 0.5585(5)
O48 O 0.5436(4) 0.6687(4) 0.7267(4)
O49 O 0.5141(4) 0.9672(4) 0.8977(4)
O50 O 0.3409(4) 0.9576(4) 0.8754(4)
O51 O 0.2134(4) 0.9386(4) 0.7277(4)
O52 O 0.2126(4) 0.9245(4) 0.5610(4)
O53 O 0.3472(4) 0.9234(4) 0.5049(4)
O54 O 0.5220(4) 0.9388(4) 0.6016(4)
O55 O 0.5880(4) 0.9532(4) 0.7668(4)
N1 N 0.5315(5) 0.7680(5) 0.8771(5)
N2 N 0.4469(5) 0.7683(4) 0.9131(4)
N3 N 0.3362(5) 0.7675(4) 0.9050(5)
N4 N 0.2327(5) 0.7614(4) 0.8618(4)
N5 N 0.1485(5) 0.7506(4) 0.7692(5)
N6 N 0.1099(5) 0.7375(4) 0.6659(4)
N7 N 0.1241(5) 0.7297(4) 0.5604(4)
N8 N 0.1702(5) 0.7205(4) 0.4835(5)
N9 N 0.2617(5) 0.7185(5) 0.4402(5)
N10 N 0.3642(5) 0.7251(4) 0.4477(5)
N11 N 0.4730(5) 0.7354(5) 0.5050(5)
N12 N 0.5522(6) 0.7471(5) 0.5921(5)
N13 N 0.5993(5) 0.7548(5) 0.7020(5)
N14 N 0.5931(5) 0.7612(5) 0.7993(5)
N15 N 0.5588(5) 0.8815(4) 0.8990(5)
N16 N 0.4726(5) 0.8829(5) 0.9340(5)
N17 N 0.3614(5) 0.8802(4) 0.9281(5)
N18 N 0.2621(5) 0.8731(5) 0.8715(5)
N19 N 0.1768(4) 0.8620(4) 0.7769(5)
N20 N 0.1374(5) 0.8487(4) 0.6737(5)
N21 N 0.1373(5) 0.8398(4) 0.5638(5)
N22 N 0.1851(5) 0.8309(5) 0.4887(5)
N23 N 0.2776(5) 0.8294(4) 0.4508(5)
N24 N 0.3808(5) 0.8380(5) 0.4645(5)
N25 N 0.4882(5) 0.8465(5) 0.5255(5)
N26 N 0.5744(5) 0.8600(4) 0.6066(5)
N27 N 0.6152(5) 0.8668(5) 0.7178(5)
N28 N 0.6101(5) 0.8731(5) 0.8154(5)
C1 C 0.4744(6) 0.7321(7) 0.8748(6)
C2 C 0.3899(5) 0.7427(5) 0.9298(6)
H1 H 0.3781 0.6970 0.9140
H2 H 0.3993 0.7512 0.9761
C3 C 0.2797(6) 0.7292(6) 0.8654(6)
C4 C 0.1673(6) 0.7344(5) 0.8287(5)
H3 H 0.1400 0.7480 0.8550
H4 H 0.1597 0.6886 0.8220
C5 C 0.1357(6) 0.7091(6) 0.7119(6)
C6 C 0.0878(6) 0.7036(6) 0.5995(6)
H5 H 0.0906 0.6599 0.5974
H6 H 0.0423 0.7036 0.5825
C7 C 0.1585(6) 0.6956(6) 0.5319(6)
C8 C 0.1952(6) 0.6899(6) 0.4363(6)
H7 H 0.1679 0.6895 0.3944
H8 H 0.1922 0.6462 0.4399
C9 C 0.3099(7) 0.6895(7) 0.4555(6)
C10 C 0.4224(6) 0.7033(6) 0.4505(6)
H9 H 0.4131 0.6583 0.4502
H10 H 0.4366 0.7086 0.4127
C11 C 0.4968(7) 0.7064(7) 0.5522(7)
C12 C 0.5963(7) 0.7263(7) 0.6394(7)
H11 H 0.5824 0.6807 0.6332
H12 H 0.6397 0.7360 0.6332
C13 C 0.5749(6) 0.7236(7) 0.7422(7)
C14 C 0.5785(6) 0.7404(6) 0.8540(6)
H13 H 0.5625 0.6947 0.8427
H14 H 0.6187 0.7505 0.8883
C15 C 0.5501(6) 0.8257(5) 0.9227(6)
H15 H 0.5884 0.8267 0.9573
C16 C 0.4900(6) 0.8266(5) 0.9480(5)
H16 H 0.5009 0.8285 0.9942
C17 C 0.3255(6) 0.8237(6) 0.9383(6)
H17 H 0.3312 0.8244 0.9839
C18 C 0.2552(6) 0.8231(6) 0.9035(6)
H18 H 0.2286 0.8292 0.9334
C19 C 0.1274(6) 0.8066(6) 0.7629(6)
H19 H 0.0944 0.8121 0.7857
C20 C 0.0988(6) 0.7968(5) 0.6890(6)
H20 H 0.0522 0.7966 0.6772
C21 C 0.1063(6) 0.7760(5) 0.5277(6)
H21 H 0.0588 0.7693 0.5116
C22 C 0.1399(6) 0.7713(5) 0.4736(6)
H22 H 0.1089 0.7626 0.4311
C23 C 0.2805(6) 0.7715(5) 0.4140(6)
H23 H 0.2563 0.7649 0.3690
C24 C 0.3507(6) 0.7775(6) 0.4221(6)
H24 H 0.3610 0.7759 0.3809
C25 C 0.5140(6) 0.7944(6) 0.5090(6)
H25 H 0.5286 0.7953 0.4702
C26 C 0.5706(6) 0.7999(6) 0.5668(6)
H26 H 0.6112 0.7996 0.5545
C27 C 0.6393(6) 0.8143(6) 0.7341(6)
H27 H 0.6843 0.8177 0.7313
C28 C 0.6352(6) 0.8181(6) 0.8029(6)
H28 H 0.6782 0.8228 0.8326
C29 C 0.5161(7) 0.9154(7) 0.9082(6)
C30 C 0.4281(6) 0.9089(6) 0.9611(6)
H29 H 0.4362 0.9539 0.9614
H30 H 0.4359 0.9046 1.0052
C31 C 0.3241(6) 0.9085(6) 0.8897(6)
C32 C 0.2097(6) 0.8970(6) 0.8408(6)
H31 H 0.2264 0.9408 0.8398
H32 H 0.1784 0.8965 0.8659
C33 C 0.1795(6) 0.8881(6) 0.7252(6)
C34 C 0.1160(6) 0.8682(6) 0.6150(6)
H33 H 0.0686 0.8584 0.6023
H34 H 0.1315 0.9139 0.6228
C35 C 0.1811(6) 0.8701(6) 0.5402(6)
C36 C 0.2208(6) 0.8512(6) 0.4464(6)
H35 H 0.1930 0.8364 0.4027
H36 H 0.2322 0.8972 0.4556
C37 C 0.3362(7) 0.8680(7) 0.4755(6)
C38 C 0.4474(6) 0.8692(6) 0.4794(6)
H37 H 0.4615 0.8640 0.4406
H38 H 0.4523 0.9142 0.4951
C39 C 0.5273(6) 0.8871(6) 0.5805(6)
C40 C 0.6241(6) 0.8893(6) 0.6632(6)
H39 H 0.6269 0.9346 0.6715
H40 H 0.6654 0.8830 0.6567
C41 C 0.6031(5) 0.9022(7) 0.7666(6)
C42 C 0.6133(6) 0.9050(6) 0.8779(7)
H41 H 0.6526 0.9013 0.9075
H42 H 0.6167 0.9497 0.8787
O56 O 0.4401(4) 0.5442(4) 0.3402(4)
O57 O 0.5231(4) 0.7001(4) 0.3575(4)
O58 O 0.4411(4) 0.8252(4) 0.3421(4)
O59 O 0.2774(4) 0.8609(4) 0.3285(4)
O60 O 0.1357(4) 0.7499(4) 0.3029(4)
O61 O 0.1310(4) 0.5709(4) 0.2950(5)
O62 O 0.2576(4) 0.4821(4) 0.3161(5)
O63 O 0.3832(4) 0.4936(4) 0.0537(4)
O64 O 0.4737(5) 0.6699(4) 0.0737(4)
O65 O 0.4240(4) 0.8161(4) 0.0713(4)
O66 O 0.2628(4) 0.8222(4) 0.0519(4)
O67 O 0.1260(4) 0.6982(4) 0.0228(4)
O68 O 0.0981(4) 0.5172(4) 0.0065(5)
O69 O 0.2245(4) 0.4324(4) 0.0292(5)
N29 N 0.3993(5) 0.4712(5) 0.2462(5)
N30 N 0.4929(5) 0.5390(5) 0.2615(5)
N31 N 0.5461(4) 0.6457(4) 0.2723(5)
N32 N 0.5505(5) 0.7455(5) 0.2796(5)
N33 N 0.5074(5) 0.8370(4) 0.2787(4)
N34 N 0.4270(4) 0.8842(4) 0.2673(4)
N35 N 0.3210(4) 0.9039(4) 0.2570(4)
N36 N 0.2155(5) 0.8700(4) 0.2332(5)
N37 N 0.1181(4) 0.7922(5) 0.2160(5)
N38 N 0.0809(4) 0.6911(4) 0.2046(5)
N39 N 0.0722(5) 0.5822(5) 0.2004(5)
N40 N 0.1051(5) 0.4949(5) 0.2053(5)
N41 N 0.1857(6) 0.4346(5) 0.2192(5)
N42 N 0.2868(5) 0.4273(5) 0.2352(5)
N43 N 0.3872(5) 0.4412(5) 0.1334(5)
N44 N 0.4616(4) 0.5269(4) 0.1482(4)
N45 N 0.5196(5) 0.6327(4) 0.1594(5)
N46 N 0.5337(4) 0.7338(5) 0.1679(4)
N47 N 0.4967(4) 0.8286(4) 0.1678(5)
N48 N 0.4258(5) 0.8859(4) 0.1589(4)
N49 N 0.3157(5) 0.8915(4) 0.1462(5)
N50 N 0.2094(5) 0.8557(5) 0.1224(5)
N51 N 0.1198(5) 0.7701(5) 0.1062(5)
N52 N 0.0704(5) 0.6712(5) 0.0917(5)
N53 N 0.0588(5) 0.5610(5) 0.0874(5)
N54 N 0.0889(5) 0.4726(5) 0.0909(5)
N55 N 0.1728(5) 0.4162(5) 0.1055(5)
N56 N 0.2741(5) 0.4074(5) 0.1217(5)
C43 C 0.4453(7) 0.5217(6) 0.2882(7)
C44 C 0.5492(6) 0.5891(6) 0.2936(6)
H43 H 0.5537 0.5971 0.3392
H44 H 0.5877 0.5759 0.2866
C45 C 0.5396(5) 0.6979(7) 0.3078(6)
C46 C 0.5570(6) 0.8100(5) 0.3121(6)
H45 H 0.5535 0.8107 0.3553
H46 H 0.5997 0.8353 0.3150
C47 C 0.4571(5) 0.8461(5) 0.3011(6)
C48 C 0.3880(5) 0.9199(6) 0.2936(6)
H47 H 0.4061 0.9646 0.2972
H48 H 0.3902 0.9136 0.3366
C49 C 0.2724(6) 0.8769(6) 0.2788(7)
C50 C 0.1537(6) 0.8546(5) 0.2461(5)
H49 H 0.1606 0.8601 0.2921
H50 H 0.1282 0.8838 0.2319
C51 C 0.1142(6) 0.7447(6) 0.2463(7)
C52 C 0.0532(6) 0.6372(6) 0.2248(6)
H51 H 0.0059 0.6295 0.2108
H52 H 0.0664 0.6458 0.2712
C53 C 0.1053(6) 0.5505(6) 0.2393(7)
C54 C 0.1293(6) 0.4478(6) 0.2350(7)
H53 H 0.1394 0.4620 0.2811
H54 H 0.0952 0.4089 0.2221
C55 C 0.2453(7) 0.4520(7) 0.2625(8)
C56 C 0.3529(6) 0.4320(6) 0.2679(6)
H55 H 0.3609 0.3898 0.2630
H56 H 0.3596 0.4486 0.3133
C57 C 0.4260(6) 0.4474(6) 0.1955(6)
H57 H 0.4388 0.4078 0.2009
C58 C 0.4841(6) 0.4991(6) 0.2014(6)
H58 H 0.5228 0.4829 0.1989
C59 C 0.5692(6) 0.6585(5) 0.2188(6)
H59 H 0.6103 0.6460 0.2185
C60 C 0.5761(6) 0.7289(6) 0.2267(5)
H60 H 0.6214 0.7522 0.2340
C61 C 0.5162(6) 0.8690(5) 0.2303(5)
H61 H 0.5600 0.8968 0.2405
C62 C 0.4617(5) 0.9060(5) 0.2256(5)
H62 H 0.4797 0.9520 0.2382
C63 C 0.2988(5) 0.9226(6) 0.1984(6)
H63 H 0.3116 0.9687 0.2040
C64 C 0.2244(5) 0.8990(6) 0.1829(6)
H64 H 0.2021 0.9337 0.1802
C65 C 0.0821(5) 0.7721(6) 0.1506(6)
H65 H 0.0488 0.7961 0.1400
C66 C 0.0514(6) 0.7033(6) 0.1440(6)
H66 H 0.0038 0.6954 0.1353
C67 C 0.0385(6) 0.5414(5) 0.1383(6)
H67 H -0.0090 0.5342 0.1304
C68 C 0.0604(6) 0.4814(6) 0.1422(7)
H68 H 0.0233 0.4458 0.1369
C69 C 0.1853(7) 0.3919(6) 0.1626(6)
H69 H 0.1555 0.3506 0.1567
C70 C 0.2554(5) 0.3859(6) 0.1721(6)
H70 H 0.2589 0.3421 0.1716
C71 C 0.4073(6) 0.4883(6) 0.1072(6)
C72 C 0.5060(6) 0.5683(6) 0.1260(6)
H71 H 0.4876 0.5653 0.0806
H72 H 0.5466 0.5546 0.1312
C73 C 0.5056(6) 0.6776(6) 0.1289(7)
C74 C 0.5386(6) 0.7908(5) 0.1468(6)
H73 H 0.5273 0.7812 0.1004
H74 H 0.5836 0.8154 0.1627
C75 C 0.4457(6) 0.8408(6) 0.1263(7)
C76 C 0.3752(6) 0.9121(6) 0.1308(6)
H75 H 0.3672 0.9011 0.0846
H76 H 0.3891 0.9579 0.1444
C77 C 0.2619(6) 0.8524(6) 0.1020(7)
C78 C 0.1456(6) 0.8249(6) 0.0846(6)
H77 H 0.1460 0.8120 0.0404
H78 H 0.1174 0.8542 0.0863
C79 C 0.1071(6) 0.7108(7) 0.0675(7)
C80 C 0.0367(6) 0.6080(5) 0.0577(6)
H79 H -0.0096 0.6030 0.0539
H80 H 0.0421 0.6017 0.0148
C81 C 0.0849(6) 0.5169(6) 0.0566(8)
C82 C 0.1099(6) 0.4177(6) 0.0698(6)
H81 H 0.1097 0.4147 0.0253
H82 H 0.0786 0.3807 0.0718
C83 C 0.2221(7) 0.4196(6) 0.0785(7)
C84 C 0.3294(6) 0.3941(6) 0.1031(6)
H83 H 0.3358 0.3540 0.1128
H84 H 0.3207 0.3894 0.0570
O70 O 0.9671(5) 0.7799(4) 0.5781(4)
O71 O 0.9441(4) 0.6104(4) 0.5190(4)
O72 O 0.9200(4) 0.5111(4) 0.3561(4)
O73 O 0.9207(4) 0.5577(4) 0.2122(4)
O74 O 0.9424(4) 0.7190(4) 0.2067(4)
O75 O 0.9646(5) 0.8620(4) 0.3276(5)
O76 O 0.9882(5) 0.9050(4) 0.4999(4)
O77 O 0.6755(4) 0.7353(4) 0.5184(4)
O78 O 0.6527(5) 0.5697(4) 0.4751(4)
O79 O 0.6308(4) 0.4854(4) 0.3134(4)
O80 O 0.6437(4) 0.5577(4) 0.1800(4)
O81 O 0.6553(4) 0.7139(4) 0.1334(4)
O82 O 0.6835(5) 0.8548(4) 0.2475(4)
O83 O 0.6909(4) 0.8605(4) 0.4164(4)
N57 N 0.8882(5) 0.8292(5) 0.5941(5)
N58 N 0.8775(5) 0.7302(5) 0.6009(5)
N59 N 0.8654(5) 0.6191(5) 0.5699(5)
N60 N 0.8485(5) 0.5354(5) 0.4946(5)
N61 N 0.8333(5) 0.4733(5) 0.3911(5)
N62 N 0.8212(5) 0.4595(4) 0.2887(5)
N63 N 0.8220(5) 0.4909(5) 0.1918(5)
N64 N 0.8326(5) 0.5609(5) 0.1356(5)
N65 N 0.8452(4) 0.6697(4) 0.1317(5)
N66 N 0.8684(5) 0.7712(5) 0.1654(5)
N67 N 0.8823(5) 0.8644(5) 0.2431(6)
N68 N 0.8965(5) 0.9258(5) 0.3350(5)
N69 N 0.9008(5) 0.9377(5) 0.4457(5)
N70 N 0.8991(5) 0.9109(5) 0.5367(5)
N71 N 0.7726(5) 0.8096(5) 0.5649(5)
N72 N 0.7607(5) 0.7147(5) 0.5862(5)
N73 N 0.7495(5) 0.6044(5) 0.5500(6)
N74 N 0.7341(5) 0.5184(5) 0.4783(5)
N75 N 0.7176(5) 0.4590(4) 0.3741(5)
N76 N 0.7072(5) 0.4500(4) 0.2713(5)
N77 N 0.7107(4) 0.4904(4) 0.1787(4)
N78 N 0.7208(4) 0.5647(4) 0.1252(4)
N79 N 0.7317(5) 0.6685(4) 0.1044(5)
N80 N 0.7550(5) 0.7709(4) 0.1366(5)
N81 N 0.7711(5) 0.8702(4) 0.2071(5)
N82 N 0.7819(5) 0.9142(5) 0.3062(5)
N83 N 0.7856(5) 0.9265(5) 0.4163(5)
N84 N 0.7826(5) 0.8855(5) 0.4995(5)
C85 C 0.9164(7) 0.7797(6) 0.5907(6)
C86 C 0.9000(6) 0.6765(6) 0.6149(6)
H85 H 0.8962 0.6721 0.6570
H86 H 0.9459 0.6835 0.6163
C87 C 0.8919(7) 0.5913(6) 0.5275(6)
C88 C 0.8690(6) 0.4872(6) 0.4569(6)
H87 H 0.9152 0.5013 0.4608
H88 H 0.8626 0.4489 0.4732
C89 C 0.8642(6) 0.4833(6) 0.3462(6)
C90 C 0.8416(6) 0.4500(6) 0.2323(6)
H89 H 0.8234 0.4063 0.2090
H90 H 0.8889 0.4572 0.2438
C91 C 0.8627(7) 0.5377(7) 0.1825(6)
C92 C 0.8620(6) 0.6113(5) 0.1120(6)
H91 H 0.8490 0.5995 0.0655
H92 H 0.9091 0.6176 0.1263
C93 C 0.8921(7) 0.7199(6) 0.1722(7)
C94 C 0.9067(7) 0.8327(7) 0.1962(8)
H93 H 0.9094 0.8577 0.1641
H94 H 0.9507 0.8298 0.2162
C95 C 0.9189(7) 0.8820(6) 0.3052(7)
C96 C 0.9284(6) 0.9589(6) 0.4004(7)
H95 H 0.9735 0.9555 0.4104
H96 H 0.9287 1.0034 0.4039
C97 C 0.9353(8) 0.9159(5) 0.4955(6)
C98 C 0.9211(6) 0.8918(6) 0.5950(6)
H97 H 0.9147 0.9211 0.6298
H98 H 0.9676 0.8942 0.6033
C99 C 0.8308(6) 0.8163(6) 0.6135(7)
H99 H 0.8332 0.8465 0.6526
C100 C 0.8254(6) 0.7485(6) 0.6239(6)
H100 H 0.8317 0.7476 0.6692
C101 C 0.8062(7) 0.5820(6) 0.5723(6)
H101 H 0.8091 0.5722 0.6145
C102 C 0.7959(6) 0.5227(6) 0.5207(6)
H102 H 0.7959 0.4851 0.5390
C103 C 0.7700(6) 0.4330(5) 0.3644(6)
H103 H 0.7676 0.3925 0.3777
C104 C 0.7618(5) 0.4235(6) 0.2924(6)
H104 H 0.7536 0.3788 0.2714
C105 C 0.7579(5) 0.4775(5) 0.1485(6)
H105 H 0.7452 0.4345 0.1215
C106 C 0.7642(6) 0.5290(5) 0.1091(6)
H106 H 0.7531 0.5110 0.0630
C107 C 0.7925(6) 0.6877(5) 0.0930(6)
H107 H 0.7898 0.6751 0.0474
C108 C 0.8095(6) 0.7582(6) 0.1153(6)
H108 H 0.8156 0.7794 0.0807
C109 C 0.8381(7) 0.9040(6) 0.2297(7)
H109 H 0.8502 0.9323 0.2022
C110 C 0.8416(7) 0.9400(6) 0.2961(6)
H110 H 0.8479 0.9857 0.2985
C111 C 0.8464(6) 0.9559(6) 0.4608(6)
H111 H 0.8531 1.0021 0.4687
C112 C 0.8415(6) 0.9328(6) 0.5215(6)
H112 H 0.8402 0.9668 0.5558
C113 C 0.7312(8) 0.7521(8) 0.5520(6)
C114 C 0.7325(6) 0.6537(6) 0.5881(7)
H113 H 0.6853 0.6476 0.5747
H114 H 0.7444 0.6495 0.6323
C115 C 0.7069(7) 0.5652(7) 0.4980(7)
C116 C 0.6997(6) 0.4633(6) 0.4316(6)
H115 H 0.7069 0.4266 0.4488
H116 H 0.6534 0.4617 0.4225
C117 C 0.6813(7) 0.4667(5) 0.3185(6)
C118 C 0.6767(6) 0.4461(6) 0.2077(6)
H117 H 0.6333 0.4531 0.2045
H118 H 0.6718 0.4035 0.1837
C119 C 0.6884(6) 0.5401(6) 0.1636(6)
C120 C 0.6947(5) 0.6044(5) 0.0860(6)
H119 H 0.6928 0.5872 0.0419
H120 H 0.6503 0.6036 0.0880
C121 C 0.7085(7) 0.7162(6) 0.1257(5)
C122 C 0.7397(6) 0.8298(6) 0.1457(6)
H121 H 0.6928 0.8232 0.1387
H122 H 0.7512 0.8513 0.1135
C123 C 0.7389(7) 0.8759(6) 0.2523(7)
C124 C 0.7590(6) 0.9436(6) 0.3576(6)
H123 H 0.7713 0.9893 0.3635
H124 H 0.7116 0.9306 0.3462
C125 C 0.7486(7) 0.8896(7) 0.4414(6)
C126 C 0.7519(6) 0.8624(6) 0.5432(6)
H125 H 0.7051 0.8497 0.5234
H126 H 0.7599 0.8966 0.5802
N85 N 0.3468(5) 0.9523(6) 0.6398(6)
H127 H 0.3811 0.9816 0.6393
H128 H 0.3306 0.9666 0.6716
H129 H 0.3162 0.9441 0.6025
C127 C 0.3790(7) 0.6874(7) 0.6983(8)
H130 H 0.3971 0.6543 0.7097
C128 C 0.3786(8) 0.7022(7) 0.6437(9)
H131 H 0.3958 0.6783 0.6158
C129 C 0.3530(7) 0.7203(8) 0.7378(7)
H132 H 0.3513 0.7094 0.7765
C130 C 0.3547(8) 0.7502(8) 0.6255(7)
H133 H 0.3549 0.7586 0.5854
C131 C 0.3297(6) 0.7685(7) 0.7221(7)
H134 H 0.3121 0.7912 0.7505
C132 C 0.3305(7) 0.7862(7) 0.6654(8)
C133 C 0.3105(8) 0.8431(8) 0.6507(10)
H135 H 0.2904 0.8601 0.6827
H136 H 0.2784 0.8322 0.6093
C134 C 0.3680(8) 0.8922(8) 0.6499(9)
H137 H 0.3837 0.8763 0.6134
C135 C 0.4255(7) 0.9087(7) 0.7109(8)
H138 H 0.4603 0.9405 0.7068
H139 H 0.4409 0.8713 0.7167
H140 H 0.4112 0.9245 0.7473
N86 N 0.3463(7) 0.6724(10) 0.0432(7)
H141 H 0.3830 0.7029 0.0577
H142 H 0.3134 0.6886 0.0258
H143 H 0.3511 0.6419 0.0137
C136 C 0.2812(8) 0.6332(6) 0.3009(6)
H144 H 0.2653 0.6129 0.3298
C137 C 0.2464(7) 0.6678(7) 0.2679(7)
H145 H 0.2084 0.6749 0.2775
C138 C 0.3378(8) 0.6285(8) 0.2914(7)
H146 H 0.3635 0.6078 0.3169
C139 C 0.2657(7) 0.6923(7) 0.2215(8)
H147 H 0.2396 0.7138 0.1977
C140 C 0.3597(7) 0.6521(7) 0.2473(7)
H148 H 0.3996 0.6466 0.2411
C141 C 0.3228(7) 0.6859(6) 0.2091(7)
C142 C 0.3425(10) 0.7050(8) 0.1530(11)
H149 H 0.3882 0.7273 0.1663
H150 H 0.3168 0.7334 0.1368
C143 C 0.3316(13) 0.6448(13) 0.0985(9)
H151 H 0.3661 0.6231 0.1128
C144 C 0.2750(10) 0.6005(8) 0.0784(8)
H152 H 0.2656 0.5848 0.1141
H153 H 0.2784 0.5662 0.0471
H154 H 0.2404 0.6188 0.0595
N87 N 0.9532(6) 0.6415(7) 0.3329(6)
H155 H 0.9876 0.6464 0.3663
H156 H 0.9631 0.6681 0.3084
H157 H 0.9425 0.6017 0.3100
C145 C 0.6944(6) 0.7134(8) 0.3696(7)
H158 H 0.6638 0.7294 0.3867
C146 C 0.7253(7) 0.7456(7) 0.3353(7)
H159 H 0.7159 0.7839 0.3284
C147 C 0.7069(7) 0.6581(8) 0.3799(7)
H160 H 0.6848 0.6354 0.4036
C148 C 0.7702(7) 0.7236(7) 0.3101(6)
H161 H 0.7909 0.7460 0.2852
C149 C 0.7516(7) 0.6360(6) 0.3558(7)
H162 H 0.7601 0.5974 0.3625
C150 C 0.7846(7) 0.6688(7) 0.3216(7)
C151 C 0.8393(8) 0.6482(9) 0.3018(7)
H163 H 0.8247 0.6041 0.2791
H164 H 0.8524 0.6731 0.2726
C152 C 0.8954(8) 0.6555(10) 0.3568(10)
H165 H 0.8829 0.6207 0.3773
C153 C 0.9165(7) 0.7143(9) 0.4100(8)
H166 H 0.9538 0.7115 0.4420
H167 H 0.8813 0.7181 0.4289
H168 H 0.9278 0.7509 0.3929
O84? O 0.9634(19) 0.0801(19) 0.263(3)
Cl5? Cl 0.5456(4) 0.9696(4) 0.3790(4)
O85? O 0.5194(19) 0.5254(17) 0.4411(18)
O86? O 0.4571(10) 0.5452(8) 0.4751(9)
O87? O 0.103(4) 0.066(3) 0.161(9)
loop_
_geom_bond_atom_site_label_1
_geom_bond_atom_site_label_2
_geom_bond_site_symmetry_1
_geom_bond_site_symmetry_2
O42 C1 1_555 1_555
O43 C3 1_555 1_555
O44 C5 1_555 1_555
O45 C7 1_555 1_555
O46 C9 1_555 1_555
O47 C11 1_555 1_555
O48 C13 1_555 1_555
O49 C29 1_555 1_555
O50 C31 1_555 1_555
O51 C33 1_555 1_555
O52 C35 1_555 1_555
O53 C37 1_555 1_555
O54 C39 1_555 1_555
O55 C41 1_555 1_555
N1 C1 1_555 1_555
N2 C1 1_555 1_555
N3 C2 1_555 1_555
N4 C3 1_555 1_555
N5 C4 1_555 1_555
N6 C5 1_555 1_555
N7 C6 1_555 1_555
N8 C7 1_555 1_555
N9 C8 1_555 1_555
N10 C9 1_555 1_555
N11 C10 1_555 1_555
N12 C11 1_555 1_555
N13 C12 1_555 1_555
N14 C13 1_555 1_555
N15 C15 1_555 1_555
N16 C16 1_555 1_555
N17 C17 1_555 1_555
N18 C18 1_555 1_555
N19 C19 1_555 1_555
N20 C20 1_555 1_555
N21 C21 1_555 1_555
N22 C22 1_555 1_555
N23 C23 1_555 1_555
N24 C24 1_555 1_555
N25 C25 1_555 1_555
N26 C26 1_555 1_555
N27 C27 1_555 1_555
N28 C28 1_555 1_555
C2 N2 1_555 1_555
H1 C2 1_555 1_555
H2 C2 1_555 1_555
C3 N3 1_555 1_555
C4 N4 1_555 1_555
H3 C4 1_555 1_555
H4 C4 1_555 1_555
C5 N5 1_555 1_555
C6 N6 1_555 1_555
H5 C6 1_555 1_555
H6 C6 1_555 1_555
C7 N7 1_555 1_555
C8 N8 1_555 1_555
H7 C8 1_555 1_555
H8 C8 1_555 1_555
C9 N9 1_555 1_555
C10 N10 1_555 1_555
H9 C10 1_555 1_555
H10 C10 1_555 1_555
C11 N11 1_555 1_555
C12 N12 1_555 1_555
H11 C12 1_555 1_555
H12 C12 1_555 1_555
C13 N13 1_555 1_555
C14 N1 1_555 1_555
H13 C14 1_555 1_555
H14 C14 1_555 1_555
C15 N1 1_555 1_555
H15 C15 1_555 1_555
C16 N2 1_555 1_555
H16 C16 1_555 1_555
C17 N3 1_555 1_555
H17 C17 1_555 1_555
C18 N4 1_555 1_555
H18 C18 1_555 1_555
C19 N5 1_555 1_555
H19 C19 1_555 1_555
C20 N6 1_555 1_555
H20 C20 1_555 1_555
C21 N7 1_555 1_555
H21 C21 1_555 1_555
C22 N8 1_555 1_555
H22 C22 1_555 1_555
C23 N9 1_555 1_555
H23 C23 1_555 1_555
C24 N10 1_555 1_555
H24 C24 1_555 1_555
C25 N11 1_555 1_555
H25 C25 1_555 1_555
C26 N12 1_555 1_555
H26 C26 1_555 1_555
C27 N13 1_555 1_555
H27 C27 1_555 1_555
C28 N14 1_555 1_555
H28 C28 1_555 1_555
C29 N15 1_555 1_555
C30 N16 1_555 1_555
H29 C30 1_555 1_555
H30 C30 1_555 1_555
C31 N17 1_555 1_555
C32 N18 1_555 1_555
H31 C32 1_555 1_555
H32 C32 1_555 1_555
C33 N19 1_555 1_555
C34 N20 1_555 1_555
H33 C34 1_555 1_555
H34 C34 1_555 1_555
C35 N21 1_555 1_555
C36 N22 1_555 1_555
H35 C36 1_555 1_555
H36 C36 1_555 1_555
C37 N23 1_555 1_555
C38 N24 1_555 1_555
H37 C38 1_555 1_555
H38 C38 1_555 1_555
C39 N25 1_555 1_555
C40 N26 1_555 1_555
H39 C40 1_555 1_555
H40 C40 1_555 1_555
C41 N27 1_555 1_555
C42 N15 1_555 1_555
H41 C42 1_555 1_555
H42 C42 1_555 1_555
O56 C43 1_555 1_555
O57 C45 1_555 1_555
O58 C47 1_555 1_555
O59 C49 1_555 1_555
O60 C51 1_555 1_555
O61 C53 1_555 1_555
O62 C55 1_555 1_555
O63 C71 1_555 1_555
O64 C73 1_555 1_555
O65 C75 1_555 1_555
O66 C77 1_555 1_555
O67 C79 1_555 1_555
O68 C81 1_555 1_555
O69 C83 1_555 1_555
N29 C43 1_555 1_555
N30 C43 1_555 1_555
N31 C44 1_555 1_555
N32 C45 1_555 1_555
N33 C46 1_555 1_555
N34 C47 1_555 1_555
N35 C48 1_555 1_555
N36 C49 1_555 1_555
N37 C50 1_555 1_555
N38 C51 1_555 1_555
N39 C52 1_555 1_555
N40 C53 1_555 1_555
N41 C54 1_555 1_555
N42 C55 1_555 1_555
N43 C57 1_555 1_555
N44 C58 1_555 1_555
N45 C59 1_555 1_555
N46 C60 1_555 1_555
N47 C61 1_555 1_555
N48 C62 1_555 1_555
N49 C63 1_555 1_555
N50 C64 1_555 1_555
N51 C65 1_555 1_555
N52 C66 1_555 1_555
N53 C67 1_555 1_555
N54 C68 1_555 1_555
N55 C69 1_555 1_555
N56 C70 1_555 1_555
C44 N30 1_555 1_555
H43 C44 1_555 1_555
H44 C44 1_555 1_555
C45 N31 1_555 1_555
C46 N32 1_555 1_555
H45 C46 1_555 1_555
H46 C46 1_555 1_555
C47 N33 1_555 1_555
C48 N34 1_555 1_555
H47 C48 1_555 1_555
H48 C48 1_555 1_555
C49 N35 1_555 1_555
C50 N36 1_555 1_555
H49 C50 1_555 1_555
H50 C50 1_555 1_555
C51 N37 1_555 1_555
C52 N38 1_555 1_555
H51 C52 1_555 1_555
H52 C52 1_555 1_555
C53 N39 1_555 1_555
C54 N40 1_555 1_555
H53 C54 1_555 1_555
H54 C54 1_555 1_555
C55 N41 1_555 1_555
C56 N29 1_555 1_555
H55 C56 1_555 1_555
H56 C56 1_555 1_555
C57 N29 1_555 1_555
H57 C57 1_555 1_555
C58 N30 1_555 1_555
H58 C58 1_555 1_555
C59 N31 1_555 1_555
H59 C59 1_555 1_555
C60 N32 1_555 1_555
H60 C60 1_555 1_555
C61 N33 1_555 1_555
H61 C61 1_555 1_555
C62 N34 1_555 1_555
H62 C62 1_555 1_555
C63 N35 1_555 1_555
H63 C63 1_555 1_555
C64 N36 1_555 1_555
H64 C64 1_555 1_555
C65 N37 1_555 1_555
H65 C65 1_555 1_555
C66 N38 1_555 1_555
H66 C66 1_555 1_555
C67 N39 1_555 1_555
H67 C67 1_555 1_555
C68 N40 1_555 1_555
H68 C68 1_555 1_555
C69 N41 1_555 1_555
H69 C69 1_555 1_555
C70 N42 1_555 1_555
H70 C70 1_555 1_555
C71 N43 1_555 1_555
C72 N44 1_555 1_555
H71 C72 1_555 1_555
H72 C72 1_555 1_555
C73 N45 1_555 1_555
C74 N46 1_555 1_555
H73 C74 1_555 1_555
H74 C74 1_555 1_555
C75 N47 1_555 1_555
C76 N48 1_555 1_555
H75 C76 1_555 1_555
H76 C76 1_555 1_555
C77 N49 1_555 1_555
C78 N50 1_555 1_555
H77 C78 1_555 1_555
H78 C78 1_555 1_555
C79 N51 1_555 1_555
C80 N52 1_555 1_555
H79 C80 1_555 1_555
H80 C80 1_555 1_555
C81 N53 1_555 1_555
C82 N54 1_555 1_555
H81 C82 1_555 1_555
H82 C82 1_555 1_555
C83 N55 1_555 1_555
C84 N43 1_555 1_555
H83 C84 1_555 1_555
H84 C84 1_555 1_555
O70 C85 1_555 1_555
O71 C87 1_555 1_555
O72 C89 1_555 1_555
O73 C91 1_555 1_555
O74 C93 1_555 1_555
O75 C95 1_555 1_555
O76 C97 1_555 1_555
O77 C113 1_555 1_555
O78 C115 1_555 1_555
O79 C117 1_555 1_555
O80 C119 1_555 1_555
O81 C121 1_555 1_555
O82 C123 1_555 1_555
O83 C125 1_555 1_555
N57 C85 1_555 1_555
N58 C85 1_555 1_555
N59 C86 1_555 1_555
N60 C87 1_555 1_555
N61 C88 1_555 1_555
N62 C89 1_555 1_555
N63 C90 1_555 1_555
N64 C91 1_555 1_555
N65 C92 1_555 1_555
N66 C93 1_555 1_555
N67 C94 1_555 1_555
N68 C95 1_555 1_555
N69 C96 1_555 1_555
N70 C97 1_555 1_555
N71 C99 1_555 1_555
N72 C100 1_555 1_555
N73 C101 1_555 1_555
N74 C102 1_555 1_555
N75 C103 1_555 1_555
N76 C104 1_555 1_555
N77 C105 1_555 1_555
N78 C106 1_555 1_555
N79 C107 1_555 1_555
N80 C108 1_555 1_555
N81 C109 1_555 1_555
N82 C110 1_555 1_555
N83 C111 1_555 1_555
N84 C112 1_555 1_555
C86 N58 1_555 1_555
H85 C86 1_555 1_555
H86 C86 1_555 1_555
C87 N59 1_555 1_555
C88 N60 1_555 1_555
H87 C88 1_555 1_555
H88 C88 1_555 1_555
C89 N61 1_555 1_555
C90 N62 1_555 1_555
H89 C90 1_555 1_555
H90 C90 1_555 1_555
C91 N63 1_555 1_555
C92 N64 1_555 1_555
H91 C92 1_555 1_555
H92 C92 1_555 1_555
C93 N65 1_555 1_555
C94 N66 1_555 1_555
H93 C94 1_555 1_555
H94 C94 1_555 1_555
C95 N67 1_555 1_555
C96 N68 1_555 1_555
H95 C96 1_555 1_555
H96 C96 1_555 1_555
C97 N69 1_555 1_555
C98 N57 1_555 1_555
H97 C98 1_555 1_555
H98 C98 1_555 1_555
C99 N57 1_555 1_555
H99 C99 1_555 1_555
C100 N58 1_555 1_555
H100 C100 1_555 1_555
C101 N59 1_555 1_555
H101 C101 1_555 1_555
C102 N60 1_555 1_555
H102 C102 1_555 1_555
C103 N61 1_555 1_555
H103 C103 1_555 1_555
C104 N62 1_555 1_555
H104 C104 1_555 1_555
C105 N63 1_555 1_555
H105 C105 1_555 1_555
C106 N64 1_555 1_555
H106 C106 1_555 1_555
C107 N65 1_555 1_555
H107 C107 1_555 1_555
C108 N66 1_555 1_555
H108 C108 1_555 1_555
C109 N67 1_555 1_555
H109 C109 1_555 1_555
C110 N68 1_555 1_555
H110 C110 1_555 1_555
C111 N69 1_555 1_555
H111 C111 1_555 1_555
C112 N70 1_555 1_555
H112 C112 1_555 1_555
C113 N71 1_555 1_555
C114 N72 1_555 1_555
H113 C114 1_555 1_555
H114 C114 1_555 1_555
C115 N73 1_555 1_555
C116 N74 1_555 1_555
H115 C116 1_555 1_555
H116 C116 1_555 1_555
C117 N75 1_555 1_555
C118 N76 1_555 1_555
H117 C118 1_555 1_555
H118 C118 1_555 1_555
C119 N77 1_555 1_555
C120 N78 1_555 1_555
H119 C120 1_555 1_555
H120 C120 1_555 1_555
C121 N79 1_555 1_555
C122 N80 1_555 1_555
H121 C122 1_555 1_555
H122 C122 1_555 1_555
C123 N81 1_555 1_555
C124 N82 1_555 1_555
H123 C124 1_555 1_555
H124 C124 1_555 1_555
C125 N83 1_555 1_555
C126 N71 1_555 1_555
H125 C126 1_555 1_555
H126 C126 1_555 1_555
N85 H127 1_555 1_555
H128 N85 1_555 1_555
H129 N85 1_555 1_555
C127 H130 1_555 1_555
C128 C127 1_555 1_555
H131 C128 1_555 1_555
C129 C127 1_555 1_555
H132 C129 1_555 1_555
C130 C128 1_555 1_555
H133 C130 1_555 1_555
C131 C129 1_555 1_555
H134 C131 1_555 1_555
C132 C130 1_555 1_555
C133 C132 1_555 1_555
H135 C133 1_555 1_555
H136 C133 1_555 1_555
C134 N85 1_555 1_555
H137 C134 1_555 1_555
C135 C134 1_555 1_555
H138 C135 1_555 1_555
H139 C135 1_555 1_555
H140 C135 1_555 1_555
N86 H141 1_555 1_555
H142 N86 1_555 1_555
H143 N86 1_555 1_555
C136 H144 1_555 1_555
C137 C136 1_555 1_555
H145 C137 1_555 1_555
C138 C136 1_555 1_555
H146 C138 1_555 1_555
C139 C137 1_555 1_555
H147 C139 1_555 1_555
C140 C138 1_555 1_555
H148 C140 1_555 1_555
C141 C139 1_555 1_555
C142 C141 1_555 1_555
H149 C142 1_555 1_555
H150 C142 1_555 1_555
C143 N86 1_555 1_555
H151 C143 1_555 1_555
C144 C143 1_555 1_555
H152 C144 1_555 1_555
H153 C144 1_555 1_555
H154 C144 1_555 1_555
N87 H155 1_555 1_555
H156 N87 1_555 1_555
H157 N87 1_555 1_555
C145 H158 1_555 1_555
C146 C145 1_555 1_555
H159 C146 1_555 1_555
C147 C145 1_555 1_555
H160 C147 1_555 1_555
C148 C146 1_555 1_555
H161 C148 1_555 1_555
C149 C147 1_555 1_555
H162 C149 1_555 1_555
C150 C148 1_555 1_555
C151 C150 1_555 1_555
H163 C151 1_555 1_555
H164 C151 1_555 1_555
C152 N87 1_555 1_555
H165 C152 1_555 1_555
C153 C152 1_555 1_555
H166 C153 1_555 1_555
H167 C153 1_555 1_555
H168 C153 1_555 1_555
N14 C14 1_555 1_555
N16 C29 1_555 1_555
N17 C30 1_555 1_555
N18 C31 1_555 1_555
N19 C32 1_555 1_555
N20 C33 1_555 1_555
N21 C34 1_555 1_555
N22 C35 1_555 1_555
N23 C36 1_555 1_555
N24 C37 1_555 1_555
N25 C38 1_555 1_555
N26 C39 1_555 1_555
N27 C40 1_555 1_555
N28 C41 1_555 1_555
N28 C42 1_555 1_555
C15 C16 1_555 1_555
C17 C18 1_555 1_555
C19 C20 1_555 1_555
C21 C22 1_555 1_555
C23 C24 1_555 1_555
C25 C26 1_555 1_555
C27 C28 1_555 1_555
N42 C56 1_555 1_555
N44 C71 1_555 1_555
N45 C72 1_555 1_555
N46 C73 1_555 1_555
N47 C74 1_555 1_555
N48 C75 1_555 1_555
N49 C76 1_555 1_555
N50 C77 1_555 1_555
N51 C78 1_555 1_555
N52 C79 1_555 1_555
N53 C80 1_555 1_555
N54 C81 1_555 1_555
N55 C82 1_555 1_555
N56 C83 1_555 1_555
N56 C84 1_555 1_555
C57 C58 1_555 1_555
C59 C60 1_555 1_555
C61 C62 1_555 1_555
C63 C64 1_555 1_555
C65 C66 1_555 1_555
C67 C68 1_555 1_555
C69 C70 1_555 1_555
N70 C98 1_555 1_555
N72 C113 1_555 1_555
N73 C114 1_555 1_555
N74 C115 1_555 1_555
N75 C116 1_555 1_555
N76 C117 1_555 1_555
N77 C118 1_555 1_555
N78 C119 1_555 1_555
N79 C120 1_555 1_555
N80 C121 1_555 1_555
N81 C122 1_555 1_555
N82 C123 1_555 1_555
N83 C124 1_555 1_555
N84 C125 1_555 1_555
N84 C126 1_555 1_555
C99 C100 1_555 1_555
C101 C102 1_555 1_555
C103 C104 1_555 1_555
C105 C106 1_555 1_555
C107 C108 1_555 1_555
C109 C110 1_555 1_555
C111 C112 1_555 1_555
C131 C132 1_555 1_555
C133 C134 1_555 1_555
C140 C141 1_555 1_555
C142 C143 1_555 1_555
C149 C150 1_555 1_555
C151 C152 1_555 1_555

#END
