
#######################################################################
#
#                 Cambridge Crystallographic Data Centre
#                                CCDC 
#
#######################################################################
#
# If this CIF has been generated from an entry in the Cambridge 
# Structural Database, then it will include bibliographic, chemical, 
# crystal, experimental, refinement or atomic coordinate data resulting 
# from the CCDC's data processing and validation procedures.
#
#######################################################################

data_REGQID
_chemical_formula_moiety         'C15 H13 N1 O2 S3'
_chemical_name_systematic        
(1SR,8RS)-11-Benzenesulfonyl-9,11-thiazabicyclo(6.3.0)undeca-2,4,6-trien-10-thione
_symmetry_cell_setting           triclinic
_symmetry_space_group_name_H-M   'P -1'
_symmetry_Int_Tables_number      2
_space_group_name_Hall           '-P 1'
loop_
_symmetry_equiv_pos_site_id
_symmetry_equiv_pos_as_xyz
1 x,y,z
2 -x,-y,-z
_cell_length_a                   8.1195(6)
_cell_length_b                   10.1594(9)
_cell_length_c                   10.2559(9)
_cell_angle_alpha                97.001(9)
_cell_angle_beta                 96.224(10)
_cell_angle_gamma                110.789(7)
_cell_volume                     774.466
_exptl_crystal_colour            yellow
_chemical_melting_point          124-126deg.C
_cell_formula_units_Z            2
loop_
_atom_site_label
_atom_site_type_symbol
_atom_site_fract_x
_atom_site_fract_y
_atom_site_fract_z
N1 N 0.2846(3) 0.4277(2) 0.2168(2)
S1 S 0.25045(10) 0.46945(8) -0.02693(7)
O1 O 0.2805(3) 0.2261(2) 0.3418(2)
C1 C 0.2947(4) 0.5785(3) 0.2306(3)
H1 H 0.1745 0.5813 0.2395
S2 S 0.20716(11) 0.18655(8) 0.03303(7)
O2 O 0.2610(3) 0.4465(2) 0.45653(18)
C2 C 0.4303(4) 0.6777(3) 0.3445(3)
H2 H 0.5328 0.6575 0.3727
S3 S 0.21328(8) 0.33729(7) 0.34273(6)
C3 C 0.4128(5) 0.7919(3) 0.4073(3)
H3 H 0.5094 0.8540 0.4735
C4 C 0.2578(5) 0.8300(3) 0.3832(3)
H4 H 0.2111 0.8538 0.4598
C5 C 0.1728(5) 0.8358(4) 0.2670(4)
H5 H 0.0628 0.8484 0.2710
C6 C 0.2214(4) 0.8259(3) 0.1339(3)
H6 H 0.1933 0.8899 0.0835
C7 C 0.2962(4) 0.7472(3) 0.0679(3)
H7 H 0.3195 0.7710 -0.0168
C8 C 0.3497(4) 0.6293(3) 0.1023(3)
H8 H 0.4826 0.6619 0.1111
C9 C 0.2485(4) 0.3546(3) 0.0858(3)
C10 C -0.0203(4) 0.2644(3) 0.3016(3)
C11 C -0.1073(4) 0.1203(3) 0.2490(3)
H9 H -0.0413 0.0614 0.2305
C12 C -0.2915(4) 0.0641(3) 0.2240(3)
H10 H -0.3531 -0.0345 0.1884
C13 C -0.3869(4) 0.1501(3) 0.2506(3)
H11 H -0.5137 0.1103 0.2333
C14 C -0.2994(4) 0.2932(3) 0.3019(3)
H12 H -0.3662 0.3517 0.3192
C15 C -0.1153(4) 0.3522(3) 0.3285(3)
H13 H -0.0545 0.4508 0.3645
loop_
_geom_bond_atom_site_label_1
_geom_bond_atom_site_label_2
_geom_bond_site_symmetry_1
_geom_bond_site_symmetry_2
N1 C1 1_555 1_555
S1 C8 1_555 1_555
O1 S3 1_555 1_555
C1 H1 1_555 1_555
S2 C9 1_555 1_555
O2 S3 1_555 1_555
C2 C1 1_555 1_555
H2 C2 1_555 1_555
S3 N1 1_555 1_555
C3 C2 1_555 1_555
H3 C3 1_555 1_555
C4 C3 1_555 1_555
H4 C4 1_555 1_555
C5 C4 1_555 1_555
H5 C5 1_555 1_555
C6 C5 1_555 1_555
H6 C6 1_555 1_555
C7 C6 1_555 1_555
H7 C7 1_555 1_555
C8 C1 1_555 1_555
H8 C8 1_555 1_555
C9 N1 1_555 1_555
C10 S3 1_555 1_555
C11 C10 1_555 1_555
H9 C11 1_555 1_555
C12 C11 1_555 1_555
H10 C12 1_555 1_555
C13 C12 1_555 1_555
H11 C13 1_555 1_555
C14 C13 1_555 1_555
H12 C14 1_555 1_555
C15 C10 1_555 1_555
H13 C15 1_555 1_555
S1 C9 1_555 1_555
C7 C8 1_555 1_555
C14 C15 1_555 1_555

#END
