
#######################################################################
#
#                 Cambridge Crystallographic Data Centre
#                                CCDC 
#
#######################################################################
#
# If this CIF has been generated from an entry in the Cambridge 
# Structural Database, then it will include bibliographic, chemical, 
# crystal, experimental, refinement or atomic coordinate data resulting 
# from the CCDC's data processing and validation procedures.
#
#######################################################################

data_REGQEA02
_chemical_formula_moiety         'C19 H17 N1 O2'
_chemical_name_systematic        
4-((E)-2-(3,4-dimethoxyphenyl)ethenyl)quinoline
_symmetry_cell_setting           monoclinic
_symmetry_space_group_name_H-M   'P 21/c'
_symmetry_Int_Tables_number      14
_space_group_name_Hall           '-P 2ybc'
loop_
_symmetry_equiv_pos_site_id
_symmetry_equiv_pos_as_xyz
1 x,y,z
2 -x,1/2+y,1/2-z
3 -x,-y,-z
4 x,1/2-y,1/2+z
_cell_length_a                   10.6020(3)
_cell_length_b                   10.9717(3)
_cell_length_c                   12.6859(4)
_cell_angle_alpha                90
_cell_angle_beta                 99.022(2)
_cell_angle_gamma                90
_cell_volume                     1457.39
_exptl_crystal_colour            'light yellow'
_exptl_crystal_description       block
_chemical_melting_point          '130-132 deg.C'
_cell_formula_units_Z            4
_exptl_crystal_recrystallization_method dichloromethane/hexane
loop_
_atom_site_label
_atom_site_type_symbol
_atom_site_fract_x
_atom_site_fract_y
_atom_site_fract_z
O1 O 0.09323(8) 0.93741(8) 0.10097(6)
O2 O -0.00586(8) 1.05294(7) 0.24582(6)
N1 N 0.59345(10) 0.88918(9) 0.91208(7)
C1 C 0.48468(11) 0.94116(10) 0.86957(9)
C2 C 0.43087(11) 0.93378(10) 0.76124(9)
C3 C 0.49095(11) 0.86793(10) 0.69011(9)
C4 C 0.60813(10) 0.80767(9) 0.73283(8)
C5 C 0.68010(11) 0.73502(10) 0.67059(9)
C6 C 0.79417(11) 0.68328(10) 0.71548(9)
C7 C 0.84325(11) 0.70265(10) 0.82453(9)
C8 C 0.77563(11) 0.77047(10) 0.88728(9)
C9 C 0.65628(11) 0.82330(10) 0.84390(8)
C10 C 0.43677(11) 0.85994(10) 0.57629(9)
C11 C 0.34496(11) 0.93406(10) 0.52798(9)
C12 C 0.28637(11) 0.93227(10) 0.41509(9)
C13 C 0.33948(11) 0.87216(10) 0.33559(9)
C14 C 0.27816(11) 0.87317(10) 0.22953(9)
C15 C 0.16234(11) 0.93322(10) 0.20140(8)
C16 C 0.10791(10) 0.99565(9) 0.28077(8)
C17 C 0.17009(10) 0.99560(10) 0.38556(9)
C18 C 0.15052(13) 0.88598(12) 0.01560(10)
C19 C -0.06080(12) 1.12200(11) 0.32275(11)
H1 H 0.4390(15) 0.9862(14) 0.9161(12)
H2 H 0.3518(16) 0.9772(15) 0.7370(13)
H3 H 0.6503(13) 0.7222(12) 0.5947(11)
H4 H 0.8419(14) 0.6334(13) 0.6739(12)
H5 H 0.9253(15) 0.6692(14) 0.8539(12)
H6 H 0.8088(14) 0.7875(13) 0.9635(12)
H7 H 0.4721(15) 0.7972(14) 0.5313(13)
H8 H 0.3122(16) 1.0017(15) 0.5696(13)
H9 H 0.4201(14) 0.8307(13) 0.3522(11)
H10 H 0.3138(14) 0.8324(13) 0.1751(12)
H11 H -0.0821(15) 1.0706(14) 0.3814(13)
H12 H -0.1398(16) 1.1570(16) 0.2826(13)
H13 H -0.0051(16) 1.1865(15) 0.3541(12)
H14 H 0.1659(14) 0.7977(14) 0.0255(11)
H15 H 0.2367(16) 0.9258(15) 0.0119(12)
H16 H 0.0873(15) 0.9003(13) -0.0486(12)
H17 H 0.1351(14) 1.0392(13) 0.4401(12)
loop_
_geom_bond_atom_site_label_1
_geom_bond_atom_site_label_2
_geom_bond_site_symmetry_1
_geom_bond_site_symmetry_2
O1 C15 1_555 1_555
O2 C16 1_555 1_555
N1 C1 1_555 1_555
C1 C2 1_555 1_555
C2 C3 1_555 1_555
C3 C4 1_555 1_555
C4 C5 1_555 1_555
C5 C6 1_555 1_555
C6 C7 1_555 1_555
C7 C8 1_555 1_555
C8 C9 1_555 1_555
C9 N1 1_555 1_555
C10 C3 1_555 1_555
C11 C10 1_555 1_555
C12 C11 1_555 1_555
C13 C12 1_555 1_555
C14 C13 1_555 1_555
C15 C14 1_555 1_555
C16 C15 1_555 1_555
C17 C12 1_555 1_555
C18 O1 1_555 1_555
C19 O2 1_555 1_555
H1 C1 1_555 1_555
H2 C2 1_555 1_555
H3 C5 1_555 1_555
H4 C6 1_555 1_555
H5 C7 1_555 1_555
H6 C8 1_555 1_555
H7 C10 1_555 1_555
H8 C11 1_555 1_555
H9 C13 1_555 1_555
H10 C14 1_555 1_555
H11 C19 1_555 1_555
H12 C19 1_555 1_555
H13 C19 1_555 1_555
H14 C18 1_555 1_555
H15 C18 1_555 1_555
H16 C18 1_555 1_555
H17 C17 1_555 1_555
C4 C9 1_555 1_555
C16 C17 1_555 1_555

#END
