
#######################################################################
#
#                 Cambridge Crystallographic Data Centre
#                                CCDC 
#
#######################################################################
#
# If this CIF has been generated from an entry in the Cambridge 
# Structural Database, then it will include bibliographic, chemical, 
# crystal, experimental, refinement or atomic coordinate data resulting 
# from the CCDC's data processing and validation procedures.
#
#######################################################################

data_REGSAA
_chemical_formula_moiety         'C64 H82'
_chemical_name_systematic        3,3',8,8'-tetraoctyl-1,1'-bipyrene
_symmetry_cell_setting           monoclinic
_symmetry_space_group_name_H-M   'I 2/a'
_symmetry_Int_Tables_number      15
_space_group_name_Hall           '-I 2ya'
loop_
_symmetry_equiv_pos_site_id
_symmetry_equiv_pos_as_xyz
1 x,y,z
2 1/2-x,y,-z
3 1/2+x,1/2+y,1/2+z
4 -x,1/2+y,1/2-z
5 -x,-y,-z
6 1/2+x,-y,z
7 1/2-x,1/2-y,1/2-z
8 x,1/2-y,1/2+z
_cell_length_a                   16.3409(6)
_cell_length_b                   9.0662(3)
_cell_length_c                   35.1804(13)
_cell_angle_alpha                90
_cell_angle_beta                 101.985(4)
_cell_angle_gamma                90
_cell_volume                     5098.36
_exptl_crystal_colour            colorless
_exptl_crystal_description       prism
_cell_formula_units_Z            4
loop_
_atom_site_label
_atom_site_type_symbol
_atom_site_fract_x
_atom_site_fract_y
_atom_site_fract_z
C1 C -0.06350(11) 0.46934(19) 0.43186(5)
C2 C 0.00506(10) 0.38222(18) 0.45051(5)
C3 C 0.08233(10) 0.37972(18) 0.43734(5)
H1 H 0.0881 0.4386 0.4157
C4 C 0.14756(10) 0.29474(18) 0.45519(5)
H2 H 0.1979 0.2954 0.4457
C5 C 0.14219(10) 0.20375(17) 0.48813(4)
C6 C 0.20994(10) 0.11746(17) 0.50695(5)
C7 C 0.20210(11) 0.03461(18) 0.53940(5)
H3 H 0.2483 -0.0230 0.5521
C8 C 0.12906(11) 0.03310(18) 0.55392(5)
C9 C 0.06011(11) 0.11726(18) 0.53543(5)
C10 C -0.01817(11) 0.1211(2) 0.54799(5)
H4 H -0.0247 0.0622 0.5695
C11 C -0.08259(11) 0.2059(2) 0.53013(5)
H5 H -0.1329 0.2060 0.5397
C12 C -0.07741(11) 0.2956(2) 0.49725(5)
C13 C -0.14308(11) 0.3846(2) 0.47837(6)
H6 H -0.1937 0.3874 0.4876
C14 C -0.13599(11) 0.4687(2) 0.44655(5)
H7 H -0.1820 0.5278 0.4344
C15 C -0.00160(10) 0.29389(18) 0.48325(5)
C16 C 0.06675(10) 0.20521(17) 0.50211(4)
C17 C -0.06022(12) 0.55848(19) 0.39613(5)
H8 H -0.0058 0.6104 0.4001
H9 H -0.1048 0.6342 0.3926
C18 C -0.07107(12) 0.46463(19) 0.35920(5)
H10 H -0.0251 0.3917 0.3622
H11 H -0.1244 0.4096 0.3558
C19 C -0.07116(12) 0.55713(19) 0.32316(5)
H12 H -0.0187 0.6151 0.3272
H13 H -0.1184 0.6276 0.3197
C20 C -0.07866(12) 0.46623(18) 0.28615(5)
H14 H -0.0299 0.3994 0.2890
H15 H -0.1296 0.4044 0.2828
C21 C -0.08307(12) 0.55959(19) 0.25003(5)
H16 H -0.0319 0.6209 0.2534
H17 H -0.1316 0.6271 0.2474
C22 C -0.09127(12) 0.4700(2) 0.21284(5)
H18 H -0.1413 0.4062 0.2100
H19 H -0.0418 0.4050 0.2151
C23 C -0.09861(13) 0.5643(2) 0.17648(6)
H20 H -0.1482 0.6291 0.1741
H21 H -0.0486 0.6282 0.1793
C24 C -0.10662(15) 0.4738(3) 0.13945(6)
H22 H -0.1105 0.5402 0.1172
H23 H -0.1571 0.4126 0.1359
H24 H -0.0574 0.4102 0.1414
C25 C 0.12757(13) -0.05740(19) 0.59011(5)
H25 H 0.1708 -0.1353 0.5927
H26 H 0.0725 -0.1064 0.5871
C26 C 0.14329(11) 0.03571(18) 0.62724(5)
H27 H 0.1961 0.0912 0.6291
H28 H 0.0974 0.1083 0.6256
C27 C 0.14887(11) -0.05651(18) 0.66396(5)
H29 H 0.0977 -0.1174 0.6612
H30 H 0.1972 -0.1243 0.6665
C28 C 0.15850(11) 0.03545(18) 0.70091(5)
H31 H 0.2092 0.0975 0.7035
H32 H 0.1097 0.1021 0.6986
C29 C 0.16532(11) -0.05731(18) 0.73747(5)
H33 H 0.2151 -0.1218 0.7401
H34 H 0.1155 -0.1218 0.7344
C30 C 0.17224(11) 0.03223(18) 0.77469(5)
H35 H 0.2222 0.0966 0.7779
H36 H 0.1225 0.0966 0.7722
C31 C 0.17893(13) -0.0633(2) 0.81080(5)
H37 H 0.2288 -0.1273 0.8133
H38 H 0.1292 -0.1281 0.8074
C32 C 0.18539(14) 0.0247(2) 0.84819(5)
H39 H 0.1346 0.0840 0.8467
H40 H 0.2342 0.0900 0.8517
H41 H 0.1915 -0.0431 0.8703
C1A C 0.56350(11) 0.46934(19) 0.56814(5)
C2A C 0.49494(10) 0.38222(18) 0.54949(5)
C3A C 0.41767(10) 0.37972(18) 0.56266(5)
H1A H 0.4119 0.4386 0.5843
C4A C 0.35244(10) 0.29474(18) 0.54481(5)
H2A H 0.3021 0.2954 0.5543
C5A C 0.35781(10) 0.20375(17) 0.51187(4)
C6A C 0.29006(10) 0.11746(17) 0.49305(5)
C7A C 0.29790(11) 0.03461(18) 0.46060(5)
H3A H 0.2517 -0.0230 0.4479
C8A C 0.37094(11) 0.03310(18) 0.44608(5)
C9A C 0.43989(11) 0.11726(18) 0.46457(5)
C10A C 0.51817(11) 0.1211(2) 0.45201(5)
H4A H 0.5247 0.0622 0.4305
C11A C 0.58259(11) 0.2059(2) 0.46987(5)
H5A H 0.6329 0.2060 0.4603
C12A C 0.57741(11) 0.2956(2) 0.50275(5)
C13A C 0.64308(11) 0.3846(2) 0.52163(6)
H6A H 0.6937 0.3874 0.5124
C14A C 0.63599(11) 0.4687(2) 0.55345(5)
H7A H 0.6820 0.5278 0.5656
C15A C 0.50160(10) 0.29389(18) 0.51675(5)
C16A C 0.43325(10) 0.20521(17) 0.49789(4)
C17A C 0.56022(12) 0.55848(19) 0.60387(5)
H8A H 0.5058 0.6104 0.5999
H9A H 0.6048 0.6342 0.6074
C18A C 0.57107(12) 0.46463(19) 0.64080(5)
H10A H 0.5251 0.3917 0.6378
H11A H 0.6244 0.4096 0.6442
C19A C 0.57116(12) 0.55713(19) 0.67684(5)
H12A H 0.5187 0.6151 0.6728
H13A H 0.6184 0.6276 0.6803
C20A C 0.57866(12) 0.46623(18) 0.71385(5)
H14A H 0.5299 0.3994 0.7110
H15A H 0.6296 0.4044 0.7172
C21A C 0.58307(12) 0.55959(19) 0.74997(5)
H16A H 0.5319 0.6209 0.7466
H17A H 0.6316 0.6271 0.7526
C22A C 0.59127(12) 0.4700(2) 0.78716(5)
H18A H 0.6413 0.4062 0.7900
H19A H 0.5418 0.4050 0.7849
C23A C 0.59861(13) 0.5643(2) 0.82352(6)
H20A H 0.6482 0.6291 0.8259
H21A H 0.5486 0.6282 0.8207
C24A C 0.60662(15) 0.4738(3) 0.86055(6)
H22A H 0.6105 0.5402 0.8828
H23A H 0.6571 0.4126 0.8641
H24A H 0.5574 0.4102 0.8586
C25A C 0.37243(13) -0.05740(19) 0.40989(5)
H25A H 0.3292 -0.1353 0.4073
H26A H 0.4275 -0.1064 0.4129
C26A C 0.35671(11) 0.03571(18) 0.37276(5)
H27A H 0.3039 0.0912 0.3709
H28A H 0.4026 0.1083 0.3744
C27A C 0.35113(11) -0.05651(18) 0.33604(5)
H29A H 0.4023 -0.1174 0.3388
H30A H 0.3028 -0.1243 0.3335
C28A C 0.34150(11) 0.03545(18) 0.29909(5)
H31A H 0.2908 0.0975 0.2965
H32A H 0.3903 0.1021 0.3014
C29A C 0.33468(11) -0.05731(18) 0.26253(5)
H33A H 0.2849 -0.1218 0.2599
H34A H 0.3845 -0.1218 0.2656
C30A C 0.32776(11) 0.03223(18) 0.22531(5)
H35A H 0.2778 0.0966 0.2221
H36A H 0.3775 0.0966 0.2278
C31A C 0.32107(13) -0.0633(2) 0.18920(5)
H37A H 0.2712 -0.1273 0.1867
H38A H 0.3708 -0.1281 0.1926
C32A C 0.31461(14) 0.0247(2) 0.15181(5)
H39A H 0.3654 0.0840 0.1533
H40A H 0.2658 0.0900 0.1483
H41A H 0.3085 -0.0431 0.1297
loop_
_geom_bond_atom_site_label_1
_geom_bond_atom_site_label_2
_geom_bond_site_symmetry_1
_geom_bond_site_symmetry_2
C1 C2 1_555 1_555
C2 C3 1_555 1_555
C3 H1 1_555 1_555
C4 C3 1_555 1_555
H2 C4 1_555 1_555
C5 C4 1_555 1_555
C6 C5 1_555 1_555
C7 C6 1_555 1_555
H3 C7 1_555 1_555
C8 C7 1_555 1_555
C9 C8 1_555 1_555
C10 C9 1_555 1_555
H4 C10 1_555 1_555
C11 C10 1_555 1_555
H5 C11 1_555 1_555
C12 C11 1_555 1_555
C13 C12 1_555 1_555
H6 C13 1_555 1_555
C14 C1 1_555 1_555
H7 C14 1_555 1_555
C15 C2 1_555 1_555
C16 C5 1_555 1_555
C17 C1 1_555 1_555
H8 C17 1_555 1_555
H9 C17 1_555 1_555
C18 C17 1_555 1_555
H10 C18 1_555 1_555
H11 C18 1_555 1_555
C19 C18 1_555 1_555
H12 C19 1_555 1_555
H13 C19 1_555 1_555
C20 C19 1_555 1_555
H14 C20 1_555 1_555
H15 C20 1_555 1_555
C21 C20 1_555 1_555
H16 C21 1_555 1_555
H17 C21 1_555 1_555
C22 C21 1_555 1_555
H18 C22 1_555 1_555
H19 C22 1_555 1_555
C23 C22 1_555 1_555
H20 C23 1_555 1_555
H21 C23 1_555 1_555
C24 C23 1_555 1_555
H22 C24 1_555 1_555
H23 C24 1_555 1_555
H24 C24 1_555 1_555
C25 C8 1_555 1_555
H25 C25 1_555 1_555
H26 C25 1_555 1_555
C26 C25 1_555 1_555
H27 C26 1_555 1_555
H28 C26 1_555 1_555
C27 C26 1_555 1_555
H29 C27 1_555 1_555
H30 C27 1_555 1_555
C28 C27 1_555 1_555
H31 C28 1_555 1_555
H32 C28 1_555 1_555
C29 C28 1_555 1_555
H33 C29 1_555 1_555
H34 C29 1_555 1_555
C30 C29 1_555 1_555
H35 C30 1_555 1_555
H36 C30 1_555 1_555
C31 C30 1_555 1_555
H37 C31 1_555 1_555
H38 C31 1_555 1_555
C32 C31 1_555 1_555
H39 C32 1_555 1_555
H40 C32 1_555 1_555
H41 C32 1_555 1_555
C1A C2A 1_555 1_555
C2A C3A 1_555 1_555
C3A H1A 1_555 1_555
C4A C3A 1_555 1_555
H2A C4A 1_555 1_555
C5A C4A 1_555 1_555
C6A C6 1_555 1_555
C7A C6A 1_555 1_555
H3A C7A 1_555 1_555
C8A C7A 1_555 1_555
C9A C8A 1_555 1_555
C10A C9A 1_555 1_555
H4A C10A 1_555 1_555
C11A C10A 1_555 1_555
H5A C11A 1_555 1_555
C12A C11A 1_555 1_555
C13A C12A 1_555 1_555
H6A C13A 1_555 1_555
C14A C1A 1_555 1_555
H7A C14A 1_555 1_555
C15A C2A 1_555 1_555
C16A C5A 1_555 1_555
C17A C1A 1_555 1_555
H8A C17A 1_555 1_555
H9A C17A 1_555 1_555
C18A C17A 1_555 1_555
H10A C18A 1_555 1_555
H11A C18A 1_555 1_555
C19A C18A 1_555 1_555
H12A C19A 1_555 1_555
H13A C19A 1_555 1_555
C20A C19A 1_555 1_555
H14A C20A 1_555 1_555
H15A C20A 1_555 1_555
C21A C20A 1_555 1_555
H16A C21A 1_555 1_555
H17A C21A 1_555 1_555
C22A C21A 1_555 1_555
H18A C22A 1_555 1_555
H19A C22A 1_555 1_555
C23A C22A 1_555 1_555
H20A C23A 1_555 1_555
H21A C23A 1_555 1_555
C24A C23A 1_555 1_555
H22A C24A 1_555 1_555
H23A C24A 1_555 1_555
H24A C24A 1_555 1_555
C25A C8A 1_555 1_555
H25A C25A 1_555 1_555
H26A C25A 1_555 1_555
C26A C25A 1_555 1_555
H27A C26A 1_555 1_555
H28A C26A 1_555 1_555
C27A C26A 1_555 1_555
H29A C27A 1_555 1_555
H30A C27A 1_555 1_555
C28A C27A 1_555 1_555
H31A C28A 1_555 1_555
H32A C28A 1_555 1_555
C29A C28A 1_555 1_555
H33A C29A 1_555 1_555
H34A C29A 1_555 1_555
C30A C29A 1_555 1_555
H35A C30A 1_555 1_555
H36A C30A 1_555 1_555
C31A C30A 1_555 1_555
H37A C31A 1_555 1_555
H38A C31A 1_555 1_555
C32A C31A 1_555 1_555
H39A C32A 1_555 1_555
H40A C32A 1_555 1_555
H41A C32A 1_555 1_555
C9 C16 1_555 1_555
C12 C15 1_555 1_555
C13 C14 1_555 1_555
C15 C16 1_555 1_555
C5A C6A 1_555 1_555
C9A C16A 1_555 1_555
C12A C15A 1_555 1_555
C13A C14A 1_555 1_555
C15A C16A 1_555 1_555

#END
