
#######################################################################
#
#                 Cambridge Crystallographic Data Centre
#                                CCDC 
#
#######################################################################
#
# If this CIF has been generated from an entry in the Cambridge 
# Structural Database, then it will include bibliographic, chemical, 
# crystal, experimental, refinement or atomic coordinate data resulting 
# from the CCDC's data processing and validation procedures.
#
#######################################################################

data_REGSEE
_chemical_formula_moiety         'C32 H42'
_chemical_name_systematic        1,6-dioctylpyrene
_symmetry_cell_setting           monoclinic
_symmetry_space_group_name_H-M   'P 21/n'
_symmetry_Int_Tables_number      14
_space_group_name_Hall           '-P 2yn'
loop_
_symmetry_equiv_pos_site_id
_symmetry_equiv_pos_as_xyz
1 x,y,z
2 1/2-x,1/2+y,1/2-z
3 -x,-y,-z
4 1/2+x,1/2-y,1/2+z
_cell_length_a                   7.75029(12)
_cell_length_b                   34.4156(5)
_cell_length_c                   9.25694(17)
_cell_angle_alpha                90
_cell_angle_beta                 94.6142(15)
_cell_angle_gamma                90
_cell_volume                     2461.11
_exptl_crystal_colour            colorless
_exptl_crystal_description       needle
_cell_formula_units_Z            4
loop_
_atom_site_label
_atom_site_type_symbol
_atom_site_fract_x
_atom_site_fract_y
_atom_site_fract_z
C1 C 0.57535(13) 0.71164(3) 0.24080(12)
C2 C 0.55987(14) 0.69960(3) 0.09673(13)
H1 H 0.5897 0.7172 0.0236
C3 C 0.50216(14) 0.66272(3) 0.05714(12)
H2 H 0.4929 0.6555 -0.0422
C4 C 0.45743(13) 0.63603(3) 0.16163(12)
C5 C 0.39999(14) 0.59738(3) 0.12492(12)
H3 H 0.3906 0.5896 0.0261
C6 C 0.35892(13) 0.57173(3) 0.22735(12)
H4 H 0.3216 0.5464 0.1988
C7 C 0.37040(13) 0.58187(3) 0.37837(12)
C8 C 0.32922(13) 0.55504(3) 0.48641(12)
C9 C 0.34117(14) 0.56727(3) 0.63039(12)
H5 H 0.3136 0.5495 0.7037
C10 C 0.39242(14) 0.60480(3) 0.66932(12)
H6 H 0.3976 0.6122 0.7684
C11 C 0.43641(13) 0.63177(3) 0.56578(12)
C12 C 0.49220(14) 0.67064(3) 0.60238(12)
H7 H 0.4976 0.6787 0.7008
C13 C 0.53724(13) 0.69599(3) 0.50003(12)
H8 H 0.5754 0.7213 0.5287
C14 C 0.52881(13) 0.68563(3) 0.34914(12)
C15 C 0.47038(13) 0.64738(3) 0.30954(11)
C16 C 0.42578(12) 0.62035(3) 0.41780(11)
C17 C 0.63727(14) 0.75254(3) 0.27526(13)
H9 H 0.7066 0.7617 0.1968
H10 H 0.7138 0.7521 0.3662
C18 C 0.48953(14) 0.78116(3) 0.29213(13)
H11 H 0.4107 0.7810 0.2025
H12 H 0.4226 0.7726 0.3731
C19 C 0.55385(14) 0.82254(3) 0.32159(13)
H13 H 0.6402 0.8224 0.4064
H14 H 0.6120 0.8320 0.2369
C20 C 0.40736(14) 0.85013(3) 0.35069(13)
H15 H 0.3470 0.8399 0.4330
H16 H 0.3230 0.8506 0.2645
C21 C 0.46567(14) 0.89161(3) 0.38530(13)
H17 H 0.5554 0.8913 0.4677
H18 H 0.5182 0.9027 0.3005
C22 C 0.31617(14) 0.91737(3) 0.42351(13)
H19 H 0.2277 0.9179 0.3402
H20 H 0.2622 0.9057 0.5066
C23 C 0.36855(15) 0.95894(3) 0.46200(14)
H21 H 0.4171 0.9713 0.3776
H22 H 0.4601 0.9587 0.5430
C24 C 0.21567(16) 0.98291(3) 0.50559(14)
H23 H 0.1262 0.9839 0.4246
H24 H 0.2546 1.0093 0.5306
H25 H 0.1679 0.9709 0.5897
C25 C 0.27278(14) 0.51411(3) 0.44380(12)
H26 H 0.3647 0.5023 0.3899
H27 H 0.1677 0.5160 0.3759
C26 C 0.23405(14) 0.48657(3) 0.56518(12)
H28 H 0.1418 0.4979 0.6201
H29 H 0.3391 0.4836 0.6326
C27 C 0.17632(14) 0.44655(3) 0.50838(12)
H30 H 0.0726 0.4496 0.4396
H31 H 0.2694 0.4351 0.4546
C28 C 0.13416(14) 0.41870(3) 0.62876(12)
H32 H 0.0434 0.4305 0.6841
H33 H 0.2388 0.4152 0.6961
C29 C 0.07206(14) 0.37900(3) 0.57275(12)
H34 H -0.0313 0.3825 0.5039
H35 H 0.1638 0.3670 0.5192
C30 C 0.02675(14) 0.35164(3) 0.69352(12)
H36 H -0.0659 0.3636 0.7463
H37 H 0.1297 0.3484 0.7630
C31 C -0.03356(14) 0.31162(3) 0.63863(12)
H38 H -0.1380 0.3147 0.5706
H39 H 0.0582 0.2997 0.5846
C32 C -0.07524(15) 0.28455(3) 0.76135(14)
H40 H -0.1070 0.2589 0.7217
H41 H -0.1721 0.2952 0.8105
H42 H 0.0265 0.2821 0.8308
loop_
_geom_bond_atom_site_label_1
_geom_bond_atom_site_label_2
_geom_bond_site_symmetry_1
_geom_bond_site_symmetry_2
C1 C2 1_555 1_555
C2 H1 1_555 1_555
C3 C2 1_555 1_555
H2 C3 1_555 1_555
C4 C3 1_555 1_555
C5 C4 1_555 1_555
H3 C5 1_555 1_555
C6 C5 1_555 1_555
H4 C6 1_555 1_555
C7 C6 1_555 1_555
C8 C7 1_555 1_555
C9 C8 1_555 1_555
H5 C9 1_555 1_555
C10 C9 1_555 1_555
H6 C10 1_555 1_555
C11 C10 1_555 1_555
C12 C11 1_555 1_555
H7 C12 1_555 1_555
C13 C12 1_555 1_555
H8 C13 1_555 1_555
C14 C1 1_555 1_555
C15 C4 1_555 1_555
C16 C7 1_555 1_555
C17 C1 1_555 1_555
H9 C17 1_555 1_555
H10 C17 1_555 1_555
C18 C17 1_555 1_555
H11 C18 1_555 1_555
H12 C18 1_555 1_555
C19 C18 1_555 1_555
H13 C19 1_555 1_555
H14 C19 1_555 1_555
C20 C19 1_555 1_555
H15 C20 1_555 1_555
H16 C20 1_555 1_555
C21 C20 1_555 1_555
H17 C21 1_555 1_555
H18 C21 1_555 1_555
C22 C21 1_555 1_555
H19 C22 1_555 1_555
H20 C22 1_555 1_555
C23 C22 1_555 1_555
H21 C23 1_555 1_555
H22 C23 1_555 1_555
C24 C23 1_555 1_555
H23 C24 1_555 1_555
H24 C24 1_555 1_555
H25 C24 1_555 1_555
C25 C8 1_555 1_555
H26 C25 1_555 1_555
H27 C25 1_555 1_555
C26 C25 1_555 1_555
H28 C26 1_555 1_555
H29 C26 1_555 1_555
C27 C26 1_555 1_555
H30 C27 1_555 1_555
H31 C27 1_555 1_555
C28 C27 1_555 1_555
H32 C28 1_555 1_555
H33 C28 1_555 1_555
C29 C28 1_555 1_555
H34 C29 1_555 1_555
H35 C29 1_555 1_555
C30 C29 1_555 1_555
H36 C30 1_555 1_555
H37 C30 1_555 1_555
C31 C30 1_555 1_555
H38 C31 1_555 1_555
H39 C31 1_555 1_555
C32 C31 1_555 1_555
H40 C32 1_555 1_555
H41 C32 1_555 1_555
H42 C32 1_555 1_555
C11 C16 1_555 1_555
C13 C14 1_555 1_555
C14 C15 1_555 1_555
C15 C16 1_555 1_555

#END
