
#######################################################################
#
#                 Cambridge Crystallographic Data Centre
#                                CCDC 
#
#######################################################################
#
# If this CIF has been generated from an entry in the Cambridge 
# Structural Database, then it will include bibliographic, chemical, 
# crystal, experimental, refinement or atomic coordinate data resulting 
# from the CCDC's data processing and validation procedures.
#
#######################################################################

data_REGWUW
_chemical_formula_moiety         'C25 H29 B1 S1'
_chemical_name_systematic        (4-(Methylthio)phenyl)dimesitylborane
_symmetry_cell_setting           monoclinic
_symmetry_space_group_name_H-M   'P 21/c'
_symmetry_Int_Tables_number      14
_space_group_name_Hall           '-P 2ybc'
loop_
_symmetry_equiv_pos_site_id
_symmetry_equiv_pos_as_xyz
1 x,y,z
2 -x,1/2+y,1/2-z
3 -x,-y,-z
4 x,1/2-y,1/2+z
_cell_length_a                   11.5228(10)
_cell_length_b                   8.1293(7)
_cell_length_c                   22.8965(19)
_cell_angle_alpha                90
_cell_angle_beta                 98.30(1)
_cell_angle_gamma                90
_cell_volume                     2122.3
_exptl_crystal_colour            colorless
_exptl_crystal_description       trapezoid
_chemical_melting_point          '387 K'
_cell_formula_units_Z            4
loop_
_atom_site_label
_atom_site_type_symbol
_atom_site_fract_x
_atom_site_fract_y
_atom_site_fract_z
S1 S 0.09673(3) -0.12398(5) 0.164979(15)
B1 B 0.29405(12) 0.30327(18) 0.37799(6)
C1 C 0.25066(11) 0.18779(16) 0.32473(6)
C2 C 0.31007(12) 0.17492(16) 0.27546(6)
H1 H 0.3846(14) 0.230(2) 0.2750(7)
C3 C 0.26814(12) 0.07902(17) 0.22669(6)
H2 H 0.3136(15) 0.070(2) 0.1954(7)
C4 C 0.16206(12) -0.00510(16) 0.22534(6)
C5 C 0.10121(12) 0.00447(17) 0.27378(6)
H3 H 0.0298(15) -0.056(2) 0.2737(7)
C6 C 0.14561(11) 0.09780(16) 0.32247(6)
H4 H 0.1034(14) 0.101(2) 0.3561(7)
C7 C 0.21650(17) -0.1653(2) 0.12510(8)
H5 H 0.2465(17) -0.062(3) 0.1077(8)
H6 H 0.1855(18) -0.237(3) 0.0926(9)
H7 H 0.2793(18) -0.223(3) 0.1503(9)
C8 C 0.37230(11) 0.45709(16) 0.36763(5)
C9 C 0.48178(11) 0.48567(16) 0.40291(5)
C10 C 0.54543(11) 0.62793(16) 0.39542(6)
H8 H 0.6193(14) 0.6456(19) 0.4224(7)
C11 C 0.50524(12) 0.74505(16) 0.35274(6)
C12 C 0.39881(12) 0.71561(17) 0.31719(6)
H9 H 0.3672(15) 0.795(2) 0.2880(8)
C13 C 0.33206(12) 0.57531(16) 0.32399(6)
C14 C 0.53317(13) 0.36042(18) 0.44831(6)
H10 H 0.5570(17) 0.262(3) 0.4292(9)
H11 H 0.4775(16) 0.333(2) 0.4737(8)
H12 H 0.5998(17) 0.400(2) 0.4724(8)
C15 C 0.57390(14) 0.89976(19) 0.34565(8)
H13 H 0.539(2) 0.965(3) 0.3155(12)
H14 H 0.651(2) 0.877(3) 0.3377(11)
H15 H 0.585(2) 0.962(4) 0.3810(13)
C16 C 0.21417(14) 0.5604(2) 0.28548(7)
H16 H 0.181(2) 0.663(3) 0.2740(11)
H17 H 0.1583(19) 0.499(3) 0.3031(10)
H18 H 0.222(2) 0.504(3) 0.2472(11)
C17 C 0.24922(11) 0.26577(16) 0.43888(6)
C18 C 0.26343(12) 0.10692(16) 0.46471(6)
C19 C 0.21126(13) 0.06915(18) 0.51421(6)
H19 H 0.2216(16) -0.039(2) 0.5307(8)
C20 C 0.14374(12) 0.18190(18) 0.54007(6)
C21 C 0.13298(12) 0.33959(18) 0.51597(6)
H20 H 0.0893(14) 0.423(2) 0.5344(7)
C22 C 0.18500(11) 0.38335(16) 0.46675(6)
C23 C 0.33839(16) -0.02254(19) 0.44124(7)
H21 H 0.368(2) -0.098(3) 0.4696(11)
H22 H 0.394(2) 0.019(3) 0.4174(12)
H23 H 0.295(3) -0.094(4) 0.4133(13)
C24 C 0.08449(16) 0.1368(2) 0.59253(8)
H24 H 0.007(2) 0.098(3) 0.5814(11)
H25 H 0.078(2) 0.231(3) 0.6195(11)
H26 H 0.122(2) 0.049(3) 0.6162(10)
C25 C 0.16806(13) 0.55786(17) 0.44382(7)
H27 H 0.1155(17) 0.565(2) 0.4074(9)
H28 H 0.2456(16) 0.604(2) 0.4367(8)
H29 H 0.1363(17) 0.627(2) 0.4732(9)
loop_
_geom_bond_atom_site_label_1
_geom_bond_atom_site_label_2
_geom_bond_site_symmetry_1
_geom_bond_site_symmetry_2
S1 C4 1_555 1_555
B1 C1 1_555 1_555
C1 C2 1_555 1_555
C2 H1 1_555 1_555
C3 C2 1_555 1_555
H2 C3 1_555 1_555
C4 C3 1_555 1_555
C5 C4 1_555 1_555
H3 C5 1_555 1_555
C6 C1 1_555 1_555
H4 C6 1_555 1_555
C7 S1 1_555 1_555
H5 C7 1_555 1_555
H6 C7 1_555 1_555
H7 C7 1_555 1_555
C8 B1 1_555 1_555
C9 C8 1_555 1_555
C10 C9 1_555 1_555
H8 C10 1_555 1_555
C11 C10 1_555 1_555
C12 C11 1_555 1_555
H9 C12 1_555 1_555
C13 C8 1_555 1_555
C14 C9 1_555 1_555
H10 C14 1_555 1_555
H11 C14 1_555 1_555
H12 C14 1_555 1_555
C15 C11 1_555 1_555
H13 C15 1_555 1_555
H14 C15 1_555 1_555
H15 C15 1_555 1_555
C16 C13 1_555 1_555
H16 C16 1_555 1_555
H17 C16 1_555 1_555
H18 C16 1_555 1_555
C17 B1 1_555 1_555
C18 C17 1_555 1_555
C19 C18 1_555 1_555
H19 C19 1_555 1_555
C20 C19 1_555 1_555
C21 C20 1_555 1_555
H20 C21 1_555 1_555
C22 C17 1_555 1_555
C23 C18 1_555 1_555
H21 C23 1_555 1_555
H22 C23 1_555 1_555
H23 C23 1_555 1_555
C24 C20 1_555 1_555
H24 C24 1_555 1_555
H25 C24 1_555 1_555
H26 C24 1_555 1_555
C25 C22 1_555 1_555
H27 C25 1_555 1_555
H28 C25 1_555 1_555
H29 C25 1_555 1_555
C5 C6 1_555 1_555
C12 C13 1_555 1_555
C21 C22 1_555 1_555

#END
