
#######################################################################
#
#                 Cambridge Crystallographic Data Centre
#                                CCDC 
#
#######################################################################
#
# If this CIF has been generated from an entry in the Cambridge 
# Structural Database, then it will include bibliographic, chemical, 
# crystal, experimental, refinement or atomic coordinate data resulting 
# from the CCDC's data processing and validation procedures.
#
#######################################################################

data_REGXOR
_chemical_formula_moiety         'C27 H31 B1 S1'
_chemical_name_systematic        
2-(4-(Methylthio)phenyl)ethenyl(dimesityl)borane
_symmetry_cell_setting           monoclinic
_symmetry_space_group_name_H-M   'P 21/c'
_symmetry_Int_Tables_number      14
_space_group_name_Hall           '-P 2ybc'
loop_
_symmetry_equiv_pos_site_id
_symmetry_equiv_pos_as_xyz
1 x,y,z
2 -x,1/2+y,1/2-z
3 -x,-y,-z
4 x,1/2-y,1/2+z
_cell_length_a                   14.805(1)
_cell_length_b                   12.348(1)
_cell_length_c                   12.656(1)
_cell_angle_alpha                90
_cell_angle_beta                 91.10(1)
_cell_angle_gamma                90
_cell_volume                     2313.24
_exptl_crystal_colour            colorless
_exptl_crystal_description       block
_chemical_melting_point          '97-99 deg.C'
_cell_formula_units_Z            4
_exptl_crystal_recrystallization_method hexane
loop_
_atom_site_label
_atom_site_type_symbol
_atom_site_fract_x
_atom_site_fract_y
_atom_site_fract_z
S1 S -0.15209(3) 0.00373(4) 1.17062(4)
B1 B 0.27153(13) 0.37002(15) 0.90978(14)
C1 C 0.09731(11) 0.17776(12) 1.04796(13)
C2 C 0.01155(11) 0.18900(14) 1.00081(14)
H1 H 0.0039(15) 0.2358(18) 0.9375(18)
C3 C -0.06217(12) 0.13426(15) 1.03937(15)
H2 H -0.1196(16) 0.1401(19) 1.0040(18)
C4 C -0.05316(11) 0.06744(13) 1.12778(14)
C5 C 0.03132(12) 0.05534(16) 1.17548(15)
H3 H 0.0387(16) 0.0086(17) 1.235(2)
C6 C 0.10521(12) 0.10918(16) 1.13488(15)
H4 H 0.1619(16) 0.1005(18) 1.1660(18)
C7 C 0.17809(11) 0.23392(13) 1.01096(13)
H5 H 0.2328(13) 0.2182(15) 1.0517(15)
C8 C 0.18406(11) 0.30547(13) 0.93154(13)
H6 H 0.1288(14) 0.3222(16) 0.8868(16)
C9 C -0.11063(16) -0.0935(2) 1.26462(18)
H7 H -0.0666(16) -0.145(2) 1.2322(19)
H8 H -0.0821(16) -0.0617(19) 1.3250(18)
H9 H -0.163(2) -0.133(2) 1.290(2)
C10 C 0.26343(11) 0.47727(14) 0.84182(13)
C11 C 0.32143(12) 0.49789(13) 0.75618(14)
C12 C 0.30793(14) 0.58926(16) 0.69286(14)
H10 H 0.3482(15) 0.5982(17) 0.6375(17)
C13 C 0.24106(14) 0.66426(15) 0.71219(14)
C14 C 0.18504(14) 0.64603(15) 0.79753(15)
H11 H 0.1398(16) 0.7014(19) 0.8109(18)
C15 C 0.19485(12) 0.55434(14) 0.86121(14)
C16 C 0.39599(15) 0.42166(18) 0.72634(17)
H12 H 0.4381(18) 0.457(2) 0.677(2)
H13 H 0.4296(17) 0.3984(19) 0.785(2)
H14 H 0.374(2) 0.357(3) 0.697(2)
C17 C 0.2309(2) 0.76601(18) 0.64665(19)
H15 H 0.267(2) 0.823(3) 0.679(3)
H16 H 0.259(2) 0.756(3) 0.581(3)
H17 H 0.166(3) 0.790(3) 0.640(3)
C18 C 0.13140(14) 0.54431(16) 0.95280(17)
H18 H 0.1606(18) 0.5201(19) 1.016(2)
H19 H 0.0850(18) 0.490(2) 0.943(2)
H20 H 0.1002(17) 0.615(2) 0.9638(19)
C19 C 0.36310(11) 0.32636(13) 0.95931(13)
C20 C 0.39978(11) 0.22591(13) 0.92870(13)
C21 C 0.47867(12) 0.18713(15) 0.97673(14)
H21 H 0.5016(14) 0.1188(18) 0.9545(16)
C22 C 0.52386(12) 0.24448(15) 1.05622(14)
C23 C 0.48795(12) 0.34359(15) 1.08611(14)
H22 H 0.5179(14) 0.3845(17) 1.1412(17)
C24 C 0.40928(11) 0.38512(14) 1.03997(13)
C25 C 0.35660(14) 0.15836(17) 0.84233(17)
H23 H 0.308(2) 0.185(3) 0.808(3)
H24 H 0.399(2) 0.137(3) 0.798(3)
H25 H 0.332(2) 0.093(3) 0.868(3)
C26 C 0.60771(15) 0.1994(2) 1.10972(19)
H26 H 0.600(2) 0.186(2) 1.183(2)
H27 H 0.6593(19) 0.250(2) 1.109(2)
H28 H 0.629(2) 0.131(3) 1.073(3)
C27 C 0.37176(14) 0.49143(14) 1.07886(15)
H29 H 0.411(2) 0.524(2) 1.126(2)
H30 H 0.3568(15) 0.540(2) 1.0244(19)
H31 H 0.3175(19) 0.478(2) 1.123(2)
loop_
_geom_bond_atom_site_label_1
_geom_bond_atom_site_label_2
_geom_bond_site_symmetry_1
_geom_bond_site_symmetry_2
S1 C4 1_555 1_555
B1 C8 1_555 1_555
C1 C2 1_555 1_555
C2 H1 1_555 1_555
C3 C2 1_555 1_555
H2 C3 1_555 1_555
C4 C3 1_555 1_555
C5 C4 1_555 1_555
H3 C5 1_555 1_555
C6 C1 1_555 1_555
H4 C6 1_555 1_555
C7 C1 1_555 1_555
H5 C7 1_555 1_555
C8 C7 1_555 1_555
H6 C8 1_555 1_555
C9 S1 1_555 1_555
H7 C9 1_555 1_555
H8 C9 1_555 1_555
H9 C9 1_555 1_555
C10 B1 1_555 1_555
C11 C10 1_555 1_555
C12 C11 1_555 1_555
H10 C12 1_555 1_555
C13 C12 1_555 1_555
C14 C13 1_555 1_555
H11 C14 1_555 1_555
C15 C10 1_555 1_555
C16 C11 1_555 1_555
H12 C16 1_555 1_555
H13 C16 1_555 1_555
H14 C16 1_555 1_555
C17 C13 1_555 1_555
H15 C17 1_555 1_555
H16 C17 1_555 1_555
H17 C17 1_555 1_555
C18 C15 1_555 1_555
H18 C18 1_555 1_555
H19 C18 1_555 1_555
H20 C18 1_555 1_555
C19 B1 1_555 1_555
C20 C19 1_555 1_555
C21 C20 1_555 1_555
H21 C21 1_555 1_555
C22 C21 1_555 1_555
C23 C22 1_555 1_555
H22 C23 1_555 1_555
C24 C19 1_555 1_555
C25 C20 1_555 1_555
H23 C25 1_555 1_555
H24 C25 1_555 1_555
H25 C25 1_555 1_555
C26 C22 1_555 1_555
H26 C26 1_555 1_555
H27 C26 1_555 1_555
H28 C26 1_555 1_555
C27 C24 1_555 1_555
H29 C27 1_555 1_555
H30 C27 1_555 1_555
H31 C27 1_555 1_555
C5 C6 1_555 1_555
C14 C15 1_555 1_555
C23 C24 1_555 1_555

#END
