
#######################################################################
#
#                 Cambridge Crystallographic Data Centre
#                                CCDC 
#
#######################################################################
#
# If this CIF has been generated from an entry in the Cambridge 
# Structural Database, then it will include bibliographic, chemical, 
# crystal, experimental, refinement or atomic coordinate data resulting 
# from the CCDC's data processing and validation procedures.
#
#######################################################################

data_REGXIL
_chemical_formula_moiety         'C28 H32 B1 N1'
_chemical_name_systematic        
(2-(4-Dimethylaminophenyl)ethynyl)dimesitylborane
_symmetry_cell_setting           monoclinic
_symmetry_space_group_name_H-M   'P 21/c'
_symmetry_Int_Tables_number      14
_space_group_name_Hall           '-P 2ybc'
loop_
_symmetry_equiv_pos_site_id
_symmetry_equiv_pos_as_xyz
1 x,y,z
2 -x,1/2+y,1/2-z
3 -x,-y,-z
4 x,1/2-y,1/2+z
_cell_length_a                   13.882(3)
_cell_length_b                   7.813(1)
_cell_length_c                   22.876(4)
_cell_angle_alpha                90
_cell_angle_beta                 100.21(2)
_cell_angle_gamma                90
_cell_volume                     2441.84
_exptl_crystal_colour            yellow
_exptl_crystal_description       plate
_chemical_melting_point          '427 K'
_cell_formula_units_Z            4
_exptl_crystal_recrystallization_method hexane
loop_
_atom_site_label
_atom_site_type_symbol
_atom_site_fract_x
_atom_site_fract_y
_atom_site_fract_z
B1 B 0.2660(3) 0.3755(6) 0.6938(2)
N1 N 0.6748(2) 0.1192(5) 0.4822(2)
C1 C 0.4688(3) 0.2424(5) 0.5891(2)
C2 C 0.5487(3) 0.1367(5) 0.6100(2)
H1 H 0.5570 0.0928 0.6497
C3 C 0.6159(3) 0.0964(5) 0.5745(2)
H2 H 0.6694 0.0210 0.5891
C4 C 0.6069(2) 0.1575(5) 0.5170(2)
C5 C 0.5260(3) 0.2586(5) 0.4964(2)
H3 H 0.5169 0.3000 0.4563
C6 C 0.4594(3) 0.3001(5) 0.5317(2)
H4 H 0.4045 0.3714 0.5162
C7 C 0.4015(3) 0.2866(5) 0.6262(2)
C8 C 0.3427(3) 0.3240(5) 0.6583(2)
C9 C 0.7601(4) 0.0184(9) 0.5040(3)
H5 H 0.8148 0.0486 0.4855
H6 H 0.7416 -0.0994 0.4976
H7 H 0.7735 0.0353 0.5462
C10 C 0.6635(4) 0.1831(8) 0.4228(2)
H8 H 0.5974 0.1683 0.4024
H9 H 0.7082 0.1232 0.4025
H10 H 0.6813 0.3019 0.4242
C11 C 0.2538(3) 0.2807(5) 0.7522(2)
C12 C 0.1605(3) 0.2584(5) 0.7673(2)
C13 C 0.1501(3) 0.1669(5) 0.8177(2)
H11 H 0.0854 0.1504 0.8262
C14 C 0.2286(4) 0.0982(5) 0.8564(2)
C15 C 0.3197(3) 0.1247(5) 0.8419(2)
H12 H 0.3763 0.0820 0.8681
C16 C 0.3336(3) 0.2100(5) 0.7909(2)
C17 C 0.0657(3) 0.3248(8) 0.7306(2)
H13 H 0.0100 0.2836 0.7460
H14 H 0.0623 0.2897 0.6901
H15 H 0.0680 0.4476 0.7315
C18 C 0.2141(5) -0.0011(8) 0.9112(2)
H16 H 0.2728 -0.0582 0.9298
H17 H 0.1611 -0.0795 0.8989
H18 H 0.1913 0.0802 0.9371
C19 C 0.4394(3) 0.2239(10) 0.7803(3)
H19 H 0.4516 0.1316 0.7549
H20 H 0.4858 0.2163 0.8167
H21 H 0.4489 0.3299 0.7609
C20 C 0.1994(2) 0.5307(5) 0.6668(2)
C21 C 0.1386(3) 0.5192(6) 0.6104(2)
C22 C 0.0792(3) 0.6505(8) 0.5891(2)
H22 H 0.0368 0.6385 0.5513
C23 C 0.0745(3) 0.8013(7) 0.6197(2)
C24 C 0.1375(3) 0.8180(6) 0.6745(2)
H23 H 0.1368 0.9234 0.6960
C25 C 0.1989(3) 0.6856(6) 0.6979(2)
C26 C 0.1380(5) 0.3596(7) 0.5718(2)
H24 H 0.1914 0.3574 0.5502
H25 H 0.0755 0.3537 0.5460
H26 H 0.1404 0.2654 0.5990
C27 C 0.0029(4) 0.9433(8) 0.5962(3)
H27 H -0.0244 0.9954 0.6276
H28 H -0.0475 0.8988 0.5658
H29 H 0.0397 1.0246 0.5776
C28 C 0.2651(4) 0.7083(7) 0.7571(2)
H30 H 0.2362 0.6681 0.7897
H31 H 0.2827 0.8271 0.7606
H32 H 0.3238 0.6474 0.7534
loop_
_geom_bond_atom_site_label_1
_geom_bond_atom_site_label_2
_geom_bond_site_symmetry_1
_geom_bond_site_symmetry_2
B1 C8 1_555 1_555
N1 C4 1_555 1_555
C1 C2 1_555 1_555
C2 H1 1_555 1_555
C3 C2 1_555 1_555
H2 C3 1_555 1_555
C4 C3 1_555 1_555
C5 C4 1_555 1_555
H3 C5 1_555 1_555
C6 C1 1_555 1_555
H4 C6 1_555 1_555
C7 C1 1_555 1_555
C8 C7 1_555 1_555
C9 N1 1_555 1_555
H5 C9 1_555 1_555
H6 C9 1_555 1_555
H7 C9 1_555 1_555
C10 N1 1_555 1_555
H8 C10 1_555 1_555
H9 C10 1_555 1_555
H10 C10 1_555 1_555
C11 B1 1_555 1_555
C12 C11 1_555 1_555
C13 C12 1_555 1_555
H11 C13 1_555 1_555
C14 C13 1_555 1_555
C15 C14 1_555 1_555
H12 C15 1_555 1_555
C16 C11 1_555 1_555
C17 C12 1_555 1_555
H13 C17 1_555 1_555
H14 C17 1_555 1_555
H15 C17 1_555 1_555
C18 C14 1_555 1_555
H16 C18 1_555 1_555
H17 C18 1_555 1_555
H18 C18 1_555 1_555
C19 C16 1_555 1_555
H19 C19 1_555 1_555
H20 C19 1_555 1_555
H21 C19 1_555 1_555
C20 B1 1_555 1_555
C21 C20 1_555 1_555
C22 C21 1_555 1_555
H22 C22 1_555 1_555
C23 C22 1_555 1_555
C24 C23 1_555 1_555
H23 C24 1_555 1_555
C25 C20 1_555 1_555
C26 C21 1_555 1_555
H24 C26 1_555 1_555
H25 C26 1_555 1_555
H26 C26 1_555 1_555
C27 C23 1_555 1_555
H27 C27 1_555 1_555
H28 C27 1_555 1_555
H29 C27 1_555 1_555
C28 C25 1_555 1_555
H30 C28 1_555 1_555
H31 C28 1_555 1_555
H32 C28 1_555 1_555
C5 C6 1_555 1_555
C15 C16 1_555 1_555
C24 C25 1_555 1_555

#END
