
#######################################################################
#
#                 Cambridge Crystallographic Data Centre
#                                CCDC 
#
#######################################################################
#
# If this CIF has been generated from an entry in the Cambridge 
# Structural Database, then it will include bibliographic, chemical, 
# crystal, experimental, refinement or atomic coordinate data resulting 
# from the CCDC's data processing and validation procedures.
#
#######################################################################

data_REGXAD
_chemical_formula_moiety         'C24 H26 B1 Br1'
_chemical_name_systematic        (p-Bromophenyl)dimesitylborane
_symmetry_cell_setting           triclinic
_symmetry_space_group_name_H-M   'P -1'
_symmetry_Int_Tables_number      2
_space_group_name_Hall           '-P 1'
loop_
_symmetry_equiv_pos_site_id
_symmetry_equiv_pos_as_xyz
1 x,y,z
2 -x,-y,-z
_cell_length_a                   8.354(1)
_cell_length_b                   11.051(1)
_cell_length_c                   11.481(1)
_cell_angle_alpha                82.64(1)
_cell_angle_beta                 77.64(1)
_cell_angle_gamma                87.03(1)
_cell_volume                     1026.5
_exptl_crystal_colour            colorless
_exptl_crystal_description       plate
_chemical_melting_point          '446 K'
_cell_formula_units_Z            2
_exptl_crystal_recrystallization_method hexane
loop_
_atom_site_label
_atom_site_type_symbol
_atom_site_fract_x
_atom_site_fract_y
_atom_site_fract_z
Br1 Br -0.32317(2) 0.128424(17) 0.715355(15)
B1 B 0.20303(19) 0.29112(14) 0.25286(14)
C1 C 0.06349(17) 0.25386(13) 0.36549(12)
C2 C -0.02646(17) 0.14814(13) 0.37573(13)
H1 H -0.0083 0.1010 0.3103
C3 C -0.14164(18) 0.11030(14) 0.47921(14)
H2 H -0.1995 0.0372 0.4854
C4 C -0.17020(18) 0.18118(14) 0.57275(13)
C5 C -0.08808(19) 0.28861(14) 0.56619(13)
H3 H -0.1111 0.3373 0.6305
C6 C 0.02890(18) 0.32293(13) 0.46285(13)
H4 H 0.0873 0.3955 0.4579
C7 C 0.19468(17) 0.24703(13) 0.12895(12)
C8 C 0.33200(18) 0.18639(13) 0.06257(13)
C9 C 0.3155(2) 0.13247(13) -0.03744(13)
H5 H 0.4070 0.0895 -0.0791
C10 C 0.1702(2) 0.13949(14) -0.07829(13)
C11 C 0.0394(2) 0.20532(15) -0.01788(14)
H6 H -0.0593 0.2146 -0.0470
C12 C 0.04878(19) 0.25834(14) 0.08455(13)
C13 C 0.49741(18) 0.17663(15) 0.09687(15)
H7 H 0.4894(4) 0.1269(11) 0.1728(11)
H8 H 0.5321(8) 0.2567(10) 0.1031(11)
H9 H 0.5760(10) 0.1401(11) 0.0365(9)
C14 C 0.1558(3) 0.07804(17) -0.18594(16)
H10 H 0.122(3) 0.0018(16) -0.1614(5)
H11 H 0.2538(19) 0.0760(18) -0.2360(13)
H12 H 0.084(2) 0.1200(14) -0.2240(13)
C15 C -0.0976(2) 0.3323(2) 0.14016(16)
H13 H -0.1267(16) 0.3853(15) 0.0849(10)
H14 H -0.0723(8) 0.3705(16) 0.1954(16)
H15 H -0.1787(16) 0.2839(8) 0.1724(16)
C16 C 0.34654(16) 0.36769(12) 0.27236(12)
C17 C 0.44279(17) 0.32401(13) 0.35744(12)
C18 C 0.56737(18) 0.39517(14) 0.37352(13)
H16 H 0.6308 0.3651 0.4310
C19 C 0.60154(18) 0.50878(14) 0.30797(14)
C20 C 0.50729(19) 0.55160(13) 0.22436(13)
H17 H 0.5291 0.6293 0.1789
C21 C 0.38148(18) 0.48289(13) 0.20576(13)
C22 C 0.4203(2) 0.19842(14) 0.42788(15)
H18 H 0.5111(18) 0.1771(8) 0.4619(15)
H19 H 0.410(2) 0.1418(10) 0.3766(9)
H20 H 0.326(2) 0.1991(4) 0.4885(14)
C23 C 0.7377(2) 0.58397(16) 0.32616(17)
H21 H 0.6933(8) 0.6449(15) 0.3744(16)
H22 H 0.7947(17) 0.6203(15) 0.2515(13)
H23 H 0.8100(18) 0.5334(9) 0.3639(16)
C24 C 0.2840(2) 0.53566(16) 0.11351(16)
H24 H 0.3071(15) 0.6187(12) 0.0912(11)
H25 H 0.1715(16) 0.5273(13) 0.1464(7)
H26 H 0.3128(14) 0.4938(11) 0.0455(11)
loop_
_geom_bond_atom_site_label_1
_geom_bond_atom_site_label_2
_geom_bond_site_symmetry_1
_geom_bond_site_symmetry_2
Br1 C4 1_555 1_555
B1 C1 1_555 1_555
C1 C2 1_555 1_555
C2 H1 1_555 1_555
C3 C2 1_555 1_555
H2 C3 1_555 1_555
C4 C3 1_555 1_555
C5 C4 1_555 1_555
H3 C5 1_555 1_555
C6 C1 1_555 1_555
H4 C6 1_555 1_555
C7 B1 1_555 1_555
C8 C7 1_555 1_555
C9 C8 1_555 1_555
H5 C9 1_555 1_555
C10 C9 1_555 1_555
C11 C10 1_555 1_555
H6 C11 1_555 1_555
C12 C7 1_555 1_555
C13 C8 1_555 1_555
H7 C13 1_555 1_555
H8 C13 1_555 1_555
H9 C13 1_555 1_555
C14 C10 1_555 1_555
H10 C14 1_555 1_555
H11 C14 1_555 1_555
H12 C14 1_555 1_555
C15 C12 1_555 1_555
H13 C15 1_555 1_555
H14 C15 1_555 1_555
H15 C15 1_555 1_555
C16 B1 1_555 1_555
C17 C16 1_555 1_555
C18 C17 1_555 1_555
H16 C18 1_555 1_555
C19 C18 1_555 1_555
C20 C19 1_555 1_555
H17 C20 1_555 1_555
C21 C16 1_555 1_555
C22 C17 1_555 1_555
H18 C22 1_555 1_555
H19 C22 1_555 1_555
H20 C22 1_555 1_555
C23 C19 1_555 1_555
H21 C23 1_555 1_555
H22 C23 1_555 1_555
H23 C23 1_555 1_555
C24 C21 1_555 1_555
H24 C24 1_555 1_555
H25 C24 1_555 1_555
H26 C24 1_555 1_555
C5 C6 1_555 1_555
C11 C12 1_555 1_555
C20 C21 1_555 1_555

#END
