
#######################################################################
#
#                 Cambridge Crystallographic Data Centre
#                                CCDC 
#
#######################################################################
#
# If this CIF has been generated from an entry in the Cambridge 
# Structural Database, then it will include bibliographic, chemical, 
# crystal, experimental, refinement or atomic coordinate data resulting 
# from the CCDC's data processing and validation procedures.
#
#######################################################################

data_REHBIR
_chemical_formula_moiety         'C24 H26 N4 O4'
_chemical_name_systematic        
5,5'-bis(4-butoxyphenyl)-2,2'-bi-1,3,4-oxadiazole
_symmetry_cell_setting           triclinic
_symmetry_space_group_name_H-M   'P -1'
_symmetry_Int_Tables_number      2
_space_group_name_Hall           '-P 1'
loop_
_symmetry_equiv_pos_site_id
_symmetry_equiv_pos_as_xyz
1 x,y,z
2 -x,-y,-z
_cell_length_a                   8.0873(16)
_cell_length_b                   8.1278(16)
_cell_length_c                   9.3175(19)
_cell_angle_alpha                107.15(3)
_cell_angle_beta                 105.03(3)
_cell_angle_gamma                97.99(3)
_cell_volume                     549.583
_exptl_crystal_colour            yellow
_exptl_crystal_description       block
_cell_formula_units_Z            1
loop_
_atom_site_label
_atom_site_type_symbol
_atom_site_fract_x
_atom_site_fract_y
_atom_site_fract_z
O1 O 0.76326(10) 0.93897(10) 0.91286(9)
N1 N 0.92541(13) 0.82976(14) 1.07478(13)
C1 C 0.92583(14) 0.94006(14) 1.00047(13)
O2 O -0.07005(11) 0.66547(13) 0.65568(11)
N2 N 0.74809(13) 0.74569(14) 1.03545(13)
C2 C 0.65857(15) 0.81416(14) 0.94173(13)
C3 C 0.46909(14) 0.77653(15) 0.86630(13)
C4 C 0.40040(15) 0.86687(16) 0.76880(15)
H1 H 0.4768(19) 0.9512(19) 0.7526(17)
C5 C 0.22104(15) 0.83289(16) 0.69594(14)
H2 H 0.1791(18) 0.9023(19) 0.6298(16)
C6 C 0.10828(15) 0.70742(16) 0.72111(14)
C7 C 0.17598(16) 0.61648(16) 0.82000(15)
H3 H 0.092(2) 0.534(2) 0.8337(17)
C8 C 0.35470(16) 0.65116(16) 0.89204(15)
H4 H 0.3994(18) 0.5826(18) 0.9585(16)
C9 C -0.14539(16) 0.75265(18) 0.55030(16)
H5 H -0.0948(17) 0.7301(17) 0.4602(16)
H6 H -0.1165(18) 0.8785(18) 0.6102(16)
C10 C -0.34115(15) 0.67658(17) 0.48722(15)
H7 H -0.3630(18) 0.5482(18) 0.4268(16)
H8 H -0.3845(18) 0.6907(18) 0.5767(16)
C11 C -0.43417(17) 0.76962(19) 0.38254(17)
H9 H -0.3824(19) 0.761(2) 0.2985(19)
H10 H -0.4065(19) 0.897(2) 0.4449(17)
C12 C -0.63137(18) 0.6954(2) 0.31452(19)
H11 H -0.663(3) 0.573(3) 0.244(2)
H12 H -0.684(3) 0.698(3) 0.401(2)
H13 H -0.694(2) 0.760(2) 0.2541(18)
O1A O 1.23674(10) 1.06103(10) 1.08714(9)
N1A N 1.07459(13) 1.17024(14) 0.92522(13)
C1A C 1.07417(14) 1.05994(14) 0.99953(13)
O2A O 2.07005(11) 1.33453(13) 1.34432(11)
N2A N 1.25191(13) 1.25431(14) 0.96455(13)
C2A C 1.34143(15) 1.18584(14) 1.05827(13)
C3A C 1.53091(14) 1.22347(15) 1.13370(13)
C4A C 1.59960(15) 1.13313(16) 1.23120(15)
H1A H 1.5232(19) 1.0488(19) 1.2474(17)
C5A C 1.77896(15) 1.16711(16) 1.30406(14)
H2A H 1.8209(18) 1.0977(19) 1.3702(16)
C6A C 1.89172(15) 1.29258(16) 1.27889(14)
C7A C 1.82402(16) 1.38352(16) 1.18000(15)
H3A H 1.908(2) 1.466(2) 1.1663(17)
C8A C 1.64530(16) 1.34884(16) 1.10796(15)
H4A H 1.6006(18) 1.4174(18) 1.0415(16)
C9A C 2.14539(16) 1.24735(18) 1.44970(16)
H5A H 2.0948(17) 1.2699(17) 1.5398(16)
H6A H 2.1165(18) 1.1215(18) 1.3898(16)
C10A C 2.34115(15) 1.32342(17) 1.51278(15)
H7A H 2.3630(18) 1.4518(18) 1.5732(16)
H8A H 2.3845(18) 1.3093(18) 1.4233(16)
C11A C 2.43417(17) 1.23038(19) 1.61746(17)
H9A H 2.3824(19) 1.239(2) 1.7015(19)
H10A H 2.4065(19) 1.103(2) 1.5551(17)
C12A C 2.63137(18) 1.3046(2) 1.68548(19)
H11A H 2.663(3) 1.427(3) 1.756(2)
H12A H 2.684(3) 1.302(3) 1.599(2)
H13A H 2.694(2) 1.240(2) 1.7459(18)
loop_
_geom_bond_atom_site_label_1
_geom_bond_atom_site_label_2
_geom_bond_site_symmetry_1
_geom_bond_site_symmetry_2
O1 C1 1_555 1_555
N1 C1 1_555 1_555
C1 C1A 1_555 1_555
O2 C6 1_555 1_555
N2 N1 1_555 1_555
C2 O1 1_555 1_555
C3 C2 1_555 1_555
C4 C3 1_555 1_555
H1 C4 1_555 1_555
C5 C4 1_555 1_555
H2 C5 1_555 1_555
C6 C5 1_555 1_555
C7 C6 1_555 1_555
H3 C7 1_555 1_555
C8 C3 1_555 1_555
H4 C8 1_555 1_555
C9 O2 1_555 1_555
H5 C9 1_555 1_555
H6 C9 1_555 1_555
C10 C9 1_555 1_555
H7 C10 1_555 1_555
H8 C10 1_555 1_555
C11 C10 1_555 1_555
H9 C11 1_555 1_555
H10 C11 1_555 1_555
C12 C11 1_555 1_555
H11 C12 1_555 1_555
H12 C12 1_555 1_555
H13 C12 1_555 1_555
O1A C1A 1_555 1_555
N1A C1A 1_555 1_555
O2A C6A 1_555 1_555
N2A N1A 1_555 1_555
C2A O1A 1_555 1_555
C3A C2A 1_555 1_555
C4A C3A 1_555 1_555
H1A C4A 1_555 1_555
C5A C4A 1_555 1_555
H2A C5A 1_555 1_555
C6A C5A 1_555 1_555
C7A C6A 1_555 1_555
H3A C7A 1_555 1_555
C8A C3A 1_555 1_555
H4A C8A 1_555 1_555
C9A O2A 1_555 1_555
H5A C9A 1_555 1_555
H6A C9A 1_555 1_555
C10A C9A 1_555 1_555
H7A C10A 1_555 1_555
H8A C10A 1_555 1_555
C11A C10A 1_555 1_555
H9A C11A 1_555 1_555
H10A C11A 1_555 1_555
C12A C11A 1_555 1_555
H11A C12A 1_555 1_555
H12A C12A 1_555 1_555
H13A C12A 1_555 1_555
N2 C2 1_555 1_555
C7 C8 1_555 1_555
N2A C2A 1_555 1_555
C7A C8A 1_555 1_555

#END
