
#######################################################################
#
#                 Cambridge Crystallographic Data Centre
#                                CCDC 
#
#######################################################################
#
# If this CIF has been generated from an entry in the Cambridge 
# Structural Database, then it will include bibliographic, chemical, 
# crystal, experimental, refinement or atomic coordinate data resulting 
# from the CCDC's data processing and validation procedures.
#
#######################################################################

data_REHDAL
_chemical_formula_moiety         'C14 H12 N4'
_chemical_name_systematic        
2,6-Dimethyl-1,4-dihydro-4,4'-bipyridine-3,5-dicarbonitrile
_symmetry_cell_setting           monoclinic
_symmetry_space_group_name_H-M   'P 21/m'
_symmetry_Int_Tables_number      11
_space_group_name_Hall           '-P 2yb'
loop_
_symmetry_equiv_pos_site_id
_symmetry_equiv_pos_as_xyz
1 x,y,z
2 -x,1/2+y,-z
3 -x,-y,-z
4 x,1/2-y,z
_cell_length_a                   6.8273(6)
_cell_length_b                   12.2630(11)
_cell_length_c                   7.4173(7)
_cell_angle_alpha                90
_cell_angle_beta                 97.954(2)
_cell_angle_gamma                90
_cell_volume                     615.026
_exptl_crystal_colour            colorless
_exptl_crystal_description       block
_cell_formula_units_Z            2
loop_
_atom_site_label
_atom_site_type_symbol
_atom_site_fract_x
_atom_site_fract_y
_atom_site_fract_z
N1 N 0.8840(3) 0.2500 1.4152(2)
N2 N 0.2306(2) 0.2500 0.7093(2)
H1 H 0.1041 0.2500 0.6812
N3 N 0.7136(2) -0.03262(13) 0.8224(3)
C1 C 0.6894(3) 0.2500 1.3580(3)
H2 H 0.6039 0.2500 1.4454
C2 C 0.6079(3) 0.2500 1.1769(3)
H3 H 0.4713 0.2500 1.1446
C3 C 0.7310(2) 0.2500 1.0444(2)
C4 C 0.9316(3) 0.2500 1.1016(3)
H4 H 1.0204 0.2500 1.0172
C5 C 0.9993(3) 0.2500 1.2865(3)
H5 H 1.1354 0.2500 1.3224
C6 C 0.6487(2) 0.2500 0.8423(2)
H6 H 0.7604 0.2500 0.7724
C7 C 0.52462(19) 0.14921(10) 0.79009(16)
C8 C 0.32803(19) 0.15172(11) 0.73091(16)
C9 C 0.6251(2) 0.04741(12) 0.8073(2)
C10 C 0.2039(2) 0.05296(13) 0.6835(2)
H7 H 0.2845 -0.0112 0.7042
H8 H 0.1476 0.0562 0.5576
H9 H 0.0998 0.0503 0.7581
N3C N 0.7136(2) 0.53262(13) 0.8224(3)
C7C C 0.52462(19) 0.35079(10) 0.79009(16)
C8C C 0.32803(19) 0.34828(11) 0.73091(16)
C9C C 0.6251(2) 0.45259(12) 0.8073(2)
C10C C 0.2039(2) 0.44704(13) 0.6835(2)
H7C H 0.2845 0.5112 0.7042
H8C H 0.1476 0.4438 0.5576
H9C H 0.0998 0.4497 0.7581
loop_
_geom_bond_atom_site_label_1
_geom_bond_atom_site_label_2
_geom_bond_site_symmetry_1
_geom_bond_site_symmetry_2
N1 C1 1_555 1_555
N2 H1 1_555 1_555
N3 C9 1_555 1_555
C1 H2 1_555 1_555
C2 C1 1_555 1_555
H3 C2 1_555 1_555
C3 C2 1_555 1_555
C4 C3 1_555 1_555
H4 C4 1_555 1_555
C5 N1 1_555 1_555
H5 C5 1_555 1_555
C6 C3 1_555 1_555
H6 C6 1_555 1_555
C7 C6 1_555 1_555
C8 N2 1_555 1_555
C9 C7 1_555 1_555
C10 C8 1_555 1_555
H7 C10 1_555 1_555
H8 C10 1_555 1_555
H9 C10 1_555 1_555
N3C C9C 1_555 1_555
C7C C6 1_555 1_555
C8C N2 1_555 1_555
C9C C7C 1_555 1_555
C10C C8C 1_555 1_555
H7C C10C 1_555 1_555
H8C C10C 1_555 1_555
H9C C10C 1_555 1_555
C4 C5 1_555 1_555
C7 C8 1_555 1_555
C7C C8C 1_555 1_555

#END
