
#######################################################################
#
#                 Cambridge Crystallographic Data Centre
#                                CCDC 
#
#######################################################################
#
# If this CIF has been generated from an entry in the Cambridge 
# Structural Database, then it will include bibliographic, chemical, 
# crystal, experimental, refinement or atomic coordinate data resulting 
# from the CCDC's data processing and validation procedures.
#
#######################################################################

data_REHDUG
_chemical_formula_moiety         'C45 H38'
_chemical_name_systematic        
9,9,9',9',9'',9''-hexamethyl-9H,9'H,9''H-2,2':7',2''-terfluorene
_symmetry_cell_setting           orthorhombic
_symmetry_space_group_name_H-M   'P b c n'
_symmetry_Int_Tables_number      60
_space_group_name_Hall           '-P 2n 2ab'
loop_
_symmetry_equiv_pos_site_id
_symmetry_equiv_pos_as_xyz
1 x,y,z
2 1/2-x,1/2-y,1/2+z
3 1/2+x,1/2-y,-z
4 -x,y,1/2-z
5 -x,-y,-z
6 1/2+x,1/2+y,1/2-z
7 1/2-x,1/2+y,z
8 x,-y,1/2+z
_cell_length_a                   8.6787(8)
_cell_length_b                   23.1736(19)
_cell_length_c                   16.1895(14)
_cell_angle_alpha                90
_cell_angle_beta                 90
_cell_angle_gamma                90
_cell_volume                     3255.98
_exptl_crystal_colour            colorless
_exptl_crystal_description       needle
_cell_formula_units_Z            4
_exptl_crystal_preparation       ', Luminescent'
loop_
_atom_site_label
_atom_site_type_symbol
_atom_site_fract_x
_atom_site_fract_y
_atom_site_fract_z
C1 C 0.0394(2) 0.18046(9) -0.13543(11)
H1 H 0.073(2) 0.2140(7) -0.1690(11)
C2 C -0.1089(2) 0.15791(10) -0.14052(12)
H2 H -0.182(2) 0.1760(9) -0.1793(12)
C3 C -0.1538(2) 0.11279(9) -0.09086(12)
H3 H -0.260(2) 0.0973(9) -0.0960(12)
C4 C -0.0527(2) 0.08856(8) -0.03506(11)
H4 H -0.086(2) 0.0561(8) 0.0010(12)
C5 C 0.09633(18) 0.10981(6) -0.03109(9)
C6 C 0.22800(18) 0.09155(6) 0.01857(8)
C7 C 0.2429(2) 0.04764(7) 0.07636(10)
H5 H 0.1520(19) 0.0236(7) 0.0899(10)
C8 C 0.3826(2) 0.03962(7) 0.11472(10)
H6 H 0.3952(19) 0.0097(8) 0.1572(11)
C9 C 0.51005(19) 0.07437(6) 0.09721(9)
C10 C 0.49312(19) 0.11915(6) 0.03984(9)
H7 H 0.5801(18) 0.1444(6) 0.0279(9)
C11 C 0.35333(18) 0.12726(6) 0.00068(8)
C12 C 0.30889(18) 0.17267(6) -0.06308(9)
C13 C 0.14236(18) 0.15617(7) -0.08058(9)
C14 C 0.3178(3) 0.23344(8) -0.02566(12)
H8 H 0.256(2) 0.2353(8) 0.0284(11)
H9 H 0.276(2) 0.2623(9) -0.0651(11)
H10 H 0.429(2) 0.2429(8) -0.0093(11)
C15 C 0.4086(2) 0.16883(9) -0.14100(11)
H11 H 0.372(2) 0.1988(8) -0.1846(12)
H12 H 0.406(2) 0.1292(8) -0.1665(11)
H13 H 0.517(2) 0.1784(7) -0.1280(11)
C16 C 0.65840(19) 0.06339(6) 0.13965(9)
C17 C 0.7068(2) 0.00638(7) 0.15304(9)
H14 H 0.6412(18) -0.0248(7) 0.1304(10)
C18 C 0.8406(2) -0.00594(6) 0.19568(9)
H15 H 0.8742(18) -0.0464(7) 0.2029(10)
C19 C 0.92941(18) 0.03916(6) 0.22579(8)
C20 C 0.88571(18) 0.09642(6) 0.21060(8)
C21 C 0.7517(2) 0.10827(6) 0.16837(9)
H16 H 0.7173(19) 0.1480(7) 0.1589(9)
C22 C 1.0000 0.13820(8) 0.2500
C23 C 1.0807(2) 0.17652(7) 0.18597(11)
H17 H 1.156(2) 0.2045(8) 0.2158(11)
H18 H 1.000(2) 0.2000(8) 0.1527(12)
H19 H 1.142(2) 0.1522(8) 0.1440(12)
C1C C 1.9606(2) 0.18046(9) 0.63543(11)
H1C H 1.927(2) 0.2140(7) 0.6690(11)
C2C C 2.1089(2) 0.15791(10) 0.64052(12)
H2C H 2.182(2) 0.1760(9) 0.6793(12)
C3C C 2.1538(2) 0.11279(9) 0.59086(12)
H3C H 2.260(2) 0.0973(9) 0.5960(12)
C4C C 2.0527(2) 0.08856(8) 0.53506(11)
H4C H 2.086(2) 0.0561(8) 0.4990(12)
C5C C 1.90367(18) 0.10981(6) 0.53109(9)
C6C C 1.77200(18) 0.09155(6) 0.48143(8)
C7C C 1.7571(2) 0.04764(7) 0.42364(10)
H5C H 1.8480(19) 0.0236(7) 0.4101(10)
C8C C 1.6174(2) 0.03962(7) 0.38528(10)
H6C H 1.6048(19) 0.0097(8) 0.3428(11)
C9C C 1.48995(19) 0.07437(6) 0.40279(9)
C10C C 1.50688(19) 0.11915(6) 0.46016(9)
H7C H 1.4199(18) 0.1444(6) 0.4721(9)
C11C C 1.64667(18) 0.12726(6) 0.49932(8)
C12C C 1.69111(18) 0.17267(6) 0.56308(9)
C13C C 1.85764(18) 0.15617(7) 0.58058(9)
C14C C 1.6822(3) 0.23344(8) 0.52566(12)
H8C H 1.744(2) 0.2353(8) 0.4716(11)
H9C H 1.724(2) 0.2623(9) 0.5651(11)
H10C H 1.571(2) 0.2429(8) 0.5093(11)
C15C C 1.5914(2) 0.16883(9) 0.64100(11)
H11C H 1.628(2) 0.1988(8) 0.6846(12)
H12C H 1.594(2) 0.1292(8) 0.6665(11)
H13C H 1.483(2) 0.1784(7) 0.6280(11)
C16C C 1.34160(19) 0.06339(6) 0.36035(9)
C17C C 1.2932(2) 0.00638(7) 0.34696(9)
H14C H 1.3588(18) -0.0248(7) 0.3696(10)
C18C C 1.1594(2) -0.00594(6) 0.30432(9)
H15C H 1.1258(18) -0.0464(7) 0.2971(10)
C19C C 1.07059(18) 0.03916(6) 0.27421(8)
C20C C 1.11429(18) 0.09642(6) 0.28940(8)
C21C C 1.2483(2) 0.10827(6) 0.33163(9)
H16C H 1.2827(19) 0.1480(7) 0.3411(9)
C23C C 0.9193(2) 0.17652(7) 0.31403(11)
H17C H 0.844(2) 0.2045(8) 0.2842(11)
H18C H 1.000(2) 0.2000(8) 0.3473(12)
H19C H 0.858(2) 0.1522(8) 0.3560(12)
loop_
_geom_bond_atom_site_label_1
_geom_bond_atom_site_label_2
_geom_bond_site_symmetry_1
_geom_bond_site_symmetry_2
C1 H1 1_555 1_555
C2 C1 1_555 1_555
H2 C2 1_555 1_555
C3 C2 1_555 1_555
H3 C3 1_555 1_555
C4 C3 1_555 1_555
H4 C4 1_555 1_555
C5 C4 1_555 1_555
C6 C5 1_555 1_555
C7 C6 1_555 1_555
H5 C7 1_555 1_555
C8 C7 1_555 1_555
H6 C8 1_555 1_555
C9 C8 1_555 1_555
C10 C9 1_555 1_555
H7 C10 1_555 1_555
C11 C6 1_555 1_555
C12 C11 1_555 1_555
C13 C1 1_555 1_555
C14 C12 1_555 1_555
H8 C14 1_555 1_555
H9 C14 1_555 1_555
H10 C14 1_555 1_555
C15 C12 1_555 1_555
H11 C15 1_555 1_555
H12 C15 1_555 1_555
H13 C15 1_555 1_555
C16 C9 1_555 1_555
C17 C16 1_555 1_555
H14 C17 1_555 1_555
C18 C17 1_555 1_555
H15 C18 1_555 1_555
C19 C18 1_555 1_555
C20 C19 1_555 1_555
C21 C16 1_555 1_555
H16 C21 1_555 1_555
C22 C20 1_555 1_555
C23 C22 1_555 1_555
H17 C23 1_555 1_555
H18 C23 1_555 1_555
H19 C23 1_555 1_555
C1C H1C 1_555 1_555
C2C C1C 1_555 1_555
H2C C2C 1_555 1_555
C3C C2C 1_555 1_555
H3C C3C 1_555 1_555
C4C C3C 1_555 1_555
H4C C4C 1_555 1_555
C5C C4C 1_555 1_555
C6C C5C 1_555 1_555
C7C C6C 1_555 1_555
H5C C7C 1_555 1_555
C8C C7C 1_555 1_555
H6C C8C 1_555 1_555
C9C C8C 1_555 1_555
C10C C9C 1_555 1_555
H7C C10C 1_555 1_555
C11C C6C 1_555 1_555
C12C C11C 1_555 1_555
C13C C1C 1_555 1_555
C14C C12C 1_555 1_555
H8C C14C 1_555 1_555
H9C C14C 1_555 1_555
H10C C14C 1_555 1_555
C15C C12C 1_555 1_555
H11C C15C 1_555 1_555
H12C C15C 1_555 1_555
H13C C15C 1_555 1_555
C16C C9C 1_555 1_555
C17C C16C 1_555 1_555
H14C C17C 1_555 1_555
C18C C17C 1_555 1_555
H15C C18C 1_555 1_555
C19C C19 1_555 1_555
C20C C22 1_555 1_555
C21C C16C 1_555 1_555
H16C C21C 1_555 1_555
C23C C22 1_555 1_555
H17C C23C 1_555 1_555
H18C C23C 1_555 1_555
H19C C23C 1_555 1_555
C5 C13 1_555 1_555
C10 C11 1_555 1_555
C12 C13 1_555 1_555
C20 C21 1_555 1_555
C5C C13C 1_555 1_555
C10C C11C 1_555 1_555
C12C C13C 1_555 1_555
C18C C19C 1_555 1_555
C19C C20C 1_555 1_555
C20C C21C 1_555 1_555

#END
