
#######################################################################
#
#                 Cambridge Crystallographic Data Centre
#                                CCDC 
#
#######################################################################
#
# If this CIF has been generated from an entry in the Cambridge 
# Structural Database, then it will include bibliographic, chemical, 
# crystal, experimental, refinement or atomic coordinate data resulting 
# from the CCDC's data processing and validation procedures.
#
#######################################################################

data_REHDOA
_chemical_formula_moiety         'C45 H38,0.5(C1 H1 Cl3)'
_chemical_name_systematic        
"9,9,9',9',9'',9''-hexamethyl-9H,9'H,9''H-2,2':7',2''-terfluorene chloroform solvate"
_symmetry_cell_setting           monoclinic
_symmetry_space_group_name_H-M   'P 21/c'
_symmetry_Int_Tables_number      14
_space_group_name_Hall           '-P 2ybc'
loop_
_symmetry_equiv_pos_site_id
_symmetry_equiv_pos_as_xyz
1 x,y,z
2 -x,1/2+y,1/2-z
3 -x,-y,-z
4 x,1/2-y,1/2+z
_cell_length_a                   19.532(2)
_cell_length_b                   22.819(3)
_cell_length_c                   16.8357(18)
_cell_angle_alpha                90
_cell_angle_beta                 113.707(2)
_cell_angle_gamma                90
_cell_volume                     6870.47
_exptl_crystal_colour            colorless
_exptl_crystal_description       plate
_cell_formula_units_Z            8
_chemical_properties_physical    ', Heat-sensitive'
_exptl_crystal_preparation       ', Luminescent'
loop_
_atom_site_label
_atom_site_type_symbol
_atom_site_fract_x
_atom_site_fract_y
_atom_site_fract_z
C1 C 0.76308(8) 0.15379(7) 0.35845(10)
C2 C 0.97506(8) 0.17574(6) 0.14691(10)
C3 C 1.02228(8) 0.17967(6) 0.09795(10)
C4 C 1.34818(9) 0.09631(7) -0.09237(10)
C5 C 1.15220(8) 0.16703(6) 0.12228(10)
H1 H 1.2026 0.1594 0.1602
C6 C 1.05882(9) 0.19098(7) -0.02081(10)
H2 H 1.0465 0.2003 -0.0800
C7 C 0.80311(8) 0.17086(6) 0.44522(10)
C8 C 0.89847(9) 0.18275(7) 0.12001(10)
H3 H 0.8678 0.1910 0.0610
C9 C 1.09684(8) 0.16894(6) 0.15424(9)
C10 C 1.28563(9) 0.12186(7) -0.07675(10)
C11 C 1.18779(9) 0.16432(7) -0.00613(10)
C12 C 1.13312(8) 0.17656(7) 0.03303(10)
C13 C 0.98946(8) 0.15923(6) 0.29482(10)
H4 H 1.0204 0.1515 0.3539
C14 C 0.74998(8) 0.17632(7) 0.48681(10)
C15 C 1.02084(8) 0.16369(6) 0.23404(10)
C16 C 0.86736(8) 0.17757(7) 0.18067(10)
H5 H 0.8148 0.1818 0.1624
C17 C 1.00297(9) 0.19187(7) 0.01063(10)
H6 H 0.9527 0.2006 -0.0267
C18 C 0.91519(9) 0.17727(7) 0.41916(10)
H7 H 0.9675 0.1842 0.4403
C19 C 1.20948(9) 0.12111(7) -0.12679(10)
H8 H 1.1906 0.1068 -0.1847
C20 C 0.87533(8) 0.16330(6) 0.33116(10)
C21 C 0.87967(9) 0.18112(7) 0.47615(10)
H9 H 0.9074 0.1906 0.5354
C22 C 1.16101(9) 0.14156(7) -0.09111(10)
H10 H 1.1086 0.1402 -0.1247
C23 C 1.15513(9) 0.19930(7) 0.31371(10)
H11 H 1.2061 0.1945 0.3170
H12 H 1.1545 0.1912 0.3706
H13 H 1.1383 0.2396 0.2964
C24 C 1.31402(9) 0.14731(7) 0.00638(10)
C25 C 0.91185(8) 0.16614(6) 0.26873(10)
C26 C 0.79869(8) 0.14976(7) 0.30222(10)
H14 H 0.7713 0.1378 0.2439
C27 C 0.76078(9) 0.19485(7) 0.56982(10)
H15 H 0.8092 0.2051 0.6110
C28 C 0.63089(9) 0.18521(8) 0.26595(11)
H16 H 0.6467 0.2259 0.2812
H17 H 0.5787 0.1808 0.2582
H18 H 0.6356 0.1749 0.2119
C29 C 0.67854(9) 0.16113(7) 0.42592(10)
C30 C 1.39907(9) 0.14357(7) 0.04777(10)
C31 C 1.10239(8) 0.15635(7) 0.24622(9)
C32 C 1.12842(9) 0.09270(7) 0.27250(11)
H19 H 1.0942 0.0656 0.2297
H20 H 1.1286 0.0844 0.3297
H21 H 1.1790 0.0876 0.2747
C33 C 1.26544(9) 0.16899(7) 0.04114(10)
H22 H 1.2847 0.1869 0.0968
C34 C 0.65759(10) 0.07994(8) 0.31563(12)
H23 H 0.6642 0.0695 0.2627
H24 H 0.6050 0.0749 0.3060
H25 H 0.6889 0.0545 0.3632
C35 C 1.41477(9) 0.10835(7) -0.02023(10)
C36 C 0.61742(9) 0.16338(8) 0.44833(11)
H26 H 0.5691 0.1522 0.4078
C37 C 1.48368(10) 0.05491(8) -0.08692(12)
H27 H 1.5299 0.0411 -0.0859
C38 C 1.48267(10) 0.08799(8) -0.01730(12)
H28 H 1.5278 0.0964 0.0312
C39 C 0.69900(10) 0.19810(8) 0.59122(11)
H29 H 0.7053 0.2112 0.6473
C40 C 0.68067(8) 0.14432(7) 0.33914(10)
C41 C 1.34888(10) 0.06306(7) -0.16158(11)
H30 H 1.3038 0.0548 -0.2103
C42 C 1.43483(10) 0.20501(8) 0.05943(12)
H31 H 1.4158 0.2255 0.0036
H32 H 1.4893 0.2011 0.0808
H33 H 1.4222 0.2274 0.1013
C43 C 0.62812(10) 0.18236(8) 0.53137(11)
H34 H 0.5867 0.1845 0.5472
C44 C 1.41760(10) 0.04220(8) -0.15747(12)
H35 H 1.4191 0.0190 -0.2036
C45 C 1.42649(10) 0.11078(9) 0.13490(11)
H36 H 1.4147 0.1339 0.1769
H37 H 1.4807 0.1049 0.1567
H38 H 1.4015 0.0726 0.1266
C46 C 0.02866(8) 0.67876(7) 0.76445(9)
H39 H 0.0457 0.7150 0.7512
C47 C 0.19662(8) 0.68029(7) 0.65655(10)
H40 H 0.2242 0.7149 0.6586
C48 C 0.14924(9) 0.67729(7) 0.70034(10)
H41 H 0.1456 0.7102 0.7329
C49 C 0.10671(8) 0.62685(7) 0.69763(9)
C50 C -0.10689(8) 0.55281(7) 0.86713(9)
C51 C 0.16109(9) 0.58047(7) 0.60723(10)
C52 C -0.02059(8) 0.67920(7) 0.80552(9)
H42 H -0.0363 0.7153 0.8209
C53 C 0.05384(8) 0.62594(7) 0.74212(9)
C54 C -0.13301(9) 0.65115(7) 0.90376(10)
H43 H -0.1277 0.6925 0.9020
C55 C -0.00091(9) 0.48202(7) 0.89265(10)
H44 H 0.0293 0.5055 0.9434
H45 H 0.0314 0.4651 0.8667
H46 H -0.0257 0.4505 0.9105
C56 C -0.28539(9) 0.57133(7) 1.00586(10)
H47 H -0.3014 0.6079 0.9775
C57 C -0.15128(8) 0.52841(7) 0.90557(10)
H48 H -0.1585 0.4872 0.9044
C58 C 0.02701(9) 0.57259(7) 0.76123(10)
H49 H 0.0434 0.5364 0.7472
C59 C -0.04657(8) 0.62633(6) 0.82388(9)
C60 C -0.31965(8) 0.54820(7) 1.05701(10)
C61 C -0.09754(8) 0.61386(7) 0.86641(9)
C62 C -0.06004(8) 0.52114(7) 0.82584(10)
C63 C -0.02350(8) 0.57306(6) 0.80057(9)
C64 C -0.39264(9) 0.52731(7) 1.13660(10)
C65 C -0.22662(9) 0.54014(7) 0.99631(10)
C66 C -0.23903(9) 0.46268(7) 1.09002(10)
H50 H -0.2234 0.4261 1.1184
C67 C -0.18559(8) 0.56529(7) 0.94642(10)
C68 C -0.17630(9) 0.62643(7) 0.94371(10)
H51 H -0.2002 0.6515 0.9698
C69 C 0.24624(8) 0.62145(7) 0.55738(10)
C70 C 0.17638(9) 0.53281(7) 0.55273(10)
C71 C 0.20268(8) 0.63145(7) 0.60976(10)
C72 C -0.34265(9) 0.48078(7) 1.14776(10)
C73 C 0.23116(9) 0.56439(7) 0.52312(10)
C74 C -0.38297(9) 0.57453(7) 1.07729(10)
C75 C 0.31374(9) 0.58011(8) 0.45153(11)
H52 H 0.3371 0.5663 0.4153
C76 C 0.26517(9) 0.54317(8) 0.47060(10)
H53 H 0.2557 0.5044 0.4481
C77 C 0.29507(9) 0.65822(7) 0.53854(10)
H54 H 0.3053 0.6968 0.5616
C78 C 0.11341(9) 0.57818(7) 0.64995(10)
H55 H 0.0852 0.5437 0.6470
C79 C -0.34178(10) 0.43272(8) 1.19916(11)
H56 H -0.3079 0.4013 1.2066
C80 C -0.20469(9) 0.48595(7) 1.03888(10)
H57 H -0.1654 0.4647 1.0326
C81 C -0.29682(9) 0.49404(7) 1.09882(10)
C82 C -0.10895(9) 0.48471(7) 0.74658(10)
H58 H -0.1369 0.4555 0.7642
H59 H -0.0771 0.4648 0.7225
H60 H -0.1441 0.5106 0.7025
C83 C 0.32844(9) 0.63680(8) 0.48489(11)
H61 H 0.3615 0.6612 0.4710
C84 C 0.21373(10) 0.47882(7) 0.60838(12)
H62 H 0.2586 0.4911 0.6582
H63 H 0.2276 0.4508 0.5733
H64 H 0.1787 0.4602 0.6290
C85 C -0.44117(10) 0.47807(9) 1.22862(12)
H65 H -0.4749 0.4768 1.2565
C86 C 0.10425(10) 0.51448(8) 0.47623(11)
H66 H 0.0698 0.4966 0.4984
H67 H 0.1162 0.4861 0.4401
H68 H 0.0807 0.5491 0.4415
C87 C -0.36008(10) 0.63335(8) 1.12549(12)
H69 H -0.3150 0.6278 1.1787
H70 H -0.4008 0.6478 1.1403
H71 H -0.3499 0.6619 1.0882
C88 C -0.45449(10) 0.58239(9) 0.99501(11)
H72 H -0.4462 0.6123 0.9580
H73 H -0.4953 0.5948 1.0109
H74 H -0.4676 0.5452 0.9635
C89 C -0.39179(10) 0.43165(8) 1.23960(11)
H75 H -0.3921 0.3992 1.2747
C90 C -0.44189(10) 0.52637(8) 1.17727(11)
H76 H -0.4755 0.5580 1.1703
Cl1 Cl 0.48879(3) 0.26182(3) 0.33855(5)
Cl2 Cl 0.32846(3) 0.27525(3) 0.25401(4)
Cl3 Cl 0.42497(5) 0.34420(3) 0.19707(4)
C91 C 0.41519(11) 0.31114(8) 0.28607(12)
H77 H 0.4173 0.3426 0.3283
loop_
_geom_bond_atom_site_label_1
_geom_bond_atom_site_label_2
_geom_bond_site_symmetry_1
_geom_bond_site_symmetry_2
C1 C7 1_555 1_555
C2 C3 1_555 1_555
C3 C9 1_555 1_555
C4 C10 1_555 1_555
C5 H1 1_555 1_555
C6 H2 1_555 1_555
C7 C14 1_555 1_555
C8 C2 1_555 1_555
H3 C8 1_555 1_555
C9 C5 1_555 1_555
C10 C19 1_555 1_555
C11 C12 1_555 1_555
C12 C5 1_555 1_555
C13 H4 1_555 1_555
C14 C27 1_555 1_555
C15 C2 1_555 1_555
C16 C8 1_555 1_555
H5 C16 1_555 1_555
C17 C3 1_555 1_555
H6 C17 1_555 1_555
C18 H7 1_555 1_555
C19 H8 1_555 1_555
C20 C18 1_555 1_555
C21 C7 1_555 1_555
H9 C21 1_555 1_555
C22 C11 1_555 1_555
H10 C22 1_555 1_555
C23 H11 1_555 1_555
H12 C23 1_555 1_555
H13 C23 1_555 1_555
C24 C10 1_555 1_555
C25 C13 1_555 1_555
C26 C1 1_555 1_555
H14 C26 1_555 1_555
C27 H15 1_555 1_555
C28 H16 1_555 1_555
H17 C28 1_555 1_555
H18 C28 1_555 1_555
C29 C14 1_555 1_555
C30 C24 1_555 1_555
C31 C9 1_555 1_555
C32 C31 1_555 1_555
H19 C32 1_555 1_555
H20 C32 1_555 1_555
H21 C32 1_555 1_555
C33 C11 1_555 1_555
H22 C33 1_555 1_555
C34 H23 1_555 1_555
H24 C34 1_555 1_555
H25 C34 1_555 1_555
C35 C4 1_555 1_555
C36 C29 1_555 1_555
H26 C36 1_555 1_555
C37 H27 1_555 1_555
C38 C35 1_555 1_555
H28 C38 1_555 1_555
C39 C27 1_555 1_555
H29 C39 1_555 1_555
C40 C1 1_555 1_555
C41 C4 1_555 1_555
H30 C41 1_555 1_555
C42 C30 1_555 1_555
H31 C42 1_555 1_555
H32 C42 1_555 1_555
H33 C42 1_555 1_555
C43 C36 1_555 1_555
H34 C43 1_555 1_555
C44 C37 1_555 1_555
H35 C44 1_555 1_555
C45 C30 1_555 1_555
H36 C45 1_555 1_555
H37 C45 1_555 1_555
H38 C45 1_555 1_555
C46 H39 1_555 1_555
C47 H40 1_555 1_555
C48 C47 1_555 1_555
H41 C48 1_555 1_555
C49 C48 1_555 1_555
C50 C57 1_555 1_555
C51 C70 1_555 1_555
C52 C46 1_555 1_555
H42 C52 1_555 1_555
C53 C46 1_555 1_555
C54 H43 1_555 1_555
C55 H44 1_555 1_555
H45 C55 1_555 1_555
H46 C55 1_555 1_555
C56 H47 1_555 1_555
C57 H48 1_555 1_555
C58 C53 1_555 1_555
H49 C58 1_555 1_555
C59 C52 1_555 1_555
C60 C56 1_555 1_555
C61 C50 1_555 1_555
C62 C50 1_555 1_555
C63 C58 1_555 1_555
C64 C72 1_555 1_555
C65 C56 1_555 1_555
C66 H50 1_555 1_555
C67 C57 1_555 1_555
C68 C54 1_555 1_555
H51 C68 1_555 1_555
C69 C71 1_555 1_555
C70 C73 1_555 1_555
C71 C47 1_555 1_555
C72 C79 1_555 1_555
C73 C69 1_555 1_555
C74 C60 1_555 1_555
C75 H52 1_555 1_555
C76 C73 1_555 1_555
H53 C76 1_555 1_555
C77 C69 1_555 1_555
H54 C77 1_555 1_555
C78 C49 1_555 1_555
H55 C78 1_555 1_555
C79 H56 1_555 1_555
C80 C65 1_555 1_555
H57 C80 1_555 1_555
C81 C60 1_555 1_555
C82 C62 1_555 1_555
H58 C82 1_555 1_555
H59 C82 1_555 1_555
H60 C82 1_555 1_555
C83 C75 1_555 1_555
H61 C83 1_555 1_555
C84 C70 1_555 1_555
H62 C84 1_555 1_555
H63 C84 1_555 1_555
H64 C84 1_555 1_555
C85 H65 1_555 1_555
C86 C70 1_555 1_555
H66 C86 1_555 1_555
H67 C86 1_555 1_555
H68 C86 1_555 1_555
C87 C74 1_555 1_555
H69 C87 1_555 1_555
H70 C87 1_555 1_555
H71 C87 1_555 1_555
C88 C74 1_555 1_555
H72 C88 1_555 1_555
H73 C88 1_555 1_555
H74 C88 1_555 1_555
C89 C79 1_555 1_555
H75 C89 1_555 1_555
C90 C64 1_555 1_555
H76 C90 1_555 1_555
Cl1 C91 1_555 1_555
Cl2 C91 1_555 1_555
Cl3 C91 1_555 1_555
C91 H77 1_555 1_555
C6 C12 1_555 1_555
C6 C17 1_555 1_555
C13 C15 1_555 1_555
C15 C31 1_555 1_555
C16 C25 1_555 1_555
C18 C21 1_555 1_555
C19 C22 1_555 1_555
C20 C25 1_555 1_555
C20 C26 1_555 1_555
C23 C31 1_555 1_555
C24 C33 1_555 1_555
C28 C40 1_555 1_555
C29 C40 1_555 1_555
C30 C35 1_555 1_555
C34 C40 1_555 1_555
C37 C38 1_555 1_555
C39 C43 1_555 1_555
C41 C44 1_555 1_555
C49 C53 1_555 1_555
C51 C71 1_555 1_555
C51 C78 1_555 1_555
C54 C61 1_555 1_555
C55 C62 1_555 1_555
C59 C61 1_555 1_555
C59 C63 1_555 1_555
C62 C63 1_555 1_555
C64 C74 1_555 1_555
C65 C67 1_555 1_555
C66 C80 1_555 1_555
C66 C81 1_555 1_555
C67 C68 1_555 1_555
C72 C81 1_555 1_555
C75 C76 1_555 1_555
C77 C83 1_555 1_555
C85 C89 1_555 1_555
C85 C90 1_555 1_555

#END
