
#######################################################################
#
#                 Cambridge Crystallographic Data Centre
#                                CCDC 
#
#######################################################################
#
# If this CIF has been generated from an entry in the Cambridge 
# Structural Database, then it will include bibliographic, chemical, 
# crystal, experimental, refinement or atomic coordinate data resulting 
# from the CCDC's data processing and validation procedures.
#
#######################################################################

data_REHFOB
_chemical_formula_moiety         'C13 H12 N4 O1,0.5(C3 H6 O1)'
_chemical_name_systematic        
'trans-N-Phenyl-2-(pyridin-2-ylmethylene)hydrazinecarboxamide cetone solvate'
_symmetry_cell_setting           orthorhombic
_symmetry_space_group_name_H-M   'P b c n'
_symmetry_Int_Tables_number      60
_space_group_name_Hall           '-P 2n 2ab'
loop_
_symmetry_equiv_pos_site_id
_symmetry_equiv_pos_as_xyz
1 x,y,z
2 1/2-x,1/2-y,1/2+z
3 -x,y,1/2-z
4 1/2+x,1/2-y,-z
5 -x,-y,-z
6 1/2+x,1/2+y,1/2-z
7 x,-y,1/2+z
8 1/2-x,1/2+y,z
_cell_length_a                   17.889(3)
_cell_length_b                   8.6684(9)
_cell_length_c                   18.288(2)
_cell_angle_alpha                90
_cell_angle_beta                 90
_cell_angle_gamma                90
_cell_volume                     2835.9
_cell_formula_units_Z            8
loop_
_atom_site_label
_atom_site_type_symbol
_atom_site_fract_x
_atom_site_fract_y
_atom_site_fract_z
C1 C 0.87597(16) 0.3646(3) 0.30121(14)
C2 C 0.8198(2) 0.4632(4) 0.32325(18)
H1 H 0.8191 0.4999 0.3710
C3 C 0.7652(3) 0.5075(5) 0.2752(2)
H2 H 0.7278 0.5746 0.2906
C4 C 0.7650(2) 0.4534(4) 0.2041(2)
H3 H 0.7280 0.4845 0.1715
C5 C 0.8192(2) 0.3547(4) 0.18249(18)
H4 H 0.8187 0.3164 0.1350
C6 C 0.87584(18) 0.3092(3) 0.23027(16)
H5 H 0.9132 0.2423 0.2146
C7 C 0.96082(17) 0.3958(3) 0.40581(15)
C8 C 1.08727(18) 0.1290(3) 0.47907(15)
H6 H 1.1034 0.1930 0.5167
C9 C 1.11827(17) -0.0271(3) 0.47383(15)
C10 C 1.0933(2) -0.1327(4) 0.42353(17)
H7 H 1.0548 -0.1073 0.3916
C11 C 1.1256(3) -0.2759(4) 0.4208(2)
H8 H 1.1102 -0.3479 0.3863
C12 C 1.1807(2) -0.3111(4) 0.4698(2)
H9 H 1.2031 -0.4078 0.4695
C13 C 1.2021(2) -0.2019(4) 0.5189(2)
H10 H 1.2395 -0.2270 0.5521
N1 N 0.93265(14) 0.3137(3) 0.34928(13)
H11 H 0.9507 0.2231 0.3420
N2 N 1.01592(17) 0.3274(3) 0.44600(14)
H12 H 1.0369 0.3794 0.4804
N3 N 1.03897(15) 0.1800(2) 0.43380(12)
N4 N 1.17216(17) -0.0595(3) 0.52215(15)
O1 O 0.94030(15) 0.5273(2) 0.42197(12)
C14 C 0.9345(6) 0.8096(10) 0.2853(5)
H13 H 0.9117 0.8779 0.3201
H14 H 0.9514 0.7182 0.3099
H15 H 0.8986 0.7822 0.2485
C15 C 1.0000 0.8891(7) 0.2500
O2 O 1.0000 1.0210(5) 0.2500
C14B C 1.0655(6) 0.8096(10) 0.2147(5)
H13B H 1.0883 0.8779 0.1799
H14B H 1.0486 0.7182 0.1901
H15B H 1.1014 0.7822 0.2515
loop_
_geom_bond_atom_site_label_1
_geom_bond_atom_site_label_2
_geom_bond_site_symmetry_1
_geom_bond_site_symmetry_2
C1 C2 1_555 1_555
C2 H1 1_555 1_555
C3 C2 1_555 1_555
H2 C3 1_555 1_555
C4 C3 1_555 1_555
H3 C4 1_555 1_555
C5 C4 1_555 1_555
H4 C5 1_555 1_555
C6 C1 1_555 1_555
H5 C6 1_555 1_555
C7 N1 1_555 1_555
C8 H6 1_555 1_555
C9 C8 1_555 1_555
C10 C9 1_555 1_555
H7 C10 1_555 1_555
C11 C10 1_555 1_555
H8 C11 1_555 1_555
C12 C11 1_555 1_555
H9 C12 1_555 1_555
C13 C12 1_555 1_555
H10 C13 1_555 1_555
N1 C1 1_555 1_555
H11 N1 1_555 1_555
N2 C7 1_555 1_555
H12 N2 1_555 1_555
N3 C8 1_555 1_555
N4 C9 1_555 1_555
O1 C7 1_555 1_555
C14 H13 1_555 1_555
H14 C14 1_555 1_555
H15 C14 1_555 1_555
C15 C14 1_555 1_555
O2 C15 1_555 1_555
C14B C15 1_555 1_555
H13B C14B 1_555 1_555
H14B C14B 1_555 1_555
H15B C14B 1_555 1_555
C5 C6 1_555 1_555
C13 N4 1_555 1_555
N2 N3 1_555 1_555

#END
