
#######################################################################
#
#                 Cambridge Crystallographic Data Centre
#                                CCDC 
#
#######################################################################
#
# If this CIF has been generated from an entry in the Cambridge 
# Structural Database, then it will include bibliographic, chemical, 
# crystal, experimental, refinement or atomic coordinate data resulting 
# from the CCDC's data processing and validation procedures.
#
#######################################################################

data_REHFAM
_chemical_compound_source        'roots of Euphorbia wallichii'
_chemical_formula_moiety         'C20 H30 O4'
_chemical_name_systematic        ent-3\b,16-Dihydroxyisopimar-7-ene-2,15-dione
_symmetry_cell_setting           monoclinic
_symmetry_space_group_name_H-M   'P 21'
_symmetry_Int_Tables_number      4
_space_group_name_Hall           'P 2yb'
loop_
_symmetry_equiv_pos_site_id
_symmetry_equiv_pos_as_xyz
1 x,y,z
2 -x,1/2+y,-z
_cell_length_a                   9.238(2)
_cell_length_b                   10.124(3)
_cell_length_c                   9.696(2)
_cell_angle_alpha                90
_cell_angle_beta                 97.03(2)
_cell_angle_gamma                90
_cell_volume                     900.006
_exptl_crystal_colour            colorless
_exptl_crystal_description       prism
_chemical_melting_point          '529-531 K'
_cell_formula_units_Z            2
_exptl_crystal_recrystallization_method acetone
loop_
_atom_site_label
_atom_site_type_symbol
_atom_site_fract_x
_atom_site_fract_y
_atom_site_fract_z
O1 O 0.2998(3) -0.0751(3) 0.8398(3)
O2 O 0.1608(3) -0.0515(3) 1.0622(3)
O3 O 0.1785(3) 0.7028(3) 0.2864(2)
O4 O 0.1908(4) 0.9572(3) 0.3671(3)
C1 C 0.2166(4) 0.1299(3) 0.7356(3)
H1 H 0.1152 0.1355 0.6960
H2 H 0.2732 0.1042 0.6621
C2 C 0.2318(4) 0.0266(3) 0.8453(3)
C3 C 0.1519(4) 0.0559(3) 0.9685(3)
H3 H 0.0488 0.0692 0.9337
C4 C 0.2098(3) 0.1861(3) 1.0401(3)
C5 C 0.2026(3) 0.2963(3) 0.9281(3)
H4 H 0.0984 0.3111 0.8998
C6 C 0.2612(3) 0.4290(3) 0.9870(3)
H5 H 0.2062 0.4558 1.0613
H6 H 0.3623 0.4186 1.0260
C7 C 0.2505(3) 0.5348(3) 0.8774(3)
H7 H 0.2641 0.6220 0.9063
C8 C 0.2231(3) 0.5117(3) 0.7437(3)
C9 C 0.2062(3) 0.3728(3) 0.6848(3)
H8 H 0.1010 0.3564 0.6677
C10 C 0.2682(3) 0.2678(3) 0.7908(3)
C11 C 0.2635(4) 0.3604(3) 0.5418(3)
H9 H 0.3691 0.3556 0.5560
H10 H 0.2274 0.2787 0.4980
C12 C 0.2174(4) 0.4759(3) 0.4438(3)
H11 H 0.2602 0.4647 0.3581
H12 H 0.1121 0.4753 0.4212
C13 C 0.2648(3) 0.6074(3) 0.5087(3)
C14 C 0.1931(3) 0.6243(3) 0.6420(3)
H13 H 0.2278 0.7058 0.6873
H14 H 0.0885 0.6325 0.6174
C15 C 0.2173(3) 0.7208(3) 0.4075(3)
C16 C 0.2237(5) 0.8581(3) 0.4626(4)
H15 H 0.1570 0.8646 0.5322
H16 H 0.3212 0.8736 0.5092
C17 C 0.4315(3) 0.6156(4) 0.5418(4)
H17 H 0.4640 0.5539 0.6142
H18 H 0.4589 0.7034 0.5719
H19 H 0.4759 0.5947 0.4600
C18 C 0.1067(4) 0.2227(4) 1.1466(3)
H20 H 0.0142 0.2497 1.0988
H21 H 0.1482 0.2939 1.2037
H22 H 0.0932 0.1474 1.2038
C19 C 0.3617(4) 0.1596(4) 1.1180(3)
H23 H 0.3532 0.1014 1.1949
H24 H 0.4048 0.2414 1.1519
H25 H 0.4221 0.1192 1.0560
C20 C 0.4359(3) 0.2698(3) 0.8116(3)
H26 H 0.4694 0.3564 0.8405
H27 H 0.4719 0.2476 0.7257
H28 H 0.4712 0.2065 0.8815
H29 H 0.211(4) -0.105(4) 1.026(5)
H30 H 0.183(5) 0.928(5) 0.288(2)
loop_
_geom_bond_atom_site_label_1
_geom_bond_atom_site_label_2
_geom_bond_site_symmetry_1
_geom_bond_site_symmetry_2
O1 C2 1_555 1_555
O2 C3 1_555 1_555
O3 C15 1_555 1_555
O4 C16 1_555 1_555
C1 H1 1_555 1_555
H2 C1 1_555 1_555
C2 C1 1_555 1_555
C3 C2 1_555 1_555
H3 C3 1_555 1_555
C4 C3 1_555 1_555
C5 C4 1_555 1_555
H4 C5 1_555 1_555
C6 C5 1_555 1_555
H5 C6 1_555 1_555
H6 C6 1_555 1_555
C7 C6 1_555 1_555
H7 C7 1_555 1_555
C8 C7 1_555 1_555
C9 C8 1_555 1_555
H8 C9 1_555 1_555
C10 C1 1_555 1_555
C11 C9 1_555 1_555
H9 C11 1_555 1_555
H10 C11 1_555 1_555
C12 C11 1_555 1_555
H11 C12 1_555 1_555
H12 C12 1_555 1_555
C13 C12 1_555 1_555
C14 C8 1_555 1_555
H13 C14 1_555 1_555
H14 C14 1_555 1_555
C15 C13 1_555 1_555
C16 C15 1_555 1_555
H15 C16 1_555 1_555
H16 C16 1_555 1_555
C17 C13 1_555 1_555
H17 C17 1_555 1_555
H18 C17 1_555 1_555
H19 C17 1_555 1_555
C18 C4 1_555 1_555
H20 C18 1_555 1_555
H21 C18 1_555 1_555
H22 C18 1_555 1_555
C19 C4 1_555 1_555
H23 C19 1_555 1_555
H24 C19 1_555 1_555
H25 C19 1_555 1_555
C20 C10 1_555 1_555
H26 C20 1_555 1_555
H27 C20 1_555 1_555
H28 C20 1_555 1_555
H29 O2 1_555 1_555
H30 O4 1_555 1_555
C5 C10 1_555 1_555
C9 C10 1_555 1_555
C13 C14 1_555 1_555

#END
