
#######################################################################
#
#                 Cambridge Crystallographic Data Centre
#                                CCDC 
#
#######################################################################
#
# If this CIF has been generated from an entry in the Cambridge 
# Structural Database, then it will include bibliographic, chemical, 
# crystal, experimental, refinement or atomic coordinate data resulting 
# from the CCDC's data processing and validation procedures.
#
#######################################################################

data_REHHAO
_chemical_formula_moiety         'C17 H25 N5 O3 S2'
_chemical_name_systematic        
'Ethyl 1-(5-amino-1-t-butyl-3-(methylsulfanyl)-1H-pyrazole-4-carbonyl)-5-methyl-3-(methylsulfanyl)-1H-pyrazole-4-carboxylate'
_symmetry_cell_setting           monoclinic
_symmetry_space_group_name_H-M   'P 21/c'
_symmetry_Int_Tables_number      14
_space_group_name_Hall           '-P 2ybc'
loop_
_symmetry_equiv_pos_site_id
_symmetry_equiv_pos_as_xyz
1 x,y,z
2 -x,1/2+y,1/2-z
3 -x,-y,-z
4 x,1/2-y,1/2+z
_cell_length_a                   9.3972(14)
_cell_length_b                   22.870(3)
_cell_length_c                   10.4065(16)
_cell_angle_alpha                90
_cell_angle_beta                 105.976(2)
_cell_angle_gamma                90
_cell_volume                     2150.12
_exptl_crystal_colour            colorless
_exptl_crystal_description       block
_cell_formula_units_Z            4
_exptl_crystal_recrystallization_method ethanol/water
loop_
_atom_site_label
_atom_site_type_symbol
_atom_site_fract_x
_atom_site_fract_y
_atom_site_fract_z
S1 S 0.92761(7) 0.70418(3) 0.13797(8)
S2 S 1.26585(6) 0.57454(3) 0.32655(6)
O1 O 0.62341(17) 0.53735(7) 0.09893(16)
O2 O 0.98514(16) 0.57696(7) 0.63008(13)
O3 O 1.21248(16) 0.57262(8) 0.60173(14)
N1 N 0.4636(2) 0.58976(9) -0.1444(2)
H1 H 0.406(3) 0.5929(11) -0.222(3)
H2 H 0.475(3) 0.5573(11) -0.100(3)
N2 N 0.57795(18) 0.68268(8) -0.15333(17)
N3 N 0.70151(19) 0.71360(8) -0.08017(19)
N4 N 0.84380(17) 0.57749(7) 0.21711(15)
N5 N 0.97877(17) 0.57748(8) 0.18924(16)
C1 C 0.4786(3) 0.71036(10) -0.2749(2)
C2 C 0.3228(3) 0.71312(13) -0.2592(3)
H3 H 0.2859 0.6742 -0.2560
H4 H 0.2596 0.7336 -0.3338
H5 H 0.3243 0.7333 -0.1779
C3 C 0.4856(4) 0.67481(14) -0.3965(3)
H6 H 0.5840 0.6765 -0.4066
H7 H 0.4169 0.6906 -0.4748
H8 H 0.4602 0.6349 -0.3847
C4 C 0.5316(3) 0.77288(12) -0.2858(3)
H9 H 0.5235 0.7951 -0.2099
H10 H 0.4715 0.7906 -0.3662
H11 H 0.6329 0.7722 -0.2882
C5 C 0.5694(2) 0.63003(9) -0.09820(19)
C6 C 0.69136(19) 0.62546(8) 0.01742(18)
C7 C 0.7676(2) 0.67966(9) 0.0196(2)
C8 C 0.9258(11) 0.7782(3) 0.0688(19)
H12 H 0.9339 0.7758 -0.0210
H13 H 1.0077 0.8002 0.1227
H14 H 0.8348 0.7974 0.0687
C10 C 0.7101(2) 0.57774(9) 0.10579(19)
C11 C 0.7206(2) 0.57544(11) 0.3999(2)
H18 H 0.6383 0.5917 0.3332
H19 H 0.7399 0.5987 0.4796
H20 H 0.6976 0.5361 0.4198
C12 C 0.8541(2) 0.57519(9) 0.34895(19)
C13 C 1.0046(2) 0.57463(9) 0.41263(19)
C14 C 1.0757(2) 0.57557(9) 0.30863(19)
C15 C 1.2664(3) 0.57944(16) 0.1538(3)
H21 H 1.2179 0.5458 0.1062
H22 H 1.3667 0.5809 0.1483
H23 H 1.2150 0.6142 0.1148
C16 C 1.0797(2) 0.57446(9) 0.55597(19)
C17 C 1.0455(3) 0.57582(11) 0.77412(19)
H24 H 1.1124 0.6085 0.8036
H25 H 1.0997 0.5398 0.8020
C18 C 0.9185(3) 0.57986(15) 0.8317(3)
H26 H 0.8702 0.6169 0.8088
H27 H 0.9531 0.5764 0.9272
H28 H 0.8497 0.5489 0.7966
C9? C 0.9118(14) 0.7815(3) 0.133(3)
H15? H 0.9127 0.7953 0.0459
H16? H 0.9935 0.7983 0.1991
H17? H 0.8206 0.7928 0.1506
loop_
_geom_bond_atom_site_label_1
_geom_bond_atom_site_label_2
_geom_bond_site_symmetry_1
_geom_bond_site_symmetry_2
S1 C7 1_555 1_555
S2 C14 1_555 1_555
O1 C10 1_555 1_555
O2 C16 1_555 1_555
O3 C16 1_555 1_555
N1 H1 1_555 1_555
H2 N1 1_555 1_555
N2 N3 1_555 1_555
N3 C7 1_555 1_555
N4 N5 1_555 1_555
N5 C14 1_555 1_555
C1 N2 1_555 1_555
C2 C1 1_555 1_555
H3 C2 1_555 1_555
H4 C2 1_555 1_555
H5 C2 1_555 1_555
C3 C1 1_555 1_555
H6 C3 1_555 1_555
H7 C3 1_555 1_555
H8 C3 1_555 1_555
C4 C1 1_555 1_555
H9 C4 1_555 1_555
H10 C4 1_555 1_555
H11 C4 1_555 1_555
C5 N1 1_555 1_555
C6 C5 1_555 1_555
C7 C6 1_555 1_555
C8 S1 1_555 1_555
H12 C8 1_555 1_555
H13 C8 1_555 1_555
H14 C8 1_555 1_555
C10 N4 1_555 1_555
C11 H18 1_555 1_555
H19 C11 1_555 1_555
H20 C11 1_555 1_555
C12 N4 1_555 1_555
C13 C12 1_555 1_555
C14 C13 1_555 1_555
C15 S2 1_555 1_555
H21 C15 1_555 1_555
H22 C15 1_555 1_555
H23 C15 1_555 1_555
C16 C13 1_555 1_555
C17 O2 1_555 1_555
H24 C17 1_555 1_555
H25 C17 1_555 1_555
C18 C17 1_555 1_555
H26 C18 1_555 1_555
H27 C18 1_555 1_555
H28 C18 1_555 1_555
N2 C5 1_555 1_555
C6 C10 1_555 1_555
C11 C12 1_555 1_555

#END
