
#######################################################################
#
#                 Cambridge Crystallographic Data Centre
#                                CCDC 
#
#######################################################################
#
# If this CIF has been generated from an entry in the Cambridge 
# Structural Database, then it will include bibliographic, chemical, 
# crystal, experimental, refinement or atomic coordinate data resulting 
# from the CCDC's data processing and validation procedures.
#
#######################################################################

data_REHSAB
_chemical_formula_moiety         'C72 H50 F12'
_chemical_name_systematic        
'2,9-di-t-butyl-5,12-diphenyl-4,7,11,14-tetrakis(4-(trifluoromethyl)phenyl)dibenzo[fg,op]tetracene unknown solvate'
_symmetry_cell_setting           monoclinic
_symmetry_space_group_name_H-M   'C 2/c'
_symmetry_Int_Tables_number      15
_space_group_name_Hall           '-C 2yn'
loop_
_symmetry_equiv_pos_site_id
_symmetry_equiv_pos_as_xyz
1 x,y,z
2 -x,y,1/2-z
3 1/2+x,1/2+y,z
4 1/2-x,1/2+y,1/2-z
5 -x,-y,-z
6 x,-y,1/2+z
7 1/2-x,1/2-y,-z
8 1/2+x,1/2-y,1/2+z
_cell_length_a                   21.1206(8)
_cell_length_b                   21.8158(9)
_cell_length_c                   15.5581(6)
_cell_angle_alpha                90
_cell_angle_beta                 111.402(3)
_cell_angle_gamma                90
_cell_volume                     6674.27
_exptl_crystal_colour            colorless
_exptl_crystal_description       plate
_cell_formula_units_Z            4
loop_
_atom_site_label
_atom_site_type_symbol
_atom_site_fract_x
_atom_site_fract_y
_atom_site_fract_z
C1 C 0.51251(16) 0.32923(14) 0.03065(19)
C2 C 0.45028(15) 0.33617(13) 0.04035(19)
H1 H 0.4115 0.3393 -0.0128
C3 C 0.44282(13) 0.33874(12) 0.12488(18)
C4 C 0.50212(13) 0.33082(11) 0.20515(17)
C5 C 0.56617(14) 0.32178(13) 0.19738(18)
C6 C 0.56962(15) 0.32335(14) 0.10980(19)
H2 H 0.6119 0.3203 0.1044
C7 C 0.51635(18) 0.3274(2) -0.0662(2)
C8 C 0.5869(5) 0.3219(5) -0.0632(5)
H3 H 0.6156 0.3499 -0.0184
H4 H 0.5880 0.3313 -0.1229
H5 H 0.6028 0.2807 -0.0465
C9 C 0.4652(5) 0.2807(5) -0.1255(7)
H6 H 0.4217 0.2877 -0.1208
H7 H 0.4805 0.2401 -0.1045
H8 H 0.4611 0.2850 -0.1887
C10 C 0.4945(6) 0.3931(4) -0.1093(5)
H9 H 0.5071 0.4232 -0.0610
H10 H 0.4461 0.3941 -0.1416
H11 H 0.5168 0.4019 -0.1517
C11 C 0.37592(13) 0.33930(12) 0.13501(18)
C12 C 0.31418(14) 0.35633(12) 0.06249(18)
C13 C 0.25197(14) 0.33866(13) 0.06829(19)
C14 C 0.25228(14) 0.30218(14) 0.1420(2)
H12 H 0.2116 0.2849 0.1406
C15 C 0.31140(14) 0.29077(13) 0.21742(19)
C16 C 0.37310(13) 0.31609(13) 0.21796(18)
C17 C 0.31476(14) 0.39488(13) -0.01621(19)
C18 C 0.34722(18) 0.45126(15) 0.0002(2)
H13 H 0.3684 0.4649 0.0606
C19 C 0.3485(2) 0.48712(18) -0.0716(3)
H14 H 0.3706 0.5248 -0.0595
C20 C 0.3174(2) 0.4679(2) -0.1607(3)
C21 C 0.2846(2) 0.41233(19) -0.1788(2)
H15 H 0.2636 0.3991 -0.2395
C22 C 0.28293(15) 0.37613(15) -0.1069(2)
H16 H 0.2602 0.3388 -0.1195
C23 C 0.3210(5) 0.5022(4) -0.2483(7)
F1 F 0.3829(6) 0.5102(9) -0.2344(12)
F2 F 0.2970(10) 0.5709(4) -0.2261(11)
F3 F 0.2681(5) 0.4969(5) -0.3180(5)
C24 C 0.18449(15) 0.35595(14) -0.0017(2)
C25 C 0.16718(18) 0.41711(16) -0.0232(2)
H17 H 0.1989 0.4478 0.0032
C26 C 0.1027(2) 0.43207(19) -0.0839(3)
H18 H 0.0914 0.4730 -0.0980
C27 C 0.0556(2) 0.3876(2) -0.1234(3)
H19 H 0.0125 0.3984 -0.1644
C28 C 0.07152(18) 0.32736(19) -0.1028(3)
H20 H 0.0394 0.2969 -0.1290
C29 C 0.13637(16) 0.31210(16) -0.0422(2)
H21 H 0.1474 0.2710 -0.0287
C30 C 0.30760(15) 0.24745(14) 0.2890(2)
C31 C 0.25744(16) 0.25269(16) 0.3264(2)
H22 H 0.2259 0.2844 0.3076
C32 C 0.25421(18) 0.21079(18) 0.3916(2)
H23 H 0.2200 0.2145 0.4157
C33 C 0.3000(2) 0.16433(17) 0.4212(3)
C34 C 0.34984(19) 0.15814(16) 0.3840(2)
H24 H 0.3811 0.1262 0.4032
C35 C 0.35342(16) 0.19883(15) 0.3188(2)
H25 H 0.3870 0.1940 0.2939
C36 C 0.2992(4) 0.1216(3) 0.4954(4)
F4 F 0.3357(9) 0.1466(4) 0.5806(4)
F5 F 0.3238(8) 0.0694(3) 0.4947(10)
F6 F 0.2415(5) 0.1134(6) 0.4981(9)
C1A C 0.48749(16) 0.32923(14) 0.46935(19)
C2A C 0.54972(15) 0.33617(13) 0.45965(19)
H1A H 0.5885 0.3393 0.5128
C3A C 0.55718(13) 0.33874(12) 0.37512(18)
C4A C 0.49788(13) 0.33082(11) 0.29485(17)
C5A C 0.43383(14) 0.32178(13) 0.30262(18)
C6A C 0.43038(15) 0.32335(14) 0.39020(19)
H2A H 0.3881 0.3203 0.3956
C7A C 0.48365(18) 0.3274(2) 0.5662(2)
C8A C 0.4131(5) 0.3219(5) 0.5632(5)
H3A H 0.3844 0.3499 0.5184
H4A H 0.4120 0.3313 0.6229
H5A H 0.3972 0.2807 0.5465
C9A C 0.5348(5) 0.2807(5) 0.6255(7)
H6A H 0.5783 0.2877 0.6208
H7A H 0.5195 0.2401 0.6045
H8A H 0.5389 0.2850 0.6887
C10A C 0.5055(6) 0.3931(4) 0.6093(5)
H9A H 0.4929 0.4232 0.5610
H10A H 0.5539 0.3941 0.6416
H11A H 0.4832 0.4019 0.6517
C11A C 0.62408(13) 0.33930(12) 0.36499(18)
C12A C 0.68582(14) 0.35633(12) 0.43751(18)
C13A C 0.74803(14) 0.33866(13) 0.43171(19)
C14A C 0.74772(14) 0.30218(14) 0.3580(2)
H12A H 0.7884 0.2849 0.3594
C15A C 0.68860(14) 0.29077(13) 0.28258(19)
C16A C 0.62690(13) 0.31609(13) 0.28204(18)
C17A C 0.68524(14) 0.39488(13) 0.51621(19)
C18A C 0.65278(18) 0.45126(15) 0.4998(2)
H13A H 0.6316 0.4649 0.4394
C19A C 0.6515(2) 0.48712(18) 0.5716(3)
H14A H 0.6294 0.5248 0.5595
C20A C 0.6826(2) 0.4679(2) 0.6607(3)
C21A C 0.7154(2) 0.41233(19) 0.6788(2)
H15A H 0.7364 0.3991 0.7395
C22A C 0.71707(15) 0.37613(15) 0.6069(2)
H16A H 0.7398 0.3388 0.6195
C23A C 0.6790(5) 0.5022(4) 0.7483(7)
F1A F 0.6171(6) 0.5102(9) 0.7344(12)
F2A F 0.7030(10) 0.5709(4) 0.7261(11)
F3A F 0.7319(5) 0.4969(5) 0.8180(5)
C24A C 0.81551(15) 0.35595(14) 0.5017(2)
C25A C 0.83282(18) 0.41711(16) 0.5232(2)
H17A H 0.8011 0.4478 0.4968
C26A C 0.8973(2) 0.43207(19) 0.5839(3)
H18A H 0.9086 0.4730 0.5980
C27A C 0.9444(2) 0.3876(2) 0.6234(3)
H19A H 0.9875 0.3984 0.6644
C28A C 0.92848(18) 0.32736(19) 0.6028(3)
H20A H 0.9606 0.2969 0.6290
C29A C 0.86363(16) 0.31210(16) 0.5422(2)
H21A H 0.8526 0.2710 0.5287
C30A C 0.69240(15) 0.24745(14) 0.2110(2)
C31A C 0.74256(16) 0.25269(16) 0.1736(2)
H22A H 0.7741 0.2844 0.1924
C32A C 0.74579(18) 0.21079(18) 0.1084(2)
H23A H 0.7800 0.2145 0.0843
C33A C 0.7000(2) 0.16433(17) 0.0788(3)
C34A C 0.65016(19) 0.15814(16) 0.1160(2)
H24A H 0.6189 0.1262 0.0968
C35A C 0.64658(16) 0.19883(15) 0.1812(2)
H25A H 0.6130 0.1940 0.2061
C36A C 0.7008(4) 0.1216(3) 0.0046(4)
F4A F 0.6643(9) 0.1466(4) -0.0806(4)
F5A F 0.6762(8) 0.0694(3) 0.0053(10)
F6A F 0.7585(5) 0.1134(6) 0.0019(9)
C37? C 0.5642(5) 0.2701(5) -0.0709(6)
H26? H 0.5463 0.2329 -0.0559
H27? H 0.6095 0.2766 -0.0275
H28? H 0.5650 0.2671 -0.1320
C38? C 0.4504(5) 0.3233(6) -0.1419(6)
H29? H 0.4250 0.2897 -0.1309
H30? H 0.4573 0.3167 -0.1989
H31? H 0.4257 0.3608 -0.1457
C39? C 0.5570(6) 0.3802(5) -0.0781(7)
H32? H 0.5570 0.3801 -0.1398
H33? H 0.6029 0.3767 -0.0349
H34? H 0.5375 0.4177 -0.0672
F7? F 0.3464(13) 0.4607(7) -0.3000(10)
F8? F 0.2891(13) 0.5322(13) -0.268(2)
F9? F 0.3591(13) 0.5435(6) -0.2287(11)
F10? F 0.2351(12) 0.0808(9) 0.4382(17)
F11? F 0.3493(18) 0.0892(17) 0.529(3)
F12? F 0.2709(15) 0.1424(7) 0.5498(11)
loop_
_geom_bond_atom_site_label_1
_geom_bond_atom_site_label_2
_geom_bond_site_symmetry_1
_geom_bond_site_symmetry_2
C1 C2 1_555 1_555
C2 H1 1_555 1_555
C3 C2 1_555 1_555
C4 C3 1_555 1_555
C5 C4 1_555 1_555
C6 C1 1_555 1_555
H2 C6 1_555 1_555
C7 C1 1_555 1_555
C8 C7 1_555 1_555
H3 C8 1_555 1_555
H4 C8 1_555 1_555
H5 C8 1_555 1_555
C9 C7 1_555 1_555
H6 C9 1_555 1_555
H7 C9 1_555 1_555
H8 C9 1_555 1_555
C10 C7 1_555 1_555
H9 C10 1_555 1_555
H10 C10 1_555 1_555
H11 C10 1_555 1_555
C11 C3 1_555 1_555
C12 C11 1_555 1_555
C13 C12 1_555 1_555
C14 C13 1_555 1_555
H12 C14 1_555 1_555
C15 C14 1_555 1_555
C16 C11 1_555 1_555
C17 C12 1_555 1_555
C18 C17 1_555 1_555
H13 C18 1_555 1_555
C19 C18 1_555 1_555
H14 C19 1_555 1_555
C20 C19 1_555 1_555
C21 C20 1_555 1_555
H15 C21 1_555 1_555
C22 C17 1_555 1_555
H16 C22 1_555 1_555
C23 C20 1_555 1_555
F1 C23 1_555 1_555
F2 C23 1_555 1_555
F3 C23 1_555 1_555
C24 C13 1_555 1_555
C25 C24 1_555 1_555
H17 C25 1_555 1_555
C26 C25 1_555 1_555
H18 C26 1_555 1_555
C27 C26 1_555 1_555
H19 C27 1_555 1_555
C28 C27 1_555 1_555
H20 C28 1_555 1_555
C29 C24 1_555 1_555
H21 C29 1_555 1_555
C30 C15 1_555 1_555
C31 C30 1_555 1_555
H22 C31 1_555 1_555
C32 C31 1_555 1_555
H23 C32 1_555 1_555
C33 C32 1_555 1_555
C34 C33 1_555 1_555
H24 C34 1_555 1_555
C35 C30 1_555 1_555
H25 C35 1_555 1_555
C36 C33 1_555 1_555
F4 C36 1_555 1_555
F5 C36 1_555 1_555
F6 C36 1_555 1_555
C1A C2A 1_555 1_555
C2A H1A 1_555 1_555
C3A C2A 1_555 1_555
C4A C4 1_555 1_555
C5A C16 1_555 1_555
C6A C1A 1_555 1_555
H2A C6A 1_555 1_555
C7A C1A 1_555 1_555
C8A C7A 1_555 1_555
H3A C8A 1_555 1_555
H4A C8A 1_555 1_555
H5A C8A 1_555 1_555
C9A C7A 1_555 1_555
H6A C9A 1_555 1_555
H7A C9A 1_555 1_555
H8A C9A 1_555 1_555
C10A C7A 1_555 1_555
H9A C10A 1_555 1_555
H10A C10A 1_555 1_555
H11A C10A 1_555 1_555
C11A C3A 1_555 1_555
C12A C11A 1_555 1_555
C13A C12A 1_555 1_555
C14A C13A 1_555 1_555
H12A C14A 1_555 1_555
C15A C14A 1_555 1_555
C16A C5 1_555 1_555
C17A C12A 1_555 1_555
C18A C17A 1_555 1_555
H13A C18A 1_555 1_555
C19A C18A 1_555 1_555
H14A C19A 1_555 1_555
C20A C19A 1_555 1_555
C21A C20A 1_555 1_555
H15A C21A 1_555 1_555
C22A C17A 1_555 1_555
H16A C22A 1_555 1_555
C23A C20A 1_555 1_555
F1A C23A 1_555 1_555
F2A C23A 1_555 1_555
F3A C23A 1_555 1_555
C24A C13A 1_555 1_555
C25A C24A 1_555 1_555
H17A C25A 1_555 1_555
C26A C25A 1_555 1_555
H18A C26A 1_555 1_555
C27A C26A 1_555 1_555
H19A C27A 1_555 1_555
C28A C27A 1_555 1_555
H20A C28A 1_555 1_555
C29A C24A 1_555 1_555
H21A C29A 1_555 1_555
C30A C15A 1_555 1_555
C31A C30A 1_555 1_555
H22A C31A 1_555 1_555
C32A C31A 1_555 1_555
H23A C32A 1_555 1_555
C33A C32A 1_555 1_555
C34A C33A 1_555 1_555
H24A C34A 1_555 1_555
C35A C30A 1_555 1_555
H25A C35A 1_555 1_555
C36A C33A 1_555 1_555
F4A C36A 1_555 1_555
F5A C36A 1_555 1_555
F6A C36A 1_555 1_555
C5 C6 1_555 1_555
C15 C16 1_555 1_555
C21 C22 1_555 1_555
C28 C29 1_555 1_555
C34 C35 1_555 1_555
C3A C4A 1_555 1_555
C4A C5A 1_555 1_555
C5A C6A 1_555 1_555
C11A C16A 1_555 1_555
C15A C16A 1_555 1_555
C21A C22A 1_555 1_555
C28A C29A 1_555 1_555
C34A C35A 1_555 1_555

#END
