
#######################################################################
#
#                 Cambridge Crystallographic Data Centre
#                                CCDC 
#
#######################################################################
#
# If this CIF has been generated from an entry in the Cambridge 
# Structural Database, then it will include bibliographic, chemical, 
# crystal, experimental, refinement or atomic coordinate data resulting 
# from the CCDC's data processing and validation procedures.
#
#######################################################################

data_REHSIG
_chemical_formula_moiety         'C52 H62 Br2 Li4 N2 O4 P2,1.5(C6 H6)'
_chemical_name_systematic        
'bis(\m~3~-Bromo)-bis(\m~3~-iminotriphenylphosphorane)-tetrakis(tetrahydrofuran)-tetra-lithium benzene solvate'
_symmetry_cell_setting           triclinic
_symmetry_space_group_name_H-M   'P -1'
_symmetry_Int_Tables_number      2
_space_group_name_Hall           '-P 1'
loop_
_symmetry_equiv_pos_site_id
_symmetry_equiv_pos_as_xyz
1 x,y,z
2 -x,-y,-z
_cell_length_a                   10.682(1)
_cell_length_b                   13.758(1)
_cell_length_c                   22.280(1)
_cell_angle_alpha                102.91(1)
_cell_angle_beta                 90.85(1)
_cell_angle_gamma                109.74(1)
_cell_volume                     2989.43
_exptl_crystal_colour            colorless
_chemical_melting_point          439K
_cell_formula_units_Z            2
loop_
_atom_site_label
_atom_site_type_symbol
_atom_site_fract_x
_atom_site_fract_y
_atom_site_fract_z
Br1 Br 0.30125(4) 0.68267(3) 0.414487(15)
Br2 Br 0.13503(3) 0.60448(3) 0.23685(2)
P1 P 0.58687(8) 0.85463(6) 0.27478(4)
P2 P 0.39536(8) 0.40079(6) 0.26515(4)
Li1 Li 0.3086(6) 0.7599(5) 0.3174(3)
Li2 Li 0.2237(6) 0.5247(5) 0.3167(3)
Li3 Li 0.3985(6) 0.6127(4) 0.2313(2)
Li4 Li 0.4929(6) 0.6582(4) 0.3418(3)
O1 O 0.2411(3) 0.8776(2) 0.34175(13)
O2 O 0.0812(3) 0.4117(2) 0.34058(14)
O3 O 0.4277(3) 0.5836(2) 0.14332(11)
O4 O 0.6563(3) 0.6891(2) 0.39764(12)
N1 N 0.4804(3) 0.7567(2) 0.28891(12)
N2 N 0.3926(3) 0.5147(2) 0.28567(12)
C1 C 0.2505(5) 0.9649(4) 0.3162(3)
H1 H 0.2071(5) 0.9393(4) 0.2733(3)
H2 H 0.3453(5) 1.0089(4) 0.3157(3)
C2 C 0.2014(9) 1.0391(6) 0.3658(4)
H3 H 0.1645(9) 1.0835(6) 0.3469(4)
H4 H 0.2740(9) 1.0857(6) 0.3984(4)
C3 C 0.0907(10) 0.9568(6) 0.3918(5)
H5 H 0.0871(10) 0.9845(6) 0.4365(5)
H6 H 0.0021(10) 0.9398(6) 0.3697(5)
C6 C 0.1320(6) 0.8625(4) 0.3812(2)
H11 H 0.0477(6) 0.8111(4) 0.3575(2)
H12 H 0.1514(6) 0.8357(4) 0.4167(2)
C7 C -0.0486(5) 0.3722(5) 0.3097(2)
H13 H -0.0836(5) 0.2934(5) 0.2979(2)
H14 H -0.0499(5) 0.3992(5) 0.2721(2)
C8 C -0.1152(9) 0.4316(7) 0.3549(3)
H15 H -0.2137(9) 0.3988(7) 0.3470(3)
H16 H -0.0876(9) 0.5073(7) 0.3534(3)
C10 C -0.0663(7) 0.4201(6) 0.4157(3)
H19 H -0.1221(7) 0.3627(6) 0.4341(3)
H20 H -0.0544(7) 0.4899(6) 0.4441(3)
C11 C 0.0663(5) 0.4092(4) 0.4038(2)
H21 H 0.1396(5) 0.4683(4) 0.4312(2)
H22 H 0.0678(5) 0.3410(4) 0.4108(2)
C12 C 0.5460(4) 0.5839(3) 0.1141(2)
H23 H 0.5450(4) 0.5105(3) 0.0982(2)
H24 H 0.6268(4) 0.6249(3) 0.1435(2)
C13 C 0.5429(6) 0.6368(4) 0.0617(2)
H25 H 0.5774(6) 0.6029(4) 0.0248(2)
H26 H 0.5974(6) 0.7136(4) 0.0741(2)
C14 C 0.3963(7) 0.6203(6) 0.0483(2)
H27 H 0.3825(7) 0.6894(6) 0.0547(2)
H28 H 0.3624(7) 0.5786(6) 0.0054(2)
C15 C 0.3287(6) 0.5604(6) 0.0942(2)
H29 H 0.2541(6) 0.5833(6) 0.1094(2)
H30 H 0.2930(6) 0.4830(6) 0.0750(2)
C16 C 0.7474(4) 0.6315(3) 0.3943(2)
H31 H 0.8135(4) 0.6525(3) 0.3646(2)
H32 H 0.6983(4) 0.5538(3) 0.3807(2)
C17 C 0.8148(6) 0.6601(4) 0.4572(2)
H33 H 0.9072(6) 0.6595(4) 0.4559(2)
H34 H 0.7650(6) 0.6098(4) 0.4814(2)
C18 C 0.8150(5) 0.7715(4) 0.4852(2)
H35 H 0.7908(5) 0.7782(4) 0.5283(2)
H36 H 0.9043(5) 0.8253(4) 0.4852(2)
C19 C 0.7118(4) 0.7861(3) 0.4445(2)
H37 H 0.6411(4) 0.8011(3) 0.4691(2)
H38 H 0.7540(4) 0.8464(3) 0.4255(2)
C20 C 0.7266(3) 0.8297(3) 0.2352(2)
C21 C 0.7727(4) 0.8634(3) 0.1829(2)
H39 H 0.7333(4) 0.9048(3) 0.1658(2)
C22 C 0.8769(5) 0.8365(4) 0.1550(3)
H40 H 0.9069(5) 0.8587(4) 0.1187(3)
C23 C 0.9368(4) 0.7777(4) 0.1802(3)
H41 H 1.0096(4) 0.7617(4) 0.1619(3)
C24 C 0.8912(4) 0.7428(4) 0.2312(2)
H42 H 0.9311(4) 0.7012(4) 0.2479(2)
C25 C 0.7862(4) 0.7679(3) 0.2592(2)
H43 H 0.7548(4) 0.7428(3) 0.2946(2)
C26 C 0.6732(3) 0.9641(3) 0.34223(15)
C27 C 0.6009(4) 0.9808(3) 0.3929(2)
H44 H 0.5110(4) 0.9353(3) 0.3921(2)
C28 C 0.6607(4) 1.0643(3) 0.4449(2)
H45 H 0.6106(4) 1.0756(3) 0.4790(2)
C29 C 0.7914(4) 1.1300(3) 0.4471(2)
H46 H 0.8309(4) 1.1871(3) 0.4823(2)
C30 C 0.8646(4) 1.1127(3) 0.3979(2)
H47 H 0.9554(4) 1.1570(3) 0.3997(2)
C31 C 0.8059(4) 1.0303(3) 0.3456(2)
H48 H 0.8569(4) 1.0193(3) 0.3118(2)
C32 C 0.5263(3) 0.9232(3) 0.22538(15)
C33 C 0.4051(4) 0.8663(3) 0.1890(2)
H49 H 0.3577(4) 0.7949(3) 0.1905(2)
C34 C 0.3531(4) 0.9133(4) 0.1505(2)
H50 H 0.2707(4) 0.8738(4) 0.1257(2)
C35 C 0.4212(5) 1.0177(4) 0.1484(2)
H51 H 0.3850(5) 1.0500(4) 0.1225(2)
C36 C 0.5425(4) 1.0751(3) 0.1840(2)
H52 H 0.5897(4) 1.1464(3) 0.1823(2)
C37 C 0.5945(4) 1.0282(3) 0.2222(2)
H53 H 0.6774(4) 1.0679(3) 0.2465(2)
C38 C 0.4475(3) 0.3492(3) 0.32696(14)
C39 C 0.4933(4) 0.2638(3) 0.3153(2)
H54 H 0.4954(4) 0.2281(3) 0.2738(2)
C40 C 0.5364(4) 0.2301(3) 0.3636(2)
H55 H 0.5672(4) 0.1717(3) 0.3550(2)
C41 C 0.5343(4) 0.2814(3) 0.4239(2)
H56 H 0.5638(4) 0.2585(3) 0.4569(2)
C42 C 0.4889(4) 0.3663(3) 0.4365(2)
H57 H 0.4877(4) 0.4018(3) 0.4781(2)
C43 C 0.4454(4) 0.4002(3) 0.3883(2)
H58 H 0.4139(4) 0.4582(3) 0.3973(2)
C44 C 0.2359(3) 0.2967(3) 0.22876(15)
C45 C 0.1578(4) 0.3222(3) 0.1889(2)
H59 H 0.1879(4) 0.3912(3) 0.1810(2)
C46 C 0.0350(4) 0.2475(3) 0.1603(2)
H60 H -0.0175(4) 0.2660(3) 0.1331(2)
C47 C -0.0102(4) 0.1475(4) 0.1713(2)
H61 H -0.0937(4) 0.0968(4) 0.1519(2)
C48 C 0.0665(5) 0.1219(4) 0.2105(2)
H62 H 0.0358(5) 0.0530(4) 0.2183(2)
C49 C 0.1885(4) 0.1952(3) 0.2392(2)
H63 H 0.2404(4) 0.1757(3) 0.2661(2)
C50 C 0.5110(3) 0.3797(2) 0.20731(14)
C51 C 0.6460(4) 0.4426(3) 0.2206(2)
H64 H 0.6749(4) 0.4940(3) 0.2590(2)
C52 C 0.7387(4) 0.4321(3) 0.1794(2)
H65 H 0.8304(4) 0.4749(3) 0.1900(2)
C53 C 0.6975(4) 0.3589(3) 0.1225(2)
H66 H 0.7605(4) 0.3518(3) 0.0938(2)
C54 C 0.5638(4) 0.2965(3) 0.1080(2)
H67 H 0.5352(4) 0.2465(3) 0.0691(2)
C55 C 0.4713(4) 0.3063(3) 0.15014(15)
H68 H 0.3799(4) 0.2626(3) 0.13975(15)
C56 C 0.1435(5) -0.0515(7) 0.0294(3)
H69 H 0.0754(5) -0.0869(7) 0.0521(3)
C57 C 0.1723(6) 0.0561(6) 0.0324(2)
H70 H 0.1245(6) 0.0947(6) 0.0570(2)
C58 C 0.2703(5) 0.1050(4) -0.0004(2)
H71 H 0.2923(5) 0.1787(4) 0.0016(2)
C59 C 0.3370(5) 0.0484(4) -0.0360(2)
H72 H 0.4040(5) 0.0827(4) -0.0595(2)
C60 C 0.3088(5) -0.0559(4) -0.0381(2)
H73 H 0.3575(5) -0.0938(4) -0.0625(2)
C61 C 0.2126(6) -0.1071(4) -0.0064(2)
H74 H 0.1927(6) -0.1805(4) -0.0085(2)
C62 C -0.0213(6) 0.5383(6) 0.0586(3)
H75 H -0.0376(6) 0.5634(6) 0.1000(3)
C63 C 0.0095(7) 0.4489(8) 0.0453(4)
H76 H 0.0175(7) 0.4142(8) 0.0768(4)
C64 C -0.0304(8) 0.5933(7) 0.0179(5)
H77 H -0.0495(8) 0.6572(7) 0.0296(5)
C64A C 0.0304(8) 0.4067(7) -0.0179(5)
C62A C 0.0213(6) 0.4617(6) -0.0586(3)
H75A H 0.0376(6) 0.4366(6) -0.1000(3)
C63A C -0.0095(7) 0.5511(8) -0.0453(4)
H76A H -0.0175(7) 0.5858(8) -0.0768(4)
H77A H 0.0495(8) 0.3428(7) -0.0296(5)
C4? C 0.1529(10) 1.0137(9) 0.3473(4)
H7? H 0.0646(10) 0.9839(9) 0.3228(4)
H8? H 0.1870(10) 1.0921(9) 0.3542(4)
C5? C 0.1464(10) 0.9786(5) 0.4098(4)
H9? H 0.2293(10) 1.0177(5) 0.4381(4)
H10? H 0.0680(10) 0.9848(5) 0.4312(4)
C9? C -0.1495(11) 0.3588(13) 0.3555(4)
H17? H -0.1938(11) 0.2828(13) 0.3553(4)
H18? H -0.2181(11) 0.3889(13) 0.3472(4)
loop_
_geom_bond_atom_site_label_1
_geom_bond_atom_site_label_2
_geom_bond_site_symmetry_1
_geom_bond_site_symmetry_2
Br1 Li1 1_555 1_555
Br2 Li1 1_555 1_555
P1 N1 1_555 1_555
P2 N2 1_555 1_555
Li1 O1 1_555 1_555
Li2 Br1 1_555 1_555
Li3 Br2 1_555 1_555
Li4 Br1 1_555 1_555
O1 C1 1_555 1_555
O2 Li2 1_555 1_555
O3 Li3 1_555 1_555
O4 Li4 1_555 1_555
N1 Li1 1_555 1_555
N2 Li2 1_555 1_555
C1 H1 1_555 1_555
H2 C1 1_555 1_555
C2 C1 1_555 1_555
H3 C2 1_555 1_555
H4 C2 1_555 1_555
C3 C2 1_555 1_555
H5 C3 1_555 1_555
H6 C3 1_555 1_555
C6 O1 1_555 1_555
H11 C6 1_555 1_555
H12 C6 1_555 1_555
C7 O2 1_555 1_555
H13 C7 1_555 1_555
H14 C7 1_555 1_555
C8 C7 1_555 1_555
H15 C8 1_555 1_555
H16 C8 1_555 1_555
C10 C8 1_555 1_555
H19 C10 1_555 1_555
H20 C10 1_555 1_555
C11 O2 1_555 1_555
H21 C11 1_555 1_555
H22 C11 1_555 1_555
C12 O3 1_555 1_555
H23 C12 1_555 1_555
H24 C12 1_555 1_555
C13 C12 1_555 1_555
H25 C13 1_555 1_555
H26 C13 1_555 1_555
C14 C13 1_555 1_555
H27 C14 1_555 1_555
H28 C14 1_555 1_555
C15 O3 1_555 1_555
H29 C15 1_555 1_555
H30 C15 1_555 1_555
C16 O4 1_555 1_555
H31 C16 1_555 1_555
H32 C16 1_555 1_555
C17 C16 1_555 1_555
H33 C17 1_555 1_555
H34 C17 1_555 1_555
C18 C17 1_555 1_555
H35 C18 1_555 1_555
H36 C18 1_555 1_555
C19 O4 1_555 1_555
H37 C19 1_555 1_555
H38 C19 1_555 1_555
C20 P1 1_555 1_555
C21 C20 1_555 1_555
H39 C21 1_555 1_555
C22 C21 1_555 1_555
H40 C22 1_555 1_555
C23 C22 1_555 1_555
H41 C23 1_555 1_555
C24 C23 1_555 1_555
H42 C24 1_555 1_555
C25 C20 1_555 1_555
H43 C25 1_555 1_555
C26 P1 1_555 1_555
C27 C26 1_555 1_555
H44 C27 1_555 1_555
C28 C27 1_555 1_555
H45 C28 1_555 1_555
C29 C28 1_555 1_555
H46 C29 1_555 1_555
C30 C29 1_555 1_555
H47 C30 1_555 1_555
C31 C26 1_555 1_555
H48 C31 1_555 1_555
C32 P1 1_555 1_555
C33 C32 1_555 1_555
H49 C33 1_555 1_555
C34 C33 1_555 1_555
H50 C34 1_555 1_555
C35 C34 1_555 1_555
H51 C35 1_555 1_555
C36 C35 1_555 1_555
H52 C36 1_555 1_555
C37 C32 1_555 1_555
H53 C37 1_555 1_555
C38 P2 1_555 1_555
C39 C38 1_555 1_555
H54 C39 1_555 1_555
C40 C39 1_555 1_555
H55 C40 1_555 1_555
C41 C40 1_555 1_555
H56 C41 1_555 1_555
C42 C41 1_555 1_555
H57 C42 1_555 1_555
C43 C38 1_555 1_555
H58 C43 1_555 1_555
C44 P2 1_555 1_555
C45 C44 1_555 1_555
H59 C45 1_555 1_555
C46 C45 1_555 1_555
H60 C46 1_555 1_555
C47 C46 1_555 1_555
H61 C47 1_555 1_555
C48 C47 1_555 1_555
H62 C48 1_555 1_555
C49 C44 1_555 1_555
H63 C49 1_555 1_555
C50 P2 1_555 1_555
C51 C50 1_555 1_555
H64 C51 1_555 1_555
C52 C51 1_555 1_555
H65 C52 1_555 1_555
C53 C52 1_555 1_555
H66 C53 1_555 1_555
C54 C53 1_555 1_555
H67 C54 1_555 1_555
C55 C50 1_555 1_555
H68 C55 1_555 1_555
C56 H69 1_555 1_555
C57 C56 1_555 1_555
H70 C57 1_555 1_555
C58 C57 1_555 1_555
H71 C58 1_555 1_555
C59 C58 1_555 1_555
H72 C59 1_555 1_555
C60 C59 1_555 1_555
H73 C60 1_555 1_555
C61 C56 1_555 1_555
H74 C61 1_555 1_555
C62 H75 1_555 1_555
C63 C62 1_555 1_555
H76 C63 1_555 1_555
C64 C62 1_555 1_555
H77 C64 1_555 1_555
C64A C63 1_555 1_555
C62A C64A 1_555 1_555
H75A C62A 1_555 1_555
C63A C64 1_555 1_555
H76A C63A 1_555 1_555
H77A C64A 1_555 1_555
Br2 Li2 1_555 1_555
Li3 N1 1_555 1_555
Li3 N2 1_555 1_555
Li4 N1 1_555 1_555
Li4 N2 1_555 1_555
C3 C6 1_555 1_555
C10 C11 1_555 1_555
C14 C15 1_555 1_555
C18 C19 1_555 1_555
C24 C25 1_555 1_555
C30 C31 1_555 1_555
C36 C37 1_555 1_555
C42 C43 1_555 1_555
C48 C49 1_555 1_555
C54 C55 1_555 1_555
C60 C61 1_555 1_555
C62A C63A 1_555 1_555

#END
