
#######################################################################
#
#                 Cambridge Crystallographic Data Centre
#                                CCDC 
#
#######################################################################
#
# If this CIF has been generated from an entry in the Cambridge 
# Structural Database, then it will include bibliographic, chemical, 
# crystal, experimental, refinement or atomic coordinate data resulting 
# from the CCDC's data processing and validation procedures.
#
#######################################################################

data_REHVUY
_chemical_formula_moiety         'C26 H25 N1 O6 S1'
_chemical_name_systematic        
"methyl 5'-(2-methoxy-2-oxoethyl)-7'-(4-methylphenyl)-1,3-dioxo-1,3,7',7a'-tetrahydro-1'H-spiro[indene-2,6'-pyrrolo[1,2-c][1,3]thiazole]-5'-carboxylate"
_symmetry_cell_setting           monoclinic
_symmetry_space_group_name_H-M   'C 2/c'
_symmetry_Int_Tables_number      15
_space_group_name_Hall           '-C 2yn'
loop_
_symmetry_equiv_pos_site_id
_symmetry_equiv_pos_as_xyz
1 x,y,z
2 -x,y,1/2-z
3 1/2+x,1/2+y,z
4 1/2-x,1/2+y,1/2-z
5 -x,-y,-z
6 x,-y,1/2+z
7 1/2-x,1/2-y,-z
8 1/2+x,1/2-y,1/2+z
_cell_length_a                   31.628(5)
_cell_length_b                   8.7244(11)
_cell_length_c                   20.544(3)
_cell_angle_alpha                90
_cell_angle_beta                 124.008(4)
_cell_angle_gamma                90
_cell_volume                     4699.22
_exptl_crystal_colour            colorless
_exptl_crystal_description       block
_cell_formula_units_Z            8
loop_
_atom_site_label
_atom_site_type_symbol
_atom_site_fract_x
_atom_site_fract_y
_atom_site_fract_z
C1 C 0.84016(9) 0.6239(3) 0.02492(14)
C2 C 0.79170(8) 0.5382(2) -0.01237(14)
C3 C 0.75306(9) 0.5499(3) -0.00033(15)
H1 H 0.7552 0.6198 0.0356
C4 C 0.71130(10) 0.4560(3) -0.04258(18)
H2 H 0.6849 0.4623 -0.0351
C5 C 0.70802(10) 0.3520(3) -0.09616(18)
H3 H 0.6792 0.2901 -0.1243
C6 C 0.74624(10) 0.3376(3) -0.10897(16)
H4 H 0.7439 0.2672 -0.1449
C7 C 0.78848(9) 0.4330(2) -0.06584(14)
C8 C 0.83465(9) 0.4397(3) -0.06646(14)
C9 C 0.86914(8) 0.5684(2) -0.01127(12)
C10 C 0.92327(8) 0.5083(2) 0.05303(13)
H5 H 0.9367 0.4602 0.0251
C11 C 0.92584(8) 0.3874(2) 0.10800(14)
C12 C 0.93029(9) 0.4185(3) 0.17776(14)
H6 H 0.9320 0.5195 0.1934
C13 C 0.93221(9) 0.3000(3) 0.22443(16)
H7 H 0.9356 0.3237 0.2713
C14 C 0.92919(9) 0.1469(3) 0.20335(17)
C15 C 0.93085(13) 0.0191(4) 0.2538(2)
H8 H 0.9657 -0.0077 0.2925
H9 H 0.9132 -0.0685 0.2216
H10 H 0.9147 0.0520 0.2795
C16 C 0.92458(10) 0.1173(3) 0.13365(18)
H11 H 0.9223 0.0162 0.1176
C17 C 0.92323(9) 0.2338(3) 0.08726(15)
H12 H 0.9205 0.2095 0.0410
C18 C 0.95319(8) 0.6583(2) 0.08768(14)
H13 H 0.9510 0.6908 0.1313
C19 C 1.00983(9) 0.6477(3) 0.11635(16)
H14 H 1.0200 0.5412 0.1215
H15 H 1.0311 0.6965 0.1673
C20 C 0.96263(9) 0.8636(3) 0.01859(16)
H16 H 0.9734 0.9501 0.0541
H17 H 0.9471 0.9024 -0.0343
C21 C 0.88287(8) 0.6971(2) -0.04866(13)
C22 C 0.84055(10) 0.8167(3) -0.09205(14)
C23 C 0.81242(11) 1.0245(3) -0.18069(18)
H18 H 0.7827 0.9700 -0.2208
H19 H 0.8245 1.0900 -0.2045
H20 H 0.8038 1.0854 -0.1508
C24 C 0.89706(9) 0.6333(3) -0.10463(13)
H21 H 0.9152 0.7122 -0.1129
H22 H 0.9202 0.5475 -0.0791
C25 C 0.85231(11) 0.5809(3) -0.18359(15)
C26 C 0.82799(12) 0.4197(3) -0.29086(16)
H23 H 0.8027 0.3717 -0.2858
H24 H 0.8424 0.3451 -0.3074
H25 H 0.8125 0.5003 -0.3291
N1 N 0.92642(7) 0.77094(19) 0.02312(11)
O1 O 0.85598(6) 0.71426(18) 0.07894(10)
O2 O 0.84595(7) 0.35358(19) -0.10084(11)
O3 O 0.80273(7) 0.8216(2) -0.09160(11)
O4 O 0.85204(6) 0.91580(18) -0.12919(11)
O5 O 0.80916(7) 0.6234(2) -0.21390(11)
O6 O 0.86761(6) 0.4828(2) -0.21625(10)
S1 S 1.01742(3) 0.74252(8) 0.04589(5)
loop_
_geom_bond_atom_site_label_1
_geom_bond_atom_site_label_2
_geom_bond_site_symmetry_1
_geom_bond_site_symmetry_2
C1 C2 1_555 1_555
C2 C3 1_555 1_555
C3 H1 1_555 1_555
C4 C3 1_555 1_555
H2 C4 1_555 1_555
C5 C4 1_555 1_555
H3 C5 1_555 1_555
C6 C5 1_555 1_555
H4 C6 1_555 1_555
C7 C2 1_555 1_555
C8 C7 1_555 1_555
C9 C1 1_555 1_555
C10 C9 1_555 1_555
H5 C10 1_555 1_555
C11 C10 1_555 1_555
C12 C11 1_555 1_555
H6 C12 1_555 1_555
C13 C12 1_555 1_555
H7 C13 1_555 1_555
C14 C13 1_555 1_555
C15 C14 1_555 1_555
H8 C15 1_555 1_555
H9 C15 1_555 1_555
H10 C15 1_555 1_555
C16 C14 1_555 1_555
H11 C16 1_555 1_555
C17 C11 1_555 1_555
H12 C17 1_555 1_555
C18 C10 1_555 1_555
H13 C18 1_555 1_555
C19 C18 1_555 1_555
H14 C19 1_555 1_555
H15 C19 1_555 1_555
C20 H16 1_555 1_555
H17 C20 1_555 1_555
C21 C9 1_555 1_555
C22 C21 1_555 1_555
C23 H18 1_555 1_555
H19 C23 1_555 1_555
H20 C23 1_555 1_555
C24 C21 1_555 1_555
H21 C24 1_555 1_555
H22 C24 1_555 1_555
C25 C24 1_555 1_555
C26 H23 1_555 1_555
H24 C26 1_555 1_555
H25 C26 1_555 1_555
N1 C18 1_555 1_555
O1 C1 1_555 1_555
O2 C8 1_555 1_555
O3 C22 1_555 1_555
O4 C22 1_555 1_555
O5 C25 1_555 1_555
O6 C25 1_555 1_555
S1 C19 1_555 1_555
C6 C7 1_555 1_555
C8 C9 1_555 1_555
C16 C17 1_555 1_555
C20 N1 1_555 1_555
C20 S1 1_555 1_555
C21 N1 1_555 1_555
C23 O4 1_555 1_555
C26 O6 1_555 1_555

#END
