
#######################################################################
#
#                 Cambridge Crystallographic Data Centre
#                                CCDC 
#
#######################################################################
#
# If this CIF has been generated from an entry in the Cambridge 
# Structural Database, then it will include bibliographic, chemical, 
# crystal, experimental, refinement or atomic coordinate data resulting 
# from the CCDC's data processing and validation procedures.
#
#######################################################################

data_REHVEG
_chemical_formula_moiety         'C17 H12 Cl2 O2 S1'
_chemical_name_systematic        
(E)-1,4-bis(4-Chlorophenyl)-2-(methylthio)but-2-ene-1,4-dione
_symmetry_cell_setting           monoclinic
_symmetry_space_group_name_H-M   'P 21/c'
_symmetry_Int_Tables_number      14
_space_group_name_Hall           '-P 2ybc'
loop_
_symmetry_equiv_pos_site_id
_symmetry_equiv_pos_as_xyz
1 x,y,z
2 -x,1/2+y,1/2-z
3 -x,-y,-z
4 x,1/2-y,1/2+z
_cell_length_a                   16.0885(17)
_cell_length_b                   9.0949(10)
_cell_length_c                   11.4633(12)
_cell_angle_alpha                90
_cell_angle_beta                 104.433(2)
_cell_angle_gamma                90
_cell_volume                     1624.41
_exptl_crystal_colour            yellow
_exptl_crystal_description       block
_chemical_melting_point          '140-141 deg.C'
_cell_formula_units_Z            4
loop_
_atom_site_label
_atom_site_type_symbol
_atom_site_fract_x
_atom_site_fract_y
_atom_site_fract_z
C1 C 0.42673(13) 1.1618(2) 0.4177(2)
C2 C 0.37383(14) 1.0943(2) 0.4775(2)
H1 H 0.3581 1.1417 0.5406
C3 C 0.34386(13) 0.9544(2) 0.44291(18)
H2 H 0.3082 0.9073 0.4836
C4 C 0.45232(13) 1.0931(2) 0.3258(2)
H3 H 0.4900 1.1393 0.2879
C5 C 0.42131(13) 0.9548(2) 0.29078(18)
H4 H 0.4374 0.9081 0.2276
C6 C 0.36635(11) 0.88382(19) 0.34864(16)
C7 C 0.33030(12) 0.7379(2) 0.30298(17)
C8 C 0.29259(12) 0.6453(2) 0.38098(18)
H5 H 0.3030 0.6676 0.4625
C9 C 0.24320(12) 0.5288(2) 0.33712(17)
C10 C 0.22138(12) 0.4833(2) 0.20586(18)
C11 C 0.15457(12) 0.5663(2) 0.11748(18)
C12 C 0.13164(13) 0.5194(2) -0.00116(18)
H6 H 0.1584 0.4373 -0.0238
C13 C 0.06977(14) 0.5925(2) -0.0861(2)
H7 H 0.0547 0.5606 -0.1657
C14 C 0.03082(13) 0.7133(2) -0.05129(19)
C15 C 0.05065(14) 0.7610(2) 0.0656(2)
H8 H 0.0228 0.8420 0.0879
C16 C 0.11274(13) 0.6867(2) 0.14993(19)
H9 H 0.1266 0.7180 0.2297
C17 C 0.23919(16) 0.4652(3) 0.57092(19)
H10 H 0.3007 0.4623 0.5894
H11 H 0.2192 0.4005 0.6242
H12 H 0.2207 0.5637 0.5809
Cl1 Cl 0.46366(4) 1.33817(6) 0.46104(6)
Cl2 Cl -0.04787(4) 0.80458(8) -0.15854(6)
O1 O 0.33060(10) 0.69869(16) 0.20046(13)
O2 O 0.25397(10) 0.37297(16) 0.17757(14)
S1 S 0.19650(4) 0.40794(6) 0.41923(5)
loop_
_geom_bond_atom_site_label_1
_geom_bond_atom_site_label_2
_geom_bond_site_symmetry_1
_geom_bond_site_symmetry_2
C1 C2 1_555 1_555
C2 H1 1_555 1_555
C3 C2 1_555 1_555
H2 C3 1_555 1_555
C4 C1 1_555 1_555
H3 C4 1_555 1_555
C5 C4 1_555 1_555
H4 C5 1_555 1_555
C6 C3 1_555 1_555
C7 C6 1_555 1_555
C8 C7 1_555 1_555
H5 C8 1_555 1_555
C9 C8 1_555 1_555
C10 C9 1_555 1_555
C11 C10 1_555 1_555
C12 C11 1_555 1_555
H6 C12 1_555 1_555
C13 C12 1_555 1_555
H7 C13 1_555 1_555
C14 C13 1_555 1_555
C15 C14 1_555 1_555
H8 C15 1_555 1_555
C16 C11 1_555 1_555
H9 C16 1_555 1_555
C17 H10 1_555 1_555
H11 C17 1_555 1_555
H12 C17 1_555 1_555
Cl1 C1 1_555 1_555
Cl2 C14 1_555 1_555
O1 C7 1_555 1_555
O2 C10 1_555 1_555
S1 C9 1_555 1_555
C5 C6 1_555 1_555
C15 C16 1_555 1_555
C17 S1 1_555 1_555

#END
