
#######################################################################
#
#                 Cambridge Crystallographic Data Centre
#                                CCDC 
#
#######################################################################
#
# If this CIF has been generated from an entry in the Cambridge 
# Structural Database, then it will include bibliographic, chemical, 
# crystal, experimental, refinement or atomic coordinate data resulting 
# from the CCDC's data processing and validation procedures.
#
#######################################################################

data_REHWUZ
_chemical_formula_moiety         'C30 H28 Br1 N1 O10'
_chemical_name_systematic        
"dimethyl 2-(4'-(4-bromophenyl)-5'-(methoxycarbonyl)-5'-(2-methoxy-2-oxoethyl)-2'-methyl-1,3-dioxo-1,3-dihydro-1'H-spiro[indene-2,3'-pyrrolidin]-1'-yl)but-2-enedioate"
_symmetry_cell_setting           orthorhombic
_symmetry_space_group_name_H-M   'P 21 21 21'
_symmetry_Int_Tables_number      19
_space_group_name_Hall           'P 2ac 2ab'
loop_
_symmetry_equiv_pos_site_id
_symmetry_equiv_pos_as_xyz
1 x,y,z
2 1/2-x,-y,1/2+z
3 -x,1/2+y,1/2-z
4 1/2+x,1/2-y,-z
_cell_length_a                   10.972(4)
_cell_length_b                   14.934(5)
_cell_length_c                   17.537(7)
_cell_angle_alpha                90
_cell_angle_beta                 90
_cell_angle_gamma                90
_cell_volume                     2873.54
_exptl_crystal_colour            colorless
_exptl_crystal_description       block
_cell_formula_units_Z            4
loop_
_atom_site_label
_atom_site_type_symbol
_atom_site_fract_x
_atom_site_fract_y
_atom_site_fract_z
Br1 Br 1.2945(5) 0.3741(3) 0.2076(2)
C1 C 0.7094(3) 0.29652(19) 0.0615(2)
C2 C 0.6756(3) 0.2251(2) 0.11624(19)
C3 C 0.6859(3) 0.1329(2) 0.1078(2)
H1 H 0.7175 0.1082 0.0634
C4 C 0.6483(4) 0.0794(2) 0.1666(3)
H2 H 0.6545 0.0175 0.1619
C5 C 0.6014(4) 0.1157(3) 0.2329(3)
H3 H 0.5754 0.0779 0.2718
C6 C 0.5923(4) 0.2077(3) 0.2424(2)
H4 H 0.5616 0.2320 0.2873
C7 C 0.6304(3) 0.2624(2) 0.1831(2)
C8 C 0.6292(3) 0.3608(2) 0.1766(2)
C9 C 0.6707(3) 0.3877(2) 0.09581(19)
C10 C 0.7675(3) 0.46286(19) 0.09847(19)
H5 H 0.7389 0.5028 0.1390
C11 C 0.8962(3) 0.4375(2) 0.1230(2)
C12 C 0.9373(3) 0.4689(2) 0.1928(2)
H6 H 0.8859 0.5044 0.2222
C13 C 1.0530(3) 0.4491(2) 0.2199(2)
H7 H 1.0790 0.4706 0.2669
C14 C 1.1283(3) 0.3969(2) 0.1756(2)
C15 C 1.0908(3) 0.3631(2) 0.1074(2)
H8 H 1.1425 0.3272 0.0786
C16 C 0.9748(3) 0.3832(2) 0.0814(2)
H9 H 0.9488 0.3598 0.0350
C17 C 0.5619(3) 0.4324(2) 0.0523(2)
H10 H 0.5032 0.4542 0.0901
C18 C 0.4951(4) 0.3688(3) -0.0020(3)
H11 H 0.4294 0.4001 -0.0264
H12 H 0.4632 0.3190 0.0263
H13 H 0.5510 0.3473 -0.0400
C19 C 0.7493(3) 0.5186(2) 0.02343(19)
C20 C 0.8213(3) 0.4845(2) -0.0454(2)
C21 C 0.8131(5) 0.3983(3) -0.1581(2)
H14 H 0.8516 0.4445 -0.1876
H15 H 0.7550 0.3672 -0.1893
H16 H 0.8737 0.3569 -0.1403
C22 C 0.7929(3) 0.6170(2) 0.0391(2)
H17 H 0.8716 0.6148 0.0641
H18 H 0.8038 0.6472 -0.0094
C23 C 0.7072(4) 0.6714(2) 0.0873(2)
C24 C 0.5872(4) 0.8037(3) 0.0893(3)
H19 H 0.5071 0.7778 0.0904
H20 H 0.5844 0.8601 0.0630
H21 H 0.6153 0.8130 0.1405
C25 C 0.5511(3) 0.5663(2) -0.0332(2)
C26 C 0.4171(3) 0.5711(2) -0.0183(2)
C27 C 0.2661(4) 0.6040(4) 0.0739(3)
H22 H 0.2305 0.6596 0.0579
H23 H 0.2597 0.5986 0.1283
H24 H 0.2239 0.5552 0.0500
C28 C 0.6009(3) 0.6167(2) -0.0910(2)
H25 H 0.6791 0.6029 -0.1077
C29 C 0.5371(4) 0.6900(2) -0.1269(2)
C30 C 0.5447(5) 0.7917(3) -0.2298(3)
H26 H 0.4676 0.7728 -0.2499
H27 H 0.5975 0.8088 -0.2710
H28 H 0.5328 0.8420 -0.1965
N1 N 0.6168(2) 0.51118(16) 0.01387(16)
O1 O 0.7607(2) 0.28463(14) 0.00145(14)
O2 O 0.5979(3) 0.41392(17) 0.22527(17)
O3 O 0.9277(2) 0.49975(19) -0.05498(17)
O4 O 0.7511(2) 0.43815(15) -0.09332(14)
O5 O 0.6765(3) 0.65326(16) 0.15065(17)
O6 O 0.6698(2) 0.74381(15) 0.05007(14)
O7 O 0.3401(2) 0.54687(19) -0.06195(19)
O8 O 0.3950(2) 0.60189(18) 0.05159(16)
O9 O 0.4426(3) 0.7232(2) -0.10574(19)
O10 O 0.5988(3) 0.71990(17) -0.18812(16)
Br2? Br 1.2756(19) 0.3621(13) 0.2143(9)
loop_
_geom_bond_atom_site_label_1
_geom_bond_atom_site_label_2
_geom_bond_site_symmetry_1
_geom_bond_site_symmetry_2
Br1 C14 1_555 1_555
C1 C2 1_555 1_555
C2 C3 1_555 1_555
C3 H1 1_555 1_555
C4 C3 1_555 1_555
H2 C4 1_555 1_555
C5 C4 1_555 1_555
H3 C5 1_555 1_555
C6 C5 1_555 1_555
H4 C6 1_555 1_555
C7 C2 1_555 1_555
C8 C7 1_555 1_555
C9 C1 1_555 1_555
C10 C9 1_555 1_555
H5 C10 1_555 1_555
C11 C10 1_555 1_555
C12 C11 1_555 1_555
H6 C12 1_555 1_555
C13 C12 1_555 1_555
H7 C13 1_555 1_555
C14 C13 1_555 1_555
C15 C14 1_555 1_555
H8 C15 1_555 1_555
C16 C11 1_555 1_555
H9 C16 1_555 1_555
C17 C9 1_555 1_555
H10 C17 1_555 1_555
C18 C17 1_555 1_555
H11 C18 1_555 1_555
H12 C18 1_555 1_555
H13 C18 1_555 1_555
C19 C10 1_555 1_555
C20 C19 1_555 1_555
C21 H14 1_555 1_555
H15 C21 1_555 1_555
H16 C21 1_555 1_555
C22 C19 1_555 1_555
H17 C22 1_555 1_555
H18 C22 1_555 1_555
C23 C22 1_555 1_555
C24 H19 1_555 1_555
H20 C24 1_555 1_555
H21 C24 1_555 1_555
C25 C26 1_555 1_555
C26 O7 1_555 1_555
C27 H22 1_555 1_555
H23 C27 1_555 1_555
H24 C27 1_555 1_555
C28 C25 1_555 1_555
H25 C28 1_555 1_555
C29 C28 1_555 1_555
C30 H26 1_555 1_555
H27 C30 1_555 1_555
H28 C30 1_555 1_555
N1 C17 1_555 1_555
O1 C1 1_555 1_555
O2 C8 1_555 1_555
O3 C20 1_555 1_555
O4 C20 1_555 1_555
O5 C23 1_555 1_555
O6 C23 1_555 1_555
O8 C26 1_555 1_555
O9 C29 1_555 1_555
O10 C29 1_555 1_555
C6 C7 1_555 1_555
C8 C9 1_555 1_555
C15 C16 1_555 1_555
C19 N1 1_555 1_555
C21 O4 1_555 1_555
C24 O6 1_555 1_555
C25 N1 1_555 1_555
C27 O8 1_555 1_555
C30 O10 1_555 1_555

#END
