
#######################################################################
#
#                 Cambridge Crystallographic Data Centre
#                                CCDC 
#
#######################################################################
#
# If this CIF has been generated from an entry in the Cambridge 
# Structural Database, then it will include bibliographic, chemical, 
# crystal, experimental, refinement or atomic coordinate data resulting 
# from the CCDC's data processing and validation procedures.
#
#######################################################################

data_REHWEJ
_chemical_formula_moiety         'C25 H25 N1 O7'
_chemical_name_systematic        
"methyl 2'-(2-methoxy-2-oxoethyl)-4'-(3-methoxyphenyl)-1'-methyl-1,3-dioxo-1,3-dihydrospiro[indene-2,3'-pyrrolidine]-2'-carboxylate"
_symmetry_cell_setting           monoclinic
_symmetry_space_group_name_H-M   'P 21/c'
_symmetry_Int_Tables_number      14
_space_group_name_Hall           '-P 2ybc'
loop_
_symmetry_equiv_pos_site_id
_symmetry_equiv_pos_as_xyz
1 x,y,z
2 -x,1/2+y,1/2-z
3 -x,-y,-z
4 x,1/2-y,1/2+z
_cell_length_a                   11.025(4)
_cell_length_b                   18.873(5)
_cell_length_c                   14.554(4)
_cell_angle_alpha                90
_cell_angle_beta                 129.761(18)
_cell_angle_gamma                90
_cell_volume                     2327.93
_exptl_crystal_colour            yellow
_exptl_crystal_description       block
_cell_formula_units_Z            4
loop_
_atom_site_label
_atom_site_type_symbol
_atom_site_fract_x
_atom_site_fract_y
_atom_site_fract_z
C1 C 0.4339(2) 0.68091(9) 0.68347(15)
C2 C 0.53080(19) 0.71231(9) 0.65580(15)
C3 C 0.6936(2) 0.71149(11) 0.72353(18)
H1 H 0.7585 0.6894 0.7978
C4 C 0.7562(2) 0.74427(13) 0.6776(2)
H2 H 0.8649 0.7442 0.7215
C5 C 0.6599(3) 0.77744(12) 0.5667(2)
H3 H 0.7052 0.7986 0.5374
C6 C 0.4983(2) 0.77950(11) 0.49936(18)
H4 H 0.4339 0.8023 0.4257
C7 C 0.43484(19) 0.74606(9) 0.54574(15)
C8 C 0.2672(2) 0.73789(8) 0.49103(15)
C9 C 0.26147(19) 0.70348(8) 0.58471(14)
C10 C 0.2177(2) 0.75968(8) 0.64132(16)
H5 H 0.2741 0.7451 0.7243
C11 C 0.2679(2) 0.83535(9) 0.64553(16)
C12 C 0.1752(2) 0.88119(9) 0.54951(18)
H6 H 0.0797 0.8654 0.4794
C13 C 0.2231(3) 0.95066(10) 0.5567(2)
C14 C 0.1583(5) 1.06221(12) 0.4568(3)
H7 H 0.1774 1.0868 0.5227
H8 H 0.0734 1.0848 0.3833
H9 H 0.2519 1.0633 0.4651
C15 C 0.3670(3) 0.97413(12) 0.6591(3)
H10 H 0.4012 1.0200 0.6636
C16 C 0.4590(3) 0.92839(12) 0.7546(3)
H11 H 0.5555 0.9439 0.8241
C17 C 0.4103(2) 0.86009(11) 0.7488(2)
H12 H 0.4734 0.8304 0.8147
C18 C 0.0423(2) 0.74759(9) 0.57490(19)
H13 H 0.0253 0.7365 0.6310
H14 H -0.0177 0.7897 0.5306
C19 C -0.1464(3) 0.65135(12) 0.4593(3)
H15 H -0.1225 0.6284 0.5280
H16 H -0.1781 0.6165 0.3995
H17 H -0.2305 0.6847 0.4276
C20 C 0.1301(2) 0.64549(8) 0.53302(16)
C21 C 0.1769(2) 0.59043(9) 0.63001(18)
C22 C 0.2167(4) 0.57123(14) 0.8083(2)
H18 H 0.1361 0.5357 0.7749
H19 H 0.2238 0.5976 0.8680
H20 H 0.3162 0.5488 0.8442
C23 C 0.0859(2) 0.60415(10) 0.42427(17)
H21 H 0.0039 0.5704 0.4001
H22 H 0.0416 0.6372 0.3588
C24 C 0.2179(2) 0.56488(10) 0.44248(18)
C25 C 0.2739(4) 0.46971(17) 0.3680(3)
H23 H 0.3201 0.4995 0.3441
H24 H 0.2208 0.4307 0.3134
H25 H 0.3553 0.4520 0.4472
N1 N -0.00665(17) 0.68857(8) 0.49372(14)
O1 O 0.48416(16) 0.64769(7) 0.77320(12)
O2 O 0.15520(15) 0.75550(7) 0.39011(11)
O3 O 0.1170(2) 0.99076(8) 0.45596(16)
O4 O 0.20003(19) 0.52886(7) 0.62554(14)
O5 O 0.17758(19) 0.61869(7) 0.71487(13)
O6 O 0.35476(18) 0.58011(8) 0.51203(15)
O7 O 0.1618(2) 0.51037(9) 0.36696(17)
loop_
_geom_bond_atom_site_label_1
_geom_bond_atom_site_label_2
_geom_bond_site_symmetry_1
_geom_bond_site_symmetry_2
C1 C2 1_555 1_555
C2 C3 1_555 1_555
C3 H1 1_555 1_555
C4 C3 1_555 1_555
H2 C4 1_555 1_555
C5 C4 1_555 1_555
H3 C5 1_555 1_555
C6 C5 1_555 1_555
H4 C6 1_555 1_555
C7 C2 1_555 1_555
C8 C7 1_555 1_555
C9 C1 1_555 1_555
C10 C9 1_555 1_555
H5 C10 1_555 1_555
C11 C10 1_555 1_555
C12 C11 1_555 1_555
H6 C12 1_555 1_555
C13 C12 1_555 1_555
C14 H7 1_555 1_555
H8 C14 1_555 1_555
H9 C14 1_555 1_555
C15 C13 1_555 1_555
H10 C15 1_555 1_555
C16 C15 1_555 1_555
H11 C16 1_555 1_555
C17 C11 1_555 1_555
H12 C17 1_555 1_555
C18 C10 1_555 1_555
H13 C18 1_555 1_555
H14 C18 1_555 1_555
C19 H15 1_555 1_555
H16 C19 1_555 1_555
H17 C19 1_555 1_555
C20 C9 1_555 1_555
C21 C20 1_555 1_555
C22 H18 1_555 1_555
H19 C22 1_555 1_555
H20 C22 1_555 1_555
C23 C20 1_555 1_555
H21 C23 1_555 1_555
H22 C23 1_555 1_555
C24 C23 1_555 1_555
C25 H23 1_555 1_555
H24 C25 1_555 1_555
H25 C25 1_555 1_555
N1 C18 1_555 1_555
O1 C1 1_555 1_555
O2 C8 1_555 1_555
O3 C13 1_555 1_555
O4 C21 1_555 1_555
O5 C21 1_555 1_555
O6 C24 1_555 1_555
O7 C24 1_555 1_555
C6 C7 1_555 1_555
C8 C9 1_555 1_555
C14 O3 1_555 1_555
C16 C17 1_555 1_555
C19 N1 1_555 1_555
C20 N1 1_555 1_555
C22 O5 1_555 1_555
C25 O7 1_555 1_555

#END
