
#######################################################################
#
#                 Cambridge Crystallographic Data Centre
#                                CCDC 
#
#######################################################################
#
# If this CIF has been generated from an entry in the Cambridge 
# Structural Database, then it will include bibliographic, chemical, 
# crystal, experimental, refinement or atomic coordinate data resulting 
# from the CCDC's data processing and validation procedures.
#
#######################################################################

data_REHXUY
_chemical_formula_moiety         'C27 H18'
_chemical_name_systematic        
1,1-Dimethyl-2,11-dihydro-1H-dicyclopenta(mno,qr)indeno(1,2,3,4-defg)chrysene
_symmetry_cell_setting           monoclinic
_symmetry_space_group_name_H-M   'P 21/n'
_symmetry_Int_Tables_number      14
_space_group_name_Hall           '-P 2yn'
loop_
_symmetry_equiv_pos_site_id
_symmetry_equiv_pos_as_xyz
1 x,y,z
2 1/2-x,1/2+y,1/2-z
3 -x,-y,-z
4 1/2+x,1/2-y,1/2+z
_cell_length_a                   9.9891(11)
_cell_length_b                   9.0635(11)
_cell_length_c                   19.991(2)
_cell_angle_alpha                90
_cell_angle_beta                 103.081(2)
_cell_angle_gamma                90
_cell_volume                     1762.94
_cell_formula_units_Z            4
_exptl_crystal_recrystallization_method dichloromethane/ethanol
loop_
_atom_site_label
_atom_site_type_symbol
_atom_site_fract_x
_atom_site_fract_y
_atom_site_fract_z
C1 C 0.1226(2) 0.1711(2) -0.07764(11)
C2 C 0.09491(17) 0.2495(2) -0.01448(9)
C3 C -0.02050(16) 0.31376(19) 0.00017(9)
C4 C -0.17277(17) 0.3357(2) -0.03578(10)
H1 H -0.1853 0.4251 -0.0632
H2 H -0.2071 0.2524 -0.0651
C5 C -0.24531(17) 0.3471(2) 0.02378(10)
C6 C -0.38084(18) 0.3442(2) 0.02853(12)
H3 H -0.4517 0.3483 -0.0107
C7 C -0.40878(19) 0.3350(3) 0.09357(13)
H4 H -0.5000 0.3396 0.0970
C8 C -0.3086(2) 0.3194(2) 0.15333(12)
H5 H -0.3338 0.3077 0.1951
C9 C -0.16936(18) 0.3212(2) 0.15141(10)
C10 C -0.04989(19) 0.2746(2) 0.20577(10)
C11 C -0.0518(2) 0.2014(3) 0.26768(11)
H6 H -0.1306 0.2034 0.2851
C12 C 0.0636(3) 0.1265(3) 0.30251(12)
H7 H 0.0610 0.0839 0.3445
C13 C 0.1827(2) 0.1108(3) 0.27891(11)
H8 H 0.2552 0.0538 0.3029
C14 C 0.19156(19) 0.1813(2) 0.21907(10)
C15 C 0.27579(18) 0.1605(2) 0.16590(11)
C16 C 0.36097(18) 0.0509(3) 0.15070(13)
H9 H 0.4116 -0.0071 0.1858
C17 C 0.37148(18) 0.0267(3) 0.08230(14)
H10 H 0.4331 -0.0439 0.0739
C18 C 0.29365(18) 0.1039(2) 0.02729(13)
C19 C 0.2577(2) 0.0815(3) -0.04953(14)
H11 H 0.2432 -0.0224 -0.0605
H12 H 0.3313 0.1173 -0.0697
C20 C -0.14663(16) 0.34609(19) 0.08542(9)
C21 C 0.07797(18) 0.2718(2) 0.18838(9)
C22 C -0.01559(16) 0.34093(18) 0.07055(9)
C23 C 0.09402(16) 0.31441(19) 0.12311(9)
C24 C 0.20954(16) 0.24694(19) 0.10946(10)
C25 C 0.20796(16) 0.2154(2) 0.04188(10)
C26 C 0.0079(2) 0.0664(3) -0.10784(14)
H13 H -0.0048 -0.0024 -0.0733
H14 H 0.0307 0.0137 -0.1454
H15 H -0.0754 0.1211 -0.1241
C27 C 0.1424(4) 0.2818(3) -0.13172(15)
H16 H 0.1625 0.2302 -0.1702
H17 H 0.2173 0.3465 -0.1125
H18 H 0.0599 0.3386 -0.1466
loop_
_geom_bond_atom_site_label_1
_geom_bond_atom_site_label_2
_geom_bond_site_symmetry_1
_geom_bond_site_symmetry_2
C1 C2 1_555 1_555
C2 C3 1_555 1_555
C3 C4 1_555 1_555
C4 H1 1_555 1_555
H2 C4 1_555 1_555
C5 C4 1_555 1_555
C6 C5 1_555 1_555
H3 C6 1_555 1_555
C7 C6 1_555 1_555
H4 C7 1_555 1_555
C8 C7 1_555 1_555
H5 C8 1_555 1_555
C9 C8 1_555 1_555
C10 C9 1_555 1_555
C11 C10 1_555 1_555
H6 C11 1_555 1_555
C12 C11 1_555 1_555
H7 C12 1_555 1_555
C13 C12 1_555 1_555
H8 C13 1_555 1_555
C14 C13 1_555 1_555
C15 C14 1_555 1_555
C16 C15 1_555 1_555
H9 C16 1_555 1_555
C17 C16 1_555 1_555
H10 C17 1_555 1_555
C18 C17 1_555 1_555
C19 C1 1_555 1_555
H11 C19 1_555 1_555
H12 C19 1_555 1_555
C20 C5 1_555 1_555
C21 C10 1_555 1_555
C22 C3 1_555 1_555
C23 C21 1_555 1_555
C24 C15 1_555 1_555
C25 C2 1_555 1_555
C26 C1 1_555 1_555
H13 C26 1_555 1_555
H14 C26 1_555 1_555
H15 C26 1_555 1_555
C27 C1 1_555 1_555
H16 C27 1_555 1_555
H17 C27 1_555 1_555
H18 C27 1_555 1_555
C9 C20 1_555 1_555
C14 C21 1_555 1_555
C18 C19 1_555 1_555
C18 C25 1_555 1_555
C20 C22 1_555 1_555
C22 C23 1_555 1_555
C23 C24 1_555 1_555
C24 C25 1_555 1_555

#END
