
#######################################################################
#
#                 Cambridge Crystallographic Data Centre
#                                CCDC 
#
#######################################################################
#
# If this CIF has been generated from an entry in the Cambridge 
# Structural Database, then it will include bibliographic, chemical, 
# crystal, experimental, refinement or atomic coordinate data resulting 
# from the CCDC's data processing and validation procedures.
#
#######################################################################

data_REHYAH
_chemical_formula_moiety         'C34 H29 N3 O2'
_chemical_name_systematic        
4-(((4-methoxyphenyl)imino)methyl)-N-(4-(((4-methoxyphenyl)imino)methyl)phenyl)-N-phenylaniline
_symmetry_cell_setting           monoclinic
_symmetry_space_group_name_H-M   'P 21'
_symmetry_Int_Tables_number      4
_space_group_name_Hall           'P 2yb'
loop_
_symmetry_equiv_pos_site_id
_symmetry_equiv_pos_as_xyz
1 x,y,z
2 -x,1/2+y,-z
_cell_length_a                   9.744(2)
_cell_length_b                   8.9404(19)
_cell_length_c                   30.691(7)
_cell_angle_alpha                90
_cell_angle_beta                 93.925(5)
_cell_angle_gamma                90
_cell_volume                     2667.38
_exptl_crystal_colour            'light colorless'
_exptl_crystal_description       block
_cell_formula_units_Z            4
loop_
_atom_site_label
_atom_site_type_symbol
_atom_site_fract_x
_atom_site_fract_y
_atom_site_fract_z
O1 O -0.0404(5) -0.4391(5) -1.06085(14)
O2 O 0.0571(6) -0.5128(7) -0.35310(17)
N1 N -0.2144(5) -0.4389(6) -0.89107(17)
N2 N -0.5166(5) -0.5298(7) -0.71198(16)
N3 N -0.1387(5) -0.5358(7) -0.52902(18)
C1 C 0.0810(7) -0.3556(10) -1.0702(3)
H1 H 0.1588 -0.3881 -1.0506
H2 H 0.0645 -0.2486 -1.0659
H3 H 0.1020 -0.3732 -1.1006
C2 C -0.0799(6) -0.4355(7) -1.0188(2)
C3 C -0.0109(6) -0.3545(7) -0.9853(2)
H4 H 0.0691 -0.2985 -0.9907
C4 C -0.0614(6) -0.3570(7) -0.9437(2)
H5 H -0.0160 -0.3001 -0.9208
C5 C -0.1754(6) -0.4400(7) -0.93510(19)
C6 C -0.2444(6) -0.5157(8) -0.9696(2)
H6 H -0.3264 -0.5689 -0.9649
C7 C -0.1953(7) -0.5144(8) -1.0105(2)
H7 H -0.2425 -0.5693 -1.0334
C8 C -0.3020(6) -0.5344(7) -0.8786(2)
H8 H -0.3386 -0.6057 -0.8993
C9 C -0.3479(6) -0.5389(7) -0.8347(2)
C10 C -0.2817(6) -0.4608(8) -0.7999(2)
H9 H -0.1993 -0.4080 -0.8043
C11 C -0.3340(6) -0.4585(8) -0.7588(2)
H10 H -0.2878 -0.4047 -0.7355
C12 C -0.4549(6) -0.5360(7) -0.7523(2)
C13 C -0.5195(7) -0.6172(8) -0.7867(2)
H11 H -0.6008 -0.6720 -0.7822
C14 C -0.4662(7) -0.6187(8) -0.8272(2)
H12 H -0.5110 -0.6749 -0.8503
C15 C -0.6633(6) -0.5339(7) -0.7127(2)
C16 C -0.7431(6) -0.4331(8) -0.7380(2)
H13 H -0.6997 -0.3599 -0.7548
C17 C -0.8868(7) -0.4391(8) -0.7389(2)
H14 H -0.9406 -0.3712 -0.7567
C18 C -0.9507(6) -0.5442(7) -0.7139(2)
H15 H -1.0481 -0.5465 -0.7138
C19 C -0.8721(6) -0.6454(8) -0.6890(2)
H16 H -0.9159 -0.7189 -0.6725
C20 C -0.7286(6) -0.6404(7) -0.6881(2)
H17 H -0.6753 -0.7098 -0.6707
C21 C -0.4401(6) -0.5074(7) -0.6719(2)
C22 C -0.4928(6) -0.4110(7) -0.6404(2)
H18 H -0.5754 -0.3566 -0.6469
C23 C -0.4230(7) -0.3974(8) -0.6001(2)
H19 H -0.4581 -0.3312 -0.5794
C24 C -0.3044(6) -0.4758(7) -0.5886(2)
C25 C -0.2489(6) -0.5686(8) -0.6202(2)
H20 H -0.1650 -0.6206 -0.6138
C26 C -0.3191(6) -0.5827(8) -0.6611(2)
H21 H -0.2824 -0.6465 -0.6821
C27 C -0.2418(7) -0.4655(8) -0.5434(2)
H22 H -0.2838 -0.3999 -0.5239
C28 C -0.0885(6) -0.5230(8) -0.4847(2)
C29 C -0.1409(8) -0.4227(10) -0.4547(2)
H23 H -0.2128 -0.3557 -0.4639
C30 C -0.0872(9) -0.4213(10) -0.4112(3)
H24 H -0.1211 -0.3512 -0.3913
C31 C 0.0144(7) -0.5210(9) -0.3970(2)
C32 C 0.0671(7) -0.6191(9) -0.4262(2)
H25 H 0.1385 -0.6864 -0.4167
C33 C 0.0155(7) -0.6196(8) -0.4698(2)
H26 H 0.0525 -0.6876 -0.4897
C34 C 0.1180(9) -0.6434(12) -0.3334(3)
H27 H 0.1282 -0.6301 -0.3017
H28 H 0.2085 -0.6599 -0.3446
H29 H 0.0589 -0.7301 -0.3404
O3 O -0.7565(5) -0.5184(6) -0.58519(14)
O4 O -0.8050(4) -0.4664(5) 0.13249(14)
N4 N -0.4977(5) -0.5162(6) -0.41714(17)
N5 N -0.3029(5) -0.5440(6) -0.21229(17)
N6 N -0.5678(5) -0.4815(6) -0.02728(17)
C35 C -0.8563(8) -0.4079(9) -0.5980(2)
H30 H -0.9370 -0.4201 -0.5809
H31 H -0.8837 -0.4191 -0.6291
H32 H -0.8168 -0.3082 -0.5927
C36 C -0.6988(6) -0.5094(7) -0.5428(2)
C37 C -0.7387(6) -0.4073(7) -0.5124(2)
H33 H -0.8102 -0.3380 -0.5200
C38 C -0.6739(6) -0.4062(7) -0.4704(2)
H34 H -0.7007 -0.3356 -0.4495
C39 C -0.5709(6) -0.5079(8) -0.4595(2)
C40 C -0.5293(6) -0.6067(8) -0.4907(2)
H35 H -0.4550 -0.6731 -0.4836
C41 C -0.5951(7) -0.6094(8) -0.5320(2)
H36 H -0.5686 -0.6803 -0.5529
C42 C -0.5590(7) -0.4786(7) -0.3834(2)
H37 H -0.6504 -0.4413 -0.3866
C43 C -0.4897(6) -0.4924(7) -0.3402(2)
C44 C -0.5607(6) -0.4568(7) -0.3031(2)
H38 H -0.6528 -0.4218 -0.3070
C45 C -0.5006(6) -0.4713(7) -0.2615(2)
H39 H -0.5512 -0.4459 -0.2371
C46 C -0.3645(6) -0.5237(7) -0.2547(2)
C47 C -0.2922(7) -0.5593(8) -0.2914(2)
H40 H -0.2002 -0.5947 -0.2877
C48 C -0.3552(6) -0.5428(7) -0.3328(2)
H41 H -0.3046 -0.5669 -0.3572
C49 C -0.1564(6) -0.5241(8) -0.20521(18)
C50 C -0.0805(6) -0.6270(8) -0.1788(2)
H42 H -0.1251 -0.7097 -0.1664
C51 C 0.0607(6) -0.6069(9) -0.1708(2)
H43 H 0.1120 -0.6753 -0.1525
C52 C 0.1255(7) -0.4906(9) -0.1890(2)
H44 H 0.2223 -0.4800 -0.1841
C53 C 0.0513(7) -0.3869(9) -0.2149(2)
H45 H 0.0971 -0.3048 -0.2271
C54 C -0.0896(6) -0.4039(8) -0.2227(2)
H46 H -0.1405 -0.3327 -0.2402
C55 C -0.3809(6) -0.5484(7) -0.17479(19)
C56 C -0.4931(6) -0.6432(7) -0.1728(2)
H47 H -0.5191 -0.7065 -0.1969
C57 C -0.5678(6) -0.6457(7) -0.1356(2)
H48 H -0.6440 -0.7114 -0.1345
C58 C -0.5322(6) -0.5539(7) -0.10067(19)
C59 C -0.4195(6) -0.4576(7) -0.1029(2)
H49 H -0.3948 -0.3917 -0.0793
C60 C -0.3442(6) -0.4591(7) -0.1397(2)
H50 H -0.2654 -0.3968 -0.1405
C61 C -0.6072(6) -0.5605(7) -0.0608(2)
H51 H -0.6853 -0.6236 -0.0598
C62 C -0.6309(6) -0.4904(7) 0.0121(2)
C63 C -0.6196(6) -0.3647(7) 0.0400(2)
H52 H -0.5694 -0.2799 0.0314
C64 C -0.6785(7) -0.3614(7) 0.0789(2)
H53 H -0.6700 -0.2739 0.0965
C65 C -0.7502(6) -0.4827(8) 0.0933(2)
C66 C -0.7588(6) -0.6114(7) 0.0674(2)
H54 H -0.8052 -0.6973 0.0772
C67 C -0.7003(6) -0.6147(7) 0.0276(2)
H55 H -0.7074 -0.7031 0.0104
C68 C -0.8872(7) -0.5827(8) 0.1486(2)
H56 H -0.9175 -0.5542 0.1772
H57 H -0.8330 -0.6749 0.1514
H58 H -0.9677 -0.5990 0.1282
loop_
_geom_bond_atom_site_label_1
_geom_bond_atom_site_label_2
_geom_bond_site_symmetry_1
_geom_bond_site_symmetry_2
O1 C1 1_555 1_555
O2 C31 1_555 1_555
N1 C5 1_555 1_555
N2 C12 1_555 1_555
N3 C27 1_555 1_555
C1 H1 1_555 1_555
H2 C1 1_555 1_555
H3 C1 1_555 1_555
C2 O1 1_555 1_555
C3 C2 1_555 1_555
H4 C3 1_555 1_555
C4 C3 1_555 1_555
H5 C4 1_555 1_555
C5 C4 1_555 1_555
C6 C5 1_555 1_555
H6 C6 1_555 1_555
C7 C2 1_555 1_555
H7 C7 1_555 1_555
C8 N1 1_555 1_555
H8 C8 1_555 1_555
C9 C8 1_555 1_555
C10 C9 1_555 1_555
H9 C10 1_555 1_555
C11 C10 1_555 1_555
H10 C11 1_555 1_555
C12 C11 1_555 1_555
C13 C12 1_555 1_555
H11 C13 1_555 1_555
C14 C9 1_555 1_555
H12 C14 1_555 1_555
C15 N2 1_555 1_555
C16 C15 1_555 1_555
H13 C16 1_555 1_555
C17 C16 1_555 1_555
H14 C17 1_555 1_555
C18 C17 1_555 1_555
H15 C18 1_555 1_555
C19 C18 1_555 1_555
H16 C19 1_555 1_555
C20 C15 1_555 1_555
H17 C20 1_555 1_555
C21 N2 1_555 1_555
C22 C21 1_555 1_555
H18 C22 1_555 1_555
C23 C22 1_555 1_555
H19 C23 1_555 1_555
C24 C23 1_555 1_555
C25 C24 1_555 1_555
H20 C25 1_555 1_555
C26 C21 1_555 1_555
H21 C26 1_555 1_555
C27 C24 1_555 1_555
H22 C27 1_555 1_555
C28 N3 1_555 1_555
C29 C28 1_555 1_555
H23 C29 1_555 1_555
C30 C29 1_555 1_555
H24 C30 1_555 1_555
C31 C30 1_555 1_555
C32 C31 1_555 1_555
H25 C32 1_555 1_555
C33 C28 1_555 1_555
H26 C33 1_555 1_555
C34 O2 1_555 1_555
H27 C34 1_555 1_555
H28 C34 1_555 1_555
H29 C34 1_555 1_555
O3 C35 1_555 1_555
O4 C65 1_555 1_555
N4 C39 1_555 1_555
N5 C46 1_555 1_555
N6 C61 1_555 1_555
C35 H30 1_555 1_555
H31 C35 1_555 1_555
H32 C35 1_555 1_555
C36 O3 1_555 1_555
C37 C36 1_555 1_555
H33 C37 1_555 1_555
C38 C37 1_555 1_555
H34 C38 1_555 1_555
C39 C38 1_555 1_555
C40 C39 1_555 1_555
H35 C40 1_555 1_555
C41 C36 1_555 1_555
H36 C41 1_555 1_555
C42 N4 1_555 1_555
H37 C42 1_555 1_555
C43 C42 1_555 1_555
C44 C43 1_555 1_555
H38 C44 1_555 1_555
C45 C44 1_555 1_555
H39 C45 1_555 1_555
C46 C45 1_555 1_555
C47 C46 1_555 1_555
H40 C47 1_555 1_555
C48 C43 1_555 1_555
H41 C48 1_555 1_555
C49 N5 1_555 1_555
C50 C49 1_555 1_555
H42 C50 1_555 1_555
C51 C50 1_555 1_555
H43 C51 1_555 1_555
C52 C51 1_555 1_555
H44 C52 1_555 1_555
C53 C52 1_555 1_555
H45 C53 1_555 1_555
C54 C49 1_555 1_555
H46 C54 1_555 1_555
C55 N5 1_555 1_555
C56 C55 1_555 1_555
H47 C56 1_555 1_555
C57 C56 1_555 1_555
H48 C57 1_555 1_555
C58 C57 1_555 1_555
C59 C58 1_555 1_555
H49 C59 1_555 1_555
C60 C55 1_555 1_555
H50 C60 1_555 1_555
C61 C58 1_555 1_555
H51 C61 1_555 1_555
C62 N6 1_555 1_555
C63 C62 1_555 1_555
H52 C63 1_555 1_555
C64 C63 1_555 1_555
H53 C64 1_555 1_555
C65 C64 1_555 1_555
C66 C65 1_555 1_555
H54 C66 1_555 1_555
C67 C62 1_555 1_555
H55 C67 1_555 1_555
C68 O4 1_555 1_555
H56 C68 1_555 1_555
H57 C68 1_555 1_555
H58 C68 1_555 1_555
C6 C7 1_555 1_555
C13 C14 1_555 1_555
C19 C20 1_555 1_555
C25 C26 1_555 1_555
C32 C33 1_555 1_555
C40 C41 1_555 1_555
C47 C48 1_555 1_555
C53 C54 1_555 1_555
C59 C60 1_555 1_555
C66 C67 1_555 1_555

#END
