
#######################################################################
#
#                 Cambridge Crystallographic Data Centre
#                                CCDC 
#
#######################################################################
#
# If this CIF has been generated from an entry in the Cambridge 
# Structural Database, then it will include bibliographic, chemical, 
# crystal, experimental, refinement or atomic coordinate data resulting 
# from the CCDC's data processing and validation procedures.
#
#######################################################################

data_REHYEJ
_chemical_formula_moiety         'C28 H20'
_chemical_name_systematic        
1,1-Dimethyl-1,2,3,12-tetrahydrobenzo(qr)cyclopenta(mno)indeno(1,2,3,4-defg)chrysene
_symmetry_cell_setting           triclinic
_symmetry_space_group_name_H-M   'P -1'
_symmetry_Int_Tables_number      2
_space_group_name_Hall           '-P 1'
loop_
_symmetry_equiv_pos_site_id
_symmetry_equiv_pos_as_xyz
1 x,y,z
2 -x,-y,-z
_cell_length_a                   7.9584(6)
_cell_length_b                   11.0098(9)
_cell_length_c                   11.1684(9)
_cell_angle_alpha                69.0020(10)
_cell_angle_beta                 83.1870(10)
_cell_angle_gamma                84.3710(10)
_cell_volume                     905.512
_cell_formula_units_Z            2
_exptl_crystal_recrystallization_method dichloromethane/ethanol
loop_
_atom_site_label
_atom_site_type_symbol
_atom_site_fract_x
_atom_site_fract_y
_atom_site_fract_z
C1 C 0.5303(2) 0.82721(16) 0.83913(15)
C2 C 0.48834(19) 0.82170(14) 0.71132(14)
C3 C 0.59573(18) 0.85236(13) 0.59782(14)
C4 C 0.78101(18) 0.89202(15) 0.55161(15)
H1 H 0.7898 0.9841 0.5346
H2 H 0.8577 0.8420 0.6155
C5 C 0.82093(18) 0.86056(14) 0.42670(14)
C6 C 0.9658(2) 0.85460(17) 0.34719(17)
H3 H 1.0671 0.8831 0.3583
C7 C 0.9566(2) 0.80451(18) 0.24923(17)
H4 H 1.0526 0.8055 0.1927
C8 C 0.8120(2) 0.75338(16) 0.23152(15)
H5 H 0.8149 0.7184 0.1668
C9 C 0.66156(18) 0.75453(14) 0.31147(13)
C10 C 0.50580(18) 0.68250(14) 0.32791(13)
C11 C 0.4777(2) 0.58569(15) 0.27815(14)
H6 H 0.5501 0.5746 0.2106
C12 C 0.3422(2) 0.50722(16) 0.32990(15)
H7 H 0.3248 0.4468 0.2927
C13 C 0.22880(19) 0.51291(15) 0.43536(15)
H8 H 0.1437 0.4546 0.4696
C14 C 0.24792(17) 0.60777(14) 0.48623(14)
C15 C 0.18793(17) 0.63279(15) 0.60970(14)
C16 C 0.08985(19) 0.57608(17) 0.72332(16)
H9 H 0.0146 0.5139 0.7303
C17 C 0.1066(2) 0.61483(18) 0.82887(16)
H10 H 0.0326 0.5813 0.9022
C18 C 0.2243(2) 0.69895(17) 0.83247(15)
C19 C 0.2475(3) 0.7266(2) 0.95139(18)
H11 H 0.2959 0.6488 1.0140
H12 H 0.1379 0.7487 0.9889
C20 C 0.3628(2) 0.8379(2) 0.92241(18)
H13 H 0.3905 0.8415 1.0033
H14 H 0.3010 0.9191 0.8782
C21 C 0.67450(18) 0.81769(14) 0.39998(13)
C22 C 0.38057(17) 0.69235(14) 0.42387(13)
C23 C 0.33124(18) 0.75749(14) 0.71838(14)
C24 C 0.54409(18) 0.82272(13) 0.49494(13)
C25 C 0.29246(17) 0.72929(14) 0.61288(14)
C26 C 0.39923(17) 0.76714(14) 0.50054(13)
C27 C 0.6331(3) 0.69988(19) 0.90805(17)
H15 H 0.5666 0.6268 0.9231
H16 H 0.6616 0.7008 0.9889
H17 H 0.7352 0.6928 0.8551
C28 C 0.6344(3) 0.94252(19) 0.82136(18)
H18 H 0.7421 0.9334 0.7757
H19 H 0.6516 0.9448 0.9041
H20 H 0.5748 1.0220 0.7730
loop_
_geom_bond_atom_site_label_1
_geom_bond_atom_site_label_2
_geom_bond_site_symmetry_1
_geom_bond_site_symmetry_2
C1 C2 1_555 1_555
C2 C3 1_555 1_555
C3 C4 1_555 1_555
C4 H1 1_555 1_555
H2 C4 1_555 1_555
C5 C4 1_555 1_555
C6 C5 1_555 1_555
H3 C6 1_555 1_555
C7 C6 1_555 1_555
H4 C7 1_555 1_555
C8 C7 1_555 1_555
H5 C8 1_555 1_555
C9 C8 1_555 1_555
C10 C9 1_555 1_555
C11 C10 1_555 1_555
H6 C11 1_555 1_555
C12 C11 1_555 1_555
H7 C12 1_555 1_555
C13 C12 1_555 1_555
H8 C13 1_555 1_555
C14 C13 1_555 1_555
C15 C14 1_555 1_555
C16 C15 1_555 1_555
H9 C16 1_555 1_555
C17 C16 1_555 1_555
H10 C17 1_555 1_555
C18 C17 1_555 1_555
C19 C18 1_555 1_555
H11 C19 1_555 1_555
H12 C19 1_555 1_555
C20 C1 1_555 1_555
H13 C20 1_555 1_555
H14 C20 1_555 1_555
C21 C5 1_555 1_555
C22 C10 1_555 1_555
C23 C2 1_555 1_555
C24 C3 1_555 1_555
C25 C15 1_555 1_555
C26 C22 1_555 1_555
C27 C1 1_555 1_555
H15 C27 1_555 1_555
H16 C27 1_555 1_555
H17 C27 1_555 1_555
C28 C1 1_555 1_555
H18 C28 1_555 1_555
H19 C28 1_555 1_555
H20 C28 1_555 1_555
C9 C21 1_555 1_555
C14 C22 1_555 1_555
C18 C23 1_555 1_555
C19 C20 1_555 1_555
C21 C24 1_555 1_555
C23 C25 1_555 1_555
C24 C26 1_555 1_555
C25 C26 1_555 1_555

#END
