
#######################################################################
#
#                 Cambridge Crystallographic Data Centre
#                                CCDC 
#
#######################################################################
#
# If this CIF has been generated from an entry in the Cambridge 
# Structural Database, then it will include bibliographic, chemical, 
# crystal, experimental, refinement or atomic coordinate data resulting 
# from the CCDC's data processing and validation procedures.
#
#######################################################################

data_REJGUJ
_chemical_formula_moiety         'C10 H9 N3'
_chemical_name_systematic        2,3'-Dipyridylamine
_symmetry_cell_setting           orthorhombic
_symmetry_space_group_name_H-M   'P b c a'
_symmetry_Int_Tables_number      61
_space_group_name_Hall           '-P 2ac 2ab'
loop_
_symmetry_equiv_pos_site_id
_symmetry_equiv_pos_as_xyz
1 x,y,z
2 1/2-x,-y,1/2+z
3 -x,1/2+y,1/2-z
4 1/2+x,1/2-y,-z
5 -x,-y,-z
6 1/2+x,y,1/2-z
7 x,1/2-y,1/2+z
8 1/2-x,1/2+y,z
_cell_length_a                   9.2018(3)
_cell_length_b                   11.9210(5)
_cell_length_c                   15.6331(6)
_cell_angle_alpha                90
_cell_angle_beta                 90
_cell_angle_gamma                90
_cell_volume                     1714.87
_exptl_crystal_colour            colorless
_cell_formula_units_Z            8
loop_
_atom_site_label
_atom_site_type_symbol
_atom_site_fract_x
_atom_site_fract_y
_atom_site_fract_z
C1 C 0.83639(16) 0.48920(12) 0.10196(10)
C2 C 0.69030(19) 0.48853(14) 0.07898(12)
H1 H 0.6548 0.4349 0.0412
C3 C 0.59951(19) 0.56794(15) 0.11283(13)
H2 H 0.5013 0.5681 0.0987
C4 C 0.65409(19) 0.64713(15) 0.16764(11)
H3 H 0.5946 0.7020 0.1913
C5 C 0.79824(19) 0.64268(15) 0.18622(12)
H4 H 0.8354 0.6966 0.2232
C6 C 1.13072(18) 0.29099(13) 0.04309(10)
H5 H 1.0762 0.2588 -0.0006
C7 C 1.06760(16) 0.37911(12) 0.08860(10)
C8 C 1.15262(18) 0.42820(14) 0.15202(10)
H6 H 1.1177 0.4884 0.1838
C9 C 1.28979(19) 0.38557(17) 0.16667(11)
H7 H 1.3483 0.4172 0.2088
C10 C 1.33997(19) 0.29718(15) 0.11960(10)
H8 H 1.4320 0.2690 0.1314
N1 N 0.89138(15) 0.56553(11) 0.15477(9)
N2 N 0.92546(13) 0.40762(11) 0.06780(9)
H9 H 0.8872 0.3684 0.0275
N3 N 1.26204(15) 0.24945(12) 0.05707(9)
loop_
_geom_bond_atom_site_label_1
_geom_bond_atom_site_label_2
_geom_bond_site_symmetry_1
_geom_bond_site_symmetry_2
C1 C2 1_555 1_555
C2 H1 1_555 1_555
C3 C2 1_555 1_555
H2 C3 1_555 1_555
C4 C3 1_555 1_555
H3 C4 1_555 1_555
C5 C4 1_555 1_555
H4 C5 1_555 1_555
C6 H5 1_555 1_555
C7 C6 1_555 1_555
C8 C7 1_555 1_555
H6 C8 1_555 1_555
C9 C8 1_555 1_555
H7 C9 1_555 1_555
C10 C9 1_555 1_555
H8 C10 1_555 1_555
N1 C1 1_555 1_555
N2 C1 1_555 1_555
H9 N2 1_555 1_555
N3 C6 1_555 1_555
C5 N1 1_555 1_555
C7 N2 1_555 1_555
C10 N3 1_555 1_555

#END
