
#######################################################################
#
#                 Cambridge Crystallographic Data Centre
#                                CCDC 
#
#######################################################################
#
# If this CIF has been generated from an entry in the Cambridge 
# Structural Database, then it will include bibliographic, chemical, 
# crystal, experimental, refinement or atomic coordinate data resulting 
# from the CCDC's data processing and validation procedures.
#
#######################################################################

data_REJJIC
_chemical_formula_moiety         'C10 H12 N3 1+,C6 H5 O3 S1 1-,2(H2 O1)'
_chemical_name_systematic        
'2-amino-5,7-dimethyl-1,8-naphthyridin-8-ium benzenesulfonate dihydrate'
_symmetry_cell_setting           triclinic
_symmetry_space_group_name_H-M   'P -1'
_symmetry_Int_Tables_number      2
_space_group_name_Hall           '-P 1'
loop_
_symmetry_equiv_pos_site_id
_symmetry_equiv_pos_as_xyz
1 x,y,z
2 -x,-y,-z
_cell_length_a                   12.2524(11)
_cell_length_b                   13.3258(12)
_cell_length_c                   13.7039(13)
_cell_angle_alpha                113.951(2)
_cell_angle_beta                 101.1880(10)
_cell_angle_gamma                110.074(2)
_cell_volume                     1769.83
_exptl_crystal_colour            colorless
_exptl_crystal_description       block
_cell_formula_units_Z            4
loop_
_atom_site_label
_atom_site_type_symbol
_atom_site_fract_x
_atom_site_fract_y
_atom_site_fract_z
N1 N 0.0399(2) 0.7077(2) 0.1382(2)
N2 N 0.0361(2) 0.5986(2) 0.2313(2)
H1 H -0.0128 0.6248 0.2578
N3 N 0.0412(3) 0.8150(3) 0.0436(3)
H2 H -0.0095 0.8360 0.0719
H3 H 0.0660 0.8400 -0.0008
C1 C 0.0815(3) 0.7438(3) 0.0687(3)
C2 C 0.1651(3) 0.7093(3) 0.0225(3)
H4 H 0.1938 0.7378 -0.0239
C3 C 0.2031(3) 0.6351(3) 0.0460(3)
H5 H 0.2576 0.6118 0.0152
C4 C 0.1603(3) 0.5926(3) 0.1175(3)
C5 C 0.0791(3) 0.6342(3) 0.1597(3)
C6 C 0.0658(3) 0.5256(3) 0.2620(3)
C7 C 0.1437(3) 0.4826(3) 0.2194(3)
H6 H 0.1640 0.4307 0.2398
C8 C 0.1922(3) 0.5141(3) 0.1477(3)
C9 C 0.0140(4) 0.4961(4) 0.3425(3)
H7 H -0.0546 0.5151 0.3443
H8 H 0.0790 0.5450 0.4189
H9 H -0.0157 0.4093 0.3160
C10 C 0.2771(4) 0.4668(4) 0.1024(4)
H10 H 0.2328 0.4060 0.0212
H11 H 0.3026 0.4295 0.1431
H12 H 0.3503 0.5348 0.1139
N4 N 0.3436(2) 0.7848(2) 0.4354(2)
N5 N 0.2417(2) 0.8971(2) 0.4235(2)
H13 H 0.1994 0.8676 0.4574
N6 N 0.4442(3) 0.6699(3) 0.4433(3)
H14 H 0.3986 0.6432 0.4765
H15 H 0.4990 0.6455 0.4298
C11 C 0.4300(3) 0.7492(3) 0.4127(3)
C12 C 0.5062(3) 0.7917(3) 0.3570(3)
H16 H 0.5657 0.7653 0.3434
C13 C 0.4911(3) 0.8703(3) 0.3245(3)
H17 H 0.5410 0.8990 0.2889
C14 C 0.3995(3) 0.9096(3) 0.3442(3)
C15 C 0.3307(3) 0.8618(3) 0.4006(3)
C16 C 0.2164(3) 0.9756(3) 0.3959(3)
C17 C 0.2837(3) 1.0211(3) 0.3406(3)
H18 H 0.2677 1.0755 0.3213
C18 C 0.3740(3) 0.9894(3) 0.3128(3)
C19 C 0.1179(3) 1.0054(4) 0.4271(4)
H19 H 0.0476 0.9310 0.4094
H20 H 0.0904 1.0396 0.3837
H21 H 0.1518 1.0651 0.5085
C20 C 0.4439(4) 1.0403(4) 0.2512(4)
H22 H 0.4125 1.0909 0.2346
H23 H 0.4316 0.9728 0.1800
H24 H 0.5322 1.0899 0.2995
O1 O 0.7012(3) 0.4716(2) 0.4626(3)
O2 O 0.8577(2) 0.6513(3) 0.4793(2)
O3 O 0.6424(3) 0.6030(3) 0.4131(2)
S1 S 0.73835(8) 0.59634(9) 0.48469(8)
C21 C 0.7555(3) 0.6868(3) 0.6295(3)
C22 C 0.6520(3) 0.6566(4) 0.6587(3)
H25 H 0.5745 0.5892 0.6035
C23 C 0.6648(4) 0.7276(4) 0.7707(4)
H26 H 0.5954 0.7078 0.7908
C24 C 0.7794(4) 0.8275(4) 0.8534(4)
H27 H 0.7872 0.8749 0.9288
C25 C 0.8819(4) 0.8565(4) 0.8236(4)
H28 H 0.9592 0.9241 0.8790
C26 C 0.8710(3) 0.7858(3) 0.7114(3)
H29 H 0.9408 0.8050 0.6917
O4 O 0.7489(7) 0.8119(14) 0.2402(11)
O5 O 0.8447(9) 0.864(2) 0.1217(9)
O6 O 0.7756(17) 0.9939(8) 0.2356(10)
S2 S 0.75649(9) 0.86856(9) 0.17406(8)
C27 C 0.6089(3) 0.7884(3) 0.0575(3)
C28 C 0.5424(4) 0.6599(4) 0.0002(4)
H30 H 0.5732 0.6163 0.0257
C29 C 0.4309(4) 0.5966(4) -0.0943(4)
H31 H 0.3862 0.5102 -0.1323
C30 C 0.3856(4) 0.6599(5) -0.1326(4)
H32 H 0.3115 0.6166 -0.1980
C31 C 0.4489(4) 0.7865(5) -0.0751(4)
H33 H 0.4165 0.8294 -0.1003
C32 C 0.5615(4) 0.8521(4) 0.0207(4)
H34 H 0.6044 0.9386 0.0597
O10 O 0.8838(2) 0.1829(2) 0.4518(2)
H35 H 0.9605 0.2299 0.4687
H36 H 0.8527 0.1236 0.3820
O11 O 0.7526(3) 0.2706(3) 0.3269(3)
H37 H 0.7408 0.3289 0.3714
H38 H 0.7907 0.2496 0.3676
O12 O 0.8661(3) 0.6738(3) 0.2859(3)
H39 H 0.8610 0.6694 0.3452
H40 H 0.8302 0.7154 0.2761
O13 O 0.8281(3) 0.1536(3) 0.1372(3)
H41 H 0.8103 0.2030 0.1857
H42 H 0.8184 0.0944 0.1500
O7? O 0.8461(9) 0.9381(17) 0.1467(13)
O8? O 0.7439(7) 0.9423(16) 0.2735(9)
O9? O 0.7811(17) 0.7717(9) 0.1768(18)
loop_
_geom_bond_atom_site_label_1
_geom_bond_atom_site_label_2
_geom_bond_site_symmetry_1
_geom_bond_site_symmetry_2
N1 C1 1_555 1_555
N2 H1 1_555 1_555
N3 H2 1_555 1_555
H3 N3 1_555 1_555
C1 N3 1_555 1_555
C2 C1 1_555 1_555
H4 C2 1_555 1_555
C3 C2 1_555 1_555
H5 C3 1_555 1_555
C4 C3 1_555 1_555
C5 N1 1_555 1_555
C6 N2 1_555 1_555
C7 C6 1_555 1_555
H6 C7 1_555 1_555
C8 C4 1_555 1_555
C9 C6 1_555 1_555
H7 C9 1_555 1_555
H8 C9 1_555 1_555
H9 C9 1_555 1_555
C10 C8 1_555 1_555
H10 C10 1_555 1_555
H11 C10 1_555 1_555
H12 C10 1_555 1_555
N4 C11 1_555 1_555
N5 H13 1_555 1_555
N6 H14 1_555 1_555
H15 N6 1_555 1_555
C11 N6 1_555 1_555
C12 C11 1_555 1_555
H16 C12 1_555 1_555
C13 C12 1_555 1_555
H17 C13 1_555 1_555
C14 C13 1_555 1_555
C15 N4 1_555 1_555
C16 N5 1_555 1_555
C17 C16 1_555 1_555
H18 C17 1_555 1_555
C18 C14 1_555 1_555
C19 C16 1_555 1_555
H19 C19 1_555 1_555
H20 C19 1_555 1_555
H21 C19 1_555 1_555
C20 C18 1_555 1_555
H22 C20 1_555 1_555
H23 C20 1_555 1_555
H24 C20 1_555 1_555
O1 S1 1_555 1_555
O2 S1 1_555 1_555
O3 S1 1_555 1_555
S1 C21 1_555 1_555
C21 C22 1_555 1_555
C22 H25 1_555 1_555
C23 C22 1_555 1_555
H26 C23 1_555 1_555
C24 C23 1_555 1_555
H27 C24 1_555 1_555
C25 C24 1_555 1_555
H28 C25 1_555 1_555
C26 C21 1_555 1_555
H29 C26 1_555 1_555
O4 S2 1_555 1_555
O5 S2 1_555 1_555
O6 S2 1_555 1_555
S2 C27 1_555 1_555
C27 C28 1_555 1_555
C28 H30 1_555 1_555
C29 C28 1_555 1_555
H31 C29 1_555 1_555
C30 C29 1_555 1_555
H32 C30 1_555 1_555
C31 C30 1_555 1_555
H33 C31 1_555 1_555
C32 C27 1_555 1_555
H34 C32 1_555 1_555
O10 H35 1_555 1_555
H36 O10 1_555 1_555
O11 H37 1_555 1_555
H38 O11 1_555 1_555
O12 H39 1_555 1_555
H40 O12 1_555 1_555
O13 H41 1_555 1_555
H42 O13 1_555 1_555
N2 C5 1_555 1_555
C4 C5 1_555 1_555
C7 C8 1_555 1_555
N5 C15 1_555 1_555
C14 C15 1_555 1_555
C17 C18 1_555 1_555
C25 C26 1_555 1_555
C31 C32 1_555 1_555

#END
