
#######################################################################
#
#                 Cambridge Crystallographic Data Centre
#                                CCDC 
#
#######################################################################
#
# If this CIF has been generated from an entry in the Cambridge 
# Structural Database, then it will include bibliographic, chemical, 
# crystal, experimental, refinement or atomic coordinate data resulting 
# from the CCDC's data processing and validation procedures.
#
#######################################################################

data_REJJOI
_chemical_formula_moiety         'C10 H12 N3 1+,C7 H7 O3 S1 1-,H2 O1'
_chemical_name_systematic        
'2-amino-5,7-dimethyl-1,8-naphthyridin-8-ium p-toluenesulfonate monohydrate'
_symmetry_cell_setting           monoclinic
_symmetry_space_group_name_H-M   'P 21/n'
_symmetry_Int_Tables_number      14
_space_group_name_Hall           '-P 2yn'
loop_
_symmetry_equiv_pos_site_id
_symmetry_equiv_pos_as_xyz
1 x,y,z
2 1/2-x,1/2+y,1/2-z
3 -x,-y,-z
4 1/2+x,1/2-y,1/2+z
_cell_length_a                   7.7372(7)
_cell_length_b                   7.3970(8)
_cell_length_c                   30.084(3)
_cell_angle_alpha                90
_cell_angle_beta                 91.3060(10)
_cell_angle_gamma                90
_cell_volume                     1721.32
_exptl_crystal_colour            colorless
_exptl_crystal_description       block
_cell_formula_units_Z            4
loop_
_atom_site_label
_atom_site_type_symbol
_atom_site_fract_x
_atom_site_fract_y
_atom_site_fract_z
N1 N 0.7728(2) 0.1234(3) 0.01328(6)
N2 N 0.6333(2) 0.1701(3) 0.07903(6)
H1 H 0.7254 0.1298 0.0922
N3 N 0.9100(3) 0.0840(3) -0.05285(7)
H2 H 0.9960 0.0362 -0.0385
H3 H 0.9126 0.0945 -0.0813
C1 C 0.7734(3) 0.1414(3) -0.03103(8)
C2 C 0.6313(3) 0.2175(4) -0.05567(8)
H4 H 0.6373 0.2307 -0.0863
C3 C 0.4889(3) 0.2698(4) -0.03448(9)
H5 H 0.3949 0.3162 -0.0506
C4 C 0.4817(3) 0.2544(3) 0.01246(8)
C5 C 0.6307(3) 0.1816(3) 0.03370(8)
C6 C 0.4992(3) 0.2186(4) 0.10424(8)
C7 C 0.3526(3) 0.2853(4) 0.08361(9)
H6 H 0.2592 0.3179 0.1008
C8 C 0.3403(3) 0.3052(4) 0.03809(9)
C9 C 0.5155(4) 0.1937(4) 0.15334(9)
H7 H 0.4962 0.0690 0.1606
H8 H 0.4315 0.2675 0.1677
H9 H 0.6295 0.2285 0.1633
C10 C 0.1780(3) 0.3791(4) 0.01693(10)
H10 H 0.0963 0.4059 0.0396
H11 H 0.1294 0.2911 -0.0032
H12 H 0.2043 0.4875 0.0009
O1 O 1.0610(2) 0.4395(3) 0.15676(6)
O2 O 0.8849(3) 0.5732(3) 0.09817(6)
O3 O 1.0508(2) 0.7624(3) 0.14847(6)
S1 S 0.95719(9) 0.59240(10) 0.14225(2)
C11 C 0.7790(3) 0.5999(4) 0.17817(8)
C12 C 0.6263(3) 0.6792(4) 0.16359(9)
H13 H 0.6199 0.7332 0.1357
C13 C 0.4836(4) 0.6790(4) 0.19009(9)
H14 H 0.3816 0.7326 0.1797
C14 C 0.4891(3) 0.6005(4) 0.23179(9)
C15 C 0.6432(4) 0.5237(4) 0.24627(9)
H15 H 0.6504 0.4714 0.2744
C16 C 0.7869(3) 0.5234(4) 0.21975(9)
H16 H 0.8893 0.4710 0.2301
C17 C 0.3313(4) 0.5986(5) 0.26027(10)
H17 H 0.3328 0.7028 0.2793
H18 H 0.3315 0.4909 0.2781
H19 H 0.2291 0.6011 0.2416
O4 O 0.9181(2) 0.1040(3) 0.13124(6)
H20 H 0.9747 0.1949 0.1409
H21 H 0.9724 0.0084 0.1387
loop_
_geom_bond_atom_site_label_1
_geom_bond_atom_site_label_2
_geom_bond_site_symmetry_1
_geom_bond_site_symmetry_2
N1 C1 1_555 1_555
N2 H1 1_555 1_555
N3 H2 1_555 1_555
H3 N3 1_555 1_555
C1 N3 1_555 1_555
C2 C1 1_555 1_555
H4 C2 1_555 1_555
C3 C2 1_555 1_555
H5 C3 1_555 1_555
C4 C3 1_555 1_555
C5 N1 1_555 1_555
C6 N2 1_555 1_555
C7 C6 1_555 1_555
H6 C7 1_555 1_555
C8 C4 1_555 1_555
C9 C6 1_555 1_555
H7 C9 1_555 1_555
H8 C9 1_555 1_555
H9 C9 1_555 1_555
C10 C8 1_555 1_555
H10 C10 1_555 1_555
H11 C10 1_555 1_555
H12 C10 1_555 1_555
O1 S1 1_555 1_555
O2 S1 1_555 1_555
O3 S1 1_555 1_555
S1 C11 1_555 1_555
C11 C12 1_555 1_555
C12 H13 1_555 1_555
C13 C12 1_555 1_555
H14 C13 1_555 1_555
C14 C13 1_555 1_555
C15 C14 1_555 1_555
H15 C15 1_555 1_555
C16 C11 1_555 1_555
H16 C16 1_555 1_555
C17 C14 1_555 1_555
H17 C17 1_555 1_555
H18 C17 1_555 1_555
H19 C17 1_555 1_555
O4 H20 1_555 1_555
H21 O4 1_555 1_555
N2 C5 1_555 1_555
C4 C5 1_555 1_555
C7 C8 1_555 1_555
C15 C16 1_555 1_555

#END
