
#######################################################################
#
#                 Cambridge Crystallographic Data Centre
#                                CCDC 
#
#######################################################################
#
# If this CIF has been generated from an entry in the Cambridge 
# Structural Database, then it will include bibliographic, chemical, 
# crystal, experimental, refinement or atomic coordinate data resulting 
# from the CCDC's data processing and validation procedures.
#
#######################################################################

data_REJKID
_chemical_formula_moiety         'C23 H15 O6 1-,C10 H12 N3 1+,C3 H7 N1 O1'
_chemical_name_systematic        
'2-amino-5,7-dimethyl-1,8-naphthyridin-8-ium 4-((3-carboxy-2-hydroxy-1-naphthyl)methyl)-3-hydroxy-2-naphthoate dimethylformamide solvate'
_symmetry_cell_setting           triclinic
_symmetry_space_group_name_H-M   'P -1'
_symmetry_Int_Tables_number      2
_space_group_name_Hall           '-P 1'
loop_
_symmetry_equiv_pos_site_id
_symmetry_equiv_pos_as_xyz
1 x,y,z
2 -x,-y,-z
_cell_length_a                   9.3860(8)
_cell_length_b                   13.7064(11)
_cell_length_c                   13.8003(12)
_cell_angle_alpha                72.8550(10)
_cell_angle_beta                 72.8950(10)
_cell_angle_gamma                76.177(2)
_cell_volume                     1598.77
_exptl_crystal_colour            colorless
_exptl_crystal_description       block
_cell_formula_units_Z            2
loop_
_atom_site_label
_atom_site_type_symbol
_atom_site_fract_x
_atom_site_fract_y
_atom_site_fract_z
N1 N 0.1797(3) 0.3556(2) 0.5250(2)
N2 N 0.0568(3) 0.2597(2) 0.4750(2)
H1 H 0.0698 0.2126 0.5303
N3 N 0.2965(3) 0.4543(2) 0.5753(2)
H2 H 0.3037 0.4056 0.6305
H3 H 0.3310 0.5103 0.5647
C1 C 0.2315(4) 0.4430(3) 0.5058(3)
C2 C 0.2190(4) 0.5247(3) 0.4157(3)
H4 H 0.2561 0.5851 0.4053
C3 C 0.1535(4) 0.5148(3) 0.3456(3)
H5 H 0.1472 0.5678 0.2858
C4 C 0.0940(4) 0.4241(2) 0.3623(3)
C5 C 0.1117(4) 0.3486(3) 0.4538(3)
C6 C -0.0168(4) 0.2415(3) 0.4138(3)
C7 C -0.0363(4) 0.3151(3) 0.3243(3)
H6 H -0.0879 0.3028 0.2822
C8 C 0.0186(4) 0.4064(3) 0.2956(3)
C9 C -0.0755(5) 0.1425(3) 0.4511(3)
H7 H -0.0024 0.0885 0.4801
H8 H -0.0940 0.1256 0.3936
H9 H -0.1681 0.1491 0.5038
C10 C -0.0080(5) 0.4865(3) 0.1980(3)
H10 H 0.0864 0.4918 0.1468
H11 H -0.0507 0.5523 0.2145
H12 H -0.0765 0.4663 0.1707
N4 N 0.7671(4) 0.9684(3) 0.2308(3)
O1 O 0.8835(4) 0.9019(2) 0.3635(2)
C11 C 0.7963(5) 0.8987(3) 0.3144(3)
H13 H 0.7462 0.8420 0.3381
C12 C 0.6697(5) 0.9586(4) 0.1730(4)
H14 H 0.6319 0.8944 0.2043
H15 H 0.7252 0.9597 0.1022
H16 H 0.5866 1.0152 0.1736
C13 C 0.8371(7) 1.0581(4) 0.1917(4)
H17 H 0.8675 1.0710 0.2468
H18 H 0.7668 1.1165 0.1658
H19 H 0.9243 1.0473 0.1360
O2 O 0.5275(3) 0.21051(18) 0.54446(17)
H20 H 0.5589 0.2288 0.5847
O3 O 0.6028(3) 0.3553(2) 0.43507(17)
O4 O 0.5579(3) 0.41083(17) 0.25157(16)
H21 H 0.5833 0.4133 0.3027
O5 O 0.6193(3) 0.24422(19) -0.32142(18)
O6 O 0.3903(3) 0.3113(2) -0.24097(18)
O7 O 0.3552(3) 0.36595(17) -0.07236(16)
H22 H 0.3336 0.3572 -0.1223
C14 C 0.5470(4) 0.2766(3) 0.4546(2)
C15 C 0.4391(3) 0.1633(2) 0.3940(2)
H23 H 0.4378 0.1164 0.4585
C16 C 0.4947(3) 0.2519(2) 0.3741(2)
C17 C 0.5016(3) 0.3222(2) 0.2730(2)
C18 C 0.4515(3) 0.3029(2) 0.1976(2)
C19 C 0.3872(3) 0.2124(2) 0.2218(2)
C20 C 0.3832(3) 0.1400(2) 0.3209(2)
C21 C 0.3218(4) 0.0497(3) 0.3432(3)
H24 H 0.3220 0.0023 0.4072
C22 C 0.2620(4) 0.0295(3) 0.2740(3)
H25 H 0.2223 -0.0309 0.2902
C23 C 0.2613(4) 0.1017(3) 0.1776(3)
H26 H 0.2186 0.0894 0.1304
C24 C 0.3220(4) 0.1891(3) 0.1523(2)
H27 H 0.3208 0.2350 0.0876
C25 C 0.5275(5) 0.2803(3) -0.2466(2)
C26 C 0.7451(4) 0.2510(2) -0.1671(2)
H28 H 0.8029 0.2183 -0.2196
C27 C 0.5959(4) 0.2867(2) -0.1634(2)
C28 C 0.5052(4) 0.3308(2) -0.0779(2)
C29 C 0.5661(4) 0.3379(2) -0.0012(2)
C30 C 0.7241(4) 0.3079(2) -0.0114(2)
C31 C 0.8151(4) 0.2613(2) -0.0952(2)
C32 C 0.9717(4) 0.2314(3) -0.1047(3)
H29 H 1.0298 0.2000 -0.1581
C33 C 1.0403(4) 0.2471(3) -0.0378(3)
H30 H 1.1439 0.2262 -0.0449
C34 C 0.9529(4) 0.2953(3) 0.0419(3)
H31 H 0.9998 0.3072 0.0871
C35 C 0.8012(4) 0.3250(2) 0.0548(2)
H32 H 0.7466 0.3574 0.1083
C36 C 0.4633(4) 0.3800(2) 0.0910(2)
H33 H 0.3627 0.4040 0.0787
H34 H 0.5000 0.4395 0.0933
loop_
_geom_bond_atom_site_label_1
_geom_bond_atom_site_label_2
_geom_bond_site_symmetry_1
_geom_bond_site_symmetry_2
N1 C1 1_555 1_555
N2 H1 1_555 1_555
N3 H2 1_555 1_555
H3 N3 1_555 1_555
C1 N3 1_555 1_555
C2 C1 1_555 1_555
H4 C2 1_555 1_555
C3 C2 1_555 1_555
H5 C3 1_555 1_555
C4 C3 1_555 1_555
C5 N1 1_555 1_555
C6 N2 1_555 1_555
C7 C6 1_555 1_555
H6 C7 1_555 1_555
C8 C4 1_555 1_555
C9 C6 1_555 1_555
H7 C9 1_555 1_555
H8 C9 1_555 1_555
H9 C9 1_555 1_555
C10 C8 1_555 1_555
H10 C10 1_555 1_555
H11 C10 1_555 1_555
H12 C10 1_555 1_555
N4 C11 1_555 1_555
O1 C11 1_555 1_555
C11 H13 1_555 1_555
C12 N4 1_555 1_555
H14 C12 1_555 1_555
H15 C12 1_555 1_555
H16 C12 1_555 1_555
C13 N4 1_555 1_555
H17 C13 1_555 1_555
H18 C13 1_555 1_555
H19 C13 1_555 1_555
O2 H20 1_555 1_555
O3 C14 1_555 1_555
O4 H21 1_555 1_555
O5 C25 1_555 1_555
O6 C25 1_555 1_555
O7 H22 1_555 1_555
C14 O2 1_555 1_555
C15 H23 1_555 1_555
C16 C14 1_555 1_555
C17 O4 1_555 1_555
C18 C17 1_555 1_555
C19 C18 1_555 1_555
C20 C15 1_555 1_555
C21 C20 1_555 1_555
H24 C21 1_555 1_555
C22 C21 1_555 1_555
H25 C22 1_555 1_555
C23 C22 1_555 1_555
H26 C23 1_555 1_555
C24 C19 1_555 1_555
H27 C24 1_555 1_555
C25 C27 1_555 1_555
C26 H28 1_555 1_555
C27 C26 1_555 1_555
C28 O7 1_555 1_555
C29 C28 1_555 1_555
C30 C29 1_555 1_555
C31 C26 1_555 1_555
C32 C31 1_555 1_555
H29 C32 1_555 1_555
C33 C32 1_555 1_555
H30 C33 1_555 1_555
C34 C33 1_555 1_555
H31 C34 1_555 1_555
C35 C30 1_555 1_555
H32 C35 1_555 1_555
C36 C18 1_555 1_555
H33 C36 1_555 1_555
H34 C36 1_555 1_555
N2 C5 1_555 1_555
C4 C5 1_555 1_555
C7 C8 1_555 1_555
C15 C16 1_555 1_555
C16 C17 1_555 1_555
C19 C20 1_555 1_555
C23 C24 1_555 1_555
C27 C28 1_555 1_555
C29 C36 1_555 1_555
C30 C31 1_555 1_555
C34 C35 1_555 1_555

#END
