
#######################################################################
#
#                 Cambridge Crystallographic Data Centre
#                                CCDC 
#
#######################################################################
#
# If this CIF has been generated from an entry in the Cambridge 
# Structural Database, then it will include bibliographic, chemical, 
# crystal, experimental, refinement or atomic coordinate data resulting 
# from the CCDC's data processing and validation procedures.
#
#######################################################################

data_REJKEZ
_chemical_formula_moiety         'C10 H12 N3 1+,C7 H4 N1 O4 1-'
_chemical_name_systematic        
'2-amino-5,7-dimethyl-1,8-naphthyridinium hydrogen isophthalate'
_symmetry_cell_setting           triclinic
_symmetry_space_group_name_H-M   'P -1'
_symmetry_Int_Tables_number      2
_space_group_name_Hall           '-P 1'
loop_
_symmetry_equiv_pos_site_id
_symmetry_equiv_pos_as_xyz
1 x,y,z
2 -x,-y,-z
_cell_length_a                   7.2699(7)
_cell_length_b                   7.9470(6)
_cell_length_c                   14.9593(17)
_cell_angle_alpha                105.110(3)
_cell_angle_beta                 94.2320(10)
_cell_angle_gamma                108.354(4)
_cell_volume                     780.389
_exptl_crystal_colour            colorless
_exptl_crystal_description       block
_cell_formula_units_Z            2
loop_
_atom_site_label
_atom_site_type_symbol
_atom_site_fract_x
_atom_site_fract_y
_atom_site_fract_z
N1 N 0.5057(9) 0.4413(8) 0.2578(4)
H1 H 0.4256 0.3480 0.2138
N2 N 0.5074(10) 0.6077(9) 0.1532(4)
N3 N 0.4779(10) 0.2521(8) 0.3543(4)
H2 H 0.3936 0.1622 0.3102
H3 H 0.5103 0.2353 0.4069
C1 C 0.5556(11) 0.4117(9) 0.3415(5)
C2 C 0.6979(12) 0.5689(11) 0.4111(5)
H4 H 0.7442 0.5546 0.4673
C3 C 0.7654(11) 0.7361(10) 0.3967(5)
H5 H 0.8536 0.8357 0.4443
C4 C 0.7059(12) 0.7654(10) 0.3107(5)
C5 C 0.5745(11) 0.6097(11) 0.2391(5)
C6 C 0.5722(12) 0.7715(13) 0.1375(6)
C7 C 0.6973(12) 0.9402(11) 0.2045(5)
H6 H 0.7318 1.0516 0.1899
C8 C 0.7659(11) 0.9345(10) 0.2917(5)
C9 C 0.5028(12) 0.7772(11) 0.0404(5)
H7 H 0.5041 0.6687 -0.0061
H8 H 0.5888 0.8865 0.0293
H9 H 0.3715 0.7801 0.0367
C10 C 0.9048(12) 1.1081(9) 0.3631(5)
H10 H 0.8486 1.1325 0.4191
H11 H 0.9267 1.2110 0.3380
H12 H 1.0276 1.0918 0.3778
N4 N 0.1933(9) 0.8506(8) 0.2544(4)
O1 O 0.0121(9) 0.8860(7) 0.0366(3)
O2 O 0.2063(9) 1.1082(7) 0.1635(3)
O3 O 0.3752(9) 0.9555(8) 0.4292(3)
H13 H 0.4354 0.9828 0.4825
O4 O 0.2937(9) 0.6632(8) 0.4363(4)
C11 C 0.1075(12) 0.9449(10) 0.1217(5)
C12 C 0.2943(13) 0.7781(12) 0.3962(6)
C13 C 0.0939(11) 0.7920(11) 0.1651(5)
C14 C -0.0155(11) 0.6106(11) 0.1183(5)
H14 H -0.0833 0.5788 0.0577
C15 C -0.0247(13) 0.4762(12) 0.1608(5)
H15 H -0.0971 0.3521 0.1293
C16 C 0.0765(12) 0.5284(11) 0.2526(5)
H16 H 0.0756 0.4407 0.2835
C17 C 0.1794(11) 0.7188(10) 0.2959(5)
loop_
_geom_bond_atom_site_label_1
_geom_bond_atom_site_label_2
_geom_bond_site_symmetry_1
_geom_bond_site_symmetry_2
N1 H1 1_555 1_555
N2 C5 1_555 1_555
N3 H2 1_555 1_555
H3 N3 1_555 1_555
C1 N1 1_555 1_555
C2 C1 1_555 1_555
H4 C2 1_555 1_555
C3 C2 1_555 1_555
H5 C3 1_555 1_555
C4 C3 1_555 1_555
C5 N1 1_555 1_555
C6 N2 1_555 1_555
C7 C6 1_555 1_555
H6 C7 1_555 1_555
C8 C4 1_555 1_555
C9 C6 1_555 1_555
H7 C9 1_555 1_555
H8 C9 1_555 1_555
H9 C9 1_555 1_555
C10 C8 1_555 1_555
H10 C10 1_555 1_555
H11 C10 1_555 1_555
H12 C10 1_555 1_555
N4 C13 1_555 1_555
O1 C11 1_555 1_555
O2 C11 1_555 1_555
O3 H13 1_555 1_555
O4 C12 1_555 1_555
C11 C13 1_555 1_555
C12 O3 1_555 1_555
C13 C14 1_555 1_555
C14 H14 1_555 1_555
C15 C14 1_555 1_555
H15 C15 1_555 1_555
C16 C15 1_555 1_555
H16 C16 1_555 1_555
C17 N4 1_555 1_555
N3 C1 1_555 1_555
C4 C5 1_555 1_555
C7 C8 1_555 1_555
C12 C17 1_555 1_555
C16 C17 1_555 1_555

#END
