
#######################################################################
#
#                 Cambridge Crystallographic Data Centre
#                                CCDC 
#
#######################################################################
#
# If this CIF has been generated from an entry in the Cambridge 
# Structural Database, then it will include bibliographic, chemical, 
# crystal, experimental, refinement or atomic coordinate data resulting 
# from the CCDC's data processing and validation procedures.
#
#######################################################################

data_REJMIF
_chemical_formula_moiety         'C2 N12 O4 2-,2(C1 H8 N5 1+)'
_chemical_name_systematic        
"bis(diaminoguanidinium) 1,1'-dinitramino-5,5'-bitetrazolate"
_symmetry_cell_setting           triclinic
_symmetry_space_group_name_H-M   'P -1'
_symmetry_Int_Tables_number      2
_space_group_name_Hall           '-P 1'
loop_
_symmetry_equiv_pos_site_id
_symmetry_equiv_pos_as_xyz
1 x,y,z
2 -x,-y,-z
_cell_length_a                   6.1787(6)
_cell_length_b                   8.6495(7)
_cell_length_c                   8.9352(8)
_cell_angle_alpha                93.5530(10)
_cell_angle_beta                 98.3410(10)
_cell_angle_gamma                109.957(2)
_cell_volume                     440.895
_exptl_crystal_colour            white
_exptl_crystal_description       block
_cell_formula_units_Z            1
_chemical_properties_physical    
', This compound may be sensitive to impact, friction and other external stimuli.'
_exptl_crystal_recrystallization_method water
_exptl_crystal_preparation       ', energetic properties'
loop_
_atom_site_label
_atom_site_type_symbol
_atom_site_fract_x
_atom_site_fract_y
_atom_site_fract_z
N1 N 0.0825(8) 0.2869(5) 0.1062(5)
H1 H -0.0179 0.3187 0.1440
N2 N 0.1888(9) 0.3652(6) -0.0100(6)
H2 H 0.2671 0.4719 0.0226
H3 H 0.0797 0.3557 -0.0905
N3 N 0.0483(8) 0.0922(6) 0.2749(5)
H4 H -0.0352 0.1333 0.3220
N4 N 0.0919(8) -0.0485(6) 0.3188(5)
H5 H -0.0427 -0.1336 0.3075
H6 H 0.1617 -0.0287 0.4160
N5 N 0.2850(8) 0.1078(5) 0.0941(5)
H7 H 0.3222 0.0276 0.1278
H8 H 0.3424 0.1533 0.0188
C1 C 0.1398(8) 0.1610(6) 0.1578(6)
N6 N 0.4212(19) 0.6903(13) 0.5110(13)
N7 N 0.279(3) 0.724(2) 0.596(2)
N8 N 0.205(14) 0.599(8) 0.672(12)
N9 N 0.307(4) 0.483(2) 0.645(3)
N10 N 0.5452(19) 0.8046(13) 0.4222(13)
N11 N 0.4324(8) 0.7695(5) 0.2726(5)
O1 O 0.259(3) 0.645(3) 0.2347(16)
O2 O 0.5235(18) 0.8687(11) 0.1866(12)
C2 C 0.4292(9) 0.5394(6) 0.5357(6)
N6A N 0.5788(19) 0.3097(13) 0.4890(13)
N7A N 0.721(3) 0.276(2) 0.404(2)
N8A N 0.795(14) 0.401(8) 0.328(12)
N9A N 0.693(4) 0.517(2) 0.355(3)
N10A N 0.4548(19) 0.1954(13) 0.5778(13)
N11A N 0.5676(8) 0.2305(5) 0.7274(5)
O1A O 0.741(3) 0.355(3) 0.7653(16)
O2A O 0.4765(18) 0.1313(11) 0.8134(12)
C2A C 0.5708(9) 0.4606(6) 0.4643(6)
N12? N 0.306(2) 0.6233(13) 0.4537(13)
N13? N 0.192(3) 0.682(2) 0.550(2)
N14? N 0.251(14) 0.633(8) 0.685(11)
N15? N 0.382(4) 0.535(2) 0.670(3)
N16? N 0.260(4) 0.640(3) 0.2971(18)
O3? O 0.593(2) 0.8618(15) 0.3615(16)
O4? O 0.4105(18) 0.7981(13) 0.1311(12)
loop_
_geom_bond_atom_site_label_1
_geom_bond_atom_site_label_2
_geom_bond_site_symmetry_1
_geom_bond_site_symmetry_2
N1 H1 1_555 1_555
N2 N1 1_555 1_555
H2 N2 1_555 1_555
H3 N2 1_555 1_555
N3 H4 1_555 1_555
N4 N3 1_555 1_555
H5 N4 1_555 1_555
H6 N4 1_555 1_555
N5 H7 1_555 1_555
H8 N5 1_555 1_555
C1 N1 1_555 1_555
N6 N7 1_555 1_555
N7 N8 1_555 1_555
N8 N9 1_555 1_555
N9 C2 1_555 1_555
N10 N6 1_555 1_555
N11 N10 1_555 1_555
O1 N11 1_555 1_555
O2 N11 1_555 1_555
C2 N6 1_555 1_555
N6A N7A 1_555 1_555
N7A N8A 1_555 1_555
N8A N9A 1_555 1_555
N9A C2A 1_555 1_555
N10A N6A 1_555 1_555
N11A N10A 1_555 1_555
O1A N11A 1_555 1_555
O2A N11A 1_555 1_555
C2A C2 1_555 1_555
N3 C1 1_555 1_555
N5 C1 1_555 1_555
N6A C2A 1_555 1_555

#END
