
#######################################################################
#
#                 Cambridge Crystallographic Data Centre
#                                CCDC 
#
#######################################################################
#
# If this CIF has been generated from an entry in the Cambridge 
# Structural Database, then it will include bibliographic, chemical, 
# crystal, experimental, refinement or atomic coordinate data resulting 
# from the CCDC's data processing and validation procedures.
#
#######################################################################

data_REJMUR
_chemical_formula_moiety         'C2 N12 O4 2-,2(C1 H7 N4 O1 1+)'
_chemical_name_systematic        
"bis(diaminouronium) 1,1'-dinitramino-5,5'-bitetrazolate"
_symmetry_cell_setting           monoclinic
_symmetry_space_group_name_H-M   'P 21/c'
_symmetry_Int_Tables_number      14
_space_group_name_Hall           '-P 2ybc'
loop_
_symmetry_equiv_pos_site_id
_symmetry_equiv_pos_as_xyz
1 x,y,z
2 -x,1/2+y,1/2-z
3 -x,-y,-z
4 x,1/2-y,1/2+z
_cell_length_a                   13.2023(12)
_cell_length_b                   7.0987(6)
_cell_length_c                   8.8283(7)
_cell_angle_alpha                90
_cell_angle_beta                 96.0070(10)
_cell_angle_gamma                90
_cell_volume                     822.838
_exptl_crystal_colour            white
_exptl_crystal_description       block
_cell_formula_units_Z            2
_chemical_properties_physical    
', This compound may be sensitive to impact, friction and other external stimuli.'
_exptl_crystal_recrystallization_method water
_exptl_crystal_preparation       ', energetic properties'
loop_
_atom_site_label
_atom_site_type_symbol
_atom_site_fract_x
_atom_site_fract_y
_atom_site_fract_z
N1 N 0.9288(2) 0.4809(4) 0.8089(3)
N2 N 0.9668(2) 0.4385(4) 0.6773(4)
N3 N 1.0629(2) 0.4088(4) 0.7119(4)
N4 N 1.0896(2) 0.4307(4) 0.8636(4)
N5 N 0.8274(2) 0.5337(4) 0.8063(4)
N6 N 0.7743(2) 0.3890(4) 0.8574(4)
O1 O 0.6822(2) 0.4221(4) 0.8602(4)
O2 O 0.8145(2) 0.2414(4) 0.9000(4)
C1 C 1.0051(3) 0.4778(4) 0.9214(4)
N1B N 1.0712(2) 0.5191(4) 1.1911(3)
N2B N 1.0332(2) 0.5615(4) 1.3227(4)
N3B N 0.9371(2) 0.5912(4) 1.2881(4)
N4B N 0.9104(2) 0.5693(4) 1.1364(4)
N5B N 1.1726(2) 0.4663(4) 1.1937(4)
N6B N 1.2257(2) 0.6110(4) 1.1426(4)
O1B O 1.3178(2) 0.5779(4) 1.1398(4)
O2B O 1.1855(2) 0.7586(4) 1.1000(4)
C1B C 0.9949(3) 0.5222(4) 1.0786(4)
N7 N 0.65212(19) 0.6458(4) 0.4743(3)
H1 H 0.6352 0.7502 0.5237
N8 N 0.7604(2) 0.6358(4) 0.4794(3)
H2 H 0.7778 0.5320 0.4319
H3 H 0.7876 0.6328 0.5759
H4 H 0.7833 0.7364 0.4334
N9 N 0.5082(2) 0.7045(4) 0.3110(4)
H5 H 0.4751 0.7071 0.2217
N10 N 0.4583(2) 0.7542(5) 0.4376(4)
H6 H 0.4124 0.6664 0.4533
H7 H 0.4272 0.8644 0.4198
O3 O 0.65155(18) 0.6037(4) 0.2180(3)
C2 C 0.6060(3) 0.6532(4) 0.3263(4)
loop_
_geom_bond_atom_site_label_1
_geom_bond_atom_site_label_2
_geom_bond_site_symmetry_1
_geom_bond_site_symmetry_2
N1 N2 1_555 1_555
N2 N3 1_555 1_555
N3 N4 1_555 1_555
N4 C1 1_555 1_555
N5 N1 1_555 1_555
N6 N5 1_555 1_555
O1 N6 1_555 1_555
O2 N6 1_555 1_555
C1 N1 1_555 1_555
N7 H1 1_555 1_555
N8 N7 1_555 1_555
H2 N8 1_555 1_555
H3 N8 1_555 1_555
H4 N8 1_555 1_555
N9 H5 1_555 1_555
N10 N9 1_555 1_555
H6 N10 1_555 1_555
H7 N10 1_555 1_555
O3 C2 1_555 1_555
C2 N7 1_555 1_555
N1B N2B 1_555 1_555
N2B N3B 1_555 1_555
N3B N4B 1_555 1_555
N4B C1B 1_555 1_555
N5B N1B 1_555 1_555
N6B N5B 1_555 1_555
O1B N6B 1_555 1_555
O2B N6B 1_555 1_555
C1B C1 1_555 1_555
N9 C2 1_555 1_555
N1B C1B 1_555 1_555

#END
