
#######################################################################
#
#                 Cambridge Crystallographic Data Centre
#                                CCDC 
#
#######################################################################
#
# If this CIF has been generated from an entry in the Cambridge 
# Structural Database, then it will include bibliographic, chemical, 
# crystal, experimental, refinement or atomic coordinate data resulting 
# from the CCDC's data processing and validation procedures.
#
#######################################################################

data_REJMEB
_chemical_formula_moiety         'C2 N12 O4 2-,2(C1 H7 N4 1+)'
_chemical_name_systematic        
"bis(aminoguanidinium) 1,1'-dinitramino-5,5'-bitetrazolate"
_symmetry_cell_setting           monoclinic
_symmetry_space_group_name_H-M   'P 21/n'
_symmetry_Int_Tables_number      14
_space_group_name_Hall           '-P 2yn'
loop_
_symmetry_equiv_pos_site_id
_symmetry_equiv_pos_as_xyz
1 x,y,z
2 1/2-x,1/2+y,1/2-z
3 -x,-y,-z
4 1/2+x,1/2-y,1/2+z
_cell_length_a                   11.4612(9)
_cell_length_b                   5.3954(5)
_cell_length_c                   12.9742(11)
_cell_angle_alpha                90
_cell_angle_beta                 94.6080(10)
_cell_angle_gamma                90
_cell_volume                     799.702
_exptl_crystal_colour            white
_exptl_crystal_description       needle
_cell_formula_units_Z            2
_chemical_properties_physical    
', This compound may be sensitive to impact, friction and other external stimuli.'
_exptl_crystal_recrystallization_method water
_exptl_crystal_preparation       ', energetic properties'
loop_
_atom_site_label
_atom_site_type_symbol
_atom_site_fract_x
_atom_site_fract_y
_atom_site_fract_z
N1 N 0.62040(11) 0.2129(2) 0.54549(10)
N2 N 0.61523(13) 0.4055(3) 0.61001(11)
N3 N 0.50789(14) 0.4132(3) 0.63451(11)
N4 N 0.44161(13) 0.2302(3) 0.58754(10)
N5 N 0.72153(12) 0.1620(3) 0.49577(10)
N6 N 0.78716(11) 0.0054(2) 0.55309(10)
O1 O 0.87842(10) -0.0619(2) 0.51459(9)
O2 O 0.76255(11) -0.0700(2) 0.63910(9)
C1 C 0.51425(14) 0.1070(3) 0.53263(11)
N1B N 0.37960(11) -0.2129(2) 0.45451(10)
N2B N 0.38477(13) -0.4055(3) 0.38999(11)
N3B N 0.49211(14) -0.4132(3) 0.36549(11)
N4B N 0.55839(13) -0.2302(3) 0.41246(10)
N5B N 0.27847(12) -0.1620(3) 0.50423(10)
N6B N 0.21284(11) -0.0054(2) 0.44691(10)
O1B O 0.12158(10) 0.0619(2) 0.48541(9)
O2B O 0.23745(11) 0.0700(2) 0.36090(9)
C1B C 0.48575(14) -0.1070(3) 0.46737(11)
N7 N 0.08075(12) 0.2750(3) 0.71719(10)
H1 H 0.0467 0.1694 0.7543
N8 N 0.20037(13) 0.2416(3) 0.70610(12)
H2 H 0.2094(18) 0.212(4) 0.6399(16)
H3 H 0.2384(19) 0.378(4) 0.7286(15)
N9 N 0.06201(13) 0.6277(3) 0.61799(10)
H4 H 0.1352 0.6224 0.6078
H5 H 0.0187 0.7448 0.5910
N10 N -0.09629(12) 0.4659(3) 0.69030(11)
H6 H -0.1395 0.5830 0.6633
H7 H -0.1263 0.3543 0.7275
C2 C 0.01639(14) 0.4573(3) 0.67472(11)
loop_
_geom_bond_atom_site_label_1
_geom_bond_atom_site_label_2
_geom_bond_site_symmetry_1
_geom_bond_site_symmetry_2
N1 N2 1_555 1_555
N2 N3 1_555 1_555
N3 N4 1_555 1_555
N4 C1 1_555 1_555
N5 N1 1_555 1_555
N6 N5 1_555 1_555
O1 N6 1_555 1_555
O2 N6 1_555 1_555
C1 N1 1_555 1_555
N7 H1 1_555 1_555
N8 N7 1_555 1_555
H2 N8 1_555 1_555
H3 N8 1_555 1_555
N9 H4 1_555 1_555
H5 N9 1_555 1_555
N10 H6 1_555 1_555
H7 N10 1_555 1_555
C2 N7 1_555 1_555
N1B N2B 1_555 1_555
N2B N3B 1_555 1_555
N3B N4B 1_555 1_555
N4B C1B 1_555 1_555
N5B N1B 1_555 1_555
N6B N5B 1_555 1_555
O1B N6B 1_555 1_555
O2B N6B 1_555 1_555
C1B C1 1_555 1_555
N9 C2 1_555 1_555
N10 C2 1_555 1_555
N1B C1B 1_555 1_555

#END
