
#######################################################################
#
#                 Cambridge Crystallographic Data Centre
#                                CCDC 
#
#######################################################################
#
# If this CIF has been generated from an entry in the Cambridge 
# Structural Database, then it will include bibliographic, chemical, 
# crystal, experimental, refinement or atomic coordinate data resulting 
# from the CCDC's data processing and validation procedures.
#
#######################################################################

data_REJNAY
_chemical_formula_moiety         'C2 N12 O4 2-,2(C2 H6 N5 1+)'
_chemical_name_systematic        
"bis(3,4-diamino-1,2,4-triazolium) 1,1'-dinitramino-5,5'-bitetrazolate"
_symmetry_cell_setting           triclinic
_symmetry_space_group_name_H-M   'P -1'
_symmetry_Int_Tables_number      2
_space_group_name_Hall           '-P 1'
loop_
_symmetry_equiv_pos_site_id
_symmetry_equiv_pos_as_xyz
1 x,y,z
2 -x,-y,-z
_cell_length_a                   5.9518(5)
_cell_length_b                   8.6878(7)
_cell_length_c                   9.0800(9)
_cell_angle_alpha                75.4960(10)
_cell_angle_beta                 78.322(2)
_cell_angle_gamma                74.7440(10)
_cell_volume                     433.819
_exptl_crystal_colour            white
_exptl_crystal_description       block
_cell_formula_units_Z            1
_chemical_properties_physical    
', This compound may be sensitive to impact, friction and other external stimuli.'
_exptl_crystal_recrystallization_method water
_exptl_crystal_preparation       ', energetic properties'
loop_
_atom_site_label
_atom_site_type_symbol
_atom_site_fract_x
_atom_site_fract_y
_atom_site_fract_z
N1 N 0.9895(4) 0.8799(3) 0.6493(3)
N2 N 0.7670(4) 0.9799(3) 0.6447(3)
H1 H 0.7311 1.0635 0.5724
N3 N 0.7386(4) 0.7961(3) 0.8483(2)
N4 N 0.3914(4) 0.9981(3) 0.8006(3)
H2 H 0.3255 1.0851 0.7414
H3 H 0.3109 0.9546 0.8829
N5 N 0.6372(4) 0.7034(3) 0.9819(3)
H4 H 0.7089 0.5988 0.9876
H5 H 0.4851 0.7164 0.9774
C1 C 0.6154(5) 0.9315(4) 0.7652(3)
C2 C 0.9667(5) 0.7711(4) 0.7734(3)
H6 H 1.0888 0.6862 0.8081
N6 N 0.2763(4) 0.5267(3) 0.3681(3)
N7 N 0.4831(4) 0.4181(3) 0.3596(3)
N8 N 0.4539(5) 0.2888(3) 0.4647(3)
N9 N 0.2294(4) 0.3107(3) 0.5417(3)
N10 N 0.2562(5) 0.6875(3) 0.2859(3)
N11 N 0.1449(4) 0.7087(3) 0.1677(3)
O1 O 0.1006(4) 0.8496(3) 0.0890(2)
O2 O 0.0822(4) 0.5941(3) 0.1368(3)
C3 C 0.1215(5) 0.4589(3) 0.4805(3)
N6A N -0.2763(4) 0.4733(3) 0.6319(3)
N7A N -0.4831(4) 0.5819(3) 0.6404(3)
N8A N -0.4539(5) 0.7112(3) 0.5353(3)
N9A N -0.2294(4) 0.6893(3) 0.4583(3)
N10A N -0.2562(5) 0.3125(3) 0.7141(3)
N11A N -0.1449(4) 0.2913(3) 0.8323(3)
O1A O -0.1006(4) 0.1504(3) 0.9110(2)
O2A O -0.0822(4) 0.4059(3) 0.8632(3)
C3A C -0.1215(5) 0.5411(3) 0.5195(3)
loop_
_geom_bond_atom_site_label_1
_geom_bond_atom_site_label_2
_geom_bond_site_symmetry_1
_geom_bond_site_symmetry_2
N1 N2 1_555 1_555
N2 H1 1_555 1_555
N3 N5 1_555 1_555
N4 H2 1_555 1_555
H3 N4 1_555 1_555
N5 H4 1_555 1_555
H5 N5 1_555 1_555
C1 N2 1_555 1_555
C2 N1 1_555 1_555
H6 C2 1_555 1_555
N6 N7 1_555 1_555
N7 N8 1_555 1_555
N8 N9 1_555 1_555
N9 C3 1_555 1_555
N10 N6 1_555 1_555
N11 N10 1_555 1_555
O1 N11 1_555 1_555
O2 N11 1_555 1_555
C3 N6 1_555 1_555
N6A N7A 1_555 1_555
N7A N8A 1_555 1_555
N8A N9A 1_555 1_555
N9A C3A 1_555 1_555
N10A N6A 1_555 1_555
N11A N10A 1_555 1_555
O1A N11A 1_555 1_555
O2A N11A 1_555 1_555
C3A C3 1_555 1_555
N3 C1 1_555 1_555
N3 C2 1_555 1_555
N4 C1 1_555 1_555
N6A C3A 1_555 1_555

#END
