
#######################################################################
#
#                 Cambridge Crystallographic Data Centre
#                                CCDC 
#
#######################################################################
#
# If this CIF has been generated from an entry in the Cambridge 
# Structural Database, then it will include bibliographic, chemical, 
# crystal, experimental, refinement or atomic coordinate data resulting 
# from the CCDC's data processing and validation procedures.
#
#######################################################################

data_REJVIM
_chemical_formula_moiety         'C6 H12 N3 1+,C1 H1 O3 1-'
_chemical_name_systematic        
'2,3,5,6,7,8-Hexahydroimidazo(1,2-a)pyrimidinium hydrogen carbonate'
_symmetry_cell_setting           triclinic
_symmetry_space_group_name_H-M   'P -1'
_symmetry_Int_Tables_number      2
_space_group_name_Hall           '-P 1'
loop_
_symmetry_equiv_pos_site_id
_symmetry_equiv_pos_as_xyz
1 x,y,z
2 -x,-y,-z
_cell_length_a                   7.240(2)
_cell_length_b                   8.252(3)
_cell_length_c                   8.350(3)
_cell_angle_alpha                110.375(5)
_cell_angle_beta                 106.701(5)
_cell_angle_gamma                96.033(5)
_cell_volume                     436.079
_exptl_crystal_colour            colorless
_exptl_crystal_description       block
_cell_formula_units_Z            2
loop_
_atom_site_label
_atom_site_type_symbol
_atom_site_fract_x
_atom_site_fract_y
_atom_site_fract_z
O1 O 0.3902(2) 0.60411(18) 0.86248(19)
O2 O 0.3234(2) 0.4233(2) 0.5779(2)
H1 H 0.3694 0.4073 0.4948
O3 O 0.5711(2) 0.6642(2) 0.7069(2)
C2 C 0.4324(3) 0.5690(3) 0.7208(3)
N1 N 1.2809(3) 0.1466(2) 0.8537(2)
H2 H 1.3948 0.2112 0.8741
N2 N 1.0813(3) 0.3462(2) 0.8117(3)
H3 H 1.1837 0.4351 0.8606
N3 N 0.9558(2) 0.0533(2) 0.7592(2)
C1 C 1.1063(3) 0.1896(3) 0.8083(3)
C3 C 0.8849(3) 0.3735(3) 0.7350(3)
H4 H 0.8605 0.3585 0.6084
H5 H 0.8785 0.4948 0.8040
C4 C 1.0305(3) -0.1062(3) 0.7486(3)
H6 H 1.0128 -0.1820 0.6226
H7 H 0.9658 -0.1750 0.8004
C5 C 0.7533(3) 0.0538(3) 0.6625(3)
H8 H 0.6589 -0.0277 0.6789
H9 H 0.7299 0.0158 0.5319
C6 C 0.7278(3) 0.2428(3) 0.7415(3)
H10 H 0.5966 0.2501 0.6722
H11 H 0.7355 0.2738 0.8681
C7 C 1.2490(3) -0.0268(3) 0.8636(3)
H12 H 1.2752 -0.0149 0.9895
H13 H 1.3331 -0.0993 0.8122
loop_
_geom_bond_atom_site_label_1
_geom_bond_atom_site_label_2
_geom_bond_site_symmetry_1
_geom_bond_site_symmetry_2
O1 C2 1_555 1_555
O2 H1 1_555 1_555
O3 C2 1_555 1_555
N1 H2 1_555 1_555
N2 H3 1_555 1_555
N3 C1 1_555 1_555
C1 N1 1_555 1_555
C2 O2 1_555 1_555
C3 N2 1_555 1_555
H4 C3 1_555 1_555
H5 C3 1_555 1_555
C4 N3 1_555 1_555
H6 C4 1_555 1_555
H7 C4 1_555 1_555
C5 N3 1_555 1_555
H8 C5 1_555 1_555
H9 C5 1_555 1_555
C6 C3 1_555 1_555
H10 C6 1_555 1_555
H11 C6 1_555 1_555
C7 N1 1_555 1_555
H12 C7 1_555 1_555
H13 C7 1_555 1_555
N2 C1 1_555 1_555
C4 C7 1_555 1_555
C5 C6 1_555 1_555

#END
