
#######################################################################
#
#                 Cambridge Crystallographic Data Centre
#                                CCDC 
#
#######################################################################
#
# If this CIF has been generated from an entry in the Cambridge 
# Structural Database, then it will include bibliographic, chemical, 
# crystal, experimental, refinement or atomic coordinate data resulting 
# from the CCDC's data processing and validation procedures.
#
#######################################################################

data_REJWUZ
_chemical_formula_moiety         'C12 H28 N1 1+,C1 H1 B11 I11 1-,2(C6 H6)'
_chemical_name_systematic        
'Tri-n-butylammonium 2,3,4,5,6,7,8,9,10,11,12-undecaiodo-1-carba-closo-dodecaborate(1) benzene solvate'
_symmetry_cell_setting           orthorhombic
_symmetry_space_group_name_H-M   'P n m a'
_symmetry_Int_Tables_number      62
_space_group_name_Hall           '-P 2ac 2n'
loop_
_symmetry_equiv_pos_site_id
_symmetry_equiv_pos_as_xyz
1 x,y,z
2 1/2-x,-y,1/2+z
3 -x,1/2+y,-z
4 1/2+x,1/2-y,1/2-z
5 -x,-y,-z
6 1/2+x,y,1/2-z
7 x,1/2-y,z
8 1/2-x,1/2+y,1/2+z
_cell_length_a                   21.5681(8)
_cell_length_b                   13.8680(5)
_cell_length_c                   16.4697(6)
_cell_angle_alpha                90
_cell_angle_beta                 90
_cell_angle_gamma                90
_cell_volume                     4926.19
_exptl_crystal_colour            colorless
_exptl_crystal_description       prism
_cell_formula_units_Z            4
loop_
_atom_site_label
_atom_site_type_symbol
_atom_site_fract_x
_atom_site_fract_y
_atom_site_fract_z
C2 C 0.3963(3) 0.2003(5) 0.9333(4)
H2 H 0.4186 0.1657 0.8930
C3 C 0.3638(3) 0.1515(4) 0.9924(5)
H3 H 0.3636 0.0830 0.9925
C4 C 0.3316(3) 0.2010(4) 1.0511(4)
H4 H 0.3094 0.1668 1.0916
C2F C 0.3963(3) 0.2997(5) 0.9333(4)
H2F H 0.4186 0.3343 0.8930
C3F C 0.3638(3) 0.3485(4) 0.9924(5)
H3F H 0.3636 0.4170 0.9925
C4F C 0.3316(3) 0.2990(4) 1.0511(4)
H4F H 0.3094 0.3332 1.0916
C5 C 0.2452(3) 0.7986(4) 0.2685(4)
H5 H 0.2206 0.8323 0.3071
C6 C 0.2797(3) 0.8490(5) 0.2142(5)
H6 H 0.2802 0.9174 0.2163
C7 C 0.3139(3) 0.8013(7) 0.1560(4)
H7 H 0.3371 0.8362 0.1167
C5F C 0.2452(3) 0.7014(4) 0.2685(4)
H5F H 0.2206 0.6677 0.3071
C6F C 0.2797(3) 0.6510(5) 0.2142(5)
H6F H 0.2802 0.5826 0.2163
C7F C 0.3139(3) 0.6987(7) 0.1560(4)
H7F H 0.3371 0.6638 0.1167
N1 N 0.6176(3) 0.7484(10) 0.4385(4)
H8 H 0.5970 0.7445 0.4880
C8 C 0.6386(5) 0.8502(6) 0.4279(6)
H9 H 0.6017 0.8913 0.4185
H10 H 0.6649 0.8541 0.3788
C9 C 0.6745(7) 0.8906(8) 0.4991(9)
H11 H 0.7155 0.8588 0.5017
H12 H 0.6520 0.8756 0.5499
C10 C 0.6837(6) 0.9990(8) 0.4930(8)
H13 H 0.6429 1.0303 0.4855
H14 H 0.7093 1.0135 0.4447
C11 C 0.7149(9) 1.0412(14) 0.5678(11)
H15 H 0.7207 1.1107 0.5603
H16 H 0.7553 1.0103 0.5757
H17 H 0.6888 1.0298 0.6156
C16 C 0.5733(3) 0.7179(6) 0.3742(5)
H27 H 0.5862 0.7532 0.3247
H28 H 0.5828 0.6492 0.3637
C17 C 0.5077(4) 0.7236(7) 0.3753(6)
H29 H 0.4980 0.7535 0.4283
H30 H 0.4940 0.6557 0.3798
C18 C 0.4618(5) 0.7690(7) 0.3170(7)
H31 H 0.4696 0.7495 0.2601
H32 H 0.4616 0.8402 0.3211
C19 C 0.4023(7) 0.7249(12) 0.3502(13)
H33 H 0.3670 0.7471 0.3178
H34 H 0.3967 0.7447 0.4068
H35 H 0.4050 0.6544 0.3473
H8F H 0.5970 0.7555 0.4880
C8F C 0.6386(5) 0.6498(6) 0.4279(6)
H9F H 0.6017 0.6087 0.4185
H10F H 0.6649 0.6459 0.3788
C9F C 0.6745(7) 0.6094(8) 0.4991(9)
H11F H 0.7155 0.6412 0.5017
H12F H 0.6520 0.6244 0.5499
C10F C 0.6837(6) 0.5010(8) 0.4930(8)
H13F H 0.6429 0.4697 0.4855
H14F H 0.7093 0.4865 0.4447
C11F C 0.7149(9) 0.4588(14) 0.5678(11)
H15F H 0.7207 0.3893 0.5603
H16F H 0.7553 0.4897 0.5757
H17F H 0.6888 0.4702 0.6156
C16F C 0.5733(3) 0.7821(6) 0.3742(5)
H27F H 0.5862 0.7468 0.3247
H28F H 0.5828 0.8508 0.3637
C17F C 0.5077(4) 0.7764(7) 0.3753(6)
H29F H 0.4980 0.7465 0.4283
H30F H 0.4940 0.8443 0.3798
C18F C 0.4618(5) 0.7310(7) 0.3170(7)
H32F H 0.4616 0.6598 0.3211
C19F C 0.4023(7) 0.7751(12) 0.3502(13)
H33F H 0.3670 0.7529 0.3178
H34F H 0.3967 0.7553 0.4068
H35F H 0.4050 0.8456 0.3473
C1 C 0.5172(2) 0.7500 0.8440(3)
H1 H 0.5499(5) 0.7500 0.8835(7)
B1 B 0.45106(18) 0.6855(3) 0.8665(2)
B2 B 0.5047(2) 0.6457(3) 0.7902(2)
B3 B 0.5371(3) 0.7500 0.7431(4)
B4 B 0.4766(2) 0.6853(3) 0.6942(2)
B5 B 0.4231(2) 0.6453(3) 0.7705(2)
B6 B 0.3903(3) 0.7500 0.8173(3)
B7 B 0.4054(3) 0.7500 0.7104(4)
I1 I 0.442295(12) 0.608451(18) 0.978412(14)
I2 I 0.559669(14) 0.51826(2) 0.807632(17)
I3 I 0.633362(18) 0.7500 0.70806(2)
I4 I 0.494120(16) 0.60173(2) 0.586026(17)
I5 I 0.372080(15) 0.51258(2) 0.760481(19)
I6 I 0.298299(16) 0.7500 0.86777(2)
I7 I 0.33220(2) 0.7500 0.62237(3)
B1F B 0.45106(18) 0.8145(3) 0.8665(2)
B2F B 0.5047(2) 0.8543(3) 0.7902(2)
B4F B 0.4766(2) 0.8147(3) 0.6942(2)
B5F B 0.4231(2) 0.8547(3) 0.7705(2)
I1F I 0.442295(12) 0.891549(18) 0.978412(14)
I2F I 0.559669(14) 0.98174(2) 0.807632(17)
I4F I 0.494120(16) 0.89827(2) 0.586026(17)
I5F I 0.372080(15) 0.98742(2) 0.760481(19)
C12? C 0.6713(5) 0.6793(6) 0.4414(7)
H18? H 0.7075 0.7118 0.4662
H19? H 0.6827 0.6603 0.3855
C13? C 0.6558(6) 0.5897(8) 0.4901(9)
H20? H 0.6207 0.5556 0.4642
H21? H 0.6428 0.6087 0.5456
C14? C 0.7114(6) 0.5220(8) 0.4955(8)
H22? H 0.7482 0.5575 0.5153
H23? H 0.7210 0.4951 0.4413
C15? C 0.6949(11) 0.4407(14) 0.5545(10)
H24? H 0.7299 0.3960 0.5588
H25? H 0.6584 0.4060 0.5343
H26? H 0.6857 0.4680 0.6081
C20? C 0.5077(4) 0.7236(7) 0.3753(6)
C21? C 0.4618(5) 0.7690(7) 0.3170(7)
H36? H 0.4552 0.8375 0.3316
H37? H 0.4214 0.7353 0.3209
C22? C 0.4869(13) 0.762(3) 0.2294(10)
H38? H 0.5257 0.7981 0.2251
H39? H 0.4564 0.7888 0.1916
H40? H 0.4945 0.6940 0.2158
loop_
_geom_bond_atom_site_label_1
_geom_bond_atom_site_label_2
_geom_bond_site_symmetry_1
_geom_bond_site_symmetry_2
C1 H1 1_555 1_555
B1 C1 1_555 1_555
B2 C1 1_555 1_555
B3 C1 1_555 1_555
B4 B2 1_555 1_555
B5 B1 1_555 1_555
B6 B1 1_555 1_555
B7 B4 1_555 1_555
I1 B1 1_555 1_555
I2 B2 1_555 1_555
I3 B3 1_555 1_555
I4 B4 1_555 1_555
I5 B5 1_555 1_555
I6 B6 1_555 1_555
I7 B7 1_555 1_555
C2 H2 1_555 1_555
C3 C2 1_555 1_555
H3 C3 1_555 1_555
C4 C3 1_555 1_555
H4 C4 1_555 1_555
C5 H5 1_555 1_555
C6 C5 1_555 1_555
H6 C6 1_555 1_555
C7 C6 1_555 1_555
H7 C7 1_555 1_555
N1 H8 1_555 1_555
H8 H8F 1_555 1_555
C8 N1 1_555 1_555
H9 C8 1_555 1_555
H10 C8 1_555 1_555
C9 C8 1_555 1_555
H11 C9 1_555 1_555
H12 C9 1_555 1_555
C10 C9 1_555 1_555
H13 C10 1_555 1_555
H14 C10 1_555 1_555
C11 C10 1_555 1_555
H15 C11 1_555 1_555
H16 C11 1_555 1_555
H17 C11 1_555 1_555
C16 N1 1_555 1_555
H27 C16 1_555 1_555
H28 C16 1_555 1_555
C17 C16 1_555 1_555
H29 C17 1_555 1_555
H30 C17 1_555 1_555
C18 C17 1_555 1_555
H31 C18 1_555 1_555
H32 C18 1_555 1_555
C19 C18 1_555 1_555
H33 C19 1_555 1_555
H34 C19 1_555 1_555
H35 C19 1_555 1_555
B1F C1 1_555 1_555
B2F C1 1_555 1_555
B4F B3 1_555 1_555
B5F B6 1_555 1_555
I1F B1F 1_555 1_555
I2F B2F 1_555 1_555
I4F B4F 1_555 1_555
I5F B5F 1_555 1_555
C2F C2 1_555 1_555
H2F C2F 1_555 1_555
C3F C2F 1_555 1_555
H3F C3F 1_555 1_555
C4F C4 1_555 1_555
H4F C4F 1_555 1_555
C5F C5 1_555 1_555
H5F C5F 1_555 1_555
C6F C5F 1_555 1_555
H6F C6F 1_555 1_555
C7F C7 1_555 1_555
H7F C7F 1_555 1_555
H8F N1 1_555 1_555
C8F N1 1_555 1_555
H9F C8F 1_555 1_555
H10F C8F 1_555 1_555
C9F C8F 1_555 1_555
H11F C9F 1_555 1_555
H12F C9F 1_555 1_555
C10F C9F 1_555 1_555
H13F C10F 1_555 1_555
H14F C10F 1_555 1_555
C11F C10F 1_555 1_555
H15F C11F 1_555 1_555
H16F C11F 1_555 1_555
H17F C11F 1_555 1_555
C16F N1 1_555 1_555
H27F C16 1_555 1_555
H28F C16F 1_555 1_555
C17F C16 1_555 1_555
H29F C17 1_555 1_555
H30F C17F 1_555 1_555
C18F C17 1_555 1_555
H32F C18F 1_555 1_555
C19F C18 1_555 1_555
H33F C19 1_555 1_555
H34F C19 1_555 1_555
H35F C19F 1_555 1_555
B1 B2 1_555 1_555
B1 B1F 1_555 1_555
B2 B3 1_555 1_555
B2 B5 1_555 1_555
B3 B4 1_555 1_555
B3 B2F 1_555 1_555
B4 B5 1_555 1_555
B4 B4F 1_555 1_555
B5 B6 1_555 1_555
B5 B7 1_555 1_555
B6 B7 1_555 1_555
B6 B1F 1_555 1_555
B7 B4F 1_555 1_555
B7 B5F 1_555 1_555
C16 C16F 1_555 1_555
H27 C16F 1_555 1_555
H27 H27F 1_555 1_555
C17 C16F 1_555 1_555
C17 C17F 1_555 1_555
H29 C17F 1_555 1_555
H29 H29F 1_555 1_555
C18 C17F 1_555 1_555
C18 C18F 1_555 1_555
H31 C18F 1_555 1_555
C19 C18F 1_555 1_555
C19 C19F 1_555 1_555
H33 C19F 1_555 1_555
H33 H33F 1_555 1_555
H34 C19F 1_555 1_555
H34 H34F 1_555 1_555
B1F B2F 1_555 1_555
B1F B5F 1_555 1_555
B2F B4F 1_555 1_555
B2F B5F 1_555 1_555
B4F B5F 1_555 1_555
C3F C4F 1_555 1_555
C6F C7F 1_555 1_555
C16F H27F 1_555 1_555
C16F C17F 1_555 1_555
C17F H29F 1_555 1_555
C17F C18F 1_555 1_555
C18F C19F 1_555 1_555
C19F H33F 1_555 1_555
C19F H34F 1_555 1_555

#END
