
#######################################################################
#
#                 Cambridge Crystallographic Data Centre
#                                CCDC 
#
#######################################################################
#
# If this CIF has been generated from an entry in the Cambridge 
# Structural Database, then it will include bibliographic, chemical, 
# crystal, experimental, refinement or atomic coordinate data resulting 
# from the CCDC's data processing and validation procedures.
#
#######################################################################

data_REKBOZ05
_chemical_formula_moiety         'C6 H10 N2 2+,O4 S1 2-,1.5(H2 O1)'
_chemical_name_systematic        
'Phenylene-1,2-diammonium sulfate sesquihydrate'
_symmetry_cell_setting           monoclinic
_symmetry_space_group_name_H-M   'P 21/c'
_symmetry_Int_Tables_number      14
_space_group_name_Hall           '-P 2ybc'
loop_
_symmetry_equiv_pos_site_id
_symmetry_equiv_pos_as_xyz
1 x,y,z
2 -x,1/2+y,1/2-z
3 -x,-y,-z
4 x,1/2-y,1/2+z
_cell_length_a                   27.1531(13)
_cell_length_b                   9.5952(4)
_cell_length_c                   7.5456(3)
_cell_angle_alpha                90
_cell_angle_beta                 92.837(4)
_cell_angle_gamma                90
_cell_volume                     1963.52
_exptl_crystal_colour            colorless
_exptl_crystal_description       block
_cell_formula_units_Z            8
loop_
_atom_site_label
_atom_site_type_symbol
_atom_site_fract_x
_atom_site_fract_y
_atom_site_fract_z
S1 S 0.44937(5) 0.57851(15) 0.19312(18)
O1 O 0.40975(15) 0.6508(5) 0.2852(6)
O2 O 0.47132(17) 0.4719(5) 0.3134(6)
O3 O 0.48756(15) 0.6805(4) 0.1555(6)
O4 O 0.42982(17) 0.5129(5) 0.0301(6)
N1 N 0.42586(18) 0.5729(5) -0.3449(6)
H1 H 0.4145 0.6561 -0.3144
H2 H 0.4356 0.5762 -0.4558
H3 H 0.4513 0.5496 -0.2720
N2 N 0.44287(17) 0.2840(5) -0.4285(6)
H4 H 0.4552 0.3470 -0.5007
H5 H 0.4394 0.2030 -0.4851
H6 H 0.4633 0.2733 -0.3335
C1 C 0.3949(2) 0.3309(6) -0.3729(7)
C2 C 0.3568(2) 0.2364(7) -0.3645(9)
H7 H 0.3619 0.1431 -0.3916
C3 C 0.3871(2) 0.4700(6) -0.3328(7)
C4 C 0.3411(2) 0.5122(7) -0.2821(8)
H8 H 0.3359 0.6047 -0.2515
C5 C 0.3028(3) 0.4176(8) -0.2769(11)
H9 H 0.2717 0.4470 -0.2469
C6 C 0.3109(3) 0.2814(8) -0.3156(11)
H10 H 0.2852 0.2176 -0.3092
S2 S 0.04968(5) 1.57691(15) -0.29333(18)
O5 O 0.09066(15) 1.6453(4) -0.1873(6)
O6 O 0.02729(15) 1.4730(4) -0.1782(5)
O7 O 0.01260(15) 1.6830(4) -0.3442(5)
O8 O 0.06854(16) 1.5093(5) -0.4478(5)
N3 N 0.07620(18) 0.9218(5) -0.3276(6)
H11 H 0.0884 0.8385 -0.2977
H12 H 0.0682 0.9233 -0.4434
H13 H 0.0495 0.9384 -0.2672
N4 N 0.05661(17) 1.2143(5) -0.4023(6)
H14 H 0.0345 1.2202 -0.3196
H15 H 0.0463 1.1531 -0.4848
H16 H 0.0603 1.2974 -0.4522
C7 C 0.1133(2) 1.0291(6) -0.2856(7)
C8 C 0.1388(2) 1.2675(7) -0.2740(8)
H17 H 0.1325 1.3613 -0.2965
C9 C 0.1934(2) 1.0868(8) -0.1659(9)
H18 H 0.2240 1.0592 -0.1176
C10 C 0.1037(2) 1.1685(6) -0.3211(7)
C11 C 0.1580(2) 0.9888(7) -0.2105(8)
H19 H 0.1644 0.8949 -0.1896
C12 C 0.1833(2) 1.2264(8) -0.1930(9)
H20 H 0.2065 1.2931 -0.1567
O9 O 0.2493(2) 0.7550(7) 0.0093(8)
H21 H 0.2334 0.8168 0.0637
H22 H 0.2674 0.7944 -0.0647
O10 O 0.3054(2) 0.6011(7) 0.2555(8)
H23 H 0.3383 0.6067 0.2704
H24 H 0.2933 0.6549 0.1742
O11 O 0.19336(19) 0.8979(6) 0.2585(8)
H25 H 0.1602 0.8914 0.2743
H26 H 0.2074 0.8762 0.3584
loop_
_geom_bond_atom_site_label_1
_geom_bond_atom_site_label_2
_geom_bond_site_symmetry_1
_geom_bond_site_symmetry_2
S1 O1 1_555 1_555
O2 S1 1_555 1_555
O3 S1 1_555 1_555
O4 S1 1_555 1_555
N1 H1 1_555 1_555
H2 N1 1_555 1_555
H3 N1 1_555 1_555
N2 H4 1_555 1_555
H5 N2 1_555 1_555
H6 N2 1_555 1_555
C1 N2 1_555 1_555
C2 C1 1_555 1_555
H7 C2 1_555 1_555
C3 N1 1_555 1_555
C4 C3 1_555 1_555
H8 C4 1_555 1_555
C5 C4 1_555 1_555
H9 C5 1_555 1_555
C6 C2 1_555 1_555
H10 C6 1_555 1_555
S2 O5 1_555 1_555
O6 S2 1_555 1_555
O7 S2 1_555 1_555
O8 S2 1_555 1_555
N3 H11 1_555 1_555
H12 N3 1_555 1_555
H13 N3 1_555 1_555
N4 H14 1_555 1_555
H15 N4 1_555 1_555
H16 N4 1_555 1_555
C7 N3 1_555 1_555
C8 H17 1_555 1_555
C9 H18 1_555 1_555
C10 N4 1_555 1_555
C11 C7 1_555 1_555
H19 C11 1_555 1_555
C12 C8 1_555 1_555
H20 C12 1_555 1_555
O9 H21 1_555 1_555
H22 O9 1_555 1_555
O10 H23 1_555 1_555
H24 O10 1_555 1_555
O11 H25 1_555 1_555
H26 O11 1_555 1_555
C1 C3 1_555 1_555
C5 C6 1_555 1_555
C7 C10 1_555 1_555
C8 C10 1_555 1_555
C9 C11 1_555 1_555
C9 C12 1_555 1_555

#END
