
#######################################################################
#
#                 Cambridge Crystallographic Data Centre
#                                CCDC 
#
#######################################################################
#
# If this CIF has been generated from an entry in the Cambridge 
# Structural Database, then it will include bibliographic, chemical, 
# crystal, experimental, refinement or atomic coordinate data resulting 
# from the CCDC's data processing and validation procedures.
#
#######################################################################

data_REKBOZ02
_chemical_formula_moiety         'C6 H10 N2 2+,O4 S1 2-,1.5(H2 O1)'
_chemical_name_systematic        
'Phenylene-1,2-diammonium sulfate sesquihydrate'
_symmetry_cell_setting           monoclinic
_symmetry_space_group_name_H-M   'P 21/c'
_symmetry_Int_Tables_number      14
_space_group_name_Hall           '-P 2ybc'
loop_
_symmetry_equiv_pos_site_id
_symmetry_equiv_pos_as_xyz
1 x,y,z
2 -x,1/2+y,1/2-z
3 -x,-y,-z
4 x,1/2-y,1/2+z
_cell_length_a                   27.0203(14)
_cell_length_b                   9.5708(5)
_cell_length_c                   7.5370(4)
_cell_angle_alpha                90
_cell_angle_beta                 93.110(5)
_cell_angle_gamma                90
_cell_volume                     1946.24
_exptl_crystal_colour            colorless
_exptl_crystal_description       block
_cell_formula_units_Z            8
loop_
_atom_site_label
_atom_site_type_symbol
_atom_site_fract_x
_atom_site_fract_y
_atom_site_fract_z
S1 S 0.44968(3) 0.57757(10) 0.19119(12)
O1 O 0.40986(10) 0.6478(3) 0.2874(4)
O2 O 0.47261(10) 0.4693(3) 0.3094(4)
O3 O 0.48759(10) 0.6825(3) 0.1536(4)
O4 O 0.42889(11) 0.5136(3) 0.0282(4)
N1 N 0.42487(12) 0.5760(4) -0.3498(4)
H1 H 0.4129 0.6609 -0.3184
H2 H 0.4340 0.5794 -0.4642
H3 H 0.4516 0.5537 -0.2768
N2 N 0.44273(13) 0.2838(4) -0.4292(5)
C1 C 0.39454(15) 0.3309(4) -0.3730(5)
C2 C 0.35641(16) 0.2343(5) -0.3625(6)
H4 H 0.3620 0.1387 -0.3889
C3 C 0.38633(15) 0.4700(4) -0.3339(5)
C4 C 0.33994(16) 0.5121(5) -0.2828(6)
H5 H 0.3344 0.6073 -0.2547
C5 C 0.30192(16) 0.4170(5) -0.2725(6)
H6 H 0.2703 0.4465 -0.2376
C6 C 0.30999(17) 0.2783(5) -0.3132(7)
H7 H 0.2837 0.2127 -0.3074
H24 H 0.452(2) 0.327(7) -0.524(9)
H25 H 0.4392(19) 0.191(7) -0.462(7)
H26 H 0.471(2) 0.297(6) -0.335(8)
S2 S 0.04952(3) 1.57643(10) -0.29387(12)
O5 O 0.09115(10) 1.6444(3) -0.1864(4)
O6 O 0.02644(10) 1.4725(3) -0.1788(4)
O7 O 0.01280(10) 1.6842(3) -0.3452(4)
O8 O 0.06875(11) 1.5085(3) -0.4481(4)
N3 N 0.07701(12) 0.9210(4) -0.3283(4)
H8 H 0.0896 0.8356 -0.2977
H9 H 0.0693 0.9232 -0.4473
H10 H 0.0492 0.9372 -0.2685
N4 N 0.05692(13) 1.2149(4) -0.3997(5)
C7 C 0.11387(14) 1.0286(4) -0.2825(5)
C8 C 0.13941(16) 1.2685(5) -0.2643(6)
H11 H 0.1329 1.3647 -0.2860
C9 C 0.19413(16) 1.0878(5) -0.1546(6)
H12 H 0.2253 1.0599 -0.1022
C10 C 0.10420(14) 1.1694(4) -0.3160(5)
C11 C 0.15916(16) 0.9883(5) -0.2037(6)
H13 H 0.1661 0.8922 -0.1836
C12 C 0.18402(16) 1.2282(5) -0.1812(6)
H14 H 0.2077 1.2967 -0.1425
H21 H 0.0290(17) 1.203(5) -0.325(6)
H22 H 0.0605(18) 1.308(6) -0.437(7)
H23 H 0.0509(18) 1.172(6) -0.488(7)
O9 O 0.24950(14) 0.7586(4) 0.0122(5)
H15 H 0.2336 0.8205 0.0666
H16 H 0.2676 0.7981 -0.0617
O10 O 0.30502(13) 0.6009(4) 0.2576(5)
H17 H 0.3379 0.6066 0.2724
H18 H 0.2929 0.6548 0.1762
O11 O 0.19389(12) 0.8961(4) 0.2650(5)
H19 H 0.1607 0.8897 0.2808
H20 H 0.2079 0.8744 0.3649
loop_
_geom_bond_atom_site_label_1
_geom_bond_atom_site_label_2
_geom_bond_site_symmetry_1
_geom_bond_site_symmetry_2
S1 O1 1_555 1_555
O2 S1 1_555 1_555
O3 S1 1_555 1_555
O4 S1 1_555 1_555
N1 H1 1_555 1_555
H2 N1 1_555 1_555
H3 N1 1_555 1_555
N2 C1 1_555 1_555
C1 C2 1_555 1_555
C2 H4 1_555 1_555
C3 N1 1_555 1_555
C4 C3 1_555 1_555
H5 C4 1_555 1_555
C5 C4 1_555 1_555
H6 C5 1_555 1_555
C6 C2 1_555 1_555
H7 C6 1_555 1_555
S2 O5 1_555 1_555
O6 S2 1_555 1_555
O7 S2 1_555 1_555
O8 S2 1_555 1_555
N3 H8 1_555 1_555
H9 N3 1_555 1_555
H10 N3 1_555 1_555
N4 C10 1_555 1_555
C7 N3 1_555 1_555
C8 H11 1_555 1_555
C9 H12 1_555 1_555
C10 C7 1_555 1_555
C11 C7 1_555 1_555
H13 C11 1_555 1_555
C12 C8 1_555 1_555
H14 C12 1_555 1_555
O9 H15 1_555 1_555
H16 O9 1_555 1_555
O10 H17 1_555 1_555
H18 O10 1_555 1_555
O11 H19 1_555 1_555
H20 O11 1_555 1_555
H21 N4 1_555 1_555
H22 N4 1_555 1_555
H23 N4 1_555 1_555
H24 N2 1_555 1_555
H25 N2 1_555 1_555
H26 N2 1_555 1_555
C1 C3 1_555 1_555
C5 C6 1_555 1_555
C8 C10 1_555 1_555
C9 C11 1_555 1_555
C9 C12 1_555 1_555

#END
