
#######################################################################
#
#                 Cambridge Crystallographic Data Centre
#                                CCDC 
#
#######################################################################
#
# If this CIF has been generated from an entry in the Cambridge 
# Structural Database, then it will include bibliographic, chemical, 
# crystal, experimental, refinement or atomic coordinate data resulting 
# from the CCDC's data processing and validation procedures.
#
#######################################################################

data_REKGOG
_chemical_formula_moiety         'C18 H15 N1 O1'
_chemical_name_systematic        
8-(2-methoxyphenyl)-1,2-dihydrocyclobuta[b]quinoline
_symmetry_cell_setting           monoclinic
_symmetry_space_group_name_H-M   'P 21/c'
_symmetry_Int_Tables_number      14
_space_group_name_Hall           '-P 2ybc'
loop_
_symmetry_equiv_pos_site_id
_symmetry_equiv_pos_as_xyz
1 x,y,z
2 -x,1/2+y,1/2-z
3 -x,-y,-z
4 x,1/2-y,1/2+z
_cell_length_a                   6.9084(10)
_cell_length_b                   12.846(2)
_cell_length_c                   15.047(2)
_cell_angle_alpha                90
_cell_angle_beta                 91.935(3)
_cell_angle_gamma                90
_cell_volume                     1334.59
_exptl_crystal_colour            colorless
_exptl_crystal_description       prismatic
_cell_formula_units_Z            4
loop_
_atom_site_label
_atom_site_type_symbol
_atom_site_fract_x
_atom_site_fract_y
_atom_site_fract_z
N1 N 0.25616(18) 1.07860(9) 0.22379(8)
O1 O 0.03284(16) 0.86500(8) 0.47377(7)
C1 C 0.1315(2) 0.90918(10) 0.27792(9)
C2 C -0.0175(2) 0.83439(12) 0.26855(10)
H1 H -0.0115 0.7743 0.3030
C3 C -0.1699(2) 0.84843(13) 0.20997(10)
H2 H -0.2666 0.7982 0.2053
C4 C -0.1825(2) 0.93755(13) 0.15692(11)
H3 H -0.2880 0.9467 0.1177
C5 C -0.0408(2) 1.01089(12) 0.16258(10)
H4 H -0.0496 1.0695 0.1263
C6 C 0.1193(2) 0.99967(11) 0.22250(9)
C7 C 0.3995(2) 1.05999(11) 0.27967(9)
C8 C 0.4263(2) 0.97463(11) 0.33670(9)
C9 C 0.2925(2) 0.89714(10) 0.34063(9)
C10 C 0.5818(2) 1.11465(12) 0.31352(11)
H5 H 0.5588 1.1801 0.3435
H6 H 0.6806 1.1218 0.2696
C11 C 0.6120(2) 1.01918(12) 0.37770(10)
H7 H 0.7266 0.9782 0.3665
H8 H 0.6045 1.0364 0.4403
C12 C 0.3103(2) 0.80806(10) 0.40380(9)
C13 C 0.4659(2) 0.74052(11) 0.40010(10)
H9 H 0.5582 0.7509 0.3574
C14 C 0.4873(2) 0.65784(12) 0.45863(11)
H10 H 0.5932 0.6134 0.4554
C15 C 0.3512(2) 0.64201(12) 0.52142(11)
H11 H 0.3639 0.5858 0.5602
C16 C 0.1955(2) 0.70870(11) 0.52765(10)
H12 H 0.1039 0.6975 0.5705
C17 C 0.1759(2) 0.79227(11) 0.46997(9)
C18 C -0.0962(3) 0.85910(15) 0.54491(12)
H13 H -0.1741 0.7975 0.5385
H14 H -0.1784 0.9193 0.5440
H15 H -0.0233 0.8565 0.6003
loop_
_geom_bond_atom_site_label_1
_geom_bond_atom_site_label_2
_geom_bond_site_symmetry_1
_geom_bond_site_symmetry_2
N1 C6 1_555 1_555
O1 C17 1_555 1_555
C1 C2 1_555 1_555
C2 H1 1_555 1_555
C3 C2 1_555 1_555
H2 C3 1_555 1_555
C4 C3 1_555 1_555
H3 C4 1_555 1_555
C5 C4 1_555 1_555
H4 C5 1_555 1_555
C6 C1 1_555 1_555
C7 N1 1_555 1_555
C8 C7 1_555 1_555
C9 C1 1_555 1_555
C10 C7 1_555 1_555
H5 C10 1_555 1_555
H6 C10 1_555 1_555
C11 C8 1_555 1_555
H7 C11 1_555 1_555
H8 C11 1_555 1_555
C12 C9 1_555 1_555
C13 C12 1_555 1_555
H9 C13 1_555 1_555
C14 C13 1_555 1_555
H10 C14 1_555 1_555
C15 C14 1_555 1_555
H11 C15 1_555 1_555
C16 C15 1_555 1_555
H12 C16 1_555 1_555
C17 C12 1_555 1_555
C18 O1 1_555 1_555
H13 C18 1_555 1_555
H14 C18 1_555 1_555
H15 C18 1_555 1_555
C5 C6 1_555 1_555
C8 C9 1_555 1_555
C10 C11 1_555 1_555
C16 C17 1_555 1_555

#END
