
#######################################################################
#
#                 Cambridge Crystallographic Data Centre
#                                CCDC 
#
#######################################################################
#
# If this CIF has been generated from an entry in the Cambridge 
# Structural Database, then it will include bibliographic, chemical, 
# crystal, experimental, refinement or atomic coordinate data resulting 
# from the CCDC's data processing and validation procedures.
#
#######################################################################

data_REKGEW
_chemical_formula_moiety         'C23 H24 O1 Si1'
_chemical_name_systematic        4-methyl-2,2,6-triphenyl-1,2-oxasilinane
_symmetry_cell_setting           triclinic
_symmetry_space_group_name_H-M   'P -1'
_symmetry_Int_Tables_number      2
_space_group_name_Hall           '-P 1'
loop_
_symmetry_equiv_pos_site_id
_symmetry_equiv_pos_as_xyz
1 x,y,z
2 -x,-y,-z
_cell_length_a                   9.9633(2)
_cell_length_b                   10.0448(2)
_cell_length_c                   10.7303(3)
_cell_angle_alpha                64.9597(9)
_cell_angle_beta                 80.3987(14)
_cell_angle_gamma                78.2408(13)
_cell_volume                     948.594
_exptl_crystal_colour            colorless
_exptl_crystal_description       Block
_cell_formula_units_Z            2
loop_
_atom_site_label
_atom_site_type_symbol
_atom_site_fract_x
_atom_site_fract_y
_atom_site_fract_z
C1 C 0.41994(13) 0.09110(14) 0.21834(13)
H1 H 0.3758 0.1176 0.2973
C2 C 0.33632(14) -0.01362(15) 0.20498(14)
H2 H 0.3515 -0.1115 0.2836
H3 H 0.3715 -0.0284 0.1192
C3 C 0.18075(14) 0.04136(16) 0.20189(14)
H4 H 0.1385 -0.0320 0.1864
C4 C 0.14836(14) 0.19369(15) 0.08004(14)
H5 H 0.0526 0.2382 0.0969
H6 H 0.1544 0.1777 -0.0058
C5 C 0.11460(16) 0.04530(19) 0.33949(15)
H7 H 0.1356 -0.0529 0.4140
H8 H 0.0146 0.0724 0.3362
H9 H 0.1511 0.1190 0.3566
C6 C 0.56704(14) 0.02085(15) 0.24531(14)
C7 C 0.59513(16) -0.08837(16) 0.37561(16)
H10 H 0.5217 -0.1169 0.4457
C8 C 0.72876(18) -0.15580(17) 0.40407(19)
H11 H 0.7468 -0.2305 0.4930
C9 C 0.83563(17) -0.11391(18) 0.3025(2)
H12 H 0.9274 -0.1598 0.3217
C10 C 0.80954(16) -0.00553(18) 0.17305(19)
H13 H 0.8836 0.0231 0.1037
C11 C 0.67521(15) 0.06199(17) 0.14372(16)
H14 H 0.6576 0.1361 0.0544
C12 C 0.21667(14) 0.43518(15) 0.16372(14)
C13 C 0.31773(15) 0.49645(17) 0.18938(15)
H15 H 0.4097 0.4817 0.1510
C14 C 0.28644(16) 0.57830(18) 0.26969(17)
H16 H 0.3566 0.6191 0.2856
C15 C 0.15346(17) 0.60053(19) 0.32651(18)
H17 H 0.1321 0.6562 0.3820
C16 C 0.05160(17) 0.5418(2) 0.30265(19)
H18 H -0.0401 0.5570 0.3417
C17 C 0.08297(15) 0.46060(18) 0.22179(17)
H19 H 0.0118 0.4213 0.2055
C18 C 0.29248(13) 0.45344(15) -0.13093(14)
C19 C 0.32877(15) 0.39304(16) -0.23019(14)
H20 H 0.3400 0.2884 -0.2016
C20 C 0.34846(17) 0.48302(17) -0.36897(15)
H21 H 0.3732 0.4404 -0.4351
C21 C 0.33198(18) 0.63584(18) -0.41130(16)
H22 H 0.3453 0.6979 -0.5067
C22 C 0.29635(17) 0.69853(17) -0.31574(16)
H23 H 0.2852 0.8033 -0.3453
C23 C 0.27685(15) 0.60784(16) -0.17657(15)
H24 H 0.2525 0.6513 -0.1111
O1 O 0.41798(9) 0.22464(10) 0.09460(9)
Si1 Si 0.26659(4) 0.32704(4) 0.05420(4)
loop_
_geom_bond_atom_site_label_1
_geom_bond_atom_site_label_2
_geom_bond_site_symmetry_1
_geom_bond_site_symmetry_2
C1 H1 1_555 1_555
C2 C1 1_555 1_555
H2 C2 1_555 1_555
H3 C2 1_555 1_555
C3 C2 1_555 1_555
H4 C3 1_555 1_555
C4 C3 1_555 1_555
H5 C4 1_555 1_555
H6 C4 1_555 1_555
C5 C3 1_555 1_555
H7 C5 1_555 1_555
H8 C5 1_555 1_555
H9 C5 1_555 1_555
C6 C1 1_555 1_555
C7 C6 1_555 1_555
H10 C7 1_555 1_555
C8 C7 1_555 1_555
H11 C8 1_555 1_555
C9 C8 1_555 1_555
H12 C9 1_555 1_555
C10 C9 1_555 1_555
H13 C10 1_555 1_555
C11 C6 1_555 1_555
H14 C11 1_555 1_555
C12 C13 1_555 1_555
C13 H15 1_555 1_555
C14 C13 1_555 1_555
H16 C14 1_555 1_555
C15 C14 1_555 1_555
H17 C15 1_555 1_555
C16 C15 1_555 1_555
H18 C16 1_555 1_555
C17 C12 1_555 1_555
H19 C17 1_555 1_555
C18 C19 1_555 1_555
C19 H20 1_555 1_555
C20 C19 1_555 1_555
H21 C20 1_555 1_555
C21 C20 1_555 1_555
H22 C21 1_555 1_555
C22 C21 1_555 1_555
H23 C22 1_555 1_555
C23 C18 1_555 1_555
H24 C23 1_555 1_555
O1 C1 1_555 1_555
Si1 C4 1_555 1_555
C10 C11 1_555 1_555
C12 Si1 1_555 1_555
C16 C17 1_555 1_555
C18 Si1 1_555 1_555
C22 C23 1_555 1_555
O1 Si1 1_555 1_555

#END
