
#######################################################################
#
#                 Cambridge Crystallographic Data Centre
#                                CCDC 
#
#######################################################################
#
# If this CIF has been generated from an entry in the Cambridge 
# Structural Database, then it will include bibliographic, chemical, 
# crystal, experimental, refinement or atomic coordinate data resulting 
# from the CCDC's data processing and validation procedures.
#
#######################################################################

data_REKHUK
_chemical_formula_moiety         'C31 H24 O3'
_chemical_name_systematic        
(1R-(1\a,4\b,13\a,\b))-1,2,3,4-Tetrahydro-1-phenyl-6-(phenylmethyl)-9H-4,13b-epoxyanthro(1,9-bc)oxocin-9-one
_symmetry_cell_setting           triclinic
_symmetry_space_group_name_H-M   'P -1'
_symmetry_Int_Tables_number      2
_space_group_name_Hall           '-P 1'
loop_
_symmetry_equiv_pos_site_id
_symmetry_equiv_pos_as_xyz
1 x,y,z
2 -x,-y,-z
_cell_length_a                   8.888(4)
_cell_length_b                   18.204(5)
_cell_length_c                   7.888(4)
_cell_angle_alpha                95.78(3)
_cell_angle_beta                 114.53(4)
_cell_angle_gamma                96.39(3)
_cell_volume                     1138.52
_cell_formula_units_Z            2
loop_
_atom_site_label
_atom_site_type_symbol
_atom_site_fract_x
_atom_site_fract_y
_atom_site_fract_z
O1 O 0.1944(2) 0.8743(1) 0.5734(2)
O2 O 0.2882(2) 0.7770(1) 0.4387(2)
O3 O 0.5978(2) 0.6845(1) 1.1117(2)
C1 C 0.1341(3) 0.6793(2) 0.5288(3)
C2 C -0.0123(4) 0.7231(2) 0.4740(5)
C3 C -0.0096(4) 0.7739(2) 0.3348(4)
C4 C 0.1618(3) 0.8214(2) 0.4064(4)
C5 C 0.2819(3) 0.8545(1) 0.7476(3)
C6 C 0.3014(3) 0.9038(2) 0.9055(4)
C7 C 0.3969(3) 0.8862(2) 1.0826(4)
C8 C 0.4714(3) 0.8230(2) 1.1043(4)
C9 C 0.4473(3) 0.7736(1) 0.9450(3)
C10 C 0.5308(3) 0.7070(1) 0.9608(3)
C11 C 0.5416(3) 0.6718(1) 0.7870(3)
C12 C 0.6568(3) 0.6241(2) 0.8039(4)
C13 C 0.6735(4) 0.5927(2) 0.6472(5)
C14 C 0.5775(4) 0.6104(2) 0.4718(5)
C15 C 0.3058(3) 0.7342(1) 0.5890(3)
C16 C 0.4417(3) 0.6886(1) 0.6090(3)
C17 C 0.4622(4) 0.6580(2) 0.4526(4)
C18 C 0.3477(3) 0.7884(1) 0.7643(3)
C19 C 0.2096(4) 0.9698(2) 0.8815(5)
C20 C 0.0212(3) 0.9464(1) 0.7975(4)
C21 C -0.0844(4) 0.9863(2) 0.6722(4)
C22 C -0.2571(4) 0.9650(2) 0.5935(4)
C23 C -0.3267(4) 0.9038(2) 0.6375(5)
C24 C -0.2243(5) 0.8632(2) 0.7623(5)
C25 C -0.0516(4) 0.8845(2) 0.8429(5)
C26 C 0.1427(3) 0.6305(1) 0.6760(3)
C27 C 0.1094(3) 0.6542(2) 0.8281(4)
C28 C 0.1236(4) 0.6094(2) 0.9649(4)
C29 C 0.1712(4) 0.5415(2) 0.9524(5)
C30 C 0.2031(5) 0.5165(2) 0.8023(5)
C31 C 0.1878(4) 0.5600(2) 0.6646(5)
H1 H 0.1194(26) 0.6463(12) 0.4113(32)
H2 H -0.0080(33) 0.7542(15) 0.5918(40)
H3 H -0.1142(34) 0.6863(15) 0.4230(35)
H4 H -0.0903(35) 0.8079(16) 0.3150(37)
H5 H -0.0331(32) 0.7435(14) 0.2069(9)
H6 H 0.1683(28) 0.8529(13) 0.3142(33)
H7 H 0.4129(32) 0.9218(15) 1.1927(38)
H8 H 0.5423(32) 0.8112(14) 1.2301(37)
H9 H 0.7252(31) 0.6143(13) 0.9282(36)
H10 H 0.7546(37) 0.5615(16) 0.6576(39)
H11 H 0.5856(38) 0.5880(17) 0.3621(44)
H12 H 0.3953(32) 0.6708(14) 0.3280(38)
H13 H 0.2463(35) 1.0012(16) 1.0055(43)
H14 H 0.2411(37) 1.0011(17) 0.8031(42)
H15 H -0.0328(33) 1.0295(15) 0.6391(36)
H16 H -0.3271(38) 0.9977(17) 0.5089(44)
H17 H -0.4487(46) 0.8862(19) 0.5808(46)
H18 H -0.2663(40) 0.8218(19) 0.7967(44)
H19 H 0.0199(37) 0.8532(16) 0.9308(42)
H20 H 0.0726(30) 0.7010(14) 0.8401(33)
H21 H 0.0981(35) 0.6298(16) 1.0674(42)
H22 H 0.1809(39) 0.5101(18) 1.0425(46)
H23 H 0.2393(39) 0.4666(19) 0.7957(43)
H24 H 0.2065(36) 0.5445(16) 0.5606(41)
loop_
_geom_bond_atom_site_label_1
_geom_bond_atom_site_label_2
_geom_bond_site_symmetry_1
_geom_bond_site_symmetry_2
O1 C4 1_555 1_555
O2 C4 1_555 1_555
O3 C10 1_555 1_555
C1 C2 1_555 1_555
C2 C3 1_555 1_555
C3 C4 1_555 1_555
C4 H6 1_555 1_555
C5 O1 1_555 1_555
C6 C5 1_555 1_555
C7 C6 1_555 1_555
C8 C7 1_555 1_555
C9 C8 1_555 1_555
C10 C9 1_555 1_555
C11 C10 1_555 1_555
C12 C11 1_555 1_555
C13 C12 1_555 1_555
C14 C13 1_555 1_555
C15 O2 1_555 1_555
C16 C11 1_555 1_555
C17 C14 1_555 1_555
C18 C5 1_555 1_555
C19 C6 1_555 1_555
C20 C19 1_555 1_555
C21 C20 1_555 1_555
C22 C21 1_555 1_555
C23 C22 1_555 1_555
C24 C23 1_555 1_555
C25 C20 1_555 1_555
C26 C1 1_555 1_555
C27 C26 1_555 1_555
C28 C27 1_555 1_555
C29 C28 1_555 1_555
C30 C29 1_555 1_555
C31 C26 1_555 1_555
H1 C1 1_555 1_555
H2 C2 1_555 1_555
H3 C2 1_555 1_555
H4 C3 1_555 1_555
H5 C3 1_555 1_555
H7 C7 1_555 1_555
H8 C8 1_555 1_555
H9 C12 1_555 1_555
H10 C13 1_555 1_555
H11 C14 1_555 1_555
H12 C17 1_555 1_555
H13 C19 1_555 1_555
H14 C19 1_555 1_555
H15 C21 1_555 1_555
H16 C22 1_555 1_555
H17 C23 1_555 1_555
H18 C24 1_555 1_555
H19 C25 1_555 1_555
H20 C27 1_555 1_555
H21 C28 1_555 1_555
H22 C29 1_555 1_555
H23 C30 1_555 1_555
H24 C31 1_555 1_555
C1 C15 1_555 1_555
C9 C18 1_555 1_555
C15 C16 1_555 1_555
C15 C18 1_555 1_555
C16 C17 1_555 1_555
C24 C25 1_555 1_555
C30 C31 1_555 1_555

#END
