
#######################################################################
#
#                 Cambridge Crystallographic Data Centre
#                                CCDC 
#
#######################################################################
#
# If this CIF has been generated from an entry in the Cambridge 
# Structural Database, then it will include bibliographic, chemical, 
# crystal, experimental, refinement or atomic coordinate data resulting 
# from the CCDC's data processing and validation procedures.
#
#######################################################################

data_REKHAT
_chemical_formula_moiety         'C23 H15 Br1 O2'
_chemical_name_systematic        
(3-(4-bromophenyl)-2-(phenylethynyl)oxiran-2-yl)(phenyl)methanone
_symmetry_cell_setting           monoclinic
_symmetry_space_group_name_H-M   'P 21'
_symmetry_Int_Tables_number      4
_space_group_name_Hall           'P 2yb'
loop_
_symmetry_equiv_pos_site_id
_symmetry_equiv_pos_as_xyz
1 x,y,z
2 -x,1/2+y,-z
_cell_length_a                   10.7777(11)
_cell_length_b                   7.9896(8)
_cell_length_c                   11.1741(8)
_cell_angle_alpha                90
_cell_angle_beta                 99.895(9)
_cell_angle_gamma                90
_cell_volume                     947.883
_exptl_crystal_colour            'light colorless'
_exptl_crystal_description       plate
_cell_formula_units_Z            2
loop_
_atom_site_label
_atom_site_type_symbol
_atom_site_fract_x
_atom_site_fract_y
_atom_site_fract_z
Br1 Br 0.31909(13) 0.7264(2) 0.55848(11)
O1 O 0.5874(6) 0.8442(7) 0.0439(4)
C1 C 0.7487(6) 0.7372(11) 0.2054(5)
C2 C 0.8009(6) 0.7569(10) 0.3072(5)
O2 O 0.7352(10) 0.6978(11) -0.0997(5)
C3 C 0.7415(7) 0.3520(12) 0.1062(7)
H1 H 0.6948 0.3990 0.1604
C4 C 0.7821(7) 0.6907(11) 0.5138(6)
H2 H 0.7116 0.6269 0.4829
C5 C 0.8475(6) 0.7739(9) 0.4349(5)
C6 C 0.3821(7) 0.7210(14) 0.4080(7)
C7 C 0.4756(6) 0.7127(12) 0.1955(6)
C8 C 0.6698(7) 0.7077(10) 0.0885(5)
C9 C 0.4889(7) 0.8529(12) 0.2665(7)
H3 H 0.5300 0.9461 0.2424
C10 C 0.5311(7) 0.6976(10) 0.0852(6)
H4 H 0.4848 0.6263 0.0213
C11 C 0.8206(8) 0.7020(13) 0.6371(6)
H5 H 0.7751 0.6477 0.6892
C12 C 0.3635(10) 0.5766(12) 0.3386(10)
H6 H 0.3202 0.4853 0.3626
C13 C 0.7727(7) 0.4489(11) 0.0135(6)
C14 C 0.9525(8) 0.8642(14) 0.4809(7)
H7 H 0.9980 0.9193 0.4292
C15 C 0.8433(9) 0.3745(13) -0.0659(8)
H8 H 0.8652 0.4367 -0.1294
C16 C 0.9239(9) 0.7913(12) 0.6832(6)
H9 H 0.9501 0.7980 0.7668
C17 C 0.7300(9) 0.6221(10) -0.0087(6)
C18 C 0.9906(9) 0.8726(16) 0.6059(8)
H10 H 1.0619 0.9339 0.6378
C19 C 0.4121(9) 0.5746(13) 0.2325(8)
H11 H 0.4025 0.4791 0.1843
C20 C 0.4414(7) 0.8571(10) 0.3744(8)
H12 H 0.4503 0.9526 0.4227
C21 C 0.8814(9) 0.2068(16) -0.0508(10)
H13 H 0.9292 0.1587 -0.1035
C22 C 0.7787(9) 0.1851(12) 0.1199(9)
H14 H 0.7561 0.1214 0.1825
C23 C 0.8482(10) 0.1145(17) 0.0415(11)
H15 H 0.8730 0.0031 0.0512
loop_
_geom_bond_atom_site_label_1
_geom_bond_atom_site_label_2
_geom_bond_site_symmetry_1
_geom_bond_site_symmetry_2
Br1 C6 1_555 1_555
O1 C8 1_555 1_555
C1 C2 1_555 1_555
C2 C5 1_555 1_555
O2 C17 1_555 1_555
C3 H1 1_555 1_555
C4 H2 1_555 1_555
C5 C4 1_555 1_555
C6 C12 1_555 1_555
C7 C9 1_555 1_555
C8 C1 1_555 1_555
C9 H3 1_555 1_555
C10 O1 1_555 1_555
H4 C10 1_555 1_555
C11 C4 1_555 1_555
H5 C11 1_555 1_555
C12 H6 1_555 1_555
C13 C3 1_555 1_555
C14 C5 1_555 1_555
H7 C14 1_555 1_555
C15 C13 1_555 1_555
H8 C15 1_555 1_555
C16 C11 1_555 1_555
H9 C16 1_555 1_555
C17 C8 1_555 1_555
C18 C14 1_555 1_555
H10 C18 1_555 1_555
C19 C7 1_555 1_555
H11 C19 1_555 1_555
C20 C6 1_555 1_555
H12 C20 1_555 1_555
C21 C15 1_555 1_555
H13 C21 1_555 1_555
C22 C3 1_555 1_555
H14 C22 1_555 1_555
C23 C21 1_555 1_555
H15 C23 1_555 1_555
C7 C10 1_555 1_555
C8 C10 1_555 1_555
C9 C20 1_555 1_555
C12 C19 1_555 1_555
C13 C17 1_555 1_555
C16 C18 1_555 1_555
C22 C23 1_555 1_555

#END
