
#######################################################################
#
#                 Cambridge Crystallographic Data Centre
#                                CCDC 
#
#######################################################################
#
# If this CIF has been generated from an entry in the Cambridge 
# Structural Database, then it will include bibliographic, chemical, 
# crystal, experimental, refinement or atomic coordinate data resulting 
# from the CCDC's data processing and validation procedures.
#
#######################################################################

data_REKJUP
_chemical_formula_moiety         'C24 H26 Si1'
_chemical_name_systematic        3-methyl-1,1,5-triphenylsilinane
_symmetry_cell_setting           triclinic
_symmetry_space_group_name_H-M   'P -1'
_symmetry_Int_Tables_number      2
_space_group_name_Hall           '-P 1'
loop_
_symmetry_equiv_pos_site_id
_symmetry_equiv_pos_as_xyz
1 x,y,z
2 -x,-y,-z
_cell_length_a                   9.9688(8)
_cell_length_b                   10.0116(8)
_cell_length_c                   10.9523(10)
_cell_angle_alpha                65.944(4)
_cell_angle_beta                 78.590(4)
_cell_angle_gamma                81.088(4)
_cell_volume                     975.042
_exptl_crystal_colour            colorless
_exptl_crystal_description       block
_cell_formula_units_Z            2
loop_
_atom_site_label
_atom_site_type_symbol
_atom_site_fract_x
_atom_site_fract_y
_atom_site_fract_z
C1 C 0.04701(15) 0.77136(16) 0.42050(15)
H1 H -0.0147 0.7060 0.4152
H2 H 0.0068 0.7996 0.4976
C2 C 0.05828(16) 0.90941(16) 0.28910(15)
H3 H 0.1042 0.8772 0.2146
C3 C 0.15227(17) 1.01486(17) 0.29665(17)
H4 H 0.1419 1.1105 0.2200
H5 H 0.1188 1.0317 0.3810
C4 C 0.30588(17) 0.96371(18) 0.29343(17)
H6 H 0.3516 1.0404 0.3028
C5 C 0.33508(17) 0.81827(17) 0.41307(17)
H7 H 0.3263 0.8392 0.4953
H8 H 0.4313 0.7803 0.3943
C6 C 0.21214(15) 0.54102(16) 0.63034(16)
C7 C 0.23806(17) 0.38861(17) 0.67088(17)
H9 H 0.2640 0.3479 0.6041
C8 C 0.2266(2) 0.29591(18) 0.80674(18)
H10 H 0.2448 0.1928 0.8323
C9 C 0.1887(2) 0.3537(2) 0.90427(18)
H11 H 0.1806 0.2901 0.9972
C10 C 0.1624(2) 0.5044(2) 0.86763(18)
H12 H 0.1364 0.5441 0.9351
C11 C 0.17442(17) 0.59626(18) 0.73214(16)
H13 H 0.1566 0.6992 0.7075
C12 C 0.27180(16) 0.56613(17) 0.33731(16)
C13 C 0.40847(19) 0.5378(2) 0.2887(2)
H14 H 0.4784 0.5745 0.3112
C14 C 0.4450(2) 0.4574(3) 0.2081(3)
H15 H 0.5391 0.4399 0.1760
C15 C 0.3458(2) 0.4028(2) 0.1744(2)
H16 H 0.3710 0.3478 0.1191
C16 C 0.21008(18) 0.42854(19) 0.22117(18)
H17 H 0.1411 0.3905 0.1988
C17 C 0.17356(17) 0.50966(18) 0.30091(16)
H18 H 0.0791 0.5274 0.3317
C18 C -0.07972(17) 0.98965(17) 0.25092(17)
C19 C -0.20126(17) 0.96785(19) 0.34157(19)
H19 H -0.1997 0.9018 0.4329
C20 C -0.3250(2) 1.0411(2) 0.3008(2)
H20 H -0.4073 1.0244 0.3639
C21 C -0.3284(2) 1.1388(2) 0.1675(2)
H21 H -0.4130 1.1884 0.1392
C22 C -0.2087(2) 1.1633(2) 0.0767(2)
H22 H -0.2106 1.2309 -0.0141
C23 C -0.0850(2) 1.08929(18) 0.11759(18)
H23 H -0.0030 1.1066 0.0541
C24 C 0.3711(2) 0.9547(2) 0.15887(19)
H24 H 0.4707 0.9345 0.1565
H25 H 0.3508 1.0481 0.0849
H26 H 0.3337 0.8756 0.1485
Si1 Si 0.22012(4) 0.67106(4) 0.44911(4)
loop_
_geom_bond_atom_site_label_1
_geom_bond_atom_site_label_2
_geom_bond_site_symmetry_1
_geom_bond_site_symmetry_2
C1 H1 1_555 1_555
H2 C1 1_555 1_555
C2 C1 1_555 1_555
H3 C2 1_555 1_555
C3 C2 1_555 1_555
H4 C3 1_555 1_555
H5 C3 1_555 1_555
C4 C3 1_555 1_555
H6 C4 1_555 1_555
C5 C4 1_555 1_555
H7 C5 1_555 1_555
H8 C5 1_555 1_555
C6 C7 1_555 1_555
C7 H9 1_555 1_555
C8 C7 1_555 1_555
H10 C8 1_555 1_555
C9 C8 1_555 1_555
H11 C9 1_555 1_555
C10 C9 1_555 1_555
H12 C10 1_555 1_555
C11 C6 1_555 1_555
H13 C11 1_555 1_555
C12 C13 1_555 1_555
C13 H14 1_555 1_555
C14 C13 1_555 1_555
H15 C14 1_555 1_555
C15 C14 1_555 1_555
H16 C15 1_555 1_555
C16 C15 1_555 1_555
H17 C16 1_555 1_555
C17 C12 1_555 1_555
H18 C17 1_555 1_555
C18 C2 1_555 1_555
C19 C18 1_555 1_555
H19 C19 1_555 1_555
C20 C19 1_555 1_555
H20 C20 1_555 1_555
C21 C20 1_555 1_555
H21 C21 1_555 1_555
C22 C21 1_555 1_555
H22 C22 1_555 1_555
C23 C18 1_555 1_555
H23 C23 1_555 1_555
C24 C4 1_555 1_555
H24 C24 1_555 1_555
H25 C24 1_555 1_555
H26 C24 1_555 1_555
Si1 C1 1_555 1_555
C5 Si1 1_555 1_555
C6 Si1 1_555 1_555
C10 C11 1_555 1_555
C12 Si1 1_555 1_555
C16 C17 1_555 1_555
C22 C23 1_555 1_555

#END
