
#######################################################################
#
#                 Cambridge Crystallographic Data Centre
#                                CCDC 
#
#######################################################################
#
# If this CIF has been generated from an entry in the Cambridge 
# Structural Database, then it will include bibliographic, chemical, 
# crystal, experimental, refinement or atomic coordinate data resulting 
# from the CCDC's data processing and validation procedures.
#
#######################################################################

data_REKKAW
_chemical_formula_moiety         'C17 H15 N3 O2'
_chemical_name_systematic        
5-ethyl-1-(4-nitrophenyl)-3-phenyl-1H-pyrazole
_symmetry_cell_setting           monoclinic
_symmetry_space_group_name_H-M   'P 21/c'
_symmetry_Int_Tables_number      14
_space_group_name_Hall           '-P 2ybc'
loop_
_symmetry_equiv_pos_site_id
_symmetry_equiv_pos_as_xyz
1 x,y,z
2 -x,1/2+y,1/2-z
3 -x,-y,-z
4 x,1/2-y,1/2+z
_cell_length_a                   17.8522(5)
_cell_length_b                   11.1225(5)
_cell_length_c                   7.5034(3)
_cell_angle_alpha                90
_cell_angle_beta                 95.485(3)
_cell_angle_gamma                90
_cell_volume                     1483.06
_exptl_crystal_colour            yellow
_exptl_crystal_description       prism
_chemical_melting_point          '383 K'
_cell_formula_units_Z            4
loop_
_atom_site_label
_atom_site_type_symbol
_atom_site_fract_x
_atom_site_fract_y
_atom_site_fract_z
C1 C 0.98380(8) 0.71088(13) 0.09722(19)
H1 H 0.9519 0.7725 0.0536
C2 C 1.05863(9) 0.71206(15) 0.0636(2)
H2 H 1.0768 0.7743 -0.0029
C3 C 1.10649(9) 0.62098(15) 0.1285(2)
H3 H 1.1569 0.6225 0.1067
C4 C 1.07936(9) 0.52785(15) 0.2256(2)
H4 H 1.1114 0.4665 0.2693
C5 C 1.00434(9) 0.52600(14) 0.2579(2)
H5 H 0.9861 0.4625 0.3218
C6 C 0.95602(8) 0.61803(13) 0.19583(18)
C7 C 0.87659(8) 0.61572(13) 0.23504(19)
C8 C 0.83427(9) 0.51586(14) 0.2823(2)
H6 H 0.8508 0.4367 0.2943
C9 C 0.76417(8) 0.55821(14) 0.3073(2)
C10 C 0.69697(10) 0.49274(16) 0.3645(3)
H7 H 0.6596 0.4846 0.2625
H8 H 0.6749 0.5399 0.4547
C11 C 0.71678(13) 0.3689(2) 0.4397(4)
H9 H 0.7561 0.3759 0.5357
H10 H 0.7336 0.3190 0.3470
H11 H 0.6731 0.3334 0.4838
C12 C 0.71120(8) 0.76911(14) 0.28529(19)
C13 C 0.63576(9) 0.74704(16) 0.2297(2)
H12 H 0.6209 0.6718 0.1853
C14 C 0.58305(9) 0.83673(17) 0.2404(3)
H13 H 0.5325 0.8225 0.2048
C15 C 0.60664(9) 0.94793(16) 0.3049(3)
C16 C 0.68128(9) 0.97221(15) 0.3600(2)
H14 H 0.6959 1.0480 0.4027
C17 C 0.73350(8) 0.88189(14) 0.3504(2)
H15 H 0.7839 0.8964 0.3875
N1 N 0.83589(6) 0.71576(11) 0.23067(16)
N2 N 0.76659(6) 0.67946(12) 0.27387(16)
N3 N 0.55087(10) 1.04392(18) 0.3138(3)
O1 O 0.48625(9) 1.0220(2) 0.2682(4)
O2 O 0.57206(11) 1.14095(18) 0.3717(4)
loop_
_geom_bond_atom_site_label_1
_geom_bond_atom_site_label_2
_geom_bond_site_symmetry_1
_geom_bond_site_symmetry_2
C1 H1 1_555 1_555
C2 C1 1_555 1_555
H2 C2 1_555 1_555
C3 C2 1_555 1_555
H3 C3 1_555 1_555
C4 C3 1_555 1_555
H4 C4 1_555 1_555
C5 C4 1_555 1_555
H5 C5 1_555 1_555
C6 C1 1_555 1_555
C7 C6 1_555 1_555
C8 C7 1_555 1_555
H6 C8 1_555 1_555
C9 C8 1_555 1_555
C10 C9 1_555 1_555
H7 C10 1_555 1_555
H8 C10 1_555 1_555
C11 C10 1_555 1_555
H9 C11 1_555 1_555
H10 C11 1_555 1_555
H11 C11 1_555 1_555
C12 C13 1_555 1_555
C13 H12 1_555 1_555
C14 C13 1_555 1_555
H13 C14 1_555 1_555
C15 C14 1_555 1_555
C16 C15 1_555 1_555
H14 C16 1_555 1_555
C17 C12 1_555 1_555
H15 C17 1_555 1_555
N1 C7 1_555 1_555
N2 C9 1_555 1_555
N3 C15 1_555 1_555
O1 N3 1_555 1_555
O2 N3 1_555 1_555
C5 C6 1_555 1_555
C12 N2 1_555 1_555
C16 C17 1_555 1_555
N1 N2 1_555 1_555

#END
