
#######################################################################
#
#                 Cambridge Crystallographic Data Centre
#                                CCDC 
#
#######################################################################
#
# If this CIF has been generated from an entry in the Cambridge 
# Structural Database, then it will include bibliographic, chemical, 
# crystal, experimental, refinement or atomic coordinate data resulting 
# from the CCDC's data processing and validation procedures.
#
#######################################################################

data_REKLUP
_chemical_formula_moiety         'C14 H18 N6 O1 S1'
_chemical_name_systematic        
5-Amino-4-cyano-1-((1-t-butyl-5-methyl-4-pyrazolyl)carbonyl)-3-methylthio-1H-pyrazole
_chemical_properties_biological  'low inhibiting activity against four fungi'
_symmetry_cell_setting           monoclinic
_symmetry_space_group_name_H-M   'P 21/c'
_symmetry_Int_Tables_number      14
_space_group_name_Hall           '-P 2ybc'
loop_
_symmetry_equiv_pos_site_id
_symmetry_equiv_pos_as_xyz
1 x,y,z
2 -x,1/2+y,1/2-z
3 -x,-y,-z
4 x,1/2-y,1/2+z
_cell_length_a                   13.566(4)
_cell_length_b                   10.833(3)
_cell_length_c                   11.202(3)
_cell_angle_alpha                90
_cell_angle_beta                 98.073(5)
_cell_angle_gamma                90
_cell_volume                     1629.94
_exptl_crystal_colour            yellow
_cell_formula_units_Z            4
_exptl_crystal_recrystallization_method ethanol
loop_
_atom_site_label
_atom_site_type_symbol
_atom_site_fract_x
_atom_site_fract_y
_atom_site_fract_z
S1 S 0.39233(6) 1.12969(6) 0.54146(6)
O1 O 0.28509(15) 0.62431(15) 0.72369(16)
N1 N 0.13234(15) 0.56147(18) 0.37826(19)
N2 N 0.11039(18) 0.6821(2) 0.3517(2)
N3 N 0.32193(13) 0.81223(16) 0.65690(15)
N4 N 0.32032(14) 0.89905(16) 0.56362(17)
N5 N 0.39246(15) 0.78883(19) 0.86391(17)
H1 H 0.3649 0.7143 0.8668
H2 H 0.4224 0.8263 0.9344
N6 N 0.4987(2) 1.1184(2) 0.8941(2)
C1 C 0.2377(2) 0.4326(2) 0.5356(3)
H3 H 0.2281 0.3684 0.4760
H4 H 0.2048 0.4105 0.6030
H5 H 0.3076 0.4432 0.5621
C2 C 0.19504(17) 0.5499(2) 0.4822(2)
C3 C 0.21554(16) 0.6695(2) 0.5247(2)
C4 C 0.16143(19) 0.7450(2) 0.4391(2)
H9 H 0.1615 0.8307 0.4435
C5 C 0.27489(17) 0.6965(2) 0.6402(2)
C6 C 0.37554(16) 0.8535(2) 0.7628(2)
C7 C 0.40670(16) 0.9719(2) 0.7378(2)
C8 C 0.37070(16) 0.9930(2) 0.6148(2)
C9 C 0.3358(3) 1.0998(3) 0.3928(3)
H10 H 0.3434 1.1704 0.3431
H11 H 0.2662 1.0833 0.3926
H12 H 0.3669 1.0294 0.3617
C10 C 0.45874(18) 1.0532(2) 0.8227(2)
C11 C 0.08118(19) 0.4657(2) 0.2948(2)
C12 C 0.1512(7) 0.4072(11) 0.2248(10)
H13 H 0.1789 0.4684 0.1772
H14 H 0.1171 0.3459 0.1726
H15 H 0.2037 0.3688 0.2784
C13 C 0.0328(8) 0.3748(9) 0.3720(7)
H16 H -0.0198 0.4153 0.4059
H17 H 0.0817 0.3450 0.4358
H18 H 0.0059 0.3067 0.3232
C14 C -0.0052(9) 0.5284(7) 0.2125(12)
H19 H -0.0091 0.6136 0.2347
H20 H -0.0666 0.4877 0.2214
H21 H 0.0064 0.5228 0.1301
H6? H 0.2656 0.4464 0.6181
H7? H 0.2888 0.4042 0.4911
H8? H 0.1861 0.3715 0.5320
C15? C 0.1547(9) 0.3553(13) 0.2785(15)
H22? H 0.1653 0.3072 0.3511
H23? H 0.2172 0.3877 0.2618
H24? H 0.1262 0.3040 0.2127
C16? C -0.0066(10) 0.4148(18) 0.3389(13)
H25? H -0.0545 0.4793 0.3436
H26? H 0.0123 0.3798 0.4175
H27? H -0.0355 0.3519 0.2846
C17? C 0.0605(14) 0.5203(11) 0.1690(7)
H28? H 0.0406 0.6049 0.1741
H29? H 0.0082 0.4745 0.1220
H30? H 0.1198 0.5160 0.1313
loop_
_geom_bond_atom_site_label_1
_geom_bond_atom_site_label_2
_geom_bond_site_symmetry_1
_geom_bond_site_symmetry_2
S1 C8 1_555 1_555
O1 C5 1_555 1_555
N1 N2 1_555 1_555
N2 C4 1_555 1_555
N3 N4 1_555 1_555
N4 C8 1_555 1_555
N5 H1 1_555 1_555
H2 N5 1_555 1_555
N6 C10 1_555 1_555
C1 H3 1_555 1_555
H4 C1 1_555 1_555
H5 C1 1_555 1_555
C2 N1 1_555 1_555
C3 C2 1_555 1_555
C4 C3 1_555 1_555
H9 C4 1_555 1_555
C5 N3 1_555 1_555
C6 N3 1_555 1_555
C7 C6 1_555 1_555
C8 C7 1_555 1_555
C9 S1 1_555 1_555
H10 C9 1_555 1_555
H11 C9 1_555 1_555
H12 C9 1_555 1_555
C10 C7 1_555 1_555
C11 N1 1_555 1_555
C12 C11 1_555 1_555
H13 C12 1_555 1_555
H14 C12 1_555 1_555
H15 C12 1_555 1_555
C13 C11 1_555 1_555
H16 C13 1_555 1_555
H17 C13 1_555 1_555
H18 C13 1_555 1_555
C14 C11 1_555 1_555
H19 C14 1_555 1_555
H20 C14 1_555 1_555
H21 C14 1_555 1_555
N5 C6 1_555 1_555
C1 C2 1_555 1_555
C3 C5 1_555 1_555

#END
