
#######################################################################
#
#                 Cambridge Crystallographic Data Centre
#                                CCDC 
#
#######################################################################
#
# If this CIF has been generated from an entry in the Cambridge 
# Structural Database, then it will include bibliographic, chemical, 
# crystal, experimental, refinement or atomic coordinate data resulting 
# from the CCDC's data processing and validation procedures.
#
#######################################################################

data_REKXIP
_chemical_formula_moiety         'C22 H4 F10 N4 O2'
_chemical_name_systematic        
1,4-bis(5-(Perfluorophenyl)-1,3,4-oxadiazol-2-yl)benzene
_symmetry_cell_setting           triclinic
_symmetry_space_group_name_H-M   'P -1'
_symmetry_Int_Tables_number      2
_space_group_name_Hall           '-P 1'
loop_
_symmetry_equiv_pos_site_id
_symmetry_equiv_pos_as_xyz
1 x,y,z
2 -x,-y,-z
_cell_length_a                   7.3223(14)
_cell_length_b                   7.5889(15)
_cell_length_c                   8.7140(17)
_cell_angle_alpha                83.383(3)
_cell_angle_beta                 77.723(4)
_cell_angle_gamma                89.083(3)
_cell_volume                     469.978
_exptl_crystal_colour            colorless
_exptl_crystal_description       plate
_cell_formula_units_Z            1
loop_
_atom_site_label
_atom_site_type_symbol
_atom_site_fract_x
_atom_site_fract_y
_atom_site_fract_z
C1 C -0.0387(3) 0.6803(3) -0.0230(3)
H1 H -0.0652 0.8020 -0.0376
C2 C 0.0460(3) 0.6133(3) 0.1004(3)
C3 C -0.0838(3) 0.5680(3) -0.1237(3)
H2 H -0.1396 0.6133 -0.2076
C4 C 0.0978(3) 0.7369(3) 0.2010(3)
N1 N 0.1024(3) 0.9078(3) 0.1772(2)
N2 N 0.1664(3) 0.9664(3) 0.3042(2)
C5 C 0.1944(3) 0.8246(3) 0.3926(3)
O1 O 0.1543(2) 0.67297(19) 0.33622(17)
C6 C 0.2671(3) 0.8122(3) 0.5379(3)
C7 C 0.3225(3) 0.6522(3) 0.6101(3)
C8 C 0.4013(3) 0.6446(3) 0.7416(3)
C9 C 0.4217(3) 0.7977(3) 0.8077(3)
C10 C 0.3656(3) 0.9577(3) 0.7413(3)
C11 C 0.2916(3) 0.9639(3) 0.6083(3)
F1 F 0.3015(2) 0.49867(17) 0.55365(16)
F2 F 0.4554(2) 0.48944(18) 0.80517(17)
F3 F 0.4958(2) 0.7906(2) 0.93537(17)
F4 F 0.3857(2) 1.10704(19) 0.80343(17)
F5 F 0.2452(2) 1.12402(17) 0.54566(16)
C1A C 0.0387(3) 0.3197(3) 0.0230(3)
H1A H 0.0652 0.1980 0.0376
C2A C -0.0460(3) 0.3867(3) -0.1004(3)
C3A C 0.0838(3) 0.4320(3) 0.1237(3)
H2A H 0.1396 0.3867 0.2076
C4A C -0.0978(3) 0.2631(3) -0.2010(3)
N1A N -0.1024(3) 0.0922(3) -0.1772(2)
N2A N -0.1664(3) 0.0336(3) -0.3042(2)
C5A C -0.1944(3) 0.1754(3) -0.3926(3)
O1A O -0.1543(2) 0.32703(19) -0.33622(17)
C6A C -0.2671(3) 0.1878(3) -0.5379(3)
C7A C -0.3225(3) 0.3478(3) -0.6101(3)
C8A C -0.4013(3) 0.3554(3) -0.7416(3)
C9A C -0.4217(3) 0.2023(3) -0.8077(3)
C10A C -0.3656(3) 0.0423(3) -0.7413(3)
C11A C -0.2916(3) 0.0361(3) -0.6083(3)
F1A F -0.3015(2) 0.50133(17) -0.55365(16)
F2A F -0.4554(2) 0.51056(18) -0.80517(17)
F3A F -0.4958(2) 0.2094(2) -0.93537(17)
F4A F -0.3857(2) -0.10704(19) -0.80343(17)
F5A F -0.2452(2) -0.12402(17) -0.54566(16)
loop_
_geom_bond_atom_site_label_1
_geom_bond_atom_site_label_2
_geom_bond_site_symmetry_1
_geom_bond_site_symmetry_2
C1 H1 1_555 1_555
C2 C1 1_555 1_555
C3 C1 1_555 1_555
H2 C3 1_555 1_555
C4 C2 1_555 1_555
N1 C4 1_555 1_555
N2 N1 1_555 1_555
C5 N2 1_555 1_555
O1 C4 1_555 1_555
C6 C5 1_555 1_555
C7 C6 1_555 1_555
C8 C7 1_555 1_555
C9 C8 1_555 1_555
C10 C9 1_555 1_555
C11 C6 1_555 1_555
F1 C7 1_555 1_555
F2 C8 1_555 1_555
F3 C9 1_555 1_555
F4 C10 1_555 1_555
F5 C11 1_555 1_555
C1A H1A 1_555 1_555
C2A C3 1_555 1_555
C3A C2 1_555 1_555
H2A C3A 1_555 1_555
C4A C2A 1_555 1_555
N1A C4A 1_555 1_555
N2A N1A 1_555 1_555
C5A N2A 1_555 1_555
O1A C4A 1_555 1_555
C6A C5A 1_555 1_555
C7A C6A 1_555 1_555
C8A C7A 1_555 1_555
C9A C8A 1_555 1_555
C10A C9A 1_555 1_555
C11A C6A 1_555 1_555
F1A C7A 1_555 1_555
F2A C8A 1_555 1_555
F3A C9A 1_555 1_555
F4A C10A 1_555 1_555
F5A C11A 1_555 1_555
C5 O1 1_555 1_555
C10 C11 1_555 1_555
C1A C2A 1_555 1_555
C1A C3A 1_555 1_555
C5A O1A 1_555 1_555
C10A C11A 1_555 1_555

#END
