
#######################################################################
#
#                 Cambridge Crystallographic Data Centre
#                                CCDC 
#
#######################################################################
#
# If this CIF has been generated from an entry in the Cambridge 
# Structural Database, then it will include bibliographic, chemical, 
# crystal, experimental, refinement or atomic coordinate data resulting 
# from the CCDC's data processing and validation procedures.
#
#######################################################################

data_REKYIR
_chemical_formula_moiety         'C33 H43 N7 O2,0.5(C4 H8 O2),2(H2 O1)'
_chemical_name_systematic        
'26,32-dimethyl-1,8,16,23,26,32,37-heptaazapentacyclo[21.6.6.1^3,7^.1^10,14^.1^17,21^]octatriaconta-3(38),4,6,10(37),11,13,17(36),18,20-nonaene-9,15-dione ethyl acetate solvate dihydrate'
_symmetry_cell_setting           monoclinic
_symmetry_space_group_name_H-M   'C 2/c'
_symmetry_Int_Tables_number      15
_space_group_name_Hall           '-C 2yn'
loop_
_symmetry_equiv_pos_site_id
_symmetry_equiv_pos_as_xyz
1 x,y,z
2 -x,y,1/2-z
3 1/2+x,1/2+y,z
4 1/2-x,1/2+y,1/2-z
5 -x,-y,-z
6 x,-y,1/2+z
7 1/2-x,1/2-y,-z
8 1/2+x,1/2-y,1/2+z
_cell_length_a                   15.9011(10)
_cell_length_b                   19.9913(12)
_cell_length_c                   21.7382(14)
_cell_angle_alpha                90
_cell_angle_beta                 95.5310(10)
_cell_angle_gamma                90
_cell_volume                     6878.05
_exptl_crystal_colour            colorless
_exptl_crystal_description       prism
_cell_formula_units_Z            8
loop_
_atom_site_label
_atom_site_type_symbol
_atom_site_fract_x
_atom_site_fract_y
_atom_site_fract_z
O3 O 0.09865(10) -0.13094(8) 0.45021(8)
H1 H 0.138(2) -0.1293(14) 0.4261(14)
H2 H 0.1125(18) -0.1070(15) 0.4827(15)
O4 O -0.20821(10) 0.13437(9) 0.63551(8)
H3 H -0.236(2) 0.1000(18) 0.6390(15)
H4 H -0.2388(19) 0.1710(16) 0.6385(14)
O1 O 0.12641(10) -0.04742(8) 0.55563(7)
O2 O 0.14138(11) 0.29975(8) 0.59959(9)
N1 N 0.01091(11) 0.01255(9) 0.58027(8)
H5 H -0.0075 0.0538 0.5832
N2 N 0.10044(10) 0.12659(8) 0.57878(8)
N3 N 0.01808(12) 0.24137(9) 0.60254(8)
H6 H -0.0044 0.2015 0.5960
N4 N -0.29954(13) 0.25713(11) 0.65128(10)
N5 N -0.29648(12) 0.01107(10) 0.65324(9)
C1 C 0.09089(13) 0.00580(10) 0.56557(9)
C2 C 0.13795(13) 0.07092(10) 0.56144(9)
C3 C 0.21701(13) 0.07028(11) 0.53920(9)
H7 H 0.2417 0.0295 0.5276
C4 C 0.25892(14) 0.13045(12) 0.53440(10)
H8 H 0.3124 0.1319 0.5183
C5 C 0.22185(13) 0.18845(11) 0.55341(9)
H9 H 0.2501 0.2302 0.5520
C6 C 0.14216(13) 0.18434(10) 0.57473(9)
C7 C 0.10056(14) 0.24771(11) 0.59374(10)
C8 C -0.03609(15) 0.29213(11) 0.62120(11)
C9 C -0.0062(2) 0.35074(14) 0.65054(14)
H10 H 0.0528 0.3582 0.6594
C10 C -0.0643(2) 0.39771(16) 0.66643(18)
H11 H -0.0445 0.4381 0.6858
C11 C -0.1501(2) 0.38741(15) 0.65492(17)
H12 H -0.1885 0.4206 0.6661
C12 C -0.18032(17) 0.32867(13) 0.62709(13)
C13 C -0.12265(15) 0.28186(12) 0.60981(11)
H13 H -0.1427 0.2419 0.5898
C14 C -0.27381(17) 0.31564(14) 0.61479(14)
H14 H -0.3055 0.3558 0.6259
H15 H -0.2881 0.3069 0.5702
C15 C -0.38719(17) 0.23927(14) 0.63153(12)
H16 H -0.4251 0.2784 0.6329
H17 H -0.4074 0.2030 0.6574
N6 N -0.4457(3) 0.1019(2) 0.58051(16)
C16 C -0.4127(4) 0.2231(3) 0.5635(2)
H18 H -0.4445 0.2620 0.5452
H19 H -0.3602 0.2197 0.5427
C17 C -0.4601(3) 0.1667(2) 0.54835(18)
H20 H -0.4553 0.1580 0.5040
H21 H -0.5197 0.1789 0.5519
C18 C -0.5246(3) 0.0642(3) 0.5743(2)
H22 H -0.5164 0.0214 0.5959
H23 H -0.5418 0.0561 0.5304
H24 H -0.5686 0.0900 0.5923
C19 C -0.3790(3) 0.0633(3) 0.5556(2)
H25 H -0.3299 0.0931 0.5529
H26 H -0.3993 0.0498 0.5130
C20 C -0.34652(15) -0.00313(14) 0.59324(11)
H27 H -0.3200 -0.0416 0.5739
H28 H -0.4037 -0.0175 0.6022
C21 C -0.29037(16) 0.27295(13) 0.71801(11)
H29 H -0.3401 0.2993 0.7279
H30 H -0.2397 0.3014 0.7271
N7 N -0.3566(3) 0.16643(18) 0.76573(17)
C22 C -0.2818(3) 0.2079(2) 0.7626(2)
H31 H -0.2363 0.1792 0.7490
H32 H -0.2630 0.2233 0.8050
C23 C -0.4156(3) 0.2012(2) 0.8021(2)
H33 H -0.4664 0.1738 0.8042
H34 H -0.4314 0.2442 0.7826
H35 H -0.3888 0.2090 0.8440
C24 C -0.3367(3) 0.10218(18) 0.79605(17)
H36 H -0.3900 0.0805 0.8054
H37 H -0.3025 0.1104 0.8358
C25 C -0.2883(3) 0.05407(19) 0.75698(17)
H38 H -0.2683 0.0147 0.7819
H39 H -0.2387 0.0769 0.7423
C26 C -0.35178(18) 0.03118(13) 0.69979(11)
H40 H -0.3872 -0.0068 0.7112
H41 H -0.3890 0.0685 0.6846
C27 C -0.24823(16) -0.04921(13) 0.67331(12)
H42 H -0.2879 -0.0874 0.6728
H43 H -0.2243 -0.0427 0.7166
C28 C -0.17728(14) -0.06755(12) 0.63527(10)
C29 C -0.16605(15) -0.13380(12) 0.61804(11)
H44 H -0.2066 -0.1666 0.6265
C30 C -0.09620(15) -0.15208(11) 0.58869(10)
H45 H -0.0892 -0.1976 0.5775
C31 C -0.03592(14) -0.10534(11) 0.57515(10)
H46 H 0.0119 -0.1186 0.5551
C32 C -0.04696(13) -0.03870(11) 0.59154(9)
C33 C -0.11748(14) -0.02017(11) 0.62140(10)
H47 H -0.1248 0.0253 0.6324
O5? O 0.1039(2) -0.0215(2) 0.71255(16)
O6? O 0.0000 0.02975(12) 0.7500
C34? C -0.0283(3) 0.1478(3) 0.7515(3)
C35? C 0.0337(3) 0.0942(3) 0.7394(2)
C36? C 0.0381(3) -0.0246(3) 0.7353(2)
C37? C 0.0000 -0.08830(19) 0.7500
C38? C -0.3810(5) 0.2148(5) 0.5622(4)
C39? C -0.3876(4) 0.1635(4) 0.5389(3)
C40? C -0.4912(6) 0.0861(4) 0.5690(4)
C41? C -0.3557(5) 0.0479(4) 0.5503(4)
C42? C -0.2610(6) 0.2253(4) 0.7563(4)
C43? C -0.3877(6) 0.1869(5) 0.7936(5)
C44? C -0.2773(5) 0.1085(3) 0.7770(3)
C45? C -0.3334(6) 0.0478(4) 0.7679(3)
H48? H -0.4226 0.2430 0.5374
H49? H -0.3249 0.2309 0.5525
H50? H -0.3348 0.1556 0.5193
H51? H -0.4335 0.1674 0.5050
H52? H -0.4978 0.0454 0.5932
H53? H -0.5121 0.0780 0.5258
H54? H -0.5234 0.1226 0.5856
H55? H -0.3852 0.0306 0.5113
H56? H -0.2992 0.0638 0.5414
H57? H -0.2505 0.2438 0.7986
H58? H -0.2066 0.2086 0.7436
H59? H -0.4150 0.2283 0.7782
H60? H -0.3644 0.1931 0.8366
H61? H -0.4293 0.1506 0.7913
H62? H -0.2572 0.1126 0.8214
H63? H -0.2273 0.1024 0.7538
H64? H -0.3872 0.0563 0.7860
H65? H -0.3054 0.0091 0.7897
N8? N -0.4038(5) 0.1041(3) 0.5726(3)
N9? N -0.3206(5) 0.1702(4) 0.7565(3)
loop_
_geom_bond_atom_site_label_1
_geom_bond_atom_site_label_2
_geom_bond_site_symmetry_1
_geom_bond_site_symmetry_2
O1 C1 1_555 1_555
O2 C7 1_555 1_555
O3 H1 1_555 1_555
H2 O3 1_555 1_555
O4 H3 1_555 1_555
H4 O4 1_555 1_555
N1 H5 1_555 1_555
N2 C2 1_555 1_555
N3 H6 1_555 1_555
N4 C14 1_555 1_555
N5 C20 1_555 1_555
C1 N1 1_555 1_555
C2 C1 1_555 1_555
C3 C2 1_555 1_555
H7 C3 1_555 1_555
C4 C3 1_555 1_555
H8 C4 1_555 1_555
C5 C4 1_555 1_555
H9 C5 1_555 1_555
C6 N2 1_555 1_555
C7 N3 1_555 1_555
C8 N3 1_555 1_555
C9 C8 1_555 1_555
H10 C9 1_555 1_555
C10 C9 1_555 1_555
H11 C10 1_555 1_555
C11 C10 1_555 1_555
H12 C11 1_555 1_555
C12 C11 1_555 1_555
C13 C8 1_555 1_555
H13 C13 1_555 1_555
C14 C12 1_555 1_555
H14 C14 1_555 1_555
H15 C14 1_555 1_555
C15 N4 1_555 1_555
H16 C15 1_555 1_555
H17 C15 1_555 1_555
N6 C17 1_555 1_555
C16 C15 1_555 1_555
H18 C16 1_555 1_555
H19 C16 1_555 1_555
C17 C16 1_555 1_555
H20 C17 1_555 1_555
H21 C17 1_555 1_555
C18 N6 1_555 1_555
H22 C18 1_555 1_555
H23 C18 1_555 1_555
H24 C18 1_555 1_555
C19 N6 1_555 1_555
H25 C19 1_555 1_555
H26 C19 1_555 1_555
C20 C19 1_555 1_555
H27 C20 1_555 1_555
H28 C20 1_555 1_555
C21 N4 1_555 1_555
H29 C21 1_555 1_555
H30 C21 1_555 1_555
N7 C22 1_555 1_555
C22 C21 1_555 1_555
H31 C22 1_555 1_555
H32 C22 1_555 1_555
C23 N7 1_555 1_555
H33 C23 1_555 1_555
H34 C23 1_555 1_555
H35 C23 1_555 1_555
C24 N7 1_555 1_555
H36 C24 1_555 1_555
H37 C24 1_555 1_555
C25 C24 1_555 1_555
H38 C25 1_555 1_555
H39 C25 1_555 1_555
C26 N5 1_555 1_555
H40 C26 1_555 1_555
H41 C26 1_555 1_555
C27 N5 1_555 1_555
H42 C27 1_555 1_555
H43 C27 1_555 1_555
C28 C27 1_555 1_555
C29 C28 1_555 1_555
H44 C29 1_555 1_555
C30 C29 1_555 1_555
H45 C30 1_555 1_555
C31 C30 1_555 1_555
H46 C31 1_555 1_555
C32 N1 1_555 1_555
C33 C28 1_555 1_555
H47 C33 1_555 1_555
C5 C6 1_555 1_555
C6 C7 1_555 1_555
C12 C13 1_555 1_555
C25 C26 1_555 1_555
C31 C32 1_555 1_555
C32 C33 1_555 1_555

#END
