
#######################################################################
#
#                 Cambridge Crystallographic Data Centre
#                                CCDC 
#
#######################################################################
#
# If this CIF has been generated from an entry in the Cambridge 
# Structural Database, then it will include bibliographic, chemical, 
# crystal, experimental, refinement or atomic coordinate data resulting 
# from the CCDC's data processing and validation procedures.
#
#######################################################################

data_REKYUC
_chemical_formula_moiety         'C20 H14 N2 O2'
_chemical_name_systematic        2,7'-Ethylenebis(8-hydroxyquinoline)
_symmetry_cell_setting           triclinic
_symmetry_space_group_name_H-M   'P -1'
_symmetry_Int_Tables_number      2
_space_group_name_Hall           '-P 1'
loop_
_symmetry_equiv_pos_site_id
_symmetry_equiv_pos_as_xyz
1 x,y,z
2 -x,-y,-z
_cell_length_a                   7.4730(10)
_cell_length_b                   8.3233(11)
_cell_length_c                   13.1239(17)
_cell_angle_alpha                102.054(2)
_cell_angle_beta                 95.030(2)
_cell_angle_gamma                109.753(2)
_cell_volume                     740.145
_exptl_crystal_colour            yellow
_exptl_crystal_description       block
_chemical_melting_point          '231-233 deg.C'
_cell_formula_units_Z            2
_exptl_crystal_recrystallization_method toluene
loop_
_atom_site_label
_atom_site_type_symbol
_atom_site_fract_x
_atom_site_fract_y
_atom_site_fract_z
C1 C 0.9257(2) 0.54812(18) 0.15330(11)
H1 H 0.9960 0.5129 0.2003
C2 C 0.9364(2) 0.71510(18) 0.18241(12)
H2 H 0.8695 0.7536 0.1357
C3 C 1.0443(2) 0.84184(18) 0.28135(12)
C4 C 1.1478(2) 0.7949(2) 0.35913(13)
H3 H 1.1497 0.6813 0.3466
C5 C 1.2430(2) 0.9144(2) 0.45079(13)
H4 H 1.3095 0.8825 0.5015
C6 C 1.3367(3) 1.2201(2) 0.56360(13)
H5 H 1.4077 1.1971 0.6168
C7 C 1.3244(3) 1.3826(2) 0.57612(14)
H6 H 1.3874 1.4697 0.6381
C8 C 1.2187(3) 1.4202(2) 0.49755(13)
H7 H 1.2108 1.5315 0.5078
C9 C 1.1270(2) 1.29492(19) 0.40604(12)
C10 C 1.1363(2) 1.12367(18) 0.38952(11)
C11 C 1.2425(2) 1.08759(19) 0.47043(12)
C12 C 0.8174(2) 0.41458(18) 0.05699(11)
C13 C 0.6947(2) 0.44568(19) -0.01918(12)
H8 H 0.6911 0.5584 -0.0097
C14 C 0.5827(2) 0.3179(2) -0.10508(12)
H9 H 0.5030 0.3436 -0.1525
C15 C 0.4687(2) 0.0019(2) -0.20627(13)
H10 H 0.3777 0.0156 -0.2533
C16 C 0.4884(3) -0.1574(2) -0.21790(14)
H11 H 0.4104 -0.2536 -0.2724
C17 C 0.6276(3) -0.1743(2) -0.14681(13)
H12 H 0.6424 -0.2828 -0.1574
C18 C 0.8281(2) 0.24853(18) 0.03725(11)
C19 C 0.7156(2) 0.11257(18) -0.05267(11)
C20 C 0.5862(2) 0.14508(19) -0.12305(12)
N1 N 1.03837(17) 1.00313(15) 0.29683(9)
N2 N 0.7390(2) -0.04601(16) -0.06578(10)
O1 O 1.0233(2) 1.33232(16) 0.33027(9)
H13 H 0.9922 1.2524 0.2760
O2 O 0.94964(17) 0.21287(14) 0.10469(8)
H14 H 0.9482 0.1131 0.0807
loop_
_geom_bond_atom_site_label_1
_geom_bond_atom_site_label_2
_geom_bond_site_symmetry_1
_geom_bond_site_symmetry_2
C1 H1 1_555 1_555
C2 C1 1_555 1_555
H2 C2 1_555 1_555
C3 C2 1_555 1_555
C4 C3 1_555 1_555
H3 C4 1_555 1_555
C5 C4 1_555 1_555
H4 C5 1_555 1_555
C6 H5 1_555 1_555
C7 C6 1_555 1_555
H6 C7 1_555 1_555
C8 C7 1_555 1_555
H7 C8 1_555 1_555
C9 C8 1_555 1_555
C10 C9 1_555 1_555
C11 C5 1_555 1_555
C12 C1 1_555 1_555
C13 C12 1_555 1_555
H8 C13 1_555 1_555
C14 C13 1_555 1_555
H9 C14 1_555 1_555
C15 H10 1_555 1_555
C16 C15 1_555 1_555
H11 C16 1_555 1_555
C17 C16 1_555 1_555
H12 C17 1_555 1_555
C18 C12 1_555 1_555
C19 C18 1_555 1_555
C20 C14 1_555 1_555
N1 C3 1_555 1_555
N2 C17 1_555 1_555
O1 C9 1_555 1_555
H13 O1 1_555 1_555
O2 C18 1_555 1_555
H14 O2 1_555 1_555
C6 C11 1_555 1_555
C10 C11 1_555 1_555
C10 N1 1_555 1_555
C15 C20 1_555 1_555
C19 C20 1_555 1_555
C19 N2 1_555 1_555

#END
