
#######################################################################
#
#                 Cambridge Crystallographic Data Centre
#                                CCDC 
#
#######################################################################
#
# If this CIF has been generated from an entry in the Cambridge 
# Structural Database, then it will include bibliographic, chemical, 
# crystal, experimental, refinement or atomic coordinate data resulting 
# from the CCDC's data processing and validation procedures.
#
#######################################################################

data_REKZUF
_chemical_formula_moiety         'C48 H52 N2 O16,C4 H8 O2'
_chemical_name_systematic        
"tetraethyl 1,1'-(1,2-phenylenedicarbonyl)bis[4-(3,4,5-trimethoxyphenyl)-1,4-dihydropyridine-3,5-dicarboxylate] ethyl acetate solvate"
_symmetry_cell_setting           triclinic
_symmetry_space_group_name_H-M   'P -1'
_symmetry_Int_Tables_number      2
_space_group_name_Hall           '-P 1'
loop_
_symmetry_equiv_pos_site_id
_symmetry_equiv_pos_as_xyz
1 x,y,z
2 -x,-y,-z
_cell_length_a                   11.5665(7)
_cell_length_b                   14.9915(10)
_cell_length_c                   15.9584(8)
_cell_angle_alpha                101.715(5)
_cell_angle_beta                 110.949(5)
_cell_angle_gamma                90.694(5)
_cell_volume                     2519.55
_cell_formula_units_Z            2
loop_
_atom_site_label
_atom_site_type_symbol
_atom_site_fract_x
_atom_site_fract_y
_atom_site_fract_z
O1 O 0.51420(12) 0.33055(8) 0.22761(8)
O2 O 0.37808(11) 0.68374(8) 0.41986(8)
O3 O -0.01897(11) 0.18597(8) -0.25821(8)
O4 O 0.51637(11) 0.15235(8) -0.14854(8)
O5 O 0.68391(12) 0.22082(9) -0.02598(8)
O6 O 0.01436(11) 0.35571(8) -0.15633(8)
O7 O 0.19028(12) -0.03903(8) -0.10894(9)
O8 O 0.75761(11) 0.61324(8) 0.66816(8)
O9 O 0.88817(12) 0.92085(8) 0.49905(9)
O10 O 0.20975(11) 0.40785(8) 0.00423(8)
N1 N 0.60258(13) 0.43250(9) 0.36473(9)
O11 O 0.90598(12) 0.75858(8) 0.39957(9)
O12 O 0.19330(12) -0.02981(8) 0.03426(9)
O13 O 0.84927(13) 0.48589(9) 0.63720(9)
C1 C 0.18465(16) 0.15121(12) -0.16165(12)
H1 H 0.1788 0.0949 -0.2010
C2 C 0.81473(16) 0.84498(12) 0.49426(12)
O14 O 0.53210(14) 0.13569(10) 0.29038(9)
C3 C 0.29891(16) 0.26253(11) -0.02214(11)
H2 H 0.3670 0.2796 0.0328
C4 C 0.75676(16) 0.68267(11) 0.44452(12)
H3 H 0.7635 0.6257 0.4113
N2 N 0.52567(14) 0.13408(9) 0.14589(9)
C5 C 0.60131(15) 0.60473(11) 0.48995(11)
H4 H 0.5581 0.6202 0.5331
C6 C 0.60452(16) 0.35595(12) 0.29849(12)
O15 O 0.34532(12) 0.61801(9) 0.27265(8)
C7 C 0.40218(16) 0.62535(12) 0.35433(12)
C8 C 0.28735(15) 0.17731(11) -0.07982(11)
C9 C 0.57578(17) 0.16458(11) 0.08763(12)
H5 H 0.6547 0.1959 0.1129
C10 C 0.10324(16) 0.29643(11) -0.12863(12)
C11 C 0.20759(16) 0.32254(11) -0.04717(12)
C12 C 0.67783(15) 0.69069(11) 0.49356(11)
C13 C 0.09084(16) 0.20916(12) -0.18455(12)
C14 C 0.72019(16) 0.30787(12) 0.31501(11)
C15 C 0.38121(16) 0.10741(11) -0.04989(11)
H6 H 0.3754 0.0610 -0.1046
C16 C 0.23676(17) -0.00688(11) -0.02661(12)
C17 C 0.51102(16) 0.49254(12) 0.33830(12)
H7 H 0.4512 0.4772 0.2791
C18 C 0.51358(16) 0.15004(11) -0.00329(12)
C19 C 0.58159(16) 0.17932(12) -0.05762(12)
C20 C 0.41315(17) 0.07772(11) 0.10574(12)
H8 H 0.3836 0.0515 0.1432
C21 C -0.03851(18) 0.09461(12) -0.31229(13)
H9 H -0.1230 0.0828 -0.3551
H10 H -0.0224 0.0522 -0.2727
H11 H 0.0168 0.0875 -0.3455
C22 C 0.73582(17) 0.85217(12) 0.54361(13)
C23 C 0.66701(17) 0.77527(12) 0.54309(12)
H12 H 0.6141 0.7806 0.5758
C24 C 0.68350(16) 0.52951(11) 0.51611(12)
O16 O 0.73417(14) 0.93865(9) 0.59127(11)
C25 C 0.68401(16) 0.45303(11) 0.45651(11)
H13 H 0.7410 0.4116 0.4770
C26 C 0.82567(16) 0.75966(12) 0.44508(12)
C27 C 0.08792(18) -0.09970(12) -0.00488(13)
H14 H 0.1111 -0.1559 -0.0346
H15 H 0.0189 -0.0792 -0.0504
C28 C 0.57701(17) 0.17449(13) -0.20821(12)
H16 H 0.6507 0.1420 -0.2012
H17 H 0.6015 0.2396 -0.1930
C29 C 0.70703(17) 0.21276(12) 0.28215(11)
C30 C 0.77262(17) 0.53864(12) 0.61216(12)
C31 C 0.32158(17) 0.44222(12) 0.08111(12)
H18 H 0.3897 0.4442 0.0603
H19 H 0.3374 0.4029 0.1238
H20 H 0.3129 0.5028 0.1110
C32 C 0.48416(19) 0.14568(15) -0.30545(13)
H21 H 0.4604 0.0812 -0.3194
H22 H 0.5209 0.1589 -0.3473
H23 H 0.4120 0.1786 -0.3115
C33 C 0.93959(18) 0.67096(12) 0.36477(14)
H24 H 0.8662 0.6334 0.3220
H25 H 0.9794 0.6420 0.4149
H26 H 0.9957 0.6788 0.3342
C34 C 0.50562(16) 0.57019(11) 0.39365(11)
C35 C 0.81180(19) 0.16598(14) 0.29162(12)
H27 H 0.8034 0.1027 0.2711
C36 C 0.58120(18) 0.15926(12) 0.24191(12)
C37 C 0.26891(17) 0.73348(13) 0.38828(13)
H28 H 0.1971 0.6913 0.3482
H29 H 0.2830 0.7766 0.3543
C38 C 0.83847(17) 0.35474(13) 0.35291(12)
H30 H 0.8477 0.4181 0.3729
C39 C 0.82309(19) 0.97892(13) 0.44004(14)
H31 H 0.7937 0.9454 0.3772
H32 H 0.8782 1.0308 0.4476
H33 H 0.7537 0.9995 0.4558
C40 C 0.83938(19) 0.62822(15) 0.76446(12)
H34 H 0.9255 0.6274 0.7697
H35 H 0.8205 0.5806 0.7920
C41 C 0.92864(19) 0.21275(16) 0.33129(13)
H36 H 0.9986 0.1807 0.3382
C42 C 0.34742(17) 0.06067(11) 0.01538(12)
C43 C 0.94245(18) 0.30685(15) 0.36087(13)
H37 H 1.0214 0.3381 0.3861
C44 C 0.2474(2) 0.78317(13) 0.47240(13)
H38 H 0.2333 0.7397 0.5052
H39 H 0.1761 0.8171 0.4543
H40 H 0.3192 0.8245 0.5115
C45 C 0.8175(2) 0.72009(15) 0.81199(14)
H41 H 0.8417 0.7669 0.7869
H42 H 0.8658 0.7307 0.8767
H43 H 0.7308 0.7213 0.8028
C46 C -0.06785(19) 0.36883(15) -0.10675(15)
H44 H -0.1245 0.4126 -0.1287
H45 H -0.0203 0.3910 -0.0424
H46 H -0.1139 0.3117 -0.1159
C47 C 0.0516(2) -0.11548(14) 0.07235(15)
H47 H 0.1190 -0.1389 0.1152
H48 H -0.0205 -0.1589 0.0483
H49 H 0.0330 -0.0588 0.1032
C48 C 0.6633(3) 0.94809(16) 0.6493(2)
H50 H 0.5768 0.9324 0.6122
H51 H 0.6754 1.0102 0.6836
H52 H 0.6902 0.9080 0.6911
O17 O 0.64409(13) 0.50759(9) 0.09466(9)
O18 O 0.68802(14) 0.50841(9) 0.24312(9)
C49 C 0.64967(17) 0.54547(13) 0.17916(13)
C50 C 0.6036(2) 0.63803(13) 0.18492(14)
H53 H 0.6720 0.6835 0.2022
H54 H 0.5655 0.6487 0.2301
H55 H 0.5435 0.6415 0.1261
C51 C 0.82785(19) 0.42092(14) 0.11782(15)
H56 H 0.8598 0.4602 0.0890
H57 H 0.8530 0.3606 0.1043
H58 H 0.8599 0.4445 0.1832
C52 C 0.6882(2) 0.41686(14) 0.08171(15)
H59 H 0.6559 0.3880 0.0167
H60 H 0.6565 0.3795 0.1132
loop_
_geom_bond_atom_site_label_1
_geom_bond_atom_site_label_2
_geom_bond_site_symmetry_1
_geom_bond_site_symmetry_2
O1 C6 1_555 1_555
O2 C7 1_555 1_555
O3 C13 1_555 1_555
O4 C19 1_555 1_555
O5 C19 1_555 1_555
O6 C10 1_555 1_555
O7 C16 1_555 1_555
O8 C30 1_555 1_555
O9 C2 1_555 1_555
O10 C11 1_555 1_555
N1 C6 1_555 1_555
O11 C26 1_555 1_555
O12 C16 1_555 1_555
O13 C30 1_555 1_555
C1 H1 1_555 1_555
C2 C22 1_555 1_555
O14 C36 1_555 1_555
C3 H2 1_555 1_555
C4 H3 1_555 1_555
N2 C9 1_555 1_555
C5 H4 1_555 1_555
C6 C14 1_555 1_555
O15 C7 1_555 1_555
C7 C34 1_555 1_555
C8 C1 1_555 1_555
C9 H5 1_555 1_555
C10 C11 1_555 1_555
C11 C3 1_555 1_555
C12 C4 1_555 1_555
C13 C1 1_555 1_555
C14 C29 1_555 1_555
C15 C8 1_555 1_555
H6 C15 1_555 1_555
C16 C42 1_555 1_555
C17 N1 1_555 1_555
H7 C17 1_555 1_555
C18 C9 1_555 1_555
C19 C18 1_555 1_555
C20 N2 1_555 1_555
H8 C20 1_555 1_555
C21 O3 1_555 1_555
H9 C21 1_555 1_555
H10 C21 1_555 1_555
H11 C21 1_555 1_555
C22 C23 1_555 1_555
C23 C12 1_555 1_555
H12 C23 1_555 1_555
C24 C5 1_555 1_555
O16 C22 1_555 1_555
C25 N1 1_555 1_555
H13 C25 1_555 1_555
C26 C2 1_555 1_555
C27 O12 1_555 1_555
H14 C27 1_555 1_555
H15 C27 1_555 1_555
C28 O4 1_555 1_555
H16 C28 1_555 1_555
H17 C28 1_555 1_555
C29 C35 1_555 1_555
C30 C24 1_555 1_555
C31 O10 1_555 1_555
H18 C31 1_555 1_555
H19 C31 1_555 1_555
H20 C31 1_555 1_555
C32 C28 1_555 1_555
H21 C32 1_555 1_555
H22 C32 1_555 1_555
H23 C32 1_555 1_555
C33 O11 1_555 1_555
H24 C33 1_555 1_555
H25 C33 1_555 1_555
H26 C33 1_555 1_555
C34 C5 1_555 1_555
C35 H27 1_555 1_555
C36 N2 1_555 1_555
C37 O2 1_555 1_555
H28 C37 1_555 1_555
H29 C37 1_555 1_555
C38 C14 1_555 1_555
H30 C38 1_555 1_555
C39 O9 1_555 1_555
H31 C39 1_555 1_555
H32 C39 1_555 1_555
H33 C39 1_555 1_555
C40 O8 1_555 1_555
H34 C40 1_555 1_555
H35 C40 1_555 1_555
C41 C35 1_555 1_555
H36 C41 1_555 1_555
C42 C15 1_555 1_555
C43 C38 1_555 1_555
H37 C43 1_555 1_555
C44 C37 1_555 1_555
H38 C44 1_555 1_555
H39 C44 1_555 1_555
H40 C44 1_555 1_555
C45 C40 1_555 1_555
H41 C45 1_555 1_555
H42 C45 1_555 1_555
H43 C45 1_555 1_555
C46 O6 1_555 1_555
H44 C46 1_555 1_555
H45 C46 1_555 1_555
H46 C46 1_555 1_555
C47 C27 1_555 1_555
H47 C47 1_555 1_555
H48 C47 1_555 1_555
H49 C47 1_555 1_555
C48 O16 1_555 1_555
H50 C48 1_555 1_555
H51 C48 1_555 1_555
H52 C48 1_555 1_555
O17 C49 1_555 1_555
O18 C49 1_555 1_555
C49 C50 1_555 1_555
C50 H53 1_555 1_555
H54 C50 1_555 1_555
H55 C50 1_555 1_555
C51 H56 1_555 1_555
H57 C51 1_555 1_555
H58 C51 1_555 1_555
C52 O17 1_555 1_555
H59 C52 1_555 1_555
H60 C52 1_555 1_555
C3 C8 1_555 1_555
C4 C26 1_555 1_555
C5 C12 1_555 1_555
C10 C13 1_555 1_555
C15 C18 1_555 1_555
C17 C34 1_555 1_555
C20 C42 1_555 1_555
C24 C25 1_555 1_555
C29 C36 1_555 1_555
C41 C43 1_555 1_555
C51 C52 1_555 1_555

#END
