
#######################################################################
#
#                 Cambridge Crystallographic Data Centre
#                                CCDC 
#
#######################################################################
#
# If this CIF has been generated from an entry in the Cambridge 
# Structural Database, then it will include bibliographic, chemical, 
# crystal, experimental, refinement or atomic coordinate data resulting 
# from the CCDC's data processing and validation procedures.
#
#######################################################################

data_RELFIZ
_chemical_formula_moiety         'C27 H24 O4'
_chemical_name_systematic        
'4,6-Dimethyl-3,7-dioxaoctacyclo[15.9.1.0^1,18^.0^9,26^.0^9,27^.0^10,25^.0^11,16^.0^19,24^] heptacosa-11,13,15,19,21,23-hexaene-2,8-dione'
_symmetry_cell_setting           tetragonal
_symmetry_space_group_name_H-M   'P 43'
_symmetry_Int_Tables_number      78
_space_group_name_Hall           'P 4cw'
loop_
_symmetry_equiv_pos_site_id
_symmetry_equiv_pos_as_xyz
1 x,y,z
2 -x,-y,1/2+z
3 -y,x,3/4+z
4 y,-x,1/4+z
_cell_length_a                   8.0546(7)
_cell_length_b                   8.0546(7)
_cell_length_c                   32.476(3)
_cell_angle_alpha                90
_cell_angle_beta                 90
_cell_angle_gamma                90
_cell_volume                     2106.93
_exptl_crystal_colour            colorless
_exptl_crystal_description       block
_cell_formula_units_Z            4
loop_
_atom_site_label
_atom_site_type_symbol
_atom_site_fract_x
_atom_site_fract_y
_atom_site_fract_z
O1 O 1.0134(2) 0.1559(2) 0.19545(5)
O2 O 1.07008(19) 0.3355(2) 0.14405(4)
O3 O 0.7971(2) 0.3240(2) 0.09238(5)
O4 O 0.7357(2) 0.5786(2) 0.06729(5)
C1 C 0.4610(3) 0.6411(3) 0.18221(6)
C2 C 0.3312(3) 0.7552(3) 0.18340(7)
H1 H 0.3312 0.8461 0.1648
C3 C 0.2025(3) 0.7384(3) 0.21119(8)
H2 H 0.1155 0.8181 0.2119
C4 C 0.2011(3) 0.6048(3) 0.23794(8)
H3 H 0.1122 0.5917 0.2569
C5 C 0.3292(3) 0.4903(3) 0.23716(7)
H4 H 0.3278 0.3992 0.2557
C6 C 0.4599(3) 0.5070(3) 0.20950(6)
C7 C 0.6005(3) 0.3834(3) 0.20922(6)
H5 H 0.5602 0.2730 0.2192
C8 C 0.6099(3) 0.6718(3) 0.15544(7)
H6 H 0.5845 0.7515 0.1327
C9 C 0.7040(3) 0.5172(3) 0.13957(6)
C10 C 0.6932(3) 0.3625(3) 0.16801(6)
H7 H 0.6877 0.2512 0.1544
C11 C 0.7717(3) 0.4296(3) 0.23123(6)
H8 H 0.8072 0.3413 0.2510
C12 C 0.8627(3) 0.4130(3) 0.18904(6)
C13 C 0.8655(3) 0.5750(3) 0.16342(6)
H9 H 0.9671 0.5976 0.1466
C14 C 0.7712(3) 0.7255(3) 0.18051(7)
H10 H 0.8180 0.8301 0.1687
C15 C 0.7625(3) 0.7392(3) 0.22657(7)
C16 C 0.7473(3) 0.8941(3) 0.24566(8)
H11 H 0.7420 0.9919 0.2294
C17 C 0.7400(3) 0.9055(4) 0.28846(8)
H12 H 0.7275 1.0109 0.3012
C18 C 0.7509(3) 0.7649(4) 0.31219(8)
H13 H 0.7473 0.7735 0.3414
C19 C 0.7671(3) 0.6112(4) 0.29387(7)
H14 H 0.7748 0.5145 0.3105
C20 C 0.7721(3) 0.5968(3) 0.25088(7)
C21 C 0.9939(3) 0.2885(3) 0.17909(7)
C22 C 1.1312(3) 0.2121(3) 0.11501(7)
H15 H 1.0758 0.1027 0.1198
C23 C 1.3164(3) 0.1965(4) 0.12025(9)
H16 H 1.3410 0.1519 0.1477
H17 H 1.3680 0.3060 0.1173
H18 H 1.3607 0.1213 0.0992
C24 C 1.0851(3) 0.2812(3) 0.07258(7)
H19 H 1.1180 0.3995 0.0719
H20 H 1.1535 0.2226 0.0518
C25 C 0.9042(3) 0.2703(3) 0.05882(7)
H21 H 0.8866 0.3439 0.0344
C26 C 0.8475(4) 0.0956(4) 0.04857(9)
H22 H 0.7312 0.0981 0.0398
H23 H 0.8585 0.0251 0.0730
H24 H 0.9163 0.0509 0.0263
C27 C 0.7399(3) 0.4803(3) 0.09530(6)
loop_
_geom_bond_atom_site_label_1
_geom_bond_atom_site_label_2
_geom_bond_site_symmetry_1
_geom_bond_site_symmetry_2
O1 C21 1_555 1_555
O2 C21 1_555 1_555
O3 C25 1_555 1_555
O4 C27 1_555 1_555
C1 C2 1_555 1_555
C2 H1 1_555 1_555
C3 C2 1_555 1_555
H2 C3 1_555 1_555
C4 C3 1_555 1_555
H3 C4 1_555 1_555
C5 C4 1_555 1_555
H4 C5 1_555 1_555
C6 C1 1_555 1_555
C7 C6 1_555 1_555
H5 C7 1_555 1_555
C8 C1 1_555 1_555
H6 C8 1_555 1_555
C9 C8 1_555 1_555
C10 C7 1_555 1_555
H7 C10 1_555 1_555
C11 C7 1_555 1_555
H8 C11 1_555 1_555
C12 C10 1_555 1_555
C13 C9 1_555 1_555
H9 C13 1_555 1_555
C14 C8 1_555 1_555
H10 C14 1_555 1_555
C15 C14 1_555 1_555
C16 C15 1_555 1_555
H11 C16 1_555 1_555
C17 C16 1_555 1_555
H12 C17 1_555 1_555
C18 C17 1_555 1_555
H13 C18 1_555 1_555
C19 C18 1_555 1_555
H14 C19 1_555 1_555
C20 C11 1_555 1_555
C21 C12 1_555 1_555
C22 O2 1_555 1_555
H15 C22 1_555 1_555
C23 C22 1_555 1_555
H16 C23 1_555 1_555
H17 C23 1_555 1_555
H18 C23 1_555 1_555
C24 C22 1_555 1_555
H19 C24 1_555 1_555
H20 C24 1_555 1_555
C25 C24 1_555 1_555
H21 C25 1_555 1_555
C26 C25 1_555 1_555
H22 C26 1_555 1_555
H23 C26 1_555 1_555
H24 C26 1_555 1_555
C27 O3 1_555 1_555
C5 C6 1_555 1_555
C9 C10 1_555 1_555
C9 C27 1_555 1_555
C11 C12 1_555 1_555
C12 C13 1_555 1_555
C13 C14 1_555 1_555
C15 C20 1_555 1_555
C19 C20 1_555 1_555

#END
