
#######################################################################
#
#                 Cambridge Crystallographic Data Centre
#                                CCDC 
#
#######################################################################
#
# If this CIF has been generated from an entry in the Cambridge 
# Structural Database, then it will include bibliographic, chemical, 
# crystal, experimental, refinement or atomic coordinate data resulting 
# from the CCDC's data processing and validation procedures.
#
#######################################################################

data_RELHOH
_chemical_formula_moiety         'C24 H23 N1 O1'
_chemical_name_systematic        
N-Phenyl-N-(tricyclo[8.2.2.2^4,7^]hexadeca-1(12),4,6,10,13,15-hexaen-5-yl)acetamide
_symmetry_cell_setting           orthorhombic
_symmetry_space_group_name_H-M   'P n a 21'
_symmetry_Int_Tables_number      33
_space_group_name_Hall           'P 2c -2n'
loop_
_symmetry_equiv_pos_site_id
_symmetry_equiv_pos_as_xyz
1 x,y,z
2 -x,-y,1/2+z
3 1/2+x,1/2-y,z
4 1/2-x,1/2+y,1/2+z
_cell_length_a                   22.266(2)
_cell_length_b                   8.8830(9)
_cell_length_c                   9.3118(10)
_cell_angle_alpha                90
_cell_angle_beta                 90
_cell_angle_gamma                90
_cell_volume                     1841.77
_exptl_crystal_colour            colorless
_exptl_crystal_description       prismatic
_cell_formula_units_Z            4
loop_
_atom_site_label
_atom_site_type_symbol
_atom_site_fract_x
_atom_site_fract_y
_atom_site_fract_z
O1 O -0.04929(10) 0.3476(3) 0.6889(3)
N1 N 0.04365(10) 0.3291(2) 0.5945(3)
C1 C 0.16226(15) 0.1992(4) 0.7014(4)
H1 H 0.1783 0.1062 0.7401
H2 H 0.1320 0.2356 0.7677
C2 C 0.21433(17) 0.3187(4) 0.6919(4)
H3 H 0.2035 0.4055 0.7494
H4 H 0.2504 0.2755 0.7330
C3 C 0.22796(13) 0.3704(4) 0.5415(4)
C4 C 0.26404(14) 0.2908(4) 0.4462(5)
H5 H 0.2943 0.2293 0.4822
C5 C 0.25626(16) 0.3006(4) 0.3023(5)
H6 H 0.2817 0.2470 0.2418
C6 C 0.21109(16) 0.3891(4) 0.2429(4)
C7 C 0.18540(14) 0.4943(4) 0.3354(4)
H7 H 0.1619 0.5712 0.2976
C8 C 0.19409(13) 0.4865(3) 0.4818(4)
H8 H 0.1772 0.5592 0.5412
C9 C 0.1831(2) 0.3516(6) 0.1005(5)
H9 H 0.2129 0.3024 0.0407
H10 H 0.1716 0.4444 0.0531
C10 C 0.12727(18) 0.2483(5) 0.1123(4)
H11 H 0.0921 0.3041 0.0814
H12 H 0.1322 0.1636 0.0477
C11 C 0.11676(13) 0.1904(3) 0.2600(4)
C12 C 0.15310(14) 0.0777(4) 0.3183(4)
H13 H 0.1717 0.0085 0.2580
C13 C 0.16134(14) 0.0689(3) 0.4624(4)
H14 H 0.1869 -0.0049 0.4985
C14 C 0.13292(14) 0.1665(3) 0.5590(3)
C15 C 0.08502(11) 0.2494(3) 0.5020(3)
C16 C 0.07824(12) 0.2619(3) 0.3550(4)
H15 H 0.0470 0.3200 0.3188
C17 C 0.05577(12) 0.4846(3) 0.6332(3)
C18 C 0.05167(14) 0.5952(3) 0.5298(4)
H16 H 0.0391 0.5720 0.4372
C19 C 0.06652(16) 0.7412(4) 0.5664(5)
H17 H 0.0643 0.8168 0.4975
C20 C 0.08461(15) 0.7760(4) 0.7038(5)
H18 H 0.0952 0.8743 0.7270
C21 C 0.08706(14) 0.6661(4) 0.8060(4)
H19 H 0.0986 0.6899 0.8992
C22 C 0.07235(12) 0.5189(4) 0.7710(4)
H20 H 0.0737 0.4439 0.8407
C23 C -0.01135(13) 0.2710(3) 0.6301(4)
C24 C -0.02279(16) 0.1090(3) 0.5932(5)
H21 H -0.0007 0.0455 0.6579
H22 H -0.0100 0.0899 0.4965
H23 H -0.0649 0.0879 0.6018
loop_
_geom_bond_atom_site_label_1
_geom_bond_atom_site_label_2
_geom_bond_site_symmetry_1
_geom_bond_site_symmetry_2
O1 C23 1_555 1_555
N1 C15 1_555 1_555
C1 H1 1_555 1_555
H2 C1 1_555 1_555
C2 C1 1_555 1_555
H3 C2 1_555 1_555
H4 C2 1_555 1_555
C3 C2 1_555 1_555
C4 C3 1_555 1_555
H5 C4 1_555 1_555
C5 C4 1_555 1_555
H6 C5 1_555 1_555
C6 C5 1_555 1_555
C7 C6 1_555 1_555
H7 C7 1_555 1_555
C8 C3 1_555 1_555
H8 C8 1_555 1_555
C9 C6 1_555 1_555
H9 C9 1_555 1_555
H10 C9 1_555 1_555
C10 C9 1_555 1_555
H11 C10 1_555 1_555
H12 C10 1_555 1_555
C11 C10 1_555 1_555
C12 C11 1_555 1_555
H13 C12 1_555 1_555
C13 C12 1_555 1_555
H14 C13 1_555 1_555
C14 C1 1_555 1_555
C15 C14 1_555 1_555
C16 C11 1_555 1_555
H15 C16 1_555 1_555
C17 N1 1_555 1_555
C18 C17 1_555 1_555
H16 C18 1_555 1_555
C19 C18 1_555 1_555
H17 C19 1_555 1_555
C20 C19 1_555 1_555
H18 C20 1_555 1_555
C21 C20 1_555 1_555
H19 C21 1_555 1_555
C22 C17 1_555 1_555
H20 C22 1_555 1_555
C23 N1 1_555 1_555
C24 C23 1_555 1_555
H21 C24 1_555 1_555
H22 C24 1_555 1_555
H23 C24 1_555 1_555
C7 C8 1_555 1_555
C13 C14 1_555 1_555
C15 C16 1_555 1_555
C21 C22 1_555 1_555

#END
