
#######################################################################
#
#                 Cambridge Crystallographic Data Centre
#                                CCDC 
#
#######################################################################
#
# If this CIF has been generated from an entry in the Cambridge 
# Structural Database, then it will include bibliographic, chemical, 
# crystal, experimental, refinement or atomic coordinate data resulting 
# from the CCDC's data processing and validation procedures.
#
#######################################################################

data_RELHEX
_chemical_formula_moiety         'C24 H29 N1 S1'
_chemical_name_systematic        
N,2,3-Trimethyl-N-(tricyclo[8.2.2.2^4,7^]hexadeca-1(12),4,6,10,13,15-hexaen-5-yl)pent-4-enethioamide
_symmetry_cell_setting           orthorhombic
_symmetry_space_group_name_H-M   'P 21 21 21'
_symmetry_Int_Tables_number      19
_space_group_name_Hall           'P 2ac 2ab'
loop_
_symmetry_equiv_pos_site_id
_symmetry_equiv_pos_as_xyz
1 x,y,z
2 1/2-x,-y,1/2+z
3 -x,1/2+y,1/2-z
4 1/2+x,1/2-y,-z
_cell_length_a                   7.3321(9)
_cell_length_b                   15.2253(18)
_cell_length_c                   18.502(2)
_cell_angle_alpha                90
_cell_angle_beta                 90
_cell_angle_gamma                90
_cell_volume                     2065.44
_exptl_crystal_colour            colorless
_cell_formula_units_Z            4
loop_
_atom_site_label
_atom_site_type_symbol
_atom_site_fract_x
_atom_site_fract_y
_atom_site_fract_z
S1 S 0.23599(15) 0.94371(6) 1.07709(4)
N1 N 0.2067(3) 0.87805(13) 0.94653(10)
C1 C 0.5527(5) 0.9377(2) 0.78018(19)
H1 H 0.5703 0.9742 0.7378
H2 H 0.6658 0.9375 0.8074
C2 C 0.3967(4) 0.97867(18) 0.82848(16)
H3 H 0.4338 0.9765 0.8788
H4 H 0.3808 1.0399 0.8154
C3 C 0.2187(4) 0.93222(16) 0.82038(13)
C4 C 0.1485(3) 0.87330(16) 0.87168(13)
C5 C 0.0408(4) 0.80378(18) 0.85080(14)
H5 H 0.0012 0.7637 0.8854
C6 C -0.0098(4) 0.7923(2) 0.77925(16)
C7 C 0.0183(5) 0.8628(2) 0.73392(18)
C8 C 0.1291(4) 0.9310(2) 0.75360(14)
H6 H 0.1453 0.9778 0.7218
C9 C -0.0559(4) 0.7019(2) 0.74936(18)
H7 H -0.1288 0.7089 0.7060
H8 H -0.1291 0.6706 0.7846
C10 C 0.1149(5) 0.6461(2) 0.7310(2)
H9 H 0.1261 0.5993 0.7663
H10 H 0.0978 0.6192 0.6840
C11 C 0.2898(4) 0.69848(19) 0.73015(17)
C12 C 0.3993(5) 0.7044(2) 0.79120(19)
C13 C 0.5067(4) 0.7758(2) 0.80407(17)
H11 H 0.5783 0.7777 0.8455
C14 C 0.5102(4) 0.8450(2) 0.75622(19)
C15 C 0.4366(5) 0.8287(2) 0.68803(17)
H12 H 0.4613 0.8675 0.6504
C16 C 0.3290(4) 0.7570(2) 0.67539(16)
H13 H 0.2818 0.7476 0.6294
C17 C 0.1640(4) 0.94378(19) 0.99168(14)
C18 C 0.0416(5) 1.01746(19) 0.96496(16)
C19 C -0.1342(5) 1.0218(2) 1.00936(18)
C20 C -0.2597(6) 1.0914(2) 0.9828(2)
C21 C -0.3241(8) 1.1560(3) 1.0181(3)
C22 C 0.1449(5) 1.10564(19) 0.96648(19)
H14 H 0.1773 1.1197 1.0154
H15 H 0.0682 1.1511 0.9473
H16 H 0.2535 1.1010 0.9377
C23 C -0.2327(5) 0.9332(2) 1.0090(2)
H17 H -0.3438 0.9378 1.0363
H18 H -0.1557 0.8894 1.0305
H19 H -0.2605 0.9168 0.9602
C24 C 0.3091(4) 0.80293(17) 0.97428(14)
H20 H 0.4293 0.8215 0.9879
H21 H 0.3176 0.7587 0.9375
H22 H 0.2475 0.7792 1.0157
H23 H -0.031(4) 0.8691(17) 0.6870(17)
H24 H 0.390(3) 0.6623(17) 0.8272(15)
H25 H -0.012(3) 1.0037(16) 0.9222(16)
H26 H -0.101(4) 1.045(2) 1.0534(17)
H27 H -0.299(4) 1.084(2) 0.932(2)
H28 H -0.280(5) 1.163(2) 1.063(2)
H29 H -0.413(4) 1.198(2) 0.9990(17)
loop_
_geom_bond_atom_site_label_1
_geom_bond_atom_site_label_2
_geom_bond_site_symmetry_1
_geom_bond_site_symmetry_2
S1 C17 1_555 1_555
N1 C4 1_555 1_555
C1 H1 1_555 1_555
H2 C1 1_555 1_555
C2 C1 1_555 1_555
H3 C2 1_555 1_555
H4 C2 1_555 1_555
C3 C2 1_555 1_555
C4 C3 1_555 1_555
C5 C4 1_555 1_555
H5 C5 1_555 1_555
C6 C5 1_555 1_555
C7 C6 1_555 1_555
C8 C3 1_555 1_555
H6 C8 1_555 1_555
C9 C6 1_555 1_555
H7 C9 1_555 1_555
H8 C9 1_555 1_555
C10 C9 1_555 1_555
H9 C10 1_555 1_555
H10 C10 1_555 1_555
C11 C10 1_555 1_555
C12 C11 1_555 1_555
C13 C12 1_555 1_555
H11 C13 1_555 1_555
C14 C1 1_555 1_555
C15 C14 1_555 1_555
H12 C15 1_555 1_555
C16 C11 1_555 1_555
H13 C16 1_555 1_555
C17 N1 1_555 1_555
C18 C17 1_555 1_555
C19 C18 1_555 1_555
C20 C19 1_555 1_555
C21 C20 1_555 1_555
C22 C18 1_555 1_555
H14 C22 1_555 1_555
H15 C22 1_555 1_555
H16 C22 1_555 1_555
C23 C19 1_555 1_555
H17 C23 1_555 1_555
H18 C23 1_555 1_555
H19 C23 1_555 1_555
C24 N1 1_555 1_555
H20 C24 1_555 1_555
H21 C24 1_555 1_555
H22 C24 1_555 1_555
H23 C7 1_555 1_555
H24 C12 1_555 1_555
H25 C18 1_555 1_555
H26 C19 1_555 1_555
H27 C20 1_555 1_555
H28 C21 1_555 1_555
H29 C21 1_555 1_555
C7 C8 1_555 1_555
C13 C14 1_555 1_555
C15 C16 1_555 1_555

#END
