
#######################################################################
#
#                 Cambridge Crystallographic Data Centre
#                                CCDC 
#
#######################################################################
#
# If this CIF has been generated from an entry in the Cambridge 
# Structural Database, then it will include bibliographic, chemical, 
# crystal, experimental, refinement or atomic coordinate data resulting 
# from the CCDC's data processing and validation procedures.
#
#######################################################################

data_RELLOL
_chemical_formula_moiety         'C32 H22 Cl2 N12 O14'
_chemical_name_systematic        
'Dimethyl 25,27-bis((4-chloro-6-methoxy-1,3,5-triazin-2-yl)oxy)-5,17-dimethoxy-2,8,14,20-tetraoxa-4,6,16,18,26,28-hexa-azapentacyclo[19.3.1.1^3,7^.1^9,13^.1^15,19^]octacosa-1(25),3(28),4,6,9(27),10,12,15(26),16,18,21,23-dodecaene-11,23-dicarboxylate'
_symmetry_cell_setting           monoclinic
_symmetry_space_group_name_H-M   'P 21/n'
_symmetry_Int_Tables_number      14
_space_group_name_Hall           '-P 2yn'
loop_
_symmetry_equiv_pos_site_id
_symmetry_equiv_pos_as_xyz
1 x,y,z
2 1/2-x,1/2+y,1/2-z
3 -x,-y,-z
4 1/2+x,1/2-y,1/2+z
_cell_length_a                   12.783(5)
_cell_length_b                   27.232(11)
_cell_length_c                   13.362(6)
_cell_angle_alpha                90
_cell_angle_beta                 103.859(5)
_cell_angle_gamma                90
_cell_volume                     4515.99
_exptl_crystal_colour            colorless
_exptl_crystal_description       platelet
_cell_formula_units_Z            4
loop_
_atom_site_label
_atom_site_type_symbol
_atom_site_fract_x
_atom_site_fract_y
_atom_site_fract_z
O1 O 0.2674(2) 0.38640(10) 0.09880(17)
O2 O -0.0009(2) 0.37221(11) 0.27106(19)
O3 O 0.25644(19) 0.36475(10) 0.59688(18)
O4 O 0.52367(19) 0.36860(10) 0.42287(18)
O5 O 0.37389(19) 0.32834(9) 0.25537(19)
O6 O -0.0369(2) 0.30807(11) -0.0487(2)
O7 O 0.1497(2) 0.31959(10) 0.4229(2)
O8 O 0.0680(3) 0.55021(13) 0.3847(3)
O9 O 0.1884(2) 0.54355(12) 0.5370(2)
O10 O 0.5550(2) 0.27599(10) 0.71022(19)
O11 O 0.4493(3) 0.55422(12) 0.3781(3)
O12 O 0.3258(3) 0.55556(11) 0.2275(3)
N1 N 0.1147(3) 0.34793(12) 0.0224(2)
N2 N -0.0252(3) 0.34039(12) 0.1126(2)
N3 N 0.1397(2) 0.38017(11) 0.1926(2)
N4 N 0.3833(2) 0.36760(11) 0.5020(2)
N5 N 0.4071(2) 0.32066(12) 0.6568(2)
N6 N 0.5440(2) 0.32100(11) 0.5621(2)
N7 N 0.5436(2) 0.31904(12) 0.2293(2)
N8 N 0.5987(3) 0.23696(12) 0.2067(2)
N9 N 0.4246(3) 0.25165(11) 0.2320(2)
N10 N 0.1080(3) 0.24100(14) 0.4409(2)
N11 N -0.0651(3) 0.21944(14) 0.4624(3)
N12 N -0.0194(3) 0.30412(13) 0.4462(2)
C1 C 0.3919(3) 0.37849(13) 0.2631(3)
C2 C 0.3314(3) 0.40828(15) 0.1874(3)
C3 C 0.3349(3) 0.45860(14) 0.1971(3)
H1 H 0.2936 0.4788 0.1442
C4 C 0.3996(3) 0.47949(15) 0.2851(3)
C5 C 0.4630(3) 0.44976(14) 0.3613(3)
H2 H 0.5087 0.4641 0.4208
C6 C 0.4588(3) 0.40004(14) 0.3498(3)
C7 C 0.1693(3) 0.37088(14) 0.1051(3)
C8 C 0.0185(3) 0.33312(14) 0.0319(3)
C9 C 0.0410(3) 0.36459(14) 0.1889(3)
C10 C 0.0660(3) 0.39711(15) 0.3563(3)
C11 C 0.0601(3) 0.44669(16) 0.3642(3)
H3 H 0.0126 0.4650 0.3118
C12 C 0.1236(3) 0.47065(15) 0.4492(3)
C13 C 0.1903(3) 0.44335(15) 0.5277(3)
H4 H 0.2329 0.4593 0.5868
C14 C 0.1933(3) 0.39326(16) 0.5183(3)
C15 C 0.1313(3) 0.36974(14) 0.4331(3)
C16 C 0.3533(3) 0.35097(14) 0.5839(3)
C17 C 0.5017(3) 0.30691(13) 0.6400(3)
C18 C 0.4804(3) 0.35214(13) 0.4988(3)
C19 C 0.4535(3) 0.29886(14) 0.2382(3)
C20 C 0.6102(3) 0.28453(17) 0.2160(3)
C21 C 0.5032(3) 0.22326(14) 0.2157(3)
C22 C -0.1414(4) 0.2902(2) -0.0453(3)
H5 H -0.1737 0.2731 -0.1097
H6 H -0.1874 0.3179 -0.0365
H7 H -0.1346 0.2675 0.0128
C23 C 0.0744(3) 0.28748(15) 0.4377(3)
C24 C 0.0339(4) 0.21035(16) 0.4524(3)
C25 C -0.0811(3) 0.2673(2) 0.4564(3)
C26 C 0.1212(4) 0.52500(18) 0.4523(4)
C27 C 0.1943(4) 0.59725(17) 0.5432(5)
H8 H 0.2447 0.6070 0.6077
H9 H 0.1227 0.6106 0.5415
H10 H 0.2195 0.6101 0.4846
C28 C 0.6600(3) 0.25999(15) 0.6990(3)
H11 H 0.6913 0.2370 0.7546
H12 H 0.7074 0.2885 0.7025
H13 H 0.6520 0.2436 0.6323
C29 C 0.3971(4) 0.53291(16) 0.3031(3)
C30 C 0.31422(10) 0.60841(4) 0.24047(9)
H14 H 0.2572 0.6211 0.1838
H15 H 0.3824 0.6248 0.2402
H16 H 0.2953 0.6148 0.3062
Cl1 Cl 0.07633(10) 0.15049(4) 0.46549(9)
O13 O -0.16616(10) 0.28303(4) 0.45348(9)
C31 C -0.25956(10) 0.24723(4) 0.46718(9)
H17 H -0.3248 0.2663 0.4659
H18 H -0.2372 0.2300 0.5332
H19 H -0.2744 0.2233 0.4109
Cl2 Cl 0.47261(10) 0.16208(4) 0.19722(9)
O14 O 0.69832(10) 0.30212(4) 0.22077(9)
C32 C 0.78772(10) 0.27302(4) 0.19547(9)
H20 H 0.8508 0.2942 0.2007
H21 H 0.7645 0.2602 0.1251
H22 H 0.8065 0.2456 0.2440
C33? C 0.56112(10) 0.14292(4) 0.22037(9)
C34? C -0.02076(10) 0.12863(4) 0.44948(9)
Cl3? Cl 0.73365(10) 0.30599(4) 0.19927(9)
Cl4? Cl -0.21392(10) 0.28457(4) 0.47411(9)
H23? H 0.5413 0.1092 0.2333
H24? H 0.6296 0.1514 0.2683
H25? H 0.5688 0.1457 0.1494
H26? H 0.0001 0.0966 0.4271
H27? H -0.0958 0.1356 0.4145
H28? H -0.0133 0.1282 0.5242
O15? O 0.47652(10) 0.17672(4) 0.23557(9)
O16? O 0.03994(10) 0.16173(4) 0.42698(9)
loop_
_geom_bond_atom_site_label_1
_geom_bond_atom_site_label_2
_geom_bond_site_symmetry_1
_geom_bond_site_symmetry_2
O1 C2 1_555 1_555
O2 C9 1_555 1_555
O3 C14 1_555 1_555
O4 C6 1_555 1_555
O5 C1 1_555 1_555
O6 C8 1_555 1_555
O7 C15 1_555 1_555
O8 C26 1_555 1_555
O9 C26 1_555 1_555
O10 C17 1_555 1_555
O11 C29 1_555 1_555
O12 C29 1_555 1_555
N1 C7 1_555 1_555
N2 C8 1_555 1_555
N3 C7 1_555 1_555
N4 C16 1_555 1_555
N5 C16 1_555 1_555
N6 C17 1_555 1_555
N7 C19 1_555 1_555
N8 C20 1_555 1_555
N9 C19 1_555 1_555
N10 C23 1_555 1_555
N11 C24 1_555 1_555
N12 C23 1_555 1_555
C1 C2 1_555 1_555
C2 C3 1_555 1_555
C3 H1 1_555 1_555
C4 C3 1_555 1_555
C5 C4 1_555 1_555
H2 C5 1_555 1_555
C6 C1 1_555 1_555
C7 O1 1_555 1_555
C8 N1 1_555 1_555
C9 N2 1_555 1_555
C10 O2 1_555 1_555
C11 C10 1_555 1_555
H3 C11 1_555 1_555
C12 C11 1_555 1_555
C13 C12 1_555 1_555
H4 C13 1_555 1_555
C14 C13 1_555 1_555
C15 C10 1_555 1_555
C16 O3 1_555 1_555
C17 N5 1_555 1_555
C18 O4 1_555 1_555
C19 O5 1_555 1_555
C20 N7 1_555 1_555
C21 N8 1_555 1_555
C22 O6 1_555 1_555
H5 C22 1_555 1_555
H6 C22 1_555 1_555
H7 C22 1_555 1_555
C23 O7 1_555 1_555
C24 N10 1_555 1_555
C25 N11 1_555 1_555
C26 C12 1_555 1_555
C27 O9 1_555 1_555
H8 C27 1_555 1_555
H9 C27 1_555 1_555
H10 C27 1_555 1_555
C28 O10 1_555 1_555
H11 C28 1_555 1_555
H12 C28 1_555 1_555
H13 C28 1_555 1_555
C29 C4 1_555 1_555
C30 O12 1_555 1_555
H14 C30 1_555 1_555
H15 C30 1_555 1_555
H16 C30 1_555 1_555
Cl1 C24 1_555 1_555
O13 C25 1_555 1_555
C31 O13 1_555 1_555
H17 C31 1_555 1_555
H18 C31 1_555 1_555
H19 C31 1_555 1_555
Cl2 C21 1_555 1_555
O14 C20 1_555 1_555
C32 O14 1_555 1_555
H20 C32 1_555 1_555
H21 C32 1_555 1_555
H22 C32 1_555 1_555
N3 C9 1_555 1_555
N4 C18 1_555 1_555
N6 C18 1_555 1_555
N9 C21 1_555 1_555
N12 C25 1_555 1_555
C5 C6 1_555 1_555
C14 C15 1_555 1_555

#END
