
#######################################################################
#
#                 Cambridge Crystallographic Data Centre
#                                CCDC 
#
#######################################################################
#
# If this CIF has been generated from an entry in the Cambridge 
# Structural Database, then it will include bibliographic, chemical, 
# crystal, experimental, refinement or atomic coordinate data resulting 
# from the CCDC's data processing and validation procedures.
#
#######################################################################

data_RELQIL
_chemical_formula_moiety         'C30 H53 N1 O1'
_chemical_name_systematic        
1-(cholest-5-en-3-yloxy)-N,N-dimethylmethanamine
_symmetry_cell_setting           monoclinic
_symmetry_space_group_name_H-M   'P 21'
_symmetry_Int_Tables_number      4
_space_group_name_Hall           'P 2yb'
loop_
_symmetry_equiv_pos_site_id
_symmetry_equiv_pos_as_xyz
1 x,y,z
2 -x,1/2+y,-z
_cell_length_a                   12.80(3)
_cell_length_b                   9.104(19)
_cell_length_c                   12.99(3)
_cell_angle_alpha                90
_cell_angle_beta                 110.67(3)
_cell_angle_gamma                90
_cell_volume                     1416.3
_exptl_crystal_colour            colorless
_exptl_crystal_description       columnar
_cell_formula_units_Z            2
loop_
_atom_site_label
_atom_site_type_symbol
_atom_site_fract_x
_atom_site_fract_y
_atom_site_fract_z
N1 N 1.1719(5) 0.3805(11) 0.9864(6)
O1 O 0.9943(3) 0.4851(7) 0.8912(4)
C1 C 0.8797(5) 0.4450(10) 0.8295(6)
H1 H 0.8781 0.3461 0.7991
C2 C 0.8058(5) 0.4486(10) 0.8988(6)
H2 H 0.8099 0.5448 0.9320
H3 H 0.8319 0.3766 0.9574
C3 C 0.6843(5) 0.4146(10) 0.8269(6)
H4 H 0.6386 0.4187 0.8726
H5 H 0.6805 0.3152 0.7990
C4 C 0.6338(5) 0.5226(9) 0.7266(6)
C5 C 0.5198(4) 0.4589(9) 0.6500(5)
H6 H 0.5339 0.3562 0.6363
C6 C 0.4278(4) 0.4557(10) 0.7033(5)
H7 H 0.4521 0.3908 0.7666
H8 H 0.4204 0.5535 0.7296
C7 C 0.3116(4) 0.4039(10) 0.6241(5)
H9 H 0.3158 0.3010 0.6066
H10 H 0.2578 0.4130 0.6608
C8 C 0.2706(5) 0.4934(9) 0.5164(5)
C9 C 0.1671(4) 0.4340(9) 0.4223(5)
H11 H 0.1759 0.3272 0.4205
C10 C 0.1829(5) 0.4970(9) 0.3169(5)
H12 H 0.1655 0.4226 0.2599
H13 H 0.1338 0.5804 0.2891
C11 C 0.3067(5) 0.5452(10) 0.3501(5)
H14 H 0.3400 0.5062 0.2993
H15 H 0.3132 0.6514 0.3518
C12 C 0.3620(4) 0.4799(9) 0.4650(5)
H16 H 0.3705 0.3746 0.4544
C13 C 0.4787(4) 0.5365(9) 0.5352(5)
H17 H 0.4737 0.6423 0.5466
C14 C 0.5636(4) 0.5106(9) 0.4777(5)
H18 H 0.5535 0.4125 0.4466
H19 H 0.5499 0.5802 0.4178
C15 C 0.6826(5) 0.5276(8) 0.5565(6)
H20 H 0.7376 0.5359 0.5255
C16 C 0.7159(5) 0.5316(9) 0.6647(5)
C17 C 0.8390(5) 0.5551(10) 0.7354(6)
H21 H 0.8841 0.5460 0.6894
H22 H 0.8487 0.6539 0.7654
C18 C 0.6209(5) 0.6742(10) 0.7711(6)
H23 H 0.6931 0.7118 0.8145
H24 H 0.5755 0.6665 0.8159
H25 H 0.5859 0.7396 0.7107
C19 C 0.2502(5) 0.6549(9) 0.5415(6)
H26 H 0.1996 0.6576 0.5811
H27 H 0.2187 0.7081 0.4737
H28 H 0.3198 0.6992 0.5853
C20 C 0.0489(4) 0.4629(10) 0.4243(5)
H29 H 0.0374 0.5695 0.4193
C21 C -0.0415(4) 0.3945(11) 0.3225(5)
H30 H -0.0227 0.4166 0.2581
H31 H -0.0390 0.2886 0.3314
C22 C -0.1621(5) 0.4464(10) 0.3007(5)
H32 H -0.1655 0.5525 0.2935
H33 H -0.1835 0.4202 0.3628
C23 C -0.2451(4) 0.3764(12) 0.1948(6)
H34 H -0.2283 0.4129 0.1322
H35 H -0.2333 0.2710 0.1983
C24 C -0.3689(5) 0.4063(12) 0.1747(7)
H36 H -0.3846 0.3622 0.2365
C25 C -0.4018(7) 0.5557(16) 0.1700(9)
H37 H -0.3599 0.6034 0.2379
H38 H -0.4800 0.5611 0.1584
H39 H -0.3877 0.6036 0.1103
C26 C -0.4435(6) 0.3239(15) 0.0690(6)
H40 H -0.5207 0.3382 0.0592
H41 H -0.4264 0.2209 0.0765
H42 H -0.4293 0.3619 0.0062
C27 C 0.0337(5) 0.4127(12) 0.5309(6)
H43 H 0.0503 0.3098 0.5419
H44 H -0.0420 0.4297 0.5256
H45 H 0.0833 0.4671 0.5919
C28 C 1.0551(6) 0.3778(14) 0.9723(7)
H46 H 1.0464 0.3991 1.0420
H47 H 1.0250 0.2807 0.9489
C29 C 1.2227(6) 0.5199(13) 1.0286(7)
H48 H 1.1936 0.5943 0.9734
H49 H 1.3021 0.5129 1.0474
H50 H 1.2061 0.5452 1.0929
C30 C 1.1938(9) 0.345(2) 0.8889(9)
H51 H 1.1775 0.4291 0.8408
H52 H 1.1476 0.2643 0.8522
H53 H 1.2709 0.3190 0.9079
loop_
_geom_bond_atom_site_label_1
_geom_bond_atom_site_label_2
_geom_bond_site_symmetry_1
_geom_bond_site_symmetry_2
N1 C28 1_555 1_555
O1 C1 1_555 1_555
C1 H1 1_555 1_555
C2 C1 1_555 1_555
H2 C2 1_555 1_555
H3 C2 1_555 1_555
C3 C2 1_555 1_555
H4 C3 1_555 1_555
H5 C3 1_555 1_555
C4 C3 1_555 1_555
C5 C4 1_555 1_555
H6 C5 1_555 1_555
C6 C5 1_555 1_555
H7 C6 1_555 1_555
H8 C6 1_555 1_555
C7 C6 1_555 1_555
H9 C7 1_555 1_555
H10 C7 1_555 1_555
C8 C7 1_555 1_555
C9 C8 1_555 1_555
H11 C9 1_555 1_555
C10 C9 1_555 1_555
H12 C10 1_555 1_555
H13 C10 1_555 1_555
C11 C10 1_555 1_555
H14 C11 1_555 1_555
H15 C11 1_555 1_555
C12 C8 1_555 1_555
H16 C12 1_555 1_555
C13 C5 1_555 1_555
H17 C13 1_555 1_555
C14 C13 1_555 1_555
H18 C14 1_555 1_555
H19 C14 1_555 1_555
C15 C14 1_555 1_555
H20 C15 1_555 1_555
C16 C4 1_555 1_555
C17 C1 1_555 1_555
H21 C17 1_555 1_555
H22 C17 1_555 1_555
C18 C4 1_555 1_555
H23 C18 1_555 1_555
H24 C18 1_555 1_555
H25 C18 1_555 1_555
C19 C8 1_555 1_555
H26 C19 1_555 1_555
H27 C19 1_555 1_555
H28 C19 1_555 1_555
C20 C9 1_555 1_555
H29 C20 1_555 1_555
C21 C20 1_555 1_555
H30 C21 1_555 1_555
H31 C21 1_555 1_555
C22 C21 1_555 1_555
H32 C22 1_555 1_555
H33 C22 1_555 1_555
C23 C22 1_555 1_555
H34 C23 1_555 1_555
H35 C23 1_555 1_555
C24 C23 1_555 1_555
H36 C24 1_555 1_555
C25 C24 1_555 1_555
H37 C25 1_555 1_555
H38 C25 1_555 1_555
H39 C25 1_555 1_555
C26 C24 1_555 1_555
H40 C26 1_555 1_555
H41 C26 1_555 1_555
H42 C26 1_555 1_555
C27 C20 1_555 1_555
H43 C27 1_555 1_555
H44 C27 1_555 1_555
H45 C27 1_555 1_555
C28 O1 1_555 1_555
H46 C28 1_555 1_555
H47 C28 1_555 1_555
C29 N1 1_555 1_555
H48 C29 1_555 1_555
H49 C29 1_555 1_555
H50 C29 1_555 1_555
C30 N1 1_555 1_555
H51 C30 1_555 1_555
H52 C30 1_555 1_555
H53 C30 1_555 1_555
C11 C12 1_555 1_555
C12 C13 1_555 1_555
C15 C16 1_555 1_555
C16 C17 1_555 1_555

#END
