
#######################################################################
#
#                 Cambridge Crystallographic Data Centre
#                                CCDC 
#
#######################################################################
#
# If this CIF has been generated from an entry in the Cambridge 
# Structural Database, then it will include bibliographic, chemical, 
# crystal, experimental, refinement or atomic coordinate data resulting 
# from the CCDC's data processing and validation procedures.
#
#######################################################################

data_RELQEH
_chemical_formula_moiety         'C11 H8 Br1 F3 O2'
_chemical_name_systematic        
2-bromo-5-methoxy-1-(trifluoromethyl)-1H-inden-1-ol
_symmetry_cell_setting           orthorhombic
_symmetry_space_group_name_H-M   'P b c a'
_symmetry_Int_Tables_number      61
_space_group_name_Hall           '-P 2ac 2ab'
loop_
_symmetry_equiv_pos_site_id
_symmetry_equiv_pos_as_xyz
1 x,y,z
2 1/2-x,-y,1/2+z
3 1/2+x,1/2-y,-z
4 -x,1/2+y,1/2-z
5 -x,-y,-z
6 1/2+x,y,1/2-z
7 1/2-x,1/2+y,z
8 x,1/2-y,1/2+z
_cell_length_a                   13.2696(5)
_cell_length_b                   10.9256(4)
_cell_length_c                   14.7939(5)
_cell_angle_alpha                90
_cell_angle_beta                 90
_cell_angle_gamma                90
_cell_volume                     2144.8
_exptl_crystal_colour            colorless
_exptl_crystal_description       pyramid
_cell_formula_units_Z            8
loop_
_atom_site_label
_atom_site_type_symbol
_atom_site_fract_x
_atom_site_fract_y
_atom_site_fract_z
C1 C 0.41439(16) 0.56379(17) 0.65490(13)
H1 H 0.4305 0.5846 0.7141
C2 C 0.40533(15) 0.65418(18) 0.58903(14)
H2 H 0.4164 0.7358 0.6038
C3 C 0.37963(13) 0.62184(19) 0.50107(14)
C4 C 0.36369(14) 0.49989(18) 0.47602(13)
H3 H 0.3468 0.4791 0.4170
C5 C 0.37398(13) 0.41126(19) 0.54226(13)
C6 C 0.39922(15) 0.44267(17) 0.63125(14)
C7 C 0.36419(14) 0.27704(18) 0.53618(14)
H4 H 0.3479 0.2331 0.4843
C8 C 0.38259(14) 0.22904(18) 0.61765(14)
C9 C 0.40898(15) 0.32690(17) 0.68789(13)
O1 O 0.36985(11) 0.70498(13) 0.43137(10)
C10 C 0.37524(15) 0.83264(19) 0.45490(16)
H5 H 0.3626 0.8815 0.4022
H6 H 0.4411 0.8509 0.4781
H7 H 0.3256 0.8506 0.5002
C11 C 0.33326(16) 0.32543(18) 0.76620(14)
F1 F 0.34086(10) 0.22380(11) 0.81655(8)
F2 F 0.23829(9) 0.33129(11) 0.73612(9)
F3 F 0.34753(11) 0.41986(11) 0.82251(9)
O2 O 0.50414(10) 0.31007(13) 0.72912(9)
H8 H 0.5484 0.3135 0.6905
Br1 Br 0.383539(16) 0.061980(18) 0.645888(14)
loop_
_geom_bond_atom_site_label_1
_geom_bond_atom_site_label_2
_geom_bond_site_symmetry_1
_geom_bond_site_symmetry_2
C1 H1 1_555 1_555
C2 C1 1_555 1_555
H2 C2 1_555 1_555
C3 C2 1_555 1_555
C4 C3 1_555 1_555
H3 C4 1_555 1_555
C5 C4 1_555 1_555
C6 C1 1_555 1_555
C7 C5 1_555 1_555
H4 C7 1_555 1_555
C8 C7 1_555 1_555
C9 C6 1_555 1_555
O1 C3 1_555 1_555
C10 O1 1_555 1_555
H5 C10 1_555 1_555
H6 C10 1_555 1_555
H7 C10 1_555 1_555
C11 C9 1_555 1_555
F1 C11 1_555 1_555
F2 C11 1_555 1_555
F3 C11 1_555 1_555
O2 C9 1_555 1_555
H8 O2 1_555 1_555
Br1 C8 1_555 1_555
C5 C6 1_555 1_555
C8 C9 1_555 1_555

#END
