
#######################################################################
#
#                 Cambridge Crystallographic Data Centre
#                                CCDC 
#
#######################################################################
#
# If this CIF has been generated from an entry in the Cambridge 
# Structural Database, then it will include bibliographic, chemical, 
# crystal, experimental, refinement or atomic coordinate data resulting 
# from the CCDC's data processing and validation procedures.
#
#######################################################################

data_RELQUX
_chemical_formula_moiety         'C11 H17 N1 O1'
_chemical_name_systematic        4-((dimethylamino)methyl)-2,6-dimethylphenol
_symmetry_cell_setting           orthorhombic
_symmetry_space_group_name_H-M   'P 21 21 21'
_symmetry_Int_Tables_number      19
_space_group_name_Hall           'P 2ac 2ab'
loop_
_symmetry_equiv_pos_site_id
_symmetry_equiv_pos_as_xyz
1 x,y,z
2 1/2-x,-y,1/2+z
3 1/2+x,1/2-y,-z
4 -x,1/2+y,1/2-z
_cell_length_a                   8.063(8)
_cell_length_b                   11.057(10)
_cell_length_c                   12.142(12)
_cell_angle_alpha                90
_cell_angle_beta                 90
_cell_angle_gamma                90
_cell_volume                     1082.49
_exptl_crystal_colour            colorless
_exptl_crystal_description       prism
_cell_formula_units_Z            4
loop_
_atom_site_label
_atom_site_type_symbol
_atom_site_fract_x
_atom_site_fract_y
_atom_site_fract_z
N1 N 1.0000(3) 0.44947(19) 0.93124(16)
O1 O 0.5772(3) 0.93534(18) 0.87428(16)
H1 H 0.575(4) 0.966(3) 0.942(3)
C1 C 0.6749(3) 0.8342(2) 0.86616(17)
C2 C 0.8343(3) 0.8319(2) 0.90961(19)
C3 C 0.9272(4) 0.7282(2) 0.8953(2)
H2 H 1.0341 0.7260 0.9239
C4 C 0.8687(3) 0.6274(2) 0.84025(18)
C5 C 0.7091(3) 0.6330(2) 0.79750(19)
H3 H 0.6667 0.5663 0.7602
C6 C 0.6116(3) 0.7350(2) 0.80884(19)
C7 C 0.9035(4) 0.9410(3) 0.9682(3)
H4 H 0.8827 1.0122 0.9250
H5 H 1.0208 0.9312 0.9782
H6 H 0.8509 0.9492 1.0388
C8 C 0.9735(4) 0.5156(2) 0.8276(2)
H7 H 0.9206 0.4619 0.7750
H8 H 1.0804 0.5386 0.7975
C9 C 1.1081(5) 0.3452(3) 0.9102(3)
H9 H 1.0536 0.2903 0.8608
H10 H 1.1313 0.3046 0.9784
H11 H 1.2100 0.3724 0.8778
C10 C 0.8435(4) 0.4097(3) 0.9772(3)
H12 H 0.7865 0.3602 0.9244
H13 H 0.7766 0.4789 0.9947
H14 H 0.8636 0.3637 1.0429
C11 C 0.4391(4) 0.7397(3) 0.7627(3)
H15 H 0.4115 0.6627 0.7311
H16 H 0.4334 0.8010 0.7068
H17 H 0.3621 0.7585 0.8205
loop_
_geom_bond_atom_site_label_1
_geom_bond_atom_site_label_2
_geom_bond_site_symmetry_1
_geom_bond_site_symmetry_2
N1 C8 1_555 1_555
O1 H1 1_555 1_555
C1 O1 1_555 1_555
C2 C1 1_555 1_555
C3 C2 1_555 1_555
H2 C3 1_555 1_555
C4 C3 1_555 1_555
C5 C4 1_555 1_555
H3 C5 1_555 1_555
C6 C1 1_555 1_555
C7 C2 1_555 1_555
H4 C7 1_555 1_555
H5 C7 1_555 1_555
H6 C7 1_555 1_555
C8 C4 1_555 1_555
H7 C8 1_555 1_555
H8 C8 1_555 1_555
C9 N1 1_555 1_555
H9 C9 1_555 1_555
H10 C9 1_555 1_555
H11 C9 1_555 1_555
C10 N1 1_555 1_555
H12 C10 1_555 1_555
H13 C10 1_555 1_555
H14 C10 1_555 1_555
C11 C6 1_555 1_555
H15 C11 1_555 1_555
H16 C11 1_555 1_555
H17 C11 1_555 1_555
C5 C6 1_555 1_555

#END
