
#######################################################################
#
#                 Cambridge Crystallographic Data Centre
#                                CCDC 
#
#######################################################################
#
# If this CIF has been generated from an entry in the Cambridge 
# Structural Database, then it will include bibliographic, chemical, 
# crystal, experimental, refinement or atomic coordinate data resulting 
# from the CCDC's data processing and validation procedures.
#
#######################################################################

data_RELRIL
_chemical_formula_moiety         'C34 H25 N1 O1'
_chemical_name_systematic        
4-(9-(4-Methoxyphenyl)-7-methyl-1-phenyl-9H-fluoren-3-yl)benzonitrile
_symmetry_cell_setting           monoclinic
_symmetry_space_group_name_H-M   'C 2/c'
_symmetry_Int_Tables_number      15
_space_group_name_Hall           '-C 2yn'
loop_
_symmetry_equiv_pos_site_id
_symmetry_equiv_pos_as_xyz
1 x,y,z
2 -x,y,1/2-z
3 1/2+x,1/2+y,z
4 1/2-x,1/2+y,1/2-z
5 -x,-y,-z
6 x,-y,1/2+z
7 1/2-x,1/2-y,-z
8 1/2+x,1/2-y,1/2+z
_cell_length_a                   11.739(8)
_cell_length_b                   15.319(10)
_cell_length_c                   28.17(2)
_cell_angle_alpha                90
_cell_angle_beta                 97.721(8)
_cell_angle_gamma                90
_cell_volume                     5019.88
_exptl_crystal_colour            colorless
_exptl_crystal_description       block
_cell_formula_units_Z            8
loop_
_atom_site_label
_atom_site_type_symbol
_atom_site_fract_x
_atom_site_fract_y
_atom_site_fract_z
C1 C 1.0759(6) -0.1844(4) 0.3485(2)
H1 H 1.0439 -0.1901 0.3768
C2 C 1.1188(6) -0.2577(4) 0.3289(2)
H2 H 1.1133 -0.3118 0.3434
C3 C 1.1690(5) -0.2512(4) 0.2883(2)
C4 C 1.1778(6) -0.1709(5) 0.2690(3)
H3 H 1.2150 -0.1651 0.2420
C5 C 1.1333(6) -0.0973(4) 0.2883(2)
H4 H 1.1407 -0.0432 0.2740
C6 C 1.0784(5) -0.1033(4) 0.32803(19)
C7 C 1.0265(5) -0.0263(3) 0.34940(18)
C8 C 1.0482(5) 0.0580(4) 0.33445(19)
H5 H 1.0933 0.0669 0.3101
C9 C 1.0021(5) 0.1282(3) 0.35600(19)
C10 C 1.0068(5) 0.2220(4) 0.34544(19)
C11 C 1.0595(6) 0.2658(4) 0.3122(2)
H6 H 1.1018 0.2358 0.2918
C12 C 1.0486(7) 0.3572(4) 0.3093(2)
H7 H 1.0859 0.3878 0.2874
C13 C 0.9837(7) 0.4021(4) 0.3384(3)
C14 C 0.9301(6) 0.3569(4) 0.3718(2)
H8 H 0.8859 0.3863 0.3916
C15 C 0.9434(5) 0.2666(4) 0.3752(2)
C16 C 0.8981(5) 0.2054(3) 0.41070(19)
H9 H 0.8140 0.2083 0.4074
C17 C 0.9365(4) 0.1177(3) 0.39324(19)
C18 C 0.9092(4) 0.0339(3) 0.40729(19)
C19 C 0.9563(4) -0.0357(3) 0.38472(18)
H10 H 0.9394 -0.0920 0.3940
C20 C 1.2145(6) -0.3273(5) 0.2681(2)
C21 C 0.9684(7) 0.4992(4) 0.3335(3)
H11 H 1.0362 0.5245 0.3236
H12 H 0.9556 0.5235 0.3637
H13 H 0.9034 0.5115 0.3099
C22 C 0.9493(5) 0.2307(3) 0.46103(19)
C23 C 0.8872(5) 0.2842(3) 0.4881(2)
H14 H 0.8133 0.3015 0.4757
C24 C 0.9330(5) 0.3116(4) 0.5327(2)
H15 H 0.8895 0.3467 0.5504
C25 C 1.0430(5) 0.2881(3) 0.55181(19)
C26 C 1.1058(5) 0.2350(3) 0.5254(2)
H16 H 1.1799 0.2181 0.5377
C27 C 1.0578(5) 0.2075(3) 0.4806(2)
H17 H 1.1008 0.1717 0.4631
C28 C 1.1940(6) 0.2982(5) 0.6172(2)
H18 H 1.2024 0.2359 0.6187
H19 H 1.2077 0.3220 0.6490
H20 H 1.2483 0.3223 0.5982
C29 C 0.8314(5) 0.0151(3) 0.4442(2)
C30 C 0.8562(5) 0.0397(3) 0.4914(2)
H21 H 0.9228 0.0714 0.5012
C31 C 0.7844(5) 0.0182(4) 0.5246(2)
H22 H 0.8038 0.0341 0.5565
C32 C 0.6852(6) -0.0265(4) 0.5106(3)
H23 H 0.6357 -0.0396 0.5328
C33 C 0.6586(5) -0.0517(4) 0.4642(3)
H24 H 0.5916 -0.0833 0.4550
C34 C 0.7298(5) -0.0311(4) 0.4306(2)
H25 H 0.7100 -0.0481 0.3989
N1 N 1.2497(6) -0.3873(5) 0.2514(2)
O1 O 1.0814(4) 0.3195(3) 0.59626(15)
loop_
_geom_bond_atom_site_label_1
_geom_bond_atom_site_label_2
_geom_bond_site_symmetry_1
_geom_bond_site_symmetry_2
C1 H1 1_555 1_555
C2 C1 1_555 1_555
H2 C2 1_555 1_555
C3 C2 1_555 1_555
C4 C3 1_555 1_555
H3 C4 1_555 1_555
C5 C4 1_555 1_555
H4 C5 1_555 1_555
C6 C1 1_555 1_555
C7 C6 1_555 1_555
C8 C7 1_555 1_555
H5 C8 1_555 1_555
C9 C8 1_555 1_555
C10 C9 1_555 1_555
C11 C10 1_555 1_555
H6 C11 1_555 1_555
C12 C11 1_555 1_555
H7 C12 1_555 1_555
C13 C12 1_555 1_555
C14 C13 1_555 1_555
H8 C14 1_555 1_555
C15 C10 1_555 1_555
C16 C15 1_555 1_555
H9 C16 1_555 1_555
C17 C9 1_555 1_555
C18 C17 1_555 1_555
C19 C7 1_555 1_555
H10 C19 1_555 1_555
C20 C3 1_555 1_555
C21 C13 1_555 1_555
H11 C21 1_555 1_555
H12 C21 1_555 1_555
H13 C21 1_555 1_555
C22 C16 1_555 1_555
C23 C22 1_555 1_555
H14 C23 1_555 1_555
C24 C23 1_555 1_555
H15 C24 1_555 1_555
C25 C24 1_555 1_555
C26 C25 1_555 1_555
H16 C26 1_555 1_555
C27 C22 1_555 1_555
H17 C27 1_555 1_555
C28 H18 1_555 1_555
H19 C28 1_555 1_555
H20 C28 1_555 1_555
C29 C18 1_555 1_555
C30 C29 1_555 1_555
H21 C30 1_555 1_555
C31 C30 1_555 1_555
H22 C31 1_555 1_555
C32 C31 1_555 1_555
H23 C32 1_555 1_555
C33 C32 1_555 1_555
H24 C33 1_555 1_555
C34 C29 1_555 1_555
H25 C34 1_555 1_555
N1 C20 1_555 1_555
O1 C25 1_555 1_555
C5 C6 1_555 1_555
C14 C15 1_555 1_555
C16 C17 1_555 1_555
C18 C19 1_555 1_555
C26 C27 1_555 1_555
C28 O1 1_555 1_555
C33 C34 1_555 1_555

#END
