
#######################################################################
#
#                 Cambridge Crystallographic Data Centre
#                                CCDC 
#
#######################################################################
#
# If this CIF has been generated from an entry in the Cambridge 
# Structural Database, then it will include bibliographic, chemical, 
# crystal, experimental, refinement or atomic coordinate data resulting 
# from the CCDC's data processing and validation procedures.
#
#######################################################################

data_RELRIM
_chemical_formula_moiety         'C16 H22 N2 O1'
_chemical_name_systematic        2,4-bis[(dimethylamino)methyl]naphthalen-1-ol
_symmetry_cell_setting           orthorhombic
_symmetry_space_group_name_H-M   'P b c a'
_symmetry_Int_Tables_number      61
_space_group_name_Hall           '-P 2ac 2ab'
loop_
_symmetry_equiv_pos_site_id
_symmetry_equiv_pos_as_xyz
1 x,y,z
2 1/2-x,-y,1/2+z
3 -x,1/2+y,1/2-z
4 1/2+x,1/2-y,-z
5 -x,-y,-z
6 1/2+x,y,1/2-z
7 x,1/2-y,1/2+z
8 1/2-x,1/2+y,z
_cell_length_a                   14.4069(9)
_cell_length_b                   10.4989(7)
_cell_length_c                   19.3631(13)
_cell_angle_alpha                90
_cell_angle_beta                 90
_cell_angle_gamma                90
_cell_volume                     2928.8
_exptl_crystal_colour            colorless
_exptl_crystal_description       needles
_cell_formula_units_Z            8
loop_
_atom_site_label
_atom_site_type_symbol
_atom_site_fract_x
_atom_site_fract_y
_atom_site_fract_z
O1 O 0.39744(7) 0.29071(9) 0.46712(5)
N1 N 0.24282(8) 0.10511(10) 0.17410(5)
N2 N 0.37417(8) 0.53716(10) 0.43802(6)
C1 C 0.40607(8) 0.14921(11) 0.37079(7)
C2 C 0.38688(8) 0.12217(11) 0.30010(7)
C3 C 0.33765(8) 0.36053(11) 0.35771(7)
C4 C 0.37987(9) 0.26946(11) 0.39868(7)
C5 C 0.34308(8) 0.21761(11) 0.25822(7)
C6 C 0.32124(9) 0.33252(11) 0.28756(7)
H1 H 0.2938 0.3962 0.2593
C7 C 0.41209(9) 0.00053(12) 0.27432(7)
H2 H 0.3990 -0.0201 0.2276
C8 C 0.32119(9) 0.19280(13) 0.18325(6)
H3 H 0.3066 0.2746 0.1603
H4 H 0.3767 0.1565 0.1605
C9 C 0.45013(9) 0.05576(12) 0.41233(7)
H5 H 0.4632 0.0739 0.4594
C10 C 0.30665(9) 0.48594(12) 0.38763(7)
H6 H 0.2983 0.5482 0.3498
H7 H 0.2459 0.4744 0.4107
C11 C 0.45505(10) -0.08795(12) 0.31551(8)
H8 H 0.4721 -0.1683 0.2969
C12 C 0.47409(10) -0.06032(12) 0.38538(8)
H9 H 0.5035 -0.1222 0.4137
C13 C 0.46226(10) 0.56647(14) 0.40372(8)
H10 H 0.4511 0.6261 0.3657
H11 H 0.4895 0.4878 0.3855
H12 H 0.5051 0.6050 0.4370
C14 C 0.33686(12) 0.65225(13) 0.47089(8)
H13 H 0.3806 0.6826 0.5060
H14 H 0.2772 0.6324 0.4927
H15 H 0.3279 0.7186 0.4359
C15 C 0.15603(10) 0.16434(15) 0.19479(8)
H16 H 0.1434 0.2376 0.1649
H17 H 0.1607 0.1929 0.2428
H18 H 0.1054 0.1024 0.1906
C16 C 0.23752(12) 0.06314(16) 0.10250(8)
H19 H 0.1852 0.0044 0.0970
H20 H 0.2953 0.0196 0.0899
H21 H 0.2286 0.1371 0.0724
H22 H 0.3875(13) 0.375(2) 0.4726(10)
loop_
_geom_bond_atom_site_label_1
_geom_bond_atom_site_label_2
_geom_bond_site_symmetry_1
_geom_bond_site_symmetry_2
O1 C4 1_555 1_555
N1 C8 1_555 1_555
N2 C10 1_555 1_555
C1 C2 1_555 1_555
C2 C5 1_555 1_555
C3 C4 1_555 1_555
C4 C1 1_555 1_555
C5 C6 1_555 1_555
C6 C3 1_555 1_555
H1 C6 1_555 1_555
C7 C2 1_555 1_555
H2 C7 1_555 1_555
C8 C5 1_555 1_555
H3 C8 1_555 1_555
H4 C8 1_555 1_555
C9 C1 1_555 1_555
H5 C9 1_555 1_555
C10 C3 1_555 1_555
H6 C10 1_555 1_555
H7 C10 1_555 1_555
C11 C7 1_555 1_555
H8 C11 1_555 1_555
C12 C9 1_555 1_555
H9 C12 1_555 1_555
C13 N2 1_555 1_555
H10 C13 1_555 1_555
H11 C13 1_555 1_555
H12 C13 1_555 1_555
C14 N2 1_555 1_555
H13 C14 1_555 1_555
H14 C14 1_555 1_555
H15 C14 1_555 1_555
C15 N1 1_555 1_555
H16 C15 1_555 1_555
H17 C15 1_555 1_555
H18 C15 1_555 1_555
C16 N1 1_555 1_555
H19 C16 1_555 1_555
H20 C16 1_555 1_555
H21 C16 1_555 1_555
H22 O1 1_555 1_555
C11 C12 1_555 1_555

#END
