
#######################################################################
#
#                 Cambridge Crystallographic Data Centre
#                                CCDC 
#
#######################################################################
#
# If this CIF has been generated from an entry in the Cambridge 
# Structural Database, then it will include bibliographic, chemical, 
# crystal, experimental, refinement or atomic coordinate data resulting 
# from the CCDC's data processing and validation procedures.
#
#######################################################################

data_RELRAE
_chemical_formula_moiety         'C23 H18 N2 O1'
_chemical_name_systematic        
11-(4-methoxyphenyl)-6-methyl-11H-indolo[3,2-c]quinoline
_symmetry_cell_setting           triclinic
_symmetry_space_group_name_H-M   'P -1'
_symmetry_Int_Tables_number      2
_space_group_name_Hall           '-P 1'
loop_
_symmetry_equiv_pos_site_id
_symmetry_equiv_pos_as_xyz
1 x,y,z
2 -x,-y,-z
_cell_length_a                   11.9183(2)
_cell_length_b                   14.2302(3)
_cell_length_c                   16.0093(3)
_cell_angle_alpha                99.1242(8)
_cell_angle_beta                 93.7878(8)
_cell_angle_gamma                101.7422(8)
_cell_volume                     2611.1
_exptl_crystal_colour            yellow
_exptl_crystal_description       prism
_cell_formula_units_Z            6
loop_
_atom_site_label
_atom_site_type_symbol
_atom_site_fract_x
_atom_site_fract_y
_atom_site_fract_z
C1 C 0.75697(13) 0.96362(11) 0.76382(10)
C2 C 0.71049(14) 0.90773(11) 0.68221(10)
C3 C 0.77323(16) 0.87093(12) 0.61736(11)
H1 H 0.8549 0.8831 0.6263
C4 C 0.71729(18) 0.81784(13) 0.54184(11)
H2 H 0.7605 0.7931 0.4990
C5 C 0.59715(18) 0.79965(14) 0.52710(12)
H3 H 0.5595 0.7637 0.4740
C6 C 0.53391(17) 0.83310(13) 0.58828(12)
H4 H 0.4524 0.8206 0.5774
C7 C 0.58794(15) 0.88632(12) 0.66796(11)
C8 C 0.56292(14) 0.95796(12) 0.80420(11)
C9 C 0.68391(14) 0.98759(11) 0.82429(10)
C10 C 0.75531(14) 1.04317(11) 0.89984(10)
C11 C 0.73442(15) 1.09062(12) 0.97868(11)
H5 H 0.6578 1.0879 0.9928
C12 C 0.82659(16) 1.14139(13) 1.03561(11)
H6 H 0.8130 1.1732 1.0896
C13 C 0.93950(16) 1.14692(13) 1.01539(11)
H7 H 1.0014 1.1831 1.0557
C14 C 0.96316(15) 1.10091(12) 0.93806(11)
H8 H 1.0401 1.1045 0.9243
C15 C 0.86970(14) 1.04902(11) 0.88113(10)
C16 C 0.48241(15) 0.97873(14) 0.86899(12)
H9 H 0.4030 0.9487 0.8451
H10 H 0.4906 1.0494 0.8848
H11 H 0.5008 0.9517 0.9195
C17 C 0.97064(14) 1.01492(11) 0.75304(10)
C18 C 0.97186(15) 1.06756(12) 0.68694(11)
H12 H 0.9058 1.0908 0.6709
C19 C 1.06848(15) 1.08606(12) 0.64459(11)
H13 H 1.0681 1.1204 0.5983
C20 C 1.16607(14) 1.05486(12) 0.66916(11)
C21 C 1.16649(15) 1.00374(13) 0.73630(11)
H14 H 1.2337 0.9827 0.7537
C22 C 1.06769(14) 0.98360(12) 0.77789(11)
H15 H 1.0672 0.9482 0.8235
C23 C 1.36107(17) 1.0506(2) 0.64908(15)
H16 H 1.3874 1.0805 0.7084
H17 H 1.4205 1.0726 0.6127
H18 H 1.3466 0.9795 0.6434
N1 N 0.87045(11) 0.99935(10) 0.79809(8)
N2 N 0.51659(12) 0.91105(10) 0.72821(9)
O1 O 1.25787(11) 1.07862(10) 0.62404(8)
C24 C 0.67047(14) 0.39699(12) 0.63771(11)
C25 C 0.62752(13) 0.47558(12) 0.68244(10)
C26 C 0.63010(14) 0.56775(12) 0.66114(11)
H19 H 0.6629 0.5828 0.6111
C27 C 0.58730(15) 0.63556(14) 0.70969(12)
H20 H 0.5902 0.6974 0.6936
C28 C 0.53905(15) 0.61570(14) 0.78314(12)
H21 H 0.5103 0.6647 0.8172
C29 C 0.53205(14) 0.52733(14) 0.80754(11)
H22 H 0.4973 0.5151 0.8576
C30 C 0.57616(14) 0.45379(13) 0.75880(11)
C31 C 0.61159(16) 0.29778(14) 0.74399(12)
C32 C 0.65991(15) 0.30973(13) 0.66710(11)
C33 C 0.71036(17) 0.24554(13) 0.60687(12)
C34 C 0.7234(2) 0.15023(15) 0.59807(15)
H23 H 0.6951 0.1099 0.6374
C35 C 0.7791(2) 0.11497(17) 0.53001(15)
H24 H 0.7882 0.0495 0.5235
C36 C 0.8219(2) 0.17128(17) 0.47135(15)
H25 H 0.8609 0.1447 0.4266
C37 C 0.80757(19) 0.26770(16) 0.47803(13)
H26 H 0.8349 0.3075 0.4381
C38 C 0.75137(15) 0.30200(12) 0.54606(11)
C39 C 0.61000(18) 0.20816(14) 0.78129(14)
H27 H 0.5687 0.2117 0.8323
H28 H 0.6892 0.2030 0.7966
H29 H 0.5710 0.1508 0.7395
C40 C 0.74772(15) 0.46618(13) 0.51199(11)
C41 C 0.84844(15) 0.53826(14) 0.52701(11)
H30 H 0.9043 0.5397 0.5726
C42 C 0.86697(15) 0.60797(13) 0.47516(11)
H31 H 0.9358 0.6572 0.4853
C43 C 0.78525(14) 0.60629(12) 0.40828(10)
C44 C 0.68453(15) 0.53460(13) 0.39364(11)
H32 H 0.6281 0.5335 0.3485
C45 C 0.66672(15) 0.46433(14) 0.44567(11)
H33 H 0.5983 0.4147 0.4354
C46 C 0.73405(19) 0.67647(15) 0.28963(12)
H34 H 0.7234 0.6135 0.2515
H35 H 0.7656 0.7291 0.2594
H36 H 0.6597 0.6854 0.3083
N3 N 0.72592(13) 0.39354(10) 0.56581(9)
N4 N 0.56948(13) 0.36761(12) 0.78785(10)
O2 O 0.81184(11) 0.67863(9) 0.36179(7)
C47 C 0.82380(13) 0.54359(11) 0.89672(10)
C48 C 0.87035(13) 0.46704(11) 0.85282(10)
C49 C 0.87459(14) 0.37655(12) 0.87760(11)
H37 H 0.8446 0.3623 0.9288
C50 C 0.92118(15) 0.30970(12) 0.82894(12)
H38 H 0.9234 0.2494 0.8466
C51 C 0.96565(15) 0.32884(13) 0.75340(12)
H39 H 0.9966 0.2812 0.7195
C52 C 0.96480(14) 0.41573(13) 0.72815(11)
H40 H 0.9960 0.4282 0.6769
C53 C 0.91853(13) 0.48734(12) 0.77657(10)
C54 C 0.88257(14) 0.64347(12) 0.79089(10)
C55 C 0.83030(13) 0.63124(11) 0.86622(10)
C56 C 0.77747(14) 0.69346(12) 0.92516(10)
C57 C 0.75706(15) 0.78737(12) 0.93194(12)
H41 H 0.7794 0.8259 0.8900
C58 C 0.70442(16) 0.82355(13) 0.99966(13)
H42 H 0.6917 0.8879 1.0046
C59 C 0.66905(16) 0.76804(14) 1.06151(12)
H43 H 0.6328 0.7952 1.1078
C60 C 0.68613(15) 0.67374(13) 1.05629(11)
H44 H 0.6611 0.6349 1.0974
C61 C 0.74157(14) 0.63871(11) 0.98807(10)
C62 C 0.89263(16) 0.73588(13) 0.75570(12)
H45 H 0.9274 0.7289 0.7019
H46 H 0.9412 0.7899 0.7964
H47 H 0.8159 0.7493 0.7458
C63 C 0.74467(14) 0.47430(11) 1.02236(10)
C64 C 0.65068(14) 0.39635(12) 0.99869(10)
H48 H 0.6020 0.3915 0.9481
C65 C 0.62868(14) 0.32598(12) 1.04939(10)
H49 H 0.5652 0.2721 1.0332
C66 C 0.69889(13) 0.33359(11) 1.12391(10)
C67 C 0.79187(14) 0.41159(12) 1.14805(10)
H50 H 0.8397 0.4171 1.1992
C68 C 0.81441(14) 0.48183(12) 1.09638(11)
H51 H 0.8783 0.5354 1.1123
C69 C 0.72720(17) 0.27171(14) 1.25236(11)
H52 H 0.8088 0.2716 1.2478
H53 H 0.6926 0.2178 1.2802
H54 H 0.7203 0.3337 1.2861
N5 N 0.76923(12) 0.54754(10) 0.96990(8)
N6 N 0.92498(12) 0.57425(10) 0.74718(9)
O3 O 0.66883(10) 0.26007(8) 1.16939(7)
loop_
_geom_bond_atom_site_label_1
_geom_bond_atom_site_label_2
_geom_bond_site_symmetry_1
_geom_bond_site_symmetry_2
C1 C2 1_555 1_555
C2 C3 1_555 1_555
C3 H1 1_555 1_555
C4 C3 1_555 1_555
H2 C4 1_555 1_555
C5 C4 1_555 1_555
H3 C5 1_555 1_555
C6 C5 1_555 1_555
H4 C6 1_555 1_555
C7 C2 1_555 1_555
C8 C9 1_555 1_555
C9 C1 1_555 1_555
C10 C9 1_555 1_555
C11 C10 1_555 1_555
H5 C11 1_555 1_555
C12 C11 1_555 1_555
H6 C12 1_555 1_555
C13 C12 1_555 1_555
H7 C13 1_555 1_555
C14 C13 1_555 1_555
H8 C14 1_555 1_555
C15 C10 1_555 1_555
C16 C8 1_555 1_555
H9 C16 1_555 1_555
H10 C16 1_555 1_555
H11 C16 1_555 1_555
C17 C18 1_555 1_555
C18 H12 1_555 1_555
C19 C18 1_555 1_555
H13 C19 1_555 1_555
C20 C19 1_555 1_555
C21 C20 1_555 1_555
H14 C21 1_555 1_555
C22 C17 1_555 1_555
H15 C22 1_555 1_555
C23 H16 1_555 1_555
H17 C23 1_555 1_555
H18 C23 1_555 1_555
N1 C1 1_555 1_555
N2 C7 1_555 1_555
O1 C20 1_555 1_555
C24 C25 1_555 1_555
C25 C26 1_555 1_555
C26 H19 1_555 1_555
C27 C26 1_555 1_555
H20 C27 1_555 1_555
C28 C27 1_555 1_555
H21 C28 1_555 1_555
C29 C28 1_555 1_555
H22 C29 1_555 1_555
C30 C25 1_555 1_555
C31 C32 1_555 1_555
C32 C24 1_555 1_555
C33 C32 1_555 1_555
C34 C33 1_555 1_555
H23 C34 1_555 1_555
C35 C34 1_555 1_555
H24 C35 1_555 1_555
C36 C35 1_555 1_555
H25 C36 1_555 1_555
C37 C36 1_555 1_555
H26 C37 1_555 1_555
C38 C33 1_555 1_555
C39 C31 1_555 1_555
H27 C39 1_555 1_555
H28 C39 1_555 1_555
H29 C39 1_555 1_555
C40 C41 1_555 1_555
C41 H30 1_555 1_555
C42 C41 1_555 1_555
H31 C42 1_555 1_555
C43 C42 1_555 1_555
C44 C43 1_555 1_555
H32 C44 1_555 1_555
C45 C40 1_555 1_555
H33 C45 1_555 1_555
C46 H34 1_555 1_555
H35 C46 1_555 1_555
H36 C46 1_555 1_555
N3 C24 1_555 1_555
N4 C30 1_555 1_555
O2 C43 1_555 1_555
C47 C48 1_555 1_555
C48 C49 1_555 1_555
C49 H37 1_555 1_555
C50 C49 1_555 1_555
H38 C50 1_555 1_555
C51 C50 1_555 1_555
H39 C51 1_555 1_555
C52 C51 1_555 1_555
H40 C52 1_555 1_555
C53 C48 1_555 1_555
C54 C55 1_555 1_555
C55 C47 1_555 1_555
C56 C55 1_555 1_555
C57 C56 1_555 1_555
H41 C57 1_555 1_555
C58 C57 1_555 1_555
H42 C58 1_555 1_555
C59 C58 1_555 1_555
H43 C59 1_555 1_555
C60 C59 1_555 1_555
H44 C60 1_555 1_555
C61 C56 1_555 1_555
C62 C54 1_555 1_555
H45 C62 1_555 1_555
H46 C62 1_555 1_555
H47 C62 1_555 1_555
C63 C64 1_555 1_555
C64 H48 1_555 1_555
C65 C64 1_555 1_555
H49 C65 1_555 1_555
C66 C65 1_555 1_555
C67 C66 1_555 1_555
H50 C67 1_555 1_555
C68 C63 1_555 1_555
H51 C68 1_555 1_555
C69 H52 1_555 1_555
H53 C69 1_555 1_555
H54 C69 1_555 1_555
N5 C47 1_555 1_555
N6 C53 1_555 1_555
O3 C66 1_555 1_555
C6 C7 1_555 1_555
C8 N2 1_555 1_555
C14 C15 1_555 1_555
C15 N1 1_555 1_555
C17 N1 1_555 1_555
C21 C22 1_555 1_555
C23 O1 1_555 1_555
C29 C30 1_555 1_555
C31 N4 1_555 1_555
C37 C38 1_555 1_555
C38 N3 1_555 1_555
C40 N3 1_555 1_555
C44 C45 1_555 1_555
C46 O2 1_555 1_555
C52 C53 1_555 1_555
C54 N6 1_555 1_555
C60 C61 1_555 1_555
C61 N5 1_555 1_555
C63 N5 1_555 1_555
C67 C68 1_555 1_555
C69 O3 1_555 1_555

#END
