
#######################################################################
#
#                 Cambridge Crystallographic Data Centre
#                                CCDC 
#
#######################################################################
#
# If this CIF has been generated from an entry in the Cambridge 
# Structural Database, then it will include bibliographic, chemical, 
# crystal, experimental, refinement or atomic coordinate data resulting 
# from the CCDC's data processing and validation procedures.
#
#######################################################################

data_RELVEM
_chemical_formula_moiety         'C26 H21 Br2 F3'
_chemical_name_systematic        
2,6-dibromo-1,3-bis(2,4-dimethylphenyl)-1-(trifluoromethyl)-1H-indene
_symmetry_cell_setting           orthorhombic
_symmetry_space_group_name_H-M   'P n a 21'
_symmetry_Int_Tables_number      33
_space_group_name_Hall           'P 2c -2n'
loop_
_symmetry_equiv_pos_site_id
_symmetry_equiv_pos_as_xyz
1 x,y,z
2 -x,-y,1/2+z
3 1/2-x,1/2+y,1/2+z
4 1/2+x,1/2-y,z
_cell_length_a                   15.9572(7)
_cell_length_b                   7.9691(4)
_cell_length_c                   35.3986(16)
_cell_angle_alpha                90
_cell_angle_beta                 90
_cell_angle_gamma                90
_cell_volume                     4501.45
_exptl_crystal_colour            colorless
_exptl_crystal_description       tabular
_cell_formula_units_Z            8
loop_
_atom_site_label
_atom_site_type_symbol
_atom_site_fract_x
_atom_site_fract_y
_atom_site_fract_z
Br1 Br 0.56692(7) 0.04458(16) 0.59353(4)
Br2 Br 0.28840(8) 0.74392(17) 0.71165(5)
F1 F 0.6284(4) 0.4307(9) 0.5969(2)
F2 F 0.5682(4) 0.6249(9) 0.6297(2)
F3 F 0.5065(5) 0.5138(10) 0.5817(2)
C1 C 0.6974(7) 0.3309(14) 0.7086(4)
H1 H 0.7497 0.3851 0.7123
C2 C 0.5549(7) 0.4755(14) 0.6114(4)
C3 C 0.6470(7) 0.3764(15) 0.6777(3)
H2 H 0.6659 0.4608 0.6608
C4 C 0.4611(8) 0.0824(17) 0.6938(4)
H3 H 0.4156 0.1625 0.6894
H4 H 0.4509 0.0213 0.7174
H5 H 0.4637 0.0027 0.6727
C5 C 0.2947(9) -0.2048(19) 0.5774(4)
H6 H 0.2869 -0.3142 0.5875
C6 C 0.2601(8) 0.4943(15) 0.6561(3)
H7 H 0.2027 0.5219 0.6597
C7 C 0.2545(8) -0.1588(17) 0.5442(4)
C8 C 0.3169(8) 0.1230(17) 0.5493(3)
C9 C 0.4889(7) 0.1997(15) 0.6122(4)
C10 C 0.5689(7) 0.2989(14) 0.6714(3)
C11 C 0.3553(8) 0.0720(15) 0.5828(3)
C12 C 0.2821(6) 0.3703(15) 0.6306(3)
H8 H 0.2405 0.3136 0.6163
C13 C 0.3215(7) 0.5784(15) 0.6763(3)
C14 C 0.5939(7) 0.1327(14) 0.7275(3)
H9 H 0.5748 0.0500 0.7448
C15 C 0.4061(7) 0.5441(13) 0.6720(3)
H10 H 0.4475 0.6057 0.6854
C16 C 0.5427(7) 0.1751(15) 0.6966(3)
C17 C 0.5156(7) 0.3475(14) 0.6374(3)
C18 C 0.7259(8) 0.1613(18) 0.7665(4)
H11 H 0.7017 0.2064 0.7898
H12 H 0.7820 0.2087 0.7627
H13 H 0.7299 0.0389 0.7684
C19 C 0.3663(7) 0.3302(14) 0.6265(3)
C20 C 0.6712(7) 0.2071(14) 0.7337(3)
C21 C 0.4281(7) 0.4161(15) 0.6473(3)
C22 C 0.3278(10) 0.293(2) 0.5332(4)
H14 H 0.3463 0.3699 0.5530
H15 H 0.2743 0.3316 0.5227
H16 H 0.3699 0.2889 0.5131
C23 C 0.3463(8) -0.0913(16) 0.5959(4)
H17 H 0.3758 -0.1257 0.6179
C24 C 0.4059(7) 0.1978(15) 0.6056(3)
C25 C 0.2672(8) 0.0036(19) 0.5305(4)
H18 H 0.2412 0.0348 0.5074
C26 C 0.1962(9) -0.277(2) 0.5235(5)
H19 H 0.2213 -0.3895 0.5226
H20 H 0.1871 -0.2364 0.4977
H21 H 0.1424 -0.2829 0.5368
Br3 Br 0.80205(7) 0.04979(15) 0.42615(4)
Br4 Br 0.51766(8) 0.74115(16) 0.30795(5)
F4 F 0.7369(4) 0.5253(9) 0.43600(19)
F5 F 0.8011(4) 0.6295(9) 0.3881(2)
F6 F 0.8604(4) 0.4392(9) 0.4219(2)
C27 C 0.5990(7) 0.3288(14) 0.3922(3)
C28 C 0.5842(9) -0.0920(15) 0.4229(4)
H22 H 0.6117 -0.1207 0.4000
C29 C 0.7475(7) 0.3497(14) 0.3821(3)
C30 C 0.6919(8) 0.0802(17) 0.3259(4)
H23 H 0.6831 0.0114 0.3033
H24 H 0.6460 0.1611 0.3284
H25 H 0.6934 0.0078 0.3483
C31 C 0.5543(8) 0.1094(15) 0.4706(3)
C32 C 0.7226(7) 0.2008(15) 0.4076(3)
C33 C 0.7868(7) 0.4850(16) 0.4068(4)
C34 C 0.5535(7) 0.5752(15) 0.3429(3)
C35 C 0.6598(7) 0.4156(14) 0.3720(3)
C36 C 0.5928(7) 0.0682(15) 0.4372(3)
C37 C 0.9284(6) 0.3319(14) 0.3105(4)
H26 H 0.9805 0.3874 0.3068
C38 C 0.8786(7) 0.3762(15) 0.3408(3)
H27 H 0.8978 0.4615 0.3574
C39 C 0.6408(7) 0.1944(15) 0.4147(3)
C40 C 0.4922(8) 0.4931(17) 0.3640(3)
H28 H 0.4350 0.5244 0.3616
C41 C 0.9041(7) 0.2093(16) 0.2857(3)
C42 C 0.6377(7) 0.5370(14) 0.3468(3)
H29 H 0.6789 0.5939 0.3323
C43 C 0.9567(8) 0.1588(18) 0.2521(4)
H30 H 0.9480 0.2390 0.2315
H31 H 0.9403 0.0463 0.2437
H32 H 1.0160 0.1583 0.2593
C44 C 0.8266(7) 0.1331(16) 0.2929(3)
H33 H 0.8087 0.0471 0.2761
C45 C 0.5057(7) -0.0150(15) 0.4890(3)
H34 H 0.4795 0.0122 0.5123
C46 C 0.4423(9) -0.298(2) 0.4949(5)
H35 H 0.4592 -0.3014 0.5215
H36 H 0.4498 -0.4087 0.4835
H37 H 0.3833 -0.2646 0.4932
C47 C 0.5152(7) 0.3647(16) 0.3887(3)
H38 H 0.4743 0.3041 0.4026
C48 C 0.5358(10) -0.2126(17) 0.4415(4)
H39 H 0.5312 -0.3224 0.4313
C49 C 0.5641(11) 0.2836(19) 0.4880(5)
H40 H 0.6233 0.3167 0.4873
H41 H 0.5448 0.2812 0.5143
H42 H 0.5307 0.3646 0.4737
C50 C 0.7748(7) 0.1741(15) 0.3225(3)
C51 C 0.8010(7) 0.3007(14) 0.3479(3)
C52 C 0.4949(8) -0.1733(17) 0.4745(4)
loop_
_geom_bond_atom_site_label_1
_geom_bond_atom_site_label_2
_geom_bond_site_symmetry_1
_geom_bond_site_symmetry_2
Br1 C9 1_555 1_555
Br2 C13 1_555 1_555
F1 C2 1_555 1_555
F2 C2 1_555 1_555
F3 C2 1_555 1_555
C1 H1 1_555 1_555
C2 C17 1_555 1_555
C3 C1 1_555 1_555
H2 C3 1_555 1_555
C4 H3 1_555 1_555
H4 C4 1_555 1_555
H5 C4 1_555 1_555
C5 H6 1_555 1_555
C6 H7 1_555 1_555
C7 C5 1_555 1_555
C8 C11 1_555 1_555
C9 C17 1_555 1_555
C10 C3 1_555 1_555
C11 C23 1_555 1_555
C12 C6 1_555 1_555
H8 C12 1_555 1_555
C13 C6 1_555 1_555
C14 H9 1_555 1_555
C15 C13 1_555 1_555
H10 C15 1_555 1_555
C16 C4 1_555 1_555
C17 C10 1_555 1_555
C18 H11 1_555 1_555
H12 C18 1_555 1_555
H13 C18 1_555 1_555
C19 C12 1_555 1_555
C20 C1 1_555 1_555
C21 C15 1_555 1_555
C22 C8 1_555 1_555
H14 C22 1_555 1_555
H15 C22 1_555 1_555
H16 C22 1_555 1_555
C23 C5 1_555 1_555
H17 C23 1_555 1_555
C24 C9 1_555 1_555
C25 C7 1_555 1_555
H18 C25 1_555 1_555
C26 C7 1_555 1_555
H19 C26 1_555 1_555
H20 C26 1_555 1_555
H21 C26 1_555 1_555
Br3 C32 1_555 1_555
Br4 C34 1_555 1_555
F4 C33 1_555 1_555
F5 C33 1_555 1_555
F6 C33 1_555 1_555
C27 C35 1_555 1_555
C28 H22 1_555 1_555
C29 C32 1_555 1_555
C30 H23 1_555 1_555
H24 C30 1_555 1_555
H25 C30 1_555 1_555
C31 C36 1_555 1_555
C32 C39 1_555 1_555
C33 C29 1_555 1_555
C34 C40 1_555 1_555
C35 C29 1_555 1_555
C36 C28 1_555 1_555
C37 H26 1_555 1_555
C38 C37 1_555 1_555
H27 C38 1_555 1_555
C39 C27 1_555 1_555
C40 H28 1_555 1_555
C41 C37 1_555 1_555
C42 C34 1_555 1_555
H29 C42 1_555 1_555
C43 C41 1_555 1_555
H30 C43 1_555 1_555
H31 C43 1_555 1_555
H32 C43 1_555 1_555
C44 C41 1_555 1_555
H33 C44 1_555 1_555
C45 C31 1_555 1_555
H34 C45 1_555 1_555
C46 H35 1_555 1_555
H36 C46 1_555 1_555
H37 C46 1_555 1_555
C47 C27 1_555 1_555
H38 C47 1_555 1_555
C48 C28 1_555 1_555
H39 C48 1_555 1_555
C49 C31 1_555 1_555
H40 C49 1_555 1_555
H41 C49 1_555 1_555
H42 C49 1_555 1_555
C50 C30 1_555 1_555
C51 C29 1_555 1_555
C52 C45 1_555 1_555
C8 C25 1_555 1_555
C10 C16 1_555 1_555
C11 C24 1_555 1_555
C14 C16 1_555 1_555
C14 C20 1_555 1_555
C17 C21 1_555 1_555
C18 C20 1_555 1_555
C19 C21 1_555 1_555
C19 C24 1_555 1_555
C35 C42 1_555 1_555
C36 C39 1_555 1_555
C38 C51 1_555 1_555
C40 C47 1_555 1_555
C44 C50 1_555 1_555
C46 C52 1_555 1_555
C48 C52 1_555 1_555
C50 C51 1_555 1_555

#END
