
#######################################################################
#
#                 Cambridge Crystallographic Data Centre
#                                CCDC 
#
#######################################################################
#
# If this CIF has been generated from an entry in the Cambridge 
# Structural Database, then it will include bibliographic, chemical, 
# crystal, experimental, refinement or atomic coordinate data resulting 
# from the CCDC's data processing and validation procedures.
#
#######################################################################

data_RELVIQ
_chemical_formula_moiety         'C22 H14 Br1 F3'
_chemical_name_systematic        
2-bromo-1,1-diphenyl-3-(trifluoromethyl)-1H-indene
_symmetry_cell_setting           orthorhombic
_symmetry_space_group_name_H-M   'P b c a'
_symmetry_Int_Tables_number      61
_space_group_name_Hall           '-P 2ac 2ab'
loop_
_symmetry_equiv_pos_site_id
_symmetry_equiv_pos_as_xyz
1 x,y,z
2 1/2-x,-y,1/2+z
3 1/2+x,1/2-y,-z
4 -x,1/2+y,1/2-z
5 -x,-y,-z
6 1/2+x,y,1/2-z
7 1/2-x,1/2+y,z
8 x,1/2-y,1/2+z
_cell_length_a                   6.6878(7)
_cell_length_b                   19.057(3)
_cell_length_c                   26.875(3)
_cell_angle_alpha                90
_cell_angle_beta                 90
_cell_angle_gamma                90
_cell_volume                     3425.2
_exptl_crystal_colour            colorless
_exptl_crystal_description       prism
_cell_formula_units_Z            8
loop_
_atom_site_label
_atom_site_type_symbol
_atom_site_fract_x
_atom_site_fract_y
_atom_site_fract_z
Br1 Br 0.86830(5) 0.05660(2) 0.060732(13)
C1 C 1.3791(5) 0.06278(18) 0.14856(12)
C2 C 1.1355(5) -0.01864(19) 0.12687(12)
C3 C 1.1141(5) 0.15926(18) 0.14174(13)
C4 C 1.1040(5) 0.1622(2) 0.19371(13)
H1 H 1.1748 0.1296 0.2125
C5 C 1.2315(5) 0.10123(19) 0.11469(12)
C6 C 1.4315(6) -0.0535(2) 0.18439(13)
H2 H 1.3918 -0.0999 0.1884
C7 C 0.8837(6) 0.2618(2) 0.19013(14)
H3 H 0.8074 0.2958 0.2061
C8 C 1.0866(5) 0.0403(2) 0.10307(13)
C9 C 1.6651(5) 0.0412(2) 0.19980(13)
H4 H 1.7824 0.0564 0.2150
C10 C 1.3638(5) 0.0870(2) 0.02637(13)
H5 H 1.3005 0.0436 0.0246
C11 C 1.3430(5) 0.1283(2) 0.06865(12)
C12 C 0.8919(5) 0.2597(2) 0.13845(15)
H6 H 0.8219 0.2925 0.1197
C13 C 1.4801(6) 0.1106(2) -0.01363(13)
H7 H 1.4932 0.0829 -0.0419
C14 C 1.5577(5) 0.0885(2) 0.17075(12)
H8 H 1.6005 0.1345 0.1661
C15 C 1.0050(5) 0.2084(2) 0.11491(14)
H9 H 1.0078 0.2068 0.0803
C16 C 1.6039(6) -0.0282(2) 0.20711(14)
H10 H 1.6790 -0.0577 0.2274
C17 C 1.3207(5) -0.0073(2) 0.15552(12)
C18 C 1.5551(5) 0.2162(2) 0.03077(14)
H11 H 1.6187 0.2596 0.0323
C19 C 1.4400(5) 0.1933(2) 0.07083(13)
H12 H 1.4277 0.2212 0.0990
C20 C 0.9903(6) 0.2128(2) 0.21779(14)
H13 H 0.9854 0.2139 0.2524
C21 C 1.5756(5) 0.1748(2) -0.01136(14)
H14 H 1.6531 0.1902 -0.0379
F1 F 0.9963(4) -0.11082(13) 0.17335(9)
F2 F 0.8634(4) -0.09035(15) 0.10225(11)
F3 F 1.1544(4) -0.13819(13) 0.10736(11)
C22 C 1.0360(6) -0.0882(2) 0.12678(15)
loop_
_geom_bond_atom_site_label_1
_geom_bond_atom_site_label_2
_geom_bond_site_symmetry_1
_geom_bond_site_symmetry_2
Br1 C8 1_555 1_555
C1 C5 1_555 1_555
C2 C8 1_555 1_555
C3 C4 1_555 1_555
C4 H1 1_555 1_555
C5 C3 1_555 1_555
C6 H2 1_555 1_555
C7 H3 1_555 1_555
C8 C5 1_555 1_555
C9 H4 1_555 1_555
C10 H5 1_555 1_555
C11 C5 1_555 1_555
C12 C7 1_555 1_555
H6 C12 1_555 1_555
C13 C10 1_555 1_555
H7 C13 1_555 1_555
C14 C1 1_555 1_555
H8 C14 1_555 1_555
C15 C3 1_555 1_555
H9 C15 1_555 1_555
C16 C6 1_555 1_555
H10 C16 1_555 1_555
C17 C1 1_555 1_555
C18 H11 1_555 1_555
C19 C11 1_555 1_555
H12 C19 1_555 1_555
C20 C4 1_555 1_555
H13 C20 1_555 1_555
C21 C13 1_555 1_555
H14 C21 1_555 1_555
F1 C22 1_555 1_555
F2 C22 1_555 1_555
F3 C22 1_555 1_555
C22 C2 1_555 1_555
C2 C17 1_555 1_555
C6 C17 1_555 1_555
C7 C20 1_555 1_555
C9 C14 1_555 1_555
C9 C16 1_555 1_555
C10 C11 1_555 1_555
C12 C15 1_555 1_555
C18 C19 1_555 1_555
C18 C21 1_555 1_555

#END
