
#######################################################################
#
#                 Cambridge Crystallographic Data Centre
#                                CCDC 
#
#######################################################################
#
# If this CIF has been generated from an entry in the Cambridge 
# Structural Database, then it will include bibliographic, chemical, 
# crystal, experimental, refinement or atomic coordinate data resulting 
# from the CCDC's data processing and validation procedures.
#
#######################################################################

data_RELVOW
_chemical_formula_moiety         'C23 H18 Br1 F3 O1'
_chemical_name_systematic        
2-bromo-5-methoxy-1,3-diphenyl-1-(trifluoromethyl)-2,3-dihydro-1H-indene
_symmetry_cell_setting           monoclinic
_symmetry_space_group_name_H-M   'P 21/c'
_symmetry_Int_Tables_number      14
_space_group_name_Hall           '-P 2ybc'
loop_
_symmetry_equiv_pos_site_id
_symmetry_equiv_pos_as_xyz
1 x,y,z
2 -x,1/2+y,1/2-z
3 -x,-y,-z
4 x,1/2-y,1/2+z
_cell_length_a                   11.5850(3)
_cell_length_b                   10.6670(3)
_cell_length_c                   19.0017(5)
_cell_angle_alpha                90
_cell_angle_beta                 126.907(2)
_cell_angle_gamma                90
_cell_volume                     1877.63
_exptl_crystal_colour            colorless
_exptl_crystal_description       prism
_cell_formula_units_Z            4
loop_
_atom_site_label
_atom_site_type_symbol
_atom_site_fract_x
_atom_site_fract_y
_atom_site_fract_z
Br1 Br 0.02991(2) 0.35875(2) 0.300660(13)
F1 F 0.07838(13) 0.06951(12) 0.37575(9)
F2 F 0.20188(15) 0.09428(13) 0.51512(9)
F3 F 0.29029(14) -0.01413(12) 0.46192(10)
O1 O 0.74587(17) 0.39249(17) 0.77816(10)
C1 C 0.4595(2) 0.21965(19) 0.40636(14)
H1 H 0.5280 0.2512 0.4626
C2 C 0.7486(3) 0.5229(2) 0.79636(15)
H2 H 0.7548 0.5714 0.7562
H3 H 0.8308 0.5403 0.8556
H4 H 0.6619 0.5447 0.7895
C3 C 0.4163(2) 0.37236(19) 0.54994(13)
C4 C 0.2129(2) 0.0892(2) 0.44869(14)
C5 C 0.2570(3) 0.1251(2) 0.23868(16)
H5 H 0.1890 0.0933 0.1825
C6 C 0.1339(2) 0.6411(2) 0.55655(15)
H6 H 0.1219 0.6382 0.6007
C7 C 0.6345(2) 0.3513(2) 0.69654(14)
C8 C 0.1713(2) 0.64940(19) 0.42522(14)
H7 H 0.1843 0.6528 0.3815
C9 C 0.1859(2) 0.32366(19) 0.42368(12)
H8 H 0.1417 0.3109 0.4538
C10 C 0.5264(2) 0.4285(2) 0.62929(13)
H9 H 0.5279 0.5147 0.6372
C11 C 0.2212(2) 0.54571(18) 0.48129(13)
C12 C 0.4138(2) 0.24418(19) 0.53686(13)
C13 C 0.3219(2) 0.18822(18) 0.38073(13)
C14 C 0.2892(2) 0.43636(18) 0.46822(12)
H10 H 0.3181 0.4635 0.4316
C15 C 0.2008(2) 0.5426(2) 0.54633(14)
H11 H 0.2325 0.4735 0.5835
C16 C 0.2215(2) 0.14021(19) 0.29599(15)
H12 H 0.1297 0.1181 0.2779
C17 C 0.4952(2) 0.2044(2) 0.34888(16)
H13 H 0.5871 0.2256 0.3668
C18 C 0.3941(3) 0.1574(2) 0.26474(17)
H14 H 0.4177 0.1476 0.2261
C19 C 0.5231(2) 0.1676(2) 0.60384(14)
H15 H 0.5225 0.0817 0.5952
C20 C 0.2835(2) 0.20702(18) 0.44455(13)
C21 C 0.6324(2) 0.2219(2) 0.68330(14)
H16 H 0.7053 0.1717 0.7284
C22 C 0.1020(2) 0.7477(2) 0.43442(15)
H17 H 0.0674 0.8156 0.3962
C23 C 0.0847(2) 0.7442(2) 0.50074(16)
H18 H 0.0403 0.8106 0.5077
loop_
_geom_bond_atom_site_label_1
_geom_bond_atom_site_label_2
_geom_bond_site_symmetry_1
_geom_bond_site_symmetry_2
Br1 C9 1_555 1_555
F1 C4 1_555 1_555
F2 C4 1_555 1_555
F3 C4 1_555 1_555
O1 C2 1_555 1_555
C1 H1 1_555 1_555
C2 H2 1_555 1_555
H3 C2 1_555 1_555
H4 C2 1_555 1_555
C3 C10 1_555 1_555
C4 C20 1_555 1_555
C5 H5 1_555 1_555
C6 H6 1_555 1_555
C7 O1 1_555 1_555
C8 H7 1_555 1_555
C9 H8 1_555 1_555
C10 C7 1_555 1_555
H9 C10 1_555 1_555
C11 C8 1_555 1_555
C12 C3 1_555 1_555
C13 C1 1_555 1_555
C14 C3 1_555 1_555
H10 C14 1_555 1_555
C15 C6 1_555 1_555
H11 C15 1_555 1_555
C16 C5 1_555 1_555
H12 C16 1_555 1_555
C17 C1 1_555 1_555
H13 C17 1_555 1_555
C18 C5 1_555 1_555
H14 C18 1_555 1_555
C19 C12 1_555 1_555
H15 C19 1_555 1_555
C20 C9 1_555 1_555
C21 C7 1_555 1_555
H16 C21 1_555 1_555
C22 C8 1_555 1_555
H17 C22 1_555 1_555
C23 C6 1_555 1_555
H18 C23 1_555 1_555
C9 C14 1_555 1_555
C11 C14 1_555 1_555
C11 C15 1_555 1_555
C12 C20 1_555 1_555
C13 C16 1_555 1_555
C13 C20 1_555 1_555
C17 C18 1_555 1_555
C19 C21 1_555 1_555
C22 C23 1_555 1_555

#END
