
#######################################################################
#
#                 Cambridge Crystallographic Data Centre
#                                CCDC 
#
#######################################################################
#
# If this CIF has been generated from an entry in the Cambridge 
# Structural Database, then it will include bibliographic, chemical, 
# crystal, experimental, refinement or atomic coordinate data resulting 
# from the CCDC's data processing and validation procedures.
#
#######################################################################

data_RELYUF
_chemical_formula_moiety         'C22 H13 Br1 S1'
_chemical_name_systematic        11-bromo-4-phenylanthra[2,3-b]thiophene
_symmetry_cell_setting           triclinic
_symmetry_space_group_name_H-M   'P -1'
_symmetry_Int_Tables_number      2
_space_group_name_Hall           '-P 1'
loop_
_symmetry_equiv_pos_site_id
_symmetry_equiv_pos_as_xyz
1 x,y,z
2 -x,-y,-z
_cell_length_a                   11.5087(18)
_cell_length_b                   12.0630(18)
_cell_length_c                   13.724(2)
_cell_angle_alpha                94.057(3)
_cell_angle_beta                 96.328(3)
_cell_angle_gamma                118.373(3)
_cell_volume                     1649.61
_exptl_crystal_colour            red
_exptl_crystal_description       prismatic
_cell_formula_units_Z            4
loop_
_atom_site_label
_atom_site_type_symbol
_atom_site_fract_x
_atom_site_fract_y
_atom_site_fract_z
Br1 Br 0.83850(5) 1.12809(4) 0.17073(3)
S1 S 0.57365(12) 0.84023(12) 0.15535(8)
C1 C 1.2039(4) 1.0925(3) 0.1198(2)
C2 C 1.3246(4) 1.2069(4) 0.1160(3)
H1 H 1.3241 1.2839 0.1188
C3 C 1.4382(4) 1.2047(4) 0.1086(3)
H2 H 1.5158 1.2802 0.1065
C4 C 1.4422(4) 1.0892(4) 0.1040(3)
H3 H 1.5225 1.0896 0.0997
C5 C 1.3315(4) 0.9790(4) 0.1058(3)
H4 H 1.3360 0.9040 0.1026
C6 C 1.2073(4) 0.9748(3) 0.1126(2)
C7 C 1.0889(4) 0.8630(3) 0.1112(2)
H5 H 1.0908 0.7866 0.1051
C8 C 0.9682(3) 0.8590(3) 0.1183(2)
C9 C 0.9670(4) 0.9791(3) 0.1313(2)
C10 C 1.0853(4) 1.0912(3) 0.1302(2)
H6 H 1.0844 1.1680 0.1367
C11 C 0.8474(4) 0.7424(3) 0.1140(2)
C12 C 0.7313(4) 0.7446(3) 0.1263(2)
C13 C 0.5990(4) 0.6388(4) 0.1234(3)
H7 H 0.5789 0.5542 0.1123
C14 C 0.5087(4) 0.6746(4) 0.1381(3)
H8 H 0.4194 0.6172 0.1391
C15 C 0.7316(4) 0.8631(3) 0.1430(2)
C16 C 0.8452(4) 0.9746(3) 0.1452(2)
C17 C 0.8436(3) 0.6181(3) 0.0938(3)
C18 C 0.8471(4) 0.5712(3) -0.0012(3)
H9 H 0.8553 0.6204 -0.0519
C19 C 0.8386(5) 0.4554(4) -0.0213(3)
H10 H 0.8436 0.4273 -0.0848
C20 C 0.8232(5) 0.3816(4) 0.0501(4)
H11 H 0.8139 0.3010 0.0356
C21 C 0.8211(5) 0.4249(4) 0.1443(4)
H12 H 0.8139 0.3745 0.1940
C22 C 0.8293(5) 0.5408(4) 0.1669(3)
H13 H 0.8253 0.5678 0.2310
Br2 Br 0.18244(4) 0.40285(4) 0.29130(3)
S2 S 0.22854(11) 0.69762(11) 0.32148(9)
C23 C 0.5798(4) 0.4080(3) 0.3734(2)
C24 C 0.5804(5) 0.2895(4) 0.3581(3)
H14 H 0.5010 0.2154 0.3328
C25 C 0.6939(5) 0.2840(4) 0.3799(3)
H15 H 0.6924 0.2063 0.3686
C26 C 0.8153(5) 0.3943(5) 0.4197(3)
H16 H 0.8934 0.3893 0.4343
C27 C 0.8183(4) 0.5073(4) 0.4366(3)
H17 H 0.8991 0.5795 0.4631
C28 C 0.7024(4) 0.5187(3) 0.4152(2)
C29 C 0.7030(4) 0.6342(3) 0.4313(3)
H18 H 0.7833 0.7064 0.4586
C30 C 0.5893(3) 0.6474(3) 0.4085(2)
C31 C 0.4650(3) 0.5341(3) 0.3658(2)
C32 C 0.4657(4) 0.4186(3) 0.3499(2)
H19 H 0.3861 0.3459 0.3225
C33 C 0.5935(4) 0.7673(3) 0.4233(2)
C34 C 0.4804(4) 0.7758(3) 0.3935(2)
C35 C 0.4612(4) 0.8850(4) 0.3974(3)
H20 H 0.5296 0.9667 0.4224
C36 C 0.3380(5) 0.8596(4) 0.3625(3)
H21 H 0.3121 0.9217 0.3600
C37 C 0.3578(4) 0.6630(3) 0.3526(2)
C38 C 0.3516(3) 0.5483(3) 0.3420(2)
C39 C 0.7189(3) 0.8843(3) 0.4717(2)
C40 C 0.7811(4) 0.9888(3) 0.4236(3)
H22 H 0.7477 0.9857 0.3580
C41 C 0.8919(4) 1.0972(4) 0.4716(3)
H23 H 0.9329 1.1670 0.4383
C42 C 0.9418(4) 1.1036(4) 0.5666(3)
H24 H 1.0157 1.1783 0.5991
C43 C 0.8856(4) 1.0029(4) 0.6141(3)
H25 H 0.9238 1.0088 0.6789
C44 C 0.7782(3) 0.8953(3) 0.5737(2)
H26 H 0.7411 0.8277 0.6097
loop_
_geom_bond_atom_site_label_1
_geom_bond_atom_site_label_2
_geom_bond_site_symmetry_1
_geom_bond_site_symmetry_2
Br1 C16 1_555 1_555
S1 C14 1_555 1_555
C1 C2 1_555 1_555
C2 H1 1_555 1_555
C3 C2 1_555 1_555
H2 C3 1_555 1_555
C4 C3 1_555 1_555
H3 C4 1_555 1_555
C5 C4 1_555 1_555
H4 C5 1_555 1_555
C6 C1 1_555 1_555
C7 C6 1_555 1_555
H5 C7 1_555 1_555
C8 C7 1_555 1_555
C9 C8 1_555 1_555
C10 C1 1_555 1_555
H6 C10 1_555 1_555
C11 C8 1_555 1_555
C12 C11 1_555 1_555
C13 C12 1_555 1_555
H7 C13 1_555 1_555
C14 C13 1_555 1_555
H8 C14 1_555 1_555
C15 S1 1_555 1_555
C16 C9 1_555 1_555
C17 C11 1_555 1_555
C18 C17 1_555 1_555
H9 C18 1_555 1_555
C19 C18 1_555 1_555
H10 C19 1_555 1_555
C20 C19 1_555 1_555
H11 C20 1_555 1_555
C21 C20 1_555 1_555
H12 C21 1_555 1_555
C22 C17 1_555 1_555
H13 C22 1_555 1_555
Br2 C38 1_555 1_555
S2 C36 1_555 1_555
C23 C24 1_555 1_555
C24 H14 1_555 1_555
C25 C24 1_555 1_555
H15 C25 1_555 1_555
C26 C25 1_555 1_555
H16 C26 1_555 1_555
C27 C26 1_555 1_555
H17 C27 1_555 1_555
C28 C23 1_555 1_555
C29 C28 1_555 1_555
H18 C29 1_555 1_555
C30 C29 1_555 1_555
C31 C30 1_555 1_555
C32 C23 1_555 1_555
H19 C32 1_555 1_555
C33 C30 1_555 1_555
C34 C33 1_555 1_555
C35 C34 1_555 1_555
H20 C35 1_555 1_555
C36 C35 1_555 1_555
H21 C36 1_555 1_555
C37 S2 1_555 1_555
C38 C31 1_555 1_555
C39 C33 1_555 1_555
C40 C39 1_555 1_555
H22 C40 1_555 1_555
C41 C40 1_555 1_555
H23 C41 1_555 1_555
C42 C41 1_555 1_555
H24 C42 1_555 1_555
C43 C42 1_555 1_555
H25 C43 1_555 1_555
C44 C39 1_555 1_555
H26 C44 1_555 1_555
C5 C6 1_555 1_555
C9 C10 1_555 1_555
C12 C15 1_555 1_555
C15 C16 1_555 1_555
C21 C22 1_555 1_555
C27 C28 1_555 1_555
C31 C32 1_555 1_555
C34 C37 1_555 1_555
C37 C38 1_555 1_555
C43 C44 1_555 1_555

#END
