
#######################################################################
#
#                 Cambridge Crystallographic Data Centre
#                                CCDC 
#
#######################################################################
#
# If this CIF has been generated from an entry in the Cambridge 
# Structural Database, then it will include bibliographic, chemical, 
# crystal, experimental, refinement or atomic coordinate data resulting 
# from the CCDC's data processing and validation procedures.
#
#######################################################################

data_RELYEM
_chemical_formula_moiety         'C21 H19 N1 O2'
_chemical_name_systematic        2'-Hydroxy-3,3-diphenylpropionanilide
_symmetry_cell_setting           monoclinic
_symmetry_space_group_name_H-M   'P 21/c'
_symmetry_Int_Tables_number      14
_space_group_name_Hall           '-P 2ybc'
loop_
_symmetry_equiv_pos_site_id
_symmetry_equiv_pos_as_xyz
1 x,y,z
2 -x,1/2+y,1/2-z
3 -x,-y,-z
4 x,1/2-y,1/2+z
_cell_length_a                   16.321(2)
_cell_length_b                   9.089(3)
_cell_length_c                   12.111(4)
_cell_angle_alpha                90
_cell_angle_beta                 110.65(1)
_cell_angle_gamma                90
_cell_volume                     1681.14
_chemical_melting_point          170-171deg.C
_cell_formula_units_Z            4
loop_
_atom_site_label
_atom_site_type_symbol
_atom_site_fract_x
_atom_site_fract_y
_atom_site_fract_z
O1 O 0.3702(1) 0.4576(2) 0.3545(2)
O2 O 0.4173(1) 0.2411(2) 0.2592(2)
N1 N 0.4306(1) 0.3000(2) 0.5067(2)
C1 C 0.2321(2) 0.4896(3) 0.4610(2)
C2 C 0.3320(2) 0.4881(3) 0.5256(2)
C3 C 0.3789(2) 0.4124(3) 0.4539(3)
C4 C 0.4940(2) 0.2232(3) 0.4710(2)
C5 C 0.5653(2) 0.1671(3) 0.5612(3)
C6 C 0.6294(2) 0.0868(4) 0.5382(3)
C7 C 0.6224(2) 0.0631(4) 0.4232(3)
C8 C 0.5518(2) 0.1162(3) 0.3335(3)
C9 C 0.4865(2) 0.1971(3) 0.3549(3)
C10 C 0.1955(2) 0.3345(3) 0.4394(3)
C11 C 0.1621(2) 0.2773(4) 0.3271(3)
C12 C 0.1304(3) 0.1334(5) 0.3084(4)
C13 C 0.1313(3) 0.0486(4) 0.4010(4)
C14 C 0.1638(2) 0.1035(4) 0.5125(4)
C15 C 0.1962(2) 0.2457(3) 0.5322(3)
C16 C 0.1850(2) 0.5846(3) 0.5236(3)
C17 C 0.0969(2) 0.6100(4) 0.4690(3)
C18 C 0.0508(2) 0.6940(5) 0.5229(5)
C19 C 0.0915(3) 0.7524(4) 0.6306(4)
C20 C 0.1781(3) 0.7282(4) 0.6867(3)
C21 C 0.2248(2) 0.6442(4) 0.6322(3)
H1 H 0.2217 0.5328 0.3858
H2 H 0.3522 0.5867 0.5403
H3 H 0.3447 0.4376 0.5984
H4 H 0.5704 0.1841 0.6408
H5 H 0.6778 0.0484 0.6012
H6 H 0.6666 0.0098 0.4062
H7 H 0.5471 0.0974 0.2543
H8 H 0.1607 0.3364 0.2618
H9 H 0.1081 0.0947 0.2305
H10 H 0.1091 -0.0490 0.3879
H11 H 0.1645 0.0439 0.5773
H12 H 0.2192 0.2827 0.6108
H13 H 0.0672 0.5695 0.3929
H14 H -0.0100 0.7106 0.4834
H15 H 0.0597 0.8102 0.6670
H16 H 0.2072 0.7681 0.7630
H17 H 0.2857 0.6287 0.6719
H18 H 0.4256 0.2581 0.5903
H19 H 0.3843 0.3408 0.2848
loop_
_geom_bond_atom_site_label_1
_geom_bond_atom_site_label_2
_geom_bond_site_symmetry_1
_geom_bond_site_symmetry_2
O1 C3 1_555 1_555
O2 C9 1_555 1_555
N1 C3 1_555 1_555
C1 C2 1_555 1_555
C2 C3 1_555 1_555
C4 N1 1_555 1_555
C5 C4 1_555 1_555
C6 C5 1_555 1_555
C7 C6 1_555 1_555
C8 C7 1_555 1_555
C9 C4 1_555 1_555
C10 C1 1_555 1_555
C11 C10 1_555 1_555
C12 C11 1_555 1_555
C13 C12 1_555 1_555
C14 C13 1_555 1_555
C15 C10 1_555 1_555
C16 C1 1_555 1_555
C17 C16 1_555 1_555
C18 C17 1_555 1_555
C19 C18 1_555 1_555
C20 C19 1_555 1_555
C21 C16 1_555 1_555
H1 C1 1_555 1_555
H2 C2 1_555 1_555
H3 C2 1_555 1_555
H4 C5 1_555 1_555
H5 C6 1_555 1_555
H6 C7 1_555 1_555
H7 C8 1_555 1_555
H8 C11 1_555 1_555
H9 C12 1_555 1_555
H10 C13 1_555 1_555
H11 C14 1_555 1_555
H12 C15 1_555 1_555
H13 C17 1_555 1_555
H14 C18 1_555 1_555
H15 C19 1_555 1_555
H16 C20 1_555 1_555
H17 C21 1_555 1_555
H18 N1 1_555 1_555
H19 O2 1_555 1_555
C8 C9 1_555 1_555
C14 C15 1_555 1_555
C20 C21 1_555 1_555

#END
