
#######################################################################
#
#                 Cambridge Crystallographic Data Centre
#                                CCDC 
#
#######################################################################
#
# If this CIF has been generated from an entry in the Cambridge 
# Structural Database, then it will include bibliographic, chemical, 
# crystal, experimental, refinement or atomic coordinate data resulting 
# from the CCDC's data processing and validation procedures.
#
#######################################################################

data_REMBAP
_chemical_formula_moiety         
'H3 O1 1+,C45 H60 N7 O6 3+,2(C8 H12 O4 2-),C1 H4 O1'
_chemical_name_systematic        
'oxonium 2,32,48-trimethyl-6,28,35-trioxo-8,26,37-trioxa-5,14,17,20,29,34,43-heptaazahexacyclo[15.15.13.2^9,12^.2^22,25^.2^38,41^.1^3,31^]dopentaconta-1,3(48),9,11,22,24,31,38,40,46,49,51-dodecaene-14,20,43-triium suberate clathrate suberate methanol unknown solvate'
_symmetry_cell_setting           monoclinic
_symmetry_space_group_name_H-M   'P 21/c'
_symmetry_Int_Tables_number      14
_space_group_name_Hall           '-P 2ybc'
loop_
_symmetry_equiv_pos_site_id
_symmetry_equiv_pos_as_xyz
1 x,y,z
2 -x,1/2+y,1/2-z
3 -x,-y,-z
4 x,1/2-y,1/2+z
_cell_length_a                   12.685(2)
_cell_length_b                   17.544(3)
_cell_length_c                   29.713(5)
_cell_angle_alpha                90
_cell_angle_beta                 104.402(7)
_cell_angle_gamma                90
_cell_volume                     6404.7
_exptl_crystal_colour            colorless
_exptl_crystal_description       plate
_cell_formula_units_Z            4
loop_
_atom_site_label
_atom_site_type_symbol
_atom_site_fract_x
_atom_site_fract_y
_atom_site_fract_z
O1 O 1.0032(4) 0.5941(3) 0.5435(2)
O2 O 0.6010(4) 0.8735(3) 0.5144(2)
O3 O 0.6715(4) 0.8229(3) 0.6328(2)
O4 O 0.5241(4) 0.5326(3) 0.71784(19)
O5 O 0.9961(4) 0.5830(2) 0.6620(2)
O6 O 0.2852(5) 0.5106(3) 0.62722(17)
N1 N 0.5850(5) 0.7660(4) 0.55319(19)
H1 H 0.5922 0.7463 0.5803
N2 N 0.4647(5) 0.4952(3) 0.63091(19)
H2 H 0.5294 0.4974 0.6487
N3 N 0.8923(5) 0.5314(3) 0.58121(18)
H3 H 0.8844 0.5188 0.6081
N4 N 1.1242(4) 0.6702(3) 0.87620(18)
H4 H 1.1021 0.7121 0.8590
H5 H 1.0647 0.6422 0.8761
N5 N 0.8171(4) 0.6311(3) 0.91350(17)
H6 H 0.8692 0.6067 0.9033
H7 H 0.7962 0.6720 0.8951
N6 N 0.8922(4) 0.8461(3) 0.85405(18)
H8 H 0.8353 0.8150 0.8530
H9 H 0.9448 0.8186 0.8461
N7 N 0.9943(5) 0.7434(3) 0.93325(17)
C1 C 0.3900(6) 0.6239(4) 0.5500(2)
H10 H 0.3314 0.5964 0.5299
H11 H 0.3849 0.6769 0.5416
H12 H 0.3854 0.6185 0.5816
C2 C 0.4501(6) 0.4727(4) 0.5820(2)
H13 H 0.3754 0.4819 0.5650
H14 H 0.4649 0.4187 0.5803
C3 C 0.6579(5) 0.4054(4) 0.5743(2)
H15 H 0.6335 0.3703 0.5491
H16 H 0.6241 0.3931 0.5989
H17 H 0.7355 0.4018 0.5856
C4 C 0.8130(6) 0.5029(4) 0.5408(2)
H18 H 0.8136 0.4476 0.5413
H19 H 0.8330 0.5194 0.5129
C5 C 0.7480(6) 0.6561(4) 0.5068(2)
H20 H 0.8124 0.6280 0.5059
H21 H 0.7676 0.6992 0.5271
H22 H 0.7127 0.6734 0.4761
C6 C 0.5429(6) 0.7162(4) 0.5129(2)
H23 H 0.5748 0.7305 0.4877
H24 H 0.4645 0.7219 0.5023
C7 C 0.4993(6) 0.5918(5) 0.5450(2)
C8 C 0.5264(7) 0.5178(5) 0.5599(2)
C9 C 0.6269(8) 0.4871(4) 0.5573(2)
C10 C 0.6987(6) 0.5313(5) 0.5396(2)
C11 C 0.6717(7) 0.6053(5) 0.5247(2)
C12 C 0.5708(8) 0.6339(4) 0.5267(2)
C13 C 0.6552(6) 0.8774(4) 0.5966(3)
H25 H 0.7234 0.9026 0.5968
H26 H 0.6036 0.9158 0.6011
C14 C 1.0453(6) 0.6039(4) 0.6255(3)
H27 H 1.1176 0.5819 0.6314
H28 H 1.0525 0.6589 0.6248
C15 C 0.4105(6) 0.5330(4) 0.7001(2)
H29 H 0.3821 0.5832 0.7042
H30 H 0.3776 0.4966 0.7171
C16 C 1.0002(6) 0.5658(4) 0.7403(4)
H31 H 0.9357 0.5385 0.7305
C17 C 1.1445(8) 0.6365(4) 0.7213(3)
H32 H 1.1782 0.6568 0.6996
C18 C 1.1896(6) 0.6454(4) 0.7690(3)
H33 H 1.2536 0.6733 0.7785
C19 C 1.1440(7) 0.6151(4) 0.8024(3)
C20 C 1.0468(7) 0.5750(4) 0.7875(3)
H34 H 1.0130 0.5543 0.8092
C21 C 1.0489(7) 0.5970(4) 0.7078(3)
C22 C 0.7151(6) 0.8467(5) 0.6775(3)
C23 C 0.7311(6) 0.9215(5) 0.6911(3)
H35 H 0.7118 0.9602 0.6692
C24 C 0.7431(6) 0.7910(4) 0.7110(4)
H36 H 0.7307 0.7402 0.7023
C25 C 0.7895(6) 0.8083(5) 0.7574(3)
H37 H 0.8087 0.7696 0.7793
C26 C 0.8069(5) 0.8846(5) 0.7706(3)
C27 C 0.7760(5) 0.9398(4) 0.7374(3)
H38 H 0.7853 0.9908 0.7460
C28 C 0.5648(8) 0.5429(4) 0.7654(3)
C29 C 0.6767(8) 0.5383(4) 0.7801(3)
H39 H 0.7183 0.5282 0.7591
C30 C 0.7256(6) 0.5490(4) 0.8264(4)
H40 H 0.8010 0.5455 0.8362
C31 C 0.6669(8) 0.5647(4) 0.8589(2)
C32 C 0.5552(8) 0.5689(4) 0.8428(3)
H41 H 0.5134 0.5800 0.8636
C33 C 0.5037(6) 0.5569(4) 0.7966(3)
H42 H 0.4282 0.5583 0.7868
C34 C 0.7219(5) 0.5790(4) 0.9090(2)
H43 H 0.6703 0.6015 0.9244
H44 H 0.7463 0.5309 0.9242
C35 C 0.8639(6) 0.6575(4) 0.9618(2)
H45 H 0.8654 0.6154 0.9830
H46 H 0.8178 0.6971 0.9694
C36 C 0.9793(6) 0.6887(4) 0.9680(2)
H47 H 1.0013 0.7127 0.9983
H48 H 1.0279 0.6460 0.9680
C37 C 1.1968(6) 0.6251(4) 0.8539(2)
H49 H 1.2105 0.5756 0.8687
H50 H 1.2659 0.6512 0.8579
C38 C 1.1753(5) 0.6940(4) 0.9246(2)
H51 H 1.2494 0.7105 0.9269
H52 H 1.1776 0.6511 0.9453
C39 C 1.1111(6) 0.7591(4) 0.9392(2)
H53 H 1.1431 0.7708 0.9716
H54 H 1.1185 0.8040 0.9212
C40 C 0.8577(6) 0.9091(4) 0.8198(2)
H55 H 0.9209 0.9402 0.8197
H56 H 0.8060 0.9410 0.8302
C41 C 0.9334(6) 0.8750(4) 0.9023(2)
H57 H 0.8865 0.9160 0.9075
H58 H 1.0057 0.8959 0.9056
C42 C 0.9381(6) 0.8148(4) 0.9382(2)
H59 H 0.9730 0.8366 0.9682
H60 H 0.8639 0.8023 0.9388
C43 C 0.9780(7) 0.5764(4) 0.5795(3)
C44 C 0.3805(9) 0.5121(4) 0.6483(3)
C45 C 0.6126(6) 0.8379(5) 0.5513(3)
O7 O 0.2386(7) 0.8343(4) 0.5414(3)
O8 O 0.3844(5) 0.9057(3) 0.56597(19)
O9 O 0.7334(5) 0.7484(3) 0.85868(16)
O10 O 0.6138(4) 0.7527(3) 0.9025(2)
C46 C 0.3187(10) 0.8505(6) 0.5709(3)
C47 C 0.3484(8) 0.8016(5) 0.6135(4)
H61 H 0.2846 0.7729 0.6157
H62 H 0.4031 0.7652 0.6096
C48 C 0.3890(7) 0.8410(5) 0.6561(3)
H63 H 0.3332 0.8753 0.6614
H64 H 0.4513 0.8715 0.6540
C49 C 0.4240(7) 0.7846(5) 0.6989(3)
H65 H 0.3608 0.7558 0.7020
H66 H 0.4770 0.7486 0.6929
C50 C 0.4718(6) 0.8254(4) 0.7435(3)
H67 H 0.4151 0.8552 0.7519
H68 H 0.5270 0.8605 0.7387
C51 C 0.5690(6) 0.8160(4) 0.8291(3)
H69 H 0.6090 0.8599 0.8224
H70 H 0.5092 0.8346 0.8410
C52 C 0.5226(6) 0.7729(4) 0.7839(3)
H71 H 0.5803 0.7436 0.7760
H72 H 0.4678 0.7373 0.7887
C53 C 0.6438(9) 0.7688(4) 0.8664(3)
O11 O 0.0686(4) 0.8008(3) 0.82575(15)
O12 O 0.1295(4) 0.9215(3) 0.83907(16)
O13 O 0.0124(4) 1.0555(3) 0.60930(16)
O14 O -0.1312(6) 0.9887(3) 0.5720(2)
C54 C 0.1535(6) 0.8566(4) 0.7709(2)
H73 H 0.1910 0.9033 0.7669
H74 H 0.2041 0.8146 0.7724
C55 C 0.0564(6) 0.8454(4) 0.7294(2)
H75 H 0.0014 0.8829 0.7312
H76 H 0.0255 0.7955 0.7319
C56 C 0.0808(6) 0.8518(4) 0.6816(3)
H77 H 0.1151 0.9006 0.6794
H78 H 0.1317 0.8121 0.6786
C57 C -0.0195(6) 0.8449(4) 0.6426(3)
H79 H -0.0706 0.8840 0.6465
H80 H -0.0529 0.7959 0.6451
C58 C -0.0019(7) 0.8520(4) 0.5942(2)
H81 H -0.0705 0.8429 0.5717
H82 H 0.0487 0.8127 0.5900
C59 C 0.0422(6) 0.9295(4) 0.5843(2)
H83 H 0.1123 0.9376 0.6059
H84 H 0.0534 0.9290 0.5532
C60 C 0.1176(6) 0.8606(6) 0.8166(3)
C61 C -0.0322(9) 0.9951(5) 0.5883(3)
O15 O 0.7044(4) 0.5132(3) 0.67075(16)
H85 H 0.7557 0.4895 0.6655
C62 C 0.7157(6) 0.5921(4) 0.6615(3)
H86 H 0.6608 0.6207 0.6713
H87 H 0.7075 0.5994 0.6288
H88 H 0.7864 0.6094 0.6782
O16 O 0.3201(4) -0.0180(3) 0.48797(16)
loop_
_geom_bond_atom_site_label_1
_geom_bond_atom_site_label_2
_geom_bond_site_symmetry_1
_geom_bond_site_symmetry_2
O1 C43 1_555 1_555
O2 C45 1_555 1_555
O3 C13 1_555 1_555
O4 C15 1_555 1_555
O5 C14 1_555 1_555
O6 C44 1_555 1_555
N1 H1 1_555 1_555
N2 H2 1_555 1_555
N3 H3 1_555 1_555
N4 H4 1_555 1_555
H5 N4 1_555 1_555
N5 H6 1_555 1_555
H7 N5 1_555 1_555
N6 H8 1_555 1_555
H9 N6 1_555 1_555
N7 C36 1_555 1_555
C1 H10 1_555 1_555
H11 C1 1_555 1_555
H12 C1 1_555 1_555
C2 N2 1_555 1_555
H13 C2 1_555 1_555
H14 C2 1_555 1_555
C3 H15 1_555 1_555
H16 C3 1_555 1_555
H17 C3 1_555 1_555
C4 N3 1_555 1_555
H18 C4 1_555 1_555
H19 C4 1_555 1_555
C5 H20 1_555 1_555
H21 C5 1_555 1_555
H22 C5 1_555 1_555
C6 N1 1_555 1_555
H23 C6 1_555 1_555
H24 C6 1_555 1_555
C7 C1 1_555 1_555
C8 C2 1_555 1_555
C9 C3 1_555 1_555
C10 C4 1_555 1_555
C11 C5 1_555 1_555
C12 C6 1_555 1_555
C13 H25 1_555 1_555
H26 C13 1_555 1_555
C14 H27 1_555 1_555
H28 C14 1_555 1_555
C15 H29 1_555 1_555
H30 C15 1_555 1_555
C16 H31 1_555 1_555
C17 H32 1_555 1_555
C18 C17 1_555 1_555
H33 C18 1_555 1_555
C19 C18 1_555 1_555
C20 C16 1_555 1_555
H34 C20 1_555 1_555
C21 O5 1_555 1_555
C22 O3 1_555 1_555
C23 C22 1_555 1_555
H35 C23 1_555 1_555
C24 C22 1_555 1_555
H36 C24 1_555 1_555
C25 C24 1_555 1_555
H37 C25 1_555 1_555
C26 C25 1_555 1_555
C27 C23 1_555 1_555
H38 C27 1_555 1_555
C28 O4 1_555 1_555
C29 C28 1_555 1_555
H39 C29 1_555 1_555
C30 C29 1_555 1_555
H40 C30 1_555 1_555
C31 C30 1_555 1_555
C32 C31 1_555 1_555
H41 C32 1_555 1_555
C33 C28 1_555 1_555
H42 C33 1_555 1_555
C34 N5 1_555 1_555
H43 C34 1_555 1_555
H44 C34 1_555 1_555
C35 N5 1_555 1_555
H45 C35 1_555 1_555
H46 C35 1_555 1_555
C36 C35 1_555 1_555
H47 C36 1_555 1_555
H48 C36 1_555 1_555
C37 N4 1_555 1_555
H49 C37 1_555 1_555
H50 C37 1_555 1_555
C38 N4 1_555 1_555
H51 C38 1_555 1_555
H52 C38 1_555 1_555
C39 N7 1_555 1_555
H53 C39 1_555 1_555
H54 C39 1_555 1_555
C40 N6 1_555 1_555
H55 C40 1_555 1_555
H56 C40 1_555 1_555
C41 N6 1_555 1_555
H57 C41 1_555 1_555
H58 C41 1_555 1_555
C42 N7 1_555 1_555
H59 C42 1_555 1_555
H60 C42 1_555 1_555
C43 N3 1_555 1_555
C44 N2 1_555 1_555
C45 N1 1_555 1_555
O7 C46 1_555 1_555
O8 C46 1_555 1_555
O9 C53 1_555 1_555
O10 C53 1_555 1_555
C46 C47 1_555 1_555
C47 H61 1_555 1_555
H62 C47 1_555 1_555
C48 C47 1_555 1_555
H63 C48 1_555 1_555
H64 C48 1_555 1_555
C49 C48 1_555 1_555
H65 C49 1_555 1_555
H66 C49 1_555 1_555
C50 C49 1_555 1_555
H67 C50 1_555 1_555
H68 C50 1_555 1_555
C51 H69 1_555 1_555
H70 C51 1_555 1_555
C52 C50 1_555 1_555
H71 C52 1_555 1_555
H72 C52 1_555 1_555
C53 C51 1_555 1_555
O11 C60 1_555 1_555
O12 C60 1_555 1_555
O13 C61 1_555 1_555
O14 C61 1_555 1_555
C54 H73 1_555 1_555
H74 C54 1_555 1_555
C55 C54 1_555 1_555
H75 C55 1_555 1_555
H76 C55 1_555 1_555
C56 C55 1_555 1_555
H77 C56 1_555 1_555
H78 C56 1_555 1_555
C57 C56 1_555 1_555
H79 C57 1_555 1_555
H80 C57 1_555 1_555
C58 C57 1_555 1_555
H81 C58 1_555 1_555
H82 C58 1_555 1_555
C59 C58 1_555 1_555
H83 C59 1_555 1_555
H84 C59 1_555 1_555
C60 C54 1_555 1_555
C61 C59 1_555 1_555
O15 H85 1_555 1_555
C62 O15 1_555 1_555
H86 C62 1_555 1_555
H87 C62 1_555 1_555
H88 C62 1_555 1_555
C7 C8 1_555 1_555
C7 C12 1_555 1_555
C8 C9 1_555 1_555
C9 C10 1_555 1_555
C10 C11 1_555 1_555
C11 C12 1_555 1_555
C13 C45 1_555 1_555
C14 C43 1_555 1_555
C15 C44 1_555 1_555
C16 C21 1_555 1_555
C17 C21 1_555 1_555
C19 C20 1_555 1_555
C19 C37 1_555 1_555
C26 C27 1_555 1_555
C26 C40 1_555 1_555
C31 C34 1_555 1_555
C32 C33 1_555 1_555
C38 C39 1_555 1_555
C41 C42 1_555 1_555
C51 C52 1_555 1_555

#END
