
#######################################################################
#
#                 Cambridge Crystallographic Data Centre
#                                CCDC 
#
#######################################################################
#
# If this CIF has been generated from an entry in the Cambridge 
# Structural Database, then it will include bibliographic, chemical, 
# crystal, experimental, refinement or atomic coordinate data resulting 
# from the CCDC's data processing and validation procedures.
#
#######################################################################

data_REMCEU
_chemical_formula_moiety         'C26 H27 N1 O5'
_chemical_name_systematic        
"diethyl 5-benzyl-1'-methyl-2'-oxo-1',2'-dihydrospiro[cyclopent-3-ene-1,3'-indole]-2,3-dicarboxylate"
_symmetry_cell_setting           monoclinic
_symmetry_space_group_name_H-M   'P 21/n'
_symmetry_Int_Tables_number      14
_space_group_name_Hall           '-P 2yn'
loop_
_symmetry_equiv_pos_site_id
_symmetry_equiv_pos_as_xyz
1 x,y,z
2 1/2-x,1/2+y,1/2-z
3 -x,-y,-z
4 1/2+x,1/2-y,1/2+z
_cell_length_a                   11.370(4)
_cell_length_b                   9.159(3)
_cell_length_c                   21.980(7)
_cell_angle_alpha                90
_cell_angle_beta                 102.338(11)
_cell_angle_gamma                90
_cell_volume                     2236.08
_exptl_crystal_colour            colorless
_exptl_crystal_description       block
_cell_formula_units_Z            4
loop_
_atom_site_label
_atom_site_type_symbol
_atom_site_fract_x
_atom_site_fract_y
_atom_site_fract_z
O1 O 0.75754(8) 1.01504(9) 0.43581(4)
O2 O 0.50076(8) 1.08214(9) 0.34504(4)
O3 O 0.63307(8) 0.96353(9) 0.29996(4)
O4 O 0.20717(7) 0.78845(10) 0.36407(4)
O5 O 0.30652(7) 0.80210(10) 0.28584(4)
N1 N 0.84526(8) 0.78924(11) 0.43492(5)
C1 C 0.75088(10) 0.88255(12) 0.43197(5)
C2 C 0.63485(9) 0.79105(11) 0.42488(5)
C3 C 0.68222(9) 0.63790(11) 0.42400(5)
C4 C 0.80693(10) 0.64358(12) 0.43095(5)
C5 C 0.87545(11) 0.51841(14) 0.43249(6)
H1 H 0.9605 0.5232 0.4379
C6 C 0.81520(13) 0.38518(14) 0.42586(6)
H2 H 0.8602 0.2975 0.4270
C7 C 0.69119(12) 0.37753(13) 0.41766(6)
H3 H 0.6520 0.2853 0.4128
C8 C 0.62369(11) 0.50520(12) 0.41648(5)
H4 H 0.5385 0.5007 0.4106
C9 C 0.96952(12) 0.83580(18) 0.44268(8)
H5 H 0.9730 0.9427 0.4421
H6 H 1.0033 0.7965 0.4086
H7 H 1.0162 0.7996 0.4826
C10 C 0.53651(9) 0.82401(11) 0.36417(5)
H8 H 0.5381 0.7459 0.3325
C11 C 0.42053(9) 0.81445(11) 0.38711(5)
C12 C 0.43927(10) 0.81613(12) 0.44886(5)
H9 H 0.3764 0.8123 0.4711
C13 C 0.57025(9) 0.82464(12) 0.47974(5)
H10 H 0.5893 0.9273 0.4939
C14 C 0.59918(10) 0.72392(13) 0.53655(5)
H11 H 0.5476 0.7534 0.5655
H12 H 0.5752 0.6236 0.5224
C15 C 0.72755(10) 0.71825(12) 0.57308(5)
C16 C 0.79572(11) 0.84369(14) 0.59031(6)
H13 H 0.7653 0.9359 0.5746
C17 C 0.90803(12) 0.83495(16) 0.63039(6)
H14 H 0.9542 0.9211 0.6415
C18 C 0.95304(12) 0.70120(18) 0.65418(7)
H15 H 1.0289 0.6957 0.6824
C19 C 0.88710(13) 0.57624(16) 0.63656(7)
H16 H 0.9180 0.4842 0.6524
C20 C 0.77597(12) 0.58413(14) 0.59592(6)
H17 H 0.7321 0.4970 0.5834
C21 C 0.55217(10) 0.97245(12) 0.33613(5)
C22 C 0.66715(15) 1.10085(17) 0.27546(7)
H18 H 0.6935 1.1715 0.3098
H19 H 0.5977 1.1431 0.2457
C23 C 0.76759(17) 1.0702(2) 0.24340(9)
H20 H 0.7960 1.1620 0.2287
H21 H 0.7389 1.0054 0.2078
H22 H 0.8339 1.0229 0.2726
C24 C 0.29944(10) 0.80189(12) 0.34577(5)
C25 C 0.19446(11) 0.77543(15) 0.24065(6)
H23 H 0.1473 0.7001 0.2572
H24 H 0.2133 0.7373 0.2017
C26 C 0.12058(14) 0.91037(18) 0.22651(7)
H25 H 0.1675 0.9859 0.2108
H26 H 0.0977 0.9453 0.2645
H27 H 0.0479 0.8888 0.1949
loop_
_geom_bond_atom_site_label_1
_geom_bond_atom_site_label_2
_geom_bond_site_symmetry_1
_geom_bond_site_symmetry_2
O1 C1 1_555 1_555
O2 C21 1_555 1_555
O3 C21 1_555 1_555
O4 C24 1_555 1_555
O5 C24 1_555 1_555
N1 C1 1_555 1_555
C1 C2 1_555 1_555
C2 C3 1_555 1_555
C3 C4 1_555 1_555
C4 N1 1_555 1_555
C5 C4 1_555 1_555
H1 C5 1_555 1_555
C6 C5 1_555 1_555
H2 C6 1_555 1_555
C7 C6 1_555 1_555
H3 C7 1_555 1_555
C8 C3 1_555 1_555
H4 C8 1_555 1_555
C9 N1 1_555 1_555
H5 C9 1_555 1_555
H6 C9 1_555 1_555
H7 C9 1_555 1_555
C10 C2 1_555 1_555
H8 C10 1_555 1_555
C11 C10 1_555 1_555
C12 C11 1_555 1_555
H9 C12 1_555 1_555
C13 C2 1_555 1_555
H10 C13 1_555 1_555
C14 C13 1_555 1_555
H11 C14 1_555 1_555
H12 C14 1_555 1_555
C15 C14 1_555 1_555
C16 C15 1_555 1_555
H13 C16 1_555 1_555
C17 C16 1_555 1_555
H14 C17 1_555 1_555
C18 C17 1_555 1_555
H15 C18 1_555 1_555
C19 C18 1_555 1_555
H16 C19 1_555 1_555
C20 C15 1_555 1_555
H17 C20 1_555 1_555
C21 C10 1_555 1_555
C22 O3 1_555 1_555
H18 C22 1_555 1_555
H19 C22 1_555 1_555
C23 C22 1_555 1_555
H20 C23 1_555 1_555
H21 C23 1_555 1_555
H22 C23 1_555 1_555
C24 C11 1_555 1_555
C25 O5 1_555 1_555
H23 C25 1_555 1_555
H24 C25 1_555 1_555
C26 C25 1_555 1_555
H25 C26 1_555 1_555
H26 C26 1_555 1_555
H27 C26 1_555 1_555
C7 C8 1_555 1_555
C12 C13 1_555 1_555
C19 C20 1_555 1_555

#END
