
#######################################################################
#
#                 Cambridge Crystallographic Data Centre
#                                CCDC 
#
#######################################################################
#
# If this CIF has been generated from an entry in the Cambridge 
# Structural Database, then it will include bibliographic, chemical, 
# crystal, experimental, refinement or atomic coordinate data resulting 
# from the CCDC's data processing and validation procedures.
#
#######################################################################

data_REMDIZ
_chemical_formula_moiety         'C17 H18 N2 O3'
_chemical_name_systematic        
'ethyl 8-methoxy-2-phenyl-7,8-dihydroimidazo[1,2-a]pyridine-3-carboxylate'
_symmetry_cell_setting           triclinic
_symmetry_space_group_name_H-M   'P -1'
_symmetry_Int_Tables_number      2
_space_group_name_Hall           '-P 1'
loop_
_symmetry_equiv_pos_site_id
_symmetry_equiv_pos_as_xyz
1 x,y,z
2 -x,-y,-z
_cell_length_a                   6.85883(14)
_cell_length_b                   8.78905(14)
_cell_length_c                   13.3090(2)
_cell_angle_alpha                98.1952(12)
_cell_angle_beta                 100.8386(10)
_cell_angle_gamma                92.0569(7)
_cell_volume                     778.318
_exptl_crystal_colour            colorless
_exptl_crystal_description       block
_cell_formula_units_Z            2
loop_
_atom_site_label
_atom_site_type_symbol
_atom_site_fract_x
_atom_site_fract_y
_atom_site_fract_z
C1 C 0.1276(3) 0.5773(3) 0.69055(19)
H1 H 0.0824 0.5804 0.6205
C2 C 0.0249(3) 0.6353(3) 0.7594(2)
H2 H -0.0918 0.6816 0.7367
C3 C 0.0876(3) 0.6299(3) 0.8721(2)
H3 H 0.0267 0.5377 0.8886
H4 H 0.0407 0.7183 0.911
C4 C 0.3121(3) 0.6302(3) 0.90465(18)
H5 H 0.3462 0.5966 0.9726
C5 C 0.3932(3) 0.5245(2) 0.82634(16)
C6 C 0.5685(3) 0.3677(2) 0.74783(16)
C7 C 0.4195(3) 0.4076(2) 0.67221(15)
C8 C 0.3625(3) 0.3623(3) 0.56005(17)
C9 C 0.4149(6) 0.1959(4) 0.4123(2)
H6 H 0.2932 0.1302 0.3911
H7 H 0.3974 0.2863 0.3781
C10 C 0.5741(6) 0.1159(5) 0.3822(3)
H8 H 0.6951 0.1802 0.4045
H9 H 0.5487 0.0891 0.3082
H10 H 0.5871 0.0238 0.4133
C11 C 0.7321(3) 0.2634(2) 0.74463(17)
C12 C 0.8435(3) 0.2485(3) 0.6676(2)
H11 H 0.8137 0.3027 0.6121
C13 C 1.0011(4) 0.1514(3) 0.6735(3)
H12 H 1.0751 0.1408 0.6214
C14 C 1.0480(4) 0.0718(3) 0.7553(3)
H13 H 1.1535 0.008 0.7587
C15 C 0.9392(4) 0.0865(3) 0.8319(2)
H14 H 0.9702 0.0322 0.8873
C16 C 0.7834(4) 0.1817(3) 0.8269(2)
H15 H 0.711 0.1915 0.8796
C17 C 0.5935(4) 0.8079(4) 0.9554(3)
H16 H 0.6174 0.773 1.0215
H17 H 0.6336 0.9155 0.9642
H18 H 0.6688 0.7508 0.9107
N1 N 0.3089(2) 0.50965(19) 0.72478(13)
N2 N 0.5489(3) 0.4421(2) 0.84325(13)
O1 O 0.2480(3) 0.4278(3) 0.50432(14)
O2 O 0.4535(3) 0.2433(2) 0.52524(12)
O3 O 0.3882(2) 0.78487(18) 0.91086(14)
loop_
_geom_bond_atom_site_label_1
_geom_bond_atom_site_label_2
_geom_bond_site_symmetry_1
_geom_bond_site_symmetry_2
C1 H1 1_555 1_555
C2 C1 1_555 1_555
H2 C2 1_555 1_555
C3 C2 1_555 1_555
H3 C3 1_555 1_555
H4 C3 1_555 1_555
C4 C3 1_555 1_555
H5 C4 1_555 1_555
C5 C4 1_555 1_555
C6 C7 1_555 1_555
C7 C8 1_555 1_555
C8 O1 1_555 1_555
C9 H6 1_555 1_555
H7 C9 1_555 1_555
C10 C9 1_555 1_555
H8 C10 1_555 1_555
H9 C10 1_555 1_555
H10 C10 1_555 1_555
C11 C6 1_555 1_555
C12 C11 1_555 1_555
H11 C12 1_555 1_555
C13 C12 1_555 1_555
H12 C13 1_555 1_555
C14 C13 1_555 1_555
H13 C14 1_555 1_555
C15 C14 1_555 1_555
H14 C15 1_555 1_555
C16 C11 1_555 1_555
H15 C16 1_555 1_555
C17 H16 1_555 1_555
H17 C17 1_555 1_555
H18 C17 1_555 1_555
N1 C1 1_555 1_555
N2 C5 1_555 1_555
O2 C8 1_555 1_555
O3 C4 1_555 1_555
C5 N1 1_555 1_555
C6 N2 1_555 1_555
C7 N1 1_555 1_555
C9 O2 1_555 1_555
C15 C16 1_555 1_555
C17 O3 1_555 1_555

#END
