
#######################################################################
#
#                 Cambridge Crystallographic Data Centre
#                                CCDC 
#
#######################################################################
#
# If this CIF has been generated from an entry in the Cambridge 
# Structural Database, then it will include bibliographic, chemical, 
# crystal, experimental, refinement or atomic coordinate data resulting 
# from the CCDC's data processing and validation procedures.
#
#######################################################################

data_REMDET
_chemical_formula_moiety         'C21 H22 N2 O5'
_chemical_name_systematic        
'methyl 4,5-bis(methoxy)-8-oxa-10,19-diazapentacyclo[7.7.4.0^1,9^.0^2,7^.0^11,16^]icosa-2,4,6,11,13,15-hexaene-19-carboxylate'
_symmetry_cell_setting           monoclinic
_symmetry_space_group_name_H-M   'P 21/n'
_symmetry_Int_Tables_number      14
_space_group_name_Hall           '-P 2yn'
loop_
_symmetry_equiv_pos_site_id
_symmetry_equiv_pos_as_xyz
1 x,y,z
2 1/2-x,1/2+y,1/2-z
3 -x,-y,-z
4 1/2+x,1/2-y,1/2+z
_cell_length_a                   9.4196(10)
_cell_length_b                   7.2900(7)
_cell_length_c                   27.689(3)
_cell_angle_alpha                90
_cell_angle_beta                 94.765(2)
_cell_angle_gamma                90
_cell_volume                     1894.8
_exptl_crystal_colour            colorless
_exptl_crystal_description       block
_cell_formula_units_Z            4
loop_
_atom_site_label
_atom_site_type_symbol
_atom_site_fract_x
_atom_site_fract_y
_atom_site_fract_z
N1 N 0.2776(3) -0.0425(3) 0.04395(9)
H1 H 0.264(3) 0.041(4) 0.0307(10)
N2 N -0.0162(2) -0.3706(3) 0.05637(8)
O1 O 0.06309(19) 0.0123(2) 0.08311(6)
O2 O -0.2176(2) -0.3040(3) 0.00724(7)
O3 O -0.2223(2) -0.5008(2) 0.07035(7)
O4 O 0.0620(2) -0.1105(2) 0.27931(6)
O5 O -0.0963(2) 0.1513(2) 0.24149(6)
C1 C 0.1614(3) -0.1259(3) 0.06596(8)
C2 C 0.2299(3) -0.2303(3) 0.11187(8)
C3 C 0.2078(3) -0.4391(3) 0.10626(9)
H2 H 0.2617 -0.4840 0.0799
H3 H 0.2447 -0.5006 0.1362
C4 C 0.0514(3) -0.4869(3) 0.09551(10)
H4 H 0.0427 -0.6161 0.0859
H5 H 0.0017 -0.4703 0.1249
C5 C 0.0749(3) -0.2498(3) 0.03059(9)
H6 H 0.0161 -0.1747 0.0074
H7 H 0.1394 -0.3235 0.0125
C6 C 0.0619(3) -0.0082(3) 0.13282(8)
C7 C 0.1500(3) -0.1462(3) 0.15192(8)
C8 C 0.1528(3) -0.1865(3) 0.20121(8)
H8 H 0.2111 -0.2812 0.2147
C9 C 0.0681(3) -0.0846(3) 0.23026(9)
C10 C -0.0178(3) 0.0586(3) 0.20981(9)
C11 C -0.0211(3) 0.0970(3) 0.16071(9)
H9 H -0.0783 0.1921 0.1469
C12 C 0.4029(3) -0.0592(3) 0.07355(9)
C13 C 0.3847(3) -0.1724(3) 0.11336(8)
C14 C 0.4991(3) -0.2150(4) 0.14565(10)
H10 H 0.4867 -0.2903 0.1725
C15 C 0.6335(3) -0.1455(4) 0.13809(11)
H11 H 0.7125 -0.1750 0.1597
C16 C 0.6501(3) -0.0328(4) 0.09860(11)
H12 H 0.7407 0.0147 0.0938
C17 C 0.5355(3) 0.0111(4) 0.06605(10)
H13 H 0.5477 0.0873 0.0393
C18 C -0.1561(3) -0.3831(3) 0.04189(10)
C19 C -0.3733(3) -0.5205(4) 0.05761(14)
H14 H -0.4128 -0.6072 0.0795
H15 H -0.3890 -0.5651 0.0246
H16 H -0.4196 -0.4025 0.0602
C20 C -0.1861(4) 0.2961(5) 0.22177(12)
H17 H -0.2362 0.3510 0.2474
H18 H -0.2546 0.2468 0.1970
H19 H -0.1284 0.3885 0.2075
C21 C 0.1107(4) -0.2809(4) 0.29885(10)
H20 H 0.1006 -0.2827 0.3334
H21 H 0.2102 -0.2973 0.2932
H22 H 0.0548 -0.3794 0.2833
loop_
_geom_bond_atom_site_label_1
_geom_bond_atom_site_label_2
_geom_bond_site_symmetry_1
_geom_bond_site_symmetry_2
N1 H1 1_555 1_555
N2 C4 1_555 1_555
O1 C1 1_555 1_555
O2 C18 1_555 1_555
O3 C18 1_555 1_555
O4 C9 1_555 1_555
O5 C10 1_555 1_555
C1 N1 1_555 1_555
C2 C1 1_555 1_555
C3 C2 1_555 1_555
H2 C3 1_555 1_555
H3 C3 1_555 1_555
C4 C3 1_555 1_555
H4 C4 1_555 1_555
H5 C4 1_555 1_555
C5 N2 1_555 1_555
H6 C5 1_555 1_555
H7 C5 1_555 1_555
C6 O1 1_555 1_555
C7 C2 1_555 1_555
C8 C7 1_555 1_555
H8 C8 1_555 1_555
C9 C8 1_555 1_555
C10 C9 1_555 1_555
C11 C6 1_555 1_555
H9 C11 1_555 1_555
C12 N1 1_555 1_555
C13 C2 1_555 1_555
C14 C13 1_555 1_555
H10 C14 1_555 1_555
C15 C14 1_555 1_555
H11 C15 1_555 1_555
C16 C15 1_555 1_555
H12 C16 1_555 1_555
C17 C12 1_555 1_555
H13 C17 1_555 1_555
C18 N2 1_555 1_555
C19 O3 1_555 1_555
H14 C19 1_555 1_555
H15 C19 1_555 1_555
H16 C19 1_555 1_555
C20 O5 1_555 1_555
H17 C20 1_555 1_555
H18 C20 1_555 1_555
H19 C20 1_555 1_555
C21 O4 1_555 1_555
H20 C21 1_555 1_555
H21 C21 1_555 1_555
H22 C21 1_555 1_555
C1 C5 1_555 1_555
C6 C7 1_555 1_555
C10 C11 1_555 1_555
C12 C13 1_555 1_555
C16 C17 1_555 1_555

#END
