
#######################################################################
#
#                 Cambridge Crystallographic Data Centre
#                                CCDC 
#
#######################################################################
#
# If this CIF has been generated from an entry in the Cambridge 
# Structural Database, then it will include bibliographic, chemical, 
# crystal, experimental, refinement or atomic coordinate data resulting 
# from the CCDC's data processing and validation procedures.
#
#######################################################################

data_REMFUN
_chemical_formula_moiety         'C60 H60 B1 Br2 F2 N3 O8'
_chemical_name_systematic        
"1,9-bis(2-bromo-3,4,5-trimethoxyphenyl)-2,8-bis(4-t-butylphenyl)-5,5-difluoro-3,7-bis(4-methoxyphenyl)-5H-dipyrrolo[1,2-c:2',1'-f][1,3,5,2]triazaborinin-4-ium-5-ide unknown solvate"
_symmetry_cell_setting           monoclinic
_symmetry_space_group_name_H-M   'C 2/c'
_symmetry_Int_Tables_number      15
_space_group_name_Hall           '-C 2yn'
loop_
_symmetry_equiv_pos_site_id
_symmetry_equiv_pos_as_xyz
1 x,y,z
2 -x,y,1/2-z
3 1/2+x,1/2+y,z
4 1/2-x,1/2+y,1/2-z
5 -x,-y,-z
6 x,-y,1/2+z
7 1/2-x,1/2-y,-z
8 1/2+x,1/2-y,1/2+z
_cell_length_a                   21.3351(17)
_cell_length_b                   25.306(2)
_cell_length_c                   13.0491(10)
_cell_angle_alpha                90
_cell_angle_beta                 116.5120(10)
_cell_angle_gamma                90
_cell_volume                     6304.41
_exptl_crystal_colour            red
_exptl_crystal_description       block
_cell_formula_units_Z            4
loop_
_atom_site_label
_atom_site_type_symbol
_atom_site_fract_x
_atom_site_fract_y
_atom_site_fract_z
B1 B 0.0000 0.34491(15) 0.2500
Br1 Br 0.102504(17) 0.182530(13) 0.67161(2)
C1 C 0.10416(13) 0.31958(9) 0.4488(2)
C2 C 0.13814(12) 0.27269(9) 0.50855(19)
C3 C 0.10142(12) 0.23058(9) 0.43934(19)
C4 C 0.04689(12) 0.25249(8) 0.33845(19)
C5 C 0.12209(13) 0.37460(9) 0.4863(2)
C6 C 0.07693(16) 0.40569(11) 0.5088(3)
H1 H 0.0341 0.3917 0.4979
C7 C 0.09294(17) 0.45696(13) 0.5468(3)
H2 H 0.0619 0.4769 0.5631
C8 C 0.15428(18) 0.47779(12) 0.5602(4)
C9 C 0.20097(18) 0.44778(13) 0.5384(4)
H3 H 0.2433 0.4623 0.5480
C10 C 0.18484(16) 0.39629(11) 0.5024(3)
H4 H 0.2167 0.3760 0.4888
C11 C 0.1279(3) 0.56166(17) 0.6184(6)
H5 H 0.0826 0.5616 0.5533
H6 H 0.1456 0.5971 0.6338
H7 H 0.1238 0.5480 0.6838
C12 C 0.20024(12) 0.27078(9) 0.6211(2)
C13 C 0.20592(14) 0.30313(11) 0.7101(2)
H8 H 0.1715 0.3283 0.6977
C14 C 0.26197(14) 0.29856(11) 0.8173(2)
H9 H 0.2644 0.3208 0.8757
C15 C 0.31456(13) 0.26181(11) 0.8404(2)
C16 C 0.30926(14) 0.23046(11) 0.7502(2)
H10 H 0.3443 0.2059 0.7621
C17 C 0.25308(13) 0.23465(10) 0.6423(2)
H11 H 0.2510 0.2128 0.5836
C18 C 0.37408(15) 0.25582(14) 0.9626(2)
C19 C 0.3462(3) 0.2301(3) 1.0360(4)
H12 H 0.3318 0.1946 1.0095
H13 H 0.3067 0.2497 1.0321
H14 H 0.3820 0.2292 1.1137
C20 C 0.43529(18) 0.2254(2) 0.9667(3)
H15 H 0.4202 0.1908 0.9350
H16 H 0.4703 0.2223 1.0447
H17 H 0.4547 0.2436 0.9229
C21 C 0.3986(4) 0.3099(2) 1.0173(5)
H18 H 0.4301 0.3056 1.0970
H19 H 0.3588 0.3304 1.0096
H20 H 0.4222 0.3279 0.9797
C22 C 0.10968(12) 0.17277(9) 0.4571(2)
C23 C 0.11014(12) 0.14640(10) 0.5509(2)
C24 C 0.11333(13) 0.09128(10) 0.5575(2)
C25 C 0.11613(14) 0.06215(10) 0.4698(2)
C26 C 0.11553(14) 0.08794(10) 0.3751(2)
C27 C 0.11284(13) 0.14237(9) 0.3695(2)
H21 H 0.1131 0.1593 0.3065
C28 C 0.1788(2) 0.05626(14) 0.7396(3)
H22 H 0.2052 0.0335 0.7145
H23 H 0.1740 0.0399 0.8021
H24 H 0.2027 0.0894 0.7643
C29 C 0.0617(2) -0.02068(14) 0.4083(4)
H25 H 0.0232 -0.0095 0.4221
H26 H 0.0700 -0.0577 0.4247
H27 H 0.0509 -0.0144 0.3296
C30 C 0.1164(3) 0.08085(15) 0.1953(3)
H28 H 0.0745 0.1017 0.1593
H29 H 0.1166 0.0544 0.1427
H30 H 0.1566 0.1032 0.2170
F1 F 0.03984(9) 0.37497(6) 0.21439(14)
N1 N 0.04945(10) 0.30710(7) 0.34782(16)
N2 N 0.0000 0.22583(10) 0.2500
O1 O 0.17495(13) 0.52905(10) 0.5949(4)
O2 O 0.11115(11) 0.06508(8) 0.64740(17)
O3 O 0.12256(12) 0.00816(7) 0.48006(19)
O4 O 0.11838(13) 0.05619(7) 0.29349(18)
Br1A Br -0.102504(17) 0.182530(13) -0.17161(2)
C1A C -0.10416(13) 0.31958(9) 0.0512(2)
C2A C -0.13814(12) 0.27269(9) -0.00855(19)
C3A C -0.10142(12) 0.23058(9) 0.06066(19)
C4A C -0.04689(12) 0.25249(8) 0.16155(19)
C5A C -0.12209(13) 0.37460(9) 0.0137(2)
C6A C -0.07693(16) 0.40569(11) -0.0088(3)
H1A H -0.0341 0.3917 0.0021
C7A C -0.09294(17) 0.45696(13) -0.0468(3)
H2A H -0.0619 0.4769 -0.0631
C8A C -0.15428(18) 0.47779(12) -0.0602(4)
C9A C -0.20097(18) 0.44778(13) -0.0384(4)
H3A H -0.2433 0.4623 -0.0480
C10A C -0.18484(16) 0.39629(11) -0.0024(3)
H4A H -0.2167 0.3760 0.0112
C11A C -0.1279(3) 0.56166(17) -0.1184(6)
H5A H -0.0826 0.5616 -0.0533
H6A H -0.1456 0.5971 -0.1338
H7A H -0.1238 0.5480 -0.1838
C12A C -0.20024(12) 0.27078(9) -0.1211(2)
C13A C -0.20592(14) 0.30313(11) -0.2101(2)
H8A H -0.1715 0.3283 -0.1977
C14A C -0.26197(14) 0.29856(11) -0.3173(2)
H9A H -0.2644 0.3208 -0.3757
C15A C -0.31456(13) 0.26181(11) -0.3404(2)
C16A C -0.30926(14) 0.23046(11) -0.2502(2)
H10A H -0.3443 0.2059 -0.2621
C17A C -0.25308(13) 0.23465(10) -0.1423(2)
H11A H -0.2510 0.2128 -0.0836
C18A C -0.37408(15) 0.25582(14) -0.4626(2)
C19A C -0.3462(3) 0.2301(3) -0.5360(4)
H12A H -0.3318 0.1946 -0.5095
H13A H -0.3067 0.2497 -0.5321
H14A H -0.3820 0.2292 -0.6137
C20A C -0.43529(18) 0.2254(2) -0.4667(3)
H15A H -0.4202 0.1908 -0.4350
H16A H -0.4703 0.2223 -0.5447
H17A H -0.4547 0.2436 -0.4229
C21A C -0.3986(4) 0.3099(2) -0.5173(5)
H18A H -0.4301 0.3056 -0.5970
H19A H -0.3588 0.3304 -0.5096
H20A H -0.4222 0.3279 -0.4797
C22A C -0.10968(12) 0.17277(9) 0.0429(2)
C23A C -0.11014(12) 0.14640(10) -0.0509(2)
C24A C -0.11333(13) 0.09128(10) -0.0575(2)
C25A C -0.11613(14) 0.06215(10) 0.0302(2)
C26A C -0.11553(14) 0.08794(10) 0.1249(2)
C27A C -0.11284(13) 0.14237(9) 0.1305(2)
H21A H -0.1131 0.1593 0.1935
C28A C -0.1788(2) 0.05626(14) -0.2396(3)
H22A H -0.2052 0.0335 -0.2145
H23A H -0.1740 0.0399 -0.3021
H24A H -0.2027 0.0894 -0.2643
C29A C -0.0617(2) -0.02068(14) 0.0917(4)
H25A H -0.0232 -0.0095 0.0779
H26A H -0.0700 -0.0577 0.0753
H27A H -0.0509 -0.0144 0.1704
C30A C -0.1164(3) 0.08085(15) 0.3047(3)
H28A H -0.0745 0.1017 0.3407
H29A H -0.1166 0.0544 0.3573
H30A H -0.1566 0.1032 0.2830
F1A F -0.03984(9) 0.37497(6) 0.28561(14)
N1A N -0.04945(10) 0.30710(7) 0.15218(16)
O1A O -0.17495(13) 0.52905(10) -0.0949(4)
O2A O -0.11115(11) 0.06508(8) -0.14740(17)
O3A O -0.12256(12) 0.00816(7) 0.01994(19)
O4A O -0.11838(13) 0.05619(7) 0.20651(18)
loop_
_geom_bond_atom_site_label_1
_geom_bond_atom_site_label_2
_geom_bond_site_symmetry_1
_geom_bond_site_symmetry_2
B1 F1 1_555 1_555
Br1 C23 1_555 1_555
C1 C2 1_555 1_555
C2 C3 1_555 1_555
C3 C4 1_555 1_555
C4 N1 1_555 1_555
C5 C1 1_555 1_555
C6 C5 1_555 1_555
H1 C6 1_555 1_555
C7 C6 1_555 1_555
H2 C7 1_555 1_555
C8 C7 1_555 1_555
C9 C8 1_555 1_555
H3 C9 1_555 1_555
C10 C5 1_555 1_555
H4 C10 1_555 1_555
C11 H5 1_555 1_555
H6 C11 1_555 1_555
H7 C11 1_555 1_555
C12 C2 1_555 1_555
C13 C12 1_555 1_555
H8 C13 1_555 1_555
C14 C13 1_555 1_555
H9 C14 1_555 1_555
C15 C14 1_555 1_555
C16 C15 1_555 1_555
H10 C16 1_555 1_555
C17 C12 1_555 1_555
H11 C17 1_555 1_555
C18 C15 1_555 1_555
C19 C18 1_555 1_555
H12 C19 1_555 1_555
H13 C19 1_555 1_555
H14 C19 1_555 1_555
C20 C18 1_555 1_555
H15 C20 1_555 1_555
H16 C20 1_555 1_555
H17 C20 1_555 1_555
C21 C18 1_555 1_555
H18 C21 1_555 1_555
H19 C21 1_555 1_555
H20 C21 1_555 1_555
C22 C3 1_555 1_555
C23 C22 1_555 1_555
C24 C23 1_555 1_555
C25 C24 1_555 1_555
C26 C25 1_555 1_555
C27 C22 1_555 1_555
H21 C27 1_555 1_555
C28 H22 1_555 1_555
H23 C28 1_555 1_555
H24 C28 1_555 1_555
C29 H25 1_555 1_555
H26 C29 1_555 1_555
H27 C29 1_555 1_555
C30 H28 1_555 1_555
H29 C30 1_555 1_555
H30 C30 1_555 1_555
N1 B1 1_555 1_555
N2 C4 1_555 1_555
O1 C8 1_555 1_555
O2 C24 1_555 1_555
O3 C25 1_555 1_555
O4 C26 1_555 1_555
Br1A C23A 1_555 1_555
C1A C2A 1_555 1_555
C2A C3A 1_555 1_555
C3A C4A 1_555 1_555
C4A N2 1_555 1_555
C5A C1A 1_555 1_555
C6A C5A 1_555 1_555
H1A C6A 1_555 1_555
C7A C6A 1_555 1_555
H2A C7A 1_555 1_555
C8A C7A 1_555 1_555
C9A C8A 1_555 1_555
H3A C9A 1_555 1_555
C10A C5A 1_555 1_555
H4A C10A 1_555 1_555
C11A H5A 1_555 1_555
H6A C11A 1_555 1_555
H7A C11A 1_555 1_555
C12A C2A 1_555 1_555
C13A C12A 1_555 1_555
H8A C13A 1_555 1_555
C14A C13A 1_555 1_555
H9A C14A 1_555 1_555
C15A C14A 1_555 1_555
C16A C15A 1_555 1_555
H10A C16A 1_555 1_555
C17A C12A 1_555 1_555
H11A C17A 1_555 1_555
C18A C15A 1_555 1_555
C19A C18A 1_555 1_555
H12A C19A 1_555 1_555
H13A C19A 1_555 1_555
H14A C19A 1_555 1_555
C20A C18A 1_555 1_555
H15A C20A 1_555 1_555
H16A C20A 1_555 1_555
H17A C20A 1_555 1_555
C21A C18A 1_555 1_555
H18A C21A 1_555 1_555
H19A C21A 1_555 1_555
H20A C21A 1_555 1_555
C22A C3A 1_555 1_555
C23A C22A 1_555 1_555
C24A C23A 1_555 1_555
C25A C24A 1_555 1_555
C26A C25A 1_555 1_555
C27A C22A 1_555 1_555
H21A C27A 1_555 1_555
C28A H22A 1_555 1_555
H23A C28A 1_555 1_555
H24A C28A 1_555 1_555
C29A H25A 1_555 1_555
H26A C29A 1_555 1_555
H27A C29A 1_555 1_555
C30A H28A 1_555 1_555
H29A C30A 1_555 1_555
H30A C30A 1_555 1_555
F1A B1 1_555 1_555
N1A B1 1_555 1_555
O1A C8A 1_555 1_555
O2A C24A 1_555 1_555
O3A C25A 1_555 1_555
O4A C26A 1_555 1_555
C1 N1 1_555 1_555
C9 C10 1_555 1_555
C11 O1 1_555 1_555
C16 C17 1_555 1_555
C26 C27 1_555 1_555
C28 O2 1_555 1_555
C29 O3 1_555 1_555
C30 O4 1_555 1_555
C1A N1A 1_555 1_555
C4A N1A 1_555 1_555
C9A C10A 1_555 1_555
C11A O1A 1_555 1_555
C16A C17A 1_555 1_555
C26A C27A 1_555 1_555
C28A O2A 1_555 1_555
C29A O3A 1_555 1_555
C30A O4A 1_555 1_555

#END
