
#######################################################################
#
#                 Cambridge Crystallographic Data Centre
#                                CCDC 
#
#######################################################################
#
# If this CIF has been generated from an entry in the Cambridge 
# Structural Database, then it will include bibliographic, chemical, 
# crystal, experimental, refinement or atomic coordinate data resulting 
# from the CCDC's data processing and validation procedures.
#
#######################################################################

data_REMFUM
_chemical_formula_moiety         'C22 H14 Br1 N1 O2'
_chemical_name_systematic        
6-Bromo-5-phenyl-7H-pyrrolo[2,1-e]phenanthridine-2,7(9H)-dione
_symmetry_cell_setting           monoclinic
_symmetry_space_group_name_H-M   'P 21/n'
_symmetry_Int_Tables_number      14
_space_group_name_Hall           '-P 2yn'
loop_
_symmetry_equiv_pos_site_id
_symmetry_equiv_pos_as_xyz
1 x,y,z
2 1/2-x,1/2+y,1/2-z
3 -x,-y,-z
4 1/2+x,1/2-y,1/2+z
_cell_length_a                   6.7473(7)
_cell_length_b                   9.6146(10)
_cell_length_c                   27.114(3)
_cell_angle_alpha                90
_cell_angle_beta                 95.106(2)
_cell_angle_gamma                90
_cell_volume                     1751.98
_exptl_crystal_colour            colorless
_exptl_crystal_description       prismatic
_cell_formula_units_Z            4
loop_
_atom_site_label
_atom_site_type_symbol
_atom_site_fract_x
_atom_site_fract_y
_atom_site_fract_z
Br1 Br -0.11863(4) 0.09401(3) 0.785620(10)
O1 O -0.0345(3) 0.39522(18) 0.73842(7)
O2 O 0.6995(3) 0.3621(2) 0.96731(7)
N1 N 0.2238(3) 0.4406(2) 0.79731(7)
C1 C 0.0713(4) 0.3616(3) 0.77480(9)
C2 C 0.0637(3) 0.2344(2) 0.80476(9)
C3 C 0.1865(3) 0.2401(2) 0.84561(9)
C4 C 0.3075(4) 0.3761(2) 0.84377(9)
C5 C 0.5188(4) 0.3315(3) 0.84161(10)
H1 H 0.5619 0.3059 0.8113
C6 C 0.6460(4) 0.3274(3) 0.88151(10)
H2 H 0.7720 0.2900 0.8793
C7 C 0.5928(4) 0.3805(3) 0.92913(10)
C8 C 0.4115(4) 0.4643(3) 0.92778(9)
H3 H 0.3867 0.5155 0.9557
C9 C 0.2805(3) 0.4698(2) 0.88792(8)
C10 C 0.1107(4) 0.5658(2) 0.88234(9)
C11 C -0.0022(4) 0.5994(3) 0.92113(10)
H4 H 0.0234 0.5570 0.9519
C12 C -0.1536(4) 0.6968(3) 0.91345(12)
H5 H -0.2310 0.7189 0.9391
C13 C -0.1900(5) 0.7609(3) 0.86820(13)
H6 H -0.2908 0.8269 0.8636
C14 C -0.0784(4) 0.7282(3) 0.82977(12)
H7 H -0.1046 0.7712 0.7992
C15 C 0.0730(4) 0.6312(2) 0.83665(10)
C16 C 0.2027(4) 0.5914(2) 0.79676(10)
H8 H 0.1427 0.6220 0.7648
H9 H 0.3322 0.6351 0.8027
C17 C 0.2225(4) 0.1351(3) 0.88489(9)
C18 C 0.3030(4) 0.0071(3) 0.87411(11)
H10 H 0.3376 -0.0109 0.8423
C19 C 0.3319(5) -0.0931(3) 0.91008(14)
H11 H 0.3838 -0.1792 0.9023
C20 C 0.2851(5) -0.0671(3) 0.95708(14)
H12 H 0.3088 -0.1344 0.9815
C21 C 0.2037(5) 0.0575(4) 0.96828(12)
H13 H 0.1690 0.0736 1.0002
C22 C 0.1719(4) 0.1605(3) 0.93269(10)
H14 H 0.1174 0.2455 0.9407
loop_
_geom_bond_atom_site_label_1
_geom_bond_atom_site_label_2
_geom_bond_site_symmetry_1
_geom_bond_site_symmetry_2
Br1 C2 1_555 1_555
O1 C1 1_555 1_555
O2 C7 1_555 1_555
N1 C1 1_555 1_555
C1 C2 1_555 1_555
C2 C3 1_555 1_555
C3 C4 1_555 1_555
C4 N1 1_555 1_555
C5 C4 1_555 1_555
H1 C5 1_555 1_555
C6 C5 1_555 1_555
H2 C6 1_555 1_555
C7 C6 1_555 1_555
C8 C7 1_555 1_555
H3 C8 1_555 1_555
C9 C4 1_555 1_555
C10 C9 1_555 1_555
C11 C10 1_555 1_555
H4 C11 1_555 1_555
C12 C11 1_555 1_555
H5 C12 1_555 1_555
C13 C12 1_555 1_555
H6 C13 1_555 1_555
C14 C13 1_555 1_555
H7 C14 1_555 1_555
C15 C10 1_555 1_555
C16 N1 1_555 1_555
H8 C16 1_555 1_555
H9 C16 1_555 1_555
C17 C3 1_555 1_555
C18 C17 1_555 1_555
H10 C18 1_555 1_555
C19 C18 1_555 1_555
H11 C19 1_555 1_555
C20 C19 1_555 1_555
H12 C20 1_555 1_555
C21 C20 1_555 1_555
H13 C21 1_555 1_555
C22 C17 1_555 1_555
H14 C22 1_555 1_555
C8 C9 1_555 1_555
C14 C15 1_555 1_555
C15 C16 1_555 1_555
C21 C22 1_555 1_555

#END
