
#######################################################################
#
#                 Cambridge Crystallographic Data Centre
#                                CCDC 
#
#######################################################################
#
# If this CIF has been generated from an entry in the Cambridge 
# Structural Database, then it will include bibliographic, chemical, 
# crystal, experimental, refinement or atomic coordinate data resulting 
# from the CCDC's data processing and validation procedures.
#
#######################################################################

data_REMFOG
_chemical_formula_moiety         'C16 H11 Cl1 I1 N1 O2'
_chemical_name_systematic        
6-Chloro-3-iodo-1-methyl-4-phenyl-1-azaspiro[4.5]deca-3,6,9-triene-2,8-dione
_symmetry_cell_setting           monoclinic
_symmetry_space_group_name_H-M   'P 21/c'
_symmetry_Int_Tables_number      14
_space_group_name_Hall           '-P 2ybc'
loop_
_symmetry_equiv_pos_site_id
_symmetry_equiv_pos_as_xyz
1 x,y,z
2 -x,1/2+y,1/2-z
3 -x,-y,-z
4 x,1/2-y,1/2+z
_cell_length_a                   13.0005(13)
_cell_length_b                   7.0068(7)
_cell_length_c                   17.8353(18)
_cell_angle_alpha                90
_cell_angle_beta                 106.159(2)
_cell_angle_gamma                90
_cell_volume                     1560.47
_exptl_crystal_colour            colorless
_exptl_crystal_description       block
_cell_formula_units_Z            4
loop_
_atom_site_label
_atom_site_type_symbol
_atom_site_fract_x
_atom_site_fract_y
_atom_site_fract_z
I1 I -0.00366(2) 0.25105(4) 0.071182(16)
Cl1 Cl 0.37699(10) 0.13612(16) 0.26444(7)
O1 O 0.0338(2) 0.0806(5) 0.25494(18)
O2 O 0.4946(3) 0.7352(5) 0.4154(3)
N1 N 0.1769(3) 0.2751(4) 0.30826(19)
C1 C 0.0975(3) 0.2013(6) 0.2492(2)
C2 C 0.1065(3) 0.3013(5) 0.1775(2)
C3 C 0.1871(2) 0.4225(5) 0.19366(19)
C4 C 0.2403(3) 0.4182(5) 0.2821(2)
C5 C 0.1913(4) 0.2314(6) 0.3900(3)
H1 H 0.1674 0.3374 0.4149
H2 H 0.2657 0.2077 0.4150
H3 H 0.1502 0.1201 0.3943
C6 C 0.3562(3) 0.3581(5) 0.2999(2)
C7 C 0.4369(3) 0.4642(7) 0.3401(2)
H4 H 0.5066 0.4211 0.3471
C8 C 0.4197(4) 0.6461(7) 0.3738(3)
C9 C 0.3097(4) 0.7118(6) 0.3568(3)
H5 H 0.2963 0.8307 0.3753
C10 C 0.2284(3) 0.6097(5) 0.3165(2)
H6 H 0.1598 0.6586 0.3087
C11 C 0.2261(2) 0.5539(5) 0.14290(19)
C12 C 0.3008(3) 0.4944(6) 0.1059(2)
H7 H 0.3253 0.3691 0.1119
C13 C 0.3393(3) 0.6190(7) 0.0601(2)
H8 H 0.3897 0.5773 0.0356
C14 C 0.3035(3) 0.8041(6) 0.0508(2)
H9 H 0.3299 0.8883 0.0203
C15 C 0.2292(3) 0.8639(6) 0.0864(2)
H10 H 0.2046 0.9891 0.0796
C16 C 0.1900(3) 0.7412(5) 0.1325(2)
H11 H 0.1394 0.7841 0.1566
loop_
_geom_bond_atom_site_label_1
_geom_bond_atom_site_label_2
_geom_bond_site_symmetry_1
_geom_bond_site_symmetry_2
I1 C2 1_555 1_555
Cl1 C6 1_555 1_555
O1 C1 1_555 1_555
O2 C8 1_555 1_555
N1 C1 1_555 1_555
C1 C2 1_555 1_555
C2 C3 1_555 1_555
C3 C4 1_555 1_555
C4 N1 1_555 1_555
C5 N1 1_555 1_555
H1 C5 1_555 1_555
H2 C5 1_555 1_555
H3 C5 1_555 1_555
C6 C4 1_555 1_555
C7 C6 1_555 1_555
H4 C7 1_555 1_555
C8 C7 1_555 1_555
C9 C8 1_555 1_555
H5 C9 1_555 1_555
C10 C4 1_555 1_555
H6 C10 1_555 1_555
C11 C3 1_555 1_555
C12 C11 1_555 1_555
H7 C12 1_555 1_555
C13 C12 1_555 1_555
H8 C13 1_555 1_555
C14 C13 1_555 1_555
H9 C14 1_555 1_555
C15 C14 1_555 1_555
H10 C15 1_555 1_555
C16 C11 1_555 1_555
H11 C16 1_555 1_555
C9 C10 1_555 1_555
C15 C16 1_555 1_555

#END
