
#######################################################################
#
#                 Cambridge Crystallographic Data Centre
#                                CCDC 
#
#######################################################################
#
# If this CIF has been generated from an entry in the Cambridge 
# Structural Database, then it will include bibliographic, chemical, 
# crystal, experimental, refinement or atomic coordinate data resulting 
# from the CCDC's data processing and validation procedures.
#
#######################################################################

data_REMGUO
_chemical_formula_moiety         'C24 H17 N1'
_chemical_name_systematic        
1-methyl-4-phenyl-3-(phenylethynyl)isoquinoline
_symmetry_cell_setting           monoclinic
_symmetry_space_group_name_H-M   'P c'
_symmetry_Int_Tables_number      7
_space_group_name_Hall           'P -2yc'
loop_
_symmetry_equiv_pos_site_id
_symmetry_equiv_pos_as_xyz
1 x,y,z
2 x,-y,1/2+z
_cell_length_a                   8.4609(7)
_cell_length_b                   12.4431(11)
_cell_length_c                   8.2340(8)
_cell_angle_alpha                90
_cell_angle_beta                 99.375(2)
_cell_angle_gamma                90
_cell_volume                     855.296
_exptl_crystal_colour            colorless
_exptl_crystal_description       block
_cell_formula_units_Z            2
loop_
_atom_site_label
_atom_site_type_symbol
_atom_site_fract_x
_atom_site_fract_y
_atom_site_fract_z
N1 N 0.9191(4) 0.1538(3) 0.7125(4)
C1 C 0.8872(5) 0.1141(3) 0.5643(5)
C2 C 0.7346(5) 0.1198(3) 0.4661(5)
C3 C 0.7012(6) 0.0796(3) 0.3046(5)
H1 H 0.7825 0.0463 0.2597
C4 C 0.5542(7) 0.0880(3) 0.2131(6)
H2 H 0.5356 0.0617 0.1060
C5 C 0.4307(7) 0.1362(4) 0.2794(6)
H3 H 0.3287 0.1410 0.2174
C6 C 0.4596(6) 0.1763(3) 0.4353(5)
H4 H 0.3764 0.2088 0.4782
C7 C 0.6104(5) 0.1699(3) 0.5322(4)
C8 C 0.6455(4) 0.2123(3) 0.6926(4)
C9 C 0.7976(5) 0.2037(3) 0.7752(5)
C10 C 0.8427(5) 0.2459(3) 0.9368(5)
C11 C 0.8789(5) 0.2818(3) 1.0718(5)
C12 C 0.9114(5) 0.3273(3) 1.2318(4)
C13 C 0.7897(6) 0.3693(3) 1.3032(5)
H5 H 0.6853 0.3688 1.2462
C14 C 0.8217(7) 0.4122(3) 1.4588(6)
H6 H 0.7387 0.4411 1.5064
C15 C 0.9727(7) 0.4127(4) 1.5436(5)
H7 H 0.9929 0.4414 1.6493
C16 C 1.0957(7) 0.3710(4) 1.4743(6)
H8 H 1.1993 0.3710 1.5331
C17 C 1.0662(5) 0.3294(3) 1.3181(5)
H9 H 1.1502 0.3024 1.2702
C18 C 1.0232(6) 0.0592(4) 0.5036(6)
H10 H 1.1161 0.0608 0.5878
H11 H 1.0464 0.0955 0.4073
H12 H 0.9946 -0.0141 0.4765
C19 C 0.5195(5) 0.2656(3) 0.7701(4)
C20 C 0.3926(5) 0.2095(4) 0.8102(5)
H13 H 0.3837 0.1363 0.7878
C21 C 0.2770(6) 0.2603(5) 0.8839(6)
H14 H 0.1914 0.2210 0.9109
C22 C 0.2882(6) 0.3657(5) 0.9162(6)
H15 H 0.2107 0.3995 0.9663
C23 C 0.4121(7) 0.4234(4) 0.8761(6)
H16 H 0.4191 0.4967 0.8981
C24 C 0.5283(6) 0.3735(3) 0.8024(5)
H17 H 0.6128 0.4135 0.7747
loop_
_geom_bond_atom_site_label_1
_geom_bond_atom_site_label_2
_geom_bond_site_symmetry_1
_geom_bond_site_symmetry_2
N1 C1 1_555 1_555
C1 C2 1_555 1_555
C2 C3 1_555 1_555
C3 H1 1_555 1_555
C4 C3 1_555 1_555
H2 C4 1_555 1_555
C5 C4 1_555 1_555
H3 C5 1_555 1_555
C6 C5 1_555 1_555
H4 C6 1_555 1_555
C7 C2 1_555 1_555
C8 C7 1_555 1_555
C9 N1 1_555 1_555
C10 C9 1_555 1_555
C11 C10 1_555 1_555
C12 C11 1_555 1_555
C13 C12 1_555 1_555
H5 C13 1_555 1_555
C14 C13 1_555 1_555
H6 C14 1_555 1_555
C15 C14 1_555 1_555
H7 C15 1_555 1_555
C16 C15 1_555 1_555
H8 C16 1_555 1_555
C17 C12 1_555 1_555
H9 C17 1_555 1_555
C18 C1 1_555 1_555
H10 C18 1_555 1_555
H11 C18 1_555 1_555
H12 C18 1_555 1_555
C19 C8 1_555 1_555
C20 C19 1_555 1_555
H13 C20 1_555 1_555
C21 C20 1_555 1_555
H14 C21 1_555 1_555
C22 C21 1_555 1_555
H15 C22 1_555 1_555
C23 C22 1_555 1_555
H16 C23 1_555 1_555
C24 C19 1_555 1_555
H17 C24 1_555 1_555
C6 C7 1_555 1_555
C8 C9 1_555 1_555
C16 C17 1_555 1_555
C23 C24 1_555 1_555

#END
