
#######################################################################
#
#                 Cambridge Crystallographic Data Centre
#                                CCDC 
#
#######################################################################
#
# If this CIF has been generated from an entry in the Cambridge 
# Structural Database, then it will include bibliographic, chemical, 
# crystal, experimental, refinement or atomic coordinate data resulting 
# from the CCDC's data processing and validation procedures.
#
#######################################################################

data_REMHAV
_chemical_formula_moiety         'C40 H40 N2'
_chemical_name_systematic        
3',4-bis(4-butylphenyl)-1,1'-dimethyl-3,4'-biisoquinoline
_symmetry_cell_setting           triclinic
_symmetry_space_group_name_H-M   'P -1'
_symmetry_Int_Tables_number      2
_space_group_name_Hall           '-P 1'
loop_
_symmetry_equiv_pos_site_id
_symmetry_equiv_pos_as_xyz
1 x,y,z
2 -x,-y,-z
_cell_length_a                   11.8453(11)
_cell_length_b                   12.0707(12)
_cell_length_c                   12.4256(12)
_cell_angle_alpha                88.758(2)
_cell_angle_beta                 71.1290(10)
_cell_angle_gamma                73.2390(10)
_cell_volume                     1604.68
_exptl_crystal_colour            colorless
_exptl_crystal_description       block
_cell_formula_units_Z            2
loop_
_atom_site_label
_atom_site_type_symbol
_atom_site_fract_x
_atom_site_fract_y
_atom_site_fract_z
N1 N 0.77964(19) 0.00874(18) 0.25926(17)
N2 N 0.69336(18) 0.25011(16) -0.01743(16)
C1 C 0.8712(2) -0.0736(2) 0.1893(2)
C2 C 0.8927(2) -0.0824(2) 0.0705(2)
C3 C 0.9911(2) -0.1712(2) -0.0056(3)
H1 H 1.0471 -0.2249 0.0220
C4 C 1.0044(3) -0.1787(2) -0.1175(3)
H2 H 1.0699 -0.2367 -0.1667
C5 C 0.9205(3) -0.1000(2) -0.1596(2)
H3 H 0.9288 -0.1080 -0.2363
C6 C 0.8264(2) -0.0114(2) -0.0904(2)
H4 H 0.7718 0.0410 -0.1203
C7 C 0.8117(2) 0.0009(2) 0.0259(2)
C8 C 0.7147(2) 0.09231(19) 0.1030(2)
C9 C 0.7027(2) 0.09301(19) 0.2168(2)
C10 C 0.6042(2) 0.1778(2) 0.3075(2)
C11 C 0.5720(2) 0.2965(2) 0.2996(2)
H5 H 0.6119 0.3267 0.2336
C12 C 0.4810(3) 0.3706(2) 0.3888(3)
H6 H 0.4617 0.4502 0.3817
C13 C 0.4178(3) 0.3308(3) 0.4879(3)
C14 C 0.4501(3) 0.2114(3) 0.4952(2)
H7 H 0.4090 0.1813 0.5608
C15 C 0.5412(2) 0.1371(2) 0.4075(2)
H8 H 0.5614 0.0577 0.4152
C16 C 0.9529(3) -0.1598(2) 0.2431(3)
H9 H 0.9269 -0.1377 0.3232
H10 H 1.0383 -0.1610 0.2077
H11 H 0.9455 -0.2357 0.2327
C17 C 0.3179(3) 0.4097(3) 0.5860(3)
H12 H 0.3258 0.3789 0.6568
H13 H 0.3316 0.4853 0.5831
C18 C 0.1894(3) 0.4245(3) 0.5871(3)
H14 H 0.1785 0.3485 0.5818
H15 H 0.1788 0.4629 0.5201
C19 C 0.0874(3) 0.4947(3) 0.6933(3)
H16 H 0.0904 0.4510 0.7593
H17 H 0.1049 0.5665 0.7047
C20 C -0.0390(4) 0.5225(4) 0.6864(4)
H18 H -0.0458 0.5736 0.6270
H19 H -0.0989 0.5598 0.7579
H20 H -0.0549 0.4523 0.6697
C21 C 0.6319(2) 0.18214(19) 0.05454(19)
C22 C 0.5080(2) 0.19240(18) 0.07558(19)
C23 C 0.4416(2) 0.27434(19) 0.01579(19)
C24 C 0.3174(2) 0.2844(2) 0.0229(2)
H21 H 0.2755 0.2373 0.0689
C25 C 0.2585(3) 0.3628(3) -0.0373(3)
H22 H 0.1767 0.3686 -0.0318
C26 C 0.3201(3) 0.4340(3) -0.1070(3)
H23 H 0.2785 0.4882 -0.1463
C27 C 0.4407(3) 0.4248(2) -0.1181(2)
H24 H 0.4809 0.4724 -0.1654
C28 C 0.5051(2) 0.34385(19) -0.05846(19)
C29 C 0.6320(2) 0.3290(2) -0.0698(2)
C30 C 0.4430(2) 0.1225(2) 0.1599(2)
C31 C 0.4852(2) 0.0027(2) 0.1514(2)
H25 H 0.5543 -0.0364 0.0898
C32 C 0.4255(3) -0.0599(2) 0.2340(2)
H26 H 0.4548 -0.1405 0.2264
C33 C 0.3233(3) -0.0049(3) 0.3275(2)
C34 C 0.2819(3) 0.1148(3) 0.3347(2)
H27 H 0.2126 0.1540 0.3959
C35 C 0.3402(2) 0.1771(2) 0.2541(2)
H28 H 0.3106 0.2577 0.2624
C36 C 0.7059(3) 0.4010(2) -0.1458(2)
H29 H 0.7870 0.3829 -0.1377
H30 H 0.6627 0.4819 -0.1243
H31 H 0.7150 0.3839 -0.2238
C37 C 0.270(2) -0.088(2) 0.4171(18)
H32 H 0.3390 -0.1524 0.4228
H33 H 0.2276 -0.0459 0.4915
C38 C 0.1867(13) -0.1315(13) 0.3848(8)
H34 H 0.2315 -0.1767 0.3120
H35 H 0.1219 -0.0664 0.3737
C39 C 0.124(2) -0.208(2) 0.4711(17)
H36 H 0.0360 -0.1651 0.5036
H37 H 0.1289 -0.2762 0.4279
C40 C 0.162(3) -0.243(2) 0.5526(18)
H38 H 0.2368 -0.3070 0.5254
H39 H 0.0990 -0.2665 0.6099
H40 H 0.1800 -0.1807 0.5848
C41? C 0.2508(17) -0.0641(17) 0.4155(13)
H41? H 0.1628 -0.0262 0.4284
H42? H 0.2661 -0.0527 0.4859
C42? C 0.2765(14) -0.1953(9) 0.3909(8)
H43? H 0.2573 -0.2055 0.3222
H44? H 0.3655 -0.2317 0.3734
C43? C 0.2092(16) -0.2628(13) 0.4809(18)
H45? H 0.2441 -0.3448 0.4559
H46? H 0.2254 -0.2518 0.5510
C44? C 0.0731(15) -0.2296(18) 0.505(3)
H47? H 0.0348 -0.1557 0.5489
H48? H 0.0404 -0.2871 0.5484
H49? H 0.0554 -0.2244 0.4351
loop_
_geom_bond_atom_site_label_1
_geom_bond_atom_site_label_2
_geom_bond_site_symmetry_1
_geom_bond_site_symmetry_2
N1 C1 1_555 1_555
N2 C21 1_555 1_555
C1 C2 1_555 1_555
C2 C3 1_555 1_555
C3 H1 1_555 1_555
C4 C3 1_555 1_555
H2 C4 1_555 1_555
C5 C4 1_555 1_555
H3 C5 1_555 1_555
C6 C5 1_555 1_555
H4 C6 1_555 1_555
C7 C2 1_555 1_555
C8 C7 1_555 1_555
C9 N1 1_555 1_555
C10 C9 1_555 1_555
C11 C10 1_555 1_555
H5 C11 1_555 1_555
C12 C11 1_555 1_555
H6 C12 1_555 1_555
C13 C12 1_555 1_555
C14 C13 1_555 1_555
H7 C14 1_555 1_555
C15 C10 1_555 1_555
H8 C15 1_555 1_555
C16 C1 1_555 1_555
H9 C16 1_555 1_555
H10 C16 1_555 1_555
H11 C16 1_555 1_555
C17 C13 1_555 1_555
H12 C17 1_555 1_555
H13 C17 1_555 1_555
C18 C17 1_555 1_555
H14 C18 1_555 1_555
H15 C18 1_555 1_555
C19 C18 1_555 1_555
H16 C19 1_555 1_555
H17 C19 1_555 1_555
C20 C19 1_555 1_555
H18 C20 1_555 1_555
H19 C20 1_555 1_555
H20 C20 1_555 1_555
C21 C8 1_555 1_555
C22 C21 1_555 1_555
C23 C22 1_555 1_555
C24 C23 1_555 1_555
H21 C24 1_555 1_555
C25 C24 1_555 1_555
H22 C25 1_555 1_555
C26 C25 1_555 1_555
H23 C26 1_555 1_555
C27 C26 1_555 1_555
H24 C27 1_555 1_555
C28 C23 1_555 1_555
C29 N2 1_555 1_555
C30 C22 1_555 1_555
C31 C30 1_555 1_555
H25 C31 1_555 1_555
C32 C31 1_555 1_555
H26 C32 1_555 1_555
C33 C32 1_555 1_555
C34 C33 1_555 1_555
H27 C34 1_555 1_555
C35 C30 1_555 1_555
H28 C35 1_555 1_555
C36 C29 1_555 1_555
H29 C36 1_555 1_555
H30 C36 1_555 1_555
H31 C36 1_555 1_555
C37 C33 1_555 1_555
H32 C37 1_555 1_555
H33 C37 1_555 1_555
C38 C37 1_555 1_555
H34 C38 1_555 1_555
H35 C38 1_555 1_555
C39 C38 1_555 1_555
H36 C39 1_555 1_555
H37 C39 1_555 1_555
C40 C39 1_555 1_555
H38 C40 1_555 1_555
H39 C40 1_555 1_555
H40 C40 1_555 1_555
C6 C7 1_555 1_555
C8 C9 1_555 1_555
C14 C15 1_555 1_555
C27 C28 1_555 1_555
C28 C29 1_555 1_555
C34 C35 1_555 1_555

#END
