
#######################################################################
#
#                 Cambridge Crystallographic Data Centre
#                                CCDC 
#
#######################################################################
#
# If this CIF has been generated from an entry in the Cambridge 
# Structural Database, then it will include bibliographic, chemical, 
# crystal, experimental, refinement or atomic coordinate data resulting 
# from the CCDC's data processing and validation procedures.
#
#######################################################################

data_REMJUQ
_chemical_formula_moiety         'C16 H26 S2 Si3'
_chemical_name_systematic        
7,7-Dimethyl-4,6-bis(trimethylsilyl)-7H-thieno[3',4':4,5]silolo[2,3-b]thiophene
_symmetry_cell_setting           monoclinic
_symmetry_space_group_name_H-M   'P 21'
_symmetry_Int_Tables_number      4
_space_group_name_Hall           'P 2yb'
loop_
_symmetry_equiv_pos_site_id
_symmetry_equiv_pos_as_xyz
1 x,y,z
2 -x,1/2+y,-z
_cell_length_a                   10.160(4)
_cell_length_b                   10.464(4)
_cell_length_c                   10.644(4)
_cell_angle_alpha                90
_cell_angle_beta                 113.854(5)
_cell_angle_gamma                90
_cell_volume                     1034.95
_exptl_crystal_colour            colorless
_exptl_crystal_description       block
_cell_formula_units_Z            2
loop_
_atom_site_label
_atom_site_type_symbol
_atom_site_fract_x
_atom_site_fract_y
_atom_site_fract_z
Si1 Si 0.03811(10) 0.24379(10) 0.14584(10)
Si2 Si 0.32465(11) 0.27093(11) -0.02420(11)
Si3 Si 0.41833(10) 0.64261(10) 0.44369(10)
S1 S -0.12432(11) 0.34305(15) 0.34172(12)
S2 S 0.42305(9) 0.47170(9) 0.20960(9)
C1 C -0.0448(5) 0.4702(6) 0.4441(5)
H1 H -0.0787 0.5079 0.5044
C2 C 0.0737(4) 0.5096(5) 0.4272(4)
H2 H 0.1303 0.5785 0.4737
C3 C 0.1016(4) 0.4345(4) 0.3311(3)
C4 C 0.0010(4) 0.3405(4) 0.2736(4)
C5 C 0.0900(5) 0.0780(5) 0.2063(5)
H3 H 0.1825 0.0784 0.2822
H4 H 0.0949 0.0276 0.1329
H5 H 0.0198 0.0421 0.2350
C6 C -0.1115(4) 0.2440(5) -0.0255(4)
H6 H -0.1912 0.1970 -0.0222
H7 H -0.0806 0.2047 -0.0905
H8 H -0.1407 0.3304 -0.0531
C7 C 0.1950(3) 0.3488(3) 0.1704(3)
C8 C 0.2153(3) 0.4399(3) 0.2768(3)
C9 C 0.3359(3) 0.5140(3) 0.3125(3)
C10 C 0.4545(5) 0.5827(5) 0.6182(4)
H9 H 0.4954 0.6501 0.6838
H10 H 0.5208 0.5125 0.6396
H11 H 0.3662 0.5546 0.6217
C11 C 0.3006(5) 0.7851(4) 0.4079(5)
H12 H 0.2975 0.8267 0.3263
H13 H 0.3381 0.8432 0.4840
H14 H 0.2053 0.7593 0.3948
C12 C 0.5889(5) 0.6902(5) 0.4337(5)
H15 H 0.5686 0.7320 0.3476
H16 H 0.6465 0.6157 0.4407
H17 H 0.6403 0.7477 0.5077
C13 C 0.3009(4) 0.3543(4) 0.1207(3)
C14 C 0.2607(8) 0.1042(7) -0.0398(8)
H18 H 0.1574 0.1031 -0.0795
H19 H 0.2959 0.0655 0.0495
H20 H 0.2956 0.0573 -0.0976
C15 C 0.2222(6) 0.3516(7) -0.1842(5)
H21 H 0.2307 0.3056 -0.2586
H22 H 0.2586 0.4368 -0.1810
H23 H 0.1228 0.3554 -0.1981
C16 C 0.5177(6) 0.2632(8) 0.0136(7)
H24 H 0.5665 0.2152 0.0965
H25 H 0.5564 0.3482 0.0252
H26 H 0.5310 0.2221 -0.0610
loop_
_geom_bond_atom_site_label_1
_geom_bond_atom_site_label_2
_geom_bond_site_symmetry_1
_geom_bond_site_symmetry_2
Si1 C4 1_555 1_555
Si2 C13 1_555 1_555
Si3 C9 1_555 1_555
S1 C1 1_555 1_555
S2 C9 1_555 1_555
C1 H1 1_555 1_555
C2 C1 1_555 1_555
H2 C2 1_555 1_555
C3 C2 1_555 1_555
C4 S1 1_555 1_555
C5 Si1 1_555 1_555
H3 C5 1_555 1_555
H4 C5 1_555 1_555
H5 C5 1_555 1_555
C6 Si1 1_555 1_555
H6 C6 1_555 1_555
H7 C6 1_555 1_555
H8 C6 1_555 1_555
C7 Si1 1_555 1_555
C8 C3 1_555 1_555
C9 C8 1_555 1_555
C10 Si3 1_555 1_555
H9 C10 1_555 1_555
H10 C10 1_555 1_555
H11 C10 1_555 1_555
C11 Si3 1_555 1_555
H12 C11 1_555 1_555
H13 C11 1_555 1_555
H14 C11 1_555 1_555
C12 Si3 1_555 1_555
H15 C12 1_555 1_555
H16 C12 1_555 1_555
H17 C12 1_555 1_555
C13 S2 1_555 1_555
C14 Si2 1_555 1_555
H18 C14 1_555 1_555
H19 C14 1_555 1_555
H20 C14 1_555 1_555
C15 Si2 1_555 1_555
H21 C15 1_555 1_555
H22 C15 1_555 1_555
H23 C15 1_555 1_555
C16 Si2 1_555 1_555
H24 C16 1_555 1_555
H25 C16 1_555 1_555
H26 C16 1_555 1_555
C3 C4 1_555 1_555
C7 C8 1_555 1_555
C7 C13 1_555 1_555

#END
