
#######################################################################
#
#                 Cambridge Crystallographic Data Centre
#                                CCDC 
#
#######################################################################
#
# If this CIF has been generated from an entry in the Cambridge 
# Structural Database, then it will include bibliographic, chemical, 
# crystal, experimental, refinement or atomic coordinate data resulting 
# from the CCDC's data processing and validation procedures.
#
#######################################################################

data_REMKEB
_chemical_formula_moiety         'C26 H34 S4 Si4'
_chemical_name_systematic        
7,7,7',7'-Tetramethyl-6,6'-bis(trimethylsilyl)-7H,7'H-4,4'-bithieno[3',4':4,5]silolo[2,3-b]thiophene
_symmetry_cell_setting           orthorhombic
_symmetry_space_group_name_H-M   'P 21 21 21'
_symmetry_Int_Tables_number      19
_space_group_name_Hall           'P 2ac 2ab'
loop_
_symmetry_equiv_pos_site_id
_symmetry_equiv_pos_as_xyz
1 x,y,z
2 1/2-x,-y,1/2+z
3 -x,1/2+y,1/2-z
4 1/2+x,1/2-y,-z
_cell_length_a                   13.2682(14)
_cell_length_b                   13.7288(14)
_cell_length_c                   17.4654(18)
_cell_angle_alpha                90
_cell_angle_beta                 90
_cell_angle_gamma                90
_cell_volume                     3181.44
_cell_formula_units_Z            4
loop_
_atom_site_label
_atom_site_type_symbol
_atom_site_fract_x
_atom_site_fract_y
_atom_site_fract_z
Si1 Si 0.37287(6) 1.23455(5) 0.95508(4)
Si2 Si 0.24318(5) 1.15614(4) 1.15186(4)
Si3 Si 0.02323(5) 0.67145(4) 0.86468(4)
Si4 Si -0.22287(5) 0.84306(5) 0.84826(4)
C1 C 0.4258(3) 1.2063(3) 0.85913(19)
H1 H 0.3718 1.1960 0.8235
H2 H 0.4664 1.1485 0.8623
H3 H 0.4667 1.2598 0.8421
C2 C 0.4744(2) 1.2382(2) 1.0285(2)
H4 H 0.5057 1.1753 1.0320
H5 H 0.4460 1.2553 1.0772
H6 H 0.5238 1.2859 1.0141
C3 C 0.3042(3) 1.3515(2) 0.95245(18)
H7 H 0.3476 1.4013 0.9325
H8 H 0.2834 1.3687 1.0033
H9 H 0.2460 1.3452 0.9202
C4 C 0.27804(17) 1.13824(15) 0.98032(13)
C5 C 0.23220(16) 1.11727(14) 1.04851(12)
C6 C 0.15083(16) 1.04812(15) 1.04163(13)
C7 C 0.13620(16) 1.01602(15) 0.96835(13)
C8 C 0.09664(16) 1.02850(16) 1.11250(13)
C9 C 0.13131(19) 1.08007(18) 1.17523(13)
C10 C 0.01532(18) 0.9665(2) 1.13084(15)
H10 H -0.0163 0.9262 1.0954
C11 C -0.0118(2) 0.9721(2) 1.20522(17)
H11 H -0.0645 0.9368 1.2267
C12 C 0.3559(2) 1.1105(2) 1.20399(16)
H12 H 0.3519 1.1299 1.2567
H13 H 0.4156 1.1374 1.1814
H14 H 0.3581 1.0407 1.2008
C13 C 0.2245(2) 1.28943(18) 1.16748(16)
H15 H 0.1666 1.3110 1.1392
H16 H 0.2831 1.3241 1.1502
H17 H 0.2143 1.3017 1.2210
C14 C 0.06415(16) 0.94409(15) 0.93822(12)
C15 C 0.07947(16) 0.85020(14) 0.91624(11)
C16 C 0.17153(17) 0.79116(16) 0.91345(13)
C17 C 0.27373(18) 0.81256(18) 0.93126(15)
H18 H 0.2961 0.8727 0.9489
C18 C 0.3342(2) 0.7353(2) 0.91958(18)
H19 H 0.4034 0.7360 0.9284
C19 C 0.15782(18) 0.69737(16) 0.88753(14)
C20 C -0.00997(16) 0.80162(15) 0.88918(12)
C21 C -0.09302(16) 0.85968(16) 0.88932(12)
C22 C 0.0028(2) 0.6365(2) 0.76291(15)
H20 H 0.0282 0.6870 0.7301
H21 H -0.0680 0.6279 0.7538
H22 H 0.0376 0.5767 0.7524
C23 C -0.0290(2) 0.57880(19) 0.93191(16)
H23 H 0.0065 0.5184 0.9255
H24 H -0.0992 0.5691 0.9212
H25 H -0.0211 0.6012 0.9836
C24 C -0.2167(3) 0.8868(3) 0.74870(18)
H26 H -0.1644 0.8526 0.7219
H27 H -0.2023 0.9553 0.7484
H28 H -0.2802 0.8753 0.7239
C25 C -0.2608(3) 0.7126(2) 0.8515(2)
H29 H -0.3278 0.7057 0.8316
H30 H -0.2590 0.6899 0.9035
H31 H -0.2150 0.6747 0.8210
C26 C -0.3145(2) 0.9174(3) 0.9027(2)
H32 H -0.2944 0.9846 0.9012
H33 H -0.3164 0.8956 0.9549
H34 H -0.3801 0.9107 0.8803
S1 S 0.22116(5) 1.07248(4) 0.90702(3)
S2 S 0.06256(6) 1.05184(6) 1.25522(4)
S3 S 0.26978(5) 0.63568(5) 0.88659(4)
S4 S -0.06137(4) 0.97492(4) 0.92334(3)
loop_
_geom_bond_atom_site_label_1
_geom_bond_atom_site_label_2
_geom_bond_site_symmetry_1
_geom_bond_site_symmetry_2
Si1 C1 1_555 1_555
Si2 C5 1_555 1_555
Si3 C19 1_555 1_555
Si4 C21 1_555 1_555
C1 H1 1_555 1_555
H2 C1 1_555 1_555
H3 C1 1_555 1_555
C2 Si1 1_555 1_555
H4 C2 1_555 1_555
H5 C2 1_555 1_555
H6 C2 1_555 1_555
C3 Si1 1_555 1_555
H7 C3 1_555 1_555
H8 C3 1_555 1_555
H9 C3 1_555 1_555
C4 Si1 1_555 1_555
C5 C4 1_555 1_555
C6 C5 1_555 1_555
C7 C6 1_555 1_555
C8 C6 1_555 1_555
C9 Si2 1_555 1_555
C10 C8 1_555 1_555
H10 C10 1_555 1_555
C11 C10 1_555 1_555
H11 C11 1_555 1_555
C12 Si2 1_555 1_555
H12 C12 1_555 1_555
H13 C12 1_555 1_555
H14 C12 1_555 1_555
C13 Si2 1_555 1_555
H15 C13 1_555 1_555
H16 C13 1_555 1_555
H17 C13 1_555 1_555
C14 C7 1_555 1_555
C15 C14 1_555 1_555
C16 C15 1_555 1_555
C17 C16 1_555 1_555
H18 C17 1_555 1_555
C18 C17 1_555 1_555
H19 C18 1_555 1_555
C19 C16 1_555 1_555
C20 Si3 1_555 1_555
C21 C20 1_555 1_555
C22 Si3 1_555 1_555
H20 C22 1_555 1_555
H21 C22 1_555 1_555
H22 C22 1_555 1_555
C23 Si3 1_555 1_555
H23 C23 1_555 1_555
H24 C23 1_555 1_555
H25 C23 1_555 1_555
C24 Si4 1_555 1_555
H26 C24 1_555 1_555
H27 C24 1_555 1_555
H28 C24 1_555 1_555
C25 Si4 1_555 1_555
H29 C25 1_555 1_555
H30 C25 1_555 1_555
H31 C25 1_555 1_555
C26 Si4 1_555 1_555
H32 C26 1_555 1_555
H33 C26 1_555 1_555
H34 C26 1_555 1_555
S1 C4 1_555 1_555
S2 C9 1_555 1_555
S3 C18 1_555 1_555
S4 C14 1_555 1_555
C7 S1 1_555 1_555
C8 C9 1_555 1_555
C11 S2 1_555 1_555
C15 C20 1_555 1_555
C19 S3 1_555 1_555
C21 S4 1_555 1_555

#END
