
#######################################################################
#
#                 Cambridge Crystallographic Data Centre
#                                CCDC 
#
#######################################################################
#
# If this CIF has been generated from an entry in the Cambridge 
# Structural Database, then it will include bibliographic, chemical, 
# crystal, experimental, refinement or atomic coordinate data resulting 
# from the CCDC's data processing and validation procedures.
#
#######################################################################

data_REMKIE
_chemical_formula_moiety         'C15 H13 F3 O3'
_chemical_name_systematic        
2-(4-methoxycarbonylbenzyl)-3-methyl-4-trifluoromethylfuran
_symmetry_cell_setting           monoclinic
_symmetry_space_group_name_H-M   'P 21/c'
_symmetry_Int_Tables_number      14
_space_group_name_Hall           '-P 2ybc'
loop_
_symmetry_equiv_pos_site_id
_symmetry_equiv_pos_as_xyz
1 x,y,z
2 -x,1/2+y,1/2-z
3 -x,-y,-z
4 x,1/2-y,1/2+z
_cell_length_a                   4.6630(11)
_cell_length_b                   12.804(3)
_cell_length_c                   23.788(6)
_cell_angle_alpha                90
_cell_angle_beta                 92.059(5)
_cell_angle_gamma                90
_cell_volume                     1419.35
_exptl_crystal_colour            colorless
_cell_formula_units_Z            4
loop_
_atom_site_label
_atom_site_type_symbol
_atom_site_fract_x
_atom_site_fract_y
_atom_site_fract_z
O1 O 0.5359(5) 1.12391(13) 0.08832(7)
O2 O 1.1703(5) 0.63213(13) 0.00507(8)
O3 O 1.2090(4) 0.58230(13) 0.09474(8)
F1 F 1.1194(4) 1.25469(16) 0.22167(9)
F2 F 0.7433(4) 1.33638(14) 0.22813(9)
F3 F 1.0000(6) 1.36342(16) 0.15952(9)
C1 C 0.6880(7) 1.2102(2) 0.10454(13)
C2 C 0.7494(6) 1.20785(17) 0.15921(10)
C3 C 0.6293(5) 1.11311(17) 0.18060(9)
C4 C 0.5024(6) 1.06634(18) 0.13632(10)
C5 C 0.3448(7) 0.9652(2) 0.12807(14)
C6 C 0.5402(6) 0.87961(18) 0.10834(11)
C7 C 0.6673(7) 0.8117(2) 0.14650(13)
C8 C 0.8509(6) 0.7348(2) 0.12951(11)
C9 C 0.9132(5) 0.72468(17) 0.07360(10)
C10 C 0.7858(7) 0.7920(2) 0.03517(12)
C11 C 0.6009(7) 0.8684(2) 0.05237(12)
C12 C 1.1094(6) 0.64334(18) 0.05322(12)
C13 C 0.8978(7) 1.2894(2) 0.19100(13)
C14 C 0.6446(8) 1.0753(2) 0.23992(11)
H1 H 0.5207 1.0160 0.2435
H2 H 0.5846 1.1300 0.2645
H3 H 0.8383 1.0556 0.2500
C15 C 1.4011(7) 0.4995(2) 0.07889(13)
H4 H 1.2967 0.4488 0.0566
H5 H 1.4812 0.4666 0.1121
H6 H 1.5528 0.5282 0.0574
H7 H 0.741(6) 1.253(2) 0.0763(12)
H8 H 0.182(7) 0.978(2) 0.1008(12)
H9 H 0.273(5) 0.9478(18) 0.1657(11)
H10 H 0.629(5) 0.8182(17) 0.1863(11)
H11 H 0.936(6) 0.689(2) 0.1570(11)
H12 H 0.825(6) 0.7870(17) -0.0045(11)
H13 H 0.513(6) 0.912(2) 0.0255(11)
loop_
_geom_bond_atom_site_label_1
_geom_bond_atom_site_label_2
_geom_bond_site_symmetry_1
_geom_bond_site_symmetry_2
O1 C1 1_555 1_555
O2 C12 1_555 1_555
O3 C12 1_555 1_555
F1 C13 1_555 1_555
F2 C13 1_555 1_555
F3 C13 1_555 1_555
C1 C2 1_555 1_555
C2 C3 1_555 1_555
C3 C4 1_555 1_555
C4 O1 1_555 1_555
C5 C4 1_555 1_555
C6 C5 1_555 1_555
C7 C6 1_555 1_555
C8 C7 1_555 1_555
C9 C8 1_555 1_555
C10 C9 1_555 1_555
C11 C6 1_555 1_555
C12 C9 1_555 1_555
C13 C2 1_555 1_555
C14 C3 1_555 1_555
H1 C14 1_555 1_555
H2 C14 1_555 1_555
H3 C14 1_555 1_555
C15 O3 1_555 1_555
H4 C15 1_555 1_555
H5 C15 1_555 1_555
H6 C15 1_555 1_555
H7 C1 1_555 1_555
H8 C5 1_555 1_555
H9 C5 1_555 1_555
H10 C7 1_555 1_555
H11 C8 1_555 1_555
H12 C10 1_555 1_555
H13 C11 1_555 1_555
C10 C11 1_555 1_555

#END
