
#######################################################################
#
#                 Cambridge Crystallographic Data Centre
#                                CCDC 
#
#######################################################################
#
# If this CIF has been generated from an entry in the Cambridge 
# Structural Database, then it will include bibliographic, chemical, 
# crystal, experimental, refinement or atomic coordinate data resulting 
# from the CCDC's data processing and validation procedures.
#
#######################################################################

data_REMKEC
_chemical_formula_moiety         'C19 H17 N1 O4'
_chemical_name_systematic        
2-((1S,3S)-3-Allyl-1,3-dihydroisobenzofuran-1-yl)-1-(3-nitrophenyl)ethanone
_symmetry_cell_setting           monoclinic
_symmetry_space_group_name_H-M   'C 2'
_symmetry_Int_Tables_number      5
_space_group_name_Hall           'C 2y'
loop_
_symmetry_equiv_pos_site_id
_symmetry_equiv_pos_as_xyz
1 x,y,z
2 -x,y,-z
3 1/2+x,1/2+y,z
4 1/2-x,1/2+y,-z
_cell_length_a                   21.23(3)
_cell_length_b                   4.782(7)
_cell_length_c                   16.45(3)
_cell_angle_alpha                90
_cell_angle_beta                 96.883(19)
_cell_angle_gamma                90
_cell_volume                     1658
_exptl_crystal_colour            colorless
_exptl_crystal_description       needle
_chemical_melting_point          '68.5-69.7 deg.C'
_cell_formula_units_Z            4
loop_
_atom_site_label
_atom_site_type_symbol
_atom_site_fract_x
_atom_site_fract_y
_atom_site_fract_z
C1 C 0.3593(4) 0.6659(19) 0.9968(4)
C2 C 0.3187(4) 0.780(2) 1.0496(5)
H1 H 0.2889 0.9138 1.0301
C3 C 0.3226(5) 0.696(3) 1.1287(6)
H2 H 0.2958 0.7746 1.1632
C4 C 0.3659(6) 0.495(3) 1.1585(6)
H3 H 0.3677 0.4338 1.2123
C5 C 0.4071(4) 0.386(2) 1.1065(5)
C6 C 0.4036(4) 0.4653(18) 1.0270(4)
H4 H 0.4306 0.3861 0.9928
C7 C 0.3528(4) 0.7670(18) 0.9099(4)
C8 C 0.3838(3) 0.6107(18) 0.8474(4)
H5 H 0.3766 0.4124 0.8546
H6 H 0.4292 0.6425 0.8574
C9 C 0.3616(3) 0.6861(19) 0.7602(4)
H7 H 0.3663 0.8881 0.7528
C10 C 0.3944(3) 0.5347(16) 0.6981(4)
C11 C 0.3522(3) 0.3603(18) 0.6516(4)
C12 C 0.2882(3) 0.392(2) 0.6795(4)
H8 H 0.2777 0.2178 0.7063
C13 C 0.3712(4) 0.199(2) 0.5892(4)
H9 H 0.3425 0.0826 0.5581
C14 C 0.4334(4) 0.214(2) 0.5742(5)
H10 H 0.4469 0.1054 0.5326
C15 C 0.4755(4) 0.383(2) 0.6190(5)
H11 H 0.5173 0.3890 0.6074
C16 C 0.4574(4) 0.546(2) 0.6815(5)
H12 H 0.4866 0.6618 0.7120
C17 C 0.2357(3) 0.459(2) 0.6150(4)
H13 H 0.2452 0.6353 0.5900
H14 H 0.2342 0.3162 0.5730
C18 C 0.1722(4) 0.480(3) 0.6427(5)
H15 H 0.1666 0.6172 0.6813
C19 C 0.1236(5) 0.324(2) 0.6179(6)
H16 H 0.1271 0.1844 0.5793
H17 H 0.0852 0.3520 0.6387
N1 N 0.4526(5) 0.173(2) 1.1388(6)
O1 O 0.4512(4) 0.0848(19) 1.2071(4)
O2 O 0.4921(4) 0.101(2) 1.0956(6)
O3 O 0.3232(3) 0.9779(15) 0.8912(4)
O4 O 0.2957(2) 0.6100(14) 0.7403(3)
loop_
_geom_bond_atom_site_label_1
_geom_bond_atom_site_label_2
_geom_bond_site_symmetry_1
_geom_bond_site_symmetry_2
C1 C2 1_555 1_555
C2 H1 1_555 1_555
C3 C2 1_555 1_555
H2 C3 1_555 1_555
C4 C3 1_555 1_555
H3 C4 1_555 1_555
C5 C4 1_555 1_555
C6 C1 1_555 1_555
H4 C6 1_555 1_555
C7 C1 1_555 1_555
C8 C7 1_555 1_555
H5 C8 1_555 1_555
H6 C8 1_555 1_555
C9 C8 1_555 1_555
H7 C9 1_555 1_555
C10 C9 1_555 1_555
C11 C10 1_555 1_555
C12 C11 1_555 1_555
H8 C12 1_555 1_555
C13 C11 1_555 1_555
H9 C13 1_555 1_555
C14 C13 1_555 1_555
H10 C14 1_555 1_555
C15 C14 1_555 1_555
H11 C15 1_555 1_555
C16 C10 1_555 1_555
H12 C16 1_555 1_555
C17 C12 1_555 1_555
H13 C17 1_555 1_555
H14 C17 1_555 1_555
C18 C17 1_555 1_555
H15 C18 1_555 1_555
C19 C18 1_555 1_555
H16 C19 1_555 1_555
H17 C19 1_555 1_555
N1 C5 1_555 1_555
O1 N1 1_555 1_555
O2 N1 1_555 1_555
O3 C7 1_555 1_555
O4 C9 1_555 1_555
C5 C6 1_555 1_555
C12 O4 1_555 1_555
C15 C16 1_555 1_555

#END
