
#######################################################################
#
#                 Cambridge Crystallographic Data Centre
#                                CCDC 
#
#######################################################################
#
# If this CIF has been generated from an entry in the Cambridge 
# Structural Database, then it will include bibliographic, chemical, 
# crystal, experimental, refinement or atomic coordinate data resulting 
# from the CCDC's data processing and validation procedures.
#
#######################################################################

data_REMLEC
_chemical_formula_moiety         'C25 H26 N2 O2 S1'
_chemical_name_systematic        
1-((4-Methylphenyl)sulfonyl)-5,6a-diphenyloctahydropyrrolo[3,4-b]pyrrole
_symmetry_cell_setting           orthorhombic
_symmetry_space_group_name_H-M   'P 21 21 21'
_symmetry_Int_Tables_number      19
_space_group_name_Hall           'P 2ac 2ab'
loop_
_symmetry_equiv_pos_site_id
_symmetry_equiv_pos_as_xyz
1 x,y,z
2 1/2+x,1/2-y,-z
3 -x,1/2+y,1/2-z
4 1/2-x,-y,1/2+z
_cell_length_a                   9.1977(12)
_cell_length_b                   10.4095(13)
_cell_length_c                   21.851(3)
_cell_angle_alpha                90
_cell_angle_beta                 90
_cell_angle_gamma                90
_cell_volume                     2092.09
_exptl_crystal_colour            colorless
_exptl_crystal_description       needle
_cell_formula_units_Z            4
loop_
_atom_site_label
_atom_site_type_symbol
_atom_site_fract_x
_atom_site_fract_y
_atom_site_fract_z
S1 S 0.48714(4) 0.78898(3) 0.758948(15)
C1 C 1.11418(18) 0.86865(19) 0.68283(8)
H1 H 1.1154 0.9254 0.6471
H2 H 1.1599 0.7866 0.6723
H3 H 1.1680 0.9090 0.7164
O1 O 0.42031(11) 0.91383(9) 0.76078(5)
O2 O 0.43045(12) 0.69194(10) 0.71867(5)
N1 N 0.48070(14) 0.73562(11) 0.82854(5)
C2 C 0.95942(17) 0.84556(16) 0.70235(7)
C3 C 0.89354(17) 0.72624(16) 0.69539(7)
H4 H 0.9474 0.6571 0.6783
C4 C 0.74937(16) 0.70631(16) 0.71313(6)
H5 H 0.7050 0.6245 0.7081
C5 C 0.67170(15) 0.80843(13) 0.73827(7)
C6 C 0.44120(16) 0.81713(13) 0.88168(6)
C7 C 0.53983(16) 0.93652(14) 0.88911(7)
H6 H 0.6302 0.9271 0.8649
H7 H 0.4887 1.0154 0.8758
N2 N 0.57174(16) 0.94102(13) 0.95450(6)
C8 C 0.65827(16) 1.03417(15) 0.98061(7)
C9 C 0.68886(17) 1.03071(15) 1.04373(7)
H8 H 0.6460 0.9663 1.0687
C10 C 0.78143(18) 1.12106(16) 1.06978(7)
H9 H 0.8018 1.1171 1.1124
C11 C 0.84436(18) 1.21651(17) 1.03466(8)
H10 H 0.9099 1.2763 1.0525
C12 C 0.55700(18) 0.61645(15) 0.84667(7)
H11 H 0.6396 0.5981 0.8190
H12 H 0.4900 0.5420 0.8468
C13 C 0.60978(18) 0.64785(15) 0.91127(7)
H13 H 0.7025 0.6962 0.9103
H14 H 0.6232 0.5688 0.9358
C14 C 0.48604(16) 0.73061(13) 0.93693(6)
H15 H 0.4028 0.6756 0.9503
C15 C 0.52843(18) 0.82458(14) 0.98705(7)
H16 H 0.4451 0.8419 1.0145
H17 H 0.6101 0.7904 1.0117
C16 C 0.81015(18) 1.22362(16) 0.97264(8)
H18 H 0.8504 1.2907 0.9485
C17 C 0.71804(18) 1.13411(15) 0.94545(7)
H19 H 0.6956 1.1406 0.9031
C18 C 0.27947(17) 0.84755(15) 0.88412(7)
C19 C 0.22838(18) 0.94856(15) 0.92052(7)
H20 H 0.2956 1.0018 0.9416
C20 C 0.08011(18) 0.97164(16) 0.92608(7)
H21 H 0.0466 1.0401 0.9512
C21 C -0.01896(18) 0.89530(16) 0.89521(7)
H22 H -0.1202 0.9115 0.8989
C22 C 0.02983(17) 0.79526(17) 0.85890(7)
H23 H -0.0381 0.7429 0.8377
C23 C 0.17817(17) 0.77109(15) 0.85331(7)
H24 H 0.2108 0.7021 0.8284
C24 C 0.73525(16) 0.92914(13) 0.74546(7)
H25 H 0.6814 0.9984 0.7624
C25 C 0.87880(16) 0.94622(15) 0.72740(7)
H26 H 0.9230 1.0281 0.7322
loop_
_geom_bond_atom_site_label_1
_geom_bond_atom_site_label_2
_geom_bond_site_symmetry_1
_geom_bond_site_symmetry_2
S1 O1 1_555 1_555
C1 H1 1_555 1_555
H2 C1 1_555 1_555
H3 C1 1_555 1_555
O2 S1 1_555 1_555
N1 S1 1_555 1_555
C2 C1 1_555 1_555
C3 C2 1_555 1_555
H4 C3 1_555 1_555
C4 C3 1_555 1_555
H5 C4 1_555 1_555
C5 S1 1_555 1_555
C6 N1 1_555 1_555
C7 C6 1_555 1_555
H6 C7 1_555 1_555
H7 C7 1_555 1_555
N2 C7 1_555 1_555
C8 N2 1_555 1_555
C9 C8 1_555 1_555
H8 C9 1_555 1_555
C10 C9 1_555 1_555
H9 C10 1_555 1_555
C11 C10 1_555 1_555
H10 C11 1_555 1_555
C12 N1 1_555 1_555
H11 C12 1_555 1_555
H12 C12 1_555 1_555
C13 C12 1_555 1_555
H13 C13 1_555 1_555
H14 C13 1_555 1_555
C14 C6 1_555 1_555
H15 C14 1_555 1_555
C15 N2 1_555 1_555
H16 C15 1_555 1_555
H17 C15 1_555 1_555
C16 C11 1_555 1_555
H18 C16 1_555 1_555
C17 C8 1_555 1_555
H19 C17 1_555 1_555
C18 C6 1_555 1_555
C19 C18 1_555 1_555
H20 C19 1_555 1_555
C20 C19 1_555 1_555
H21 C20 1_555 1_555
C21 C20 1_555 1_555
H22 C21 1_555 1_555
C22 C21 1_555 1_555
H23 C22 1_555 1_555
C23 C18 1_555 1_555
H24 C23 1_555 1_555
C24 C5 1_555 1_555
H25 C24 1_555 1_555
C25 C2 1_555 1_555
H26 C25 1_555 1_555
C4 C5 1_555 1_555
C13 C14 1_555 1_555
C14 C15 1_555 1_555
C16 C17 1_555 1_555
C22 C23 1_555 1_555
C24 C25 1_555 1_555

#END
