
#######################################################################
#
#                 Cambridge Crystallographic Data Centre
#                                CCDC 
#
#######################################################################
#
# If this CIF has been generated from an entry in the Cambridge 
# Structural Database, then it will include bibliographic, chemical, 
# crystal, experimental, refinement or atomic coordinate data resulting 
# from the CCDC's data processing and validation procedures.
#
#######################################################################

data_REMPAD
_chemical_formula_moiety         'C34 H24 Br2 I2 O4'
_chemical_name_systematic        
7,17-bis(4-bromophenyl)-10,20-diiodo-8,15,17,18-tetrahydro-5H,7H-5,19:9,15-diepoxydibenzo[c,k][1,9]dioxacyclohexadecine
_symmetry_cell_setting           monoclinic
_symmetry_space_group_name_H-M   'P 21/n'
_symmetry_Int_Tables_number      14
_space_group_name_Hall           '-P 2yn'
loop_
_symmetry_equiv_pos_site_id
_symmetry_equiv_pos_as_xyz
1 x,y,z
2 1/2-x,1/2+y,1/2-z
3 -x,-y,-z
4 1/2+x,1/2-y,1/2+z
_cell_length_a                   14.4274(7)
_cell_length_b                   13.8870(6)
_cell_length_c                   16.6402(9)
_cell_angle_alpha                90
_cell_angle_beta                 109.066(6)
_cell_angle_gamma                90
_cell_volume                     3151.03
_exptl_crystal_colour            colorless
_exptl_crystal_description       block
_cell_formula_units_Z            4
loop_
_atom_site_label
_atom_site_type_symbol
_atom_site_fract_x
_atom_site_fract_y
_atom_site_fract_z
I1 I 0.04749(5) 0.40136(5) 0.09586(5)
I2 I -0.07216(5) 0.37893(5) 0.43096(5)
Br1 Br 0.38509(8) -0.14243(11) 0.64270(9)
Br2 Br -0.37370(9) -0.11086(11) -0.17612(8)
O1 O 0.1160(3) 0.1275(3) 0.2223(3)
O2 O 0.1200(3) 0.1821(3) 0.3553(3)
O3 O -0.1319(3) 0.1167(3) 0.2850(3)
O4 O -0.1369(3) 0.1845(3) 0.1561(3)
C1 C 0.0724(4) 0.2016(6) 0.1670(4)
C2 C 0.1135(5) 0.2888(5) 0.1784(5)
C3 C 0.2094(5) 0.3050(5) 0.2431(5)
C4 C 0.2698(6) 0.3831(5) 0.2451(6)
H1 H 0.2469 0.4335 0.2069
C5 C 0.3632(6) 0.3873(6) 0.3027(6)
H2 H 0.4024 0.4406 0.3034
C6 C 0.3983(5) 0.3143(7) 0.3583(5)
H3 H 0.4625 0.3166 0.3954
C7 C 0.3390(5) 0.2363(5) 0.3604(5)
H4 H 0.3628 0.1868 0.3994
C8 C 0.2446(5) 0.2330(5) 0.3041(4)
C9 C 0.1770(5) 0.1536(5) 0.3057(4)
H5 H 0.2160 0.0973 0.3323
C10 C 0.0733(4) 0.1023(5) 0.3822(4)
H6 H 0.0417 0.0612 0.3330
C11 C 0.1472(5) 0.0433(5) 0.4494(5)
C12 C 0.1541(5) -0.0546(6) 0.4369(6)
H7 H 0.1112 -0.0834 0.3886
C13 C 0.2237(6) -0.1103(6) 0.4953(7)
H8 H 0.2282 -0.1760 0.4862
C14 C 0.2847(6) -0.0684(8) 0.5653(6)
C15 C 0.2797(6) 0.0283(9) 0.5811(5)
H9 H 0.3217 0.0556 0.6307
C16 C 0.2108(6) 0.0849(7) 0.5217(5)
H10 H 0.2077 0.1507 0.5308
C17 C -0.0059(5) 0.1457(6) 0.4144(4)
H11 H -0.0296 0.0962 0.4440
H12 H 0.0232 0.1963 0.4550
C18 C -0.0906(5) 0.1862(6) 0.3452(4)
C19 C -0.1329(5) 0.2729(5) 0.3399(5)
C20 C -0.2282(5) 0.2920(5) 0.2758(5)
C21 C -0.2929(6) 0.3666(5) 0.2794(6)
H13 H -0.2733 0.4133 0.3217
C22 C -0.3856(6) 0.3702(6) 0.2200(6)
H14 H -0.4267 0.4213 0.2214
C23 C -0.4185(6) 0.3007(7) 0.1591(5)
H15 H -0.4827 0.3026 0.1221
C24 C -0.3564(5) 0.2279(6) 0.1528(5)
H16 H -0.3773 0.1814 0.1105
C25 C -0.2623(5) 0.2252(5) 0.2106(5)
C26 C -0.1939(5) 0.1474(5) 0.2035(4)
H17 H -0.2321 0.0924 0.1732
C27 C -0.0890(5) 0.1115(5) 0.1229(4)
H18 H -0.0568 0.0657 0.1683
C28 C -0.1605(4) 0.0586(5) 0.0505(4)
C29 C -0.2395(5) 0.1033(6) -0.0073(5)
H19 H -0.2501 0.1684 -0.0002
C30 C -0.3033(5) 0.0552(8) -0.0751(5)
H20 H -0.3563 0.0865 -0.1137
C31 C -0.2857(6) -0.0418(8) -0.0838(5)
C32 C -0.2075(6) -0.0872(6) -0.0302(6)
H21 H -0.1953 -0.1513 -0.0395
C33 C -0.1456(5) -0.0384(6) 0.0384(5)
H22 H -0.0934 -0.0707 0.0770
C34 C -0.0110(5) 0.1638(6) 0.0952(4)
H23 H 0.0144 0.1197 0.0622
H24 H -0.0418 0.2170 0.0584
loop_
_geom_bond_atom_site_label_1
_geom_bond_atom_site_label_2
_geom_bond_site_symmetry_1
_geom_bond_site_symmetry_2
I1 C2 1_555 1_555
I2 C19 1_555 1_555
Br1 C14 1_555 1_555
Br2 C31 1_555 1_555
O1 C1 1_555 1_555
O2 C9 1_555 1_555
O3 C18 1_555 1_555
O4 C26 1_555 1_555
C1 C2 1_555 1_555
C2 C3 1_555 1_555
C3 C4 1_555 1_555
C4 H1 1_555 1_555
C5 C4 1_555 1_555
H2 C5 1_555 1_555
C6 C5 1_555 1_555
H3 C6 1_555 1_555
C7 C6 1_555 1_555
H4 C7 1_555 1_555
C8 C3 1_555 1_555
C9 O1 1_555 1_555
H5 C9 1_555 1_555
C10 O2 1_555 1_555
H6 C10 1_555 1_555
C11 C10 1_555 1_555
C12 C11 1_555 1_555
H7 C12 1_555 1_555
C13 C12 1_555 1_555
H8 C13 1_555 1_555
C14 C13 1_555 1_555
C15 C14 1_555 1_555
H9 C15 1_555 1_555
C16 C11 1_555 1_555
H10 C16 1_555 1_555
C17 C10 1_555 1_555
H11 C17 1_555 1_555
H12 C17 1_555 1_555
C18 C17 1_555 1_555
C19 C18 1_555 1_555
C20 C19 1_555 1_555
C21 C20 1_555 1_555
H13 C21 1_555 1_555
C22 C21 1_555 1_555
H14 C22 1_555 1_555
C23 C22 1_555 1_555
H15 C23 1_555 1_555
C24 C23 1_555 1_555
H16 C24 1_555 1_555
C25 C20 1_555 1_555
C26 O3 1_555 1_555
H17 C26 1_555 1_555
C27 O4 1_555 1_555
H18 C27 1_555 1_555
C28 C27 1_555 1_555
C29 C28 1_555 1_555
H19 C29 1_555 1_555
C30 C29 1_555 1_555
H20 C30 1_555 1_555
C31 C30 1_555 1_555
C32 C31 1_555 1_555
H21 C32 1_555 1_555
C33 C28 1_555 1_555
H22 C33 1_555 1_555
C34 C1 1_555 1_555
H23 C34 1_555 1_555
H24 C34 1_555 1_555
C7 C8 1_555 1_555
C8 C9 1_555 1_555
C15 C16 1_555 1_555
C24 C25 1_555 1_555
C25 C26 1_555 1_555
C27 C34 1_555 1_555
C32 C33 1_555 1_555

#END
