
#######################################################################
#
#                 Cambridge Crystallographic Data Centre
#                                CCDC 
#
#######################################################################
#
# If this CIF has been generated from an entry in the Cambridge 
# Structural Database, then it will include bibliographic, chemical, 
# crystal, experimental, refinement or atomic coordinate data resulting 
# from the CCDC's data processing and validation procedures.
#
#######################################################################

data_REMQAE
_chemical_formula_moiety         'C11 H10 N2 O1'
_chemical_name_systematic        
(3-phenyl-4,5-dihydro-1,2-oxazol-5-yl)acetonitrile
_symmetry_cell_setting           orthorhombic
_symmetry_space_group_name_H-M   'P 21 21 21'
_symmetry_Int_Tables_number      19
_space_group_name_Hall           'P 2ac 2ab'
loop_
_symmetry_equiv_pos_site_id
_symmetry_equiv_pos_as_xyz
1 x,y,z
2 1/2+x,1/2-y,-z
3 -x,1/2+y,1/2-z
4 1/2-x,-y,1/2+z
_cell_length_a                   5.608(2)
_cell_length_b                   8.703(3)
_cell_length_c                   20.091(7)
_cell_angle_alpha                90
_cell_angle_beta                 90
_cell_angle_gamma                90
_cell_volume                     980.57
_exptl_crystal_colour            colorless
_exptl_crystal_description       block
_cell_formula_units_Z            4
loop_
_atom_site_label
_atom_site_type_symbol
_atom_site_fract_x
_atom_site_fract_y
_atom_site_fract_z
C1 C 0.6880(4) 0.6886(2) 0.22696(11)
C2 C 0.8902(5) 0.7778(3) 0.23757(13)
H1 H 0.9499 0.8387 0.2034
C3 C 1.0020(5) 0.7764(3) 0.29848(15)
H2 H 1.1385 0.8352 0.3051
C4 C 0.9136(6) 0.6892(3) 0.34914(15)
H3 H 0.9896 0.6893 0.3903
C5 C 0.7168(6) 0.6029(3) 0.34002(14)
H4 H 0.6575 0.5441 0.3750
C6 C 0.6025(5) 0.6010(3) 0.27901(12)
H5 H 0.4675 0.5404 0.2730
C7 C 0.5663(4) 0.6872(3) 0.16238(12)
C8 C 0.3645(5) 0.5853(3) 0.14387(11)
H6 H 0.2262 0.6041 0.1717
H7 H 0.4088 0.4778 0.1471
C9 C 0.3176(5) 0.6312(3) 0.07253(13)
H8 H 0.1544 0.6705 0.0686
C10 C 0.3575(4) 0.5083(3) 0.02074(12)
H9 H 0.2364 0.4294 0.0255
H10 H 0.3413 0.5530 -0.0233
C11 C 0.5899(5) 0.4393(3) 0.02687(12)
N1 N 0.6313(5) 0.7776(2) 0.11617(11)
N2 N 0.7724(5) 0.3862(3) 0.03275(13)
O1 O 0.4861(5) 0.7561(2) 0.06012(9)
loop_
_geom_bond_atom_site_label_1
_geom_bond_atom_site_label_2
_geom_bond_site_symmetry_1
_geom_bond_site_symmetry_2
C1 C2 1_555 1_555
C2 H1 1_555 1_555
C3 C2 1_555 1_555
H2 C3 1_555 1_555
C4 C3 1_555 1_555
H3 C4 1_555 1_555
C5 C4 1_555 1_555
H4 C5 1_555 1_555
C6 C1 1_555 1_555
H5 C6 1_555 1_555
C7 C1 1_555 1_555
C8 C7 1_555 1_555
H6 C8 1_555 1_555
H7 C8 1_555 1_555
C9 C8 1_555 1_555
H8 C9 1_555 1_555
C10 C9 1_555 1_555
H9 C10 1_555 1_555
H10 C10 1_555 1_555
C11 C10 1_555 1_555
N1 C7 1_555 1_555
N2 C11 1_555 1_555
O1 C9 1_555 1_555
C5 C6 1_555 1_555
N1 O1 1_555 1_555

#END
