
#######################################################################
#
#                 Cambridge Crystallographic Data Centre
#                                CCDC 
#
#######################################################################
#
# If this CIF has been generated from an entry in the Cambridge 
# Structural Database, then it will include bibliographic, chemical, 
# crystal, experimental, refinement or atomic coordinate data resulting 
# from the CCDC's data processing and validation procedures.
#
#######################################################################

data_REMROT
_chemical_formula_moiety         'C16 H15 N1 O5 S1'
_chemical_name_systematic        
1-{3-[(4-methoxyphenyl)sulfonyl]prop-1-en-2-yl}-2-nitrobenzene
_symmetry_cell_setting           monoclinic
_symmetry_space_group_name_H-M   'P 21/c'
_symmetry_Int_Tables_number      14
_space_group_name_Hall           '-P 2ybc'
loop_
_symmetry_equiv_pos_site_id
_symmetry_equiv_pos_as_xyz
1 x,y,z
2 -x,1/2+y,1/2-z
3 -x,-y,-z
4 x,1/2-y,1/2+z
_cell_length_a                   10.958(3)
_cell_length_b                   7.579(2)
_cell_length_c                   18.911(5)
_cell_angle_alpha                90
_cell_angle_beta                 106.133(5)
_cell_angle_gamma                90
_cell_volume                     1508.72
_exptl_crystal_colour            colorless
_cell_formula_units_Z            4
loop_
_atom_site_label
_atom_site_type_symbol
_atom_site_fract_x
_atom_site_fract_y
_atom_site_fract_z
S1 S 0.71729(10) 0.6068(2) 0.23787(6)
O1 O 1.1158(3) 0.5598(7) 0.08551(18)
O2 O 0.7581(3) 0.7223(6) 0.30105(16)
O3 O 0.6740(3) 0.4344(6) 0.24849(19)
O4 O 0.5042(5) 0.6286(7) -0.0593(2)
O5 O 0.4352(3) 0.7705(7) 0.02048(19)
C1 C 1.2417(4) 0.6223(10) 0.1186(3)
H1 H 1.2400 0.7506 0.1248
H2 H 1.2959 0.5931 0.0868
H3 H 1.2756 0.5663 0.1667
C2 C 1.0304(4) 0.5741(10) 0.1254(2)
C3 C 0.9146(5) 0.4894(9) 0.0951(2)
H4 H 0.9012 0.4267 0.0501
C4 C 0.8190(4) 0.4956(9) 0.1299(2)
H5 H 0.7407 0.4361 0.1099
C5 C 0.8404(4) 0.5914(8) 0.1951(2)
C6 C 0.5871(4) 0.7090(9) 0.1709(2)
H6 H 0.5602 0.6302 0.1275
H7 H 0.5146 0.7201 0.1922
C7 C 0.6156(4) 0.8864(9) 0.1455(2)
C8 C 0.6813(4) 0.9020(8) 0.0862(2)
C9 C 0.6398(4) 0.8250(9) 0.0158(2)
C10 C 0.8163(6) 0.9385(15) -0.0193(3)
H8 H 0.8618 0.9538 -0.0549
C11 C 1.0517(4) 0.6688(9) 0.1909(2)
H9 H 1.1306 0.7262 0.2117
C12 C 0.9540(4) 0.6772(9) 0.2254(2)
H10 H 0.9660 0.7423 0.2697
C13 C 0.5896(5) 1.0316(10) 0.1782(3)
H11 H 0.5527 1.0225 0.2179
H12 H 0.6080 1.1444 0.1618
C14 C 0.7945(5) 0.9945(11) 0.1019(3)
H13 H 0.8274 1.0452 0.1493
C15 C 0.8611(5) 1.0150(12) 0.0495(4)
H14 H 0.9375 1.0816 0.0611
C16 C 0.7074(6) 0.8415(11) -0.0363(3)
H15 H 0.6652 0.7678 -0.0936
N1 N 0.5190(4) 0.7353(8) -0.0089(2)
loop_
_geom_bond_atom_site_label_1
_geom_bond_atom_site_label_2
_geom_bond_site_symmetry_1
_geom_bond_site_symmetry_2
S1 O2 1_555 1_555
O1 C1 1_555 1_555
O3 S1 1_555 1_555
O4 N1 1_555 1_555
O5 N1 1_555 1_555
C1 H1 1_555 1_555
H2 C1 1_555 1_555
H3 C1 1_555 1_555
C2 O1 1_555 1_555
C3 C2 1_555 1_555
H4 C3 1_555 1_555
C4 C3 1_555 1_555
H5 C4 1_555 1_555
C5 S1 1_555 1_555
C6 S1 1_555 1_555
H6 C6 1_555 1_555
H7 C6 1_555 1_555
C7 C6 1_555 1_555
C8 C7 1_555 1_555
C9 C8 1_555 1_555
C10 H8 1_555 1_555
C11 C2 1_555 1_555
H9 C11 1_555 1_555
C12 C5 1_555 1_555
H10 C12 1_555 1_555
C13 C7 1_555 1_555
H11 C13 1_555 1_555
H12 C13 1_555 1_555
C14 C8 1_555 1_555
H13 C14 1_555 1_555
C15 C10 1_555 1_555
H14 C15 1_555 1_555
C16 C9 1_555 1_555
H15 C16 1_555 1_555
N1 C9 1_555 1_555
C4 C5 1_555 1_555
C10 C16 1_555 1_555
C11 C12 1_555 1_555
C14 C15 1_555 1_555

#END
