
#######################################################################
#
#                 Cambridge Crystallographic Data Centre
#                                CCDC 
#
#######################################################################
#
# If this CIF has been generated from an entry in the Cambridge 
# Structural Database, then it will include bibliographic, chemical, 
# crystal, experimental, refinement or atomic coordinate data resulting 
# from the CCDC's data processing and validation procedures.
#
#######################################################################

data_REMRAF
_chemical_formula_moiety         'C10 H11 N1 O4 S1'
_chemical_name_systematic        
1-[3-(methylsulfonyl)prop-1-en-2-yl]-2-nitrobenzene
_symmetry_cell_setting           triclinic
_symmetry_space_group_name_H-M   'P -1'
_symmetry_Int_Tables_number      2
_space_group_name_Hall           '-P 1'
loop_
_symmetry_equiv_pos_site_id
_symmetry_equiv_pos_as_xyz
1 x,y,z
2 -x,-y,-z
_cell_length_a                   7.1934(7)
_cell_length_b                   7.9479(7)
_cell_length_c                   9.7888(9)
_cell_angle_alpha                80.149(2)
_cell_angle_beta                 78.645(2)
_cell_angle_gamma                89.534(2)
_cell_volume                     540.416
_exptl_crystal_colour            colorless
_cell_formula_units_Z            2
loop_
_atom_site_label
_atom_site_type_symbol
_atom_site_fract_x
_atom_site_fract_y
_atom_site_fract_z
C1 C 0.24237(18) 0.05251(16) 0.05788(14)
H1 H 0.3190 0.0145 0.1293
H2 H 0.3262 0.0901 -0.0341
H3 H 0.1600 -0.0422 0.0514
C2 C 0.26744(17) 0.38924(15) 0.10833(13)
H4 H 0.3520 0.4165 0.0141
H5 H 0.1971 0.4933 0.1265
C3 C 0.38659(17) 0.34065(15) 0.21926(13)
C4 C 0.55006(18) 0.26306(17) 0.18949(14)
H6 H 0.6190 0.2256 0.2620
H7 H 0.5980 0.2450 0.0957
C5 C 0.31030(17) 0.36951(16) 0.36672(13)
C6 C 0.25564(19) 0.22644(17) 0.47149(14)
H8 H 0.2657 0.1160 0.4464
C7 C 0.1869(2) 0.24180(19) 0.61166(14)
H9 H 0.1516 0.1422 0.6809
C8 C 0.16954(19) 0.40147(19) 0.65098(14)
H10 H 0.1222 0.4113 0.7469
C9 C 0.22123(18) 0.54641(18) 0.55034(14)
H11 H 0.2087 0.6565 0.5761
C10 C 0.29179(17) 0.52871(16) 0.41099(13)
N1 N 0.35552(15) 0.68758(14) 0.31194(11)
O1 O 0.00058(13) 0.28308(11) -0.00551(10)
O2 O -0.00774(13) 0.17112(12) 0.24712(10)
O3 O 0.42066(14) 0.68020(12) 0.18721(10)
O4 O 0.34502(18) 0.82228(13) 0.35732(11)
S1 S 0.10231(4) 0.22338(4) 0.10636(3)
loop_
_geom_bond_atom_site_label_1
_geom_bond_atom_site_label_2
_geom_bond_site_symmetry_1
_geom_bond_site_symmetry_2
C1 H1 1_555 1_555
H2 C1 1_555 1_555
H3 C1 1_555 1_555
C2 H4 1_555 1_555
H5 C2 1_555 1_555
C3 C2 1_555 1_555
C4 C3 1_555 1_555
H6 C4 1_555 1_555
H7 C4 1_555 1_555
C5 C3 1_555 1_555
C6 C5 1_555 1_555
H8 C6 1_555 1_555
C7 C6 1_555 1_555
H9 C7 1_555 1_555
C8 C7 1_555 1_555
H10 C8 1_555 1_555
C9 C8 1_555 1_555
H11 C9 1_555 1_555
C10 C5 1_555 1_555
N1 C10 1_555 1_555
O1 S1 1_555 1_555
O2 S1 1_555 1_555
O3 N1 1_555 1_555
O4 N1 1_555 1_555
S1 C1 1_555 1_555
C2 S1 1_555 1_555
C9 C10 1_555 1_555

#END
