
#######################################################################
#
#                 Cambridge Crystallographic Data Centre
#                                CCDC 
#
#######################################################################
#
# If this CIF has been generated from an entry in the Cambridge 
# Structural Database, then it will include bibliographic, chemical, 
# crystal, experimental, refinement or atomic coordinate data resulting 
# from the CCDC's data processing and validation procedures.
#
#######################################################################

data_REMSIO
_chemical_formula_moiety         'C15 H16 O3 S1'
_chemical_name_systematic        
2-[(4-methylphenyl)sulfonyl]-1-phenylethan-1-ol
_symmetry_cell_setting           monoclinic
_symmetry_space_group_name_H-M   'P 21'
_symmetry_Int_Tables_number      4
_space_group_name_Hall           'P 2yb'
loop_
_symmetry_equiv_pos_site_id
_symmetry_equiv_pos_as_xyz
1 x,y,z
2 -x,1/2+y,-z
_cell_length_a                   7.3223(13)
_cell_length_b                   5.9112(9)
_cell_length_c                   16.224(5)
_cell_angle_alpha                90
_cell_angle_beta                 93.79(2)
_cell_angle_gamma                90
_cell_volume                     700.697
_exptl_crystal_colour            colorless
_exptl_crystal_description       needle
_cell_formula_units_Z            2
loop_
_atom_site_label
_atom_site_type_symbol
_atom_site_fract_x
_atom_site_fract_y
_atom_site_fract_z
S1 S 0.1784(8) 0.3270(9) 0.2387(3)
O1 O 0.596(2) 0.206(2) 0.2353(9)
O2 O 0.226(2) 0.562(2) 0.2592(10)
O3 O -0.0008(16) 0.237(3) 0.2519(9)
C1 C 0.646(3) 0.148(3) 0.4562(14)
H1 H 0.588134 0.280819 0.470921
C2 C 0.752(3) 0.030(3) 0.5122(13)
H2 H 0.771302 0.089590 0.565125
C3 C 0.833(2) -0.175(4) 0.4952(12)
H3 H 0.900308 -0.256234 0.535934
C4 C 0.810(3) -0.252(4) 0.4154(14)
H4 H 0.870673 -0.382699 0.400604
C5 C 0.697(2) -0.139(3) 0.3557(12)
H5 H 0.670669 -0.200117 0.303519
C6 C 0.627(3) 0.067(3) 0.3773(14)
C7 C 0.515(3) 0.219(4) 0.3136(14)
H6 H 0.508947 0.375317 0.332936
C8 C 0.329(2) 0.122(3) 0.2979(12)
H7 H 0.277808 0.087757 0.350039
H8 H 0.336404 -0.017213 0.266840
C9 C 0.216(2) 0.286(4) 0.1332(11)
C10 C 0.290(2) 0.448(3) 0.0882(13)
H9 H 0.328473 0.582398 0.113534
C11 C 0.310(3) 0.419(3) 0.0060(15)
H10 H 0.366961 0.531878 -0.022870
C12 C 0.249(3) 0.229(4) -0.0356(13)
C13 C 0.176(2) 0.059(3) 0.0115(14)
H11 H 0.140370 -0.075291 -0.014548
C14 C 0.154(3) 0.080(3) 0.0938(13)
H12 H 0.100747 -0.034387 0.123284
C15 C 0.257(3) 0.194(4) -0.1271(11)
H13 H 0.267981 0.035029 -0.138402
H14 H 0.361171 0.272202 -0.146018
H15 H 0.147357 0.251359 -0.155163
H16 H 0.752(8) 0.23(2) 0.243(7)
loop_
_geom_bond_atom_site_label_1
_geom_bond_atom_site_label_2
_geom_bond_site_symmetry_1
_geom_bond_site_symmetry_2
S1 O2 1_555 1_555
O1 C7 1_555 1_555
O3 S1 1_555 1_555
C1 H1 1_555 1_555
C2 C1 1_555 1_555
H2 C2 1_555 1_555
C3 C2 1_555 1_555
H3 C3 1_555 1_555
C4 C3 1_555 1_555
H4 C4 1_555 1_555
C5 C4 1_555 1_555
H5 C5 1_555 1_555
C6 C1 1_555 1_555
C7 C6 1_555 1_555
H6 C7 1_555 1_555
C8 S1 1_555 1_555
H7 C8 1_555 1_555
H8 C8 1_555 1_555
C9 S1 1_555 1_555
C10 C9 1_555 1_555
H9 C10 1_555 1_555
C11 C10 1_555 1_555
H10 C11 1_555 1_555
C12 C11 1_555 1_555
C13 C12 1_555 1_555
H11 C13 1_555 1_555
C14 C9 1_555 1_555
H12 C14 1_555 1_555
C15 C12 1_555 1_555
H13 C15 1_555 1_555
H14 C15 1_555 1_555
H15 C15 1_555 1_555
H16 O1 1_555 1_555
C5 C6 1_555 1_555
C7 C8 1_555 1_555
C13 C14 1_555 1_555

#END
