
#######################################################################
#
#                 Cambridge Crystallographic Data Centre
#                                CCDC 
#
#######################################################################
#
# If this CIF has been generated from an entry in the Cambridge 
# Structural Database, then it will include bibliographic, chemical, 
# crystal, experimental, refinement or atomic coordinate data resulting 
# from the CCDC's data processing and validation procedures.
#
#######################################################################

data_REMTIO
_chemical_formula_moiety         'C23 H16 O2'
_chemical_name_systematic        
Phenyl(3-phenyl-2-(phenylethynyl)oxiran-2-yl)methanone
_symmetry_cell_setting           monoclinic
_symmetry_space_group_name_H-M   'C c'
_symmetry_Int_Tables_number      9
_space_group_name_Hall           'C -2yc'
loop_
_symmetry_equiv_pos_site_id
_symmetry_equiv_pos_as_xyz
1 x,y,z
2 x,-y,1/2+z
3 1/2+x,1/2+y,z
4 1/2+x,1/2-y,1/2+z
_cell_length_a                   11.267(4)
_cell_length_b                   18.824(7)
_cell_length_c                   9.835(3)
_cell_angle_alpha                90
_cell_angle_beta                 122.42(2)
_cell_angle_gamma                90
_cell_volume                     1760.8
_exptl_crystal_colour            colorless
_exptl_crystal_description       block
_cell_formula_units_Z            4
loop_
_atom_site_label
_atom_site_type_symbol
_atom_site_fract_x
_atom_site_fract_y
_atom_site_fract_z
O1 O 0.5475(4) 0.32416(14) 0.9227(4)
O2 O 0.4854(3) 0.22674(14) 1.0801(3)
C1 C 0.3134(4) 0.12654(18) 0.9618(4)
C2 C 0.3888(5) 0.0879(2) 1.1042(5)
H1 H 0.4733 0.1055 1.1899
C3 C 0.3375(5) 0.0230(2) 1.1180(5)
H2 H 0.3879 -0.0023 1.2139
C4 C 0.2156(5) -0.0043(2) 0.9945(6)
H3 H 0.1827 -0.0479 1.0050
C5 C 0.1414(5) 0.0337(2) 0.8532(5)
H4 H 0.0581 0.0152 0.7673
C6 C 0.1889(4) 0.0988(2) 0.8373(5)
H5 H 0.1366 0.1242 0.7417
C7 C 0.4730(4) 0.25478(19) 0.6886(5)
C8 C 0.4077(5) 0.1935(2) 0.6058(5)
H6 H 0.3863 0.1582 0.6554
C9 C 0.3735(6) 0.1840(3) 0.4477(6)
H7 H 0.3305 0.1423 0.3922
C10 C 0.4038(7) 0.2366(4) 0.3760(7)
H8 H 0.3798 0.2308 0.2702
C11 C 0.4679(6) 0.2968(4) 0.4549(8)
H9 H 0.4891 0.3315 0.4040
C12 C 0.5031(5) 0.3077(2) 0.6142(6)
H10 H 0.5458 0.3497 0.6682
C13 C 0.6996(4) 0.02059(19) 0.9929(4)
C14 C 0.7944(4) 0.0109(2) 0.9456(5)
H11 H 0.8225 0.0495 0.9105
C15 C 0.8467(5) -0.0549(3) 0.9503(6)
H12 H 0.9082 -0.0612 0.9157
C16 C 0.8089(5) -0.1119(3) 1.0060(6)
H13 H 0.8471 -0.1564 1.0120
C17 C 0.7160(5) -0.1034(2) 1.0522(6)
H14 H 0.6898 -0.1423 1.0886
C18 C 0.6605(5) -0.0377(2) 1.0455(5)
H15 H 0.5962 -0.0323 1.0765
C19 C 0.3622(4) 0.19635(18) 0.9413(4)
H16 H 0.2877 0.2302 0.8726
C20 C 0.4965(4) 0.20504(18) 0.9461(4)
C21 C 0.5092(4) 0.26677(18) 0.8573(5)
C22 C 0.5800(4) 0.14300(19) 0.9711(4)
C23 C 0.6392(4) 0.0882(2) 0.9829(4)
loop_
_geom_bond_atom_site_label_1
_geom_bond_atom_site_label_2
_geom_bond_site_symmetry_1
_geom_bond_site_symmetry_2
O1 C21 1_555 1_555
O2 C19 1_555 1_555
C1 C2 1_555 1_555
C2 H1 1_555 1_555
C3 C2 1_555 1_555
H2 C3 1_555 1_555
C4 C3 1_555 1_555
H3 C4 1_555 1_555
C5 C4 1_555 1_555
H4 C5 1_555 1_555
C6 C1 1_555 1_555
H5 C6 1_555 1_555
C7 C8 1_555 1_555
C8 H6 1_555 1_555
C9 C8 1_555 1_555
H7 C9 1_555 1_555
C10 C9 1_555 1_555
H8 C10 1_555 1_555
C11 C10 1_555 1_555
H9 C11 1_555 1_555
C12 C7 1_555 1_555
H10 C12 1_555 1_555
C13 C14 1_555 1_555
C14 H11 1_555 1_555
C15 C14 1_555 1_555
H12 C15 1_555 1_555
C16 C15 1_555 1_555
H13 C16 1_555 1_555
C17 C16 1_555 1_555
H14 C17 1_555 1_555
C18 C13 1_555 1_555
H15 C18 1_555 1_555
C19 C1 1_555 1_555
H16 C19 1_555 1_555
C20 O2 1_555 1_555
C21 C7 1_555 1_555
C22 C20 1_555 1_555
C23 C13 1_555 1_555
C5 C6 1_555 1_555
C11 C12 1_555 1_555
C17 C18 1_555 1_555
C19 C20 1_555 1_555
C20 C21 1_555 1_555
C22 C23 1_555 1_555

#END
