
#######################################################################
#
#                 Cambridge Crystallographic Data Centre
#                                CCDC 
#
#######################################################################
#
# If this CIF has been generated from an entry in the Cambridge 
# Structural Database, then it will include bibliographic, chemical, 
# crystal, experimental, refinement or atomic coordinate data resulting 
# from the CCDC's data processing and validation procedures.
#
#######################################################################

data_REMTUB
_chemical_formula_moiety         'C26 H23 N1 O5'
_chemical_name_systematic        
3-(benzyloxy)-5,5-dimethyl-3''-phenyl-4H-dispiro[1,3-oxazolidine-2,3'-[1]benzofuran-2',2''-oxiran]-4-one
_symmetry_cell_setting           triclinic
_symmetry_space_group_name_H-M   'P -1'
_symmetry_Int_Tables_number      2
_space_group_name_Hall           '-P 1'
loop_
_symmetry_equiv_pos_site_id
_symmetry_equiv_pos_as_xyz
1 x,y,z
2 -x,-y,-z
_cell_length_a                   11.6822(7)
_cell_length_b                   11.7363(11)
_cell_length_c                   17.1486(12)
_cell_angle_alpha                87.187(6)
_cell_angle_beta                 89.117(5)
_cell_angle_gamma                81.697(6)
_cell_volume                     2323.64
_exptl_crystal_colour            colorless
_exptl_crystal_description       block
_cell_formula_units_Z            4
loop_
_atom_site_label
_atom_site_type_symbol
_atom_site_fract_x
_atom_site_fract_y
_atom_site_fract_z
O1 O 0.59400(13) 0.34711(14) 0.64235(9)
O2 O 0.58254(17) 0.56650(16) 0.56137(11)
O3 O 0.36338(15) 0.55403(14) 0.70357(10)
O4 O 0.32379(17) 0.28017(17) 0.74857(11)
O5 O 0.25211(15) 0.38691(16) 0.63554(13)
N1 N 0.52182(16) 0.44816(17) 0.65869(11)
C1 C 0.7545(3) 0.1364(3) 0.70154(19)
H1 H 0.694518 0.140550 0.738019
C2 C 0.8197(4) 0.0317(4) 0.6888(3)
H2 H 0.803637 -0.034237 0.716713
C3 C 0.9068(4) 0.0242(4) 0.6361(3)
H3 H 0.950773 -0.046865 0.628032
C4 C 0.9308(3) 0.1193(4) 0.5948(2)
H4 H 0.990711 0.113671 0.558251
C5 C 0.8652(2) 0.2256(3) 0.60762(18)
H5 H 0.881548 0.291120 0.579440
C6 C 0.7765(2) 0.2345(2) 0.66144(15)
C7 C 0.7076(2) 0.3486(2) 0.67529(17)
H6 H 0.701156 0.361054 0.730790
H7 H 0.744312 0.409952 0.650101
C8 C 0.5154(2) 0.5457(2) 0.61282(15)
C9 C 0.4099(2) 0.6236(2) 0.64124(16)
C10 C 0.4443(3) 0.7289(2) 0.67705(18)
H8 H 0.377116 0.773424 0.698898
H9 H 0.477787 0.774928 0.637511
H10 H 0.499853 0.705060 0.717452
C11 C 0.3225(3) 0.6528(3) 0.57653(18)
H11 H 0.303298 0.582996 0.556656
H12 H 0.354849 0.696768 0.535258
H13 H 0.253930 0.697332 0.596624
C12 C 0.4225(2) 0.4400(2) 0.70934(15)
C13 C 0.4459(2) 0.4005(2) 0.79172(15)
C14 C 0.5105(2) 0.4408(3) 0.84821(17)
H14 H 0.554107 0.499672 0.835999
C15 C 0.5094(3) 0.3922(3) 0.92334(18)
H15 H 0.554005 0.417010 0.961809
C16 C 0.4419(3) 0.3070(3) 0.94114(19)
H16 H 0.439312 0.277231 0.992316
C17 C 0.3788(3) 0.2651(3) 0.88528(19)
H17 H 0.334705 0.206553 0.897318
C18 C 0.3833(2) 0.3130(2) 0.81065(16)
C19 C 0.3473(2) 0.3505(2) 0.68238(15)
C20 C 0.3487(2) 0.3061(2) 0.60449(15)
H18 H 0.398333 0.342432 0.567155
C21 C 0.3262(2) 0.1913(2) 0.58286(18)
C22 C 0.2568(3) 0.1245(3) 0.6237(2)
H19 H 0.221107 0.150293 0.669721
C23 C 0.2393(4) 0.0182(4) 0.5970(3)
H20 H 0.192993 -0.027127 0.625553
C24 C 0.2898(4) -0.0190(3) 0.5295(3)
H21 H 0.277077 -0.089421 0.511340
C25 C 0.3589(4) 0.0459(3) 0.4883(2)
H22 H 0.393597 0.020172 0.441939
C26 C 0.3771(3) 0.1502(3) 0.5156(2)
H23 H 0.425477 0.193909 0.487466
O6 O 0.04417(13) 0.62636(14) 0.86277(9)
O7 O 0.09159(15) 0.40808(16) 0.94611(11)
O8 O -0.13687(14) 0.42459(14) 0.81249(10)
O9 O -0.23577(16) 0.69888(16) 0.75256(11)
O10 O -0.29014(15) 0.61457(16) 0.87175(12)
N2 N -0.00374(16) 0.52727(16) 0.85135(11)
C27 C 0.1211(3) 0.8317(3) 0.7967(2)
H24 H 0.055055 0.819983 0.770420
C28 C 0.1471(5) 0.9402(4) 0.8003(3)
H25 H 0.099014 1.002031 0.776787
C29 C 0.2429(5) 0.9582(4) 0.8380(3)
H26 H 0.260511 1.032684 0.840515
C30 C 0.3144(4) 0.8681(5) 0.8726(3)
H27 H 0.380955 0.880901 0.897798
C31 C 0.2865(3) 0.7561(3) 0.86962(17)
H28 H 0.333548 0.694156 0.893817
C32 C 0.1899(2) 0.7389(2) 0.83103(15)
C33 C 0.1580(2) 0.6209(2) 0.82631(16)
H29 H 0.155389 0.600279 0.772357
H30 H 0.213611 0.564424 0.853978
C34 C 0.0161(2) 0.4314(2) 0.89734(15)
C35 C -0.0715(2) 0.3564(2) 0.87382(16)
C36 C -0.0120(3) 0.2461(3) 0.8399(2)
H31 H -0.069252 0.202901 0.821627
H32 H 0.033695 0.200832 0.879493
H33 H 0.037107 0.264576 0.797167
C37 C -0.1511(3) 0.3357(3) 0.94236(18)
H34 H -0.183760 0.408271 0.962513
H35 H -0.107715 0.289420 0.982568
H36 H -0.212066 0.296304 0.925304
C38 C -0.1031(2) 0.5354(2) 0.80100(14)
C39 C -0.0815(2) 0.5666(2) 0.71730(14)
C40 C 0.0009(2) 0.5181(3) 0.66494(16)
H37 H 0.054923 0.455117 0.680085
C41 C 0.0005(3) 0.5655(3) 0.59032(19)
H38 H 0.055784 0.535085 0.554447
C42 C -0.0816(3) 0.6585(3) 0.56781(19)
H39 H -0.081428 0.688272 0.516558
C43 C -0.1628(3) 0.7073(3) 0.61938(18)
H40 H -0.217086 0.770276 0.604445
C44 C -0.1606(2) 0.6593(2) 0.69388(16)
C45 C -0.1997(2) 0.6346(2) 0.82184(15)
C46 C -0.2112(2) 0.6932(2) 0.89520(15)
H41 H -0.155244 0.661568 0.935457
C47 C -0.2553(2) 0.8167(2) 0.89960(15)
C48 C -0.3568(2) 0.8688(3) 0.86682(18)
H42 H -0.402556 0.825464 0.840032
C49 C -0.3916(3) 0.9856(3) 0.8734(2)
H43 H -0.460935 1.020018 0.851138
C50 C -0.3257(4) 1.0509(3) 0.9119(2)
H44 H -0.349798 1.129421 0.916209
C51 C -0.2242(4) 1.0002(3) 0.9442(2)
H45 H -0.177805 1.044403 0.969686
C52 C -0.1900(3) 0.8832(3) 0.93903(18)
H46 H -0.121698 0.848773 0.962654
loop_
_geom_bond_atom_site_label_1
_geom_bond_atom_site_label_2
_geom_bond_site_symmetry_1
_geom_bond_site_symmetry_2
O1 N1 1_555 1_555
O2 C8 1_555 1_555
O3 C9 1_555 1_555
O4 C18 1_555 1_555
O5 C19 1_555 1_555
N1 C8 1_555 1_555
C1 H1 1_555 1_555
C2 C1 1_555 1_555
H2 C2 1_555 1_555
C3 C2 1_555 1_555
H3 C3 1_555 1_555
C4 C3 1_555 1_555
H4 C4 1_555 1_555
C5 C4 1_555 1_555
H5 C5 1_555 1_555
C6 C1 1_555 1_555
C7 O1 1_555 1_555
H6 C7 1_555 1_555
H7 C7 1_555 1_555
C8 C9 1_555 1_555
C9 C10 1_555 1_555
C10 H8 1_555 1_555
H9 C10 1_555 1_555
H10 C10 1_555 1_555
C11 C9 1_555 1_555
H11 C11 1_555 1_555
H12 C11 1_555 1_555
H13 C11 1_555 1_555
C12 O3 1_555 1_555
C13 C12 1_555 1_555
C14 C13 1_555 1_555
H14 C14 1_555 1_555
C15 C14 1_555 1_555
H15 C15 1_555 1_555
C16 C15 1_555 1_555
H16 C16 1_555 1_555
C17 C16 1_555 1_555
H17 C17 1_555 1_555
C18 C13 1_555 1_555
C19 O4 1_555 1_555
C20 O5 1_555 1_555
H18 C20 1_555 1_555
C21 C20 1_555 1_555
C22 C21 1_555 1_555
H19 C22 1_555 1_555
C23 C22 1_555 1_555
H20 C23 1_555 1_555
C24 C23 1_555 1_555
H21 C24 1_555 1_555
C25 C24 1_555 1_555
H22 C25 1_555 1_555
C26 C21 1_555 1_555
H23 C26 1_555 1_555
O6 N2 1_555 1_555
O7 C34 1_555 1_555
O8 C35 1_555 1_555
O9 C44 1_555 1_555
O10 C45 1_555 1_555
N2 C34 1_555 1_555
C27 H24 1_555 1_555
C28 C27 1_555 1_555
H25 C28 1_555 1_555
C29 C28 1_555 1_555
H26 C29 1_555 1_555
C30 C29 1_555 1_555
H27 C30 1_555 1_555
C31 C30 1_555 1_555
H28 C31 1_555 1_555
C32 C27 1_555 1_555
C33 O6 1_555 1_555
H29 C33 1_555 1_555
H30 C33 1_555 1_555
C34 C35 1_555 1_555
C35 C36 1_555 1_555
C36 H31 1_555 1_555
H32 C36 1_555 1_555
H33 C36 1_555 1_555
C37 C35 1_555 1_555
H34 C37 1_555 1_555
H35 C37 1_555 1_555
H36 C37 1_555 1_555
C38 O8 1_555 1_555
C39 C38 1_555 1_555
C40 C39 1_555 1_555
H37 C40 1_555 1_555
C41 C40 1_555 1_555
H38 C41 1_555 1_555
C42 C41 1_555 1_555
H39 C42 1_555 1_555
C43 C42 1_555 1_555
H40 C43 1_555 1_555
C44 C39 1_555 1_555
C45 O9 1_555 1_555
C46 O10 1_555 1_555
H41 C46 1_555 1_555
C47 C46 1_555 1_555
C48 C47 1_555 1_555
H42 C48 1_555 1_555
C49 C48 1_555 1_555
H43 C49 1_555 1_555
C50 C49 1_555 1_555
H44 C50 1_555 1_555
C51 C50 1_555 1_555
H45 C51 1_555 1_555
C52 C47 1_555 1_555
H46 C52 1_555 1_555
N1 C12 1_555 1_555
C5 C6 1_555 1_555
C6 C7 1_555 1_555
C12 C19 1_555 1_555
C17 C18 1_555 1_555
C19 C20 1_555 1_555
C25 C26 1_555 1_555
N2 C38 1_555 1_555
C31 C32 1_555 1_555
C32 C33 1_555 1_555
C38 C45 1_555 1_555
C43 C44 1_555 1_555
C45 C46 1_555 1_555
C51 C52 1_555 1_555

#END
