
#######################################################################
#
#                 Cambridge Crystallographic Data Centre
#                                CCDC 
#
#######################################################################
#
# If this CIF has been generated from an entry in the Cambridge 
# Structural Database, then it will include bibliographic, chemical, 
# crystal, experimental, refinement or atomic coordinate data resulting 
# from the CCDC's data processing and validation procedures.
#
#######################################################################

data_REMVEK
_chemical_formula_moiety         'C10 H11 N1 O4'
_chemical_name_systematic        (+)-\a-Methyl-4-carboxyphenylglycine
_chemical_properties_biological  
'metabotropic glutamate receptor antagonist agent'
_symmetry_cell_setting           monoclinic
_symmetry_space_group_name_H-M   'P 21'
_symmetry_Int_Tables_number      4
_space_group_name_Hall           'P 2yb'
loop_
_symmetry_equiv_pos_site_id
_symmetry_equiv_pos_as_xyz
1 x,y,z
2 -x,1/2+y,-z
_cell_length_a                   8.698(3)
_cell_length_b                   5.819(3)
_cell_length_c                   10.032(3)
_cell_angle_alpha                90
_cell_angle_beta                 107.48(3)
_cell_angle_gamma                90
_cell_volume                     484.309
_exptl_crystal_colour            colorless
_cell_formula_units_Z            2
loop_
_atom_site_label
_atom_site_type_symbol
_atom_site_fract_x
_atom_site_fract_y
_atom_site_fract_z
O1 O 0.1227(2) 0.1796(3) -0.0386(2)
O2 O 0.3393(2) 0.0250(3) 0.1166(2)
O3 O 0.1273(2) 0.2095(4) 0.7018(2)
O4 O 0.2371(2) 0.5546(3) 0.7669(2)
N1 N 0.2001(2) 0.6074(3) 0.0410(2)
C1 C 0.2505(3) 0.1900(4) 0.0635(2)
C2 C 0.3002(3) 0.4255(4) 0.1332(2)
C3 C 0.4765(3) 0.4744(4) 0.1446(2)
C4 C 0.2679(3) 0.4273(4) 0.2759(2)
C5 C 0.3237(4) 0.6025(5) 0.3708(3)
C6 C 0.2988(4) 0.5969(5) 0.5019(3)
C7 C 0.2178(3) 0.4140(5) 0.5385(2)
C8 C 0.1576(3) 0.2420(6) 0.4425(3)
C9 C 0.1807(4) 0.2503(5) 0.3120(3)
C10 C 0.1958(3) 0.4031(5) 0.6805(2)
H1 H 0.5085(34) 0.6251(53) 0.1934(29)
H2 H 0.5489(39) 0.3481(59) 0.1960(32)
H3 H 0.4881(31) 0.4714(49) 0.0528(28)
H4 H 0.1484(46) 0.1145(72) 0.2516(40)
H5 H 0.3361(42) 0.7209(74) 0.5687(36)
H6 H 0.0991(45) 0.1151(75) 0.4656(38)
H7 H 0.3830(59) 0.722(10) 0.3498(49)
H8 H 0.2009(36) 0.5823(65) -0.0534(34)
H9 H 0.0885(34) 0.5983(54) 0.0416(28)
H10 H 0.1243(38) 0.2260(65) 0.7898(35)
H11 H 0.2496(42) 0.7539(69) 0.0727(35)
loop_
_geom_bond_atom_site_label_1
_geom_bond_atom_site_label_2
_geom_bond_site_symmetry_1
_geom_bond_site_symmetry_2
O1 C1 1_555 1_555
O2 C1 1_555 1_555
O3 C10 1_555 1_555
O4 C10 1_555 1_555
N1 C2 1_555 1_555
C1 C2 1_555 1_555
C2 C3 1_555 1_555
C3 H1 1_555 1_555
C4 C2 1_555 1_555
C5 C4 1_555 1_555
C6 C5 1_555 1_555
C7 C6 1_555 1_555
C8 C7 1_555 1_555
C9 C4 1_555 1_555
C10 C7 1_555 1_555
H2 C3 1_555 1_555
H3 C3 1_555 1_555
H4 C9 1_555 1_555
H5 C6 1_555 1_555
H6 C8 1_555 1_555
H7 C5 1_555 1_555
H8 N1 1_555 1_555
H9 N1 1_555 1_555
H10 O3 1_555 1_555
H11 N1 1_555 1_555
C8 C9 1_555 1_555

#END
