
#######################################################################
#
#                 Cambridge Crystallographic Data Centre
#                                CCDC 
#
#######################################################################
#
# If this CIF has been generated from an entry in the Cambridge 
# Structural Database, then it will include bibliographic, chemical, 
# crystal, experimental, refinement or atomic coordinate data resulting 
# from the CCDC's data processing and validation procedures.
#
#######################################################################

data_RENBIX
_chemical_formula_moiety         'C19 H19 B1 F2 N4 O1'
_chemical_name_systematic        
1,1-Difluoro-7,9-dimethyl-3-(4-dimethylaminophenyl)-1H-[1,3,5,2]oxadiazaborinino[3,4-a][1,8]naphthyridin-11-ium-1-ide
_symmetry_cell_setting           orthorhombic
_symmetry_space_group_name_H-M   'P n a 21'
_symmetry_Int_Tables_number      33
_space_group_name_Hall           'P 2c -2n'
loop_
_symmetry_equiv_pos_site_id
_symmetry_equiv_pos_as_xyz
1 x,y,z
2 -x,-y,1/2+z
3 1/2+x,1/2-y,z
4 1/2-x,1/2+y,1/2+z
_cell_length_a                   13.339(3)
_cell_length_b                   18.975(4)
_cell_length_c                   6.8571(15)
_cell_angle_alpha                90
_cell_angle_beta                 90
_cell_angle_gamma                90
_cell_volume                     1735.58
_exptl_crystal_colour            colorless
_exptl_crystal_description       prism
_cell_formula_units_Z            4
_exptl_crystal_recrystallization_method 'dichloromethane/diethyl ether'
loop_
_atom_site_label
_atom_site_type_symbol
_atom_site_fract_x
_atom_site_fract_y
_atom_site_fract_z
F1 F 0.64522(7) 0.34551(6) -0.12729(11)
F2 F 0.64769(8) 0.34530(6) 0.20703(12)
B1 B 0.63450(10) 0.38500(7) 0.0381(7)
O1 O 0.71365(6) 0.43893(4) 0.0378(4)
N1 N 0.45621(7) 0.31404(5) 0.0394(5)
N2 N 0.53031(7) 0.42377(5) 0.0385(4)
N3 N 0.60833(7) 0.53675(5) 0.0359(5)
N4 N 1.04591(7) 0.67730(5) 0.0405(6)
C1 C 0.39400(9) 0.19583(6) 0.0417(7)
H1 H 0.4233 0.1821 -0.0837
H2 H 0.3308 0.1705 0.0614
H3 H 0.4407 0.1840 0.1471
C2 C 0.37457(8) 0.27345(6) 0.0423(6)
C3 C 0.27693(9) 0.30089(6) 0.0399(6)
H4 H 0.2213 0.2696 0.0385
C4 C 0.26066(9) 0.37257(6) 0.0395(5)
C5 C 0.34681(8) 0.41664(6) 0.0346(5)
C6 C 0.34441(8) 0.49144(6) 0.0353(5)
H5 H 0.2818 0.5152 0.0338
C7 C 0.43078(8) 0.52931(6) 0.0379(6)
H6 H 0.4279 0.5793 0.0411
C8 C 0.52535(8) 0.49504(6) 0.0361(5)
C9 C 0.44201(8) 0.38406(6) 0.0355(5)
C10 C 0.15659(9) 0.40239(7) 0.0397(6)
H7 H 0.1084 0.3648 0.0681
H8 H 0.1419 0.4227 -0.0886
H9 H 0.1515 0.4391 0.1396
C11 C 0.69814(8) 0.50728(6) 0.0365(5)
C12 C 0.78800(8) 0.55048(6) 0.0380(6)
C13 C 0.78113(9) 0.62372(6) 0.0361(6)
H10 H 0.7167 0.6451 0.0368
C14 C 0.86476(8) 0.66591(6) 0.0331(6)
H11 H 0.8574 0.7156 0.0265
C15 C 0.96238(9) 0.63583(6) 0.0398(5)
C16 C 0.96900(9) 0.56189(6) 0.0423(6)
H12 H 1.0331 0.5401 0.0436
C17 C 0.88390(8) 0.52050(6) 0.0429(6)
H13 H 0.8905 0.4707 0.0466
C18 C 1.14577(9) 0.64607(7) 0.0350(8)
H14 H 1.1590 0.6218 0.1584
H15 H 1.1958 0.6832 0.0156
H16 H 1.1496 0.6123 -0.0728
C19 C 1.03581(10) 0.75406(7) 0.0478(7)
H17 H 1.0071 0.7710 -0.0751
H18 H 1.1019 0.7754 0.0672
H19 H 0.9916 0.7671 0.1561
loop_
_geom_bond_atom_site_label_1
_geom_bond_atom_site_label_2
_geom_bond_site_symmetry_1
_geom_bond_site_symmetry_2
F1 B1 1_555 1_555
F2 B1 1_555 1_555
B1 O1 1_555 1_555
O1 C11 1_555 1_555
N1 C2 1_555 1_555
N2 B1 1_555 1_555
N3 C8 1_555 1_555
N4 C15 1_555 1_555
C1 H1 1_555 1_555
H2 C1 1_555 1_555
H3 C1 1_555 1_555
C2 C1 1_555 1_555
C3 C2 1_555 1_555
H4 C3 1_555 1_555
C4 C3 1_555 1_555
C5 C4 1_555 1_555
C6 C5 1_555 1_555
H5 C6 1_555 1_555
C7 C6 1_555 1_555
H6 C7 1_555 1_555
C8 N2 1_555 1_555
C9 N1 1_555 1_555
C10 C4 1_555 1_555
H7 C10 1_555 1_555
H8 C10 1_555 1_555
H9 C10 1_555 1_555
C11 N3 1_555 1_555
C12 C11 1_555 1_555
C13 C12 1_555 1_555
H10 C13 1_555 1_555
C14 C13 1_555 1_555
H11 C14 1_555 1_555
C15 C14 1_555 1_555
C16 C15 1_555 1_555
H12 C16 1_555 1_555
C17 C12 1_555 1_555
H13 C17 1_555 1_555
C18 N4 1_555 1_555
H14 C18 1_555 1_555
H15 C18 1_555 1_555
H16 C18 1_555 1_555
C19 N4 1_555 1_555
H17 C19 1_555 1_555
H18 C19 1_555 1_555
H19 C19 1_555 1_555
N2 C9 1_555 1_555
C5 C9 1_555 1_555
C7 C8 1_555 1_555
C16 C17 1_555 1_555

#END
