
#######################################################################
#
#                 Cambridge Crystallographic Data Centre
#                                CCDC 
#
#######################################################################
#
# If this CIF has been generated from an entry in the Cambridge 
# Structural Database, then it will include bibliographic, chemical, 
# crystal, experimental, refinement or atomic coordinate data resulting 
# from the CCDC's data processing and validation procedures.
#
#######################################################################

data_RENBOD
_chemical_formula_moiety         'C19 H13 B1 F8 N4 O1'
_chemical_name_systematic        
1,1-Difluoro-7,9-bis(trifluoromethyl)-3-(4-dimethylaminophenyl)-1H-[1,3,5,2]oxadiazaborinino[3,4-a][1,8]naphthyridin-11-ium-1-ide
_symmetry_cell_setting           monoclinic
_symmetry_space_group_name_H-M   'P 21/n'
_symmetry_Int_Tables_number      14
_space_group_name_Hall           '-P 2yn'
loop_
_symmetry_equiv_pos_site_id
_symmetry_equiv_pos_as_xyz
1 x,y,z
2 1/2-x,1/2+y,1/2-z
3 -x,-y,-z
4 1/2+x,1/2-y,1/2+z
_cell_length_a                   10.873(3)
_cell_length_b                   14.773(4)
_cell_length_c                   11.623(3)
_cell_angle_alpha                90
_cell_angle_beta                 92.752(4)
_cell_angle_gamma                90
_cell_volume                     1864.81
_exptl_crystal_colour            colorless
_exptl_crystal_description       prism
_cell_formula_units_Z            4
_exptl_crystal_recrystallization_method 'dichloromethane/diethyl ether'
loop_
_atom_site_label
_atom_site_type_symbol
_atom_site_fract_x
_atom_site_fract_y
_atom_site_fract_z
F1 F 0.66471(9) 0.04748(6) 0.61336(7)
F2 F 0.84454(9) 0.04529(6) 0.54469(8)
F3 F 0.81772(10) 0.11032(6) 0.70733(7)
F4 F 0.74409(10) 0.42518(6) 0.71408(7)
F5 F 0.80586(10) 0.49029(6) 0.56141(8)
F6 F 0.61214(9) 0.47789(6) 0.58727(7)
F7 F 0.70617(9) 0.09002(6) 0.21161(7)
F8 F 0.50961(9) 0.10383(6) 0.26792(7)
O1 O 0.55879(11) 0.15235(7) 0.08687(8)
N1 N 0.69844(12) 0.17617(8) 0.43170(10)
N2 N 0.63050(12) 0.24084(8) 0.25844(10)
N3 N 0.56900(12) 0.30949(9) 0.07937(10)
N4 N 0.39004(15) 0.21583(10) -0.43775(11)
B1 B 0.60213(18) 0.14186(11) 0.20854(15)
C1 C 0.76656(15) 0.09642(10) 0.60191(13)
C2 C 0.73688(14) 0.18485(10) 0.54060(12)
C3 C 0.74674(15) 0.26705(10) 0.60002(13)
H1 H 0.7724 0.2690 0.6793
C4 C 0.71821(14) 0.34449(10) 0.54003(12)
C5 C 0.72147(16) 0.43469(10) 0.60138(13)
C6 C 0.68280(14) 0.33986(10) 0.42189(12)
C7 C 0.65731(15) 0.41663(10) 0.34878(12)
H2 H 0.6647 0.4762 0.3790
C8 C 0.62293(15) 0.40368(10) 0.23745(12)
H3 H 0.6091 0.4547 0.1887
C9 C 0.60677(14) 0.31447(10) 0.19072(12)
C10 C 0.67174(14) 0.25231(9) 0.37284(12)
C11 C 0.54826(14) 0.22932(10) 0.03098(12)
C12 C 0.51065(15) 0.22486(10) -0.08974(12)
C13 C 0.49659(15) 0.30483(11) -0.15528(12)
H4 H 0.5141 0.3616 -0.1199
C14 C 0.45809(15) 0.30191(11) -0.26912(12)
H5 H 0.4495 0.3569 -0.3112
C15 C 0.43083(15) 0.21918(11) -0.32536(13)
C16 C 0.44709(15) 0.13839(11) -0.25959(12)
H6 H 0.4313 0.0813 -0.2950
C17 C 0.48541(15) 0.14220(11) -0.14509(12)
H7 H 0.4950 0.0875 -0.1026
C18 C 0.36547(18) 0.12939(12) -0.49597(13)
H8 H 0.4404 0.0925 -0.4924
H9 H 0.3396 0.1405 -0.5767
H10 H 0.2999 0.0973 -0.4578
C19 C 0.36541(17) 0.29820(12) -0.50439(13)
H11 H 0.3075 0.3364 -0.4643
H12 H 0.3296 0.2822 -0.5807
H13 H 0.4426 0.3313 -0.5129
loop_
_geom_bond_atom_site_label_1
_geom_bond_atom_site_label_2
_geom_bond_site_symmetry_1
_geom_bond_site_symmetry_2
F1 C1 1_555 1_555
F2 C1 1_555 1_555
F3 C1 1_555 1_555
F4 C5 1_555 1_555
F5 C5 1_555 1_555
F6 C5 1_555 1_555
F7 B1 1_555 1_555
F8 B1 1_555 1_555
O1 B1 1_555 1_555
N1 C2 1_555 1_555
N2 B1 1_555 1_555
N3 C9 1_555 1_555
N4 C15 1_555 1_555
C1 C2 1_555 1_555
C2 C3 1_555 1_555
C3 H1 1_555 1_555
C4 C3 1_555 1_555
C5 C4 1_555 1_555
C6 C4 1_555 1_555
C7 C6 1_555 1_555
H2 C7 1_555 1_555
C8 C7 1_555 1_555
H3 C8 1_555 1_555
C9 N2 1_555 1_555
C10 N1 1_555 1_555
C11 O1 1_555 1_555
C12 C11 1_555 1_555
C13 C12 1_555 1_555
H4 C13 1_555 1_555
C14 C13 1_555 1_555
H5 C14 1_555 1_555
C15 C14 1_555 1_555
C16 C15 1_555 1_555
H6 C16 1_555 1_555
C17 C12 1_555 1_555
H7 C17 1_555 1_555
C18 N4 1_555 1_555
H8 C18 1_555 1_555
H9 C18 1_555 1_555
H10 C18 1_555 1_555
C19 N4 1_555 1_555
H11 C19 1_555 1_555
H12 C19 1_555 1_555
H13 C19 1_555 1_555
N2 C10 1_555 1_555
N3 C11 1_555 1_555
C6 C10 1_555 1_555
C8 C9 1_555 1_555
C16 C17 1_555 1_555

#END
