
#######################################################################
#
#                 Cambridge Crystallographic Data Centre
#                                CCDC 
#
#######################################################################
#
# If this CIF has been generated from an entry in the Cambridge 
# Structural Database, then it will include bibliographic, chemical, 
# crystal, experimental, refinement or atomic coordinate data resulting 
# from the CCDC's data processing and validation procedures.
#
#######################################################################

data_RENBOB
_chemical_formula_moiety         'C25 H25 N1 O1'
_chemical_name_systematic        
1,3-Diphenyl-1-imino-2-tricyclo(3.3.1.1^3,7^)dec-2-ylidenepropane-3-one
_symmetry_cell_setting           monoclinic
_symmetry_space_group_name_H-M   'P 21/c'
_symmetry_Int_Tables_number      14
_space_group_name_Hall           '-P 2ybc'
loop_
_symmetry_equiv_pos_site_id
_symmetry_equiv_pos_as_xyz
1 x,y,z
2 -x,1/2+y,1/2-z
3 -x,-y,-z
4 x,1/2-y,1/2+z
_cell_length_a                   10.196(1)
_cell_length_b                   15.478(1)
_cell_length_c                   12.664(3)
_cell_angle_alpha                90
_cell_angle_beta                 106.36(1)
_cell_angle_gamma                90
_cell_volume                     1917.63
_exptl_crystal_colour            'pale yellow'
_chemical_melting_point          428-429K
_cell_formula_units_Z            4
loop_
_atom_site_label
_atom_site_type_symbol
_atom_site_fract_x
_atom_site_fract_y
_atom_site_fract_z
O1 O 0.3343(2) 0.8956(2) 0.0453(2)
N1 N 0.5391(2) 0.7468(2) 0.0490(2)
C1 C 0.5278(2) 0.8498(2) 0.1877(2)
C2 C 0.6100(2) 0.9105(2) 0.2447(2)
C3 C 0.5605(2) 0.9964(2) 0.2762(2)
C4 C 0.6215(3) 1.0110(2) 0.4006(2)
C5 C 0.7782(3) 1.0105(2) 0.4293(2)
C6 C 0.8259(2) 0.9227(2) 0.3992(2)
C7 C 0.7647(2) 0.9066(1) 0.2751(2)
C8 C 0.8125(2) 0.9786(2) 0.2106(2)
C9 C 0.7663(3) 1.0663(2) 0.2418(2)
C10 C 0.8259(3) 1.0817(2) 0.3652(2)
C11 C 0.6105(3) 1.0680(2) 0.2133(2)
C12 C 0.3769(3) 0.8651(2) 0.1392(2)
C13 C 0.5756(2) 0.7677(2) 0.1478(2)
C14 C 0.2784(2) 0.8385(2) 0.1993(2)
C15 C 0.3184(2) 0.8235(2) 0.3111(2)
C16 C 0.2244(3) 0.7981(2) 0.3654(2)
C17 C 0.0906(3) 0.7863(2) 0.3073(3)
C18 C 0.0495(3) 0.8002(2) 0.1957(3)
C19 C 0.1417(3) 0.8272(2) 0.1411(2)
C20 C 0.6656(2) 0.7066(2) 0.2266(2)
C21 C 0.7339(3) 0.6423(2) 0.1869(2)
C22 C 0.8132(3) 0.5829(2) 0.2568(3)
C23 C 0.8258(3) 0.5856(2) 0.3677(3)
C24 C 0.7586(3) 0.6485(2) 0.4081(2)
C25 C 0.6793(3) 0.7088(2) 0.3384(2)
H1 H 0.491 0.793 -0.001
H2 H 0.450 0.997 0.256
H3 H 0.589 0.960 0.445
H4 H 0.588 1.072 0.423
H5 H 0.821 1.022 0.517
H6 H 0.936 0.922 0.419
H7 H 0.792 0.873 0.445
H8 H 0.798 0.844 0.253
H9 H 0.769 0.968 0.123
H10 H 0.923 0.977 0.230
H11 H 0.801 1.117 0.197
H12 H 0.792 1.144 0.387
H13 H 0.936 1.081 0.386
H14 H 0.578 1.130 0.235
H15 H 0.568 1.058 0.126
H16 H 0.415 0.830 0.353
H17 H 0.253 0.789 0.445
H18 H 0.024 0.768 0.345
H19 H -0.046 0.792 0.154
H20 H 0.111 0.838 0.061
H21 H 0.725 0.639 0.108
H22 H 0.862 0.538 0.228
H23 H 0.882 0.542 0.417
H24 H 0.767 0.650 0.487
H25 H 0.632 0.754 0.369
loop_
_geom_bond_atom_site_label_1
_geom_bond_atom_site_label_2
_geom_bond_site_symmetry_1
_geom_bond_site_symmetry_2
O1 C12 1_555 1_555
N1 C13 1_555 1_555
C1 C2 1_555 1_555
C2 C3 1_555 1_555
C3 C4 1_555 1_555
C4 C5 1_555 1_555
C5 C6 1_555 1_555
C6 C7 1_555 1_555
C7 C2 1_555 1_555
C8 C7 1_555 1_555
C9 C8 1_555 1_555
C10 C5 1_555 1_555
C11 C3 1_555 1_555
C12 C1 1_555 1_555
C13 C1 1_555 1_555
C14 C12 1_555 1_555
C15 C14 1_555 1_555
C16 C15 1_555 1_555
C17 C16 1_555 1_555
C18 C17 1_555 1_555
C19 C14 1_555 1_555
C20 C13 1_555 1_555
C21 C20 1_555 1_555
C22 C21 1_555 1_555
C23 C22 1_555 1_555
C24 C23 1_555 1_555
C25 C20 1_555 1_555
H1 N1 1_555 1_555
H2 C3 1_555 1_555
H3 C4 1_555 1_555
H4 C4 1_555 1_555
H5 C5 1_555 1_555
H6 C6 1_555 1_555
H7 C6 1_555 1_555
H8 C7 1_555 1_555
H9 C8 1_555 1_555
H10 C8 1_555 1_555
H11 C9 1_555 1_555
H12 C10 1_555 1_555
H13 C10 1_555 1_555
H14 C11 1_555 1_555
H15 C11 1_555 1_555
H16 C15 1_555 1_555
H17 C16 1_555 1_555
H18 C17 1_555 1_555
H19 C18 1_555 1_555
H20 C19 1_555 1_555
H21 C21 1_555 1_555
H22 C22 1_555 1_555
H23 C23 1_555 1_555
H24 C24 1_555 1_555
H25 C25 1_555 1_555
C9 C10 1_555 1_555
C9 C11 1_555 1_555
C18 C19 1_555 1_555
C24 C25 1_555 1_555

#END
