
#######################################################################
#
#                 Cambridge Crystallographic Data Centre
#                                CCDC 
#
#######################################################################
#
# If this CIF has been generated from an entry in the Cambridge 
# Structural Database, then it will include bibliographic, chemical, 
# crystal, experimental, refinement or atomic coordinate data resulting 
# from the CCDC's data processing and validation procedures.
#
#######################################################################

data_RENFEY
_chemical_formula_moiety         'C15 H12 N4 O2'
_chemical_name_systematic        1-benzyl-5-(4-nitrophenyl)-1H-1,2,3-triazole
_symmetry_cell_setting           monoclinic
_symmetry_space_group_name_H-M   'P 21'
_symmetry_Int_Tables_number      4
_space_group_name_Hall           'P 2yb'
loop_
_symmetry_equiv_pos_site_id
_symmetry_equiv_pos_as_xyz
1 x,y,z
2 -x,1/2+y,-z
_cell_length_a                   6.8000(14)
_cell_length_b                   11.502(2)
_cell_length_c                   8.4630(17)
_cell_angle_alpha                90
_cell_angle_beta                 99.74(3)
_cell_angle_gamma                90
_cell_volume                     652.38
_exptl_crystal_colour            yellow
_exptl_crystal_description       needle
_cell_formula_units_Z            2
loop_
_atom_site_label
_atom_site_type_symbol
_atom_site_fract_x
_atom_site_fract_y
_atom_site_fract_z
O1 O 1.2441(3) 0.3621(2) 0.1258(3)
O2 O 1.0895(4) 0.2375(2) 0.2522(3)
N1 N 0.3939(3) 0.6945(2) 0.3126(3)
N2 N 1.1021(3) 0.3328(2) 0.1885(2)
N3 N 0.1890(3) 0.7603(2) 0.1117(3)
N4 N 0.2318(3) 0.7623(2) 0.2687(3)
C1 C 0.9253(3) 0.5110(2) 0.0881(3)
H1 H 1.0196 0.5231 0.0221
C2 C 0.9375(3) 0.4155(2) 0.1884(3)
C3 C 0.8006(4) 0.3935(2) 0.2886(3)
H2 H 0.8127 0.3282 0.3543
C4 C 0.6455(3) 0.4713(2) 0.2884(3)
H3 H 0.5523 0.4583 0.3553
C5 C 0.1805(4) 0.5704(3) 0.5366(3)
H4 H 0.1008 0.6104 0.4541
C6 C 0.3840(4) 0.5935(2) 0.5719(3)
C7 C 0.4577(3) 0.6490(2) 0.1825(3)
C8 C 0.4155(4) 0.4510(3) 0.7858(3)
H5 H 0.4945 0.4117 0.8694
C9 C 0.6271(3) 0.5691(2) 0.1890(3)
C10 C 0.5015(4) 0.5341(3) 0.6977(3)
H6 H 0.6374 0.5498 0.7230
C11 C 0.7682(4) 0.5885(2) 0.0885(3)
H7 H 0.7567 0.6534 0.0219
C12 C 0.4821(4) 0.6855(2) 0.4822(3)
H8 H 0.4716 0.7603 0.5331
H9 H 0.6228 0.6673 0.4907
C13 C 0.3249(4) 0.6918(3) 0.0545(3)
H10 H 0.3274 0.6765 -0.0530
C14 C 0.2128(4) 0.4271(3) 0.7488(3)
H11 H 0.1559 0.3713 0.8066
C15 C 0.0956(4) 0.4870(3) 0.6248(3)
H12 H -0.0405 0.4717 0.6003
loop_
_geom_bond_atom_site_label_1
_geom_bond_atom_site_label_2
_geom_bond_site_symmetry_1
_geom_bond_site_symmetry_2
O1 N2 1_555 1_555
O2 N2 1_555 1_555
N1 N4 1_555 1_555
N2 C2 1_555 1_555
N3 N4 1_555 1_555
C1 H1 1_555 1_555
C2 C1 1_555 1_555
C3 C2 1_555 1_555
H2 C3 1_555 1_555
C4 C3 1_555 1_555
H3 C4 1_555 1_555
C5 H4 1_555 1_555
C6 C5 1_555 1_555
C7 N1 1_555 1_555
C8 H5 1_555 1_555
C9 C4 1_555 1_555
C10 C6 1_555 1_555
H6 C10 1_555 1_555
C11 C1 1_555 1_555
H7 C11 1_555 1_555
C12 N1 1_555 1_555
H8 C12 1_555 1_555
H9 C12 1_555 1_555
C13 N3 1_555 1_555
H10 C13 1_555 1_555
C14 C8 1_555 1_555
H11 C14 1_555 1_555
C15 C5 1_555 1_555
H12 C15 1_555 1_555
C6 C12 1_555 1_555
C7 C9 1_555 1_555
C7 C13 1_555 1_555
C8 C10 1_555 1_555
C9 C11 1_555 1_555
C14 C15 1_555 1_555

#END
