
#######################################################################
#
#                 Cambridge Crystallographic Data Centre
#                                CCDC 
#
#######################################################################
#
# If this CIF has been generated from an entry in the Cambridge 
# Structural Database, then it will include bibliographic, chemical, 
# crystal, experimental, refinement or atomic coordinate data resulting 
# from the CCDC's data processing and validation procedures.
#
#######################################################################

data_RENHOK
_chemical_formula_moiety         'C13 H13 N5 O1'
_chemical_name_systematic        
2-amino-3-((4-(dimethylamino)-2-hydroxybenzylidene)amino)but-2-enedinitrile
_symmetry_cell_setting           monoclinic
_symmetry_space_group_name_H-M   'P 21/n'
_symmetry_Int_Tables_number      14
_space_group_name_Hall           '-P 2yn'
loop_
_symmetry_equiv_pos_site_id
_symmetry_equiv_pos_as_xyz
1 x,y,z
2 1/2-x,1/2+y,1/2-z
3 -x,-y,-z
4 1/2+x,1/2-y,1/2+z
_cell_length_a                   8.2282(4)
_cell_length_b                   6.9940(3)
_cell_length_c                   22.3201(9)
_cell_angle_alpha                90
_cell_angle_beta                 91.010(4)
_cell_angle_gamma                90
_cell_volume                     1284.28
_exptl_crystal_colour            blue
_exptl_crystal_description       prism
_cell_formula_units_Z            4
_exptl_crystal_recrystallization_method '50% Dichoromethane and 50% Ethanol'
loop_
_atom_site_label
_atom_site_type_symbol
_atom_site_fract_x
_atom_site_fract_y
_atom_site_fract_z
O1 O 0.2538(2) 0.2174(2) 0.52197(6)
H1 H 0.314(3) 0.293(4) 0.5489(11)
N1 N -0.0715(2) 0.2597(3) 0.34496(7)
N2 N 0.38499(18) 0.5431(2) 0.56671(6)
N3 N 0.5023(3) 1.0151(3) 0.59758(10)
N4 N 0.7063(3) 0.7658(3) 0.73417(8)
N5 N 0.5399(2) 0.3748(3) 0.66865(8)
H2 H 0.619(3) 0.330(4) 0.6967(11)
H3 H 0.508(3) 0.304(4) 0.6390(11)
C1 C 0.2171(2) 0.5285(3) 0.47774(8)
C2 C 0.1885(2) 0.3296(3) 0.47862(8)
C3 C 0.0939(2) 0.2421(3) 0.43513(8)
H4 H 0.0770 0.1108 0.4370
C4 C 0.0228(2) 0.3464(3) 0.38821(8)
C5 C 0.0508(3) 0.5452(3) 0.38700(9)
H5 H 0.0053 0.6190 0.3563
C6 C 0.1442(2) 0.6302(3) 0.43055(8)
H6 H 0.1600 0.7617 0.4287
C7 C -0.1354(3) 0.3687(4) 0.29456(9)
H7 H -0.1985 0.4740 0.3090
H8 H -0.2030 0.2878 0.2699
H9 H -0.0470 0.4165 0.2714
C8 C -0.0816(3) 0.0529(3) 0.34221(11)
H10 H 0.0242 0.0009 0.3350
H11 H -0.1548 0.0162 0.3103
H12 H -0.1210 0.0048 0.3795
C9 C 0.3133(2) 0.6266(3) 0.52168(8)
H13 H 0.3252 0.7582 0.5178
C10 C 0.4749(2) 0.6502(3) 0.60802(8)
C11 C 0.5489(2) 0.5643(3) 0.65556(8)
C12 C 0.4912(3) 0.8538(3) 0.60230(9)
C13 C 0.6375(3) 0.6796(3) 0.69865(9)
loop_
_geom_bond_atom_site_label_1
_geom_bond_atom_site_label_2
_geom_bond_site_symmetry_1
_geom_bond_site_symmetry_2
O1 H1 1_555 1_555
N1 C4 1_555 1_555
N2 C9 1_555 1_555
N3 C12 1_555 1_555
N4 C13 1_555 1_555
N5 H2 1_555 1_555
H3 N5 1_555 1_555
C1 C2 1_555 1_555
C2 O1 1_555 1_555
C3 C2 1_555 1_555
H4 C3 1_555 1_555
C4 C3 1_555 1_555
C5 C4 1_555 1_555
H5 C5 1_555 1_555
C6 C1 1_555 1_555
H6 C6 1_555 1_555
C7 N1 1_555 1_555
H7 C7 1_555 1_555
H8 C7 1_555 1_555
H9 C7 1_555 1_555
C8 N1 1_555 1_555
H10 C8 1_555 1_555
H11 C8 1_555 1_555
H12 C8 1_555 1_555
C9 C1 1_555 1_555
H13 C9 1_555 1_555
C10 N2 1_555 1_555
C11 N5 1_555 1_555
C12 C10 1_555 1_555
C13 C11 1_555 1_555
C5 C6 1_555 1_555
C10 C11 1_555 1_555

#END
