
#######################################################################
#
#                 Cambridge Crystallographic Data Centre
#                                CCDC 
#
#######################################################################
#
# If this CIF has been generated from an entry in the Cambridge 
# Structural Database, then it will include bibliographic, chemical, 
# crystal, experimental, refinement or atomic coordinate data resulting 
# from the CCDC's data processing and validation procedures.
#
#######################################################################

data_RENKAY01
_chemical_formula_moiety         'C15 H19 N3 O2'
_chemical_name_systematic        
5-(3-(dimethylamino)benzylidene)-3-(2-hydroxyethyl)-2-methyl-3,5-dihydro-4H-imidazol-4-one
_symmetry_cell_setting           monoclinic
_symmetry_space_group_name_H-M   'P 21'
_symmetry_Int_Tables_number      4
_space_group_name_Hall           'P 2yb'
loop_
_symmetry_equiv_pos_site_id
_symmetry_equiv_pos_as_xyz
1 x,y,z
2 -x,1/2+y,-z
_cell_length_a                   9.4598(2)
_cell_length_b                   7.61760(10)
_cell_length_c                   10.0179(2)
_cell_angle_alpha                90
_cell_angle_beta                 95.575(2)
_cell_angle_gamma                90
_cell_volume                     718.485
_exptl_crystal_description       plate
_cell_formula_units_Z            2
loop_
_atom_site_label
_atom_site_type_symbol
_atom_site_fract_x
_atom_site_fract_y
_atom_site_fract_z
O1 O 0.93058(13) 0.4399(2) 0.50132(13)
O2 O 0.58987(19) 0.5950(2) 0.68085(19)
H1 H 0.525(4) 0.683(5) 0.680(3)
N1 N 0.61358(14) 0.37750(19) 0.28846(14)
N2 N 0.71657(13) 0.57541(18) 0.43322(13)
N3 N 0.9060(2) -0.4163(2) 0.13598(19)
C1 C 0.60089(16) 0.5286(2) 0.34697(15)
C2 C 0.81512(16) 0.4423(2) 0.43443(15)
C3 C 0.74816(15) 0.3127(2) 0.33797(14)
C4 C 0.81357(15) 0.1634(2) 0.30872(14)
H2 H 0.9003 0.1442 0.3587
C5 C 0.77138(15) 0.0262(2) 0.21165(13)
C6 C 0.85373(15) -0.1259(2) 0.21637(15)
H3 H 0.9311 -0.1347 0.2808
C7 C 0.82404(17) -0.2655(2) 0.12759(16)
C8 C 0.70571(18) -0.2489(2) 0.03183(16)
H4 H 0.6816 -0.3400 -0.0279
C9 C 0.62504(17) -0.0965(2) 0.02658(15)
H5 H 0.5479 -0.0870 -0.0381
C10 C 0.65525(16) 0.0414(2) 0.11388(15)
H6 H 0.5998 0.1425 0.1081
C11 C 0.4729(2) 0.6429(3) 0.3246(2)
H7 H 0.4041 0.5879 0.2613
H8 H 0.4995 0.7545 0.2902
H9 H 0.4327 0.6600 0.4081
C12 C 0.73436(18) 0.7277(2) 0.52190(16)
H10 H 0.6636 0.8156 0.4933
H11 H 0.8275 0.7789 0.5160
C13 C 0.7191(2) 0.6761(3) 0.66619(18)
H12 H 0.7957 0.5968 0.6970
H13 H 0.7277 0.7802 0.7221
C14 C 1.0486(2) -0.4121(3) 0.2040(3)
H14 H 1.0557 -0.3189 0.2687
H15 H 1.1158 -0.3927 0.1395
H16 H 1.0688 -0.5221 0.2486
C15 C 0.8795(3) -0.5512(3) 0.0346(2)
H17 H 0.7829 -0.5434 -0.0043
H18 H 0.8957 -0.6646 0.0750
H19 H 0.9425 -0.5349 -0.0340
loop_
_geom_bond_atom_site_label_1
_geom_bond_atom_site_label_2
_geom_bond_site_symmetry_1
_geom_bond_site_symmetry_2
O1 C2 1_555 1_555
O2 H1 1_555 1_555
N1 C1 1_555 1_555
N2 C1 1_555 1_555
N3 C7 1_555 1_555
C1 C11 1_555 1_555
C2 N2 1_555 1_555
C3 N1 1_555 1_555
C4 C3 1_555 1_555
H2 C4 1_555 1_555
C5 C4 1_555 1_555
C6 C5 1_555 1_555
H3 C6 1_555 1_555
C7 C6 1_555 1_555
C8 C7 1_555 1_555
H4 C8 1_555 1_555
C9 C8 1_555 1_555
H5 C9 1_555 1_555
C10 C5 1_555 1_555
H6 C10 1_555 1_555
C11 H7 1_555 1_555
H8 C11 1_555 1_555
H9 C11 1_555 1_555
C12 N2 1_555 1_555
H10 C12 1_555 1_555
H11 C12 1_555 1_555
C13 O2 1_555 1_555
H12 C13 1_555 1_555
H13 C13 1_555 1_555
C14 N3 1_555 1_555
H14 C14 1_555 1_555
H15 C14 1_555 1_555
H16 C14 1_555 1_555
C15 N3 1_555 1_555
H17 C15 1_555 1_555
H18 C15 1_555 1_555
H19 C15 1_555 1_555
C2 C3 1_555 1_555
C9 C10 1_555 1_555
C12 C13 1_555 1_555

#END
