
#######################################################################
#
#                 Cambridge Crystallographic Data Centre
#                                CCDC 
#
#######################################################################
#
# If this CIF has been generated from an entry in the Cambridge 
# Structural Database, then it will include bibliographic, chemical, 
# crystal, experimental, refinement or atomic coordinate data resulting 
# from the CCDC's data processing and validation procedures.
#
#######################################################################

data_RENKOM
_chemical_formula_moiety         
'2(C16 H36 N1 1+),C54 H66 N4 O4,O4 S1 2-,C7 H16,2(C1 H2 Cl2)'
_chemical_name_systematic        
'bis(Tetra-n-butylammonium) bis(5-t-butyl-2-(((4-t-butyl-2-(3-hydroxy-3-methylbut-1-yn-1-yl)phenyl)carbamoyl)amino)phenyl)ethyne sulfate dichloromethane n-heptane unknown solvate'
_symmetry_cell_setting           orthorhombic
_symmetry_space_group_name_H-M   'P n n a'
_symmetry_Int_Tables_number      52
_space_group_name_Hall           '-P 2a 2bc'
loop_
_symmetry_equiv_pos_site_id
_symmetry_equiv_pos_as_xyz
1 x,y,z
2 1/2-x,-y,z
3 1/2-x,1/2+y,1/2-z
4 x,1/2-y,1/2-z
5 -x,-y,-z
6 1/2+x,y,-z
7 1/2+x,1/2-y,1/2+z
8 -x,1/2+y,1/2+z
_cell_length_a                   18.565(4)
_cell_length_b                   28.973(6)
_cell_length_c                   19.331(4)
_cell_angle_alpha                90
_cell_angle_beta                 90
_cell_angle_gamma                90
_cell_volume                     10397.8
_cell_formula_units_Z            4
_exptl_crystal_recrystallization_method dichloromethane/hexane
loop_
_atom_site_label
_atom_site_type_symbol
_atom_site_fract_x
_atom_site_fract_y
_atom_site_fract_z
C55 C 0.7112(2) 0.12842(11) 0.1059(2)
H67 H 0.7031 0.1554 0.0763
H68 H 0.7539 0.1336 0.1346
H69 H 0.6691 0.1236 0.1357
C56 C 0.72253(15) 0.08633(10) 0.06127(17)
H70 H 0.7637 0.0919 0.0299
H71 H 0.6792 0.0814 0.0324
C57 C 0.73705(13) 0.04305(9) 0.10313(13)
H72 H 0.6955 0.0374 0.1341
H73 H 0.7798 0.0485 0.1327
C58 C 0.7500 0.0000 0.06022(17)
H74 H 0.7077 -0.0052 0.0300
C55A C 0.7888(2) -0.12842(11) 0.1059(2)
H67A H 0.7969 -0.1554 0.0763
H68A H 0.7461 -0.1336 0.1346
H69A H 0.8309 -0.1236 0.1357
C56A C 0.77747(15) -0.08633(10) 0.06127(17)
H70A H 0.7363 -0.0919 0.0299
H71A H 0.8208 -0.0814 0.0324
C57A C 0.76295(13) -0.04305(9) 0.10313(13)
H72A H 0.8045 -0.0374 0.1341
H73A H 0.7202 -0.0485 0.1327
H74A H 0.7923 0.0052 0.0300
N5 N 0.08525(12) 0.25044(9) 0.05371(17)
C62 C 0.0201(3) 0.28158(18) 0.0758(4)
H83 H -0.0249 0.2661 0.0613
H84 H 0.0195 0.2835 0.1270
C63 C 0.0195(4) 0.3302(2) 0.0472(4)
H85 H 0.0482 0.3322 0.0042
H86 H 0.0392 0.3524 0.0814
C64 C -0.0670(2) 0.34075(16) 0.0317(3)
H87 H -0.0841 0.3215 -0.0072
H88 H -0.0962 0.3333 0.0731
C65 C -0.0746(3) 0.3917(2) 0.0138(4)
H89 H -0.0405 0.4098 0.0414
H90 H -0.1239 0.4019 0.0240
H91 H -0.0645 0.3963 -0.0355
C66 C 0.07658(14) 0.20481(11) 0.09264(19)
H92 H 0.0592 0.2116 0.1400
H93 H 0.0390 0.1862 0.0692
C67 C 0.14483(13) 0.17601(9) 0.09781(18)
H94 H 0.1822 0.1934 0.1234
H95 H 0.1634 0.1693 0.0509
C68 C 0.12841(12) 0.13094(8) 0.13540(14)
H96 H 0.1053 0.1380 0.1803
H97 H 0.0939 0.1127 0.1075
C69 C 0.19572(13) 0.10236(9) 0.14803(16)
H98 H 0.2181 0.0946 0.1036
H99 H 0.1827 0.0739 0.1724
H100 H 0.2297 0.1201 0.1762
C70 C 0.14550(16) 0.27901(10) 0.08294(19)
H101 H 0.1477 0.3085 0.0573
H102 H 0.1915 0.2626 0.0749
C71 C 0.1392(2) 0.28951(13) 0.1590(2)
H103 H 0.0933 0.3058 0.1682
H104 H 0.1392 0.2604 0.1858
C72 C 0.2015(4) 0.31918(18) 0.1811(3)
H105 H 0.1927 0.3304 0.2288
H106 H 0.2042 0.3465 0.1504
C73 C 0.2776(5) 0.2925(5) 0.1792(5)
H107 H 0.2793 0.2697 0.2167
H108 H 0.3169 0.3147 0.1850
H109 H 0.2829 0.2767 0.1346
C74 C 0.1054(3) 0.24653(19) -0.0144(4)
H110 H 0.1531 0.2313 -0.0171
H111 H 0.1100 0.2777 -0.0348
C75 C 0.0512(2) 0.21888(16) -0.0556(3)
H112 H 0.0020 0.2306 -0.0466
H113 H 0.0531 0.1861 -0.0414
C76 C 0.0688(2) 0.22317(15) -0.1336(3)
H114 H 0.1198 0.2143 -0.1404
H115 H 0.0642 0.2560 -0.1469
C77 C 0.0216(3) 0.19379(19) -0.1840(4)
H116 H 0.0278 0.1609 -0.1734
H117 H 0.0366 0.1997 -0.2318
H118 H -0.0291 0.2023 -0.1784
S1 S 0.93283(4) 0.2500 0.2500
O6 O 0.93842(16) 0.21736(9) 0.31383(14)
O7 O 0.87622(14) 0.21335(9) 0.21943(13)
O6C O 0.93842(16) 0.28264(9) 0.18617(14)
O7C O 0.87622(14) 0.28665(9) 0.28057(13)
O1 O 0.78611(7) 0.23791(5) -0.00294(7)
O2 O 0.99276(8) 0.13349(5) 0.28403(7)
H1 H 0.9803 0.1611 0.2783
N1 N 0.86349(9) 0.19549(5) 0.06448(8)
H2 H 0.8858 0.1954 0.1046
N2 N 0.79813(10) 0.25364(6) 0.11191(9)
H3 H 0.8168 0.2433 0.1508
C1 C 0.88135(9) 0.16048(6) 0.01752(9)
C2 C 0.91552(9) 0.12064(6) 0.04393(9)
C3 C 0.93532(9) 0.08507(6) -0.00140(10)
H4 H 0.9592 0.0587 0.0167
C4 C 0.92120(10) 0.08700(6) -0.07192(10)
C5 C 0.88719(10) 0.12641(7) -0.09634(10)
H5 H 0.8767 0.1286 -0.1443
C6 C 0.86775(10) 0.16289(6) -0.05323(9)
H6 H 0.8452 0.1895 -0.0721
C7 C 0.94365(11) 0.04698(7) -0.11920(11)
C8 C 0.91201(16) 0.00199(8) -0.09320(15)
H7 H 0.9296 -0.0236 -0.1218
H8 H 0.8593 0.0034 -0.0959
H9 H 0.9267 -0.0030 -0.0451
C9 C 1.02722(13) 0.04335(9) -0.11800(15)
H10 H 1.0425 0.0170 -0.1462
H11 H 1.0437 0.0390 -0.0703
H12 H 1.0482 0.0717 -0.1368
C10 C 0.91959(17) 0.05463(10) -0.19407(13)
H13 H 0.9406 0.0834 -0.2116
H14 H 0.8669 0.0567 -0.1959
H15 H 0.9358 0.0287 -0.2227
C11 C 0.92738(9) 0.11547(6) 0.11667(10)
C12 C 0.93523(10) 0.11138(6) 0.17808(10)
C13 C 0.94071(11) 0.10395(6) 0.25382(10)
C14 C 0.86664(13) 0.11111(9) 0.28599(12)
H16 H 0.8693 0.1055 0.3359
H17 H 0.8322 0.0896 0.2651
H18 H 0.8507 0.1429 0.2776
C15 C 0.96873(19) 0.05511(8) 0.26694(13)
H19 H 1.0168 0.0518 0.2467
H20 H 0.9360 0.0327 0.2457
H21 H 0.9713 0.0495 0.3169
C16 C 0.81388(9) 0.23008(6) 0.05310(10)
C17 C 0.75449(10) 0.29305(6) 0.11575(10)
C18 C 0.71581(10) 0.30055(6) 0.17683(11)
C19 C 0.67690(11) 0.34170(7) 0.18472(12)
H22 H 0.6516 0.3470 0.2267
C20 C 0.67413(11) 0.37506(7) 0.13305(13)
C21 C 0.71062(11) 0.36581(7) 0.07207(12)
H23 H 0.7083 0.3875 0.0353
C22 C 0.75054(11) 0.32568(7) 0.06337(11)
H24 H 0.7754 0.3205 0.0211
C23 C 0.63385(14) 0.42079(8) 0.14456(15)
C24 C 0.5569(2) 0.41105(15) 0.1688(3)
H25 H 0.5312 0.4403 0.1752
H26 H 0.5583 0.3942 0.2127
H27 H 0.5320 0.3924 0.1339
C25 C 0.6686(3) 0.44646(16) 0.2051(4)
H28 H 0.6418 0.4750 0.2142
H29 H 0.7186 0.4540 0.1935
H30 H 0.6675 0.4268 0.2464
C26 C 0.6251(3) 0.44907(16) 0.0785(3)
H31 H 0.6011 0.4303 0.0432
H32 H 0.6727 0.4585 0.0616
H33 H 0.5961 0.4765 0.0882
C27 C 0.71498(10) 0.26570(6) 0.22987(12)
O1C O 0.78611(7) 0.26209(5) 0.50294(7)
O2C O 0.99276(8) 0.36651(5) 0.21597(7)
H1C H 0.9803 0.3389 0.2217
N1C N 0.86349(9) 0.30451(5) 0.43552(8)
H2C H 0.8858 0.3046 0.3954
N2C N 0.79813(10) 0.24636(6) 0.38809(9)
H3C H 0.8168 0.2567 0.3492
C1C C 0.88135(9) 0.33952(6) 0.48248(9)
C2C C 0.91552(9) 0.37936(6) 0.45607(9)
C3C C 0.93532(9) 0.41493(6) 0.50140(10)
H4C H 0.9592 0.4413 0.4833
C4C C 0.92120(10) 0.41300(6) 0.57192(10)
C5C C 0.88719(10) 0.37359(7) 0.59634(10)
H5C H 0.8767 0.3714 0.6443
C6C C 0.86775(10) 0.33711(6) 0.55323(9)
H6C H 0.8452 0.3105 0.5721
C7C C 0.94365(11) 0.45302(7) 0.61920(11)
C8C C 0.91201(16) 0.49801(8) 0.59320(15)
H7C H 0.9296 0.5236 0.6218
H8C H 0.8593 0.4966 0.5959
H9C H 0.9267 0.5030 0.5451
C9C C 1.02722(13) 0.45665(9) 0.61800(15)
H10C H 1.0425 0.4830 0.6462
H11C H 1.0437 0.4610 0.5703
H12C H 1.0482 0.4283 0.6368
C10C C 0.91959(17) 0.44537(10) 0.69407(13)
H13C H 0.9406 0.4166 0.7116
H14C H 0.8669 0.4433 0.6959
H15C H 0.9358 0.4713 0.7227
C11C C 0.92738(9) 0.38453(6) 0.38333(10)
C12C C 0.93523(10) 0.38862(6) 0.32192(10)
C13C C 0.94071(11) 0.39605(6) 0.24618(10)
C14C C 0.86664(13) 0.38889(9) 0.21401(12)
H16C H 0.8693 0.3945 0.1641
H17C H 0.8322 0.4104 0.2349
H18C H 0.8507 0.3571 0.2224
C15C C 0.96873(19) 0.44489(8) 0.23306(13)
H19C H 1.0168 0.4482 0.2533
H20C H 0.9360 0.4673 0.2543
H21C H 0.9713 0.4505 0.1831
C16C C 0.81388(9) 0.26992(6) 0.44690(10)
C17C C 0.75449(10) 0.20695(6) 0.38425(10)
C18C C 0.71581(10) 0.19945(6) 0.32317(11)
C19C C 0.67690(11) 0.15830(7) 0.31528(12)
H22C H 0.6516 0.1530 0.2733
C20C C 0.67413(11) 0.12494(7) 0.36695(13)
C21C C 0.71062(11) 0.13419(7) 0.42793(12)
H23C H 0.7083 0.1125 0.4647
C22C C 0.75054(11) 0.17432(7) 0.43663(11)
H24C H 0.7754 0.1795 0.4789
C23C C 0.63385(14) 0.07921(8) 0.35544(15)
C24C C 0.5569(2) 0.08895(15) 0.3312(3)
H25C H 0.5312 0.0597 0.3248
H26C H 0.5583 0.1058 0.2873
H27C H 0.5320 0.1076 0.3661
C25C C 0.6686(3) 0.05354(16) 0.2949(4)
H28C H 0.6418 0.0250 0.2858
H29C H 0.7186 0.0460 0.3065
H30C H 0.6675 0.0732 0.2536
C26C C 0.6251(3) 0.05093(16) 0.4215(3)
H31C H 0.6011 0.0697 0.4568
H32C H 0.6727 0.0415 0.4384
H33C H 0.5961 0.0235 0.4118
C27C C 0.71498(10) 0.23430(6) 0.27013(12)
O3? O 0.78611(7) 0.26209(5) 0.50294(7)
O4? O 0.99276(8) 0.36651(5) 0.21597(7)
H34? H 0.9803 0.3389 0.2217
N3? N 0.86349(9) 0.30451(5) 0.43552(8)
H35? H 0.8858 0.3046 0.3954
N4? N 0.79813(10) 0.24636(6) 0.38809(9)
H36? H 0.8168 0.2567 0.3492
C28? C 0.88135(9) 0.33952(6) 0.48248(9)
C29? C 0.91552(9) 0.37936(6) 0.45607(9)
C30? C 0.93532(9) 0.41493(6) 0.50140(10)
H37? H 0.9592 0.4413 0.4833
C31? C 0.92120(10) 0.41300(6) 0.57192(10)
C32? C 0.88719(10) 0.37359(7) 0.59634(10)
H38? H 0.8767 0.3714 0.6443
C33? C 0.86775(10) 0.33711(6) 0.55323(9)
H39? H 0.8452 0.3105 0.5721
C34? C 0.94365(11) 0.45302(7) 0.61920(11)
C35? C 0.91201(16) 0.49801(8) 0.59320(15)
H40? H 0.9296 0.5236 0.6218
H41? H 0.8593 0.4966 0.5959
H42? H 0.9267 0.5030 0.5451
C36? C 1.02722(13) 0.45665(9) 0.61800(15)
H43? H 1.0425 0.4830 0.6462
H44? H 1.0437 0.4610 0.5703
H45? H 1.0482 0.4283 0.6368
C37? C 0.91959(17) 0.44537(10) 0.69407(13)
H46? H 0.9406 0.4166 0.7116
H47? H 0.8669 0.4433 0.6959
H48? H 0.9358 0.4713 0.7227
C38? C 0.92738(9) 0.38453(6) 0.38333(10)
C39? C 0.93523(10) 0.38862(6) 0.32192(10)
C40? C 0.94071(11) 0.39605(6) 0.24618(10)
C41? C 0.86664(13) 0.38889(9) 0.21401(12)
H49? H 0.8693 0.3945 0.1641
H50? H 0.8322 0.4104 0.2349
H51? H 0.8507 0.3571 0.2224
C42? C 0.96873(19) 0.44489(8) 0.23306(13)
H52? H 1.0168 0.4482 0.2533
H53? H 0.9360 0.4673 0.2543
H54? H 0.9713 0.4505 0.1831
C43? C 0.81388(9) 0.26992(6) 0.44690(10)
C44? C 0.75449(10) 0.20695(6) 0.38425(10)
C45? C 0.71581(10) 0.19945(6) 0.32317(11)
C46? C 0.67690(11) 0.15830(7) 0.31528(12)
H55? H 0.6516 0.1530 0.2733
C47? C 0.67413(11) 0.12494(7) 0.36695(13)
C48? C 0.71062(11) 0.13419(7) 0.42793(12)
H56? H 0.7083 0.1125 0.4647
C49? C 0.75054(11) 0.17432(7) 0.43663(11)
H57? H 0.7754 0.1795 0.4789
C50? C 0.63385(14) 0.07921(8) 0.35544(15)
C51? C 0.5569(2) 0.08895(15) 0.3312(3)
H58? H 0.5312 0.0597 0.3248
H59? H 0.5583 0.1058 0.2873
H60? H 0.5320 0.1076 0.3661
C52? C 0.6686(3) 0.05354(16) 0.2949(4)
H61? H 0.6418 0.0250 0.2858
H62? H 0.7186 0.0460 0.3065
H63? H 0.6675 0.0732 0.2536
C53? C 0.6251(3) 0.05093(16) 0.4215(3)
H64? H 0.6011 0.0697 0.4568
H65? H 0.6727 0.0415 0.4384
H66? H 0.5961 0.0235 0.4118
C54? C 0.71498(10) 0.23430(6) 0.27013(12)
C59? C 0.7888(2) -0.12842(11) 0.1059(2)
H75? H 0.7969 -0.1554 0.0763
H76? H 0.7461 -0.1336 0.1346
H77? H 0.8309 -0.1236 0.1357
C60? C 0.77747(15) -0.08633(10) 0.06127(17)
H78? H 0.7363 -0.0919 0.0299
H79? H 0.8208 -0.0814 0.0324
C61? C 0.76295(13) -0.04305(9) 0.10313(13)
H80? H 0.8045 -0.0374 0.1341
H81? H 0.7202 -0.0485 0.1327
H82? H 0.7923 0.0052 0.0300
O5? O 0.91248(15) 0.23116(9) 0.19266(13)
O8? O 1.00203(14) 0.22218(9) 0.24753(14)
O9? O 0.91248(15) 0.26884(9) 0.30734(13)
O10? O 0.93842(16) 0.28264(9) 0.18617(14)
O11? O 0.87622(14) 0.28665(9) 0.28057(13)
O12? O 1.00203(14) 0.27782(9) 0.25247(14)
C78? C 0.9698(15) 0.0042(8) -0.0794(13)
H119? H 0.9740 -0.0220 -0.1114
H120? H 0.9352 -0.0034 -0.0429
H121? H 1.0170 0.0106 -0.0588
C79? C 0.9852(17) 0.0615(7) -0.1724(12)
H122? H 1.0284 0.0768 -0.1542
H123? H 0.9579 0.0834 -0.2009
H124? H 0.9995 0.0350 -0.2007
C80? C 0.8646(13) 0.0271(8) -0.1527(13)
H125? H 0.8746 0.0030 -0.1869
H126? H 0.8388 0.0526 -0.1749
H127? H 0.8349 0.0143 -0.1154
C81? C 0.5748(13) 0.4206(9) 0.1012(13)
H128? H 0.5911 0.4194 0.0530
H129? H 0.5465 0.4486 0.1087
H130? H 0.5450 0.3934 0.1112
C82? C 0.6061(12) 0.4244(7) 0.2174(11)
H131? H 0.6455 0.4184 0.2499
H132? H 0.5677 0.4017 0.2244
H133? H 0.5871 0.4555 0.2252
C83? C 0.6905(6) 0.4594(3) 0.1350(9)
H134? H 0.6679 0.4895 0.1435
H135? H 0.7092 0.4585 0.0876
H136? H 0.7301 0.4548 0.1677
C84? C 0.0061(3) 0.2688(2) 0.0433(4)
H137? H -0.0193 0.2482 0.0105
H138? H -0.0196 0.2673 0.0881
C85? C 0.0026(4) 0.3175(3) 0.0165(6)
H139? H 0.0423 0.3356 0.0373
H140? H 0.0102 0.3171 -0.0342
C86? C 0.2015(4) 0.31918(18) 0.1811(3)
H141? H 0.2474 0.3107 0.1584
H142? H 0.2077 0.3205 0.2320
C87? C 0.1641(10) 0.3663(6) 0.1484(9)
H143? H 0.1632 0.3641 0.0978
H144? H 0.1923 0.3934 0.1621
H145? H 0.1148 0.3694 0.1659
C88? C 0.1002(7) 0.2341(5) -0.0344(5)
H146? H 0.1003 0.2633 -0.0611
H147? H 0.1501 0.2222 -0.0362
C89? C 0.0553(6) 0.2006(6) -0.0761(5)
H148? H 0.0042 0.2046 -0.0629
H149? H 0.0695 0.1688 -0.0632
C90? C 0.0614(10) 0.2055(9) -0.1558(6)
H150? H 0.1077 0.2197 -0.1696
H151? H 0.0558 0.1754 -0.1794
C91? C 0.0087(16) 0.232(2) -0.1677(19)
H152? H -0.0353 0.2136 -0.1730
H153? H 0.0177 0.2494 -0.2104
H154? H 0.0029 0.2536 -0.1291
loop_
_geom_bond_atom_site_label_1
_geom_bond_atom_site_label_2
_geom_bond_site_symmetry_1
_geom_bond_site_symmetry_2
O1 C16 1_555 1_555
O2 H1 1_555 1_555
N1 H2 1_555 1_555
N2 H3 1_555 1_555
C1 N1 1_555 1_555
C2 C1 1_555 1_555
C3 C2 1_555 1_555
H4 C3 1_555 1_555
C4 C3 1_555 1_555
C5 C4 1_555 1_555
H5 C5 1_555 1_555
C6 C1 1_555 1_555
H6 C6 1_555 1_555
C7 C4 1_555 1_555
C8 C7 1_555 1_555
H7 C8 1_555 1_555
H8 C8 1_555 1_555
H9 C8 1_555 1_555
C9 C7 1_555 1_555
H10 C9 1_555 1_555
H11 C9 1_555 1_555
H12 C9 1_555 1_555
C10 C7 1_555 1_555
H13 C10 1_555 1_555
H14 C10 1_555 1_555
H15 C10 1_555 1_555
C11 C2 1_555 1_555
C12 C11 1_555 1_555
C13 O2 1_555 1_555
C14 C13 1_555 1_555
H16 C14 1_555 1_555
H17 C14 1_555 1_555
H18 C14 1_555 1_555
C15 C13 1_555 1_555
H19 C15 1_555 1_555
H20 C15 1_555 1_555
H21 C15 1_555 1_555
C16 N1 1_555 1_555
C17 N2 1_555 1_555
C18 C17 1_555 1_555
C19 C18 1_555 1_555
H22 C19 1_555 1_555
C20 C19 1_555 1_555
C21 C20 1_555 1_555
H23 C21 1_555 1_555
C22 C17 1_555 1_555
H24 C22 1_555 1_555
C23 C20 1_555 1_555
C24 C23 1_555 1_555
H25 C24 1_555 1_555
H26 C24 1_555 1_555
H27 C24 1_555 1_555
C25 C23 1_555 1_555
H28 C25 1_555 1_555
H29 C25 1_555 1_555
H30 C25 1_555 1_555
C26 C23 1_555 1_555
H31 C26 1_555 1_555
H32 C26 1_555 1_555
H33 C26 1_555 1_555
C27 C18 1_555 1_555
C55 H67 1_555 1_555
H68 C55 1_555 1_555
H69 C55 1_555 1_555
C56 C55 1_555 1_555
H70 C56 1_555 1_555
H71 C56 1_555 1_555
C57 C56 1_555 1_555
H72 C57 1_555 1_555
H73 C57 1_555 1_555
C58 C57 1_555 1_555
H74 C58 1_555 1_555
N5 C62 1_555 1_555
C62 H83 1_555 1_555
H84 C62 1_555 1_555
C63 C62 1_555 1_555
H85 C63 1_555 1_555
H86 C63 1_555 1_555
C64 C63 1_555 1_555
H87 C64 1_555 1_555
H88 C64 1_555 1_555
C65 C64 1_555 1_555
H89 C65 1_555 1_555
H90 C65 1_555 1_555
H91 C65 1_555 1_555
C66 N5 1_555 1_555
H92 C66 1_555 1_555
H93 C66 1_555 1_555
C67 C66 1_555 1_555
H94 C67 1_555 1_555
H95 C67 1_555 1_555
C68 C67 1_555 1_555
H96 C68 1_555 1_555
H97 C68 1_555 1_555
C69 C68 1_555 1_555
H98 C69 1_555 1_555
H99 C69 1_555 1_555
H100 C69 1_555 1_555
C70 N5 1_555 1_555
H101 C70 1_555 1_555
H102 C70 1_555 1_555
C71 C70 1_555 1_555
H103 C71 1_555 1_555
H104 C71 1_555 1_555
C72 C71 1_555 1_555
H105 C72 1_555 1_555
H106 C72 1_555 1_555
C73 C72 1_555 1_555
H107 C73 1_555 1_555
H108 C73 1_555 1_555
H109 C73 1_555 1_555
C74 N5 1_555 1_555
H110 C74 1_555 1_555
H111 C74 1_555 1_555
C75 C74 1_555 1_555
H112 C75 1_555 1_555
H113 C75 1_555 1_555
C76 C75 1_555 1_555
H114 C76 1_555 1_555
H115 C76 1_555 1_555
C77 C76 1_555 1_555
H116 C77 1_555 1_555
H117 C77 1_555 1_555
H118 C77 1_555 1_555
S1 O6 1_555 1_555
O7 S1 1_555 1_555
O1C C16C 1_555 1_555
O2C H1C 1_555 1_555
N1C H2C 1_555 1_555
N2C H3C 1_555 1_555
C1C N1C 1_555 1_555
C2C C1C 1_555 1_555
C3C C2C 1_555 1_555
H4C C3C 1_555 1_555
C4C C3C 1_555 1_555
C5C C4C 1_555 1_555
H5C C5C 1_555 1_555
C6C C1C 1_555 1_555
H6C C6C 1_555 1_555
C7C C4C 1_555 1_555
C8C C7C 1_555 1_555
H7C C8C 1_555 1_555
H8C C8C 1_555 1_555
H9C C8C 1_555 1_555
C9C C7C 1_555 1_555
H10C C9C 1_555 1_555
H11C C9C 1_555 1_555
H12C C9C 1_555 1_555
C10C C7C 1_555 1_555
H13C C10C 1_555 1_555
H14C C10C 1_555 1_555
H15C C10C 1_555 1_555
C11C C2C 1_555 1_555
C12C C11C 1_555 1_555
C13C O2C 1_555 1_555
C14C C13C 1_555 1_555
H16C C14C 1_555 1_555
H17C C14C 1_555 1_555
H18C C14C 1_555 1_555
C15C C13C 1_555 1_555
H19C C15C 1_555 1_555
H20C C15C 1_555 1_555
H21C C15C 1_555 1_555
C16C N1C 1_555 1_555
C17C N2C 1_555 1_555
C18C C17C 1_555 1_555
C19C C18C 1_555 1_555
H22C C19C 1_555 1_555
C20C C19C 1_555 1_555
C21C C20C 1_555 1_555
H23C C21C 1_555 1_555
C22C C17C 1_555 1_555
H24C C22C 1_555 1_555
C23C C20C 1_555 1_555
C24C C23C 1_555 1_555
H25C C24C 1_555 1_555
H26C C24C 1_555 1_555
H27C C24C 1_555 1_555
C25C C23C 1_555 1_555
H28C C25C 1_555 1_555
H29C C25C 1_555 1_555
H30C C25C 1_555 1_555
C26C C23C 1_555 1_555
H31C C26C 1_555 1_555
H32C C26C 1_555 1_555
H33C C26C 1_555 1_555
C27C C27 1_555 1_555
C55A H67A 1_555 1_555
H68A C55A 1_555 1_555
H69A C55A 1_555 1_555
C56A C55A 1_555 1_555
H70A C56A 1_555 1_555
H71A C56A 1_555 1_555
C57A C58 1_555 1_555
H72A C57A 1_555 1_555
H73A C57A 1_555 1_555
H74A C58 1_555 1_555
O6C S1 1_555 1_555
O7C S1 1_555 1_555
N2 C16 1_555 1_555
C5 C6 1_555 1_555
C12 C13 1_555 1_555
C21 C22 1_555 1_555
N2C C16C 1_555 1_555
C5C C6C 1_555 1_555
C12C C13C 1_555 1_555
C18C C27C 1_555 1_555
C21C C22C 1_555 1_555
C56A C57A 1_555 1_555

#END
