
#######################################################################
#
#                 Cambridge Crystallographic Data Centre
#                                CCDC 
#
#######################################################################
#
# If this CIF has been generated from an entry in the Cambridge 
# Structural Database, then it will include bibliographic, chemical, 
# crystal, experimental, refinement or atomic coordinate data resulting 
# from the CCDC's data processing and validation procedures.
#
#######################################################################

data_RENMEF
_chemical_formula_moiety         'C29 H26 N2 O9'
_chemical_name_systematic        
'ethyl 1a-((cyclohexylcarbonyl)oxy)-9-(4-nitrophenyl)-3,8-dioxo-1,1a,3,9-tetrahydrobenzo[6,7]chromeno[2,3-b]azirene-9a(8H)-carboxylate'
_symmetry_cell_setting           monoclinic
_symmetry_space_group_name_H-M   'P 21/c'
_symmetry_Int_Tables_number      14
_space_group_name_Hall           '-P 2ybc'
loop_
_symmetry_equiv_pos_site_id
_symmetry_equiv_pos_as_xyz
1 x,y,z
2 -x,1/2+y,1/2-z
3 -x,-y,-z
4 x,1/2-y,1/2+z
_cell_length_a                   12.2536(7)
_cell_length_b                   11.1077(6)
_cell_length_c                   19.8629(12)
_cell_angle_alpha                90
_cell_angle_beta                 96.900(2)
_cell_angle_gamma                90
_cell_volume                     2683.94
_exptl_crystal_colour            yellow
_exptl_crystal_description       needle
_cell_formula_units_Z            4
loop_
_atom_site_label
_atom_site_type_symbol
_atom_site_fract_x
_atom_site_fract_y
_atom_site_fract_z
O1 O 0.75938(13) 0.68815(14) 0.25177(8)
O2 O 1.5021(2) 0.7442(3) 0.39121(15)
N1 N 0.94815(16) 0.72693(14) 0.29181(9)
O3 O 0.72521(15) 0.50745(16) 0.20322(10)
O4 O 0.87711(13) 0.70570(13) 0.17497(7)
O5 O 0.89048(18) 0.77334(17) 0.05179(8)
O6 O 1.17577(15) 0.44459(15) 0.15847(8)
O7 O 0.85998(18) 0.57444(15) 0.38024(9)
O8 O 0.91691(17) 0.40579(14) 0.33442(8)
O9 O 1.4742(2) 0.6080(3) 0.46076(14)
C1 C 0.86852(19) 0.67634(17) 0.24261(10)
N2 N 1.4468(2) 0.6654(2) 0.40996(11)
C2 C 1.34271(19) 0.6348(2) 0.36943(10)
C3 C 1.2901(2) 0.5300(2) 0.38265(11)
H1 H 1.3187 0.4800 0.4180
C4 C 1.1945(2) 0.50018(19) 0.34293(10)
H2 H 1.1586 0.4289 0.3512
C5 C 1.15043(18) 0.57519(16) 0.29032(9)
C6 C 1.04262(17) 0.54222(16) 0.24861(9)
H3 H 1.0364 0.4543 0.2488
C7 C 0.94667(17) 0.59280(16) 0.28168(9)
C8 C 0.6896(2) 0.5983(2) 0.22412(11)
C9 C 0.5720(2) 0.6337(3) 0.22554(17)
H4 H 0.5596 0.6427 0.2731
C10 C 0.5460(3) 0.7562(3) 0.1897(3)
H5 H 0.4754 0.7853 0.2004
H6 H 0.6015 0.8146 0.2065
C11 C 0.5430(4) 0.7455(4) 0.1159(3)
H7 H 0.6153 0.7232 0.1049
H8 H 0.5241 0.8228 0.0950
C12 C 0.4607(4) 0.6528(5) 0.0877(3)
H9 H 0.4612 0.6470 0.0390
H10 H 0.3877 0.6775 0.0962
C13 C 1.30122(19) 0.71237(19) 0.31786(11)
H11 H 1.3379 0.7832 0.3097
C14 C 1.20468(18) 0.68214(18) 0.27906(10)
H12 H 1.1751 0.7338 0.2448
C15 C 0.4942(3) 0.5377(4) 0.1942(3)
C16 C 0.4864(3) 0.5332(4) 0.1191(3)
H13 H 0.4296 0.4764 0.1021
H14 H 0.5556 0.5046 0.1060
C17 C 0.96130(17) 0.65772(16) 0.14592(9)
C18 C 0.9592(2) 0.70183(19) 0.07459(10)
C19 C 1.04522(19) 0.65397(19) 0.03553(9)
C20 C 1.11897(18) 0.56802(19) 0.06351(9)
C21 C 1.11590(17) 0.52558(17) 0.13468(9)
C22 C 1.03691(17) 0.58199(16) 0.17557(9)
C23 C 1.1954(2) 0.5191(3) 0.02501(11)
H15 H 1.2442 0.4600 0.0430
C24 C 1.1972(2) 0.5607(3) -0.04162(13)
H16 H 1.2487 0.5296 -0.0677
C25 C 1.1249(3) 0.6459(3) -0.06865(12)
H17 H 1.1272 0.6720 -0.1129
C26 C 1.0489(2) 0.6932(3) -0.03105(11)
H18 H 0.9998 0.7514 -0.0497
C27 C 0.90642(19) 0.51206(18) 0.33429(10)
C28 C 0.8167(3) 0.5051(3) 0.43409(15)
H19 H 0.8663 0.4392 0.4481
H20 H 0.8119 0.5565 0.4731
C29 C 0.7116(5) 0.4592(7) 0.4106(3)
H21 H 0.6605 0.5245 0.4026
H22 H 0.6879 0.4061 0.4441
H23 H 0.7151 0.4156 0.3691
H24 H 0.918(2) 0.747(2) 0.3240(14)
H25 H 0.512(3) 0.458(4) 0.212(2)
H26 H 0.416(3) 0.563(3) 0.1933(17)
loop_
_geom_bond_atom_site_label_1
_geom_bond_atom_site_label_2
_geom_bond_site_symmetry_1
_geom_bond_site_symmetry_2
O1 C1 1_555 1_555
O2 N2 1_555 1_555
N1 C1 1_555 1_555
O3 C8 1_555 1_555
O4 C1 1_555 1_555
O5 C18 1_555 1_555
O6 C21 1_555 1_555
O7 C27 1_555 1_555
O8 C27 1_555 1_555
O9 N2 1_555 1_555
C1 C7 1_555 1_555
N2 C2 1_555 1_555
C2 C3 1_555 1_555
C3 H1 1_555 1_555
C4 C3 1_555 1_555
H2 C4 1_555 1_555
C5 C4 1_555 1_555
C6 C5 1_555 1_555
H3 C6 1_555 1_555
C7 N1 1_555 1_555
C8 O1 1_555 1_555
C9 C8 1_555 1_555
H4 C9 1_555 1_555
C10 C9 1_555 1_555
H5 C10 1_555 1_555
H6 C10 1_555 1_555
C11 C10 1_555 1_555
H7 C11 1_555 1_555
H8 C11 1_555 1_555
C12 C11 1_555 1_555
H9 C12 1_555 1_555
H10 C12 1_555 1_555
C13 C2 1_555 1_555
H11 C13 1_555 1_555
C14 C5 1_555 1_555
H12 C14 1_555 1_555
C15 C9 1_555 1_555
C16 C12 1_555 1_555
H13 C16 1_555 1_555
H14 C16 1_555 1_555
C17 O4 1_555 1_555
C18 C17 1_555 1_555
C19 C18 1_555 1_555
C20 C19 1_555 1_555
C21 C20 1_555 1_555
C22 C6 1_555 1_555
C23 C20 1_555 1_555
H15 C23 1_555 1_555
C24 C23 1_555 1_555
H16 C24 1_555 1_555
C25 C24 1_555 1_555
H17 C25 1_555 1_555
C26 C19 1_555 1_555
H18 C26 1_555 1_555
C27 C7 1_555 1_555
C28 O7 1_555 1_555
H19 C28 1_555 1_555
H20 C28 1_555 1_555
C29 C28 1_555 1_555
H21 C29 1_555 1_555
H22 C29 1_555 1_555
H23 C29 1_555 1_555
H24 N1 1_555 1_555
H25 C15 1_555 1_555
H26 C15 1_555 1_555
C6 C7 1_555 1_555
C13 C14 1_555 1_555
C15 C16 1_555 1_555
C17 C22 1_555 1_555
C21 C22 1_555 1_555
C25 C26 1_555 1_555

#END
