
#######################################################################
#
#                 Cambridge Crystallographic Data Centre
#                                CCDC 
#
#######################################################################
#
# If this CIF has been generated from an entry in the Cambridge 
# Structural Database, then it will include bibliographic, chemical, 
# crystal, experimental, refinement or atomic coordinate data resulting 
# from the CCDC's data processing and validation procedures.
#
#######################################################################

data_RENMEE
_chemical_formula_moiety         'C15 H22 O2'
_chemical_name_systematic        
4-Methylene-2,4,5,6,7,7a,8,9,10,11-decahydro-1H-benzo[d]azulene-7,8-diol
_symmetry_cell_setting           triclinic
_symmetry_space_group_name_H-M   'P -1'
_symmetry_Int_Tables_number      2
_space_group_name_Hall           '-P 1'
loop_
_symmetry_equiv_pos_site_id
_symmetry_equiv_pos_as_xyz
1 x,y,z
2 -x,-y,-z
_cell_length_a                   8.404(6)
_cell_length_b                   12.590(9)
_cell_length_c                   12.974(10)
_cell_angle_alpha                97.430(7)
_cell_angle_beta                 103.628(7)
_cell_angle_gamma                96.743(7)
_cell_volume                     1307.21
_exptl_crystal_colour            colorless
_exptl_crystal_description       block
_cell_formula_units_Z            4
loop_
_atom_site_label
_atom_site_type_symbol
_atom_site_fract_x
_atom_site_fract_y
_atom_site_fract_z
C1 C 0.9059(3) 0.45609(16) 0.70036(15)
H1 H 1.0131 0.5006 0.7078
C2 C 0.8457(3) 0.48568(18) 0.80052(17)
H2 H 0.8101 0.5562 0.7993
H3 H 0.9382 0.4923 0.8631
C3 C 0.7041(3) 0.4055(2) 0.8134(2)
H4 H 0.6501 0.4415 0.8633
H5 H 0.6233 0.3844 0.7445
C4 C 0.7573(3) 0.3045(2) 0.85357(18)
C5 C 0.9344(3) 0.29733(17) 0.86651(16)
C6 C 1.0491(3) 0.3047(2) 0.95689(18)
H6 H 1.0262 0.3072 1.0238
C7 C 1.2192(3) 0.3088(2) 0.94105(19)
H7 H 1.2597 0.2405 0.9487
H8 H 1.2959 0.3666 0.9915
C8 C 1.1937(3) 0.33131(19) 0.82456(17)
H9 H 1.2151 0.4085 0.8233
H10 H 1.2666 0.2953 0.7888
C9 C 1.0109(2) 0.28506(16) 0.77019(15)
C10 C 0.9222(2) 0.33656(15) 0.67521(14)
H11 H 0.8081 0.2983 0.6543
C11 C 0.6549(4) 0.2301(3) 0.8783(3)
H12 H 0.6937 0.1703 0.9050
H13 H 0.5438 0.2375 0.8690
C12 C 0.9912(3) 0.16193(17) 0.73049(17)
H14 H 1.0510 0.1283 0.7878
H15 H 0.8750 0.1314 0.7146
C13 C 1.0543(3) 0.13435(17) 0.63082(18)
H16 H 1.1732 0.1569 0.6485
H17 H 1.0322 0.0565 0.6074
C14 C 0.9716(3) 0.18986(17) 0.54076(17)
H18 H 0.8551 0.1595 0.5163
H19 H 1.0211 0.1762 0.4808
C15 C 0.9885(3) 0.31145(17) 0.57581(15)
H20 H 0.9245 0.3427 0.5170
O1 O 0.7861(2) 0.48032(13) 0.61090(12)
O2 O 1.16004(19) 0.35656(12) 0.59676(12)
H41 H 1.196(6) 0.4330(10) 0.613(4)
H42 H 0.757(5) 0.5508(17) 0.604(3)
C16 C 0.5659(3) 0.36178(16) 0.30708(15)
H21 H 0.4699 0.4000 0.2936
C17 C 0.6229(3) 0.34137(18) 0.20457(16)
H22 H 0.6729 0.4100 0.1911
H23 H 0.5265 0.3139 0.1451
C18 C 0.7467(3) 0.2619(2) 0.2061(2)
H24 H 0.7992 0.2695 0.1479
H25 H 0.8323 0.2811 0.2730
C19 C 0.6714(3) 0.14499(19) 0.19510(16)
C20 C 0.4910(3) 0.12634(16) 0.18152(15)
C21 C 0.3721(3) 0.08245(18) 0.09398(17)
H26 H 0.3919 0.0523 0.0297
C22 C 0.2030(3) 0.08715(19) 0.11062(17)
H27 H 0.1525 0.0174 0.1212
H28 H 0.1311 0.1107 0.0505
C23 C 0.2400(2) 0.17148(17) 0.21304(16)
H29 H 0.1610 0.1562 0.2550
H30 H 0.2355 0.2439 0.1956
C24 C 0.4161(2) 0.16084(15) 0.27492(14)
C25 C 0.5218(2) 0.26052(15) 0.35428(14)
H31 H 0.6283 0.2369 0.3825
C26 C 0.7588(3) 0.0649(3) 0.1969(2)
H32 H 0.7066 -0.0060 0.1894
H33 H 0.8727 0.0792 0.2056
C27 C 0.4123(3) 0.06528(16) 0.33819(16)
H34 H 0.3445 0.0019 0.2908
H35 H 0.5239 0.0487 0.3610
C28 C 0.3449(3) 0.08783(17) 0.43629(16)
H36 H 0.2295 0.0972 0.4136
H37 H 0.3505 0.0264 0.4744
C29 C 0.4432(3) 0.18897(17) 0.51092(16)
H38 H 0.3914 0.2054 0.5693
H39 H 0.5543 0.1754 0.5418
C30 C 0.4532(3) 0.28569(16) 0.45299(15)
H40 H 0.5274 0.3465 0.5026
O3 O 0.7005(2) 0.43056(12) 0.38604(12)
O4 O 0.29128(19) 0.31614(12) 0.42139(12)
H43 H 0.703(7) 0.433(5) 0.4607(14)
H44 H 0.243(5) 0.329(4) 0.481(2)
loop_
_geom_bond_atom_site_label_1
_geom_bond_atom_site_label_2
_geom_bond_site_symmetry_1
_geom_bond_site_symmetry_2
C1 H1 1_555 1_555
C2 C1 1_555 1_555
H2 C2 1_555 1_555
H3 C2 1_555 1_555
C3 C2 1_555 1_555
H4 C3 1_555 1_555
H5 C3 1_555 1_555
C4 C3 1_555 1_555
C5 C4 1_555 1_555
C6 C5 1_555 1_555
H6 C6 1_555 1_555
C7 C6 1_555 1_555
H7 C7 1_555 1_555
H8 C7 1_555 1_555
C8 C7 1_555 1_555
H9 C8 1_555 1_555
H10 C8 1_555 1_555
C9 C5 1_555 1_555
C10 C1 1_555 1_555
H11 C10 1_555 1_555
C11 C4 1_555 1_555
H12 C11 1_555 1_555
H13 C11 1_555 1_555
C12 C9 1_555 1_555
H14 C12 1_555 1_555
H15 C12 1_555 1_555
C13 C12 1_555 1_555
H16 C13 1_555 1_555
H17 C13 1_555 1_555
C14 C13 1_555 1_555
H18 C14 1_555 1_555
H19 C14 1_555 1_555
C15 C10 1_555 1_555
H20 C15 1_555 1_555
C16 H21 1_555 1_555
C17 C16 1_555 1_555
H22 C17 1_555 1_555
H23 C17 1_555 1_555
C18 C17 1_555 1_555
H24 C18 1_555 1_555
H25 C18 1_555 1_555
C19 C18 1_555 1_555
C20 C19 1_555 1_555
C21 C20 1_555 1_555
H26 C21 1_555 1_555
C22 C21 1_555 1_555
H27 C22 1_555 1_555
H28 C22 1_555 1_555
C23 C22 1_555 1_555
H29 C23 1_555 1_555
H30 C23 1_555 1_555
C24 C20 1_555 1_555
C25 C16 1_555 1_555
H31 C25 1_555 1_555
C26 C19 1_555 1_555
H32 C26 1_555 1_555
H33 C26 1_555 1_555
C27 C24 1_555 1_555
H34 C27 1_555 1_555
H35 C27 1_555 1_555
C28 C27 1_555 1_555
H36 C28 1_555 1_555
H37 C28 1_555 1_555
C29 C28 1_555 1_555
H38 C29 1_555 1_555
H39 C29 1_555 1_555
C30 C25 1_555 1_555
H40 C30 1_555 1_555
O1 C1 1_555 1_555
O2 C15 1_555 1_555
O3 C16 1_555 1_555
O4 C30 1_555 1_555
H41 O2 1_555 1_555
H42 O1 1_555 1_555
H43 O3 1_555 1_555
H44 O4 1_555 1_555
C8 C9 1_555 1_555
C9 C10 1_555 1_555
C14 C15 1_555 1_555
C23 C24 1_555 1_555
C24 C25 1_555 1_555
C29 C30 1_555 1_555

#END
