
#######################################################################
#
#                 Cambridge Crystallographic Data Centre
#                                CCDC 
#
#######################################################################
#
# If this CIF has been generated from an entry in the Cambridge 
# Structural Database, then it will include bibliographic, chemical, 
# crystal, experimental, refinement or atomic coordinate data resulting 
# from the CCDC's data processing and validation procedures.
#
#######################################################################

data_RENMUV
_chemical_formula_moiety         'C48 H50 N4 O2,2(C6 H4 Cl2)'
_chemical_name_systematic        
"5,8,15,18-tetrabutyl-5,8,15,18-tetrahydroindolo[3,2-a]indolo[3',2':5,6]quinolino[3,2-i]acridine-10,20-dione 1,2-dichlorobenzene solvate"
_symmetry_cell_setting           triclinic
_symmetry_space_group_name_H-M   'P -1'
_symmetry_Int_Tables_number      2
_space_group_name_Hall           '-P 1'
loop_
_symmetry_equiv_pos_site_id
_symmetry_equiv_pos_as_xyz
1 x,y,z
2 -x,-y,-z
_cell_length_a                   9.0158(6)
_cell_length_b                   12.2248(7)
_cell_length_c                   13.1669(8)
_cell_angle_alpha                108.2030(10)
_cell_angle_beta                 99.3240(10)
_cell_angle_gamma                107.0880(10)
_cell_volume                     1265.2
_cell_formula_units_Z            1
loop_
_atom_site_label
_atom_site_type_symbol
_atom_site_fract_x
_atom_site_fract_y
_atom_site_fract_z
Cl1 Cl 0.11170(10) 0.47353(8) 0.37202(7)
Cl2 Cl 0.02745(10) 0.60751(8) 0.21242(7)
C1 C -0.0229(4) 0.4480(3) 0.1619(3)
C2 C 0.0169(3) 0.3895(3) 0.2302(3)
C3 C -0.1022(4) 0.3793(3) 0.0501(3)
H1 H -0.1321 0.4179 0.0040
C4 C -0.0188(4) 0.2630(3) 0.1875(3)
H2 H 0.0083 0.2239 0.2339
C5 C -0.0952(5) 0.1952(3) 0.0753(3)
H3 H -0.1183 0.1104 0.0459
C6 C -0.1368(4) 0.2528(3) 0.0073(3)
H4 H -0.1886 0.2067 -0.0680
N1 N -0.3307(3) 0.8491(2) 0.41468(18)
O1 O -0.1487(3) 1.1101(2) 0.73350(18)
C7 C -0.4167(3) 0.9221(2) 0.4557(2)
N2 N 0.2490(3) 0.8935(2) 0.6767(2)
C8 C -0.1874(3) 0.8584(2) 0.4820(2)
C9 C -0.3523(3) 1.0146(2) 0.5646(2)
C10 C -0.5659(3) 0.9095(2) 0.3934(2)
H5 H -0.6117 0.8485 0.3221
C11 C 0.0309(3) 0.9531(2) 0.6574(2)
C12 C -0.3967(3) 0.7578(2) 0.2993(2)
H6 H -0.3082 0.7466 0.2696
H7 H -0.4553 0.7893 0.2543
C13 C 0.1044(3) 0.8723(3) 0.6055(2)
C14 C -0.1102(3) 0.7765(3) 0.4379(2)
H8 H -0.1585 0.7162 0.3663
C15 C -0.1187(3) 0.9469(2) 0.5930(2)
C16 C 0.0334(3) 0.7837(3) 0.4978(2)
H9 H 0.0831 0.7298 0.4669
C17 C -0.1996(3) 1.0304(3) 0.6387(2)
C18 C 0.1395(3) 1.0272(3) 0.7695(2)
C19 C 0.2721(3) 0.9869(3) 0.7758(2)
C20 C 0.1418(3) 1.1218(3) 0.8650(2)
H10 H 0.0565 1.1498 0.8647
C21 C 0.3622(3) 0.8328(3) 0.6483(3)
H11 H 0.4708 0.8894 0.6923
H12 H 0.3575 0.8157 0.5705
C22 C 0.4018(4) 1.1319(3) 0.9614(3)
H13 H 0.4884 1.1688 1.0254
C23 C 0.4039(4) 1.0395(3) 0.8718(3)
H14 H 0.4897 1.0119 0.8741
C24 C -0.5092(3) 0.6333(3) 0.2909(2)
H15 H -0.6028 0.6431 0.3142
H16 H -0.4537 0.6052 0.3411
C25 C -0.5653(4) 0.5355(3) 0.1731(3)
H17 H -0.6111 0.5674 0.1220
H18 H -0.6501 0.4627 0.1695
C26 C 0.2713(4) 1.1725(3) 0.9590(3)
H19 H 0.2721 1.2347 1.0218
C27 C -0.4296(4) 0.4975(3) 0.1349(3)
H20 H -0.4722 0.4363 0.0603
H21 H -0.3857 0.4636 0.1837
H22 H -0.3460 0.5687 0.1369
C28 C 0.3305(5) 0.7133(4) 0.6672(4)
H23 H 0.2183 0.6595 0.6305
H24 H 0.3498 0.7308 0.7463
C29 C 0.4415(6) 0.6469(4) 0.6209(5)
H25 H 0.4038 0.5629 0.6184
H26 H 0.4371 0.6429 0.5457
C30 C 0.6065(7) 0.7128(6) 0.6908(6)
H27 H 0.6740 0.6707 0.6613
H28 H 0.6108 0.7157 0.7650
H29 H 0.6440 0.7955 0.6925
N1A N -0.6693(3) 1.1509(2) 0.58532(18)
O1A O -0.8513(3) 0.8899(2) 0.26650(18)
C7A C -0.5833(3) 1.0779(2) 0.5443(2)
N2A N -1.2490(3) 1.1065(2) 0.3233(2)
C8A C -0.8126(3) 1.1416(2) 0.5180(2)
C9A C -0.6477(3) 0.9854(2) 0.4354(2)
C10A C -0.4341(3) 1.0905(2) 0.6066(2)
H5A H -0.3883 1.1515 0.6779
C11A C -1.0309(3) 1.0469(2) 0.3426(2)
C12A C -0.6033(3) 1.2422(2) 0.7007(2)
H6A H -0.6918 1.2534 0.7304
H7A H -0.5447 1.2107 0.7457
C13A C -1.1044(3) 1.1277(3) 0.3945(2)
C14A C -0.8898(3) 1.2235(3) 0.5621(2)
H8A H -0.8415 1.2838 0.6337
C15A C -0.8813(3) 1.0531(2) 0.4070(2)
C16A C -1.0334(3) 1.2163(3) 0.5022(2)
H9A H -1.0831 1.2702 0.5331
C17A C -0.8004(3) 0.9696(3) 0.3613(2)
C18A C -1.1395(3) 0.9728(3) 0.2305(2)
C19A C -1.2721(3) 1.0131(3) 0.2242(2)
C20A C -1.1418(3) 0.8782(3) 0.1350(2)
H10A H -1.0565 0.8502 0.1353
C21A C -1.3622(3) 1.1672(3) 0.3517(3)
H11A H -1.4708 1.1106 0.3077
H12A H -1.3575 1.1843 0.4295
C22A C -1.4018(4) 0.8681(3) 0.0386(3)
H13A H -1.4884 0.8312 -0.0254
C23A C -1.4039(4) 0.9605(3) 0.1282(3)
H14A H -1.4897 0.9881 0.1259
C24A C -0.4908(3) 1.3667(3) 0.7091(2)
H15A H -0.3972 1.3569 0.6858
H16A H -0.5463 1.3948 0.6589
C25A C -0.4347(4) 1.4645(3) 0.8269(3)
H17A H -0.3889 1.4326 0.8780
H18A H -0.3499 1.5373 0.8305
C26A C -1.2713(4) 0.8275(3) 0.0410(3)
H19A H -1.2721 0.7653 -0.0218
C27A C -0.5704(4) 1.5025(3) 0.8651(3)
H20A H -0.5278 1.5637 0.9397
H21A H -0.6143 1.5364 0.8163
H22A H -0.6540 1.4313 0.8631
C28A C -1.3305(5) 1.2867(4) 0.3328(4)
H23A H -1.2183 1.3405 0.3695
H24A H -1.3498 1.2692 0.2537
C29A C -1.4415(6) 1.3531(4) 0.3791(5)
H25A H -1.4038 1.4371 0.3816
H26A H -1.4371 1.3571 0.4543
C30A C -1.6065(7) 1.2872(6) 0.3092(6)
H27A H -1.6740 1.3293 0.3387
H28A H -1.6108 1.2843 0.2350
H29A H -1.6440 1.2045 0.3075
loop_
_geom_bond_atom_site_label_1
_geom_bond_atom_site_label_2
_geom_bond_site_symmetry_1
_geom_bond_site_symmetry_2
Cl1 C2 1_555 1_555
Cl2 C1 1_555 1_555
C1 C2 1_555 1_555
C2 C4 1_555 1_555
C3 C1 1_555 1_555
H1 C3 1_555 1_555
C4 H2 1_555 1_555
C5 C4 1_555 1_555
H3 C5 1_555 1_555
C6 C3 1_555 1_555
H4 C6 1_555 1_555
N1 C7 1_555 1_555
O1 C17 1_555 1_555
C7 C9 1_555 1_555
N2 C13 1_555 1_555
C8 N1 1_555 1_555
C9 C17 1_555 1_555
C10 C7 1_555 1_555
H5 C10 1_555 1_555
C11 C13 1_555 1_555
C12 N1 1_555 1_555
H6 C12 1_555 1_555
H7 C12 1_555 1_555
C13 C16 1_555 1_555
C14 C8 1_555 1_555
H8 C14 1_555 1_555
C15 C8 1_555 1_555
C16 C14 1_555 1_555
H9 C16 1_555 1_555
C17 C15 1_555 1_555
C18 C11 1_555 1_555
C19 N2 1_555 1_555
C20 C18 1_555 1_555
H10 C20 1_555 1_555
C21 N2 1_555 1_555
H11 C21 1_555 1_555
H12 C21 1_555 1_555
C22 H13 1_555 1_555
C23 C19 1_555 1_555
H14 C23 1_555 1_555
C24 C12 1_555 1_555
H15 C24 1_555 1_555
H16 C24 1_555 1_555
C25 C24 1_555 1_555
H17 C25 1_555 1_555
H18 C25 1_555 1_555
C26 C20 1_555 1_555
H19 C26 1_555 1_555
C27 C25 1_555 1_555
H20 C27 1_555 1_555
H21 C27 1_555 1_555
H22 C27 1_555 1_555
C28 C21 1_555 1_555
H23 C28 1_555 1_555
H24 C28 1_555 1_555
C29 C28 1_555 1_555
H25 C29 1_555 1_555
H26 C29 1_555 1_555
C30 C29 1_555 1_555
H27 C30 1_555 1_555
H28 C30 1_555 1_555
H29 C30 1_555 1_555
N1A C7A 1_555 1_555
O1A C17A 1_555 1_555
C7A C9A 1_555 1_555
N2A C13A 1_555 1_555
C8A N1A 1_555 1_555
C9A C10 1_555 1_555
C10A C9 1_555 1_555
H5A C10A 1_555 1_555
C11A C13A 1_555 1_555
C12A N1A 1_555 1_555
H6A C12A 1_555 1_555
H7A C12A 1_555 1_555
C13A C16A 1_555 1_555
C14A C8A 1_555 1_555
H8A C14A 1_555 1_555
C15A C8A 1_555 1_555
C16A C14A 1_555 1_555
H9A C16A 1_555 1_555
C17A C9A 1_555 1_555
C18A C11A 1_555 1_555
C19A N2A 1_555 1_555
C20A C18A 1_555 1_555
H10A C20A 1_555 1_555
C21A N2A 1_555 1_555
H11A C21A 1_555 1_555
H12A C21A 1_555 1_555
C22A H13A 1_555 1_555
C23A C19A 1_555 1_555
H14A C23A 1_555 1_555
C24A C12A 1_555 1_555
H15A C24A 1_555 1_555
H16A C24A 1_555 1_555
C25A C24A 1_555 1_555
H17A C25A 1_555 1_555
H18A C25A 1_555 1_555
C26A C20A 1_555 1_555
H19A C26A 1_555 1_555
C27A C25A 1_555 1_555
H20A C27A 1_555 1_555
H21A C27A 1_555 1_555
H22A C27A 1_555 1_555
C28A C21A 1_555 1_555
H23A C28A 1_555 1_555
H24A C28A 1_555 1_555
C29A C28A 1_555 1_555
H25A C29A 1_555 1_555
H26A C29A 1_555 1_555
C30A C29A 1_555 1_555
H27A C30A 1_555 1_555
H28A C30A 1_555 1_555
H29A C30A 1_555 1_555
C5 C6 1_555 1_555
C11 C15 1_555 1_555
C18 C19 1_555 1_555
C22 C23 1_555 1_555
C22 C26 1_555 1_555
C7A C10A 1_555 1_555
C11A C15A 1_555 1_555
C15A C17A 1_555 1_555
C18A C19A 1_555 1_555
C22A C23A 1_555 1_555
C22A C26A 1_555 1_555

#END
