
#######################################################################
#
#                 Cambridge Crystallographic Data Centre
#                                CCDC 
#
#######################################################################
#
# If this CIF has been generated from an entry in the Cambridge 
# Structural Database, then it will include bibliographic, chemical, 
# crystal, experimental, refinement or atomic coordinate data resulting 
# from the CCDC's data processing and validation procedures.
#
#######################################################################

data_RENPOR
_chemical_formula_moiety         'C29 H31 N1 O5 S1'
_chemical_name_systematic        
'Methyl (2R*,3S*)-2-butoxy-1-((4-methylphenyl)sulfonyl)-4-phenyl-2,3-dihydro-1H-1-benzazepine-3-carboxylate'
_symmetry_cell_setting           monoclinic
_symmetry_space_group_name_H-M   'C 2/c'
_symmetry_Int_Tables_number      15
_space_group_name_Hall           '-C 2yn'
loop_
_symmetry_equiv_pos_site_id
_symmetry_equiv_pos_as_xyz
1 x,y,z
2 -x,y,1/2-z
3 1/2+x,1/2+y,z
4 1/2-x,1/2+y,1/2-z
5 -x,-y,-z
6 x,-y,1/2+z
7 1/2-x,1/2-y,-z
8 1/2+x,1/2-y,1/2+z
_cell_length_a                   27.970(2)
_cell_length_b                   10.9798(8)
_cell_length_c                   18.1836(14)
_cell_angle_alpha                90
_cell_angle_beta                 109.909(1)
_cell_angle_gamma                90
_cell_volume                     5250.53
_exptl_crystal_colour            colorless
_exptl_crystal_description       prismatic
_chemical_melting_point          '127-129 deg.C'
_cell_formula_units_Z            8
loop_
_atom_site_label
_atom_site_type_symbol
_atom_site_fract_x
_atom_site_fract_y
_atom_site_fract_z
S1 S 0.13332(2) 0.23649(5) 0.40028(3)
N1 N 0.13928(6) 0.19728(16) 0.31626(10)
O1 O 0.08280(6) 0.21716(14) 0.18727(9)
O2 O 0.02358(7) -0.01446(19) 0.15588(13)
O3 O 0.08218(8) -0.11439(18) 0.12111(11)
O4 O 0.08086(7) 0.26160(16) 0.38414(11)
O5 O 0.17050(7) 0.32805(14) 0.43373(10)
C1 C 0.09701(8) 0.1418(2) 0.25339(13)
H1 H 0.0680 0.1284 0.2710
C2 C 0.11288(8) 0.02152(19) 0.22543(13)
H2 H 0.1360 0.0439 0.1975
C3 C 0.14299(8) -0.06423(19) 0.29101(13)
C4 C 0.19042(8) -0.03338(19) 0.33310(14)
H3 H 0.2091 -0.0881 0.3711
C5 C 0.21570(8) 0.0803(2) 0.32432(13)
C6 C 0.19003(8) 0.19121(19) 0.31327(12)
C7 C 0.21397(9) 0.2982(2) 0.30404(13)
H4 H 0.1962 0.3715 0.2956
C8 C 0.26358(10) 0.2958(3) 0.30735(15)
H5 H 0.2794 0.3673 0.3005
C9 C 0.29015(10) 0.1880(3) 0.32084(16)
H6 H 0.3241 0.1872 0.3244
C10 C 0.26649(9) 0.0808(2) 0.32906(16)
H7 H 0.2847 0.0082 0.3379
C11 C 0.12117(8) -0.17991(19) 0.30729(13)
C12 C 0.07177(9) -0.1875(2) 0.30844(15)
H8 H 0.0505 -0.1199 0.2950
C13 C 0.05408(11) -0.2950(3) 0.32943(17)
H9 H 0.0210 -0.2986 0.3300
C14 C 0.08421(12) -0.3957(3) 0.34923(18)
H10 H 0.0719 -0.4674 0.3633
C15 C 0.13282(12) -0.3899(2) 0.34808(19)
H11 H 0.1537 -0.4582 0.3616
C16 C 0.15099(10) -0.2841(2) 0.32711(16)
H12 H 0.1840 -0.2822 0.3262
C17 C 0.06690(10) -0.0355(2) 0.16468(15)
C18 C 0.04200(16) -0.1744(4) 0.0593(2)
H13 H 0.0211 -0.2202 0.0816
H14 H 0.0567 -0.2284 0.0313
H15 H 0.0216 -0.1144 0.0240
C19 C 0.05092(11) 0.3172(3) 0.19085(19)
H16 H 0.0675 0.3665 0.2367
H17 H 0.0190 0.2876 0.1939
C20 C 0.04158(14) 0.3911(3) 0.1181(2)
H18 H 0.0142 0.4484 0.1127
H19 H 0.0314 0.3379 0.0728
C21 C 0.09180(16) 0.4634(4) 0.1219(2)
H20 H 0.0960 0.5327 0.1567
H21 H 0.1210 0.4105 0.1436
C22 C 0.0903(2) 0.5059(5) 0.0457(3)
H22 H 0.0793 0.4408 0.0084
H23 H 0.1236 0.5324 0.0485
H24 H 0.0668 0.5727 0.0295
C23 C 0.14931(8) 0.1066(2) 0.46025(12)
C24 C 0.19947(9) 0.0854(2) 0.50449(14)
H25 H 0.2244 0.1427 0.5066
C25 C 0.21188(11) -0.0220(3) 0.54542(16)
H26 H 0.2457 -0.0374 0.5748
C26 C 0.17540(11) -0.1075(2) 0.54397(15)
C27 C 0.12574(10) -0.0830(2) 0.50073(16)
H27 H 0.1007 -0.1392 0.5001
C28 C 0.11212(9) 0.0225(2) 0.45841(14)
H28 H 0.0783 0.0373 0.4288
C29 C 0.18969(16) -0.2266(3) 0.5885(2)
H29 H 0.1608 -0.2580 0.5995
H30 H 0.2171 -0.2127 0.6367
H31 H 0.2002 -0.2844 0.5574
loop_
_geom_bond_atom_site_label_1
_geom_bond_atom_site_label_2
_geom_bond_site_symmetry_1
_geom_bond_site_symmetry_2
S1 N1 1_555 1_555
N1 C1 1_555 1_555
O1 C1 1_555 1_555
O2 C17 1_555 1_555
O3 C17 1_555 1_555
O4 S1 1_555 1_555
O5 S1 1_555 1_555
C1 H1 1_555 1_555
C2 C1 1_555 1_555
H2 C2 1_555 1_555
C3 C2 1_555 1_555
C4 C3 1_555 1_555
H3 C4 1_555 1_555
C5 C4 1_555 1_555
C6 N1 1_555 1_555
C7 C6 1_555 1_555
H4 C7 1_555 1_555
C8 C7 1_555 1_555
H5 C8 1_555 1_555
C9 C8 1_555 1_555
H6 C9 1_555 1_555
C10 C5 1_555 1_555
H7 C10 1_555 1_555
C11 C3 1_555 1_555
C12 C11 1_555 1_555
H8 C12 1_555 1_555
C13 C12 1_555 1_555
H9 C13 1_555 1_555
C14 C13 1_555 1_555
H10 C14 1_555 1_555
C15 C14 1_555 1_555
H11 C15 1_555 1_555
C16 C11 1_555 1_555
H12 C16 1_555 1_555
C17 C2 1_555 1_555
C18 O3 1_555 1_555
H13 C18 1_555 1_555
H14 C18 1_555 1_555
H15 C18 1_555 1_555
C19 O1 1_555 1_555
H16 C19 1_555 1_555
H17 C19 1_555 1_555
C20 C19 1_555 1_555
H18 C20 1_555 1_555
H19 C20 1_555 1_555
C21 C20 1_555 1_555
H20 C21 1_555 1_555
H21 C21 1_555 1_555
C22 C21 1_555 1_555
H22 C22 1_555 1_555
H23 C22 1_555 1_555
H24 C22 1_555 1_555
C23 S1 1_555 1_555
C24 C23 1_555 1_555
H25 C24 1_555 1_555
C25 C24 1_555 1_555
H26 C25 1_555 1_555
C26 C25 1_555 1_555
C27 C26 1_555 1_555
H27 C27 1_555 1_555
C28 C23 1_555 1_555
H28 C28 1_555 1_555
C29 C26 1_555 1_555
H29 C29 1_555 1_555
H30 C29 1_555 1_555
H31 C29 1_555 1_555
C5 C6 1_555 1_555
C9 C10 1_555 1_555
C15 C16 1_555 1_555
C27 C28 1_555 1_555

#END
