
#######################################################################
#
#                 Cambridge Crystallographic Data Centre
#                                CCDC 
#
#######################################################################
#
# If this CIF has been generated from an entry in the Cambridge 
# Structural Database, then it will include bibliographic, chemical, 
# crystal, experimental, refinement or atomic coordinate data resulting 
# from the CCDC's data processing and validation procedures.
#
#######################################################################

data_RENPIK
_chemical_formula_moiety         'H4 Na1 O2 1+,C32 H12 B1 F24 1-'
_chemical_name_systematic        
'Diaqua-sodium tetrakis(3,5-bis(trifluoromethyl)phenyl)borate'
_symmetry_cell_setting           tetragonal
_symmetry_space_group_name_H-M   'P 4/n'
_symmetry_Int_Tables_number      85
_space_group_name_Hall           '-P 4a'
loop_
_symmetry_equiv_pos_site_id
_symmetry_equiv_pos_as_xyz
1 x,y,z
2 1/2-y,x,z
3 y,1/2-x,z
4 1/2-x,1/2-y,z
5 -x,-y,-z
6 1/2+y,-x,-z
7 -y,1/2+x,-z
8 1/2+x,1/2+y,-z
_cell_length_a                   13.8310(2)
_cell_length_b                   13.8310(2)
_cell_length_c                   9.8480(2)
_cell_angle_alpha                90
_cell_angle_beta                 90
_cell_angle_gamma                90
_cell_volume                     1883.89
_cell_formula_units_Z            2
_exptl_crystal_recrystallization_method ether/n-hexane
loop_
_atom_site_label
_atom_site_type_symbol
_atom_site_fract_x
_atom_site_fract_y
_atom_site_fract_z
B1 B 0.2500 0.7500 0.5000
C1 C 0.31390(13) 0.67945(12) 0.4002(2)
C2 C 0.41340(14) 0.66631(13) 0.4099(2)
H1 H 0.44740(14) 0.69926(13) 0.4770(2)
C3 C 0.4637(2) 0.60517(15) 0.3221(2)
C4 C 0.4161(2) 0.5550(2) 0.2214(2)
H2 H 0.4495(2) 0.5141(2) 0.1630(2)
C5 C 0.3173(2) 0.5671(2) 0.2096(2)
C6 C 0.2675(2) 0.62861(15) 0.2958(2)
H3 H 0.2012(2) 0.63640(15) 0.2840(2)
C7 C 0.5709(2) 0.5951(2) 0.3383(3)
C8 C 0.2630(3) 0.5124(3) 0.1032(4)
F1 F 0.3189(7) 0.4762(8) 0.0106(8)
F2 F 0.1900(10) 0.5491(8) 0.0617(11)
F3 F 0.2299(8) 0.4248(5) 0.1652(8)
F4 F 0.5966(3) 0.5768(7) 0.4698(5)
F5 F 0.6110(5) 0.5238(7) 0.2742(11)
F6 F 0.6199(3) 0.6722(5) 0.3151(13)
C1E C 0.17945(12) 0.68610(13) 0.5998(2)
C1F C 0.32055(12) 0.81390(13) 0.5998(2)
C1C C 0.18610(13) 0.82055(12) 0.4002(2)
C2E C 0.16631(13) 0.58660(14) 0.5901(2)
C2F C 0.33369(13) 0.91340(14) 0.5901(2)
C2C C 0.08660(14) 0.83369(13) 0.4099(2)
H1E H 0.19926(13) 0.55260(14) 0.5230(2)
H1F H 0.30074(13) 0.94740(14) 0.5230(2)
H1C H 0.05260(14) 0.80074(13) 0.4770(2)
C3E C 0.10517(15) 0.5363(2) 0.6779(2)
C3F C 0.39483(15) 0.9637(2) 0.6779(2)
C3C C 0.0363(2) 0.89483(15) 0.3221(2)
C4E C 0.0550(2) 0.5839(2) 0.7786(2)
C4F C 0.4450(2) 0.9161(2) 0.7786(2)
C4C C 0.0839(2) 0.9450(2) 0.2214(2)
H2E H 0.0141(2) 0.5505(2) 0.8370(2)
H2F H 0.4859(2) 0.9495(2) 0.8370(2)
H2C H 0.0505(2) 0.9859(2) 0.1630(2)
C5E C 0.0671(2) 0.6827(2) 0.7904(2)
C5F C 0.4329(2) 0.8173(2) 0.7904(2)
C5C C 0.1827(2) 0.9329(2) 0.2096(2)
C6E C 0.12861(15) 0.7325(2) 0.7042(2)
C6F C 0.37139(15) 0.7675(2) 0.7042(2)
C6C C 0.2325(2) 0.87139(15) 0.2958(2)
H3E H 0.13640(15) 0.7988(2) 0.7160(2)
H3F H 0.36360(15) 0.7012(2) 0.7160(2)
H3C H 0.2988(2) 0.86360(15) 0.2840(2)
C7E C 0.0951(2) 0.4291(2) 0.6617(3)
C7F C 0.4049(2) 1.0709(2) 0.6617(3)
C7C C -0.0709(2) 0.9049(2) 0.3383(3)
C8E C 0.0124(3) 0.7370(3) 0.8968(4)
C8F C 0.4876(3) 0.7630(3) 0.8968(4)
C8C C 0.2370(3) 0.9876(3) 0.1032(4)
F1E F -0.0238(8) 0.6811(7) 0.9894(8)
F1F F 0.5238(8) 0.8189(7) 0.9894(8)
F1C F 0.1811(7) 1.0238(8) 0.0106(8)
F2E F 0.0491(8) 0.8100(10) 0.9383(11)
F2F F 0.4509(8) 0.6900(10) 0.9383(11)
F2C F 0.3100(10) 0.9509(8) 0.0617(11)
F3E F -0.0752(5) 0.7701(8) 0.8348(8)
F3F F 0.5752(5) 0.7299(8) 0.8348(8)
F3C F 0.2701(8) 1.0752(5) 0.1652(8)
F4E F 0.0768(7) 0.4034(3) 0.5302(5)
F4F F 0.4232(7) 1.0966(3) 0.5302(5)
F4C F -0.0966(3) 0.9232(7) 0.4698(5)
F5E F 0.0238(7) 0.3890(5) 0.7258(11)
F5F F 0.4762(7) 1.1110(5) 0.7258(11)
F5C F -0.1110(5) 0.9762(7) 0.2742(11)
F6E F 0.1722(5) 0.3801(3) 0.6849(13)
F6F F 0.3278(5) 1.1199(3) 0.6849(13)
F6C F -0.1199(3) 0.8278(5) 0.3151(13)
Na1 Na 0.2500 0.2500 0.1491(3)
O1 O 0.2500 0.2500 -0.0722(5)
O2 O 0.2500 0.2500 0.3706(16)
F7? F 0.2713(8) 0.5658(10) -0.0276(7)
F8? F 0.1714(6) 0.5126(12) 0.1125(14)
F9? F 0.2941(9) 0.4300(7) 0.0750(15)
F10? F 0.6079(4) 0.6521(14) 0.4189(19)
F11? F 0.6137(5) 0.6198(14) 0.2216(11)
F12? F 0.5949(6) 0.5108(8) 0.3574(24)
O3? O 0.2420(26) 0.1606(24) 0.3378(34)
loop_
_geom_bond_atom_site_label_1
_geom_bond_atom_site_label_2
_geom_bond_site_symmetry_1
_geom_bond_site_symmetry_2
B1 C1 1_555 1_555
C1 C2 1_555 1_555
C2 H1 1_555 1_555
C3 C2 1_555 1_555
C4 C3 1_555 1_555
H2 C4 1_555 1_555
C5 C4 1_555 1_555
C6 C1 1_555 1_555
H3 C6 1_555 1_555
C7 C3 1_555 1_555
C8 C5 1_555 1_555
F1 C8 1_555 1_555
F2 C8 1_555 1_555
F3 C8 1_555 1_555
F4 C7 1_555 1_555
F5 C7 1_555 1_555
F6 C7 1_555 1_555
Na1 O1 1_555 1_555
O2 Na1 1_555 1_555
C1E B1 1_555 1_555
C1F B1 1_555 1_555
C1C B1 1_555 1_555
C2E C1E 1_555 1_555
C2F C1F 1_555 1_555
C2C C1C 1_555 1_555
H1E C2E 1_555 1_555
H1F C2F 1_555 1_555
H1C C2C 1_555 1_555
C3E C2E 1_555 1_555
C3F C2F 1_555 1_555
C3C C2C 1_555 1_555
C4E C3E 1_555 1_555
C4F C3F 1_555 1_555
C4C C3C 1_555 1_555
H2E C4E 1_555 1_555
H2F C4F 1_555 1_555
H2C C4C 1_555 1_555
C5E C4E 1_555 1_555
C5F C4F 1_555 1_555
C5C C4C 1_555 1_555
C6E C1E 1_555 1_555
C6F C1F 1_555 1_555
C6C C1C 1_555 1_555
H3E C6E 1_555 1_555
H3F C6F 1_555 1_555
H3C C6C 1_555 1_555
C7E C3E 1_555 1_555
C7F C3F 1_555 1_555
C7C C3C 1_555 1_555
C8E C5E 1_555 1_555
C8F C5F 1_555 1_555
C8C C5C 1_555 1_555
F1E C8E 1_555 1_555
F1F C8F 1_555 1_555
F1C C8C 1_555 1_555
F2E C8E 1_555 1_555
F2F C8F 1_555 1_555
F2C C8C 1_555 1_555
F3E C8E 1_555 1_555
F3F C8F 1_555 1_555
F3C C8C 1_555 1_555
F4E C7E 1_555 1_555
F4F C7F 1_555 1_555
F4C C7C 1_555 1_555
F5E C7E 1_555 1_555
F5F C7F 1_555 1_555
F5C C7C 1_555 1_555
F6E C7E 1_555 1_555
F6F C7F 1_555 1_555
F6C C7C 1_555 1_555
C5 C6 1_555 1_555
C5E C6E 1_555 1_555
C5F C6F 1_555 1_555
C5C C6C 1_555 1_555

#END
