
#######################################################################
#
#                 Cambridge Crystallographic Data Centre
#                                CCDC 
#
#######################################################################
#
# If this CIF has been generated from an entry in the Cambridge 
# Structural Database, then it will include bibliographic, chemical, 
# crystal, experimental, refinement or atomic coordinate data resulting 
# from the CCDC's data processing and validation procedures.
#
#######################################################################

data_RENVOX
_chemical_formula_moiety         'C23 H37 N3'
_chemical_name_systematic        
N-(3,7-Di-t-butyl-2,8-diazatetracyclo[7.4.0.0^1,6^.0^4,9^]trideca-2,7-dien-5-ylidene)-2-methylpropan-2-amine
_symmetry_cell_setting           triclinic
_symmetry_space_group_name_H-M   'P -1'
_symmetry_Int_Tables_number      2
_space_group_name_Hall           '-P 1'
loop_
_symmetry_equiv_pos_site_id
_symmetry_equiv_pos_as_xyz
1 x,y,z
2 -x,-y,-z
_cell_length_a                   10.110(2)
_cell_length_b                   10.568(2)
_cell_length_c                   11.347(2)
_cell_angle_alpha                75.90(3)
_cell_angle_beta                 74.22(3)
_cell_angle_gamma                73.19(3)
_cell_volume                     1098.75
_cell_formula_units_Z            2
loop_
_atom_site_label
_atom_site_type_symbol
_atom_site_fract_x
_atom_site_fract_y
_atom_site_fract_z
C1 C 0.7331(2) 1.0036(2) 0.6566(2)
C2 C 0.5813(2) 1.0198(2) 0.6397(2)
H1 H 0.5658 1.0392 0.5549
C3 C 0.5003(2) 1.1217(2) 0.7245(2)
C4 C 0.6829(2) 0.9890(2) 0.8001(2)
C5 C 0.6474(2) 0.8500(2) 0.8146(2)
H2 H 0.6207 0.8004 0.8989
C6 C 0.7810(2) 0.7846(2) 0.7282(2)
C7 C 0.8077(2) 1.1169(2) 0.5938(2)
H3 H 0.8521 1.1079 0.5080
H4 H 0.7392 1.2028 0.5940
C8 C 0.9195(2) 1.1115(3) 0.6631(3)
H5 H 0.9613 1.1878 0.6266
H6 H 0.9939 1.0304 0.6535
C9 C 0.8570(3) 1.1132(2) 0.8023(3)
H7 H 0.7848 1.1957 0.8119
H8 H 0.9310 1.1118 0.8422
C10 C 0.7918(2) 0.9927(2) 0.8669(2)
H9 H 0.8654 0.9100 0.8659
H10 H 0.7475 1.0004 0.9529
C11 C 0.8548(2) 0.6349(2) 0.7436(2)
C12 C 0.8731(3) 0.5814(3) 0.8778(3)
H11 H 0.9272 0.6314 0.8978
H12 H 0.9219 0.4882 0.8862
H13 H 0.7818 0.5912 0.9335
C13 C 0.9993(3) 0.6165(3) 0.6527(3)
H14 H 0.9864 0.6530 0.5692
H15 H 1.0448 0.5226 0.6590
H16 H 1.0571 0.6626 0.6728
C14 C 0.7662(3) 0.5566(3) 0.7145(3)
H17 H 0.6780 0.5628 0.7745
H18 H 0.8166 0.4640 0.7179
H19 H 0.7482 0.5936 0.6327
C15 C 0.3722(2) 1.2335(2) 0.7011(2)
C16 C 0.2966(3) 1.2868(3) 0.8216(3)
H20 H 0.2526 1.2205 0.8800
H21 H 0.2257 1.3676 0.8044
H22 H 0.3640 1.3058 0.8562
C17 C 0.4258(3) 1.3465(3) 0.6033(3)
H23 H 0.4918 1.3746 0.6322
H24 H 0.3473 1.4213 0.5899
H25 H 0.4719 1.3144 0.5266
C18 C 0.2709(3) 1.1874(3) 0.6542(4)
H26 H 0.3182 1.1565 0.5772
H27 H 0.1912 1.2610 0.6411
H28 H 0.2387 1.1155 0.7147
C19 C 0.5385(3) 0.8935(2) 0.7301(2)
C20 C 0.3567(3) 0.7607(2) 0.8169(3)
C21 C 0.4057(3) 0.6970(3) 0.9394(3)
H29 H 0.5016 0.6449 0.9218
H30 H 0.3456 0.6398 0.9905
H31 H 0.4007 0.7665 0.9826
C22 C 0.3621(3) 0.6522(3) 0.7482(3)
H32 H 0.3272 0.6930 0.6737
H33 H 0.3044 0.5934 0.8006
H34 H 0.4580 0.6015 0.7268
C23 C 0.2025(3) 0.8386(3) 0.8503(3)
H35 H 0.1968 0.9085 0.8932
H36 H 0.1463 0.7786 0.9030
H37 H 0.1676 0.8777 0.7756
N1 N 0.55391(19) 1.09971(17) 0.82049(19)
N2 N 0.8275(2) 0.87110(19) 0.6354(2)
N3 N 0.4307(2) 0.85913(18) 0.72540(19)
loop_
_geom_bond_atom_site_label_1
_geom_bond_atom_site_label_2
_geom_bond_site_symmetry_1
_geom_bond_site_symmetry_2
C1 C2 1_555 1_555
C2 H1 1_555 1_555
C3 C2 1_555 1_555
C4 C1 1_555 1_555
C5 C4 1_555 1_555
H2 C5 1_555 1_555
C6 C5 1_555 1_555
C7 C1 1_555 1_555
H3 C7 1_555 1_555
H4 C7 1_555 1_555
C8 C7 1_555 1_555
H5 C8 1_555 1_555
H6 C8 1_555 1_555
C9 C8 1_555 1_555
H7 C9 1_555 1_555
H8 C9 1_555 1_555
C10 C4 1_555 1_555
H9 C10 1_555 1_555
H10 C10 1_555 1_555
C11 C6 1_555 1_555
C12 C11 1_555 1_555
H11 C12 1_555 1_555
H12 C12 1_555 1_555
H13 C12 1_555 1_555
C13 C11 1_555 1_555
H14 C13 1_555 1_555
H15 C13 1_555 1_555
H16 C13 1_555 1_555
C14 C11 1_555 1_555
H17 C14 1_555 1_555
H18 C14 1_555 1_555
H19 C14 1_555 1_555
C15 C3 1_555 1_555
C16 C15 1_555 1_555
H20 C16 1_555 1_555
H21 C16 1_555 1_555
H22 C16 1_555 1_555
C17 C15 1_555 1_555
H23 C17 1_555 1_555
H24 C17 1_555 1_555
H25 C17 1_555 1_555
C18 C15 1_555 1_555
H26 C18 1_555 1_555
H27 C18 1_555 1_555
H28 C18 1_555 1_555
C19 C2 1_555 1_555
C20 C21 1_555 1_555
C21 H29 1_555 1_555
H30 C21 1_555 1_555
H31 C21 1_555 1_555
C22 C20 1_555 1_555
H32 C22 1_555 1_555
H33 C22 1_555 1_555
H34 C22 1_555 1_555
C23 C20 1_555 1_555
H35 C23 1_555 1_555
H36 C23 1_555 1_555
H37 C23 1_555 1_555
N1 C3 1_555 1_555
N2 C1 1_555 1_555
N3 C19 1_555 1_555
C4 N1 1_555 1_555
C5 C19 1_555 1_555
C6 N2 1_555 1_555
C9 C10 1_555 1_555
C20 N3 1_555 1_555

#END
