
#######################################################################
#
#                 Cambridge Crystallographic Data Centre
#                                CCDC 
#
#######################################################################
#
# If this CIF has been generated from an entry in the Cambridge 
# Structural Database, then it will include bibliographic, chemical, 
# crystal, experimental, refinement or atomic coordinate data resulting 
# from the CCDC's data processing and validation procedures.
#
#######################################################################

data_RENVIR
_chemical_formula_moiety         'C26 H35 N3'
_chemical_name_systematic        
N-(3,7-Di-t-butyl-2,8-diazatetracyclo[7.4.0.0^1,6^.0^4,9^]trideca-2,7-dien-5-ylidene)-1-phenylmethanamine
_symmetry_cell_setting           triclinic
_symmetry_space_group_name_H-M   'P -1'
_symmetry_Int_Tables_number      2
_space_group_name_Hall           '-P 1'
loop_
_symmetry_equiv_pos_site_id
_symmetry_equiv_pos_as_xyz
1 x,y,z
2 -x,-y,-z
_cell_length_a                   6.3716(13)
_cell_length_b                   17.628(4)
_cell_length_c                   21.553(4)
_cell_angle_alpha                112.68(3)
_cell_angle_beta                 90.21(3)
_cell_angle_gamma                92.14(3)
_cell_volume                     2231.62
_exptl_crystal_colour            colorless
_exptl_crystal_description       rod
_cell_formula_units_Z            4
loop_
_atom_site_label
_atom_site_type_symbol
_atom_site_fract_x
_atom_site_fract_y
_atom_site_fract_z
N1 N 0.5073(4) 0.14776(16) 0.31236(13)
N2 N 0.0814(4) 0.30682(16) 0.36388(13)
N3 N 0.4125(4) 0.27589(15) 0.49064(12)
C1 C 0.7303(5) 0.10986(19) 0.21167(16)
C2 C 0.5715(5) 0.0581(2) 0.17208(17)
H1 H 0.4365 0.0579 0.1906
C3 C 0.6046(6) 0.0070(2) 0.10639(18)
H2 H 0.4936 -0.0287 0.0803
C4 C 0.8011(7) 0.0075(2) 0.07788(19)
H3 H 0.8244 -0.0276 0.0325
C5 C 0.9601(7) 0.0593(2) 0.11634(19)
H4 H 1.0941 0.0601 0.0974
C6 C 0.9267(6) 0.1102(2) 0.18240(18)
H5 H 1.0379 0.1458 0.2083
C7 C 0.7062(5) 0.1641(2) 0.28452(16)
H6 H 0.8245 0.1558 0.3109
H7 H 0.7143 0.2223 0.2894
C8 C 0.4113(5) 0.20611(19) 0.35384(15)
C9 C 0.2252(5) 0.19263(18) 0.39427(15)
H8 H 0.1310 0.1426 0.3723
C10 C 0.1245(5) 0.27775(19) 0.41888(15)
C11 C 0.3332(4) 0.32351(18) 0.45242(15)
C12 C 0.4398(5) 0.30118(18) 0.38227(14)
H9 H 0.5836 0.3255 0.3816
C13 C 0.2631(5) 0.32323(19) 0.34498(15)
C14 C 0.2940(5) 0.3582(2) 0.29121(16)
C15 C 0.0820(6) 0.3713(3) 0.2649(2)
H10 H 0.1036 0.3970 0.2323
H11 H 0.0003 0.4073 0.3025
H12 H 0.0057 0.3181 0.2431
C16 C 0.4156(7) 0.4410(2) 0.32314(19)
H13 H 0.5502 0.4331 0.3414
H14 H 0.3334 0.4790 0.3595
H15 H 0.4411 0.4641 0.2890
C17 C 0.4211(6) 0.2995(2) 0.23335(18)
H16 H 0.3520 0.2446 0.2164
H17 H 0.5631 0.2967 0.2497
H18 H 0.4293 0.3199 0.1970
C18 C 0.3431(5) 0.20131(18) 0.45840(15)
C19 C 0.3861(5) 0.13135(19) 0.48071(16)
C20 C 0.1724(6) 0.0932(2) 0.4898(2)
H19 H 0.0930 0.1350 0.5242
H20 H 0.1956 0.0474 0.5038
H21 H 0.0929 0.0729 0.4471
C21 C 0.5107(7) 0.0669(2) 0.42601(19)
H22 H 0.4328 0.0485 0.3831
H23 H 0.5310 0.0197 0.4385
H24 H 0.6478 0.0912 0.4215
C22 C 0.5084(6) 0.1637(2) 0.54651(18)
H25 H 0.6428 0.1888 0.5407
H26 H 0.5343 0.1182 0.5606
H27 H 0.4274 0.2050 0.5809
C23 C -0.0577(5) 0.29228(19) 0.46683(16)
H28 H -0.0348 0.2641 0.4979
H29 H -0.1899 0.2693 0.4411
C24 C -0.0749(5) 0.3847(2) 0.50702(17)
H30 H -0.1100 0.4119 0.4760
H31 H -0.1899 0.3938 0.5395
C25 C 0.1292(5) 0.4230(2) 0.54465(16)
H32 H 0.1628 0.3963 0.5761
H33 H 0.1112 0.4822 0.5715
C26 C 0.3120(5) 0.41354(18) 0.49653(15)
H34 H 0.2862 0.4451 0.4681
H35 H 0.4440 0.4358 0.5227
N4 N 0.7155(4) 0.67504(16) 0.09344(13)
N5 N 1.1786(4) 0.75052(15) 0.21706(12)
N6 N 0.8225(4) 0.58477(15) 0.21934(12)
C27 C 0.5012(5) 0.75735(19) 0.04846(15)
C28 C 0.3081(5) 0.7850(2) 0.03960(17)
H36 H 0.1956 0.7828 0.0677
C29 C 0.2752(6) 0.8161(2) -0.00993(19)
H37 H 0.1416 0.8353 -0.0152
C30 C 0.4389(6) 0.8188(2) -0.05152(18)
H38 H 0.4171 0.8391 -0.0858
C31 C 0.6318(6) 0.7921(2) -0.04296(17)
H39 H 0.7442 0.7946 -0.0710
C32 C 0.6642(5) 0.7611(2) 0.00681(16)
H40 H 0.7983 0.7425 0.0123
C33 C 0.5299(5) 0.7236(2) 0.10242(16)
H41 H 0.5406 0.7701 0.1468
H42 H 0.4042 0.6890 0.1025
C34 C 0.8221(5) 0.67759(18) 0.14326(15)
C35 C 0.9962(5) 0.61823(18) 0.13801(15)
H43 H 1.0776 0.5979 0.0955
C36 C 1.1205(5) 0.66331(18) 0.20486(15)
C37 C 0.9218(5) 0.66891(18) 0.24784(15)
C38 C 0.8167(5) 0.72909(19) 0.22005(15)
H44 H 0.6807 0.7529 0.2397
C39 C 1.0077(5) 0.78852(19) 0.22849(15)
C40 C 0.9964(5) 0.8804(2) 0.24644(17)
C41 C 1.2163(6) 0.9179(2) 0.2467(2)
H45 H 1.3064 0.9072 0.2791
H46 H 1.2086 0.9774 0.2594
H47 H 1.2752 0.8931 0.2017
C42 C 0.9022(8) 0.9191(2) 0.3163(2)
H48 H 0.7652 0.8920 0.3166
H49 H 0.8844 0.9779 0.3275
H50 H 0.9965 0.9122 0.3496
C43 C 0.8576(7) 0.8965(2) 0.1955(2)
H51 H 0.9093 0.8668 0.1501
H52 H 0.8613 0.9556 0.2052
H53 H 0.7129 0.8774 0.1984
C44 C 0.8717(5) 0.55375(18) 0.15695(15)
C45 C 0.8041(5) 0.46887(19) 0.10834(16)
C46 C 0.6754(5) 0.4234(2) 0.14479(17)
H54 H 0.5474 0.4529 0.1622
H55 H 0.7594 0.4211 0.1822
H56 H 0.6376 0.3674 0.1132
C47 C 1.0014(6) 0.4207(2) 0.07911(19)
H57 H 1.0867 0.4170 0.1157
H58 H 1.0837 0.4493 0.0557
H59 H 0.9593 0.3652 0.0473
C48 C 0.6704(6) 0.4749(2) 0.05141(17)
H60 H 0.6255 0.4195 0.0201
H61 H 0.7536 0.5024 0.0274
H62 H 0.5466 0.5066 0.0702
C49 C 0.9648(5) 0.6974(2) 0.32241(15)
H63 H 0.8366 0.6886 0.3450
H64 H 1.0036 0.7570 0.3413
C50 C 1.1428(5) 0.6498(2) 0.33522(16)
H65 H 1.0958 0.5914 0.3216
H66 H 1.1770 0.6720 0.3840
C51 C 1.3416(5) 0.6551(2) 0.29657(16)
H67 H 1.3918 0.7133 0.3112
H68 H 1.4536 0.6243 0.3072
C52 C 1.2991(5) 0.61984(19) 0.22124(16)
H69 H 1.4269 0.6269 0.1977
H70 H 1.2625 0.5602 0.2056
loop_
_geom_bond_atom_site_label_1
_geom_bond_atom_site_label_2
_geom_bond_site_symmetry_1
_geom_bond_site_symmetry_2
N1 C7 1_555 1_555
N2 C10 1_555 1_555
N3 C11 1_555 1_555
C1 C2 1_555 1_555
C2 H1 1_555 1_555
C3 C2 1_555 1_555
H2 C3 1_555 1_555
C4 C3 1_555 1_555
H3 C4 1_555 1_555
C5 C4 1_555 1_555
H4 C5 1_555 1_555
C6 C1 1_555 1_555
H5 C6 1_555 1_555
C7 C1 1_555 1_555
H6 C7 1_555 1_555
H7 C7 1_555 1_555
C8 N1 1_555 1_555
C9 C8 1_555 1_555
H8 C9 1_555 1_555
C10 C9 1_555 1_555
C11 C10 1_555 1_555
C12 C8 1_555 1_555
H9 C12 1_555 1_555
C13 N2 1_555 1_555
C14 C13 1_555 1_555
C15 C14 1_555 1_555
H10 C15 1_555 1_555
H11 C15 1_555 1_555
H12 C15 1_555 1_555
C16 C14 1_555 1_555
H13 C16 1_555 1_555
H14 C16 1_555 1_555
H15 C16 1_555 1_555
C17 C14 1_555 1_555
H16 C17 1_555 1_555
H17 C17 1_555 1_555
H18 C17 1_555 1_555
C18 N3 1_555 1_555
C19 C18 1_555 1_555
C20 C19 1_555 1_555
H19 C20 1_555 1_555
H20 C20 1_555 1_555
H21 C20 1_555 1_555
C21 C19 1_555 1_555
H22 C21 1_555 1_555
H23 C21 1_555 1_555
H24 C21 1_555 1_555
C22 C19 1_555 1_555
H25 C22 1_555 1_555
H26 C22 1_555 1_555
H27 C22 1_555 1_555
C23 C10 1_555 1_555
H28 C23 1_555 1_555
H29 C23 1_555 1_555
C24 C23 1_555 1_555
H30 C24 1_555 1_555
H31 C24 1_555 1_555
C25 C24 1_555 1_555
H32 C25 1_555 1_555
H33 C25 1_555 1_555
C26 C11 1_555 1_555
H34 C26 1_555 1_555
H35 C26 1_555 1_555
N4 C33 1_555 1_555
N5 C36 1_555 1_555
N6 C37 1_555 1_555
C27 C28 1_555 1_555
C28 H36 1_555 1_555
C29 C28 1_555 1_555
H37 C29 1_555 1_555
C30 C29 1_555 1_555
H38 C30 1_555 1_555
C31 C30 1_555 1_555
H39 C31 1_555 1_555
C32 C27 1_555 1_555
H40 C32 1_555 1_555
C33 C27 1_555 1_555
H41 C33 1_555 1_555
H42 C33 1_555 1_555
C34 N4 1_555 1_555
C35 C34 1_555 1_555
H43 C35 1_555 1_555
C36 C35 1_555 1_555
C37 C36 1_555 1_555
C38 C34 1_555 1_555
H44 C38 1_555 1_555
C39 N5 1_555 1_555
C40 C39 1_555 1_555
C41 C40 1_555 1_555
H45 C41 1_555 1_555
H46 C41 1_555 1_555
H47 C41 1_555 1_555
C42 C40 1_555 1_555
H48 C42 1_555 1_555
H49 C42 1_555 1_555
H50 C42 1_555 1_555
C43 C40 1_555 1_555
H51 C43 1_555 1_555
H52 C43 1_555 1_555
H53 C43 1_555 1_555
C44 N6 1_555 1_555
C45 C44 1_555 1_555
C46 C45 1_555 1_555
H54 C46 1_555 1_555
H55 C46 1_555 1_555
H56 C46 1_555 1_555
C47 C45 1_555 1_555
H57 C47 1_555 1_555
H58 C47 1_555 1_555
H59 C47 1_555 1_555
C48 C45 1_555 1_555
H60 C48 1_555 1_555
H61 C48 1_555 1_555
H62 C48 1_555 1_555
C49 C37 1_555 1_555
H63 C49 1_555 1_555
H64 C49 1_555 1_555
C50 C49 1_555 1_555
H65 C50 1_555 1_555
H66 C50 1_555 1_555
C51 C50 1_555 1_555
H67 C51 1_555 1_555
H68 C51 1_555 1_555
C52 C36 1_555 1_555
H69 C52 1_555 1_555
H70 C52 1_555 1_555
C5 C6 1_555 1_555
C9 C18 1_555 1_555
C11 C12 1_555 1_555
C12 C13 1_555 1_555
C25 C26 1_555 1_555
C31 C32 1_555 1_555
C35 C44 1_555 1_555
C37 C38 1_555 1_555
C38 C39 1_555 1_555
C51 C52 1_555 1_555

#END
