
#######################################################################
#
#                 Cambridge Crystallographic Data Centre
#                                CCDC 
#
#######################################################################
#
# If this CIF has been generated from an entry in the Cambridge 
# Structural Database, then it will include bibliographic, chemical, 
# crystal, experimental, refinement or atomic coordinate data resulting 
# from the CCDC's data processing and validation procedures.
#
#######################################################################

data_RENWIS
_chemical_formula_moiety         'C44 H74 Ca1 O6'
_chemical_name_systematic        
bis(2,4-di-t-butylphenolato)-tetrakis(tetrahydrofuran)-calcium
_symmetry_cell_setting           monoclinic
_symmetry_space_group_name_H-M   'P 21/c'
_symmetry_Int_Tables_number      14
_space_group_name_Hall           '-P 2ybc'
loop_
_symmetry_equiv_pos_site_id
_symmetry_equiv_pos_as_xyz
1 x,y,z
2 -x,1/2+y,1/2-z
3 -x,-y,-z
4 x,1/2-y,1/2+z
_cell_length_a                   9.778(2)
_cell_length_b                   9.6717(19)
_cell_length_c                   22.946(5)
_cell_angle_alpha                90
_cell_angle_beta                 94.60(3)
_cell_angle_gamma                90
_cell_volume                     2163.01
_exptl_crystal_colour            colorless
_exptl_crystal_description       block
_chemical_melting_point          '349-353 K'
_cell_formula_units_Z            2
loop_
_atom_site_label
_atom_site_type_symbol
_atom_site_fract_x
_atom_site_fract_y
_atom_site_fract_z
Ca1 Ca 0.5000 0.0000 0.0000
O1 O 0.38312(11) -0.11834(11) 0.06150(5)
O2 O 0.40347(12) 0.21024(11) 0.03507(5)
O3 O 0.70327(12) 0.01449(12) 0.06842(5)
C1 C 0.27733(15) -0.22455(15) 0.14202(6)
C2 C 0.06742(16) -0.36354(16) 0.11925(7)
C3 C 0.16894(16) -0.30491(15) 0.15825(7)
H1 H 0.1632 -0.3214 0.1988
C4 C 0.28679(15) -0.19684(15) 0.08098(6)
C5 C 0.18650(17) -0.25874(16) 0.04203(7)
H2 H 0.1918 -0.2448 0.0013
C6 C 0.38409(16) -0.16545(17) 0.18810(7)
C7 C 0.08025(17) -0.33919(17) 0.06012(7)
H3 H 0.0153 -0.3782 0.0318
C8 C -0.04861(18) -0.44798(18) 0.14292(8)
C9 C 0.4689(2) 0.34277(17) 0.02933(8)
H4 H 0.4223 0.3964 -0.0032
H5 H 0.5665 0.3309 0.0218
C10 C 0.35735(18) -0.2094(2) 0.25039(7)
H6 H 0.2678 -0.1742 0.2599
H7 H 0.4293 -0.1716 0.2781
H8 H 0.3578 -0.3105 0.2530
C11 C 0.83397(18) -0.04231(19) 0.05473(8)
H9 H 0.8534 -0.0175 0.0144
H10 H 0.8335 -0.1443 0.0583
C12 C 0.52805(17) -0.2173(2) 0.17653(8)
H11 H 0.5310 -0.3183 0.1798
H12 H 0.5959 -0.1767 0.2053
H13 H 0.5490 -0.1899 0.1371
C13 C 0.72236(19) 0.09455(19) 0.12130(7)
H14 H 0.6477 0.0760 0.1470
H15 H 0.7234 0.1946 0.1123
C14 C 0.3372(2) 0.3444(2) 0.11321(8)
H16 H 0.2639 0.4116 0.1202
H17 H 0.3677 0.2989 0.1507
C15 C 0.4562(2) 0.4154(2) 0.08736(9)
H18 H 0.5415 0.4050 0.1133
H19 H 0.4372 0.5152 0.0813
C16 C 0.28652(18) 0.23788(18) 0.06757(8)
H20 H 0.2557 0.1527 0.0865
H21 H 0.2094 0.2753 0.0417
C17 C 0.37945(19) -0.00669(17) 0.18605(8)
H22 H 0.4017 0.0251 0.1474
H23 H 0.4464 0.0309 0.2160
H24 H 0.2873 0.0251 0.1935
C18 C 0.8587(2) 0.04958(19) 0.15046(8)
H25 H 0.8491 -0.0343 0.1746
H26 H 0.9015 0.1240 0.1753
C19 C -0.1253(2) -0.3606(2) 0.18505(9)
H27 H -0.1665 -0.2805 0.1642
H28 H -0.0610 -0.3289 0.2172
H29 H -0.1975 -0.4164 0.2007
C20 C 0.9407(2) 0.0199(2) 0.09841(9)
H30 H 0.9796 0.1058 0.0831
H31 H 1.0160 -0.0463 0.1088
C21 C -0.1518(3) -0.4979(3) 0.09447(11)
H32 H -0.1953 -0.4181 0.0743
H33 H -0.2220 -0.5543 0.1113
H34 H -0.1046 -0.5536 0.0666
C22 C 0.0111(2) -0.5747(2) 0.17729(13)
H35 H -0.0621 -0.6209 0.1966
H36 H 0.0828 -0.5442 0.2068
H37 H 0.0503 -0.6393 0.1503
O1B O 0.61688(11) 0.11834(11) -0.06150(5)
O2B O 0.59653(12) -0.21024(11) -0.03507(5)
O3B O 0.29673(12) -0.01449(12) -0.06842(5)
C1B C 0.72267(15) 0.22455(15) -0.14202(6)
C2B C 0.93258(16) 0.36354(16) -0.11925(7)
C3B C 0.83106(16) 0.30491(15) -0.15825(7)
H1B H 0.8368 0.3214 -0.1988
C4B C 0.71321(15) 0.19684(15) -0.08098(6)
C5B C 0.81350(17) 0.25874(16) -0.04203(7)
H2B H 0.8082 0.2448 -0.0013
C6B C 0.61591(16) 0.16545(17) -0.18810(7)
C7B C 0.91975(17) 0.33919(17) -0.06012(7)
H3B H 0.9847 0.3782 -0.0318
C8B C 1.04861(18) 0.44798(18) -0.14292(8)
C9B C 0.5311(2) -0.34277(17) -0.02933(8)
H4B H 0.5777 -0.3964 0.0032
H5B H 0.4335 -0.3309 -0.0218
C10B C 0.64265(18) 0.2094(2) -0.25039(7)
H6B H 0.7322 0.1742 -0.2599
H7B H 0.5707 0.1716 -0.2781
H8B H 0.6422 0.3105 -0.2530
C11B C 0.16603(18) 0.04231(19) -0.05473(8)
H9B H 0.1466 0.0175 -0.0144
H10B H 0.1665 0.1443 -0.0583
C12B C 0.47195(17) 0.2173(2) -0.17653(8)
H11B H 0.4690 0.3183 -0.1798
H12B H 0.4041 0.1767 -0.2053
H13B H 0.4510 0.1899 -0.1371
C13B C 0.27764(19) -0.09455(19) -0.12130(7)
H14B H 0.3523 -0.0760 -0.1470
H15B H 0.2766 -0.1946 -0.1123
C14B C 0.6628(2) -0.3444(2) -0.11321(8)
H16B H 0.7361 -0.4116 -0.1202
H17B H 0.6323 -0.2989 -0.1507
C15B C 0.5438(2) -0.4154(2) -0.08736(9)
H18B H 0.4585 -0.4050 -0.1133
H19B H 0.5628 -0.5152 -0.0813
C16B C 0.71348(18) -0.23788(18) -0.06757(8)
H20B H 0.7443 -0.1527 -0.0865
H21B H 0.7906 -0.2753 -0.0417
C17B C 0.62055(19) 0.00669(17) -0.18605(8)
H22B H 0.5983 -0.0251 -0.1474
H23B H 0.5536 -0.0309 -0.2160
H24B H 0.7127 -0.0251 -0.1935
C18B C 0.1413(2) -0.04958(19) -0.15046(8)
H25B H 0.1509 0.0343 -0.1746
H26B H 0.0985 -0.1240 -0.1753
C19B C 1.1253(2) 0.3606(2) -0.18505(9)
H27B H 1.1665 0.2805 -0.1642
H28B H 1.0610 0.3289 -0.2172
H29B H 1.1975 0.4164 -0.2007
C20B C 0.0593(2) -0.0199(2) -0.09841(9)
H30B H 0.0204 -0.1058 -0.0831
H31B H -0.0160 0.0463 -0.1088
C21B C 1.1518(3) 0.4979(3) -0.09447(11)
H32B H 1.1953 0.4181 -0.0743
H33B H 1.2220 0.5543 -0.1113
H34B H 1.1046 0.5536 -0.0666
C22B C 0.9889(2) 0.5747(2) -0.17729(13)
H35B H 1.0621 0.6209 -0.1966
H36B H 0.9172 0.5442 -0.2068
H37B H 0.9497 0.6393 -0.1503
loop_
_geom_bond_atom_site_label_1
_geom_bond_atom_site_label_2
_geom_bond_site_symmetry_1
_geom_bond_site_symmetry_2
Ca1 O1 1_555 1_555
O1 C4 1_555 1_555
O2 Ca1 1_555 1_555
O3 Ca1 1_555 1_555
C1 C3 1_555 1_555
C2 C3 1_555 1_555
C3 H1 1_555 1_555
C4 C1 1_555 1_555
C5 C4 1_555 1_555
H2 C5 1_555 1_555
C6 C1 1_555 1_555
C7 C2 1_555 1_555
H3 C7 1_555 1_555
C8 C2 1_555 1_555
C9 O2 1_555 1_555
H4 C9 1_555 1_555
H5 C9 1_555 1_555
C10 C6 1_555 1_555
H6 C10 1_555 1_555
H7 C10 1_555 1_555
H8 C10 1_555 1_555
C11 O3 1_555 1_555
H9 C11 1_555 1_555
H10 C11 1_555 1_555
C12 C6 1_555 1_555
H11 C12 1_555 1_555
H12 C12 1_555 1_555
H13 C12 1_555 1_555
C13 O3 1_555 1_555
H14 C13 1_555 1_555
H15 C13 1_555 1_555
C14 H16 1_555 1_555
H17 C14 1_555 1_555
C15 C9 1_555 1_555
H18 C15 1_555 1_555
H19 C15 1_555 1_555
C16 O2 1_555 1_555
H20 C16 1_555 1_555
H21 C16 1_555 1_555
C17 C6 1_555 1_555
H22 C17 1_555 1_555
H23 C17 1_555 1_555
H24 C17 1_555 1_555
C18 C13 1_555 1_555
H25 C18 1_555 1_555
H26 C18 1_555 1_555
C19 C8 1_555 1_555
H27 C19 1_555 1_555
H28 C19 1_555 1_555
H29 C19 1_555 1_555
C20 C11 1_555 1_555
H30 C20 1_555 1_555
H31 C20 1_555 1_555
C21 C8 1_555 1_555
H32 C21 1_555 1_555
H33 C21 1_555 1_555
H34 C21 1_555 1_555
C22 C8 1_555 1_555
H35 C22 1_555 1_555
H36 C22 1_555 1_555
H37 C22 1_555 1_555
O1B Ca1 1_555 1_555
O2B Ca1 1_555 1_555
O3B Ca1 1_555 1_555
C1B C3B 1_555 1_555
C2B C3B 1_555 1_555
C3B H1B 1_555 1_555
C4B O1B 1_555 1_555
C5B C4B 1_555 1_555
H2B C5B 1_555 1_555
C6B C1B 1_555 1_555
C7B C2B 1_555 1_555
H3B C7B 1_555 1_555
C8B C2B 1_555 1_555
C9B O2B 1_555 1_555
H4B C9B 1_555 1_555
H5B C9B 1_555 1_555
C10B C6B 1_555 1_555
H6B C10B 1_555 1_555
H7B C10B 1_555 1_555
H8B C10B 1_555 1_555
C11B O3B 1_555 1_555
H9B C11B 1_555 1_555
H10B C11B 1_555 1_555
C12B C6B 1_555 1_555
H11B C12B 1_555 1_555
H12B C12B 1_555 1_555
H13B C12B 1_555 1_555
C13B O3B 1_555 1_555
H14B C13B 1_555 1_555
H15B C13B 1_555 1_555
C14B H16B 1_555 1_555
H17B C14B 1_555 1_555
C15B C9B 1_555 1_555
H18B C15B 1_555 1_555
H19B C15B 1_555 1_555
C16B O2B 1_555 1_555
H20B C16B 1_555 1_555
H21B C16B 1_555 1_555
C17B C6B 1_555 1_555
H22B C17B 1_555 1_555
H23B C17B 1_555 1_555
H24B C17B 1_555 1_555
C18B C13B 1_555 1_555
H25B C18B 1_555 1_555
H26B C18B 1_555 1_555
C19B C8B 1_555 1_555
H27B C19B 1_555 1_555
H28B C19B 1_555 1_555
H29B C19B 1_555 1_555
C20B C11B 1_555 1_555
H30B C20B 1_555 1_555
H31B C20B 1_555 1_555
C21B C8B 1_555 1_555
H32B C21B 1_555 1_555
H33B C21B 1_555 1_555
H34B C21B 1_555 1_555
C22B C8B 1_555 1_555
H35B C22B 1_555 1_555
H36B C22B 1_555 1_555
H37B C22B 1_555 1_555
C5 C7 1_555 1_555
C14 C15 1_555 1_555
C14 C16 1_555 1_555
C18 C20 1_555 1_555
C1B C4B 1_555 1_555
C5B C7B 1_555 1_555
C14B C15B 1_555 1_555
C14B C16B 1_555 1_555
C18B C20B 1_555 1_555

#END
