
#######################################################################
#
#                 Cambridge Crystallographic Data Centre
#                                CCDC 
#
#######################################################################
#
# If this CIF has been generated from an entry in the Cambridge 
# Structural Database, then it will include bibliographic, chemical, 
# crystal, experimental, refinement or atomic coordinate data resulting 
# from the CCDC's data processing and validation procedures.
#
#######################################################################

data_RENWIQ
_chemical_formula_moiety         'C15 H15 Br1 O3'
_chemical_name_systematic        
'1-Methylethyl 2-((1-bromo-2-naphthyl)oxy)ethanoate'
_symmetry_cell_setting           monoclinic
_symmetry_space_group_name_H-M   'P 21'
_symmetry_Int_Tables_number      4
_space_group_name_Hall           'P 2yb'
loop_
_symmetry_equiv_pos_site_id
_symmetry_equiv_pos_as_xyz
1 x,y,z
2 -x,1/2+y,-z
_cell_length_a                   10.3369(4)
_cell_length_b                   4.7557(2)
_cell_length_c                   14.2208(7)
_cell_angle_alpha                90
_cell_angle_beta                 102.4951(18)
_cell_angle_gamma                90
_cell_volume                     682.525
_exptl_crystal_colour            colorless
_exptl_crystal_description       plate
_cell_formula_units_Z            2
_exptl_crystal_recrystallization_method 2-propanol
loop_
_atom_site_label
_atom_site_type_symbol
_atom_site_fract_x
_atom_site_fract_y
_atom_site_fract_z
Br1 Br 0.88045(4) 0.46057(13) 0.29285(3)
C1 C 0.6839(4) 0.9920(14) 0.0722(3)
C2 C 0.6901(5) 1.0579(11) -0.0237(4)
H1 H 0.6318 1.1956 -0.0579
C3 C 0.7779(5) 0.9277(16) -0.0677(3)
H2 H 0.7810 0.9748 -0.1321
C4 C 0.8640(6) 0.7234(12) -0.0176(4)
H3 H 0.9241 0.6309 -0.0492
C5 C 0.8636(5) 0.6537(11) 0.0763(4)
H4 H 0.9242 0.5179 0.1093
C6 C 0.7714(5) 0.7869(10) 0.1238(3)
C7 C 0.7635(5) 0.7257(10) 0.2203(3)
C8 C 0.6723(5) 0.8543(10) 0.2632(3)
C9 C 0.5840(5) 1.0563(11) 0.2109(4)
H5 H 0.5199 1.1446 0.2398
C10 C 0.5916(5) 1.1235(11) 0.1188(4)
H6 H 0.5334 1.2621 0.0850
O1 O 0.6745(3) 0.7845(8) 0.3571(2)
C11 C 0.5798(4) 0.9111(11) 0.4034(3)
H7 H 0.5779 1.1165 0.3919
H8 H 0.6068 0.8793 0.4737
C12 C 0.4420(5) 0.7905(10) 0.3663(3)
O2 O 0.3540(3) 0.9384(11) 0.4023(2)
O3 O 0.4171(4) 0.5876(9) 0.3152(3)
C13 C 0.2134(5) 0.8627(11) 0.3683(3)
H9 H 0.2043 0.6535 0.3641
C14 C 0.1424(4) 0.974(2) 0.4428(3)
H10 H 0.1766 0.8804 0.5045
H11 H 0.0472 0.9375 0.4219
H12 H 0.1574 1.1773 0.4503
C15 C 0.1626(5) 0.9914(16) 0.2690(3)
H13 H 0.1718 1.1964 0.2733
H14 H 0.0690 0.9423 0.2458
H15 H 0.2142 0.9184 0.2242
loop_
_geom_bond_atom_site_label_1
_geom_bond_atom_site_label_2
_geom_bond_site_symmetry_1
_geom_bond_site_symmetry_2
Br1 C7 1_555 1_555
C1 C2 1_555 1_555
C2 H1 1_555 1_555
C3 C2 1_555 1_555
H2 C3 1_555 1_555
C4 C3 1_555 1_555
H3 C4 1_555 1_555
C5 C4 1_555 1_555
H4 C5 1_555 1_555
C6 C1 1_555 1_555
C7 C6 1_555 1_555
C8 C7 1_555 1_555
C9 C8 1_555 1_555
H5 C9 1_555 1_555
C10 C1 1_555 1_555
H6 C10 1_555 1_555
O1 C8 1_555 1_555
C11 O1 1_555 1_555
H7 C11 1_555 1_555
H8 C11 1_555 1_555
C12 C11 1_555 1_555
O2 C12 1_555 1_555
O3 C12 1_555 1_555
C13 O2 1_555 1_555
H9 C13 1_555 1_555
C14 C13 1_555 1_555
H10 C14 1_555 1_555
H11 C14 1_555 1_555
H12 C14 1_555 1_555
C15 C13 1_555 1_555
H13 C15 1_555 1_555
H14 C15 1_555 1_555
H15 C15 1_555 1_555
C5 C6 1_555 1_555
C9 C10 1_555 1_555

#END
