
#######################################################################
#
#                 Cambridge Crystallographic Data Centre
#                                CCDC 
#
#######################################################################
#
# If this CIF has been generated from an entry in the Cambridge 
# Structural Database, then it will include bibliographic, chemical, 
# crystal, experimental, refinement or atomic coordinate data resulting 
# from the CCDC's data processing and validation procedures.
#
#######################################################################

data_RENWEO
_chemical_formula_moiety         'C76 H134 Ca2 O14'
_chemical_name_systematic        
(\m~2~-1,2-dimethoxyethane)-tetrakis(2,4-di-t-butylphenolato)-tetrakis(1,2-dimethoxyethane)-di-calcium
_symmetry_cell_setting           monoclinic
_symmetry_space_group_name_H-M   'C 2/c'
_symmetry_Int_Tables_number      15
_space_group_name_Hall           '-C 2yn'
loop_
_symmetry_equiv_pos_site_id
_symmetry_equiv_pos_as_xyz
1 x,y,z
2 -x,y,1/2-z
3 1/2+x,1/2+y,z
4 1/2-x,1/2+y,1/2-z
5 -x,-y,-z
6 x,-y,1/2+z
7 1/2-x,1/2-y,-z
8 1/2+x,1/2-y,1/2+z
_cell_length_a                   24.136(3)
_cell_length_b                   13.9781(14)
_cell_length_c                   25.508(4)
_cell_angle_alpha                90
_cell_angle_beta                 112.206(4)
_cell_angle_gamma                90
_cell_volume                     7967.49
_exptl_crystal_colour            colorless
_exptl_crystal_description       block
_chemical_melting_point          '273 deg.C'
_cell_formula_units_Z            4
loop_
_atom_site_label
_atom_site_type_symbol
_atom_site_fract_x
_atom_site_fract_y
_atom_site_fract_z
Ca1 Ca 0.29260(3) 0.80478(6) 0.15953(3)
O1 O 0.36201(12) 0.8178(2) 0.12403(12)
C1 C 0.40738(17) 0.7948(3) 0.11036(16)
O2 O 0.21880(12) 0.7897(2) 0.19175(11)
C2 C 0.44259(16) 0.8627(3) 0.09568(16)
O3 O 0.2928(2) 0.6250(2) 0.16627(17)
C3 C 0.48779(17) 0.8298(3) 0.07922(16)
H1 H 0.5107 0.8762 0.0690
O4 O 0.37787(17) 0.7370(4) 0.24112(18)
C4 C 0.5019(2) 0.7343(3) 0.07656(17)
O5 O 0.33399(14) 0.9385(2) 0.23025(14)
C5 C 0.4685(2) 0.6683(3) 0.09262(18)
H2 H 0.4772 0.6021 0.0926
O6 O 0.25104(17) 0.9655(2) 0.12531(14)
C6 C 0.4224(2) 0.6979(3) 0.10874(17)
H3 H 0.4001 0.6508 0.1191
O7 O 0.22823(13) 0.7630(2) 0.06163(12)
C7 C 0.43021(17) 0.9701(3) 0.09630(17)
C8 C 0.4342(2) 1.0007(3) 0.15498(18)
H4 H 0.4263 1.0695 0.1549
H5 H 0.4743 0.9869 0.1828
H6 H 0.4045 0.9655 0.1650
C9 C 0.3678(2) 0.9912(3) 0.0526(2)
H7 H 0.3584 1.0590 0.0546
H8 H 0.3384 0.9517 0.0606
H9 H 0.3667 0.9764 0.0147
C10 C 0.4750(2) 1.0310(3) 0.0817(2)
H10 H 0.4721 1.0157 0.0432
H11 H 0.5156 1.0174 0.1086
H12 H 0.4660 1.0989 0.0838
C11 C 0.5522(2) 0.7032(4) 0.05769(19)
C12 C 0.5853(4) 0.7963(6) 0.0438(4)
H13 H 0.6183 0.7749 0.0331
H14 H 0.6012 0.8370 0.0775
H15 H 0.5565 0.8327 0.0126
C13 C 0.6041(2) 0.6673(5) 0.1073(3)
H16 H 0.5934 0.6068 0.1204
H17 H 0.6148 0.7146 0.1379
H18 H 0.6383 0.6571 0.0962
C14 C 0.5322(4) 0.6489(9) 0.0074(4)
H19 H 0.5006 0.6840 -0.0224
H20 H 0.5164 0.5875 0.0141
H21 H 0.5657 0.6375 -0.0046
C15 C 0.20757(17) 0.8002(3) 0.23794(16)
C16 C 0.14915(17) 0.8137(3) 0.23806(16)
C17 C 0.14339(17) 0.8270(3) 0.28972(17)
H22 H 0.1042 0.8357 0.2893
C18 C 0.19078(18) 0.8284(3) 0.34211(16)
C19 C 0.24675(18) 0.8123(3) 0.34148(17)
H23 H 0.2805 0.8106 0.3762
C20 C 0.25470(18) 0.7987(3) 0.29094(17)
H24 H 0.2941 0.7877 0.2923
C21 C 0.09471(18) 0.8141(3) 0.18266(17)
C22 C 0.0910(2) 0.7182(3) 0.15232(19)
H25 H 0.1281 0.7076 0.1459
H26 H 0.0570 0.7193 0.1159
H27 H 0.0856 0.6664 0.1758
C23 C 0.0360(2) 0.8283(5) 0.1910(2)
H28 H 0.0311 0.7772 0.2152
H29 H 0.0026 0.8265 0.1542
H30 H 0.0365 0.8904 0.2090
C24 C 0.1004(2) 0.8963(3) 0.14563(19)
H31 H 0.0990 0.9574 0.1639
H32 H 0.0674 0.8934 0.1086
H33 H 0.1386 0.8909 0.1405
C25 C 0.1790(2) 0.8446(3) 0.39631(17)
C26 C 0.1425(2) 0.9353(3) 0.3921(2)
H34 H 0.1649 0.9907 0.3871
H35 H 0.1347 0.9432 0.4269
H36 H 0.1044 0.9303 0.3596
C27 C 0.1447(2) 0.7587(3) 0.4057(2)
H37 H 0.1060 0.7535 0.3740
H38 H 0.1381 0.7673 0.4410
H39 H 0.1679 0.7003 0.4080
C28 C 0.2375(2) 0.8538(4) 0.44820(19)
H40 H 0.2607 0.7947 0.4529
H41 H 0.2283 0.8649 0.4820
H42 H 0.2608 0.9077 0.4428
C29 C 0.2359(3) 0.5792(5) 0.1434(3)
H43 H 0.2410 0.5102 0.1504
H44 H 0.2178 0.5910 0.1026
H45 H 0.2099 0.6049 0.1616
C30 C 0.3255(4) 0.5958(4) 0.2227(3)
H46 H 0.3047 0.6176 0.2474
H47 H 0.3279 0.5251 0.2245
C31 C 0.3814(4) 0.6331(6) 0.2412(3)
H48 H 0.4020 0.6121 0.2162
H49 H 0.4047 0.6100 0.2800
C32 C 0.4387(3) 0.7586(8) 0.2489(4)
H50 H 0.4645 0.7501 0.2888
H51 H 0.4412 0.8250 0.2377
H52 H 0.4517 0.7155 0.2255
C33 C 0.3795(3) 0.9358(5) 0.2853(3)
H53 H 0.4157 0.9665 0.2846
H54 H 0.3883 0.8692 0.2975
H55 H 0.3659 0.9701 0.3117
C34 C 0.3096(3) 1.0296(4) 0.2159(2)
H56 H 0.3040 1.0584 0.2489
H57 H 0.3381 1.0703 0.2064
C35 C 0.2553(3) 1.0283(4) 0.1703(3)
H58 H 0.2465 1.0940 0.1549
H59 H 0.2237 1.0107 0.1845
C36 C 0.2206(3) 0.9980(5) 0.0719(3)
H60 H 0.1786 1.0088 0.0664
H61 H 0.2227 0.9505 0.0445
H62 H 0.2383 1.0582 0.0662
C37 C 0.1642(2) 0.7661(5) 0.0408(2)
H63 H 0.1492 0.8075 0.0073
H64 H 0.1514 0.7914 0.0702
H65 H 0.1481 0.7014 0.0304
C38 C 0.2512(2) 0.7169(4) 0.02374(19)
H66 H 0.2274 0.6588 0.0078
H67 H 0.2931 0.6970 0.0450
O7F O 0.27177(13) 0.7370(2) -0.06163(12)
C37F C 0.3358(2) 0.7339(5) -0.0408(2)
H63F H 0.3508 0.6925 -0.0073
H64F H 0.3486 0.7086 -0.0702
H65F H 0.3519 0.7986 -0.0304
C38F C 0.2488(2) 0.7831(4) -0.02374(19)
H66F H 0.2726 0.8412 -0.0078
H67F H 0.2069 0.8030 -0.0450
Ca1F Ca 0.20740(3) 0.69522(6) -0.15953(3)
O1F O 0.13799(12) 0.6822(2) -0.12403(12)
C1F C 0.09262(17) 0.7052(3) -0.11036(16)
O2F O 0.28120(12) 0.7103(2) -0.19175(11)
C2F C 0.05741(16) 0.6373(3) -0.09568(16)
O3F O 0.2072(2) 0.8750(2) -0.16627(17)
C3F C 0.01221(17) 0.6702(3) -0.07922(16)
H1F H -0.0107 0.6238 -0.0690
O4F O 0.12213(17) 0.7630(4) -0.24112(18)
C4F C -0.0019(2) 0.7657(3) -0.07656(17)
O5F O 0.16601(14) 0.5615(2) -0.23025(14)
C5F C 0.0315(2) 0.8317(3) -0.09262(18)
H2F H 0.0228 0.8979 -0.0926
O6F O 0.24896(17) 0.5345(2) -0.12531(14)
C6F C 0.0776(2) 0.8021(3) -0.10874(17)
H3F H 0.0999 0.8492 -0.1191
C7F C 0.06979(17) 0.5299(3) -0.09630(17)
C8F C 0.0658(2) 0.4993(3) -0.15498(18)
H4F H 0.0737 0.4305 -0.1549
H5F H 0.0257 0.5131 -0.1828
H6F H 0.0955 0.5345 -0.1650
C9F C 0.1322(2) 0.5088(3) -0.0526(2)
H7F H 0.1416 0.4410 -0.0546
H8F H 0.1616 0.5483 -0.0606
H9F H 0.1333 0.5236 -0.0147
C10F C 0.0250(2) 0.4690(3) -0.0817(2)
H10F H 0.0279 0.4843 -0.0432
H11F H -0.0156 0.4826 -0.1086
H12F H 0.0340 0.4011 -0.0838
C11F C -0.0522(2) 0.7968(4) -0.05769(19)
C12F C -0.0853(4) 0.7037(6) -0.0438(4)
H13F H -0.1183 0.7251 -0.0331
H14F H -0.1012 0.6630 -0.0775
H15F H -0.0565 0.6673 -0.0126
C13F C -0.1041(2) 0.8327(5) -0.1073(3)
H16F H -0.0934 0.8932 -0.1204
H17F H -0.1148 0.7854 -0.1379
H18F H -0.1383 0.8429 -0.0962
C14F C -0.0322(4) 0.8511(9) -0.0074(4)
H19F H -0.0006 0.8160 0.0224
H20F H -0.0164 0.9125 -0.0141
H21F H -0.0657 0.8625 0.0046
C15F C 0.29243(17) 0.6998(3) -0.23794(16)
C16F C 0.35085(17) 0.6863(3) -0.23806(16)
C17F C 0.35661(17) 0.6730(3) -0.28972(17)
H22F H 0.3958 0.6643 -0.2893
C18F C 0.30922(18) 0.6716(3) -0.34211(16)
C19F C 0.25325(18) 0.6877(3) -0.34148(17)
H23F H 0.2195 0.6894 -0.3762
C20F C 0.24530(18) 0.7013(3) -0.29094(17)
H24F H 0.2059 0.7123 -0.2923
C21F C 0.40529(18) 0.6859(3) -0.18266(17)
C22F C 0.4090(2) 0.7818(3) -0.15232(19)
H25F H 0.3719 0.7924 -0.1459
H26F H 0.4430 0.7807 -0.1159
H27F H 0.4144 0.8336 -0.1758
C23F C 0.4640(2) 0.6717(5) -0.1910(2)
H28F H 0.4689 0.7228 -0.2152
H29F H 0.4974 0.6735 -0.1542
H30F H 0.4635 0.6096 -0.2090
C24F C 0.3996(2) 0.6037(3) -0.14563(19)
H31F H 0.4010 0.5426 -0.1639
H32F H 0.4326 0.6066 -0.1086
H33F H 0.3614 0.6091 -0.1405
C25F C 0.3210(2) 0.6554(3) -0.39631(17)
C26F C 0.3575(2) 0.5647(3) -0.3921(2)
H34F H 0.3351 0.5093 -0.3871
H35F H 0.3653 0.5568 -0.4269
H36F H 0.3956 0.5697 -0.3596
C27F C 0.3553(2) 0.7413(3) -0.4057(2)
H37F H 0.3940 0.7465 -0.3740
H38F H 0.3619 0.7327 -0.4410
H39F H 0.3321 0.7997 -0.4080
C28F C 0.2625(2) 0.6462(4) -0.44820(19)
H40F H 0.2393 0.7053 -0.4529
H41F H 0.2717 0.6351 -0.4820
H42F H 0.2392 0.5923 -0.4428
C29F C 0.2641(3) 0.9208(5) -0.1434(3)
H43F H 0.2590 0.9898 -0.1504
H44F H 0.2822 0.9090 -0.1026
H45F H 0.2901 0.8951 -0.1616
C30F C 0.1745(4) 0.9042(4) -0.2227(3)
H46F H 0.1953 0.8824 -0.2474
H47F H 0.1721 0.9749 -0.2245
C31F C 0.1186(4) 0.8669(6) -0.2412(3)
H48F H 0.0980 0.8879 -0.2162
H49F H 0.0953 0.8900 -0.2800
C32F C 0.0613(3) 0.7414(8) -0.2489(4)
H50F H 0.0355 0.7499 -0.2888
H51F H 0.0588 0.6750 -0.2377
H52F H 0.0483 0.7845 -0.2255
C33F C 0.1205(3) 0.5642(5) -0.2853(3)
H53F H 0.0843 0.5335 -0.2846
H54F H 0.1117 0.6308 -0.2975
H55F H 0.1341 0.5299 -0.3117
C34F C 0.1904(3) 0.4704(4) -0.2159(2)
H56F H 0.1960 0.4416 -0.2489
H57F H 0.1619 0.4297 -0.2064
C35F C 0.2447(3) 0.4717(4) -0.1703(3)
H58F H 0.2535 0.4060 -0.1549
H59F H 0.2763 0.4893 -0.1845
C36F C 0.2794(3) 0.5020(5) -0.0719(3)
H60F H 0.3214 0.4912 -0.0664
H61F H 0.2773 0.5495 -0.0445
H62F H 0.2617 0.4418 -0.0662
C39? C 0.5420(13) 0.7531(14) 0.0034(9)
H68? H 0.5740 0.7363 -0.0098
H69? H 0.5420 0.8224 0.0092
H70? H 0.5033 0.7335 -0.0250
C40? C 0.5284(7) 0.5877(10) 0.0293(6)
H71? H 0.4875 0.5914 0.0010
H72? H 0.5295 0.5442 0.0597
H73? H 0.5551 0.5638 0.0113
C41? C 0.4218(6) 0.8246(10) 0.2663(6)
H74? H 0.4513 0.8075 0.3037
H75? H 0.3988 0.8803 0.2698
H76? H 0.4426 0.8401 0.2410
loop_
_geom_bond_atom_site_label_1
_geom_bond_atom_site_label_2
_geom_bond_site_symmetry_1
_geom_bond_site_symmetry_2
Ca1 O1 1_555 1_555
O1 C1 1_555 1_555
C1 C2 1_555 1_555
O2 Ca1 1_555 1_555
C2 C3 1_555 1_555
O3 Ca1 1_555 1_555
C3 H1 1_555 1_555
O4 Ca1 1_555 1_555
C4 C3 1_555 1_555
O5 Ca1 1_555 1_555
C5 C4 1_555 1_555
H2 C5 1_555 1_555
O6 Ca1 1_555 1_555
C6 C1 1_555 1_555
H3 C6 1_555 1_555
O7 Ca1 1_555 1_555
C7 C2 1_555 1_555
C8 C7 1_555 1_555
H4 C8 1_555 1_555
H5 C8 1_555 1_555
H6 C8 1_555 1_555
C9 C7 1_555 1_555
H7 C9 1_555 1_555
H8 C9 1_555 1_555
H9 C9 1_555 1_555
C10 C7 1_555 1_555
H10 C10 1_555 1_555
H11 C10 1_555 1_555
H12 C10 1_555 1_555
C11 C4 1_555 1_555
C12 C11 1_555 1_555
H13 C12 1_555 1_555
H14 C12 1_555 1_555
H15 C12 1_555 1_555
C13 C11 1_555 1_555
H16 C13 1_555 1_555
H17 C13 1_555 1_555
H18 C13 1_555 1_555
C14 C11 1_555 1_555
H19 C14 1_555 1_555
H20 C14 1_555 1_555
H21 C14 1_555 1_555
C15 O2 1_555 1_555
C16 C15 1_555 1_555
C17 C16 1_555 1_555
H22 C17 1_555 1_555
C18 C17 1_555 1_555
C19 C18 1_555 1_555
H23 C19 1_555 1_555
C20 C15 1_555 1_555
H24 C20 1_555 1_555
C21 C16 1_555 1_555
C22 C21 1_555 1_555
H25 C22 1_555 1_555
H26 C22 1_555 1_555
H27 C22 1_555 1_555
C23 C21 1_555 1_555
H28 C23 1_555 1_555
H29 C23 1_555 1_555
H30 C23 1_555 1_555
C24 C21 1_555 1_555
H31 C24 1_555 1_555
H32 C24 1_555 1_555
H33 C24 1_555 1_555
C25 C18 1_555 1_555
C26 C25 1_555 1_555
H34 C26 1_555 1_555
H35 C26 1_555 1_555
H36 C26 1_555 1_555
C27 C25 1_555 1_555
H37 C27 1_555 1_555
H38 C27 1_555 1_555
H39 C27 1_555 1_555
C28 C25 1_555 1_555
H40 C28 1_555 1_555
H41 C28 1_555 1_555
H42 C28 1_555 1_555
C29 O3 1_555 1_555
H43 C29 1_555 1_555
H44 C29 1_555 1_555
H45 C29 1_555 1_555
C30 O3 1_555 1_555
H46 C30 1_555 1_555
H47 C30 1_555 1_555
C31 O4 1_555 1_555
H48 C31 1_555 1_555
H49 C31 1_555 1_555
C32 O4 1_555 1_555
H50 C32 1_555 1_555
H51 C32 1_555 1_555
H52 C32 1_555 1_555
C33 O5 1_555 1_555
H53 C33 1_555 1_555
H54 C33 1_555 1_555
H55 C33 1_555 1_555
C34 O5 1_555 1_555
H56 C34 1_555 1_555
H57 C34 1_555 1_555
C35 O6 1_555 1_555
H58 C35 1_555 1_555
H59 C35 1_555 1_555
C36 O6 1_555 1_555
H60 C36 1_555 1_555
H61 C36 1_555 1_555
H62 C36 1_555 1_555
C37 O7 1_555 1_555
H63 C37 1_555 1_555
H64 C37 1_555 1_555
H65 C37 1_555 1_555
C38 O7 1_555 1_555
H66 C38 1_555 1_555
H67 C38 1_555 1_555
O7F C37F 1_555 1_555
C37F H63F 1_555 1_555
H64F C37F 1_555 1_555
H65F C37F 1_555 1_555
C38F C38 1_555 1_555
H66F C38F 1_555 1_555
H67F C38F 1_555 1_555
Ca1F O7F 1_555 1_555
O1F Ca1F 1_555 1_555
C1F O1F 1_555 1_555
O2F Ca1F 1_555 1_555
C2F C1F 1_555 1_555
O3F Ca1F 1_555 1_555
C3F C2F 1_555 1_555
H1F C3F 1_555 1_555
O4F Ca1F 1_555 1_555
C4F C3F 1_555 1_555
O5F Ca1F 1_555 1_555
C5F C4F 1_555 1_555
H2F C5F 1_555 1_555
O6F Ca1F 1_555 1_555
C6F C1F 1_555 1_555
H3F C6F 1_555 1_555
C7F C2F 1_555 1_555
C8F C7F 1_555 1_555
H4F C8F 1_555 1_555
H5F C8F 1_555 1_555
H6F C8F 1_555 1_555
C9F C7F 1_555 1_555
H7F C9F 1_555 1_555
H8F C9F 1_555 1_555
H9F C9F 1_555 1_555
C10F C7F 1_555 1_555
H10F C10F 1_555 1_555
H11F C10F 1_555 1_555
H12F C10F 1_555 1_555
C11F C4F 1_555 1_555
C12F C11F 1_555 1_555
H13F C12F 1_555 1_555
H14F C12F 1_555 1_555
H15F C12F 1_555 1_555
C13F C11F 1_555 1_555
H16F C13F 1_555 1_555
H17F C13F 1_555 1_555
H18F C13F 1_555 1_555
C14F C11F 1_555 1_555
H19F C14F 1_555 1_555
H20F C14F 1_555 1_555
H21F C14F 1_555 1_555
C15F O2F 1_555 1_555
C16F C15F 1_555 1_555
C17F C16F 1_555 1_555
H22F C17F 1_555 1_555
C18F C17F 1_555 1_555
C19F C18F 1_555 1_555
H23F C19F 1_555 1_555
C20F C15F 1_555 1_555
H24F C20F 1_555 1_555
C21F C16F 1_555 1_555
C22F C21F 1_555 1_555
H25F C22F 1_555 1_555
H26F C22F 1_555 1_555
H27F C22F 1_555 1_555
C23F C21F 1_555 1_555
H28F C23F 1_555 1_555
H29F C23F 1_555 1_555
H30F C23F 1_555 1_555
C24F C21F 1_555 1_555
H31F C24F 1_555 1_555
H32F C24F 1_555 1_555
H33F C24F 1_555 1_555
C25F C18F 1_555 1_555
C26F C25F 1_555 1_555
H34F C26F 1_555 1_555
H35F C26F 1_555 1_555
H36F C26F 1_555 1_555
C27F C25F 1_555 1_555
H37F C27F 1_555 1_555
H38F C27F 1_555 1_555
H39F C27F 1_555 1_555
C28F C25F 1_555 1_555
H40F C28F 1_555 1_555
H41F C28F 1_555 1_555
H42F C28F 1_555 1_555
C29F O3F 1_555 1_555
H43F C29F 1_555 1_555
H44F C29F 1_555 1_555
H45F C29F 1_555 1_555
C30F O3F 1_555 1_555
H46F C30F 1_555 1_555
H47F C30F 1_555 1_555
C31F O4F 1_555 1_555
H48F C31F 1_555 1_555
H49F C31F 1_555 1_555
C32F O4F 1_555 1_555
H50F C32F 1_555 1_555
H51F C32F 1_555 1_555
H52F C32F 1_555 1_555
C33F O5F 1_555 1_555
H53F C33F 1_555 1_555
H54F C33F 1_555 1_555
H55F C33F 1_555 1_555
C34F O5F 1_555 1_555
H56F C34F 1_555 1_555
H57F C34F 1_555 1_555
C35F O6F 1_555 1_555
H58F C35F 1_555 1_555
H59F C35F 1_555 1_555
C36F O6F 1_555 1_555
H60F C36F 1_555 1_555
H61F C36F 1_555 1_555
H62F C36F 1_555 1_555
C5 C6 1_555 1_555
C19 C20 1_555 1_555
C30 C31 1_555 1_555
C34 C35 1_555 1_555
O7F C38F 1_555 1_555
C5F C6F 1_555 1_555
C19F C20F 1_555 1_555
C30F C31F 1_555 1_555
C34F C35F 1_555 1_555

#END
