
#######################################################################
#
#                 Cambridge Crystallographic Data Centre
#                                CCDC 
#
#######################################################################
#
# If this CIF has been generated from an entry in the Cambridge 
# Structural Database, then it will include bibliographic, chemical, 
# crystal, experimental, refinement or atomic coordinate data resulting 
# from the CCDC's data processing and validation procedures.
#
#######################################################################

data_RENWAK
_chemical_formula_moiety         'C108 H174 O12 Sr3,C6 H6'
_chemical_name_systematic        
'hexakis(\m~2~-2,4-di-t-butylphenolato)-hexakis(tetrahydrofuran)-tri-strontium benzene solvate'
_symmetry_cell_setting           rhombohedral
_symmetry_space_group_name_H-M   'R -3 c'
_symmetry_Int_Tables_number      167
_space_group_name_Hall           '-R 3 2"c'
loop_
_symmetry_equiv_pos_site_id
_symmetry_equiv_pos_as_xyz
1 x,y,z
2 -y,x-y,z
3 -x+y,-x,z
4 x-y,-y,1/2-z
5 -x,-x+y,1/2-z
6 y,x,1/2-z
7 2/3+x,1/3+y,1/3+z
8 2/3-y,1/3+x-y,1/3+z
9 2/3-x+y,1/3-x,1/3+z
10 2/3+x-y,1/3-y,5/6-z
11 2/3-x,1/3-x+y,5/6-z
12 2/3+y,1/3+x,5/6-z
13 1/3+x,2/3+y,2/3+z
14 1/3-y,2/3+x-y,2/3+z
15 1/3-x+y,2/3-x,2/3+z
16 1/3+x-y,2/3-y,1/6-z
17 1/3-x,2/3-x+y,1/6-z
18 1/3+y,2/3+x,1/6-z
19 -x,-y,-z
20 y,-x+y,-z
21 x-y,x,-z
22 -x+y,y,1/2+z
23 x,x-y,1/2+z
24 -y,-x,1/2+z
25 1/3-x,2/3-y,2/3-z
26 1/3+y,2/3-x+y,2/3-z
27 1/3+x-y,2/3+x,2/3-z
28 1/3-x+y,2/3+y,1/6+z
29 1/3+x,2/3+x-y,1/6+z
30 1/3-y,2/3-x,1/6+z
31 2/3-x,1/3-y,1/3-z
32 2/3+y,1/3-x+y,1/3-z
33 2/3+x-y,1/3+x,1/3-z
34 2/3-x+y,1/3+y,5/6+z
35 2/3+x,1/3+x-y,5/6+z
36 2/3-y,1/3-x,5/6+z
_cell_length_a                   21.738(3)
_cell_length_b                   21.738(3)
_cell_length_c                   40.897(8)
_cell_angle_alpha                90
_cell_angle_beta                 90
_cell_angle_gamma                120
_cell_volume                     16736.4
_exptl_crystal_colour            colorless
_exptl_crystal_description       block
_chemical_melting_point          '423 K'
_cell_formula_units_Z            6
loop_
_atom_site_label
_atom_site_type_symbol
_atom_site_fract_x
_atom_site_fract_y
_atom_site_fract_z
Sr1 Sr 0.6667 0.3333 -0.003638(11)
O1 O 0.66721(10) 0.41522(11) 0.03747(5)
C1 C 0.71791(15) 0.48340(15) 0.03721(7)
Sr2 Sr 0.6667 0.3333 0.0833
O2 O 0.73885(14) 0.43850(14) -0.04544(6)
C2 C 0.70595(16) 0.54022(16) 0.02841(7)
C3 C 0.76402(17) 0.60901(17) 0.02906(8)
H1 H 0.7564 0.6467 0.0227
C4 C 0.83304(17) 0.62664(17) 0.03849(8)
C5 C 0.84329(16) 0.57073(17) 0.04673(7)
H2 H 0.8892 0.5800 0.0530
C6 C 0.78746(16) 0.50150(16) 0.04597(7)
H3 H 0.7966 0.4644 0.0516
C7 C 0.63174(17) 0.52672(18) 0.01904(8)
C8 C 0.58103(18) 0.49423(19) 0.04779(9)
H4 H 0.5971 0.5282 0.0659
H5 H 0.5802 0.4507 0.0548
H6 H 0.5332 0.4829 0.0411
C9 C 0.6011(2) 0.4731(3) -0.00969(10)
H7 H 0.5547 0.4664 -0.0160
H8 H 0.5957 0.4274 -0.0028
H9 H 0.6336 0.4915 -0.0284
C10 C 0.6317(2) 0.5939(3) 0.00872(15)
H10 H 0.5836 0.5819 0.0022
H11 H 0.6642 0.6158 -0.0097
H12 H 0.6472 0.6273 0.0271
C11 C 0.89285(19) 0.70473(18) 0.03861(10)
C12 C 0.9574(2) 0.7130(2) 0.05755(16)
H13 H 0.9940 0.7633 0.0584
H14 H 0.9765 0.6861 0.0465
H15 H 0.9430 0.6949 0.0798
C13 C 0.8679(2) 0.7516(2) 0.05499(12)
H16 H 0.8511 0.7341 0.0772
H17 H 0.8290 0.7502 0.0422
H18 H 0.9075 0.8006 0.0561
C14 C 0.9144(3) 0.7291(2) 0.00338(12)
H19 H 0.8745 0.7281 -0.0082
H20 H 0.9276 0.6972 -0.0076
H21 H 0.9551 0.7776 0.0033
C15 C 0.8049(3) 0.5039(3) -0.03979(10)
H22 H 0.8464 0.4988 -0.0454
H23 H 0.8089 0.5197 -0.0168
C16 C 0.7975(4) 0.5555(3) -0.06344(14)
H24 H 0.7671 0.5728 -0.0539
H25 H 0.8445 0.5967 -0.0689
C17 C 0.7635(3) 0.5103(3) -0.09294(13)
H26 H 0.7407 0.5301 -0.1071
H27 H 0.7977 0.5029 -0.1060
C18 C 0.7119(3) 0.4461(3) -0.07651(11)
H28 H 0.6676 0.4475 -0.0730
H29 H 0.7006 0.4045 -0.0904
O1A O 0.58478(11) 0.25199(15) 0.03747(5)
C1A C 0.51660(15) 0.23451(21) 0.03721(7)
O2A O 0.56150(14) 0.30035(20) -0.04544(6)
C2A C 0.45978(16) 0.16573(23) 0.02841(7)
C3A C 0.39099(17) 0.15501(24) 0.02906(8)
H1A H 0.3533 0.1097 0.0227
C4A C 0.37336(17) 0.20640(24) 0.03849(8)
C5A C 0.42927(17) 0.27256(23) 0.04673(7)
H2A H 0.4200 0.3092 0.0530
C6A C 0.49850(16) 0.28596(23) 0.04597(7)
H3A H 0.5356 0.3322 0.0516
C7A C 0.47328(18) 0.10502(25) 0.01904(8)
C8A C 0.50577(19) 0.08680(26) 0.04779(9)
H4A H 0.4718 0.0689 0.0659
H5A H 0.5493 0.1295 0.0548
H6A H 0.5171 0.0503 0.0411
C9A C 0.5269(3) 0.1280(4) -0.00969(10)
H7A H 0.5336 0.0883 -0.0160
H8A H 0.5726 0.1683 -0.0028
H9A H 0.5085 0.1421 -0.0284
C10A C 0.4061(3) 0.0378(4) 0.00872(15)
H10A H 0.4181 0.0017 0.0022
H11A H 0.3842 0.0484 -0.0097
H12A H 0.3727 0.0199 0.0271
C11A C 0.29527(18) 0.18812(26) 0.03861(10)
C12A C 0.2870(2) 0.2444(3) 0.05755(16)
H13A H 0.2367 0.2307 0.0584
H14A H 0.3139 0.2904 0.0465
H15A H 0.3051 0.2481 0.0798
C13A C 0.2484(2) 0.1163(3) 0.05499(12)
H16A H 0.2659 0.1170 0.0772
H17A H 0.2498 0.0788 0.0422
H18A H 0.1994 0.1069 0.0561
C14A C 0.2709(2) 0.1853(4) 0.00338(12)
H19A H 0.2719 0.1464 -0.0082
H20A H 0.3028 0.2304 -0.0076
H21A H 0.2224 0.1775 0.0033
C15A C 0.4961(3) 0.3010(4) -0.03979(10)
H22A H 0.5012 0.3476 -0.0454
H23A H 0.4803 0.2892 -0.0168
C16A C 0.4445(3) 0.2420(5) -0.06344(14)
H24A H 0.4272 0.1943 -0.0539
H25A H 0.4033 0.2478 -0.0689
C17A C 0.4897(3) 0.2532(4) -0.09294(13)
H26A H 0.4699 0.2106 -0.1071
H27A H 0.4971 0.2948 -0.1060
C18A C 0.5539(3) 0.2658(4) -0.07651(11)
H28A H 0.5525 0.2201 -0.0730
H29A H 0.5955 0.2961 -0.0904
O1B O 0.74801(15) 0.33279(10) 0.03747(5)
C1B C 0.76549(21) 0.28209(15) 0.03721(7)
O2B O 0.69965(20) 0.26115(14) -0.04544(6)
C2B C 0.83427(23) 0.29405(16) 0.02841(7)
C3B C 0.84499(24) 0.23598(17) 0.02906(8)
H1B H 0.8903 0.2436 0.0227
C4B C 0.79360(24) 0.16696(17) 0.03849(8)
C5B C 0.72744(23) 0.15671(16) 0.04673(7)
H2B H 0.6908 0.1108 0.0530
C6B C 0.71404(23) 0.21254(16) 0.04597(7)
H3B H 0.6678 0.2034 0.0516
C7B C 0.89498(25) 0.36826(17) 0.01904(8)
C8B C 0.91320(26) 0.41897(18) 0.04779(9)
H4B H 0.9311 0.4029 0.0659
H5B H 0.8705 0.4198 0.0548
H6B H 0.9497 0.4668 0.0411
C9B C 0.8720(4) 0.3989(2) -0.00969(10)
H7B H 0.9117 0.4453 -0.0160
H8B H 0.8317 0.4043 -0.0028
H9B H 0.8579 0.3664 -0.0284
C10B C 0.9622(4) 0.3683(2) 0.00872(15)
H10B H 0.9983 0.4164 0.0022
H11B H 0.9516 0.3358 -0.0097
H12B H 0.9801 0.3528 0.0271
C11B C 0.81188(26) 0.10715(19) 0.03861(10)
C12B C 0.7556(3) 0.0426(2) 0.05755(16)
H13B H 0.7693 0.0060 0.0584
H14B H 0.7096 0.0235 0.0465
H15B H 0.7519 0.0570 0.0798
C13B C 0.8837(3) 0.1321(2) 0.05499(12)
H16B H 0.8830 0.1489 0.0772
H17B H 0.9212 0.1710 0.0422
H18B H 0.8931 0.0925 0.0561
C14B C 0.8147(4) 0.0856(3) 0.00338(12)
H19B H 0.8536 0.1255 -0.0082
H20B H 0.7696 0.0724 -0.0076
H21B H 0.8225 0.0449 0.0033
C15B C 0.6990(4) 0.1951(3) -0.03979(10)
H22B H 0.6524 0.1536 -0.0454
H23B H 0.7108 0.1911 -0.0168
C16B C 0.7580(5) 0.2025(4) -0.06344(14)
H24B H 0.8057 0.2329 -0.0539
H25B H 0.7522 0.1555 -0.0689
C17B C 0.7468(4) 0.2365(3) -0.09294(13)
H26B H 0.7894 0.2593 -0.1071
H27B H 0.7052 0.2023 -0.1060
C18B C 0.7342(4) 0.2881(3) -0.07651(11)
H28B H 0.7799 0.3324 -0.0730
H29B H 0.7039 0.2994 -0.0904
Sr1O Sr 0.6667 0.3334 0.170305(11)
O1O O 0.58532(15) 0.25145(11) 0.12920(5)
C1O C 0.56784(21) 0.18327(15) 0.12946(7)
O2O O 0.63368(20) 0.22817(14) 0.21211(6)
C2O C 0.49906(23) 0.12645(16) 0.13826(7)
C3O C 0.48834(24) 0.05766(17) 0.13761(8)
H1O H 0.4430 0.0200 0.1440
C4O C 0.53973(24) 0.04003(17) 0.12818(8)
C5O C 0.60589(23) 0.09594(17) 0.11994(7)
H2O H 0.6425 0.0867 0.1137
C6O C 0.61929(23) 0.16517(16) 0.12070(7)
H3O H 0.6655 0.2023 0.1151
C7O C 0.43835(25) 0.13995(18) 0.14763(8)
C8O C 0.42013(26) 0.17244(19) 0.11888(9)
H4O H 0.4022 0.1385 0.1008
H5O H 0.4628 0.2160 0.1119
H6O H 0.3836 0.1838 0.1256
C9O C 0.4613(4) 0.1936(3) 0.17636(10)
H7O H 0.4216 0.2003 0.1827
H8O H 0.5016 0.2393 0.1695
H9O H 0.4754 0.1752 0.1951
C10O C 0.3711(4) 0.0728(3) 0.15795(15)
H10O H 0.3350 0.0848 0.1645
H11O H 0.3817 0.0509 0.1764
H12O H 0.3532 0.0394 0.1396
C11O C 0.52145(26) -0.03806(18) 0.12806(10)
C12O C 0.5777(3) -0.0463(2) 0.10912(16)
H13O H 0.5640 -0.0966 0.1083
H14O H 0.6237 -0.0194 0.1202
H15O H 0.5814 -0.0282 0.0869
C13O C 0.4496(3) -0.0849(2) 0.11168(12)
H16O H 0.4503 -0.0674 0.0895
H17O H 0.4121 -0.0835 0.1245
H18O H 0.4402 -0.1339 0.1106
C14O C 0.5186(4) -0.0624(2) 0.16329(12)
H19O H 0.4797 -0.0614 0.1749
H20O H 0.5637 -0.0305 0.1743
H21O H 0.5108 -0.1109 0.1634
C15O C 0.6343(4) 0.1628(3) 0.20646(10)
H22O H 0.6809 0.1679 0.2121
H23O H 0.6225 0.1470 0.1835
C16O C 0.5753(5) 0.1112(3) 0.23011(14)
H24O H 0.5276 0.0939 0.2206
H25O H 0.5811 0.0700 0.2356
C17O C 0.5865(4) 0.1564(3) 0.25961(13)
H26O H 0.5439 0.1366 0.2738
H27O H 0.6281 0.1638 0.2727
C18O C 0.5991(4) 0.2206(3) 0.24318(11)
H28O H 0.5534 0.2192 0.2397
H29O H 0.6294 0.2622 0.2571
O1P O 0.66612(10) 0.41468(15) 0.12920(5)
C1P C 0.61542(15) 0.43216(21) 0.12946(7)
O2P O 0.59448(14) 0.36632(20) 0.21211(6)
C2P C 0.62738(16) 0.50094(23) 0.13826(7)
C3P C 0.56931(17) 0.51166(24) 0.13761(8)
H1P H 0.5769 0.5570 0.1440
C4P C 0.50029(17) 0.46027(24) 0.12818(8)
C5P C 0.49004(16) 0.39411(23) 0.11994(7)
H2P H 0.4441 0.3575 0.1137
C6P C 0.54587(16) 0.38071(23) 0.12070(7)
H3P H 0.5367 0.3345 0.1151
C7P C 0.70159(17) 0.56165(25) 0.14763(8)
C8P C 0.75230(18) 0.57987(26) 0.11888(9)
H4P H 0.7362 0.5978 0.1008
H5P H 0.7531 0.5372 0.1119
H6P H 0.8001 0.6164 0.1256
C9P C 0.7322(2) 0.5387(4) 0.17636(10)
H7P H 0.7786 0.5784 0.1827
H8P H 0.7376 0.4984 0.1695
H9P H 0.6997 0.5246 0.1951
C10P C 0.7016(2) 0.6289(4) 0.15795(15)
H10P H 0.7497 0.6650 0.1645
H11P H 0.6691 0.6183 0.1764
H12P H 0.6861 0.6468 0.1396
C11P C 0.44048(19) 0.47855(26) 0.12806(10)
C12P C 0.3759(2) 0.4223(3) 0.10912(16)
H13P H 0.3393 0.4360 0.1083
H14P H 0.3568 0.3763 0.1202
H15P H 0.3903 0.4186 0.0869
C13P C 0.4654(2) 0.5504(3) 0.11168(12)
H16P H 0.4822 0.5497 0.0895
H17P H 0.5043 0.5879 0.1245
H18P H 0.4258 0.5598 0.1106
C14P C 0.4189(3) 0.4814(4) 0.16329(12)
H19P H 0.4588 0.5203 0.1749
H20P H 0.4057 0.4363 0.1743
H21P H 0.3782 0.4892 0.1634
C15P C 0.5284(3) 0.3657(4) 0.20646(10)
H22P H 0.4869 0.3191 0.2121
H23P H 0.5244 0.3775 0.1835
C16P C 0.5358(4) 0.4247(5) 0.23011(14)
H24P H 0.5662 0.4724 0.2206
H25P H 0.4888 0.4189 0.2356
C17P C 0.5698(3) 0.4135(4) 0.25961(13)
H26P H 0.5926 0.4561 0.2738
H27P H 0.5356 0.3719 0.2727
C18P C 0.6214(3) 0.4009(4) 0.24318(11)
H28P H 0.6657 0.4466 0.2397
H29P H 0.6327 0.3706 0.2571
O1Q O 0.74855(11) 0.33388(10) 0.12920(5)
C1Q C 0.81673(15) 0.38458(15) 0.12946(7)
O2Q O 0.77183(14) 0.40552(14) 0.21211(6)
C2Q C 0.87355(16) 0.37262(16) 0.13826(7)
C3Q C 0.94234(17) 0.43069(17) 0.13761(8)
H1Q H 0.9800 0.4231 0.1440
C4Q C 0.95997(17) 0.49971(17) 0.12818(8)
C5Q C 0.90406(17) 0.50996(16) 0.11994(7)
H2Q H 0.9133 0.5559 0.1137
C6Q C 0.83483(16) 0.45413(16) 0.12070(7)
H3Q H 0.7977 0.4633 0.1151
C7Q C 0.86005(18) 0.29841(17) 0.14763(8)
C8Q C 0.82756(19) 0.24770(18) 0.11888(9)
H4Q H 0.8615 0.2638 0.1008
H5Q H 0.7840 0.2469 0.1119
H6Q H 0.8162 0.1999 0.1256
C9Q C 0.8064(3) 0.2678(2) 0.17636(10)
H7Q H 0.7997 0.2214 0.1827
H8Q H 0.7607 0.2624 0.1695
H9Q H 0.8248 0.3003 0.1951
C10Q C 0.9272(3) 0.2984(2) 0.15795(15)
H10Q H 0.9152 0.2503 0.1645
H11Q H 0.9491 0.3309 0.1764
H12Q H 0.9606 0.3139 0.1396
C11Q C 1.03806(18) 0.55952(19) 0.12806(10)
C12Q C 1.0463(2) 0.6241(2) 0.10912(16)
H13Q H 1.0966 0.6607 0.1083
H14Q H 1.0194 0.6432 0.1202
H15Q H 1.0282 0.6097 0.0869
C13Q C 1.0849(2) 0.5346(2) 0.11168(12)
H16Q H 1.0674 0.5178 0.0895
H17Q H 1.0835 0.4957 0.1245
H18Q H 1.1339 0.5742 0.1106
C14Q C 1.0624(2) 0.5811(3) 0.16329(12)
H19Q H 1.0614 0.5412 0.1749
H20Q H 1.0305 0.5943 0.1743
H21Q H 1.1109 0.6218 0.1634
C15Q C 0.8372(3) 0.4716(3) 0.20646(10)
H22Q H 0.8321 0.5131 0.2121
H23Q H 0.8530 0.4756 0.1835
C16Q C 0.8888(3) 0.4642(4) 0.23011(14)
H24Q H 0.9061 0.4338 0.2206
H25Q H 0.9300 0.5112 0.2356
C17Q C 0.8436(3) 0.4302(3) 0.25961(13)
H26Q H 0.8634 0.4074 0.2738
H27Q H 0.8362 0.4644 0.2727
C18Q C 0.7794(3) 0.3786(3) 0.24318(11)
H28Q H 0.7808 0.3343 0.2397
H29Q H 0.7378 0.3673 0.2571
C19 C 0.07077(19) 0.0181(2) 0.00002(9)
H30 H 0.1193 0.0305 0.0001
C19S C 0.0181(2) -0.05267(28) -0.00002(9)
H30S H 0.0305 -0.0888 -0.0001
C19T C 0.05267(28) 0.07077(19) -0.00002(9)
H30T H 0.0888 0.1193 -0.0001
C19A C -0.0181(2) 0.05267(28) 0.00002(9)
H30A H -0.0305 0.0888 0.0001
C19B C -0.05267(28) -0.07077(19) 0.00002(9)
H30B H -0.0888 -0.1193 0.0001
C19R C -0.07077(19) -0.0181(2) -0.00002(9)
H30R H -0.1193 -0.0305 -0.0001
loop_
_geom_bond_atom_site_label_1
_geom_bond_atom_site_label_2
_geom_bond_site_symmetry_1
_geom_bond_site_symmetry_2
Sr1 O1 1_555 1_555
O1 C1 1_555 1_555
C1 C2 1_555 1_555
Sr2 O1 1_555 1_555
O2 Sr1 1_555 1_555
C2 C3 1_555 1_555
C3 H1 1_555 1_555
C4 C3 1_555 1_555
C5 C4 1_555 1_555
H2 C5 1_555 1_555
C6 C1 1_555 1_555
H3 C6 1_555 1_555
C7 C2 1_555 1_555
C8 C7 1_555 1_555
H4 C8 1_555 1_555
H5 C8 1_555 1_555
H6 C8 1_555 1_555
C9 C7 1_555 1_555
H7 C9 1_555 1_555
H8 C9 1_555 1_555
H9 C9 1_555 1_555
C10 C7 1_555 1_555
H10 C10 1_555 1_555
H11 C10 1_555 1_555
H12 C10 1_555 1_555
C11 C4 1_555 1_555
C12 C11 1_555 1_555
H13 C12 1_555 1_555
H14 C12 1_555 1_555
H15 C12 1_555 1_555
C13 C11 1_555 1_555
H16 C13 1_555 1_555
H17 C13 1_555 1_555
H18 C13 1_555 1_555
C14 C11 1_555 1_555
H19 C14 1_555 1_555
H20 C14 1_555 1_555
H21 C14 1_555 1_555
C15 O2 1_555 1_555
H22 C15 1_555 1_555
H23 C15 1_555 1_555
C16 C15 1_555 1_555
H24 C16 1_555 1_555
H25 C16 1_555 1_555
C17 C16 1_555 1_555
H26 C17 1_555 1_555
H27 C17 1_555 1_555
C18 O2 1_555 1_555
H28 C18 1_555 1_555
H29 C18 1_555 1_555
C19 H30 1_555 1_555
O1A Sr1 1_555 1_555
C1A O1A 1_555 1_555
O2A Sr1 1_555 1_555
C2A C1A 1_555 1_555
C3A C2A 1_555 1_555
H1A C3A 1_555 1_555
C4A C3A 1_555 1_555
C5A C4A 1_555 1_555
H2A C5A 1_555 1_555
C6A C1A 1_555 1_555
H3A C6A 1_555 1_555
C7A C2A 1_555 1_555
C8A C7A 1_555 1_555
H4A C8A 1_555 1_555
H5A C8A 1_555 1_555
H6A C8A 1_555 1_555
C9A C7A 1_555 1_555
H7A C9A 1_555 1_555
H8A C9A 1_555 1_555
H9A C9A 1_555 1_555
C10A C7A 1_555 1_555
H10A C10A 1_555 1_555
H11A C10A 1_555 1_555
H12A C10A 1_555 1_555
C11A C4A 1_555 1_555
C12A C11A 1_555 1_555
H13A C12A 1_555 1_555
H14A C12A 1_555 1_555
H15A C12A 1_555 1_555
C13A C11A 1_555 1_555
H16A C13A 1_555 1_555
H17A C13A 1_555 1_555
H18A C13A 1_555 1_555
C14A C11A 1_555 1_555
H19A C14A 1_555 1_555
H20A C14A 1_555 1_555
H21A C14A 1_555 1_555
C15A O2A 1_555 1_555
H22A C15A 1_555 1_555
H23A C15A 1_555 1_555
C16A C15A 1_555 1_555
H24A C16A 1_555 1_555
H25A C16A 1_555 1_555
C17A C16A 1_555 1_555
H26A C17A 1_555 1_555
H27A C17A 1_555 1_555
C18A O2A 1_555 1_555
H28A C18A 1_555 1_555
H29A C18A 1_555 1_555
O1B Sr1 1_555 1_555
C1B O1B 1_555 1_555
O2B Sr1 1_555 1_555
C2B C1B 1_555 1_555
C3B C2B 1_555 1_555
H1B C3B 1_555 1_555
C4B C3B 1_555 1_555
C5B C4B 1_555 1_555
H2B C5B 1_555 1_555
C6B C1B 1_555 1_555
H3B C6B 1_555 1_555
C7B C2B 1_555 1_555
C8B C7B 1_555 1_555
H4B C8B 1_555 1_555
H5B C8B 1_555 1_555
H6B C8B 1_555 1_555
C9B C7B 1_555 1_555
H7B C9B 1_555 1_555
H8B C9B 1_555 1_555
H9B C9B 1_555 1_555
C10B C7B 1_555 1_555
H10B C10B 1_555 1_555
H11B C10B 1_555 1_555
H12B C10B 1_555 1_555
C11B C4B 1_555 1_555
C12B C11B 1_555 1_555
H13B C12B 1_555 1_555
H14B C12B 1_555 1_555
H15B C12B 1_555 1_555
C13B C11B 1_555 1_555
H16B C13B 1_555 1_555
H17B C13B 1_555 1_555
H18B C13B 1_555 1_555
C14B C11B 1_555 1_555
H19B C14B 1_555 1_555
H20B C14B 1_555 1_555
H21B C14B 1_555 1_555
C15B O2B 1_555 1_555
H22B C15B 1_555 1_555
H23B C15B 1_555 1_555
C16B C15B 1_555 1_555
H24B C16B 1_555 1_555
H25B C16B 1_555 1_555
C17B C16B 1_555 1_555
H26B C17B 1_555 1_555
H27B C17B 1_555 1_555
C18B O2B 1_555 1_555
H28B C18B 1_555 1_555
H29B C18B 1_555 1_555
Sr1O O1O 1_555 1_555
O1O Sr2 1_555 1_555
C1O O1O 1_555 1_555
O2O Sr1O 1_555 1_555
C2O C1O 1_555 1_555
C3O C2O 1_555 1_555
H1O C3O 1_555 1_555
C4O C3O 1_555 1_555
C5O C4O 1_555 1_555
H2O C5O 1_555 1_555
C6O C1O 1_555 1_555
H3O C6O 1_555 1_555
C7O C2O 1_555 1_555
C8O C7O 1_555 1_555
H4O C8O 1_555 1_555
H5O C8O 1_555 1_555
H6O C8O 1_555 1_555
C9O C7O 1_555 1_555
H7O C9O 1_555 1_555
H8O C9O 1_555 1_555
H9O C9O 1_555 1_555
C10O C7O 1_555 1_555
H10O C10O 1_555 1_555
H11O C10O 1_555 1_555
H12O C10O 1_555 1_555
C11O C4O 1_555 1_555
C12O C11O 1_555 1_555
H13O C12O 1_555 1_555
H14O C12O 1_555 1_555
H15O C12O 1_555 1_555
C13O C11O 1_555 1_555
H16O C13O 1_555 1_555
H17O C13O 1_555 1_555
H18O C13O 1_555 1_555
C14O C11O 1_555 1_555
H19O C14O 1_555 1_555
H20O C14O 1_555 1_555
H21O C14O 1_555 1_555
C15O O2O 1_555 1_555
H22O C15O 1_555 1_555
H23O C15O 1_555 1_555
C16O C15O 1_555 1_555
H24O C16O 1_555 1_555
H25O C16O 1_555 1_555
C17O C16O 1_555 1_555
H26O C17O 1_555 1_555
H27O C17O 1_555 1_555
C18O O2O 1_555 1_555
H28O C18O 1_555 1_555
H29O C18O 1_555 1_555
O1P Sr2 1_555 1_555
C1P O1P 1_555 1_555
O2P Sr1O 1_555 1_555
C2P C1P 1_555 1_555
C3P C2P 1_555 1_555
H1P C3P 1_555 1_555
C4P C3P 1_555 1_555
C5P C4P 1_555 1_555
H2P C5P 1_555 1_555
C6P C1P 1_555 1_555
H3P C6P 1_555 1_555
C7P C2P 1_555 1_555
C8P C7P 1_555 1_555
H4P C8P 1_555 1_555
H5P C8P 1_555 1_555
H6P C8P 1_555 1_555
C9P C7P 1_555 1_555
H7P C9P 1_555 1_555
H8P C9P 1_555 1_555
H9P C9P 1_555 1_555
C10P C7P 1_555 1_555
H10P C10P 1_555 1_555
H11P C10P 1_555 1_555
H12P C10P 1_555 1_555
C11P C4P 1_555 1_555
C12P C11P 1_555 1_555
H13P C12P 1_555 1_555
H14P C12P 1_555 1_555
H15P C12P 1_555 1_555
C13P C11P 1_555 1_555
H16P C13P 1_555 1_555
H17P C13P 1_555 1_555
H18P C13P 1_555 1_555
C14P C11P 1_555 1_555
H19P C14P 1_555 1_555
H20P C14P 1_555 1_555
H21P C14P 1_555 1_555
C15P O2P 1_555 1_555
H22P C15P 1_555 1_555
H23P C15P 1_555 1_555
C16P C15P 1_555 1_555
H24P C16P 1_555 1_555
H25P C16P 1_555 1_555
C17P C16P 1_555 1_555
H26P C17P 1_555 1_555
H27P C17P 1_555 1_555
C18P O2P 1_555 1_555
H28P C18P 1_555 1_555
H29P C18P 1_555 1_555
O1Q Sr2 1_555 1_555
C1Q O1Q 1_555 1_555
O2Q Sr1O 1_555 1_555
C2Q C1Q 1_555 1_555
C3Q C2Q 1_555 1_555
H1Q C3Q 1_555 1_555
C4Q C3Q 1_555 1_555
C5Q C4Q 1_555 1_555
H2Q C5Q 1_555 1_555
C6Q C1Q 1_555 1_555
H3Q C6Q 1_555 1_555
C7Q C2Q 1_555 1_555
C8Q C7Q 1_555 1_555
H4Q C8Q 1_555 1_555
H5Q C8Q 1_555 1_555
H6Q C8Q 1_555 1_555
C9Q C7Q 1_555 1_555
H7Q C9Q 1_555 1_555
H8Q C9Q 1_555 1_555
H9Q C9Q 1_555 1_555
C10Q C7Q 1_555 1_555
H10Q C10Q 1_555 1_555
H11Q C10Q 1_555 1_555
H12Q C10Q 1_555 1_555
C11Q C4Q 1_555 1_555
C12Q C11Q 1_555 1_555
H13Q C12Q 1_555 1_555
H14Q C12Q 1_555 1_555
H15Q C12Q 1_555 1_555
C13Q C11Q 1_555 1_555
H16Q C13Q 1_555 1_555
H17Q C13Q 1_555 1_555
H18Q C13Q 1_555 1_555
C14Q C11Q 1_555 1_555
H19Q C14Q 1_555 1_555
H20Q C14Q 1_555 1_555
H21Q C14Q 1_555 1_555
C15Q O2Q 1_555 1_555
H22Q C15Q 1_555 1_555
H23Q C15Q 1_555 1_555
C16Q C15Q 1_555 1_555
H24Q C16Q 1_555 1_555
H25Q C16Q 1_555 1_555
C17Q C16Q 1_555 1_555
H26Q C17Q 1_555 1_555
H27Q C17Q 1_555 1_555
C18Q O2Q 1_555 1_555
H28Q C18Q 1_555 1_555
H29Q C18Q 1_555 1_555
C19S C19 1_555 1_555
H30S C19S 1_555 1_555
C19T C19 1_555 1_555
H30T C19T 1_555 1_555
C19A C19T 1_555 1_555
H30A C19A 1_555 1_555
C19B C19S 1_555 1_555
H30B C19B 1_555 1_555
C19R C19A 1_555 1_555
H30R C19R 1_555 1_555
Sr2 O1A 1_555 1_555
Sr2 O1B 1_555 1_555
C5 C6 1_555 1_555
C17 C18 1_555 1_555
C5A C6A 1_555 1_555
C17A C18A 1_555 1_555
C5B C6B 1_555 1_555
C17B C18B 1_555 1_555
Sr1O O1P 1_555 1_555
Sr1O O1Q 1_555 1_555
C5O C6O 1_555 1_555
C17O C18O 1_555 1_555
C5P C6P 1_555 1_555
C17P C18P 1_555 1_555
C5Q C6Q 1_555 1_555
C17Q C18Q 1_555 1_555
C19B C19R 1_555 1_555

#END
