
#######################################################################
#
#                 Cambridge Crystallographic Data Centre
#                                CCDC 
#
#######################################################################
#
# If this CIF has been generated from an entry in the Cambridge 
# Structural Database, then it will include bibliographic, chemical, 
# crystal, experimental, refinement or atomic coordinate data resulting 
# from the CCDC's data processing and validation procedures.
#
#######################################################################

data_RENWUF
_chemical_formula_moiety         'C23 H20 N2 O4 S1,0.25(C1 H4 O1),0.5(H2 O1)'
_chemical_name_systematic        
'N-[(4-methyl-5-oxo-2-phenyl-2,5-dihydrofuran-2-yl)(phenyl)methyl]pyridine-2-sulfonamide methanol solvate hydrate'
_symmetry_cell_setting           triclinic
_symmetry_space_group_name_H-M   'P 1'
_symmetry_Int_Tables_number      1
_space_group_name_Hall           'P 1'
loop_
_symmetry_equiv_pos_site_id
_symmetry_equiv_pos_as_xyz
1 x,y,z
_cell_length_a                   11.3575(4)
_cell_length_b                   12.9479(6)
_cell_length_c                   15.7889(5)
_cell_angle_alpha                81.909(3)
_cell_angle_beta                 88.938(3)
_cell_angle_gamma                72.873(3)
_cell_volume                     2196.15
_exptl_crystal_colour            colorless
_exptl_crystal_description       prism
_cell_formula_units_Z            4
loop_
_atom_site_label
_atom_site_type_symbol
_atom_site_fract_x
_atom_site_fract_y
_atom_site_fract_z
C1 C 0.1793(4) 0.6409(4) 0.9632(3)
C2 C 0.1102(4) 0.5607(3) 0.9775(2)
C3 C 0.1794(4) 0.4688(3) 0.9527(3)
H1 H 0.1569 0.4049 0.9554
C4 C 0.2993(4) 0.4826(3) 0.9197(3)
C5 C 0.3184(4) 0.4659(3) 0.8259(3)
C6 C 0.3572(4) 0.5394(4) 0.7687(3)
H2 H 0.3721 0.5997 0.7869
C7 C 0.3738(5) 0.5227(5) 0.6835(3)
H3 H 0.3995 0.5724 0.6449
C8 C 0.3527(6) 0.4343(5) 0.6562(3)
H4 H 0.3636 0.4242 0.5991
C9 C 0.3156(6) 0.3607(5) 0.7126(4)
H5 H 0.3022 0.2999 0.6940
C10 C 0.2977(5) 0.3763(4) 0.7979(3)
H6 H 0.2719 0.3263 0.8361
C11 C 0.4112(4) 0.4069(3) 0.9769(2)
H7 H 0.4184 0.3316 0.9691
C12 C 0.3950(4) 0.4139(4) 1.0712(3)
C13 C 0.4058(5) 0.5034(4) 1.1066(3)
H8 H 0.4220 0.5612 1.0713
C14 C 0.3932(6) 0.5077(5) 1.1929(3)
H9 H 0.4020 0.5677 1.2154
C15 C 0.3677(6) 0.4247(6) 1.2457(3)
H10 H 0.3585 0.4281 1.3040
C16 C 0.3555(7) 0.3354(6) 1.2118(4)
H11 H 0.3375 0.2787 1.2474
C17 C 0.3699(5) 0.3298(4) 1.1255(3)
H12 H 0.3628 0.2689 1.1035
C18 C -0.0155(4) 0.5882(5) 1.0133(3)
H13 H -0.0114 0.6035 1.0708
H14 H -0.0481 0.5276 1.0137
H15 H -0.0682 0.6512 0.9787
C19 C 0.6858(3) 0.2609(3) 1.0444(2)
C20 C 0.7253(5) 0.3108(4) 1.1040(3)
H16 H 0.7353 0.3799 1.0900
C21 C 0.7498(6) 0.2544(5) 1.1859(4)
H17 H 0.7775 0.2849 1.2286
C22 C 0.7330(6) 0.1543(5) 1.2035(4)
H18 H 0.7476 0.1157 1.2585
C23 C 0.6941(6) 0.1112(5) 1.1388(4)
H19 H 0.6836 0.0421 1.1510
N1 N 0.5233(3) 0.4302(3) 0.9439(2)
H20 H 0.538(4) 0.482(4) 0.951(3)
N2 N 0.6704(4) 0.1632(3) 1.0591(2)
O1 O 0.1517(4) 0.7335(3) 0.9767(2)
O2 O 0.2898(3) 0.5939(2) 0.92875(18)
O3 O 0.6218(4) 0.2564(3) 0.8899(2)
O4 O 0.7425(3) 0.3818(4) 0.9120(3)
S1 S 0.64832(9) 0.33180(9) 0.93771(7)
C24 C 0.2257(4) 1.1312(4) 0.9654(3)
C25 C 0.1284(4) 1.0770(4) 0.9752(3)
C26 C 0.1712(4) 0.9809(3) 0.9489(3)
H21 H 0.1273 0.9306 0.9488
C27 C 0.3006(3) 0.9641(3) 0.9192(2)
C28 C 0.3141(3) 0.9473(3) 0.8256(3)
C29 C 0.3592(5) 1.0159(5) 0.7669(3)
H22 H 0.3822 1.0731 0.7842
C30 C 0.3696(6) 0.9983(6) 0.6825(3)
H23 H 0.3993 1.0448 0.6434
C31 C 0.3382(6) 0.9161(5) 0.6551(3)
H24 H 0.3473 0.9052 0.5981
C32 C 0.2923(6) 0.8481(5) 0.7126(3)
H25 H 0.2685 0.7920 0.6942
C33 C 0.2815(5) 0.8631(4) 0.7979(3)
H26 H 0.2520 0.8160 0.8366
C34 C 0.3930(3) 0.8700(3) 0.9793(2)
H27 H 0.3705 0.8030 0.9768
C35 C 0.3853(3) 0.8902(3) 1.0721(2)
C36 C 0.4322(4) 0.9666(4) 1.1009(3)
H28 H 0.4709 1.0070 1.0628
C37 C 0.4224(5) 0.9836(5) 1.1857(3)
H29 H 0.4538 1.0356 1.2042
C38 C 0.3659(6) 0.9232(6) 1.2429(3)
H30 H 0.3601 0.9334 1.3001
C39 C 0.3183(6) 0.8478(6) 1.2140(3)
H31 H 0.2790 0.8079 1.2520
C40 C 0.3281(5) 0.8307(5) 1.1297(3)
H32 H 0.2961 0.7791 1.1113
C41 C 0.0047(5) 1.1320(5) 1.0090(4)
H33 H 0.0153 1.1498 1.0649
H34 H -0.0458 1.0838 1.0127
H35 H -0.0344 1.1977 0.9712
C42 C 0.6615(4) 0.6933(3) 1.0648(2)
C43 C 0.7042(5) 0.7631(5) 1.1043(3)
H36 H 0.7108 0.8286 1.0749
C44 C 0.7372(5) 0.7314(6) 1.1902(4)
H37 H 0.7666 0.7755 1.2207
C45 C 0.7256(7) 0.6352(5) 1.2284(3)
H38 H 0.7450 0.6129 1.2863
C46 C 0.6858(8) 0.5712(6) 1.1824(4)
H39 H 0.6816 0.5041 1.2101
N3 N 0.5170(3) 0.8538(3) 0.9449(2)
H40 H 0.549(4) 0.907(3) 0.944(2)
N4 N 0.6520(5) 0.5979(4) 1.0997(3)
O5 O 0.2278(4) 1.2175(3) 0.9830(3)
O6 O 0.3247(3) 1.0652(2) 0.92976(18)
O7 O 0.7181(3) 0.7419(3) 0.9060(2)
O8 O 0.5480(3) 0.6597(3) 0.9339(2)
S2 S 0.61284(8) 0.73255(8) 0.95389(6)
C47 C 0.7877(7) 0.9680(6) 0.9269(5)
H41 H 0.8048 0.9027 0.9006
H42 H 0.8363 0.9533 0.9787
H43 H 0.8078 1.0242 0.8883
O9 O 0.6635(4) 1.0022(4) 0.9457(3)
H44 H 0.6515 1.0570 0.9712
C48 C 1.1646(5) 0.8580(4) 0.4700(3)
C49 C 1.2475(4) 0.7482(4) 0.4726(3)
C50 C 1.1824(4) 0.6807(4) 0.4922(3)
H45 H 1.2134 0.6052 0.4959
C51 C 1.0522(3) 0.7401(3) 0.5080(2)
C52 C 1.0188(3) 0.7129(4) 0.6005(2)
C53 C 0.9794(6) 0.7916(5) 0.6524(4)
H46 H 0.9732 0.8640 0.6317
C54 C 0.9492(8) 0.7635(7) 0.7351(4)
H47 H 0.9227 0.8176 0.7700
C55 C 0.9569(5) 0.6571(6) 0.7679(3)
H48 H 0.9350 0.6395 0.8239
C56 C 0.9970(5) 0.5793(6) 0.7168(3)
H49 H 1.0031 0.5071 0.7380
C57 C 1.0292(5) 0.6053(4) 0.6331(3)
H50 H 1.0577 0.5506 0.5988
C58 C 0.9764(10) 0.7022(8) 0.4434(9)
H51 H 0.9996 0.6223 0.4504
C59 C 0.9908(5) 0.7472(5) 0.3512(3)
C60 C 0.9580(5) 0.8527(5) 0.3089(3)
H52 H 0.9188 0.9109 0.3378
C61 C 0.9841(5) 0.8715(5) 0.2223(3)
H53 H 0.9632 0.9427 0.1940
C62 C 1.0401(5) 0.7868(6) 0.1784(3)
H54 H 1.0543 0.8001 0.1203
C63 C 1.0748(6) 0.6831(6) 0.2206(4)
H55 H 1.1157 0.6257 0.1915
C64 C 1.0497(6) 0.6620(5) 0.3070(4)
H56 H 1.0726 0.5906 0.3350
C65 C 1.3816(5) 0.7275(9) 0.4551(5)
H57 H 1.3915 0.7583 0.3974
H58 H 1.4216 0.6503 0.4626
H59 H 1.4178 0.7608 0.4941
C66 C 0.7180(9) 0.6420(13) 0.5791(6)
C67 C 0.6792(15) 0.7319(14) 0.6215(14)
H60 H 0.6800 0.7999 0.5935
C68 C 0.640(5) 0.723(3) 0.702(3)
H61 H 0.6065 0.7825 0.7315
C69 C 0.6565(14) 0.6175(14) 0.7360(10)
H62 H 0.6350 0.6047 0.7928
C70 C 0.7009(16) 0.5281(14) 0.6957(9)
H63 H 0.7104 0.4588 0.7254
N5 N 0.8477(6) 0.7460(6) 0.4609(4)
H64 H 0.8205 0.8133 0.4686
N6 N 0.7318(14) 0.5401(15) 0.6111(9)
O10 O 1.1863(6) 0.9437(4) 0.4542(3)
O11 O 1.0503(3) 0.8523(2) 0.4912(2)
O12 O 0.8154(6) 0.5699(5) 0.4416(4)
O13 O 0.6958(7) 0.7355(7) 0.3976(4)
S3 S 0.75228(16) 0.67420(17) 0.46657(11)
O17 O 0.7300(9) 0.9770(7) 0.4153(7)
H73 H 0.7428 0.9101 0.4280
H74 H 0.7301 0.9920 0.4661
C77 C 1.1707(4) 0.3564(4) 0.4752(3)
C78 C 1.2524(4) 0.2453(4) 0.4796(3)
C79 C 1.1864(4) 0.1784(3) 0.4973(3)
H75 H 1.2170 0.1029 0.5017
C80 C 1.0554(4) 0.2391(4) 0.5096(3)
C81 C 1.0167(3) 0.2129(4) 0.6016(3)
C82 C 0.9810(6) 0.2918(5) 0.6538(4)
H76 H 0.9783 0.3635 0.6334
C83 C 0.9488(8) 0.2645(7) 0.7376(4)
H77 H 0.9249 0.3182 0.7732
C84 C 0.9518(6) 0.1601(6) 0.7679(3)
H78 H 0.9295 0.1426 0.8238
C85 C 0.9872(5) 0.0817(5) 0.7166(3)
H79 H 0.9897 0.0103 0.7376
C86 C 1.0198(5) 0.1068(4) 0.6329(3)
H80 H 1.0436 0.0525 0.5979
C87 C 0.9825(8) 0.1957(7) 0.4419(6)
H81 H 1.0077 0.1158 0.4476
C88 C 1.0039(5) 0.2479(7) 0.3517(3)
C89 C 0.9739(5) 0.3542(6) 0.3107(3)
H82 H 0.9305 0.4112 0.3394
C90 C 1.0081(6) 0.3758(6) 0.2272(4)
H83 H 0.9875 0.4476 0.2001
C91 C 1.0724(6) 0.2927(6) 0.1835(4)
H84 H 1.0951 0.3079 0.1273
C92 C 1.1019(7) 0.1885(7) 0.2236(4)
H85 H 1.1460 0.1320 0.1947
C93 C 1.0676(7) 0.1649(7) 0.3068(4)
H86 H 1.0874 0.0927 0.3329
C94 C 1.3884(5) 0.2231(6) 0.4667(4)
H87 H 1.4024 0.2532 0.4096
H88 H 1.4275 0.1457 0.4750
H89 H 1.4222 0.2561 0.5071
C95 C 0.7144(7) 0.1470(8) 0.5671(5)
C96 C 0.6763(11) 0.2417(10) 0.6051(7)
H90 H 0.6791 0.3083 0.5756
C97 C 0.6353(12) 0.2348(10) 0.6851(7)
H91 H 0.6056 0.2959 0.7128
C98 C 0.6398(11) 0.1314(12) 0.7241(8)
H92 H 0.6124 0.1256 0.7799
C99 C 0.6787(19) 0.0398(16) 0.6906(11)
H93 H 0.6825 -0.0278 0.7217
N9 N 0.8522(6) 0.2407(6) 0.4559(4)
H94 H 0.8244 0.3082 0.4629
N10 N 0.7128(10) 0.0508(8) 0.6076(7)
O18 O 1.1939(5) 0.4411(3) 0.4590(3)
O19 O 1.0548(3) 0.3514(3) 0.4938(2)
O20 O 0.8217(6) 0.0644(6) 0.4363(5)
O21 O 0.6491(7) 0.2337(7) 0.4106(4)
S5 S 0.75712(16) 0.16890(17) 0.45870(12)
O24 O 0.7322(8) 0.4710(6) 0.4272(6)
H101 H 0.7105 0.4096 0.4251
H102 H 0.7064 0.4899 0.4761
C71? C 0.9444(11) 0.7441(9) 0.4465(9)
H65? H 0.9310 0.6723 0.4605
C72? C 0.6878(9) 0.7117(12) 0.5629(6)
C73? C 0.6435(17) 0.7619(16) 0.6280(16)
H66? H 0.6187 0.8374 0.6258
C74? C 0.637(6) 0.685(3) 0.706(4)
H67? H 0.6130 0.7129 0.7567
C75? C 0.6648(17) 0.5773(16) 0.7053(13)
H68? H 0.6565 0.5275 0.7518
C76? C 0.704(2) 0.552(2) 0.6331(15)
H69? H 0.7287 0.4769 0.6330
N7? N 0.8290(6) 0.8210(6) 0.4676(4)
H70? H 0.8314 0.8815 0.4830
N8? N 0.7185(16) 0.6083(13) 0.5542(10)
O14? O 0.6071(6) 0.9015(6) 0.4650(5)
O15? O 0.6401(7) 0.7397(7) 0.4242(5)
O16? O 0.6071(12) 0.9978(10) 0.3812(10)
H71? H 0.5802 1.0606 0.3518
H72? H 0.6164 1.0283 0.4239
S4? S 0.69800(17) 0.79831(18) 0.46341(12)
C100? C 0.9514(9) 0.2491(8) 0.4451(7)
H95? H 0.9354 0.1782 0.4576
C101? C 0.6905(7) 0.2178(6) 0.5511(5)
C102? C 0.6530(10) 0.2573(7) 0.6277(6)
H96? H 0.6386 0.3310 0.6314
C103? C 0.6371(12) 0.1865(10) 0.6988(5)
H97? H 0.6121 0.2129 0.7501
C104? C 0.6587(13) 0.0763(9) 0.6933(6)
H98? H 0.6480 0.0290 0.7409
C105? C 0.6961(13) 0.0369(6) 0.6167(7)
H99? H 0.7105 -0.0369 0.6130
N11? N 0.7120(9) 0.1076(7) 0.5456(5)
N12? N 0.8340(6) 0.3264(6) 0.4646(5)
H100? H 0.8341 0.3864 0.4819
O22? O 0.6101(6) 0.4019(6) 0.4542(5)
O23? O 0.7117(7) 0.2378(8) 0.3878(5)
O25? O 0.6025(11) 0.4924(10) 0.4072(10)
H103? H 0.5212 0.5172 0.3826
H104? H 0.6186 0.5578 0.4005
S6? S 0.70487(18) 0.30050(19) 0.45421(13)
loop_
_geom_bond_atom_site_label_1
_geom_bond_atom_site_label_2
_geom_bond_site_symmetry_1
_geom_bond_site_symmetry_2
C1 C2 1_555 1_555
C2 C3 1_555 1_555
C3 H1 1_555 1_555
C4 C3 1_555 1_555
C5 C4 1_555 1_555
C6 C5 1_555 1_555
H2 C6 1_555 1_555
C7 C6 1_555 1_555
H3 C7 1_555 1_555
C8 C7 1_555 1_555
H4 C8 1_555 1_555
C9 C8 1_555 1_555
H5 C9 1_555 1_555
C10 C5 1_555 1_555
H6 C10 1_555 1_555
C11 C4 1_555 1_555
H7 C11 1_555 1_555
C12 C11 1_555 1_555
C13 C12 1_555 1_555
H8 C13 1_555 1_555
C14 C13 1_555 1_555
H9 C14 1_555 1_555
C15 C14 1_555 1_555
H10 C15 1_555 1_555
C16 C15 1_555 1_555
H11 C16 1_555 1_555
C17 C12 1_555 1_555
H12 C17 1_555 1_555
C18 C2 1_555 1_555
H13 C18 1_555 1_555
H14 C18 1_555 1_555
H15 C18 1_555 1_555
C19 C20 1_555 1_555
C20 H16 1_555 1_555
C21 C20 1_555 1_555
H17 C21 1_555 1_555
C22 C21 1_555 1_555
H18 C22 1_555 1_555
C23 C22 1_555 1_555
H19 C23 1_555 1_555
N1 C11 1_555 1_555
H20 N1 1_555 1_555
N2 C19 1_555 1_555
O1 C1 1_555 1_555
O2 C1 1_555 1_555
O3 S1 1_555 1_555
O4 S1 1_555 1_555
S1 C19 1_555 1_555
C24 C25 1_555 1_555
C25 C26 1_555 1_555
C26 H21 1_555 1_555
C27 C26 1_555 1_555
C28 C27 1_555 1_555
C29 C28 1_555 1_555
H22 C29 1_555 1_555
C30 C29 1_555 1_555
H23 C30 1_555 1_555
C31 C30 1_555 1_555
H24 C31 1_555 1_555
C32 C31 1_555 1_555
H25 C32 1_555 1_555
C33 C28 1_555 1_555
H26 C33 1_555 1_555
C34 C27 1_555 1_555
H27 C34 1_555 1_555
C35 C34 1_555 1_555
C36 C35 1_555 1_555
H28 C36 1_555 1_555
C37 C36 1_555 1_555
H29 C37 1_555 1_555
C38 C37 1_555 1_555
H30 C38 1_555 1_555
C39 C38 1_555 1_555
H31 C39 1_555 1_555
C40 C35 1_555 1_555
H32 C40 1_555 1_555
C41 C25 1_555 1_555
H33 C41 1_555 1_555
H34 C41 1_555 1_555
H35 C41 1_555 1_555
C42 C43 1_555 1_555
C43 H36 1_555 1_555
C44 C43 1_555 1_555
H37 C44 1_555 1_555
C45 C44 1_555 1_555
H38 C45 1_555 1_555
C46 C45 1_555 1_555
H39 C46 1_555 1_555
N3 C34 1_555 1_555
H40 N3 1_555 1_555
N4 C42 1_555 1_555
O5 C24 1_555 1_555
O6 C24 1_555 1_555
O7 S2 1_555 1_555
O8 S2 1_555 1_555
S2 C42 1_555 1_555
C47 H41 1_555 1_555
H42 C47 1_555 1_555
H43 C47 1_555 1_555
O9 C47 1_555 1_555
H44 O9 1_555 1_555
C48 C49 1_555 1_555
C49 C50 1_555 1_555
C50 H45 1_555 1_555
C51 C50 1_555 1_555
C52 C51 1_555 1_555
C53 C52 1_555 1_555
H46 C53 1_555 1_555
C54 C53 1_555 1_555
H47 C54 1_555 1_555
C55 C54 1_555 1_555
H48 C55 1_555 1_555
C56 C55 1_555 1_555
H49 C56 1_555 1_555
C57 C52 1_555 1_555
H50 C57 1_555 1_555
C58 C51 1_555 1_555
H51 C58 1_555 1_555
C59 C58 1_555 1_555
C60 C59 1_555 1_555
H52 C60 1_555 1_555
C61 C60 1_555 1_555
H53 C61 1_555 1_555
C62 C61 1_555 1_555
H54 C62 1_555 1_555
C63 C62 1_555 1_555
H55 C63 1_555 1_555
C64 C59 1_555 1_555
H56 C64 1_555 1_555
C65 C49 1_555 1_555
H57 C65 1_555 1_555
H58 C65 1_555 1_555
H59 C65 1_555 1_555
C66 C67 1_555 1_555
C67 H60 1_555 1_555
C68 C67 1_555 1_555
H61 C68 1_555 1_555
C69 C68 1_555 1_555
H62 C69 1_555 1_555
C70 C69 1_555 1_555
H63 C70 1_555 1_555
N5 C58 1_555 1_555
H64 N5 1_555 1_555
N6 C66 1_555 1_555
O10 C48 1_555 1_555
O11 C48 1_555 1_555
O12 S3 1_555 1_555
O13 S3 1_555 1_555
S3 C66 1_555 1_555
O17 H73 1_555 1_555
H74 O17 1_555 1_555
C77 C78 1_555 1_555
C78 C79 1_555 1_555
C79 H75 1_555 1_555
C80 C79 1_555 1_555
C81 C80 1_555 1_555
C82 C81 1_555 1_555
H76 C82 1_555 1_555
C83 C82 1_555 1_555
H77 C83 1_555 1_555
C84 C83 1_555 1_555
H78 C84 1_555 1_555
C85 C84 1_555 1_555
H79 C85 1_555 1_555
C86 C81 1_555 1_555
H80 C86 1_555 1_555
C87 C80 1_555 1_555
H81 C87 1_555 1_555
C88 C87 1_555 1_555
C89 C88 1_555 1_555
H82 C89 1_555 1_555
C90 C89 1_555 1_555
H83 C90 1_555 1_555
C91 C90 1_555 1_555
H84 C91 1_555 1_555
C92 C91 1_555 1_555
H85 C92 1_555 1_555
C93 C88 1_555 1_555
H86 C93 1_555 1_555
C94 C78 1_555 1_555
H87 C94 1_555 1_555
H88 C94 1_555 1_555
H89 C94 1_555 1_555
C95 C96 1_555 1_555
C96 H90 1_555 1_555
C97 C96 1_555 1_555
H91 C97 1_555 1_555
C98 C97 1_555 1_555
H92 C98 1_555 1_555
C99 C98 1_555 1_555
H93 C99 1_555 1_555
N9 C87 1_555 1_555
H94 N9 1_555 1_555
N10 C95 1_555 1_555
O18 C77 1_555 1_555
O19 C77 1_555 1_555
O20 S5 1_555 1_555
O21 S5 1_555 1_555
S5 C95 1_555 1_555
O24 H101 1_555 1_555
H102 O24 1_555 1_555
C4 O2 1_555 1_555
C9 C10 1_555 1_555
C16 C17 1_555 1_555
C23 N2 1_555 1_555
N1 S1 1_555 1_555
C27 O6 1_555 1_555
C32 C33 1_555 1_555
C39 C40 1_555 1_555
C46 N4 1_555 1_555
N3 S2 1_555 1_555
C51 O11 1_555 1_555
C56 C57 1_555 1_555
C63 C64 1_555 1_555
C70 N6 1_555 1_555
N5 S3 1_555 1_555
C80 O19 1_555 1_555
C85 C86 1_555 1_555
C92 C93 1_555 1_555
C99 N10 1_555 1_555
N9 S5 1_555 1_555

#END
