
#######################################################################
#
#                 Cambridge Crystallographic Data Centre
#                                CCDC 
#
#######################################################################
#
# If this CIF has been generated from an entry in the Cambridge 
# Structural Database, then it will include bibliographic, chemical, 
# crystal, experimental, refinement or atomic coordinate data resulting 
# from the CCDC's data processing and validation procedures.
#
#######################################################################

data_RENYEQ
_chemical_formula_moiety         'C37 H29 N5 2+,0.5(H2 O1),2(Br1 1-)'
_chemical_name_systematic        
'1,5(1,3)-dibenzimidazola-3(4,5)-acridina-7(1,3)-benzenacyclooctaphane-1^3^,5^3^-diium dibromide hemihydrate'
_symmetry_cell_setting           triclinic
_symmetry_space_group_name_H-M   'P -1'
_symmetry_Int_Tables_number      2
_space_group_name_Hall           '-P 1'
loop_
_symmetry_equiv_pos_site_id
_symmetry_equiv_pos_as_xyz
1 x,y,z
2 -x,-y,-z
_cell_length_a                   8.8544(15)
_cell_length_b                   11.0995(19)
_cell_length_c                   16.475(3)
_cell_angle_alpha                91.233(2)
_cell_angle_beta                 90.453(2)
_cell_angle_gamma                105.781(2)
_cell_volume                     1557.6
_exptl_crystal_colour            yellow
_exptl_crystal_description       block
_cell_formula_units_Z            2
loop_
_atom_site_label
_atom_site_type_symbol
_atom_site_fract_x
_atom_site_fract_y
_atom_site_fract_z
Br1 Br 0.50307(8) 0.15169(6) 0.33523(4)
Br2 Br 0.31619(8) 0.62362(7) 0.06488(5)
N1 N 0.7604(5) 0.8866(3) 0.3930(2)
N2 N 0.6372(5) 0.5208(4) 0.2057(2)
N3 N 0.8183(5) 0.6298(4) 0.1276(2)
N4 N 0.9048(4) 0.9343(4) 0.1147(2)
N5 N 0.9753(5) 0.9513(4) 0.3229(2)
C1 C 0.5128(5) 0.7192(4) 0.4023(3)
C2 C 0.8928(6) 0.6124(4) 0.1991(3)
C3 C 1.0169(6) 0.9007(4) 0.3949(3)
C4 C 0.7795(5) 0.5422(4) 0.2484(3)
C5 C 0.4584(5) 0.5322(4) 0.3171(3)
C6 C 0.7395(6) 0.9737(5) 0.0051(3)
C7 C 0.8017(6) 0.7717(4) 0.0145(3)
C8 C 0.8210(6) 0.9414(4) 0.3246(3)
H1 H 0.7646 0.9686 0.2843
C9 C 0.9270(6) 1.0535(4) 0.1404(3)
C10 C 0.6669(6) 0.5742(4) 0.1347(3)
H2 H 0.5914 0.5728 0.0949
C11 C 1.1608(6) 0.8926(5) 0.4241(3)
H3 H 1.2522 0.9196 0.3944
C12 C 0.8178(5) 0.8965(4) 0.0466(3)
C13 C 0.7618(6) 1.0960(5) 0.0327(3)
H4 H 0.7118 1.1484 0.0068
C14 C 0.8806(6) 0.8601(4) 0.4383(3)
C15 C 1.0496(6) 0.6543(5) 0.2245(3)
H5 H 1.1274 0.7007 0.1913
C16 C 0.8940(6) 0.6910(5) 0.0524(3)
H6 H 0.9031 0.6268 0.0133
H7 H 0.9990 0.7421 0.0659
C17 C 0.4243(6) 0.6519(5) 0.4619(3)
H8 H 0.4144 0.6908 0.5114
C18 C 0.3691(5) 0.4663(4) 0.3778(3)
H9 H 0.3224 0.3809 0.3703
C19 C 1.0244(6) 1.0971(5) 0.2107(3)
C20 C 0.5944(5) 0.8571(4) 0.4152(3)
H10 H 0.5421 0.9059 0.3826
H11 H 0.5867 0.8805 0.4718
C21 C 0.6426(7) 0.9240(6) -0.0642(3)
H12 H 0.5889 0.9732 -0.0909
C22 C 0.5271(5) 0.6604(4) 0.3294(3)
H13 H 0.5833 0.7067 0.2878
C23 C 1.1602(7) 0.8424(5) 0.4992(3)
H14 H 1.2547 0.8373 0.5219
C24 C 0.9941(8) 1.3060(6) 0.1921(4)
H15 H 1.0207 1.3897 0.2090
C25 C 0.8814(7) 0.8072(5) 0.5137(3)
H16 H 0.7899 0.7788 0.5431
C26 C 1.0863(6) 1.0084(5) 0.2578(3)
H17 H 1.1870 1.0522 0.2821
H18 H 1.1022 0.9428 0.2217
C27 C 0.8603(6) 1.1400(5) 0.0999(3)
C28 C 1.0234(7) 0.7988(5) 0.5426(3)
H19 H 1.0282 0.7629 0.5927
C29 C 0.7111(6) 0.7317(5) -0.0532(3)
H20 H 0.7041 0.6522 -0.0747
C30 C 0.8133(6) 0.5065(5) 0.3255(3)
H21 H 0.7370 0.4565 0.3579
C31 C 0.4797(6) 0.4645(5) 0.2394(3)
H22 H 0.4678 0.3768 0.2501
H23 H 0.3996 0.4694 0.2001
C32 C 0.3480(6) 0.5244(5) 0.4491(3)
H24 H 0.2836 0.4798 0.4888
C33 C 1.0584(7) 1.2198(5) 0.2339(3)
H25 H 1.1254 1.2483 0.2781
C34 C 0.9676(7) 0.5506(6) 0.3502(3)
H26 H 0.9959 0.5308 0.4016
C35 C 0.8943(8) 1.2668(5) 0.1278(4)
H27 H 0.8486 1.3224 0.1023
C36 C 1.0820(6) 0.6226(5) 0.3020(3)
H28 H 1.1842 0.6508 0.3223
C37 C 0.6291(7) 0.8051(6) -0.0911(4)
H29 H 0.5640 0.7726 -0.1355
O1 O 0.5207(9) 0.8872(8) 0.2078(5)
loop_
_geom_bond_atom_site_label_1
_geom_bond_atom_site_label_2
_geom_bond_site_symmetry_1
_geom_bond_site_symmetry_2
N1 C8 1_555 1_555
N2 C4 1_555 1_555
N3 C2 1_555 1_555
N4 C9 1_555 1_555
N5 C3 1_555 1_555
C1 C17 1_555 1_555
C2 C4 1_555 1_555
C3 C11 1_555 1_555
C4 C30 1_555 1_555
C5 C18 1_555 1_555
C6 C12 1_555 1_555
C7 C12 1_555 1_555
C8 N5 1_555 1_555
H1 C8 1_555 1_555
C9 C19 1_555 1_555
C10 N2 1_555 1_555
H2 C10 1_555 1_555
C11 H3 1_555 1_555
C12 N4 1_555 1_555
C13 C6 1_555 1_555
H4 C13 1_555 1_555
C14 N1 1_555 1_555
C15 C2 1_555 1_555
H5 C15 1_555 1_555
C16 N3 1_555 1_555
H6 C16 1_555 1_555
H7 C16 1_555 1_555
C17 H8 1_555 1_555
C18 H9 1_555 1_555
C19 C26 1_555 1_555
C20 N1 1_555 1_555
H10 C20 1_555 1_555
H11 C20 1_555 1_555
C21 C6 1_555 1_555
H12 C21 1_555 1_555
C22 C1 1_555 1_555
H13 C22 1_555 1_555
C23 C11 1_555 1_555
H14 C23 1_555 1_555
C24 H15 1_555 1_555
C25 C14 1_555 1_555
H16 C25 1_555 1_555
C26 N5 1_555 1_555
H17 C26 1_555 1_555
H18 C26 1_555 1_555
C27 C9 1_555 1_555
C28 C23 1_555 1_555
H19 C28 1_555 1_555
C29 C7 1_555 1_555
H20 C29 1_555 1_555
C30 H21 1_555 1_555
C31 N2 1_555 1_555
H22 C31 1_555 1_555
H23 C31 1_555 1_555
C32 C17 1_555 1_555
H24 C32 1_555 1_555
C33 C19 1_555 1_555
H25 C33 1_555 1_555
C34 C30 1_555 1_555
H26 C34 1_555 1_555
C35 C24 1_555 1_555
H27 C35 1_555 1_555
C36 C15 1_555 1_555
H28 C36 1_555 1_555
C37 C21 1_555 1_555
H29 C37 1_555 1_555
N3 C10 1_555 1_555
C1 C20 1_555 1_555
C3 C14 1_555 1_555
C5 C22 1_555 1_555
C5 C31 1_555 1_555
C7 C16 1_555 1_555
C13 C27 1_555 1_555
C18 C32 1_555 1_555
C24 C33 1_555 1_555
C25 C28 1_555 1_555
C27 C35 1_555 1_555
C29 C37 1_555 1_555
C34 C36 1_555 1_555

#END
