
#######################################################################
#
#                 Cambridge Crystallographic Data Centre
#                                CCDC 
#
#######################################################################
#
# If this CIF has been generated from an entry in the Cambridge 
# Structural Database, then it will include bibliographic, chemical, 
# crystal, experimental, refinement or atomic coordinate data resulting 
# from the CCDC's data processing and validation procedures.
#
#######################################################################

data_RENYOA
_chemical_formula_moiety         'C34 H31 N5 2+,0.5(H2 O1),2(F6 P1 1-)'
_chemical_name_systematic        
'1,5(1,3)-dibenzimidazola-3(4,5)-acridinacyclodecaphane-1^3^,5^3^-diium bis(hexafluorophosphate) hemihydrate'
_symmetry_cell_setting           monoclinic
_symmetry_space_group_name_H-M   'P 21/n'
_symmetry_Int_Tables_number      14
_space_group_name_Hall           '-P 2yn'
loop_
_symmetry_equiv_pos_site_id
_symmetry_equiv_pos_as_xyz
1 x,y,z
2 1/2-x,1/2+y,1/2-z
3 -x,-y,-z
4 1/2+x,1/2-y,1/2+z
_cell_length_a                   9.6585(4)
_cell_length_b                   25.7091(12)
_cell_length_c                   14.0835(7)
_cell_angle_alpha                90
_cell_angle_beta                 92.542(2)
_cell_angle_gamma                90
_cell_volume                     3493.65
_exptl_crystal_colour            yellow
_exptl_crystal_description       block
_cell_formula_units_Z            4
loop_
_atom_site_label
_atom_site_type_symbol
_atom_site_fract_x
_atom_site_fract_y
_atom_site_fract_z
C1 C 0.9558(6) 0.1293(3) 0.0641(5)
H1 H 0.9828 0.1302 0.0016
C2 C 0.7374(6) 0.25560(19) 0.2295(4)
H2 H 0.7108 0.2726 0.2874
H3 H 0.8129 0.2754 0.2042
C3 C 0.9812(6) 0.0857(3) 0.1177(5)
H4 H 1.0263 0.0580 0.0900
C4 C 0.5151(6) 0.2180(2) 0.1596(5)
H5 H 0.5163 0.1929 0.2071
C5 C 0.6192(7) 0.2567(2) 0.1604(5)
H6 H 0.6126 0.2834 0.1160
C6 C 0.7170(8) 0.1480(2) 0.6523(4)
H7 H 0.7533 0.1661 0.7048
C7 C 0.9435(5) 0.0806(2) 0.2105(5)
H8 H 0.9614 0.0506 0.2458
C8 C 0.4048(6) 0.2172(2) 0.0841(4)
H9 H 0.3930 0.2456 0.0437
C9 C 0.5456(5) 0.1156(2) -0.0451(3)
H10 H 0.5116 0.1439 -0.0802
C10 C 0.6533(6) 0.0858(2) -0.0747(4)
H11 H 0.6948 0.0947 -0.1308
C11 C 0.7030(5) 0.0425(2) -0.0240(4)
H12 H 0.7756 0.0234 -0.0476
C12 C 0.3124(5) 0.17150(19) 0.0721(4)
H13 H 0.2363 0.1748 0.1144
H14 H 0.2736 0.1708 0.0074
C13 C 0.8915(6) 0.1716(3) 0.1007(4)
H15 H 0.8747 0.2016 0.0650
C14 C 0.5838(7) 0.1326(2) 0.6496(3)
H16 H 0.5286 0.1401 0.7003
C15 C 0.8770(4) 0.12333(18) 0.2474(3)
C16 C 0.8021(6) 0.1367(2) 0.5759(4)
H17 H 0.8943 0.1472 0.5798
C17 C 0.8526(5) 0.16764(19) 0.1939(4)
C18 C 0.7755(5) 0.17983(19) 0.3373(3)
H18 H 0.7361 0.1952 0.3894
C19 C 0.2098(5) 0.0350(2) 0.4762(4)
H19 H 0.1488 0.0394 0.5249
C20 C 0.3923(5) 0.08509(19) 0.5636(3)
H20 H 0.3340 0.0906 0.6134
C21 C 0.4837(5) 0.01452(17) 0.2465(3)
H21 H 0.5790 0.0148 0.2712
H22 H 0.4656 -0.0192 0.2176
C22 C 0.1701(5) 0.0078(2) 0.3992(4)
H23 H 0.0820 -0.0068 0.3950
C23 C 0.4902(5) 0.10116(18) 0.0406(3)
C24 C 0.2593(5) 0.00107(18) 0.3241(4)
H24 H 0.2291 -0.0181 0.2711
C25 C 0.7533(5) 0.11095(17) 0.4968(3)
C26 C 0.6478(5) 0.02751(18) 0.0595(3)
H25 H 0.6798 -0.0016 0.0931
C27 C 0.5409(4) 0.05843(17) 0.0911(3)
C28 C 0.8455(4) 0.09797(19) 0.4191(3)
H26 H 0.9410 0.0999 0.4431
H27 H 0.8276 0.0624 0.3989
C29 C 0.3758(5) 0.09442(17) 0.1704(3)
H28 H 0.3138 0.1012 0.2176
C30 C 0.5268(5) 0.10483(18) 0.5692(3)
C31 C 0.3893(4) 0.02196(16) 0.3270(3)
C32 C 0.4371(4) 0.05010(16) 0.4091(3)
C33 C 0.3449(4) 0.05736(17) 0.4847(3)
C34 C 0.6123(4) 0.09431(16) 0.4914(3)
N1 N 0.5673(3) 0.06840(13) 0.4124(2)
N2 N 0.3861(4) 0.12234(14) 0.0924(3)
N3 N 0.7875(4) 0.20250(14) 0.2532(3)
N4 N 0.8273(3) 0.13243(14) 0.3365(3)
N5 N 0.4654(4) 0.05564(13) 0.1725(2)
F1 F -0.0190(4) 0.0634(2) 0.8053(4)
F2 F 0.2610(4) 0.1162(2) 0.7890(4)
F3 F 0.0559(6) 0.14095(14) 0.8328(3)
F4 F 0.0911(5) 0.10757(19) 0.6938(2)
F5 F 0.1547(5) 0.07419(17) 0.9013(2)
F6 F 0.1888(5) 0.03993(13) 0.7608(3)
P1 P 0.11947(13) 0.09015(5) 0.79699(8)
P2 P 0.2018(7) 0.2042(4) 0.3748(5)
F7 F 0.3523(7) 0.1861(5) 0.3594(9)
F8 F 0.0551(8) 0.2172(5) 0.3931(10)
F9 F 0.2210(19) 0.1816(6) 0.4774(7)
F10 F 0.1935(18) 0.2246(6) 0.2731(6)
F11 F 0.1595(10) 0.1494(4) 0.3373(12)
F12 F 0.2460(12) 0.2573(3) 0.4132(10)
O1 O 0.5807(6) 0.2437(3) 0.4630(6)
P3? P 0.2084(12) 0.2132(5) 0.3709(9)
F13? F 0.300(2) 0.1677(6) 0.3381(12)
F14? F 0.123(2) 0.2582(7) 0.4081(10)
F15? F 0.2865(12) 0.2093(7) 0.4685(8)
F16? F 0.1299(17) 0.2136(9) 0.2756(9)
F17? F 0.1040(17) 0.1745(9) 0.4102(11)
F18? F 0.3115(13) 0.2518(5) 0.3323(12)
loop_
_geom_bond_atom_site_label_1
_geom_bond_atom_site_label_2
_geom_bond_site_symmetry_1
_geom_bond_site_symmetry_2
C1 H1 1_555 1_555
C2 H2 1_555 1_555
H3 C2 1_555 1_555
C3 C1 1_555 1_555
H4 C3 1_555 1_555
C4 H5 1_555 1_555
C5 C2 1_555 1_555
H6 C5 1_555 1_555
C6 H7 1_555 1_555
C7 C3 1_555 1_555
H8 C7 1_555 1_555
C8 C4 1_555 1_555
H9 C8 1_555 1_555
C9 H10 1_555 1_555
C10 C9 1_555 1_555
H11 C10 1_555 1_555
C11 C10 1_555 1_555
H12 C11 1_555 1_555
C12 C8 1_555 1_555
H13 C12 1_555 1_555
H14 C12 1_555 1_555
C13 C1 1_555 1_555
H15 C13 1_555 1_555
C14 C6 1_555 1_555
H16 C14 1_555 1_555
C15 C7 1_555 1_555
C16 C6 1_555 1_555
H17 C16 1_555 1_555
C17 C13 1_555 1_555
C18 H18 1_555 1_555
C19 H19 1_555 1_555
C20 H20 1_555 1_555
C21 H21 1_555 1_555
H22 C21 1_555 1_555
C22 C19 1_555 1_555
H23 C22 1_555 1_555
C23 C9 1_555 1_555
C24 C22 1_555 1_555
H24 C24 1_555 1_555
C25 C16 1_555 1_555
C26 C11 1_555 1_555
H25 C26 1_555 1_555
C27 C23 1_555 1_555
C28 C25 1_555 1_555
H26 C28 1_555 1_555
H27 C28 1_555 1_555
C29 H28 1_555 1_555
C30 C14 1_555 1_555
C31 C21 1_555 1_555
C32 C31 1_555 1_555
C33 C19 1_555 1_555
C34 C25 1_555 1_555
N1 C32 1_555 1_555
N2 C12 1_555 1_555
N3 C2 1_555 1_555
N4 C15 1_555 1_555
N5 C21 1_555 1_555
F1 P1 1_555 1_555
F2 P1 1_555 1_555
F3 P1 1_555 1_555
F4 P1 1_555 1_555
F5 P1 1_555 1_555
F6 P1 1_555 1_555
P2 F7 1_555 1_555
F8 P2 1_555 1_555
F9 P2 1_555 1_555
F10 P2 1_555 1_555
F11 P2 1_555 1_555
F12 P2 1_555 1_555
C4 C5 1_555 1_555
C15 C17 1_555 1_555
C17 N3 1_555 1_555
C18 N3 1_555 1_555
C18 N4 1_555 1_555
C20 C30 1_555 1_555
C20 C33 1_555 1_555
C23 N2 1_555 1_555
C24 C31 1_555 1_555
C26 C27 1_555 1_555
C27 N5 1_555 1_555
C28 N4 1_555 1_555
C29 N2 1_555 1_555
C29 N5 1_555 1_555
C30 C34 1_555 1_555
C32 C33 1_555 1_555
C34 N1 1_555 1_555

#END
