
#######################################################################
#
#                 Cambridge Crystallographic Data Centre
#                                CCDC 
#
#######################################################################
#
# If this CIF has been generated from an entry in the Cambridge 
# Structural Database, then it will include bibliographic, chemical, 
# crystal, experimental, refinement or atomic coordinate data resulting 
# from the CCDC's data processing and validation procedures.
#
#######################################################################

data_REPQOS
_chemical_formula_moiety         'C23 H29 N1 O3 S2'
_chemical_name_systematic        
'Phenyl 2-exo-hydroxy-10-bornyl-N-p-tosylsulfilimine'
_symmetry_cell_setting           orthorhombic
_symmetry_space_group_name_H-M   'P 21 21 21'
_symmetry_Int_Tables_number      19
_space_group_name_Hall           'P 2ac 2ab'
loop_
_symmetry_equiv_pos_site_id
_symmetry_equiv_pos_as_xyz
1 x,y,z
2 1/2-x,-y,1/2+z
3 1/2+x,1/2-y,-z
4 -x,1/2+y,1/2-z
_cell_length_a                   24.889(8)
_cell_length_b                   11.407(3)
_cell_length_c                   7.861(1)
_cell_angle_alpha                90
_cell_angle_beta                 90
_cell_angle_gamma                90
_cell_volume                     2231.81
_exptl_crystal_colour            colorless
_chemical_melting_point          213-214deg.C
_cell_formula_units_Z            4
loop_
_atom_site_label
_atom_site_type_symbol
_atom_site_fract_x
_atom_site_fract_y
_atom_site_fract_z
S1 S 0.83890(6) 0.7234(1) 0.8362(2)
S2 S 0.84222(8) 0.7976(1) 0.5072(2)
O1 O 0.9416(2) 0.5393(4) 0.6487(5)
O2 O 0.8751(2) 0.8944(4) 0.5567(6)
O3 O 0.8497(2) 0.7486(3) 0.3386(5)
N1 N 0.8481(2) 0.6872(3) 0.6357(5)
C1 C 0.9392(3) 0.6385(4) 0.9328(6)
C2 C 0.9631(3) 0.6293(5) 0.7503(7)
C3 C 1.0235(3) 0.6067(6) 0.7885(7)
C4 C 1.0275(2) 0.6113(5) 0.9814(8)
C5 C 1.0184(3) 0.7405(5) 1.0318(9)
C6 C 0.9582(3) 0.7587(4) 1.0009(8)
C7 C 0.9752(2) 0.5531(5) 1.0383(7)
C8 C 0.9700(3) 0.4234(4) 0.9860(8)
C9 C 0.9640(3) 0.5597(6) 1.2299(7)
C10 C 0.8807(3) 0.6156(4) 0.9440(6)
C11 C 0.7726(2) 0.6723(5) 0.8856(6)
C12 C 0.7518(3) 0.5689(5) 0.8222(8)
C13 C 0.6995(3) 0.5399(6) 0.8535(9)
C14 C 0.6674(3) 0.6131(7) 0.9464(10)
C15 C 0.6873(3) 0.7167(7) 1.0067(9)
C16 C 0.7406(3) 0.7458(5) 0.9763(9)
C17 C 0.7746(2) 0.8426(4) 0.5264(6)
C18 C 0.7349(3) 0.7779(5) 0.4558(7)
C19 C 0.6817(3) 0.8067(5) 0.4810(8)
C20 C 0.6679(3) 0.9046(5) 0.5775(7)
C21 C 0.7090(4) 0.9676(5) 0.6436(8)
C22 C 0.7616(3) 0.9402(5) 0.6218(8)
C23 C 0.6087(3) 0.9314(7) 0.6067(9)
H1 H 0.9201 0.5765 0.6132
H2 H 0.9601 0.7059 0.7004
H3 H 1.0294 0.5374 0.7407
H4 H 1.0507 0.6683 0.7261
H5 H 1.0623 0.5757 1.0275
H6 H 1.0432 0.7823 0.9414
H7 H 1.0248 0.7465 1.1558
H8 H 0.9449 0.8159 0.9295
H9 H 0.9387 0.7831 1.1046
H10 H 0.9747 0.4141 0.8663
H11 H 1.0007 0.3822 1.0365
H12 H 0.9349 0.3958 1.0490
H13 H 0.9699 0.6291 1.2721
H14 H 0.9839 0.5192 1.2796
H15 H 0.9295 0.5030 1.2676
H16 H 0.8675 0.6220 1.0671
H17 H 0.8729 0.5396 0.8911
H18 H 0.7730 0.5237 0.7621
H19 H 0.6851 0.4641 0.8037
H20 H 0.6324 0.5979 0.9599
H21 H 0.6604 0.7790 1.0796
H22 H 0.7541 0.8131 1.0148
H23 H 0.7423 0.7124 0.3819
H24 H 0.6538 0.7638 0.4336
H25 H 0.7025 1.0254 0.7054
H26 H 0.7917 0.9689 0.6700
H27 H 0.5799 0.8855 0.5513
H28 H 0.6020 0.9818 0.7147
H29 H 0.6150 0.9774 0.5878
loop_
_geom_bond_atom_site_label_1
_geom_bond_atom_site_label_2
_geom_bond_site_symmetry_1
_geom_bond_site_symmetry_2
S1 N1 1_555 1_555
S2 O2 1_555 1_555
O1 C2 1_555 1_555
O3 S2 1_555 1_555
N1 S2 1_555 1_555
C1 C2 1_555 1_555
C2 C3 1_555 1_555
C3 C4 1_555 1_555
C4 C5 1_555 1_555
C5 C6 1_555 1_555
C6 C1 1_555 1_555
C7 C1 1_555 1_555
C8 C7 1_555 1_555
C9 C7 1_555 1_555
C10 S1 1_555 1_555
C11 S1 1_555 1_555
C12 C11 1_555 1_555
C13 C12 1_555 1_555
C14 C13 1_555 1_555
C15 C14 1_555 1_555
C16 C11 1_555 1_555
C17 S2 1_555 1_555
C18 C17 1_555 1_555
C19 C18 1_555 1_555
C20 C19 1_555 1_555
C21 C20 1_555 1_555
C22 C17 1_555 1_555
C23 C20 1_555 1_555
H1 O1 1_555 1_555
H2 C2 1_555 1_555
H3 C3 1_555 1_555
H4 C3 1_555 1_555
H5 C4 1_555 1_555
H6 C5 1_555 1_555
H7 C5 1_555 1_555
H8 C6 1_555 1_555
H9 C6 1_555 1_555
H10 C8 1_555 1_555
H11 C8 1_555 1_555
H12 C8 1_555 1_555
H13 C9 1_555 1_555
H14 C9 1_555 1_555
H15 C9 1_555 1_555
H16 C10 1_555 1_555
H17 C10 1_555 1_555
H18 C12 1_555 1_555
H19 C13 1_555 1_555
H20 C14 1_555 1_555
H21 C15 1_555 1_555
H22 C16 1_555 1_555
H23 C18 1_555 1_555
H24 C19 1_555 1_555
H25 C21 1_555 1_555
H26 C22 1_555 1_555
H27 C23 1_555 1_555
H28 C23 1_555 1_555
H29 C23 1_555 1_555
C1 C10 1_555 1_555
C4 C7 1_555 1_555
C15 C16 1_555 1_555
C21 C22 1_555 1_555

#END
