
#######################################################################
#
#                 Cambridge Crystallographic Data Centre
#                                CCDC 
#
#######################################################################
#
# If this CIF has been generated from an entry in the Cambridge 
# Structural Database, then it will include bibliographic, chemical, 
# crystal, experimental, refinement or atomic coordinate data resulting 
# from the CCDC's data processing and validation procedures.
#
#######################################################################

data_REPSIQ
_chemical_formula_moiety         'C27 H22 N4 O2'
_chemical_name_systematic        
'Ethyl 2-(2,2,4,4-tetracyano-3,5-diphenylcyclohexyl)acrylate'
_symmetry_cell_setting           monoclinic
_symmetry_space_group_name_H-M   'P 21/c'
_symmetry_Int_Tables_number      14
_space_group_name_Hall           '-P 2ybc'
loop_
_symmetry_equiv_pos_site_id
_symmetry_equiv_pos_as_xyz
1 x,y,z
2 -x,1/2+y,1/2-z
3 -x,-y,-z
4 x,1/2-y,1/2+z
_cell_length_a                   11.699(5)
_cell_length_b                   15.495(7)
_cell_length_c                   12.654(6)
_cell_angle_alpha                90
_cell_angle_beta                 95.201(8)
_cell_angle_gamma                90
_cell_volume                     2284.42
_exptl_crystal_colour            colorless
_exptl_crystal_description       Prism
_chemical_melting_point          '233-236 deg.C'
_cell_formula_units_Z            4
loop_
_atom_site_label
_atom_site_type_symbol
_atom_site_fract_x
_atom_site_fract_y
_atom_site_fract_z
O1 O 0.46548(17) 0.15825(13) 0.79856(15)
O2 O 0.30838(16) 0.12003(14) 0.87551(16)
N1 N 0.7902(2) 0.32957(15) 1.28209(19)
N2 N 0.9751(2) 0.38607(17) 1.0099(2)
N3 N 0.62665(19) 0.14919(15) 1.24068(19)
N4 N 0.6716(2) 0.02728(16) 0.94827(19)
C1 C 0.6267(2) 0.48578(17) 1.1541(2)
H1 H 0.5834 0.4434 1.1873
C2 C 0.6325(2) 0.56909(17) 1.1935(2)
H2 H 0.5933 0.5833 1.2536
C3 C 0.6945(2) 0.63150(18) 1.1466(2)
H3 H 0.6986 0.6884 1.1748
C4 C 0.7510(2) 0.61102(18) 1.0579(2)
H4 H 0.7933 0.6539 1.0245
C5 C 0.7452(2) 0.52755(17) 1.0186(2)
H5 H 0.7840 0.5137 0.9580
C6 C 0.6841(2) 0.46376(16) 1.06584(19)
C7 C 0.6834(2) 0.37218(16) 1.02353(19)
H6 H 0.6917 0.3758 0.9457
C8 C 0.7883(2) 0.31884(17) 1.07523(19)
C9 C 0.7874(2) 0.22240(16) 1.03604(19)
H7 H 0.7958 0.2264 0.9582
C10 C 0.6683(2) 0.17770(16) 1.04340(19)
C11 C 0.5703(2) 0.23466(16) 0.98564(19)
H8 H 0.5893 0.2428 0.9108
C12 C 0.5719(2) 0.32354(16) 1.0371(2)
H9 H 0.5628 0.3171 1.1138
H10 H 0.5062 0.3577 1.0051
C13 C 0.7913(2) 0.32466(17) 1.1919(2)
C14 C 0.8955(2) 0.35703(18) 1.0419(2)
C15 C 0.8909(2) 0.16978(17) 1.0808(2)
C16 C 0.9111(2) 0.14662(19) 1.1863(2)
H11 H 0.8585 0.1637 1.2353
C17 C 1.0073(3) 0.0987(2) 1.2217(2)
H12 H 1.0200 0.0835 1.2946
C18 C 1.0846(2) 0.0730(2) 1.1519(2)
H13 H 1.1503 0.0401 1.1762
C19 C 1.0657(2) 0.0957(2) 1.0463(2)
H14 H 1.1185 0.0780 0.9978
C20 C 0.9701(2) 0.14403(19) 1.0104(2)
H15 H 0.9583 0.1597 0.9376
C21 C 0.6443(2) 0.16146(16) 1.1546(2)
C22 C 0.6706(2) 0.09256(18) 0.9902(2)
C23 C 0.4538(2) 0.19184(16) 0.98089(19)
C24 C 0.3880(2) 0.19179(18) 1.0608(2)
C25 C 0.4121(2) 0.15477(16) 0.8758(2)
C26 C 0.2578(3) 0.0847(2) 0.7762(3)
H16 H 0.2240 0.0274 0.7885
H17 H 0.3174 0.0776 0.7262
C27 C 0.1690(7) 0.1435(5) 0.7316(5)
H18 H 0.1338 0.1200 0.6644
H19 H 0.2032 0.1999 0.7187
H20 H 0.1102 0.1502 0.7814
H21 H 0.412(2) 0.2176(16) 1.1280(12)
H22 H 0.3151(13) 0.1620(15) 1.054(2)
C28? C 0.2578(3) 0.0847(2) 0.7762(3)
H23? H 0.2761 0.0224 0.7741
H24? H 0.2936 0.1130 0.7173
C29? C 0.1304(8) 0.0955(14) 0.7584(12)
H25? H 0.1026 0.0690 0.6906
H26? H 0.1114 0.1571 0.7568
H27? H 0.0939 0.0675 0.8161
loop_
_geom_bond_atom_site_label_1
_geom_bond_atom_site_label_2
_geom_bond_site_symmetry_1
_geom_bond_site_symmetry_2
O1 C25 1_555 1_555
O2 C25 1_555 1_555
N1 C13 1_555 1_555
N2 C14 1_555 1_555
N3 C21 1_555 1_555
N4 C22 1_555 1_555
C1 H1 1_555 1_555
C2 C1 1_555 1_555
H2 C2 1_555 1_555
C3 C2 1_555 1_555
H3 C3 1_555 1_555
C4 C3 1_555 1_555
H4 C4 1_555 1_555
C5 C4 1_555 1_555
H5 C5 1_555 1_555
C6 C1 1_555 1_555
C7 C6 1_555 1_555
H6 C7 1_555 1_555
C8 C7 1_555 1_555
C9 C8 1_555 1_555
H7 C9 1_555 1_555
C10 C9 1_555 1_555
C11 C10 1_555 1_555
H8 C11 1_555 1_555
C12 C7 1_555 1_555
H9 C12 1_555 1_555
H10 C12 1_555 1_555
C13 C8 1_555 1_555
C14 C8 1_555 1_555
C15 C9 1_555 1_555
C16 C15 1_555 1_555
H11 C16 1_555 1_555
C17 C16 1_555 1_555
H12 C17 1_555 1_555
C18 C17 1_555 1_555
H13 C18 1_555 1_555
C19 C18 1_555 1_555
H14 C19 1_555 1_555
C20 C15 1_555 1_555
H15 C20 1_555 1_555
C21 C10 1_555 1_555
C22 C10 1_555 1_555
C23 C11 1_555 1_555
C24 C23 1_555 1_555
C25 C23 1_555 1_555
C26 O2 1_555 1_555
H16 C26 1_555 1_555
H17 C26 1_555 1_555
C27 C26 1_555 1_555
H18 C27 1_555 1_555
H19 C27 1_555 1_555
H20 C27 1_555 1_555
H21 C24 1_555 1_555
H22 C24 1_555 1_555
C5 C6 1_555 1_555
C11 C12 1_555 1_555
C19 C20 1_555 1_555

#END
