
#######################################################################
#
#                 Cambridge Crystallographic Data Centre
#                                CCDC 
#
#######################################################################
#
# If this CIF has been generated from an entry in the Cambridge 
# Structural Database, then it will include bibliographic, chemical, 
# crystal, experimental, refinement or atomic coordinate data resulting 
# from the CCDC's data processing and validation procedures.
#
#######################################################################

data_REPVOA
_chemical_formula_moiety         'C49 H38 N4'
_chemical_name_systematic        
1-(4-t-butylphenyl)-2-[4-(10-phenylphenazin-5(10H)-yl)phenyl]-1H-phenanthro[9,10-d]imidazole
_symmetry_cell_setting           triclinic
_symmetry_space_group_name_H-M   'P -1'
_symmetry_Int_Tables_number      2
_space_group_name_Hall           '-P 1'
loop_
_symmetry_equiv_pos_site_id
_symmetry_equiv_pos_as_xyz
1 x,y,z
2 -x,-y,-z
_cell_length_a                   9.2776(4)
_cell_length_b                   11.1340(7)
_cell_length_c                   18.0446(4)
_cell_angle_alpha                95.121(3)
_cell_angle_beta                 96.138(3)
_cell_angle_gamma                103.446(4)
_cell_volume                     1789.87
_exptl_crystal_colour            colorless
_exptl_crystal_description       block
_cell_formula_units_Z            2
loop_
_atom_site_label
_atom_site_type_symbol
_atom_site_fract_x
_atom_site_fract_y
_atom_site_fract_z
N1 N 0.5699(2) 0.27683(17) 0.10406(10)
N2 N 0.6329(2) 0.48529(17) 0.11764(10)
N3 N 0.2099(2) 0.3159(2) 0.38654(11)
N4 N 0.0375(2) 0.2792(2) 0.50287(12)
C1 C 0.6599(2) 0.6118(2) 0.15062(12)
C2 C 0.6939(2) 0.4464(2) 0.05537(12)
C3 C 0.4701(2) 0.3715(2) 0.20784(12)
C4 C 0.2761(3) 0.2932(2) 0.45621(12)
C5 C 0.6554(2) 0.3180(2) 0.04969(12)
C6 C 0.7937(2) 0.6673(2) 0.19582(12)
H1 H 0.863642 0.621482 0.206780
C7 C 0.1885(3) 0.2757(2) 0.51526(13)
C8 C 0.5580(2) 0.3786(2) 0.14427(12)
C9 C 0.7048(3) 0.2428(2) -0.00644(12)
C10 C 0.0679(3) 0.3412(2) 0.37932(12)
C11 C 0.7756(2) 0.5137(2) 0.00240(12)
C12 C 0.8236(2) 0.4404(2) -0.05465(12)
C13 C -0.0186(3) 0.3252(2) 0.43859(13)
C14 C -0.0606(3) 0.2328(2) 0.55532(13)
C15 C 0.7904(3) 0.3044(2) -0.05809(12)
C16 C 0.8224(3) 0.7914(2) 0.22452(12)
H2 H 0.913133 0.828476 0.253984
C17 C 0.7186(3) 0.8620(2) 0.21028(12)
C18 C 0.0078(3) 0.3754(2) 0.31245(13)
H3 H 0.063938 0.385314 0.272696
C19 C 0.2985(3) 0.3351(2) 0.32642(12)
C20 C 0.5836(3) 0.8029(2) 0.16605(13)
H4 H 0.511386 0.847108 0.156481
C21 C 0.5551(3) 0.6791(2) 0.13610(13)
H5 H 0.465089 0.641660 0.106151
C22 C 0.3806(3) 0.2543(2) 0.21540(13)
H6 H 0.378443 0.187031 0.180466
C23 C 0.8057(3) 0.6442(2) 0.00217(13)
H7 H 0.771621 0.691715 0.038288
C24 C 0.4727(3) 0.4704(2) 0.26188(13)
H8 H 0.531678 0.549165 0.258549
C25 C -0.1361(3) 0.3949(2) 0.30501(14)
H9 H -0.176656 0.415280 0.259841
C26 C 0.3873(3) 0.4514(2) 0.32063(14)
H10 H 0.390047 0.517734 0.356409
C27 C 0.6717(3) 0.1130(2) -0.00923(13)
H11 H 0.616264 0.074263 0.025773
C28 C 0.7561(3) 1.0003(2) 0.23915(14)
C29 C 0.2529(3) 0.2521(2) 0.58341(13)
H12 H 0.196926 0.243533 0.623273
C30 C 0.4225(3) 0.2829(2) 0.46684(14)
H13 H 0.480679 0.294790 0.427965
C31 C 0.9031(3) 0.5041(3) -0.10746(13)
H14 H 0.935823 0.458595 -0.145113
C32 C 0.8380(3) 0.2289(3) -0.11287(14)
H15 H 0.893573 0.266202 -0.148282
C33 C -0.1577(3) 0.3502(2) 0.43126(14)
H16 H -0.212593 0.344476 0.471566
C34 C 0.9339(3) 0.6312(3) -0.10520(13)
H17 H 0.988243 0.670346 -0.140458
C35 C 0.2957(3) 0.2366(2) 0.27349(13)
H18 H 0.236342 0.158070 0.277099
C36 C -0.0814(3) 0.3112(3) 0.61470(14)
H19 H -0.033552 0.395315 0.620002
C37 C 0.8841(3) 0.7017(2) -0.05037(13)
H20 H 0.903967 0.787707 -0.049381
C38 C 0.3998(3) 0.2410(3) 0.59348(14)
H21 H 0.440966 0.224297 0.639572
C39 C 0.8040(3) 0.1015(3) -0.11503(14)
H22 H 0.837277 0.054300 -0.151615
C40 C 0.7202(3) 0.0423(3) -0.06306(14)
H23 H 0.697557 -0.043855 -0.064819
C41 C -0.2176(3) 0.3840(2) 0.36394(15)
H24 H -0.312466 0.398998 0.359324
C42 C 0.4838(3) 0.2547(3) 0.53523(15)
H25 H 0.581195 0.245276 0.541332
C43 C -0.1337(3) 0.1075(3) 0.54695(17)
H26 H -0.122105 0.053940 0.506685
C44 C -0.1731(3) 0.2652(3) 0.66618(15)
H27 H -0.187161 0.318666 0.705877
C45 C -0.2432(3) 0.1422(4) 0.65946(18)
H28 H -0.303135 0.111778 0.695068
C46 C -0.2256(3) 0.0636(3) 0.6007(2)
H29 H -0.275010 -0.020075 0.596060
C47 C 0.8377(5) 1.0266(3) 0.31827(17)
H30 H 0.780903 0.975025 0.350172
H31 H 0.849794 1.112479 0.336509
H32 H 0.934143 1.008881 0.318329
C48 C 0.8592(4) 1.0701(3) 0.18723(19)
H33 H 0.946420 1.037790 0.186558
H34 H 0.888649 1.157104 0.205449
H35 H 0.806748 1.058955 0.137308
C49 C 0.6180(4) 1.0519(3) 0.2359(2)
H36 H 0.565317 1.033749 0.185917
H37 H 0.647450 1.140339 0.249580
H38 H 0.553994 1.014296 0.270277
loop_
_geom_bond_atom_site_label_1
_geom_bond_atom_site_label_2
_geom_bond_site_symmetry_1
_geom_bond_site_symmetry_2
N1 C5 1_555 1_555
N2 C1 1_555 1_555
N3 C4 1_555 1_555
N4 C7 1_555 1_555
C1 C6 1_555 1_555
C2 N2 1_555 1_555
C3 C8 1_555 1_555
C4 C7 1_555 1_555
C5 C2 1_555 1_555
C6 H1 1_555 1_555
C7 C29 1_555 1_555
C8 N1 1_555 1_555
C9 C5 1_555 1_555
C10 N3 1_555 1_555
C11 C2 1_555 1_555
C12 C11 1_555 1_555
C13 N4 1_555 1_555
C14 N4 1_555 1_555
C15 C9 1_555 1_555
C16 C6 1_555 1_555
H2 C16 1_555 1_555
C17 C16 1_555 1_555
C18 C10 1_555 1_555
H3 C18 1_555 1_555
C19 N3 1_555 1_555
C20 C17 1_555 1_555
H4 C20 1_555 1_555
C21 C1 1_555 1_555
H5 C21 1_555 1_555
C22 C3 1_555 1_555
H6 C22 1_555 1_555
C23 C11 1_555 1_555
H7 C23 1_555 1_555
C24 C3 1_555 1_555
H8 C24 1_555 1_555
C25 C18 1_555 1_555
H9 C25 1_555 1_555
C26 C19 1_555 1_555
H10 C26 1_555 1_555
C27 C9 1_555 1_555
H11 C27 1_555 1_555
C28 C17 1_555 1_555
C29 H12 1_555 1_555
C30 C4 1_555 1_555
H13 C30 1_555 1_555
C31 C12 1_555 1_555
H14 C31 1_555 1_555
C32 C15 1_555 1_555
H15 C32 1_555 1_555
C33 C13 1_555 1_555
H16 C33 1_555 1_555
C34 C31 1_555 1_555
H17 C34 1_555 1_555
C35 C19 1_555 1_555
H18 C35 1_555 1_555
C36 C14 1_555 1_555
H19 C36 1_555 1_555
C37 C23 1_555 1_555
H20 C37 1_555 1_555
C38 C29 1_555 1_555
H21 C38 1_555 1_555
C39 C32 1_555 1_555
H22 C39 1_555 1_555
C40 C27 1_555 1_555
H23 C40 1_555 1_555
C41 C25 1_555 1_555
H24 C41 1_555 1_555
C42 C30 1_555 1_555
H25 C42 1_555 1_555
C43 C14 1_555 1_555
H26 C43 1_555 1_555
C44 C36 1_555 1_555
H27 C44 1_555 1_555
C45 C44 1_555 1_555
H28 C45 1_555 1_555
C46 C43 1_555 1_555
H29 C46 1_555 1_555
C47 C28 1_555 1_555
H30 C47 1_555 1_555
H31 C47 1_555 1_555
H32 C47 1_555 1_555
C48 C28 1_555 1_555
H33 C48 1_555 1_555
H34 C48 1_555 1_555
H35 C48 1_555 1_555
C49 C28 1_555 1_555
H36 C49 1_555 1_555
H37 C49 1_555 1_555
H38 C49 1_555 1_555
N2 C8 1_555 1_555
C10 C13 1_555 1_555
C12 C15 1_555 1_555
C20 C21 1_555 1_555
C22 C35 1_555 1_555
C24 C26 1_555 1_555
C33 C41 1_555 1_555
C34 C37 1_555 1_555
C38 C42 1_555 1_555
C39 C40 1_555 1_555
C45 C46 1_555 1_555

#END
