
#######################################################################
#
#                 Cambridge Crystallographic Data Centre
#                                CCDC 
#
#######################################################################
#
# If this CIF has been generated from an entry in the Cambridge 
# Structural Database, then it will include bibliographic, chemical, 
# crystal, experimental, refinement or atomic coordinate data resulting 
# from the CCDC's data processing and validation procedures.
#
#######################################################################

data_REPVEQ
_chemical_formula_moiety         'C66 H60 O12,2(C1 H2 Cl2)'
_chemical_name_systematic        
'9-[bis(3,4,5-trimethoxyphenyl)methylidene]-10-{10-[bis(3,4,5-trimethoxyphenyl)methylidene]anthracen-9(10H)-ylidene}-9,10-dihydroanthracene dichloromethane solvate'
_symmetry_cell_setting           triclinic
_symmetry_space_group_name_H-M   'P -1'
_symmetry_Int_Tables_number      2
_space_group_name_Hall           '-P 1'
loop_
_symmetry_equiv_pos_site_id
_symmetry_equiv_pos_as_xyz
1 x,y,z
2 -x,-y,-z
_cell_length_a                   7.3362(17)
_cell_length_b                   12.952(3)
_cell_length_c                   16.918(4)
_cell_angle_alpha                106.135(5)
_cell_angle_beta                 94.598(5)
_cell_angle_gamma                100.939(5)
_cell_volume                     1501.02
_exptl_crystal_colour            yellow
_exptl_crystal_description       Block
_cell_formula_units_Z            1
loop_
_atom_site_label
_atom_site_type_symbol
_atom_site_fract_x
_atom_site_fract_y
_atom_site_fract_z
O1 O 0.3115(2) 0.09297(13) 0.40592(10)
O2 O 0.2135(2) -0.09963(13) 0.28378(10)
O3 O 0.4134(2) -0.14575(13) 0.15931(10)
O4 O 0.7922(2) 0.36723(14) 0.05869(10)
O5 O 0.9991(2) 0.24036(14) -0.03335(10)
O6 O 1.1712(2) 0.11017(14) 0.02724(10)
C1 C 0.4248(3) 0.07772(19) 0.34522(14)
C2 C 0.3700(3) -0.02269(18) 0.28193(14)
C3 C 0.4807(3) -0.04669(18) 0.21822(14)
C4 C 0.6460(3) 0.02754(18) 0.21896(13)
H1 H 0.7211 0.0105 0.1760
C5 C 0.7011(3) 0.12707(18) 0.28308(14)
C6 C 0.5858(3) 0.15316(18) 0.34426(14)
H2 H 0.6180 0.2230 0.3854
C7 C 0.8828(3) 0.20450(18) 0.28591(13)
C8 C 0.9227(3) 0.21752(18) 0.20308(13)
C9 C 0.8396(3) 0.28908(19) 0.17240(14)
H3 H 0.7631 0.3307 0.2046
C10 C 0.8685(3) 0.29978(18) 0.09445(14)
C11 C 0.9804(3) 0.23852(18) 0.04637(14)
C12 C 1.0642(3) 0.16715(18) 0.07782(14)
C13 C 1.0343(3) 0.15627(18) 0.15587(14)
H4 H 1.0902 0.1070 0.1768
C14 C 0.3861(3) 0.1812(2) 0.48033(15)
H5 H 0.5144 0.1780 0.4988
H6 H 0.3080 0.1744 0.5238
H7 H 0.3869 0.2518 0.4695
C15 C 0.0426(3) -0.0813(2) 0.24852(15)
H8 H 0.0353 -0.0045 0.2734
H9 H -0.0645 -0.1304 0.2597
H10 H 0.0403 -0.0963 0.1883
C16 C 0.5215(4) -0.1763(2) 0.09358(15)
H11 H 0.5277 -0.1239 0.0612
H12 H 0.4625 -0.2506 0.0574
H13 H 0.6486 -0.1753 0.1171
C17 C 0.6705(4) 0.4276(2) 0.10402(17)
H14 H 0.5665 0.3761 0.1151
H15 H 0.6208 0.4703 0.0713
H16 H 0.7406 0.4777 0.1568
C18 C 1.1103(4) 0.3399(2) -0.04040(16)
H17 H 1.0505 0.4013 -0.0179
H18 H 1.1211 0.3321 -0.0990
H19 H 1.2355 0.3545 -0.0091
C19 C 1.2623(4) 0.0390(2) 0.05910(15)
H20 H 1.3546 0.0830 0.1076
H21 H 1.3259 -0.0018 0.0161
H22 H 1.1690 -0.0131 0.0755
C20 C 0.9979(3) 0.26283(17) 0.35733(13)
C21 C 0.9677(3) 0.25330(18) 0.44156(14)
C22 C 0.9274(3) 0.15175(19) 0.45830(15)
H23 H 0.9102 0.0850 0.4143
C23 C 0.9128(3) 0.14859(19) 0.53901(15)
H24 H 0.8822 0.0797 0.5500
C24 C 0.9429(3) 0.2463(2) 0.60380(14)
H25 H 0.9359 0.2439 0.6591
C25 C 0.9830(3) 0.34696(19) 0.58819(14)
H26 H 1.0044 0.4134 0.6328
C26 C 0.9919(3) 0.35092(18) 0.50656(13)
C27 C 1.0384(3) 0.45653(18) 0.48538(13)
C28 C 1.1831(3) 0.45152(18) 0.42817(13)
C29 C 1.3407(3) 0.53644(18) 0.44110(13)
H27 H 1.3523 0.6028 0.4849
C30 C 1.4810(3) 0.52587(19) 0.39116(14)
H28 H 1.5875 0.5846 0.4002
C31 C 1.4641(3) 0.4285(2) 0.32776(14)
H29 H 1.5599 0.4207 0.2933
C32 C 1.3090(3) 0.34226(19) 0.31399(14)
H30 H 1.2998 0.2758 0.2706
C33 C 1.1658(3) 0.35281(18) 0.36382(13)
O1A O 1.6885(2) 0.90703(13) 0.59408(10)
O2A O 1.7865(2) 1.09963(13) 0.71622(10)
O3A O 1.5866(2) 1.14575(13) 0.84069(10)
O4A O 1.2078(2) 0.63277(14) 0.94131(10)
O5A O 1.0009(2) 0.75964(14) 1.03335(10)
O6A O 0.8288(2) 0.88983(14) 0.97276(10)
C1A C 1.5752(3) 0.92228(19) 0.65478(14)
C2A C 1.6300(3) 1.02269(18) 0.71807(14)
C3A C 1.5193(3) 1.04669(18) 0.78178(14)
C4A C 1.3540(3) 0.97246(18) 0.78104(13)
H1A H 1.2789 0.9895 0.8240
C5A C 1.2989(3) 0.87293(18) 0.71692(14)
C6A C 1.4142(3) 0.84684(18) 0.65574(14)
H2A H 1.3820 0.7770 0.6146
C7A C 1.1172(3) 0.79550(18) 0.71409(13)
C8A C 1.0773(3) 0.78248(18) 0.79692(13)
C9A C 1.1604(3) 0.71092(19) 0.82760(14)
H3A H 1.2369 0.6693 0.7954
C10A C 1.1315(3) 0.70022(18) 0.90555(14)
C11A C 1.0196(3) 0.76148(18) 0.95363(14)
C12A C 0.9358(3) 0.83285(18) 0.92218(14)
C13A C 0.9657(3) 0.84373(18) 0.84413(14)
H4A H 0.9098 0.8930 0.8232
C14A C 1.6139(3) 0.8188(2) 0.51967(15)
H5A H 1.4856 0.8220 0.5012
H6A H 1.6920 0.8256 0.4762
H7A H 1.6131 0.7482 0.5305
C15A C 1.9574(3) 1.0813(2) 0.75148(15)
H8A H 1.9647 1.0045 0.7266
H9A H 2.0645 1.1304 0.7403
H10A H 1.9597 1.0963 0.8117
C16A C 1.4785(4) 1.1763(2) 0.90642(15)
H11A H 1.4723 1.1239 0.9388
H12A H 1.5375 1.2506 0.9426
H13A H 1.3514 1.1753 0.8829
C17A C 1.3295(4) 0.5724(2) 0.89598(17)
H14A H 1.4335 0.6239 0.8849
H15A H 1.3792 0.5297 0.9287
H16A H 1.2594 0.5223 0.8432
C18A C 0.8897(4) 0.6601(2) 1.04040(16)
H17A H 0.9495 0.5987 1.0179
H18A H 0.8789 0.6679 1.0990
H19A H 0.7645 0.6455 1.0091
C19A C 0.7377(4) 0.9610(2) 0.94090(15)
H20A H 0.6454 0.9170 0.8924
H21A H 0.6741 1.0018 0.9839
H22A H 0.8310 1.0131 0.9245
C20A C 1.0021(3) 0.73717(17) 0.64267(13)
C21A C 1.0323(3) 0.74670(18) 0.55844(14)
C22A C 1.0726(3) 0.84825(19) 0.54170(15)
H23A H 1.0898 0.9150 0.5857
C23A C 1.0872(3) 0.85141(19) 0.46099(15)
H24A H 1.1178 0.9203 0.4500
C24A C 1.0571(3) 0.7537(2) 0.39620(14)
H25A H 1.0641 0.7561 0.3409
C25A C 1.0170(3) 0.65304(19) 0.41181(14)
H26A H 0.9956 0.5866 0.3672
C26A C 1.0081(3) 0.64908(18) 0.49344(13)
C27A C 0.9616(3) 0.54347(18) 0.51462(13)
C28A C 0.8169(3) 0.54848(18) 0.57183(13)
C29A C 0.6593(3) 0.46356(18) 0.55890(13)
H27A H 0.6477 0.3972 0.5151
C30A C 0.5190(3) 0.47413(19) 0.60884(14)
H28A H 0.4125 0.4154 0.5998
C31A C 0.5359(3) 0.5715(2) 0.67224(14)
H29A H 0.4401 0.5793 0.7067
C32A C 0.6910(3) 0.65774(19) 0.68601(14)
H30A H 0.7002 0.7242 0.7294
C33A C 0.8342(3) 0.64719(18) 0.63618(13)
C34 C 0.3644(4) 0.6639(2) 0.24890(17)
H31 H 0.3283 0.6516 0.3013
H32 H 0.3222 0.7299 0.2431
Cl1 Cl 0.61020(10) 0.68697(7) 0.25371(5)
Cl2 Cl 0.25310(17) 0.54915(8) 0.16480(8)
loop_
_geom_bond_atom_site_label_1
_geom_bond_atom_site_label_2
_geom_bond_site_symmetry_1
_geom_bond_site_symmetry_2
O1 C1 1_555 1_555
O2 C2 1_555 1_555
O3 C3 1_555 1_555
O4 C10 1_555 1_555
O5 C11 1_555 1_555
O6 C12 1_555 1_555
C1 C2 1_555 1_555
C2 C3 1_555 1_555
C3 C4 1_555 1_555
C4 H1 1_555 1_555
C5 C4 1_555 1_555
C6 C1 1_555 1_555
H2 C6 1_555 1_555
C7 C5 1_555 1_555
C8 C7 1_555 1_555
C9 C8 1_555 1_555
H3 C9 1_555 1_555
C10 C9 1_555 1_555
C11 C10 1_555 1_555
C12 C11 1_555 1_555
C13 C8 1_555 1_555
H4 C13 1_555 1_555
C14 O1 1_555 1_555
H5 C14 1_555 1_555
H6 C14 1_555 1_555
H7 C14 1_555 1_555
C15 O2 1_555 1_555
H8 C15 1_555 1_555
H9 C15 1_555 1_555
H10 C15 1_555 1_555
C16 O3 1_555 1_555
H11 C16 1_555 1_555
H12 C16 1_555 1_555
H13 C16 1_555 1_555
C17 O4 1_555 1_555
H14 C17 1_555 1_555
H15 C17 1_555 1_555
H16 C17 1_555 1_555
C18 O5 1_555 1_555
H17 C18 1_555 1_555
H18 C18 1_555 1_555
H19 C18 1_555 1_555
C19 O6 1_555 1_555
H20 C19 1_555 1_555
H21 C19 1_555 1_555
H22 C19 1_555 1_555
C20 C7 1_555 1_555
C21 C20 1_555 1_555
C22 C21 1_555 1_555
H23 C22 1_555 1_555
C23 C22 1_555 1_555
H24 C23 1_555 1_555
C24 C23 1_555 1_555
H25 C24 1_555 1_555
C25 C24 1_555 1_555
H26 C25 1_555 1_555
C26 C21 1_555 1_555
C27 C26 1_555 1_555
C28 C27 1_555 1_555
C29 C28 1_555 1_555
H27 C29 1_555 1_555
C30 C29 1_555 1_555
H28 C30 1_555 1_555
C31 C30 1_555 1_555
H29 C31 1_555 1_555
C32 C31 1_555 1_555
H30 C32 1_555 1_555
C33 C20 1_555 1_555
C34 H31 1_555 1_555
H32 C34 1_555 1_555
Cl1 C34 1_555 1_555
Cl2 C34 1_555 1_555
O1A C1A 1_555 1_555
O2A C2A 1_555 1_555
O3A C3A 1_555 1_555
O4A C10A 1_555 1_555
O5A C11A 1_555 1_555
O6A C12A 1_555 1_555
C1A C2A 1_555 1_555
C2A C3A 1_555 1_555
C3A C4A 1_555 1_555
C4A H1A 1_555 1_555
C5A C4A 1_555 1_555
C6A C1A 1_555 1_555
H2A C6A 1_555 1_555
C7A C5A 1_555 1_555
C8A C7A 1_555 1_555
C9A C8A 1_555 1_555
H3A C9A 1_555 1_555
C10A C9A 1_555 1_555
C11A C10A 1_555 1_555
C12A C11A 1_555 1_555
C13A C8A 1_555 1_555
H4A C13A 1_555 1_555
C14A O1A 1_555 1_555
H5A C14A 1_555 1_555
H6A C14A 1_555 1_555
H7A C14A 1_555 1_555
C15A O2A 1_555 1_555
H8A C15A 1_555 1_555
H9A C15A 1_555 1_555
H10A C15A 1_555 1_555
C16A O3A 1_555 1_555
H11A C16A 1_555 1_555
H12A C16A 1_555 1_555
H13A C16A 1_555 1_555
C17A O4A 1_555 1_555
H14A C17A 1_555 1_555
H15A C17A 1_555 1_555
H16A C17A 1_555 1_555
C18A O5A 1_555 1_555
H17A C18A 1_555 1_555
H18A C18A 1_555 1_555
H19A C18A 1_555 1_555
C19A O6A 1_555 1_555
H20A C19A 1_555 1_555
H21A C19A 1_555 1_555
H22A C19A 1_555 1_555
C20A C7A 1_555 1_555
C21A C20A 1_555 1_555
C22A C21A 1_555 1_555
H23A C22A 1_555 1_555
C23A C22A 1_555 1_555
H24A C23A 1_555 1_555
C24A C23A 1_555 1_555
H25A C24A 1_555 1_555
C25A C24A 1_555 1_555
H26A C25A 1_555 1_555
C26A C21A 1_555 1_555
C27A C27 1_555 1_555
C28A C27A 1_555 1_555
C29A C28A 1_555 1_555
H27A C29A 1_555 1_555
C30A C29A 1_555 1_555
H28A C30A 1_555 1_555
C31A C30A 1_555 1_555
H29A C31A 1_555 1_555
C32A C31A 1_555 1_555
H30A C32A 1_555 1_555
C33A C20A 1_555 1_555
C5 C6 1_555 1_555
C12 C13 1_555 1_555
C25 C26 1_555 1_555
C28 C33 1_555 1_555
C32 C33 1_555 1_555
C5A C6A 1_555 1_555
C12A C13A 1_555 1_555
C25A C26A 1_555 1_555
C26A C27A 1_555 1_555
C28A C33A 1_555 1_555
C32A C33A 1_555 1_555

#END
