
#######################################################################
#
#                 Cambridge Crystallographic Data Centre
#                                CCDC 
#
#######################################################################
#
# If this CIF has been generated from an entry in the Cambridge 
# Structural Database, then it will include bibliographic, chemical, 
# crystal, experimental, refinement or atomic coordinate data resulting 
# from the CCDC's data processing and validation procedures.
#
#######################################################################

data_REPXAO
_chemical_compound_source        'Endophytic Fungus Aspergillus aculeatus'
_chemical_name_common            'Aculeatine B'
_chemical_formula_moiety         'C21 H22 N2 O4,C1 H4 O1'
_chemical_name_systematic        
'N-(2-hydroxy-3-phenylpropanoyl)-1-methyltryptophan methanol solvate'
_symmetry_cell_setting           monoclinic
_symmetry_space_group_name_H-M   'C 2'
_symmetry_Int_Tables_number      5
_space_group_name_Hall           'C 2y'
loop_
_symmetry_equiv_pos_site_id
_symmetry_equiv_pos_as_xyz
1 x,y,z
2 -x,y,-z
3 1/2+x,1/2+y,z
4 1/2-x,1/2+y,-z
_cell_length_a                   23.52(2)
_cell_length_b                   5.994(5)
_cell_length_c                   15.843(13)
_cell_angle_alpha                90
_cell_angle_beta                 112.574(17)
_cell_angle_gamma                90
_cell_volume                     2062.41
_exptl_crystal_colour            colorless
_exptl_crystal_description       needle
_cell_formula_units_Z            4
_exptl_crystal_recrystallization_method methanol
loop_
_atom_site_label
_atom_site_type_symbol
_atom_site_fract_x
_atom_site_fract_y
_atom_site_fract_z
O1 O 0.65940(5) 0.4912(2) 0.55654(9)
O2 O 0.67925(6) 0.8600(2) 0.56768(10)
H1 H 0.7028(12) 0.837(5) 0.5388(19)
O3 O 0.47820(5) 0.7223(2) 0.59769(9)
O4 O 0.52224(6) 0.1513(2) 0.61967(9)
H2 H 0.5044(11) 0.026(5) 0.6077(16)
N1 N 0.71816(7) 0.3323(3) 0.86983(11)
N2 N 0.56792(6) 0.5381(2) 0.61928(10)
H3 H 0.5843(10) 0.411(4) 0.6252(15)
C1 C 0.65075(8) 0.6794(3) 0.57837(12)
C2 C 0.60560(8) 0.7325(3) 0.62335(13)
H4 H 0.577933 0.855237 0.587888
C3 C 0.63959(7) 0.8138(3) 0.72349(12)
H5 H 0.663460 0.949729 0.723413
H6 H 0.608733 0.854029 0.749298
C4 C 0.68242(8) 0.6407(3) 0.78355(13)
C5 C 0.74738(8) 0.6176(3) 0.80238(13)
C6 C 0.79002(9) 0.7470(4) 0.78148(14)
H7 H 0.777470 0.879763 0.746491
C7 C 0.85081(10) 0.6769(5) 0.81295(16)
H8 H 0.880125 0.763759 0.799645
C8 C 0.86993(9) 0.4796(5) 0.86421(16)
H9 H 0.911734 0.434408 0.883813
C9 C 0.82937(9) 0.3510(4) 0.88650(15)
H10 H 0.842422 0.218204 0.921340
C10 C 0.76795(8) 0.4230(3) 0.85592(13)
C11 C 0.72095(11) 0.1406(3) 0.92782(15)
H11 H 0.679396 0.104221 0.923939
H12 H 0.747203 0.176076 0.991262
H13 H 0.738118 0.012401 0.907256
C12 C 0.66742(8) 0.4651(3) 0.82618(13)
H14 H 0.627510 0.438323 0.825783
C13 C 0.50817(7) 0.5468(3) 0.60666(12)
C14 C 0.47683(7) 0.3204(3) 0.60060(12)
H15 H 0.446512 0.299651 0.536475
C15 C 0.44174(7) 0.3112(3) 0.66470(13)
H16 H 0.409851 0.429231 0.646612
H17 H 0.420496 0.165551 0.656916
C16 C 0.48240(8) 0.3414(3) 0.76430(13)
C17 C 0.51729(9) 0.1636(3) 0.81604(14)
H18 H 0.515975 0.022724 0.787880
C18 C 0.55377(9) 0.1913(4) 0.90803(15)
H19 H 0.577221 0.069519 0.942311
C19 C 0.55616(10) 0.3964(4) 0.95023(15)
H20 H 0.580949 0.415055 1.013255
C20 C 0.52212(11) 0.5731(4) 0.89961(16)
H21 H 0.523651 0.713660 0.928079
C21 C 0.48570(9) 0.5465(3) 0.80747(15)
H22 H 0.462772 0.669634 0.773457
O5 O 0.74323(6) 0.7709(2) 0.46886(10)
H23 H 0.7733(12) 0.847(5) 0.4755(18)
C22 C 0.70283(11) 0.7748(5) 0.37583(17)
H24 H 0.726833 0.770439 0.337153
H25 H 0.678190 0.911660 0.363293
H26 H 0.675487 0.644859 0.362577
loop_
_geom_bond_atom_site_label_1
_geom_bond_atom_site_label_2
_geom_bond_site_symmetry_1
_geom_bond_site_symmetry_2
O1 C1 1_555 1_555
O2 H1 1_555 1_555
O3 C13 1_555 1_555
O4 H2 1_555 1_555
N1 C10 1_555 1_555
N2 H3 1_555 1_555
C1 O2 1_555 1_555
C2 N2 1_555 1_555
H4 C2 1_555 1_555
C3 C2 1_555 1_555
H5 C3 1_555 1_555
H6 C3 1_555 1_555
C4 C3 1_555 1_555
C5 C4 1_555 1_555
C6 C5 1_555 1_555
H7 C6 1_555 1_555
C7 C6 1_555 1_555
H8 C7 1_555 1_555
C8 C7 1_555 1_555
H9 C8 1_555 1_555
C9 C8 1_555 1_555
H10 C9 1_555 1_555
C10 C5 1_555 1_555
C11 N1 1_555 1_555
H11 C11 1_555 1_555
H12 C11 1_555 1_555
H13 C11 1_555 1_555
C12 N1 1_555 1_555
H14 C12 1_555 1_555
C13 N2 1_555 1_555
C14 O4 1_555 1_555
H15 C14 1_555 1_555
C15 C14 1_555 1_555
H16 C15 1_555 1_555
H17 C15 1_555 1_555
C16 C15 1_555 1_555
C17 C16 1_555 1_555
H18 C17 1_555 1_555
C18 C17 1_555 1_555
H19 C18 1_555 1_555
C19 C18 1_555 1_555
H20 C19 1_555 1_555
C20 C19 1_555 1_555
H21 C20 1_555 1_555
C21 C16 1_555 1_555
H22 C21 1_555 1_555
O5 H23 1_555 1_555
C22 O5 1_555 1_555
H24 C22 1_555 1_555
H25 C22 1_555 1_555
H26 C22 1_555 1_555
C1 C2 1_555 1_555
C4 C12 1_555 1_555
C9 C10 1_555 1_555
C13 C14 1_555 1_555
C20 C21 1_555 1_555

#END
