
#######################################################################
#
#                 Cambridge Crystallographic Data Centre
#                                CCDC 
#
#######################################################################
#
# If this CIF has been generated from an entry in the Cambridge 
# Structural Database, then it will include bibliographic, chemical, 
# crystal, experimental, refinement or atomic coordinate data resulting 
# from the CCDC's data processing and validation procedures.
#
#######################################################################

data_REPYES
_chemical_formula_moiety         'C15 H18 N4'
_chemical_name_systematic        5-Hexyltetrazolo[5,1-a]isoquinoline
_symmetry_cell_setting           triclinic
_symmetry_space_group_name_H-M   'P -1'
_symmetry_Int_Tables_number      2
_space_group_name_Hall           '-P 1'
loop_
_symmetry_equiv_pos_site_id
_symmetry_equiv_pos_as_xyz
1 x,y,z
2 -x,-y,-z
_cell_length_a                   8.2705(16)
_cell_length_b                   9.4515(14)
_cell_length_c                   9.4618(19)
_cell_angle_alpha                82.682(14)
_cell_angle_beta                 64.188(19)
_cell_angle_gamma                85.910(14)
_cell_volume                     660.295
_cell_formula_units_Z            2
loop_
_atom_site_label
_atom_site_type_symbol
_atom_site_fract_x
_atom_site_fract_y
_atom_site_fract_z
N1 N 0.28151(17) 0.58485(13) 0.19789(14)
C1 C 0.2311(2) 0.47653(16) 0.13826(18)
C2 C 0.3549(2) 0.71089(16) 0.11434(18)
C3 C 0.3354(2) 0.63413(16) -0.11148(18)
C4 C 0.3808(2) 0.74236(16) -0.04618(17)
C5 C -0.0136(2) -0.01799(16) 0.21768(17)
H1 H 0.0957 -0.0465 0.1264
H2 H -0.1016 0.0221 0.1778
N2 N 0.39093(18) 0.78421(14) 0.20763(15)
C6 C 0.1506(2) 0.34661(16) 0.25127(18)
H3 H 0.0379 0.3751 0.3393
H4 H 0.2347 0.3081 0.2963
C7 C 0.4495(2) 0.87243(16) -0.13783(18)
H5 H 0.4792 0.9452 -0.0930
C8 C 0.4313(2) 0.78701(17) -0.35885(18)
H6 H 0.4498 0.8022 -0.4660
N3 N 0.27197(19) 0.58035(14) 0.34618(15)
C9 C 0.1099(2) 0.22899(16) 0.17553(18)
H7 H 0.0222 0.2660 0.1339
H8 H 0.2216 0.2023 0.0854
C10 C 0.3630(2) 0.65954(16) -0.27055(18)
H9 H 0.3342 0.5879 -0.3173
N4 N 0.33772(19) 0.70022(14) 0.34831(15)
C11 C -0.0926(2) -0.15025(16) 0.33379(18)
H10 H -0.0017 -0.1935 0.3687
H11 H -0.1973 -0.1206 0.4281
C12 C 0.2601(2) 0.50248(15) -0.01461(17)
H12 H 0.2299 0.4311 -0.0607
C13 C -0.1518(2) -0.26236(17) 0.2650(2)
H13 H -0.0493 -0.2917 0.1709
H14 H -0.2472 -0.2223 0.2360
H15 H -0.1970 -0.3454 0.3437
C14 C 0.0345(2) 0.09675(16) 0.29119(18)
H16 H 0.1243 0.0573 0.3292
H17 H -0.0743 0.1242 0.3836
C15 C 0.4735(2) 0.89406(17) -0.29193(18)
H18 H 0.5189 0.9821 -0.3533
loop_
_geom_bond_atom_site_label_1
_geom_bond_atom_site_label_2
_geom_bond_site_symmetry_1
_geom_bond_site_symmetry_2
N1 C1 1_555 1_555
C1 C6 1_555 1_555
C2 N1 1_555 1_555
C3 C4 1_555 1_555
C4 C2 1_555 1_555
C5 H1 1_555 1_555
H2 C5 1_555 1_555
N2 C2 1_555 1_555
C6 H3 1_555 1_555
H4 C6 1_555 1_555
C7 C4 1_555 1_555
H5 C7 1_555 1_555
C8 H6 1_555 1_555
N3 N1 1_555 1_555
C9 C6 1_555 1_555
H7 C9 1_555 1_555
H8 C9 1_555 1_555
C10 C3 1_555 1_555
H9 C10 1_555 1_555
N4 N2 1_555 1_555
C11 C5 1_555 1_555
H10 C11 1_555 1_555
H11 C11 1_555 1_555
C12 C1 1_555 1_555
H12 C12 1_555 1_555
C13 C11 1_555 1_555
H13 C13 1_555 1_555
H14 C13 1_555 1_555
H15 C13 1_555 1_555
C14 C5 1_555 1_555
H16 C14 1_555 1_555
H17 C14 1_555 1_555
C15 C7 1_555 1_555
H18 C15 1_555 1_555
C3 C12 1_555 1_555
C8 C10 1_555 1_555
C8 C15 1_555 1_555
N3 N4 1_555 1_555
C9 C14 1_555 1_555

#END
