
#######################################################################
#
#                 Cambridge Crystallographic Data Centre
#                                CCDC 
#
#######################################################################
#
# If this CIF has been generated from an entry in the Cambridge 
# Structural Database, then it will include bibliographic, chemical, 
# crystal, experimental, refinement or atomic coordinate data resulting 
# from the CCDC's data processing and validation procedures.
#
#######################################################################

data_REPYAP
_chemical_name_common            
(2S,4S)-2-((t-butyldiphenylsilyl)oxy)-2-phenyl-1-tosyl-4-vinylpyrrolidine
_chemical_formula_moiety         'C35 H39 N1 O3 S1 Si1'
_chemical_name_systematic        
2-{[t-butyl(diphenyl)silyl]oxy}-4-ethenyl-1-[(4-methylphenyl)sulfonyl]-2-phenylpyrrolidine
_symmetry_cell_setting           orthorhombic
_symmetry_space_group_name_H-M   'P 21 21 21'
_symmetry_Int_Tables_number      19
_space_group_name_Hall           'P 2ac 2ab'
loop_
_symmetry_equiv_pos_site_id
_symmetry_equiv_pos_as_xyz
1 x,y,z
2 1/2-x,-y,1/2+z
3 -x,1/2+y,1/2-z
4 1/2+x,1/2-y,-z
_cell_length_a                   8.4929(13)
_cell_length_b                   9.8371(16)
_cell_length_c                   39.949(6)
_cell_angle_alpha                90
_cell_angle_beta                 90
_cell_angle_gamma                90
_cell_volume                     3337.56
_exptl_crystal_colour            colorless
_exptl_crystal_description       block
_cell_formula_units_Z            4
loop_
_atom_site_label
_atom_site_type_symbol
_atom_site_fract_x
_atom_site_fract_y
_atom_site_fract_z
Si1 Si 0.78211(10) 0.70192(9) 0.08534(2)
S1 S 0.91301(10) 0.88713(10) 0.18457(2)
O1 O 0.9682(3) 1.0193(3) 0.17469(6)
O2 O 1.0058(3) 0.7691(3) 0.17818(6)
O3 O 0.7723(2) 0.6907(2) 0.12616(5)
N1 N 0.7445(3) 0.8662(3) 0.16600(6)
C1 C 0.6273(4) 0.5892(3) 0.06649(8)
C2 C 0.5959(5) 0.5861(4) 0.03225(9)
H1 H 0.6491 0.6455 0.0181
C3 C 0.4868(5) 0.4965(5) 0.01878(12)
H2 H 0.4660 0.4974 -0.0041
C4 C 0.4104(5) 0.4071(4) 0.03917(14)
H3 H 0.3384 0.3462 0.0301
C5 C 0.4384(4) 0.4061(4) 0.07266(12)
H4 H 0.3850 0.3453 0.0864
C6 C 0.5466(4) 0.4956(3) 0.08625(9)
H5 H 0.5658 0.4933 0.1092
C7 C 0.7589(4) 0.8821(3) 0.07152(7)
C8 C 0.8585(4) 0.9805(3) 0.08485(9)
H6 H 0.9367 0.9542 0.0998
C9 C 0.8444(5) 1.1162(4) 0.07651(10)
H7 H 0.9113 1.1801 0.0861
C10 C 0.7328(5) 1.1563(4) 0.05421(10)
H8 H 0.7252 1.2474 0.0482
C11 C 0.6316(5) 1.0632(4) 0.04067(9)
H9 H 0.5544 1.0912 0.0257
C12 C 0.6440(4) 0.9269(3) 0.04928(8)
H10 H 0.5743 0.8645 0.0400
C13 C 0.6799(4) 0.6225(4) 0.17967(8)
C14 C 0.7607(5) 0.5035(4) 0.17495(10)
H11 H 0.8175 0.4906 0.1553
C15 C 0.7590(6) 0.4026(5) 0.19892(14)
H12 H 0.8150 0.3226 0.1954
C16 C 0.6761(7) 0.4198(7) 0.22751(16)
H13 H 0.6753 0.3516 0.2436
C17 C 0.5946(6) 0.5356(7) 0.23275(12)
H14 H 0.5374 0.5465 0.2524
C18 C 0.5956(5) 0.6394(5) 0.20881(9)
H15 H 0.5397 0.7192 0.2126
C19 C 0.8746(3) 0.8969(4) 0.22772(8)
C20 C 0.8742(4) 0.7812(4) 0.24729(9)
H16 H 0.8975 0.6971 0.2379
C21 C 0.8392(5) 0.7912(5) 0.28087(9)
H17 H 0.8410 0.7130 0.2940
C22 C 0.8015(4) 0.9133(4) 0.29565(9)
C23 C 0.8065(4) 1.0281(4) 0.27607(10)
H18 H 0.7868 1.1124 0.2857
C24 C 0.8404(4) 1.0206(4) 0.24218(9)
H19 H 0.8401 1.0991 0.2292
C25 C 0.9823(4) 0.6323(3) 0.07416(7)
C26 C 1.1133(4) 0.7033(4) 0.09278(10)
H20 H 1.2126 0.6645 0.0864
H21 H 1.0981 0.6922 0.1164
H22 H 1.1125 0.7983 0.0873
C27 C 0.9877(5) 0.4816(3) 0.08314(10)
H23 H 1.0893 0.4453 0.0776
H24 H 0.9079 0.4339 0.0708
H25 H 0.9692 0.4708 0.1067
C28 C 1.0103(5) 0.6466(5) 0.03669(9)
H26 H 1.1121 0.6107 0.0312
H27 H 1.0056 0.7408 0.0306
H28 H 0.9307 0.5971 0.0247
C29 C 0.6797(3) 0.7359(3) 0.15335(8)
C30 C 0.5118(4) 0.7781(3) 0.14299(8)
H29 H 0.4830 0.7349 0.1220
H30 H 0.4367 0.7510 0.1600
C31 C 0.5118(4) 0.9326(3) 0.13901(8)
H31 H 0.5540 0.9554 0.1169
C32 C 0.6297(4) 0.9769(4) 0.16553(9)
H32 H 0.6792 1.0623 0.1595
H33 H 0.5793 0.9870 0.1872
C33 C 0.3531(4) 0.9945(4) 0.14250(10)
H34 H 0.2994 0.9795 0.1625
C34 C 0.2836(5) 1.0675(4) 0.11998(12)
H35 H 0.3334 1.0847 0.0997
H36 H 0.1839 1.1027 0.1241
C35 C 0.7602(6) 0.9227(5) 0.33182(9)
H37 H 0.7384 1.0157 0.3375
H38 H 0.8468 0.8904 0.3451
H39 H 0.6688 0.8681 0.3362
loop_
_geom_bond_atom_site_label_1
_geom_bond_atom_site_label_2
_geom_bond_site_symmetry_1
_geom_bond_site_symmetry_2
Si1 O3 1_555 1_555
S1 O1 1_555 1_555
O2 S1 1_555 1_555
O3 C29 1_555 1_555
N1 S1 1_555 1_555
C1 Si1 1_555 1_555
C2 C1 1_555 1_555
H1 C2 1_555 1_555
C3 C2 1_555 1_555
H2 C3 1_555 1_555
C4 C3 1_555 1_555
H3 C4 1_555 1_555
C5 C4 1_555 1_555
H4 C5 1_555 1_555
C6 C1 1_555 1_555
H5 C6 1_555 1_555
C7 Si1 1_555 1_555
C8 C7 1_555 1_555
H6 C8 1_555 1_555
C9 C8 1_555 1_555
H7 C9 1_555 1_555
C10 C9 1_555 1_555
H8 C10 1_555 1_555
C11 C10 1_555 1_555
H9 C11 1_555 1_555
C12 C7 1_555 1_555
H10 C12 1_555 1_555
C13 C14 1_555 1_555
C14 H11 1_555 1_555
C15 C14 1_555 1_555
H12 C15 1_555 1_555
C16 C15 1_555 1_555
H13 C16 1_555 1_555
C17 C16 1_555 1_555
H14 C17 1_555 1_555
C18 C13 1_555 1_555
H15 C18 1_555 1_555
C19 S1 1_555 1_555
C20 C19 1_555 1_555
H16 C20 1_555 1_555
C21 C20 1_555 1_555
H17 C21 1_555 1_555
C22 C21 1_555 1_555
C23 C22 1_555 1_555
H18 C23 1_555 1_555
C24 C19 1_555 1_555
H19 C24 1_555 1_555
C25 Si1 1_555 1_555
C26 C25 1_555 1_555
H20 C26 1_555 1_555
H21 C26 1_555 1_555
H22 C26 1_555 1_555
C27 C25 1_555 1_555
H23 C27 1_555 1_555
H24 C27 1_555 1_555
H25 C27 1_555 1_555
C28 C25 1_555 1_555
H26 C28 1_555 1_555
H27 C28 1_555 1_555
H28 C28 1_555 1_555
C29 N1 1_555 1_555
C30 C29 1_555 1_555
H29 C30 1_555 1_555
H30 C30 1_555 1_555
C31 C30 1_555 1_555
H31 C31 1_555 1_555
C32 N1 1_555 1_555
H32 C32 1_555 1_555
H33 C32 1_555 1_555
C33 C31 1_555 1_555
H34 C33 1_555 1_555
C34 C33 1_555 1_555
H35 C34 1_555 1_555
H36 C34 1_555 1_555
C35 C22 1_555 1_555
H37 C35 1_555 1_555
H38 C35 1_555 1_555
H39 C35 1_555 1_555
C5 C6 1_555 1_555
C11 C12 1_555 1_555
C13 C29 1_555 1_555
C17 C18 1_555 1_555
C23 C24 1_555 1_555
C31 C32 1_555 1_555

#END
