
#######################################################################
#
#                 Cambridge Crystallographic Data Centre
#                                CCDC 
#
#######################################################################
#
# If this CIF has been generated from an entry in the Cambridge 
# Structural Database, then it will include bibliographic, chemical, 
# crystal, experimental, refinement or atomic coordinate data resulting 
# from the CCDC's data processing and validation procedures.
#
#######################################################################

data_REQGEA
_chemical_formula_moiety         'C35 H40 N6 O1,C1 H1 Cl3'
_chemical_name_systematic        
'2,7-Di-t-butyl-9,9-dimethyl-4,5-bis(pyridin-2-ylhydrazonomethyl)-9H-xanthene chloroform solvate'
_symmetry_cell_setting           monoclinic
_symmetry_space_group_name_H-M   'P 21/c'
_symmetry_Int_Tables_number      14
_space_group_name_Hall           '-P 2ybc'
loop_
_symmetry_equiv_pos_site_id
_symmetry_equiv_pos_as_xyz
1 x,y,z
2 -x,1/2+y,1/2-z
3 -x,-y,-z
4 x,1/2-y,1/2+z
_cell_length_a                   15.280(3)
_cell_length_b                   22.540(5)
_cell_length_c                   10.510(2)
_cell_angle_alpha                90
_cell_angle_beta                 90.00
_cell_angle_gamma                90
_cell_volume                     3619.76
_exptl_crystal_colour            white
_cell_formula_units_Z            4
loop_
_atom_site_label
_atom_site_type_symbol
_atom_site_fract_x
_atom_site_fract_y
_atom_site_fract_z
N1 N 0.11082(13) 0.97677(10) 0.8747(2)
N2 N 0.19617(13) 1.01860(10) 0.7165(2)
H1 H 0.14906 1.02464 0.6736
N3 N 0.27552(13) 1.03605(10) 0.6673(2)
N4 N 0.12272(12) 1.03458(9) 0.2760(2)
N5 N 0.04565(12) 1.00559(9) 0.3021(2)
H2 H -0.00219 1.01699 0.2666
N6 N -0.03348(13) 0.93134(9) 0.3992(2)
O1 O 0.29296(10) 1.07410(7) 0.29555(15)
C1 C 0.1035(2) 0.94984(12) 0.9886(2)
H3 H 0.0478 0.93976 1.0169
C2 C 0.1729(2) 0.93648(13) 1.0648(2)
H4 H 0.1653 0.91757 1.1426
C3 C 0.2562(2) 0.95248(13) 1.0207(3)
H5 H 0.3051 0.94425 1.0703
C4 C 0.2664(2) 0.98018(13) 0.9052(3)
H6 H 0.3216 0.99097 0.8758
C5 C 0.1916(2) 0.99156(11) 0.8337(2)
C6 C 0.2761(2) 1.05868(11) 0.5552(2)
H7 H 0.2242 1.06079 0.5092
C7 C 0.35754(15) 1.08136(11) 0.4983(2)
C8 C 0.43006(15) 1.09494(11) 0.5727(2)
H8 H 0.42760 1.08818 0.6600
C9 C 0.50697(15) 1.11858(11) 0.5198(2)
C10 C 0.5097(2) 1.12835(11) 0.3879(2)
H9 H 0.5599 1.14469 0.3522
C11 C 0.43972(15) 1.11434(11) 0.3095(2)
C12 C 0.36447(14) 1.09088(10) 0.3666(2)
C13 C 0.44368(15) 1.11917(12) 0.1637(2)
C14 C 0.35047(15) 1.13082(11) 0.1172(2)
C15 C 0.3328(2) 1.16408(11) 0.0080(2)
H10 H 0.3788 1.18222 -0.0348
C16 C 0.2478(2) 1.17079(10) -0.0383(2)
C17 C 0.1812(2) 1.14096(11) 0.0265(2)
H11 H 0.1245 1.14387 -0.0051
C18 C 0.19466(15) 1.10686(10) 0.1365(2)
C19 C 0.28034(15) 1.10425(10) 0.1825(2)
C20 C 0.1189(2) 1.07487(11) 0.1897(2)
H12 H 0.0639 1.08462 0.1582
C21 C 0.0450(2) 0.95830(11) 0.3851(2)
C22 C 0.1192(2) 0.94054(12) 0.4514(2)
H13 H 0.1726 0.95964 0.4400
C23 C 0.1110(2) 0.89358(13) 0.5350(3)
H14 H 0.1592 0.88118 0.5819
C24 C 0.0315(2) 0.86475(12) 0.5497(3)
H15 H 0.0255 0.83267 0.6046
C25 C -0.0380(2) 0.88544(12) 0.4799(2)
H16 H -0.0916 0.86640 0.4892
C26 C 0.2284(2) 1.21142(11) -0.1517(2)
C27 C 0.3083(2) 1.2201(2) -0.2384(3)
H17 H 0.3276 1.1822 -0.2695
H18 H 0.3547 1.2384 -0.1910
H19 H 0.2926 1.2450 -0.3089
C28 C 0.1566(2) 1.1844(2) -0.2347(3)
H20 H 0.1759 1.1467 -0.2669
H21 H 0.1442 1.2105 -0.3046
H22 H 0.1046 1.1789 -0.1848
C29 C 0.1970(3) 1.27121(14) -0.1017(3)
H23 H 0.2418 1.28856 -0.0495
H24 H 0.1449 1.26566 -0.0521
H25 H 0.1846 1.29706 -0.1720
C30 C 0.4729(2) 1.05825(14) 0.1096(3)
H26 H 0.5314 1.04975 0.1374
H27 H 0.4713 1.05947 0.0184
H28 H 0.4341 1.02784 0.1397
C31 C 0.5083(2) 1.1671(2) 0.1186(3)
H29 H 0.5658 1.1581 0.1497
H30 H 0.4902 1.2051 0.1507
H31 H 0.5091 1.1682 0.0273
C32 C 0.5601(2) 1.1534(2) 0.7358(3)
H32 H 0.5297 1.1904 0.7268
H33 H 0.6114 1.1591 0.7870
H34 H 0.5223 1.1250 0.7761
C33 C 0.6491(2) 1.1765(2) 0.5435(3)
H35 H 0.6188 1.2135 0.5337
H36 H 0.6682 1.1626 0.4618
H37 H 0.6990 1.1820 0.5977
C34 C 0.6351(2) 1.0712(2) 0.6195(4)
H38 H 0.6859 1.0769 0.6719
H39 H 0.6528 1.0567 0.5375
H40 H 0.5969 1.0428 0.6590
C35 C 0.5869(2) 1.13031(12) 0.6038(2)
C36 C 0.1332(2) 0.7443(2) 0.3524(3)
H41 H 0.1486 0.7701 0.4241
Cl1 Cl 0.02893(7) 0.71323(5) 0.38237(10)
Cl2 Cl 0.21145(8) 0.68781(5) 0.34216(12)
Cl3 Cl 0.13335(10) 0.78699(6) 0.21384(11)
loop_
_geom_bond_atom_site_label_1
_geom_bond_atom_site_label_2
_geom_bond_site_symmetry_1
_geom_bond_site_symmetry_2
N1 C1 1_555 1_555
N2 H1 1_555 1_555
N3 N2 1_555 1_555
N4 N5 1_555 1_555
N5 H2 1_555 1_555
N6 C21 1_555 1_555
O1 C12 1_555 1_555
C1 H3 1_555 1_555
C2 C1 1_555 1_555
H4 C2 1_555 1_555
C3 C2 1_555 1_555
H5 C3 1_555 1_555
C4 C3 1_555 1_555
H6 C4 1_555 1_555
C5 N1 1_555 1_555
C6 N3 1_555 1_555
H7 C6 1_555 1_555
C7 C6 1_555 1_555
C8 C7 1_555 1_555
H8 C8 1_555 1_555
C9 C8 1_555 1_555
C10 C9 1_555 1_555
H9 C10 1_555 1_555
C11 C10 1_555 1_555
C12 C7 1_555 1_555
C13 C11 1_555 1_555
C14 C13 1_555 1_555
C15 C14 1_555 1_555
H10 C15 1_555 1_555
C16 C15 1_555 1_555
C17 C16 1_555 1_555
H11 C17 1_555 1_555
C18 C17 1_555 1_555
C19 O1 1_555 1_555
C20 N4 1_555 1_555
H12 C20 1_555 1_555
C21 N5 1_555 1_555
C22 C21 1_555 1_555
H13 C22 1_555 1_555
C23 C22 1_555 1_555
H14 C23 1_555 1_555
C24 C23 1_555 1_555
H15 C24 1_555 1_555
C25 N6 1_555 1_555
H16 C25 1_555 1_555
C26 C16 1_555 1_555
C27 C26 1_555 1_555
H17 C27 1_555 1_555
H18 C27 1_555 1_555
H19 C27 1_555 1_555
C28 C26 1_555 1_555
H20 C28 1_555 1_555
H21 C28 1_555 1_555
H22 C28 1_555 1_555
C29 C26 1_555 1_555
H23 C29 1_555 1_555
H24 C29 1_555 1_555
H25 C29 1_555 1_555
C30 C13 1_555 1_555
H26 C30 1_555 1_555
H27 C30 1_555 1_555
H28 C30 1_555 1_555
C31 C13 1_555 1_555
H29 C31 1_555 1_555
H30 C31 1_555 1_555
H31 C31 1_555 1_555
C32 H32 1_555 1_555
H33 C32 1_555 1_555
H34 C32 1_555 1_555
C33 H35 1_555 1_555
H36 C33 1_555 1_555
H37 C33 1_555 1_555
C34 H38 1_555 1_555
H39 C34 1_555 1_555
H40 C34 1_555 1_555
C35 C9 1_555 1_555
C36 H41 1_555 1_555
Cl1 C36 1_555 1_555
Cl2 C36 1_555 1_555
Cl3 C36 1_555 1_555
N2 C5 1_555 1_555
C4 C5 1_555 1_555
C11 C12 1_555 1_555
C14 C19 1_555 1_555
C18 C19 1_555 1_555
C18 C20 1_555 1_555
C24 C25 1_555 1_555
C32 C35 1_555 1_555
C33 C35 1_555 1_555
C34 C35 1_555 1_555

#END
