
#######################################################################
#
#                 Cambridge Crystallographic Data Centre
#                                CCDC 
#
#######################################################################
#
# If this CIF has been generated from an entry in the Cambridge 
# Structural Database, then it will include bibliographic, chemical, 
# crystal, experimental, refinement or atomic coordinate data resulting 
# from the CCDC's data processing and validation procedures.
#
#######################################################################

data_REQHOM
_chemical_formula_moiety         'C18 H14 N5 1+,C10 H6 O8,I1 1-'
_chemical_name_systematic        
'2,4,5-tris(Pyridin-4-yl)-1H-imidazol-3-ium benzene-1,2,4,5-tetracarboxylic acid iodide'
_symmetry_cell_setting           monoclinic
_symmetry_space_group_name_H-M   'C 2/c'
_symmetry_Int_Tables_number      15
_space_group_name_Hall           '-C 2yn'
loop_
_symmetry_equiv_pos_site_id
_symmetry_equiv_pos_as_xyz
1 x,y,z
2 -x,y,1/2-z
3 1/2+x,1/2+y,z
4 1/2-x,1/2+y,1/2-z
5 -x,-y,-z
6 x,-y,1/2+z
7 1/2-x,1/2-y,-z
8 1/2+x,1/2-y,1/2+z
_cell_length_a                   20.546(5)
_cell_length_b                   18.782(5)
_cell_length_c                   13.957(5)
_cell_angle_alpha                90
_cell_angle_beta                 100.677(5)
_cell_angle_gamma                90
_cell_volume                     5292.69
_exptl_crystal_colour            'light yellow'
_exptl_crystal_description       block
_cell_formula_units_Z            8
loop_
_atom_site_label
_atom_site_type_symbol
_atom_site_fract_x
_atom_site_fract_y
_atom_site_fract_z
I1 I 0.667094(12) 0.463664(13) -0.01622(2)
O1 O 0.58986(12) 0.26295(13) -0.1123(2)
O2 O 0.40083(14) 0.35975(13) -0.1775(3)
H1 H 0.4110 0.4019 -0.1790
O3 O 0.43476(14) -0.02090(13) -0.1212(2)
C1 C 0.46956(16) 0.12016(16) -0.1326(2)
H2 H 0.5015 0.0845 -0.1239
C2 C 0.35547(16) 0.15360(17) -0.1552(2)
C3 C 0.49147(16) 0.19062(16) -0.1284(2)
O4 O 0.24820(13) 0.19625(16) -0.1483(2)
H3 H 0.2089 0.1853 -0.1577
O5 O 0.50801(13) 0.35311(13) -0.1260(2)
C4 C 0.45041(17) 0.32427(17) -0.1489(3)
C5 C 0.56658(17) 0.19917(18) -0.1134(3)
C6 C 0.39093(17) 0.01976(17) -0.1593(3)
C7 C 0.40350(16) 0.09955(16) -0.1488(2)
O6 O 0.60173(12) 0.14685(14) -0.1024(2)
C8 C 0.37694(16) 0.22376(16) -0.1497(2)
H4 H 0.3452 0.2593 -0.1522
O7 O 0.25350(14) 0.08832(15) -0.2048(3)
C9 C 0.44265(16) 0.24438(16) -0.1406(2)
O8 O 0.33744(15) -0.00138(14) -0.2100(3)
H5 H 0.3160 0.0330 -0.2345
C10 C 0.28028(17) 0.1466(2) -0.1681(3)
H6 H 0.6268(14) 0.266(3) -0.127(4)
N1 N 0.30203(16) 0.06172(17) 0.0678(3)
N2 N 0.47035(13) 0.25667(14) 0.1281(2)
H7 H 0.4351 0.2817 0.1266
C11 C 0.54599(15) 0.35773(16) 0.1545(2)
N3 N 0.53735(13) 0.16496(13) 0.1261(2)
H8 H 0.5506 0.1216 0.1238
C12 C 0.47388(16) 0.18687(16) 0.1215(2)
C13 C 0.68554(17) 0.16234(18) 0.1664(3)
H9 H 0.6656 0.1219 0.1863
C14 C 0.57668(15) 0.22475(16) 0.1350(2)
N4 N 0.56726(14) 0.50041(14) 0.1820(2)
C15 C 0.64781(15) 0.22246(16) 0.1358(2)
C16 C 0.68030(17) 0.28116(17) 0.1041(3)
H10 H 0.6564 0.3216 0.0808
C17 C 0.60170(16) 0.38265(17) 0.2173(3)
H11 H 0.6321 0.3508 0.2515
C18 C 0.61158(17) 0.45465(17) 0.2287(3)
H12 H 0.6495 0.4716 0.2692
C19 C 0.51160(17) 0.47847(17) 0.1238(3)
H13 H 0.4809 0.5116 0.0935
C20 C 0.53324(16) 0.28116(16) 0.1378(2)
N5 N 0.78204(14) 0.22120(17) 0.1383(2)
C21 C 0.49985(17) 0.40708(17) 0.1090(3)
H14 H 0.4612 0.3917 0.0687
C22 C 0.35325(17) 0.17339(19) 0.0982(3)
H15 H 0.3499 0.2223 0.1064
C23 C 0.41817(18) 0.06783(19) 0.0971(3)
H16 H 0.4589 0.0450 0.1041
C24 C 0.29767(18) 0.1322(2) 0.0782(3)
H17 H 0.2562 0.1535 0.0717
C25 C 0.74677(18) 0.27887(19) 0.1073(3)
H18 H 0.7680 0.3184 0.0874
C26 C 0.36070(19) 0.0290(2) 0.0776(3)
H19 H 0.3625 -0.0202 0.0712
C27 C 0.41531(16) 0.14103(17) 0.1063(2)
C28 C 0.75265(18) 0.1632(2) 0.1668(3)
H20 H 0.7779 0.1231 0.1872
loop_
_geom_bond_atom_site_label_1
_geom_bond_atom_site_label_2
_geom_bond_site_symmetry_1
_geom_bond_site_symmetry_2
O1 C5 1_555 1_555
O2 H1 1_555 1_555
O3 C6 1_555 1_555
C1 H2 1_555 1_555
C2 C7 1_555 1_555
C3 C1 1_555 1_555
O4 H3 1_555 1_555
O5 C4 1_555 1_555
C4 O2 1_555 1_555
C5 C3 1_555 1_555
C6 C7 1_555 1_555
C7 C1 1_555 1_555
O6 C5 1_555 1_555
C8 C2 1_555 1_555
H4 C8 1_555 1_555
O7 C10 1_555 1_555
C9 C3 1_555 1_555
O8 C6 1_555 1_555
H5 O8 1_555 1_555
C10 C2 1_555 1_555
H6 O1 1_555 1_555
N1 C24 1_555 1_555
N2 H7 1_555 1_555
C11 C17 1_555 1_555
N3 H8 1_555 1_555
C12 N2 1_555 1_555
C13 H9 1_555 1_555
C14 N3 1_555 1_555
N4 C18 1_555 1_555
C15 C13 1_555 1_555
C16 C15 1_555 1_555
H10 C16 1_555 1_555
C17 H11 1_555 1_555
C18 C17 1_555 1_555
H12 C18 1_555 1_555
C19 N4 1_555 1_555
H13 C19 1_555 1_555
C20 N2 1_555 1_555
N5 C25 1_555 1_555
C21 C11 1_555 1_555
H14 C21 1_555 1_555
C22 H15 1_555 1_555
C23 H16 1_555 1_555
C24 C22 1_555 1_555
H17 C24 1_555 1_555
C25 C16 1_555 1_555
H18 C25 1_555 1_555
C26 N1 1_555 1_555
H19 C26 1_555 1_555
C27 C12 1_555 1_555
C28 C13 1_555 1_555
H20 C28 1_555 1_555
O4 C10 1_555 1_555
C4 C9 1_555 1_555
C8 C9 1_555 1_555
C11 C20 1_555 1_555
N3 C12 1_555 1_555
C14 C15 1_555 1_555
C14 C20 1_555 1_555
C19 C21 1_555 1_555
N5 C28 1_555 1_555
C22 C27 1_555 1_555
C23 C26 1_555 1_555
C23 C27 1_555 1_555

#END
