
#######################################################################
#
#                 Cambridge Crystallographic Data Centre
#                                CCDC 
#
#######################################################################
#
# If this CIF has been generated from an entry in the Cambridge 
# Structural Database, then it will include bibliographic, chemical, 
# crystal, experimental, refinement or atomic coordinate data resulting 
# from the CCDC's data processing and validation procedures.
#
#######################################################################

data_REQJEE
_chemical_formula_moiety         'C28 H32 B1 N1 S4'
_chemical_name_systematic        
2,5,9,12-Tetrapropylbisthieno[2',3':5,6;3'',2'':3,4][1,2]azaborinino[1,2-a]bisthieno[3,2-c:2',3'-e][1,2]azaborinine
_symmetry_cell_setting           triclinic
_symmetry_space_group_name_H-M   'P -1'
_symmetry_Int_Tables_number      2
_space_group_name_Hall           '-P 1'
loop_
_symmetry_equiv_pos_site_id
_symmetry_equiv_pos_as_xyz
1 x,y,z
2 -x,-y,-z
_cell_length_a                   10.925(3)
_cell_length_b                   15.116(3)
_cell_length_c                   16.752(4)
_cell_angle_alpha                80.320(11)
_cell_angle_beta                 83.220(12)
_cell_angle_gamma                75.300(9)
_cell_volume                     2629.55
_exptl_crystal_colour            colorless
_exptl_crystal_description       plate
_cell_formula_units_Z            4
loop_
_atom_site_label
_atom_site_type_symbol
_atom_site_fract_x
_atom_site_fract_y
_atom_site_fract_z
S1 S 0.40049(11) 0.39368(8) 0.21448(7)
S2 S 0.40258(10) 0.38480(8) 0.00984(7)
S3 S 1.10305(11) 0.38389(8) -0.05619(7)
S4 S 1.14831(11) 0.28733(8) 0.14308(7)
N1 N 0.7594(3) 0.3731(2) 0.0388(2)
C1 C 0.6451(4) 0.3644(3) 0.1815(3)
C2 C 0.6195(4) 0.3660(3) 0.2678(3)
H1 H 0.6849 0.3569 0.3031
C3 C 0.4953(4) 0.3815(3) 0.2945(3)
C4 C 0.5318(4) 0.3810(3) 0.1449(3)
C5 C 0.4350(5) 0.3930(4) 0.3787(3)
H2 H 0.3896 0.4585 0.3791
H3 H 0.5030 0.3787 0.4163
C6 C 0.3431(5) 0.3335(4) 0.4103(3)
H4 H 0.3878 0.2678 0.4102
H5 H 0.2741 0.3480 0.3734
C7 C 0.2851(6) 0.3476(4) 0.4964(3)
H6 H 0.2406 0.4126 0.4969
H7 H 0.3527 0.3308 0.5337
H8 H 0.2249 0.3085 0.5136
C8 C 0.5329(4) 0.3821(3) 0.0602(3)
C9 C 0.6414(4) 0.3780(3) 0.0073(3)
C10 C 0.6177(4) 0.3721(3) -0.0734(3)
H9 H 0.6819 0.3662 -0.1170
C11 C 0.4939(4) 0.3758(3) -0.0817(3)
C12 C 0.4300(4) 0.3747(3) -0.1564(3)
H10 H 0.3636 0.4329 -0.1658
H11 H 0.3870 0.3231 -0.1456
C13 C 0.5167(4) 0.3646(4) -0.2331(3)
H12 H 0.5774 0.3034 -0.2267
H13 H 0.5660 0.4125 -0.2419
C14 C 0.4423(5) 0.3741(4) -0.3075(3)
H14 H 0.5019 0.3624 -0.3552
H15 H 0.3881 0.4368 -0.3171
H16 H 0.3895 0.3292 -0.2976
C15 C 0.8681(4) 0.3857(3) -0.0133(3)
C16 C 0.8754(4) 0.4234(3) -0.0980(3)
H17 H 0.8032 0.4446 -0.1288
C17 C 0.9950(4) 0.4258(3) -0.1298(3)
C18 C 1.0440(5) 0.4560(4) -0.2148(3)
H18 H 1.0852 0.5070 -0.2136
H19 H 1.1104 0.4038 -0.2331
C19 C 0.9486(5) 0.4875(4) -0.2761(3)
H20 H 0.8840 0.5420 -0.2603
H21 H 0.9050 0.4378 -0.2772
C20 C 1.0100(5) 0.5128(4) -0.3606(3)
H22 H 0.9443 0.5354 -0.3992
H23 H 1.0707 0.4581 -0.3775
H24 H 1.0544 0.5613 -0.3595
C21 C 0.9861(4) 0.3633(3) 0.0177(3)
C22 C 1.0041(4) 0.3289(3) 0.1011(3)
C23 C 0.9018(4) 0.3256(3) 0.1571(3)
C24 C 0.9448(4) 0.2848(3) 0.2364(3)
H25 H 0.8882 0.2763 0.2831
C25 C 1.0738(4) 0.2595(3) 0.2386(3)
C26 C 1.1534(5) 0.2074(3) 0.3068(3)
H26 H 1.2230 0.2380 0.3086
H27 H 1.1926 0.1441 0.2945
C27 C 1.0821(5) 0.2009(3) 0.3899(3)
H28 H 1.0036 0.1808 0.3863
H29 H 1.0569 0.2628 0.4073
C28 C 1.1611(5) 0.1331(4) 0.4536(3)
H30 H 1.1817 0.0709 0.4384
H31 H 1.1125 0.1332 0.5066
H32 H 1.2397 0.1519 0.4565
B1 B 0.7680(5) 0.3553(3) 0.1274(3)
S5 S -0.10439(10) 0.15383(8) 0.97360(7)
S6 S -0.14508(11) 0.23294(9) 0.77101(7)
S7 S 0.60375(11) 0.08788(9) 0.70320(7)
S8 S 0.60635(10) 0.10727(8) 0.90712(7)
N2 N 0.2435(3) 0.1448(2) 0.8761(2)
C29 C 0.1333(4) 0.1407(3) 0.9294(3)
C30 C 0.1249(4) 0.1025(3) 1.0138(3)
H33 H 0.1968 0.0774 1.0444
C31 C 0.0046(4) 0.1060(3) 1.0450(3)
C32 C 0.0147(4) 0.1696(3) 0.8991(3)
C33 C -0.0420(4) 0.0745(3) 1.1312(3)
H34 H -0.0891 0.0267 1.1304
H35 H -0.1022 0.1276 1.1526
C34 C 0.0627(5) 0.0354(3) 1.1885(3)
H36 H 0.1156 0.0804 1.1855
H37 H 0.1176 -0.0221 1.1710
C35 C 0.0098(5) 0.0144(4) 1.2762(3)
H38 H -0.0450 -0.0285 1.2792
H39 H -0.0397 0.0719 1.2951
H40 H 0.0800 -0.0136 1.3107
C36 C -0.0015(4) 0.1977(3) 0.8153(3)
C37 C 0.1012(4) 0.1933(3) 0.7581(3)
C38 C 0.0582(4) 0.2201(3) 0.6777(3)
H41 H 0.1154 0.2223 0.6305
C39 C -0.0690(5) 0.2419(3) 0.6740(3)
C40 C -0.1478(5) 0.2671(4) 0.6009(3)
H42 H -0.1000 0.2326 0.5572
H43 H -0.2268 0.2455 0.6165
C41 C -0.1826(7) 0.3650(4) 0.5678(4)
H44 H -0.1042 0.3866 0.5494
H45 H -0.2284 0.4005 0.6114
C42 C -0.2659(6) 0.3848(4) 0.4968(3)
H46 H -0.2237 0.3466 0.4550
H47 H -0.2797 0.4503 0.4737
H48 H -0.3478 0.3703 0.5160
C43 C 0.3583(4) 0.1391(3) 0.7351(3)
C44 C 0.3829(4) 0.1307(3) 0.6502(3)
H49 H 0.3164 0.1429 0.6151
C45 C 0.5065(4) 0.1044(3) 0.6232(3)
C46 C 0.5618(5) 0.0886(3) 0.5393(3)
H50 H 0.4923 0.1074 0.5025
H51 H 0.5985 0.0216 0.5396
C47 C 0.6640(5) 0.1401(4) 0.5050(3)
H52 H 0.7361 0.1191 0.5398
H53 H 0.6291 0.2071 0.5065
C48 C 0.7125(6) 0.1247(5) 0.4172(3)
H54 H 0.6424 0.1485 0.3819
H55 H 0.7463 0.0585 0.4153
H56 H 0.7799 0.1574 0.3985
C49 C 0.4725(4) 0.1154(3) 0.7715(3)
C50 C 0.4736(4) 0.1171(3) 0.8562(3)
C51 C 0.3632(4) 0.1326(3) 0.9076(3)
C52 C 0.3890(4) 0.1395(3) 0.9875(3)
H57 H 0.3243 0.1522 1.0300
C53 C 0.5144(4) 0.1263(3) 0.9974(3)
C54 C 0.5776(4) 0.1263(3) 1.0724(3)
H58 H 0.6199 0.1782 1.0629
H59 H 0.6441 0.0682 1.0817
C55 C 0.4872(4) 0.1350(3) 1.1484(3)
H60 H 0.4400 0.0859 1.1560
H61 H 0.4247 0.1954 1.1412
C56 C 0.5559(5) 0.1274(3) 1.2242(3)
H62 H 0.5963 0.1792 1.2192
H63 H 0.6210 0.0691 1.2301
H64 H 0.4949 0.1288 1.2720
B2 B 0.2338(5) 0.1597(3) 0.7879(3)
loop_
_geom_bond_atom_site_label_1
_geom_bond_atom_site_label_2
_geom_bond_site_symmetry_1
_geom_bond_site_symmetry_2
S1 C3 1_555 1_555
S2 C8 1_555 1_555
S3 C17 1_555 1_555
S4 C22 1_555 1_555
N1 C9 1_555 1_555
C1 C2 1_555 1_555
C2 H1 1_555 1_555
C3 C2 1_555 1_555
C4 S1 1_555 1_555
C5 C3 1_555 1_555
H2 C5 1_555 1_555
H3 C5 1_555 1_555
C6 C5 1_555 1_555
H4 C6 1_555 1_555
H5 C6 1_555 1_555
C7 C6 1_555 1_555
H6 C7 1_555 1_555
H7 C7 1_555 1_555
H8 C7 1_555 1_555
C8 C4 1_555 1_555
C9 C8 1_555 1_555
C10 C9 1_555 1_555
H9 C10 1_555 1_555
C11 S2 1_555 1_555
C12 C11 1_555 1_555
H10 C12 1_555 1_555
H11 C12 1_555 1_555
C13 C12 1_555 1_555
H12 C13 1_555 1_555
H13 C13 1_555 1_555
C14 C13 1_555 1_555
H14 C14 1_555 1_555
H15 C14 1_555 1_555
H16 C14 1_555 1_555
C15 N1 1_555 1_555
C16 C15 1_555 1_555
H17 C16 1_555 1_555
C17 C16 1_555 1_555
C18 C17 1_555 1_555
H18 C18 1_555 1_555
H19 C18 1_555 1_555
C19 C18 1_555 1_555
H20 C19 1_555 1_555
H21 C19 1_555 1_555
C20 C19 1_555 1_555
H22 C20 1_555 1_555
H23 C20 1_555 1_555
H24 C20 1_555 1_555
C21 S3 1_555 1_555
C22 C21 1_555 1_555
C23 C22 1_555 1_555
C24 C23 1_555 1_555
H25 C24 1_555 1_555
C25 S4 1_555 1_555
C26 C25 1_555 1_555
H26 C26 1_555 1_555
H27 C26 1_555 1_555
C27 C26 1_555 1_555
H28 C27 1_555 1_555
H29 C27 1_555 1_555
C28 C27 1_555 1_555
H30 C28 1_555 1_555
H31 C28 1_555 1_555
H32 C28 1_555 1_555
B1 N1 1_555 1_555
S5 C31 1_555 1_555
S6 C36 1_555 1_555
S7 C45 1_555 1_555
S8 C50 1_555 1_555
N2 C29 1_555 1_555
C29 C30 1_555 1_555
C30 H33 1_555 1_555
C31 C30 1_555 1_555
C32 S5 1_555 1_555
C33 C31 1_555 1_555
H34 C33 1_555 1_555
H35 C33 1_555 1_555
C34 C33 1_555 1_555
H36 C34 1_555 1_555
H37 C34 1_555 1_555
C35 C34 1_555 1_555
H38 C35 1_555 1_555
H39 C35 1_555 1_555
H40 C35 1_555 1_555
C36 C32 1_555 1_555
C37 C36 1_555 1_555
C38 C37 1_555 1_555
H41 C38 1_555 1_555
C39 S6 1_555 1_555
C40 C39 1_555 1_555
H42 C40 1_555 1_555
H43 C40 1_555 1_555
C41 C40 1_555 1_555
H44 C41 1_555 1_555
H45 C41 1_555 1_555
C42 C41 1_555 1_555
H46 C42 1_555 1_555
H47 C42 1_555 1_555
H48 C42 1_555 1_555
C43 C44 1_555 1_555
C44 H49 1_555 1_555
C45 C44 1_555 1_555
C46 C45 1_555 1_555
H50 C46 1_555 1_555
H51 C46 1_555 1_555
C47 C46 1_555 1_555
H52 C47 1_555 1_555
H53 C47 1_555 1_555
C48 C47 1_555 1_555
H54 C48 1_555 1_555
H55 C48 1_555 1_555
H56 C48 1_555 1_555
C49 S7 1_555 1_555
C50 C49 1_555 1_555
C51 N2 1_555 1_555
C52 C51 1_555 1_555
H57 C52 1_555 1_555
C53 S8 1_555 1_555
C54 C53 1_555 1_555
H58 C54 1_555 1_555
H59 C54 1_555 1_555
C55 C54 1_555 1_555
H60 C55 1_555 1_555
H61 C55 1_555 1_555
C56 C55 1_555 1_555
H62 C56 1_555 1_555
H63 C56 1_555 1_555
H64 C56 1_555 1_555
B2 N2 1_555 1_555
C1 C4 1_555 1_555
C1 B1 1_555 1_555
C10 C11 1_555 1_555
C15 C21 1_555 1_555
C23 B1 1_555 1_555
C24 C25 1_555 1_555
C29 C32 1_555 1_555
C37 B2 1_555 1_555
C38 C39 1_555 1_555
C43 C49 1_555 1_555
C43 B2 1_555 1_555
C50 C51 1_555 1_555
C52 C53 1_555 1_555

#END
