
#######################################################################
#
#                 Cambridge Crystallographic Data Centre
#                                CCDC 
#
#######################################################################
#
# If this CIF has been generated from an entry in the Cambridge 
# Structural Database, then it will include bibliographic, chemical, 
# crystal, experimental, refinement or atomic coordinate data resulting 
# from the CCDC's data processing and validation procedures.
#
#######################################################################

data_REQMOS
_chemical_formula_moiety         'C26 H26 N4 O2 S2,2(C4 H8 O1)'
_chemical_name_systematic        
'N^1^,N^4^-bis[(2,6-dimethylphenyl)carbamothioyl]benzene-1,4-dicarboxamide tetrahydrofuran solvate'
_symmetry_cell_setting           triclinic
_symmetry_space_group_name_H-M   'P -1'
_symmetry_Int_Tables_number      2
_space_group_name_Hall           '-P 1'
loop_
_symmetry_equiv_pos_site_id
_symmetry_equiv_pos_as_xyz
1 x,y,z
2 -x,-y,-z
_cell_length_a                   7.9132(3)
_cell_length_b                   9.0449(3)
_cell_length_c                   13.0593(4)
_cell_angle_alpha                76.223(2)
_cell_angle_beta                 84.693(2)
_cell_angle_gamma                65.6430(10)
_cell_volume                     826.997
_exptl_crystal_colour            colorless
_exptl_crystal_description       block
_cell_formula_units_Z            1
loop_
_atom_site_label
_atom_site_type_symbol
_atom_site_fract_x
_atom_site_fract_y
_atom_site_fract_z
N1 N 0.45947(16) 0.27562(14) 0.30319(9)
H1 H 0.5434 0.1999 0.3465
N2 N 0.26985(16) 0.33715(14) 0.15984(9)
H2 H 0.2575 0.4383 0.1516
O1 O 0.33022(17) 0.55553(13) 0.23895(8)
S1 S 0.43543(6) 0.01915(4) 0.25409(3)
C1 C 0.38384(18) 0.22076(16) 0.23467(10)
C2 C 0.41426(17) 0.43701(16) 0.30872(10)
C3 C 0.46657(17) 0.46229(15) 0.40845(10)
C4 C 0.4696(2) 0.61622(17) 0.40549(11)
H3 H 0.4490 0.6945 0.3420
C5 C 0.4969(2) 0.34667(17) 0.50369(11)
H4 H 0.4947 0.2438 0.5064
C6 C 0.16662(19) 0.29988(16) 0.09219(10)
C7 C -0.0113(2) 0.3141(2) 0.12220(13)
C8 C -0.1086(3) 0.2763(2) 0.05583(17)
H5 H -0.2284 0.2850 0.0735
C9 C -0.0307(3) 0.2266(2) -0.03507(16)
H6 H -0.0972 0.2004 -0.0778
C10 C 0.1446(3) 0.2154(2) -0.06310(14)
H7 H 0.1954 0.1822 -0.1252
C11 C 0.2484(2) 0.25271(19) -0.00038(12)
C12 C 0.4400(3) 0.2405(3) -0.03071(15)
H8 H 0.4455 0.3459 -0.0349
H9 H 0.4703 0.2110 -0.0980
H10 H 0.5272 0.1569 0.0214
C13 C -0.0957(3) 0.3667(3) 0.22233(16)
H11 H -0.0304 0.2818 0.2817
H12 H -0.2237 0.3832 0.2251
H13 H -0.0868 0.4688 0.2241
N1A N 0.54053(16) 0.72438(14) 0.69681(9)
H1A H 0.4566 0.8001 0.6535
N2A N 0.73015(16) 0.66285(14) 0.84016(9)
H2A H 0.7425 0.5617 0.8484
O1A O 0.66978(17) 0.44447(13) 0.76105(8)
S1A S 0.56457(6) 0.98085(4) 0.74591(3)
C1A C 0.61616(18) 0.77924(16) 0.76533(10)
C2A C 0.58574(17) 0.56299(16) 0.69128(10)
C3A C 0.53343(17) 0.53771(15) 0.59155(10)
C4A C 0.5304(2) 0.38378(17) 0.59451(11)
H3A H 0.5510 0.3055 0.6580
C5A C 0.5031(2) 0.65333(17) 0.49631(11)
H4A H 0.5053 0.7562 0.4936
C6A C 0.83338(19) 0.70012(16) 0.90781(10)
C7A C 1.0113(2) 0.6859(2) 0.87780(13)
C8A C 1.1086(3) 0.7237(2) 0.94417(17)
H5A H 1.2284 0.7150 0.9265
C9A C 1.0307(3) 0.7734(2) 1.03507(16)
H6A H 1.0972 0.7996 1.0778
C10A C 0.8554(3) 0.7846(2) 1.06310(14)
H7A H 0.8046 0.8178 1.1252
C11A C 0.7516(2) 0.74729(19) 1.00038(12)
C12A C 0.5600(3) 0.7595(3) 1.03071(15)
H8A H 0.5545 0.6541 1.0349
H9A H 0.5297 0.7890 1.0980
H10A H 0.4728 0.8431 0.9786
C13A C 1.0957(3) 0.6333(3) 0.77767(16)
H11A H 1.0304 0.7182 0.7183
H12A H 1.2237 0.6168 0.7749
H13A H 1.0868 0.5312 0.7759
O2 O 0.80586(17) 1.02786(15) 0.39868(9)
C14 C 0.9294(3) 0.7605(3) 0.36517(18)
H14 H 1.0402 0.6819 0.3387
H15 H 0.8222 0.7444 0.3484
C15 C 0.9087(3) 0.9363(3) 0.32137(15)
H16 H 1.0293 0.9414 0.3104
H17 H 0.8423 0.9811 0.2546
C16 C 0.8194(3) 0.9143(3) 0.49688(14)
H18 H 0.6975 0.9183 0.5194
H19 H 0.8702 0.9431 0.5503
C17 C 0.9443(3) 0.7432(3) 0.48229(18)
H20 H 0.9013 0.6605 0.5225
H21 H 1.0709 0.7132 0.5030
loop_
_geom_bond_atom_site_label_1
_geom_bond_atom_site_label_2
_geom_bond_site_symmetry_1
_geom_bond_site_symmetry_2
N1 H1 1_555 1_555
N2 H2 1_555 1_555
O1 C2 1_555 1_555
S1 C1 1_555 1_555
C1 N1 1_555 1_555
C2 N1 1_555 1_555
C3 C2 1_555 1_555
C4 C3 1_555 1_555
H3 C4 1_555 1_555
C5 C3 1_555 1_555
H4 C5 1_555 1_555
C6 N2 1_555 1_555
C7 C6 1_555 1_555
C8 C7 1_555 1_555
H5 C8 1_555 1_555
C9 C8 1_555 1_555
H6 C9 1_555 1_555
C10 C9 1_555 1_555
H7 C10 1_555 1_555
C11 C6 1_555 1_555
C12 C11 1_555 1_555
H8 C12 1_555 1_555
H9 C12 1_555 1_555
H10 C12 1_555 1_555
C13 C7 1_555 1_555
H11 C13 1_555 1_555
H12 C13 1_555 1_555
H13 C13 1_555 1_555
O2 C15 1_555 1_555
C14 H14 1_555 1_555
H15 C14 1_555 1_555
C15 C14 1_555 1_555
H16 C15 1_555 1_555
H17 C15 1_555 1_555
C16 O2 1_555 1_555
H18 C16 1_555 1_555
H19 C16 1_555 1_555
C17 C14 1_555 1_555
H20 C17 1_555 1_555
H21 C17 1_555 1_555
N1A H1A 1_555 1_555
N2A H2A 1_555 1_555
O1A C2A 1_555 1_555
S1A C1A 1_555 1_555
C1A N1A 1_555 1_555
C2A N1A 1_555 1_555
C3A C2A 1_555 1_555
C4A C5 1_555 1_555
H3A C4A 1_555 1_555
C5A C4 1_555 1_555
H4A C5A 1_555 1_555
C6A N2A 1_555 1_555
C7A C6A 1_555 1_555
C8A C7A 1_555 1_555
H5A C8A 1_555 1_555
C9A C8A 1_555 1_555
H6A C9A 1_555 1_555
C10A C9A 1_555 1_555
H7A C10A 1_555 1_555
C11A C6A 1_555 1_555
C12A C11A 1_555 1_555
H8A C12A 1_555 1_555
H9A C12A 1_555 1_555
H10A C12A 1_555 1_555
C13A C7A 1_555 1_555
H11A C13A 1_555 1_555
H12A C13A 1_555 1_555
H13A C13A 1_555 1_555
N2 C1 1_555 1_555
C10 C11 1_555 1_555
C16 C17 1_555 1_555
N2A C1A 1_555 1_555
C3A C4A 1_555 1_555
C3A C5A 1_555 1_555
C10A C11A 1_555 1_555

#END
