
#######################################################################
#
#                 Cambridge Crystallographic Data Centre
#                                CCDC 
#
#######################################################################
#
# If this CIF has been generated from an entry in the Cambridge 
# Structural Database, then it will include bibliographic, chemical, 
# crystal, experimental, refinement or atomic coordinate data resulting 
# from the CCDC's data processing and validation procedures.
#
#######################################################################

data_REQQUA
_chemical_name_common            1,4-dihydro-5H-1,2,4-triazol-5-one
_chemical_formula_moiety         'C2 H3 N3 O1'
_chemical_name_systematic        2,4-dihydro-3H-1,2,4-triazol-3-one
_symmetry_cell_setting           monoclinic
_symmetry_space_group_name_H-M   'P n'
_symmetry_Int_Tables_number      7
_space_group_name_Hall           'P -2yac'
loop_
_symmetry_equiv_pos_site_id
_symmetry_equiv_pos_as_xyz
1 x,y,z
2 1/2+x,-y,1/2+z
_cell_length_a                   3.633(1)
_cell_length_b                   9.081(3)
_cell_length_c                   5.361(2)
_cell_angle_alpha                90
_cell_angle_beta                 95.29(2)
_cell_angle_gamma                90
_cell_volume                     176.113
_cell_formula_units_Z            2
loop_
_atom_site_label
_atom_site_type_symbol
_atom_site_fract_x
_atom_site_fract_y
_atom_site_fract_z
O1 O 0.8993(5) 0.36050(14) 1.0008(3)
N1 N 0.7166(6) 0.14622(15) 0.7890(3)
N2 N 0.5369(5) 0.10876(18) 0.5595(3)
N3 N 0.5713(4) 0.34941(18) 0.6017(3)
C1 C 0.7481(6) 0.29378(16) 0.8186(4)
C2 C 0.4524(6) 0.2343(2) 0.4549(4)
H1 H 0.3249 0.2443 0.2973
H2 H 0.820(6) 0.081(2) 0.890(4)
H3 H 0.532(7) 0.4417(13) 0.578(5)
loop_
_geom_bond_atom_site_label_1
_geom_bond_atom_site_label_2
_geom_bond_site_symmetry_1
_geom_bond_site_symmetry_2
O1 C1 1_555 1_555
N1 N2 1_555 1_555
N2 C2 1_555 1_555
N3 C1 1_555 1_555
C1 N1 1_555 1_555
C2 N3 1_555 1_555
H1 C2 1_555 1_555
H2 N1 1_555 1_555
H3 N3 1_555 1_555

#END
