
#######################################################################
#
#                 Cambridge Crystallographic Data Centre
#                                CCDC 
#
#######################################################################
#
# If this CIF has been generated from an entry in the Cambridge 
# Structural Database, then it will include bibliographic, chemical, 
# crystal, experimental, refinement or atomic coordinate data resulting 
# from the CCDC's data processing and validation procedures.
#
#######################################################################

data_REQRIR
_chemical_formula_moiety         'C18 H12 Br1 N1 O2'
_chemical_name_systematic        
(5-bromo-2-hydroxyphenyl)(6-phenylpyridin-3-yl)methanone
_symmetry_cell_setting           monoclinic
_symmetry_space_group_name_H-M   'P 21/c'
_symmetry_Int_Tables_number      14
_space_group_name_Hall           '-P 2ybc'
loop_
_symmetry_equiv_pos_site_id
_symmetry_equiv_pos_as_xyz
1 x,y,z
2 -x,1/2+y,1/2-z
3 -x,-y,-z
4 x,1/2-y,1/2+z
_cell_length_a                   6.2873(3)
_cell_length_b                   16.9635(8)
_cell_length_c                   13.8579(7)
_cell_angle_alpha                90
_cell_angle_beta                 101.4893(15)
_cell_angle_gamma                90
_cell_volume                     1448.39
_exptl_crystal_colour            colorless
_exptl_crystal_description       Block
_chemical_melting_point          '430 K'
_cell_formula_units_Z            4
_exptl_crystal_recrystallization_method 'hexane/ethyl acetate'
loop_
_atom_site_label
_atom_site_type_symbol
_atom_site_fract_x
_atom_site_fract_y
_atom_site_fract_z
C1 C 0.7590(3) 0.24742(11) -0.26582(13)
C2 C 0.9461(3) 0.29098(12) -0.26715(14)
H1 H 0.9949 0.2973 -0.3265
C3 C 1.0602(3) 0.32483(12) -0.18204(15)
H2 H 1.1874 0.3537 -0.1830
C4 C 0.9854(3) 0.31596(11) -0.09442(13)
C5 C 0.8061(3) 0.27107(11) -0.09027(13)
H3 H 0.7594 0.2651 -0.0303
C6 C 0.6921(3) 0.23395(11) -0.17602(13)
O1 O 0.6495(3) 0.21931(9) -0.35243(10)
H4 H 0.5381 0.1965 -0.3438
Br1 Br 1.14091(4) 0.36304(2) 0.02253(2)
C7 C 0.5078(3) 0.18083(11) -0.17285(13)
O2 O 0.3770(2) 0.16367(10) -0.24825(10)
C8 C 0.4825(3) 0.14573(10) -0.07727(13)
C9 C 0.2740(3) 0.13495(11) -0.05883(13)
H5 H 0.1557 0.1517 -0.1072
N1 N 0.2319(2) 0.10240(10) 0.02314(11)
C10 C 0.4021(3) 0.07722(10) 0.09120(13)
C11 C 0.6149(3) 0.08343(11) 0.07704(13)
H6 H 0.7301 0.0637 0.1248
C12 C 0.6563(3) 0.11848(11) -0.00692(14)
H7 H 0.7994 0.1239 -0.0165
C13 C 0.3558(3) 0.04082(10) 0.18179(13)
C14 C 0.1620(3) 0.00029(11) 0.17998(14)
H8 H 0.0587 -0.0031 0.1209
C15 C 0.1204(3) -0.03505(12) 0.26457(15)
H9 H -0.0101 -0.0626 0.2626
C16 C 0.2715(4) -0.02968(13) 0.35202(15)
H10 H 0.2435 -0.0536 0.4094
C17 C 0.4631(3) 0.01074(13) 0.35487(15)
H11 H 0.5647 0.0146 0.4144
C18 C 0.5066(3) 0.04559(12) 0.27062(14)
H12 H 0.6382 0.0726 0.2731
loop_
_geom_bond_atom_site_label_1
_geom_bond_atom_site_label_2
_geom_bond_site_symmetry_1
_geom_bond_site_symmetry_2
C1 C2 1_555 1_555
C2 H1 1_555 1_555
C3 C2 1_555 1_555
H2 C3 1_555 1_555
C4 C3 1_555 1_555
C5 C4 1_555 1_555
H3 C5 1_555 1_555
C6 C1 1_555 1_555
O1 C1 1_555 1_555
H4 O1 1_555 1_555
Br1 C4 1_555 1_555
C7 C6 1_555 1_555
O2 C7 1_555 1_555
C8 C7 1_555 1_555
C9 C8 1_555 1_555
H5 C9 1_555 1_555
N1 C9 1_555 1_555
C10 N1 1_555 1_555
C11 C10 1_555 1_555
H6 C11 1_555 1_555
C12 C8 1_555 1_555
H7 C12 1_555 1_555
C13 C10 1_555 1_555
C14 C13 1_555 1_555
H8 C14 1_555 1_555
C15 C14 1_555 1_555
H9 C15 1_555 1_555
C16 C15 1_555 1_555
H10 C16 1_555 1_555
C17 C16 1_555 1_555
H11 C17 1_555 1_555
C18 C13 1_555 1_555
H12 C18 1_555 1_555
C5 C6 1_555 1_555
C11 C12 1_555 1_555
C17 C18 1_555 1_555

#END
