
#######################################################################
#
#                 Cambridge Crystallographic Data Centre
#                                CCDC 
#
#######################################################################
#
# If this CIF has been generated from an entry in the Cambridge 
# Structural Database, then it will include bibliographic, chemical, 
# crystal, experimental, refinement or atomic coordinate data resulting 
# from the CCDC's data processing and validation procedures.
#
#######################################################################

data_REQVEP
_chemical_formula_moiety         'C16 H12 N2 O2'
_chemical_name_systematic        4-Methoxyindolizino(1,2-b)quinolin-9(11H)-one
_symmetry_cell_setting           monoclinic
_symmetry_space_group_name_H-M   'P 21/n'
_symmetry_Int_Tables_number      14
_space_group_name_Hall           '-P 2yn'
loop_
_symmetry_equiv_pos_site_id
_symmetry_equiv_pos_as_xyz
1 x,y,z
2 1/2-x,1/2+y,1/2-z
3 -x,-y,-z
4 1/2+x,1/2-y,1/2+z
_cell_length_a                   7.1640(9)
_cell_length_b                   20.240(3)
_cell_length_c                   9.0634(13)
_cell_angle_alpha                90
_cell_angle_beta                 110.805(2)
_cell_angle_gamma                90
_cell_volume                     1228.5
_cell_formula_units_Z            4
_exptl_crystal_recrystallization_method dichloromethane/hexanes
loop_
_atom_site_label
_atom_site_type_symbol
_atom_site_fract_x
_atom_site_fract_y
_atom_site_fract_z
O1 O 1.0918(2) -0.15169(9) 1.44869(18)
O2 O 0.5061(2) 0.06638(7) 0.61703(18)
N1 N 0.9428(2) -0.09192(9) 1.22499(19)
N2 N 0.6935(2) 0.00982(8) 0.89362(19)
C1 C 1.0193(3) -0.15059(12) 1.3021(3)
C2 C 1.0037(3) -0.20452(12) 1.1978(3)
H1 H 1.0558 -0.2453 1.2398
C3 C 0.9156(3) -0.19834(11) 1.0395(3)
H2 H 0.9063 -0.2352 0.9758
C4 C 0.8371(3) -0.13729(10) 0.9682(2)
H3 H 0.7768 -0.1333 0.8593
C5 C 0.8531(3) -0.08498(10) 1.0643(2)
C6 C 0.7874(3) -0.01611(10) 1.0342(2)
C7 C 0.6430(3) 0.07495(10) 0.8935(3)
C8 C 0.5402(3) 0.10598(10) 0.7454(3)
C9 C 0.4816(3) 0.17064(11) 0.7400(3)
H4 H 0.4112 0.1902 0.6433
C10 C 0.5274(3) 0.20753(12) 0.8799(4)
H5 H 0.4889 0.2516 0.8745
C11 C 0.6269(3) 0.17984(12) 1.0230(3)
H6 H 0.6561 0.2052 1.1141
C12 C 0.6867(3) 0.11269(10) 1.0348(3)
C13 C 0.7887(3) 0.08139(12) 1.1806(3)
H7 H 0.8201 0.1045 1.2749
C14 C 0.8399(3) 0.01680(11) 1.1802(2)
C15 C 0.9457(3) -0.03007(12) 1.3096(3)
H8 H 1.0815 -0.0157 1.3667
H9 H 0.8759 -0.0348 1.3832
C16 C 0.4208(4) 0.09548(12) 0.4635(3)
H10 H 0.2929 0.1141 0.4513
H11 H 0.4048 0.0622 0.3844
H12 H 0.5075 0.1296 0.4519
loop_
_geom_bond_atom_site_label_1
_geom_bond_atom_site_label_2
_geom_bond_site_symmetry_1
_geom_bond_site_symmetry_2
O1 C1 1_555 1_555
O2 C8 1_555 1_555
N1 C1 1_555 1_555
N2 C6 1_555 1_555
C1 C2 1_555 1_555
C2 H1 1_555 1_555
C3 C2 1_555 1_555
H2 C3 1_555 1_555
C4 C3 1_555 1_555
H3 C4 1_555 1_555
C5 N1 1_555 1_555
C6 C5 1_555 1_555
C7 N2 1_555 1_555
C8 C7 1_555 1_555
C9 C8 1_555 1_555
H4 C9 1_555 1_555
C10 C9 1_555 1_555
H5 C10 1_555 1_555
C11 C10 1_555 1_555
H6 C11 1_555 1_555
C12 C7 1_555 1_555
C13 C12 1_555 1_555
H7 C13 1_555 1_555
C14 C6 1_555 1_555
C15 N1 1_555 1_555
H8 C15 1_555 1_555
H9 C15 1_555 1_555
C16 O2 1_555 1_555
H10 C16 1_555 1_555
H11 C16 1_555 1_555
H12 C16 1_555 1_555
C4 C5 1_555 1_555
C11 C12 1_555 1_555
C13 C14 1_555 1_555
C14 C15 1_555 1_555

#END
