
#######################################################################
#
#                 Cambridge Crystallographic Data Centre
#                                CCDC 
#
#######################################################################
#
# If this CIF has been generated from an entry in the Cambridge 
# Structural Database, then it will include bibliographic, chemical, 
# crystal, experimental, refinement or atomic coordinate data resulting 
# from the CCDC's data processing and validation procedures.
#
#######################################################################

data_REQVAL
_chemical_formula_moiety         'C15 H10 N2 O1'
_chemical_name_systematic        Indolizino(1,2-b)quinolin-9(11H)-one
_symmetry_cell_setting           monoclinic
_symmetry_space_group_name_H-M   'P 21/n'
_symmetry_Int_Tables_number      14
_space_group_name_Hall           '-P 2yn'
loop_
_symmetry_equiv_pos_site_id
_symmetry_equiv_pos_as_xyz
1 x,y,z
2 1/2-x,1/2+y,1/2-z
3 -x,-y,-z
4 1/2+x,1/2-y,1/2+z
_cell_length_a                   13.961(2)
_cell_length_b                   4.8222(7)
_cell_length_c                   17.468(3)
_cell_angle_alpha                90
_cell_angle_beta                 108.140(2)
_cell_angle_gamma                90
_cell_volume                     1117.55
_exptl_crystal_colour            'light yellow'
_cell_formula_units_Z            4
_exptl_crystal_recrystallization_method dichloromethane/hexanes
loop_
_atom_site_label
_atom_site_type_symbol
_atom_site_fract_x
_atom_site_fract_y
_atom_site_fract_z
O1 O 0.83745(12) 1.0725(3) -0.03700(9)
N1 N 0.92248(13) 0.4027(3) 0.25269(10)
N2 N 0.86271(12) 0.8144(3) 0.07586(10)
C1 C 0.99786(16) 0.2128(3) 0.27813(12)
C2 C 1.00809(17) 0.0700(4) 0.35069(13)
H1 H 0.9647 0.1101 0.3802
C3 C 1.0809(2) -0.1257(4) 0.37794(15)
H2 H 1.0863 -0.2192 0.4257
C4 C 1.14806(19) -0.1885(4) 0.33496(17)
H3 H 1.1978 -0.3220 0.3545
C5 C 1.14051(17) -0.0547(4) 0.26502(16)
H4 H 1.1853 -0.0979 0.2370
C6 C 1.06578(16) 0.1490(4) 0.23408(13)
C7 C 1.05482(16) 0.2900(4) 0.16113(13)
H5 H 1.0979 0.2542 0.1310
C8 C 0.97950(14) 0.4795(3) 0.13607(12)
C9 C 0.94715(16) 0.6610(4) 0.06327(13)
H6 H 1.0009 0.7850 0.0610
H7 H 0.9256 0.5520 0.0142
C10 C 0.81066(16) 1.0139(4) 0.02207(13)
C11 C 0.72777(17) 1.1301(4) 0.04325(13)
H8 H 0.6878 1.2639 0.0099
C12 C 0.70596(17) 1.0506(4) 0.11049(14)
H9 H 0.6513 1.1312 0.1217
C13 C 0.76325(15) 0.8505(3) 0.16357(13)
H10 H 0.7481 0.7989 0.2098
C14 C 0.84184(15) 0.7353(3) 0.14467(12)
C15 C 0.91638(14) 0.5263(3) 0.18418(12)
loop_
_geom_bond_atom_site_label_1
_geom_bond_atom_site_label_2
_geom_bond_site_symmetry_1
_geom_bond_site_symmetry_2
O1 C10 1_555 1_555
N1 C1 1_555 1_555
N2 C9 1_555 1_555
C1 C2 1_555 1_555
C2 H1 1_555 1_555
C3 C2 1_555 1_555
H2 C3 1_555 1_555
C4 C3 1_555 1_555
H3 C4 1_555 1_555
C5 C4 1_555 1_555
H4 C5 1_555 1_555
C6 C1 1_555 1_555
C7 C6 1_555 1_555
H5 C7 1_555 1_555
C8 C7 1_555 1_555
C9 C8 1_555 1_555
H6 C9 1_555 1_555
H7 C9 1_555 1_555
C10 N2 1_555 1_555
C11 C10 1_555 1_555
H8 C11 1_555 1_555
C12 C11 1_555 1_555
H9 C12 1_555 1_555
C13 C12 1_555 1_555
H10 C13 1_555 1_555
C14 N2 1_555 1_555
C15 N1 1_555 1_555
C5 C6 1_555 1_555
C8 C15 1_555 1_555
C13 C14 1_555 1_555
C14 C15 1_555 1_555

#END
