
#######################################################################
#
#                 Cambridge Crystallographic Data Centre
#                                CCDC 
#
#######################################################################
#
# If this CIF has been generated from an entry in the Cambridge 
# Structural Database, then it will include bibliographic, chemical, 
# crystal, experimental, refinement or atomic coordinate data resulting 
# from the CCDC's data processing and validation procedures.
#
#######################################################################

data_REQXAN
_chemical_formula_moiety         'C15 H14 N2 S8'
_chemical_name_systematic        
4,5-bis(2-Cyanoethylthio)-4',5'-(1-methylethylenedithio)-1,1',3,3'-tetrathiafulvalene
_symmetry_cell_setting           triclinic
_symmetry_space_group_name_H-M   'P -1'
_symmetry_Int_Tables_number      2
_space_group_name_Hall           '-P 1'
loop_
_symmetry_equiv_pos_site_id
_symmetry_equiv_pos_as_xyz
1 x,y,z
2 -x,-y,-z
_cell_length_a                   7.8142(17)
_cell_length_b                   11.479(3)
_cell_length_c                   12.683(3)
_cell_angle_alpha                64.206(4)
_cell_angle_beta                 82.428(4)
_cell_angle_gamma                79.266(4)
_cell_volume                     1004.73
_exptl_crystal_colour            orange
_exptl_crystal_description       block
_cell_formula_units_Z            2
_exptl_crystal_recrystallization_method 'dichloromethane/diethyl ether'
loop_
_atom_site_label
_atom_site_type_symbol
_atom_site_fract_x
_atom_site_fract_y
_atom_site_fract_z
S1 S 0.70429(16) 0.13870(13) 0.99246(11)
S2 S 0.91727(18) 0.06887(13) 1.19373(11)
S3 S 0.56213(18) -0.03148(14) 1.36241(11)
S4 S 0.38544(15) 0.06459(12) 1.13761(11)
S5 S 0.15551(15) 0.23216(12) 0.91075(11)
S6 S 0.46944(15) 0.31441(12) 0.76413(11)
S7 S -0.08726(17) 0.43815(13) 0.73752(12)
S8 S 0.27093(18) 0.53734(13) 0.57166(11)
N1 N 0.3341(7) 0.5787(5) 0.8699(5)
N2 N -0.2084(7) 0.7946(5) 0.6627(5)
C1 C 0.4762(6) 0.1556(4) 0.9998(4)
C2 C 0.7146(7) 0.0822(5) 1.1450(4)
C3 C 0.9120(7) -0.0634(6) 1.3385(5)
H1 H 0.896(8) -0.019(6) 1.391(6)
C4 C 0.7665(7) -0.1382(5) 1.3748(5)
H2 H 0.7774 -0.2026 1.4555
H3 H 0.7691 -0.1843 1.3260
C5 C 0.5699(6) 0.0482(4) 1.2112(4)
C6 C 0.3816(6) 0.2262(4) 0.9061(4)
C7 C 0.1273(6) 0.3731(4) 0.7801(4)
C8 C 0.2714(6) 0.4129(4) 0.7126(4)
C9 C 1.0890(8) -0.1441(6) 1.3654(6)
H4 H 1.0764 -0.2300 1.4251
H5 H 1.1587 -0.1032 1.3925
H6 H 1.1448 -0.1507 1.2957
C10 C 0.4177(8) 0.6378(5) 0.5776(5)
H7 H 0.5242 0.5818 0.6107
H8 H 0.4477 0.6977 0.4980
C11 C 0.3502(9) 0.7154(6) 0.6467(5)
H9 H 0.4254 0.7808 0.6286
H10 H 0.2348 0.7610 0.6220
C12 C 0.3396(8) 0.6381(6) 0.7730(6)
C13 C -0.1897(7) 0.4730(6) 0.8569(5)
H11 H -0.3152 0.4831 0.8537
H12 H -0.1570 0.3989 0.9299
C14 C -0.1421(9) 0.5962(6) 0.8577(5)
H13 H -0.2087 0.6125 0.9214
H14 H -0.0193 0.5822 0.8717
C15 C -0.1774(8) 0.7098(6) 0.7478(6)
loop_
_geom_bond_atom_site_label_1
_geom_bond_atom_site_label_2
_geom_bond_site_symmetry_1
_geom_bond_site_symmetry_2
S1 C1 1_555 1_555
S2 C2 1_555 1_555
S3 C4 1_555 1_555
S4 C1 1_555 1_555
S5 C6 1_555 1_555
S6 C6 1_555 1_555
S7 C7 1_555 1_555
S8 C8 1_555 1_555
N1 C12 1_555 1_555
N2 C15 1_555 1_555
C1 C6 1_555 1_555
C2 S1 1_555 1_555
C3 S2 1_555 1_555
H1 C3 1_555 1_555
C4 C3 1_555 1_555
H2 C4 1_555 1_555
H3 C4 1_555 1_555
C5 S3 1_555 1_555
C7 S5 1_555 1_555
C8 S6 1_555 1_555
C9 C3 1_555 1_555
H4 C9 1_555 1_555
H5 C9 1_555 1_555
H6 C9 1_555 1_555
C10 S8 1_555 1_555
H7 C10 1_555 1_555
H8 C10 1_555 1_555
C11 C10 1_555 1_555
H9 C11 1_555 1_555
H10 C11 1_555 1_555
C12 C11 1_555 1_555
C13 S7 1_555 1_555
H11 C13 1_555 1_555
H12 C13 1_555 1_555
C14 C13 1_555 1_555
H13 C14 1_555 1_555
H14 C14 1_555 1_555
C15 C14 1_555 1_555
S4 C5 1_555 1_555
C2 C5 1_555 1_555
C7 C8 1_555 1_555

#END
