
#######################################################################
#
#                 Cambridge Crystallographic Data Centre
#                                CCDC 
#
#######################################################################
#
# If this CIF has been generated from an entry in the Cambridge 
# Structural Database, then it will include bibliographic, chemical, 
# crystal, experimental, refinement or atomic coordinate data resulting 
# from the CCDC's data processing and validation procedures.
#
#######################################################################

data_REQXUG
_chemical_formula_moiety         'C15 H12 F3 N1 O2 S2'
_chemical_name_systematic        
N-(Trifluoromethylsulfonyl)-1-thia-10-aza(2.2)metacyclophane
_symmetry_cell_setting           monoclinic
_symmetry_space_group_name_H-M   'P 21/n'
_symmetry_Int_Tables_number      14
_space_group_name_Hall           '-P 2yn'
loop_
_symmetry_equiv_pos_site_id
_symmetry_equiv_pos_as_xyz
1 x,y,z
2 1/2-x,1/2+y,1/2-z
3 -x,-y,-z
4 1/2+x,1/2-y,1/2+z
_cell_length_a                   5.300(1)
_cell_length_b                   16.026(1)
_cell_length_c                   17.901(1)
_cell_angle_alpha                90
_cell_angle_beta                 95.55(1)
_cell_angle_gamma                90
_cell_volume                     1513.34
_exptl_crystal_colour            colorless
_chemical_melting_point          166deg.C
_cell_formula_units_Z            4
loop_
_atom_site_label
_atom_site_type_symbol
_atom_site_fract_x
_atom_site_fract_y
_atom_site_fract_z
S1 S 0.7892(2) 0.4610(1) 0.4128(1)
S2 S 0.5671(1) 0.3523(1) 0.0880(1)
O1 O 0.6151(4) 0.4146(1) 0.0353(1)
O2 O 0.7606(3) 0.2997(1) 0.1216(1)
C1 C 0.3512(5) 0.2806(2) 0.0348(1)
F1 F 0.4691(4) 0.2445(1) -0.0181(1)
F2 F 0.1525(3) 0.3207(1) 0.0018(1)
F3 F 0.2677(3) 0.2223(1) 0.0779(1)
C2 C 0.5926(7) 0.5560(2) 0.3930(2)
C3 C 0.5683(6) 0.5782(2) 0.3120(2)
C4 C 0.7535(6) 0.6245(2) 0.2803(2)
C5 C 0.7583(6) 0.6293(2) 0.2036(2)
C6 C 0.5894(6) 0.5833(2) 0.1567(2)
C7 C 0.4024(5) 0.5368(1) 0.1860(1)
C8 C 0.3822(5) 0.5395(2) 0.2632(2)
C9 C 0.2628(5) 0.4705(2) 0.1399(1)
N1 N 0.4034(4) 0.3890(1) 0.1510(1)
C10 C 0.4362(5) 0.3580(1) 0.2276(1)
C11 C 0.2533(5) 0.3078(2) 0.2541(1)
C12 C 0.2547(5) 0.2964(2) 0.3307(1)
C13 C 0.4240(5) 0.3392(2) 0.3799(1)
C14 C 0.6085(5) 0.3895(2) 0.3536(1)
C15 C 0.6233(5) 0.3943(1) 0.2765(1)
H1 H 0.6678 0.6017 0.4217
H2 H 0.4268 0.5464 0.4086
H3 H 0.8795 0.6533 0.3128
H4 H 0.8804 0.6646 0.1830
H5 H 0.6001 0.5838 0.1035
H6 H 0.2383 0.5147 0.2833
H7 H 0.2507 0.4859 0.0878
H8 H 0.0942 0.4647 0.1545
H9 H 0.1289 0.2810 0.2196
H10 H 0.1347 0.2590 0.3498
H11 H 0.4170 0.3334 0.4330
H12 H 0.7628 0.4228 0.2574
loop_
_geom_bond_atom_site_label_1
_geom_bond_atom_site_label_2
_geom_bond_site_symmetry_1
_geom_bond_site_symmetry_2
S1 C2 1_555 1_555
S2 O1 1_555 1_555
O2 S2 1_555 1_555
C1 S2 1_555 1_555
F1 C1 1_555 1_555
F2 C1 1_555 1_555
F3 C1 1_555 1_555
C2 C3 1_555 1_555
C3 C4 1_555 1_555
C4 C5 1_555 1_555
C5 C6 1_555 1_555
C6 C7 1_555 1_555
C7 C8 1_555 1_555
C8 C3 1_555 1_555
C9 C7 1_555 1_555
N1 S2 1_555 1_555
C10 N1 1_555 1_555
C11 C10 1_555 1_555
C12 C11 1_555 1_555
C13 C12 1_555 1_555
C14 S1 1_555 1_555
C15 C10 1_555 1_555
H1 C2 1_555 1_555
H2 C2 1_555 1_555
H3 C4 1_555 1_555
H4 C5 1_555 1_555
H5 C6 1_555 1_555
H6 C8 1_555 1_555
H7 C9 1_555 1_555
H8 C9 1_555 1_555
H9 C11 1_555 1_555
H10 C12 1_555 1_555
H11 C13 1_555 1_555
H12 C15 1_555 1_555
C9 N1 1_555 1_555
C13 C14 1_555 1_555
C14 C15 1_555 1_555

#END
