
#######################################################################
#
#                 Cambridge Crystallographic Data Centre
#                                CCDC 
#
#######################################################################
#
# If this CIF has been generated from an entry in the Cambridge 
# Structural Database, then it will include bibliographic, chemical, 
# crystal, experimental, refinement or atomic coordinate data resulting 
# from the CCDC's data processing and validation procedures.
#
#######################################################################

data_REQXOA
_chemical_formula_moiety         'C16 H12 F3 N1 S2'
_chemical_name_systematic        
N-Trifluorothioacetyl-1-thia-10-aza(2.2)metacyclophane
_symmetry_cell_setting           monoclinic
_symmetry_space_group_name_H-M   'P 21/n'
_symmetry_Int_Tables_number      14
_space_group_name_Hall           '-P 2yn'
loop_
_symmetry_equiv_pos_site_id
_symmetry_equiv_pos_as_xyz
1 x,y,z
2 1/2-x,1/2+y,1/2-z
3 -x,-y,-z
4 1/2+x,1/2-y,1/2+z
_cell_length_a                   5.402(1)
_cell_length_b                   16.791(3)
_cell_length_c                   17.115(2)
_cell_angle_alpha                90
_cell_angle_beta                 99.36(2)
_cell_angle_gamma                90
_cell_volume                     1531.75
_exptl_crystal_colour            colorless
_chemical_melting_point          104-105deg.C
_cell_formula_units_Z            4
loop_
_atom_site_label
_atom_site_type_symbol
_atom_site_fract_x
_atom_site_fract_y
_atom_site_fract_z
S1 S 0.1875(3) 0.05229(8) 0.58553(7)
S2 S 0.8697(4) 0.1215(1) 1.00318(8)
F1 F 0.5241(7) 0.2482(2) 0.9795(2)
F2 F 0.6875(7) 0.2848(2) 0.8817(2)
F3 F 0.3525(6) 0.2159(2) 0.8647(2)
N1 N 0.7502(7) 0.1153(2) 0.8468(2)
C1 C 0.384(1) -0.0399(4) 0.5948(3)
C2 C 0.462(1) -0.0620(3) 0.6797(3)
C3 C 0.309(1) -0.1033(3) 0.7223(4)
C4 C 0.358(1) -0.1084(3) 0.8037(3)
C5 C 0.558(1) -0.0670(3) 0.8443(3)
C6 C 0.7172(8) -0.0244(3) 0.8044(2)
C7 C 0.679(1) -0.0278(3) 0.7217(3)
C8 C 0.892(1) 0.0376(3) 0.8447(3)
C9 C 0.6556(8) 0.1463(2) 0.7678(2)
C10 C 0.802(1) 0.1986(3) 0.7327(3)
C11 C 0.739(1) 0.2132(3) 0.6522(3)
C12 C 0.544(1) 0.1717(3) 0.6073(3)
C13 C 0.4014(9) 0.1190(3) 0.6423(2)
C14 C 0.4476(9) 0.1105(3) 0.7243(2)
C15 C 0.7321(9) 0.1496(3) 0.9160(2)
C16 C 0.573(1) 0.2247(3) 0.9098(3)
H1 H 0.159(9) -0.125(3) 0.696(3)
H2 H 0.25(1) -0.141(3) 0.833(3)
H3 H 0.577(8) -0.062(3) 0.899(3)
H4 H 0.786(7) 0.000(2) 0.693(2)
H5 H 0.53(1) -0.029(3) 0.567(3)
H6 H 0.27(1) -0.080(3) 0.570(3)
H7 H 0.970(9) 0.030(3) 0.901(3)
H8 H 1.049(9) 0.051(3) 0.815(3)
H9 H 0.95(1) 0.221(3) 0.765(3)
H10 H 0.840(9) 0.248(3) 0.626(3)
H11 H 0.513(9) 0.175(3) 0.554(3)
H12 H 0.332(7) 0.076(2) 0.752(2)
loop_
_geom_bond_atom_site_label_1
_geom_bond_atom_site_label_2
_geom_bond_site_symmetry_1
_geom_bond_site_symmetry_2
S1 C1 1_555 1_555
S2 C15 1_555 1_555
F1 C16 1_555 1_555
F2 C16 1_555 1_555
F3 C16 1_555 1_555
N1 C8 1_555 1_555
C1 C2 1_555 1_555
C2 C3 1_555 1_555
C3 C4 1_555 1_555
C4 C5 1_555 1_555
C5 C6 1_555 1_555
C6 C7 1_555 1_555
C7 C2 1_555 1_555
C8 C6 1_555 1_555
C9 N1 1_555 1_555
C10 C9 1_555 1_555
C11 C10 1_555 1_555
C12 C11 1_555 1_555
C13 S1 1_555 1_555
C14 C9 1_555 1_555
C15 N1 1_555 1_555
C16 C15 1_555 1_555
H1 C3 1_555 1_555
H2 C4 1_555 1_555
H3 C5 1_555 1_555
H4 C7 1_555 1_555
H5 C1 1_555 1_555
H6 C1 1_555 1_555
H7 C8 1_555 1_555
H8 C8 1_555 1_555
H9 C10 1_555 1_555
H10 C11 1_555 1_555
H11 C12 1_555 1_555
H12 C14 1_555 1_555
C12 C13 1_555 1_555
C13 C14 1_555 1_555

#END
