
#######################################################################
#
#                 Cambridge Crystallographic Data Centre
#                                CCDC 
#
#######################################################################
#
# If this CIF has been generated from an entry in the Cambridge 
# Structural Database, then it will include bibliographic, chemical, 
# crystal, experimental, refinement or atomic coordinate data resulting 
# from the CCDC's data processing and validation procedures.
#
#######################################################################

data_RERDOJ01
_chemical_formula_moiety         'C32 H28 N4 O8'
_chemical_name_systematic        
'ethyl 2-(2-((2,4-dinitrophenyl)hydrazono)-2-phenylethyl)-2,5-dimethyl-7-phenyl-1,3-benzodioxole-4-carboxylate'
_symmetry_cell_setting           triclinic
_symmetry_space_group_name_H-M   'P -1'
_symmetry_Int_Tables_number      2
_space_group_name_Hall           '-P 1'
loop_
_symmetry_equiv_pos_site_id
_symmetry_equiv_pos_as_xyz
1 x,y,z
2 -x,-y,-z
_cell_length_a                   10.085(2)
_cell_length_b                   11.302(2)
_cell_length_c                   13.269(3)
_cell_angle_alpha                80.76(3)
_cell_angle_beta                 78.81(3)
_cell_angle_gamma                82.30(3)
_cell_volume                     1456.12
_exptl_crystal_colour            red
_exptl_crystal_description       block
_cell_formula_units_Z            2
loop_
_atom_site_label
_atom_site_type_symbol
_atom_site_fract_x
_atom_site_fract_y
_atom_site_fract_z
O1 O 0.30560(16) 0.69617(15) 0.34375(13)
O2 O 0.18934(17) 0.63298(16) 0.50645(13)
N1 N 0.1535(2) 0.91895(19) 0.53675(16)
O3 O 0.5392(2) 0.72483(19) 0.21687(15)
N2 N 0.0682(2) 0.8525(2) 0.61184(16)
C1 C 0.1658(2) 0.8990(2) 0.44177(19)
C2 C 0.5252(3) 0.7096(2) 0.3954(2)
C3 C 0.0695(3) 0.8613(2) 0.71233(19)
C4 C 0.3230(2) 0.6453(2) 0.5119(2)
C5 C 0.3911(3) 0.6836(2) 0.41459(19)
C6 C 0.2656(3) 0.9675(2) 0.36556(19)
C7 C 0.0912(2) 0.8100(2) 0.40609(19)
H1 H 0.0720 0.8418 0.3375
H2 H 0.0049 0.8021 0.4526
N3 N -0.1017(2) 0.7120(2) 0.7789(2)
O4 O -0.1057(2) 0.6979(2) 0.68877(17)
C8 C 0.3827(3) 0.6257(2) 0.5991(2)
C9 C 0.5906(3) 0.6905(2) 0.4829(2)
C10 C -0.0088(3) 0.7909(2) 0.7956(2)
O5 O 0.6857(2) 0.8201(2) 0.27148(18)
C11 C 0.1491(3) 0.9404(2) 0.7398(2)
H3 H 0.1973 0.9916 0.6878
C12 C 0.5200(3) 0.6485(2) 0.5788(2)
H4 H 0.5664 0.6342 0.6344
O6 O -0.1737(3) 0.6620(2) 0.85311(18)
C13 C 0.2644(3) 0.9835(2) 0.2598(2)
H5 H 0.1980 0.9521 0.2353
C14 C 0.1571(3) 0.9440(3) 0.8407(2)
H6 H 0.2098 0.9975 0.8568
C15 C 0.0868(3) 0.8678(3) 0.9190(2)
C16 C 0.0023(3) 0.7936(2) 0.8974(2)
H7 H -0.0474 0.7453 0.9510
C17 C 0.5935(3) 0.7578(2) 0.2904(2)
C18 C 0.3679(3) 1.0143(2) 0.3992(2)
H8 H 0.3714 1.0038 0.4696
C19 C 0.4634(3) 1.0757(3) 0.3300(2)
H9 H 0.5307 1.1067 0.3539
C20 C 0.2026(3) 0.5189(2) 0.7237(2)
H10 H 0.1719 0.4979 0.6679
C21 C 0.3112(3) 0.5873(2) 0.7055(2)
C22 C 0.3603(3) 1.0453(3) 0.1908(2)
H11 H 0.3579 1.0560 0.1202
C23 C 0.4600(3) 1.0915(3) 0.2262(2)
H12 H 0.5247 1.1332 0.1794
C24 C 0.1817(4) 0.5125(3) 0.9069(2)
H13 H 0.1387 0.4872 0.9740
C25 C 0.3518(3) 0.6182(3) 0.7917(2)
H14 H 0.4236 0.6649 0.7822
N4 N 0.1028(3) 0.8650(3) 1.0263(2)
O7 O 0.0425(3) 0.7963(3) 1.09373(19)
C26 C 0.1392(3) 0.4814(3) 0.8236(2)
H15 H 0.0671 0.4348 0.8344
C27 C 0.7372(3) 0.7144(3) 0.4741(3)
H16 H 0.7420 0.7997 0.4669
H17 H 0.7913 0.6829 0.4145
H18 H 0.7709 0.6757 0.5354
C28 C 0.5917(3) 0.7690(3) 0.1101(2)
H19 H 0.6867 0.7388 0.0918
H20 H 0.5839 0.8564 0.0992
C29 C 0.2871(4) 0.5806(3) 0.8908(2)
H21 H 0.3158 0.6020 0.9473
O8 O 0.1771(3) 0.9337(3) 1.04352(19)
C30 C 0.5082(5) 0.7240(4) 0.0466(3)
H22 H 0.5024 0.6393 0.0681
H23 H 0.5496 0.7372 -0.0253
H24 H 0.4186 0.7664 0.0558
C31 C 0.1708(2) 0.6848(2) 0.40248(19)
C32 C 0.1036(3) 0.6007(3) 0.3564(2)
H25 H 0.1615 0.5265 0.3511
H26 H 0.0881 0.6372 0.2886
H27 H 0.0184 0.5848 0.4000
loop_
_geom_bond_atom_site_label_1
_geom_bond_atom_site_label_2
_geom_bond_site_symmetry_1
_geom_bond_site_symmetry_2
O1 C5 1_555 1_555
O2 C4 1_555 1_555
N1 N2 1_555 1_555
O3 C17 1_555 1_555
N2 C3 1_555 1_555
C1 N1 1_555 1_555
C2 C5 1_555 1_555
C3 C10 1_555 1_555
C4 C5 1_555 1_555
C6 C1 1_555 1_555
C7 C1 1_555 1_555
H1 C7 1_555 1_555
H2 C7 1_555 1_555
N3 O4 1_555 1_555
C8 C4 1_555 1_555
C9 C2 1_555 1_555
C10 N3 1_555 1_555
O5 C17 1_555 1_555
C11 C3 1_555 1_555
H3 C11 1_555 1_555
C12 C8 1_555 1_555
H4 C12 1_555 1_555
O6 N3 1_555 1_555
C13 C6 1_555 1_555
H5 C13 1_555 1_555
C14 C11 1_555 1_555
H6 C14 1_555 1_555
C15 C14 1_555 1_555
C16 C10 1_555 1_555
H7 C16 1_555 1_555
C17 C2 1_555 1_555
C18 C6 1_555 1_555
H8 C18 1_555 1_555
C19 C18 1_555 1_555
H9 C19 1_555 1_555
C20 H10 1_555 1_555
C21 C8 1_555 1_555
C22 C13 1_555 1_555
H11 C22 1_555 1_555
C23 C19 1_555 1_555
H12 C23 1_555 1_555
C24 H13 1_555 1_555
C25 C21 1_555 1_555
H14 C25 1_555 1_555
N4 C15 1_555 1_555
O7 N4 1_555 1_555
C26 C20 1_555 1_555
H15 C26 1_555 1_555
C27 C9 1_555 1_555
H16 C27 1_555 1_555
H17 C27 1_555 1_555
H18 C27 1_555 1_555
C28 O3 1_555 1_555
H19 C28 1_555 1_555
H20 C28 1_555 1_555
C29 C24 1_555 1_555
H21 C29 1_555 1_555
O8 N4 1_555 1_555
C30 C28 1_555 1_555
H22 C30 1_555 1_555
H23 C30 1_555 1_555
H24 C30 1_555 1_555
C31 O1 1_555 1_555
C32 C31 1_555 1_555
H25 C32 1_555 1_555
H26 C32 1_555 1_555
H27 C32 1_555 1_555
O2 C31 1_555 1_555
C7 C31 1_555 1_555
C9 C12 1_555 1_555
C15 C16 1_555 1_555
C20 C21 1_555 1_555
C22 C23 1_555 1_555
C24 C26 1_555 1_555
C25 C29 1_555 1_555

#END
