
#######################################################################
#
#                 Cambridge Crystallographic Data Centre
#                                CCDC 
#
#######################################################################
#
# If this CIF has been generated from an entry in the Cambridge 
# Structural Database, then it will include bibliographic, chemical, 
# crystal, experimental, refinement or atomic coordinate data resulting 
# from the CCDC's data processing and validation procedures.
#
#######################################################################

data_RERLIM
_chemical_formula_moiety         'C33 H24 N4,0.5(C1 H2 Cl2),0.5(H2 O1)'
_chemical_name_systematic        
'N-(4-methylphenyl)-5-phenyl-N-(pyrimidin-2-yl)-7H-benzo[c]carbazol-6-amine dichloromethane solvate hemihydrate'
_symmetry_cell_setting           monoclinic
_symmetry_space_group_name_H-M   'P 21/n'
_symmetry_Int_Tables_number      14
_space_group_name_Hall           '-P 2yn'
loop_
_symmetry_equiv_pos_site_id
_symmetry_equiv_pos_as_xyz
1 x,y,z
2 1/2-x,1/2+y,1/2-z
3 -x,-y,-z
4 1/2+x,1/2-y,1/2+z
_cell_length_a                   11.5342(4)
_cell_length_b                   25.5201(8)
_cell_length_c                   19.2452(7)
_cell_angle_alpha                90
_cell_angle_beta                 90.903(3)
_cell_angle_gamma                90
_cell_volume                     5664.2
_exptl_crystal_colour            colorless
_exptl_crystal_description       block
_cell_formula_units_Z            8
loop_
_atom_site_label
_atom_site_type_symbol
_atom_site_fract_x
_atom_site_fract_y
_atom_site_fract_z
Cl1 Cl 0.3970(2) 0.8105(2) 0.9640(3)
Cl2 Cl 0.5899(4) 0.82977(17) 1.04255(16)
C1 C 0.5356(5) 0.8138(2) 0.9661(3)
H1 H 0.560382 0.839413 0.932264
H2 H 0.566890 0.780059 0.952652
N1 N 0.5563(2) 0.70317(10) 0.78201(15)
H3 H 0.563188 0.670049 0.789190
N2 N 0.7620(2) 0.68187(9) 0.86797(13)
N3 N 0.6416(2) 0.68841(10) 0.96193(14)
N4 N 0.7275(2) 0.60651(9) 0.93121(13)
C2 C 0.4095(3) 0.81256(15) 0.70595(18)
H4 H 0.418716 0.848745 0.704699
C3 C 0.3188(3) 0.78963(17) 0.6715(2)
H5 H 0.266746 0.810529 0.646592
C4 C 0.3024(3) 0.73598(18) 0.6726(2)
H6 H 0.239411 0.721573 0.648667
C5 C 0.3771(3) 0.70353(16) 0.7084(2)
H7 H 0.365733 0.667456 0.709431
C6 C 0.4703(3) 0.72677(13) 0.74312(17)
C7 C 0.4885(3) 0.78165(12) 0.74312(16)
C8 C 0.5927(3) 0.79016(11) 0.78425(16)
C9 C 0.6297(3) 0.74147(11) 0.80770(16)
C10 C 0.7300(3) 0.73444(11) 0.84951(16)
C11 C 0.7947(3) 0.77692(12) 0.86856(15)
C12 C 0.7595(3) 0.82848(11) 0.84703(16)
C13 C 0.6575(3) 0.83538(11) 0.80429(15)
C14 C 0.6260(3) 0.88688(12) 0.78543(18)
H8 H 0.560579 0.892167 0.757403
C15 C 0.6890(3) 0.92908(13) 0.8073(2)
H9 H 0.666473 0.962635 0.793879
C16 C 0.7871(4) 0.92227(13) 0.8497(2)
H10 H 0.829153 0.951195 0.865168
C17 C 0.8207(3) 0.87323(13) 0.86810(19)
H11 H 0.886870 0.869183 0.895801
C18 C 0.7093(2) 0.65799(11) 0.92263(15)
C19 C 0.5951(3) 0.66475(14) 1.01639(18)
H12 H 0.547765 0.684342 1.045190
C20 C 0.6133(3) 0.61306(14) 1.03228(18)
H13 H 0.582260 0.597708 1.071680
C21 C 0.6791(3) 0.58553(13) 0.98726(18)
H14 H 0.691124 0.550085 0.995949
C22 C 0.8544(3) 0.65809(11) 0.83075(18)
C23 C 0.9553(3) 0.64356(16) 0.8635(2)
H15 H 0.963432 0.647483 0.911365
C24 C 1.0458(3) 0.62287(17) 0.8252(3)
H16 H 1.113490 0.612632 0.848318
C25 C 1.0381(3) 0.61717(14) 0.7549(3)
C26 C 0.9360(4) 0.63203(15) 0.7230(2)
H17 H 0.928345 0.628545 0.675018
C27 C 0.8447(3) 0.65190(13) 0.75974(19)
H18 H 0.776321 0.661180 0.736653
C28 C 1.1373(4) 0.5954(2) 0.7130(3)
H19 H 1.170643 0.623017 0.685876
H20 H 1.108764 0.568359 0.682609
H21 H 1.195268 0.581191 0.743914
C29 C 0.9026(3) 0.76985(12) 0.91157(17)
C30 C 0.8983(3) 0.75871(14) 0.98209(19)
H22 H 0.826937 0.755998 1.003663
C31 C 0.9986(4) 0.75169(17) 1.0201(2)
H23 H 0.994513 0.744145 1.067281
C32 C 1.1033(4) 0.75557(18) 0.9901(2)
H24 H 1.170634 0.751077 1.016695
C33 C 1.1102(3) 0.76616(19) 0.9203(3)
H25 H 1.182090 0.768269 0.899174
C34 C 1.0110(3) 0.77353(17) 0.8822(2)
H26 H 1.016311 0.781247 0.835135
N5 N 0.7504(2) 1.00110(10) 0.63622(14)
H27 H 0.761604 1.034282 0.640230
N6 N 0.9806(2) 1.02162(9) 0.69807(13)
N7 N 1.0576(2) 1.10085(10) 0.66403(14)
N8 N 1.0598(2) 1.02657(10) 0.58868(14)
C35 C 0.5714(3) 0.89195(16) 0.59004(19)
H28 H 0.579056 0.855696 0.588233
C36 C 0.4694(4) 0.91487(19) 0.5716(2)
H29 H 0.407085 0.893952 0.557883
C37 C 0.4559(3) 0.96929(19) 0.5729(2)
H30 H 0.385065 0.983947 0.559806
C38 C 0.5453(3) 1.00130(15) 0.59294(19)
H31 H 0.536376 1.037511 0.593625
C39 C 0.6503(3) 0.97806(13) 0.61236(16)
C40 C 0.6660(3) 0.92327(12) 0.61197(16)
C41 C 0.7809(3) 0.91374(11) 0.63865(15)
C42 C 0.8299(3) 0.96315(11) 0.65269(15)
C43 C 0.9412(3) 0.96918(11) 0.68349(16)
C44 C 1.0031(3) 0.92544(12) 0.70233(16)
C45 C 0.9567(3) 0.87376(11) 0.68750(16)
C46 C 0.8448(3) 0.86819(12) 0.65517(16)
C47 C 0.8041(3) 0.81693(13) 0.6419(2)
H32 H 0.731026 0.812581 0.621619
C48 C 0.8680(4) 0.77380(14) 0.6578(2)
H33 H 0.838595 0.740574 0.648382
C49 C 0.9777(4) 0.77934(14) 0.6884(2)
H34 H 1.022110 0.749836 0.698661
C50 C 1.0201(3) 0.82821(13) 0.70316(18)
H35 H 1.092921 0.831342 0.724182
C51 C 1.0357(3) 1.05053(11) 0.64857(15)
C52 C 1.1180(3) 1.05523(13) 0.54343(18)
H36 H 1.135476 1.040344 0.500744
C53 C 1.1536(3) 1.10529(14) 0.55616(19)
H37 H 1.199444 1.123642 0.525163
C54 C 1.1181(3) 1.12685(13) 0.61685(19)
H38 H 1.137104 1.161627 0.625878
C55 C 0.9687(3) 1.04093(11) 0.76832(16)
C56 C 0.8619(3) 1.05457(14) 0.79227(19)
H39 H 0.796952 1.052470 0.763114
C57 C 0.8509(4) 1.07152(16) 0.8602(2)
H40 H 0.777840 1.080582 0.876099
C58 C 0.9439(4) 1.07531(16) 0.9043(2)
C59 C 1.0499(4) 1.06190(18) 0.8791(2)
H41 H 1.114913 1.064603 0.908124
C60 C 1.0634(3) 1.04441(16) 0.81165(19)
H42 H 1.136395 1.035101 0.795908
C61 C 0.9305(6) 1.0930(3) 0.9798(3)
H43 H 0.971637 1.125270 0.987075
H44 H 0.961572 1.066618 1.010432
H45 H 0.849808 1.098145 0.989326
C62 C 1.1174(3) 0.93015(12) 0.73856(17)
C63 C 1.2140(3) 0.94994(12) 0.70593(18)
H46 H 1.208377 0.960623 0.659799
C64 C 1.3189(3) 0.95396(14) 0.7414(2)
H47 H 1.383572 0.966870 0.718844
C65 C 1.3280(4) 0.93892(18) 0.8102(2)
H48 H 1.397661 0.942866 0.834671
C66 C 1.2334(4) 0.91820(19) 0.8418(2)
H49 H 1.239744 0.906686 0.887577
C67 C 1.1294(3) 0.91414(16) 0.80709(19)
H50 H 1.065674 0.900414 0.829846
O1 O 0.549(2) 1.0254(10) 0.9410(12)
O2? O 0.581(2) 0.9914(11) 0.9691(16)
O3? O 0.6511(16) 0.9960(9) 1.0132(9)
O4? O 0.597(2) 1.0320(11) 0.9841(12)
loop_
_geom_bond_atom_site_label_1
_geom_bond_atom_site_label_2
_geom_bond_site_symmetry_1
_geom_bond_site_symmetry_2
Cl1 C1 1_555 1_555
Cl2 C1 1_555 1_555
C1 H1 1_555 1_555
H2 C1 1_555 1_555
N1 H3 1_555 1_555
N2 C10 1_555 1_555
N3 C18 1_555 1_555
N4 C18 1_555 1_555
C2 H4 1_555 1_555
C3 C2 1_555 1_555
H5 C3 1_555 1_555
C4 C3 1_555 1_555
H6 C4 1_555 1_555
C5 C4 1_555 1_555
H7 C5 1_555 1_555
C6 N1 1_555 1_555
C7 C2 1_555 1_555
C8 C7 1_555 1_555
C9 N1 1_555 1_555
C10 C9 1_555 1_555
C11 C10 1_555 1_555
C12 C11 1_555 1_555
C13 C8 1_555 1_555
C14 C13 1_555 1_555
H8 C14 1_555 1_555
C15 C14 1_555 1_555
H9 C15 1_555 1_555
C16 C15 1_555 1_555
H10 C16 1_555 1_555
C17 C12 1_555 1_555
H11 C17 1_555 1_555
C18 N2 1_555 1_555
C19 N3 1_555 1_555
H12 C19 1_555 1_555
C20 C19 1_555 1_555
H13 C20 1_555 1_555
C21 N4 1_555 1_555
H14 C21 1_555 1_555
C22 N2 1_555 1_555
C23 C22 1_555 1_555
H15 C23 1_555 1_555
C24 C23 1_555 1_555
H16 C24 1_555 1_555
C25 C24 1_555 1_555
C26 C25 1_555 1_555
H17 C26 1_555 1_555
C27 C22 1_555 1_555
H18 C27 1_555 1_555
C28 C25 1_555 1_555
H19 C28 1_555 1_555
H20 C28 1_555 1_555
H21 C28 1_555 1_555
C29 C11 1_555 1_555
C30 C29 1_555 1_555
H22 C30 1_555 1_555
C31 C30 1_555 1_555
H23 C31 1_555 1_555
C32 C31 1_555 1_555
H24 C32 1_555 1_555
C33 C32 1_555 1_555
H25 C33 1_555 1_555
C34 C29 1_555 1_555
H26 C34 1_555 1_555
N5 H27 1_555 1_555
N6 C43 1_555 1_555
N7 C51 1_555 1_555
N8 C51 1_555 1_555
C35 H28 1_555 1_555
C36 C35 1_555 1_555
H29 C36 1_555 1_555
C37 C36 1_555 1_555
H30 C37 1_555 1_555
C38 C37 1_555 1_555
H31 C38 1_555 1_555
C39 N5 1_555 1_555
C40 C35 1_555 1_555
C41 C40 1_555 1_555
C42 N5 1_555 1_555
C43 C42 1_555 1_555
C44 C43 1_555 1_555
C45 C44 1_555 1_555
C46 C41 1_555 1_555
C47 C46 1_555 1_555
H32 C47 1_555 1_555
C48 C47 1_555 1_555
H33 C48 1_555 1_555
C49 C48 1_555 1_555
H34 C49 1_555 1_555
C50 C45 1_555 1_555
H35 C50 1_555 1_555
C51 N6 1_555 1_555
C52 N8 1_555 1_555
H36 C52 1_555 1_555
C53 C52 1_555 1_555
H37 C53 1_555 1_555
C54 N7 1_555 1_555
H38 C54 1_555 1_555
C55 N6 1_555 1_555
C56 C55 1_555 1_555
H39 C56 1_555 1_555
C57 C56 1_555 1_555
H40 C57 1_555 1_555
C58 C57 1_555 1_555
C59 C58 1_555 1_555
H41 C59 1_555 1_555
C60 C55 1_555 1_555
H42 C60 1_555 1_555
C61 C58 1_555 1_555
H43 C61 1_555 1_555
H44 C61 1_555 1_555
H45 C61 1_555 1_555
C62 C44 1_555 1_555
C63 C62 1_555 1_555
H46 C63 1_555 1_555
C64 C63 1_555 1_555
H47 C64 1_555 1_555
C65 C64 1_555 1_555
H48 C65 1_555 1_555
C66 C65 1_555 1_555
H49 C66 1_555 1_555
C67 C62 1_555 1_555
H50 C67 1_555 1_555
C5 C6 1_555 1_555
C6 C7 1_555 1_555
C8 C9 1_555 1_555
C12 C13 1_555 1_555
C16 C17 1_555 1_555
C20 C21 1_555 1_555
C26 C27 1_555 1_555
C33 C34 1_555 1_555
C38 C39 1_555 1_555
C39 C40 1_555 1_555
C41 C42 1_555 1_555
C45 C46 1_555 1_555
C49 C50 1_555 1_555
C53 C54 1_555 1_555
C59 C60 1_555 1_555
C66 C67 1_555 1_555

#END
