
#######################################################################
#
#                 Cambridge Crystallographic Data Centre
#                                CCDC 
#
#######################################################################
#
# If this CIF has been generated from an entry in the Cambridge 
# Structural Database, then it will include bibliographic, chemical, 
# crystal, experimental, refinement or atomic coordinate data resulting 
# from the CCDC's data processing and validation procedures.
#
#######################################################################

data_RERMEH
_chemical_formula_moiety         'C14 H22 N1 O5 P1'
_chemical_name_systematic        
'N-(4-Hydroxybenzylidene)-2-diethoxyphosphoryl-2-propylamine N-oxide'
_symmetry_cell_setting           monoclinic
_symmetry_space_group_name_H-M   'P 21/c'
_symmetry_Int_Tables_number      14
_space_group_name_Hall           '-P 2ybc'
loop_
_symmetry_equiv_pos_site_id
_symmetry_equiv_pos_as_xyz
1 x,y,z
2 -x,1/2+y,1/2-z
3 -x,-y,-z
4 x,1/2-y,1/2+z
_cell_length_a                   7.2504(15)
_cell_length_b                   23.958(5)
_cell_length_c                   9.5680(19)
_cell_angle_alpha                90
_cell_angle_beta                 96.49(3)
_cell_angle_gamma                90
_cell_volume                     1651.36
_exptl_crystal_colour            colorless
_exptl_crystal_description       platelet
_chemical_melting_point          138.5-139.5deg.C
_cell_formula_units_Z            4
_exptl_crystal_recrystallization_method 'hexane/ethyl acetate'
loop_
_atom_site_label
_atom_site_type_symbol
_atom_site_fract_x
_atom_site_fract_y
_atom_site_fract_z
P1 P 0.36357(9) 0.33576(2) 0.34308(7)
N1 N 0.3341(3) 0.44543(8) 0.3405(2)
O1 O -0.2602(3) 0.62607(10) 0.0469(2)
H1 H -0.2468 0.6375 -0.0321
O2 O 0.2194(3) 0.44417(9) 0.4347(2)
O3 O 0.2378(3) 0.33288(8) 0.2114(2)
O4 O 0.2690(2) 0.32114(9) 0.4771(2)
O5 O 0.5323(3) 0.29466(7) 0.3543(2)
C1 C -0.1159(4) 0.59200(11) 0.0933(2)
C2 C -0.1255(4) 0.56323(12) 0.2188(3)
H2 H -0.2272 0.5684 0.2685
C3 C 0.0137(3) 0.52730(10) 0.2700(2)
H3 H 0.0059 0.5087 0.3545
C4 C 0.1664(3) 0.51841(9) 0.1964(2)
C5 C 0.1747(4) 0.54884(10) 0.0713(2)
H4 H 0.2770 0.5444 0.0218
C6 C 0.0360(4) 0.58491(10) 0.0205(3)
H5 H 0.0443 0.6044 -0.0626
C7 C 0.3161(3) 0.47926(9) 0.2333(2)
H6 H 0.4094 0.4781 0.1741
C8 C 0.4861(3) 0.40263(9) 0.3639(2)
C9 C 0.5845(4) 0.41098(13) 0.5123(3)
H7 H 0.6470 0.4464 0.5177
H8 H 0.6735 0.3817 0.5336
H9 H 0.4948 0.4102 0.5788
C10 C 0.6249(4) 0.40596(12) 0.2554(3)
H10 H 0.6903 0.4408 0.2655
H11 H 0.5598 0.4034 0.1625
H12 H 0.7118 0.3757 0.2701
C11 C 0.0672(4) 0.32641(16) 0.4839(4)
H13 H 0.0357 0.3652 0.4979
H14 H 0.0001 0.3139 0.3960
C12 C 0.0153(6) 0.2936(2) 0.5969(6)
H15 H -0.1160 0.2968 0.6008
H16 H 0.0805 0.3065 0.6838
H17 H 0.0462 0.2552 0.5824
C13 C 0.4960(6) 0.23437(13) 0.3416(6)
H18 H 0.4094 0.2243 0.4076
H19 H 0.4357 0.2270 0.2477
C14 C 0.6402(8) 0.20218(18) 0.3639(8)
H20 H 0.6020 0.1639 0.3531
H21 H 0.6995 0.2081 0.4576
H22 H 0.7258 0.2107 0.2973
loop_
_geom_bond_atom_site_label_1
_geom_bond_atom_site_label_2
_geom_bond_site_symmetry_1
_geom_bond_site_symmetry_2
P1 O3 1_555 1_555
N1 O2 1_555 1_555
O1 H1 1_555 1_555
O4 P1 1_555 1_555
O5 P1 1_555 1_555
C1 O1 1_555 1_555
C2 C1 1_555 1_555
H2 C2 1_555 1_555
C3 C2 1_555 1_555
H3 C3 1_555 1_555
C4 C3 1_555 1_555
C5 C4 1_555 1_555
H4 C5 1_555 1_555
C6 C1 1_555 1_555
H5 C6 1_555 1_555
C7 N1 1_555 1_555
H6 C7 1_555 1_555
C8 P1 1_555 1_555
C9 C8 1_555 1_555
H7 C9 1_555 1_555
H8 C9 1_555 1_555
H9 C9 1_555 1_555
C10 C8 1_555 1_555
H10 C10 1_555 1_555
H11 C10 1_555 1_555
H12 C10 1_555 1_555
C11 O4 1_555 1_555
H13 C11 1_555 1_555
H14 C11 1_555 1_555
C12 C11 1_555 1_555
H15 C12 1_555 1_555
H16 C12 1_555 1_555
H17 C12 1_555 1_555
C13 O5 1_555 1_555
H18 C13 1_555 1_555
H19 C13 1_555 1_555
C14 C13 1_555 1_555
H20 C14 1_555 1_555
H21 C14 1_555 1_555
H22 C14 1_555 1_555
N1 C8 1_555 1_555
C4 C7 1_555 1_555
C5 C6 1_555 1_555

#END
