
#######################################################################
#
#                 Cambridge Crystallographic Data Centre
#                                CCDC 
#
#######################################################################
#
# If this CIF has been generated from an entry in the Cambridge 
# Structural Database, then it will include bibliographic, chemical, 
# crystal, experimental, refinement or atomic coordinate data resulting 
# from the CCDC's data processing and validation procedures.
#
#######################################################################

data_RERMOR
_chemical_formula_moiety         'C18 H17 F1'
_chemical_name_systematic        4-n-Butyl-2-fluorophenanthrene
_symmetry_cell_setting           monoclinic
_symmetry_space_group_name_H-M   'I 2/a'
_symmetry_Int_Tables_number      15
_space_group_name_Hall           '-I 2ya'
loop_
_symmetry_equiv_pos_site_id
_symmetry_equiv_pos_as_xyz
1 x,y,z
2 1/2+x,1/2+y,1/2+z
3 1/2-x,y,-z
4 -x,1/2+y,1/2-z
5 -x,-y,-z
6 1/2-x,1/2-y,1/2-z
7 1/2+x,-y,z
8 x,1/2-y,1/2+z
_cell_length_a                   24.7067(9)
_cell_length_b                   7.57820(10)
_cell_length_c                   28.9751(5)
_cell_angle_alpha                90
_cell_angle_beta                 101.974(3)
_cell_angle_gamma                90
_cell_volume                     5307.04
_exptl_crystal_colour            colorless
_exptl_crystal_description       prism
_chemical_melting_point          57-58deg.C
_cell_formula_units_Z            16
loop_
_atom_site_label
_atom_site_type_symbol
_atom_site_fract_x
_atom_site_fract_y
_atom_site_fract_z
C1 C 0.26625(5) 0.47484(17) 0.26459(5)
C2 C 0.21332(6) 0.54174(18) 0.25706(5)
H1 H 0.1936 0.5444 0.2819
C3 C 0.18914(5) 0.60527(18) 0.21257(5)
F1 F 0.13691(3) 0.67396(11) 0.20685(3)
C4 C 0.21409(5) 0.60475(18) 0.17523(5)
H2 H 0.1954 0.6483 0.1454
C5 C 0.26845(5) 0.53830(17) 0.18140(5)
C6 C 0.29806(6) 0.53735(17) 0.14284(5)
C7 C 0.27522(6) 0.6046(2) 0.09761(5)
H3 H 0.2390 0.6536 0.0916
C8 C 0.30446(7) 0.6004(2) 0.06220(6)
H4 H 0.2884 0.6472 0.0320
C9 C 0.35744(7) 0.5281(2) 0.06999(6)
H5 H 0.3771 0.5242 0.0451
C10 C 0.38089(6) 0.4632(2) 0.11338(6)
H6 H 0.4172 0.4150 0.1186
C11 C 0.35215(6) 0.46641(18) 0.15062(5)
C12 C 0.37657(6) 0.39847(19) 0.19614(5)
H7 H 0.4127 0.3495 0.2013
C13 C 0.34950(6) 0.40219(19) 0.23203(5)
H8 H 0.3672 0.3571 0.2619
C14 C 0.29453(5) 0.47261(17) 0.22619(5)
C15 C 0.29486(6) 0.40933(19) 0.31272(5)
H9 H 0.3295 0.4776 0.3227
H10 H 0.3055 0.2846 0.3095
C16 C 0.26244(6) 0.41973(19) 0.35204(5)
H11 H 0.2511 0.5435 0.3555
H12 H 0.2285 0.3474 0.3433
C17 C 0.29617(6) 0.3551(2) 0.39886(5)
H13 H 0.3306 0.4256 0.4070
H14 H 0.3069 0.2306 0.3954
C18 C 0.26524(7) 0.3677(2) 0.43913(6)
H15 H 0.2881 0.3179 0.4679
H16 H 0.2305 0.3016 0.4308
H17 H 0.2572 0.4917 0.4446
C19 C -0.01070(5) 0.77342(17) 0.00924(4)
C20 C 0.04370(6) 0.72184(18) 0.01677(5)
H18 H 0.0587 0.6780 -0.0086
C21 C 0.07643(5) 0.73418(18) 0.06163(5)
F2 F 0.13060(3) 0.68286(12) 0.06696(3)
C22 C 0.05810(6) 0.79207(17) 0.09995(5)
H19 H 0.0820 0.7949 0.1302
C23 C 0.00265(5) 0.84786(16) 0.09380(5)
C24 C -0.01973(6) 0.91560(17) 0.13326(5)
C25 C 0.01051(6) 0.91400(18) 0.18032(5)
H20 H 0.0467 0.8647 0.1872
C26 C -0.01149(6) 0.9825(2) 0.21622(5)
H21 H 0.0093 0.9784 0.2477
C27 C -0.06407(6) 1.0581(2) 0.20685(5)
H22 H -0.0786 1.1083 0.2318
C28 C -0.09475(6) 1.06000(19) 0.16180(5)
H23 H -0.1306 1.1111 0.1556
C29 C -0.07365(6) 0.98678(17) 0.12432(5)
C30 C -0.10633(6) 0.98250(18) 0.07736(5)
H24 H -0.1425 1.0314 0.0714
C31 C -0.08688(5) 0.91055(18) 0.04144(5)
H25 H -0.1103 0.9054 0.0110
C32 C -0.03184(5) 0.84178(17) 0.04812(4)
C33 C -0.04786(6) 0.76032(18) -0.03922(4)
H26 H -0.0626 0.8794 -0.0486
H27 H -0.0797 0.6842 -0.0369
C34 C -0.02139(6) 0.68820(18) -0.07834(5)
H28 H -0.0078 0.5671 -0.0700
H29 H 0.0108 0.7624 -0.0809
C35 C -0.06181(6) 0.68453(19) -0.12584(5)
H30 H -0.0939 0.6100 -0.1232
H31 H -0.0756 0.8056 -0.1340
C36 C -0.03574(6) 0.6135(2) -0.16533(5)
H32 H -0.0625 0.6212 -0.1954
H33 H -0.0250 0.4901 -0.1589
H34 H -0.0029 0.6836 -0.1672
loop_
_geom_bond_atom_site_label_1
_geom_bond_atom_site_label_2
_geom_bond_site_symmetry_1
_geom_bond_site_symmetry_2
C1 C2 1_555 1_555
C2 H1 1_555 1_555
C3 C2 1_555 1_555
F1 C3 1_555 1_555
C4 C3 1_555 1_555
H2 C4 1_555 1_555
C5 C4 1_555 1_555
C6 C5 1_555 1_555
C7 C6 1_555 1_555
H3 C7 1_555 1_555
C8 C7 1_555 1_555
H4 C8 1_555 1_555
C9 C8 1_555 1_555
H5 C9 1_555 1_555
C10 C9 1_555 1_555
H6 C10 1_555 1_555
C11 C6 1_555 1_555
C12 C11 1_555 1_555
H7 C12 1_555 1_555
C13 C12 1_555 1_555
H8 C13 1_555 1_555
C14 C1 1_555 1_555
C15 C1 1_555 1_555
H9 C15 1_555 1_555
H10 C15 1_555 1_555
C16 C15 1_555 1_555
H11 C16 1_555 1_555
H12 C16 1_555 1_555
C17 C16 1_555 1_555
H13 C17 1_555 1_555
H14 C17 1_555 1_555
C18 C17 1_555 1_555
H15 C18 1_555 1_555
H16 C18 1_555 1_555
H17 C18 1_555 1_555
C19 C20 1_555 1_555
C20 H18 1_555 1_555
C21 C20 1_555 1_555
F2 C21 1_555 1_555
C22 C21 1_555 1_555
H19 C22 1_555 1_555
C23 C22 1_555 1_555
C24 C23 1_555 1_555
C25 C24 1_555 1_555
H20 C25 1_555 1_555
C26 C25 1_555 1_555
H21 C26 1_555 1_555
C27 C26 1_555 1_555
H22 C27 1_555 1_555
C28 C27 1_555 1_555
H23 C28 1_555 1_555
C29 C24 1_555 1_555
C30 C29 1_555 1_555
H24 C30 1_555 1_555
C31 C30 1_555 1_555
H25 C31 1_555 1_555
C32 C19 1_555 1_555
C33 C19 1_555 1_555
H26 C33 1_555 1_555
H27 C33 1_555 1_555
C34 C33 1_555 1_555
H28 C34 1_555 1_555
H29 C34 1_555 1_555
C35 C34 1_555 1_555
H30 C35 1_555 1_555
H31 C35 1_555 1_555
C36 C35 1_555 1_555
H32 C36 1_555 1_555
H33 C36 1_555 1_555
H34 C36 1_555 1_555
C5 C14 1_555 1_555
C10 C11 1_555 1_555
C13 C14 1_555 1_555
C23 C32 1_555 1_555
C28 C29 1_555 1_555
C31 C32 1_555 1_555

#END
