
#######################################################################
#
#                 Cambridge Crystallographic Data Centre
#                                CCDC 
#
#######################################################################
#
# If this CIF has been generated from an entry in the Cambridge 
# Structural Database, then it will include bibliographic, chemical, 
# crystal, experimental, refinement or atomic coordinate data resulting 
# from the CCDC's data processing and validation procedures.
#
#######################################################################

data_RERMUZ
_chemical_formula_moiety         'C9 H14 N6 O2 Si1'
_chemical_name_systematic        
4-oxo-3-((trimethylsilyl)methyl)-3,4-dihydroimidazo[5,1-d][1,2,3,5]tetrazine-8-carboxamide
_symmetry_cell_setting           triclinic
_symmetry_space_group_name_H-M   'P -1'
_symmetry_Int_Tables_number      2
_space_group_name_Hall           '-P 1'
loop_
_symmetry_equiv_pos_site_id
_symmetry_equiv_pos_as_xyz
1 x,y,z
2 -x,-y,-z
_cell_length_a                   6.0637(7)
_cell_length_b                   6.3295(8)
_cell_length_c                   17.0569(17)
_cell_angle_alpha                82.559(9)
_cell_angle_beta                 81.097(9)
_cell_angle_gamma                72.642(10)
_cell_volume                     614.891
_exptl_crystal_colour            colorless
_exptl_crystal_description       plate
_cell_formula_units_Z            2
_chemical_properties_physical    Moisture-sensitive
loop_
_atom_site_label
_atom_site_type_symbol
_atom_site_fract_x
_atom_site_fract_y
_atom_site_fract_z
C1 C 0.1083(8) 0.2725(8) 0.6371(3)
N1 N 0.1771(7) 0.1895(6) 0.7106(2)
N2 N 0.1393(7) 0.0000(6) 0.7537(2)
N3 N 0.0179(7) -0.1048(6) 0.7292(2)
C2 C -0.0802(8) -0.0242(7) 0.6606(3)
C3 C -0.2356(8) -0.0817(7) 0.6219(3)
N4 N -0.2846(7) 0.0652(6) 0.5556(2)
C4 C -0.1634(8) 0.2067(8) 0.5523(3)
H1 H -0.1635 0.3251 0.5118
N5 N -0.0359(7) 0.1600(6) 0.6155(2)
O1 O 0.1643(6) 0.4228(5) 0.59548(19)
C5 C 0.2959(9) 0.3110(8) 0.7493(3)
H2 H 0.2170 0.4717 0.7401
H3 H 0.4571 0.2848 0.7221
Si1 Si 0.3112(2) 0.2417(2) 0.86055(8)
C6 C 0.3880(10) 0.4855(9) 0.8870(3)
H4 H 0.4044 0.4680 0.9440
H5 H 0.2647 0.6217 0.8752
H6 H 0.5354 0.4948 0.8559
C7 C 0.5453(10) -0.0198(9) 0.8791(4)
H7 H 0.5234 -0.1376 0.8517
H8 H 0.5388 -0.0637 0.9365
H9 H 0.6972 0.0040 0.8590
C8 C 0.0282(11) 0.2332(12) 0.9173(4)
H10 H 0.0385 0.2245 0.9745
H11 H -0.0115 0.1026 0.9054
H12 H -0.0926 0.3681 0.9022
C9 C -0.3436(8) -0.2668(8) 0.6451(3)
O2 O -0.2916(6) -0.4010(6) 0.7025(2)
N6 N -0.5024(7) -0.2701(7) 0.5984(2)
H13 H -0.579(9) -0.370(8) 0.605(3)
H14 H -0.516(10) -0.207(9) 0.5498(17)
loop_
_geom_bond_atom_site_label_1
_geom_bond_atom_site_label_2
_geom_bond_site_symmetry_1
_geom_bond_site_symmetry_2
C1 N1 1_555 1_555
N1 N2 1_555 1_555
N2 N3 1_555 1_555
N3 C2 1_555 1_555
C2 C3 1_555 1_555
C3 N4 1_555 1_555
N4 C4 1_555 1_555
C4 H1 1_555 1_555
N5 C1 1_555 1_555
O1 C1 1_555 1_555
C5 N1 1_555 1_555
H2 C5 1_555 1_555
H3 C5 1_555 1_555
Si1 C5 1_555 1_555
C6 Si1 1_555 1_555
H4 C6 1_555 1_555
H5 C6 1_555 1_555
H6 C6 1_555 1_555
C7 Si1 1_555 1_555
H7 C7 1_555 1_555
H8 C7 1_555 1_555
H9 C7 1_555 1_555
C8 Si1 1_555 1_555
H10 C8 1_555 1_555
H11 C8 1_555 1_555
H12 C8 1_555 1_555
C9 C3 1_555 1_555
O2 C9 1_555 1_555
N6 C9 1_555 1_555
H13 N6 1_555 1_555
H14 N6 1_555 1_555
C2 N5 1_555 1_555
C4 N5 1_555 1_555

#END
