
#######################################################################
#
#                 Cambridge Crystallographic Data Centre
#                                CCDC 
#
#######################################################################
#
# If this CIF has been generated from an entry in the Cambridge 
# Structural Database, then it will include bibliographic, chemical, 
# crystal, experimental, refinement or atomic coordinate data resulting 
# from the CCDC's data processing and validation procedures.
#
#######################################################################

data_RERMOT
_chemical_formula_moiety         'C18 H22 N2 O1'
_chemical_name_systematic        
(S)-N-((S)-1-(4-methoxyphenyl)ethyl)-5,6,7,8-tetrahydroquinolin-8-amine
_symmetry_cell_setting           orthorhombic
_symmetry_space_group_name_H-M   'P 21 21 21'
_symmetry_Int_Tables_number      19
_space_group_name_Hall           'P 2ac 2ab'
loop_
_symmetry_equiv_pos_site_id
_symmetry_equiv_pos_as_xyz
1 x,y,z
2 1/2-x,-y,1/2+z
3 -x,1/2+y,1/2-z
4 1/2+x,1/2-y,-z
_cell_length_a                   7.1216(2)
_cell_length_b                   8.3292(2)
_cell_length_c                   26.4850(6)
_cell_angle_alpha                90
_cell_angle_beta                 90
_cell_angle_gamma                90
_cell_volume                     1571.02
_exptl_crystal_colour            colorless
_exptl_crystal_description       block
_cell_formula_units_Z            4
_chemical_properties_physical    air-sensitive
_exptl_crystal_recrystallization_method hexanes/dichloromethane
loop_
_atom_site_label
_atom_site_type_symbol
_atom_site_fract_x
_atom_site_fract_y
_atom_site_fract_z
O1 O 0.95883(17) 0.83159(17) 0.74617(4)
N1 N 0.36472(18) 0.56831(15) 0.58608(5)
N2 N 0.09578(18) 0.37512(15) 0.54562(4)
C1 C 0.1914(2) 0.31462(18) 0.58480(5)
C2 C 0.3772(2) 0.39605(18) 0.59707(6)
H1 H 0.4734 0.3501 0.5749
C3 C 0.8705(2) 0.77811(19) 0.70330(6)
C4 C 0.6591(2) 0.68819(18) 0.61868(6)
C5 C 0.5764(2) 0.76701(19) 0.65926(6)
H2 H 0.4486 0.7897 0.6582
C6 C 0.5437(2) 0.6450(2) 0.57243(6)
C7 C 0.1290(2) 0.18085(19) 0.61210(6)
C8 C -0.0639(2) 0.3037(2) 0.53209(6)
H3 H -0.1300 0.3457 0.5049
C9 C -0.0382(3) 0.1100(2) 0.59685(7)
H4 H -0.0841 0.0210 0.6141
C10 C 0.9560(2) 0.6987(2) 0.66379(6)
H5 H 1.0834 0.6744 0.6651
C11 C -0.1362(2) 0.1709(2) 0.55632(7)
H6 H -0.2478 0.1239 0.5456
C12 C 0.8491(2) 0.65540(19) 0.62179(6)
H7 H 0.9074 0.6029 0.5951
C13 C 0.2357(2) 0.1160(2) 0.65673(7)
H8 H 0.2412 -0.0001 0.6542
H9 H 0.1677 0.1423 0.6874
C14 C 0.6788(2) 0.8122(2) 0.70088(6)
H10 H 0.6204 0.8656 0.7274
C15 C 0.4341(3) 0.1810(2) 0.66091(7)
H11 H 0.5141 0.1282 0.6363
H12 H 0.4835 0.1587 0.6943
C16 C 0.4345(3) 0.3621(2) 0.65149(7)
H13 H 0.3474 0.4142 0.6744
H14 H 0.5589 0.4051 0.6577
C17 C 0.4998(3) 0.7951(2) 0.54149(7)
H15 H 0.4328 0.7651 0.5115
H16 H 0.6149 0.8475 0.5323
H17 H 0.4240 0.8669 0.5612
C18 C 1.1440(3) 0.7755(3) 0.75578(7)
H18 H 1.2286 0.8205 0.7313
H19 H 1.1465 0.6606 0.7534
H20 H 1.1819 0.8078 0.7891
H21 H 0.284(2) 0.574(2) 0.5596(6)
H22 H 0.619(3) 0.571(2) 0.5509(7)
loop_
_geom_bond_atom_site_label_1
_geom_bond_atom_site_label_2
_geom_bond_site_symmetry_1
_geom_bond_site_symmetry_2
O1 C3 1_555 1_555
N1 C2 1_555 1_555
N2 C1 1_555 1_555
C1 C2 1_555 1_555
C2 H1 1_555 1_555
C3 C10 1_555 1_555
C4 C5 1_555 1_555
C5 H2 1_555 1_555
C6 N1 1_555 1_555
C7 C1 1_555 1_555
C8 N2 1_555 1_555
H3 C8 1_555 1_555
C9 C7 1_555 1_555
H4 C9 1_555 1_555
C10 H5 1_555 1_555
C11 C8 1_555 1_555
H6 C11 1_555 1_555
C12 C4 1_555 1_555
H7 C12 1_555 1_555
C13 C7 1_555 1_555
H8 C13 1_555 1_555
H9 C13 1_555 1_555
C14 C3 1_555 1_555
H10 C14 1_555 1_555
C15 C13 1_555 1_555
H11 C15 1_555 1_555
H12 C15 1_555 1_555
C16 C2 1_555 1_555
H13 C16 1_555 1_555
H14 C16 1_555 1_555
C17 C6 1_555 1_555
H15 C17 1_555 1_555
H16 C17 1_555 1_555
H17 C17 1_555 1_555
C18 O1 1_555 1_555
H18 C18 1_555 1_555
H19 C18 1_555 1_555
H20 C18 1_555 1_555
H21 N1 1_555 1_555
H22 C6 1_555 1_555
C4 C6 1_555 1_555
C5 C14 1_555 1_555
C9 C11 1_555 1_555
C10 C12 1_555 1_555
C15 C16 1_555 1_555

#END
