
#######################################################################
#
#                 Cambridge Crystallographic Data Centre
#                                CCDC 
#
#######################################################################
#
# If this CIF has been generated from an entry in the Cambridge 
# Structural Database, then it will include bibliographic, chemical, 
# crystal, experimental, refinement or atomic coordinate data resulting 
# from the CCDC's data processing and validation procedures.
#
#######################################################################

data_RERWOD
_chemical_formula_moiety         'C12 H6 F1 I1 N4 O2'
_chemical_name_systematic        
4-fluoro-3-iodo-2-nitro-1-(pyrimidin-2-yl)-1H-indole
_symmetry_cell_setting           monoclinic
_symmetry_space_group_name_H-M   'P 21/c'
_symmetry_Int_Tables_number      14
_space_group_name_Hall           '-P 2ybc'
loop_
_symmetry_equiv_pos_site_id
_symmetry_equiv_pos_as_xyz
1 x,y,z
2 -x,1/2+y,1/2-z
3 -x,-y,-z
4 x,1/2-y,1/2+z
_cell_length_a                   16.618(5)
_cell_length_b                   9.329(3)
_cell_length_c                   8.150(3)
_cell_angle_alpha                90
_cell_angle_beta                 90.387(6)
_cell_angle_gamma                90
_cell_volume                     1263.46
_exptl_crystal_description       needle
_cell_formula_units_Z            4
loop_
_atom_site_label
_atom_site_type_symbol
_atom_site_fract_x
_atom_site_fract_y
_atom_site_fract_z
I1 I 0.17602(3) 0.28216(4) 0.53376(5)
F1 F 0.0423(2) 0.5206(4) 0.6684(4)
N1 N 0.2653(2) 0.6923(4) 0.3895(5)
O1 O 0.3456(2) 0.5064(5) 0.1768(5)
N2 N 0.3267(2) 0.4631(5) 0.3125(5)
N3 N 0.3143(2) 0.9092(5) 0.2948(5)
O2 O 0.3525(3) 0.3543(5) 0.3752(6)
N4 N 0.4039(2) 0.7274(5) 0.3918(6)
C1 C 0.1958(2) 0.7394(5) 0.4710(6)
C2 C 0.2026(3) 0.4929(5) 0.4865(5)
C3 C 0.3327(3) 0.7826(5) 0.3553(6)
C4 C 0.1547(2) 0.6153(5) 0.5287(5)
C5 C 0.2681(2) 0.5457(5) 0.4045(5)
C6 C 0.0825(3) 0.6356(6) 0.6121(6)
C7 C 0.3781(3) 0.9958(6) 0.2669(7)
H1 H 0.3694 1.0875 0.2254
C8 C 0.1661(3) 0.8762(6) 0.4969(7)
H2 H 0.1921 0.9568 0.4559
C9 C 0.0533(3) 0.7705(7) 0.6398(7)
H3 H 0.0049 0.7829 0.6943
C10 C 0.0959(3) 0.8873(6) 0.5868(7)
H4 H 0.0768 0.9782 0.6123
C11 C 0.4657(3) 0.8159(7) 0.3605(8)
H5 H 0.5177 0.7838 0.3818
C12 C 0.4557(3) 0.9509(7) 0.2987(7)
H6 H 0.4995 1.0102 0.2789
loop_
_geom_bond_atom_site_label_1
_geom_bond_atom_site_label_2
_geom_bond_site_symmetry_1
_geom_bond_site_symmetry_2
I1 C2 1_555 1_555
F1 C6 1_555 1_555
N1 C1 1_555 1_555
O1 N2 1_555 1_555
N2 O2 1_555 1_555
N3 C3 1_555 1_555
N4 C3 1_555 1_555
C1 C4 1_555 1_555
C2 C4 1_555 1_555
C3 N1 1_555 1_555
C4 C6 1_555 1_555
C5 N1 1_555 1_555
C6 C9 1_555 1_555
C7 N3 1_555 1_555
H1 C7 1_555 1_555
C8 C1 1_555 1_555
H2 C8 1_555 1_555
C9 H3 1_555 1_555
C10 C8 1_555 1_555
H4 C10 1_555 1_555
C11 N4 1_555 1_555
H5 C11 1_555 1_555
C12 C7 1_555 1_555
H6 C12 1_555 1_555
N2 C5 1_555 1_555
C2 C5 1_555 1_555
C9 C10 1_555 1_555
C11 C12 1_555 1_555

#END
