
#######################################################################
#
#                 Cambridge Crystallographic Data Centre
#                                CCDC 
#
#######################################################################
#
# If this CIF has been generated from an entry in the Cambridge 
# Structural Database, then it will include bibliographic, chemical, 
# crystal, experimental, refinement or atomic coordinate data resulting 
# from the CCDC's data processing and validation procedures.
#
#######################################################################

data_RERXET
_chemical_formula_moiety         'C31 H81 K1 O3 Si10'
_chemical_name_systematic        
tris(tetrahydrofuran)-(3,3,4,4-tetramethyl-1,2,2,5,5-pentakis(trimethylsilyl)pentasilolan-1-yl)-potassium
_symmetry_cell_setting           monoclinic
_symmetry_space_group_name_H-M   'P 21/c'
_symmetry_Int_Tables_number      14
_space_group_name_Hall           '-P 2ybc'
loop_
_symmetry_equiv_pos_site_id
_symmetry_equiv_pos_as_xyz
1 x,y,z
2 -x,1/2+y,1/2-z
3 -x,-y,-z
4 x,1/2-y,1/2+z
_cell_length_a                   10.925(3)
_cell_length_b                   25.574(7)
_cell_length_c                   18.928(5)
_cell_angle_alpha                90
_cell_angle_beta                 96.712(5)
_cell_angle_gamma                90
_cell_volume                     5252.16
_exptl_crystal_colour            yellow
_exptl_crystal_description       prism
_cell_formula_units_Z            4
loop_
_atom_site_label
_atom_site_type_symbol
_atom_site_fract_x
_atom_site_fract_y
_atom_site_fract_z
Si1 Si 0.30198(8) 0.55936(4) 0.76346(5)
Si2 Si 0.29384(8) 0.59538(4) 0.64697(5)
Si3 Si 0.11106(9) 0.64521(4) 0.62975(5)
Si4 Si 0.01402(9) 0.62964(4) 0.73195(5)
Si5 Si 0.17690(9) 0.61599(4) 0.82308(5)
Si6 Si 0.26477(10) 0.51992(4) 0.57603(5)
Si7 Si 0.44796(11) 0.64396(5) 0.59995(6)
Si8 Si 0.23637(10) 0.69593(4) 0.87797(6)
Si9 Si 0.09239(11) 0.56902(5) 0.91264(6)
Si10 Si 0.50324(9) 0.56362(4) 0.82045(5)
K1 K 0.21102(9) 0.43125(3) 0.75958(5)
O1 O -0.0220(3) 0.39299(15) 0.74882(19)
O2 O 0.2745(4) 0.36273(14) 0.8608(2)
O3 O 0.2735(3) 0.35264(13) 0.67909(19)
C1 C 0.1175(5) 0.4866(2) 0.5937(3)
C2 C 0.3955(4) 0.47295(17) 0.6005(3)
H1 H 0.3821 0.4417 0.5725
H2 H 0.3994 0.4643 0.6500
H3 H 0.4716 0.4889 0.5913
C3 C 0.2531(4) 0.53004(19) 0.4770(2)
H4 H 0.3319 0.5404 0.4641
H5 H 0.1935 0.5568 0.4632
H6 H 0.2279 0.4980 0.4532
C4 C 0.5951(4) 0.6069(2) 0.6003(3)
H7 H 0.6523 0.6271 0.5767
H8 H 0.5793 0.5743 0.5760
H9 H 0.6295 0.6004 0.6485
C5 C 0.3956(6) 0.6606(2) 0.5037(3)
H10 H 0.4554 0.6830 0.4858
H11 H 0.3176 0.6782 0.5005
H12 H 0.3874 0.6290 0.4761
C6 C 0.4855(5) 0.70738(18) 0.6476(3)
H13 H 0.5052 0.7008 0.6976
H14 H 0.4157 0.7303 0.6402
H15 H 0.5548 0.7234 0.6294
C7 C 0.0052(4) 0.6288(2) 0.5465(2)
H16 H -0.0654 0.6514 0.5429
H17 H -0.0213 0.5931 0.5487
H18 H 0.0484 0.6335 0.5056
C8 C 0.1426(5) 0.71841(17) 0.6230(2)
H19 H 0.1741 0.7257 0.5788
H20 H 0.2020 0.7289 0.6618
H21 H 0.0674 0.7375 0.6250
C9 C -0.0825(4) 0.56816(18) 0.7166(2)
H22 H -0.1364 0.5652 0.7529
H23 H -0.0293 0.5382 0.7182
H24 H -0.1306 0.5700 0.6708
C10 C -0.0950(4) 0.68538(19) 0.7460(2)
H25 H -0.1582 0.6872 0.7063
H26 H -0.0500 0.7177 0.7499
H27 H -0.1320 0.6795 0.7888
C11 C 0.3661(4) 0.68751(18) 0.9514(2)
H28 H 0.4405 0.6793 0.9313
H29 H 0.3467 0.6596 0.9821
H30 H 0.3774 0.7193 0.9782
C12 C 0.2897(6) 0.74480(18) 0.8154(3)
H31 H 0.3277 0.7737 0.8419
H32 H 0.2205 0.7571 0.7839
H33 H 0.3485 0.7288 0.7882
C13 C 0.1045(5) 0.7270(2) 0.9188(3)
H34 H 0.0862 0.7065 0.9588
H35 H 0.0331 0.7284 0.8841
H36 H 0.1271 0.7618 0.9343
C14 C 0.1860(5) 0.5730(3) 1.0030(2)
H37 H 0.1825 0.6080 1.0211
H38 H 0.2702 0.5640 0.9987
H39 H 0.1531 0.5492 1.0350
C15 C 0.0847(8) 0.4972(3) 0.8903(4)
C16 C -0.0687(5) 0.5916(2) 0.9239(3)
H40 H -0.0968 0.5740 0.9638
H41 H -0.1229 0.5836 0.8816
H42 H -0.0684 0.6287 0.9320
C17 C 0.5036(4) 0.5440(2) 0.9169(2)
H43 H 0.5870 0.5407 0.9388
H44 H 0.4621 0.5110 0.9195
H45 H 0.4617 0.5701 0.9414
C18 C 0.6007(4) 0.51295(18) 0.7816(3)
H46 H 0.6021 0.5197 0.7318
H47 H 0.5666 0.4789 0.7877
H48 H 0.6832 0.5144 0.8055
C19 C 0.5912(4) 0.62683(18) 0.8197(3)
H49 H 0.6655 0.6244 0.8521
H50 H 0.5413 0.6549 0.8342
H51 H 0.6116 0.6335 0.7726
C20 C -0.1096(5) 0.3974(4) 0.6876(3)
H52 H -0.1009 0.3680 0.6561
H53 H -0.0950 0.4293 0.6622
C21 C -0.2326(5) 0.3980(3) 0.7083(3)
H54 H -0.2853 0.3736 0.6799
H55 H -0.2681 0.4327 0.7024
C22 C -0.2185(6) 0.3824(3) 0.7847(3)
H56 H -0.2661 0.3512 0.7915
H57 H -0.2458 0.4102 0.8140
C23 C -0.0851(6) 0.3724(3) 0.8029(4)
H58 H -0.0561 0.3887 0.8480
H59 H -0.0703 0.3350 0.8073
C24 C 0.2276(7) 0.3117(2) 0.8502(3)
C25 C 0.2066(7) 0.2931(3) 0.9230(3)
H60 H 0.1248 0.3026 0.9337
H61 H 0.2160 0.2555 0.9268
C26 C 0.3004(6) 0.3196(3) 0.9706(3)
H62 H 0.3717 0.2972 0.9820
H63 H 0.2685 0.3293 1.0145
C27 C 0.3340(8) 0.3670(3) 0.9312(4)
H64 H 0.3068 0.3983 0.9537
H65 H 0.4226 0.3689 0.9310
C28 C 0.1816(6) 0.3251(2) 0.6369(3)
H66 H 0.1348 0.3485 0.6038
H67 H 0.1256 0.3088 0.6665
C29 C 0.2438(7) 0.2850(3) 0.5982(4)
H68 H 0.1966 0.2528 0.5941
H69 H 0.2562 0.2971 0.5510
C30 C 0.3599(7) 0.2777(3) 0.6418(5)
H70 H 0.4236 0.2682 0.6125
H71 H 0.3532 0.2501 0.6762
C31 C 0.3897(5) 0.3271(2) 0.6777(4)
H72 H 0.4295 0.3213 0.7256
H73 H 0.4439 0.3478 0.6518
H74 H 0.126(6) 0.320(3) 0.829(4)
H75 H 0.307(6) 0.290(3) 0.832(3)
H76 H 0.049(5) 0.490(2) 0.924(3)
H77 H 0.036(6) 0.490(2) 0.845(4)
H78 H 0.157(13) 0.469(5) 0.897(7)
H79 H 0.106(3) 0.4930(14) 0.637(2)
H80 H 0.044(5) 0.502(2) 0.565(3)
H81 H 0.124(5) 0.460(2) 0.583(3)
loop_
_geom_bond_atom_site_label_1
_geom_bond_atom_site_label_2
_geom_bond_site_symmetry_1
_geom_bond_site_symmetry_2
Si1 Si2 1_555 1_555
Si2 Si3 1_555 1_555
Si3 Si4 1_555 1_555
Si4 Si5 1_555 1_555
Si5 Si1 1_555 1_555
Si6 Si2 1_555 1_555
Si7 Si2 1_555 1_555
Si8 Si5 1_555 1_555
Si9 Si5 1_555 1_555
Si10 Si1 1_555 1_555
K1 Si1 1_555 1_555
O1 K1 1_555 1_555
O2 K1 1_555 1_555
O3 K1 1_555 1_555
C1 Si6 1_555 1_555
C2 Si6 1_555 1_555
H1 C2 1_555 1_555
H2 C2 1_555 1_555
H3 C2 1_555 1_555
C3 Si6 1_555 1_555
H4 C3 1_555 1_555
H5 C3 1_555 1_555
H6 C3 1_555 1_555
C4 Si7 1_555 1_555
H7 C4 1_555 1_555
H8 C4 1_555 1_555
H9 C4 1_555 1_555
C5 Si7 1_555 1_555
H10 C5 1_555 1_555
H11 C5 1_555 1_555
H12 C5 1_555 1_555
C6 Si7 1_555 1_555
H13 C6 1_555 1_555
H14 C6 1_555 1_555
H15 C6 1_555 1_555
C7 Si3 1_555 1_555
H16 C7 1_555 1_555
H17 C7 1_555 1_555
H18 C7 1_555 1_555
C8 Si3 1_555 1_555
H19 C8 1_555 1_555
H20 C8 1_555 1_555
H21 C8 1_555 1_555
C9 Si4 1_555 1_555
H22 C9 1_555 1_555
H23 C9 1_555 1_555
H24 C9 1_555 1_555
C10 Si4 1_555 1_555
H25 C10 1_555 1_555
H26 C10 1_555 1_555
H27 C10 1_555 1_555
C11 Si8 1_555 1_555
H28 C11 1_555 1_555
H29 C11 1_555 1_555
H30 C11 1_555 1_555
C12 Si8 1_555 1_555
H31 C12 1_555 1_555
H32 C12 1_555 1_555
H33 C12 1_555 1_555
C13 Si8 1_555 1_555
H34 C13 1_555 1_555
H35 C13 1_555 1_555
H36 C13 1_555 1_555
C14 Si9 1_555 1_555
H37 C14 1_555 1_555
H38 C14 1_555 1_555
H39 C14 1_555 1_555
C15 Si9 1_555 1_555
C16 Si9 1_555 1_555
H40 C16 1_555 1_555
H41 C16 1_555 1_555
H42 C16 1_555 1_555
C17 Si10 1_555 1_555
H43 C17 1_555 1_555
H44 C17 1_555 1_555
H45 C17 1_555 1_555
C18 Si10 1_555 1_555
H46 C18 1_555 1_555
H47 C18 1_555 1_555
H48 C18 1_555 1_555
C19 Si10 1_555 1_555
H49 C19 1_555 1_555
H50 C19 1_555 1_555
H51 C19 1_555 1_555
C20 O1 1_555 1_555
H52 C20 1_555 1_555
H53 C20 1_555 1_555
C21 C20 1_555 1_555
H54 C21 1_555 1_555
H55 C21 1_555 1_555
C22 C21 1_555 1_555
H56 C22 1_555 1_555
H57 C22 1_555 1_555
C23 O1 1_555 1_555
H58 C23 1_555 1_555
H59 C23 1_555 1_555
C24 O2 1_555 1_555
C25 C24 1_555 1_555
H60 C25 1_555 1_555
H61 C25 1_555 1_555
C26 C25 1_555 1_555
H62 C26 1_555 1_555
H63 C26 1_555 1_555
C27 O2 1_555 1_555
H64 C27 1_555 1_555
H65 C27 1_555 1_555
C28 O3 1_555 1_555
H66 C28 1_555 1_555
H67 C28 1_555 1_555
C29 C28 1_555 1_555
H68 C29 1_555 1_555
H69 C29 1_555 1_555
C30 C29 1_555 1_555
H70 C30 1_555 1_555
H71 C30 1_555 1_555
C31 O3 1_555 1_555
H72 C31 1_555 1_555
H73 C31 1_555 1_555
H74 C24 1_555 1_555
H75 C24 1_555 1_555
H76 C15 1_555 1_555
H77 C15 1_555 1_555
H78 C15 1_555 1_555
H79 C1 1_555 1_555
H80 C1 1_555 1_555
H81 C1 1_555 1_555
C22 C23 1_555 1_555
C26 C27 1_555 1_555
C30 C31 1_555 1_555

#END
