
#######################################################################
#
#                 Cambridge Crystallographic Data Centre
#                                CCDC 
#
#######################################################################
#
# If this CIF has been generated from an entry in the Cambridge 
# Structural Database, then it will include bibliographic, chemical, 
# crystal, experimental, refinement or atomic coordinate data resulting 
# from the CCDC's data processing and validation procedures.
#
#######################################################################

data_RERXUJ
_chemical_formula_moiety         'C22 H28 O7'
_chemical_name_systematic        
4,4'-(3,4-Dimethyltetrahydrofuran-2,2-diyl)bis(2,6-dimethoxyphenol)
_symmetry_cell_setting           monoclinic
_symmetry_space_group_name_H-M   'C 2/c'
_symmetry_Int_Tables_number      15
_space_group_name_Hall           '-C 2yn'
loop_
_symmetry_equiv_pos_site_id
_symmetry_equiv_pos_as_xyz
1 x,y,z
2 -x,y,1/2-z
3 1/2+x,1/2+y,z
4 1/2-x,1/2+y,1/2-z
5 -x,-y,-z
6 x,-y,1/2+z
7 1/2-x,1/2-y,-z
8 1/2+x,1/2-y,1/2+z
_cell_length_a                   12.701(9)
_cell_length_b                   13.483(10)
_cell_length_c                   24.743(18)
_cell_angle_alpha                90
_cell_angle_beta                 95.229(6)
_cell_angle_gamma                90
_cell_volume                     4219.55
_exptl_crystal_colour            colorless
_exptl_crystal_description       block
_cell_formula_units_Z            8
loop_
_atom_site_label
_atom_site_type_symbol
_atom_site_fract_x
_atom_site_fract_y
_atom_site_fract_z
C1 C 0.11991(17) 0.82614(15) 0.67888(9)
C2 C 0.07076(18) 0.73576(15) 0.66854(10)
H1 H 0.0116 0.7322 0.6435
C3 C 0.10825(19) 0.65022(16) 0.69491(11)
C4 C 0.19648(18) 0.65390(16) 0.73204(10)
C5 C 0.24516(18) 0.74483(16) 0.74282(9)
C6 C 0.20795(18) 0.83005(16) 0.71686(9)
H2 H 0.2416 0.8903 0.7247
C7 C -0.0284(3) 0.5500(2) 0.65270(17)
H3 H -0.0803 0.5947 0.6648
H4 H -0.0543 0.4832 0.6537
H5 H -0.0149 0.5666 0.6162
C8 C 0.3847(2) 0.8291(2) 0.79406(13)
H6 H 0.4087 0.8580 0.7619
H7 H 0.4442 0.8161 0.8198
H8 H 0.3373 0.8741 0.8096
C9 C 0.17102(16) 0.95226(15) 0.61118(8)
C10 C 0.18636(17) 1.05178(16) 0.60018(9)
H9 H 0.1480 1.0995 0.6171
C11 C 0.25802(18) 1.08117(18) 0.56432(9)
C12 C 0.31647(18) 1.0105(2) 0.53958(10)
C13 C 0.30301(19) 0.9115(2) 0.55119(10)
C14 C 0.23073(18) 0.88163(18) 0.58638(9)
H10 H 0.2219 0.8146 0.5935
C15 C 0.2189(3) 1.2510(2) 0.57529(14)
H11 H 0.1450 1.2375 0.5668
H12 H 0.2355 1.3148 0.5610
H13 H 0.2350 1.2510 0.6140
C16 C 0.3851(3) 0.7536(3) 0.54821(14)
H14 H 0.3999 0.7594 0.5868
H15 H 0.4443 0.7236 0.5330
H16 H 0.3235 0.7130 0.5403
C17 C 0.08632(16) 0.92085(14) 0.64785(9)
C18 C -0.02521(17) 0.91623(16) 0.61625(9)
H17 H -0.0678 0.8698 0.6355
C19 C -0.06963(18) 1.01977(17) 0.62380(10)
H18 H -0.0385 1.0655 0.5989
C20 C -0.02605(19) 1.04282(19) 0.68093(10)
H19 H -0.0229 1.1139 0.6867
H20 H -0.0701 1.0137 0.7068
C21 C -0.0293(2) 0.8819(2) 0.55743(10)
H21 H -0.1006 0.8864 0.5410
H22 H -0.0056 0.8144 0.5563
H23 H 0.0157 0.9233 0.5379
C22 C -0.18975(19) 1.0274(2) 0.61509(13)
H24 H -0.2209 0.9804 0.6380
H25 H -0.2126 1.0134 0.5778
H26 H -0.2114 1.0932 0.6240
O1 O 0.06528(15) 0.55818(12) 0.68677(9)
O2 O 0.23187(14) 0.56773(11) 0.75631(8)
H27 H 0.2894 0.5774 0.7733
O3 O 0.33171(14) 0.73990(12) 0.78057(7)
O4 O 0.07777(12) 1.00078(10) 0.68714(6)
O5 O 0.27904(15) 1.17754(13) 0.55201(8)
O6 O 0.38974(15) 1.04055(16) 0.50547(8)
H28 H 0.4288 0.9940 0.4999
O7 O 0.36672(17) 0.84816(16) 0.52555(9)
loop_
_geom_bond_atom_site_label_1
_geom_bond_atom_site_label_2
_geom_bond_site_symmetry_1
_geom_bond_site_symmetry_2
C1 C2 1_555 1_555
C2 H1 1_555 1_555
C3 C2 1_555 1_555
C4 C3 1_555 1_555
C5 C4 1_555 1_555
C6 C1 1_555 1_555
H2 C6 1_555 1_555
C7 H3 1_555 1_555
H4 C7 1_555 1_555
H5 C7 1_555 1_555
C8 H6 1_555 1_555
H7 C8 1_555 1_555
H8 C8 1_555 1_555
C9 C10 1_555 1_555
C10 H9 1_555 1_555
C11 C10 1_555 1_555
C12 C11 1_555 1_555
C13 C12 1_555 1_555
C14 C9 1_555 1_555
H10 C14 1_555 1_555
C15 H11 1_555 1_555
H12 C15 1_555 1_555
H13 C15 1_555 1_555
C16 H14 1_555 1_555
H15 C16 1_555 1_555
H16 C16 1_555 1_555
C17 C1 1_555 1_555
C18 C17 1_555 1_555
H17 C18 1_555 1_555
C19 C18 1_555 1_555
H18 C19 1_555 1_555
C20 C19 1_555 1_555
H19 C20 1_555 1_555
H20 C20 1_555 1_555
C21 C18 1_555 1_555
H21 C21 1_555 1_555
H22 C21 1_555 1_555
H23 C21 1_555 1_555
C22 C19 1_555 1_555
H24 C22 1_555 1_555
H25 C22 1_555 1_555
H26 C22 1_555 1_555
O1 C3 1_555 1_555
O2 C4 1_555 1_555
H27 O2 1_555 1_555
O3 C5 1_555 1_555
O4 C17 1_555 1_555
O5 C11 1_555 1_555
O6 C12 1_555 1_555
H28 O6 1_555 1_555
O7 C13 1_555 1_555
C5 C6 1_555 1_555
C7 O1 1_555 1_555
C8 O3 1_555 1_555
C9 C17 1_555 1_555
C13 C14 1_555 1_555
C15 O5 1_555 1_555
C16 O7 1_555 1_555
C20 O4 1_555 1_555

#END
