
#######################################################################
#
#                 Cambridge Crystallographic Data Centre
#                                CCDC 
#
#######################################################################
#
# If this CIF has been generated from an entry in the Cambridge 
# Structural Database, then it will include bibliographic, chemical, 
# crystal, experimental, refinement or atomic coordinate data resulting 
# from the CCDC's data processing and validation procedures.
#
#######################################################################

data_RERYEV
_chemical_formula_moiety         
'C36 H36 N24 O12,2(C14 H7 N2 O8 S2 1-),2(H4 N1 1+),2(H2 O1)'
_chemical_name_systematic        
'cucurbit(6)uril bis(ammonium) bis(5-[(3-carboxy-4-nitrophenyl)disulfanyl]-2-nitrobenzoate) dihydrate'
_symmetry_cell_setting           monoclinic
_symmetry_space_group_name_H-M   'C 2/m'
_symmetry_Int_Tables_number      12
_space_group_name_Hall           '-C 2y'
loop_
_symmetry_equiv_pos_site_id
_symmetry_equiv_pos_as_xyz
1 x,y,z
2 -x,y,-z
3 1/2+x,1/2+y,z
4 1/2-x,1/2+y,-z
5 -x,-y,-z
6 x,-y,z
7 1/2-x,1/2-y,-z
8 1/2+x,1/2-y,z
_cell_length_a                   12.606(3)
_cell_length_b                   30.281(7)
_cell_length_c                   10.549(2)
_cell_angle_alpha                90
_cell_angle_beta                 100.051(5)
_cell_angle_gamma                90
_cell_volume                     3964.99
_exptl_crystal_colour            colorless
_exptl_crystal_description       plate
_cell_formula_units_Z            2
loop_
_atom_site_label
_atom_site_type_symbol
_atom_site_fract_x
_atom_site_fract_y
_atom_site_fract_z
C11 C 0.2174(3) 0.71119(12) 0.7346(3)
C12 C 0.2997(3) 0.74184(12) 0.7638(3)
H10 H 0.3099 0.7635 0.7019
C13 C 0.3678(3) 0.74120(13) 0.8836(3)
C14 C 0.2056(3) 0.67968(12) 0.8271(3)
C15 C 0.3549(3) 0.70949(14) 0.9744(4)
H11 H 0.4012 0.7092 1.0557
C16 C 0.2742(3) 0.67833(14) 0.9456(4)
H12 H 0.2655 0.6561 1.0065
C17 C 0.1460(3) 0.71566(12) 0.6036(3)
N7 N 0.1216(3) 0.64599(11) 0.8010(3)
O5 O 0.1765(2) 0.70085(11) 0.5091(2)
O6 O 0.0605(2) 0.73856(9) 0.6049(2)
O7 O 0.0664(2) 0.64498(10) 0.6932(3)
O8 O 0.1080(3) 0.62131(12) 0.8870(3)
S1 S 0.46902(8) 0.78237(4) 0.90479(9)
C11A C 0.7826(3) 0.71119(12) 1.2654(3)
C12A C 0.7003(3) 0.74184(12) 1.2362(3)
H10A H 0.6901 0.7635 1.2981
C13A C 0.6322(3) 0.74120(13) 1.1164(3)
C14A C 0.7944(3) 0.67968(12) 1.1729(3)
C15A C 0.6451(3) 0.70949(14) 1.0256(4)
H11A H 0.5988 0.7092 0.9443
C16A C 0.7258(3) 0.67833(14) 1.0544(4)
H12A H 0.7345 0.6561 0.9935
C17A C 0.8540(3) 0.71566(12) 1.3964(3)
N7A N 0.8784(3) 0.64599(11) 1.1990(3)
O5A O 0.8235(2) 0.70085(11) 1.4909(2)
O6A O 0.9395(2) 0.73856(9) 1.3951(2)
O7A O 0.9336(2) 0.64498(10) 1.3068(3)
O8A O 0.8920(3) 0.62131(12) 1.1130(3)
S1A S 0.53098(8) 0.78237(4) 1.09521(9)
N8 N 0.3810(6) 0.5482(2) 0.9171(5)
H13 H 0.3568 0.5625 0.8444
H14 H 0.3340 0.5479 0.9698
H15 H 0.3973 0.5196 0.8977
H16 H 0.4439 0.5608 0.9567
N8E N 0.3810(6) 0.4518(2) 0.9171(5)
H13E H 0.3568 0.4375 0.8444
H14E H 0.3340 0.4521 0.9698
H15E H 0.3973 0.4804 0.8977
H16E H 0.4439 0.4392 0.9567
C1 C 0.2338(5) 0.5000 0.1879(5)
C2 C 0.1297(4) 0.5000 0.5063(5)
C3 C 0.1309(3) 0.58087(12) 0.4800(4)
H1 H 0.1211 0.5806 0.5711
H2 H 0.0738 0.5998 0.4316
C4 C 0.1996(3) 0.57984(13) 0.1741(3)
H3 H 0.2242 0.5760 0.0907
H4 H 0.1288 0.5949 0.1570
C5 C 0.3076(3) 0.60907(12) 0.5840(4)
C6 C 0.3807(3) 0.61442(13) 0.2404(4)
C7 C 0.2509(3) 0.62944(12) 0.3689(3)
H5 H 0.1895 0.6506 0.3465
C8 C 0.3573(3) 0.65397(12) 0.4240(3)
H6 H 0.3469 0.6867 0.4233
C9 C 0.5374(3) 0.65777(13) 0.3463(4)
H7 H 0.5606 0.6536 0.2621
H8 H 0.5366 0.6899 0.3633
C10 C 0.0980(3) 0.52577(12) 0.2950(3)
H9 H 0.0278 0.5380 0.2498
N1 N 0.1858(3) 0.53653(10) 0.2280(3)
N2 N 0.1173(3) 0.53644(10) 0.4299(3)
N3 N 0.2756(3) 0.60788(11) 0.2559(3)
N4 N 0.4289(2) 0.64060(11) 0.3381(3)
N5 N 0.2348(2) 0.60038(10) 0.4730(3)
N6 N 0.3841(3) 0.63697(10) 0.5541(3)
O1 O 0.4211(2) 0.60024(10) 0.1516(3)
O2 O 0.3074(4) 0.5000 0.1262(4)
O3 O 0.1440(3) 0.5000 0.6248(3)
O4 O 0.3031(2) 0.59420(10) 0.6902(3)
C1A C 0.7662(5) 0.5000 0.8121(5)
C2A C 0.8703(4) 0.5000 0.4937(5)
C3A C 0.8691(3) 0.58087(12) 0.5200(4)
H1A H 0.8789 0.5806 0.4289
H2A H 0.9262 0.5998 0.5684
C4A C 0.8004(3) 0.57984(13) 0.8259(3)
H3A H 0.7758 0.5760 0.9093
H4A H 0.8712 0.5949 0.8430
C5A C 0.6924(3) 0.60907(12) 0.4160(4)
C6A C 0.6193(3) 0.61442(13) 0.7596(4)
C7A C 0.7491(3) 0.62944(12) 0.6311(3)
H5A H 0.8105 0.6506 0.6535
C8A C 0.6427(3) 0.65397(12) 0.5760(3)
H6A H 0.6531 0.6867 0.5767
C9A C 0.4626(3) 0.65777(13) 0.6537(4)
H7A H 0.4394 0.6536 0.7379
H8A H 0.4634 0.6899 0.6367
C10A C 0.9020(3) 0.52577(12) 0.7050(3)
H9A H 0.9722 0.5380 0.7502
N1A N 0.8142(3) 0.53653(10) 0.7720(3)
N2A N 0.8827(3) 0.53644(10) 0.5701(3)
N3A N 0.7244(3) 0.60788(11) 0.7441(3)
N4A N 0.5711(2) 0.64060(11) 0.6619(3)
N5A N 0.7652(2) 0.60038(10) 0.5270(3)
N6A N 0.6159(3) 0.63697(10) 0.4459(3)
O1A O 0.5789(2) 0.60024(10) 0.8484(3)
O2A O 0.6926(4) 0.5000 0.8738(4)
O3A O 0.8560(3) 0.5000 0.3752(3)
O4A O 0.6969(2) 0.59420(10) 0.3098(3)
C3E C 0.1309(3) 0.41913(12) 0.4800(4)
H1E H 0.1211 0.4194 0.5711
H2E H 0.0738 0.4002 0.4316
C4E C 0.1996(3) 0.42016(13) 0.1741(3)
H3E H 0.2242 0.4240 0.0907
H4E H 0.1288 0.4051 0.1570
C5E C 0.3076(3) 0.39093(12) 0.5840(4)
C6E C 0.3807(3) 0.38558(13) 0.2404(4)
C7E C 0.2509(3) 0.37056(12) 0.3689(3)
H5E H 0.1895 0.3494 0.3465
C8E C 0.3573(3) 0.34603(12) 0.4240(3)
H6E H 0.3469 0.3133 0.4233
C9E C 0.5374(3) 0.34223(13) 0.3463(4)
H7E H 0.5606 0.3464 0.2621
H8E H 0.5366 0.3101 0.3633
C10E C 0.0980(3) 0.47423(12) 0.2950(3)
H9E H 0.0278 0.4620 0.2498
N1E N 0.1858(3) 0.46347(10) 0.2280(3)
N2E N 0.1173(3) 0.46356(10) 0.4299(3)
N3E N 0.2756(3) 0.39212(11) 0.2559(3)
N4E N 0.4289(2) 0.35940(11) 0.3381(3)
N5E N 0.2348(2) 0.39962(10) 0.4730(3)
N6E N 0.3841(3) 0.36303(10) 0.5541(3)
O1E O 0.4211(2) 0.39976(10) 0.1516(3)
O4E O 0.3031(2) 0.40580(10) 0.6902(3)
C3D C 0.8691(3) 0.41913(12) 0.5200(4)
H1D H 0.8789 0.4194 0.4289
H2D H 0.9262 0.4002 0.5684
C4D C 0.8004(3) 0.42016(13) 0.8259(3)
H3D H 0.7758 0.4240 0.9093
H4D H 0.8712 0.4051 0.8430
C5D C 0.6924(3) 0.39093(12) 0.4160(4)
C6D C 0.6193(3) 0.38558(13) 0.7596(4)
C7D C 0.7491(3) 0.37056(12) 0.6311(3)
H5D H 0.8105 0.3494 0.6535
C8D C 0.6427(3) 0.34603(12) 0.5760(3)
H6D H 0.6531 0.3133 0.5767
C9D C 0.4626(3) 0.34223(13) 0.6537(4)
H7D H 0.4394 0.3464 0.7379
H8D H 0.4634 0.3101 0.6367
C10D C 0.9020(3) 0.47423(12) 0.7050(3)
H9D H 0.9722 0.4620 0.7502
N1D N 0.8142(3) 0.46347(10) 0.7720(3)
N2D N 0.8827(3) 0.46356(10) 0.5701(3)
N3D N 0.7244(3) 0.39212(11) 0.7441(3)
N4D N 0.5711(2) 0.35940(11) 0.6619(3)
N5D N 0.7652(2) 0.39962(10) 0.5270(3)
N6D N 0.6159(3) 0.36303(10) 0.4459(3)
O1D O 0.5789(2) 0.39976(10) 0.8484(3)
O4D O 0.6969(2) 0.40580(10) 0.3098(3)
H17? H 0.0240 0.7391 0.5292
loop_
_geom_bond_atom_site_label_1
_geom_bond_atom_site_label_2
_geom_bond_site_symmetry_1
_geom_bond_site_symmetry_2
C1 N1 1_555 1_555
C2 N2 1_555 1_555
C3 H1 1_555 1_555
H2 C3 1_555 1_555
C4 H3 1_555 1_555
H4 C4 1_555 1_555
C5 N5 1_555 1_555
C6 N3 1_555 1_555
C7 H5 1_555 1_555
C8 C7 1_555 1_555
H6 C8 1_555 1_555
C9 H7 1_555 1_555
H8 C9 1_555 1_555
C10 H9 1_555 1_555
N1 C4 1_555 1_555
N2 C3 1_555 1_555
N3 C4 1_555 1_555
N4 C6 1_555 1_555
N5 C3 1_555 1_555
N6 C5 1_555 1_555
O1 C6 1_555 1_555
O2 C1 1_555 1_555
O3 C2 1_555 1_555
O4 C5 1_555 1_555
C11 C12 1_555 1_555
C12 H10 1_555 1_555
C13 C12 1_555 1_555
C14 C11 1_555 1_555
C15 C13 1_555 1_555
H11 C15 1_555 1_555
C16 C14 1_555 1_555
H12 C16 1_555 1_555
C17 C11 1_555 1_555
N7 C14 1_555 1_555
O5 C17 1_555 1_555
O6 C17 1_555 1_555
O7 N7 1_555 1_555
O8 N7 1_555 1_555
S1 C13 1_555 1_555
N8 H13 1_555 1_555
H14 N8 1_555 1_555
H15 N8 1_555 1_555
H16 N8 1_555 1_555
C1A N1A 1_555 1_555
C2A N2A 1_555 1_555
C3A H1A 1_555 1_555
H2A C3A 1_555 1_555
C4A H3A 1_555 1_555
H4A C4A 1_555 1_555
C5A N5A 1_555 1_555
C6A N3A 1_555 1_555
C7A H5A 1_555 1_555
C8A C7A 1_555 1_555
H6A C8A 1_555 1_555
C9A N6 1_555 1_555
H7A C9A 1_555 1_555
H8A C9A 1_555 1_555
C10A H9A 1_555 1_555
N1A C4A 1_555 1_555
N2A C3A 1_555 1_555
N3A C4A 1_555 1_555
N4A C6A 1_555 1_555
N5A C3A 1_555 1_555
N6A C9 1_555 1_555
O1A C6A 1_555 1_555
O2A C1A 1_555 1_555
O3A C2A 1_555 1_555
O4A C5A 1_555 1_555
C3E H1E 1_555 1_555
H2E C3E 1_555 1_555
C4E H3E 1_555 1_555
H4E C4E 1_555 1_555
C5E N5E 1_555 1_555
C6E N3E 1_555 1_555
C7E H5E 1_555 1_555
C8E C7E 1_555 1_555
H6E C8E 1_555 1_555
C9E H7E 1_555 1_555
H8E C9E 1_555 1_555
C10E C10 1_555 1_555
H9E C10E 1_555 1_555
N1E C1 1_555 1_555
N2E C2 1_555 1_555
N3E C4E 1_555 1_555
N4E C6E 1_555 1_555
N5E C3E 1_555 1_555
N6E C5E 1_555 1_555
O1E C6E 1_555 1_555
O4E C5E 1_555 1_555
C3D H1D 1_555 1_555
H2D C3D 1_555 1_555
C4D H3D 1_555 1_555
H4D C4D 1_555 1_555
C5D N5D 1_555 1_555
C6D N3D 1_555 1_555
C7D H5D 1_555 1_555
C8D C7D 1_555 1_555
H6D C8D 1_555 1_555
C9D N6E 1_555 1_555
H7D C9D 1_555 1_555
H8D C9D 1_555 1_555
C10D C10A 1_555 1_555
H9D C10D 1_555 1_555
N1D C1A 1_555 1_555
N2D C2A 1_555 1_555
N3D C4D 1_555 1_555
N4D C6D 1_555 1_555
N5D C3D 1_555 1_555
N6D C9E 1_555 1_555
O1D C6D 1_555 1_555
O4D C5D 1_555 1_555
C11A C12A 1_555 1_555
C12A H10A 1_555 1_555
C13A C12A 1_555 1_555
C14A C11A 1_555 1_555
C15A C13A 1_555 1_555
H11A C15A 1_555 1_555
C16A C14A 1_555 1_555
H12A C16A 1_555 1_555
C17A C11A 1_555 1_555
N7A C14A 1_555 1_555
O5A C17A 1_555 1_555
O6A C17A 1_555 1_555
O7A N7A 1_555 1_555
O8A N7A 1_555 1_555
S1A S1 1_555 1_555
N8E H13E 1_555 1_555
H14E N8E 1_555 1_555
H15E N8E 1_555 1_555
H16E N8E 1_555 1_555
C7 N3 1_555 1_555
C7 N5 1_555 1_555
C8 N4 1_555 1_555
C8 N6 1_555 1_555
C9 N4 1_555 1_555
C10 N1 1_555 1_555
C10 N2 1_555 1_555
C15 C16 1_555 1_555
C5A N6A 1_555 1_555
C7A N3A 1_555 1_555
C7A N5A 1_555 1_555
C8A N4A 1_555 1_555
C8A N6A 1_555 1_555
C9A N4A 1_555 1_555
C10A N1A 1_555 1_555
C10A N2A 1_555 1_555
C3E N2E 1_555 1_555
C4E N1E 1_555 1_555
C7E N3E 1_555 1_555
C7E N5E 1_555 1_555
C8E N4E 1_555 1_555
C8E N6E 1_555 1_555
C9E N4E 1_555 1_555
C10E N1E 1_555 1_555
C10E N2E 1_555 1_555
C3D N2D 1_555 1_555
C4D N1D 1_555 1_555
C5D N6D 1_555 1_555
C7D N3D 1_555 1_555
C7D N5D 1_555 1_555
C8D N4D 1_555 1_555
C8D N6D 1_555 1_555
C9D N4D 1_555 1_555
C10D N1D 1_555 1_555
C10D N2D 1_555 1_555
C13A S1A 1_555 1_555
C15A C16A 1_555 1_555

#END
