
#######################################################################
#
#                 Cambridge Crystallographic Data Centre
#                                CCDC 
#
#######################################################################
#
# If this CIF has been generated from an entry in the Cambridge 
# Structural Database, then it will include bibliographic, chemical, 
# crystal, experimental, refinement or atomic coordinate data resulting 
# from the CCDC's data processing and validation procedures.
#
#######################################################################

data_RERZIA
_chemical_compound_source        'roots of Croton crassifolius'
_chemical_name_common            'bicrotonol A'
_chemical_formula_moiety         'C40 H68 O4'
_chemical_name_systematic        
4,4,6a,7a,12b-pentamethyl-11-[(3,4a,7,7,10a-pentamethyldodecahydro-1H-naphtho[2,1-b]pyran-3-yl)methyl]tetradecahydro-2H,7aH-naphtho[2,1-b]pyrano[3,4-e]pyran-9-ol
_chemical_properties_biological  
"tested for activity against Alzheimer's disease"
_symmetry_cell_setting           monoclinic
_symmetry_space_group_name_H-M   'C 2'
_symmetry_Int_Tables_number      5
_space_group_name_Hall           'C 2y'
loop_
_symmetry_equiv_pos_site_id
_symmetry_equiv_pos_as_xyz
1 x,y,z
2 -x,y,-z
3 1/2+x,1/2+y,z
4 1/2-x,1/2+y,-z
_cell_length_a                   23.0565(10)
_cell_length_b                   6.6594(2)
_cell_length_c                   26.3805(11)
_cell_angle_alpha                90
_cell_angle_beta                 117.810(6)
_cell_angle_gamma                90
_cell_volume                     3582.69
_exptl_crystal_colour            'light colorless'
_exptl_crystal_description       needle
_cell_formula_units_Z            4
loop_
_atom_site_label
_atom_site_type_symbol
_atom_site_fract_x
_atom_site_fract_y
_atom_site_fract_z
O1 O -0.38940(8) -0.4824(3) -0.09694(7)
O2 O -0.54550(11) -0.0345(3) -0.23124(9)
H1 H -0.5756 -0.0156 -0.2635
O3 O -0.52894(8) -0.3380(3) -0.26368(7)
O4 O -0.62689(8) -0.7994(3) -0.32848(7)
C1 C -0.27169(13) -0.7473(5) -0.19689(11)
H2 H -0.2900 -0.8676 -0.1892
H3 H -0.3019 -0.7017 -0.2352
C2 C -0.20580(14) -0.7997(6) -0.19485(12)
H4 H -0.2121 -0.9085 -0.2214
H5 H -0.1896 -0.6841 -0.2068
C3 C -0.15540(14) -0.8620(6) -0.13486(13)
H6 H -0.1139 -0.8858 -0.1350
H7 H -0.1693 -0.9880 -0.1255
C4 C -0.14421(14) -0.7102(5) -0.08781(12)
C5 C -0.21221(13) -0.6539(5) -0.09298(10)
H8 H -0.2292 -0.7809 -0.0866
C6 C -0.20917(12) -0.5156(5) -0.04521(10)
H9 H -0.1759 -0.5643 -0.0084
H10 H -0.1969 -0.3813 -0.0508
C7 C -0.27543(12) -0.5078(5) -0.04507(10)
H11 H -0.2855 -0.6400 -0.0359
H12 H -0.2724 -0.4158 -0.0154
C8 C -0.33080(12) -0.4408(4) -0.10240(10)
C9 C -0.33155(11) -0.5758(4) -0.15002(9)
H13 H -0.3374 -0.7122 -0.1393
C10 C -0.26572(12) -0.5836(4) -0.15341(10)
C11 C -0.39398(11) -0.5334(4) -0.20605(9)
H14 H -0.3937 -0.6116 -0.2369
H15 H -0.3958 -0.3923 -0.2158
C12 C -0.45400(11) -0.5894(4) -0.19847(9)
H16 H -0.4516 -0.7340 -0.1908
C13 C -0.45382(12) -0.4820(4) -0.14666(10)
C14 C -0.47872(14) -0.2646(4) -0.16219(11)
H17 H -0.4890 -0.2134 -0.1329
H18 H -0.4435 -0.1829 -0.1615
C15 C -0.53838(14) -0.2397(4) -0.21981(12)
H19 H -0.5773 -0.2932 -0.2186
C16 C -0.49409(13) -0.5986(5) -0.12472(11)
H20 H -0.4762 -0.7312 -0.1137
H21 H -0.5386 -0.6077 -0.1544
H22 H -0.4929 -0.5307 -0.0921
C17 C -0.32396(14) -0.2139(4) -0.10891(11)
H23 H -0.3467 -0.1782 -0.1488
H24 H -0.2784 -0.1800 -0.0936
H25 H -0.3425 -0.1417 -0.0884
C18 C -0.10271(15) -0.8147(7) -0.02985(13)
H26 H -0.0898 -0.7182 0.0005
H27 H -0.0644 -0.8724 -0.0295
H28 H -0.1281 -0.9188 -0.0245
C19 C -0.10393(14) -0.5313(6) -0.09080(14)
H29 H -0.1041 -0.4264 -0.0659
H30 H -0.1228 -0.4822 -0.1294
H31 H -0.0596 -0.5734 -0.0789
C20 C -0.25076(13) -0.3824(4) -0.17367(11)
H32 H -0.2910 -0.3229 -0.2016
H33 H -0.2224 -0.4055 -0.1905
H34 H -0.2296 -0.2935 -0.1415
C21 C -0.83190(12) -0.4163(4) -0.43301(10)
H35 H -0.8254 -0.3794 -0.4656
H36 H -0.8059 -0.3258 -0.4018
C22 C -0.90474(13) -0.3888(5) -0.44918(12)
H37 H -0.9174 -0.2500 -0.4596
H38 H -0.9315 -0.4726 -0.4819
C23 C -0.91594(14) -0.4467(5) -0.39845(12)
H39 H -0.9623 -0.4333 -0.4098
H40 H -0.8925 -0.3526 -0.3675
C24 C -0.89417(13) -0.6603(5) -0.37585(10)
C25 C -0.82227(12) -0.6899(4) -0.36478(10)
H41 H -0.7968 -0.5937 -0.3343
C26 C -0.79229(13) -0.8943(4) -0.33954(11)
H42 H -0.8115 -0.9965 -0.3690
H43 H -0.8026 -0.9278 -0.3089
C27 C -0.71770(12) -0.8939(4) -0.31618(11)
H44 H -0.6982 -0.8029 -0.2838
H45 H -0.7009 -1.0275 -0.3026
C28 C -0.69722(11) -0.8302(4) -0.36121(10)
C29 C -0.73071(11) -0.6293(4) -0.38806(9)
H46 H -0.7163 -0.5365 -0.3556
C30 C -0.80733(12) -0.6318(4) -0.41494(9)
C31 C -0.70076(11) -0.5454(4) -0.42485(9)
H47 H -0.7068 -0.6400 -0.4549
H48 H -0.7220 -0.4202 -0.4426
C32 C -0.62754(12) -0.5099(4) -0.38576(10)
H49 H -0.6077 -0.4588 -0.4085
H50 H -0.6223 -0.4087 -0.3575
C33 C -0.59171(12) -0.7003(4) -0.35500(10)
C34 C -0.52350(12) -0.6556(4) -0.30513(10)
H51 H -0.5002 -0.7821 -0.2927
H52 H -0.4999 -0.5745 -0.3200
C35 C -0.51943(12) -0.5494(4) -0.25233(10)
H53 H -0.5550 -0.5995 -0.2453
C36 C -0.58053(12) -0.8400(5) -0.39584(11)
H54 H -0.5673 -0.9700 -0.3785
H55 H -0.5468 -0.7852 -0.4034
H56 H -0.6205 -0.8522 -0.4311
C37 C -0.70998(13) -1.0038(4) -0.40311(11)
H57 H -0.7102 -0.9539 -0.4374
H58 H -0.7517 -1.0636 -0.4126
H59 H -0.6761 -1.1027 -0.3857
C38 C -0.94249(13) -0.8137(5) -0.41652(12)
H60 H -0.9447 -0.8011 -0.4536
H61 H -0.9851 -0.7901 -0.4196
H62 H -0.9281 -0.9465 -0.4019
C39 C -0.89678(14) -0.6764(5) -0.31875(12)
H63 H -0.8907 -0.8139 -0.3064
H64 H -0.9386 -0.6300 -0.3239
H65 H -0.8626 -0.5955 -0.2903
C40 C -0.83938(12) -0.7656(4) -0.46852(10)
H66 H -0.8142 -0.7590 -0.4890
H67 H -0.8832 -0.7195 -0.4928
H68 H -0.8407 -0.9018 -0.4572
loop_
_geom_bond_atom_site_label_1
_geom_bond_atom_site_label_2
_geom_bond_site_symmetry_1
_geom_bond_site_symmetry_2
O1 C8 1_555 1_555
O2 H1 1_555 1_555
O3 C15 1_555 1_555
O4 C28 1_555 1_555
C1 H2 1_555 1_555
H3 C1 1_555 1_555
C2 C1 1_555 1_555
H4 C2 1_555 1_555
H5 C2 1_555 1_555
C3 C2 1_555 1_555
H6 C3 1_555 1_555
H7 C3 1_555 1_555
C4 C3 1_555 1_555
C5 C4 1_555 1_555
H8 C5 1_555 1_555
C6 C5 1_555 1_555
H9 C6 1_555 1_555
H10 C6 1_555 1_555
C7 C6 1_555 1_555
H11 C7 1_555 1_555
H12 C7 1_555 1_555
C8 C7 1_555 1_555
C9 C8 1_555 1_555
H13 C9 1_555 1_555
C10 C1 1_555 1_555
C11 C9 1_555 1_555
H14 C11 1_555 1_555
H15 C11 1_555 1_555
C12 C11 1_555 1_555
H16 C12 1_555 1_555
C13 O1 1_555 1_555
C14 C13 1_555 1_555
H17 C14 1_555 1_555
H18 C14 1_555 1_555
C15 O2 1_555 1_555
H19 C15 1_555 1_555
C16 C13 1_555 1_555
H20 C16 1_555 1_555
H21 C16 1_555 1_555
H22 C16 1_555 1_555
C17 C8 1_555 1_555
H23 C17 1_555 1_555
H24 C17 1_555 1_555
H25 C17 1_555 1_555
C18 C4 1_555 1_555
H26 C18 1_555 1_555
H27 C18 1_555 1_555
H28 C18 1_555 1_555
C19 C4 1_555 1_555
H29 C19 1_555 1_555
H30 C19 1_555 1_555
H31 C19 1_555 1_555
C20 C10 1_555 1_555
H32 C20 1_555 1_555
H33 C20 1_555 1_555
H34 C20 1_555 1_555
C21 H35 1_555 1_555
H36 C21 1_555 1_555
C22 C21 1_555 1_555
H37 C22 1_555 1_555
H38 C22 1_555 1_555
C23 C22 1_555 1_555
H39 C23 1_555 1_555
H40 C23 1_555 1_555
C24 C23 1_555 1_555
C25 C24 1_555 1_555
H41 C25 1_555 1_555
C26 C25 1_555 1_555
H42 C26 1_555 1_555
H43 C26 1_555 1_555
C27 C26 1_555 1_555
H44 C27 1_555 1_555
H45 C27 1_555 1_555
C28 C27 1_555 1_555
C29 C28 1_555 1_555
H46 C29 1_555 1_555
C30 C21 1_555 1_555
C31 C29 1_555 1_555
H47 C31 1_555 1_555
H48 C31 1_555 1_555
C32 C31 1_555 1_555
H49 C32 1_555 1_555
H50 C32 1_555 1_555
C33 O4 1_555 1_555
C34 C33 1_555 1_555
H51 C34 1_555 1_555
H52 C34 1_555 1_555
C35 O3 1_555 1_555
H53 C35 1_555 1_555
C36 C33 1_555 1_555
H54 C36 1_555 1_555
H55 C36 1_555 1_555
H56 C36 1_555 1_555
C37 C28 1_555 1_555
H57 C37 1_555 1_555
H58 C37 1_555 1_555
H59 C37 1_555 1_555
C38 C24 1_555 1_555
H60 C38 1_555 1_555
H61 C38 1_555 1_555
H62 C38 1_555 1_555
C39 C24 1_555 1_555
H63 C39 1_555 1_555
H64 C39 1_555 1_555
H65 C39 1_555 1_555
C40 C30 1_555 1_555
H66 C40 1_555 1_555
H67 C40 1_555 1_555
H68 C40 1_555 1_555
C5 C10 1_555 1_555
C9 C10 1_555 1_555
C12 C13 1_555 1_555
C12 C35 1_555 1_555
C14 C15 1_555 1_555
C25 C30 1_555 1_555
C29 C30 1_555 1_555
C32 C33 1_555 1_555
C34 C35 1_555 1_555

#END
