
#######################################################################
#
#                 Cambridge Crystallographic Data Centre
#                                CCDC 
#
#######################################################################
#
# If this CIF has been generated from an entry in the Cambridge 
# Structural Database, then it will include bibliographic, chemical, 
# crystal, experimental, refinement or atomic coordinate data resulting 
# from the CCDC's data processing and validation procedures.
#
#######################################################################

data_RESDOL
_chemical_formula_moiety         'C26 H32 Li1 N2 O2 P1 S1'
_chemical_name_systematic        
'{P,P-diphenyl-N-[(pyridin-2-yl)methyl]phosphinothioic amidato}-bis(tetrahydrofuran)-lithium'
_symmetry_cell_setting           monoclinic
_symmetry_space_group_name_H-M   'P 21/c'
_symmetry_Int_Tables_number      14
_space_group_name_Hall           '-P 2ybc'
loop_
_symmetry_equiv_pos_site_id
_symmetry_equiv_pos_as_xyz
1 x,y,z
2 -x,1/2+y,1/2-z
3 -x,-y,-z
4 x,1/2-y,1/2+z
_cell_length_a                   11.4749(2)
_cell_length_b                   14.7695(2)
_cell_length_c                   17.6780(3)
_cell_angle_alpha                90
_cell_angle_beta                 122.4150(10)
_cell_angle_gamma                90
_cell_volume                     2529.22
_exptl_crystal_colour            yellow
_exptl_crystal_description       block
_cell_formula_units_Z            4
loop_
_atom_site_label
_atom_site_type_symbol
_atom_site_fract_x
_atom_site_fract_y
_atom_site_fract_z
S1 S 0.24938(7) -0.30434(5) -0.21473(4)
P1 P 0.13079(6) -0.24100(4) -0.33028(4)
O1 O -0.22979(17) -0.16619(11) -0.34462(11)
O2 O -0.30204(19) -0.14127(12) -0.54642(12)
N1 N -0.02371(18) -0.27628(13) -0.39865(13)
N2 N -0.2817(2) -0.34466(14) -0.49706(14)
C1 C 0.2254(2) -0.23595(15) -0.38688(15)
C2 C -0.1818(2) -0.40291(15) -0.47986(15)
C3 C -0.2796(3) -0.07813(17) -0.33857(17)
H1 H -0.3777 -0.0726 -0.3827
H2 H -0.2315 -0.0305 -0.3488
C4 C 0.1052(2) -0.12251(16) -0.31523(17)
C5 C -0.0342(2) -0.37189(16) -0.41993(17)
H3 H 0.0096 -0.4066 -0.3647
H4 H 0.0153 -0.3839 -0.4494
C6 C 0.3622(3) -0.22573(18) -0.47800(19)
H5 H 0.4079 -0.2212 -0.5083
C7 C 0.3685(2) -0.23139(18) -0.34009(17)
H6 H 0.4192 -0.2316 -0.2778
C8 C 0.4367(3) -0.2265(2) -0.38541(19)
H7 H 0.5325 -0.2237 -0.3534
C9 C -0.1445(3) -0.20302(18) -0.25558(17)
H8 H -0.0575 -0.2243 -0.2457
H9 H -0.1908 -0.2534 -0.2473
C10 C 0.1524(2) -0.23646(18) -0.48006(16)
H10 H 0.0566 -0.2401 -0.5125
C11 C -0.2097(3) -0.48990(17) -0.51500(17)
H11 H -0.1374 -0.5290 -0.5015
C12 C -0.3437(3) -0.51832(19) -0.56968(19)
H12 H -0.3638 -0.5766 -0.5932
C13 C 0.1692(3) -0.0838(2) -0.2307(2)
H13 H 0.2307 -0.1174 -0.1802
C14 C -0.2512(3) -0.07188(18) -0.24471(18)
H14 H -0.3261 -0.0977 -0.2414
H15 H -0.2365 -0.0097 -0.2240
C15 C 0.0158(3) -0.06994(18) -0.3902(2)
H16 H -0.0252 -0.0948 -0.4472
C16 C -0.4130(3) -0.3729(2) -0.5519(2)
H17 H -0.4838 -0.3325 -0.5656
C17 C 0.2205(3) -0.23167(19) -0.52536(18)
H18 H 0.1704 -0.2325 -0.5877
C18 C -0.1204(3) -0.1274(2) -0.19142(18)
H19 H -0.0395 -0.0922 -0.1766
H20 H -0.1098 -0.1506 -0.1367
C19 C -0.4479(3) -0.4581(2) -0.5887(2)
H21 H -0.5400 -0.4748 -0.6258
C20 C 0.0487(4) 0.0561(2) -0.2961(3)
H22 H 0.0278 0.1152 -0.2893
C21 C -0.2939(3) -0.1685(2) -0.62204(18)
H23 H -0.3404 -0.2260 -0.6458
H24 H -0.1983 -0.1748 -0.6043
C22 C 0.1405(4) 0.0065(2) -0.2219(3)
H25 H 0.1841 0.0330 -0.1655
C23 C -0.0124(3) 0.0190(2) -0.3800(3)
H26 H -0.0726 0.0534 -0.4301
C24 C -0.3802(3) -0.0587(2) -0.5688(2)
H27 H -0.3334 -0.0149 -0.5208
H28 H -0.4713 -0.0701 -0.5799
C25 C -0.3634(4) -0.0954(2) -0.6905(2)
H29 H -0.3038 -0.0748 -0.7105
H30 H -0.4487 -0.1177 -0.7421
C26 C -0.3899(7) -0.0259(4) -0.6504(3)
H31 H -0.4816 -0.0020 -0.6915
H32 H -0.3238 0.0225 -0.6352
Li1 Li -0.2045(4) -0.2187(3) -0.4388(3)
loop_
_geom_bond_atom_site_label_1
_geom_bond_atom_site_label_2
_geom_bond_site_symmetry_1
_geom_bond_site_symmetry_2
S1 P1 1_555 1_555
P1 N1 1_555 1_555
O1 C3 1_555 1_555
O2 C21 1_555 1_555
N1 C5 1_555 1_555
N2 C2 1_555 1_555
C1 P1 1_555 1_555
C2 C5 1_555 1_555
C3 H1 1_555 1_555
H2 C3 1_555 1_555
C4 P1 1_555 1_555
C5 H3 1_555 1_555
H4 C5 1_555 1_555
C6 H5 1_555 1_555
C7 C1 1_555 1_555
H6 C7 1_555 1_555
C8 C6 1_555 1_555
H7 C8 1_555 1_555
C9 O1 1_555 1_555
H8 C9 1_555 1_555
H9 C9 1_555 1_555
C10 C1 1_555 1_555
H10 C10 1_555 1_555
C11 C2 1_555 1_555
H11 C11 1_555 1_555
C12 C11 1_555 1_555
H12 C12 1_555 1_555
C13 C4 1_555 1_555
H13 C13 1_555 1_555
C14 C3 1_555 1_555
H14 C14 1_555 1_555
H15 C14 1_555 1_555
C15 C4 1_555 1_555
H16 C15 1_555 1_555
C16 N2 1_555 1_555
H17 C16 1_555 1_555
C17 C6 1_555 1_555
H18 C17 1_555 1_555
C18 C9 1_555 1_555
H19 C18 1_555 1_555
H20 C18 1_555 1_555
C19 C12 1_555 1_555
H21 C19 1_555 1_555
C20 H22 1_555 1_555
C21 H23 1_555 1_555
H24 C21 1_555 1_555
C22 C13 1_555 1_555
H25 C22 1_555 1_555
C23 C15 1_555 1_555
H26 C23 1_555 1_555
C24 O2 1_555 1_555
H27 C24 1_555 1_555
H28 C24 1_555 1_555
C25 C21 1_555 1_555
H29 C25 1_555 1_555
H30 C25 1_555 1_555
C26 C24 1_555 1_555
H31 C26 1_555 1_555
H32 C26 1_555 1_555
Li1 O1 1_555 1_555
O2 Li1 1_555 1_555
N1 Li1 1_555 1_555
N2 Li1 1_555 1_555
C7 C8 1_555 1_555
C10 C17 1_555 1_555
C14 C18 1_555 1_555
C16 C19 1_555 1_555
C20 C22 1_555 1_555
C20 C23 1_555 1_555
C25 C26 1_555 1_555

#END
