
#######################################################################
#
#                 Cambridge Crystallographic Data Centre
#                                CCDC 
#
#######################################################################
#
# If this CIF has been generated from an entry in the Cambridge 
# Structural Database, then it will include bibliographic, chemical, 
# crystal, experimental, refinement or atomic coordinate data resulting 
# from the CCDC's data processing and validation procedures.
#
#######################################################################

data_RESFIH
_chemical_formula_moiety         'C18 H17 N2 P1 Se1'
_chemical_name_systematic        
'P,P-diphenyl-N-[(pyridin-2-yl)methyl]phosphinoselenoic amide'
_symmetry_cell_setting           monoclinic
_symmetry_space_group_name_H-M   'P 21/c'
_symmetry_Int_Tables_number      14
_space_group_name_Hall           '-P 2ybc'
loop_
_symmetry_equiv_pos_site_id
_symmetry_equiv_pos_as_xyz
1 x,y,z
2 -x,1/2+y,1/2-z
3 -x,-y,-z
4 x,1/2-y,1/2+z
_cell_length_a                   12.2803(9)
_cell_length_b                   9.3272(8)
_cell_length_c                   18.073(2)
_cell_angle_alpha                90
_cell_angle_beta                 124.212(7)
_cell_angle_gamma                90
_cell_volume                     1711.89
_exptl_crystal_colour            colorless
_exptl_crystal_description       block
_cell_formula_units_Z            4
loop_
_atom_site_label
_atom_site_type_symbol
_atom_site_fract_x
_atom_site_fract_y
_atom_site_fract_z
Se1 Se -0.09715(3) 0.16217(3) -0.63962(2)
P1 P -0.19282(6) -0.02670(7) -0.64169(4)
N1 N -0.3255(4) 0.0986(4) -0.4269(2)
N2 N -0.2090(2) -0.0552(3) -0.55783(14)
H1 H -0.1810 -0.1339 -0.5279
C1 C -0.3518(4) 0.0517(6) -0.3670(3)
H2 H -0.3710 0.1193 -0.3381
C2 C -0.3513(4) -0.0867(5) -0.3480(2)
H3 H -0.3707 -0.1153 -0.3073
C3 C -0.3215(5) -0.1846(5) -0.3900(3)
H4 H -0.3205 -0.2816 -0.3778
C4 C -0.2928(4) -0.1418(4) -0.4508(2)
H5 H -0.2710 -0.2084 -0.4787
C5 C -0.2974(3) -0.0022(3) -0.46771(17)
C6 C -0.2711(3) 0.0535(3) -0.53475(18)
H6 H -0.3535 0.0833 -0.5886
H7 H -0.2141 0.1368 -0.5100
C7 C -0.3606(3) -0.0334(3) -0.74117(17)
C8 C -0.4553(3) -0.1179(4) -0.7429(2)
H8 H -0.4330 -0.1693 -0.6921
C9 C -0.5818(3) -0.1267(5) -0.8186(3)
H9 H -0.6444 -0.1830 -0.8188
C10 C -0.6145(4) -0.0507(5) -0.8943(3)
H10 H -0.6996 -0.0561 -0.9456
C11 C -0.5216(4) 0.0331(5) -0.8941(2)
H11 H -0.5441 0.0829 -0.9455
C12 C -0.3945(3) 0.0433(4) -0.8174(2)
H12 H -0.3324 0.1010 -0.8170
C13 C -0.1122(3) -0.1887(3) -0.64097(16)
C14 C -0.1350(4) -0.3180(3) -0.6133(2)
H13 H -0.1911 -0.3206 -0.5940
C15 C -0.0748(4) -0.4425(4) -0.6143(3)
H14 H -0.0895 -0.5284 -0.5951
C16 C 0.0072(4) -0.4391(4) -0.6438(3)
H15 H 0.0472 -0.5231 -0.6447
C17 C 0.0301(4) -0.3133(5) -0.6717(3)
H16 H 0.0846 -0.3124 -0.6922
C18 C -0.0280(3) -0.1868(4) -0.6694(2)
H17 H -0.0106 -0.1009 -0.6870
loop_
_geom_bond_atom_site_label_1
_geom_bond_atom_site_label_2
_geom_bond_site_symmetry_1
_geom_bond_site_symmetry_2
Se1 P1 1_555 1_555
P1 N2 1_555 1_555
N1 C1 1_555 1_555
N2 H1 1_555 1_555
C1 H2 1_555 1_555
C2 C1 1_555 1_555
H3 C2 1_555 1_555
C3 C2 1_555 1_555
H4 C3 1_555 1_555
C4 C3 1_555 1_555
H5 C4 1_555 1_555
C5 N1 1_555 1_555
C6 N2 1_555 1_555
H6 C6 1_555 1_555
H7 C6 1_555 1_555
C7 P1 1_555 1_555
C8 C7 1_555 1_555
H8 C8 1_555 1_555
C9 C8 1_555 1_555
H9 C9 1_555 1_555
C10 C9 1_555 1_555
H10 C10 1_555 1_555
C11 C10 1_555 1_555
H11 C11 1_555 1_555
C12 C7 1_555 1_555
H12 C12 1_555 1_555
C13 P1 1_555 1_555
C14 C13 1_555 1_555
H13 C14 1_555 1_555
C15 C14 1_555 1_555
H14 C15 1_555 1_555
C16 C15 1_555 1_555
H15 C16 1_555 1_555
C17 C16 1_555 1_555
H16 C17 1_555 1_555
C18 C13 1_555 1_555
H17 C18 1_555 1_555
C4 C5 1_555 1_555
C5 C6 1_555 1_555
C11 C12 1_555 1_555
C17 C18 1_555 1_555

#END
