
#######################################################################
#
#                 Cambridge Crystallographic Data Centre
#                                CCDC 
#
#######################################################################
#
# If this CIF has been generated from an entry in the Cambridge 
# Structural Database, then it will include bibliographic, chemical, 
# crystal, experimental, refinement or atomic coordinate data resulting 
# from the CCDC's data processing and validation procedures.
#
#######################################################################

data_RESGOO01
_chemical_name_common            
'9,10-dihydro-9,10-o-Benzenoanthracene-1,4,5,8,13,16-hexone tribenzoquinone'
_chemical_formula_moiety         'C20 H8 O6'
_chemical_name_systematic        
pentacyclo[6.6.6.0^2,7^.0^9,14^.0^15,20^]icosa-2(7),4,9(14),11,15(20),17-hexaene-3,6,10,13,16,19-hexone
_symmetry_cell_setting           tetragonal
_symmetry_space_group_name_H-M   'I 41 m d'
_symmetry_Int_Tables_number      109
_space_group_name_Hall           'I 4bw -2'
loop_
_symmetry_equiv_pos_site_id
_symmetry_equiv_pos_as_xyz
1 x,y,z
2 1/2-x,1/2-y,1/2+z
3 -y,1/2+x,1/4+z
4 1/2+y,-x,3/4+z
5 x,-y,z
6 1/2-x,1/2+y,1/2+z
7 -y,1/2-x,1/4+z
8 1/2+y,x,3/4+z
9 1/2+x,1/2+y,1/2+z
10 -x,-y,z
11 1/2-y,x,3/4+z
12 y,1/2-x,1/4+z
13 1/2+x,1/2-y,1/2+z
14 -x,y,z
15 1/2-y,-x,3/4+z
16 y,1/2+x,1/4+z
_cell_length_a                   10.8498(4)
_cell_length_b                   10.8498(4)
_cell_length_c                   12.7484(5)
_cell_angle_alpha                90
_cell_angle_beta                 90
_cell_angle_gamma                90
_cell_volume                     1500.72
_exptl_crystal_colour            yellow
_exptl_crystal_description       block
_cell_formula_units_Z            4
loop_
_atom_site_label
_atom_site_type_symbol
_atom_site_fract_x
_atom_site_fract_y
_atom_site_fract_z
O1 O 0.5000 0.7461(2) 0.3639(2)
O2 O 0.69719(18) 0.74414(17) 0.69559(18)
C1 C 0.5000 0.5614(4) 0.2685(4)
H1 H 0.5000 0.6027 0.2046
C2 C 0.5000 0.6336(3) 0.3654(3)
C3 C 0.5000 0.5616(3) 0.4635(3)
C4 C 0.5000 0.6196(3) 0.5723(3)
H2 H 0.5000 0.7099 0.5722
C5 C 0.6105(2) 0.5617(2) 0.62773(18)
C6 C 0.7047(2) 0.6333(2) 0.68427(19)
C7 C 0.8063(3) 0.5610(3) 0.7314(2)
H3 H 0.8721 0.6026 0.7619
O1D O 0.5000 0.2539(2) 0.3639(2)
O2D O 0.69719(18) 0.25586(17) 0.69559(18)
C1D C 0.5000 0.4386(4) 0.2685(4)
H1D H 0.5000 0.3973 0.2046
C2D C 0.5000 0.3664(3) 0.3654(3)
C3D C 0.5000 0.4384(3) 0.4635(3)
C4D C 0.5000 0.3804(3) 0.5723(3)
H2D H 0.5000 0.2901 0.5722
C5D C 0.6105(2) 0.4383(2) 0.62773(18)
C6D C 0.7047(2) 0.3667(2) 0.68427(19)
C7D C 0.8063(3) 0.4390(3) 0.7314(2)
H3D H 0.8721 0.3974 0.7619
O2I O 0.30281(18) 0.25586(17) 0.69559(18)
C5I C 0.3895(2) 0.4383(2) 0.62773(18)
C6I C 0.2953(2) 0.3667(2) 0.68427(19)
C7I C 0.1937(3) 0.4390(3) 0.7314(2)
H3I H 0.1279 0.3974 0.7619
O2M O 0.30281(18) 0.74414(17) 0.69559(18)
C5M C 0.3895(2) 0.5617(2) 0.62773(18)
C6M C 0.2953(2) 0.6333(2) 0.68427(19)
C7M C 0.1937(3) 0.5610(3) 0.7314(2)
H3M H 0.1279 0.6026 0.7619
loop_
_geom_bond_atom_site_label_1
_geom_bond_atom_site_label_2
_geom_bond_site_symmetry_1
_geom_bond_site_symmetry_2
O1 C2 1_555 1_555
O2 C6 1_555 1_555
C1 H1 1_555 1_555
C2 C1 1_555 1_555
C3 C2 1_555 1_555
C4 C3 1_555 1_555
H2 C4 1_555 1_555
C5 C4 1_555 1_555
C6 C5 1_555 1_555
C7 C6 1_555 1_555
H3 C7 1_555 1_555
O1D C2D 1_555 1_555
O2D C6D 1_555 1_555
C1D C1 1_555 1_555
H1D C1D 1_555 1_555
C2D C1D 1_555 1_555
C3D C3 1_555 1_555
C4D C3D 1_555 1_555
H2D C4D 1_555 1_555
C5D C5 1_555 1_555
C6D C5D 1_555 1_555
C7D C7 1_555 1_555
H3D C7D 1_555 1_555
O2I C6I 1_555 1_555
C5I C4D 1_555 1_555
C6I C5I 1_555 1_555
C7I C6I 1_555 1_555
H3I C7I 1_555 1_555
O2M C6M 1_555 1_555
C5M C4 1_555 1_555
C6M C5M 1_555 1_555
C7M C7I 1_555 1_555
H3M C7M 1_555 1_555
C2D C3D 1_555 1_555
C4D C5D 1_555 1_555
C6D C7D 1_555 1_555
C5I C5M 1_555 1_555
C6M C7M 1_555 1_555

#END
