
#######################################################################
#
#                 Cambridge Crystallographic Data Centre
#                                CCDC 
#
#######################################################################
#
# If this CIF has been generated from an entry in the Cambridge 
# Structural Database, then it will include bibliographic, chemical, 
# crystal, experimental, refinement or atomic coordinate data resulting 
# from the CCDC's data processing and validation procedures.
#
#######################################################################

data_RESJIJ
_chemical_formula_moiety         'C24 H21 Br1 F6 N2 O2'
_chemical_name_systematic        
(+-)-(1RS,3aSR,4RS,8aSR,8bRS)-4-(4-Bromophenyl)-2-(4-fluorobenzyl)-1-(perfluoroethyl)octahydro-1-hydroxypyrrolo(3,4-a)pyrrolizin-3(8bH)-one
_symmetry_cell_setting           monoclinic
_symmetry_space_group_name_H-M   'P 21/n'
_symmetry_Int_Tables_number      14
_space_group_name_Hall           '-P 2yn'
loop_
_symmetry_equiv_pos_site_id
_symmetry_equiv_pos_as_xyz
1 x,y,z
2 1/2-x,1/2+y,1/2-z
3 -x,-y,-z
4 1/2+x,1/2-y,1/2+z
_cell_length_a                   8.0838(2)
_cell_length_b                   17.0594(3)
_cell_length_c                   16.2316(4)
_cell_angle_alpha                90
_cell_angle_beta                 94.646(1)
_cell_angle_gamma                90
_cell_volume                     2231.06
_exptl_crystal_colour            colorless
_chemical_melting_point          180-182deg.C
_cell_formula_units_Z            4
loop_
_atom_site_label
_atom_site_type_symbol
_atom_site_fract_x
_atom_site_fract_y
_atom_site_fract_z
C1 C 0.4027(2) 0.86780(11) 0.24760(13)
N1 N 0.4593(2) 0.94489(9) 0.27648(11)
C2 C 0.6287(3) 0.95387(12) 0.27921(13)
C3 C 0.7053(2) 0.87800(12) 0.25362(13)
H1 H 0.8017 0.8631 0.2930
C4 C 0.5651(2) 0.81743(12) 0.25511(13)
H2 H 0.5748 0.7853 0.3068
C5 C 0.7548(3) 0.87704(12) 0.16202(13)
H3 H 0.8632 0.8489 0.1610
N2 N 0.6238(2) 0.82797(10) 0.11704(11)
C6 C 0.5819(3) 0.76753(11) 0.17824(13)
H4 H 0.4739 0.7417 0.1603
C7 C 0.7241(3) 0.70784(12) 0.18133(15)
H5 H 0.6833 0.6544 0.1922
H6 H 0.8122 0.7218 0.2248
C8 C 0.7889(3) 0.71307(13) 0.09475(16)
H7 H 0.7679 0.6634 0.0640
H8 H 0.9096 0.7238 0.0990
C9 C 0.6918(3) 0.78152(13) 0.05068(15)
H9 H 0.7666 0.8140 0.0194
H10 H 0.6012 0.7612 0.0118
C10 C 0.7724(3) 0.95643(12) 0.12259(13)
C11 C 0.6353(3) 1.00197(13) 0.09592(15)
H11 H 0.5269 0.9812 0.0988
C12 C 0.6543(3) 1.07691(14) 0.06539(16)
H12 H 0.5599 1.1076 0.0478
C13 C 0.8123(3) 1.10628(13) 0.06097(14)
C14 C 0.9505(3) 1.06198(13) 0.08441(15)
H13 H 1.0586 1.0825 0.0797
C15 C 0.9299(3) 0.98695(13) 0.11502(14)
H14 H 1.0248 0.9560 0.1310
Br1 Br 0.83697(4) 1.209839(14) 0.019777(16)
O1 O 0.70107(19) 1.01456(9) 0.29816(10)
O2 O 0.32111(18) 0.87128(8) 0.16822(9)
H15 H 0.3904 0.8655 0.1329
C16 C 0.2706(3) 0.83577(13) 0.30255(13)
F1 F 0.32730(16) 0.84079(8) 0.38327(8)
F2 F 0.13056(15) 0.87954(8) 0.29211(9)
C17 C 0.2130(3) 0.75018(14) 0.28870(15)
F3 F 0.33569(19) 0.69939(8) 0.30539(11)
F4 F 0.15106(19) 0.73772(9) 0.21215(9)
F5 F 0.09419(19) 0.73383(9) 0.33843(10)
C18 C 0.3524(3) 1.01488(12) 0.27030(14)
H16 H 0.2588 1.0047 0.2285
H17 H 0.4173 1.0591 0.2499
C19 C 0.2825(3) 1.03973(11) 0.34971(14)
C20 C 0.3873(3) 1.06006(13) 0.41850(15)
H18 H 0.5040 1.0559 0.4162
C21 C 0.3236(3) 1.08636(14) 0.49060(15)
H19 H 0.3954 1.1004 0.5375
C22 C 0.1550(3) 1.09150(14) 0.49219(15)
C23 C 0.0471(3) 1.07054(13) 0.42649(15)
H20 H -0.0695 1.0733 0.4301
C24 C 0.1121(3) 1.04516(13) 0.35448(15)
H21 H 0.0392 1.0313 0.3079
F6 F 0.0916(2) 1.11776(9) 0.56225(9)
loop_
_geom_bond_atom_site_label_1
_geom_bond_atom_site_label_2
_geom_bond_site_symmetry_1
_geom_bond_site_symmetry_2
C1 N1 1_555 1_555
N1 C2 1_555 1_555
C2 C3 1_555 1_555
C3 H1 1_555 1_555
C4 C1 1_555 1_555
H2 C4 1_555 1_555
C5 C3 1_555 1_555
H3 C5 1_555 1_555
N2 C5 1_555 1_555
C6 C4 1_555 1_555
H4 C6 1_555 1_555
C7 C6 1_555 1_555
H5 C7 1_555 1_555
H6 C7 1_555 1_555
C8 C7 1_555 1_555
H7 C8 1_555 1_555
H8 C8 1_555 1_555
C9 N2 1_555 1_555
H9 C9 1_555 1_555
H10 C9 1_555 1_555
C10 C5 1_555 1_555
C11 C10 1_555 1_555
H11 C11 1_555 1_555
C12 C11 1_555 1_555
H12 C12 1_555 1_555
C13 C12 1_555 1_555
C14 C13 1_555 1_555
H13 C14 1_555 1_555
C15 C10 1_555 1_555
H14 C15 1_555 1_555
Br1 C13 1_555 1_555
O1 C2 1_555 1_555
O2 C1 1_555 1_555
H15 O2 1_555 1_555
C16 C1 1_555 1_555
F1 C16 1_555 1_555
F2 C16 1_555 1_555
C17 C16 1_555 1_555
F3 C17 1_555 1_555
F4 C17 1_555 1_555
F5 C17 1_555 1_555
C18 N1 1_555 1_555
H16 C18 1_555 1_555
H17 C18 1_555 1_555
C19 C18 1_555 1_555
C20 C19 1_555 1_555
H18 C20 1_555 1_555
C21 C20 1_555 1_555
H19 C21 1_555 1_555
C22 C21 1_555 1_555
C23 C22 1_555 1_555
H20 C23 1_555 1_555
C24 C19 1_555 1_555
H21 C24 1_555 1_555
F6 C22 1_555 1_555
C3 C4 1_555 1_555
N2 C6 1_555 1_555
C8 C9 1_555 1_555
C14 C15 1_555 1_555
C23 C24 1_555 1_555

#END
