
#######################################################################
#
#                 Cambridge Crystallographic Data Centre
#                                CCDC 
#
#######################################################################
#
# If this CIF has been generated from an entry in the Cambridge 
# Structural Database, then it will include bibliographic, chemical, 
# crystal, experimental, refinement or atomic coordinate data resulting 
# from the CCDC's data processing and validation procedures.
#
#######################################################################

data_RESJOP
_chemical_formula_moiety         'C24 H20 F5 N3 O1'
_chemical_name_systematic        
(+-)-4-((1SR,3aSR,4RS,8aSR,8bRS)-1-Fluoro-2-(4-fluorobenzyl)-3-oxo-1-(trifluoromethyl)decahydropyrrolo(3,4-a)pyrrolizin-4-yl)benzonitrile
_symmetry_cell_setting           triclinic
_symmetry_space_group_name_H-M   'P -1'
_symmetry_Int_Tables_number      2
_space_group_name_Hall           '-P 1'
loop_
_symmetry_equiv_pos_site_id
_symmetry_equiv_pos_as_xyz
1 x,y,z
2 -x,-y,-z
_cell_length_a                   9.1751(2)
_cell_length_b                   9.8010(2)
_cell_length_c                   12.6282(4)
_cell_angle_alpha                75.180(1)
_cell_angle_beta                 88.901(1)
_cell_angle_gamma                70.727(2)
_cell_volume                     1033.64
_exptl_crystal_colour            colorless
_chemical_melting_point          147-150deg.C
_cell_formula_units_Z            2
loop_
_atom_site_label
_atom_site_type_symbol
_atom_site_fract_x
_atom_site_fract_y
_atom_site_fract_z
C1 C 0.26351(17) 0.34856(17) 0.07323(12)
N1 N 0.41240(14) 0.31570(14) 0.12245(10)
C2 C 0.40669(17) 0.37462(17) 0.21177(12)
C3 C 0.23936(17) 0.43501(16) 0.23788(12)
H1 H 0.2038 0.5467 0.2227
C4 C 0.14934(17) 0.38737(17) 0.16043(12)
H2 H 0.0555 0.4740 0.1250
C5 C 0.20212(17) 0.36421(17) 0.35395(12)
H3 H 0.0981 0.4292 0.3683
N2 N 0.18768(15) 0.22245(14) 0.34359(10)
C6 C 0.09956(17) 0.26220(17) 0.23609(12)
H4 H 0.1260 0.1732 0.2054
C7 C -0.07106(18) 0.3110(2) 0.26093(13)
H5 H -0.1082 0.4154 0.2671
H6 H -0.1370 0.3018 0.2038
C8 C -0.0683(2) 0.1998(2) 0.37098(15)
H7 H -0.0810 0.1078 0.3600
H8 H -0.1518 0.2448 0.4152
C9 C 0.0913(2) 0.1646(2) 0.42750(14)
H9 H 0.0809 0.2135 0.4882
H10 H 0.1404 0.0551 0.4583
C10 C 0.31531(17) 0.34021(17) 0.44832(12)
C11 C 0.44346(18) 0.20999(18) 0.48125(13)
H11 H 0.4653 0.1370 0.4407
C12 C 0.53930(18) 0.18572(18) 0.57236(13)
H12 H 0.6258 0.0961 0.5947
C13 C 0.50793(17) 0.29403(18) 0.63134(13)
C14 C 0.38344(18) 0.42679(18) 0.59719(13)
H13 H 0.3641 0.5019 0.6357
C15 C 0.28782(19) 0.44828(18) 0.50619(13)
H14 H 0.2021 0.5384 0.4831
C16 C 0.59979(18) 0.26522(18) 0.73105(13)
N3 N 0.67052(17) 0.24146(17) 0.81166(12)
O1 O 0.52026(13) 0.37832(13) 0.25648(9)
F1 F 0.22852(11) 0.47901(11) -0.01631(7)
C17 C 0.2478(2) 0.2311(2) 0.01833(14)
F2 F 0.30989(12) 0.09277(11) 0.08318(10)
F3 F 0.09830(12) 0.25472(12) -0.00429(8)
F4 F 0.31561(14) 0.23566(15) -0.07602(9)
C18 C 0.55765(18) 0.27516(18) 0.06867(13)
H15 H 0.6021 0.3565 0.0593
H16 H 0.5350 0.2671 -0.0054
C19 C 0.67644(17) 0.12950(17) 0.13150(12)
C20 C 0.82742(18) 0.09507(18) 0.09908(13)
H17 H 0.8511 0.1618 0.0378
C21 C 0.94405(19) -0.0349(2) 0.15450(14)
H18 H 1.0470 -0.0580 0.1324
C22 C 0.90490(19) -0.12904(18) 0.24262(14)
C23 C 0.75806(19) -0.10031(18) 0.27704(14)
H19 H 0.7352 -0.1683 0.3379
C24 C 0.64311(18) 0.03078(19) 0.22080(13)
H20 H 0.5406 0.0530 0.2438
F5 F 1.01756(13) -0.25708(12) 0.29980(10)
loop_
_geom_bond_atom_site_label_1
_geom_bond_atom_site_label_2
_geom_bond_site_symmetry_1
_geom_bond_site_symmetry_2
C1 N1 1_555 1_555
N1 C2 1_555 1_555
C2 C3 1_555 1_555
C3 H1 1_555 1_555
C4 C1 1_555 1_555
H2 C4 1_555 1_555
C5 C3 1_555 1_555
H3 C5 1_555 1_555
N2 C5 1_555 1_555
C6 C4 1_555 1_555
H4 C6 1_555 1_555
C7 C6 1_555 1_555
H5 C7 1_555 1_555
H6 C7 1_555 1_555
C8 C7 1_555 1_555
H7 C8 1_555 1_555
H8 C8 1_555 1_555
C9 N2 1_555 1_555
H9 C9 1_555 1_555
H10 C9 1_555 1_555
C10 C5 1_555 1_555
C11 C10 1_555 1_555
H11 C11 1_555 1_555
C12 C11 1_555 1_555
H12 C12 1_555 1_555
C13 C12 1_555 1_555
C14 C13 1_555 1_555
H13 C14 1_555 1_555
C15 C10 1_555 1_555
H14 C15 1_555 1_555
C16 C13 1_555 1_555
N3 C16 1_555 1_555
O1 C2 1_555 1_555
F1 C1 1_555 1_555
C17 C1 1_555 1_555
F2 C17 1_555 1_555
F3 C17 1_555 1_555
F4 C17 1_555 1_555
C18 N1 1_555 1_555
H15 C18 1_555 1_555
H16 C18 1_555 1_555
C19 C18 1_555 1_555
C20 C19 1_555 1_555
H17 C20 1_555 1_555
C21 C20 1_555 1_555
H18 C21 1_555 1_555
C22 C21 1_555 1_555
C23 C22 1_555 1_555
H19 C23 1_555 1_555
C24 C19 1_555 1_555
H20 C24 1_555 1_555
F5 C22 1_555 1_555
C3 C4 1_555 1_555
N2 C6 1_555 1_555
C8 C9 1_555 1_555
C14 C15 1_555 1_555
C23 C24 1_555 1_555

#END
