
#######################################################################
#
#                 Cambridge Crystallographic Data Centre
#                                CCDC 
#
#######################################################################
#
# If this CIF has been generated from an entry in the Cambridge 
# Structural Database, then it will include bibliographic, chemical, 
# crystal, experimental, refinement or atomic coordinate data resulting 
# from the CCDC's data processing and validation procedures.
#
#######################################################################

data_RESMAF
_chemical_formula_moiety         'C9 H14 O4'
_chemical_name_systematic        6,7-Dihydroxy-1-oxaspiro[4.5]decan-2-one
_symmetry_cell_setting           monoclinic
_symmetry_space_group_name_H-M   'P 21/c'
_symmetry_Int_Tables_number      14
_space_group_name_Hall           '-P 2ybc'
loop_
_symmetry_equiv_pos_site_id
_symmetry_equiv_pos_as_xyz
1 x,y,z
2 -x,1/2+y,1/2-z
3 -x,-y,-z
4 x,1/2-y,1/2+z
_cell_length_a                   5.7917(6)
_cell_length_b                   16.0545(16)
_cell_length_c                   18.954(2)
_cell_angle_alpha                90
_cell_angle_beta                 90.0100(10)
_cell_angle_gamma                90
_cell_volume                     1762.4
_exptl_crystal_colour            colorless
_exptl_crystal_description       prism
_cell_formula_units_Z            8
loop_
_atom_site_label
_atom_site_type_symbol
_atom_site_fract_x
_atom_site_fract_y
_atom_site_fract_z
C1 C 0.9860(18) 0.5595(6) 0.3556(5)
C2 C 0.725(2) 0.5660(7) 0.3534(9)
H1 H 0.6691 0.6016 0.3925
H2 H 0.6750 0.5912 0.3082
C3 C 0.6337(16) 0.4856(6) 0.3599(6)
H3 H 0.5603 0.4681 0.3151
H4 H 0.5162 0.4839 0.3978
C4 C 0.8331(14) 0.4287(5) 0.3776(5)
C5 C 0.8573(13) 0.3568(5) 0.3266(6)
H5 H 0.8686 0.3802 0.2779
C6 C 1.0718(14) 0.3049(5) 0.3402(5)
H6 H 1.2117 0.3407 0.3340
C7 C 1.0636(16) 0.2721(6) 0.4184(5)
H7 H 0.9284 0.2350 0.4245
H8 H 1.2046 0.2393 0.4285
C8 C 1.0474(16) 0.3432(6) 0.4688(6)
H9 H 1.1881 0.3780 0.4650
H10 H 1.0384 0.3216 0.5176
C9 C 0.8374(15) 0.3961(6) 0.4536(5)
H11 H 0.8351 0.4439 0.4865
H12 H 0.6967 0.3626 0.4622
O1 O 1.1332(13) 0.6103(4) 0.3477(4)
O2 O 1.0381(10) 0.4804(4) 0.3685(4)
O3 O 0.6545(9) 0.3073(4) 0.3303(3)
H13 H 0.5385 0.3373 0.3225
O4 O 1.0793(10) 0.2388(4) 0.2907(3)
H14 H 1.2561 0.2363 0.2729
C10 C 0.4890(18) 0.5552(6) 0.1562(6)
C11 C 0.2437(19) 0.5588(7) 0.1717(7)
H15 H 0.1792 0.6134 0.1575
H16 H 0.2166 0.5508 0.2228
C12 C 0.1351(15) 0.4913(5) 0.1311(6)
H17 H 0.0624 0.5132 0.0876
H18 H 0.0161 0.4625 0.1596
C13 C 0.3324(13) 0.4325(5) 0.1133(5)
C14 C 0.3571(13) 0.3598(5) 0.1658(5)
H19 H 0.3692 0.3816 0.2151
C15 C 0.5715(14) 0.3092(5) 0.1472(5)
H20 H 0.7115 0.3451 0.1527
C16 C 0.5636(17) 0.2756(6) 0.0733(5)
H21 H 0.4282 0.2385 0.0678
H22 H 0.7046 0.2426 0.0637
C17 C 0.5469(16) 0.3483(6) 0.0210(5)
H23 H 0.5354 0.3265 -0.0278
H24 H 0.6875 0.3831 0.0242
C18 C 0.3323(15) 0.4014(6) 0.0381(5)
H25 H 0.3269 0.4497 0.0056
H26 H 0.1918 0.3676 0.0300
O5 O 0.6413(13) 0.6036(5) 0.1692(4)
O6 O 0.5413(9) 0.4845(3) 0.1232(3)
O7 O 0.1521(9) 0.3121(4) 0.1578(3)
H27 H 0.1399 0.2583 0.1901
O8 O 0.5790(10) 0.2418(3) 0.1996(4)
H28 H 0.6717 0.2005 0.1809
loop_
_geom_bond_atom_site_label_1
_geom_bond_atom_site_label_2
_geom_bond_site_symmetry_1
_geom_bond_site_symmetry_2
C1 C2 1_555 1_555
C2 H1 1_555 1_555
H2 C2 1_555 1_555
C3 C2 1_555 1_555
H3 C3 1_555 1_555
H4 C3 1_555 1_555
C4 C3 1_555 1_555
C5 C4 1_555 1_555
H5 C5 1_555 1_555
C6 C5 1_555 1_555
H6 C6 1_555 1_555
C7 C6 1_555 1_555
H7 C7 1_555 1_555
H8 C7 1_555 1_555
C8 C7 1_555 1_555
H9 C8 1_555 1_555
H10 C8 1_555 1_555
C9 C4 1_555 1_555
H11 C9 1_555 1_555
H12 C9 1_555 1_555
O1 C1 1_555 1_555
O2 C1 1_555 1_555
O3 C5 1_555 1_555
H13 O3 1_555 1_555
O4 C6 1_555 1_555
H14 O4 1_555 1_555
C10 C11 1_555 1_555
C11 H15 1_555 1_555
H16 C11 1_555 1_555
C12 C11 1_555 1_555
H17 C12 1_555 1_555
H18 C12 1_555 1_555
C13 C12 1_555 1_555
C14 C13 1_555 1_555
H19 C14 1_555 1_555
C15 C14 1_555 1_555
H20 C15 1_555 1_555
C16 C15 1_555 1_555
H21 C16 1_555 1_555
H22 C16 1_555 1_555
C17 C16 1_555 1_555
H23 C17 1_555 1_555
H24 C17 1_555 1_555
C18 C13 1_555 1_555
H25 C18 1_555 1_555
H26 C18 1_555 1_555
O5 C10 1_555 1_555
O6 C10 1_555 1_555
O7 C14 1_555 1_555
H27 O7 1_555 1_555
O8 C15 1_555 1_555
H28 O8 1_555 1_555
C4 O2 1_555 1_555
C8 C9 1_555 1_555
C13 O6 1_555 1_555
C17 C18 1_555 1_555

#END
