
#######################################################################
#
#                 Cambridge Crystallographic Data Centre
#                                CCDC 
#
#######################################################################
#
# If this CIF has been generated from an entry in the Cambridge 
# Structural Database, then it will include bibliographic, chemical, 
# crystal, experimental, refinement or atomic coordinate data resulting 
# from the CCDC's data processing and validation procedures.
#
#######################################################################

data_RESNUB
_chemical_formula_moiety         'C60 H40'
_chemical_name_systematic        
1,1',1'',1''',1'''',1''''',1'''''',1'''''''-[ethene-1,2-diylidenebis(cyclopenta-1,3-diene-1,2,3,4-tetrayl-5-ylidene)]octabenzene
_symmetry_cell_setting           monoclinic
_symmetry_space_group_name_H-M   'P 21/c'
_symmetry_Int_Tables_number      14
_space_group_name_Hall           '-P 2ybc'
loop_
_symmetry_equiv_pos_site_id
_symmetry_equiv_pos_as_xyz
1 x,y,z
2 -x,1/2+y,1/2-z
3 -x,-y,-z
4 x,1/2-y,1/2+z
_cell_length_a                   15.1942(5)
_cell_length_b                   11.0126(4)
_cell_length_c                   12.0846(4)
_cell_angle_alpha                90
_cell_angle_beta                 100.471(2)
_cell_angle_gamma                90
_cell_volume                     1988.41
_exptl_crystal_colour            black
_exptl_crystal_description       prism
_cell_formula_units_Z            2
loop_
_atom_site_label
_atom_site_type_symbol
_atom_site_fract_x
_atom_site_fract_y
_atom_site_fract_z
C1 C 0.91505(5) 0.60319(8) 0.23038(7)
C2 C 0.70970(5) 0.55787(8) 0.15374(7)
C3 C 0.85271(5) 0.55041(8) 0.29672(7)
C4 C 0.76302(5) 0.52841(8) 0.26437(7)
C5 C 0.97517(6) 0.69330(8) 0.27732(7)
H1 H 0.9780 0.7162 0.3537
C6 C 0.72739(5) 0.47660(8) 0.36068(7)
C7 C 0.63080(5) 0.45893(8) 0.35790(7)
C8 C 0.79592(5) 0.46835(8) 0.45131(7)
C9 C 0.96112(5) 0.50441(8) 0.47313(7)
C10 C 0.79283(5) 0.44607(8) 0.57063(7)
C11 C 0.65182(6) 0.47444(8) 0.09108(7)
H2 H 0.6427 0.3972 0.1220
C12 C 0.87752(5) 0.51117(8) 0.41367(7)
C13 C 0.74841(6) 0.33137(10) 0.72190(8)
H3 H 0.7229 0.2601 0.7472
C14 C 0.82646(6) 0.53572(8) 0.64894(7)
H4 H 0.8555 0.6048 0.6252
C15 C 0.57252(6) 0.55630(9) 0.32553(7)
H5 H 0.5954 0.6303 0.3018
C16 C 0.75572(6) 0.34202(9) 0.60935(8)
H6 H 0.7353 0.2780 0.5584
C17 C 0.91326(6) 0.56966(8) 0.11857(7)
H7 H 0.8739 0.5072 0.0857
C18 C 0.81795(7) 0.52508(10) 0.76090(8)
H8 H 0.8397 0.5878 0.8127
C19 C 0.60758(6) 0.50418(10) -0.01648(8)
H9 H 0.5692 0.4464 -0.0592
C20 C 0.77780(6) 0.42336(10) 0.79745(8)
H10 H 0.7705 0.4169 0.8737
C21 C 0.48190(6) 0.54612(10) 0.32772(8)
H11 H 0.4434 0.6136 0.3073
C22 C 1.03072(6) 0.74965(8) 0.21387(8)
H12 H 1.0711 0.8110 0.2467
C23 C 0.61909(7) 0.61739(10) -0.06183(8)
H13 H 0.5891 0.6369 -0.1357
C24 C 0.50338(6) 0.33928(10) 0.38749(8)
H14 H 0.4796 0.2643 0.4073
C25 C 0.59459(6) 0.34947(9) 0.38663(7)
H15 H 0.6325 0.2812 0.4058
C26 C 0.71895(6) 0.67251(9) 0.10795(8)
H16 H 0.7563 0.7312 0.1509
C27 C 0.67453(7) 0.70195(9) 0.00090(8)
H17 H 0.6821 0.7800 -0.0295
C28 C 1.02734(6) 0.71656(9) 0.10250(8)
H18 H 1.0652 0.7553 0.0588
C29 C 0.96856(6) 0.62681(9) 0.05517(8)
H19 H 0.9661 0.6042 -0.0212
C30 C 0.44729(6) 0.43785(11) 0.35967(8)
H20 H 0.3854 0.4314 0.3624
C1B C 1.08495(5) 0.39681(8) 0.76962(7)
C2B C 1.29030(5) 0.44213(8) 0.84626(7)
C3B C 1.14729(5) 0.44959(8) 0.70328(7)
C4B C 1.23698(5) 0.47159(8) 0.73563(7)
C5B C 1.02483(6) 0.30670(8) 0.72268(7)
H1B H 1.0220 0.2838 0.6463
C6B C 1.27261(5) 0.52340(8) 0.63932(7)
C7B C 1.36920(5) 0.54107(8) 0.64210(7)
C8B C 1.20408(5) 0.53165(8) 0.54869(7)
C9B C 1.03888(5) 0.49559(8) 0.52687(7)
C10B C 1.20717(5) 0.55393(8) 0.42937(7)
C11B C 1.34818(6) 0.52556(8) 0.90892(7)
H2B H 1.3573 0.6028 0.8780
C12B C 1.12248(5) 0.48883(8) 0.58633(7)
C13B C 1.25159(6) 0.66863(10) 0.27810(8)
H3B H 1.2771 0.7399 0.2528
C14B C 1.17354(6) 0.46428(8) 0.35106(7)
H4B H 1.1445 0.3952 0.3748
C15B C 1.42748(6) 0.44370(9) 0.67447(7)
H5B H 1.4046 0.3697 0.6982
C16B C 1.24428(6) 0.65798(9) 0.39065(8)
H6B H 1.2647 0.7220 0.4416
C17B C 1.08674(6) 0.43034(8) 0.88143(7)
H7B H 1.1261 0.4928 0.9143
C18B C 1.18205(7) 0.47492(10) 0.23910(8)
H8B H 1.1603 0.4122 0.1873
C19B C 1.39242(6) 0.49582(10) 1.01648(8)
H9B H 1.4308 0.5536 1.0592
C20B C 1.22220(6) 0.57664(10) 0.20255(8)
H10B H 1.2295 0.5831 0.1263
C21B C 1.51810(6) 0.45388(10) 0.67228(8)
H11B H 1.5566 0.3864 0.6927
C22B C 0.96928(6) 0.25035(8) 0.78613(8)
H12B H 0.9289 0.1890 0.7533
C23B C 1.38091(7) 0.38261(10) 1.06183(8)
H13B H 1.4109 0.3631 1.1357
C24B C 1.49662(6) 0.66072(10) 0.61251(8)
H14B H 1.5204 0.7357 0.5927
C25B C 1.40541(6) 0.65053(9) 0.61337(7)
H15B H 1.3675 0.7188 0.5942
C26B C 1.28105(6) 0.32749(9) 0.89205(8)
H16B H 1.2437 0.2688 0.8491
C27B C 1.32547(7) 0.29805(9) 0.99910(8)
H17B H 1.3179 0.2200 1.0295
C28B C 0.97266(6) 0.28344(9) 0.89750(8)
H18B H 0.9348 0.2447 0.9412
C29B C 1.03144(6) 0.37319(9) 0.94483(8)
H19B H 1.0339 0.3958 1.0212
C30B C 1.55271(6) 0.56215(11) 0.64033(8)
H20B H 1.6146 0.5686 0.6376
loop_
_geom_bond_atom_site_label_1
_geom_bond_atom_site_label_2
_geom_bond_site_symmetry_1
_geom_bond_site_symmetry_2
C1 C3 1_555 1_555
C2 C4 1_555 1_555
C3 C4 1_555 1_555
C4 C6 1_555 1_555
C5 C1 1_555 1_555
H1 C5 1_555 1_555
C6 C7 1_555 1_555
C7 C15 1_555 1_555
C8 C6 1_555 1_555
C9 C12 1_555 1_555
C10 C8 1_555 1_555
C11 C2 1_555 1_555
H2 C11 1_555 1_555
C12 C3 1_555 1_555
C13 H3 1_555 1_555
C14 C10 1_555 1_555
H4 C14 1_555 1_555
C15 H5 1_555 1_555
C16 C10 1_555 1_555
H6 C16 1_555 1_555
C17 C1 1_555 1_555
H7 C17 1_555 1_555
C18 C14 1_555 1_555
H8 C18 1_555 1_555
C19 C11 1_555 1_555
H9 C19 1_555 1_555
C20 C13 1_555 1_555
H10 C20 1_555 1_555
C21 C15 1_555 1_555
H11 C21 1_555 1_555
C22 C5 1_555 1_555
H12 C22 1_555 1_555
C23 C19 1_555 1_555
H13 C23 1_555 1_555
C24 H14 1_555 1_555
C25 C7 1_555 1_555
H15 C25 1_555 1_555
C26 C2 1_555 1_555
H16 C26 1_555 1_555
C27 C23 1_555 1_555
H17 C27 1_555 1_555
C28 C22 1_555 1_555
H18 C28 1_555 1_555
C29 C17 1_555 1_555
H19 C29 1_555 1_555
C30 C21 1_555 1_555
H20 C30 1_555 1_555
C1B C3B 1_555 1_555
C2B C4B 1_555 1_555
C3B C4B 1_555 1_555
C4B C6B 1_555 1_555
C5B C1B 1_555 1_555
H1B C5B 1_555 1_555
C6B C7B 1_555 1_555
C7B C15B 1_555 1_555
C8B C6B 1_555 1_555
C9B C9 1_555 1_555
C10B C8B 1_555 1_555
C11B C2B 1_555 1_555
H2B C11B 1_555 1_555
C12B C3B 1_555 1_555
C13B H3B 1_555 1_555
C14B C10B 1_555 1_555
H4B C14B 1_555 1_555
C15B H5B 1_555 1_555
C16B C10B 1_555 1_555
H6B C16B 1_555 1_555
C17B C1B 1_555 1_555
H7B C17B 1_555 1_555
C18B C14B 1_555 1_555
H8B C18B 1_555 1_555
C19B C11B 1_555 1_555
H9B C19B 1_555 1_555
C20B C13B 1_555 1_555
H10B C20B 1_555 1_555
C21B C15B 1_555 1_555
H11B C21B 1_555 1_555
C22B C5B 1_555 1_555
H12B C22B 1_555 1_555
C23B C19B 1_555 1_555
H13B C23B 1_555 1_555
C24B H14B 1_555 1_555
C25B C7B 1_555 1_555
H15B C25B 1_555 1_555
C26B C2B 1_555 1_555
H16B C26B 1_555 1_555
C27B C23B 1_555 1_555
H17B C27B 1_555 1_555
C28B C22B 1_555 1_555
H18B C28B 1_555 1_555
C29B C17B 1_555 1_555
H19B C29B 1_555 1_555
C30B C21B 1_555 1_555
H20B C30B 1_555 1_555
C8 C12 1_555 1_555
C13 C16 1_555 1_555
C18 C20 1_555 1_555
C24 C25 1_555 1_555
C24 C30 1_555 1_555
C26 C27 1_555 1_555
C28 C29 1_555 1_555
C8B C12B 1_555 1_555
C9B C12B 1_555 1_555
C13B C16B 1_555 1_555
C18B C20B 1_555 1_555
C24B C25B 1_555 1_555
C24B C30B 1_555 1_555
C26B C27B 1_555 1_555
C28B C29B 1_555 1_555

#END
