
#######################################################################
#
#                 Cambridge Crystallographic Data Centre
#                                CCDC 
#
#######################################################################
#
# If this CIF has been generated from an entry in the Cambridge 
# Structural Database, then it will include bibliographic, chemical, 
# crystal, experimental, refinement or atomic coordinate data resulting 
# from the CCDC's data processing and validation procedures.
#
#######################################################################

data_RESNOV
_chemical_formula_moiety         'C78 H53 F3 O2'
_chemical_name_systematic        
'(2R*,3S*,6aR*,7R*)-2,4,5,6,6a,7-hexaphenyl-1-(2,3,4,5-tetraphenylcyclopenta-2,4-dien-1-ylidene)-2,3,6a,7-tetrahydro-1H-cyclopenta[a]pentalen-3-yl trifluoroacetate unknown solvate'
_symmetry_cell_setting           monoclinic
_symmetry_space_group_name_H-M   'P 21/n'
_symmetry_Int_Tables_number      14
_space_group_name_Hall           '-P 2yn'
loop_
_symmetry_equiv_pos_site_id
_symmetry_equiv_pos_as_xyz
1 x,y,z
2 1/2-x,1/2+y,1/2-z
3 -x,-y,-z
4 1/2+x,1/2-y,1/2+z
_cell_length_a                   16.3921(3)
_cell_length_b                   20.2454(3)
_cell_length_c                   21.0396(3)
_cell_angle_alpha                90
_cell_angle_beta                 104.5250(10)
_cell_angle_gamma                90
_cell_volume                     6759.13
_exptl_crystal_colour            brown
_exptl_crystal_description       plank
_chemical_melting_point          '210 deg.C'
_cell_formula_units_Z            4
_exptl_crystal_recrystallization_method 'ethyl acetate/pentane'
loop_
_atom_site_label
_atom_site_type_symbol
_atom_site_fract_x
_atom_site_fract_y
_atom_site_fract_z
C1 C 0.62033(11) 0.52522(10) 0.83332(16)
C2 C 0.74706(13) 0.53420(12) 0.92073(18)
H1 H 0.7930 0.5600 0.9446
C3 C 0.01700(13) 0.70223(11) 0.58803(18)
H2 H 0.0210 0.6556 0.5930
C4 C 0.33736(11) 0.70767(9) 0.79735(16)
C5 C 0.65718(12) 0.58729(10) 0.70367(17)
C6 C 0.57267(12) 0.57850(10) 0.71619(19)
C7 C 0.28812(11) 0.64232(10) 0.78828(19)
H3 H 0.3153 0.6091 0.8222
C8 C 0.04247(12) 0.81128(10) 0.63287(18)
H4 H 0.0643 0.8400 0.6688
C9 C 0.42980(12) 0.58335(9) 0.70709(16)
C10 C 0.04497(12) 0.79386(9) 0.78480(17)
C11 C 0.09661(11) 0.73819(10) 0.7708(2)
C12 C 0.55644(12) 0.55417(10) 0.77724(19)
C13 C 0.68859(12) 0.56184(11) 0.86838(17)
H5 H 0.6952 0.6064 0.8563
C14 C 0.00382(14) 0.83740(11) 0.57264(19)
H6 H -0.0010 0.8840 0.5674
C15 C 0.47149(12) 0.55772(10) 0.77312(17)
C16 C 0.79663(14) 0.54618(13) 0.7062(2)
H7 H 0.8365 0.5112 0.7155
C17 C 0.05023(11) 0.74257(9) 0.64211(16)
C18 C 0.75890(14) 0.65360(14) 0.6662(2)
H8 H 0.7725 0.6938 0.6480
C19 C 0.29787(12) 0.59812(9) 0.60981(16)
H9 H 0.3312 0.6237 0.5843
C20 C 0.67167(13) 0.43216(11) 0.90352(17)
H10 H 0.6661 0.3873 0.9150
C21 C 0.03853(16) 0.90187(10) 0.83138(19)
H11 H 0.0665 0.9393 0.8541
C22 C 0.73885(13) 0.46910(12) 0.93840(17)
H12 H 0.7791 0.4500 0.9742
C23 C 0.30707(13) 0.76447(10) 0.76291(17)
H13 H 0.2536 0.7638 0.7322
C24 C -0.08817(15) 0.84625(13) 0.77850(19)
H14 H -0.1480 0.8453 0.7654
C25 C 0.67941(13) 0.64548(12) 0.67777(18)
H15 H 0.6397 0.6805 0.6677
C26 C 0.71833(13) 0.53746(11) 0.71847(18)
H16 H 0.7058 0.4972 0.7372
C27 C 0.61273(13) 0.46012(10) 0.85222(17)
H17 H 0.5660 0.4345 0.8293
C28 C 0.08469(14) 0.84884(9) 0.81815(17)
H18 H 0.1445 0.8500 0.8321
C29 C -0.04252(13) 0.79305(11) 0.76396(18)
H19 H -0.0708 0.7564 0.7400
C30 C 0.34481(12) 0.59787(8) 0.68361(16)
C31 C -0.02791(17) 0.79695(13) 0.5198(2)
H20 H -0.0541 0.8154 0.4781
C32 C 0.81777(15) 0.60402(15) 0.6809(2)
H21 H 0.8722 0.6098 0.6737
C33 C 0.35384(14) 0.82239(11) 0.77262(19)
H22 H 0.3313 0.8612 0.7493
C34 C 0.41582(15) 0.71014(11) 0.83978(19)
H23 H 0.4386 0.6716 0.8634
C35 C 0.46251(18) 0.76815(13) 0.8487(2)
H24 H 0.5166 0.7689 0.8786
C36 C 0.43126(16) 0.82427(12) 0.8149(2)
H25 H 0.4633 0.8639 0.8210
C37 C -0.02137(17) 0.72856(13) 0.5279(2)
H26 H -0.0435 0.7002 0.4917
C38 C -0.04782(17) 0.90036(12) 0.81160(19)
H27 H -0.0797 0.9367 0.8208
C39 C 0.43075(13) 0.52923(10) 0.8214(2)
C40 C 0.41777(14) 0.51853(11) 0.9332(2)
H28 H 0.4355 0.5312 0.9780
C41 C 0.45704(14) 0.54503(11) 0.8881(2)
H29 H 0.5029 0.5746 0.9028
C42 C 0.15543(12) 0.58339(9) 0.80304(18)
C43 C 0.09623(12) 0.54755(9) 0.75699(17)
H30 H 0.0785 0.5630 0.7130
C44 C 0.18007(13) 0.55958(10) 0.86593(19)
H31 H 0.2210 0.5832 0.8978
C45 C 0.14614(13) 0.50118(10) 0.88412(18)
H32 H 0.1633 0.4857 0.9281
C46 C 0.06267(14) 0.48922(11) 0.7747(2)
H33 H 0.0223 0.4652 0.7428
C47 C 0.08743(14) 0.46628(11) 0.8376(2)
H34 H 0.0644 0.4264 0.8494
C48 C 0.09604(11) 0.71422(9) 0.7045(2)
C49 C 0.28424(11) 0.61773(9) 0.7194(2)
C50 C 0.15437(12) 0.70442(9) 0.8182(2)
C51 C 0.09954(18) 0.70332(17) 0.9175(3)
H35 H 0.0445 0.6974 0.8900
C52 C 0.1899(2) 0.71468(12) 1.0257(2)
H36 H 0.1981 0.7156 1.0720
C53 C 0.2565(2) 0.72311(12) 0.9974(3)
H37 H 0.3113 0.7308 1.0248
C54 C 0.24589(17) 0.72064(12) 0.9305(3)
H38 H 0.2931 0.7261 0.9125
C55 C 0.16670(14) 0.71028(10) 0.8894(3)
C56 C 0.15513(12) 0.66457(9) 0.71234(17)
C57 C 0.19076(12) 0.64949(9) 0.78402(17)
C58 C 0.1107(2) 0.70482(18) 0.9843(3)
H39 H 0.0636 0.6990 1.0024
C59 C 0.36469(13) 0.48363(10) 0.80189(18)
H40 H 0.3455 0.4716 0.7570
C60 C 0.32737(15) 0.45611(11) 0.8480(2)
H41 H 0.2835 0.4246 0.8343
C61 C 0.35267(15) 0.47359(12) 0.9132(2)
H42 H 0.3258 0.4550 0.9441
C62 C 0.51152(15) 0.58314(13) 0.5580(2)
H43 H 0.5342 0.5402 0.5688
C63 C 0.45578(13) 0.68415(11) 0.5894(2)
H44 H 0.4409 0.7115 0.6214
C64 C 0.48749(12) 0.62040(11) 0.6057(2)
C65 C 0.49687(12) 0.59354(10) 0.6722(2)
C66 C 0.50315(18) 0.60695(15) 0.4955(3)
H45 H 0.5204 0.5806 0.4639
C67 C 0.44649(15) 0.70681(14) 0.5249(3)
H46 H 0.4235 0.7494 0.5129
C68 C 0.47017(18) 0.66832(15) 0.4786(2)
H47 H 0.4636 0.6843 0.4351
C69 C 0.23844(13) 0.48228(9) 0.61010(17)
H48 H 0.2225 0.4924 0.6494
C70 C 0.30363(15) 0.51310(12) 0.5247(2)
H49 H 0.3325 0.5448 0.5052
C71 C 0.28501(16) 0.45141(13) 0.4953(2)
H50 H 0.3011 0.4411 0.4561
C72 C 0.28092(12) 0.52894(10) 0.5816(2)
C73 C 0.21946(16) 0.42045(11) 0.5805(2)
H51 H 0.1902 0.3887 0.5996
C74 C 0.24299(18) 0.40534(13) 0.5236(3)
H52 H 0.2302 0.3631 0.5039
C75 C 0.21421(12) 0.63457(9) 0.6079(2)
H53 H 0.1644 0.6119 0.5788
C76 C 0.20961(12) 0.63625(9) 0.6769(2)
O1 O 0.22126(9) 0.70458(7) 0.58880(14)
C77 C 0.1953(2) 0.71898(14) 0.5260(3)
O2 O 0.1663(2) 0.68354(11) 0.48103(17)
F1 F 0.14548(14) 0.81792(8) 0.47243(14)
F2 F 0.27576(17) 0.80062(10) 0.49355(19)
F3 F 0.21739(17) 0.82836(8) 0.56746(15)
C78 C 0.2099(2) 0.79223(14) 0.5138(2)
loop_
_geom_bond_atom_site_label_1
_geom_bond_atom_site_label_2
_geom_bond_site_symmetry_1
_geom_bond_site_symmetry_2
C1 C12 1_555 1_555
C2 H1 1_555 1_555
C3 H2 1_555 1_555
C4 C7 1_555 1_555
C5 C6 1_555 1_555
C6 C12 1_555 1_555
C7 H3 1_555 1_555
C8 H4 1_555 1_555
C9 C15 1_555 1_555
C10 C11 1_555 1_555
C11 C48 1_555 1_555
C12 C15 1_555 1_555
C13 C1 1_555 1_555
H5 C13 1_555 1_555
C14 C8 1_555 1_555
H6 C14 1_555 1_555
C15 C39 1_555 1_555
C16 H7 1_555 1_555
C17 C3 1_555 1_555
C18 H8 1_555 1_555
C19 H9 1_555 1_555
C20 H10 1_555 1_555
C21 H11 1_555 1_555
C22 C2 1_555 1_555
H12 C22 1_555 1_555
C23 C4 1_555 1_555
H13 C23 1_555 1_555
C24 H14 1_555 1_555
C25 C5 1_555 1_555
H15 C25 1_555 1_555
C26 C5 1_555 1_555
H16 C26 1_555 1_555
C27 C1 1_555 1_555
H17 C27 1_555 1_555
C28 C10 1_555 1_555
H18 C28 1_555 1_555
C29 C10 1_555 1_555
H19 C29 1_555 1_555
C30 C9 1_555 1_555
C31 C14 1_555 1_555
H20 C31 1_555 1_555
C32 C16 1_555 1_555
H21 C32 1_555 1_555
C33 C23 1_555 1_555
H22 C33 1_555 1_555
C34 C4 1_555 1_555
H23 C34 1_555 1_555
C35 C34 1_555 1_555
H24 C35 1_555 1_555
C36 C33 1_555 1_555
H25 C36 1_555 1_555
C37 C3 1_555 1_555
H26 C37 1_555 1_555
C38 C21 1_555 1_555
H27 C38 1_555 1_555
C39 C41 1_555 1_555
C40 H28 1_555 1_555
C41 C40 1_555 1_555
H29 C41 1_555 1_555
C42 C43 1_555 1_555
C43 H30 1_555 1_555
C44 C42 1_555 1_555
H31 C44 1_555 1_555
C45 C44 1_555 1_555
H32 C45 1_555 1_555
C46 C43 1_555 1_555
H33 C46 1_555 1_555
C47 C45 1_555 1_555
H34 C47 1_555 1_555
C48 C17 1_555 1_555
C49 C7 1_555 1_555
C50 C11 1_555 1_555
C51 H35 1_555 1_555
C52 H36 1_555 1_555
C53 C52 1_555 1_555
H37 C53 1_555 1_555
C54 C53 1_555 1_555
H38 C54 1_555 1_555
C55 C50 1_555 1_555
C56 C48 1_555 1_555
C57 C7 1_555 1_555
C58 C51 1_555 1_555
H39 C58 1_555 1_555
C59 C39 1_555 1_555
H40 C59 1_555 1_555
C60 C59 1_555 1_555
H41 C60 1_555 1_555
C61 C40 1_555 1_555
H42 C61 1_555 1_555
C62 H43 1_555 1_555
C63 H44 1_555 1_555
C64 C62 1_555 1_555
C65 C6 1_555 1_555
C66 C62 1_555 1_555
H45 C66 1_555 1_555
C67 C63 1_555 1_555
H46 C67 1_555 1_555
C68 C66 1_555 1_555
H47 C68 1_555 1_555
C69 H48 1_555 1_555
C70 H49 1_555 1_555
C71 C70 1_555 1_555
H50 C71 1_555 1_555
C72 C19 1_555 1_555
C73 C69 1_555 1_555
H51 C73 1_555 1_555
C74 C71 1_555 1_555
H52 C74 1_555 1_555
C75 C19 1_555 1_555
H53 C75 1_555 1_555
C76 C49 1_555 1_555
O1 C75 1_555 1_555
C77 O1 1_555 1_555
O2 C77 1_555 1_555
F1 C78 1_555 1_555
F2 C78 1_555 1_555
F3 C78 1_555 1_555
C78 C77 1_555 1_555
C2 C13 1_555 1_555
C8 C17 1_555 1_555
C9 C65 1_555 1_555
C16 C26 1_555 1_555
C18 C25 1_555 1_555
C18 C32 1_555 1_555
C19 C30 1_555 1_555
C20 C22 1_555 1_555
C20 C27 1_555 1_555
C21 C28 1_555 1_555
C24 C29 1_555 1_555
C24 C38 1_555 1_555
C30 C49 1_555 1_555
C31 C37 1_555 1_555
C35 C36 1_555 1_555
C42 C57 1_555 1_555
C46 C47 1_555 1_555
C50 C57 1_555 1_555
C51 C55 1_555 1_555
C52 C58 1_555 1_555
C54 C55 1_555 1_555
C56 C57 1_555 1_555
C56 C76 1_555 1_555
C60 C61 1_555 1_555
C63 C64 1_555 1_555
C64 C65 1_555 1_555
C67 C68 1_555 1_555
C69 C72 1_555 1_555
C70 C72 1_555 1_555
C73 C74 1_555 1_555
C75 C76 1_555 1_555

#END
