
#######################################################################
#
#                 Cambridge Crystallographic Data Centre
#                                CCDC 
#
#######################################################################
#
# If this CIF has been generated from an entry in the Cambridge 
# Structural Database, then it will include bibliographic, chemical, 
# crystal, experimental, refinement or atomic coordinate data resulting 
# from the CCDC's data processing and validation procedures.
#
#######################################################################

data_RETDEB
_chemical_formula_moiety         'C27 H21 N3 O3 S1'
_chemical_name_systematic        
(2'R,3'R,4'S)-1-Methyl-2''-(4-methylphenyl)-3'-phenyl-5'-thioxodispiro[indole-3,2'-pyrrolidine-4',4''-[1,3]oxazole]-2,5''(1H)-dione
_symmetry_cell_setting           monoclinic
_symmetry_space_group_name_H-M   'C 2'
_symmetry_Int_Tables_number      5
_space_group_name_Hall           'C 2y'
loop_
_symmetry_equiv_pos_site_id
_symmetry_equiv_pos_as_xyz
1 x,y,z
2 -x,y,-z
3 1/2+x,1/2+y,z
4 1/2-x,1/2+y,-z
_cell_length_a                   19.9493(16)
_cell_length_b                   10.3349(4)
_cell_length_c                   15.0080(12)
_cell_angle_alpha                90
_cell_angle_beta                 127.745(12)
_cell_angle_gamma                90
_cell_volume                     2446.76
_chemical_melting_point          '241.2-242.6 deg.C'
_cell_formula_units_Z            4
loop_
_atom_site_label
_atom_site_type_symbol
_atom_site_fract_x
_atom_site_fract_y
_atom_site_fract_z
S1 S 1.10288(5) 0.41198(6) 0.17186(7)
O1 O 0.90447(10) 0.00115(15) -0.02972(13)
O2 O 0.88761(10) 0.43835(16) 0.09226(14)
O3 O 0.98103(9) 0.47830(15) 0.27853(13)
N1 N 1.05540(10) 0.16526(16) 0.14586(15)
H1 H 1.0791 0.1447 0.1155
C1 C 0.95177(12) 0.15976(19) 0.16983(16)
H2 H 0.9064 0.1805 0.0907
N2 N 1.06127(10) 0.29597(17) 0.34389(14)
C2 C 1.00339(12) 0.2863(2) 0.22057(16)
C3 C 0.90661(11) 0.1066(2) 0.21365(16)
C4 C 1.05563(13) 0.2855(2) 0.17635(18)
N3 N 0.98064(13) -0.14807(18) 0.11276(18)
C5 C 1.04614(12) 0.4038(2) 0.36820(18)
C6 C 0.94853(14) 0.4057(2) 0.18287(19)
C7 C 1.01273(12) 0.0695(2) 0.16676(17)
C8 C 0.94595(13) 0.0808(3) 0.32618(18)
H3 H 1.0037 0.0960 0.3796
C9 C 0.82146(13) 0.0817(3) 0.13816(18)
H4 H 0.7936 0.0983 0.0621
C10 C 0.81583(14) 0.0097(3) 0.2837(2)
H5 H 0.7853 -0.0213 0.3074
C11 C 1.07316(13) -0.0181(2) 0.26521(19)
C12 C 0.95953(14) -0.0275(2) 0.0694(2)
C13 C 1.08836(13) 0.4613(2) 0.47948(18)
C14 C 1.17089(16) 0.5713(3) 0.6931(2)
C15 C 1.05173(16) -0.1455(2) 0.2284(2)
C16 C 0.77607(14) 0.0327(3) 0.1721(2)
H6 H 0.7185 0.0153 0.1191
C17 C 1.07915(18) 0.5908(3) 0.4916(2)
H7 H 1.0446 0.6425 0.4280
C18 C 1.14370(14) 0.0083(3) 0.3744(2)
H8 H 1.1591 0.0932 0.3998
C19 C 0.89994(15) 0.0326(3) 0.3596(2)
H9 H 0.9272 0.0155 0.4354
C20 C 1.19082(17) -0.0950(4) 0.4450(3)
H10 H 1.2383 -0.0792 0.5187
C21 C 1.17973(17) 0.4428(3) 0.6809(2)
H11 H 1.2130 0.3913 0.7448
C22 C 1.12097(19) 0.6447(3) 0.5978(2)
H12 H 1.1149 0.7326 0.6045
C23 C 1.2120(2) 0.6306(4) 0.8077(2)
H13 H 1.2534 0.6932 0.8229
H14 H 1.2393 0.5640 0.8641
H15 H 1.1696 0.6721 0.8090
C24 C 1.14019(17) 0.3874(3) 0.5755(2)
H16 H 1.1486 0.3003 0.5695
C25 C 0.9358(2) -0.2635(3) 0.0483(3)
H17 H 0.9060 -0.2997 0.0740
H18 H 0.9756 -0.3257 0.0582
H19 H 0.8960 -0.2416 -0.0301
C26 C 1.0990(2) -0.2490(3) 0.2982(3)
H20 H 1.0849 -0.3340 0.2728
C27 C 1.1684(2) -0.2197(4) 0.4076(3)
H21 H 1.2006 -0.2870 0.4572
loop_
_geom_bond_atom_site_label_1
_geom_bond_atom_site_label_2
_geom_bond_site_symmetry_1
_geom_bond_site_symmetry_2
S1 C4 1_555 1_555
O1 C12 1_555 1_555
O2 C6 1_555 1_555
O3 C5 1_555 1_555
N1 H1 1_555 1_555
C1 H2 1_555 1_555
N2 C2 1_555 1_555
C2 C1 1_555 1_555
C3 C1 1_555 1_555
C4 N1 1_555 1_555
N3 C12 1_555 1_555
C5 N2 1_555 1_555
C6 O3 1_555 1_555
C7 N1 1_555 1_555
C8 C3 1_555 1_555
H3 C8 1_555 1_555
C9 C3 1_555 1_555
H4 C9 1_555 1_555
C10 H5 1_555 1_555
C11 C7 1_555 1_555
C12 C7 1_555 1_555
C13 C5 1_555 1_555
C14 C21 1_555 1_555
C15 N3 1_555 1_555
C16 C9 1_555 1_555
H6 C16 1_555 1_555
C17 C13 1_555 1_555
H7 C17 1_555 1_555
C18 C11 1_555 1_555
H8 C18 1_555 1_555
C19 C8 1_555 1_555
H9 C19 1_555 1_555
C20 C18 1_555 1_555
H10 C20 1_555 1_555
C21 H11 1_555 1_555
C22 C14 1_555 1_555
H12 C22 1_555 1_555
C23 C14 1_555 1_555
H13 C23 1_555 1_555
H14 C23 1_555 1_555
H15 C23 1_555 1_555
C24 C13 1_555 1_555
H16 C24 1_555 1_555
C25 N3 1_555 1_555
H17 C25 1_555 1_555
H18 C25 1_555 1_555
H19 C25 1_555 1_555
C26 C15 1_555 1_555
H20 C26 1_555 1_555
C27 C20 1_555 1_555
H21 C27 1_555 1_555
C1 C7 1_555 1_555
C2 C4 1_555 1_555
C2 C6 1_555 1_555
C10 C16 1_555 1_555
C10 C19 1_555 1_555
C11 C15 1_555 1_555
C17 C22 1_555 1_555
C21 C24 1_555 1_555
C26 C27 1_555 1_555

#END
