
#######################################################################
#
#                 Cambridge Crystallographic Data Centre
#                                CCDC 
#
#######################################################################
#
# If this CIF has been generated from an entry in the Cambridge 
# Structural Database, then it will include bibliographic, chemical, 
# crystal, experimental, refinement or atomic coordinate data resulting 
# from the CCDC's data processing and validation procedures.
#
#######################################################################

data_RETFEE
_chemical_formula_moiety         'C9 H17 N2 1+,H4 B5 O10 1-'
_chemical_name_systematic        
"2,3,4,6,7,8,9,10-octahydro-1H-pyrimido[1,2-a]azepin-5-ium 1,1'-spiro-bis(3,5-dihydroxy-2,4,6-trioxa-1,3,5-triboracyclohexane)"
_symmetry_cell_setting           triclinic
_symmetry_space_group_name_H-M   'P -1'
_symmetry_Int_Tables_number      2
_space_group_name_Hall           '-P 1'
loop_
_symmetry_equiv_pos_site_id
_symmetry_equiv_pos_as_xyz
1 x,y,z
2 -x,-y,-z
_cell_length_a                   9.5380(7)
_cell_length_b                   9.9420(8)
_cell_length_c                   10.5633(7)
_cell_angle_alpha                66.697(3)
_cell_angle_beta                 66.457(3)
_cell_angle_gamma                87.720(4)
_cell_volume                     835.038
_exptl_crystal_description       BLOCK
_cell_formula_units_Z            2
loop_
_atom_site_label
_atom_site_type_symbol
_atom_site_fract_x
_atom_site_fract_y
_atom_site_fract_z
O1 O 0.25614(13) 0.68138(14) 0.31375(13)
O2 O 0.42004(13) 0.58032(14) 0.13924(14)
O3 O 0.49132(13) 0.60072(13) 0.32597(13)
O4 O 0.14725(13) 0.54533(15) 0.22588(15)
O5 O 0.49397(13) 0.82032(13) 0.11524(14)
O6 O 0.71664(14) 0.78086(15) 0.16728(15)
O7 O -0.00870(14) 0.65951(15) 0.38269(15)
H1 H -0.072700 0.631500 0.361400
O8 O 0.70787(14) 0.58631(15) 0.38579(15)
H2 H 0.645300 0.523800 0.466300
O9 O 0.71369(15) 1.00380(15) -0.02187(16)
H3 H 0.652600 1.052400 -0.051200
O10 O 0.29737(16) 0.44080(19) 0.06441(19)
H4 H 0.387200 0.445000 0.006900
B1 B 0.1314(2) 0.6279(2) 0.3079(2)
B2 B 0.4146(2) 0.6696(2) 0.2233(2)
B3 B 0.6400(2) 0.8684(2) 0.0852(2)
B4 B 0.2918(2) 0.5229(2) 0.1419(2)
B5 B 0.6364(2) 0.6531(2) 0.2930(2)
N1 N 0.1755(2) 1.0068(2) 0.5858(2)
C1 C 0.1794(2) 0.9067(2) 0.5333(2)
N2 N 0.2654(2) 0.9341(2) 0.3899(2)
H5 H 0.265400 0.864800 0.360500
C2 C 0.0876(3) 0.7570(3) 0.6343(2)
H6 H 0.098600 0.701700 0.573900
H7 H -0.020600 0.767600 0.678700
C3 C 0.1367(3) 0.6695(3) 0.7614(3)
H8 H 0.106200 0.564800 0.795400
H9 H 0.248400 0.686600 0.721400
C4 C 0.0712(3) 0.9818(3) 0.7433(3)
H10 H -0.033100 0.950200 0.762800
H11 H 0.071300 1.074800 0.753100
C5 C 0.2746(3) 1.1502(3) 0.4914(3)
H12 H 0.313300 1.176600 0.551800
H13 H 0.213700 1.225200 0.457800
C6 C 0.1144(3) 0.8686(3) 0.8616(3)
H14 H 0.065700 0.882500 0.954700
H15 H 0.225200 0.885800 0.828000
C7 C 0.0683(3) 0.7085(3) 0.8960(3)
H16 H 0.099600 0.643900 0.973800
H17 H -0.043400 0.689100 0.937100
C8 C 0.3603(3) 1.0756(3) 0.2789(3)
H18 H 0.301900 1.138600 0.227400
H19 H 0.450800 1.060100 0.203400
C9 C 0.4081(3) 1.1482(3) 0.3556(3)
H20 H 0.455800 1.248800 0.284800
H21 H 0.484800 1.096000 0.387300
loop_
_geom_bond_atom_site_label_1
_geom_bond_atom_site_label_2
_geom_bond_site_symmetry_1
_geom_bond_site_symmetry_2
O1 B1 1_555 1_555
O2 B2 1_555 1_555
O3 B2 1_555 1_555
O4 B1 1_555 1_555
O5 B2 1_555 1_555
O6 B3 1_555 1_555
O7 H1 1_555 1_555
O8 H2 1_555 1_555
O9 H3 1_555 1_555
O10 H4 1_555 1_555
B1 O7 1_555 1_555
B2 O1 1_555 1_555
B3 O5 1_555 1_555
B4 O2 1_555 1_555
B5 O3 1_555 1_555
N1 C1 1_555 1_555
C1 N2 1_555 1_555
N2 H5 1_555 1_555
C2 C1 1_555 1_555
H6 C2 1_555 1_555
H7 C2 1_555 1_555
C3 C2 1_555 1_555
H8 C3 1_555 1_555
H9 C3 1_555 1_555
C4 N1 1_555 1_555
H10 C4 1_555 1_555
H11 C4 1_555 1_555
C5 N1 1_555 1_555
H12 C5 1_555 1_555
H13 C5 1_555 1_555
C6 C4 1_555 1_555
H14 C6 1_555 1_555
H15 C6 1_555 1_555
C7 C3 1_555 1_555
H16 C7 1_555 1_555
H17 C7 1_555 1_555
C8 N2 1_555 1_555
H18 C8 1_555 1_555
H19 C8 1_555 1_555
C9 C5 1_555 1_555
H20 C9 1_555 1_555
H21 C9 1_555 1_555
O4 B4 1_555 1_555
O6 B5 1_555 1_555
O8 B5 1_555 1_555
O9 B3 1_555 1_555
O10 B4 1_555 1_555
C6 C7 1_555 1_555
C8 C9 1_555 1_555

#END
