
#######################################################################
#
#                 Cambridge Crystallographic Data Centre
#                                CCDC 
#
#######################################################################
#
# If this CIF has been generated from an entry in the Cambridge 
# Structural Database, then it will include bibliographic, chemical, 
# crystal, experimental, refinement or atomic coordinate data resulting 
# from the CCDC's data processing and validation procedures.
#
#######################################################################

data_RETGEE
_chemical_compound_source        'aerial parts of Isodon scoparius (Lamiaceae)'
_chemical_name_common            'Isoscoparin M'
_chemical_formula_moiety         'C20 H30 O2'
_chemical_name_systematic        
4-Methyl-6-(1,2,5,5-tetramethyl-1,2,3,4,5,6,7,8-octahydronaphthalen-1-yl)-5,6-dihydro-2H-pyran-2-one
_symmetry_cell_setting           monoclinic
_symmetry_space_group_name_H-M   'P 21'
_symmetry_Int_Tables_number      4
_space_group_name_Hall           'P 2yb'
loop_
_symmetry_equiv_pos_site_id
_symmetry_equiv_pos_as_xyz
1 x,y,z
2 -x,1/2+y,-z
_cell_length_a                   10.3967(14)
_cell_length_b                   7.3895(10)
_cell_length_c                   11.4574(15)
_cell_angle_alpha                90
_cell_angle_beta                 90.723(7)
_cell_angle_gamma                90
_cell_volume                     880.161
_exptl_crystal_colour            colorless
_exptl_crystal_description       block
_cell_formula_units_Z            2
loop_
_atom_site_label
_atom_site_type_symbol
_atom_site_fract_x
_atom_site_fract_y
_atom_site_fract_z
O1 O 1.02149(16) 0.8387(2) 0.63173(13)
O2 O 0.88872(12) 0.61456(18) 0.67111(11)
C1 C 1.0047(2) 0.6762(3) 0.63750(15)
C2 C 0.85695(16) 0.4242(3) 0.65051(15)
H1 H 0.8438 0.4087 0.5645
C3 C 0.72611(15) 0.3849(2) 0.70932(16)
C4 C 0.74626(16) 0.3543(3) 0.84134(15)
C5 C 0.71216(16) 0.2016(3) 0.89656(16)
C6 C 0.74197(17) 0.1649(3) 1.02551(16)
C7 C 0.8001(2) -0.0253(3) 1.0397(2)
H2 H 0.8746 -0.0375 0.9888
H3 H 0.7354 -0.1164 1.0183
H4 H 0.8273 -0.0434 1.1211
C8 C 0.96690(16) 0.2998(3) 0.68732(17)
H5 H 0.9704 0.2914 0.7735
H6 H 0.9510 0.1769 0.6559
C9 C 1.09339(17) 0.3686(3) 0.64373(16)
C10 C 1.20123(18) 0.2356(4) 0.63610(19)
H7 H 1.2783 0.2968 0.6075
H8 H 1.1770 0.1381 0.5822
H9 H 1.2191 0.1847 0.7136
C11 C 1.10554(19) 0.5431(3) 0.61710(16)
H10 H 1.1836 0.5828 0.5832
C12 C 0.8391(2) 0.3009(3) 1.07482(17)
H11 H 0.8403 0.2930 1.1611
H12 H 0.9261 0.2699 1.0469
C13 C 0.8063(2) 0.4921(3) 1.03842(17)
H13 H 0.8681 0.5775 1.0751
H14 H 0.7190 0.5234 1.0654
C14 C 0.8117(2) 0.5095(3) 0.90651(15)
H15 H 0.9028 0.5155 0.8829
H16 H 0.7701 0.6246 0.8830
C15 C 0.6181(2) 0.1716(4) 1.09736(19)
H17 H 0.6380 0.1403 1.1787
H18 H 0.5557 0.0850 1.0653
H19 H 0.5817 0.2939 1.0939
C16 C 0.6431(2) 0.0510(3) 0.83332(19)
H20 H 0.5794 -0.0039 0.8861
H21 H 0.7060 -0.0439 0.8124
C17 C 0.57482(19) 0.1164(3) 0.72337(18)
H22 H 0.5045 0.2003 0.7441
H23 H 0.5369 0.0123 0.6808
C18 C 0.67134(16) 0.2129(3) 0.64637(16)
H24 H 0.7450 0.1282 0.6344
C19 C 0.61090(17) 0.2511(3) 0.52588(17)
H25 H 0.5956 0.1364 0.4850
H26 H 0.6695 0.3263 0.4803
H27 H 0.5291 0.3148 0.5355
C20 C 0.63425(18) 0.5453(3) 0.68787(16)
H28 H 0.5463 0.5093 0.7072
H29 H 0.6374 0.5812 0.6056
H30 H 0.6605 0.6475 0.7372
loop_
_geom_bond_atom_site_label_1
_geom_bond_atom_site_label_2
_geom_bond_site_symmetry_1
_geom_bond_site_symmetry_2
O1 C1 1_555 1_555
O2 C1 1_555 1_555
C1 C11 1_555 1_555
C2 O2 1_555 1_555
H1 C2 1_555 1_555
C3 C2 1_555 1_555
C4 C3 1_555 1_555
C5 C4 1_555 1_555
C6 C5 1_555 1_555
C7 C6 1_555 1_555
H2 C7 1_555 1_555
H3 C7 1_555 1_555
H4 C7 1_555 1_555
C8 C2 1_555 1_555
H5 C8 1_555 1_555
H6 C8 1_555 1_555
C9 C8 1_555 1_555
C10 C9 1_555 1_555
H7 C10 1_555 1_555
H8 C10 1_555 1_555
H9 C10 1_555 1_555
C11 C9 1_555 1_555
H10 C11 1_555 1_555
C12 C6 1_555 1_555
H11 C12 1_555 1_555
H12 C12 1_555 1_555
C13 C12 1_555 1_555
H13 C13 1_555 1_555
H14 C13 1_555 1_555
C14 C4 1_555 1_555
H15 C14 1_555 1_555
H16 C14 1_555 1_555
C15 C6 1_555 1_555
H17 C15 1_555 1_555
H18 C15 1_555 1_555
H19 C15 1_555 1_555
C16 C5 1_555 1_555
H20 C16 1_555 1_555
H21 C16 1_555 1_555
C17 C16 1_555 1_555
H22 C17 1_555 1_555
H23 C17 1_555 1_555
C18 C3 1_555 1_555
H24 C18 1_555 1_555
C19 C18 1_555 1_555
H25 C19 1_555 1_555
H26 C19 1_555 1_555
H27 C19 1_555 1_555
C20 C3 1_555 1_555
H28 C20 1_555 1_555
H29 C20 1_555 1_555
H30 C20 1_555 1_555
C13 C14 1_555 1_555
C17 C18 1_555 1_555

#END
