
#######################################################################
#
#                 Cambridge Crystallographic Data Centre
#                                CCDC 
#
#######################################################################
#
# If this CIF has been generated from an entry in the Cambridge 
# Structural Database, then it will include bibliographic, chemical, 
# crystal, experimental, refinement or atomic coordinate data resulting 
# from the CCDC's data processing and validation procedures.
#
#######################################################################

data_RETGII
_chemical_compound_source        'aerial parts of Isodon scoparius (Lamiaceae)'
_chemical_name_common            'Isoscoparin O'
_chemical_formula_moiety         'C22 H34 O4'
_chemical_name_systematic        
'5-Acetoxy-3-methyl-5-(1,2,4a-trimethyl-5-methylenedecahydronaphthalen-1-yl)pent-2-enoic acid'
_symmetry_cell_setting           triclinic
_symmetry_space_group_name_H-M   'P 1'
_symmetry_Int_Tables_number      1
_space_group_name_Hall           'P 1'
loop_
_symmetry_equiv_pos_site_id
_symmetry_equiv_pos_as_xyz
1 x,y,z
_cell_length_a                   10.5000(6)
_cell_length_b                   10.5061(6)
_cell_length_c                   11.9466(6)
_cell_angle_alpha                99.523(2)
_cell_angle_beta                 107.291(2)
_cell_angle_gamma                118.268(2)
_cell_volume                     1032.17
_exptl_crystal_colour            colorless
_exptl_crystal_description       prism
_cell_formula_units_Z            2
loop_
_atom_site_label
_atom_site_type_symbol
_atom_site_fract_x
_atom_site_fract_y
_atom_site_fract_z
C1 C 0.0674(5) 0.1533(5) 0.4913(4)
H1 H -0.0058 0.1460 0.4120
H2 H 0.0350 0.0467 0.4867
C2 C 0.2420(5) 0.2470(5) 0.5062(4)
H3 H 0.3139 0.2469 0.5817
H4 H 0.2485 0.1976 0.4319
O1 O 0.2599(4) 0.1594(4) -0.1144(3)
H5 H 0.3255 0.2528 -0.0664
O2 O 0.0598(5) -0.0526(5) -0.1155(3)
O3 O 0.4622(3) 0.2976(3) 0.3770(3)
O4 O 0.6773(4) 0.4108(4) 0.3371(3)
C3 C 0.0537(5) 0.2324(6) 0.6031(4)
H6 H -0.0597 0.1771 0.5893
H7 H 0.1167 0.2287 0.6812
C4 C 0.2960(5) 0.4135(5) 0.5192(4)
H8 H 0.2123 0.4031 0.4439
C5 C 0.4562(4) 0.5066(5) 0.5056(4)
C6 C 0.4407(4) 0.4253(5) 0.3753(3)
H9 H 0.5296 0.5042 0.3607
C7 C 0.2856(5) 0.3587(5) 0.2607(4)
H10 H 0.1988 0.2669 0.2654
H11 H 0.2582 0.4370 0.2629
C8 C 0.2914(4) 0.3115(5) 0.1370(4)
C9 C 0.2032(5) 0.1633(5) 0.0663(4)
H12 H 0.1494 0.0953 0.1037
C10 C 0.1742(5) 0.0851(5) -0.0626(4)
C11 C 0.6014(5) 0.5235(5) 0.6058(4)
H13 H 0.6861 0.5513 0.5772
H14 H 0.5685 0.4249 0.6187
H15 H 0.6420 0.6050 0.6852
C12 C 0.4932(5) 0.6706(5) 0.5107(4)
H16 H 0.4043 0.6535 0.4355
C13 C 0.4881(6) 0.7516(5) 0.6266(4)
H17 H 0.5753 0.7710 0.7032
H18 H 0.5085 0.8534 0.6255
C14 C 0.3307(6) 0.6595(6) 0.6336(4)
H19 H 0.2446 0.6476 0.5608
H20 H 0.3364 0.7176 0.7112
C15 C 0.2878(5) 0.4986(6) 0.6339(4)
C16 C 0.1150(6) 0.3960(6) 0.6161(4)
C17 C 0.0207(6) 0.4497(7) 0.6129(4)
H21 H -0.0858 0.3827 0.6022
H22 H 0.0607 0.5547 0.6213
C18 C 0.3946(5) 0.5126(6) 0.7634(4)
H23 H 0.4881 0.6197 0.8089
H24 H 0.4305 0.4429 0.7504
H25 H 0.3326 0.4839 0.8126
C19 C 0.6494(7) 0.7791(7) 0.5040(5)
H26 H 0.6592 0.8766 0.5041
H27 H 0.6489 0.7297 0.4265
H28 H 0.7405 0.8004 0.5769
C20 C 0.5843(5) 0.3061(5) 0.3584(4)
C21 C 0.5915(6) 0.1676(6) 0.3643(5)
H29 H 0.4903 0.0728 0.3016
H30 H 0.6088 0.1635 0.4485
H31 H 0.6801 0.1765 0.3466
C22 C 0.4007(5) 0.4446(5) 0.1078(4)
H32 H 0.5115 0.4748 0.1515
H33 H 0.3936 0.5330 0.1360
H34 H 0.3682 0.4125 0.0168
O5 O 0.9960(5) 0.7899(5) 0.6646(4)
H35 H 0.8997 0.7482 0.6145
O6 O 1.2079(4) 0.9873(4) 0.6634(3)
O7 O 0.8550(3) 0.6986(4) 0.1712(3)
O8 O 1.0089(4) 0.9551(4) 0.2122(3)
C23 C 0.7693(6) 0.0182(6) -0.0655(4)
H36 H 0.8647 0.0467 -0.0750
H37 H 0.7115 -0.0766 -0.0538
C24 C 0.7156(5) 0.1125(6) -0.0684(3)
C25 C 0.7955(5) 0.2640(6) -0.0860(4)
C26 C 0.8313(5) 0.3930(5) 0.0297(4)
H38 H 0.8973 0.3856 0.1050
C27 C 0.9350(5) 0.5658(5) 0.0427(4)
C28 C 0.9836(5) 0.6787(5) 0.1713(4)
H39 H 1.0770 0.7822 0.1859
C29 C 1.0326(5) 0.6369(5) 0.2874(4)
H40 H 0.9361 0.5466 0.2838
H41 H 1.1077 0.6062 0.2846
C30 C 1.1117(5) 0.7693(5) 0.4108(4)
C31 C 1.0300(4) 0.7492(5) 0.4824(3)
H42 H 0.9247 0.6580 0.4461
C32 C 1.0867(5) 0.8542(5) 0.6117(4)
C33 C 0.8513(5) 0.6092(5) -0.0587(4)
H43 H 0.7520 0.5899 -0.0550
H44 H 0.8262 0.5461 -0.1420
H45 H 0.9227 0.7193 -0.0434
C34 C 1.0947(5) 0.5969(6) 0.0393(4)
H46 H 1.1529 0.5839 0.1149
C35 C 1.0591(6) 0.4752(7) -0.0773(4)
H47 H 1.0024 0.4863 -0.1537
H48 H 1.1619 0.4962 -0.0762
C36 C 0.9601(6) 0.3121(6) -0.0852(4)
H49 H 1.0214 0.2986 -0.0128
H50 H 0.9416 0.2413 -0.1629
C37 C 0.6744(5) 0.3486(5) 0.0428(4)
H51 H 0.6986 0.4294 0.1167
H52 H 0.5983 0.3441 -0.0330
C38 C 0.5970(5) 0.1915(6) 0.0584(4)
H53 H 0.4957 0.1648 0.0641
H54 H 0.6697 0.1983 0.1375
C39 C 0.5619(6) 0.0638(6) -0.0531(4)
H55 H 0.5213 -0.0348 -0.0378
H56 H 0.4786 0.0473 -0.1311
C40 C 0.6859(6) 0.2468(6) -0.2163(4)
H57 H 0.6422 0.1464 -0.2791
H58 H 0.7489 0.3305 -0.2418
H59 H 0.5977 0.2527 -0.2101
C41 C 1.2087(6) 0.7599(8) 0.0443(5)
H60 H 1.3065 0.7702 0.0443
H61 H 1.2364 0.8374 0.1211
H62 H 1.1561 0.7762 -0.0294
C42 C 0.8826(5) 0.8403(5) 0.1902(4)
C43 C 0.7360(6) 0.8393(6) 0.1819(5)
H63 H 0.7489 0.9349 0.1721
H64 H 0.7225 0.8328 0.2589
H65 H 0.6411 0.7495 0.1092
C44 C 1.2710(5) 0.9075(5) 0.4422(4)
H66 H 1.2578 0.9702 0.3933
H67 H 1.3369 0.8742 0.4219
H68 H 1.3239 0.9695 0.5323
loop_
_geom_bond_atom_site_label_1
_geom_bond_atom_site_label_2
_geom_bond_site_symmetry_1
_geom_bond_site_symmetry_2
C1 H1 1_555 1_555
H2 C1 1_555 1_555
C2 C1 1_555 1_555
H3 C2 1_555 1_555
H4 C2 1_555 1_555
O1 H5 1_555 1_555
O2 C10 1_555 1_555
O3 C6 1_555 1_555
O4 C20 1_555 1_555
C3 C1 1_555 1_555
H6 C3 1_555 1_555
H7 C3 1_555 1_555
C4 C2 1_555 1_555
H8 C4 1_555 1_555
C5 C4 1_555 1_555
C6 C5 1_555 1_555
H9 C6 1_555 1_555
C7 C6 1_555 1_555
H10 C7 1_555 1_555
H11 C7 1_555 1_555
C8 C7 1_555 1_555
C9 C8 1_555 1_555
H12 C9 1_555 1_555
C10 O1 1_555 1_555
C11 C5 1_555 1_555
H13 C11 1_555 1_555
H14 C11 1_555 1_555
H15 C11 1_555 1_555
C12 C5 1_555 1_555
H16 C12 1_555 1_555
C13 C12 1_555 1_555
H17 C13 1_555 1_555
H18 C13 1_555 1_555
C14 C13 1_555 1_555
H19 C14 1_555 1_555
H20 C14 1_555 1_555
C15 C4 1_555 1_555
C16 C3 1_555 1_555
C17 C16 1_555 1_555
H21 C17 1_555 1_555
H22 C17 1_555 1_555
C18 C15 1_555 1_555
H23 C18 1_555 1_555
H24 C18 1_555 1_555
H25 C18 1_555 1_555
C19 C12 1_555 1_555
H26 C19 1_555 1_555
H27 C19 1_555 1_555
H28 C19 1_555 1_555
C20 O3 1_555 1_555
C21 C20 1_555 1_555
H29 C21 1_555 1_555
H30 C21 1_555 1_555
H31 C21 1_555 1_555
C22 C8 1_555 1_555
H32 C22 1_555 1_555
H33 C22 1_555 1_555
H34 C22 1_555 1_555
O5 H35 1_555 1_555
O6 C32 1_555 1_555
O7 C28 1_555 1_555
O8 C42 1_555 1_555
C23 H36 1_555 1_555
H37 C23 1_555 1_555
C24 C23 1_555 1_555
C25 C24 1_555 1_555
C26 C25 1_555 1_555
H38 C26 1_555 1_555
C27 C26 1_555 1_555
C28 C27 1_555 1_555
H39 C28 1_555 1_555
C29 C28 1_555 1_555
H40 C29 1_555 1_555
H41 C29 1_555 1_555
C30 C29 1_555 1_555
C31 C30 1_555 1_555
H42 C31 1_555 1_555
C32 O5 1_555 1_555
C33 C27 1_555 1_555
H43 C33 1_555 1_555
H44 C33 1_555 1_555
H45 C33 1_555 1_555
C34 C27 1_555 1_555
H46 C34 1_555 1_555
C35 C34 1_555 1_555
H47 C35 1_555 1_555
H48 C35 1_555 1_555
C36 C25 1_555 1_555
H49 C36 1_555 1_555
H50 C36 1_555 1_555
C37 C26 1_555 1_555
H51 C37 1_555 1_555
H52 C37 1_555 1_555
C38 C37 1_555 1_555
H53 C38 1_555 1_555
H54 C38 1_555 1_555
C39 C24 1_555 1_555
H55 C39 1_555 1_555
H56 C39 1_555 1_555
C40 C25 1_555 1_555
H57 C40 1_555 1_555
H58 C40 1_555 1_555
H59 C40 1_555 1_555
C41 C34 1_555 1_555
H60 C41 1_555 1_555
H61 C41 1_555 1_555
H62 C41 1_555 1_555
C42 O7 1_555 1_555
C43 C42 1_555 1_555
H63 C43 1_555 1_555
H64 C43 1_555 1_555
H65 C43 1_555 1_555
C44 C30 1_555 1_555
H66 C44 1_555 1_555
H67 C44 1_555 1_555
H68 C44 1_555 1_555
C9 C10 1_555 1_555
C14 C15 1_555 1_555
C15 C16 1_555 1_555
C31 C32 1_555 1_555
C35 C36 1_555 1_555
C38 C39 1_555 1_555

#END
