
#######################################################################
#
#                 Cambridge Crystallographic Data Centre
#                                CCDC 
#
#######################################################################
#
# If this CIF has been generated from an entry in the Cambridge 
# Structural Database, then it will include bibliographic, chemical, 
# crystal, experimental, refinement or atomic coordinate data resulting 
# from the CCDC's data processing and validation procedures.
#
#######################################################################

data_RETQIQ
_chemical_formula_moiety         'C7 H12 N3 O1 1+,N1 O3 1-'
_chemical_name_systematic        
'4-Amino-5-methoxymethyl-2-methylpyrimidinium nitrate'
_symmetry_cell_setting           triclinic
_symmetry_space_group_name_H-M   'P -1'
_symmetry_Int_Tables_number      2
_space_group_name_Hall           '-P 1'
loop_
_symmetry_equiv_pos_site_id
_symmetry_equiv_pos_as_xyz
1 x,y,z
2 -x,-y,-z
_cell_length_a                   9.116(6)
_cell_length_b                   9.452(5)
_cell_length_c                   12.742(8)
_cell_angle_alpha                101.14(5)
_cell_angle_beta                 107.13(5)
_cell_angle_gamma                93.27(5)
_cell_volume                     1021.8
_exptl_crystal_colour            colorless
_chemical_melting_point          160-162deg.C
_cell_formula_units_Z            4
loop_
_atom_site_label
_atom_site_type_symbol
_atom_site_fract_x
_atom_site_fract_y
_atom_site_fract_z
N1 N -0.0993(3) 0.6128(3) 0.5956(2)
H1 H -0.1761(3) 0.6327(3) 0.5448(2)
C1 C -0.1249(4) 0.5302(4) 0.6637(3)
N2 N -0.0124(3) 0.4963(3) 0.7443(2)
C2 C 0.1358(4) 0.5494(3) 0.7567(3)
C3 C 0.1696(4) 0.6361(3) 0.6851(3)
C4 C 0.0486(4) 0.6663(3) 0.6061(3)
H2 H 0.0652(4) 0.7239(3) 0.5581(3)
C5 C -0.2903(4) 0.4735(5) 0.6465(4)
H3 H -0.3587(5) 0.5211(74) 0.5954(62)
H4 H -0.3105(32) 0.4926(92) 0.7175(13)
H5 H -0.3071(30) 0.3707(18) 0.6158(74)
N3 N 0.2450(3) 0.5165(3) 0.8394(2)
H9 H 0.2209(3) 0.4645(3) 0.8816(2)
H10 H 0.3404(3) 0.5471(3) 0.8510(2)
C6 C 0.3346(4) 0.6947(4) 0.7008(3)
H11 H 0.3845(4) 0.7452(4) 0.7785(3)
H12 H 0.3924(4) 0.6153(4) 0.6831(3)
O1 O 0.3329(3) 0.7907(4) 0.6290(3)
C7 C 0.4848(5) 0.8584(5) 0.6438(4)
H13 H 0.5436(19) 0.8804(47) 0.7223(6)
H14 H 0.4767(5) 0.9465(27) 0.6167(37)
H15 H 0.5357(21) 0.7936(21) 0.6024(32)
N4 N -0.0461(3) 1.1824(3) 0.0508(2)
H16 H 0.0187(3) 1.2353(3) 0.0329(2)
C8 C -0.1979(4) 1.1684(3) -0.0072(3)
N5 N -0.3011(3) 1.0878(3) 0.0176(2)
C9 C -0.2527(3) 1.0178(3) 0.1021(3)
C10 C -0.0917(4) 1.0313(3) 0.1670(3)
C11 C 0.0064(4) 1.1144(3) 0.1369(3)
H17 H 0.1117(4) 1.1256(3) 0.1756(3)
C12 C -0.2470(4) 1.2471(4) -0.1000(3)
H18 H -0.3363(26) 1.2936(34) -0.0948(19)
H19 H -0.2720(42) 1.1793(8) -0.1711(3)
H20 H -0.1644(16) 1.3190(28) -0.0937(19)
N6 N -0.3596(3) 0.9377(3) 0.1243(3)
H21 H -0.4553(3) 0.9320(3) 0.0853(3)
H22 H -0.3331(3) 0.8916(3) 0.1775(3)
C13 C -0.0386(4) 0.9552(4) 0.2626(3)
H23 H -0.0891(4) 0.9867(4) 0.3188(3)
H24 H -0.0647(4) 0.8510(4) 0.2350(3)
O2 O 0.1231(3) 0.9902(3) 0.3103(3)
C14 C 0.1803(6) 0.9269(6) 0.4020(4)
H25 H 0.2912(6) 0.9437(48) 0.4275(28)
H26 H 0.1475(50) 0.8243(10) 0.3798(12)
H27 H 0.1415(48) 0.9691(40) 0.4617(16)
N7 N 0.6994(3) 0.6639(3) 0.9413(3)
O3 O 0.8307(3) 0.6590(3) 1.0117(2)
O4 O 0.5860(3) 0.5922(3) 0.9458(3)
O5 O 0.6889(3) 0.7423(4) 0.8753(3)
N8 N -0.3092(4) 0.7398(3) 0.3744(3)
O6 O -0.3586(3) 0.6682(4) 0.4314(3)
O7 O -0.3935(4) 0.7839(4) 0.2973(3)
O8 O -0.1675(4) 0.7586(4) 0.3951(3)
H6? H -0.2921(5) 0.4019(74) 0.6904(62)
H7? H -0.3403(32) 0.4303(92) 0.5683(13)
H8? H -0.3438(30) 0.5522(18) 0.6699(74)
loop_
_geom_bond_atom_site_label_1
_geom_bond_atom_site_label_2
_geom_bond_site_symmetry_1
_geom_bond_site_symmetry_2
N1 H1 1_555 1_555
C1 N1 1_555 1_555
N2 C1 1_555 1_555
C2 N2 1_555 1_555
C3 C2 1_555 1_555
C4 N1 1_555 1_555
H2 C4 1_555 1_555
C5 C1 1_555 1_555
H3 C5 1_555 1_555
H4 C5 1_555 1_555
H5 C5 1_555 1_555
N3 C2 1_555 1_555
H9 N3 1_555 1_555
H10 N3 1_555 1_555
C6 C3 1_555 1_555
H11 C6 1_555 1_555
H12 C6 1_555 1_555
O1 C6 1_555 1_555
C7 O1 1_555 1_555
H13 C7 1_555 1_555
H14 C7 1_555 1_555
H15 C7 1_555 1_555
N4 H16 1_555 1_555
C8 N4 1_555 1_555
N5 C8 1_555 1_555
C9 N5 1_555 1_555
C10 C9 1_555 1_555
C11 N4 1_555 1_555
H17 C11 1_555 1_555
C12 C8 1_555 1_555
H18 C12 1_555 1_555
H19 C12 1_555 1_555
H20 C12 1_555 1_555
N6 C9 1_555 1_555
H21 N6 1_555 1_555
H22 N6 1_555 1_555
C13 C10 1_555 1_555
H23 C13 1_555 1_555
H24 C13 1_555 1_555
O2 C13 1_555 1_555
C14 O2 1_555 1_555
H25 C14 1_555 1_555
H26 C14 1_555 1_555
H27 C14 1_555 1_555
N7 O3 1_555 1_555
O4 N7 1_555 1_555
O5 N7 1_555 1_555
N8 O6 1_555 1_555
O7 N8 1_555 1_555
O8 N8 1_555 1_555
C3 C4 1_555 1_555
C10 C11 1_555 1_555

#END
