
#######################################################################
#
#                 Cambridge Crystallographic Data Centre
#                                CCDC 
#
#######################################################################
#
# If this CIF has been generated from an entry in the Cambridge 
# Structural Database, then it will include bibliographic, chemical, 
# crystal, experimental, refinement or atomic coordinate data resulting 
# from the CCDC's data processing and validation procedures.
#
#######################################################################

data_RETSAM
_chemical_formula_moiety         'C40 H54'
_chemical_name_systematic        
1,1'-(3,4,5,6,7,8,9,10-Octaethyldodeca-1,3,5,7,9,11-hexaene-1,12-diyl)dibenzene
_symmetry_cell_setting           monoclinic
_symmetry_space_group_name_H-M   'P 2/n'
_symmetry_Int_Tables_number      13
_space_group_name_Hall           '-P 2yac'
loop_
_symmetry_equiv_pos_site_id
_symmetry_equiv_pos_as_xyz
1 x,y,z
2 1/2-x,y,1/2-z
3 -x,-y,-z
4 1/2+x,-y,1/2+z
_cell_length_a                   9.870(2)
_cell_length_b                   9.2819(19)
_cell_length_c                   18.478(4)
_cell_angle_alpha                90
_cell_angle_beta                 93.06(3)
_cell_angle_gamma                90
_cell_volume                     1690.4
_exptl_crystal_colour            colorless
_exptl_crystal_description       block
_cell_formula_units_Z            2
loop_
_atom_site_label
_atom_site_type_symbol
_atom_site_fract_x
_atom_site_fract_y
_atom_site_fract_z
C1 C 0.31816(15) 0.58511(16) 0.23327(8)
C2 C 0.43064(15) 0.71629(16) 0.33983(8)
C3 C 0.51183(16) 0.66959(17) 0.39663(8)
C4 C 0.32183(16) 0.51265(18) 0.15959(8)
H1 H 0.2692 0.5721 0.1236
H2 H 0.4170 0.5104 0.1451
C5 C 0.43031(15) 0.64168(16) 0.26726(8)
C6 C 0.69499(17) 0.49155(18) 0.43326(9)
H3 H 0.7157 0.5461 0.4759
C7 C 0.59324(16) 0.53906(17) 0.38906(8)
H4 H 0.5710 0.4812 0.3477
C8 C 0.77778(17) 0.36306(17) 0.42211(9)
C9 C 0.52471(18) 0.74626(19) 0.46924(9)
H5 H 0.5441 0.6740 0.5078
H6 H 0.4368 0.7921 0.4786
C10 C 0.6351(2) 0.8607(2) 0.47389(10)
H7 H 0.6123 0.9376 0.4390
H8 H 0.7220 0.8173 0.4627
H9 H 0.6420 0.9010 0.5230
C11 C 0.34251(17) 0.84893(18) 0.34406(9)
H10 H 0.3263 0.8684 0.3956
H11 H 0.2536 0.8290 0.3187
C12 C 0.56675(16) 0.64166(19) 0.23152(9)
H12 H 0.6402 0.6573 0.2693
H13 H 0.5810 0.5458 0.2097
C13 C 0.9639(2) 0.2093(2) 0.46315(10)
H14 H 1.0344 0.1877 0.4985
C14 C 0.88264(19) 0.3287(2) 0.47193(9)
H15 H 0.8991 0.3887 0.5131
C15 C 0.2659(2) 0.3602(2) 0.15674(10)
H16 H 0.2690 0.3228 0.1073
H17 H 0.1718 0.3608 0.1712
H18 H 0.3208 0.2987 0.1899
C16 C 0.57704(19) 0.7561(2) 0.17329(10)
H19 H 0.5023 0.7442 0.1367
H20 H 0.6638 0.7461 0.1503
H21 H 0.5717 0.8519 0.1953
C17 C 0.9436(2) 0.1223(2) 0.40403(11)
H22 H 1.0001 0.0409 0.3976
C18 C 0.4032(2) 0.9835(2) 0.31108(12)
H23 H 0.4110 0.9691 0.2589
H24 H 0.4933 1.0016 0.3341
H25 H 0.3442 1.0664 0.3190
C19 C 0.7585(2) 0.2729(2) 0.36256(12)
H26 H 0.6878 0.2932 0.3271
C20 C 0.8402(3) 0.1542(2) 0.35397(13)
H27 H 0.8246 0.0938 0.3129
C1A C 0.18184(15) 0.58511(16) 0.26673(8)
C2A C 0.06936(15) 0.71629(16) 0.16017(8)
C3A C -0.01183(16) 0.66959(17) 0.10337(8)
C4A C 0.17817(16) 0.51265(18) 0.34041(8)
H1A H 0.2308 0.5721 0.3764
H2A H 0.0830 0.5104 0.3549
C5A C 0.06969(15) 0.64168(16) 0.23274(8)
C6A C -0.19499(17) 0.49155(18) 0.06674(9)
H3A H -0.2157 0.5461 0.0241
C7A C -0.09324(16) 0.53906(17) 0.11094(8)
H4A H -0.0710 0.4812 0.1523
C8A C -0.27778(17) 0.36306(17) 0.07789(9)
C9A C -0.02471(18) 0.74626(19) 0.03076(9)
H5A H -0.0441 0.6740 -0.0078
H6A H 0.0632 0.7921 0.0214
C10A C -0.1351(2) 0.8607(2) 0.02611(10)
H7A H -0.1123 0.9376 0.0610
H8A H -0.2220 0.8173 0.0373
H9A H -0.1420 0.9010 -0.0230
C11A C 0.15749(17) 0.84893(18) 0.15594(9)
H10A H 0.1737 0.8684 0.1044
H11A H 0.2464 0.8290 0.1813
C12A C -0.06675(16) 0.64166(19) 0.26848(9)
H12A H -0.1402 0.6573 0.2307
H13A H -0.0810 0.5458 0.2903
C13A C -0.4639(2) 0.2093(2) 0.03685(10)
H14A H -0.5344 0.1877 0.0015
C14A C -0.38264(19) 0.3287(2) 0.02807(9)
H15A H -0.3991 0.3887 -0.0131
C15A C 0.2341(2) 0.3602(2) 0.34326(10)
H16A H 0.2310 0.3228 0.3927
H17A H 0.3282 0.3608 0.3288
H18A H 0.1792 0.2987 0.3101
C16A C -0.07704(19) 0.7561(2) 0.32671(10)
H19A H -0.0023 0.7442 0.3633
H20A H -0.1638 0.7461 0.3497
H21A H -0.0717 0.8519 0.3047
C17A C -0.4436(2) 0.1223(2) 0.09597(11)
H22A H -0.5001 0.0409 0.1024
C18A C 0.0968(2) 0.9835(2) 0.18892(12)
H23A H 0.0890 0.9691 0.2411
H24A H 0.0067 1.0016 0.1659
H25A H 0.1558 1.0664 0.1810
C19A C -0.2585(2) 0.2729(2) 0.13744(12)
H26A H -0.1878 0.2932 0.1729
C20A C -0.3402(3) 0.1542(2) 0.14603(13)
H27A H -0.3246 0.0938 0.1871
loop_
_geom_bond_atom_site_label_1
_geom_bond_atom_site_label_2
_geom_bond_site_symmetry_1
_geom_bond_site_symmetry_2
C1 C4 1_555 1_555
C2 C3 1_555 1_555
C3 C7 1_555 1_555
C4 H1 1_555 1_555
H2 C4 1_555 1_555
C5 C1 1_555 1_555
C6 H3 1_555 1_555
C7 C6 1_555 1_555
H4 C7 1_555 1_555
C8 C6 1_555 1_555
C9 C3 1_555 1_555
H5 C9 1_555 1_555
H6 C9 1_555 1_555
C10 C9 1_555 1_555
H7 C10 1_555 1_555
H8 C10 1_555 1_555
H9 C10 1_555 1_555
C11 C2 1_555 1_555
H10 C11 1_555 1_555
H11 C11 1_555 1_555
C12 C5 1_555 1_555
H12 C12 1_555 1_555
H13 C12 1_555 1_555
C13 H14 1_555 1_555
C14 C8 1_555 1_555
H15 C14 1_555 1_555
C15 C4 1_555 1_555
H16 C15 1_555 1_555
H17 C15 1_555 1_555
H18 C15 1_555 1_555
C16 C12 1_555 1_555
H19 C16 1_555 1_555
H20 C16 1_555 1_555
H21 C16 1_555 1_555
C17 C13 1_555 1_555
H22 C17 1_555 1_555
C18 C11 1_555 1_555
H23 C18 1_555 1_555
H24 C18 1_555 1_555
H25 C18 1_555 1_555
C19 C8 1_555 1_555
H26 C19 1_555 1_555
C20 C17 1_555 1_555
H27 C20 1_555 1_555
C1A C1 1_555 1_555
C2A C3A 1_555 1_555
C3A C7A 1_555 1_555
C4A C1A 1_555 1_555
H1A C4A 1_555 1_555
H2A C4A 1_555 1_555
C5A C1A 1_555 1_555
C6A H3A 1_555 1_555
C7A C6A 1_555 1_555
H4A C7A 1_555 1_555
C8A C6A 1_555 1_555
C9A C3A 1_555 1_555
H5A C9A 1_555 1_555
H6A C9A 1_555 1_555
C10A C9A 1_555 1_555
H7A C10A 1_555 1_555
H8A C10A 1_555 1_555
H9A C10A 1_555 1_555
C11A C2A 1_555 1_555
H10A C11A 1_555 1_555
H11A C11A 1_555 1_555
C12A C5A 1_555 1_555
H12A C12A 1_555 1_555
H13A C12A 1_555 1_555
C13A H14A 1_555 1_555
C14A C8A 1_555 1_555
H15A C14A 1_555 1_555
C15A C4A 1_555 1_555
H16A C15A 1_555 1_555
H17A C15A 1_555 1_555
H18A C15A 1_555 1_555
C16A C12A 1_555 1_555
H19A C16A 1_555 1_555
H20A C16A 1_555 1_555
H21A C16A 1_555 1_555
C17A C13A 1_555 1_555
H22A C17A 1_555 1_555
C18A C11A 1_555 1_555
H23A C18A 1_555 1_555
H24A C18A 1_555 1_555
H25A C18A 1_555 1_555
C19A C8A 1_555 1_555
H26A C19A 1_555 1_555
C20A C17A 1_555 1_555
H27A C20A 1_555 1_555
C2 C5 1_555 1_555
C13 C14 1_555 1_555
C19 C20 1_555 1_555
C2A C5A 1_555 1_555
C13A C14A 1_555 1_555
C19A C20A 1_555 1_555

#END
