
#######################################################################
#
#                 Cambridge Crystallographic Data Centre
#                                CCDC 
#
#######################################################################
#
# If this CIF has been generated from an entry in the Cambridge 
# Structural Database, then it will include bibliographic, chemical, 
# crystal, experimental, refinement or atomic coordinate data resulting 
# from the CCDC's data processing and validation procedures.
#
#######################################################################

data_RETVOE
_chemical_formula_moiety         'C38 H20 F6'
_chemical_name_systematic        
10-phenyl-2-(trifluoromethyl)-9-[4-(trifluoromethyl)phenyl]indeno[1,2,3-fg]tetracene
_symmetry_cell_setting           monoclinic
_symmetry_space_group_name_H-M   'P 21/c'
_symmetry_Int_Tables_number      14
_space_group_name_Hall           '-P 2ybc'
loop_
_symmetry_equiv_pos_site_id
_symmetry_equiv_pos_as_xyz
1 x,y,z
2 -x,1/2+y,1/2-z
3 -x,-y,-z
4 x,1/2-y,1/2+z
_cell_length_a                   12.007(6)
_cell_length_b                   16.605(5)
_cell_length_c                   27.729(7)
_cell_angle_alpha                90
_cell_angle_beta                 92.29(3)
_cell_angle_gamma                90
_cell_volume                     5524.09
_exptl_crystal_colour            purple
_exptl_crystal_description       rectangle
_chemical_melting_point          '502 K'
_cell_formula_units_Z            8
loop_
_atom_site_label
_atom_site_type_symbol
_atom_site_fract_x
_atom_site_fract_y
_atom_site_fract_z
C1 C 0.3449(2) 0.59962(19) 0.23454(10)
C2 C 0.4581(2) 0.58547(19) 0.22384(10)
C3 C 0.2781(2) 0.60993(19) 0.19223(9)
C4 C 0.3032(2) 0.59716(19) 0.28203(10)
C5 C 0.4954(3) 0.5634(2) 0.30990(10)
C6 C 0.6510(3) 0.5512(2) 0.25397(10)
H1 H 0.6776 0.5523 0.2222
C7 C 0.3499(3) 0.5627(2) 0.37123(10)
C8 C 0.5354(2) 0.5675(2) 0.26118(10)
C9 C 0.3536(3) 0.6043(2) 0.15169(10)
C10 C 0.1861(3) 0.6107(2) 0.28528(10)
C11 C 0.1622(3) 0.6177(2) 0.19516(10)
C12 C 0.1291(3) 0.6165(2) 0.33265(10)
C13 C 0.1178(3) 0.6202(2) 0.24321(10)
C14 C 0.4638(3) 0.5896(2) 0.17091(10)
C15 C 0.3822(3) 0.57769(19) 0.32004(10)
C16 C 0.5295(3) 0.5817(2) 0.09021(11)
H2 H 0.5883 0.5733 0.0689
C17 C 0.7227(3) 0.5344(2) 0.29146(11)
H3 H 0.7990 0.5247 0.2857
C18 C 0.4233(3) 0.5982(2) 0.07169(10)
C19 C 0.5507(3) 0.5774(2) 0.13989(10)
H4 H 0.6238 0.5664 0.1525
C20 C 0.5759(3) 0.5449(2) 0.34798(10)
H5 H 0.5522 0.5421 0.3802
C21 C 0.3339(3) 0.6100(2) 0.10218(10)
H6 H 0.2614 0.6218 0.0891
C22 C 0.3404(3) 0.6245(2) 0.40441(10)
H7 H 0.3485 0.6788 0.3944
C23 C 0.3068(3) 0.5287(2) 0.46698(10)
C24 C 0.1213(3) 0.6902(2) 0.35556(11)
H8 H 0.1547 0.7365 0.3421
C25 C 0.6853(3) 0.5312(2) 0.33917(11)
H9 H 0.7365 0.5195 0.3652
C26 C 0.3189(3) 0.6073(2) 0.45234(11)
H10 H 0.3125 0.6500 0.4749
C27 C 0.0862(3) 0.6211(2) 0.15467(11)
H11 H 0.1142 0.6186 0.1232
C28 C -0.0006(3) 0.6303(2) 0.24588(11)
H12 H -0.0319 0.6347 0.2767
C29 C 0.3367(3) 0.4843(2) 0.38649(11)
H13 H 0.3435 0.4414 0.3641
C30 C -0.0692(3) 0.6337(2) 0.20606(12)
H14 H -0.1471 0.6402 0.2094
C31 C 0.0646(3) 0.6968(3) 0.39840(11)
H15 H 0.0599 0.7474 0.4141
C32 C 0.3139(3) 0.4672(2) 0.43395(11)
H16 H 0.3030 0.4130 0.4437
C33 C -0.0260(3) 0.6278(2) 0.15972(12)
H17 H -0.0750 0.6284 0.1320
C34 C 0.0154(3) 0.6300(3) 0.41785(11)
H18 H -0.0227 0.6344 0.4471
C35 C 0.3999(3) 0.6052(3) 0.01879(11)
F1 F 0.4981(11) 0.5940(7) -0.0085(4)
F2 F 0.3357(12) 0.5448(6) 0.0012(4)
F3 F 0.3464(12) 0.6744(14) 0.0078(6)
C36 C 0.0787(3) 0.5497(3) 0.35232(12)
H19 H 0.0831 0.4990 0.3367
C37 C 0.2839(4) 0.5104(3) 0.51837(13)
F4 F 0.312(2) 0.5651(10) 0.5490(6)
F5 F 0.3497(14) 0.4432(14) 0.5320(7)
F6 F 0.1778(12) 0.5267(8) 0.5288(5)
C38 C 0.0218(3) 0.5566(3) 0.39466(12)
H20 H -0.0130 0.5106 0.4078
C39 C 0.2611(2) 0.6290(2) 0.79276(10)
C40 C 0.3835(2) 0.67304(19) 0.73076(10)
C41 C 0.5507(2) 0.6689(2) 0.85145(10)
C42 C 0.5834(2) 0.6888(2) 0.73959(10)
C43 C 0.6927(2) 0.6841(2) 0.76740(10)
C44 C 0.2661(3) 0.6803(2) 0.66253(10)
C45 C 0.2747(2) 0.6544(2) 0.74539(10)
C46 C 0.7328(3) 0.7490(2) 0.79396(10)
H21 H 0.6919 0.7981 0.7938
C47 C 0.4796(2) 0.67410(19) 0.76220(10)
C48 C 0.5848(3) 0.7028(2) 0.68953(10)
C49 C 0.3831(3) 0.6864(2) 0.68050(10)
C50 C 0.2000(2) 0.6608(2) 0.70251(10)
C51 C 0.4848(3) 0.7004(2) 0.65868(10)
C52 C 0.4624(3) 0.6592(2) 0.81201(10)
C53 C 0.3555(3) 0.6355(2) 0.82691(10)
C54 C 0.6175(3) 0.6051(2) 0.86701(11)
H22 H 0.6117 0.5547 0.8509
C55 C 0.6882(3) 0.7204(2) 0.66729(11)
H23 H 0.7547 0.7237 0.6869
C56 C 0.2153(3) 0.6916(2) 0.61713(10)
H24 H 0.2586 0.7046 0.5903
C57 C 0.6343(3) 0.7513(2) 0.91490(11)
H25 H 0.6395 0.8015 0.9312
C58 C 0.8320(3) 0.7431(2) 0.82088(11)
H26 H 0.8584 0.7876 0.8396
C59 C 0.7004(3) 0.6875(2) 0.93001(10)
C60 C 0.1599(3) 0.5952(2) 0.80901(11)
H27 H 0.0988 0.5883 0.7866
C61 C 0.1000(3) 0.6836(2) 0.61136(11)
C62 C 0.4954(3) 0.7111(2) 0.60795(11)
H28 H 0.4307 0.7074 0.5872
C63 C 0.7545(3) 0.6141(2) 0.76655(11)
H29 H 0.7283 0.5698 0.7476
C64 C 0.0353(3) 0.6653(2) 0.65032(11)
H30 H -0.0431 0.6598 0.6457
C65 C 0.0845(3) 0.6551(2) 0.69582(11)
H31 H 0.0397 0.6442 0.7225
C66 C 0.6927(3) 0.6144(2) 0.90589(11)
H32 H 0.7390 0.5707 0.9160
C67 C 0.8928(3) 0.6721(2) 0.82056(12)
H33 H 0.9606 0.6677 0.8392
C68 C 0.5600(3) 0.7415(2) 0.87566(11)
H34 H 0.5147 0.7856 0.8652
C69 C 0.6933(3) 0.7325(2) 0.61883(11)
H35 H 0.7626 0.7449 0.6052
C70 C 0.3365(3) 0.6154(2) 0.87604(11)
H36 H 0.3949 0.6230 0.8997
C71 C 0.5954(3) 0.7265(2) 0.58868(11)
H37 H 0.5998 0.7332 0.5548
C72 C 0.8545(3) 0.6079(2) 0.79303(12)
H38 H 0.8965 0.5594 0.7922
C73 C 0.2369(3) 0.5858(2) 0.88985(11)
H39 H 0.2268 0.5737 0.9229
C74 C 0.0443(3) 0.6977(3) 0.56318(12)
F13 F -0.0317(7) 0.6377(7) 0.5479(3)
F14 F 0.1128(11) 0.7156(9) 0.5290(4)
F15 F -0.0061(13) 0.7564(10) 0.5598(4)
C75 C 0.1487(3) 0.5728(2) 0.85563(11)
H40 H 0.0815 0.5484 0.8652
C76 C 0.7810(3) 0.6952(3) 0.97178(12)
F16 F 0.7679(15) 0.6431(13) 1.0070(5)
F17 F 0.8775(13) 0.6759(11) 0.9623(5)
F18 F 0.7956(13) 0.7695(8) 0.9871(5)
F7? F 0.4776(13) 0.6035(11) -0.0055(5)
F8? F 0.3208(14) 0.5578(10) 0.0031(5)
F9? F 0.3630(17) 0.6750(15) 0.0047(7)
F10? F 0.3405(19) 0.5605(12) 0.5481(5)
F11? F 0.3006(13) 0.4401(13) 0.5326(7)
F12? F 0.1803(16) 0.4847(9) 0.5236(6)
F19? F -0.0164(14) 0.6448(11) 0.5520(5)
F20? F 0.1116(12) 0.6965(10) 0.5276(4)
F21? F -0.0249(7) 0.7695(6) 0.5638(3)
F22? F 0.7508(11) 0.6521(10) 1.0096(3)
F23? F 0.8900(10) 0.6776(7) 0.9601(4)
F24? F 0.7782(10) 0.7685(9) 0.9926(4)
loop_
_geom_bond_atom_site_label_1
_geom_bond_atom_site_label_2
_geom_bond_site_symmetry_1
_geom_bond_site_symmetry_2
C1 C2 1_555 1_555
C2 C8 1_555 1_555
C3 C1 1_555 1_555
C4 C1 1_555 1_555
C5 C8 1_555 1_555
C6 H1 1_555 1_555
C7 C15 1_555 1_555
C8 C6 1_555 1_555
C9 C3 1_555 1_555
C10 C4 1_555 1_555
C11 C3 1_555 1_555
C12 C10 1_555 1_555
C13 C10 1_555 1_555
C14 C2 1_555 1_555
C15 C4 1_555 1_555
C16 H2 1_555 1_555
C17 C6 1_555 1_555
H3 C17 1_555 1_555
C18 C16 1_555 1_555
C19 C14 1_555 1_555
H4 C19 1_555 1_555
C20 C5 1_555 1_555
H5 C20 1_555 1_555
C21 C9 1_555 1_555
H6 C21 1_555 1_555
C22 C7 1_555 1_555
H7 C22 1_555 1_555
C23 C26 1_555 1_555
C24 C12 1_555 1_555
H8 C24 1_555 1_555
C25 C17 1_555 1_555
H9 C25 1_555 1_555
C26 C22 1_555 1_555
H10 C26 1_555 1_555
C27 C11 1_555 1_555
H11 C27 1_555 1_555
C28 C13 1_555 1_555
H12 C28 1_555 1_555
C29 C7 1_555 1_555
H13 C29 1_555 1_555
C30 C28 1_555 1_555
H14 C30 1_555 1_555
C31 C24 1_555 1_555
H15 C31 1_555 1_555
C32 C23 1_555 1_555
H16 C32 1_555 1_555
C33 C27 1_555 1_555
H17 C33 1_555 1_555
C34 C31 1_555 1_555
H18 C34 1_555 1_555
C35 C18 1_555 1_555
F1 C35 1_555 1_555
F2 C35 1_555 1_555
F3 C35 1_555 1_555
C36 C12 1_555 1_555
H19 C36 1_555 1_555
C37 C23 1_555 1_555
F4 C37 1_555 1_555
F5 C37 1_555 1_555
F6 C37 1_555 1_555
C38 C34 1_555 1_555
H20 C38 1_555 1_555
C39 C45 1_555 1_555
C40 C45 1_555 1_555
C41 C52 1_555 1_555
C42 C43 1_555 1_555
C43 C46 1_555 1_555
C44 C49 1_555 1_555
C45 C50 1_555 1_555
C46 H21 1_555 1_555
C47 C40 1_555 1_555
C48 C42 1_555 1_555
C49 C40 1_555 1_555
C50 C44 1_555 1_555
C51 C48 1_555 1_555
C52 C47 1_555 1_555
C53 C39 1_555 1_555
C54 C41 1_555 1_555
H22 C54 1_555 1_555
C55 C48 1_555 1_555
H23 C55 1_555 1_555
C56 C44 1_555 1_555
H24 C56 1_555 1_555
C57 H25 1_555 1_555
C58 C46 1_555 1_555
H26 C58 1_555 1_555
C59 C57 1_555 1_555
C60 C39 1_555 1_555
H27 C60 1_555 1_555
C61 C56 1_555 1_555
C62 C51 1_555 1_555
H28 C62 1_555 1_555
C63 C43 1_555 1_555
H29 C63 1_555 1_555
C64 C61 1_555 1_555
H30 C64 1_555 1_555
C65 C50 1_555 1_555
H31 C65 1_555 1_555
C66 C54 1_555 1_555
H32 C66 1_555 1_555
C67 C58 1_555 1_555
H33 C67 1_555 1_555
C68 C41 1_555 1_555
H34 C68 1_555 1_555
C69 C55 1_555 1_555
H35 C69 1_555 1_555
C70 C53 1_555 1_555
H36 C70 1_555 1_555
C71 C62 1_555 1_555
H37 C71 1_555 1_555
C72 C63 1_555 1_555
H38 C72 1_555 1_555
C73 C70 1_555 1_555
H39 C73 1_555 1_555
C74 C61 1_555 1_555
F13 C74 1_555 1_555
F14 C74 1_555 1_555
F15 C74 1_555 1_555
C75 C60 1_555 1_555
H40 C75 1_555 1_555
C76 C59 1_555 1_555
F16 C76 1_555 1_555
F17 C76 1_555 1_555
F18 C76 1_555 1_555
C5 C15 1_555 1_555
C9 C14 1_555 1_555
C11 C13 1_555 1_555
C16 C19 1_555 1_555
C18 C21 1_555 1_555
C20 C25 1_555 1_555
C29 C32 1_555 1_555
C30 C33 1_555 1_555
C36 C38 1_555 1_555
C42 C47 1_555 1_555
C49 C51 1_555 1_555
C52 C53 1_555 1_555
C57 C68 1_555 1_555
C59 C66 1_555 1_555
C64 C65 1_555 1_555
C67 C72 1_555 1_555
C69 C71 1_555 1_555
C73 C75 1_555 1_555

#END
