
#######################################################################
#
#                 Cambridge Crystallographic Data Centre
#                                CCDC 
#
#######################################################################
#
# If this CIF has been generated from an entry in the Cambridge 
# Structural Database, then it will include bibliographic, chemical, 
# crystal, experimental, refinement or atomic coordinate data resulting 
# from the CCDC's data processing and validation procedures.
#
#######################################################################

data_REVBOL
_chemical_formula_moiety         'C42 H39 N1 O2 Si2,0.5(C4 H8 O2)'
_chemical_name_systematic        
'5,6-Diphenyl-4,7-bis(4-(trimethylsilyl)phenyl)azepino[3,2,1-hi]indole-1,2-dione ethyl acetate solvate'
_symmetry_cell_setting           triclinic
_symmetry_space_group_name_H-M   'P -1'
_symmetry_Int_Tables_number      2
_space_group_name_Hall           '-P 1'
loop_
_symmetry_equiv_pos_site_id
_symmetry_equiv_pos_as_xyz
1 x,y,z
2 -x,-y,-z
_cell_length_a                   12.0942(9)
_cell_length_b                   12.8184(9)
_cell_length_c                   14.0389(10)
_cell_angle_alpha                65.634(2)
_cell_angle_beta                 73.978(2)
_cell_angle_gamma                88.592(2)
_cell_volume                     1895.62
_exptl_crystal_colour            red
_exptl_crystal_description       Plate
_cell_formula_units_Z            2
loop_
_atom_site_label
_atom_site_type_symbol
_atom_site_fract_x
_atom_site_fract_y
_atom_site_fract_z
Si1 Si -0.24992(6) 1.39838(6) 0.38045(6)
Si2 Si 0.33048(6) 0.55697(6) 1.20162(6)
O1 O 0.19552(16) 1.15646(15) 0.44312(14)
O2 O 0.38441(16) 1.28291(16) 0.45798(15)
N1 N 0.14589(17) 1.07931(17) 0.63303(16)
C1 C 0.2120(2) 1.1482(2) 0.5263(2)
C2 C 0.3084(2) 1.2180(2) 0.5359(2)
C3 C 0.2849(2) 1.1857(2) 0.6529(2)
C4 C 0.3435(2) 1.2177(2) 0.7107(2)
H1 H 0.4044 1.2784 0.6740
C5 C 0.3100(2) 1.1581(2) 0.8237(2)
H2 H 0.3435 1.1823 0.8660
C6 C 0.2281(2) 1.0636(2) 0.8748(2)
H3 H 0.2101 1.0213 0.9518
C7 C 0.1703(2) 1.0273(2) 0.8181(2)
C8 C 0.1957(2) 1.0966(2) 0.7073(2)
C9 C 0.0227(2) 1.0543(2) 0.6627(2)
C10 C -0.0356(2) 0.9692(2) 0.7588(2)
C11 C 0.0184(2) 0.8842(2) 0.83870(19)
C12 C 0.1051(2) 0.9114(2) 0.8698(2)
C13 C -0.0351(2) 1.1372(2) 0.58699(19)
C14 C -0.0200(2) 1.2545(2) 0.5598(2)
H4 H 0.0318 1.2818 0.5864
C15 C -0.0795(2) 1.3318(2) 0.4948(2)
H5 H -0.0681 1.4112 0.4779
C16 C -0.1562(2) 1.2954(2) 0.45344(19)
C17 C -0.1673(2) 1.1779(2) 0.4780(2)
H6 H -0.2167 1.1510 0.4489
C18 C -0.1083(2) 1.0996(2) 0.5434(2)
H7 H -0.1176 1.0204 0.5585
C19 C -0.1654(2) 0.9616(2) 0.79800(19)
C20 C -0.2157(2) 1.0436(2) 0.8326(2)
H8 H -0.1683 1.1054 0.8263
C21 C -0.3349(3) 1.0356(3) 0.8761(2)
H9 H -0.3683 1.0926 0.8987
C22 C -0.4047(3) 0.9461(3) 0.8869(3)
H10 H -0.4859 0.9400 0.9185
C23 C -0.3559(2) 0.8648(3) 0.8511(3)
H11 H -0.4042 0.8036 0.8572
C24 C -0.2369(2) 0.8722(2) 0.8065(2)
H12 H -0.2041 0.8164 0.7818
C25 C -0.0344(2) 0.7626(2) 0.8852(2)
C26 C -0.1116(3) 0.7102(2) 0.9887(2)
H13 H -0.1308 0.7507 1.0336
C27 C -0.1611(3) 0.5984(3) 1.0272(3)
H14 H -0.2137 0.5626 1.0986
C28 C -0.1347(3) 0.5392(3) 0.9630(3)
H15 H -0.1677 0.4622 0.9904
C29 C -0.0607(3) 0.5917(3) 0.8593(3)
H16 H -0.0435 0.5516 0.8141
C30 C -0.0107(2) 0.7031(2) 0.8202(2)
H17 H 0.0403 0.7390 0.7480
C31 C 0.1550(2) 0.8227(2) 0.9514(2)
C32 C 0.0991(2) 0.7737(2) 1.0628(2)
H18 H 0.0245 0.7940 1.0894
C33 C 0.1509(2) 0.6955(2) 1.1360(2)
H19 H 0.1104 0.6628 1.2118
C34 C 0.2609(2) 0.6632(2) 1.1016(2)
C35 C 0.3159(2) 0.7136(2) 0.9888(2)
H20 H 0.3904 0.6935 0.9619
C36 C 0.2648(2) 0.7918(2) 0.9156(2)
H21 H 0.3051 0.8250 0.8398
C37 C -0.2981(2) 1.3462(2) 0.2911(2)
H22 H -0.3532 1.3964 0.2595
H23 H -0.3355 1.2674 0.3345
H24 H -0.2310 1.3476 0.2322
C38 C -0.3793(3) 1.4038(3) 0.4862(3)
H25 H -0.4341 1.4502 0.4506
H26 H -0.3557 1.4384 0.5290
H27 H -0.4163 1.3255 0.5347
C39 C -0.1695(3) 1.5453(2) 0.3022(3)
H28 H -0.0991 1.5432 0.2481
H29 H -0.1486 1.5704 0.3527
H30 H -0.2186 1.5994 0.2648
C40 C 0.2242(3) 0.4996(3) 1.3392(2)
H31 H 0.1569 0.4589 1.3387
H32 H 0.1995 0.5633 1.3588
H33 H 0.2598 0.4461 1.3927
C41 C 0.3771(3) 0.4375(3) 1.1624(3)
H34 H 0.4350 0.4684 1.0905
H35 H 0.3101 0.3988 1.1593
H36 H 0.4107 0.3821 1.2167
C42 C 0.4601(3) 0.6339(3) 1.2004(3)
H37 H 0.4968 0.5802 1.2528
H38 H 0.4364 0.6974 1.2208
H39 H 0.5151 0.6647 1.1269
H40? H 0.3871 1.0046 0.3787
C43? C 0.4520(7) 0.9404(6) 0.3591(6)
H41? H 0.4548 0.9596 0.2832
H42? H 0.3886 0.8802 0.4086
H43? H 0.5254 0.9128 0.3712
O3? O 0.6227(4) 1.0341(4) 0.4190(4)
O4? O 0.4253(5) 1.0126(5) 0.4936(4)
C44? C 0.5344(8) 0.9873(8) 0.6166(6)
H44? H 0.5022 0.9066 0.6583
H45? H 0.4857 1.0350 0.6468
C45? C 0.5384(5) 1.0272(8) 0.4945(5)
C46? C 0.4324(8) 1.0466(6) 0.3809(5)
H46? H 0.4972 1.1074 0.3330
H47? H 0.3598 1.0770 0.3666
loop_
_geom_bond_atom_site_label_1
_geom_bond_atom_site_label_2
_geom_bond_site_symmetry_1
_geom_bond_site_symmetry_2
Si1 C16 1_555 1_555
Si2 C34 1_555 1_555
O1 C1 1_555 1_555
O2 C2 1_555 1_555
N1 C1 1_555 1_555
C1 C2 1_555 1_555
C2 C3 1_555 1_555
C3 C4 1_555 1_555
C4 H1 1_555 1_555
C5 C4 1_555 1_555
H2 C5 1_555 1_555
C6 C5 1_555 1_555
H3 C6 1_555 1_555
C7 C6 1_555 1_555
C8 N1 1_555 1_555
C9 N1 1_555 1_555
C10 C9 1_555 1_555
C11 C10 1_555 1_555
C12 C7 1_555 1_555
C13 C9 1_555 1_555
C14 C13 1_555 1_555
H4 C14 1_555 1_555
C15 C14 1_555 1_555
H5 C15 1_555 1_555
C16 C15 1_555 1_555
C17 C16 1_555 1_555
H6 C17 1_555 1_555
C18 C13 1_555 1_555
H7 C18 1_555 1_555
C19 C10 1_555 1_555
C20 C19 1_555 1_555
H8 C20 1_555 1_555
C21 C20 1_555 1_555
H9 C21 1_555 1_555
C22 C21 1_555 1_555
H10 C22 1_555 1_555
C23 C22 1_555 1_555
H11 C23 1_555 1_555
C24 C19 1_555 1_555
H12 C24 1_555 1_555
C25 C11 1_555 1_555
C26 C25 1_555 1_555
H13 C26 1_555 1_555
C27 C26 1_555 1_555
H14 C27 1_555 1_555
C28 C27 1_555 1_555
H15 C28 1_555 1_555
C29 C28 1_555 1_555
H16 C29 1_555 1_555
C30 C25 1_555 1_555
H17 C30 1_555 1_555
C31 C12 1_555 1_555
C32 C31 1_555 1_555
H18 C32 1_555 1_555
C33 C32 1_555 1_555
H19 C33 1_555 1_555
C34 C33 1_555 1_555
C35 C34 1_555 1_555
H20 C35 1_555 1_555
C36 C31 1_555 1_555
H21 C36 1_555 1_555
C37 Si1 1_555 1_555
H22 C37 1_555 1_555
H23 C37 1_555 1_555
H24 C37 1_555 1_555
C38 Si1 1_555 1_555
H25 C38 1_555 1_555
H26 C38 1_555 1_555
H27 C38 1_555 1_555
C39 Si1 1_555 1_555
H28 C39 1_555 1_555
H29 C39 1_555 1_555
H30 C39 1_555 1_555
C40 Si2 1_555 1_555
H31 C40 1_555 1_555
H32 C40 1_555 1_555
H33 C40 1_555 1_555
C41 Si2 1_555 1_555
H34 C41 1_555 1_555
H35 C41 1_555 1_555
H36 C41 1_555 1_555
C42 Si2 1_555 1_555
H37 C42 1_555 1_555
H38 C42 1_555 1_555
H39 C42 1_555 1_555
C3 C8 1_555 1_555
C7 C8 1_555 1_555
C11 C12 1_555 1_555
C17 C18 1_555 1_555
C23 C24 1_555 1_555
C29 C30 1_555 1_555
C35 C36 1_555 1_555

#END
