
#######################################################################
#
#                 Cambridge Crystallographic Data Centre
#                                CCDC 
#
#######################################################################
#
# If this CIF has been generated from an entry in the Cambridge 
# Structural Database, then it will include bibliographic, chemical, 
# crystal, experimental, refinement or atomic coordinate data resulting 
# from the CCDC's data processing and validation procedures.
#
#######################################################################

data_REVHIM
_chemical_formula_moiety         'C20 H14 Cl1 N3 O1'
_chemical_name_systematic        
3-chloro-14-methyl-7,14-dihydro-5H-indolo[2',3':3,4]azepino[2,1-b]quinazolin-5-one
_symmetry_cell_setting           triclinic
_symmetry_space_group_name_H-M   'P -1'
_symmetry_Int_Tables_number      2
_space_group_name_Hall           '-P 1'
loop_
_symmetry_equiv_pos_site_id
_symmetry_equiv_pos_as_xyz
1 x,y,z
2 -x,-y,-z
_cell_length_a                   7.489(4)
_cell_length_b                   11.278(5)
_cell_length_c                   19.529(9)
_cell_angle_alpha                80.568(7)
_cell_angle_beta                 88.970(7)
_cell_angle_gamma                79.020(7)
_cell_volume                     1597.2
_exptl_crystal_colour            'light yellow'
_exptl_crystal_description       needle
_cell_formula_units_Z            4
loop_
_atom_site_label
_atom_site_type_symbol
_atom_site_fract_x
_atom_site_fract_y
_atom_site_fract_z
Cl1 Cl 0.65881(8) -0.46670(4) 0.05964(3)
O1 O 0.3223(2) 0.00178(12) 0.04662(6)
N1 N 0.36284(18) 0.04819(12) 0.15401(6)
N2 N 0.50422(18) -0.10061(12) 0.24676(7)
N3 N 0.38910(18) 0.07544(12) 0.33883(7)
C1 C 0.6072(2) -0.35686(16) 0.11357(9)
C2 C 0.5182(2) -0.24144(16) 0.08735(9)
H1 H 0.483650 -0.220801 0.040762
C3 C 0.4800(2) -0.15498(15) 0.13186(8)
C4 C 0.3835(2) -0.03192(15) 0.10537(8)
C5 C 0.2675(2) 0.17533(16) 0.13022(9)
H2 H 0.170863 0.196854 0.162258
H3 H 0.212297 0.180419 0.085016
C6 C 0.3923(3) 0.26507(16) 0.12533(9)
H4 H 0.420080 0.304935 0.082038
C7 C 0.4639(3) 0.28839(16) 0.18213(9)
H5 H 0.535571 0.348009 0.177804
C8 C 0.4342(2) 0.22405(15) 0.25093(8)
C9 C 0.4289(2) 0.27170(15) 0.31453(9)
C10 C 0.4399(2) 0.38628(16) 0.33117(10)
H6 H 0.460821 0.449514 0.296833
C11 C 0.4194(3) 0.40365(18) 0.39893(10)
H7 H 0.425180 0.479648 0.410458
C12 C 0.3897(3) 0.30840(19) 0.45107(10)
H8 H 0.377488 0.322375 0.496702
C13 C 0.3782(3) 0.19517(17) 0.43658(9)
H9 H 0.357560 0.132627 0.471417
C14 C 0.3987(2) 0.17725(15) 0.36779(8)
C15 C 0.3506(3) -0.03747(16) 0.37935(9)
H10 H 0.296942 -0.081435 0.349671
H11 H 0.267757 -0.017976 0.415738
H12 H 0.461757 -0.087240 0.399274
C16 C 0.4078(2) 0.10390(15) 0.26750(8)
C17 C 0.4252(2) 0.01064(14) 0.22202(8)
C18 C 0.5316(2) -0.18546(14) 0.20224(8)
C19 C 0.6187(2) -0.30592(15) 0.22756(9)
H13 H 0.650680 -0.328612 0.274330
C20 C 0.6569(2) -0.39037(16) 0.18350(9)
H14 H 0.715914 -0.469873 0.200311
Cl2 Cl 0.86441(9) 1.46222(5) 0.44192(3)
O2 O 0.8186(2) 0.99193(13) 0.45301(6)
N4 N 0.88710(18) 0.94883(12) 0.34446(7)
N5 N 0.95469(18) 1.09875(12) 0.25269(7)
N6 N 0.93523(18) 0.92544(12) 0.15931(7)
C21 C 0.8928(2) 1.35311(16) 0.38726(9)
C22 C 0.9372(2) 1.38673(16) 0.31827(9)
H15 H 0.954874 1.465931 0.302254
C23 C 0.9550(2) 1.30265(15) 0.27386(9)
H16 H 0.982848 1.325416 0.227541
C24 C 0.9314(2) 1.18238(15) 0.29815(8)
C25 C 0.9336(2) 0.98722(14) 0.27665(8)
C26 C 0.9683(2) 0.89557(14) 0.23033(8)
C27 C 0.8355(2) 1.03926(16) 0.12027(9)
H17 H 0.756539 1.082809 0.150896
H18 H 0.764365 1.021239 0.084249
H19 H 0.919898 1.088766 0.099926
C28 C 0.9997(2) 0.82342(15) 0.12947(8)
C29 C 0.9896(2) 0.80706(18) 0.06055(9)
H20 H 0.935501 0.870536 0.026370
C30 C 1.0629(3) 0.69350(19) 0.04511(10)
H21 H 1.060022 0.680368 -0.000615
C31 C 1.1416(3) 0.59708(18) 0.09648(11)
H22 H 1.188018 0.520900 0.084357
C32 C 1.1517(2) 0.61274(16) 0.16440(10)
H23 H 1.204849 0.548284 0.198214
C33 C 1.0799(2) 0.72824(15) 0.18175(9)
C34 C 1.0589(2) 0.77431(15) 0.24566(8)
C35 C 1.1227(3) 0.70939(16) 0.31389(9)
H24 H 1.228186 0.649800 0.317196
C36 C 1.0369(3) 0.73170(16) 0.37138(9)
H25 H 1.085472 0.691292 0.414284
C37 C 0.8620(3) 0.82167(16) 0.36756(9)
H26 H 0.779523 0.801181 0.335553
H27 H 0.806598 0.815755 0.412966
C38 C 0.8615(2) 1.02748(16) 0.39390(8)
C39 C 0.8882(2) 1.15127(15) 0.36780(8)
C40 C 0.8688(2) 1.23682(16) 0.41275(9)
H28 H 0.840236 1.215330 0.459099
loop_
_geom_bond_atom_site_label_1
_geom_bond_atom_site_label_2
_geom_bond_site_symmetry_1
_geom_bond_site_symmetry_2
Cl1 C1 1_555 1_555
O1 C4 1_555 1_555
N1 C4 1_555 1_555
N2 C17 1_555 1_555
N3 C14 1_555 1_555
C1 C2 1_555 1_555
C2 H1 1_555 1_555
C3 C2 1_555 1_555
C4 C3 1_555 1_555
C5 N1 1_555 1_555
H2 C5 1_555 1_555
H3 C5 1_555 1_555
C6 C5 1_555 1_555
H4 C6 1_555 1_555
C7 C6 1_555 1_555
H5 C7 1_555 1_555
C8 C7 1_555 1_555
C9 C8 1_555 1_555
C10 C9 1_555 1_555
H6 C10 1_555 1_555
C11 C10 1_555 1_555
H7 C11 1_555 1_555
C12 C11 1_555 1_555
H8 C12 1_555 1_555
C13 C12 1_555 1_555
H9 C13 1_555 1_555
C14 C9 1_555 1_555
C15 N3 1_555 1_555
H10 C15 1_555 1_555
H11 C15 1_555 1_555
H12 C15 1_555 1_555
C16 N3 1_555 1_555
C17 N1 1_555 1_555
C18 N2 1_555 1_555
C19 C18 1_555 1_555
H13 C19 1_555 1_555
C20 C1 1_555 1_555
H14 C20 1_555 1_555
Cl2 C21 1_555 1_555
O2 C38 1_555 1_555
N4 C25 1_555 1_555
N5 C24 1_555 1_555
N6 C26 1_555 1_555
C21 C22 1_555 1_555
C22 H15 1_555 1_555
C23 C22 1_555 1_555
H16 C23 1_555 1_555
C24 C23 1_555 1_555
C25 N5 1_555 1_555
C26 C25 1_555 1_555
C27 N6 1_555 1_555
H17 C27 1_555 1_555
H18 C27 1_555 1_555
H19 C27 1_555 1_555
C28 N6 1_555 1_555
C29 C28 1_555 1_555
H20 C29 1_555 1_555
C30 C29 1_555 1_555
H21 C30 1_555 1_555
C31 C30 1_555 1_555
H22 C31 1_555 1_555
C32 C31 1_555 1_555
H23 C32 1_555 1_555
C33 C28 1_555 1_555
C34 C26 1_555 1_555
C35 C34 1_555 1_555
H24 C35 1_555 1_555
C36 C35 1_555 1_555
H25 C36 1_555 1_555
C37 N4 1_555 1_555
H26 C37 1_555 1_555
H27 C37 1_555 1_555
C38 N4 1_555 1_555
C39 C24 1_555 1_555
C40 C21 1_555 1_555
H28 C40 1_555 1_555
C3 C18 1_555 1_555
C8 C16 1_555 1_555
C13 C14 1_555 1_555
C16 C17 1_555 1_555
C19 C20 1_555 1_555
C32 C33 1_555 1_555
C33 C34 1_555 1_555
C36 C37 1_555 1_555
C38 C39 1_555 1_555
C39 C40 1_555 1_555

#END
