
#######################################################################
#
#                 Cambridge Crystallographic Data Centre
#                                CCDC 
#
#######################################################################
#
# If this CIF has been generated from an entry in the Cambridge 
# Structural Database, then it will include bibliographic, chemical, 
# crystal, experimental, refinement or atomic coordinate data resulting 
# from the CCDC's data processing and validation procedures.
#
#######################################################################

data_REVHOQ
_chemical_formula_moiety         'C27 H32 N4 O6 S1'
_chemical_name_systematic        
'Benzofuran-2-carboxylic acid (S)-3-methyl-1-(5-methyl-3-oxo-1-(pyridine-2-sulfonyl)azepan-4-yl)butylamide'
_symmetry_cell_setting           orthorhombic
_symmetry_space_group_name_H-M   'P 21 21 21'
_symmetry_Int_Tables_number      19
_space_group_name_Hall           'P 2ac 2ab'
loop_
_symmetry_equiv_pos_site_id
_symmetry_equiv_pos_as_xyz
1 x,y,z
2 1/2-x,-y,1/2+z
3 1/2+x,1/2-y,-z
4 -x,1/2+y,1/2-z
_cell_length_a                   10.56050(10)
_cell_length_b                   14.7602(2)
_cell_length_c                   17.5160(2)
_cell_angle_alpha                90
_cell_angle_beta                 90
_cell_angle_gamma                90
_cell_volume                     2730.31
_exptl_crystal_colour            colorless
_exptl_crystal_description       blade
_cell_formula_units_Z            4
_exptl_crystal_recrystallization_method ethanol
loop_
_atom_site_label
_atom_site_type_symbol
_atom_site_fract_x
_atom_site_fract_y
_atom_site_fract_z
S1 S 0.51539(4) 0.08079(3) 0.37773(3)
O1 O 0.54860(18) 0.15630(10) 0.33103(13)
O2 O 0.60268(13) 0.04842(10) 0.43429(10)
O3 O 0.19401(13) 0.30303(9) 0.39393(8)
O4 O 0.54912(11) 0.40848(9) 0.50916(8)
O5 O 0.38328(14) 0.62760(10) 0.39028(8)
O6 O 0.06835(13) 0.64260(9) 0.46139(7)
N1 N 0.38672(15) 0.10495(11) 0.42139(9)
N2 N 0.34060(13) 0.37762(10) 0.50017(9)
N3 N 0.29209(15) 0.56616(10) 0.49571(9)
N4 N 0.46199(15) -0.08832(10) 0.34937(10)
C1 C 0.35821(19) 0.27235(13) 0.63316(10)
C2 C 0.29015(19) 0.16052(13) 0.38544(12)
C3 C 0.27476(15) 0.25399(12) 0.42000(10)
C4 C 0.35593(15) 0.28104(11) 0.48807(9)
C5 C 0.32041(16) 0.22326(11) 0.55990(9)
C6 C 0.38547(18) 0.12991(12) 0.56089(10)
C7 C 0.35540(18) 0.06559(12) 0.49593(11)
C8 C 0.43851(15) 0.43381(11) 0.51141(9)
C9 C 0.40819(16) 0.53286(11) 0.53068(10)
C10 C 0.39628(17) 0.54706(12) 0.61722(10)
C11 C 0.50661(18) 0.51654(12) 0.66745(12)
C12 C 0.63042(19) 0.56412(15) 0.64747(16)
C13 C 0.4719(3) 0.53323(16) 0.75085(12)
C14 C 0.28984(18) 0.61292(12) 0.42977(10)
C15 C 0.16261(18) 0.64476(12) 0.40713(10)
C16 C 0.11840(19) 0.67195(12) 0.33874(10)
C17 C -0.1153(2) 0.71338(13) 0.30019(11)
C18 C -0.2344(2) 0.71976(14) 0.33146(13)
C19 C -0.2567(2) 0.70201(14) 0.40911(14)
C20 C -0.1583(2) 0.67667(15) 0.45717(13)
C21 C -0.04077(18) 0.66947(12) 0.42448(11)
C22 C -0.01536(19) 0.68746(11) 0.34787(10)
C23 C 0.48188(16) -0.00992(11) 0.31498(10)
C24 C 0.4749(2) 0.00593(19) 0.23736(13)
C25 C 0.4431(3) -0.0649(3) 0.19170(16)
C26 C 0.4248(3) -0.1461(2) 0.2228(2)
C27 C 0.4340(2) -0.15763(15) 0.3012(2)
H1 H 0.268(2) 0.3991(15) 0.5022(12)
H2 H 0.2264(19) 0.5588(12) 0.5209(10)
H3 H 0.3397 0.2337 0.6772
H4 H 0.3102 0.3289 0.6374
H5 H 0.4490 0.2859 0.6319
H6 H 0.2081 0.1284 0.3887
H7 H 0.3113 0.1673 0.3307
H8 H 0.4466 0.2690 0.4751
H9 H 0.2266 0.2139 0.5603
H10 H 0.4782 0.1399 0.5615
H11 H 0.3629 0.0994 0.6094
H12 H 0.4038 0.0088 0.5029
H13 H 0.2641 0.0503 0.4972
H14 H 0.4799 0.5712 0.5120
H15 H 0.3823 0.6125 0.6265
H16 H 0.3193 0.5149 0.6347
H17 H 0.5188 0.4499 0.6601
H18 H 0.6974 0.5434 0.6820
H19 H 0.6196 0.6298 0.6529
H20 H 0.6538 0.5498 0.5947
H21 H 0.5381 0.5082 0.7839
H22 H 0.3910 0.5037 0.7623
H23 H 0.4643 0.5985 0.7599
H24 H 0.1662 0.6795 0.2932
H25 H -0.1012 0.7262 0.2477
H26 H -0.3035 0.7366 0.2997
H27 H -0.3400 0.7074 0.4290
H28 H -0.1717 0.6650 0.5099
H29 H 0.4917 0.0642 0.2167
H30 H 0.4340 -0.0566 0.1382
H31 H 0.4053 -0.1965 0.1912
H32 H 0.4202 -0.2162 0.3221
loop_
_geom_bond_atom_site_label_1
_geom_bond_atom_site_label_2
_geom_bond_site_symmetry_1
_geom_bond_site_symmetry_2
S1 O1 1_555 1_555
O2 S1 1_555 1_555
O3 C3 1_555 1_555
O4 C8 1_555 1_555
O5 C14 1_555 1_555
O6 C15 1_555 1_555
N1 S1 1_555 1_555
N2 C4 1_555 1_555
N3 C9 1_555 1_555
N4 C23 1_555 1_555
C1 C5 1_555 1_555
C2 N1 1_555 1_555
C3 C2 1_555 1_555
C4 C3 1_555 1_555
C5 C4 1_555 1_555
C6 C5 1_555 1_555
C7 N1 1_555 1_555
C8 N2 1_555 1_555
C9 C8 1_555 1_555
C10 C9 1_555 1_555
C11 C10 1_555 1_555
C12 C11 1_555 1_555
C13 C11 1_555 1_555
C14 N3 1_555 1_555
C15 C14 1_555 1_555
C16 C15 1_555 1_555
C17 C18 1_555 1_555
C18 C19 1_555 1_555
C19 C20 1_555 1_555
C20 C21 1_555 1_555
C21 O6 1_555 1_555
C22 C16 1_555 1_555
C23 S1 1_555 1_555
C24 C23 1_555 1_555
C25 C24 1_555 1_555
C26 C25 1_555 1_555
C27 N4 1_555 1_555
H1 N2 1_555 1_555
H2 N3 1_555 1_555
H3 C1 1_555 1_555
H4 C1 1_555 1_555
H5 C1 1_555 1_555
H6 C2 1_555 1_555
H7 C2 1_555 1_555
H8 C4 1_555 1_555
H9 C5 1_555 1_555
H10 C6 1_555 1_555
H11 C6 1_555 1_555
H12 C7 1_555 1_555
H13 C7 1_555 1_555
H14 C9 1_555 1_555
H15 C10 1_555 1_555
H16 C10 1_555 1_555
H17 C11 1_555 1_555
H18 C12 1_555 1_555
H19 C12 1_555 1_555
H20 C12 1_555 1_555
H21 C13 1_555 1_555
H22 C13 1_555 1_555
H23 C13 1_555 1_555
H24 C16 1_555 1_555
H25 C17 1_555 1_555
H26 C18 1_555 1_555
H27 C19 1_555 1_555
H28 C20 1_555 1_555
H29 C24 1_555 1_555
H30 C25 1_555 1_555
H31 C26 1_555 1_555
H32 C27 1_555 1_555
C6 C7 1_555 1_555
C17 C22 1_555 1_555
C21 C22 1_555 1_555
C26 C27 1_555 1_555

#END
