
#######################################################################
#
#                 Cambridge Crystallographic Data Centre
#                                CCDC 
#
#######################################################################
#
# If this CIF has been generated from an entry in the Cambridge 
# Structural Database, then it will include bibliographic, chemical, 
# crystal, experimental, refinement or atomic coordinate data resulting 
# from the CCDC's data processing and validation procedures.
#
#######################################################################

data_REVJOS
_chemical_formula_moiety         'C15 H11 F6 N6 1+,Cl1 1-,C2 H3 N1'
_chemical_name_systematic        
'(R)-4-((6-Amino-3a-methyl-2-(trifluoromethyl)-3,3a-dihydro-4H-imdazo(1,5-b)pyrazol-4-ylidene)amino)-2-(trifluoromethyl)benzonitrile hydrochloride acetonitrile solvate'
_symmetry_cell_setting           monoclinic
_symmetry_space_group_name_H-M   'P 21'
_symmetry_Int_Tables_number      4
_space_group_name_Hall           'P 2yb'
loop_
_symmetry_equiv_pos_site_id
_symmetry_equiv_pos_as_xyz
1 x,y,z
2 -x,1/2+y,-z
_cell_length_a                   7.703(3)
_cell_length_b                   29.134(10)
_cell_length_c                   9.233(3)
_cell_angle_alpha                90
_cell_angle_beta                 90.252(6)
_cell_angle_gamma                90
_cell_volume                     2072.04
_exptl_crystal_colour            colorless
_exptl_crystal_description       'Rectangular parallelepiped'
_cell_formula_units_Z            4
loop_
_atom_site_label
_atom_site_type_symbol
_atom_site_fract_x
_atom_site_fract_y
_atom_site_fract_z
F1 F -0.0361(10) 0.1743(2) 0.3731(8)
F2 F -0.0844(10) 0.1643(2) 0.5992(7)
F3 F 0.1070(8) 0.1244(2) 0.4944(7)
F4 F -0.7685(10) -0.1954(2) 0.6874(8)
F5 F -0.5005(10) -0.2129(2) 0.7247(9)
F6 F -0.6094(11) -0.1532(2) 0.8223(7)
N1 N -0.3395(12) 0.0494(3) 0.0723(9)
N2 N -0.3868(13) -0.0051(3) 0.2579(8)
N3 N -0.3701(11) 0.0708(3) 0.3160(10)
N4 N -0.2567(12) 0.1083(3) 0.3163(10)
N5 N -0.4018(13) -0.0349(3) 0.4919(9)
N6 N -0.6650(20) -0.2529(4) 0.3938(13)
C1 C -0.3633(14) 0.0375(4) 0.2089(11)
C2 C -0.1759(15) 0.1067(3) 0.4355(9)
C3 C -0.2135(15) 0.0671(3) 0.5376(12)
C4 C -0.3780(14) 0.0461(4) 0.4607(12)
C5 C -0.3829(15) -0.0012(3) 0.4016(11)
C6 C -0.4457(15) -0.0821(3) 0.4668(10)
C7 C -0.5019(13) -0.1070(4) 0.5871(12)
C8 C -0.5574(14) -0.1519(3) 0.5690(11)
C9 C -0.5615(18) -0.1729(4) 0.4283(13)
C10 C -0.5067(15) -0.1460(4) 0.3151(11)
C11 C -0.4485(15) -0.1021(4) 0.3301(13)
C12 C -0.0497(17) 0.1439(4) 0.4773(11)
C13 C -0.5428(13) 0.0590(4) 0.5333(11)
C14 C -0.6020(20) -0.1780(4) 0.7034(13)
C15 C -0.6098(19) -0.2148(5) 0.4087(15)
H1 H -0.3382 0.0283 0.0041
H2 H -0.3250 0.0785 0.0495
H3 H -0.3852 -0.0276 0.5834
H4 H -0.2402 0.0780 0.6366
H5 H -0.1162 0.0450 0.5417
H6 H -0.5022 -0.0933 0.6805
H7 H -0.5096 -0.1588 0.2204
H8 H -0.4102 -0.0853 0.2480
H9 H -0.6413 0.0489 0.4737
H10 H -0.5473 0.0923 0.5456
H11 H -0.5483 0.0441 0.6283
F7 F -0.1894(13) -0.1758(3) -0.1310(9)
F8 F -0.0971(12) -0.1694(2) 0.0819(8)
F9 F -0.3195(11) -0.1316(3) 0.0177(9)
F10 F 0.5240(8) 0.1980(2) 0.1864(8)
F11 F 0.2587(9) 0.2162(2) 0.2221(6)
F12 F 0.3660(10) 0.1567(2) 0.3208(6)
N7 N 0.0983(12) -0.0470(3) -0.4256(10)
N8 N 0.1477(13) 0.0056(3) -0.2436(9)
N9 N 0.1312(12) -0.0696(3) -0.1873(9)
N10 N 0.0251(12) -0.1076(3) -0.1869(9)
N11 N 0.1667(12) 0.0364(3) -0.0071(9)
N12 N 0.4016(13) 0.2571(3) -0.1109(10)
C16 C 0.1221(14) -0.0391(4) -0.2928(12)
C17 C -0.0515(15) -0.1077(3) -0.0636(11)
C18 C -0.0109(13) -0.0675(3) 0.0317(10)
C19 C 0.1400(15) -0.0470(4) -0.0487(10)
C20 C 0.1427(13) 0.0012(3) -0.1034(11)
C21 C 0.2141(14) 0.0817(3) -0.0361(12)
C22 C 0.2545(14) 0.1088(4) 0.0893(12)
C23 C 0.3085(16) 0.1523(4) 0.0721(13)
C24 C 0.3180(16) 0.1706(4) -0.0629(13)
C25 C 0.2622(16) 0.1467(4) -0.1804(14)
C26 C 0.2146(16) 0.1015(3) -0.1708(12)
C27 C -0.1680(20) -0.1468(4) -0.0303(17)
C28 C 0.3157(15) -0.0583(4) 0.0300(12)
C29 C 0.3627(15) 0.1811(4) 0.1980(13)
C30 C 0.3683(18) 0.2195(4) -0.0859(12)
H12 H 0.0857 -0.0754 -0.4564
H13 H 0.0943 -0.0241 -0.4876
H14 H 0.1502 0.0296 0.0847
H15 H 0.0228 -0.0773 0.1305
H16 H -0.1098 -0.0459 0.0373
H17 H 0.2431 0.0960 0.1836
H18 H 0.2561 0.1616 -0.2716
H19 H 0.1830 0.0845 -0.2546
H20 H 0.4126 -0.0465 -0.0275
H21 H 0.3273 -0.0916 0.0410
H22 H 0.3170 -0.0438 0.1258
Cl1 Cl -0.3137(4) -0.0164(1) -0.1899(3)
Cl2 Cl 0.0794(4) 0.0174(1) -0.6944(3)
N13 N -0.2440(20) 0.1383(4) -0.0605(17)
C31 C -0.1950(20) 0.1713(6) -0.0412(15)
C32 C -0.1500(20) 0.2220(5) -0.0380(20)
H23 H -0.1996 0.2373 -0.1228
H24 H -0.0231 0.2256 -0.0386
H25 H -0.1965 0.2359 0.0504
N14 N -0.0039(19) -0.1368(5) -0.5644(13)
C33 C -0.0450(30) -0.1757(8) -0.5665(19)
C34 C -0.1170(20) -0.2181(7) -0.5460(30)
H26 H -0.0241 -0.2407 -0.5310
H27 H -0.1854 -0.2266 -0.6314
H28 H -0.1920 -0.2174 -0.4606
loop_
_geom_bond_atom_site_label_1
_geom_bond_atom_site_label_2
_geom_bond_site_symmetry_1
_geom_bond_site_symmetry_2
F1 C12 1_555 1_555
F2 C12 1_555 1_555
F3 C12 1_555 1_555
F4 C14 1_555 1_555
F5 C14 1_555 1_555
F6 C14 1_555 1_555
N1 C1 1_555 1_555
N2 C1 1_555 1_555
N3 N4 1_555 1_555
N4 C2 1_555 1_555
N5 C5 1_555 1_555
N6 C15 1_555 1_555
C1 N3 1_555 1_555
C2 C3 1_555 1_555
C3 C4 1_555 1_555
C4 N3 1_555 1_555
C5 N2 1_555 1_555
C6 N5 1_555 1_555
C7 C6 1_555 1_555
C8 C7 1_555 1_555
C9 C8 1_555 1_555
C10 C9 1_555 1_555
C11 C6 1_555 1_555
C12 C2 1_555 1_555
C13 C4 1_555 1_555
C14 C8 1_555 1_555
C15 C9 1_555 1_555
F7 C27 1_555 1_555
F8 C27 1_555 1_555
F9 C27 1_555 1_555
F10 C29 1_555 1_555
F11 C29 1_555 1_555
F12 C29 1_555 1_555
N7 C16 1_555 1_555
N8 C16 1_555 1_555
N9 N10 1_555 1_555
N10 C17 1_555 1_555
N11 C20 1_555 1_555
N12 C30 1_555 1_555
C16 N9 1_555 1_555
C17 C18 1_555 1_555
C18 C19 1_555 1_555
C19 N9 1_555 1_555
C20 N8 1_555 1_555
C21 N11 1_555 1_555
C22 C21 1_555 1_555
C23 C22 1_555 1_555
C24 C23 1_555 1_555
C25 C24 1_555 1_555
C26 C21 1_555 1_555
C27 C17 1_555 1_555
C28 C19 1_555 1_555
C29 C23 1_555 1_555
C30 C24 1_555 1_555
N13 C31 1_555 1_555
C31 C32 1_555 1_555
C32 H23 1_555 1_555
N14 C33 1_555 1_555
C33 C34 1_555 1_555
C34 H26 1_555 1_555
H1 N1 1_555 1_555
H2 N1 1_555 1_555
H3 N5 1_555 1_555
H4 C3 1_555 1_555
H5 C3 1_555 1_555
H6 C7 1_555 1_555
H7 C10 1_555 1_555
H8 C11 1_555 1_555
H9 C13 1_555 1_555
H10 C13 1_555 1_555
H11 C13 1_555 1_555
H12 N7 1_555 1_555
H13 N7 1_555 1_555
H14 N11 1_555 1_555
H15 C18 1_555 1_555
H16 C18 1_555 1_555
H17 C22 1_555 1_555
H18 C25 1_555 1_555
H19 C26 1_555 1_555
H20 C28 1_555 1_555
H21 C28 1_555 1_555
H22 C28 1_555 1_555
H24 C32 1_555 1_555
H25 C32 1_555 1_555
H27 C34 1_555 1_555
H28 C34 1_555 1_555
C4 C5 1_555 1_555
C10 C11 1_555 1_555
C19 C20 1_555 1_555
C25 C26 1_555 1_555

#END
