
#######################################################################
#
#                 Cambridge Crystallographic Data Centre
#                                CCDC 
#
#######################################################################
#
# If this CIF has been generated from an entry in the Cambridge 
# Structural Database, then it will include bibliographic, chemical, 
# crystal, experimental, refinement or atomic coordinate data resulting 
# from the CCDC's data processing and validation procedures.
#
#######################################################################

data_REVKUA
_chemical_formula_moiety         'C27 H23 N1 O2'
_chemical_name_systematic        
'2-(1,2-Diphenylvinyl)-1-naphthyl dimethylcarbamate'
_symmetry_cell_setting           monoclinic
_symmetry_space_group_name_H-M   'P 21/c'
_symmetry_Int_Tables_number      14
_space_group_name_Hall           '-P 2ybc'
loop_
_symmetry_equiv_pos_site_id
_symmetry_equiv_pos_as_xyz
1 x,y,z
2 -x,1/2+y,1/2-z
3 -x,-y,-z
4 x,1/2-y,1/2+z
_cell_length_a                   10.373(3)
_cell_length_b                   11.158(3)
_cell_length_c                   18.211(5)
_cell_angle_alpha                90
_cell_angle_beta                 101.326(4)
_cell_angle_gamma                90
_cell_volume                     2066.73
_exptl_crystal_colour            colorless
_exptl_crystal_description       Prism
_cell_formula_units_Z            4
loop_
_atom_site_label
_atom_site_type_symbol
_atom_site_fract_x
_atom_site_fract_y
_atom_site_fract_z
O1 O 0.30762(7) 0.86750(6) 0.21375(4)
O2 O 0.12321(7) 0.86488(8) 0.12269(4)
N1 N 0.30048(8) 0.74993(8) 0.11269(5)
C1 C 0.25870(10) 0.96917(9) 0.24491(5)
C2 C 0.16863(10) 0.95129(9) 0.29330(5)
C3 C 0.12707(10) 0.83600(10) 0.31220(6)
H1 H 0.1619 0.7663 0.2933
C4 C 0.03706(11) 0.82513(10) 0.35755(6)
H2 H 0.0101 0.7476 0.3700
C5 C -0.01614(11) 0.92683(11) 0.38598(6)
H3 H -0.0791 0.9177 0.4171
C6 C 0.02237(10) 1.03906(11) 0.36903(6)
H4 H -0.0142 1.1073 0.3885
C7 C 0.11615(10) 1.05460(10) 0.32285(5)
C8 C 0.15659(10) 1.16991(10) 0.30375(6)
H5 H 0.1209 1.2393 0.3225
C9 C 0.24640(10) 1.18195(10) 0.25868(6)
H6 H 0.2727 1.2601 0.2470
C10 C 0.30165(9) 1.08122(10) 0.22878(5)
C11 C 0.40364(10) 1.10026(10) 0.18247(5)
C12 C 0.37450(10) 1.19496(10) 0.12380(5)
C13 C 0.46202(11) 1.28915(10) 0.12112(6)
H7 H 0.5395 1.2957 0.1586
C14 C 0.43644(12) 1.37344(11) 0.06390(6)
H8 H 0.4960 1.4378 0.0627
C15 C 0.32391(12) 1.36368(11) 0.00849(6)
H9 H 0.3076 1.4199 -0.0314
C16 C 0.23579(11) 1.27195(11) 0.01165(6)
H10 H 0.1585 1.2654 -0.0260
C17 C 0.25962(10) 1.18944(10) 0.06950(6)
H11 H 0.1969 1.1284 0.0722
C18 C 0.51687(10) 1.03809(9) 0.19757(6)
H12 H 0.5274 0.9880 0.2405
C19 C 0.62699(10) 1.03621(9) 0.15735(6)
C20 C 0.75308(10) 1.00790(9) 0.19687(6)
H13 H 0.7667 0.9943 0.2493
C21 C 0.85854(11) 0.99946(10) 0.16053(7)
H14 H 0.9437 0.9810 0.1883
C22 C 0.84022(11) 1.01767(10) 0.08436(7)
H15 H 0.9123 1.0114 0.0595
C23 C 0.71572(11) 1.04521(10) 0.04427(6)
H16 H 0.7026 1.0576 -0.0083
C24 C 0.61065(10) 1.05467(10) 0.08030(6)
H17 H 0.5260 1.0740 0.0522
C25 C 0.23403(11) 0.82962(10) 0.14612(6)
C26 C 0.23484(12) 0.69289(11) 0.04355(6)
H18 H 0.1463 0.7264 0.0282
H19 H 0.2287 0.6064 0.0517
H20 H 0.2853 0.7075 0.0042
C27 C 0.43936(11) 0.72279(12) 0.13733(7)
H21 H 0.4884 0.7528 0.1003
H22 H 0.4511 0.6359 0.1426
H23 H 0.4721 0.7615 0.1857
loop_
_geom_bond_atom_site_label_1
_geom_bond_atom_site_label_2
_geom_bond_site_symmetry_1
_geom_bond_site_symmetry_2
O1 C1 1_555 1_555
O2 C25 1_555 1_555
N1 C25 1_555 1_555
C1 C2 1_555 1_555
C2 C3 1_555 1_555
C3 H1 1_555 1_555
C4 C3 1_555 1_555
H2 C4 1_555 1_555
C5 C4 1_555 1_555
H3 C5 1_555 1_555
C6 C5 1_555 1_555
H4 C6 1_555 1_555
C7 C2 1_555 1_555
C8 C7 1_555 1_555
H5 C8 1_555 1_555
C9 C8 1_555 1_555
H6 C9 1_555 1_555
C10 C1 1_555 1_555
C11 C10 1_555 1_555
C12 C11 1_555 1_555
C13 C12 1_555 1_555
H7 C13 1_555 1_555
C14 C13 1_555 1_555
H8 C14 1_555 1_555
C15 C14 1_555 1_555
H9 C15 1_555 1_555
C16 C15 1_555 1_555
H10 C16 1_555 1_555
C17 C12 1_555 1_555
H11 C17 1_555 1_555
C18 C11 1_555 1_555
H12 C18 1_555 1_555
C19 C18 1_555 1_555
C20 C19 1_555 1_555
H13 C20 1_555 1_555
C21 C20 1_555 1_555
H14 C21 1_555 1_555
C22 C21 1_555 1_555
H15 C22 1_555 1_555
C23 C22 1_555 1_555
H16 C23 1_555 1_555
C24 C19 1_555 1_555
H17 C24 1_555 1_555
C25 O1 1_555 1_555
C26 N1 1_555 1_555
H18 C26 1_555 1_555
H19 C26 1_555 1_555
H20 C26 1_555 1_555
C27 N1 1_555 1_555
H21 C27 1_555 1_555
H22 C27 1_555 1_555
H23 C27 1_555 1_555
C6 C7 1_555 1_555
C9 C10 1_555 1_555
C16 C17 1_555 1_555
C23 C24 1_555 1_555

#END
