
#######################################################################
#
#                 Cambridge Crystallographic Data Centre
#                                CCDC 
#
#######################################################################
#
# If this CIF has been generated from an entry in the Cambridge 
# Structural Database, then it will include bibliographic, chemical, 
# crystal, experimental, refinement or atomic coordinate data resulting 
# from the CCDC's data processing and validation procedures.
#
#######################################################################

data_REVLAH
_chemical_formula_moiety         'C21 H19 N1 O4'
_chemical_name_systematic        
'2-Oxo-3-(1-phenylprop-1-en-2-yl)-2H-chromen-4-yl dimethylcarbamate'
_symmetry_cell_setting           triclinic
_symmetry_space_group_name_H-M   'P -1'
_symmetry_Int_Tables_number      2
_space_group_name_Hall           '-P 1'
loop_
_symmetry_equiv_pos_site_id
_symmetry_equiv_pos_as_xyz
1 x,y,z
2 -x,-y,-z
_cell_length_a                   9.332(2)
_cell_length_b                   9.755(3)
_cell_length_c                   10.389(3)
_cell_angle_alpha                86.527(17)
_cell_angle_beta                 72.317(14)
_cell_angle_gamma                74.524(14)
_cell_volume                     868.177
_exptl_crystal_colour            colorless
_exptl_crystal_description       Prism
_cell_formula_units_Z            2
loop_
_atom_site_label
_atom_site_type_symbol
_atom_site_fract_x
_atom_site_fract_y
_atom_site_fract_z
O1 O 1.04346(11) 0.24014(9) -0.28517(8)
O2 O 0.81141(11) 0.21967(10) -0.27427(9)
O3 O 0.91913(10) 0.29435(9) 0.13032(8)
O4 O 0.93091(11) 0.05924(9) 0.16621(8)
N1 N 0.80853(13) 0.22305(11) 0.33845(10)
C1 C 1.14867(15) 0.26227(13) -0.22543(12)
C2 C 1.29657(16) 0.25809(14) -0.30897(13)
H1 H 1.3233 0.2397 -0.4032
C3 C 1.40489(17) 0.28119(14) -0.25285(13)
H2 H 1.5076 0.2774 -0.3086
C4 C 1.36421(16) 0.30999(13) -0.11468(12)
H3 H 1.4387 0.3278 -0.0773
C5 C 1.21676(16) 0.31274(13) -0.03211(12)
H4 H 1.1903 0.3318 0.0620
C6 C 1.10579(15) 0.28756(12) -0.08635(12)
C7 C 0.95444(15) 0.27384(12) -0.00777(12)
C8 C 0.85352(15) 0.24231(13) -0.06314(12)
C9 C 0.89658(16) 0.23133(13) -0.21053(12)
C10 C 0.70460(15) 0.21106(13) 0.01495(12)
C11 C 0.68742(16) 0.06825(14) -0.01587(13)
H5 H 0.7214 -0.0016 0.0478
H6 H 0.7517 0.0376 -0.1083
H7 H 0.5780 0.0759 -0.0072
C12 C 0.60018(15) 0.30592(13) 0.10892(12)
H8 H 0.6280 0.3913 0.1164
C13 C 0.44897(15) 0.29611(13) 0.20178(12)
C14 C 0.33566(16) 0.42236(14) 0.25214(12)
H9 H 0.3599 0.5108 0.2280
C15 C 0.18905(17) 0.42155(15) 0.33637(13)
H10 H 0.1139 0.5088 0.3686
C16 C 0.15181(17) 0.29409(15) 0.37370(13)
H11 H 0.0509 0.2932 0.4307
C17 C 0.26321(18) 0.16731(15) 0.32714(13)
H12 H 0.2383 0.0793 0.3524
C18 C 0.41020(18) 0.16822(14) 0.24430(13)
H13 H 0.4862 0.0805 0.2157
C19 C 0.88649(15) 0.18009(14) 0.21066(12)
C20 C 0.73619(18) 0.37089(14) 0.38269(13)
H14 H 0.7866 0.4329 0.3169
H15 H 0.7481 0.3851 0.4711
H16 H 0.6252 0.3943 0.3899
C21 C 0.76706(19) 0.11475(15) 0.43522(12)
H17 H 0.6594 0.1131 0.4462
H18 H 0.7765 0.1370 0.5225
H19 H 0.8373 0.0214 0.4019
loop_
_geom_bond_atom_site_label_1
_geom_bond_atom_site_label_2
_geom_bond_site_symmetry_1
_geom_bond_site_symmetry_2
O1 C1 1_555 1_555
O2 C9 1_555 1_555
O3 C7 1_555 1_555
O4 C19 1_555 1_555
N1 C19 1_555 1_555
C1 C2 1_555 1_555
C2 H1 1_555 1_555
C3 C2 1_555 1_555
H2 C3 1_555 1_555
C4 C3 1_555 1_555
H3 C4 1_555 1_555
C5 C4 1_555 1_555
H4 C5 1_555 1_555
C6 C1 1_555 1_555
C7 C6 1_555 1_555
C8 C7 1_555 1_555
C9 O1 1_555 1_555
C10 C8 1_555 1_555
C11 C10 1_555 1_555
H5 C11 1_555 1_555
H6 C11 1_555 1_555
H7 C11 1_555 1_555
C12 C10 1_555 1_555
H8 C12 1_555 1_555
C13 C12 1_555 1_555
C14 C13 1_555 1_555
H9 C14 1_555 1_555
C15 C14 1_555 1_555
H10 C15 1_555 1_555
C16 C15 1_555 1_555
H11 C16 1_555 1_555
C17 C16 1_555 1_555
H12 C17 1_555 1_555
C18 C13 1_555 1_555
H13 C18 1_555 1_555
C19 O3 1_555 1_555
C20 N1 1_555 1_555
H14 C20 1_555 1_555
H15 C20 1_555 1_555
H16 C20 1_555 1_555
C21 N1 1_555 1_555
H17 C21 1_555 1_555
H18 C21 1_555 1_555
H19 C21 1_555 1_555
C5 C6 1_555 1_555
C8 C9 1_555 1_555
C17 C18 1_555 1_555

#END
