
#######################################################################
#
#                 Cambridge Crystallographic Data Centre
#                                CCDC 
#
#######################################################################
#
# If this CIF has been generated from an entry in the Cambridge 
# Structural Database, then it will include bibliographic, chemical, 
# crystal, experimental, refinement or atomic coordinate data resulting 
# from the CCDC's data processing and validation procedures.
#
#######################################################################

data_REVMUD
_chemical_formula_moiety         'C17 H13 F1 O4 S1'
_chemical_name_systematic        
6-fluoro-2-methyl-3-((4-methylphenyl)sulfonyl)-4H-1-benzopyran-4-one
_symmetry_cell_setting           monoclinic
_symmetry_space_group_name_H-M   'P 21/n'
_symmetry_Int_Tables_number      14
_space_group_name_Hall           '-P 2yn'
loop_
_symmetry_equiv_pos_site_id
_symmetry_equiv_pos_as_xyz
1 x,y,z
2 1/2-x,1/2+y,1/2-z
3 -x,-y,-z
4 1/2+x,1/2-y,1/2+z
_cell_length_a                   9.1290(8)
_cell_length_b                   18.4090(16)
_cell_length_c                   9.3444(8)
_cell_angle_alpha                90
_cell_angle_beta                 110.511(3)
_cell_angle_gamma                90
_cell_volume                     1470.83
_exptl_crystal_colour            colorless
_cell_formula_units_Z            4
loop_
_atom_site_label
_atom_site_type_symbol
_atom_site_fract_x
_atom_site_fract_y
_atom_site_fract_z
C1 C 0.0699(2) 0.28742(11) 1.1835(2)
H1 H 0.1689 0.2713 1.2595
H2 H -0.0144 0.2815 1.2249
H3 H 0.0782 0.3387 1.1592
C2 C 0.0341(2) 0.24244(10) 1.0405(2)
C3 C 0.0673(2) 0.26818(10) 0.9153(2)
H4 H 0.1095 0.3156 0.9185
C4 C 0.0396(2) 0.22579(10) 0.7859(2)
H5 H 0.0619 0.2439 0.7006
C5 C -0.0214(2) 0.15620(9) 0.7827(2)
C6 C 0.1302(2) 0.05946(9) 0.65426(19)
C7 C 0.2270(2) 0.07895(9) 0.5774(2)
C8 C 0.4229(2) -0.00332(9) 0.72121(19)
C9 C 0.5737(2) -0.02873(10) 0.7491(2)
H6 H 0.6345 -0.0105 0.6927
C10 C 0.6332(2) -0.08077(10) 0.8599(2)
H7 H 0.7360 -0.0992 0.8815
C11 C 0.1760(2) 0.00379(9) 0.77410(19)
C12 C 0.3310(2) -0.02819(9) 0.80167(19)
C13 C 0.1998(2) 0.13171(10) 0.4497(2)
H8 H 0.2977 0.1396 0.4309
H9 H 0.1633 0.1779 0.4770
H10 H 0.1206 0.1123 0.3571
C14 C 0.5405(2) -0.10605(10) 0.9398(2)
C15 C 0.3922(2) -0.08152(9) 0.9142(2)
H11 H 0.3322 -0.1001 0.9710
C16 C -0.0565(2) 0.12904(9) 0.9056(2)
H12 H -0.0980 0.0815 0.9025
C17 C -0.0296(2) 0.17288(10) 1.0331(2)
H13 H -0.0550 0.1553 1.1171
F1 F 0.60213(14) -0.15683(6) 1.05007(13)
O1 O -0.16758(14) 0.04784(7) 0.61406(15)
O2 O -0.08433(16) 0.14934(7) 0.48875(14)
O3 O 0.09489(15) -0.01469(7) 0.84835(15)
O4 O 0.37018(14) 0.04943(6) 0.61080(13)
S1 S -0.05322(5) 0.10219(2) 0.61871(5)
loop_
_geom_bond_atom_site_label_1
_geom_bond_atom_site_label_2
_geom_bond_site_symmetry_1
_geom_bond_site_symmetry_2
C1 H1 1_555 1_555
H2 C1 1_555 1_555
H3 C1 1_555 1_555
C2 C1 1_555 1_555
C3 C2 1_555 1_555
H4 C3 1_555 1_555
C4 C3 1_555 1_555
H5 C4 1_555 1_555
C5 C4 1_555 1_555
C6 C7 1_555 1_555
C7 C13 1_555 1_555
C8 C9 1_555 1_555
C9 H6 1_555 1_555
C10 C9 1_555 1_555
H7 C10 1_555 1_555
C11 C6 1_555 1_555
C12 C8 1_555 1_555
C13 H8 1_555 1_555
H9 C13 1_555 1_555
H10 C13 1_555 1_555
C14 C10 1_555 1_555
C15 C12 1_555 1_555
H11 C15 1_555 1_555
C16 C5 1_555 1_555
H12 C16 1_555 1_555
C17 C2 1_555 1_555
H13 C17 1_555 1_555
F1 C14 1_555 1_555
O1 S1 1_555 1_555
O2 S1 1_555 1_555
O3 C11 1_555 1_555
O4 C7 1_555 1_555
S1 C5 1_555 1_555
C6 S1 1_555 1_555
C8 O4 1_555 1_555
C11 C12 1_555 1_555
C14 C15 1_555 1_555
C16 C17 1_555 1_555

#END
