
#######################################################################
#
#                 Cambridge Crystallographic Data Centre
#                                CCDC 
#
#######################################################################
#
# If this CIF has been generated from an entry in the Cambridge 
# Structural Database, then it will include bibliographic, chemical, 
# crystal, experimental, refinement or atomic coordinate data resulting 
# from the CCDC's data processing and validation procedures.
#
#######################################################################

data_REVNOY
_chemical_formula_moiety         'C14 H10 N2 O1'
_chemical_name_systematic        2-(quinoxalin-2-yl)phenol
_symmetry_cell_setting           monoclinic
_symmetry_space_group_name_H-M   'P 21/n'
_symmetry_Int_Tables_number      14
_space_group_name_Hall           '-P 2yn'
loop_
_symmetry_equiv_pos_site_id
_symmetry_equiv_pos_as_xyz
1 x,y,z
2 1/2-x,1/2+y,1/2-z
3 -x,-y,-z
4 1/2+x,1/2-y,1/2+z
_cell_length_a                   5.9308(11)
_cell_length_b                   15.169(3)
_cell_length_c                   17.477(3)
_cell_angle_alpha                90
_cell_angle_beta                 95.622(5)
_cell_angle_gamma                90
_cell_volume                     1564.74
_exptl_crystal_colour            yellow
_exptl_crystal_description       Columnar
_cell_formula_units_Z            6
loop_
_atom_site_label
_atom_site_type_symbol
_atom_site_fract_x
_atom_site_fract_y
_atom_site_fract_z
O1 O 0.7846(2) 0.29543(8) 0.38719(7)
C1 C 0.6069(3) 0.23939(11) 0.37471(9)
C2 C 0.4294(3) 0.23639(10) 0.42334(9)
C3 C 0.2539(3) 0.17581(11) 0.40492(10)
H1 H 0.1332 0.1722 0.4367
C4 C 0.2525(3) 0.12147(11) 0.34192(10)
H2 H 0.1317 0.0809 0.3307
C5 C 0.4270(3) 0.12565(12) 0.29476(10)
H3 H 0.4253 0.0882 0.2511
C6 C 0.6025(3) 0.18390(12) 0.31108(10)
H4 H 0.7220 0.1864 0.2787
C7 C 0.4275(3) 0.29547(10) 0.48962(9)
C8 C 0.2491(3) 0.29503(12) 0.53962(10)
H5 H 0.1327 0.2522 0.5305
C9 C 0.4067(3) 0.41076(11) 0.60876(9)
C10 C 0.4001(3) 0.47433(12) 0.66728(10)
H6 H 0.2779 0.4745 0.6986
C11 C 0.5678(3) 0.53547(12) 0.67917(11)
H7 H 0.5610 0.5784 0.7185
C12 C 0.7508(3) 0.53570(11) 0.63393(10)
H8 H 0.8673 0.5785 0.6428
C13 C 0.7617(3) 0.47443(11) 0.57714(10)
H9 H 0.8869 0.4745 0.5471
C14 C 0.5891(3) 0.41118(10) 0.56269(9)
N1 N 0.5965(2) 0.35254(9) 0.50342(7)
N2 N 0.2365(2) 0.34964(9) 0.59682(8)
H10 H 0.7642 0.3376 0.4388
H11? H 0.7665 0.0697 0.5004
C15? C 0.6832(3) 0.12131(10) 0.58552(9)
C16? C 0.7346(3) 0.18382(11) 0.64400(10)
H12? H 0.8671 0.2191 0.6440
C17? C 0.5936(3) 0.19390(11) 0.70096(10)
H13? H 0.6292 0.2360 0.7406
C18? C 0.3981(3) 0.14288(12) 0.70126(10)
H14? H 0.3019 0.1502 0.7412
C19? C 0.3440(3) 0.08223(11) 0.64419(9)
H15? H 0.2094 0.0483 0.6446
C20? C 0.4856(3) 0.06969(10) 0.58507(8)
N3? N 0.848(5) 0.1135(12) 0.5316(11)
C21? C 0.448(3) 0.0064(15) 0.5218(12)
O2? O 0.816(4) 0.1111(9) 0.5293(10)
N4? N 0.413(3) 0.0048(14) 0.5320(11)
C22? C 0.7655(7) 0.0484(3) 0.4775(2)
H16? H 0.8545 0.0380 0.4361
loop_
_geom_bond_atom_site_label_1
_geom_bond_atom_site_label_2
_geom_bond_site_symmetry_1
_geom_bond_site_symmetry_2
O1 C1 1_555 1_555
C1 C2 1_555 1_555
C2 C3 1_555 1_555
C3 H1 1_555 1_555
C4 C3 1_555 1_555
H2 C4 1_555 1_555
C5 C4 1_555 1_555
H3 C5 1_555 1_555
C6 C1 1_555 1_555
H4 C6 1_555 1_555
C7 C2 1_555 1_555
C8 C7 1_555 1_555
H5 C8 1_555 1_555
C9 C10 1_555 1_555
C10 H6 1_555 1_555
C11 C10 1_555 1_555
H7 C11 1_555 1_555
C12 C11 1_555 1_555
H8 C12 1_555 1_555
C13 C12 1_555 1_555
H9 C13 1_555 1_555
C14 C9 1_555 1_555
N1 C7 1_555 1_555
N2 C8 1_555 1_555
H10 O1 1_555 1_555
C5 C6 1_555 1_555
C9 N2 1_555 1_555
C13 C14 1_555 1_555
C14 N1 1_555 1_555

#END
