
#######################################################################
#
#                 Cambridge Crystallographic Data Centre
#                                CCDC 
#
#######################################################################
#
# If this CIF has been generated from an entry in the Cambridge 
# Structural Database, then it will include bibliographic, chemical, 
# crystal, experimental, refinement or atomic coordinate data resulting 
# from the CCDC's data processing and validation procedures.
#
#######################################################################

data_REVNAK
_chemical_formula_moiety         'C17 H14 O4 S1'
_chemical_name_systematic        
'2-methyl-3-((4-methylphenyl)sulfonyl)-4H-1-benzopyran-4-one unknown solvate'
_symmetry_cell_setting           triclinic
_symmetry_space_group_name_H-M   'P -1'
_symmetry_Int_Tables_number      2
_space_group_name_Hall           '-P 1'
loop_
_symmetry_equiv_pos_site_id
_symmetry_equiv_pos_as_xyz
1 x,y,z
2 -x,-y,-z
_cell_length_a                   7.1482(5)
_cell_length_b                   10.6504(7)
_cell_length_c                   11.8975(8)
_cell_angle_alpha                67.722(3)
_cell_angle_beta                 80.069(3)
_cell_angle_gamma                84.547(3)
_cell_volume                     825.164
_exptl_crystal_colour            colorless
_cell_formula_units_Z            2
loop_
_atom_site_label
_atom_site_type_symbol
_atom_site_fract_x
_atom_site_fract_y
_atom_site_fract_z
S1 S 0.16480(5) 0.34057(3) 0.15908(3)
O1 O 0.31401(13) 0.14521(9) -0.07496(8)
O2 O 0.26375(14) 0.46027(9) 0.07663(9)
O3 O -0.03540(14) 0.35385(10) 0.19788(9)
O4 O 0.03851(13) 0.05635(9) 0.27365(9)
C1 C 0.5745(2) 0.11451(18) 0.60357(14)
H1 H 0.5208 0.1581 0.6618
H2 H 0.7099 0.1338 0.5775
H3 H 0.5594 0.0162 0.6433
C2 C 0.4721(2) 0.16908(14) 0.49302(13)
C3 C 0.5709(2) 0.23225(15) 0.37557(13)
H4 H 0.7048 0.2397 0.3649
C4 C 0.47670(19) 0.28435(13) 0.27407(13)
H5 H 0.5449 0.3288 0.1945
C5 C 0.28154(18) 0.27091(13) 0.28985(12)
C6 C 0.20219(18) 0.21537(12) 0.09210(12)
C7 C 0.28797(18) 0.24262(12) -0.02574(12)
C8 C 0.25610(18) 0.01453(13) -0.00615(12)
C9 C 0.28772(18) -0.07760(14) -0.06568(13)
H6 H 0.3475 -0.0507 -0.1486
C10 C 0.22966(19) -0.20907(14) -0.00068(13)
H7 H 0.2482 -0.2732 -0.0397
C11 C 0.16826(18) -0.02131(13) 0.11403(12)
C12 C 0.11270(19) -0.15605(13) 0.17859(13)
H8 H 0.0533 -0.1832 0.2617
C13 C 0.14394(19) -0.24879(13) 0.12193(13)
H9 H 0.1072 -0.3400 0.1661
C14 C 0.12776(18) 0.08148(13) 0.17038(12)
C15 C 0.3610(2) 0.37349(13) -0.12036(13)
H10 H 0.4172 0.3593 -0.1960
H11 H 0.4578 0.4061 -0.0898
H12 H 0.2560 0.4409 -0.1374
C16 C 0.18024(19) 0.20590(13) 0.40584(13)
H13 H 0.0470 0.1960 0.4160
C17 C 0.2765(2) 0.15575(14) 0.50626(13)
H14 H 0.2080 0.1114 0.5857
loop_
_geom_bond_atom_site_label_1
_geom_bond_atom_site_label_2
_geom_bond_site_symmetry_1
_geom_bond_site_symmetry_2
S1 O2 1_555 1_555
O1 C7 1_555 1_555
O3 S1 1_555 1_555
O4 C14 1_555 1_555
C1 H1 1_555 1_555
H2 C1 1_555 1_555
H3 C1 1_555 1_555
C2 C1 1_555 1_555
C3 C2 1_555 1_555
H4 C3 1_555 1_555
C4 C3 1_555 1_555
H5 C4 1_555 1_555
C5 S1 1_555 1_555
C6 S1 1_555 1_555
C7 C6 1_555 1_555
C8 O1 1_555 1_555
C9 C8 1_555 1_555
H6 C9 1_555 1_555
C10 C9 1_555 1_555
H7 C10 1_555 1_555
C11 C8 1_555 1_555
C12 C11 1_555 1_555
H8 C12 1_555 1_555
C13 C10 1_555 1_555
H9 C13 1_555 1_555
C14 C6 1_555 1_555
C15 C7 1_555 1_555
H10 C15 1_555 1_555
H11 C15 1_555 1_555
H12 C15 1_555 1_555
C16 C5 1_555 1_555
H13 C16 1_555 1_555
C17 C2 1_555 1_555
H14 C17 1_555 1_555
C4 C5 1_555 1_555
C11 C14 1_555 1_555
C12 C13 1_555 1_555
C16 C17 1_555 1_555

#END
