
#######################################################################
#
#                 Cambridge Crystallographic Data Centre
#                                CCDC 
#
#######################################################################
#
# If this CIF has been generated from an entry in the Cambridge 
# Structural Database, then it will include bibliographic, chemical, 
# crystal, experimental, refinement or atomic coordinate data resulting 
# from the CCDC's data processing and validation procedures.
#
#######################################################################

data_REVNUB
_chemical_formula_moiety         'C13 H10 N2 O5 S2'
_chemical_name_systematic        
1-(4,5-bis(Methoxycarbonyl)-1,3-dithiole-2-ylidene)-1-(2-pyridyl)-1-nitroso-methane
_symmetry_cell_setting           monoclinic
_symmetry_space_group_name_H-M   'P 21/c'
_symmetry_Int_Tables_number      14
_space_group_name_Hall           '-P 2ybc'
loop_
_symmetry_equiv_pos_site_id
_symmetry_equiv_pos_as_xyz
1 x,y,z
2 -x,1/2+y,1/2-z
3 -x,-y,-z
4 x,1/2-y,1/2+z
_cell_length_a                   22.551(9)
_cell_length_b                   9.512(4)
_cell_length_c                   13.669(6)
_cell_angle_alpha                90
_cell_angle_beta                 107.53(1)
_cell_angle_gamma                90
_cell_volume                     2795.9
_exptl_crystal_colour            green
_chemical_melting_point          214-215deg.C
_cell_formula_units_Z            8
loop_
_atom_site_label
_atom_site_type_symbol
_atom_site_fract_x
_atom_site_fract_y
_atom_site_fract_z
S1 S 0.27564(5) 0.5894(1) 0.26092(9)
S2 S 0.32185(4) 0.3018(1) 0.27321(8)
O1 O 0.1660(1) 0.5878(3) 0.1991(3)
O2 O 0.3621(1) 0.8079(3) 0.2828(3)
O3 O 0.4469(1) 0.7003(3) 0.3812(3)
O4 O 0.4522(1) 0.2616(3) 0.3616(3)
O5 O 0.4814(1) 0.4524(3) 0.2933(3)
N1 N 0.1502(2) 0.4596(3) 0.1893(3)
N2 N 0.2243(2) 0.1233(3) 0.2236(3)
C1 C 0.2588(2) 0.4115(4) 0.2474(3)
C2 C 0.3566(2) 0.5669(4) 0.2967(3)
C3 C 0.3773(2) 0.4340(4) 0.3008(3)
C4 C 0.3950(2) 0.6965(4) 0.3256(3)
C5 C 0.4436(2) 0.3886(4) 0.3186(3)
C6 C 0.1975(2) 0.3670(4) 0.2159(3)
C7 C 0.1782(2) 0.2164(4) 0.2039(3)
C8 C 0.2092(2) -0.0147(4) 0.2132(4)
C9 C 0.1494(2) -0.0612(4) 0.1853(4)
C10 C 0.1014(2) 0.0354(4) 0.1648(4)
C11 C 0.1156(2) 0.1766(4) 0.1752(3)
C12 C 0.3920(2) 0.9431(4) 0.3065(5)
C13 C 0.5142(2) 0.2025(5) 0.3803(4)
H1 H 0.2410(2) -0.0805(4) 0.2256(4)
H2 H 0.1404(2) -0.1565(4) 0.1782(4)
H3 H 0.0603(2) 0.0064(4) 0.1458(4)
H4 H 0.0843(2) 0.2437(4) 0.1624(3)
H5 H 0.3646(8) 1.0150(6) 0.2697(25)
H6 H 0.4293(11) 0.9436(16) 0.2869(31)
H7 H 0.4120(18) 0.9604(20) 0.3786(6)
H8 H 0.5194(7) 0.1710(38) 0.3169(6)
H9 H 0.5194(7) 0.1247(27) 0.4265(24)
H10 H 0.5447(2) 0.2730(13) 0.4098(28)
S3 S 0.77672(4) 0.2370(1) 0.52390(9)
S4 S 0.82395(4) -0.0503(1) 0.54794(8)
O6 O 0.6675(1) 0.2329(3) 0.4801(3)
O7 O 0.8626(1) 0.4566(3) 0.5866(2)
O8 O 0.9475(1) 0.3515(3) 0.5699(3)
O9 O 0.9536(1) -0.0849(3) 0.5782(3)
O10 O 0.9832(1) 0.0972(3) 0.6857(3)
N3 N 0.6518(2) 0.1023(4) 0.4715(3)
N4 N 0.7285(1) -0.2318(4) 0.4992(3)
C14 C 0.7606(2) 0.0599(4) 0.5182(3)
C15 C 0.8573(2) 0.2164(4) 0.5626(3)
C16 C 0.8785(2) 0.0832(4) 0.5757(3)
C17 C 0.8953(2) 0.3472(4) 0.5746(3)
C18 C 0.9450(2) 0.0364(4) 0.6194(3)
C19 C 0.6988(2) 0.0108(4) 0.4904(3)
C20 C 0.6818(2) -0.1394(4) 0.4795(3)
C21 C 0.7145(2) -0.3688(4) 0.4879(3)
C22 C 0.6541(2) -0.4181(4) 0.4578(4)
C23 C 0.6069(2) -0.3235(4) 0.4387(3)
C24 C 0.6189(2) -0.1812(4) 0.4491(3)
C25 C 0.8928(2) 0.5921(4) 0.5982(4)
C26 C 1.0149(2) -0.1474(5) 0.6191(4)
H11 H 0.7464(2) -0.4343(4) 0.5007(3)
H12 H 0.6465(2) -0.5142(4) 0.4519(4)
H13 H 0.5663(2) -0.3563(4) 0.4185(3)
H14 H 0.5871(2) -0.1153(4) 0.4356(3)
H15 H 0.9259(11) 0.5944(14) 0.6615(13)
H16 H 0.8633(4) 0.6643(5) 0.5984(28)
H17 H 0.9094(14) 0.6073(16) 0.5424(15)
H18 H 1.0188(6) -0.2253(22) 0.5772(15)
H19 H 1.0202(6) -0.1794(31) 0.6876(10)
H20 H 1.0460(2) -0.0786(11) 0.6197(23)
loop_
_geom_bond_atom_site_label_1
_geom_bond_atom_site_label_2
_geom_bond_site_symmetry_1
_geom_bond_site_symmetry_2
S1 C1 1_555 1_555
S2 C1 1_555 1_555
O1 N1 1_555 1_555
O2 C4 1_555 1_555
O3 C4 1_555 1_555
O4 C5 1_555 1_555
O5 C5 1_555 1_555
N1 C6 1_555 1_555
N2 C7 1_555 1_555
C1 C6 1_555 1_555
C2 S1 1_555 1_555
C3 S2 1_555 1_555
C4 C2 1_555 1_555
C5 C3 1_555 1_555
C6 C7 1_555 1_555
C7 C11 1_555 1_555
C8 N2 1_555 1_555
C9 C8 1_555 1_555
C10 C9 1_555 1_555
C11 C10 1_555 1_555
C12 O2 1_555 1_555
C13 O4 1_555 1_555
S3 C14 1_555 1_555
S4 C14 1_555 1_555
O6 N3 1_555 1_555
O7 C17 1_555 1_555
O8 C17 1_555 1_555
O9 C18 1_555 1_555
O10 C18 1_555 1_555
N3 C19 1_555 1_555
N4 C20 1_555 1_555
C14 C19 1_555 1_555
C15 S3 1_555 1_555
C16 S4 1_555 1_555
C17 C15 1_555 1_555
C18 C16 1_555 1_555
C19 C20 1_555 1_555
C20 C24 1_555 1_555
C21 N4 1_555 1_555
C22 C21 1_555 1_555
C23 C22 1_555 1_555
C24 C23 1_555 1_555
C25 O7 1_555 1_555
C26 O9 1_555 1_555
H1 C8 1_555 1_555
H2 C9 1_555 1_555
H3 C10 1_555 1_555
H4 C11 1_555 1_555
H5 C12 1_555 1_555
H6 C12 1_555 1_555
H7 C12 1_555 1_555
H8 C13 1_555 1_555
H9 C13 1_555 1_555
H10 C13 1_555 1_555
H11 C21 1_555 1_555
H12 C22 1_555 1_555
H13 C23 1_555 1_555
H14 C24 1_555 1_555
H15 C25 1_555 1_555
H16 C25 1_555 1_555
H17 C25 1_555 1_555
H18 C26 1_555 1_555
H19 C26 1_555 1_555
H20 C26 1_555 1_555
C2 C3 1_555 1_555
C15 C16 1_555 1_555

#END
