
#######################################################################
#
#                 Cambridge Crystallographic Data Centre
#                                CCDC 
#
#######################################################################
#
# If this CIF has been generated from an entry in the Cambridge 
# Structural Database, then it will include bibliographic, chemical, 
# crystal, experimental, refinement or atomic coordinate data resulting 
# from the CCDC's data processing and validation procedures.
#
#######################################################################

data_REVNEO
_chemical_formula_moiety         'C18 H16 O4 S1'
_chemical_name_systematic        
2-ethyl-3-((4-methylphenyl)sulfonyl)-4H-1-benzopyran-4-one
_symmetry_cell_setting           triclinic
_symmetry_space_group_name_H-M   'P -1'
_symmetry_Int_Tables_number      2
_space_group_name_Hall           '-P 1'
loop_
_symmetry_equiv_pos_site_id
_symmetry_equiv_pos_as_xyz
1 x,y,z
2 -x,-y,-z
_cell_length_a                   8.922(2)
_cell_length_b                   10.140(2)
_cell_length_c                   10.581(2)
_cell_angle_alpha                95.636(5)
_cell_angle_beta                 113.616(4)
_cell_angle_gamma                113.126(4)
_cell_volume                     768.616
_exptl_crystal_colour            colorless
_cell_formula_units_Z            2
loop_
_atom_site_label
_atom_site_type_symbol
_atom_site_fract_x
_atom_site_fract_y
_atom_site_fract_z
S1 S 1.11038(5) 0.62190(4) 0.77426(4)
O1 O 1.26308(15) 0.68905(13) 0.74537(13)
O2 O 1.05104(16) 0.84341(13) 0.62288(13)
O3 O 0.60017(15) 0.42976(13) 0.43142(12)
O4 O 1.07809(16) 0.48489(13) 0.81306(12)
C1 C 0.4705(2) 0.5869(2) 0.13898(19)
H1 H 0.3719 0.5565 0.0436
C2 C 0.4665(2) 0.4861(2) 0.21684(19)
H2 H 0.3657 0.3867 0.1768
C3 C 0.6138(2) 0.53292(19) 0.35584(18)
C4 C 0.7643(2) 0.67648(19) 0.41567(18)
C5 C 0.9209(2) 0.71603(18) 0.55951(18)
C6 C 0.9061(2) 0.58896(18) 0.61894(17)
C7 C 1.1372(2) 0.75455(18) 0.91327(17)
C8 C 1.0337(2) 0.70472(18) 0.98375(18)
H3 H 0.9516 0.6007 0.9588
C9 C 1.0517(2) 0.80922(19) 1.09137(18)
H4 H 0.9793 0.7764 1.1387
C10 C 1.1750(2) 0.96196(19) 1.13092(18)
C11 C 1.1902(2) 1.0742(2) 1.24557(19)
H5 H 1.3203 1.1514 1.3052
H6 H 1.1456 1.0227 1.3068
H7 H 1.1147 1.1216 1.1995
C12 C 0.7455(2) 0.45564(19) 0.55906(17)
C13 C 0.6920(2) 0.32138(18) 0.61097(18)
H8 H 0.5602 0.2807 0.5877
H9 H 0.7682 0.3528 0.7175
C14 C 0.7179(3) 0.1974(2) 0.5429(2)
H10 H 0.6568 0.1755 0.4375
H11 H 0.6628 0.1063 0.5679
H12 H 0.8508 0.2309 0.5798
C15 C 0.6181(3) 0.7341(2) 0.1984(2)
H13 H 0.6179 0.8033 0.1441
C16 C 0.7637(2) 0.7782(2) 0.3358(2)
H14 H 0.8637 0.8780 0.3761
C17 C 1.2615(2) 0.90624(19) 0.95078(19)
H15 H 1.3316 0.9391 0.9017
C18 C 1.2812(2) 1.00840(19) 1.06108(19)
H16 H 1.3684 1.1116 1.0895
loop_
_geom_bond_atom_site_label_1
_geom_bond_atom_site_label_2
_geom_bond_site_symmetry_1
_geom_bond_site_symmetry_2
S1 O1 1_555 1_555
O2 C5 1_555 1_555
O3 C3 1_555 1_555
O4 S1 1_555 1_555
C1 H1 1_555 1_555
C2 C1 1_555 1_555
H2 C2 1_555 1_555
C3 C2 1_555 1_555
C4 C3 1_555 1_555
C5 C4 1_555 1_555
C6 S1 1_555 1_555
C7 S1 1_555 1_555
C8 C7 1_555 1_555
H3 C8 1_555 1_555
C9 C8 1_555 1_555
H4 C9 1_555 1_555
C10 C9 1_555 1_555
C11 C10 1_555 1_555
H5 C11 1_555 1_555
H6 C11 1_555 1_555
H7 C11 1_555 1_555
C12 O3 1_555 1_555
C13 C12 1_555 1_555
H8 C13 1_555 1_555
H9 C13 1_555 1_555
C14 C13 1_555 1_555
H10 C14 1_555 1_555
H11 C14 1_555 1_555
H12 C14 1_555 1_555
C15 C1 1_555 1_555
H13 C15 1_555 1_555
C16 C4 1_555 1_555
H14 C16 1_555 1_555
C17 C7 1_555 1_555
H15 C17 1_555 1_555
C18 C10 1_555 1_555
H16 C18 1_555 1_555
C5 C6 1_555 1_555
C6 C12 1_555 1_555
C15 C16 1_555 1_555
C17 C18 1_555 1_555

#END
