
#######################################################################
#
#                 Cambridge Crystallographic Data Centre
#                                CCDC 
#
#######################################################################
#
# If this CIF has been generated from an entry in the Cambridge 
# Structural Database, then it will include bibliographic, chemical, 
# crystal, experimental, refinement or atomic coordinate data resulting 
# from the CCDC's data processing and validation procedures.
#
#######################################################################

data_REVPAJ
_chemical_formula_moiety         'C10 H9 N1 O6 S2'
_chemical_name_systematic        
1-(4,5-bis(Methoxycarbonyl)-1,3-dithiol-2-ylidene)-1-nitrosopropan-2-one
_symmetry_cell_setting           monoclinic
_symmetry_space_group_name_H-M   'P 21/c'
_symmetry_Int_Tables_number      14
_space_group_name_Hall           '-P 2ybc'
loop_
_symmetry_equiv_pos_site_id
_symmetry_equiv_pos_as_xyz
1 x,y,z
2 -x,1/2+y,1/2-z
3 -x,-y,-z
4 x,1/2-y,1/2+z
_cell_length_a                   7.452(1)
_cell_length_b                   15.911(3)
_cell_length_c                   11.330(2)
_cell_angle_alpha                90
_cell_angle_beta                 107.75
_cell_angle_gamma                90
_cell_volume                     1279.43
_exptl_crystal_colour            green
_chemical_melting_point          118-118.5deg.C
_cell_formula_units_Z            4
loop_
_atom_site_label
_atom_site_type_symbol
_atom_site_fract_x
_atom_site_fract_y
_atom_site_fract_z
S1 S 0.21945(8) 0.56580(3) 0.06985(5)
S2 S 0.29001(9) 0.42192(3) 0.23435(5)
O1 O 0.2354(3) 0.5193(1) -0.1312(2)
O2 O 0.3528(3) 0.2900(1) 0.1157(2)
O3 O 0.2048(3) 0.7240(1) 0.1745(2)
O4 O 0.1119(3) 0.6875(1) 0.3357(2)
O5 O 0.1970(2) 0.4462(1) 0.4612(1)
O6 O 0.3537(3) 0.5682(1) 0.5043(1)
N1 N 0.2780(3) 0.4422(1) -0.1186(2)
C1 C 0.2696(3) 0.4612(1) 0.0908(2)
C2 C 0.2168(3) 0.5836(1) 0.2213(2)
C3 C 0.2511(3) 0.5163(1) 0.2972(2)
C4 C 0.1712(3) 0.6704(1) 0.2532(2)
C5 C 0.2721(3) 0.5154(1) 0.4329(2)
C6 C 0.2941(3) 0.4102(1) -0.0049(2)
C7 C 0.3420(3) 0.3210(1) 0.0159(2)
C8 C 0.3792(4) 0.2704(2) -0.0857(2)
C9 C 0.1697(5) 0.8122(2) 0.1923(3)
C10 C 0.2257(4) 0.4310(2) 0.5931(2)
H1 H 0.4897(24) 0.2916(12) -0.1023(18)
H2 H 0.2732(17) 0.2746(15) -0.1592(8)
H3 H 0.3986(41) 0.2126(4) -0.0606(11)
H4 H 0.1952(34) 0.8450(2) 0.1281(14)
H5 H 0.2504(25) 0.8304(4) 0.2715(10)
H6 H 0.0405(10) 0.8196(3) 0.1892(23)
H7 H 0.3559(7) 0.4182(12) 0.6335(4)
H8 H 0.1491(22) 0.3844(8) 0.6024(2)
H9 H 0.1908(27) 0.4803(5) 0.6298(4)
loop_
_geom_bond_atom_site_label_1
_geom_bond_atom_site_label_2
_geom_bond_site_symmetry_1
_geom_bond_site_symmetry_2
S1 C1 1_555 1_555
S2 C1 1_555 1_555
O1 N1 1_555 1_555
O2 C7 1_555 1_555
O3 C4 1_555 1_555
O4 C4 1_555 1_555
O5 C5 1_555 1_555
O6 C5 1_555 1_555
N1 C6 1_555 1_555
C1 C6 1_555 1_555
C2 S1 1_555 1_555
C3 S2 1_555 1_555
C4 C2 1_555 1_555
C5 C3 1_555 1_555
C6 C7 1_555 1_555
C7 C8 1_555 1_555
C8 H1 1_555 1_555
C9 O3 1_555 1_555
C10 O5 1_555 1_555
H2 C8 1_555 1_555
H3 C8 1_555 1_555
H4 C9 1_555 1_555
H5 C9 1_555 1_555
H6 C9 1_555 1_555
H7 C10 1_555 1_555
H8 C10 1_555 1_555
H9 C10 1_555 1_555
C2 C3 1_555 1_555

#END
