
#######################################################################
#
#                 Cambridge Crystallographic Data Centre
#                                CCDC 
#
#######################################################################
#
# If this CIF has been generated from an entry in the Cambridge 
# Structural Database, then it will include bibliographic, chemical, 
# crystal, experimental, refinement or atomic coordinate data resulting 
# from the CCDC's data processing and validation procedures.
#
#######################################################################

data_REVPEQ
_chemical_formula_moiety         'C17 H12 F2 O4 S1'
_chemical_name_systematic        
6,8-difluoro-2-methyl-3-((4-methylphenyl)sulfonyl)-4H-1-benzopyran-4-one
_symmetry_cell_setting           triclinic
_symmetry_space_group_name_H-M   'P -1'
_symmetry_Int_Tables_number      2
_space_group_name_Hall           '-P 1'
loop_
_symmetry_equiv_pos_site_id
_symmetry_equiv_pos_as_xyz
1 x,y,z
2 -x,-y,-z
_cell_length_a                   10.374(3)
_cell_length_b                   11.581(3)
_cell_length_c                   19.365(5)
_cell_angle_alpha                89.312(6)
_cell_angle_beta                 79.036(6)
_cell_angle_gamma                81.936(7)
_cell_volume                     2261.23
_exptl_crystal_colour            colorless
_cell_formula_units_Z            6
loop_
_atom_site_label
_atom_site_type_symbol
_atom_site_fract_x
_atom_site_fract_y
_atom_site_fract_z
C1 C 0.1822(2) 0.84031(18) 0.56141(11)
C2 C 0.0818(2) 0.85041(19) 0.52263(12)
H1 H 0.0739 0.9119 0.4901
C3 C -0.0071(2) 0.7699(2) 0.53166(12)
H2 H -0.0766 0.7770 0.5056
C4 C 0.0050(2) 0.6788(2) 0.57872(13)
C5 C 0.1037(2) 0.6724(2) 0.61856(13)
H3 H 0.1106 0.6117 0.6517
C6 C 0.1924(2) 0.75302(19) 0.61086(12)
H4 H 0.2588 0.7487 0.6388
C7 C -0.0877(3) 0.5878(2) 0.58600(15)
H5 H -0.0422 0.5136 0.5997
H6 H -0.1148 0.5775 0.5409
H7 H -0.1663 0.6134 0.6221
C8 C 0.4276(2) 0.86518(18) 0.47726(11)
C9 C 0.4021(2) 0.87917(18) 0.40547(12)
C10 C 0.5141(3) 0.82933(19) 0.35027(12)
C11 C 0.5083(3) 0.8430(2) 0.27875(12)
H8 H 0.4330 0.8857 0.2644
C12 C 0.6141(3) 0.7928(2) 0.23069(13)
C13 C 0.7246(3) 0.7290(2) 0.24839(14)
H9 H 0.7961 0.6948 0.2132
C14 C 0.7284(3) 0.7162(2) 0.31852(15)
C15 C 0.6234(3) 0.76680(19) 0.36963(13)
C16 C 0.5384(2) 0.79861(19) 0.49115(12)
C17 C 0.5777(3) 0.7667(2) 0.55908(13)
H10 H 0.6420 0.6953 0.5529
H11 H 0.4993 0.7536 0.5937
H12 H 0.6181 0.8301 0.5757
F1 F 0.61306(18) 0.80463(15) 0.16086(8)
F2 F 0.83360(16) 0.65512(14) 0.33952(9)
O1 O 0.24700(17) 1.04357(13) 0.52018(8)
O2 O 0.36044(17) 0.93919(14) 0.60787(8)
O3 O 0.29794(17) 0.92534(15) 0.39081(8)
O4 O 0.63390(16) 0.74732(13) 0.43861(9)
S1 S 0.30278(6) 0.93552(5) 0.54627(3)
C18 C 0.8148(2) 0.80608(18) 0.76732(11)
C19 C 0.8115(2) 0.89180(19) 0.71665(12)
H13 H 0.7490 0.8957 0.6864
C20 C 0.9004(2) 0.9712(2) 0.71095(12)
H14 H 0.8975 1.0307 0.6769
C21 C 0.9941(2) 0.9659(2) 0.75395(12)
C22 C 0.9989(2) 0.8770(2) 0.80284(12)
H15 H 1.0643 0.8708 0.8315
C23 C 0.9092(2) 0.7972(2) 0.81013(12)
H16 H 0.9122 0.7373 0.8440
C24 C 1.0870(3) 1.0559(2) 0.74822(15)
H17 H 1.1578 1.0382 0.7069
H18 H 1.1258 1.0547 0.7906
H19 H 1.0378 1.1333 0.7434
C25 C 0.5609(2) 0.78969(18) 0.83985(11)
C26 C 0.5759(3) 0.79141(19) 0.91373(12)
C27 C 0.4614(3) 0.85703(19) 0.96091(12)
C28 C 0.4588(3) 0.8633(2) 1.03335(13)
H20 H 0.5283 0.8231 1.0538
C29 C 0.3516(3) 0.9301(2) 1.07366(13)
C30 C 0.2477(3) 0.9897(2) 1.04618(15)
H21 H 0.1753 1.0352 1.0758
C31 C 0.2522(3) 0.9814(2) 0.97656(15)
C32 C 0.3586(3) 0.91521(19) 0.93252(13)
C33 C 0.4544(3) 0.85058(19) 0.81766(13)
C34 C 0.4215(3) 0.8607(2) 0.74622(13)
H22 H 0.3892 0.7893 0.7343
H23 H 0.5010 0.8720 0.7118
H24 H 0.3525 0.9276 0.7454
F3 F 0.34746(19) 0.93869(16) 1.14359(8)
F4 F 0.15331(16) 1.03664(14) 0.94729(10)
O5 O 0.64991(17) 0.70165(14) 0.71350(8)
O6 O 0.74130(17) 0.60714(13) 0.81148(9)
O7 O 0.35601(17) 0.91474(13) 0.86293(9)
O8 O 0.67423(19) 0.74584(15) 0.93532(8)
S2 S 0.69374(6) 0.71213(5) 0.77918(3)
C35 C 0.1707(2) 0.50065(19) 0.90009(12)
C36 C 0.1754(3) 0.4152(2) 0.95135(13)
H25 H 0.2385 0.4116 0.9813
C37 C 0.0862(3) 0.3362(2) 0.95750(14)
H26 H 0.0895 0.2767 0.9916
C38 C -0.0082(3) 0.3413(2) 0.91520(15)
C39 C -0.0145(3) 0.4297(2) 0.86632(14)
H27 H -0.0809 0.4357 0.8383
C40 C 0.0754(2) 0.5092(2) 0.85818(13)
H28 H 0.0718 0.5689 0.8242
C41 C -0.1013(3) 0.2509(2) 0.92119(18)
H29 H -0.0538 0.1746 0.9301
H30 H -0.1343 0.2471 0.8772
H31 H -0.1761 0.2723 0.9601
C42 C 0.5279(2) 0.45322(19) 0.83900(13)
C43 C 0.4202(2) 0.51857(18) 0.82133(11)
C44 C 0.4000(3) 0.52528(19) 0.74805(12)
C45 C 0.5146(3) 0.46991(19) 0.69642(12)
C46 C 0.5149(3) 0.4790(2) 0.62425(13)
H32 H 0.4419 0.5200 0.6071
C47 C 0.6250(3) 0.4261(2) 0.57954(13)
C48 C 0.7324(3) 0.3647(2) 0.60126(15)
H33 H 0.8068 0.3293 0.5682
C49 C 0.7295(3) 0.3559(2) 0.67214(15)
C50 C 0.6206(3) 0.40916(19) 0.72020(13)
C51 C 0.5637(3) 0.4307(2) 0.90937(13)
H34 H 0.6278 0.3594 0.9070
H35 H 0.4838 0.4212 0.9439
H36 H 0.6030 0.4967 0.9235
F5 F 0.6298(2) 0.43432(15) 0.50908(8)
F6 F 0.83148(16) 0.29649(14) 0.69661(10)
O9 O 0.24168(17) 0.70052(13) 0.85701(8)
O10 O 0.34420(17) 0.60096(14) 0.94976(8)
O11 O 0.29884(18) 0.57145(15) 0.73002(8)
O12 O 0.62491(17) 0.39548(13) 0.78987(9)
S3 S 0.29293(6) 0.59391(5) 0.88636(3)
loop_
_geom_bond_atom_site_label_1
_geom_bond_atom_site_label_2
_geom_bond_site_symmetry_1
_geom_bond_site_symmetry_2
C1 C2 1_555 1_555
C2 H1 1_555 1_555
C3 C2 1_555 1_555
H2 C3 1_555 1_555
C4 C3 1_555 1_555
C5 C4 1_555 1_555
H3 C5 1_555 1_555
C6 C1 1_555 1_555
H4 C6 1_555 1_555
C7 C4 1_555 1_555
H5 C7 1_555 1_555
H6 C7 1_555 1_555
H7 C7 1_555 1_555
C8 C9 1_555 1_555
C9 C10 1_555 1_555
C10 C11 1_555 1_555
C11 H8 1_555 1_555
C12 C11 1_555 1_555
C13 C12 1_555 1_555
H9 C13 1_555 1_555
C14 C13 1_555 1_555
C15 C10 1_555 1_555
C16 C8 1_555 1_555
C17 C16 1_555 1_555
H10 C17 1_555 1_555
H11 C17 1_555 1_555
H12 C17 1_555 1_555
F1 C12 1_555 1_555
F2 C14 1_555 1_555
O1 S1 1_555 1_555
O2 S1 1_555 1_555
O3 C9 1_555 1_555
O4 C15 1_555 1_555
S1 C1 1_555 1_555
C18 C19 1_555 1_555
C19 H13 1_555 1_555
C20 C19 1_555 1_555
H14 C20 1_555 1_555
C21 C20 1_555 1_555
C22 C21 1_555 1_555
H15 C22 1_555 1_555
C23 C18 1_555 1_555
H16 C23 1_555 1_555
C24 C21 1_555 1_555
H17 C24 1_555 1_555
H18 C24 1_555 1_555
H19 C24 1_555 1_555
C25 C26 1_555 1_555
C26 C27 1_555 1_555
C27 C28 1_555 1_555
C28 H20 1_555 1_555
C29 C28 1_555 1_555
C30 C29 1_555 1_555
H21 C30 1_555 1_555
C31 C30 1_555 1_555
C32 C27 1_555 1_555
C33 C25 1_555 1_555
C34 C33 1_555 1_555
H22 C34 1_555 1_555
H23 C34 1_555 1_555
H24 C34 1_555 1_555
F3 C29 1_555 1_555
F4 C31 1_555 1_555
O5 S2 1_555 1_555
O6 S2 1_555 1_555
O7 C32 1_555 1_555
O8 C26 1_555 1_555
S2 C18 1_555 1_555
C35 C36 1_555 1_555
C36 H25 1_555 1_555
C37 C36 1_555 1_555
H26 C37 1_555 1_555
C38 C37 1_555 1_555
C39 C38 1_555 1_555
H27 C39 1_555 1_555
C40 C35 1_555 1_555
H28 C40 1_555 1_555
C41 C38 1_555 1_555
H29 C41 1_555 1_555
H30 C41 1_555 1_555
H31 C41 1_555 1_555
C42 C43 1_555 1_555
C43 C44 1_555 1_555
C44 C45 1_555 1_555
C45 C46 1_555 1_555
C46 H32 1_555 1_555
C47 C46 1_555 1_555
C48 C47 1_555 1_555
H33 C48 1_555 1_555
C49 C48 1_555 1_555
C50 C45 1_555 1_555
C51 C42 1_555 1_555
H34 C51 1_555 1_555
H35 C51 1_555 1_555
H36 C51 1_555 1_555
F5 C47 1_555 1_555
F6 C49 1_555 1_555
O9 S3 1_555 1_555
O10 S3 1_555 1_555
O11 C44 1_555 1_555
O12 C42 1_555 1_555
S3 C35 1_555 1_555
C5 C6 1_555 1_555
C8 S1 1_555 1_555
C14 C15 1_555 1_555
C16 O4 1_555 1_555
C22 C23 1_555 1_555
C25 S2 1_555 1_555
C31 C32 1_555 1_555
C33 O7 1_555 1_555
C39 C40 1_555 1_555
C43 S3 1_555 1_555
C49 C50 1_555 1_555
C50 O12 1_555 1_555

#END
