
#######################################################################
#
#                 Cambridge Crystallographic Data Centre
#                                CCDC 
#
#######################################################################
#
# If this CIF has been generated from an entry in the Cambridge 
# Structural Database, then it will include bibliographic, chemical, 
# crystal, experimental, refinement or atomic coordinate data resulting 
# from the CCDC's data processing and validation procedures.
#
#######################################################################

data_REVQAM
_chemical_formula_moiety         'C6 Br2 F4,1.5(C14 H10)'
_chemical_name_systematic        
'1,4-Dibromo-2,3,5,6-tetrafluorobenzene sesquikis(phenanthrene)'
_symmetry_cell_setting           triclinic
_symmetry_space_group_name_H-M   'P -1'
_symmetry_Int_Tables_number      2
_space_group_name_Hall           '-P 1'
loop_
_symmetry_equiv_pos_site_id
_symmetry_equiv_pos_as_xyz
1 x,y,z
2 -x,-y,-z
_cell_length_a                   6.9513(10)
_cell_length_b                   8.9349(13)
_cell_length_c                   17.922(2)
_cell_angle_alpha                83.047(2)
_cell_angle_beta                 84.916(2)
_cell_angle_gamma                79.039(2)
_cell_volume                     1082.32
_chemical_melting_point          '61-63 deg.C'
_cell_formula_units_Z            2
loop_
_atom_site_label
_atom_site_type_symbol
_atom_site_fract_x
_atom_site_fract_y
_atom_site_fract_z
Br1 Br 0.99040(4) 0.21908(4) 0.012102(16)
Br2 Br 0.76951(5) 0.24094(4) 0.372573(16)
C1 C 0.9380(4) 0.2289(3) 0.11571(15)
C2 C 0.9815(4) 0.0987(3) 0.16605(16)
C3 C 0.9342(4) 0.1039(3) 0.24188(16)
C4 C 0.8424(4) 0.2376(3) 0.26990(16)
C5 C 0.8006(4) 0.3690(3) 0.21998(16)
C6 C 0.8494(4) 0.3643(3) 0.14396(15)
F1 F 1.0699(2) -0.03519(19) 0.14096(9)
F2 F 0.9787(3) -0.02522(19) 0.28889(10)
F3 F 0.7126(2) 0.50150(19) 0.24460(9)
F4 F 0.8081(2) 0.49315(18) 0.09708(9)
C7 C 0.4329(4) 0.1536(3) 0.19747(16)
C8 C 0.4692(4) 0.0218(3) 0.24922(17)
H1 H 0.4329 0.0292 0.3012
C9 C 0.5558(5) -0.1168(4) 0.22592(18)
H2 H 0.5766 -0.2047 0.2618
C10 C 0.6146(4) -0.1315(4) 0.14958(18)
H3 H 0.6761 -0.2280 0.1340
C11 C 0.5820(4) -0.0047(4) 0.09826(17)
H4 H 0.6215 -0.0140 0.0466
C12 C 0.4910(4) 0.1396(3) 0.12040(16)
C13 C 0.4547(4) 0.2714(4) 0.06617(17)
H5 H 0.4920 0.2609 0.0145
C14 C 0.3692(4) 0.4098(4) 0.08664(16)
H6 H 0.3474 0.4949 0.0492
C15 C 0.3106(4) 0.4312(3) 0.16329(17)
C16 C 0.2202(5) 0.5758(4) 0.18484(19)
H7 H 0.2010 0.6613 0.1475
C17 C 0.1595(5) 0.5964(4) 0.2580(2)
H8 H 0.0973 0.6947 0.2712
C18 C 0.1896(5) 0.4715(4) 0.31312(19)
H9 H 0.1481 0.4854 0.3642
C19 C 0.2782(4) 0.3289(4) 0.29473(17)
H10 H 0.2978 0.2455 0.3332
C20 C 0.3405(4) 0.3046(3) 0.21969(16)
C21? C 0.4483(7) 0.9424(4) 0.4769(2)
C22? C 0.2833(5) 0.9166(5) 0.4455(3)
H11? H 0.1670 0.9922 0.4450
C23? C 0.2884(6) 0.7800(5) 0.4149(3)
H12? H 0.1757 0.7624 0.3934
C24? C 0.4586(7) 0.6694(4) 0.4157(3)
H13? H 0.4622 0.5761 0.3948
C25? C 0.6236(6) 0.6952(4) 0.4471(3)
H14? H 0.7399 0.6196 0.4476
C26? C 0.6184(5) 0.8318(5) 0.4777(2)
C27? C 0.4363(8) 1.0914(5) 0.5102(3)
C28? C 0.7821(8) 0.8572(7) 0.5110(3)
H15? H 0.8982 0.7814 0.5108
C29? C 0.7799(10) 0.9897(7) 0.5442(3)
H16? H 0.8917 1.0033 0.5677
C30? C 0.6046(6) 1.1076(5) 0.5426(3)
C31? C 0.6091(6) 1.2406(6) 0.5749(3)
H17? H 0.7241 1.2517 0.5971
C32? C 0.4454(8) 1.3574(5) 0.5748(3)
H18? H 0.4485 1.4482 0.5969
C33? C 0.2771(6) 1.3411(5) 0.5424(3)
H19? H 0.1652 1.4209 0.5423
C34? C 0.2726(6) 1.2082(6) 0.5101(3)
H20? H 0.1576 1.1971 0.4879
loop_
_geom_bond_atom_site_label_1
_geom_bond_atom_site_label_2
_geom_bond_site_symmetry_1
_geom_bond_site_symmetry_2
Br1 C1 1_555 1_555
Br2 C4 1_555 1_555
C1 C2 1_555 1_555
C2 C3 1_555 1_555
C3 C4 1_555 1_555
C4 C5 1_555 1_555
C5 C6 1_555 1_555
C6 C1 1_555 1_555
F1 C2 1_555 1_555
F2 C3 1_555 1_555
F3 C5 1_555 1_555
F4 C6 1_555 1_555
C7 C8 1_555 1_555
C8 H1 1_555 1_555
C9 C8 1_555 1_555
H2 C9 1_555 1_555
C10 C9 1_555 1_555
H3 C10 1_555 1_555
C11 C10 1_555 1_555
H4 C11 1_555 1_555
C12 C7 1_555 1_555
C13 C12 1_555 1_555
H5 C13 1_555 1_555
C14 C13 1_555 1_555
H6 C14 1_555 1_555
C15 C14 1_555 1_555
C16 C15 1_555 1_555
H7 C16 1_555 1_555
C17 C16 1_555 1_555
H8 C17 1_555 1_555
C18 C17 1_555 1_555
H9 C18 1_555 1_555
C19 C18 1_555 1_555
H10 C19 1_555 1_555
C20 C7 1_555 1_555
C11 C12 1_555 1_555
C15 C20 1_555 1_555
C19 C20 1_555 1_555

#END
