
#######################################################################
#
#                 Cambridge Crystallographic Data Centre
#                                CCDC 
#
#######################################################################
#
# If this CIF has been generated from an entry in the Cambridge 
# Structural Database, then it will include bibliographic, chemical, 
# crystal, experimental, refinement or atomic coordinate data resulting 
# from the CCDC's data processing and validation procedures.
#
#######################################################################

data_REVSOC
_chemical_name_common            1,5-Dibenzyl-5-(2-cyanoethyl)pyrrolidin-2-one
_chemical_formula_moiety         'C21 H22 N2 O1'
_chemical_name_systematic        
3-(1,2-Dibenzyl-5-oxopyrrolidin-2-yl)propanenitrile
_symmetry_cell_setting           triclinic
_symmetry_space_group_name_H-M   'P 1'
_symmetry_Int_Tables_number      1
_space_group_name_Hall           'P 1'
loop_
_symmetry_equiv_pos_site_id
_symmetry_equiv_pos_as_xyz
1 x,y,z
_cell_length_a                   8.1178(14)
_cell_length_b                   10.3361(17)
_cell_length_c                   10.4462(12)
_cell_angle_alpha                95.777(12)
_cell_angle_beta                 98.145(12)
_cell_angle_gamma                92.874(14)
_cell_volume                     861.407
_chemical_melting_point          '164-165 deg.C'
_cell_formula_units_Z            2
loop_
_atom_site_label
_atom_site_type_symbol
_atom_site_fract_x
_atom_site_fract_y
_atom_site_fract_z
O1 O 0.2039(4) 0.6432(3) 0.9438(3)
N1 N 0.1647(4) 0.8525(3) 0.8974(3)
C1 C 0.3605(6) 1.1025(4) 1.2409(4)
H1 H 0.2822(6) 1.1632(4) 1.2541(4)
C2 C 0.5962(5) 0.9218(4) 1.2045(4)
H2 H 0.6745(5) 0.8610(4) 1.1917(4)
C3 C 0.5864(6) 0.9800(4) 1.3290(4)
H3 H 0.6580(6) 0.9583(4) 1.4001(4)
C4 C 0.3669(5) 1.0451(4) 1.1160(4)
C5 C 0.1555(5) 0.7515(4) 0.9708(3)
C6 C -0.0229(5) 1.0310(4) 0.8520(4)
H4 H -0.0731(5) 1.1029(4) 0.8957(4)
H5 H 0.0373(5) 1.0657(4) 0.7878(4)
N2 N -0.4177(5) 1.0386(4) 0.6668(4)
C7 C 0.0816(5) 0.7959(4) 1.0912(4)
H6 H -0.0076(5) 0.7345(4) 1.1037(4)
H7 H 0.1660(5) 0.8045(4) 1.1677(4)
C8 C 0.4872(5) 0.9555(4) 1.0990(4)
H8 H 0.4950(5) 0.9176(4) 1.0156(4)
C9 C 0.4688(6) 1.0708(5) 1.3462(4)
H9 H 0.4628(6) 1.1107(5) 1.4291(4)
C10 C 0.1018(5) 0.9734(4) 0.9524(4)
C11 C 0.1587(5) 0.8167(4) 0.6554(4)
C12 C 0.0146(5) 0.9280(4) 1.0659(4)
H10 H -0.1055(5) 0.9197(4) 1.0411(4)
H11 H 0.0417(5) 0.9900(4) 1.1431(4)
C13 C 0.2623(5) 0.8458(4) 0.7889(4)
H12 H 0.3262(5) 0.9283(4) 0.7923(4)
H13 H 0.3410(5) 0.7788(4) 0.8005(4)
C14 C 0.0722(5) 0.6970(4) 0.6180(4)
H14 H 0.0779(5) 0.6340(4) 0.6757(4)
C15 C -0.1624(5) 0.9316(4) 0.7816(4)
H15 H -0.1172(5) 0.8741(4) 0.7180(4)
H16 H -0.2011(5) 0.8788(4) 0.8445(4)
C16 C 0.2455(5) 1.0780(4) 1.0035(4)
H17 H 0.1973(5) 1.1588(4) 1.0295(4)
H18 H 0.3065(5) 1.0933(4) 0.9325(4)
C17 C -0.3032(5) 0.9929(4) 0.7165(4)
C18 C 0.0531(7) 0.8845(6) 0.4470(5)
H19 H 0.0454(7) 0.9477(6) 0.3894(5)
C19 C 0.1509(6) 0.9111(5) 0.5688(4)
H20 H 0.2104(6) 0.9912(5) 0.5920(4)
C20 C -0.0220(6) 0.6693(5) 0.4970(4)
H21 H -0.0783(6) 0.5880(5) 0.4722(4)
C21 C -0.0313(6) 0.7658(6) 0.4124(4)
H22 H -0.0962(6) 0.7489(6) 0.3310(4)
O2 O 0.7073(4) 0.7117(3) 0.9548(3)
N3 N 0.6366(4) 0.5021(3) 0.8646(3)
C22 C 0.4711(5) 0.4252(4) 1.0142(4)
H23 H 0.4864(5) 0.3634(4) 1.0783(4)
H24 H 0.3526(5) 0.4329(4) 0.9892(4)
C23 C 1.0415(5) 0.3822(4) 1.2707(4)
H25 H 1.1178(5) 0.4051(4) 1.3458(4)
C24 C 0.5587(5) 0.5578(4) 1.0687(4)
H26 H 0.4788(5) 0.6188(4) 1.0934(4)
H27 H 0.6406(5) 0.5496(4) 1.1442(4)
C25 C 1.0603(5) 0.4372(4) 1.1576(4)
H28 H 1.1494(5) 0.4972(4) 1.1569(4)
C26 C 0.5548(5) 0.3806(3) 0.8933(3)
C27 C 0.8100(5) 0.3146(4) 1.0452(4)
C28 C 0.7352(5) 0.5087(4) 0.7575(4)
H29 H 0.8240(5) 0.5767(4) 0.7834(4)
H30 H 0.7869(5) 0.4268(4) 0.7443(4)
C29 C 0.4252(5) 0.3196(4) 0.7789(4)
H31 H 0.4832(5) 0.2881(4) 0.7081(4)
H32 H 0.3674(5) 0.2449(4) 0.8059(4)
C30 C 0.9468(5) 0.4032(4) 1.0453(4)
H33 H 0.9615(5) 0.4394(4) 0.9695(4)
C31 C 0.9079(5) 0.2926(4) 1.2714(4)
H34 H 0.8944(5) 0.2555(4) 1.3471(4)
C32 C 0.2951(5) 0.4125(4) 0.7277(4)
H35 H 0.2702(5) 0.4714(4) 0.7999(4)
H36 H 0.3410(5) 0.4645(4) 0.6673(4)
C33 C 0.6421(5) 0.6025(4) 0.9588(3)
C34 C 0.7949(5) 0.2588(4) 1.1587(4)
H37 H 0.7073(5) 0.1974(4) 1.1593(4)
C35 C 0.6839(5) 0.2781(4) 0.9246(4)
H38 H 0.6239(5) 0.1969(4) 0.9341(4)
H39 H 0.7434(5) 0.2624(4) 0.8509(4)
N4 N 0.0215(6) 0.2833(5) 0.6141(5)
C36 C 0.5312(6) 0.4668(5) 0.4056(4)
H40 H 0.5199(6) 0.4044(5) 0.3337(4)
C37 C 0.6380(5) 0.5355(4) 0.6294(4)
C38 C 0.1408(5) 0.3411(4) 0.6622(4)
C39 C 0.6190(6) 0.4412(4) 0.5221(4)
H41 H 0.6655(6) 0.3613(4) 0.5293(4)
C40 C 0.4798(6) 0.6793(5) 0.4998(4)
H42 H 0.4344(6) 0.7594(5) 0.4918(4)
C41 C 0.5677(5) 0.6538(4) 0.6166(4)
H43 H 0.5799(5) 0.7170(4) 0.6878(4)
C42 C 0.4601(6) 0.5842(6) 0.3948(4)
H44 H 0.3984(6) 0.5996(6) 0.3164(4)
loop_
_geom_bond_atom_site_label_1
_geom_bond_atom_site_label_2
_geom_bond_site_symmetry_1
_geom_bond_site_symmetry_2
O1 C5 1_555 1_555
N1 C5 1_555 1_555
C1 H1 1_555 1_555
C2 H2 1_555 1_555
C3 C2 1_555 1_555
H3 C3 1_555 1_555
C4 C1 1_555 1_555
C5 C7 1_555 1_555
C6 H4 1_555 1_555
H5 C6 1_555 1_555
N2 C17 1_555 1_555
C7 H6 1_555 1_555
H7 C7 1_555 1_555
C8 C2 1_555 1_555
H8 C8 1_555 1_555
C9 C1 1_555 1_555
H9 C9 1_555 1_555
C10 N1 1_555 1_555
C11 C13 1_555 1_555
C12 C7 1_555 1_555
H10 C12 1_555 1_555
H11 C12 1_555 1_555
C13 N1 1_555 1_555
H12 C13 1_555 1_555
H13 C13 1_555 1_555
C14 C11 1_555 1_555
H14 C14 1_555 1_555
C15 C6 1_555 1_555
H15 C15 1_555 1_555
H16 C15 1_555 1_555
C16 C4 1_555 1_555
H17 C16 1_555 1_555
H18 C16 1_555 1_555
C17 C15 1_555 1_555
C18 H19 1_555 1_555
C19 C11 1_555 1_555
H20 C19 1_555 1_555
C20 C14 1_555 1_555
H21 C20 1_555 1_555
C21 C18 1_555 1_555
H22 C21 1_555 1_555
O2 C33 1_555 1_555
N3 C26 1_555 1_555
C22 H23 1_555 1_555
H24 C22 1_555 1_555
C23 H25 1_555 1_555
C24 C22 1_555 1_555
H26 C24 1_555 1_555
H27 C24 1_555 1_555
C25 C23 1_555 1_555
H28 C25 1_555 1_555
C26 C22 1_555 1_555
C27 C30 1_555 1_555
C28 N3 1_555 1_555
H29 C28 1_555 1_555
H30 C28 1_555 1_555
C29 C26 1_555 1_555
H31 C29 1_555 1_555
H32 C29 1_555 1_555
C30 C25 1_555 1_555
H33 C30 1_555 1_555
C31 C23 1_555 1_555
H34 C31 1_555 1_555
C32 C29 1_555 1_555
H35 C32 1_555 1_555
H36 C32 1_555 1_555
C33 N3 1_555 1_555
C34 C27 1_555 1_555
H37 C34 1_555 1_555
C35 C26 1_555 1_555
H38 C35 1_555 1_555
H39 C35 1_555 1_555
N4 C38 1_555 1_555
C36 H40 1_555 1_555
C37 C28 1_555 1_555
C38 C32 1_555 1_555
C39 C36 1_555 1_555
H41 C39 1_555 1_555
C40 H42 1_555 1_555
C41 C37 1_555 1_555
H43 C41 1_555 1_555
C42 C36 1_555 1_555
H44 C42 1_555 1_555
C3 C9 1_555 1_555
C4 C8 1_555 1_555
C6 C10 1_555 1_555
C10 C12 1_555 1_555
C10 C16 1_555 1_555
C18 C19 1_555 1_555
C20 C21 1_555 1_555
C24 C33 1_555 1_555
C27 C35 1_555 1_555
C31 C34 1_555 1_555
C37 C39 1_555 1_555
C40 C41 1_555 1_555
C40 C42 1_555 1_555

#END
