
#######################################################################
#
#                 Cambridge Crystallographic Data Centre
#                                CCDC 
#
#######################################################################
#
# If this CIF has been generated from an entry in the Cambridge 
# Structural Database, then it will include bibliographic, chemical, 
# crystal, experimental, refinement or atomic coordinate data resulting 
# from the CCDC's data processing and validation procedures.
#
#######################################################################

data_REVWUK
_chemical_formula_moiety         'C6 H6 N6 O2 S1'
_chemical_name_systematic        
2-(Nitrosomethylamino)imidazo(1,5-b)(1,2,4)thiadiazole-4-carboxamide
_symmetry_cell_setting           monoclinic
_symmetry_space_group_name_H-M   'P 21/n'
_symmetry_Int_Tables_number      14
_space_group_name_Hall           '-P 2yn'
loop_
_symmetry_equiv_pos_site_id
_symmetry_equiv_pos_as_xyz
1 x,y,z
2 1/2-x,1/2+y,1/2-z
3 -x,-y,-z
4 1/2+x,1/2-y,1/2+z
_cell_length_a                   7.522(7)
_cell_length_b                   9.121(2)
_cell_length_c                   13.383(7)
_cell_angle_alpha                90
_cell_angle_beta                 97.73(6)
_cell_angle_gamma                90
_cell_volume                     909.839
_chemical_melting_point          '145-150deg.C (dec)'
_cell_formula_units_Z            4
loop_
_atom_site_label
_atom_site_type_symbol
_atom_site_fract_x
_atom_site_fract_y
_atom_site_fract_z
N1 N 0.7846(4) 0.4737(3) 1.0432(2)
C1 C 0.7896(5) 0.3856(4) 0.9682(3)
S1 S 0.6983(1) 0.4419(1) 0.8479(1)
N2 N 0.6486(4) 0.6025(3) 0.9059(2)
C2 C 0.5685(6) 0.7352(4) 0.8822(3)
N3 N 0.5709(4) 0.8171(3) 0.9633(2)
C3 C 0.6571(5) 0.7365(4) 1.0426(2)
C4 C 0.7035(5) 0.6009(4) 1.0078(2)
C5 C 0.6887(5) 0.7904(4) 1.1462(2)
O1 O 0.7663(4) 0.7116(3) 1.2129(2)
N4 N 0.6346(6) 0.9273(4) 1.1614(3)
N5 N 0.8621(5) 0.2462(3) 0.9834(3)
C6 C 0.9381(8) 0.1976(5) 1.0826(4)
N6 N 0.8667(6) 0.1529(4) 0.9075(3)
O2 O 0.7994(5) 0.2020(4) 0.8259(3)
H1 H 0.8458(79) 0.1080(70) 1.1288(49)
H2 H 0.9810(88) 0.113(10) 1.0757(56)
H3 H 1.0268(74) 0.2585(68) 1.1169(45)
H4 H 0.5081(57) 0.7517(51) 0.8211(36)
H5 H 0.5787(64) 0.9711(50) 1.1088(40)
H6 H 0.6572(65) 0.9665(20) 1.2229(41)
loop_
_geom_bond_atom_site_label_1
_geom_bond_atom_site_label_2
_geom_bond_site_symmetry_1
_geom_bond_site_symmetry_2
N1 C1 1_555 1_555
C1 S1 1_555 1_555
S1 N2 1_555 1_555
N2 C2 1_555 1_555
C2 N3 1_555 1_555
N3 C3 1_555 1_555
C3 C4 1_555 1_555
C4 N1 1_555 1_555
C5 C3 1_555 1_555
O1 C5 1_555 1_555
N4 C5 1_555 1_555
N5 C1 1_555 1_555
C6 N5 1_555 1_555
N6 N5 1_555 1_555
O2 N6 1_555 1_555
H1 C6 1_555 1_555
H2 C6 1_555 1_555
H3 C6 1_555 1_555
H4 C2 1_555 1_555
H5 N4 1_555 1_555
H6 N4 1_555 1_555
N2 C4 1_555 1_555

#END
