
#######################################################################
#
#                 Cambridge Crystallographic Data Centre
#                                CCDC 
#
#######################################################################
#
# If this CIF has been generated from an entry in the Cambridge 
# Structural Database, then it will include bibliographic, chemical, 
# crystal, experimental, refinement or atomic coordinate data resulting 
# from the CCDC's data processing and validation procedures.
#
#######################################################################

data_REVWOH
_chemical_formula_moiety         'C35 H21 B2 F20 N1 O1,C1 H2 Cl2'
_chemical_name_systematic        
'[({[3-(2,6-dimethyl-2,3,4,5-tetrahydropyridin-1-ium-1-yl)propyl](pentafluorophenyl)boranyl}oxy)methyl][tris(pentafluorophenyl)]borate dichloromethane solvate'
_symmetry_cell_setting           monoclinic
_symmetry_space_group_name_H-M   'P 21/c'
_symmetry_Int_Tables_number      14
_space_group_name_Hall           '-P 2ybc'
loop_
_symmetry_equiv_pos_site_id
_symmetry_equiv_pos_as_xyz
1 x,y,z
2 -x,1/2+y,1/2-z
3 -x,-y,-z
4 x,1/2-y,1/2+z
_cell_length_a                   12.5201(1)
_cell_length_b                   12.2872(3)
_cell_length_c                   25.1183(6)
_cell_angle_alpha                90
_cell_angle_beta                 97.597(2)
_cell_angle_gamma                90
_cell_volume                     3830.21
_exptl_crystal_colour            colorless
_exptl_crystal_description       plate
_cell_formula_units_Z            4
loop_
_atom_site_label
_atom_site_type_symbol
_atom_site_fract_x
_atom_site_fract_y
_atom_site_fract_z
C1 C 0.8624(3) 0.2980(3) 0.31907(13)
H1 H 0.8623 0.2495 0.3505
H2 H 0.8013 0.2770 0.2919
C2 C 0.9680(3) 0.2849(3) 0.29567(12)
H3 H 0.9772 0.2067 0.2878
H4 H 1.0276 0.3058 0.3237
C3 C 0.9025(2) 0.4658(2) 0.16790(10)
H5 H 0.9673 0.4427 0.1522
H6 H 0.9087 0.5448 0.1753
O1 O 0.89766(14) 0.40681(16) 0.21845(7)
C4 C 0.8490(3) 0.4160(3) 0.33606(14)
H7 H 0.9176 0.4432 0.3557
H8 H 0.8299 0.4622 0.3039
N1 N 0.7607(7) 0.4216(18) 0.3719(3)
C5 C 0.6607(8) 0.431(3) 0.3522(5)
C6 C 0.5721(9) 0.4489(15) 0.3854(4)
H9 H 0.5178 0.3907 0.3768
H10 H 0.5368 0.5189 0.3744
C7 C 0.6031(7) 0.4512(8) 0.4455(4)
H11 H 0.6182 0.5271 0.4575
H12 H 0.5426 0.4237 0.4634
C8 C 0.6991(6) 0.3836(7) 0.4610(3)
H13 H 0.6798 0.3063 0.4539
H14 H 0.7216 0.3915 0.5001
C9 C 0.7922(5) 0.4117(6) 0.4321(2)
H15 H 0.8470 0.3524 0.4389
C10 C 0.6276(13) 0.4261(15) 0.2934(5)
H16 H 0.6876 0.4500 0.2749
H17 H 0.5656 0.4741 0.2837
H18 H 0.6079 0.3513 0.2829
C11 C 0.8461(7) 0.5195(8) 0.4520(3)
H19 H 0.9097 0.5322 0.4339
H20 H 0.8680 0.5154 0.4909
H21 H 0.7949 0.5795 0.4440
B1 B 0.9807(3) 0.3509(3) 0.24361(12)
C12 C 1.0950(2) 0.3507(2) 0.22227(10)
F1 F 1.07953(15) 0.16922(14) 0.19232(7)
C13 C 1.1375(2) 0.2617(2) 0.19922(11)
F2 F 1.27675(19) 0.17285(18) 0.16098(9)
C14 C 1.2383(3) 0.2624(3) 0.18279(13)
F3 F 1.39902(17) 0.3571(2) 0.17480(11)
C15 C 1.2994(3) 0.3548(3) 0.18920(14)
F4 F 1.32011(17) 0.53742(19) 0.21715(10)
C16 C 1.2602(3) 0.4461(3) 0.21123(14)
F5 F 1.12355(15) 0.53289(15) 0.24947(8)
C17 C 1.1602(2) 0.4420(3) 0.22734(12)
B2 B 0.7952(2) 0.4429(3) 0.12476(12)
C18 C 0.8236(2) 0.4825(2) 0.06501(10)
F6 F 0.88560(15) 0.65276(14) 0.10142(7)
C19 C 0.8663(2) 0.5849(3) 0.05861(11)
F7 F 0.92949(19) 0.72814(19) 0.00789(8)
C20 C 0.8890(3) 0.6272(3) 0.01030(12)
F8 F 0.89066(17) 0.6042(2) -0.08297(7)
C21 C 0.8698(2) 0.5650(3) -0.03527(11)
F9 F 0.81000(16) 0.40104(19) -0.07645(7)
C22 C 0.8292(2) 0.4636(3) -0.03187(11)
F10 F 0.75985(15) 0.32500(15) 0.01532(7)
C23 C 0.8054(2) 0.4246(2) 0.01702(11)
C24 C 0.6873(2) 0.5144(2) 0.13436(10)
F11 F 0.75998(14) 0.60603(16) 0.21445(7)
C25 C 0.6769(2) 0.5880(2) 0.17506(11)
F12 F 0.58059(16) 0.71696(18) 0.22046(8)
C26 C 0.5841(3) 0.6462(3) 0.17966(12)
F13 F 0.40400(14) 0.68954(16) 0.14609(8)
C27 C 0.4946(2) 0.6322(3) 0.14257(12)
F14 F 0.41236(13) 0.54449(17) 0.06434(7)
C28 C 0.4995(2) 0.5601(3) 0.10151(11)
F15 F 0.59217(13) 0.43501(16) 0.05637(6)
C29 C 0.5937(2) 0.5047(2) 0.09819(10)
C30 C 0.7721(2) 0.3109(2) 0.12915(10)
F16 F 0.93015(14) 0.26636(15) 0.09126(8)
C31 C 0.8424(2) 0.2334(3) 0.11319(12)
F17 F 0.90289(19) 0.05297(16) 0.10105(9)
C32 C 0.8312(3) 0.1222(3) 0.11808(13)
F18 F 0.7314(2) -0.02607(16) 0.14593(10)
C33 C 0.7446(3) 0.0821(3) 0.14054(14)
F19 F 0.58959(18) 0.11688(19) 0.18136(9)
C34 C 0.6743(3) 0.1541(3) 0.15838(13)
F20 F 0.61644(14) 0.32744(16) 0.17377(7)
C35 C 0.6893(2) 0.2642(3) 0.15306(11)
C43 C 0.6012(7) 0.6992(7) 0.0003(3)
H35 H 0.6392 0.6286 0.0052
H36 H 0.5251 0.6864 0.0054
Cl1 Cl 0.6580(7) 0.7879(6) 0.0503(3)
Cl2 Cl 0.6046(3) 0.74145(18) -0.06353(5)
N2? N 0.7700(10) 0.438(2) 0.3723(4)
C36? C 0.6686(11) 0.441(3) 0.3568(5)
C37? C 0.5930(11) 0.445(2) 0.3979(5)
H22? H 0.5385 0.3866 0.3900
H23? H 0.5547 0.5155 0.3949
C38? C 0.6476(10) 0.4311(12) 0.4549(5)
H24? H 0.5980 0.4529 0.4806
H25? H 0.6680 0.3540 0.4617
C39? C 0.7458(7) 0.5013(9) 0.4619(3)
H26? H 0.7782 0.5001 0.5001
H27? H 0.7251 0.5773 0.4524
C40? C 0.8273(8) 0.4627(8) 0.4273(3)
H28? H 0.8770 0.5251 0.4234
C41? C 0.6210(19) 0.446(2) 0.2992(6)
H29? H 0.6166 0.5222 0.2874
H30? H 0.5486 0.4143 0.2950
H31? H 0.6666 0.4053 0.2774
C42? C 0.8948(8) 0.3702(8) 0.4499(4)
H32? H 0.9300 0.3893 0.4859
H33? H 0.9497 0.3541 0.4266
H34? H 0.8492 0.3059 0.4522
C44? C 0.5685(16) 0.7182(15) 0.0036(6)
H37? H 0.6142 0.6568 -0.0053
H38? H 0.5052 0.6880 0.0183
Cl3? Cl 0.6415(19) 0.8025(18) 0.0509(9)
Cl4? Cl 0.5267(6) 0.7922(5) -0.0533(2)
loop_
_geom_bond_atom_site_label_1
_geom_bond_atom_site_label_2
_geom_bond_site_symmetry_1
_geom_bond_site_symmetry_2
C1 H1 1_555 1_555
H2 C1 1_555 1_555
C2 C1 1_555 1_555
H3 C2 1_555 1_555
H4 C2 1_555 1_555
C3 H5 1_555 1_555
H6 C3 1_555 1_555
O1 C3 1_555 1_555
C4 C1 1_555 1_555
H7 C4 1_555 1_555
H8 C4 1_555 1_555
N1 C4 1_555 1_555
C5 N1 1_555 1_555
C6 C5 1_555 1_555
H9 C6 1_555 1_555
H10 C6 1_555 1_555
C7 C6 1_555 1_555
H11 C7 1_555 1_555
H12 C7 1_555 1_555
C8 C7 1_555 1_555
H13 C8 1_555 1_555
H14 C8 1_555 1_555
C9 N1 1_555 1_555
H15 C9 1_555 1_555
C10 C5 1_555 1_555
H16 C10 1_555 1_555
H17 C10 1_555 1_555
H18 C10 1_555 1_555
C11 C9 1_555 1_555
H19 C11 1_555 1_555
H20 C11 1_555 1_555
H21 C11 1_555 1_555
B1 C2 1_555 1_555
C12 B1 1_555 1_555
F1 C13 1_555 1_555
C13 C12 1_555 1_555
F2 C14 1_555 1_555
C14 C13 1_555 1_555
F3 C15 1_555 1_555
C15 C14 1_555 1_555
F4 C16 1_555 1_555
C16 C15 1_555 1_555
F5 C17 1_555 1_555
C17 C12 1_555 1_555
B2 C3 1_555 1_555
C18 B2 1_555 1_555
F6 C19 1_555 1_555
C19 C18 1_555 1_555
F7 C20 1_555 1_555
C20 C19 1_555 1_555
F8 C21 1_555 1_555
C21 C20 1_555 1_555
F9 C22 1_555 1_555
C22 C21 1_555 1_555
F10 C23 1_555 1_555
C23 C18 1_555 1_555
C24 B2 1_555 1_555
F11 C25 1_555 1_555
C25 C24 1_555 1_555
F12 C26 1_555 1_555
C26 C25 1_555 1_555
F13 C27 1_555 1_555
C27 C26 1_555 1_555
F14 C28 1_555 1_555
C28 C27 1_555 1_555
F15 C29 1_555 1_555
C29 C24 1_555 1_555
C30 B2 1_555 1_555
F16 C31 1_555 1_555
C31 C30 1_555 1_555
F17 C32 1_555 1_555
C32 C31 1_555 1_555
F18 C33 1_555 1_555
C33 C32 1_555 1_555
F19 C34 1_555 1_555
C34 C33 1_555 1_555
F20 C35 1_555 1_555
C35 C30 1_555 1_555
C43 H35 1_555 1_555
H36 C43 1_555 1_555
Cl1 C43 1_555 1_555
Cl2 C43 1_555 1_555
O1 B1 1_555 1_555
C8 C9 1_555 1_555
C16 C17 1_555 1_555
C22 C23 1_555 1_555
C28 C29 1_555 1_555
C34 C35 1_555 1_555

#END
