
#######################################################################
#
#                 Cambridge Crystallographic Data Centre
#                                CCDC 
#
#######################################################################
#
# If this CIF has been generated from an entry in the Cambridge 
# Structural Database, then it will include bibliographic, chemical, 
# crystal, experimental, refinement or atomic coordinate data resulting 
# from the CCDC's data processing and validation procedures.
#
#######################################################################

data_REVWEX
_chemical_formula_moiety         'C22 H22 B1 F10 N1'
_chemical_name_systematic        
'[3-(2,6-dimethylpiperidin-1-ium-1-yl)propyl](hydrido)bis(pentafluorophenyl)borate'
_symmetry_cell_setting           orthorhombic
_symmetry_space_group_name_H-M   'P b c n'
_symmetry_Int_Tables_number      60
_space_group_name_Hall           '-P 2n 2ab'
loop_
_symmetry_equiv_pos_site_id
_symmetry_equiv_pos_as_xyz
1 x,y,z
2 1/2-x,1/2-y,1/2+z
3 -x,y,1/2-z
4 1/2+x,1/2-y,-z
5 -x,-y,-z
6 1/2+x,1/2+y,1/2-z
7 x,-y,1/2+z
8 1/2-x,1/2+y,z
_cell_length_a                   30.8731(13)
_cell_length_b                   9.8256(4)
_cell_length_c                   14.1789(6)
_cell_angle_alpha                90
_cell_angle_beta                 90
_cell_angle_gamma                90
_cell_volume                     4301.12
_exptl_crystal_colour            colorless
_exptl_crystal_description       prism
_cell_formula_units_Z            8
loop_
_atom_site_label
_atom_site_type_symbol
_atom_site_fract_x
_atom_site_fract_y
_atom_site_fract_z
B1 B 0.62104(5) 0.35184(17) 0.57147(12)
H1 H 0.6280(5) 0.2365(17) 0.5705(12)
C1 C 0.66706(5) 0.22312(15) 0.74420(11)
H2 H 0.6855 0.2149 0.6874
H3 H 0.6853 0.2037 0.8
N1 N 0.63097(4) 0.11923(12) 0.73885(9)
H4 H 0.6169(6) 0.1426(19) 0.6875(14)
C2 C 0.64989(5) 0.36806(15) 0.75094(11)
H5 H 0.6742 0.432 0.7405
H6 H 0.6389 0.3834 0.8156
C3 C 0.61345(5) 0.40143(15) 0.68007(11)
H7 H 0.6091 0.5013 0.6798
H8 H 0.5863 0.3596 0.7033
C4 C 0.59897(5) 0.12931(16) 0.82097(11)
H9 H 0.589 0.226 0.8246
C5 C 0.55965(5) 0.04218(17) 0.79724(12)
H10 H 0.5447 0.0815 0.7418
H11 H 0.5392 0.044 0.851
C6 C 0.57195(5) -0.10536(17) 0.77589(12)
H12 H 0.5832 -0.1491 0.8338
H13 H 0.5459 -0.1561 0.7554
C7 C 0.60623(5) -0.11170(17) 0.69889(12)
H14 H 0.5935 -0.0792 0.6389
H15 H 0.6152 -0.2076 0.6898
C8 C 0.64620(5) -0.02601(15) 0.72190(11)
H16 H 0.6593 -0.0612 0.7816
C9 C 0.61991(6) 0.09465(17) 0.91490(11)
H17 H 0.5992 0.1109 0.966
H18 H 0.6455 0.152 0.9243
H19 H 0.6286 -0.0013 0.915
C10 C 0.68011(5) -0.03388(16) 0.64465(12)
H20 H 0.6862 -0.1295 0.6302
H21 H 0.7067 0.0109 0.6659
H22 H 0.6693 0.0118 0.5879
C11 C 0.57669(5) 0.36952(15) 0.50877(10)
C12 C 0.54633(5) 0.26551(15) 0.50191(11)
F1 F 0.55163(3) 0.14914(9) 0.55222(7)
C13 C 0.51013(5) 0.27050(16) 0.44460(11)
F2 F 0.48242(3) 0.16446(10) 0.44008(7)
C14 C 0.50261(5) 0.38475(16) 0.39015(11)
F3 F 0.46799(3) 0.39035(10) 0.33312(7)
C15 C 0.53086(5) 0.49300(16) 0.39636(10)
F4 F 0.52322(3) 0.60696(10) 0.34631(6)
C16 C 0.56632(5) 0.48344(15) 0.45573(10)
F5 F 0.59167(3) 0.59626(9) 0.46110(6)
C17 C 0.66255(5) 0.41970(15) 0.51586(11)
C18 C 0.68607(5) 0.53380(16) 0.54263(11)
F6 F 0.67399(4) 0.60889(10) 0.61829(7)
C19 C 0.72258(5) 0.57982(17) 0.49565(13)
F7 F 0.74429(4) 0.69035(11) 0.52739(9)
C20 C 0.73678(5) 0.51276(18) 0.41689(13)
F8 F 0.77234(3) 0.55534(12) 0.37021(9)
C21 C 0.71403(5) 0.40153(17) 0.38485(12)
F9 F 0.72724(3) 0.33714(11) 0.30587(8)
C22 C 0.67799(5) 0.35856(15) 0.43437(11)
F10 F 0.65701(3) 0.24916(9) 0.39851(7)
loop_
_geom_bond_atom_site_label_1
_geom_bond_atom_site_label_2
_geom_bond_site_symmetry_1
_geom_bond_site_symmetry_2
B1 H1 1_555 1_555
C1 H2 1_555 1_555
H3 C1 1_555 1_555
N1 C1 1_555 1_555
H4 N1 1_555 1_555
C2 C1 1_555 1_555
H5 C2 1_555 1_555
H6 C2 1_555 1_555
C3 B1 1_555 1_555
H7 C3 1_555 1_555
H8 C3 1_555 1_555
C4 N1 1_555 1_555
H9 C4 1_555 1_555
C5 C4 1_555 1_555
H10 C5 1_555 1_555
H11 C5 1_555 1_555
C6 C5 1_555 1_555
H12 C6 1_555 1_555
H13 C6 1_555 1_555
C7 C6 1_555 1_555
H14 C7 1_555 1_555
H15 C7 1_555 1_555
C8 N1 1_555 1_555
H16 C8 1_555 1_555
C9 C4 1_555 1_555
H17 C9 1_555 1_555
H18 C9 1_555 1_555
H19 C9 1_555 1_555
C10 C8 1_555 1_555
H20 C10 1_555 1_555
H21 C10 1_555 1_555
H22 C10 1_555 1_555
C11 B1 1_555 1_555
C12 C11 1_555 1_555
F1 C12 1_555 1_555
C13 C12 1_555 1_555
F2 C13 1_555 1_555
C14 C13 1_555 1_555
F3 C14 1_555 1_555
C15 C14 1_555 1_555
F4 C15 1_555 1_555
C16 C11 1_555 1_555
F5 C16 1_555 1_555
C17 B1 1_555 1_555
C18 C17 1_555 1_555
F6 C18 1_555 1_555
C19 C18 1_555 1_555
F7 C19 1_555 1_555
C20 C19 1_555 1_555
F8 C20 1_555 1_555
C21 C20 1_555 1_555
F9 C21 1_555 1_555
C22 C17 1_555 1_555
F10 C22 1_555 1_555
C2 C3 1_555 1_555
C7 C8 1_555 1_555
C15 C16 1_555 1_555
C21 C22 1_555 1_555

#END
