
#######################################################################
#
#                 Cambridge Crystallographic Data Centre
#                                CCDC 
#
#######################################################################
#
# If this CIF has been generated from an entry in the Cambridge 
# Structural Database, then it will include bibliographic, chemical, 
# crystal, experimental, refinement or atomic coordinate data resulting 
# from the CCDC's data processing and validation procedures.
#
#######################################################################

data_REVWUN
_chemical_formula_moiety         'C43 H27 B2 F20 N1 O1'
_chemical_name_systematic        
'[3-(2,6-dimethyl-2,3,4,5-tetrahydropyridin-1-ium-1-yl)propyl][(hydroxy)methyl][bis(pentafluorophenyl)](phenylethynyl)boratebis(pentafluorophenyl)boron'
_symmetry_cell_setting           orthorhombic
_symmetry_space_group_name_H-M   'P b c a'
_symmetry_Int_Tables_number      61
_space_group_name_Hall           '-P 2ac 2ab'
loop_
_symmetry_equiv_pos_site_id
_symmetry_equiv_pos_as_xyz
1 x,y,z
2 1/2-x,-y,1/2+z
3 1/2+x,1/2-y,-z
4 -x,1/2+y,1/2-z
5 -x,-y,-z
6 1/2+x,y,1/2-z
7 1/2-x,1/2+y,z
8 x,1/2-y,1/2+z
_cell_length_a                   16.7633(1)
_cell_length_b                   21.1334(4)
_cell_length_c                   25.5857(7)
_cell_angle_alpha                90
_cell_angle_beta                 90
_cell_angle_gamma                90
_cell_volume                     9064.13
_exptl_crystal_colour            colorless
_exptl_crystal_description       plate
_cell_formula_units_Z            8
loop_
_atom_site_label
_atom_site_type_symbol
_atom_site_fract_x
_atom_site_fract_y
_atom_site_fract_z
O1 O 0.05543(18) 0.19951(14) 0.34043(12)
H1 H 0.025(3) 0.175(2) 0.3304(17)
C1 C 0.2313(3) 0.1169(2) 0.23311(17)
H2 H 0.2413 0.1603 0.2202
H3 H 0.2824 0.1000 0.2467
C2 C 0.1717(3) 0.1197(2) 0.27714(16)
H4 H 0.1672 0.0777 0.2940
H5 H 0.1186 0.1316 0.2633
C3 C 0.1996(3) 0.1693(2) 0.31749(17)
H6 H 0.2082 0.2100 0.2992
H7 H 0.2516 0.1556 0.3320
C4 C 0.0414(2) 0.25689(19) 0.30740(16)
H8 H 0.0723 0.2544 0.2745
H9 H 0.0569 0.2958 0.3264
C5 C -0.0674(2) 0.19376(19) 0.26172(17)
C6 C -0.0668(2) 0.1505(2) 0.23117(17)
N1 N 0.2050(2) 0.07726(16) 0.18919(14)
C7 C 0.2323(3) 0.0098(2) 0.1901(2)
H10 H 0.2333 -0.0043 0.2274
C8 C 0.1728(4) -0.0322(3) 0.1611(2)
H11 H 0.1944 -0.0756 0.1581
H12 H 0.1221 -0.0342 0.1809
C9 C 0.1575(4) -0.0050(3) 0.1069(2)
H13 H 0.2080 -0.0048 0.0868
H14 H 0.1190 -0.0323 0.0881
C10 C 0.1252(4) 0.0612(3) 0.1101(2)
H15 H 0.1365 0.0830 0.0767
H16 H 0.0665 0.0588 0.1139
C11 C 0.1571(3) 0.1003(2) 0.15333(19)
C12 C 0.3147(3) 0.0062(3) 0.1699(3)
H17 H 0.3145 0.0138 0.1321
H18 H 0.3367 -0.0359 0.1769
H19 H 0.3477 0.0383 0.1872
C13 C 0.1318(3) 0.1672(3) 0.1532(2)
H20 H 0.1030 0.1766 0.1857
H21 H 0.0967 0.1750 0.1233
H22 H 0.1789 0.1946 0.1507
B1 B 0.1395(3) 0.1807(2) 0.3646(2)
C14 C 0.1240(3) 0.1172(2) 0.39935(17)
F1 F -0.00028(16) 0.08625(12) 0.36207(12)
C15 C 0.0598(3) 0.0758(2) 0.39669(18)
F2 F -0.0133(2) -0.01464(14) 0.42282(14)
C16 C 0.0521(3) 0.0223(2) 0.4274(2)
F3 F 0.1047(2) -0.04493(14) 0.49160(12)
C17 C 0.1112(5) 0.0071(2) 0.4615(2)
C18 C 0.1773(4) 0.0459(3) 0.4653(2)
F4 F 0.2357(3) 0.03124(16) 0.49896(13)
F5 F 0.24793(19) 0.13427(14) 0.44002(12)
C19 C 0.1818(3) 0.0989(2) 0.43460(19)
C20 C 0.1579(3) 0.2423(2) 0.40122(17)
F6 F 0.28163(18) 0.26953(14) 0.36324(12)
C21 C 0.2214(3) 0.2827(2) 0.39679(18)
F7 F 0.2947(2) 0.37515(16) 0.41758(13)
C22 C 0.2306(3) 0.3383(2) 0.4247(2)
F8 F 0.1807(2) 0.40860(13) 0.48772(11)
C23 C 0.1735(4) 0.3545(2) 0.4601(2)
C24 C 0.1114(4) 0.3155(3) 0.46897(19)
F9 F 0.0558(2) 0.32937(17) 0.50525(13)
F10 F 0.03908(17) 0.22368(14) 0.44937(10)
C25 C 0.1038(3) 0.2604(2) 0.43981(18)
C26 C -0.0709(2) 0.0996(2) 0.19396(19)
C27 C -0.0546(3) 0.0376(2) 0.2092(2)
H23 H -0.0387 0.0284 0.2440
C28 C -0.0623(4) -0.0112(3) 0.1719(3)
H24 H -0.0528 -0.0537 0.1821
C29 C -0.0831(4) 0.0015(3) 0.1214(3)
H25 H -0.0870 -0.0320 0.0968
C30 C -0.0984(3) 0.0622(3) 0.1062(2)
H26 H -0.1128 0.0708 0.0710
C31 C -0.0930(3) 0.1116(2) 0.1423(2)
H27 H -0.1045 0.1536 0.1316
B2 B -0.0536(3) 0.2563(2) 0.29560(18)
C32 C -0.0930(9) 0.2581(5) 0.3554(4)
F11 F -0.1557(14) 0.1575(7) 0.3514(7)
C33 C -0.1389(17) 0.2113(8) 0.3784(6)
F12 F -0.2019(8) 0.1613(5) 0.4497(4)
C34 C -0.1634(8) 0.2117(5) 0.4299(4)
F13 F -0.1744(8) 0.2656(3) 0.5096(3)
C35 C -0.1494(8) 0.2636(4) 0.4596(3)
F14 F -0.0958(8) 0.3662(3) 0.4673(3)
C36 C -0.1096(8) 0.3141(4) 0.4384(3)
F15 F -0.0407(8) 0.3612(5) 0.3700(4)
C37 C -0.0833(8) 0.3100(4) 0.3873(3)
C38 C -0.0863(3) 0.31624(18) 0.26085(15)
F16 F -0.21894(15) 0.28115(12) 0.27203(12)
C39 C -0.1669(3) 0.3231(2) 0.25108(19)
C40 C -0.2005(3) 0.3704(2) 0.2207(2)
F17 F -0.2793(2) 0.37384(15) 0.21352(15)
F18 F -0.1816(2) 0.46123(13) 0.16914(12)
C41 C -0.1508(4) 0.4141(2) 0.1985(2)
C42 C -0.0714(4) 0.4102(2) 0.20649(19)
F19 F -0.0217(2) 0.45341(15) 0.18499(13)
F20 F 0.03973(18) 0.36132(14) 0.24326(12)
C43 C -0.0406(3) 0.3623(2) 0.23679(17)
C44? C -0.108(2) 0.2556(11) 0.3498(9)
F21? F -0.147(3) 0.1474(13) 0.3492(14)
C45? C -0.143(3) 0.2040(12) 0.3740(11)
F22? F -0.2270(14) 0.1603(10) 0.4382(9)
C46? C -0.183(2) 0.2085(10) 0.4205(9)
F23? F -0.2148(15) 0.2669(9) 0.4967(8)
C47? C -0.1797(16) 0.2625(8) 0.4493(8)
F24? F -0.1310(14) 0.3663(8) 0.4593(8)
C48? C -0.1369(16) 0.3132(8) 0.4308(7)
F25? F -0.0631(15) 0.3605(11) 0.3645(10)
C49? C -0.1054(18) 0.3086(10) 0.3812(8)
loop_
_geom_bond_atom_site_label_1
_geom_bond_atom_site_label_2
_geom_bond_site_symmetry_1
_geom_bond_site_symmetry_2
O1 H1 1_555 1_555
C1 H2 1_555 1_555
H3 C1 1_555 1_555
C2 C1 1_555 1_555
H4 C2 1_555 1_555
H5 C2 1_555 1_555
C3 C2 1_555 1_555
H6 C3 1_555 1_555
H7 C3 1_555 1_555
C4 O1 1_555 1_555
H8 C4 1_555 1_555
H9 C4 1_555 1_555
C5 C6 1_555 1_555
C6 C26 1_555 1_555
N1 C1 1_555 1_555
C7 N1 1_555 1_555
H10 C7 1_555 1_555
C8 C7 1_555 1_555
H11 C8 1_555 1_555
H12 C8 1_555 1_555
C9 C8 1_555 1_555
H13 C9 1_555 1_555
H14 C9 1_555 1_555
C10 C9 1_555 1_555
H15 C10 1_555 1_555
H16 C10 1_555 1_555
C11 N1 1_555 1_555
C12 C7 1_555 1_555
H17 C12 1_555 1_555
H18 C12 1_555 1_555
H19 C12 1_555 1_555
C13 C11 1_555 1_555
H20 C13 1_555 1_555
H21 C13 1_555 1_555
H22 C13 1_555 1_555
B1 O1 1_555 1_555
C14 B1 1_555 1_555
F1 C15 1_555 1_555
C15 C14 1_555 1_555
F2 C16 1_555 1_555
C16 C15 1_555 1_555
F3 C17 1_555 1_555
C17 C16 1_555 1_555
C18 C17 1_555 1_555
F4 C18 1_555 1_555
F5 C19 1_555 1_555
C19 C14 1_555 1_555
C20 B1 1_555 1_555
F6 C21 1_555 1_555
C21 C20 1_555 1_555
F7 C22 1_555 1_555
C22 C21 1_555 1_555
F8 C23 1_555 1_555
C23 C22 1_555 1_555
C24 C23 1_555 1_555
F9 C24 1_555 1_555
F10 C25 1_555 1_555
C25 C20 1_555 1_555
C26 C27 1_555 1_555
C27 H23 1_555 1_555
C28 C27 1_555 1_555
H24 C28 1_555 1_555
C29 C28 1_555 1_555
H25 C29 1_555 1_555
C30 C29 1_555 1_555
H26 C30 1_555 1_555
C31 C26 1_555 1_555
H27 C31 1_555 1_555
B2 C4 1_555 1_555
C32 B2 1_555 1_555
F11 C33 1_555 1_555
C33 C32 1_555 1_555
F12 C34 1_555 1_555
C34 C33 1_555 1_555
F13 C35 1_555 1_555
C35 C34 1_555 1_555
F14 C36 1_555 1_555
C36 C35 1_555 1_555
F15 C37 1_555 1_555
C37 C32 1_555 1_555
C38 B2 1_555 1_555
F16 C39 1_555 1_555
C39 C38 1_555 1_555
C40 C39 1_555 1_555
F17 C40 1_555 1_555
F18 C41 1_555 1_555
C41 C40 1_555 1_555
C42 C41 1_555 1_555
F19 C42 1_555 1_555
F20 C43 1_555 1_555
C43 C38 1_555 1_555
C3 B1 1_555 1_555
C5 B2 1_555 1_555
C10 C11 1_555 1_555
C18 C19 1_555 1_555
C24 C25 1_555 1_555
C30 C31 1_555 1_555
C36 C37 1_555 1_555
C42 C43 1_555 1_555

#END
