
#######################################################################
#
#                 Cambridge Crystallographic Data Centre
#                                CCDC 
#
#######################################################################
#
# If this CIF has been generated from an entry in the Cambridge 
# Structural Database, then it will include bibliographic, chemical, 
# crystal, experimental, refinement or atomic coordinate data resulting 
# from the CCDC's data processing and validation procedures.
#
#######################################################################

data_REVXOI
_chemical_formula_moiety         'C22 H18 B1 F10 N1'
_chemical_name_systematic        
7-methyl-2,2-bis(perfluorophenyl)-2,3,4,5,7,8,9,10-octahydro-1H-pyrido[1,2-a][1,4]azaborepin-6-ium-2-ide
_symmetry_cell_setting           monoclinic
_symmetry_space_group_name_H-M   'P 21/c'
_symmetry_Int_Tables_number      14
_space_group_name_Hall           '-P 2ybc'
loop_
_symmetry_equiv_pos_site_id
_symmetry_equiv_pos_as_xyz
1 x,y,z
2 -x,1/2+y,1/2-z
3 -x,-y,-z
4 x,1/2-y,1/2+z
_cell_length_a                   13.1744(3)
_cell_length_b                   11.5544(3)
_cell_length_c                   14.6465(4)
_cell_angle_alpha                90
_cell_angle_beta                 109.200(1)
_cell_angle_gamma                90
_cell_volume                     2105.51
_exptl_crystal_colour            colorless
_exptl_crystal_description       plate
_cell_formula_units_Z            4
loop_
_atom_site_label
_atom_site_type_symbol
_atom_site_fract_x
_atom_site_fract_y
_atom_site_fract_z
N1 N 0.2287(2) 0.5806(2) 0.39665(19)
C1 C 0.2815(3) 0.6947(3) 0.4241(3)
H1 H 0.3545 0.6825 0.4708
H2 H 0.2402 0.7406 0.4569
C2 C 0.2902(3) 0.7633(3) 0.3386(3)
H3 H 0.3016 0.8457 0.3577
H4 H 0.2207 0.7578 0.2854
C3 C 0.3795(3) 0.7257(3) 0.2998(3)
H5 H 0.4489 0.7465 0.3490
H6 H 0.3727 0.7729 0.2417
C4 C 0.3859(3) 0.5088(3) 0.3660(2)
H7 H 0.4156 0.4314 0.3605
H8 H 0.4328 0.5450 0.4264
C5 C 0.2778(3) 0.4957(3) 0.3714(2)
C6 C 0.2243(3) 0.3810(3) 0.3456(3)
H9 H 0.2582 0.3261 0.3988
H10 H 0.2379 0.3519 0.2871
C7 C 0.1046(3) 0.3810(3) 0.3267(3)
H11 H 0.0784 0.3005 0.3259
H12 H 0.0670 0.4166 0.2631
C8 C 0.0818(3) 0.4491(4) 0.4059(3)
H13 H 0.1200 0.4134 0.4694
H14 H 0.0037 0.4472 0.3961
C9 C 0.1183(3) 0.5736(3) 0.4054(3)
H15 H 0.1226 0.6085 0.4691
C10 C 0.0422(3) 0.6455(4) 0.3285(3)
H16 H 0.0715 0.7238 0.3303
H17 H -0.0271 0.6494 0.3395
H18 H 0.0323 0.6106 0.2652
B1 B 0.3870(3) 0.5907(3) 0.2709(3)
C11 C 0.2965(17) 0.5347(11) 0.1732(13)
F1 F 0.1948(11) 0.7049(10) 0.1167(9)
C12 C 0.2106(14) 0.5896(11) 0.1060(11)
F2 F 0.0639(6) 0.6043(11) -0.0392(6)
C13 C 0.1400(8) 0.5391(12) 0.0237(7)
F3 F 0.0810(7) 0.3752(11) -0.0723(5)
C14 C 0.1523(10) 0.4244(12) 0.0066(7)
F4 F 0.2439(9) 0.2505(8) 0.0538(7)
C15 C 0.2337(11) 0.3637(10) 0.0697(8)
F5 F 0.3822(12) 0.3519(12) 0.2061(11)
C16 C 0.3009(12) 0.4188(11) 0.1500(10)
C17 C 0.5024(3) 0.5783(3) 0.2489(2)
F6 F 0.42320(16) 0.6591(2) 0.09248(15)
C18 C 0.5105(3) 0.6151(3) 0.1612(2)
F7 F 0.60245(18) 0.6493(2) 0.04956(16)
C19 C 0.6029(3) 0.6125(3) 0.1369(3)
F8 F 0.78787(16) 0.5703(2) 0.18161(16)
C20 C 0.6959(3) 0.5729(3) 0.2027(3)
F9 F 0.78574(16) 0.4977(2) 0.35723(16)
C21 C 0.6944(3) 0.5373(3) 0.2912(3)
F10 F 0.60761(16) 0.5045(2) 0.40239(14)
C22 C 0.6001(3) 0.5400(3) 0.3125(2)
C23? C 0.287(3) 0.5514(18) 0.174(2)
F11? F 0.2004(19) 0.7346(14) 0.1331(15)
C24? C 0.2085(17) 0.6205(16) 0.1125(14)
F12? F 0.0583(10) 0.6548(14) -0.0278(9)
C25? C 0.1351(13) 0.5834(14) 0.0266(10)
F13? F 0.0629(9) 0.4314(16) -0.0838(8)
C26? C 0.1359(11) 0.4691(15) 0.0002(10)
F14? F 0.2185(12) 0.2846(13) 0.0298(11)
C27? C 0.2130(15) 0.3960(14) 0.0548(13)
F15? F 0.3627(19) 0.3633(19) 0.1872(17)
C28? C 0.288(2) 0.4411(16) 0.1364(17)
loop_
_geom_bond_atom_site_label_1
_geom_bond_atom_site_label_2
_geom_bond_site_symmetry_1
_geom_bond_site_symmetry_2
N1 C1 1_555 1_555
C1 H1 1_555 1_555
H2 C1 1_555 1_555
C2 C1 1_555 1_555
H3 C2 1_555 1_555
H4 C2 1_555 1_555
C3 C2 1_555 1_555
H5 C3 1_555 1_555
H6 C3 1_555 1_555
C4 H7 1_555 1_555
H8 C4 1_555 1_555
C5 N1 1_555 1_555
C6 C5 1_555 1_555
H9 C6 1_555 1_555
H10 C6 1_555 1_555
C7 C6 1_555 1_555
H11 C7 1_555 1_555
H12 C7 1_555 1_555
C8 C7 1_555 1_555
H13 C8 1_555 1_555
H14 C8 1_555 1_555
C9 N1 1_555 1_555
H15 C9 1_555 1_555
C10 C9 1_555 1_555
H16 C10 1_555 1_555
H17 C10 1_555 1_555
H18 C10 1_555 1_555
B1 C3 1_555 1_555
C11 B1 1_555 1_555
F1 C12 1_555 1_555
C12 C11 1_555 1_555
F2 C13 1_555 1_555
C13 C12 1_555 1_555
F3 C14 1_555 1_555
C14 C13 1_555 1_555
F4 C15 1_555 1_555
C15 C14 1_555 1_555
F5 C16 1_555 1_555
C16 C11 1_555 1_555
C17 B1 1_555 1_555
F6 C18 1_555 1_555
C18 C17 1_555 1_555
F7 C19 1_555 1_555
C19 C18 1_555 1_555
F8 C20 1_555 1_555
C20 C19 1_555 1_555
F9 C21 1_555 1_555
C21 C20 1_555 1_555
F10 C22 1_555 1_555
C22 C17 1_555 1_555
C4 C5 1_555 1_555
C4 B1 1_555 1_555
C8 C9 1_555 1_555
C15 C16 1_555 1_555
C21 C22 1_555 1_555

#END
