
#######################################################################
#
#                 Cambridge Crystallographic Data Centre
#                                CCDC 
#
#######################################################################
#
# If this CIF has been generated from an entry in the Cambridge 
# Structural Database, then it will include bibliographic, chemical, 
# crystal, experimental, refinement or atomic coordinate data resulting 
# from the CCDC's data processing and validation procedures.
#
#######################################################################

data_REVXAU
_chemical_formula_moiety         'C35 H23 B2 F20 N1 O1,C5 H12'
_chemical_name_systematic        
'3-(3-(2,6-dimethyl-2,3,4,5-tetrahydropyridin-1-ium-1-yl)propyl)-1-methyl-1,1,3,3-tetrakis(perfluorophenyl)-1,3-diborate pentane solvate'
_symmetry_cell_setting           triclinic
_symmetry_space_group_name_H-M   'P -1'
_symmetry_Int_Tables_number      2
_space_group_name_Hall           '-P 1'
loop_
_symmetry_equiv_pos_site_id
_symmetry_equiv_pos_as_xyz
1 x,y,z
2 -x,-y,-z
_cell_length_a                   11.5779(4)
_cell_length_b                   11.9595(4)
_cell_length_c                   15.0593(5)
_cell_angle_alpha                72.1790(10)
_cell_angle_beta                 81.4970(10)
_cell_angle_gamma                72.7150(10)
_cell_volume                     1891.77
_exptl_crystal_colour            colorless
_exptl_crystal_description       prism
_cell_formula_units_Z            2
loop_
_atom_site_label
_atom_site_type_symbol
_atom_site_fract_x
_atom_site_fract_y
_atom_site_fract_z
B1 B 0.78882(15) 0.20855(16) 0.31421(12)
C1 C 0.82557(16) 0.11504(14) 0.58603(11)
H1 H 0.8197 0.03 0.6038
H2 H 0.9124 0.1129 0.5806
O1 O 0.64727(9) 0.25455(10) 0.32338(7)
H3 H 0.621(2) 0.329(2) 0.3094(16)
B2 B 0.54648(15) 0.18890(15) 0.33070(12)
C2 C 0.77147(15) 0.18343(16) 0.49287(11)
H4 H 0.7796 0.2677 0.4746
H5 H 0.684 0.188 0.4992
C3 C 0.83306(14) 0.12240(15) 0.41610(10)
H6 H 0.8134 0.0436 0.4288
H7 H 0.9221 0.1056 0.4164
C4 C 0.59644(15) 0.04622(14) 0.38164(11)
H8 H 0.669 0.0111 0.3463
H9 H 0.5339 0.0048 0.3846
H10 H 0.6169 0.0356 0.4451
C5 C 0.78568(15) 0.26614(16) 0.67216(12)
C6 C 0.88720(17) 0.31489(18) 0.61703(14)
H11 H 0.9639 0.2657 0.645
H12 H 0.8733 0.3997 0.6174
H13 H 0.891 0.3112 0.5525
C7 C 0.7174(2) 0.33002(18) 0.74267(14)
H14 H 0.6855 0.4173 0.7099
H15 H 0.7754 0.3247 0.787
N1 N 0.76119(12) 0.17441(12) 0.66004(9)
C8 C 0.61303(17) 0.28359(18) 0.79852(13)
H16 H 0.5471 0.3531 0.8106
H17 H 0.6405 0.2273 0.8596
C9 C 0.5632(2) 0.2154(2) 0.74533(19)
H18 H 0.502 0.1774 0.7863
H19 H 0.5236 0.2743 0.6891
C10 C 0.6671(8) 0.1179(8) 0.7168(6)
H20 H 0.6342 0.0845 0.6757
C11 C 0.7251(3) 0.0117(2) 0.79503(19)
H21 H 0.7841 -0.0497 0.7689
H22 H 0.6626 -0.0241 0.8343
H23 H 0.7665 0.0399 0.8328
C12 C 0.84511(14) 0.32777(15) 0.28600(10)
C13 C 0.78403(15) 0.44966(15) 0.27357(11)
F1 F 0.66064(9) 0.48466(8) 0.27994(7)
C14 C 0.83890(17) 0.54350(16) 0.25379(12)
F2 F 0.77244(11) 0.65884(10) 0.24372(9)
C15 C 0.96352(18) 0.51671(18) 0.24386(13)
F3 F 1.01968(12) 0.60565(12) 0.22395(9)
C16 C 1.02980(16) 0.39787(18) 0.25421(12)
F4 F 1.15152(10) 0.37079(12) 0.24380(9)
C17 C 0.97070(15) 0.30736(16) 0.27445(11)
F5 F 1.04192(8) 0.19298(10) 0.28167(7)
C18 C 0.82154(13) 0.14796(14) 0.22629(10)
C19 C 0.78254(14) 0.21892(14) 0.13836(11)
F6 F 0.72312(8) 0.33780(8) 0.12623(6)
C20 C 0.79912(15) 0.17567(16) 0.06102(11)
F7 F 0.75758(10) 0.24892(10) -0.02167(7)
C21 C 0.85851(17) 0.05517(17) 0.06889(12)
F8 F 0.87336(12) 0.01121(11) -0.00518(8)
C22 C 0.90257(18) -0.01864(16) 0.15332(13)
F9 F 0.96348(13) -0.13552(10) 0.16174(8)
C23 C 0.88325(15) 0.02893(15) 0.22900(11)
F10 F 0.92902(10) -0.05092(9) 0.30946(7)
C24 C 0.50444(13) 0.22448(14) 0.22338(10)
C25 C 0.45611(14) 0.34609(15) 0.17676(11)
F11 F 0.44836(10) 0.43193(8) 0.22083(7)
C26 C 0.41750(16) 0.38871(17) 0.08738(12)
F12 F 0.37304(11) 0.50867(11) 0.04845(8)
C27 C 0.42790(16) 0.30694(19) 0.03804(12)
F13 F 0.39171(11) 0.34555(13) -0.04960(7)
C28 C 0.47669(17) 0.18520(18) 0.07900(12)
F14 F 0.48927(13) 0.10433(13) 0.03052(8)
C29 C 0.51306(16) 0.14667(15) 0.16962(12)
F15 F 0.56024(11) 0.02519(9) 0.20397(7)
C30 C 0.42913(14) 0.24975(13) 0.39450(10)
C31 C 0.42014(14) 0.33817(15) 0.43917(11)
F16 F 0.51182(9) 0.39046(10) 0.43057(7)
C32 C 0.31972(15) 0.38180(15) 0.49346(12)
F17 F 0.31786(10) 0.46859(10) 0.53372(8)
C33 C 0.21945(15) 0.33820(16) 0.50443(11)
F18 F 0.12048(9) 0.38205(11) 0.55545(8)
C34 C 0.22200(15) 0.25147(15) 0.46109(11)
F19 F 0.12405(9) 0.20907(10) 0.46980(7)
C35 C 0.32467(14) 0.21012(14) 0.40820(10)
F20 F 0.31933(9) 0.12564(8) 0.36709(7)
H24? H 0.6032 0.2985 0.8607
H25? H 0.5375 0.3303 0.7664
C36? C 0.6290(5) 0.1596(5) 0.8105(3)
H26? H 0.5562 0.1355 0.8444
H27? H 0.6994 0.1114 0.8485
C37? C 0.6502(13) 0.1323(15) 0.7147(10)
H28? H 0.6681 0.0422 0.7256
C38? C 0.5372(5) 0.1950(5) 0.6566(4)
H29? H 0.5253 0.2835 0.6376
H30? H 0.4657 0.1754 0.6945
H31? H 0.549 0.1658 0.6009
loop_
_geom_bond_atom_site_label_1
_geom_bond_atom_site_label_2
_geom_bond_site_symmetry_1
_geom_bond_site_symmetry_2
B1 O1 1_555 1_555
C1 H1 1_555 1_555
H2 C1 1_555 1_555
O1 H3 1_555 1_555
B2 O1 1_555 1_555
C2 C1 1_555 1_555
H4 C2 1_555 1_555
H5 C2 1_555 1_555
C3 B1 1_555 1_555
H6 C3 1_555 1_555
H7 C3 1_555 1_555
C4 B2 1_555 1_555
H8 C4 1_555 1_555
H9 C4 1_555 1_555
H10 C4 1_555 1_555
C5 C6 1_555 1_555
C6 H11 1_555 1_555
H12 C6 1_555 1_555
H13 C6 1_555 1_555
C7 C5 1_555 1_555
H14 C7 1_555 1_555
H15 C7 1_555 1_555
N1 C1 1_555 1_555
C8 C7 1_555 1_555
H16 C8 1_555 1_555
H17 C8 1_555 1_555
C9 C8 1_555 1_555
H18 C9 1_555 1_555
H19 C9 1_555 1_555
C10 N1 1_555 1_555
H20 C10 1_555 1_555
C11 C10 1_555 1_555
H21 C11 1_555 1_555
H22 C11 1_555 1_555
H23 C11 1_555 1_555
C12 B1 1_555 1_555
C13 C12 1_555 1_555
F1 C13 1_555 1_555
C14 C13 1_555 1_555
F2 C14 1_555 1_555
C15 C14 1_555 1_555
F3 C15 1_555 1_555
C16 C15 1_555 1_555
F4 C16 1_555 1_555
C17 C12 1_555 1_555
F5 C17 1_555 1_555
C18 B1 1_555 1_555
C19 C18 1_555 1_555
F6 C19 1_555 1_555
C20 C19 1_555 1_555
F7 C20 1_555 1_555
C21 C20 1_555 1_555
F8 C21 1_555 1_555
C22 C21 1_555 1_555
F9 C22 1_555 1_555
C23 C18 1_555 1_555
F10 C23 1_555 1_555
C24 B2 1_555 1_555
C25 C24 1_555 1_555
F11 C25 1_555 1_555
C26 C25 1_555 1_555
F12 C26 1_555 1_555
C27 C26 1_555 1_555
F13 C27 1_555 1_555
C28 C27 1_555 1_555
F14 C28 1_555 1_555
C29 C24 1_555 1_555
F15 C29 1_555 1_555
C30 B2 1_555 1_555
C31 C30 1_555 1_555
F16 C31 1_555 1_555
C32 C31 1_555 1_555
F17 C32 1_555 1_555
C33 C32 1_555 1_555
F18 C33 1_555 1_555
C34 C33 1_555 1_555
F19 C34 1_555 1_555
C35 C30 1_555 1_555
F20 C35 1_555 1_555
C2 C3 1_555 1_555
C5 N1 1_555 1_555
C9 C10 1_555 1_555
C16 C17 1_555 1_555
C22 C23 1_555 1_555
C28 C29 1_555 1_555
C34 C35 1_555 1_555

#END
