
#######################################################################
#
#                 Cambridge Crystallographic Data Centre
#                                CCDC 
#
#######################################################################
#
# If this CIF has been generated from an entry in the Cambridge 
# Structural Database, then it will include bibliographic, chemical, 
# crystal, experimental, refinement or atomic coordinate data resulting 
# from the CCDC's data processing and validation procedures.
#
#######################################################################

data_REWBEA
_chemical_formula_moiety         'C15 H19 N2 O2 S2 1+,Cl1 1-'
_chemical_name_systematic        
'(S)-1,4-Dihydro-6-methyl-2-(methylthio)-4-(2-(methylthio)phenyl)-5-pyrimidinecarboxylic acid methyl ester hydrochloride'
_chemical_properties_biological  'calcium antagonist activity'
_symmetry_cell_setting           orthorhombic
_symmetry_space_group_name_H-M   'P 21 21 21'
_symmetry_Int_Tables_number      19
_space_group_name_Hall           'P 2ac 2ab'
loop_
_symmetry_equiv_pos_site_id
_symmetry_equiv_pos_as_xyz
1 x,y,z
2 1/2-x,-y,1/2+z
3 1/2+x,1/2-y,-z
4 -x,1/2+y,1/2-z
_cell_length_a                   14.844(2)
_cell_length_b                   16.460(3)
_cell_length_c                   7.267(1)
_cell_angle_alpha                90
_cell_angle_beta                 90
_cell_angle_gamma                90
_cell_volume                     1775.56
_cell_formula_units_Z            4
loop_
_atom_site_label
_atom_site_type_symbol
_atom_site_fract_x
_atom_site_fract_y
_atom_site_fract_z
N1 N 0.6662(3) 0.7720(3) 0.0043(6)
C1 C 0.7071(3) 0.8097(3) 0.1469(8)
N2 N 0.7051(3) 0.7765(2) 0.3098(6)
C2 C 0.6766(3) 0.6914(3) 0.3319(7)
C3 C 0.5987(3) 0.6758(3) 0.2005(7)
C4 C 0.5979(4) 0.7135(3) 0.0374(8)
C5 C 0.7570(4) 0.6347(3) 0.3000(8)
C6 C 0.8282(4) 0.6340(4) 0.421(1)
C7 C 0.9038(5) 0.5844(5) 0.389(1)
C8 C 0.9033(5) 0.5327(5) 0.240(1)
C9 C 0.8321(5) 0.5301(4) 0.126(1)
C10 C 0.7589(4) 0.5815(4) 0.151(1)
C11 C 0.5336(4) 0.7047(4) -0.1199(9)
C12 C 0.8281(4) 0.9153(4) 0.3044(9)
C13 C 0.5308(3) 0.6191(4) 0.2758(8)
O1 O 0.5229(3) 0.6061(3) 0.4377(6)
C14 C 0.4153(4) 0.5251(4) 0.222(1)
O2 O 0.4815(3) 0.5818(3) 0.1488(6)
C15 C 0.9119(7) 0.6680(9) 0.756(1)
S1 S 0.7588(1) 0.90225(8) 0.1047(2)
S2 S 0.8240(2) 0.6996(2) 0.6147(3)
H1 H 0.6700 0.7983 -0.1210
H2 H 0.7251 0.8121 0.4308
H3 H 0.6527 0.6792 0.4733
H4 H 0.9631 0.5853 0.4811
H5 H 0.9617 0.4930 0.2147
H6 H 0.8314 0.4859 0.0122
H7 H 0.7024 0.5816 0.0511
H8 H 0.5536 0.7462 -0.2322
H9 H 0.5335 0.6422 -0.1693
H10 H 0.4650 0.7216 -0.0733
H11 H 0.8656 0.9727 0.2941
H12 H 0.7862 0.9155 0.4285
H13 H 0.8768 0.8643 0.3131
H14 H 0.3775 0.4982 0.1083
H15 H 0.4494 0.4786 0.3021
H16 H 0.3684 0.5596 0.3118
H17 H 0.9178 0.7112 0.8714
H18 H 0.8961 0.6074 0.8097
H19 H 0.9742 0.6668 0.6773
Cl1 Cl 0.6594(1) 0.87754(9) -0.3473(2)
loop_
_geom_bond_atom_site_label_1
_geom_bond_atom_site_label_2
_geom_bond_site_symmetry_1
_geom_bond_site_symmetry_2
N1 C1 1_555 1_555
C1 N2 1_555 1_555
N2 C2 1_555 1_555
C2 C3 1_555 1_555
C3 C4 1_555 1_555
C4 N1 1_555 1_555
C5 C2 1_555 1_555
C6 C5 1_555 1_555
C7 C6 1_555 1_555
C8 C7 1_555 1_555
C9 C8 1_555 1_555
C10 C5 1_555 1_555
C11 C4 1_555 1_555
C12 S1 1_555 1_555
C13 C3 1_555 1_555
O1 C13 1_555 1_555
C14 O2 1_555 1_555
O2 C13 1_555 1_555
C15 S2 1_555 1_555
S1 C1 1_555 1_555
S2 C6 1_555 1_555
H1 N1 1_555 1_555
H2 N2 1_555 1_555
H3 C2 1_555 1_555
H4 C7 1_555 1_555
H5 C8 1_555 1_555
H6 C9 1_555 1_555
H7 C10 1_555 1_555
H8 C11 1_555 1_555
H9 C11 1_555 1_555
H10 C11 1_555 1_555
H11 C12 1_555 1_555
H12 C12 1_555 1_555
H13 C12 1_555 1_555
H14 C14 1_555 1_555
H15 C14 1_555 1_555
H16 C14 1_555 1_555
H17 C15 1_555 1_555
H18 C15 1_555 1_555
H19 C15 1_555 1_555
C9 C10 1_555 1_555

#END
