
#######################################################################
#
#                 Cambridge Crystallographic Data Centre
#                                CCDC 
#
#######################################################################
#
# If this CIF has been generated from an entry in the Cambridge 
# Structural Database, then it will include bibliographic, chemical, 
# crystal, experimental, refinement or atomic coordinate data resulting 
# from the CCDC's data processing and validation procedures.
#
#######################################################################

data_REWCEB
_chemical_formula_moiety         'C17 H22 N4 O6'
_chemical_name_systematic        
"Diethyl 1,4-dihydro-2-amino-6-methyl-4-(3'-nitrophenyl)-3,5-pyrimidinedicarboxylate"
_symmetry_cell_setting           monoclinic
_symmetry_space_group_name_H-M   'C 2/c'
_symmetry_Int_Tables_number      15
_space_group_name_Hall           '-C 2yn'
loop_
_symmetry_equiv_pos_site_id
_symmetry_equiv_pos_as_xyz
1 x,y,z
2 -x,y,1/2-z
3 1/2+x,1/2+y,z
4 1/2-x,1/2+y,1/2-z
5 -x,-y,-z
6 x,-y,1/2+z
7 1/2-x,1/2-y,-z
8 1/2+x,1/2-y,1/2+z
_cell_length_a                   24.09(2)
_cell_length_b                   8.457(4)
_cell_length_c                   18.35(1)
_cell_angle_alpha                90
_cell_angle_beta                 102.94(6)
_cell_angle_gamma                90
_cell_volume                     3643.49
_cell_formula_units_Z            8
loop_
_atom_site_label
_atom_site_type_symbol
_atom_site_fract_x
_atom_site_fract_y
_atom_site_fract_z
N1 N 0.0855(2) 0.8414(6) 0.7476(3)
C1 C 0.1092(3) 0.8542(7) 0.8182(3)
N2 N 0.1208(2) 0.7218(6) 0.8664(3)
C2 C 0.1293(3) 0.5693(7) 0.8297(3)
C3 C 0.0871(2) 0.5589(8) 0.7554(3)
C4 C 0.0679(3) 0.6945(8) 0.7186(3)
C5 C 0.1909(3) 0.5512(7) 0.8256(3)
C6 C 0.2273(3) 0.4654(8) 0.8792(3)
C7 C 0.2838(3) 0.4537(8) 0.8768(3)
N3 N 0.3233(2) 0.3604(7) 0.9341(3)
O1 O 0.3698(2) 0.3267(7) 0.9235(3)
O2 O 0.3077(2) 0.3233(6) 0.9906(3)
C8 C 0.3059(3) 0.5255(8) 0.8218(4)
C9 C 0.2695(3) 0.6104(8) 0.7689(4)
C10 C 0.2126(3) 0.6241(8) 0.7702(3)
N4 N 0.1237(3) 0.9970(6) 0.8476(3)
C11 C 0.1312(3) 0.7336(8) 0.9434(4)
O3 O 0.1320(3) 0.8546(5) 0.9782(2)
O4 O 0.1383(2) 0.5906(5) 0.9750(2)
C12 C 0.1527(4) 0.5855(9) 1.0567(4)
C13 C 0.2154(4) 0.588(1) 1.0821(4)
C14 C 0.0750(3) 0.3961(8) 0.7313(3)
O5 O 0.0984(2) 0.2844(5) 0.7669(3)
O6 O 0.0366(2) 0.3767(5) 0.6671(2)
C15 C 0.0233(4) 0.2147(9) 0.6420(4)
C16 C -0.0148(5) 0.219(1) 0.5682(5)
C17 C 0.0273(3) 0.7078(9) 0.6443(4)
H1 H 0.1214 0.4741 0.8586
H2 H 0.2132 0.4163 0.9207
H3 H 0.3456 0.5090 0.8184
H4 H 0.2825 0.6635 0.7296
H5 H 0.1871 0.6860 0.7322
H6 H 0.1431 0.4934 1.0785
H7 H 0.1417 0.6767 1.0806
H8 H 0.2285 0.5879 1.1374
H9 H 0.2321 0.6844 1.0667
H10 H 0.2334 0.5011 1.0646
H11 H 0.0056 0.1563 0.6770
H12 H 0.0571 0.1566 0.6391
H13 H -0.0257 0.1163 0.5504
H14 H 0.0019 0.2750 0.5353
H15 H -0.0495 0.2748 0.5732
H16 H 0.0142 0.6074 0.6244
H17 H 0.0436 0.7635 0.6095
H18 H -0.0064 0.7675 0.6498
H19 H 0.1512 1.0211 0.8999
H20 H 0.1091 1.0904 0.8191
loop_
_geom_bond_atom_site_label_1
_geom_bond_atom_site_label_2
_geom_bond_site_symmetry_1
_geom_bond_site_symmetry_2
N1 C1 1_555 1_555
C1 N2 1_555 1_555
N2 C2 1_555 1_555
C2 C3 1_555 1_555
C3 C4 1_555 1_555
C4 N1 1_555 1_555
C5 C2 1_555 1_555
C6 C5 1_555 1_555
C7 C6 1_555 1_555
N3 C7 1_555 1_555
O1 N3 1_555 1_555
O2 N3 1_555 1_555
C8 C7 1_555 1_555
C9 C8 1_555 1_555
C10 C5 1_555 1_555
N4 C1 1_555 1_555
C11 N2 1_555 1_555
O3 C11 1_555 1_555
O4 C11 1_555 1_555
C12 O4 1_555 1_555
C13 C12 1_555 1_555
C14 C3 1_555 1_555
O5 C14 1_555 1_555
O6 C14 1_555 1_555
C15 O6 1_555 1_555
C16 C15 1_555 1_555
C17 C4 1_555 1_555
H1 C2 1_555 1_555
H2 C6 1_555 1_555
H3 C8 1_555 1_555
H4 C9 1_555 1_555
H5 C10 1_555 1_555
H6 C12 1_555 1_555
H7 C12 1_555 1_555
H8 C13 1_555 1_555
H9 C13 1_555 1_555
H10 C13 1_555 1_555
H11 C15 1_555 1_555
H12 C15 1_555 1_555
H13 C16 1_555 1_555
H14 C16 1_555 1_555
H15 C16 1_555 1_555
H16 C17 1_555 1_555
H17 C17 1_555 1_555
H18 C17 1_555 1_555
H19 N4 1_555 1_555
H20 N4 1_555 1_555
C9 C10 1_555 1_555

#END
