
#######################################################################
#
#                 Cambridge Crystallographic Data Centre
#                                CCDC 
#
#######################################################################
#
# If this CIF has been generated from an entry in the Cambridge 
# Structural Database, then it will include bibliographic, chemical, 
# crystal, experimental, refinement or atomic coordinate data resulting 
# from the CCDC's data processing and validation procedures.
#
#######################################################################

data_REWCAY
_chemical_formula_moiety         'C21 H27 N1 O1'
_chemical_name_systematic        
((1R,3S)-3-((Dimethylamino)methyl)-2,2-dimethylcyclopropyl)diphenylmethanol
_symmetry_cell_setting           monoclinic
_symmetry_space_group_name_H-M   'P 21'
_symmetry_Int_Tables_number      4
_space_group_name_Hall           'P 2yb'
loop_
_symmetry_equiv_pos_site_id
_symmetry_equiv_pos_as_xyz
1 x,y,z
2 -x,1/2+y,-z
_cell_length_a                   6.2697(13)
_cell_length_b                   16.168(3)
_cell_length_c                   18.260(4)
_cell_angle_alpha                90
_cell_angle_beta                 94.60(3)
_cell_angle_gamma                90
_cell_volume                     1845.03
_exptl_crystal_colour            colorless
_exptl_crystal_description       plate
_cell_formula_units_Z            4
_exptl_crystal_recrystallization_method n-hexane
loop_
_atom_site_label
_atom_site_type_symbol
_atom_site_fract_x
_atom_site_fract_y
_atom_site_fract_z
O1 O 0.4567(3) 0.9951(2) 0.90945(11)
H1 H 0.481(6) 1.055(3) 0.9099(19)
N1 N 0.6059(5) 1.15110(18) 0.87459(14)
C1 C 0.6550(6) 1.1077(2) 0.80766(17)
H3 H 0.7009 1.1481 0.7729
H4 H 0.5249 1.0823 0.7859
C2 C 0.8257(5) 1.0418(2) 0.81882(14)
H5 H 0.9710 1.0623 0.8140
C3 C 0.8165(5) 0.96729(19) 0.87137(14)
H6 H 0.9603 0.9509 0.8911
C4 C 0.6514(5) 0.9497(2) 0.92625(15)
C5 C 0.7349(5) 0.97082(18) 1.00602(15)
C6 C 0.9350(6) 1.0016(2) 1.02677(18)
H7 H 1.0308 1.0114 0.9914
C7 C 0.9949(7) 1.0183(2) 1.0998(2)
H8 H 1.1294 1.0405 1.1129
C8 C 0.8591(8) 1.0026(2) 1.1529(2)
H9 H 0.9018 1.0132 1.2020
C9 C 0.6600(8) 0.9712(2) 1.13356(18)
H10 H 0.5664 0.9607 1.1694
C10 C 0.5980(6) 0.9551(2) 1.06044(17)
H11 H 0.4627 0.9336 1.0476
C11 C 0.5993(5) 0.85797(19) 0.92379(15)
C12 C 0.3978(6) 0.8279(2) 0.90163(17)
H12 H 0.2883 0.8648 0.8876
C13 C 0.3566(7) 0.7438(3) 0.9000(2)
H13 H 0.2198 0.7248 0.8852
C14 C 0.5159(8) 0.6884(2) 0.9198(2)
H14 H 0.4877 0.6319 0.9185
C15 C 0.7172(8) 0.7166(2) 0.94171(19)
H15 H 0.8257 0.6792 0.9557
C16 C 0.7587(6) 0.8005(2) 0.94301(16)
H16 H 0.8964 0.8189 0.9571
C17 C 0.7876(5) 0.9540(2) 0.78896(15)
C18 C 0.5734(5) 0.9311(2) 0.75188(16)
H17 H 0.4626 0.9586 0.7758
H18 H 0.5538 0.8723 0.7548
H19 H 0.5669 0.9476 0.7012
C19 C 0.9706(6) 0.9121(2) 0.75433(17)
H20 H 1.1037 0.9279 0.7802
H21 H 0.9702 0.9285 0.7038
H22 H 0.9538 0.8531 0.7571
C20 C 0.7942(7) 1.1954(3) 0.9070(2)
H23 H 0.7590 1.2230 0.9510
H24 H 0.8389 1.2355 0.8726
H25 H 0.9082 1.1568 0.9187
C21 C 0.4286(7) 1.2093(2) 0.8572(2)
H26 H 0.3066 1.1797 0.8356
H27 H 0.4717 1.2502 0.8233
H28 H 0.3919 1.2359 0.9015
O2 O 0.5526(3) 0.4558(2) 0.55357(13)
H2 H 0.559(6) 0.421(2) 0.515(2)
N2 N 0.6158(4) 0.32346(18) 0.46635(13)
C22 C 0.6997(6) 0.2854(2) 0.53611(17)
H29 H 0.7317 0.2278 0.5271
H30 H 0.5885 0.2869 0.5701
C23 C 0.8972(5) 0.32602(19) 0.57201(15)
H31 H 1.0298 0.2993 0.5595
C24 C 0.9255(5) 0.41844(18) 0.58918(15)
H32 H 1.0736 0.4364 0.5857
C25 C 0.7665(5) 0.48670(18) 0.56599(15)
C26 C 0.7655(5) 0.55076(19) 0.62732(15)
C27 C 0.9439(6) 0.5995(2) 0.64531(17)
H33 H 1.0637 0.5941 0.6187
C28 C 0.9467(7) 0.6563(2) 0.70243(19)
H34 H 1.0685 0.6880 0.7141
C29 C 0.7714(8) 0.6661(2) 0.74170(19)
H35 H 0.7737 0.7040 0.7801
C30 C 0.5910(7) 0.6190(3) 0.7237(2)
H36 H 0.4705 0.6258 0.7497
C31 C 0.5882(6) 0.5619(2) 0.66747(18)
H37 H 0.4659 0.5305 0.6562
C32 C 0.8254(5) 0.52993(18) 0.49466(16)
C33 C 1.0225(6) 0.5258(2) 0.46656(18)
H38 H 1.1318 0.4952 0.4911
C34 C 1.0599(7) 0.5669(2) 0.4016(2)
H39 H 1.1945 0.5640 0.3837
C35 C 0.9025(9) 0.6109(2) 0.3643(2)
H40 H 0.9271 0.6365 0.3201
C36 C 0.7087(8) 0.6173(3) 0.3919(2)
H41 H 0.6015 0.6490 0.3675
C37 C 0.6699(6) 0.5769(2) 0.45641(19)
H42 H 0.5357 0.5815 0.4744
C38 C 0.9078(5) 0.35643(19) 0.65091(17)
C39 C 1.1132(6) 0.3378(2) 0.69741(19)
H43 H 1.2316 0.3399 0.6672
H44 H 1.1045 0.2836 0.7185
H45 H 1.1336 0.3781 0.7360
C40 C 0.7142(6) 0.3532(2) 0.69333(18)
H46 H 0.7318 0.3105 0.7299
H47 H 0.5905 0.3414 0.6606
H48 H 0.6958 0.4055 0.7169
C41 C 0.4150(6) 0.2827(3) 0.43890(19)
H49 H 0.3139 0.2858 0.4756
H50 H 0.4429 0.2258 0.4282
H51 H 0.3573 0.3100 0.3950
C42 C 0.7733(6) 0.3204(3) 0.41183(18)
H52 H 0.7149 0.3459 0.3671
H53 H 0.8086 0.2639 0.4024
H54 H 0.9000 0.3496 0.4301
loop_
_geom_bond_atom_site_label_1
_geom_bond_atom_site_label_2
_geom_bond_site_symmetry_1
_geom_bond_site_symmetry_2
O1 H1 1_555 1_555
O2 H2 1_555 1_555
N1 C1 1_555 1_555
N2 C22 1_555 1_555
C1 H3 1_555 1_555
H4 C1 1_555 1_555
C2 C1 1_555 1_555
H5 C2 1_555 1_555
C3 C2 1_555 1_555
H6 C3 1_555 1_555
C4 O1 1_555 1_555
C5 C4 1_555 1_555
C6 C5 1_555 1_555
H7 C6 1_555 1_555
C7 C6 1_555 1_555
H8 C7 1_555 1_555
C8 C7 1_555 1_555
H9 C8 1_555 1_555
C9 C8 1_555 1_555
H10 C9 1_555 1_555
C10 C5 1_555 1_555
H11 C10 1_555 1_555
C11 C4 1_555 1_555
C12 C11 1_555 1_555
H12 C12 1_555 1_555
C13 C12 1_555 1_555
H13 C13 1_555 1_555
C14 C13 1_555 1_555
H14 C14 1_555 1_555
C15 C14 1_555 1_555
H15 C15 1_555 1_555
C16 C11 1_555 1_555
H16 C16 1_555 1_555
C17 C2 1_555 1_555
C18 C17 1_555 1_555
H17 C18 1_555 1_555
H18 C18 1_555 1_555
H19 C18 1_555 1_555
C19 C17 1_555 1_555
H20 C19 1_555 1_555
H21 C19 1_555 1_555
H22 C19 1_555 1_555
C20 N1 1_555 1_555
H23 C20 1_555 1_555
H24 C20 1_555 1_555
H25 C20 1_555 1_555
C21 N1 1_555 1_555
H26 C21 1_555 1_555
H27 C21 1_555 1_555
H28 C21 1_555 1_555
C22 H29 1_555 1_555
H30 C22 1_555 1_555
C23 C22 1_555 1_555
H31 C23 1_555 1_555
C24 C23 1_555 1_555
H32 C24 1_555 1_555
C25 O2 1_555 1_555
C26 C25 1_555 1_555
C27 C26 1_555 1_555
H33 C27 1_555 1_555
C28 C27 1_555 1_555
H34 C28 1_555 1_555
C29 C28 1_555 1_555
H35 C29 1_555 1_555
C30 C29 1_555 1_555
H36 C30 1_555 1_555
C31 C26 1_555 1_555
H37 C31 1_555 1_555
C32 C25 1_555 1_555
C33 C32 1_555 1_555
H38 C33 1_555 1_555
C34 C33 1_555 1_555
H39 C34 1_555 1_555
C35 C34 1_555 1_555
H40 C35 1_555 1_555
C36 C35 1_555 1_555
H41 C36 1_555 1_555
C37 C32 1_555 1_555
H42 C37 1_555 1_555
C38 C23 1_555 1_555
C39 C38 1_555 1_555
H43 C39 1_555 1_555
H44 C39 1_555 1_555
H45 C39 1_555 1_555
C40 C38 1_555 1_555
H46 C40 1_555 1_555
H47 C40 1_555 1_555
H48 C40 1_555 1_555
C41 N2 1_555 1_555
H49 C41 1_555 1_555
H50 C41 1_555 1_555
H51 C41 1_555 1_555
C42 N2 1_555 1_555
H52 C42 1_555 1_555
H53 C42 1_555 1_555
H54 C42 1_555 1_555
C3 C4 1_555 1_555
C3 C17 1_555 1_555
C9 C10 1_555 1_555
C15 C16 1_555 1_555
C24 C25 1_555 1_555
C24 C38 1_555 1_555
C30 C31 1_555 1_555
C36 C37 1_555 1_555

#END
