
#######################################################################
#
#                 Cambridge Crystallographic Data Centre
#                                CCDC 
#
#######################################################################
#
# If this CIF has been generated from an entry in the Cambridge 
# Structural Database, then it will include bibliographic, chemical, 
# crystal, experimental, refinement or atomic coordinate data resulting 
# from the CCDC's data processing and validation procedures.
#
#######################################################################

data_REWDUS
_chemical_formula_moiety         'C14 H15 N3 O5'
_chemical_name_systematic        
"Ethyl 1,4-dihydro-6-methyl-2-oxo-4-(3'-nitrophenyl)-5-pyrimidinecarboxylate"
_symmetry_cell_setting           monoclinic
_symmetry_space_group_name_H-M   'P 21/n'
_symmetry_Int_Tables_number      14
_space_group_name_Hall           '-P 2yn'
loop_
_symmetry_equiv_pos_site_id
_symmetry_equiv_pos_as_xyz
1 x,y,z
2 1/2-x,1/2+y,1/2-z
3 -x,-y,-z
4 1/2+x,1/2-y,1/2+z
_cell_length_a                   8.670(1)
_cell_length_b                   11.831(2)
_cell_length_c                   13.759(3)
_cell_angle_alpha                90
_cell_angle_beta                 93.40(1)
_cell_angle_gamma                90
_cell_volume                     1408.84
_cell_formula_units_Z            4
loop_
_atom_site_label
_atom_site_type_symbol
_atom_site_fract_x
_atom_site_fract_y
_atom_site_fract_z
N1 N 0.5466(5) 0.4840(4) 0.3745(3)
C1 C 0.6579(6) 0.5602(5) 0.4079(4)
O1 O 0.6632(4) 0.5945(3) 0.4929(3)
N2 N 0.7613(5) 0.5891(4) 0.3445(3)
C2 C 0.7447(7) 0.5685(5) 0.2393(4)
C3 C 0.6479(6) 0.4614(4) 0.2212(4)
C4 C 0.5502(6) 0.4272(4) 0.2873(4)
C5 C 0.6734(6) 0.6698(4) 0.1849(4)
C6 C 0.7251(6) 0.6999(5) 0.0957(4)
C7 C 0.6548(6) 0.7904(4) 0.0458(4)
N3 N 0.7082(6) 0.8177(4) -0.0512(3)
O2 O 0.6381(5) 0.8917(3) -0.0995(3)
O3 O 0.8193(5) 0.7665(4) -0.0808(3)
C8 C 0.5387(6) 0.8531(5) 0.0816(4)
C9 C 0.4934(6) 0.8244(5) 0.1730(4)
C10 C 0.5583(6) 0.7341(5) 0.2242(4)
C11 C 0.6605(7) 0.3983(5) 0.1297(4)
O4 O 0.5870(5) 0.3157(4) 0.1058(3)
O5 O 0.7687(5) 0.4420(3) 0.0762(3)
C12 C 0.792(1) 0.3840(6) -0.0151(5)
C13 C 0.778(1) 0.4560(7) -0.0945(5)
C14 C 0.4394(7) 0.3312(5) 0.2804(4)
H1 H 0.4597 0.4722 0.4176
H2 H 0.8569 0.6271 0.3703
H3 H 0.7786 0.5275 0.1849
H4 H 0.8079 0.6589 0.0685
H5 H 0.4921 0.9157 0.0462
H6 H 0.4137 0.8677 0.2013
H7 H 0.5245 0.7165 0.2872
H8 H 0.7142 0.3277 -0.0237
H9 H 0.8903 0.3514 -0.0118
H10 H 0.7932 0.4154 -0.1516
H11 H 0.8548 0.5142 -0.0860
H12 H 0.6787 0.4904 -0.0979
H13 H 0.4439 0.2906 0.2185
H14 H 0.3318 0.3506 0.2856
H15 H 0.4607 0.2722 0.3303
loop_
_geom_bond_atom_site_label_1
_geom_bond_atom_site_label_2
_geom_bond_site_symmetry_1
_geom_bond_site_symmetry_2
N1 C1 1_555 1_555
C1 O1 1_555 1_555
N2 C1 1_555 1_555
C2 N2 1_555 1_555
C3 C2 1_555 1_555
C4 N1 1_555 1_555
C5 C2 1_555 1_555
C6 C5 1_555 1_555
C7 C6 1_555 1_555
N3 C7 1_555 1_555
O2 N3 1_555 1_555
O3 N3 1_555 1_555
C8 C7 1_555 1_555
C9 C8 1_555 1_555
C10 C5 1_555 1_555
C11 C3 1_555 1_555
O4 C11 1_555 1_555
O5 C11 1_555 1_555
C12 O5 1_555 1_555
C13 C12 1_555 1_555
C14 C4 1_555 1_555
H1 N1 1_555 1_555
H2 N2 1_555 1_555
H3 C2 1_555 1_555
H4 C6 1_555 1_555
H5 C8 1_555 1_555
H6 C9 1_555 1_555
H7 C10 1_555 1_555
H8 C12 1_555 1_555
H9 C12 1_555 1_555
H10 C13 1_555 1_555
H11 C13 1_555 1_555
H12 C13 1_555 1_555
H13 C14 1_555 1_555
H14 C14 1_555 1_555
H15 C14 1_555 1_555
C3 C4 1_555 1_555
C9 C10 1_555 1_555

#END
