
#######################################################################
#
#                 Cambridge Crystallographic Data Centre
#                                CCDC 
#
#######################################################################
#
# If this CIF has been generated from an entry in the Cambridge 
# Structural Database, then it will include bibliographic, chemical, 
# crystal, experimental, refinement or atomic coordinate data resulting 
# from the CCDC's data processing and validation procedures.
#
#######################################################################

data_REWFAA
_chemical_formula_moiety         'C18 H22 N4 O6'
_chemical_name_systematic        
"Isopropyl 1,4-dihydro-6-methyl-2-oxo-4-(3'-nitrophenyl)-3-(N,N-dimethylamido)-5-pyrimidinecarboxylate"
_symmetry_cell_setting           triclinic
_symmetry_space_group_name_H-M   'P -1'
_symmetry_Int_Tables_number      2
_space_group_name_Hall           '-P 1'
loop_
_symmetry_equiv_pos_site_id
_symmetry_equiv_pos_as_xyz
1 x,y,z
2 -x,-y,-z
_cell_length_a                   9.931(1)
_cell_length_b                   10.680(1)
_cell_length_c                   11.040(1)
_cell_angle_alpha                82.40(1)
_cell_angle_beta                 63.81(1)
_cell_angle_gamma                84.64(1)
_cell_volume                     1040.68
_cell_formula_units_Z            2
loop_
_atom_site_label
_atom_site_type_symbol
_atom_site_fract_x
_atom_site_fract_y
_atom_site_fract_z
N1 N 0.3413(2) 0.3990(2) 0.6171(2)
C1 C 0.3552(3) 0.3817(2) 0.4919(2)
N2 N 0.2487(2) 0.3107(2) 0.4914(2)
C2 C 0.1553(2) 0.2259(2) 0.6123(2)
C3 C 0.1174(3) 0.2905(2) 0.7381(2)
C4 C 0.2139(3) 0.3713(2) 0.7365(2)
C5 C 0.2262(3) 0.0942(2) 0.6198(2)
C6 C 0.1736(3) -0.0059(3) 0.5875(3)
C7 C 0.2316(3) -0.1264(2) 0.6030(3)
N3 N 0.1736(3) -0.2314(2) 0.5683(3)
O1 O 0.1996(3) -0.3381(2) 0.6048(3)
O2 O 0.1039(3) -0.2082(3) 0.5027(3)
C8 C 0.3404(3) -0.1515(3) 0.6485(3)
C9 C 0.3963(3) -0.0516(3) 0.6764(3)
C10 C 0.3386(3) 0.0702(3) 0.6632(2)
O3 O 0.4561(2) 0.4292(2) 0.3869(2)
C11 C 0.2493(3) 0.2921(3) 0.3639(2)
N4 N 0.2208(2) 0.3951(2) 0.2962(2)
O4 O 0.2700(3) 0.1863(2) 0.3287(2)
C12 C 0.2259(4) 0.3810(4) 0.1647(3)
C13 C 0.1838(4) 0.5207(3) 0.3407(3)
C14 C -0.0197(3) 0.2531(3) 0.8603(3)
O5 O -0.0686(3) 0.2954(2) 0.9679(2)
O6 O -0.0856(2) 0.1618(2) 0.8371(2)
C15 C -0.2176(4) 0.1064(4) 0.9499(4)
C16 C -0.3515(6) 0.1745(7) 0.9486(8)
C17 C -0.2079(7) -0.0286(5) 0.9374(6)
C18 C 0.2044(4) 0.4361(3) 0.8524(3)
H1 H 0.4254 0.4331 0.6221
H2 H 0.0645 0.2131 0.6053
H3 H 0.0983 0.0084 0.5535
H4 H 0.3769 -0.2371 0.6613
H5 H 0.4753 -0.0667 0.7045
H6 H 0.3758 0.1401 0.6857
H7 H 0.2523 0.2940 0.1444
H8 H 0.1332 0.4036 0.1618
H9 H 0.3027 0.4319 0.0936
H10 H 0.1822 0.5201 0.4280
H11 H 0.2572 0.5784 0.2781
H12 H 0.0878 0.5501 0.3464
H13 H -0.2247 0.1157 1.0410
H14 H -0.3536 0.2625 0.9599
H15 H -0.3530 0.1698 0.8627
H16 H -0.4421 0.1394 1.0184
H17 H -0.1148 -0.0677 0.9413
H18 H -0.2884 -0.0728 1.0065
H19 H -0.1994 -0.0425 0.8508
H20 H 0.2874 0.4887 0.8237
H21 H 0.1136 0.4874 0.8870
H22 H 0.2040 0.3752 0.9242
loop_
_geom_bond_atom_site_label_1
_geom_bond_atom_site_label_2
_geom_bond_site_symmetry_1
_geom_bond_site_symmetry_2
N1 C1 1_555 1_555
C1 N2 1_555 1_555
N2 C2 1_555 1_555
C2 C3 1_555 1_555
C3 C4 1_555 1_555
C4 N1 1_555 1_555
C5 C2 1_555 1_555
C6 C5 1_555 1_555
C7 C6 1_555 1_555
N3 C7 1_555 1_555
O1 N3 1_555 1_555
O2 N3 1_555 1_555
C8 C7 1_555 1_555
C9 C8 1_555 1_555
C10 C5 1_555 1_555
O3 C1 1_555 1_555
C11 N2 1_555 1_555
N4 C11 1_555 1_555
O4 C11 1_555 1_555
C12 N4 1_555 1_555
C13 N4 1_555 1_555
C14 C3 1_555 1_555
O5 C14 1_555 1_555
O6 C14 1_555 1_555
C15 O6 1_555 1_555
C16 C15 1_555 1_555
C17 C15 1_555 1_555
C18 C4 1_555 1_555
H1 N1 1_555 1_555
H2 C2 1_555 1_555
H3 C6 1_555 1_555
H4 C8 1_555 1_555
H5 C9 1_555 1_555
H6 C10 1_555 1_555
H7 C12 1_555 1_555
H8 C12 1_555 1_555
H9 C12 1_555 1_555
H10 C13 1_555 1_555
H11 C13 1_555 1_555
H12 C13 1_555 1_555
H13 C15 1_555 1_555
H14 C16 1_555 1_555
H15 C16 1_555 1_555
H16 C16 1_555 1_555
H17 C17 1_555 1_555
H18 C17 1_555 1_555
H19 C17 1_555 1_555
H20 C18 1_555 1_555
H21 C18 1_555 1_555
H22 C18 1_555 1_555
C9 C10 1_555 1_555

#END
