
#######################################################################
#
#                 Cambridge Crystallographic Data Centre
#                                CCDC 
#
#######################################################################
#
# If this CIF has been generated from an entry in the Cambridge 
# Structural Database, then it will include bibliographic, chemical, 
# crystal, experimental, refinement or atomic coordinate data resulting 
# from the CCDC's data processing and validation procedures.
#
#######################################################################

data_REWFOP
_chemical_formula_moiety         'C14 H9 N1 O3'
_chemical_name_systematic        2-(2-Hydroxyphenyl)isoindoline-1,3-dione
_symmetry_cell_setting           monoclinic
_symmetry_space_group_name_H-M   'P 21/c'
_symmetry_Int_Tables_number      14
_space_group_name_Hall           '-P 2ybc'
loop_
_symmetry_equiv_pos_site_id
_symmetry_equiv_pos_as_xyz
1 x,y,z
2 -x,1/2+y,1/2-z
3 -x,-y,-z
4 x,1/2-y,1/2+z
_cell_length_a                   11.584(2)
_cell_length_b                   13.704(3)
_cell_length_c                   7.0359(13)
_cell_angle_alpha                90
_cell_angle_beta                 103.877(3)
_cell_angle_gamma                90
_cell_volume                     1084.33
_exptl_crystal_colour            yellow
_exptl_crystal_description       block
_cell_formula_units_Z            4
_exptl_crystal_recrystallization_method acetone
loop_
_atom_site_label
_atom_site_type_symbol
_atom_site_fract_x
_atom_site_fract_y
_atom_site_fract_z
O1 O 0.64633(12) 0.71141(10) 0.4868(2)
O2 O 0.66790(13) 1.03280(11) 0.3248(3)
O3 O 0.85708(15) 0.87899(14) 0.1869(2)
H1 H 0.7937 0.8498 0.1518
N1 N 0.68975(14) 0.87086(11) 0.4218(2)
C1 C 0.61476(16) 0.79153(14) 0.4216(3)
C2 C 0.49285(16) 0.82535(14) 0.3278(3)
C3 C 0.38658(18) 0.77514(16) 0.2866(3)
H2 H 0.3826 0.7096 0.3191
C4 C 0.28536(18) 0.82735(17) 0.1939(3)
H3 H 0.2120 0.7960 0.1645
C5 C 0.29121(19) 0.92400(18) 0.1449(3)
H4 H 0.2220 0.9565 0.0827
C6 C 0.39867(18) 0.97408(16) 0.1864(3)
H5 H 0.4028 1.0395 0.1534
C7 C 0.49882(17) 0.92293(14) 0.2785(3)
C8 C 0.62502(17) 0.95468(14) 0.3388(3)
C9 C 0.81517(16) 0.87071(13) 0.5043(3)
C10 C 0.85824(19) 0.86747(15) 0.7063(3)
H6 H 0.8054 0.8626 0.7867
C11 C 0.9781(2) 0.87139(17) 0.7876(4)
H7 H 1.0067 0.8694 0.9229
C12 C 1.05620(19) 0.87823(16) 0.6676(4)
H8 H 1.1375 0.8818 0.7229
C13 C 1.01531(19) 0.87980(16) 0.4685(4)
H9 H 1.0691 0.8839 0.3897
C14 C 0.89413(18) 0.87535(14) 0.3825(3)
loop_
_geom_bond_atom_site_label_1
_geom_bond_atom_site_label_2
_geom_bond_site_symmetry_1
_geom_bond_site_symmetry_2
O1 C1 1_555 1_555
O2 C8 1_555 1_555
O3 H1 1_555 1_555
N1 C1 1_555 1_555
C1 C2 1_555 1_555
C2 C3 1_555 1_555
C3 H2 1_555 1_555
C4 C3 1_555 1_555
H3 C4 1_555 1_555
C5 C4 1_555 1_555
H4 C5 1_555 1_555
C6 C5 1_555 1_555
H5 C6 1_555 1_555
C7 C2 1_555 1_555
C8 N1 1_555 1_555
C9 N1 1_555 1_555
C10 C9 1_555 1_555
H6 C10 1_555 1_555
C11 C10 1_555 1_555
H7 C11 1_555 1_555
C12 C11 1_555 1_555
H8 C12 1_555 1_555
C13 C12 1_555 1_555
H9 C13 1_555 1_555
C14 O3 1_555 1_555
C6 C7 1_555 1_555
C7 C8 1_555 1_555
C9 C14 1_555 1_555
C13 C14 1_555 1_555

#END
