
#######################################################################
#
#                 Cambridge Crystallographic Data Centre
#                                CCDC 
#
#######################################################################
#
# If this CIF has been generated from an entry in the Cambridge 
# Structural Database, then it will include bibliographic, chemical, 
# crystal, experimental, refinement or atomic coordinate data resulting 
# from the CCDC's data processing and validation procedures.
#
#######################################################################

data_REWFII
_chemical_formula_moiety         'C21 H21 N3 O4 S1'
_chemical_name_systematic        
"Ethyl 3-benzyl-1,4-dihydro-6-methyl-2-thioxo-4-(3'-nitrophenyl)-5-pyrimidinecarboxylate"
_symmetry_cell_setting           triclinic
_symmetry_space_group_name_H-M   'P -1'
_symmetry_Int_Tables_number      2
_space_group_name_Hall           '-P 1'
loop_
_symmetry_equiv_pos_site_id
_symmetry_equiv_pos_as_xyz
1 x,y,z
2 -x,-y,-z
_cell_length_a                   7.2935
_cell_length_b                   11.8261
_cell_length_c                   12.5067
_cell_angle_alpha                98.31
_cell_angle_beta                 95.65
_cell_angle_gamma                106.32
_cell_volume                     1013.37
_exptl_crystal_colour            yellow
_chemical_melting_point          '457.15 K'
_cell_formula_units_Z            2
loop_
_atom_site_label
_atom_site_type_symbol
_atom_site_fract_x
_atom_site_fract_y
_atom_site_fract_z
N1 N -0.07421 0.73598 1.00797
C1 C 0.15667 0.40283 0.68231
C2 C 0.06851 0.68037 0.96956
C3 C 0.18855 0.58518 0.82388
C4 C -0.03875 0.32216 0.67134
C5 C 0.49803 0.56784 0.64837
C6 C 0.33402 0.81246 0.69746
C7 C 0.31936 0.37069 0.67870
N2 N 0.33786 0.60026 0.65286
C8 C 0.17328 0.53475 0.70245
C9 C 0.05242 0.63593 0.85976
C10 C 0.21503 0.67667 1.04551
C11 C 0.33921 0.58198 0.89937
C12 C 0.49924 0.86119 0.77347
C13 C 0.18577 0.86379 0.70154
C14 C 0.35189 0.62730 1.00890
C15 C 0.51630 0.96111 0.85166
C16 C 0.20452 0.96327 0.78059
C17 C 0.37026 1.01235 0.85464
S1 S 0.70074 0.64388 0.60691
O1 O -0.05540 0.20727 0.63595
O2 O -0.20139 0.74247 0.94148
O3 O -0.05846 0.77585 1.10441
O4 O -0.17718 0.35650 0.68896
N3 N 0.49049 0.45892 0.67887
C18 C 0.31545 0.70571 0.61045
C19 C -0.24431 0.12190 0.62835
C20 C 0.34191 0.24815 0.67429
C21 C -0.23800 0.00466 0.57080
H1 H 0.60980 0.44360 0.70090
H2 H 0.05680 0.54530 0.66850
H3 H -0.05270 0.64030 0.80910
H4 H 0.22020 0.70740 1.12200
H5 H 0.45690 0.62290 1.06070
H6 H 0.43910 0.54960 0.87340
H7 H 0.19050 0.68350 0.56570
H8 H 0.41100 0.72800 0.56320
H9 H 0.60430 0.82540 0.77120
H10 H 0.63370 0.99680 0.90460
H11 H 0.38110 1.08360 0.90910
H12 H 0.10200 0.99900 0.78500
H13 H 0.06810 0.83010 0.64790
H14 H -0.28030 0.11580 0.69870
H15 H -0.33970 0.14770 0.58700
H16 H -0.35990 -0.05430 0.56370
H17 H -0.14330 -0.02040 0.61180
H18 H -0.20290 0.01150 0.50010
H19 H 0.21900 0.19090 0.67440
H20 H 0.42750 0.24650 0.73680
H21 H 0.39190 0.22490 0.61010
loop_
_geom_bond_atom_site_label_1
_geom_bond_atom_site_label_2
_geom_bond_site_symmetry_1
_geom_bond_site_symmetry_2
N1 C2 1_555 1_555
C1 C4 1_555 1_555
C2 C9 1_555 1_555
C3 C8 1_555 1_555
C4 O1 1_555 1_555
C5 N2 1_555 1_555
C6 C12 1_555 1_555
C7 C1 1_555 1_555
N2 C8 1_555 1_555
C8 C1 1_555 1_555
C9 C3 1_555 1_555
C10 C2 1_555 1_555
C11 C3 1_555 1_555
C12 C15 1_555 1_555
C13 C6 1_555 1_555
C14 C10 1_555 1_555
C15 C17 1_555 1_555
C16 C13 1_555 1_555
C17 C16 1_555 1_555
S1 C5 1_555 1_555
O1 C19 1_555 1_555
O2 N1 1_555 1_555
O3 N1 1_555 1_555
O4 C4 1_555 1_555
N3 C5 1_555 1_555
C18 C6 1_555 1_555
C19 C21 1_555 1_555
C20 C7 1_555 1_555
C21 H16 1_555 1_555
H1 N3 1_555 1_555
H2 C8 1_555 1_555
H3 C9 1_555 1_555
H4 C10 1_555 1_555
H5 C14 1_555 1_555
H6 C11 1_555 1_555
H7 C18 1_555 1_555
H8 C18 1_555 1_555
H9 C12 1_555 1_555
H10 C15 1_555 1_555
H11 C17 1_555 1_555
H12 C16 1_555 1_555
H13 C13 1_555 1_555
H14 C19 1_555 1_555
H15 C19 1_555 1_555
H17 C21 1_555 1_555
H18 C21 1_555 1_555
H19 C20 1_555 1_555
H20 C20 1_555 1_555
H21 C20 1_555 1_555
C7 N3 1_555 1_555
N2 C18 1_555 1_555
C11 C14 1_555 1_555

#END
