
#######################################################################
#
#                 Cambridge Crystallographic Data Centre
#                                CCDC 
#
#######################################################################
#
# If this CIF has been generated from an entry in the Cambridge 
# Structural Database, then it will include bibliographic, chemical, 
# crystal, experimental, refinement or atomic coordinate data resulting 
# from the CCDC's data processing and validation procedures.
#
#######################################################################

data_REWKIQ
_chemical_formula_moiety         'C56 H32,2(C1 H1 Cl3)'
_chemical_name_systematic        
'1,3(5,7)-ditetraphena-2,4(1,4)-dinaphthalenacyclotetraphane chloroform solvate'
_symmetry_cell_setting           monoclinic
_symmetry_space_group_name_H-M   'P 21/c'
_symmetry_Int_Tables_number      14
_space_group_name_Hall           '-P 2ybc'
loop_
_symmetry_equiv_pos_site_id
_symmetry_equiv_pos_as_xyz
1 x,y,z
2 -x,1/2+y,1/2-z
3 -x,-y,-z
4 x,1/2-y,1/2+z
_cell_length_a                   9.8710(4)
_cell_length_b                   13.5010(5)
_cell_length_c                   16.5306(6)
_cell_angle_alpha                90
_cell_angle_beta                 97.2531(11)
_cell_angle_gamma                90
_cell_volume                     2185.38
_exptl_crystal_colour            colorless
_exptl_crystal_description       block
_chemical_melting_point          'above 230 deg.C'
_cell_formula_units_Z            2
_exptl_crystal_recrystallization_method chloroform/hexanes
loop_
_atom_site_label
_atom_site_type_symbol
_atom_site_fract_x
_atom_site_fract_y
_atom_site_fract_z
Cl1 Cl 0.65418(5) 0.65663(4) 0.07322(4)
Cl2 Cl 0.40381(5) 0.62863(4) -0.03539(3)
Cl3 Cl 0.43855(6) 0.80359(4) 0.06565(3)
C1 C 0.5218(2) 0.71577(14) 0.01001(12)
H1 H 0.5625 0.7513 -0.0342
C2 C 0.94321(17) 0.25209(12) 0.09786(10)
C3 C 0.93010(18) 0.34738(13) 0.13050(10)
C4 C 0.99823(19) 0.43103(13) 0.10252(11)
H2 H 1.0552 0.4234 0.0607
C5 C 0.9821(2) 0.52257(14) 0.13555(12)
H3 H 1.0283 0.578 0.1166
C6 C 0.8973(2) 0.53543(14) 0.19773(12)
H4 H 0.887 0.5994 0.22
C7 C 0.8302(2) 0.45675(14) 0.22595(11)
H5 H 0.773 0.4667 0.2673
C8 C 0.84507(18) 0.35972(13) 0.19395(11)
C9 C 0.78144(18) 0.27735(13) 0.22452(11)
H6 H 0.7267 0.2867 0.2672
C10 C 0.79609(17) 0.18228(13) 0.19412(10)
C11 C 0.73655(17) 0.09333(13) 0.22633(10)
C12 C 0.66308(19) 0.09678(14) 0.29382(11)
H7 H 0.6523 0.1585 0.3198
C13 C 0.6062(2) 0.01281(15) 0.32330(12)
H8 H 0.5567 0.0175 0.3688
C14 C 0.6212(2) -0.07894(15) 0.28661(12)
H9 H 0.581 -0.1365 0.3066
C15 C 0.69482(19) -0.08568(14) 0.22111(11)
H10 H 0.7061 -0.1483 0.1966
C16 C 0.75323(17) -0.00088(13) 0.19025(10)
C17 C 0.82832(17) -0.00743(13) 0.12081(10)
C18 C 0.88520(17) 0.07445(13) 0.09258(11)
H11 H 0.9343 0.0678 0.047
C19 C 0.87538(17) 0.17122(12) 0.12778(10)
C20 C 1.03202(17) 0.22725(12) 0.03371(10)
C21 C 0.98065(18) 0.22384(13) -0.04746(11)
H12 H 0.9042 0.2637 -0.0671
C22 C 1.04002(18) 0.16173(13) -0.10211(11)
H13 H 1.0049 0.1623 -0.1583
C23 C 1.14737(17) 0.10064(12) -0.07545(10)
C24 C 1.21559(17) 0.11346(12) 0.00567(10)
C25 C 1.33445(17) 0.05860(13) 0.03535(11)
H14 H 1.3708 0.0122 0.0006
C26 C 1.39727(18) 0.07166(13) 0.11337(11)
H15 H 1.4773 0.035 0.132
C27 C 1.34380(18) 0.13931(14) 0.16611(11)
H16 H 1.3891 0.1492 0.2197
C28 C 1.22662(18) 0.19073(13) 0.14028(10)
H17 H 1.1897 0.2344 0.1769
C29 C 1.15962(17) 0.17960(12) 0.05960(10)
C2B C 1.05679(17) -0.25209(12) -0.09786(10)
C3B C 1.06990(18) -0.34738(13) -0.13050(10)
C4B C 1.00177(19) -0.43103(13) -0.10252(11)
H2B H 0.9448 -0.4234 -0.0607
C5B C 1.0179(2) -0.52257(14) -0.13555(12)
H3B H 0.9717 -0.578 -0.1166
C6B C 1.1027(2) -0.53543(14) -0.19773(12)
H4B H 1.113 -0.5994 -0.22
C7B C 1.1698(2) -0.45675(14) -0.22595(11)
H5B H 1.227 -0.4667 -0.2673
C8B C 1.15493(18) -0.35972(13) -0.19395(11)
C9B C 1.21856(18) -0.27735(13) -0.22452(11)
H6B H 1.2733 -0.2867 -0.2672
C10B C 1.20391(17) -0.18228(13) -0.19412(10)
C11B C 1.26345(17) -0.09333(13) -0.22633(10)
C12B C 1.33692(19) -0.09678(14) -0.29382(11)
H7B H 1.3477 -0.1585 -0.3198
C13B C 1.3938(2) -0.01281(15) -0.32330(12)
H8B H 1.4433 -0.0175 -0.3688
C14B C 1.3788(2) 0.07894(15) -0.28661(12)
H9B H 1.419 0.1365 -0.3066
C15B C 1.30518(19) 0.08568(14) -0.22111(11)
H10B H 1.2939 0.1483 -0.1966
C16B C 1.24677(17) 0.00088(13) -0.19025(10)
C17B C 1.17168(17) 0.00743(13) -0.12081(10)
C18B C 1.11480(17) -0.07445(13) -0.09258(11)
H11B H 1.0657 -0.0678 -0.047
C19B C 1.12462(17) -0.17122(12) -0.12778(10)
C20B C 0.96798(17) -0.22725(12) -0.03371(10)
C21B C 1.01935(18) -0.22384(13) 0.04746(11)
H12B H 1.0958 -0.2637 0.0671
C22B C 0.95998(18) -0.16173(13) 0.10211(11)
H13B H 0.9951 -0.1623 0.1583
C23B C 0.85263(17) -0.10064(12) 0.07545(10)
C24B C 0.78441(17) -0.11346(12) -0.00567(10)
C25B C 0.66555(17) -0.05860(13) -0.03535(11)
H14B H 0.6292 -0.0122 -0.0006
C26B C 0.60273(18) -0.07166(13) -0.11337(11)
H15B H 0.5227 -0.035 -0.132
C27B C 0.65620(18) -0.13931(14) -0.16611(11)
H16B H 0.6109 -0.1492 -0.2197
C28B C 0.77338(18) -0.19073(13) -0.14028(10)
H17B H 0.8103 -0.2344 -0.1769
C29B C 0.84038(17) -0.17960(12) -0.05960(10)
loop_
_geom_bond_atom_site_label_1
_geom_bond_atom_site_label_2
_geom_bond_site_symmetry_1
_geom_bond_site_symmetry_2
Cl1 C1 1_555 1_555
Cl2 C1 1_555 1_555
Cl3 C1 1_555 1_555
C1 H1 1_555 1_555
C2 C3 1_555 1_555
C3 C4 1_555 1_555
C4 H2 1_555 1_555
C5 C4 1_555 1_555
H3 C5 1_555 1_555
C6 C5 1_555 1_555
H4 C6 1_555 1_555
C7 C6 1_555 1_555
H5 C7 1_555 1_555
C8 C3 1_555 1_555
C9 C8 1_555 1_555
H6 C9 1_555 1_555
C10 C9 1_555 1_555
C11 C10 1_555 1_555
C12 C11 1_555 1_555
H7 C12 1_555 1_555
C13 C12 1_555 1_555
H8 C13 1_555 1_555
C14 C13 1_555 1_555
H9 C14 1_555 1_555
C15 C14 1_555 1_555
H10 C15 1_555 1_555
C16 C11 1_555 1_555
C17 C16 1_555 1_555
C18 C17 1_555 1_555
H11 C18 1_555 1_555
C19 C2 1_555 1_555
C20 C2 1_555 1_555
C21 C20 1_555 1_555
H12 C21 1_555 1_555
C22 C21 1_555 1_555
H13 C22 1_555 1_555
C23 C22 1_555 1_555
C24 C23 1_555 1_555
C25 C24 1_555 1_555
H14 C25 1_555 1_555
C26 C25 1_555 1_555
H15 C26 1_555 1_555
C27 C26 1_555 1_555
H16 C27 1_555 1_555
C28 C27 1_555 1_555
H17 C28 1_555 1_555
C29 C20 1_555 1_555
C2B C3B 1_555 1_555
C3B C4B 1_555 1_555
C4B H2B 1_555 1_555
C5B C4B 1_555 1_555
H3B C5B 1_555 1_555
C6B C5B 1_555 1_555
H4B C6B 1_555 1_555
C7B C6B 1_555 1_555
H5B C7B 1_555 1_555
C8B C3B 1_555 1_555
C9B C8B 1_555 1_555
H6B C9B 1_555 1_555
C10B C9B 1_555 1_555
C11B C10B 1_555 1_555
C12B C11B 1_555 1_555
H7B C12B 1_555 1_555
C13B C12B 1_555 1_555
H8B C13B 1_555 1_555
C14B C13B 1_555 1_555
H9B C14B 1_555 1_555
C15B C14B 1_555 1_555
H10B C15B 1_555 1_555
C16B C11B 1_555 1_555
C17B C23 1_555 1_555
C18B C17B 1_555 1_555
H11B C18B 1_555 1_555
C19B C2B 1_555 1_555
C20B C2B 1_555 1_555
C21B C20B 1_555 1_555
H12B C21B 1_555 1_555
C22B C21B 1_555 1_555
H13B C22B 1_555 1_555
C23B C17 1_555 1_555
C24B C23B 1_555 1_555
C25B C24B 1_555 1_555
H14B C25B 1_555 1_555
C26B C25B 1_555 1_555
H15B C26B 1_555 1_555
C27B C26B 1_555 1_555
H16B C27B 1_555 1_555
C28B C27B 1_555 1_555
H17B C28B 1_555 1_555
C29B C20B 1_555 1_555
C7 C8 1_555 1_555
C10 C19 1_555 1_555
C15 C16 1_555 1_555
C18 C19 1_555 1_555
C24 C29 1_555 1_555
C28 C29 1_555 1_555
C7B C8B 1_555 1_555
C10B C19B 1_555 1_555
C15B C16B 1_555 1_555
C16B C17B 1_555 1_555
C18B C19B 1_555 1_555
C22B C23B 1_555 1_555
C24B C29B 1_555 1_555
C28B C29B 1_555 1_555

#END
