
#######################################################################
#
#                 Cambridge Crystallographic Data Centre
#                                CCDC 
#
#######################################################################
#
# If this CIF has been generated from an entry in the Cambridge 
# Structural Database, then it will include bibliographic, chemical, 
# crystal, experimental, refinement or atomic coordinate data resulting 
# from the CCDC's data processing and validation procedures.
#
#######################################################################

data_REWROD
_chemical_formula_moiety         'C24 H17 F3 N2'
_chemical_name_systematic        
3,4,5-trifluoro-N-[1-(4-methylphenyl)-2-(quinolin-2-yl)ethenyl]aniline
_symmetry_cell_setting           monoclinic
_symmetry_space_group_name_H-M   'P 21/n'
_symmetry_Int_Tables_number      14
_space_group_name_Hall           '-P 2yn'
loop_
_symmetry_equiv_pos_site_id
_symmetry_equiv_pos_as_xyz
1 x,y,z
2 1/2-x,1/2+y,1/2-z
3 -x,-y,-z
4 1/2+x,1/2-y,1/2+z
_cell_length_a                   13.1627(5)
_cell_length_b                   7.2645(3)
_cell_length_c                   20.2474(7)
_cell_angle_alpha                90
_cell_angle_beta                 106.6510(10)
_cell_angle_gamma                90
_cell_volume                     1854.88
_exptl_crystal_colour            yellow
_exptl_crystal_description       block
_cell_formula_units_Z            4
loop_
_atom_site_label
_atom_site_type_symbol
_atom_site_fract_x
_atom_site_fract_y
_atom_site_fract_z
N1 N 0.70199(9) 0.84584(18) 0.15878(5)
H1 H 0.6581 0.8819 0.1818
N2 N 0.50841(9) 0.71076(16) 0.14736(6)
C1 C 0.49161(11) 0.71682(19) 0.07932(7)
C2 C 0.99342(11) 0.6380(2) 0.27920(7)
C3 C 0.34267(11) 0.5419(2) 0.13081(8)
C4 C 0.73967(11) 0.95652(19) 0.05338(7)
C5 C 0.86867(11) 0.6829(2) 0.16691(7)
H2 H 0.8497 0.6644 0.1185
C6 C 0.80084(11) 0.77717(19) 0.19680(6)
C7 C 0.96357(11) 0.6169(2) 0.20862(8)
C8 C 0.43558(11) 0.62517(19) 0.17348(7)
C9 C 0.92474(12) 0.7295(2) 0.30780(7)
C10 C 0.66790(11) 0.86129(19) 0.08701(6)
C11 C 0.45523(12) 0.6203(2) 0.24568(8)
H3 H 0.5172 0.6767 0.2746
C12 C 0.56889(11) 0.8072(2) 0.05118(7)
H4 H 0.5478 0.8304 0.0030
C13 C 0.83000(11) 0.8008(2) 0.26844(7)
H5 H 0.7848 0.8654 0.2896
C14 C 0.32652(12) 0.5522(2) 0.05850(8)
H6 H 0.2650 0.4991 0.0278
C15 C 0.38522(14) 0.5345(2) 0.27425(9)
H7 H 0.3992 0.5313 0.3230
C16 C 0.73330(12) 0.9264(2) -0.01596(7)
H8 H 0.6834 0.8403 -0.0421
C17 C 0.39909(11) 0.6379(2) 0.03316(7)
H9 H 0.3882 0.6453 -0.0152
C18 C 0.87923(12) 1.1776(2) 0.05851(8)
H10 H 0.9292 1.2637 0.0845
C19 C 0.81329(12) 1.0852(2) 0.08975(7)
H11 H 0.8183 1.1098 0.1367
C20 C 0.79895(12) 1.0207(2) -0.04684(7)
H12 H 0.7928 0.9989 -0.0941
C21 C 0.94532(15) 1.2472(2) -0.04442(10)
H13 H 0.9777 1.3527 -0.0160
H14 H 0.9037 1.2906 -0.0900
H15 H 1.0011 1.1637 -0.0495
C22 C 0.29298(14) 0.4511(2) 0.23227(10)
H16 H 0.2450 0.3920 0.2526
C23 C 0.27208(13) 0.4549(2) 0.16214(10)
H17 H 0.2094 0.3983 0.1341
C24 C 0.87376(12) 1.1467(2) -0.01026(8)
F1 F 1.02991(8) 0.52600(15) 0.17990(5)
F2 F 1.08700(7) 0.57384(14) 0.31848(5)
F3 F 0.95362(9) 0.75179(15) 0.37678(4)
loop_
_geom_bond_atom_site_label_1
_geom_bond_atom_site_label_2
_geom_bond_site_symmetry_1
_geom_bond_site_symmetry_2
N1 H1 1_555 1_555
N2 C1 1_555 1_555
C1 C12 1_555 1_555
C2 C7 1_555 1_555
C3 C8 1_555 1_555
C4 C10 1_555 1_555
C5 H2 1_555 1_555
C6 N1 1_555 1_555
C7 C5 1_555 1_555
C8 N2 1_555 1_555
C9 C2 1_555 1_555
C10 N1 1_555 1_555
C11 C8 1_555 1_555
H3 C11 1_555 1_555
C12 C10 1_555 1_555
H4 C12 1_555 1_555
C13 C6 1_555 1_555
H5 C13 1_555 1_555
C14 C3 1_555 1_555
H6 C14 1_555 1_555
C15 C11 1_555 1_555
H7 C15 1_555 1_555
C16 C4 1_555 1_555
H8 C16 1_555 1_555
C17 C1 1_555 1_555
H9 C17 1_555 1_555
C18 H10 1_555 1_555
C19 C4 1_555 1_555
H11 C19 1_555 1_555
C20 C16 1_555 1_555
H12 C20 1_555 1_555
C21 H13 1_555 1_555
H14 C21 1_555 1_555
H15 C21 1_555 1_555
C22 C15 1_555 1_555
H16 C22 1_555 1_555
C23 C3 1_555 1_555
H17 C23 1_555 1_555
C24 C18 1_555 1_555
F1 C7 1_555 1_555
F2 C2 1_555 1_555
F3 C9 1_555 1_555
C5 C6 1_555 1_555
C9 C13 1_555 1_555
C14 C17 1_555 1_555
C18 C19 1_555 1_555
C20 C24 1_555 1_555
C21 C24 1_555 1_555
C22 C23 1_555 1_555

#END
