
#######################################################################
#
#                 Cambridge Crystallographic Data Centre
#                                CCDC 
#
#######################################################################
#
# If this CIF has been generated from an entry in the Cambridge 
# Structural Database, then it will include bibliographic, chemical, 
# crystal, experimental, refinement or atomic coordinate data resulting 
# from the CCDC's data processing and validation procedures.
#
#######################################################################

data_REWWIZ
_chemical_compound_source        'Seeds of Pseudolarix kaempferi'
_chemical_formula_moiety         'C29 H44 O6,C4 H10 O1'
_chemical_name_systematic        'Pseudolarolide J diethyl ether solvate'
_symmetry_cell_setting           monoclinic
_symmetry_space_group_name_H-M   'P 21'
_symmetry_Int_Tables_number      4
_space_group_name_Hall           'P 2yb'
loop_
_symmetry_equiv_pos_site_id
_symmetry_equiv_pos_as_xyz
1 x,y,z
2 -x,1/2+y,-z
_cell_length_a                   20.764(6)
_cell_length_b                   10.571(2)
_cell_length_c                   7.488(2)
_cell_angle_alpha                90
_cell_angle_beta                 96.05(1)
_cell_angle_gamma                90
_cell_volume                     1634.43
_exptl_crystal_colour            colorless
_chemical_melting_point          198-200deg.C
_cell_formula_units_Z            2
loop_
_atom_site_label
_atom_site_type_symbol
_atom_site_fract_x
_atom_site_fract_y
_atom_site_fract_z
C31 C 0.281(2) -0.477(4) 0.316(4)
C35 C 0.353(1) -0.660(3) 0.326(3)
C36 C 0.352(2) -0.502(4) 0.459(5)
C38 C 0.268(2) -0.488(4) 0.470(4)
C39 C 0.399(1) -0.617(2) 0.476(3)
C1 C -0.0357(4) 0.0566(8) 0.4324(9)
C2 C -0.0740(5) 0.1032(10) 0.5824(10)
C3 C -0.0836(4) 0.0017(9) 0.1435(10)
C4 C -0.0248(4) 0.0912(7) 0.1185(9)
C5 C 0.0330(4) 0.0295(7) 0.0491(9)
C6 C 0.0692(4) -0.0720(8) 0.1687(11)
C7 C 0.1122(4) -0.0393(8) 0.3404(9)
C8 C 0.0828(4) 0.0574(7) 0.4604(10)
C9 C -0.0127(4) 0.1566(7) 0.2997(9)
C10 C 0.1242(5) 0.0797(10) 0.6367(10)
C11 C 0.1975(5) 0.1006(11) 0.6186(11)
C12 C 0.2225(5) -0.0070(10) 0.5167(10)
C13 C 0.1844(4) -0.0080(9) 0.3214(10)
C14 C 0.2215(5) -0.1114(10) 0.2219(11)
C15 C 0.2919(5) -0.1040(10) 0.3140(13)
C16 C 0.2926(5) 0.0004(11) 0.4622(12)
C17 C 0.2151(5) -0.1333(11) 0.6192(13)
C18 C 0.0578(4) 0.1828(7) 0.3680(10)
C19 C 0.3549(6) -0.0179(14) 0.5851(14)
C20 C 0.3632(7) 0.0824(20) 0.7370(18)
C21 C 0.4093(5) -0.0041(15) 0.4675(16)
C22 C 0.4014(5) -0.0823(11) 0.2952(16)
C23 C 0.4493(6) -0.0464(14) 0.1614(18)
C24 C 0.4556(6) -0.1696(14) 0.0581(17)
C25 C 0.4461(6) -0.2674(15) 0.1936(20)
C26 C 0.5155(7) -0.1871(18) -0.0365(23)
C27 C -0.1487(5) 0.0748(10) 0.1189(13)
C28 C -0.0901(5) -0.1173(9) 0.0351(12)
C29 C 0.1929(4) 0.1141(10) 0.2177(12)
O1 O 0.0238(3) 0.0000 0.5142(7)
O2 O -0.0707(3) -0.0357(6) 0.3319(7)
O3 O -0.0504(3) 0.2707(5) 0.2928(7)
O4 O 0.3391(3) -0.0766(7) 0.1989(8)
O5 O 0.4163(4) -0.2160(8) 0.3354(11)
O6 O 0.4588(5) -0.3789(10) 0.1987(17)
H1 H -0.0861 0.0260 0.6605
H2 H -0.0457 0.1676 0.6637
H3 H -0.1165 0.1481 0.5263
H4 H -0.0353 0.1561 0.0133
H5 H 0.0664 0.1013 0.0283
H6 H 0.0170 -0.0133 -0.0742
H7 H 0.0989 -0.1203 0.0863
H8 H 0.0335 -0.1338 0.2070
H9 H 0.1136 -0.1271 0.4061
H10 H 0.1197 0.0006 0.7193
H11 H 0.1065 0.1602 0.6976
H12 H 0.2232 0.1053 0.7469
H13 H 0.2036 0.1855 0.5497
H14 H 0.2199 -0.0909 0.0843
H15 H 0.2017 -0.2014 0.2387
H16 H 0.3044 -0.1941 0.3656
H17 H 0.2979 0.0974 0.4376
H18 H 0.2411 -0.1277 0.7470
H19 H 0.1659 -0.1493 0.6327
H20 H 0.2333 -0.2081 0.5471
H21 H 0.0846 0.2051 0.2609
H22 H 0.0611 0.2576 0.4607
H23 H 0.3545 -0.1066 0.6480
H24 H 0.4068 0.0659 0.8181
H25 H 0.3642 0.1731 0.6803
H26 H 0.3243 0.0760 0.8154
H27 H 0.4526 -0.0318 0.5426
H28 H 0.4124 0.0916 0.4319
H29 H 0.4941 -0.0185 0.2281
H30 H 0.4308 0.0265 0.0756
H31 H 0.4213 -0.1729 -0.0553
H32 H 0.5135 -0.2752 -0.1016
H33 H 0.5181 -0.1148 -0.1316
H34 H 0.5567 -0.1835 0.0577
H35 H -0.1869 0.0125 0.1364
H36 H -0.1479 0.1477 0.2144
H37 H -0.1554 0.1137 -0.0107
H38 H -0.1313 -0.1672 0.0656
H39 H -0.0948 -0.0946 -0.1022
H40 H -0.0488 -0.1736 0.0658
H41 H 0.1667 0.1079 0.0902
H42 H 0.1756 0.1907 0.2881
H43 H 0.2422 0.1277 0.2035
H44 H -0.0415 0.3472 0.3572
C30? C 0.375(1) -0.644(2) 0.423(2)
C32? C 0.254(1) -0.491(3) 0.382(3)
C33? C 0.368(1) -0.417(3) 0.694(3)
C34? C 0.342(2) -0.462(3) 0.630(4)
C37? C 0.309(2) -0.638(4) 0.093(5)
loop_
_geom_bond_atom_site_label_1
_geom_bond_atom_site_label_2
_geom_bond_site_symmetry_1
_geom_bond_site_symmetry_2
C1 C2 1_555 1_555
C2 H1 1_555 1_555
C3 C4 1_555 1_555
C4 C5 1_555 1_555
C5 C6 1_555 1_555
C6 C7 1_555 1_555
C7 C8 1_555 1_555
C8 C10 1_555 1_555
C9 C1 1_555 1_555
C10 C11 1_555 1_555
C11 C12 1_555 1_555
C12 C13 1_555 1_555
C13 C7 1_555 1_555
C14 C13 1_555 1_555
C15 C14 1_555 1_555
C16 C12 1_555 1_555
C17 C12 1_555 1_555
C18 C8 1_555 1_555
C19 C16 1_555 1_555
C20 C19 1_555 1_555
C21 C19 1_555 1_555
C22 C21 1_555 1_555
C23 C22 1_555 1_555
C24 C23 1_555 1_555
C25 C24 1_555 1_555
C26 C24 1_555 1_555
C27 C3 1_555 1_555
C28 C3 1_555 1_555
C29 C13 1_555 1_555
O1 C1 1_555 1_555
O2 C1 1_555 1_555
O3 C9 1_555 1_555
O4 C15 1_555 1_555
O5 C22 1_555 1_555
O6 C25 1_555 1_555
C31 C36 1_555 1_555
C35 C39 1_555 1_555
C36 C39 1_555 1_555
C38 C31 1_555 1_555
H2 C2 1_555 1_555
H3 C2 1_555 1_555
H4 C4 1_555 1_555
H5 C5 1_555 1_555
H6 C5 1_555 1_555
H7 C6 1_555 1_555
H8 C6 1_555 1_555
H9 C7 1_555 1_555
H10 C10 1_555 1_555
H11 C10 1_555 1_555
H12 C11 1_555 1_555
H13 C11 1_555 1_555
H14 C14 1_555 1_555
H15 C14 1_555 1_555
H16 C15 1_555 1_555
H17 C16 1_555 1_555
H18 C17 1_555 1_555
H19 C17 1_555 1_555
H20 C17 1_555 1_555
H21 C18 1_555 1_555
H22 C18 1_555 1_555
H23 C19 1_555 1_555
H24 C20 1_555 1_555
H25 C20 1_555 1_555
H26 C20 1_555 1_555
H27 C21 1_555 1_555
H28 C21 1_555 1_555
H29 C23 1_555 1_555
H30 C23 1_555 1_555
H31 C24 1_555 1_555
H32 C26 1_555 1_555
H33 C26 1_555 1_555
H34 C26 1_555 1_555
H35 C27 1_555 1_555
H36 C27 1_555 1_555
H37 C27 1_555 1_555
H38 C28 1_555 1_555
H39 C28 1_555 1_555
H40 C28 1_555 1_555
H41 C29 1_555 1_555
H42 C29 1_555 1_555
H43 C29 1_555 1_555
H44 O3 1_555 1_555
C3 O2 1_555 1_555
C4 C9 1_555 1_555
C8 O1 1_555 1_555
C9 C18 1_555 1_555
C15 C16 1_555 1_555
C22 O4 1_555 1_555
C25 O5 1_555 1_555

#END
