
#######################################################################
#
#                 Cambridge Crystallographic Data Centre
#                                CCDC 
#
#######################################################################
#
# If this CIF has been generated from an entry in the Cambridge 
# Structural Database, then it will include bibliographic, chemical, 
# crystal, experimental, refinement or atomic coordinate data resulting 
# from the CCDC's data processing and validation procedures.
#
#######################################################################

data_REWWOH
_chemical_formula_moiety         'C24 H24 O4'
_chemical_name_systematic        
'Dimethyl 3-phenyl-4-(2-phenylvinyl)cyclohex-1-ene-1,4-dicarboxylate'
_symmetry_cell_setting           triclinic
_symmetry_space_group_name_H-M   'P -1'
_symmetry_Int_Tables_number      2
_space_group_name_Hall           '-P 1'
loop_
_symmetry_equiv_pos_site_id
_symmetry_equiv_pos_as_xyz
1 x,y,z
2 -x,-y,-z
_cell_length_a                   9.2295(3)
_cell_length_b                   10.3951(4)
_cell_length_c                   11.3783(5)
_cell_angle_alpha                86.591(2)
_cell_angle_beta                 69.851(2)
_cell_angle_gamma                79.622(2)
_cell_volume                     1008.07
_exptl_crystal_colour            colorless
_exptl_crystal_description       block
_cell_formula_units_Z            2
loop_
_atom_site_label
_atom_site_type_symbol
_atom_site_fract_x
_atom_site_fract_y
_atom_site_fract_z
C1 C 1.1428(8) 0.0252(7) 0.0861(6)
H1 H 1.2041 -0.0585 0.0456
H2 H 1.0587 0.0537 0.0500
C2 C 1.2495(8) 0.1272(7) 0.0566(6)
H3 H 1.3494 0.0884 0.0687
H4 H 1.2732 0.1534 -0.0323
C3 C 1.1756(7) 0.2460(6) 0.1385(6)
C4 C 1.0483(7) 0.2491(6) 0.2420(6)
H5 H 1.0085 0.3285 0.2883
C5 C 0.9653(7) 0.1358(6) 0.2889(6)
H6 H 0.9511 0.1288 0.3801
C6 C 1.0670(8) 0.0021(6) 0.2289(6)
C7 C 0.9745(8) -0.1050(7) 0.2489(7)
H7 H 0.9264 -0.1134 0.1888
C8 C 0.9519(8) -0.1906(7) 0.3426(6)
H8 H 0.9965 -0.1801 0.4045
C9 C 0.8652(8) -0.2994(7) 0.3598(7)
C10 C 0.8123(9) -0.3388(7) 0.2709(8)
H9 H 0.8327 -0.2935 0.1935
C11 C 0.7301(9) -0.4426(8) 0.2899(9)
H10 H 0.6957 -0.4686 0.2266
C12 C 0.6996(9) -0.5077(7) 0.4056(9)
H11 H 0.6430 -0.5784 0.4217
C13 C 0.7490(12) -0.4710(9) 0.4909(8)
H12 H 0.7254 -0.5161 0.5685
C14 C 0.8358(10) -0.3679(9) 0.4744(8)
H13 H 0.8727 -0.3458 0.5377
C15 C 0.8027(7) 0.1591(6) 0.2818(6)
C16 C 0.7677(8) 0.2218(7) 0.1774(6)
H14 H 0.8501 0.2475 0.1084
C17 C 0.6203(9) 0.2456(8) 0.1744(7)
H15 H 0.6001 0.2925 0.1059
C18 C 0.4974(8) 0.2027(8) 0.2695(7)
H16 H 0.3952 0.2147 0.2644
C19 C 0.5297(8) 0.1407(7) 0.3741(7)
H17 H 0.4473 0.1149 0.4430
C20 C 0.6786(8) 0.1180(6) 0.3758(6)
H18 H 0.6985 0.0717 0.4447
C21 C 1.1948(7) -0.0351(6) 0.2874(6)
C22 C 1.4317(8) -0.1792(8) 0.2684(7)
H19 H 1.5089 -0.2456 0.2116
H20 H 1.3861 -0.2186 0.3503
H21 H 1.4830 -0.1077 0.2778
C23 C 1.2501(7) 0.3647(7) 0.0979(6)
C24 C 1.2695(11) 0.5733(8) 0.1527(9)
H22 H 1.2285 0.6324 0.2251
H23 H 1.2397 0.6156 0.0832
H24 H 1.3839 0.5528 0.1274
O1 O 1.1963(6) 0.0057(5) 0.3830(4)
O2 O 1.3094(6) -0.1287(5) 0.2175(5)
O3 O 1.3446(7) 0.3754(6) -0.0046(5)
O4 O 1.2059(6) 0.4556(5) 0.1855(5)
loop_
_geom_bond_atom_site_label_1
_geom_bond_atom_site_label_2
_geom_bond_site_symmetry_1
_geom_bond_site_symmetry_2
C1 H1 1_555 1_555
H2 C1 1_555 1_555
C2 C1 1_555 1_555
H3 C2 1_555 1_555
H4 C2 1_555 1_555
C3 C2 1_555 1_555
C4 C3 1_555 1_555
H5 C4 1_555 1_555
C5 C4 1_555 1_555
H6 C5 1_555 1_555
C6 C1 1_555 1_555
C7 C6 1_555 1_555
H7 C7 1_555 1_555
C8 C7 1_555 1_555
H8 C8 1_555 1_555
C9 C8 1_555 1_555
C10 C9 1_555 1_555
H9 C10 1_555 1_555
C11 C10 1_555 1_555
H10 C11 1_555 1_555
C12 C11 1_555 1_555
H11 C12 1_555 1_555
C13 C12 1_555 1_555
H12 C13 1_555 1_555
C14 C9 1_555 1_555
H13 C14 1_555 1_555
C15 C5 1_555 1_555
C16 C15 1_555 1_555
H14 C16 1_555 1_555
C17 C16 1_555 1_555
H15 C17 1_555 1_555
C18 C17 1_555 1_555
H16 C18 1_555 1_555
C19 C18 1_555 1_555
H17 C19 1_555 1_555
C20 C15 1_555 1_555
H18 C20 1_555 1_555
C21 C6 1_555 1_555
C22 H19 1_555 1_555
H20 C22 1_555 1_555
H21 C22 1_555 1_555
C23 C3 1_555 1_555
C24 H22 1_555 1_555
H23 C24 1_555 1_555
H24 C24 1_555 1_555
O1 C21 1_555 1_555
O2 C21 1_555 1_555
O3 C23 1_555 1_555
O4 C23 1_555 1_555
C5 C6 1_555 1_555
C13 C14 1_555 1_555
C19 C20 1_555 1_555
C22 O2 1_555 1_555
C24 O4 1_555 1_555

#END
