
#######################################################################
#
#                 Cambridge Crystallographic Data Centre
#                                CCDC 
#
#######################################################################
#
# If this CIF has been generated from an entry in the Cambridge 
# Structural Database, then it will include bibliographic, chemical, 
# crystal, experimental, refinement or atomic coordinate data resulting 
# from the CCDC's data processing and validation procedures.
#
#######################################################################

data_REWZUR
_chemical_formula_moiety         'C12 H16 I2 N2 P2'
_chemical_name_systematic        
6,12-bis(iodo)-2,3,4,7,8,9,10,12-octahydro-1H,6H-[1,2,3]benzodiazaphospholo[2,1-a][1,2,3]benzodiazaphosphole
_symmetry_cell_setting           monoclinic
_symmetry_space_group_name_H-M   'P 21/n'
_symmetry_Int_Tables_number      14
_space_group_name_Hall           '-P 2yn'
loop_
_symmetry_equiv_pos_site_id
_symmetry_equiv_pos_as_xyz
1 x,y,z
2 1/2-x,1/2+y,1/2-z
3 -x,-y,-z
4 1/2+x,1/2-y,1/2+z
_cell_length_a                   7.5107(6)
_cell_length_b                   7.1272(5)
_cell_length_c                   15.1283(9)
_cell_angle_alpha                90
_cell_angle_beta                 101.837(6)
_cell_angle_gamma                90
_cell_volume                     792.601
_exptl_crystal_colour            red
_exptl_crystal_description       plate
_cell_formula_units_Z            2
loop_
_atom_site_label
_atom_site_type_symbol
_atom_site_fract_x
_atom_site_fract_y
_atom_site_fract_z
I1 I 0.76979(5) 0.82389(5) 0.84199(2)
P1 P 0.77254(11) 1.00830(13) 0.98823(7)
N1 N 0.5513(4) 1.0665(4) 0.9817(2)
C1 C 0.7405(5) 0.8185(5) 1.0616(2)
C2 C 0.5657(5) 0.8031(5) 1.0684(2)
C3 C 0.4914(5) 0.6578(5) 1.1230(3)
H1 H 0.4149 0.5677 1.0821
H2 H 0.4145 0.7191 1.1605
C4 C 0.6467(7) 0.5544(8) 1.1833(4)
H3 H 0.6854 0.6277 1.2395
H4 H 0.6004 0.4323 1.2001
C5 C 0.8045(8) 0.5197(8) 1.1451(5)
H5 H 0.7711 0.4249 1.0967
H6 H 0.8997 0.4632 1.1927
C6 C 0.8873(5) 0.6850(5) 1.1062(3)
H7 H 0.9569 0.6406 1.0613
H8 H 0.9724 0.7510 1.1550
I1B I 0.23021(5) 1.17611(5) 1.15801(2)
P1B P 0.22746(11) 0.99170(13) 1.01177(7)
N1B N 0.4487(4) 0.9335(4) 1.0183(2)
C1B C 0.2595(5) 1.1815(5) 0.9384(2)
C2B C 0.4343(5) 1.1969(5) 0.9316(2)
C3B C 0.5086(5) 1.3422(5) 0.8770(3)
H1B H 0.5851 1.4323 0.9179
H2B H 0.5855 1.2809 0.8395
C4B C 0.3533(7) 1.4456(8) 0.8167(4)
H3B H 0.3146 1.3723 0.7605
H4B H 0.3996 1.5677 0.7999
C5B C 0.1955(8) 1.4803(8) 0.8549(5)
H5B H 0.2289 1.5751 0.9033
H6B H 0.1003 1.5368 0.8073
C6B C 0.1127(5) 1.3150(5) 0.8938(3)
H7B H 0.0431 1.3594 0.9387
H8B H 0.0276 1.2490 0.8450
loop_
_geom_bond_atom_site_label_1
_geom_bond_atom_site_label_2
_geom_bond_site_symmetry_1
_geom_bond_site_symmetry_2
I1 P1 1_555 1_555
P1 N1 1_555 1_555
N1 N1B 1_555 1_555
C1 P1 1_555 1_555
C2 C1 1_555 1_555
C3 C2 1_555 1_555
H1 C3 1_555 1_555
H2 C3 1_555 1_555
C4 C3 1_555 1_555
H3 C4 1_555 1_555
H4 C4 1_555 1_555
C5 C4 1_555 1_555
H5 C5 1_555 1_555
H6 C5 1_555 1_555
C6 C1 1_555 1_555
H7 C6 1_555 1_555
H8 C6 1_555 1_555
I1B P1B 1_555 1_555
P1B N1B 1_555 1_555
N1B C2 1_555 1_555
C1B P1B 1_555 1_555
C2B N1 1_555 1_555
C3B C2B 1_555 1_555
H1B C3B 1_555 1_555
H2B C3B 1_555 1_555
C4B C3B 1_555 1_555
H3B C4B 1_555 1_555
H4B C4B 1_555 1_555
C5B C4B 1_555 1_555
H5B C5B 1_555 1_555
H6B C5B 1_555 1_555
C6B C1B 1_555 1_555
H7B C6B 1_555 1_555
H8B C6B 1_555 1_555
C5 C6 1_555 1_555
C1B C2B 1_555 1_555
C5B C6B 1_555 1_555

#END
