
#######################################################################
#
#                 Cambridge Crystallographic Data Centre
#                                CCDC 
#
#######################################################################
#
# If this CIF has been generated from an entry in the Cambridge 
# Structural Database, then it will include bibliographic, chemical, 
# crystal, experimental, refinement or atomic coordinate data resulting 
# from the CCDC's data processing and validation procedures.
#
#######################################################################

data_REXBAA
_chemical_formula_moiety         'C12 H16 Cl2 N2 P2'
_chemical_name_systematic        
6,12-dichloro-2,3,4,7,8,9,10,12-octahydro-1H,6H-[1,2,3]benzodiazaphospholo[2,1-a][1,2,3]benzodiazaphosphole
_symmetry_cell_setting           triclinic
_symmetry_space_group_name_H-M   'P -1'
_symmetry_Int_Tables_number      2
_space_group_name_Hall           '-P 1'
loop_
_symmetry_equiv_pos_site_id
_symmetry_equiv_pos_as_xyz
1 x,y,z
2 -x,-y,-z
_cell_length_a                   5.1570(4)
_cell_length_b                   8.1788(7)
_cell_length_c                   8.8592(7)
_cell_angle_alpha                95.8480(10)
_cell_angle_beta                 93.3710(10)
_cell_angle_gamma                95.5400(10)
_cell_volume                     369.093
_exptl_crystal_colour            brown
_exptl_crystal_description       prism
_cell_formula_units_Z            1
loop_
_atom_site_label
_atom_site_type_symbol
_atom_site_fract_x
_atom_site_fract_y
_atom_site_fract_z
Cl1 Cl 0.49234(16) -0.70320(10) 0.31416(8)
P1 P 0.73909(7) -0.63975(4) 0.12351(4)
N1 N 0.5201(2) -0.58428(14) -0.00768(14)
C1 C 0.3284(3) -0.67148(16) -0.10976(15)
C2 C 0.3103(3) -0.85627(16) -0.13372(16)
H1 H 0.3219 -0.9011 -0.0342
H2 H 0.4573 -0.8913 -0.1919
C3 C 0.0508(3) -0.92391(18) -0.22111(19)
H3 H 0.0567 -1.0418 -0.2582
H4 H -0.0926 -0.9166 -0.1519
C4 C -0.0036(3) -0.82745(19) -0.35540(18)
H5 H -0.1661 -0.8786 -0.4135
H6 H 0.1410 -0.8342 -0.4238
C5 C -0.0320(3) -0.64564(17) -0.30565(16)
H7 H -0.0143 -0.5812 -0.3939
H8 H -0.2079 -0.6355 -0.2687
C6 C 0.1722(3) -0.57635(16) -0.18132(15)
Cl1A Cl 0.50766(16) -0.29680(10) -0.31416(8)
P1A P 0.26091(7) -0.36025(4) -0.12351(4)
N1A N 0.4799(2) -0.41572(14) 0.00768(14)
C1A C 0.6716(3) -0.32852(16) 0.10976(15)
C2A C 0.6897(3) -0.14373(16) 0.13372(16)
H1A H 0.6781 -0.0989 0.0342
H2A H 0.5427 -0.1087 0.1919
C3A C 0.9492(3) -0.07609(18) 0.22111(19)
H3A H 0.9433 0.0418 0.2582
H4A H 1.0926 -0.0834 0.1519
C4A C 1.0036(3) -0.17255(19) 0.35540(18)
H5A H 1.1661 -0.1214 0.4135
H6A H 0.8590 -0.1658 0.4238
C5A C 1.0320(3) -0.35436(17) 0.30565(16)
H7A H 1.0143 -0.4188 0.3939
H8A H 1.2079 -0.3645 0.2687
C6A C 0.8278(3) -0.42365(16) 0.18132(15)
I1? I 0.47073(6) -0.71351(4) 0.34037(4)
I2? I 0.46614(18) -0.71269(13) 0.33809(9)
loop_
_geom_bond_atom_site_label_1
_geom_bond_atom_site_label_2
_geom_bond_site_symmetry_1
_geom_bond_site_symmetry_2
Cl1 P1 1_555 1_555
P1 N1 1_555 1_555
N1 C1 1_555 1_555
C1 C2 1_555 1_555
C2 H1 1_555 1_555
H2 C2 1_555 1_555
C3 C2 1_555 1_555
H3 C3 1_555 1_555
H4 C3 1_555 1_555
C4 C3 1_555 1_555
H5 C4 1_555 1_555
H6 C4 1_555 1_555
C5 C4 1_555 1_555
H7 C5 1_555 1_555
H8 C5 1_555 1_555
C6 C1 1_555 1_555
Cl1A P1A 1_555 1_555
P1A C6 1_555 1_555
N1A N1 1_555 1_555
C1A N1A 1_555 1_555
C2A C1A 1_555 1_555
H1A C2A 1_555 1_555
H2A C2A 1_555 1_555
C3A C2A 1_555 1_555
H3A C3A 1_555 1_555
H4A C3A 1_555 1_555
C4A C3A 1_555 1_555
H5A C4A 1_555 1_555
H6A C4A 1_555 1_555
C5A C4A 1_555 1_555
H7A C5A 1_555 1_555
H8A C5A 1_555 1_555
C6A P1 1_555 1_555
C5 C6 1_555 1_555
P1A N1A 1_555 1_555
C1A C6A 1_555 1_555
C5A C6A 1_555 1_555

#END
