
#######################################################################
#
#                 Cambridge Crystallographic Data Centre
#                                CCDC 
#
#######################################################################
#
# If this CIF has been generated from an entry in the Cambridge 
# Structural Database, then it will include bibliographic, chemical, 
# crystal, experimental, refinement or atomic coordinate data resulting 
# from the CCDC's data processing and validation procedures.
#
#######################################################################

data_REXCIH
_chemical_formula_moiety         'C18 H20 N6 2+,2(Cl1 1-),2(H2 O1)'
_chemical_name_systematic        
'2,3-bis((3-Methylimidazolium-1-yl)methyl)quinoxaline dichloride dihydrate'
_symmetry_cell_setting           triclinic
_symmetry_space_group_name_H-M   'P -1'
_symmetry_Int_Tables_number      2
_space_group_name_Hall           '-P 1'
loop_
_symmetry_equiv_pos_site_id
_symmetry_equiv_pos_as_xyz
1 x,y,z
2 -x,-y,-z
_cell_length_a                   8.5660(9)
_cell_length_b                   10.4258(10)
_cell_length_c                   13.2635(13)
_cell_angle_alpha                67.104(2)
_cell_angle_beta                 78.612(2)
_cell_angle_gamma                70.403(2)
_cell_volume                     1024.93
_exptl_crystal_colour            colorless
_exptl_crystal_description       stick
_cell_formula_units_Z            2
_exptl_crystal_preparation       fluorescent
loop_
_atom_site_label
_atom_site_type_symbol
_atom_site_fract_x
_atom_site_fract_y
_atom_site_fract_z
O1 O 0.3946(4) 0.4116(3) 0.9269(2)
H1 H 0.314(5) 0.507(5) 0.932(3)
H2 H 0.470(5) 0.443(5) 0.887(3)
O2 O 0.2070(3) 0.7621(3) 0.1577(2)
H3 H 0.268(4) 0.675(4) 0.188(3)
H4 H 0.188(5) 0.736(5) 0.103(3)
Cl1 Cl 0.36982(8) 0.43805(8) 0.30586(6)
Cl2 Cl 0.87045(9) 0.30401(8) 0.04138(6)
C1 C 0.9218(3) 0.8606(3) 0.50066(19)
C2 C 0.9871(3) 0.9011(3) 0.39032(19)
H5 H 1.0884 0.8444 0.3699
C3 C 0.9019(3) 1.0228(3) 0.3141(2)
H6 H 0.9463 1.0496 0.2416
C4 C 0.7483(3) 1.1088(3) 0.3428(2)
H7 H 0.6910 1.1912 0.2891
C5 C 0.6820(3) 1.0727(3) 0.4488(2)
H8 H 0.5789 1.1294 0.4670
C6 C 0.7695(3) 0.9494(3) 0.53087(19)
C7 C 0.7924(3) 0.8004(3) 0.70960(19)
C8 C 0.7319(3) 0.7610(3) 0.83029(19)
H9 H 0.6884 0.6785 0.8524
H10 H 0.8249 0.7327 0.8735
C9 C 0.4426(3) 0.8911(3) 0.87567(18)
H11 H 0.3944 0.8196 0.8836
C10 C 0.6253(3) 1.0080(3) 0.84760(19)
H12 H 0.7255 1.0308 0.8318
C11 C 0.4760(3) 1.0925(3) 0.86988(19)
H13 H 0.4536 1.1841 0.8738
C12 C 0.9397(3) 0.7036(3) 0.67790(19)
C13 C 1.0238(3) 0.5607(3) 0.76174(19)
H14 H 1.0825 0.5781 0.8085
H15 H 0.9407 0.5144 0.8077
C14 C 1.3021(3) 0.4497(3) 0.68689(19)
H16 H 1.3617 0.4897 0.7122
C15 C 1.0978(3) 0.3954(3) 0.6528(2)
H17 H 0.9915 0.3917 0.6509
C16 C 1.2377(3) 0.3340(3) 0.6029(2)
H18 H 1.2468 0.2779 0.5608
C17 C 1.5404(3) 0.3214(3) 0.5874(2)
H19 H 1.6022 0.3688 0.6071
H20 H 1.5509 0.3467 0.5092
H21 H 1.5831 0.2181 0.6216
C18 C 0.1837(3) 1.0706(3) 0.9120(2)
H22 H 0.1289 1.1257 0.8453
H23 H 0.1637 1.1311 0.9551
H24 H 0.1412 0.9890 0.9530
N1 N 1.0047(2) 0.7346(2) 0.57710(15)
N2 N 0.7085(2) 0.9180(2) 0.63918(15)
N3 N 0.6027(2) 0.8824(2) 0.85240(15)
N4 N 0.3630(2) 1.0186(2) 0.88572(16)
N5 N 1.1410(2) 0.4647(2) 0.70703(16)
N6 N 1.3649(2) 0.3682(2) 0.62479(16)
loop_
_geom_bond_atom_site_label_1
_geom_bond_atom_site_label_2
_geom_bond_site_symmetry_1
_geom_bond_site_symmetry_2
O1 H1 1_555 1_555
H2 O1 1_555 1_555
O2 H3 1_555 1_555
H4 O2 1_555 1_555
C1 C2 1_555 1_555
C2 H5 1_555 1_555
C3 C2 1_555 1_555
H6 C3 1_555 1_555
C4 C3 1_555 1_555
H7 C4 1_555 1_555
C5 C4 1_555 1_555
H8 C5 1_555 1_555
C6 C1 1_555 1_555
C7 C8 1_555 1_555
C8 H9 1_555 1_555
H10 C8 1_555 1_555
C9 H11 1_555 1_555
C10 H12 1_555 1_555
C11 C10 1_555 1_555
H13 C11 1_555 1_555
C12 C7 1_555 1_555
C13 C12 1_555 1_555
H14 C13 1_555 1_555
H15 C13 1_555 1_555
C14 H16 1_555 1_555
C15 H17 1_555 1_555
C16 C15 1_555 1_555
H18 C16 1_555 1_555
C17 H19 1_555 1_555
H20 C17 1_555 1_555
H21 C17 1_555 1_555
C18 H22 1_555 1_555
H23 C18 1_555 1_555
H24 C18 1_555 1_555
N1 C1 1_555 1_555
N2 C6 1_555 1_555
N3 C8 1_555 1_555
N4 C9 1_555 1_555
N5 C13 1_555 1_555
N6 C14 1_555 1_555
C5 C6 1_555 1_555
C7 N2 1_555 1_555
C9 N3 1_555 1_555
C10 N3 1_555 1_555
C11 N4 1_555 1_555
C12 N1 1_555 1_555
C14 N5 1_555 1_555
C15 N5 1_555 1_555
C16 N6 1_555 1_555
C17 N6 1_555 1_555
C18 N4 1_555 1_555

#END
