
#######################################################################
#
#                 Cambridge Crystallographic Data Centre
#                                CCDC 
#
#######################################################################
#
# If this CIF has been generated from an entry in the Cambridge 
# Structural Database, then it will include bibliographic, chemical, 
# crystal, experimental, refinement or atomic coordinate data resulting 
# from the CCDC's data processing and validation procedures.
#
#######################################################################

data_REXCUT
_chemical_formula_moiety         'C26 H22 N8 2+,2(F6 P1 1-),C2 H3 N1'
_chemical_name_systematic        
'1,5(2,3)-Diquinoxalina-3,7(1,3)-diimidazolacyclooctaphane-3^1^,7^1^-diium bis(hexafluorophosphate) acetonitrile solvate'
_symmetry_cell_setting           monoclinic
_symmetry_space_group_name_H-M   'P 21/n'
_symmetry_Int_Tables_number      14
_space_group_name_Hall           '-P 2yn'
loop_
_symmetry_equiv_pos_site_id
_symmetry_equiv_pos_as_xyz
1 x,y,z
2 1/2-x,1/2+y,1/2-z
3 -x,-y,-z
4 1/2+x,1/2-y,1/2+z
_cell_length_a                   8.864(2)
_cell_length_b                   14.148(4)
_cell_length_c                   26.155(7)
_cell_angle_alpha                90
_cell_angle_beta                 98.236(6)
_cell_angle_gamma                90
_cell_volume                     3246.21
_exptl_crystal_colour            colorless
_exptl_crystal_description       needle
_cell_formula_units_Z            4
loop_
_atom_site_label
_atom_site_type_symbol
_atom_site_fract_x
_atom_site_fract_y
_atom_site_fract_z
N1 N 0.2710(5) 0.1206(2) 0.06423(16)
N2 N 0.2573(5) 0.0448(2) 0.13476(16)
N3 N 0.4802(4) 0.2764(3) 0.13193(16)
N4 N 0.4737(4) 0.2003(3) 0.20289(16)
N5 N 0.3660(5) 0.4210(3) 0.03464(17)
N6 N 0.2062(5) 0.2827(3) -0.02843(17)
N7 N 0.3196(5) 0.1279(3) 0.30162(17)
N8 N 0.1271(5) 0.0007(3) 0.24039(17)
C1 C 0.3454(6) 0.0643(3) 0.0991(2)
H1 H 0.4438 0.0418 0.0988
C2 C 0.1300(6) 0.1376(3) 0.0775(2)
H2 H 0.0542 0.1751 0.0595
C3 C 0.1208(6) 0.0904(3) 0.1210(2)
H3 H 0.0373 0.0887 0.1388
C4 C 0.2998(7) -0.0174(3) 0.1791(2)
H4 H 0.4085 -0.0297 0.1831
H5 H 0.2471 -0.0773 0.1730
C5 C 0.2600(6) 0.0261(3) 0.2280(2)
C6 C 0.0859(6) 0.0387(3) 0.2840(2)
C7 C -0.0578(7) 0.0150(4) 0.2982(2)
H6 H -0.1229 -0.0256 0.2775
C8 C -0.1002(7) 0.0517(4) 0.3420(3)
H7 H -0.1945 0.0361 0.3513
C9 C -0.0022(8) 0.1130(4) 0.3733(3)
H8 H -0.0325 0.1371 0.4033
C10 C 0.1361(7) 0.1377(4) 0.3606(2)
H9 H 0.2000 0.1783 0.3817
C11 C 0.1813(6) 0.1009(3) 0.3149(2)
C12 C 0.3559(6) 0.0915(3) 0.2582(2)
C13 C 0.5052(6) 0.1282(4) 0.2437(2)
H10 H 0.5663 0.1554 0.2738
H11 H 0.5621 0.0764 0.2314
C14 C 0.5425(5) 0.2069(3) 0.16139(19)
H12 H 0.6220 0.1687 0.1541
C15 C 0.3632(6) 0.2686(3) 0.2000(2)
H13 H 0.2977 0.2799 0.2241
C16 C 0.3675(6) 0.3158(3) 0.1561(2)
H14 H 0.3053 0.3664 0.1440
C17 C 0.5271(6) 0.3079(4) 0.0826(2)
H15 H 0.5882 0.2588 0.0697
H16 H 0.5902 0.3639 0.0889
C18 C 0.3946(6) 0.3298(4) 0.0424(2)
C19 C 0.2540(6) 0.4454(3) -0.0040(2)
C20 C 0.2184(7) 0.5415(4) -0.0134(2)
H17 H 0.2682 0.5879 0.0080
C21 C 0.1114(7) 0.5664(4) -0.0536(2)
H18 H 0.0878 0.6299 -0.0594
C22 C 0.0367(7) 0.4981(4) -0.0862(2)
H19 H -0.0344 0.5168 -0.1140
C23 C 0.0662(6) 0.4043(4) -0.0780(2)
H20 H 0.0130 0.3592 -0.0993
C24 C 0.1769(6) 0.3767(3) -0.0373(2)
C25 C 0.3095(6) 0.2600(3) 0.0100(2)
C26 C 0.3324(7) 0.1542(3) 0.0180(2)
H21 H 0.2822 0.1209 -0.0121
H22 H 0.4404 0.1398 0.0216
P1 P 0.25171(18) 0.84415(10) 0.02413(7)
F1 F 0.3817(4) 0.76528(19) 0.02700(12)
F2 F 0.1253(4) 0.9233(2) 0.02101(16)
F3 F 0.3769(4) 0.9240(2) 0.02265(16)
F4 F 0.2725(5) 0.8506(2) 0.08461(14)
F5 F 0.1284(4) 0.7653(2) 0.02362(19)
F6 F 0.2357(5) 0.8385(2) -0.03710(13)
P2 P 0.92656(18) 0.31602(10) 0.21567(7)
F7 F 0.7990(4) 0.3394(3) 0.16835(15)
F8 F 1.0526(5) 0.3576(3) 0.18574(19)
F9 F 0.9052(5) 0.4168(3) 0.2373(2)
F10 F 0.8013(5) 0.2773(3) 0.24560(17)
F11 F 0.9503(6) 0.2178(3) 0.1946(2)
F12 F 1.0539(4) 0.2956(3) 0.26306(16)
N9 N 0.6991(7) 1.0010(4) 0.1433(3)
C27 C 0.7659(9) 0.9356(5) 0.1435(3)
C28 C 0.8579(11) 0.8486(5) 0.1472(3)
H23 H 0.9276 0.8489 0.1788
H24 H 0.9142 0.8454 0.1185
H25 H 0.7919 0.7947 0.1466
loop_
_geom_bond_atom_site_label_1
_geom_bond_atom_site_label_2
_geom_bond_site_symmetry_1
_geom_bond_site_symmetry_2
N1 C1 1_555 1_555
N2 C1 1_555 1_555
N3 C14 1_555 1_555
N4 C13 1_555 1_555
N5 C18 1_555 1_555
N6 C24 1_555 1_555
N7 C11 1_555 1_555
N8 C5 1_555 1_555
C1 H1 1_555 1_555
C2 N1 1_555 1_555
H2 C2 1_555 1_555
C3 N2 1_555 1_555
H3 C3 1_555 1_555
C4 N2 1_555 1_555
H4 C4 1_555 1_555
H5 C4 1_555 1_555
C5 C4 1_555 1_555
C6 N8 1_555 1_555
C7 C6 1_555 1_555
H6 C7 1_555 1_555
C8 C7 1_555 1_555
H7 C8 1_555 1_555
C9 C8 1_555 1_555
H8 C9 1_555 1_555
C10 C9 1_555 1_555
H9 C10 1_555 1_555
C11 C6 1_555 1_555
C12 N7 1_555 1_555
C13 C12 1_555 1_555
H10 C13 1_555 1_555
H11 C13 1_555 1_555
C14 N4 1_555 1_555
H12 C14 1_555 1_555
C15 N4 1_555 1_555
H13 C15 1_555 1_555
C16 N3 1_555 1_555
H14 C16 1_555 1_555
C17 N3 1_555 1_555
H15 C17 1_555 1_555
H16 C17 1_555 1_555
C18 C17 1_555 1_555
C19 N5 1_555 1_555
C20 C19 1_555 1_555
H17 C20 1_555 1_555
C21 C20 1_555 1_555
H18 C21 1_555 1_555
C22 C21 1_555 1_555
H19 C22 1_555 1_555
C23 C22 1_555 1_555
H20 C23 1_555 1_555
C24 C19 1_555 1_555
C25 N6 1_555 1_555
C26 N1 1_555 1_555
H21 C26 1_555 1_555
H22 C26 1_555 1_555
P1 F1 1_555 1_555
F2 P1 1_555 1_555
F3 P1 1_555 1_555
F4 P1 1_555 1_555
F5 P1 1_555 1_555
F6 P1 1_555 1_555
P2 F7 1_555 1_555
F8 P2 1_555 1_555
F9 P2 1_555 1_555
F10 P2 1_555 1_555
F11 P2 1_555 1_555
F12 P2 1_555 1_555
N9 C27 1_555 1_555
C27 C28 1_555 1_555
C28 H23 1_555 1_555
H24 C28 1_555 1_555
H25 C28 1_555 1_555
C2 C3 1_555 1_555
C5 C12 1_555 1_555
C10 C11 1_555 1_555
C15 C16 1_555 1_555
C18 C25 1_555 1_555
C23 C24 1_555 1_555
C25 C26 1_555 1_555

#END
