
#######################################################################
#
#                 Cambridge Crystallographic Data Centre
#                                CCDC 
#
#######################################################################
#
# If this CIF has been generated from an entry in the Cambridge 
# Structural Database, then it will include bibliographic, chemical, 
# crystal, experimental, refinement or atomic coordinate data resulting 
# from the CCDC's data processing and validation procedures.
#
#######################################################################

data_REXCAZ
_chemical_formula_moiety         'C20 H17 I1 O4'
_chemical_name_systematic        
'(E)-Dimethyl 1-(iodo(phenyl)methylene)-1H-indene-2,2(3H)-dicarboxylate'
_symmetry_cell_setting           triclinic
_symmetry_space_group_name_H-M   'P -1'
_symmetry_Int_Tables_number      2
_space_group_name_Hall           '-P 1'
loop_
_symmetry_equiv_pos_site_id
_symmetry_equiv_pos_as_xyz
1 x,y,z
2 -x,-y,-z
_cell_length_a                   7.615(16)
_cell_length_b                   9.91(2)
_cell_length_c                   12.33(2)
_cell_angle_alpha                98.11(2)
_cell_angle_beta                 96.80(2)
_cell_angle_gamma                96.62(3)
_cell_volume                     906.411
_chemical_melting_point          '117-118 deg.C'
_cell_formula_units_Z            2
loop_
_atom_site_label
_atom_site_type_symbol
_atom_site_fract_x
_atom_site_fract_y
_atom_site_fract_z
I1 I 0.77173(8) 0.59007(6) 0.54038(4)
O1 O 0.4915(10) 0.0544(8) 0.1535(6)
O2 O 0.3783(10) 0.2308(8) 0.2373(6)
O3 O 0.9540(9) 0.3346(8) 0.2001(6)
O4 O 0.7034(10) 0.2901(8) 0.0802(5)
C1 C 0.5034(14) 0.1734(10) 0.2175(7)
C2 C 0.3122(17) -0.0063(13) 0.1014(10)
H1 H 0.3180 -0.0928 0.0566
H2 H 0.2628 0.0547 0.0557
H3 H 0.2378 -0.0208 0.1575
C3 C 0.7817(13) 0.2902(10) 0.1703(7)
C4 C 1.0459(17) 0.3953(16) 0.1190(10)
H4 H 1.1691 0.4238 0.1486
H5 H 0.9919 0.4737 0.1011
H6 H 1.0379 0.3288 0.0533
C5 C 0.6990(12) 0.2306(9) 0.2631(7)
C6 C 0.8014(14) 0.1126(10) 0.2996(8)
H7 H 0.7575 0.0255 0.2525
H8 H 0.9287 0.1336 0.2982
C7 C 0.7609(12) 0.1102(10) 0.4143(8)
C8 C 0.7723(14) 0.0035(11) 0.4761(9)
H9 H 0.8122 -0.0778 0.4479
C9 C 0.7227(15) 0.0221(12) 0.5799(10)
H10 H 0.7272 -0.0480 0.6226
C10 C 0.6664(14) 0.1440(12) 0.6217(9)
H11 H 0.6316 0.1540 0.6918
C11 C 0.6606(12) 0.2501(11) 0.5623(7)
H12 H 0.6260 0.3328 0.5923
C12 C 0.7071(11) 0.2321(9) 0.4568(7)
C13 C 0.7085(12) 0.3292(10) 0.3717(6)
C14 C 0.7257(11) 0.4651(9) 0.3848(6)
C15 C 0.7123(12) 0.5518(9) 0.2932(7)
C16 C 0.8603(14) 0.6477(11) 0.2832(9)
H13 H 0.9658 0.6576 0.3317
C17 C 0.8434(19) 0.7267(12) 0.1988(11)
H14 H 0.9395 0.7900 0.1911
C18 C 0.689(2) 0.7139(13) 0.1266(10)
H15 H 0.6803 0.7666 0.0699
C19 C 0.548(2) 0.6229(14) 0.1391(9)
H16 H 0.4415 0.6155 0.0914
C20 C 0.5577(14) 0.5410(11) 0.2210(8)
H17 H 0.4598 0.4786 0.2272
loop_
_geom_bond_atom_site_label_1
_geom_bond_atom_site_label_2
_geom_bond_site_symmetry_1
_geom_bond_site_symmetry_2
I1 C14 1_555 1_555
O1 C1 1_555 1_555
O2 C1 1_555 1_555
O3 C3 1_555 1_555
O4 C3 1_555 1_555
C1 C5 1_555 1_555
C2 O1 1_555 1_555
H1 C2 1_555 1_555
H2 C2 1_555 1_555
H3 C2 1_555 1_555
C3 C5 1_555 1_555
C4 O3 1_555 1_555
H4 C4 1_555 1_555
H5 C4 1_555 1_555
H6 C4 1_555 1_555
C5 C6 1_555 1_555
C6 H7 1_555 1_555
H8 C6 1_555 1_555
C7 C6 1_555 1_555
C8 C7 1_555 1_555
H9 C8 1_555 1_555
C9 C8 1_555 1_555
H10 C9 1_555 1_555
C10 C9 1_555 1_555
H11 C10 1_555 1_555
C11 C10 1_555 1_555
H12 C11 1_555 1_555
C12 C7 1_555 1_555
C13 C5 1_555 1_555
C14 C13 1_555 1_555
C15 C14 1_555 1_555
C16 C15 1_555 1_555
H13 C16 1_555 1_555
C17 C16 1_555 1_555
H14 C17 1_555 1_555
C18 C17 1_555 1_555
H15 C18 1_555 1_555
C19 C18 1_555 1_555
H16 C19 1_555 1_555
C20 C15 1_555 1_555
H17 C20 1_555 1_555
C11 C12 1_555 1_555
C12 C13 1_555 1_555
C19 C20 1_555 1_555

#END
