
#######################################################################
#
#                 Cambridge Crystallographic Data Centre
#                                CCDC 
#
#######################################################################
#
# If this CIF has been generated from an entry in the Cambridge 
# Structural Database, then it will include bibliographic, chemical, 
# crystal, experimental, refinement or atomic coordinate data resulting 
# from the CCDC's data processing and validation procedures.
#
#######################################################################

data_REXCON
_chemical_formula_moiety         'C18 H20 N6 2+,2(F6 P1 1-)'
_chemical_name_systematic        
'2,3-bis((3-Methylimidazolium-1-yl)methyl)quinoxaline bis(hexafluorophosphate)'
_symmetry_cell_setting           monoclinic
_symmetry_space_group_name_H-M   'P 21/c'
_symmetry_Int_Tables_number      14
_space_group_name_Hall           '-P 2ybc'
loop_
_symmetry_equiv_pos_site_id
_symmetry_equiv_pos_as_xyz
1 x,y,z
2 -x,1/2+y,1/2-z
3 -x,-y,-z
4 x,1/2-y,1/2+z
_cell_length_a                   12.984(2)
_cell_length_b                   13.335(2)
_cell_length_c                   15.314(3)
_cell_angle_alpha                90
_cell_angle_beta                 111.969(3)
_cell_angle_gamma                90
_cell_volume                     2458.96
_exptl_crystal_colour            colorless
_cell_formula_units_Z            4
loop_
_atom_site_label
_atom_site_type_symbol
_atom_site_fract_x
_atom_site_fract_y
_atom_site_fract_z
N1 N 0.48686(15) 0.97302(15) 0.33285(13)
N2 N 0.65518(15) 0.92753(15) 0.50657(12)
N3 N 0.50428(16) 1.10324(15) 0.20846(13)
N4 N 0.34368(17) 1.12709(15) 0.09953(13)
N5 N 0.86095(15) 0.99682(15) 0.56301(13)
N6 N 0.94248(16) 0.93415(16) 0.70144(13)
C1 C 0.58057(17) 1.02159(17) 0.36308(15)
C2 C 0.66796(18) 0.99721(16) 0.45149(15)
C3 C 0.55683(19) 0.87578(17) 0.47610(16)
C4 C 0.5407(2) 0.7983(2) 0.53231(18)
H1 H 0.5957 0.7843 0.5915
C5 C 0.4447(2) 0.7437(2) 0.5004(2)
H2 H 0.4340 0.6920 0.5378
C6 C 0.3614(2) 0.7642(2) 0.4116(2)
H3 H 0.2959 0.7258 0.3904
C7 C 0.3752(2) 0.8394(2) 0.35629(19)
H4 H 0.3196 0.8525 0.2971
C8 C 0.47296(18) 0.89709(17) 0.38830(15)
C9 C 0.5955(2) 1.1040(2) 0.30064(17)
H5 H 0.5979 1.1691 0.3309
H6 H 0.6661 1.0944 0.2924
C10 C 0.4118(2) 1.15637(19) 0.18412(17)
H7 H 0.3969 1.2066 0.2208
C11 C 0.4945(2) 1.0360(2) 0.13818(18)
H8 H 0.5475 0.9882 0.1379
C12 C 0.3940(2) 1.0515(2) 0.06931(17)
H9 H 0.3643 1.0171 0.0117
C13 C 0.2319(2) 1.1673(2) 0.0465(2)
H10 H 0.2049 1.2022 0.0893
H11 H 0.1820 1.1125 0.0166
H12 H 0.2353 1.2136 -0.0012
C14 C 0.7791(2) 1.05107(19) 0.48411(16)
H13 H 0.8052 1.0555 0.4319
H14 H 0.7704 1.1194 0.5039
C15 C 0.87626(19) 1.00683(19) 0.65310(16)
H15 H 0.8452 1.0573 0.6785
C16 C 0.9188(2) 0.9137(2) 0.55377(18)
H16 H 0.9224 0.8888 0.4976
C17 C 0.9690(2) 0.8752(2) 0.64024(19)
H17 H 1.0144 0.8178 0.6558
C18 C 0.9836(3) 0.9196(2) 0.80427(18)
H18 H 0.9397 0.9597 0.8304
H19 H 1.0608 0.9401 0.8321
H20 H 0.9774 0.8493 0.8180
P1 P 0.79728(5) 0.87112(5) 0.24601(4)
F1 F 0.8866(2) 0.87110(18) 0.19898(18)
F2 F 0.7082(2) 0.87215(16) 0.29463(19)
F3 F 0.78102(16) 0.75365(14) 0.23072(15)
F4 F 0.7009(2) 0.89013(18) 0.14781(14)
F5 F 0.8093(2) 0.98900(16) 0.2620(2)
F6 F 0.8940(2) 0.8524(2) 0.34362(15)
P2 P 0.15588(6) 0.84490(5) 0.07604(5)
F7 F 0.2155(4) 0.9397(4) 0.1355(4)
F8 F 0.0912(5) 0.7525(4) 0.0207(4)
F9 F 0.2841(6) 0.8350(7) 0.1044(7)
F10 F 0.1917(4) 0.8743(6) -0.0086(3)
F11 F 0.0455(5) 0.9078(6) 0.0281(4)
F12 F 0.1759(5) 0.7442(5) 0.1374(5)
F13? F 0.2679(8) 0.7890(7) 0.1212(5)
F14? F 0.1701(10) 0.9036(12) 0.1630(5)
F15? F 0.1443(6) 0.9347(4) 0.0134(4)
F16? F 0.0328(4) 0.8411(8) 0.0505(7)
F17? F 0.1501(9) 0.7776(7) -0.0138(5)
F18? F 0.1267(6) 0.8199(6) 0.1646(4)
loop_
_geom_bond_atom_site_label_1
_geom_bond_atom_site_label_2
_geom_bond_site_symmetry_1
_geom_bond_site_symmetry_2
N1 C1 1_555 1_555
N2 C2 1_555 1_555
N3 C9 1_555 1_555
N4 C10 1_555 1_555
N5 C14 1_555 1_555
N6 C15 1_555 1_555
C1 C2 1_555 1_555
C2 C14 1_555 1_555
C3 N2 1_555 1_555
C4 C3 1_555 1_555
H1 C4 1_555 1_555
C5 C4 1_555 1_555
H2 C5 1_555 1_555
C6 C5 1_555 1_555
H3 C6 1_555 1_555
C7 C6 1_555 1_555
H4 C7 1_555 1_555
C8 N1 1_555 1_555
C9 C1 1_555 1_555
H5 C9 1_555 1_555
H6 C9 1_555 1_555
C10 N3 1_555 1_555
H7 C10 1_555 1_555
C11 N3 1_555 1_555
H8 C11 1_555 1_555
C12 N4 1_555 1_555
H9 C12 1_555 1_555
C13 N4 1_555 1_555
H10 C13 1_555 1_555
H11 C13 1_555 1_555
H12 C13 1_555 1_555
C14 H13 1_555 1_555
H14 C14 1_555 1_555
C15 N5 1_555 1_555
H15 C15 1_555 1_555
C16 N5 1_555 1_555
H16 C16 1_555 1_555
C17 N6 1_555 1_555
H17 C17 1_555 1_555
C18 N6 1_555 1_555
H18 C18 1_555 1_555
H19 C18 1_555 1_555
H20 C18 1_555 1_555
P1 F1 1_555 1_555
F2 P1 1_555 1_555
F3 P1 1_555 1_555
F4 P1 1_555 1_555
F5 P1 1_555 1_555
F6 P1 1_555 1_555
P2 F7 1_555 1_555
F8 P2 1_555 1_555
F9 P2 1_555 1_555
F10 P2 1_555 1_555
F11 P2 1_555 1_555
F12 P2 1_555 1_555
C3 C8 1_555 1_555
C7 C8 1_555 1_555
C11 C12 1_555 1_555
C16 C17 1_555 1_555

#END
