
#######################################################################
#
#                 Cambridge Crystallographic Data Centre
#                                CCDC 
#
#######################################################################
#
# If this CIF has been generated from an entry in the Cambridge 
# Structural Database, then it will include bibliographic, chemical, 
# crystal, experimental, refinement or atomic coordinate data resulting 
# from the CCDC's data processing and validation procedures.
#
#######################################################################

data_REXDOO
_chemical_formula_moiety         'C48 H60 O8 S4'
_chemical_name_systematic        
25,27:26,28-bis(6,9-Dioxa-3,12-dithiatetradecane-1,14-dioxy)calix(4)arene
_symmetry_cell_setting           orthorhombic
_symmetry_space_group_name_H-M   'P c a 21'
_symmetry_Int_Tables_number      29
_space_group_name_Hall           'P 2c -2ac'
loop_
_symmetry_equiv_pos_site_id
_symmetry_equiv_pos_as_xyz
1 x,y,z
2 -x,-y,1/2+z
3 1/2+x,-y,z
4 1/2-x,y,1/2+z
_cell_length_a                   18.5095(16)
_cell_length_b                   11.1086(10)
_cell_length_c                   22.850(2)
_cell_angle_alpha                90
_cell_angle_beta                 90
_cell_angle_gamma                90
_cell_volume                     4698.29
_exptl_crystal_colour            colorless
_exptl_crystal_description       plate
_cell_formula_units_Z            4
_exptl_crystal_recrystallization_method acetonitrile/chloroform
loop_
_atom_site_label
_atom_site_type_symbol
_atom_site_fract_x
_atom_site_fract_y
_atom_site_fract_z
S1 S 0.20885(12) -0.20920(15) 0.20279(9)
S2 S -0.05837(11) -0.0029(2) 0.26457(11)
S3 S 0.21876(11) 0.68234(15) 0.01615(9)
S4 S -0.02124(11) 0.42949(19) -0.13792(10)
O1 O 0.17923(17) 0.0725(3) 0.09700(14)
O2 O 0.2026(2) -0.0591(4) 0.3619(2)
O3 O 0.0405(3) 0.0148(5) 0.3736(2)
O4 O 0.01797(17) 0.2541(3) 0.16243(16)
O5 O 0.17455(17) 0.3938(3) 0.11132(14)
O6 O 0.1909(3) 0.6201(4) -0.1550(2)
O7 O 0.0861(4) 0.4770(8) -0.2311(3)
O8 O 0.04177(19) 0.2395(3) 0.00150(16)
C1 C 0.1832(3) 0.1152(4) -0.0044(2)
C2 C 0.2125(3) 0.1806(6) -0.0503(3)
H1 H 0.1940 0.1707 -0.0879
C3 C 0.2687(4) 0.2600(5) -0.0411(3)
H2 H 0.2883 0.3024 -0.0724
C4 C 0.2952(3) 0.2762(5) 0.0140(3)
H3 H 0.3329 0.3303 0.0196
C5 C 0.2680(2) 0.2150(4) 0.0617(2)
C6 C 0.2116(2) 0.1331(4) 0.0510(2)
C7 C 0.2981(2) 0.2378(5) 0.1216(2)
H4 H 0.3305 0.3062 0.1189
H5 H 0.3272 0.1686 0.1324
C8 C 0.2454(2) 0.2619(4) 0.1713(2)
C9 C 0.2540(3) 0.2051(5) 0.2249(3)
H6 H 0.2913 0.1497 0.2296
C10 C 0.2094(4) 0.2283(5) 0.2709(3)
H7 H 0.2163 0.1893 0.3065
C11 C 0.1538(3) 0.3105(5) 0.2644(3)
H8 H 0.1236 0.3267 0.2959
C12 C 0.1422(3) 0.3698(4) 0.2111(2)
C13 C 0.1881(2) 0.3439(4) 0.1655(2)
C14 C 0.0830(3) 0.4634(4) 0.2078(2)
H9 H 0.0529 0.4538 0.2422
H10 H 0.1058 0.5419 0.2107
C15 C 0.0342(3) 0.4660(4) 0.1556(2)
C16 C 0.0201(3) 0.5723(5) 0.1267(3)
H11 H 0.0432 0.6427 0.1384
C17 C -0.0277(3) 0.5752(5) 0.0811(3)
H12 H -0.0370 0.6482 0.0627
C18 C -0.0623(3) 0.4731(5) 0.0617(3)
H13 H -0.0941 0.4770 0.0303
C19 C -0.0491(3) 0.3632(4) 0.0900(3)
C20 C -0.0012(3) 0.3623(4) 0.1368(2)
C21 C -0.0897(3) 0.2512(5) 0.0704(3)
H14 H -0.1264 0.2337 0.0995
H15 H -0.1145 0.2702 0.0342
C22 C -0.0460(3) 0.1372(4) 0.0605(3)
C23 C -0.0691(3) 0.0302(5) 0.0859(3)
H16 H -0.1110 0.0298 0.1084
C24 C -0.0315(3) -0.0745(5) 0.0785(3)
H17 H -0.0484 -0.1455 0.0952
C25 C 0.0307(3) -0.0752(5) 0.0468(2)
H18 H 0.0561 -0.1468 0.0424
C26 C 0.0568(3) 0.0287(4) 0.0210(2)
C27 C 0.0165(3) 0.1348(4) 0.0283(2)
C28 C 0.1241(3) 0.0247(5) -0.0156(3)
H19 H 0.1096 0.0328 -0.0562
H20 H 0.1449 -0.0549 -0.0113
C29 C 0.2169(3) -0.0272(5) 0.1215(3)
H21 H 0.2600 0.0000 0.1418
H22 H 0.2312 -0.0831 0.0910
C30 C 0.1661(3) -0.0865(6) 0.1634(3)
H23 H 0.1247 -0.1172 0.1421
H24 H 0.1487 -0.0272 0.1913
C31 C 0.2354(4) -0.1357(5) 0.2696(3)
H25 H 0.2723 -0.1837 0.2888
H26 H 0.2565 -0.0581 0.2602
C32 C 0.1729(4) -0.1170(6) 0.3116(3)
H27 H 0.1360 -0.0670 0.2939
H28 H 0.1515 -0.1936 0.3223
C33 C 0.1554(4) -0.0526(8) 0.4115(3)
H29 H 0.1846 -0.0403 0.4462
H30 H 0.1312 -0.1295 0.4157
C34 C 0.0992(4) 0.0442(8) 0.4092(3)
H31 H 0.0820 0.0598 0.4485
H32 H 0.1212 0.1176 0.3946
C35 C -0.0057(5) 0.1155(8) 0.3630(3)
H33 H 0.0203 0.1763 0.3409
H34 H -0.0205 0.1507 0.4000
C36 C -0.0700(4) 0.0768(10) 0.3299(3)
H35 H -0.0981 0.1482 0.3210
H36 H -0.0991 0.0274 0.3557
C37 C 0.0021(3) 0.0902(5) 0.2250(3)
H37 H 0.0444 0.1046 0.2490
H38 H 0.0178 0.0471 0.1903
C38 C -0.0285(3) 0.2097(5) 0.2064(3)
H39 H -0.0771 0.1999 0.1913
H40 H -0.0301 0.2648 0.2393
C39 C 0.2074(3) 0.5048(5) 0.0985(2)
H41 H 0.2596 0.4970 0.0985
H42 H 0.1937 0.5651 0.1272
C40 C 0.1805(3) 0.5396(5) 0.0385(2)
H43 H 0.1282 0.5455 0.0390
H44 H 0.1938 0.4778 0.0105
C41 C 0.1855(4) 0.6904(5) -0.0579(3)
H45 H 0.1349 0.6681 -0.0581
H46 H 0.1890 0.7730 -0.0713
C42 C 0.2249(5) 0.6117(7) -0.0997(4)
H47 H 0.2749 0.6371 -0.1027
H48 H 0.2239 0.5290 -0.0861
C43 C 0.2197(6) 0.5359(8) -0.1964(4)
H49 H 0.2306 0.4602 -0.1772
H50 H 0.2638 0.5672 -0.2134
C44 C 0.1650(7) 0.5172(10) -0.2424(5)
H51 H 0.1853 0.4587 -0.2692
H52 H 0.1619 0.5925 -0.2638
C45 C 0.1015(9) 0.3809(10) -0.2101(5)
H53 H 0.1314 0.3886 -0.1755
H54 H 0.1246 0.3277 -0.2381
C46 C 0.0151(5) 0.3369(7) -0.1938(3)
H55 H 0.0153 0.2536 -0.1809
H56 H -0.0148 0.3425 -0.2286
C47 C 0.0324(4) 0.3837(5) -0.0755(3)
H57 H 0.0826 0.3758 -0.0871
H58 H 0.0295 0.4446 -0.0452
C48 C 0.0053(3) 0.2650(6) -0.0519(3)
H59 H -0.0464 0.2693 -0.0452
H60 H 0.0145 0.2014 -0.0801
loop_
_geom_bond_atom_site_label_1
_geom_bond_atom_site_label_2
_geom_bond_site_symmetry_1
_geom_bond_site_symmetry_2
S1 C30 1_555 1_555
S2 C36 1_555 1_555
S3 C40 1_555 1_555
S4 C46 1_555 1_555
O1 C6 1_555 1_555
O2 C32 1_555 1_555
O3 C34 1_555 1_555
O4 C20 1_555 1_555
O5 C13 1_555 1_555
O6 C42 1_555 1_555
O7 C44 1_555 1_555
O8 C27 1_555 1_555
C1 C2 1_555 1_555
C2 H1 1_555 1_555
C3 C2 1_555 1_555
H2 C3 1_555 1_555
C4 C3 1_555 1_555
H3 C4 1_555 1_555
C5 C4 1_555 1_555
C6 C1 1_555 1_555
C7 C5 1_555 1_555
H4 C7 1_555 1_555
H5 C7 1_555 1_555
C8 C7 1_555 1_555
C9 C8 1_555 1_555
H6 C9 1_555 1_555
C10 C9 1_555 1_555
H7 C10 1_555 1_555
C11 C10 1_555 1_555
H8 C11 1_555 1_555
C12 C11 1_555 1_555
C13 C8 1_555 1_555
C14 C12 1_555 1_555
H9 C14 1_555 1_555
H10 C14 1_555 1_555
C15 C14 1_555 1_555
C16 C15 1_555 1_555
H11 C16 1_555 1_555
C17 C16 1_555 1_555
H12 C17 1_555 1_555
C18 C17 1_555 1_555
H13 C18 1_555 1_555
C19 C18 1_555 1_555
C20 C15 1_555 1_555
C21 C19 1_555 1_555
H14 C21 1_555 1_555
H15 C21 1_555 1_555
C22 C21 1_555 1_555
C23 C22 1_555 1_555
H16 C23 1_555 1_555
C24 C23 1_555 1_555
H17 C24 1_555 1_555
C25 C24 1_555 1_555
H18 C25 1_555 1_555
C26 C25 1_555 1_555
C27 C22 1_555 1_555
C28 C1 1_555 1_555
H19 C28 1_555 1_555
H20 C28 1_555 1_555
C29 O1 1_555 1_555
H21 C29 1_555 1_555
H22 C29 1_555 1_555
C30 C29 1_555 1_555
H23 C30 1_555 1_555
H24 C30 1_555 1_555
C31 S1 1_555 1_555
H25 C31 1_555 1_555
H26 C31 1_555 1_555
C32 C31 1_555 1_555
H27 C32 1_555 1_555
H28 C32 1_555 1_555
C33 O2 1_555 1_555
H29 C33 1_555 1_555
H30 C33 1_555 1_555
C34 C33 1_555 1_555
H31 C34 1_555 1_555
H32 C34 1_555 1_555
C35 O3 1_555 1_555
H33 C35 1_555 1_555
H34 C35 1_555 1_555
C36 C35 1_555 1_555
H35 C36 1_555 1_555
H36 C36 1_555 1_555
C37 S2 1_555 1_555
H37 C37 1_555 1_555
H38 C37 1_555 1_555
C38 O4 1_555 1_555
H39 C38 1_555 1_555
H40 C38 1_555 1_555
C39 O5 1_555 1_555
H41 C39 1_555 1_555
H42 C39 1_555 1_555
C40 C39 1_555 1_555
H43 C40 1_555 1_555
H44 C40 1_555 1_555
C41 S3 1_555 1_555
H45 C41 1_555 1_555
H46 C41 1_555 1_555
C42 C41 1_555 1_555
H47 C42 1_555 1_555
H48 C42 1_555 1_555
C43 O6 1_555 1_555
H49 C43 1_555 1_555
H50 C43 1_555 1_555
C44 C43 1_555 1_555
H51 C44 1_555 1_555
H52 C44 1_555 1_555
C45 O7 1_555 1_555
H53 C45 1_555 1_555
H54 C45 1_555 1_555
C46 C45 1_555 1_555
H55 C46 1_555 1_555
H56 C46 1_555 1_555
C47 S4 1_555 1_555
H57 C47 1_555 1_555
H58 C47 1_555 1_555
C48 O8 1_555 1_555
H59 C48 1_555 1_555
H60 C48 1_555 1_555
C5 C6 1_555 1_555
C12 C13 1_555 1_555
C19 C20 1_555 1_555
C26 C27 1_555 1_555
C26 C28 1_555 1_555
C37 C38 1_555 1_555
C47 C48 1_555 1_555

#END
