
#######################################################################
#
#                 Cambridge Crystallographic Data Centre
#                                CCDC 
#
#######################################################################
#
# If this CIF has been generated from an entry in the Cambridge 
# Structural Database, then it will include bibliographic, chemical, 
# crystal, experimental, refinement or atomic coordinate data resulting 
# from the CCDC's data processing and validation procedures.
#
#######################################################################

data_REXDII
_chemical_formula_moiety         'C46 H56 O9 S2,0.5(C4 H10 O1),0.5(C1 H4 O1)'
_chemical_name_systematic        
'25,27-(3,6,9-Trioxaundecane-1,11-dioxy)-26,28-(6,9-dioxa-3,12-dithiatetradecane-1,14-dioxy)calix(4)arene diethyl ether methanol solvate'
_symmetry_cell_setting           monoclinic
_symmetry_space_group_name_H-M   'P 21/n'
_symmetry_Int_Tables_number      14
_space_group_name_Hall           '-P 2yn'
loop_
_symmetry_equiv_pos_site_id
_symmetry_equiv_pos_as_xyz
1 x,y,z
2 1/2-x,1/2+y,1/2-z
3 -x,-y,-z
4 1/2+x,1/2-y,1/2+z
_cell_length_a                   14.0769(8)
_cell_length_b                   10.8418(6)
_cell_length_c                   30.9970(17)
_cell_angle_alpha                90
_cell_angle_beta                 98.3330(10)
_cell_angle_gamma                90
_cell_volume                     4680.78
_exptl_crystal_colour            colorless
_exptl_crystal_description       block
_cell_formula_units_Z            4
_exptl_crystal_recrystallization_method 'diethyl ether/acetonitrile'
loop_
_atom_site_label
_atom_site_type_symbol
_atom_site_fract_x
_atom_site_fract_y
_atom_site_fract_z
S1 S 0.74617(7) 0.03599(10) 0.23952(3)
O1 O 0.55768(15) 0.2103(2) 0.30300(7)
C1 C 0.2085(2) 0.1956(3) 0.31987(12)
H1 H 0.1718 0.1215 0.3261
H2 H 0.1918 0.2162 0.2886
S2 S 0.6440(3) -0.2297(3) 0.3793(2)
O2 O 0.89830(19) 0.0865(3) 0.32487(10)
C2 C 0.1853(2) 0.3019(3) 0.34763(12)
H3 H 0.2050 0.2828 0.3789
H4 H 0.2196 0.3770 0.3403
O3 O 0.9163(5) -0.1568(8) 0.3825(3)
C3 C 0.0429(3) 0.3762(4) 0.37326(16)
H5 H 0.0641 0.3299 0.4005
H6 H -0.0278 0.3686 0.3667
O5 O 0.48464(17) 0.0435(2) 0.40186(7)
C4 C 0.0682(3) 0.5105(4) 0.38098(16)
H7 H 0.0665 0.5532 0.3527
H8 H 0.0203 0.5501 0.3970
O6 O 0.49579(15) 0.3562(2) 0.40865(7)
C5 C 0.1893(3) 0.6457(4) 0.41226(16)
H9 H 0.1369 0.6926 0.4229
H10 H 0.2008 0.6825 0.3843
O7 O 0.36575(19) 0.6281(3) 0.42882(10)
C6 C 0.2787(3) 0.6554(4) 0.44480(15)
H11 H 0.2830 0.7403 0.4566
H12 H 0.2726 0.5988 0.4693
O8 O 0.16111(18) 0.5217(2) 0.40550(9)
C7 C 0.3796(3) 0.5007(3) 0.42032(14)
H13 H 0.3520 0.4807 0.3899
H14 H 0.3472 0.4493 0.4402
O9 O 0.08425(17) 0.3209(2) 0.33896(9)
C8 C 0.4861(2) 0.4749(3) 0.42740(12)
H15 H 0.5211 0.5380 0.4128
H16 H 0.5116 0.4744 0.4589
O10 O 0.30847(15) 0.1733(2) 0.33018(7)
C9 C 0.5872(2) 0.3046(3) 0.41463(10)
C10 C 0.6087(2) 0.2185(3) 0.44815(10)
C11 C 0.6981(3) 0.1607(3) 0.45266(12)
H17 H 0.7149 0.1034 0.4757
C12 C 0.7623(3) 0.1850(4) 0.42434(13)
H18 H 0.8228 0.1446 0.4278
C13 C 0.7386(2) 0.2684(4) 0.39087(12)
H19 H 0.7831 0.2840 0.3712
C14 C 0.6503(2) 0.3304(3) 0.38528(11)
C15 C 0.6292(2) 0.4260(3) 0.34932(11)
H20 H 0.6791 0.4186 0.3300
H21 H 0.6363 0.5087 0.3630
C16 C 0.5316(2) 0.4207(3) 0.32088(10)
C17 C 0.4725(2) 0.5246(3) 0.31629(11)
H22 H 0.4929 0.5980 0.3316
C18 C 0.3849(3) 0.5222(3) 0.28990(12)
H23 H 0.3456 0.5938 0.2871
C19 C 0.3540(2) 0.4157(3) 0.26742(11)
H24 H 0.2934 0.4147 0.2494
C20 C 0.4110(2) 0.3100(3) 0.27106(10)
C21 C 0.5003(2) 0.3152(3) 0.29762(10)
C22 C 0.3743(2) 0.1940(3) 0.24680(10)
H25 H 0.4119 0.1815 0.2225
H26 H 0.3068 0.2084 0.2337
C23 C 0.3782(2) 0.0754(3) 0.27303(11)
C24 C 0.3407(2) 0.0672(3) 0.31218(11)
C25 C 0.3400(2) -0.0442(3) 0.33498(12)
C26 C 0.3789(3) -0.1479(3) 0.31804(14)
H27 H 0.3789 -0.2242 0.3331
C27 C 0.4175(3) -0.1423(3) 0.27966(14)
H28 H 0.4445 -0.2142 0.2687
C28 C 0.4171(2) -0.0316(3) 0.25686(13)
H29 H 0.4432 -0.0284 0.2303
C29 C 0.2962(3) -0.0571(3) 0.37632(12)
H30 H 0.3137 -0.1399 0.3884
H31 H 0.2256 -0.0564 0.3680
C30 C 0.3203(3) 0.0348(3) 0.41283(12)
C31 C 0.2484(3) 0.0762(4) 0.43628(14)
H32 H 0.1843 0.0486 0.4281
C32 C 0.2688(3) 0.1562(4) 0.47090(14)
H33 H 0.2188 0.1841 0.4860
C33 C 0.3624(3) 0.1961(4) 0.48376(13)
H34 H 0.3758 0.2520 0.5075
C34 C 0.4371(3) 0.1548(3) 0.46209(11)
C35 C 0.4144(2) 0.0756(3) 0.42634(11)
C36 C 0.5390(3) 0.1917(4) 0.47992(11)
H35 H 0.5670 0.1249 0.4996
H36 H 0.5357 0.2661 0.4981
C37 C 0.6150(2) 0.1917(3) 0.26876(11)
H37 H 0.6576 0.2635 0.2666
H38 H 0.5735 0.1808 0.2404
C38 C 0.6735(2) 0.0771(3) 0.28068(12)
H39 H 0.6297 0.0079 0.2847
H40 H 0.7156 0.0907 0.3087
C39 C 0.8465(3) 0.1421(4) 0.25123(15)
H41 H 0.8707 0.1620 0.2236
H42 H 0.8231 0.2197 0.2628
C40 C 0.9291(3) 0.0928(5) 0.28361(16)
H43 H 0.9480 0.0099 0.2746
H44 H 0.9853 0.1482 0.2849
C41 C 0.9718(3) 0.0420(5) 0.35849(18)
H45 H 0.9549 0.0657 0.3873
H46 H 1.0333 0.0827 0.3552
C42 C 0.9853(3) -0.0944(5) 0.3575(2)
H47 H 0.9749 -0.1237 0.3270
H48 H 1.0518 -0.1154 0.3704
C43 C 0.8265(9) -0.1589(13) 0.3621(7)
H51 H 0.8208 -0.2147 0.3366
H52 H 0.8056 -0.0752 0.3521
C45 C 0.7636(9) -0.2083(11) 0.3975(4)
H55 H 0.7698 -0.1492 0.4220
H56 H 0.7910 -0.2878 0.4090
C47 C 0.6038(3) -0.0850(4) 0.38138(15)
H59 H 0.6592 -0.0291 0.3892
H60 H 0.5715 -0.0611 0.3521
C48 C 0.5351(3) -0.0681(3) 0.41359(12)
H63 H 0.4899 -0.1384 0.4122
H64 H 0.5703 -0.0624 0.4436
S3? S 0.6918(5) -0.2250(5) 0.4055(2)
O4? O 0.9101(6) -0.1702(8) 0.3451(4)
O11? O 0.0000 0.5000 0.5000
O12? O 0.0101(4) 0.1946(8) 0.4941(3)
H49? H 1.0348 -0.1115 0.3387
H50? H 1.0126 -0.1199 0.3874
C44? C 0.842(3) -0.165(3) 0.3724(8)
H53? H 0.8204 -0.0784 0.3740
H54? H 0.8722 -0.1892 0.4021
C46? C 0.7563(6) -0.2437(8) 0.3598(3)
H57? H 0.7747 -0.3309 0.3563
H58? H 0.7180 -0.2145 0.3324
H61? H 0.6399 -0.0080 0.3783
H62? H 0.5690 -0.1086 0.3525
C49? C -0.0800(10) 0.5867(14) 0.4852(5)
C50? C -0.1612(6) 0.5165(9) 0.4626(3)
C51? C 0.0823(10) 0.5650(12) 0.5182(4)
C52? C 0.0071(6) 0.0634(8) 0.4917(4)
loop_
_geom_bond_atom_site_label_1
_geom_bond_atom_site_label_2
_geom_bond_site_symmetry_1
_geom_bond_site_symmetry_2
S1 C38 1_555 1_555
O1 C21 1_555 1_555
C1 H1 1_555 1_555
H2 C1 1_555 1_555
S2 C45 1_555 1_555
O2 C40 1_555 1_555
C2 C1 1_555 1_555
H3 C2 1_555 1_555
H4 C2 1_555 1_555
O3 C42 1_555 1_555
C3 H5 1_555 1_555
H6 C3 1_555 1_555
O5 C35 1_555 1_555
C4 C3 1_555 1_555
H7 C4 1_555 1_555
H8 C4 1_555 1_555
O6 C8 1_555 1_555
C5 H9 1_555 1_555
H10 C5 1_555 1_555
O7 C6 1_555 1_555
C6 C5 1_555 1_555
H11 C6 1_555 1_555
H12 C6 1_555 1_555
O8 C4 1_555 1_555
C7 O7 1_555 1_555
H13 C7 1_555 1_555
H14 C7 1_555 1_555
O9 C2 1_555 1_555
C8 C7 1_555 1_555
H15 C8 1_555 1_555
H16 C8 1_555 1_555
O10 C1 1_555 1_555
C9 O6 1_555 1_555
C10 C9 1_555 1_555
C11 C10 1_555 1_555
H17 C11 1_555 1_555
C12 C11 1_555 1_555
H18 C12 1_555 1_555
C13 C12 1_555 1_555
H19 C13 1_555 1_555
C14 C9 1_555 1_555
C15 C14 1_555 1_555
H20 C15 1_555 1_555
H21 C15 1_555 1_555
C16 C15 1_555 1_555
C17 C16 1_555 1_555
H22 C17 1_555 1_555
C18 C17 1_555 1_555
H23 C18 1_555 1_555
C19 C18 1_555 1_555
H24 C19 1_555 1_555
C20 C19 1_555 1_555
C21 C16 1_555 1_555
C22 C20 1_555 1_555
H25 C22 1_555 1_555
H26 C22 1_555 1_555
C23 C22 1_555 1_555
C24 O10 1_555 1_555
C25 C24 1_555 1_555
C26 C25 1_555 1_555
H27 C26 1_555 1_555
C27 C26 1_555 1_555
H28 C27 1_555 1_555
C28 C23 1_555 1_555
H29 C28 1_555 1_555
C29 C25 1_555 1_555
H30 C29 1_555 1_555
H31 C29 1_555 1_555
C30 C29 1_555 1_555
C31 C30 1_555 1_555
H32 C31 1_555 1_555
C32 C31 1_555 1_555
H33 C32 1_555 1_555
C33 C32 1_555 1_555
H34 C33 1_555 1_555
C34 C33 1_555 1_555
C35 C30 1_555 1_555
C36 C10 1_555 1_555
H35 C36 1_555 1_555
H36 C36 1_555 1_555
C37 O1 1_555 1_555
H37 C37 1_555 1_555
H38 C37 1_555 1_555
C38 C37 1_555 1_555
H39 C38 1_555 1_555
H40 C38 1_555 1_555
C39 S1 1_555 1_555
H41 C39 1_555 1_555
H42 C39 1_555 1_555
C40 C39 1_555 1_555
H43 C40 1_555 1_555
H44 C40 1_555 1_555
C41 O2 1_555 1_555
H45 C41 1_555 1_555
H46 C41 1_555 1_555
C42 C41 1_555 1_555
H47 C42 1_555 1_555
H48 C42 1_555 1_555
C43 O3 1_555 1_555
H51 C43 1_555 1_555
H52 C43 1_555 1_555
C45 C43 1_555 1_555
H55 C45 1_555 1_555
H56 C45 1_555 1_555
C47 S2 1_555 1_555
H59 C47 1_555 1_555
H60 C47 1_555 1_555
C48 O5 1_555 1_555
H63 C48 1_555 1_555
H64 C48 1_555 1_555
C3 O9 1_555 1_555
C5 O8 1_555 1_555
C13 C14 1_555 1_555
C20 C21 1_555 1_555
C23 C24 1_555 1_555
C27 C28 1_555 1_555
C34 C35 1_555 1_555
C34 C36 1_555 1_555
C47 C48 1_555 1_555

#END
