
#######################################################################
#
#                 Cambridge Crystallographic Data Centre
#                                CCDC 
#
#######################################################################
#
# If this CIF has been generated from an entry in the Cambridge 
# Structural Database, then it will include bibliographic, chemical, 
# crystal, experimental, refinement or atomic coordinate data resulting 
# from the CCDC's data processing and validation procedures.
#
#######################################################################

data_REXDAA
_chemical_formula_moiety         'C23 H21 N7 2+,Br1 1-,F6 P1 1-'
_chemical_name_systematic        
'1(2,3)-Quinoxalina-5(2,6)-pyridina-3,7(1,3)-diimidazolacyclooctaphane-3^1^,7^1^-diium bromide hexafluorophosphate'
_symmetry_cell_setting           monoclinic
_symmetry_space_group_name_H-M   'P 21/n'
_symmetry_Int_Tables_number      14
_space_group_name_Hall           '-P 2yn'
loop_
_symmetry_equiv_pos_site_id
_symmetry_equiv_pos_as_xyz
1 x,y,z
2 1/2-x,1/2+y,1/2-z
3 -x,-y,-z
4 1/2+x,1/2-y,1/2+z
_cell_length_a                   16.688(2)
_cell_length_b                   8.8449(12)
_cell_length_c                   17.748(2)
_cell_angle_alpha                90.00
_cell_angle_beta                 100.264(2)
_cell_angle_gamma                90.00
_cell_volume                     2577.75
_exptl_crystal_colour            colorless
_exptl_crystal_description       plate
_cell_formula_units_Z            4
loop_
_atom_site_label
_atom_site_type_symbol
_atom_site_fract_x
_atom_site_fract_y
_atom_site_fract_z
Br1 Br 0.05486(2) 0.18285(4) 0.60780(2)
C1 C 1.14222(19) 0.7266(4) 0.8110(2)
C2 C 1.1912(2) 0.6161(5) 0.8492(2)
H1 H 1.2099 0.6232 0.9017
C3 C 1.2119(2) 0.4945(5) 0.8081(3)
H2 H 1.2456 0.4188 0.8325
C4 C 1.1825(2) 0.4860(4) 0.7312(2)
H3 H 1.1954 0.4044 0.7026
C5 C 1.13344(18) 0.6010(4) 0.69716(19)
C6 C 1.09999(19) 0.6004(4) 0.61219(19)
H4 H 1.1326 0.6669 0.5864
H5 H 1.1039 0.4991 0.5923
C7 C 0.99100(19) 0.7926(3) 0.58848(17)
H6 H 1.0248 0.8763 0.5892
C8 C 0.9479(2) 0.5592(4) 0.5904(2)
H7 H 0.9475 0.4542 0.5935
C9 C 0.8829(2) 0.6501(4) 0.5798(2)
H8 H 0.8287 0.6198 0.5736
C10 C 0.86054(19) 0.9320(4) 0.55900(19)
H9 H 0.8379 0.9290 0.5047
H10 H 0.8948 1.0210 0.5685
C11 C 0.79225(18) 0.9436(3) 0.60394(18)
C12 C 0.6604(2) 0.8829(4) 0.6118(2)
C13 C 0.5876(3) 0.8064(6) 0.5830(3)
H11 H 0.5848 0.7426 0.5409
C14 C 0.5206(3) 0.8260(6) 0.6171(3)
H12 H 0.4721 0.7768 0.5976
C15 C 0.5251(2) 0.9193(6) 0.6809(3)
H13 H 0.4795 0.9315 0.7038
C16 C 0.5949(2) 0.9923(5) 0.7101(2)
H14 H 0.5970 1.0543 0.7528
C17 C 0.6642(2) 0.9750(4) 0.6763(2)
C18 C 0.79709(18) 1.0301(4) 0.67202(18)
C19 C 0.8744(2) 1.1103(4) 0.7087(2)
H15 H 0.9036 1.1438 0.6692
H16 H 0.8605 1.1990 0.7359
C20 C 1.0073(2) 0.9999(4) 0.76935(19)
H17 H 1.0388 1.0476 0.7382
C21 C 0.9036(2) 0.9235(5) 0.8192(2)
H18 H 0.8507 0.9109 0.8280
C22 C 0.9706(2) 0.8607(5) 0.8591(2)
H19 H 0.9731 0.7953 0.9005
C23 C 1.1208(2) 0.8658(5) 0.8509(2)
H20 H 1.1320 0.8484 0.9057
H21 H 1.1552 0.9483 0.8400
N1 N 1.11340(16) 0.7204(3) 0.73546(16)
N2 N 1.01520(15) 0.6499(3) 0.59581(14)
N3 N 0.91048(15) 0.7958(3) 0.57991(14)
N4 N 0.72512(17) 0.8695(3) 0.57524(16)
N5 N 0.73539(17) 1.0466(3) 0.70691(16)
N6 N 0.92723(16) 1.0104(3) 0.76255(15)
N7 N 1.03486(16) 0.9102(3) 0.82777(16)
P1 P 0.70878(5) 0.33077(11) 0.50373(6)
F1 F 0.75550(12) 0.4632(3) 0.46935(13)
F2 F 0.63217(16) 0.4352(3) 0.50250(18)
F3 F 0.66144(18) 0.2039(3) 0.5391(2)
F4 F 0.7814(2) 0.2219(4) 0.4997(2)
F5 F 0.6707(2) 0.2895(4) 0.41775(18)
F6 F 0.7465(2) 0.3762(5) 0.58626(17)
loop_
_geom_bond_atom_site_label_1
_geom_bond_atom_site_label_2
_geom_bond_site_symmetry_1
_geom_bond_site_symmetry_2
C1 C2 1_555 1_555
C2 H1 1_555 1_555
C3 C2 1_555 1_555
H2 C3 1_555 1_555
C4 C3 1_555 1_555
H3 C4 1_555 1_555
C5 C4 1_555 1_555
C6 C5 1_555 1_555
H4 C6 1_555 1_555
H5 C6 1_555 1_555
C7 H6 1_555 1_555
C8 H7 1_555 1_555
C9 C8 1_555 1_555
H8 C9 1_555 1_555
C10 H9 1_555 1_555
H10 C10 1_555 1_555
C11 C10 1_555 1_555
C12 C13 1_555 1_555
C13 H11 1_555 1_555
C14 C13 1_555 1_555
H12 C14 1_555 1_555
C15 C14 1_555 1_555
H13 C15 1_555 1_555
C16 C15 1_555 1_555
H14 C16 1_555 1_555
C17 C12 1_555 1_555
C18 C11 1_555 1_555
C19 C18 1_555 1_555
H15 C19 1_555 1_555
H16 C19 1_555 1_555
C20 H17 1_555 1_555
C21 H18 1_555 1_555
C22 C21 1_555 1_555
H19 C22 1_555 1_555
C23 C1 1_555 1_555
H20 C23 1_555 1_555
H21 C23 1_555 1_555
N1 C1 1_555 1_555
N2 C6 1_555 1_555
N3 C7 1_555 1_555
N4 C11 1_555 1_555
N5 C17 1_555 1_555
N6 C19 1_555 1_555
N7 C20 1_555 1_555
P1 F1 1_555 1_555
F2 P1 1_555 1_555
F3 P1 1_555 1_555
F4 P1 1_555 1_555
F5 P1 1_555 1_555
F6 P1 1_555 1_555
C5 N1 1_555 1_555
C7 N2 1_555 1_555
C8 N2 1_555 1_555
C9 N3 1_555 1_555
C10 N3 1_555 1_555
C12 N4 1_555 1_555
C16 C17 1_555 1_555
C18 N5 1_555 1_555
C20 N6 1_555 1_555
C21 N6 1_555 1_555
C22 N7 1_555 1_555
C23 N7 1_555 1_555

#END
