
#######################################################################
#
#                 Cambridge Crystallographic Data Centre
#                                CCDC 
#
#######################################################################
#
# If this CIF has been generated from an entry in the Cambridge 
# Structural Database, then it will include bibliographic, chemical, 
# crystal, experimental, refinement or atomic coordinate data resulting 
# from the CCDC's data processing and validation procedures.
#
#######################################################################

data_REXNIT
_chemical_formula_moiety         'C8 H2 F4 O4,C8 F4 O4 2-,2(C4 H6 N3 1+)'
_chemical_name_systematic        
'bis(Pyrimidin-2-aminium) 2,3,5,6-tetrafluoroterephthalate 2,3,5,6-tetrafluoroterephthalic acid'
_symmetry_cell_setting           triclinic
_symmetry_space_group_name_H-M   'P -1'
_symmetry_Int_Tables_number      2
_space_group_name_Hall           '-P 1'
loop_
_symmetry_equiv_pos_site_id
_symmetry_equiv_pos_as_xyz
1 x,y,z
2 -x,-y,-z
_cell_length_a                   7.0147(14)
_cell_length_b                   7.5439(15)
_cell_length_c                   12.600(3)
_cell_angle_alpha                76.07(3)
_cell_angle_beta                 81.70(3)
_cell_angle_gamma                88.92(3)
_cell_volume                     640.294
_exptl_crystal_colour            colorless
_exptl_crystal_description       block
_cell_formula_units_Z            1
loop_
_atom_site_label
_atom_site_type_symbol
_atom_site_fract_x
_atom_site_fract_y
_atom_site_fract_z
F1 F 0.2086(2) 0.6437(2) 0.11574(11)
F2 F 0.5000(2) 0.4798(2) -0.21060(10)
O1 O 0.0366(3) 0.7209(3) -0.06330(15)
O2 O 0.1631(3) 0.6070(3) -0.20208(16)
H1 H 0.0678 0.6515 -0.2285
C1 C 0.3351(3) 0.5677(3) -0.05273(15)
C2 C 0.4934(3) 0.4923(3) -0.10648(16)
C3 C 0.3495(3) 0.5732(3) 0.05564(16)
C4 C 0.1623(3) 0.6414(3) -0.10637(16)
F1A F 0.7914(2) 0.3563(2) -0.11574(11)
F2A F 0.5000(2) 0.5202(2) 0.21060(10)
O1A O 0.9634(3) 0.2791(3) 0.06330(15)
O2A O 0.8369(3) 0.3930(3) 0.20208(16)
H1A H 0.9322 0.3485 0.2285
C1A C 0.6649(3) 0.4323(3) 0.05273(15)
C2A C 0.5066(3) 0.5077(3) 0.10648(16)
C3A C 0.6505(3) 0.4268(3) -0.05564(16)
C4A C 0.8377(3) 0.3586(3) 0.10637(16)
F3 F 0.3787(2) 0.5452(3) 0.41798(14)
O3 O 0.1252(3) 0.2387(3) 0.28662(15)
O4 O 0.3193(3) 0.1575(2) 0.41291(13)
F4 F 0.2136(2) 0.7673(2) 0.53615(15)
C5 C 0.1922(3) 0.5183(3) 0.45852(17)
C6 C 0.1855(3) 0.2477(3) 0.37359(16)
C7 C 0.0890(3) 0.3801(3) 0.43782(15)
C8 C 0.1049(3) 0.6351(3) 0.52023(17)
F3A F -0.3787(2) 0.4548(3) 0.58202(14)
O3A O -0.1252(3) 0.7613(3) 0.71338(15)
O4A O -0.3193(3) 0.8425(2) 0.58709(13)
F4A F -0.2136(2) 0.2327(2) 0.46385(15)
C5A C -0.1922(3) 0.4817(3) 0.54148(17)
C6A C -0.1855(3) 0.7523(3) 0.62641(16)
C7A C -0.0890(3) 0.6199(3) 0.56218(15)
C8A C -0.1049(3) 0.3649(3) 0.47977(17)
N1 N 0.5361(3) -0.0140(3) 0.28045(14)
N2 N 0.3532(3) 0.0559(3) 0.13767(15)
H2 H 0.3577 0.0483 0.0679
H3 H 0.3434 0.1724 0.1408
H4 H 0.2514 -0.0072 0.1788
N3 N 0.6486(3) -0.0773(3) 0.10830(14)
C9 C 0.5112(3) -0.0117(3) 0.17521(16)
C10 C 0.8342(4) -0.1566(4) 0.2576(2)
H5 H 0.9443 -0.2084 0.2846
C11 C 0.6942(4) -0.0865(3) 0.32171(18)
H6 H 0.7081 -0.0888 0.3943
C12 C 0.8040(3) -0.1465(3) 0.14935(19)
H7 H 0.8989 -0.1912 0.1035
loop_
_geom_bond_atom_site_label_1
_geom_bond_atom_site_label_2
_geom_bond_site_symmetry_1
_geom_bond_site_symmetry_2
F1 C3 1_555 1_555
F2 C2 1_555 1_555
O1 C4 1_555 1_555
O2 H1 1_555 1_555
C1 C2 1_555 1_555
C2 C3A 1_555 1_555
C3 C1 1_555 1_555
C4 O2 1_555 1_555
F3 C5 1_555 1_555
O3 C6 1_555 1_555
O4 C6 1_555 1_555
F4 C8 1_555 1_555
C5 C7 1_555 1_555
C6 C7 1_555 1_555
C7 C8A 1_555 1_555
C8 C5 1_555 1_555
N1 C9 1_555 1_555
N2 H2 1_555 1_555
H3 N2 1_555 1_555
H4 N2 1_555 1_555
N3 C9 1_555 1_555
C9 N2 1_555 1_555
C10 H5 1_555 1_555
C11 N1 1_555 1_555
H6 C11 1_555 1_555
C12 N3 1_555 1_555
H7 C12 1_555 1_555
F1A C3A 1_555 1_555
F2A C2A 1_555 1_555
O1A C4A 1_555 1_555
O2A H1A 1_555 1_555
C1A C2A 1_555 1_555
C2A C3 1_555 1_555
C3A C1A 1_555 1_555
C4A O2A 1_555 1_555
F3A C5A 1_555 1_555
O3A C6A 1_555 1_555
O4A C6A 1_555 1_555
F4A C8A 1_555 1_555
C5A C7A 1_555 1_555
C6A C7A 1_555 1_555
C7A C8 1_555 1_555
C8A C5A 1_555 1_555
C1 C4 1_555 1_555
C10 C11 1_555 1_555
C10 C12 1_555 1_555
C1A C4A 1_555 1_555

#END
