
#######################################################################
#
#                 Cambridge Crystallographic Data Centre
#                                CCDC 
#
#######################################################################
#
# If this CIF has been generated from an entry in the Cambridge 
# Structural Database, then it will include bibliographic, chemical, 
# crystal, experimental, refinement or atomic coordinate data resulting 
# from the CCDC's data processing and validation procedures.
#
#######################################################################

data_REXPOC
_chemical_formula_moiety         'C21 H15 N3 O1'
_chemical_name_systematic        2-(2,2':6',2''-terpyridin-4'-yl)phenol
_symmetry_cell_setting           rhombohedral
_symmetry_space_group_name_H-M   'R -3'
_symmetry_Int_Tables_number      148
_space_group_name_Hall           '-R 3'
loop_
_symmetry_equiv_pos_site_id
_symmetry_equiv_pos_as_xyz
1 x,y,z
2 -y,x-y,z
3 -x+y,-x,z
4 2/3+x,1/3+y,1/3+z
5 2/3-y,1/3+x-y,1/3+z
6 2/3-x+y,1/3-x,1/3+z
7 1/3+x,2/3+y,2/3+z
8 1/3-y,2/3+x-y,2/3+z
9 1/3-x+y,2/3-x,2/3+z
10 -x,-y,-z
11 y,-x+y,-z
12 x-y,x,-z
13 1/3-x,2/3-y,2/3-z
14 1/3+y,2/3-x+y,2/3-z
15 1/3+x-y,2/3+x,2/3-z
16 2/3-x,1/3-y,1/3-z
17 2/3+y,1/3-x+y,1/3-z
18 2/3+x-y,1/3+x,1/3-z
_cell_length_a                   32.011(3)
_cell_length_b                   32.011(3)
_cell_length_c                   8.2144(9)
_cell_angle_alpha                90
_cell_angle_beta                 90
_cell_angle_gamma                120
_cell_volume                     7289.62
_exptl_crystal_colour            colorless
_exptl_crystal_description       Prism
_cell_formula_units_Z            18
loop_
_atom_site_label
_atom_site_type_symbol
_atom_site_fract_x
_atom_site_fract_y
_atom_site_fract_z
O1 O 0.34413(4) 0.12284(5) 0.53834(16)
H1 H 0.3213 0.1252 0.5043
N1 N 0.51257(5) 0.05577(5) 0.66359(16)
N2 N 0.51328(5) 0.16557(5) 0.60178(18)
N3 N 0.49161(5) 0.26467(5) 0.6565(2)
C1 C 0.53941(6) 0.03572(6) 0.6268(2)
H2 H 0.5339 0.0084 0.6840
C2 C 0.57481(6) 0.05350(7) 0.5086(2)
H3 H 0.5932 0.0389 0.4887
C3 C 0.58226(7) 0.09319(8) 0.4211(2)
H4 H 0.6053 0.1055 0.3388
C4 C 0.55506(6) 0.11464(7) 0.4569(2)
H5 H 0.5597 0.1417 0.3997
C5 C 0.52068(5) 0.09518(5) 0.57940(19)
C6 C 0.49093(5) 0.11758(6) 0.62000(19)
C7 C 0.44286(5) 0.09004(5) 0.66879(19)
H6 H 0.4289 0.0569 0.6824
C8 C 0.41616(5) 0.11275(5) 0.69673(18)
C9 C 0.43987(5) 0.16290(6) 0.6812(2)
H7 H 0.4235 0.1795 0.7012
C10 C 0.48814(5) 0.18782(6) 0.6355(2)
C11 C 0.51507(6) 0.24144(6) 0.6223(3)
C12 C 0.56226(9) 0.26552(9) 0.5749(7)
H8 H 0.5779 0.2487 0.5465
C13 C 0.58651(11) 0.31540(11) 0.5698(9)
H9 H 0.6187 0.3325 0.5382
C14 C 0.56279(9) 0.33946(8) 0.6116(5)
H10 H 0.5786 0.3730 0.6135
C15 C 0.51560(8) 0.31261(7) 0.6500(3)
H11 H 0.4988 0.3286 0.6733
C16 C 0.36465(5) 0.08548(5) 0.74702(18)
C17 C 0.33013(5) 0.09380(5) 0.67088(19)
C18 C 0.28319(6) 0.07209(6) 0.7314(2)
H12 H 0.2606 0.0784 0.6833
C19 C 0.27023(6) 0.04116(6) 0.8631(2)
H13 H 0.2391 0.0273 0.9043
C20 C 0.30301(6) 0.03064(6) 0.9341(2)
H14 H 0.2937 0.0089 1.0203
C21 C 0.35003(6) 0.05282(6) 0.8756(2)
H15 H 0.3721 0.0457 0.9232
loop_
_geom_bond_atom_site_label_1
_geom_bond_atom_site_label_2
_geom_bond_site_symmetry_1
_geom_bond_site_symmetry_2
O1 H1 1_555 1_555
N1 C1 1_555 1_555
N2 C6 1_555 1_555
N3 C11 1_555 1_555
C1 H2 1_555 1_555
C2 C1 1_555 1_555
H3 C2 1_555 1_555
C3 C2 1_555 1_555
H4 C3 1_555 1_555
C4 C3 1_555 1_555
H5 C4 1_555 1_555
C5 N1 1_555 1_555
C6 C5 1_555 1_555
C7 C6 1_555 1_555
H6 C7 1_555 1_555
C8 C7 1_555 1_555
C9 C8 1_555 1_555
H7 C9 1_555 1_555
C10 N2 1_555 1_555
C11 C10 1_555 1_555
C12 C11 1_555 1_555
H8 C12 1_555 1_555
C13 C12 1_555 1_555
H9 C13 1_555 1_555
C14 C13 1_555 1_555
H10 C14 1_555 1_555
C15 N3 1_555 1_555
H11 C15 1_555 1_555
C16 C8 1_555 1_555
C17 O1 1_555 1_555
C18 C17 1_555 1_555
H12 C18 1_555 1_555
C19 C18 1_555 1_555
H13 C19 1_555 1_555
C20 C19 1_555 1_555
H14 C20 1_555 1_555
C21 C16 1_555 1_555
H15 C21 1_555 1_555
C4 C5 1_555 1_555
C9 C10 1_555 1_555
C14 C15 1_555 1_555
C16 C17 1_555 1_555
C20 C21 1_555 1_555

#END
