
#######################################################################
#
#                 Cambridge Crystallographic Data Centre
#                                CCDC 
#
#######################################################################
#
# If this CIF has been generated from an entry in the Cambridge 
# Structural Database, then it will include bibliographic, chemical, 
# crystal, experimental, refinement or atomic coordinate data resulting 
# from the CCDC's data processing and validation procedures.
#
#######################################################################

data_REXQUH
_chemical_formula_moiety         'C27 H30 N2 O3'
_chemical_name_systematic        
(-)-(1S,2R,3S,6R,7aR)-hexahydro-1-(hydroxymethyl)-6-methoxy-3-(naphthalen-2-yl)-N-(phenylmethyl)-1H-pyrrolizine-2-carboxamide
_symmetry_cell_setting           monoclinic
_symmetry_space_group_name_H-M   'C 2'
_symmetry_Int_Tables_number      5
_space_group_name_Hall           'C 2y'
loop_
_symmetry_equiv_pos_site_id
_symmetry_equiv_pos_as_xyz
1 x,y,z
2 -x,y,-z
3 1/2+x,1/2+y,z
4 1/2-x,1/2+y,-z
_cell_length_a                   18.4825(3)
_cell_length_b                   5.0671(1)
_cell_length_c                   25.2401(6)
_cell_angle_alpha                90
_cell_angle_beta                 109.645(1)
_cell_angle_gamma                90
_cell_volume                     2226.21
_exptl_crystal_colour            white
_chemical_melting_point          162-163deg.C
_cell_formula_units_Z            4
loop_
_atom_site_label
_atom_site_type_symbol
_atom_site_fract_x
_atom_site_fract_y
_atom_site_fract_z
C1 C 0.25495(10) 0.0796(4) 0.67334(7)
H1 H 0.2536 -0.1124 0.6802
C2 C 0.22395(10) 0.1338(4) 0.60917(7)
H2 H 0.1811 0.0093 0.5922
C3 C 0.18964(11) 0.4116(4) 0.60393(7)
H3 H 0.2274 0.5412 0.5996
N1 N 0.17499(8) 0.4636(3) 0.65767(6)
C4 C 0.19340(11) 0.2195(4) 0.69177(8)
H4 H 0.1469 0.1072 0.6792
C5 C 0.09399(11) 0.5463(4) 0.64269(8)
H5 H 0.0902 0.7393 0.6421
H6 H 0.0718 0.4781 0.6702
C6 C 0.05166(11) 0.4333(5) 0.58449(9)
H7 H 0.0062 0.5417 0.5644
C7 C 0.11199(11) 0.4507(5) 0.55616(8)
H8 H 0.1102 0.6233 0.5382
H9 H 0.1040 0.3128 0.5275
C8 C 0.21150(10) 0.2664(4) 0.75431(7)
C9 C 0.1992(2) 0.0582(9) 0.78819(17)
H10 H 0.1762 -0.1023 0.7700
C10 C 0.2197(2) 0.0775(9) 0.84505(16)
H11 H 0.2197 -0.0739 0.8679
C11 C 0.2429(2) 0.3365(7) 0.87036(10)
C12 C 0.27547(14) 0.4871(6) 0.84286(9)
C13 C 0.2441(2) 0.4948(10) 0.78122(18)
H12 H 0.2464 0.6522 0.7607
C14 C 0.2808(3) 0.3344(11) 0.93320(17)
H13 H 0.2858 0.1734 0.9542
C15 C 0.30933(16) 0.5530(6) 0.95818(10)
H14 H 0.3187 0.5720 0.9978
C16 C 0.3261(3) 0.7742(12) 0.92651(19)
H15 H 0.3532 0.9270 0.9457
C17 C 0.3039(2) 0.7541(10) 0.86906(17)
H16 H 0.3054 0.9036 0.8461
C18 C 0.33609(11) 0.1811(4) 0.70030(7)
O1 O 0.35436(8) 0.4148(3) 0.69972(6)
N2 N 0.38793(9) -0.0076(4) 0.72369(7)
H17 H 0.3726 -0.1707 0.7222
C19 C 0.46919(11) 0.0522(5) 0.75152(9)
H18 H 0.4824 0.2074 0.7335
H19 H 0.4997 -0.0963 0.7457
C20 C 0.49164(10) 0.1043(4) 0.81363(9)
C21 C 0.4833(2) -0.0823(11) 0.8508(2)
H20 H 0.4633 -0.2533 0.8370
C22 C 0.5047(3) -0.0344(14) 0.9076(2)
H21 H 0.4955 -0.1630 0.9325
C23 C 0.53885(13) 0.2007(6) 0.92872(10)
H22 H 0.5555 0.2354 0.9684
C24 C 0.5474(3) 0.3922(13) 0.8931(2)
H23 H 0.5724 0.5556 0.9077
C25 C 0.5253(3) 0.3433(11) 0.8358(2)
H24 H 0.5304 0.4799 0.8110
C26 C 0.28242(12) 0.0924(5) 0.58010(8)
H25 H 0.3215 0.2310 0.5920
H26 H 0.3080 -0.0777 0.5918
O2 O 0.24884(9) 0.0964(3) 0.52033(6)
H27 H 0.2499 0.2491 0.5087
O3 O 0.03100(7) 0.1625(3) 0.58584(6)
C27 C -0.03423(13) 0.1260(6) 0.60267(12)
H28 H -0.0229 0.1898 0.6408
H29 H -0.0470 -0.0602 0.6011
H30 H -0.0774 0.2234 0.5776
C28? C 0.1562(2) 0.1777(10) 0.77684(18)
H31? H 0.1129 0.0792 0.7534
C29? C 0.1626(3) 0.2285(10) 0.83137(19)
H32? H 0.1210 0.1949 0.8452
C30? C 0.2741(3) 0.4030(10) 0.78759(18)
H33? H 0.3165 0.4405 0.7748
C31? C 0.2361(4) 0.4290(12) 0.9238(2)
H34? H 0.2237 0.2941 0.9435
C32? C 0.3590(4) 0.6196(13) 0.9362(2)
H35? H 0.4058 0.6991 0.9600
C33? C 0.3508(3) 0.5742(11) 0.88112(18)
H36? H 0.3926 0.6014 0.8672
C34? C 0.4384(2) 0.1513(10) 0.84062(17)
H37? H 0.3847 0.1525 0.8187
C35? C 0.4627(3) 0.1988(11) 0.89805(19)
H38? H 0.4254 0.2274 0.9163
C36? C 0.5928(2) 0.1519(12) 0.9019(2)
H39? H 0.6468 0.1590 0.9229
C37? C 0.5683(2) 0.1029(11) 0.8444(2)
H40? H 0.6055 0.0638 0.8266
loop_
_geom_bond_atom_site_label_1
_geom_bond_atom_site_label_2
_geom_bond_site_symmetry_1
_geom_bond_site_symmetry_2
C1 H1 1_555 1_555
C2 C1 1_555 1_555
H2 C2 1_555 1_555
C3 C2 1_555 1_555
H3 C3 1_555 1_555
N1 C3 1_555 1_555
C4 C1 1_555 1_555
H4 C4 1_555 1_555
C5 N1 1_555 1_555
H5 C5 1_555 1_555
H6 C5 1_555 1_555
C6 C5 1_555 1_555
H7 C6 1_555 1_555
C7 C3 1_555 1_555
H8 C7 1_555 1_555
H9 C7 1_555 1_555
C8 C4 1_555 1_555
C9 C8 1_555 1_555
H10 C9 1_555 1_555
C10 C9 1_555 1_555
H11 C10 1_555 1_555
C11 C10 1_555 1_555
C12 C11 1_555 1_555
C13 C8 1_555 1_555
H12 C13 1_555 1_555
C14 C11 1_555 1_555
H13 C14 1_555 1_555
C15 C14 1_555 1_555
H14 C15 1_555 1_555
C16 C15 1_555 1_555
H15 C16 1_555 1_555
C17 C12 1_555 1_555
H16 C17 1_555 1_555
C18 C1 1_555 1_555
O1 C18 1_555 1_555
N2 C18 1_555 1_555
H17 N2 1_555 1_555
C19 N2 1_555 1_555
H18 C19 1_555 1_555
H19 C19 1_555 1_555
C20 C19 1_555 1_555
C21 C20 1_555 1_555
H20 C21 1_555 1_555
C22 C21 1_555 1_555
H21 C22 1_555 1_555
C23 C22 1_555 1_555
H22 C23 1_555 1_555
C24 C23 1_555 1_555
H23 C24 1_555 1_555
C25 C20 1_555 1_555
H24 C25 1_555 1_555
C26 C2 1_555 1_555
H25 C26 1_555 1_555
H26 C26 1_555 1_555
O2 C26 1_555 1_555
H27 O2 1_555 1_555
O3 C6 1_555 1_555
C27 O3 1_555 1_555
H28 C27 1_555 1_555
H29 C27 1_555 1_555
H30 C27 1_555 1_555
N1 C4 1_555 1_555
C6 C7 1_555 1_555
C12 C13 1_555 1_555
C16 C17 1_555 1_555
C24 C25 1_555 1_555

#END
