
#######################################################################
#
#                 Cambridge Crystallographic Data Centre
#                                CCDC 
#
#######################################################################
#
# If this CIF has been generated from an entry in the Cambridge 
# Structural Database, then it will include bibliographic, chemical, 
# crystal, experimental, refinement or atomic coordinate data resulting 
# from the CCDC's data processing and validation procedures.
#
#######################################################################

data_REXRUK
_chemical_formula_moiety         'C37 H36 N2 P3 1+,C4 H8 O1,Cl1 1-'
_chemical_name_systematic        
'12-(phenyl(triphenylphosphoranylidene)methyl)-2,3,4,7,8,9,10,12-octahydro-1H,6H-[1,2,3]benzodiazaphospholo[2,1-a][1,2,3]benzodiazaphosphol-6-ium chloride tetrahydrofuran solvate'
_symmetry_cell_setting           triclinic
_symmetry_space_group_name_H-M   'P -1'
_symmetry_Int_Tables_number      2
_space_group_name_Hall           '-P 1'
loop_
_symmetry_equiv_pos_site_id
_symmetry_equiv_pos_as_xyz
1 x,y,z
2 -x,-y,-z
_cell_length_a                   9.2949(16)
_cell_length_b                   13.635(2)
_cell_length_c                   15.763(3)
_cell_angle_alpha                110.094(3)
_cell_angle_beta                 97.088(3)
_cell_angle_gamma                105.054(3)
_cell_volume                     1761.25
_exptl_crystal_colour            yellow
_exptl_crystal_description       prism
_cell_formula_units_Z            2
loop_
_atom_site_label
_atom_site_type_symbol
_atom_site_fract_x
_atom_site_fract_y
_atom_site_fract_z
P1 P 0.25383(7) 0.29981(5) 0.47554(4)
P2 P 0.50112(7) 0.55375(5) 0.74154(4)
P3 P 0.44759(6) 0.73535(5) 0.88511(4)
N1 N 0.3548(2) 0.36953(15) 0.58798(12)
N2 N 0.3722(2) 0.47856(15) 0.62490(12)
C1 C 0.2387(3) 0.42390(19) 0.47616(15)
C2 C 0.3109(2) 0.50981(19) 0.56179(15)
C3 C 0.3220(3) 0.62713(19) 0.58594(15)
H1 H 0.4262 0.6755 0.6233
H2 H 0.2476 0.6451 0.6236
C4 C 0.2883(3) 0.6475(2) 0.49748(17)
H3 H 0.2746 0.7208 0.5132
H4 H 0.3761 0.6473 0.4677
C5 C 0.1447(3) 0.5589(2) 0.43049(17)
H5 H 0.1194 0.5773 0.3762
H6 H 0.0583 0.5574 0.4615
C6 C 0.1635(3) 0.4452(2) 0.39719(16)
H7 H 0.0616 0.3882 0.3668
H8 H 0.2265 0.4393 0.3505
C7 C 0.5066(3) 0.41967(19) 0.73274(15)
C8 C 0.4330(3) 0.33786(18) 0.65107(15)
C9 C 0.4341(3) 0.22196(19) 0.62091(17)
H9 H 0.4420 0.1942 0.5554
H10 H 0.3379 0.1740 0.6257
C10 C 0.5723(4) 0.2200(2) 0.6840(2)
H11 H 0.5627 0.1425 0.6739
H12 H 0.6675 0.2520 0.6672
C11 C 0.5833(3) 0.2832(2) 0.78361(19)
H13 H 0.6726 0.2784 0.8214
H14 H 0.4904 0.2479 0.8007
C12 C 0.5994(3) 0.4032(2) 0.80825(16)
H15 H 0.5655 0.4316 0.8664
H16 H 0.7086 0.4460 0.8194
C13 C 0.3979(3) 0.59393(18) 0.82297(14)
C14 C 0.2738(3) 0.51996(18) 0.84424(15)
C15 C 0.1547(3) 0.43575(19) 0.77385(15)
H17 H 0.1572 0.4226 0.7109
C16 C 0.0333(3) 0.3709(2) 0.79305(17)
H18 H -0.0472 0.3150 0.7434
C17 C 0.0274(3) 0.3864(2) 0.88377(17)
H19 H -0.0565 0.3419 0.8970
C18 C 0.1462(3) 0.4681(2) 0.95483(16)
H20 H 0.1446 0.4789 1.0175
C19 C 0.2661(3) 0.5336(2) 0.93583(15)
H21 H 0.3460 0.5896 0.9858
C20 C 0.5082(3) 0.81452(17) 0.81769(14)
C21 C 0.4074(3) 0.85482(19) 0.77849(15)
H22 H 0.3076 0.8444 0.7898
C22 C 0.4536(3) 0.9107(2) 0.72245(16)
H23 H 0.3855 0.9393 0.6960
C23 C 0.5972(3) 0.9246(2) 0.70509(17)
H24 H 0.6268 0.9615 0.6655
C24 C 0.6986(3) 0.88571(19) 0.74454(16)
H25 H 0.7977 0.8959 0.7322
C25 C 0.6560(3) 0.83201(19) 0.80191(15)
H26 H 0.7267 0.8070 0.8306
C26 C 0.2815(3) 0.76393(18) 0.92089(15)
C27 C 0.1429(3) 0.71571(19) 0.85474(16)
H27 H 0.1381 0.6681 0.7934
C28 C 0.0129(3) 0.7366(2) 0.87771(17)
H28 H -0.0810 0.7047 0.8320
C29 C 0.0189(3) 0.8044(2) 0.96764(18)
H29 H -0.0710 0.8185 0.9836
C30 C 0.1550(3) 0.8512(2) 1.03375(17)
H30 H 0.1585 0.8976 1.0953
C31 C 0.2870(3) 0.83113(18) 1.01131(15)
H31 H 0.3805 0.8630 1.0573
C32 C 0.5993(3) 0.79470(18) 0.98846(14)
C33 C 0.6692(3) 0.90894(19) 1.02991(16)
H32 H 0.6412 0.9544 1.0012
C34 C 0.7788(3) 0.9560(2) 1.11251(16)
H33 H 0.8274 1.0337 1.1403
C35 C 0.8177(3) 0.8902(2) 1.15464(16)
H34 H 0.8907 0.9229 1.2125
C36 C 0.7510(3) 0.7765(2) 1.11306(16)
H35 H 0.7788 0.7314 1.1422
C37 C 0.6441(3) 0.7287(2) 1.02936(15)
H36 H 0.6011 0.6506 0.9997
Cl1 Cl -0.03441(6) 0.17513(5) 0.32741(4)
O1 O 0.2378(2) 0.99438(16) 0.44679(12)
C39 C 0.2388(3) 0.9295(2) 0.50106(18)
H43 H 0.2319 0.9708 0.5649
H44 H 0.3345 0.9103 0.5046
C40 C 0.1011(3) 0.8261(2) 0.45309(17)
H45 H 0.0579 0.7994 0.4985
H46 H 0.1273 0.7665 0.4076
C41 C -0.0085(3) 0.8663(2) 0.40531(18)
H47 H -0.0827 0.8049 0.3505
H48 H -0.0651 0.9030 0.4484
C42 C 0.0985(3) 0.9475(2) 0.37703(17)
H49 H 0.1163 0.9092 0.3154
H50 H 0.0548 1.0054 0.3740
H37? H 0.3326 0.1713 0.5808
H38? H 0.5116 0.2127 0.5837
C38? C 0.4685(17) 0.1930(12) 0.6991(10)
H39? H 0.5072 0.1296 0.6787
H40? H 0.3718 0.1680 0.7175
H41? H 0.6852 0.2759 0.7777
H42? H 0.5611 0.2664 0.8379
loop_
_geom_bond_atom_site_label_1
_geom_bond_atom_site_label_2
_geom_bond_site_symmetry_1
_geom_bond_site_symmetry_2
P1 N1 1_555 1_555
P2 N2 1_555 1_555
P3 C13 1_555 1_555
N1 N2 1_555 1_555
N2 C2 1_555 1_555
C1 P1 1_555 1_555
C2 C1 1_555 1_555
C3 C2 1_555 1_555
H1 C3 1_555 1_555
H2 C3 1_555 1_555
C4 C3 1_555 1_555
H3 C4 1_555 1_555
H4 C4 1_555 1_555
C5 C4 1_555 1_555
H5 C5 1_555 1_555
H6 C5 1_555 1_555
C6 C1 1_555 1_555
H7 C6 1_555 1_555
H8 C6 1_555 1_555
C7 P2 1_555 1_555
C8 N1 1_555 1_555
C9 C8 1_555 1_555
H9 C9 1_555 1_555
H10 C9 1_555 1_555
C10 C9 1_555 1_555
H11 C10 1_555 1_555
H12 C10 1_555 1_555
C11 C10 1_555 1_555
H13 C11 1_555 1_555
H14 C11 1_555 1_555
C12 C7 1_555 1_555
H15 C12 1_555 1_555
H16 C12 1_555 1_555
C13 P2 1_555 1_555
C14 C13 1_555 1_555
C15 C14 1_555 1_555
H17 C15 1_555 1_555
C16 C15 1_555 1_555
H18 C16 1_555 1_555
C17 C16 1_555 1_555
H19 C17 1_555 1_555
C18 C17 1_555 1_555
H20 C18 1_555 1_555
C19 C14 1_555 1_555
H21 C19 1_555 1_555
C20 P3 1_555 1_555
C21 C20 1_555 1_555
H22 C21 1_555 1_555
C22 C21 1_555 1_555
H23 C22 1_555 1_555
C23 C22 1_555 1_555
H24 C23 1_555 1_555
C24 C23 1_555 1_555
H25 C24 1_555 1_555
C25 C20 1_555 1_555
H26 C25 1_555 1_555
C26 P3 1_555 1_555
C27 C26 1_555 1_555
H27 C27 1_555 1_555
C28 C27 1_555 1_555
H28 C28 1_555 1_555
C29 C28 1_555 1_555
H29 C29 1_555 1_555
C30 C29 1_555 1_555
H30 C30 1_555 1_555
C31 C26 1_555 1_555
H31 C31 1_555 1_555
C32 P3 1_555 1_555
C33 C32 1_555 1_555
H32 C33 1_555 1_555
C34 C33 1_555 1_555
H33 C34 1_555 1_555
C35 C34 1_555 1_555
H34 C35 1_555 1_555
C36 C35 1_555 1_555
H35 C36 1_555 1_555
C37 C32 1_555 1_555
H36 C37 1_555 1_555
O1 C39 1_555 1_555
C39 H43 1_555 1_555
H44 C39 1_555 1_555
C40 C39 1_555 1_555
H45 C40 1_555 1_555
H46 C40 1_555 1_555
C41 C40 1_555 1_555
H47 C41 1_555 1_555
H48 C41 1_555 1_555
C42 O1 1_555 1_555
H49 C42 1_555 1_555
H50 C42 1_555 1_555
C5 C6 1_555 1_555
C7 C8 1_555 1_555
C11 C12 1_555 1_555
C18 C19 1_555 1_555
C24 C25 1_555 1_555
C30 C31 1_555 1_555
C36 C37 1_555 1_555
C41 C42 1_555 1_555

#END
