
#######################################################################
#
#                 Cambridge Crystallographic Data Centre
#                                CCDC 
#
#######################################################################
#
# If this CIF has been generated from an entry in the Cambridge 
# Structural Database, then it will include bibliographic, chemical, 
# crystal, experimental, refinement or atomic coordinate data resulting 
# from the CCDC's data processing and validation procedures.
#
#######################################################################

data_REXREU
_chemical_formula_moiety         'C45 H50 S2'
_chemical_name_systematic        
9,9-diethyl-2,7-bis{[4-(hexylsulfanyl)phenyl]ethynyl}-9H-fluorene
_symmetry_cell_setting           monoclinic
_symmetry_space_group_name_H-M   'P 21/n'
_symmetry_Int_Tables_number      14
_space_group_name_Hall           '-P 2yn'
loop_
_symmetry_equiv_pos_site_id
_symmetry_equiv_pos_as_xyz
1 x,y,z
2 1/2-x,1/2+y,1/2-z
3 -x,-y,-z
4 1/2+x,1/2-y,1/2+z
_cell_length_a                   18.5324(13)
_cell_length_b                   7.4286(5)
_cell_length_c                   27.642(2)
_cell_angle_alpha                90
_cell_angle_beta                 102.721(7)
_cell_angle_gamma                90
_cell_volume                     3712.06
_exptl_crystal_colour            colorless
_exptl_crystal_description       prism
_cell_formula_units_Z            4
loop_
_atom_site_label
_atom_site_type_symbol
_atom_site_fract_x
_atom_site_fract_y
_atom_site_fract_z
S1 S 0.75634(2) 0.66262(6) 0.72806(2)
C1 C -0.42472(8) 0.2925(2) 0.53140(6)
H1 H -0.4637 0.2777 0.5472
C2 C 0.04269(8) 0.47570(19) 0.61899(5)
S2 S -0.52232(2) 0.23015(6) 0.44080(2)
C3 C 1.08290(9) 0.6398(3) 0.87896(6)
H2 H 1.0680 0.5610 0.9030
H3 H 1.0858 0.7614 0.8921
C4 C 0.61324(9) 0.6410(2) 0.68591(6)
H4 H 0.6308 0.6390 0.6569
C5 C 0.66300(8) 0.6530(2) 0.73163(6)
C6 C 0.28560(8) 0.6192(2) 0.70005(6)
C7 C 0.13249(8) 0.5999(2) 0.68211(5)
C8 C -0.08834(8) 0.4792(2) 0.61314(6)
C9 C 0.05312(8) 0.5707(2) 0.66369(5)
C10 C 1.02477(8) 0.6333(2) 0.83081(6)
H5 H 1.0287 0.5188 0.8147
H6 H 1.0353 0.7274 0.8091
C11 C 0.17018(8) 0.51661(19) 0.64959(5)
C12 C -0.16139(8) 0.4319(2) 0.58714(6)
C13 C 0.36500(8) 0.6259(2) 0.71064(6)
C14 C 1.15872(9) 0.5834(3) 0.87221(8)
H7 H 1.1731 0.6590 0.8478
H8 H 1.1570 0.4604 0.8614
H9 H 1.1940 0.5950 0.9032
C15 C 0.63555(9) 0.6572(2) 0.77436(6)
H10 H 0.6681 0.6653 0.8051
C16 C -0.30779(9) 0.3359(2) 0.48483(6)
H11 H -0.2687 0.3491 0.4690
C17 C -0.37747(9) 0.3005(2) 0.45731(6)
H12 H -0.3852 0.2916 0.4230
C18 C 0.11845(11) 0.7137(2) 0.55295(7)
H13 H 0.1207 0.7513 0.5201
H14 H 0.1592 0.7651 0.5765
H15 H 0.0728 0.7536 0.5603
C19 C -0.58792(8) 0.2134(2) 0.47974(6)
H16 H -0.5743 0.1169 0.5037
H17 H -0.5898 0.3252 0.4976
C20 C 0.11486(11) 0.1171(2) 0.64800(7)
H18 H 0.1240 -0.0082 0.6433
H19 H 0.0649 0.1327 0.6515
H20 H 0.1484 0.1598 0.6773
C21 C -0.93354(10) 0.0441(3) 0.43071(9)
H21 H -0.9259 -0.0684 0.4155
H22 H -0.9503 0.1327 0.4054
H23 H -0.9701 0.0289 0.4501
C22 C -0.86155(10) 0.1058(3) 0.46390(8)
H24 H -0.8496 0.0272 0.4926
H25 H -0.8681 0.2264 0.4757
C23 C 0.56000(9) 0.6497(2) 0.77163(6)
H26 H 0.5424 0.6534 0.8006
C24 C 0.80993(8) 0.6614(2) 0.79087(6)
H27 H 0.8004 0.7694 0.8082
H28 H 0.7976 0.5573 0.8086
C25 C 0.17057(8) 0.6961(2) 0.72280(6)
H29 H 0.1452 0.7528 0.7441
C26 C -0.00685(8) 0.6198(2) 0.68326(6)
H30 H 0.0002 0.6837 0.7129
C27 C 0.51010(8) 0.6366(2) 0.72598(6)
C28 C -0.07724(8) 0.5725(2) 0.65810(6)
H31 H -0.1177 0.6031 0.6712
C29 C -0.72431(8) 0.1538(2) 0.47284(6)
H32 H -0.7299 0.2655 0.4898
H33 H -0.7113 0.0602 0.4977
C30 C -0.79739(9) 0.1063(2) 0.43810(6)
H34 H -0.8074 0.1925 0.4111
H35 H -0.7933 -0.0118 0.4240
C31 C -0.22267(8) 0.3937(2) 0.56464(6)
C32 C 0.12648(9) 0.2228(2) 0.60355(6)
H36 H 0.0922 0.1780 0.5743
H37 H 0.1761 0.1991 0.5992
C33 C 0.12279(8) 0.5103(2) 0.55619(6)
H38 H 0.1696 0.4725 0.5492
H39 H 0.0837 0.4606 0.5305
C34 C 0.24681(8) 0.7063(2) 0.73124(6)
H40 H 0.2727 0.7722 0.7581
C35 C -0.35439(9) 0.3295(2) 0.55900(6)
H41 H -0.3468 0.3390 0.5933
C36 C 0.43123(8) 0.6301(2) 0.72045(6)
C37 C 0.24652(8) 0.5250(2) 0.65852(6)
H42 H 0.2717 0.4687 0.6371
C38 C -0.66241(8) 0.1746(2) 0.44546(6)
H43 H -0.6746 0.2719 0.4217
H44 H -0.6586 0.0649 0.4271
C39 C -0.29498(8) 0.3525(2) 0.53645(6)
C40 C -0.43695(8) 0.2777(2) 0.48026(6)
C41 C 0.53812(9) 0.6322(2) 0.68339(6)
H45 H 0.5057 0.6231 0.6526
C42 C -0.02737(8) 0.4323(2) 0.59332(5)
H46 H -0.0343 0.3725 0.5631
C43 C 0.94557(8) 0.6561(2) 0.83689(6)
H47 H 0.9337 0.5596 0.8575
H48 H 0.9413 0.7692 0.8536
C44 C 0.89086(8) 0.6540(2) 0.78717(6)
H49 H 0.8986 0.5454 0.7695
H50 H 0.9010 0.7560 0.7678
C45 C 0.11625(8) 0.4290(2) 0.60630(5)
loop_
_geom_bond_atom_site_label_1
_geom_bond_atom_site_label_2
_geom_bond_site_symmetry_1
_geom_bond_site_symmetry_2
S1 C5 1_555 1_555
C1 H1 1_555 1_555
C2 C9 1_555 1_555
S2 C19 1_555 1_555
C3 H2 1_555 1_555
H3 C3 1_555 1_555
C4 H4 1_555 1_555
C5 C4 1_555 1_555
C6 C13 1_555 1_555
C7 C9 1_555 1_555
C8 C12 1_555 1_555
C9 C26 1_555 1_555
C10 C3 1_555 1_555
H5 C10 1_555 1_555
H6 C10 1_555 1_555
C11 C7 1_555 1_555
C12 C31 1_555 1_555
C13 C36 1_555 1_555
C14 C3 1_555 1_555
H7 C14 1_555 1_555
H8 C14 1_555 1_555
H9 C14 1_555 1_555
C15 C5 1_555 1_555
H10 C15 1_555 1_555
C16 H11 1_555 1_555
C17 C16 1_555 1_555
H12 C17 1_555 1_555
C18 H13 1_555 1_555
H14 C18 1_555 1_555
H15 C18 1_555 1_555
C19 H16 1_555 1_555
H17 C19 1_555 1_555
C20 H18 1_555 1_555
H19 C20 1_555 1_555
H20 C20 1_555 1_555
C21 H21 1_555 1_555
H22 C21 1_555 1_555
H23 C21 1_555 1_555
C22 C21 1_555 1_555
H24 C22 1_555 1_555
H25 C22 1_555 1_555
C23 C15 1_555 1_555
H26 C23 1_555 1_555
C24 S1 1_555 1_555
H27 C24 1_555 1_555
H28 C24 1_555 1_555
C25 C7 1_555 1_555
H29 C25 1_555 1_555
C26 H30 1_555 1_555
C27 C23 1_555 1_555
C28 C8 1_555 1_555
H31 C28 1_555 1_555
C29 H32 1_555 1_555
H33 C29 1_555 1_555
C30 C22 1_555 1_555
H34 C30 1_555 1_555
H35 C30 1_555 1_555
C31 C39 1_555 1_555
C32 C20 1_555 1_555
H36 C32 1_555 1_555
H37 C32 1_555 1_555
C33 C18 1_555 1_555
H38 C33 1_555 1_555
H39 C33 1_555 1_555
C34 C6 1_555 1_555
H40 C34 1_555 1_555
C35 C1 1_555 1_555
H41 C35 1_555 1_555
C36 C27 1_555 1_555
C37 C6 1_555 1_555
H42 C37 1_555 1_555
C38 C19 1_555 1_555
H43 C38 1_555 1_555
H44 C38 1_555 1_555
C39 C16 1_555 1_555
C40 C1 1_555 1_555
C41 C4 1_555 1_555
H45 C41 1_555 1_555
C42 C2 1_555 1_555
H46 C42 1_555 1_555
C43 C10 1_555 1_555
H47 C43 1_555 1_555
H48 C43 1_555 1_555
C44 C24 1_555 1_555
H49 C44 1_555 1_555
H50 C44 1_555 1_555
C45 C2 1_555 1_555
S2 C40 1_555 1_555
C8 C42 1_555 1_555
C11 C37 1_555 1_555
C11 C45 1_555 1_555
C17 C40 1_555 1_555
C25 C34 1_555 1_555
C26 C28 1_555 1_555
C27 C41 1_555 1_555
C29 C30 1_555 1_555
C29 C38 1_555 1_555
C32 C45 1_555 1_555
C33 C45 1_555 1_555
C35 C39 1_555 1_555
C43 C44 1_555 1_555

#END
