
#######################################################################
#
#                 Cambridge Crystallographic Data Centre
#                                CCDC 
#
#######################################################################
#
# If this CIF has been generated from an entry in the Cambridge 
# Structural Database, then it will include bibliographic, chemical, 
# crystal, experimental, refinement or atomic coordinate data resulting 
# from the CCDC's data processing and validation procedures.
#
#######################################################################

data_REXRAO
_chemical_formula_moiety         'C17 H27 N1 O4'
_chemical_name_systematic        
'(+)-t-butyl (2R,3S)-2-(1-methylethyl)-5-[(E)-(2-oxo-4,5-dihydrofuran-3(2H)-ylidene)methyl]pyrrolidine-1-carboxylate'
_symmetry_cell_setting           orthorhombic
_symmetry_space_group_name_H-M   'P 21 21 21'
_symmetry_Int_Tables_number      19
_space_group_name_Hall           'P 2ac 2ab'
loop_
_symmetry_equiv_pos_site_id
_symmetry_equiv_pos_as_xyz
1 x,y,z
2 1/2-x,-y,1/2+z
3 -x,1/2+y,1/2-z
4 1/2+x,1/2-y,-z
_cell_length_a                   5.9157(3)
_cell_length_b                   14.0249(8)
_cell_length_c                   20.6938(13)
_cell_angle_alpha                90
_cell_angle_beta                 90
_cell_angle_gamma                90
_cell_volume                     1716.9
_exptl_crystal_colour            white
_chemical_melting_point          112-113deg.C
_cell_formula_units_Z            4
loop_
_atom_site_label
_atom_site_type_symbol
_atom_site_fract_x
_atom_site_fract_y
_atom_site_fract_z
N1 N 0.6608(5) 0.2781(2) 0.25122(13)
C1 C 0.5775(6) 0.3614(3) 0.21370(18)
H1 H 0.4955 0.3394 0.1741
C2 C 0.4110(6) 0.4087(3) 0.2613(2)
H2 H 0.4894 0.4557 0.2891
H3 H 0.2871 0.4412 0.2379
C3 C 0.3203(6) 0.3256(3) 0.30136(19)
H4 H 0.1923 0.2943 0.2790
H5 H 0.2686 0.3480 0.3443
C4 C 0.5200(6) 0.2565(3) 0.30836(16)
H6 H 0.4618 0.1899 0.3042
C5 C 0.6555(7) 0.2642(3) 0.37213(16)
H7 H 0.7950 0.2248 0.3666
C6 C 0.7325(7) 0.3643(3) 0.38856(19)
H8 H 0.8183 0.3633 0.4291
H9 H 0.6002 0.4058 0.3935
H10 H 0.8286 0.3888 0.3537
C7 C 0.5224(9) 0.2204(4) 0.42748(19)
H11 H 0.6100 0.2255 0.4675
H12 H 0.4927 0.1530 0.4181
H13 H 0.3786 0.2543 0.4325
C8 C 0.7821(6) 0.2071(2) 0.22389(17)
O1 O 0.8159(5) 0.12959(18) 0.24948(12)
O2 O 0.8625(4) 0.23408(18) 0.16562(11)
C9 C 0.9908(7) 0.1674(3) 0.12405(18)
C10 C 0.8398(8) 0.0853(3) 0.1043(2)
H14 H 0.7039 0.1102 0.0831
H15 H 0.7963 0.0487 0.1427
H16 H 0.9215 0.0437 0.0742
C11 C 1.2023(7) 0.1342(3) 0.1569(2)
H17 H 1.2943 0.1895 0.1689
H18 H 1.2883 0.0933 0.1274
H19 H 1.1625 0.0981 0.1958
C12 C 1.0469(8) 0.2299(4) 0.06642(19)
H20 H 0.9067 0.2501 0.0453
H21 H 1.1394 0.1937 0.0357
H22 H 1.1309 0.2861 0.0810
C13 C 0.7664(6) 0.4277(3) 0.19544(17)
H23 H 0.8738 0.4416 0.2282
C14 C 0.7998(6) 0.4691(3) 0.13824(17)
C15 C 0.9862(7) 0.5351(3) 0.11888(19)
H24 H 1.1321 0.5151 0.1380
H25 H 0.9530 0.6014 0.1322
C16 C 0.9894(8) 0.5255(4) 0.0458(2)
H26 H 1.0178 0.5882 0.0253
H27 H 1.1091 0.4806 0.0321
O3 O 0.7675(5) 0.4896(2) 0.02777(12)
C17 C 0.6575(7) 0.4533(3) 0.08008(17)
O4 O 0.4746(5) 0.4169(2) 0.07432(13)
loop_
_geom_bond_atom_site_label_1
_geom_bond_atom_site_label_2
_geom_bond_site_symmetry_1
_geom_bond_site_symmetry_2
N1 C1 1_555 1_555
C1 H1 1_555 1_555
C2 C1 1_555 1_555
H2 C2 1_555 1_555
H3 C2 1_555 1_555
C3 C2 1_555 1_555
H4 C3 1_555 1_555
H5 C3 1_555 1_555
C4 N1 1_555 1_555
H6 C4 1_555 1_555
C5 C4 1_555 1_555
H7 C5 1_555 1_555
C6 C5 1_555 1_555
H8 C6 1_555 1_555
H9 C6 1_555 1_555
H10 C6 1_555 1_555
C7 C5 1_555 1_555
H11 C7 1_555 1_555
H12 C7 1_555 1_555
H13 C7 1_555 1_555
C8 N1 1_555 1_555
O1 C8 1_555 1_555
O2 C8 1_555 1_555
C9 O2 1_555 1_555
C10 C9 1_555 1_555
H14 C10 1_555 1_555
H15 C10 1_555 1_555
H16 C10 1_555 1_555
C11 C9 1_555 1_555
H17 C11 1_555 1_555
H18 C11 1_555 1_555
H19 C11 1_555 1_555
C12 C9 1_555 1_555
H20 C12 1_555 1_555
H21 C12 1_555 1_555
H22 C12 1_555 1_555
C13 C1 1_555 1_555
H23 C13 1_555 1_555
C14 C13 1_555 1_555
C15 C14 1_555 1_555
H24 C15 1_555 1_555
H25 C15 1_555 1_555
C16 C15 1_555 1_555
H26 C16 1_555 1_555
H27 C16 1_555 1_555
O3 C16 1_555 1_555
C17 C14 1_555 1_555
O4 C17 1_555 1_555
C3 C4 1_555 1_555
O3 C17 1_555 1_555

#END
