
#######################################################################
#
#                 Cambridge Crystallographic Data Centre
#                                CCDC 
#
#######################################################################
#
# If this CIF has been generated from an entry in the Cambridge 
# Structural Database, then it will include bibliographic, chemical, 
# crystal, experimental, refinement or atomic coordinate data resulting 
# from the CCDC's data processing and validation procedures.
#
#######################################################################

data_REXSAR
_chemical_formula_moiety         'C37 H36 N2 P3 1+,C2 H3 N1,Cl1 1-'
_chemical_name_systematic        
'12-(phenyl(triphenylphosphoranylidene)methyl)-2,3,4,7,8,9,10,12-octahydro-1H,6H-[1,2,3]benzodiazaphospholo[2,1-a][1,2,3]benzodiazaphosphol-6-ium chloride acetonitrile solvate'
_symmetry_cell_setting           monoclinic
_symmetry_space_group_name_H-M   'P 21/n'
_symmetry_Int_Tables_number      14
_space_group_name_Hall           '-P 2yn'
loop_
_symmetry_equiv_pos_site_id
_symmetry_equiv_pos_as_xyz
1 x,y,z
2 1/2-x,1/2+y,1/2-z
3 -x,-y,-z
4 1/2+x,1/2-y,1/2+z
_cell_length_a                   9.29060(10)
_cell_length_b                   23.3800(3)
_cell_length_c                   16.4782(2)
_cell_angle_alpha                90
_cell_angle_beta                 101.5890(10)
_cell_angle_gamma                90
_cell_volume                     3506.33
_exptl_crystal_colour            orange
_exptl_crystal_description       cube
_cell_formula_units_Z            4
loop_
_atom_site_label
_atom_site_type_symbol
_atom_site_fract_x
_atom_site_fract_y
_atom_site_fract_z
Cl1 Cl 0.71485(3) 0.60684(2) 0.72770(2)
P1 P 0.85688(3) 0.61356(2) 0.58255(2)
P2 P 0.86224(3) 0.59923(2) 0.32282(2)
P3 P 0.63880(3) 0.57120(2) 0.17407(2)
N1 N 0.87093(9) 0.62768(4) 0.48289(5)
N2 N 0.83448(9) 0.58374(4) 0.42835(5)
C1 C 0.80188(12) 0.54444(4) 0.55096(6)
C2 C 0.79778(11) 0.53662(4) 0.46660(6)
C3 C 0.75423(12) 0.48275(4) 0.41925(7)
H1 H 0.8213 0.4757 0.3806
H2 H 0.6532 0.4867 0.3862
C4 C 0.76089(15) 0.43222(5) 0.47903(8)
H3 H 0.7111 0.3988 0.4489
H4 H 0.8648 0.4218 0.5007
C5 C 0.68720(15) 0.44709(5) 0.55105(8)
H5 H 0.5839 0.4582 0.5291
H6 H 0.6867 0.4128 0.5863
C6 C 0.76526(14) 0.49579(5) 0.60361(7)
H7 H 0.7016 0.5102 0.6406
H8 H 0.8570 0.4812 0.6387
C7 C 0.92278(11) 0.66891(4) 0.36431(6)
C8 C 0.91812(11) 0.67649(4) 0.44432(6)
C9 C 0.95400(12) 0.73031(4) 0.49334(6)
H9 H 1.0497 0.7262 0.5321
H10 H 0.8777 0.7379 0.5262
C10 C 0.96093(12) 0.78022(4) 0.43371(7)
H11 H 0.8600 0.7913 0.4063
H12 H 1.0078 0.8136 0.4653
C11 C 1.04844(12) 0.76355(5) 0.36801(7)
H13 H 1.1479 0.7508 0.3955
H14 H 1.0592 0.7973 0.3335
C12 C 0.97092(12) 0.71542(5) 0.31280(6)
H15 H 0.8842 0.7311 0.2743
H16 H 1.0387 0.6993 0.2794
C13 C 0.69147(10) 0.61350(4) 0.26099(6)
C14 C 0.59620(10) 0.66190(4) 0.27696(6)
C15 C 0.55210(11) 0.70548(4) 0.21902(7)
H17 H 0.5839 0.7047 0.1677
C16 C 0.46234(12) 0.75001(5) 0.23529(7)
H18 H 0.4341 0.7793 0.1952
C17 C 0.41390(13) 0.75193(5) 0.30953(7)
H19 H 0.3522 0.7822 0.3204
C18 C 0.45673(13) 0.70910(5) 0.36787(7)
H20 H 0.4242 0.7101 0.4190
C19 C 0.54699(12) 0.66473(5) 0.35182(6)
H21 H 0.5757 0.6358 0.3924
C20 C 0.69549(10) 0.49754(4) 0.19220(6)
C21 C 0.84085(11) 0.48239(4) 0.19028(6)
H22 H 0.9054 0.5099 0.1747
C22 C 0.89091(12) 0.42712(5) 0.21113(7)
H23 H 0.9899 0.4171 0.2107
C23 C 0.79525(13) 0.38654(5) 0.23267(7)
H24 H 0.8293 0.3489 0.2471
C24 C 0.65042(13) 0.40094(4) 0.23310(7)
H25 H 0.5854 0.3729 0.2470
C25 C 0.60010(11) 0.45634(4) 0.21318(6)
H26 H 0.5011 0.4661 0.2139
C26 C 0.44085(10) 0.57462(4) 0.14428(6)
C27 C 0.36929(11) 0.58743(4) 0.06332(6)
H27 H 0.4247 0.5942 0.0217
C28 C 0.21660(12) 0.59027(5) 0.04389(7)
H28 H 0.1679 0.5990 -0.0111
C29 C 0.13526(12) 0.58039(5) 0.10450(7)
H29 H 0.0310 0.5817 0.0907
C30 C 0.20603(11) 0.56853(5) 0.18540(7)
H30 H 0.1501 0.5623 0.2269
C31 C 0.35822(11) 0.56584(4) 0.20560(6)
H31 H 0.4064 0.5580 0.2610
C32 C 0.70943(10) 0.59121(4) 0.08340(6)
C33 C 0.77620(11) 0.64420(4) 0.07859(6)
H32 H 0.7873 0.6702 0.1238
C34 C 0.82661(11) 0.65885(4) 0.00703(6)
H33 H 0.8717 0.6950 0.0035
C35 C 0.81120(12) 0.62096(5) -0.05896(6)
H34 H 0.8456 0.6312 -0.1075
C36 C 0.74540(12) 0.56792(5) -0.05411(6)
H35 H 0.7351 0.5420 -0.0993
C37 C 0.69488(11) 0.55297(4) 0.01672(6)
H36 H 0.6503 0.5167 0.0201
N3 N 0.81955(13) 0.79041(5) 0.11334(8)
C38 C 0.94086(14) 0.78109(5) 0.11585(7)
C39 C 1.09493(15) 0.76834(7) 0.11957(9)
H37 H 1.1156 0.7290 0.1391
H38 H 1.1558 0.7949 0.1578
H39 H 1.1174 0.7724 0.0642
loop_
_geom_bond_atom_site_label_1
_geom_bond_atom_site_label_2
_geom_bond_site_symmetry_1
_geom_bond_site_symmetry_2
P1 N1 1_555 1_555
P2 N2 1_555 1_555
P3 C13 1_555 1_555
N1 N2 1_555 1_555
N2 C2 1_555 1_555
C1 P1 1_555 1_555
C2 C1 1_555 1_555
C3 C2 1_555 1_555
H1 C3 1_555 1_555
H2 C3 1_555 1_555
C4 C3 1_555 1_555
H3 C4 1_555 1_555
H4 C4 1_555 1_555
C5 C4 1_555 1_555
H5 C5 1_555 1_555
H6 C5 1_555 1_555
C6 C1 1_555 1_555
H7 C6 1_555 1_555
H8 C6 1_555 1_555
C7 P2 1_555 1_555
C8 N1 1_555 1_555
C9 C8 1_555 1_555
H9 C9 1_555 1_555
H10 C9 1_555 1_555
C10 C9 1_555 1_555
H11 C10 1_555 1_555
H12 C10 1_555 1_555
C11 C10 1_555 1_555
H13 C11 1_555 1_555
H14 C11 1_555 1_555
C12 C7 1_555 1_555
H15 C12 1_555 1_555
H16 C12 1_555 1_555
C13 P2 1_555 1_555
C14 C13 1_555 1_555
C15 C14 1_555 1_555
H17 C15 1_555 1_555
C16 C15 1_555 1_555
H18 C16 1_555 1_555
C17 C16 1_555 1_555
H19 C17 1_555 1_555
C18 C17 1_555 1_555
H20 C18 1_555 1_555
C19 C14 1_555 1_555
H21 C19 1_555 1_555
C20 P3 1_555 1_555
C21 C20 1_555 1_555
H22 C21 1_555 1_555
C22 C21 1_555 1_555
H23 C22 1_555 1_555
C23 C22 1_555 1_555
H24 C23 1_555 1_555
C24 C23 1_555 1_555
H25 C24 1_555 1_555
C25 C20 1_555 1_555
H26 C25 1_555 1_555
C26 P3 1_555 1_555
C27 C26 1_555 1_555
H27 C27 1_555 1_555
C28 C27 1_555 1_555
H28 C28 1_555 1_555
C29 C28 1_555 1_555
H29 C29 1_555 1_555
C30 C29 1_555 1_555
H30 C30 1_555 1_555
C31 C26 1_555 1_555
H31 C31 1_555 1_555
C32 P3 1_555 1_555
C33 C32 1_555 1_555
H32 C33 1_555 1_555
C34 C33 1_555 1_555
H33 C34 1_555 1_555
C35 C34 1_555 1_555
H34 C35 1_555 1_555
C36 C35 1_555 1_555
H35 C36 1_555 1_555
C37 C32 1_555 1_555
H36 C37 1_555 1_555
N3 C38 1_555 1_555
C38 C39 1_555 1_555
C39 H37 1_555 1_555
H38 C39 1_555 1_555
H39 C39 1_555 1_555
C5 C6 1_555 1_555
C7 C8 1_555 1_555
C11 C12 1_555 1_555
C18 C19 1_555 1_555
C24 C25 1_555 1_555
C30 C31 1_555 1_555
C36 C37 1_555 1_555

#END
