
#######################################################################
#
#                 Cambridge Crystallographic Data Centre
#                                CCDC 
#
#######################################################################
#
# If this CIF has been generated from an entry in the Cambridge 
# Structural Database, then it will include bibliographic, chemical, 
# crystal, experimental, refinement or atomic coordinate data resulting 
# from the CCDC's data processing and validation procedures.
#
#######################################################################

data_REXTIZ
_chemical_formula_moiety         'C27 H29 Cl2 N1 O5'
_chemical_name_systematic        
'Di-t-butyl 2-(3-(2,4-dichlorobenzyl)-2-oxo-2,3-dihydro-1H-indol-3-yl)but-2-enedioate'
_symmetry_cell_setting           orthorhombic
_symmetry_space_group_name_H-M   'P 21 21 21'
_symmetry_Int_Tables_number      19
_space_group_name_Hall           'P 2ac 2ab'
loop_
_symmetry_equiv_pos_site_id
_symmetry_equiv_pos_as_xyz
1 x,y,z
2 1/2-x,-y,1/2+z
3 -x,1/2+y,1/2-z
4 1/2+x,1/2-y,-z
_cell_length_a                   9.8222(8)
_cell_length_b                   12.4791(10)
_cell_length_c                   23.109(2)
_cell_angle_alpha                90
_cell_angle_beta                 90
_cell_angle_gamma                90
_cell_volume                     2832.52
_exptl_crystal_colour            colorless
_exptl_crystal_description       Block
_cell_formula_units_Z            4
loop_
_atom_site_label
_atom_site_type_symbol
_atom_site_fract_x
_atom_site_fract_y
_atom_site_fract_z
Cl1 Cl -0.02174(11) 0.21212(9) -0.01254(4)
Cl2 Cl -0.39888(16) -0.07069(10) 0.04984(7)
O1 O -0.2010(3) 0.4058(2) 0.21341(11)
O2 O 0.1242(3) 0.69548(18) 0.15982(11)
O3 O 0.0430(3) 0.72401(17) 0.07033(11)
O4 O 0.2754(2) 0.49217(18) 0.15900(10)
O5 O 0.1368(3) 0.4752(2) 0.23669(11)
N1 N -0.0571(3) 0.2623(2) 0.22440(12)
H1 H -0.0897 0.2370 0.2561
C1 C -0.1506(3) 0.1778(2) 0.03535(15)
C2 C -0.2164(4) 0.0813(3) 0.02553(17)
H2 H -0.1929 0.0387 -0.0060
C3 C -0.3159(4) 0.0499(3) 0.06282(19)
C4 C -0.3541(4) 0.1120(3) 0.10858(18)
H3 H -0.4222 0.0893 0.1337
C5 C -0.2897(3) 0.2092(3) 0.11684(15)
H4 H -0.3167 0.2521 0.1477
C6 C -0.1864(3) 0.2452(3) 0.08093(15)
C7 C -0.1248(4) 0.3549(2) 0.08924(14)
H5 H -0.1979 0.4061 0.0947
H6 H -0.0769 0.3745 0.0541
C8 C -0.0256(3) 0.3648(2) 0.14044(13)
C9 C -0.1067(4) 0.3500(3) 0.19767(14)
C10 C 0.0525(3) 0.2172(3) 0.19520(15)
C11 C 0.0773(3) 0.2743(2) 0.14509(14)
C12 C 0.1837(3) 0.2452(3) 0.10946(17)
H7 H 0.2023 0.2839 0.0760
C13 C 0.2625(4) 0.1573(3) 0.1243(2)
H8 H 0.3331 0.1354 0.1002
C14 C 0.2361(4) 0.1022(3) 0.1748(2)
H9 H 0.2906 0.0439 0.1845
C15 C 0.1310(4) 0.1311(3) 0.21124(19)
H10 H 0.1141 0.0938 0.2453
C16 C 0.0424(3) 0.4745(2) 0.14233(13)
C17 C 0.0040(4) 0.5583(2) 0.11077(15)
H11 H -0.0643 0.5489 0.0834
C18 C 0.0652(4) 0.6655(2) 0.11732(16)
C19 C 0.0873(5) 0.8385(3) 0.0672(2)
C20 C 0.0441(8) 0.8670(4) 0.0058(2)
H12 H 0.0938 0.8238 -0.0213
H13 H 0.0628 0.9414 -0.0013
H14 H -0.0517 0.8540 0.0014
C21 C 0.0101(5) 0.9020(3) 0.1119(2)
H15 H -0.0855 0.8873 0.1084
H16 H 0.0260 0.9771 0.1059
H17 H 0.0406 0.8820 0.1499
C22 C 0.2403(6) 0.8453(4) 0.0753(3)
H18 H 0.2629 0.8279 0.1147
H19 H 0.2706 0.9167 0.0668
H20 H 0.2843 0.7956 0.0497
C23 C 0.1557(4) 0.4819(2) 0.18584(16)
C24 C 0.4041(4) 0.4995(3) 0.19185(17)
C25 C 0.5078(4) 0.5103(5) 0.1437(2)
H21 H 0.5040 0.4480 0.1194
H22 H 0.5972 0.5167 0.1601
H23 H 0.4878 0.5730 0.1212
C26 C 0.4002(5) 0.5993(4) 0.2289(2)
H24 H 0.3887 0.6610 0.2046
H25 H 0.4840 0.6055 0.2500
H26 H 0.3255 0.5946 0.2555
C27 C 0.4245(5) 0.3972(4) 0.2265(2)
H27 H 0.3584 0.3939 0.2570
H28 H 0.5144 0.3966 0.2427
H29 H 0.4135 0.3363 0.2015
loop_
_geom_bond_atom_site_label_1
_geom_bond_atom_site_label_2
_geom_bond_site_symmetry_1
_geom_bond_site_symmetry_2
Cl1 C1 1_555 1_555
Cl2 C3 1_555 1_555
O1 C9 1_555 1_555
O2 C18 1_555 1_555
O3 C18 1_555 1_555
O4 C23 1_555 1_555
O5 C23 1_555 1_555
N1 H1 1_555 1_555
C1 C2 1_555 1_555
C2 H2 1_555 1_555
C3 C2 1_555 1_555
C4 C3 1_555 1_555
H3 C4 1_555 1_555
C5 C4 1_555 1_555
H4 C5 1_555 1_555
C6 C1 1_555 1_555
C7 C6 1_555 1_555
H5 C7 1_555 1_555
H6 C7 1_555 1_555
C8 C7 1_555 1_555
C9 N1 1_555 1_555
C10 N1 1_555 1_555
C11 C8 1_555 1_555
C12 C11 1_555 1_555
H7 C12 1_555 1_555
C13 C12 1_555 1_555
H8 C13 1_555 1_555
C14 C13 1_555 1_555
H9 C14 1_555 1_555
C15 C10 1_555 1_555
H10 C15 1_555 1_555
C16 C8 1_555 1_555
C17 C16 1_555 1_555
H11 C17 1_555 1_555
C18 C17 1_555 1_555
C19 O3 1_555 1_555
C20 C19 1_555 1_555
H12 C20 1_555 1_555
H13 C20 1_555 1_555
H14 C20 1_555 1_555
C21 C19 1_555 1_555
H15 C21 1_555 1_555
H16 C21 1_555 1_555
H17 C21 1_555 1_555
C22 C19 1_555 1_555
H18 C22 1_555 1_555
H19 C22 1_555 1_555
H20 C22 1_555 1_555
C23 C16 1_555 1_555
C24 O4 1_555 1_555
C25 C24 1_555 1_555
H21 C25 1_555 1_555
H22 C25 1_555 1_555
H23 C25 1_555 1_555
C26 C24 1_555 1_555
H24 C26 1_555 1_555
H25 C26 1_555 1_555
H26 C26 1_555 1_555
C27 C24 1_555 1_555
H27 C27 1_555 1_555
H28 C27 1_555 1_555
H29 C27 1_555 1_555
C5 C6 1_555 1_555
C8 C9 1_555 1_555
C10 C11 1_555 1_555
C14 C15 1_555 1_555

#END
