
#######################################################################
#
#                 Cambridge Crystallographic Data Centre
#                                CCDC 
#
#######################################################################
#
# If this CIF has been generated from an entry in the Cambridge 
# Structural Database, then it will include bibliographic, chemical, 
# crystal, experimental, refinement or atomic coordinate data resulting 
# from the CCDC's data processing and validation procedures.
#
#######################################################################

data_REXVUM
_chemical_formula_moiety         'C19 H13 F3 O1'
_chemical_name_systematic        
2,5-diphenyl-3-(3,3,3-trifluoroprop-1-en-2-yl)furan
_symmetry_cell_setting           orthorhombic
_symmetry_space_group_name_H-M   'P 21 21 21'
_symmetry_Int_Tables_number      19
_space_group_name_Hall           'P 2ac 2ab'
loop_
_symmetry_equiv_pos_site_id
_symmetry_equiv_pos_as_xyz
1 x,y,z
2 1/2-x,-y,1/2+z
3 -x,1/2+y,1/2-z
4 1/2+x,1/2-y,-z
_cell_length_a                   5.7707(8)
_cell_length_b                   9.4184(13)
_cell_length_c                   28.061(4)
_cell_angle_alpha                90
_cell_angle_beta                 90
_cell_angle_gamma                90
_cell_volume                     1525.14
_exptl_crystal_colour            colorless
_cell_formula_units_Z            4
loop_
_atom_site_label
_atom_site_type_symbol
_atom_site_fract_x
_atom_site_fract_y
_atom_site_fract_z
O1 O 0.1017(2) 0.82092(13) 0.17226(5)
F1 F -0.0544(3) 1.09020(18) 0.04722(6)
F2 F -0.3296(3) 1.23867(17) 0.05344(6)
F3 F -0.0407(3) 1.24901(16) 0.10046(6)
C1 C 0.0850(4) 0.9278(2) 0.20538(7)
C2 C -0.0644(4) 1.0255(3) 0.18909(8)
C3 C -0.1452(3) 0.9808(2) 0.14394(8)
C4 C -0.0412(4) 0.8554(2) 0.13466(7)
C5 C -0.0432(4) 0.7516(2) 0.09610(7)
C6 C 0.1343(5) 0.6559(3) 0.09101(9)
C7 C 0.1305(6) 0.5542(3) 0.05553(9)
C8 C -0.0542(6) 0.5490(3) 0.02506(9)
C9 C -0.2312(5) 0.6449(3) 0.02901(9)
C10 C -0.2261(5) 0.7448(3) 0.06435(8)
C11 C -0.5246(5) 1.0610(3) 0.11527(12)
C12 C -0.3009(4) 1.0643(2) 0.11258(8)
C13 C -0.1843(5) 1.1606(3) 0.07842(11)
C14 C 0.2325(4) 0.9150(2) 0.24671(7)
C15 C 0.1907(4) 0.9955(2) 0.28714(8)
H1 H 0.0622 1.0549 0.2883
C16 C 0.3371(5) 0.9881(3) 0.32532(9)
H2 H 0.3068 1.0425 0.3523
C17 C 0.5274(5) 0.9017(3) 0.32445(9)
H3 H 0.6272 0.8980 0.3504
C18 C 0.5694(5) 0.8208(3) 0.28492(9)
H4 H 0.6979 0.7612 0.2841
C19 C 0.4234(4) 0.8272(2) 0.24662(8)
H5 H 0.4535 0.7712 0.2200
H6 H -0.107(3) 1.107(2) 0.2053(6)
H7 H 0.265(4) 0.6568(19) 0.1108(6)
H8 H 0.276(4) 0.497(2) 0.0521(8)
H9 H -0.051(4) 0.482(2) 0.0005(7)
H10 H -0.369(4) 0.644(2) 0.0080(7)
H11 H -0.363(4) 0.802(2) 0.0678(7)
H12 H -0.605(4) 0.994(3) 0.1377(8)
H13 H -0.620(4) 1.127(2) 0.0924(8)
loop_
_geom_bond_atom_site_label_1
_geom_bond_atom_site_label_2
_geom_bond_site_symmetry_1
_geom_bond_site_symmetry_2
O1 C1 1_555 1_555
F1 C13 1_555 1_555
F2 C13 1_555 1_555
F3 C13 1_555 1_555
C1 C2 1_555 1_555
C2 C3 1_555 1_555
C3 C4 1_555 1_555
C4 O1 1_555 1_555
C5 C4 1_555 1_555
C6 C5 1_555 1_555
C7 C6 1_555 1_555
C8 C7 1_555 1_555
C9 C8 1_555 1_555
C10 C5 1_555 1_555
C11 C12 1_555 1_555
C12 C3 1_555 1_555
C13 C12 1_555 1_555
C14 C1 1_555 1_555
C15 C14 1_555 1_555
H1 C15 1_555 1_555
C16 C15 1_555 1_555
H2 C16 1_555 1_555
C17 C16 1_555 1_555
H3 C17 1_555 1_555
C18 C17 1_555 1_555
H4 C18 1_555 1_555
C19 C14 1_555 1_555
H5 C19 1_555 1_555
H6 C2 1_555 1_555
H7 C6 1_555 1_555
H8 C7 1_555 1_555
H9 C8 1_555 1_555
H10 C9 1_555 1_555
H11 C10 1_555 1_555
H12 C11 1_555 1_555
H13 C11 1_555 1_555
C9 C10 1_555 1_555
C18 C19 1_555 1_555

#END
