
#######################################################################
#
#                 Cambridge Crystallographic Data Centre
#                                CCDC 
#
#######################################################################
#
# If this CIF has been generated from an entry in the Cambridge 
# Structural Database, then it will include bibliographic, chemical, 
# crystal, experimental, refinement or atomic coordinate data resulting 
# from the CCDC's data processing and validation procedures.
#
#######################################################################

data_REYBIJ
_chemical_formula_moiety         'C21 H15 N3 O1'
_chemical_name_systematic        3-(2,2':6',2''-terpyridin-4'-yl)phenol
_symmetry_cell_setting           monoclinic
_symmetry_space_group_name_H-M   'P 21/c'
_symmetry_Int_Tables_number      14
_space_group_name_Hall           '-P 2ybc'
loop_
_symmetry_equiv_pos_site_id
_symmetry_equiv_pos_as_xyz
1 x,y,z
2 -x,1/2+y,1/2-z
3 -x,-y,-z
4 x,1/2-y,1/2+z
_cell_length_a                   8.7405(4)
_cell_length_b                   19.9114(9)
_cell_length_c                   9.6353(5)
_cell_angle_alpha                90
_cell_angle_beta                 109.257(2)
_cell_angle_gamma                90
_cell_volume                     1583.06
_exptl_crystal_colour            colorless
_exptl_crystal_description       Prism
_cell_formula_units_Z            4
loop_
_atom_site_label
_atom_site_type_symbol
_atom_site_fract_x
_atom_site_fract_y
_atom_site_fract_z
O1 O 0.75107(12) 1.05449(4) 1.03100(11)
H1 H 0.7947 1.0863 1.0049
N1 N 0.20347(12) 0.81645(5) 1.07404(12)
N2 N 0.46729(11) 0.69978(5) 0.97790(11)
N3 N 0.79770(13) 0.62857(5) 0.88687(13)
C1 C 0.08236(16) 0.81430(7) 1.13021(17)
H2 H 0.0252 0.8537 1.1299
C2 C 0.03688(16) 0.75762(7) 1.18830(17)
H3 H -0.0466 0.7590 1.2282
C3 C 0.11823(17) 0.69887(7) 1.18575(17)
H4 H 0.0903 0.6595 1.2234
C4 C 0.24207(16) 0.69911(6) 1.12645(16)
H5 H 0.2976 0.6597 1.1226
C5 C 0.28312(13) 0.75876(6) 1.07261(13)
C6 C 0.41868(13) 0.75996(5) 1.01080(13)
C7 C 0.49016(13) 0.82001(5) 0.99031(13)
H6 H 0.4548 0.8606 1.0167
C8 C 0.61482(13) 0.81913(5) 0.93014(12)
C9 C 0.66626(14) 0.75650(5) 0.89871(13)
H7 H 0.7510 0.7534 0.8608
C10 C 0.59045(13) 0.69875(5) 0.92418(13)
C11 C 0.64721(14) 0.63128(6) 0.89495(13)
C12 C 0.54955(16) 0.57479(6) 0.87874(15)
H8 H 0.4450 0.5785 0.8828
C13 C 0.60985(19) 0.51307(6) 0.85652(16)
H9 H 0.5465 0.4746 0.8452
C14 C 0.7649(2) 0.50936(7) 0.85140(16)
H10 H 0.8092 0.4684 0.8379
C15 C 0.85319(19) 0.56803(7) 0.86687(17)
H11 H 0.9580 0.5653 0.8631
C16 C 0.68922(12) 0.88213(5) 0.89929(12)
C17 C 0.75966(14) 0.88368(6) 0.78866(14)
H12 H 0.7608 0.8452 0.7343
C18 C 0.82776(16) 0.94262(6) 0.76005(15)
H13 H 0.8742 0.9434 0.6860
C19 C 0.82769(15) 1.00016(6) 0.83978(15)
H14 H 0.8755 1.0392 0.8206
C20 C 0.75626(13) 0.99961(5) 0.94860(14)
C21 C 0.68707(13) 0.94069(5) 0.97792(13)
H15 H 0.6389 0.9404 1.0507
loop_
_geom_bond_atom_site_label_1
_geom_bond_atom_site_label_2
_geom_bond_site_symmetry_1
_geom_bond_site_symmetry_2
O1 H1 1_555 1_555
N1 C1 1_555 1_555
N2 C6 1_555 1_555
N3 C11 1_555 1_555
C1 H2 1_555 1_555
C2 C1 1_555 1_555
H3 C2 1_555 1_555
C3 C2 1_555 1_555
H4 C3 1_555 1_555
C4 C3 1_555 1_555
H5 C4 1_555 1_555
C5 N1 1_555 1_555
C6 C5 1_555 1_555
C7 C6 1_555 1_555
H6 C7 1_555 1_555
C8 C7 1_555 1_555
C9 C8 1_555 1_555
H7 C9 1_555 1_555
C10 N2 1_555 1_555
C11 C10 1_555 1_555
C12 C11 1_555 1_555
H8 C12 1_555 1_555
C13 C12 1_555 1_555
H9 C13 1_555 1_555
C14 C13 1_555 1_555
H10 C14 1_555 1_555
C15 N3 1_555 1_555
H11 C15 1_555 1_555
C16 C8 1_555 1_555
C17 C16 1_555 1_555
H12 C17 1_555 1_555
C18 C17 1_555 1_555
H13 C18 1_555 1_555
C19 C18 1_555 1_555
H14 C19 1_555 1_555
C20 O1 1_555 1_555
C21 C16 1_555 1_555
H15 C21 1_555 1_555
C4 C5 1_555 1_555
C9 C10 1_555 1_555
C14 C15 1_555 1_555
C19 C20 1_555 1_555
C20 C21 1_555 1_555

#END
