
#######################################################################
#
#                 Cambridge Crystallographic Data Centre
#                                CCDC 
#
#######################################################################
#
# If this CIF has been generated from an entry in the Cambridge 
# Structural Database, then it will include bibliographic, chemical, 
# crystal, experimental, refinement or atomic coordinate data resulting 
# from the CCDC's data processing and validation procedures.
#
#######################################################################

data_REYCOO
_chemical_formula_moiety         'C12 H13 B1 Br1 N1'
_chemical_name_systematic        
3-bromo-1-ethyl-1,2-dihydro-2-phenyl-1-azaborine
_symmetry_cell_setting           orthorhombic
_symmetry_space_group_name_H-M   'P 21 21 21'
_symmetry_Int_Tables_number      19
_space_group_name_Hall           'P 2ac 2ab'
loop_
_symmetry_equiv_pos_site_id
_symmetry_equiv_pos_as_xyz
1 x,y,z
2 1/2-x,-y,1/2+z
3 -x,1/2+y,1/2-z
4 1/2+x,1/2-y,-z
_cell_length_a                   7.3631(7)
_cell_length_b                   7.7051(7)
_cell_length_c                   41.717(4)
_cell_angle_alpha                90
_cell_angle_beta                 90
_cell_angle_gamma                90
_cell_volume                     2366.75
_exptl_crystal_colour            colorless
_exptl_crystal_description       plate
_chemical_melting_point          '22 deg.C'
_cell_formula_units_Z            8
_exptl_crystal_recrystallization_method pentane
loop_
_atom_site_label
_atom_site_type_symbol
_atom_site_fract_x
_atom_site_fract_y
_atom_site_fract_z
Br1 Br 0.21002(4) 0.62629(4) 0.198328(8)
N1 N 0.7023(3) 0.9147(3) 0.19979(5)
B1 B 0.5210(4) 0.8688(5) 0.19009(7)
C1 C 0.7931(4) 0.8243(4) 0.22299(7)
H1 H 0.9118 0.8613 0.2288
C2 C 0.7218(4) 0.6842(4) 0.23819(7)
H2 H 0.7912 0.6252 0.2540
C3 C 0.5452(4) 0.6257(4) 0.23063(7)
H3 H 0.4952 0.5279 0.2413
C4 C 0.4478(4) 0.7106(4) 0.20797(7)
C5 C 0.4126(4) 0.9722(4) 0.16389(6)
C6 C 0.3818(4) 0.8952(4) 0.13386(7)
H4 H 0.4335 0.7851 0.1293
C7 C 0.2768(5) 0.9778(5) 0.11083(7)
H5 H 0.2588 0.9243 0.0906
C8 C 0.1982(4) 1.1370(5) 0.11714(7)
H6 H 0.1244 1.1920 0.1015
C9 C 0.2280(4) 1.2161(4) 0.14665(8)
H7 H 0.1756 1.3261 0.1512
C10 C 0.3347(4) 1.1336(4) 0.16948(6)
H8 H 0.3551 1.1892 0.1895
C11 C 0.8052(4) 1.0587(4) 0.18466(7)
H9 H 0.7464 1.0906 0.1642
H10 H 0.9301 1.0190 0.1798
C12 C 0.8140(5) 1.2178(4) 0.20620(8)
H11 H 0.6912 1.2632 0.2096
H12 H 0.8892 1.3070 0.1960
H13 H 0.8673 1.1856 0.2269
Br2 Br 1.16331(4) 0.46206(4) 0.048440(8)
N2 N 0.8934(3) 0.9492(3) 0.05283(5)
B2 B 0.9332(4) 0.7724(4) 0.06055(7)
C13 C 0.9902(4) 1.0375(4) 0.03000(7)
H14 H 0.9590 1.1547 0.0256
C14 C 1.1287(4) 0.9639(4) 0.01351(7)
H15 H 1.1921 1.0305 -0.0020
C15 C 1.1804(4) 0.7901(4) 0.01901(6)
H16 H 1.2777 0.7393 0.0073
C16 C 1.0873(4) 0.6960(4) 0.04159(6)
C17 C 0.8258(4) 0.6709(3) 0.08772(6)
C18 C 0.6714(4) 0.5726(4) 0.08081(7)
H17 H 0.6244 0.5726 0.0596
C19 C 0.5846(4) 0.4746(4) 0.10429(7)
H18 H 0.4817 0.4063 0.0989
C20 C 0.6480(4) 0.4768(4) 0.13546(7)
H19 H 0.5890 0.4103 0.1516
C21 C 0.7988(5) 0.5770(4) 0.14302(7)
H20 H 0.8422 0.5801 0.1645
C22 C 0.8860(4) 0.6720(4) 0.11964(7)
H21 H 0.9891 0.7396 0.1253
C23 C 0.7460(4) 1.0503(4) 0.06841(7)
H22 H 0.7915 1.1677 0.0737
H23 H 0.7105 0.9925 0.0887
C24 C 0.5815(5) 1.0661(5) 0.04696(9)
H24 H 0.6155 1.1257 0.0271
H25 H 0.4870 1.1329 0.0580
H26 H 0.5351 0.9501 0.0419
loop_
_geom_bond_atom_site_label_1
_geom_bond_atom_site_label_2
_geom_bond_site_symmetry_1
_geom_bond_site_symmetry_2
Br1 C4 1_555 1_555
Br2 C16 1_555 1_555
N1 B1 1_555 1_555
N2 B2 1_555 1_555
B1 C4 1_555 1_555
B2 C16 1_555 1_555
C1 N1 1_555 1_555
H1 C1 1_555 1_555
C2 C1 1_555 1_555
H2 C2 1_555 1_555
C3 C2 1_555 1_555
H3 C3 1_555 1_555
C4 C3 1_555 1_555
C5 B1 1_555 1_555
C6 C5 1_555 1_555
H4 C6 1_555 1_555
C7 C6 1_555 1_555
H5 C7 1_555 1_555
C8 C7 1_555 1_555
H6 C8 1_555 1_555
C9 C8 1_555 1_555
H7 C9 1_555 1_555
C10 C5 1_555 1_555
H8 C10 1_555 1_555
C11 N1 1_555 1_555
H9 C11 1_555 1_555
H10 C11 1_555 1_555
C12 C11 1_555 1_555
H11 C12 1_555 1_555
H12 C12 1_555 1_555
H13 C12 1_555 1_555
C13 N2 1_555 1_555
H14 C13 1_555 1_555
C14 C13 1_555 1_555
H15 C14 1_555 1_555
C15 C14 1_555 1_555
H16 C15 1_555 1_555
C16 C15 1_555 1_555
C17 B2 1_555 1_555
C18 C17 1_555 1_555
H17 C18 1_555 1_555
C19 C18 1_555 1_555
H18 C19 1_555 1_555
C20 C19 1_555 1_555
H19 C20 1_555 1_555
C21 C20 1_555 1_555
H20 C21 1_555 1_555
C22 C17 1_555 1_555
H21 C22 1_555 1_555
C23 N2 1_555 1_555
H22 C23 1_555 1_555
H23 C23 1_555 1_555
C24 C23 1_555 1_555
H24 C24 1_555 1_555
H25 C24 1_555 1_555
H26 C24 1_555 1_555
C9 C10 1_555 1_555
C21 C22 1_555 1_555

#END
