
#######################################################################
#
#                 Cambridge Crystallographic Data Centre
#                                CCDC 
#
#######################################################################
#
# If this CIF has been generated from an entry in the Cambridge 
# Structural Database, then it will include bibliographic, chemical, 
# crystal, experimental, refinement or atomic coordinate data resulting 
# from the CCDC's data processing and validation procedures.
#
#######################################################################

data_REYRUK
_chemical_formula_moiety         'C13 H16 O2'
_chemical_name_systematic        
10-Methylenetricyclo[7.2.1.0^1,6^]dodecane-2,8-dione
_symmetry_cell_setting           orthorhombic
_symmetry_space_group_name_H-M   'P n a 21'
_symmetry_Int_Tables_number      33
_space_group_name_Hall           'P 2c -2n'
loop_
_symmetry_equiv_pos_site_id
_symmetry_equiv_pos_as_xyz
1 x,y,z
2 1/2-x,1/2+y,1/2+z
3 1/2+x,1/2-y,z
4 -x,-y,1/2+z
_cell_length_a                   13.9920(9)
_cell_length_b                   8.90840(10)
_cell_length_c                   8.62860(10)
_cell_angle_alpha                90
_cell_angle_beta                 90
_cell_angle_gamma                90
_cell_volume                     1075.52
_exptl_crystal_colour            colorless
_exptl_crystal_description       prism
_chemical_melting_point          '80.0-80.6 deg.C'
_cell_formula_units_Z            4
_exptl_crystal_recrystallization_method n-hexane
loop_
_atom_site_label
_atom_site_type_symbol
_atom_site_fract_x
_atom_site_fract_y
_atom_site_fract_z
O1 O 1.00014(13) 0.1587(2) 1.0472(2)
O2 O 0.84306(16) 0.3953(3) 0.3906(2)
C1 C 0.89839(14) 0.4084(2) 0.7963(2)
H1 H 0.9366 0.4719 0.8653
C2 C 0.90686(17) 0.4742(2) 0.6323(3)
H2 H 0.8622 0.5569 0.6223
H3 H 0.9708 0.5142 0.6188
C3 C 0.88749(16) 0.3623(3) 0.5054(3)
C4 C 0.79557(16) 0.4124(3) 0.8556(3)
H4 H 0.7728 0.5153 0.8550
H5 H 0.7553 0.3546 0.7863
C5 C 0.88892(16) 0.1466(2) 0.6855(3)
H6 H 0.9047 0.0415 0.7000
H7 H 0.8202 0.1592 0.6914
C6 C 0.93105(18) 0.1933(2) 0.9698(3)
C7 C 0.94107(14) 0.2471(2) 0.8039(3)
C8 C 1.04410(16) 0.2425(3) 0.7428(3)
H8 H 1.0776 0.3347 0.7681
H9 H 1.0787 0.1586 0.7872
C9 C 1.03496(17) 0.2247(3) 0.5692(3)
C10 C 0.92916(17) 0.2074(3) 0.5318(3)
H10 H 0.9177 0.1394 0.4445
C11 C 1.1041(2) 0.2204(3) 0.4650(4)
H11 H 1.1675 0.2289 0.4960
H12 H 1.0893 0.2089 0.3606
C12 C 0.78693(19) 0.3491(3) 1.0191(3)
H13 H 0.7199 0.3438 1.0474
H14 H 0.8183 0.4166 1.0911
C13 C 0.83147(18) 0.1924(3) 1.0336(3)
H15 H 0.8329 0.1626 1.1417
H16 H 0.7929 0.1203 0.9772
loop_
_geom_bond_atom_site_label_1
_geom_bond_atom_site_label_2
_geom_bond_site_symmetry_1
_geom_bond_site_symmetry_2
O1 C6 1_555 1_555
O2 C3 1_555 1_555
C1 H1 1_555 1_555
C2 C1 1_555 1_555
H2 C2 1_555 1_555
H3 C2 1_555 1_555
C3 C2 1_555 1_555
C4 C1 1_555 1_555
H4 C4 1_555 1_555
H5 C4 1_555 1_555
C5 H6 1_555 1_555
H7 C5 1_555 1_555
C6 C7 1_555 1_555
C7 C1 1_555 1_555
C8 C7 1_555 1_555
H8 C8 1_555 1_555
H9 C8 1_555 1_555
C9 C8 1_555 1_555
C10 C3 1_555 1_555
H10 C10 1_555 1_555
C11 C9 1_555 1_555
H11 C11 1_555 1_555
H12 C11 1_555 1_555
C12 C4 1_555 1_555
H13 C12 1_555 1_555
H14 C12 1_555 1_555
C13 C6 1_555 1_555
H15 C13 1_555 1_555
H16 C13 1_555 1_555
C5 C7 1_555 1_555
C5 C10 1_555 1_555
C9 C10 1_555 1_555
C12 C13 1_555 1_555

#END
