
#######################################################################
#
#                 Cambridge Crystallographic Data Centre
#                                CCDC 
#
#######################################################################
#
# If this CIF has been generated from an entry in the Cambridge 
# Structural Database, then it will include bibliographic, chemical, 
# crystal, experimental, refinement or atomic coordinate data resulting 
# from the CCDC's data processing and validation procedures.
#
#######################################################################

data_REYYUP
_chemical_formula_moiety         'C23 H27 N3'
_chemical_name_systematic        
1-Amino-3,5-bis(benzylamino)-2,4,6-trimethylbenzene
_symmetry_cell_setting           monoclinic
_symmetry_space_group_name_H-M   'P 21/c'
_symmetry_Int_Tables_number      14
_space_group_name_Hall           '-P 2ybc'
loop_
_symmetry_equiv_pos_site_id
_symmetry_equiv_pos_as_xyz
1 x,y,z
2 -x,1/2+y,1/2-z
3 -x,-y,-z
4 x,1/2-y,1/2+z
_cell_length_a                   11.575(1)
_cell_length_b                   17.152(2)
_cell_length_c                   10.250(1)
_cell_angle_alpha                90
_cell_angle_beta                 106.10(1)
_cell_angle_gamma                90
_cell_volume                     1955.16
_exptl_crystal_colour            'light green'
_chemical_melting_point          91-92deg.C
_cell_formula_units_Z            4
loop_
_atom_site_label
_atom_site_type_symbol
_atom_site_fract_x
_atom_site_fract_y
_atom_site_fract_z
N1 N 0.5222(2) 0.31530(15) 0.3998(2)
H1 H 0.5132(25) 0.2773(16) 0.3348(30)
N2 N 0.7843(2) 0.11676(13) 0.6833(3)
H2 H 0.7673(24) 0.0911(15) 0.6130(29)
N3 N 0.8163(3) 0.3883(2) 0.8205(3)
H3 H 0.8051(29) 0.4345(21) 0.7971(35)
H4 H 0.8729(34) 0.3753(21) 0.8868(41)
C1 C 0.6128(2) 0.29303(15) 0.5212(2)
C2 C 0.6451(2) 0.21401(15) 0.5454(2)
C3 C 0.7419(2) 0.19558(14) 0.6581(3)
C4 C 0.8006(2) 0.2531(2) 0.7488(3)
C5 C 0.7616(2) 0.33065(15) 0.7260(3)
C6 C 0.6699(2) 0.35161(14) 0.6106(3)
C7 C 0.4024(2) 0.3289(2) 0.4170(3)
H5 H 0.4093(2) 0.3672(2) 0.4886(3)
H6 H 0.3715(2) 0.2810(2) 0.4450(3)
C8 C 0.3137(2) 0.35828(14) 0.2880(3)
C9 C 0.3473(3) 0.3798(2) 0.1743(3)
H7 H 0.4275(3) 0.3759(2) 0.1744(3)
C10 C 0.2630(3) 0.4067(2) 0.0592(3)
H8 H 0.2873(3) 0.4201(2) -0.0173(3)
C11 C 0.1448(3) 0.4138(2) 0.0569(3)
H9 H 0.0890(3) 0.4327(2) -0.0206(3)
C12 C 0.1094(3) 0.3936(2) 0.1694(3)
H10 H 0.0291(3) 0.3981(2) 0.1690(3)
C13 C 0.1935(2) 0.3659(2) 0.2829(3)
H11 H 0.1690(2) 0.3517(2) 0.3588(3)
C14 C 0.5743(2) 0.1508(2) 0.4543(3)
H12 H 0.5850(14) 0.1021(3) 0.5028(7)
H13 H 0.6028(12) 0.1458(8) 0.3751(10)
H14 H 0.4904(3) 0.1643(6) 0.4272(16)
C15 C 0.7394(3) 0.0756(2) 0.7854(3)
H15 H 0.6521(3) 0.0759(2) 0.7584(3)
H16 H 0.7671(3) 0.1033(2) 0.8711(3)
C16 C 0.7843(2) -0.00775(15) 0.8042(3)
C17 C 0.7049(3) -0.0687(2) 0.7958(3)
H17 H 0.6231(3) -0.0583(2) 0.7788(3)
C18 C 0.7457(4) -0.1450(2) 0.8128(3)
H18 H 0.6912(4) -0.1857(2) 0.8067(3)
C19 C 0.8653(4) -0.1608(2) 0.8394(3)
H19 H 0.8925(4) -0.2121(2) 0.8505(3)
C20 C 0.9460(3) -0.1011(2) 0.8488(3)
H20 H 1.0278(3) -0.1117(2) 0.8663(3)
C21 C 0.9054(3) -0.0246(2) 0.8323(3)
H21 H 0.9603(3) 0.0160(2) 0.8399(3)
C22 C 0.9060(2) 0.2344(2) 0.8690(3)
H22 H 0.8831(5) 0.2399(10) 0.9517(3)
H23 H 0.9704(6) 0.2699(7) 0.8698(10)
H24 H 0.9323(10) 0.1818(4) 0.8615(9)
C23 C 0.6370(3) 0.4366(2) 0.5833(3)
H25 H 0.7089(3) 0.4665(2) 0.5915(17)
H26 H 0.5971(14) 0.4552(3) 0.6480(11)
H27 H 0.5844(13) 0.4422(2) 0.4930(7)
loop_
_geom_bond_atom_site_label_1
_geom_bond_atom_site_label_2
_geom_bond_site_symmetry_1
_geom_bond_site_symmetry_2
N1 H1 1_555 1_555
N2 H2 1_555 1_555
N3 H3 1_555 1_555
H4 N3 1_555 1_555
C1 N1 1_555 1_555
C2 C1 1_555 1_555
C3 N2 1_555 1_555
C4 C3 1_555 1_555
C5 N3 1_555 1_555
C6 C1 1_555 1_555
C7 N1 1_555 1_555
H5 C7 1_555 1_555
H6 C7 1_555 1_555
C8 C7 1_555 1_555
C9 C8 1_555 1_555
H7 C9 1_555 1_555
C10 C9 1_555 1_555
H8 C10 1_555 1_555
C11 C10 1_555 1_555
H9 C11 1_555 1_555
C12 C11 1_555 1_555
H10 C12 1_555 1_555
C13 C8 1_555 1_555
H11 C13 1_555 1_555
C14 C2 1_555 1_555
H12 C14 1_555 1_555
H13 C14 1_555 1_555
H14 C14 1_555 1_555
C15 N2 1_555 1_555
H15 C15 1_555 1_555
H16 C15 1_555 1_555
C16 C15 1_555 1_555
C17 C16 1_555 1_555
H17 C17 1_555 1_555
C18 C17 1_555 1_555
H18 C18 1_555 1_555
C19 C18 1_555 1_555
H19 C19 1_555 1_555
C20 C19 1_555 1_555
H20 C20 1_555 1_555
C21 C16 1_555 1_555
H21 C21 1_555 1_555
C22 C4 1_555 1_555
H22 C22 1_555 1_555
H23 C22 1_555 1_555
H24 C22 1_555 1_555
C23 C6 1_555 1_555
H25 C23 1_555 1_555
H26 C23 1_555 1_555
H27 C23 1_555 1_555
C2 C3 1_555 1_555
C4 C5 1_555 1_555
C5 C6 1_555 1_555
C12 C13 1_555 1_555
C20 C21 1_555 1_555

#END
