
#######################################################################
#
#                 Cambridge Crystallographic Data Centre
#                                CCDC 
#
#######################################################################
#
# If this CIF has been generated from an entry in the Cambridge 
# Structural Database, then it will include bibliographic, chemical, 
# crystal, experimental, refinement or atomic coordinate data resulting 
# from the CCDC's data processing and validation procedures.
#
#######################################################################

data_REYZOM
_chemical_formula_moiety         'C17 H18 O4'
_chemical_name_systematic        
5-Ethoxy-4-(4-oxo-1-phenylpent-1-en-2-yl)furan-3(2H)-one
_symmetry_cell_setting           monoclinic
_symmetry_space_group_name_H-M   'P 21/c'
_symmetry_Int_Tables_number      14
_space_group_name_Hall           '-P 2ybc'
loop_
_symmetry_equiv_pos_site_id
_symmetry_equiv_pos_as_xyz
1 x,y,z
2 -x,1/2+y,1/2-z
3 -x,-y,-z
4 x,1/2-y,1/2+z
_cell_length_a                   9.4369(19)
_cell_length_b                   17.895(4)
_cell_length_c                   8.6611(17)
_cell_angle_alpha                90
_cell_angle_beta                 91.58(3)
_cell_angle_gamma                90
_cell_volume                     1462.07
_exptl_crystal_colour            colorless
_exptl_crystal_description       block
_cell_formula_units_Z            4
loop_
_atom_site_label
_atom_site_type_symbol
_atom_site_fract_x
_atom_site_fract_y
_atom_site_fract_z
O1 O 0.82422(15) 1.06010(7) 0.40156(16)
O2 O 0.75499(14) 0.94759(7) 0.31024(17)
O3 O 0.95353(16) 0.79725(8) 0.28003(16)
C1 C 0.89166(19) 0.81762(10) 0.1636(2)
C2 C 0.93442(19) 0.88683(10) 0.0777(2)
H1 H 0.9720 0.8717 -0.0206
H2 H 0.8499 0.9163 0.0558
O4 O 1.17995(17) 1.08326(8) 0.29412(18)
C3 C 1.0423(2) 0.93631(10) 0.1586(2)
C4 C 1.1814(2) 0.93233(11) 0.1331(2)
H3 H 1.2379 0.9648 0.1917
C5 C 1.0574(2) 1.06226(10) 0.3114(2)
C6 C 0.9868(2) 0.99494(10) 0.2596(2)
C7 C 0.8543(2) 0.99887(10) 0.3206(2)
C8 C 0.9486(2) 1.10750(11) 0.3955(3)
H4 H 0.9831 1.1200 0.4989
H5 H 0.9268 1.1534 0.3402
C9 C 1.2581(2) 0.88392(11) 0.0259(2)
C10 C 1.2207(2) 0.81083(11) -0.0137(3)
H6 H 1.1433 0.7887 0.0323
C11 C 0.6254(2) 0.95796(12) 0.3959(3)
H7 H 0.5717 1.0000 0.3546
H8 H 0.6481 0.9675 0.5040
C12 C 0.7718(2) 0.77359(12) 0.0935(3)
H9 H 0.7551 0.7302 0.1555
H10 H 0.7953 0.7583 -0.0090
H11 H 0.6879 0.8039 0.0888
C13 C 1.3792(2) 0.91228(13) -0.0416(3)
H12 H 1.4091 0.9603 -0.0160
C14 C 1.2960(2) 0.77066(14) -0.1197(3)
H13 H 1.2672 0.7225 -0.1461
C15 C 1.4129(3) 0.80087(15) -0.1865(3)
H14 H 1.4623 0.7738 -0.2592
C16 C 1.4562(3) 0.87139(16) -0.1453(3)
H15 H 1.5373 0.8917 -0.1871
C17 C 0.5421(2) 0.88787(13) 0.3788(3)
H16 H 0.5159 0.8805 0.2720
H17 H 0.4581 0.8914 0.4385
H18 H 0.5984 0.8464 0.4149
loop_
_geom_bond_atom_site_label_1
_geom_bond_atom_site_label_2
_geom_bond_site_symmetry_1
_geom_bond_site_symmetry_2
O1 C7 1_555 1_555
O2 C7 1_555 1_555
O3 C1 1_555 1_555
C1 C2 1_555 1_555
C2 H1 1_555 1_555
H2 C2 1_555 1_555
O4 C5 1_555 1_555
C3 C2 1_555 1_555
C4 C3 1_555 1_555
H3 C4 1_555 1_555
C5 C6 1_555 1_555
C6 C3 1_555 1_555
C7 C6 1_555 1_555
C8 O1 1_555 1_555
H4 C8 1_555 1_555
H5 C8 1_555 1_555
C9 C4 1_555 1_555
C10 C9 1_555 1_555
H6 C10 1_555 1_555
C11 O2 1_555 1_555
H7 C11 1_555 1_555
H8 C11 1_555 1_555
C12 C1 1_555 1_555
H9 C12 1_555 1_555
H10 C12 1_555 1_555
H11 C12 1_555 1_555
C13 C9 1_555 1_555
H12 C13 1_555 1_555
C14 C10 1_555 1_555
H13 C14 1_555 1_555
C15 C14 1_555 1_555
H14 C15 1_555 1_555
C16 C13 1_555 1_555
H15 C16 1_555 1_555
C17 C11 1_555 1_555
H16 C17 1_555 1_555
H17 C17 1_555 1_555
H18 C17 1_555 1_555
C5 C8 1_555 1_555
C15 C16 1_555 1_555

#END
