
#######################################################################
#
#                 Cambridge Crystallographic Data Centre
#                                CCDC 
#
#######################################################################
#
# If this CIF has been generated from an entry in the Cambridge 
# Structural Database, then it will include bibliographic, chemical, 
# crystal, experimental, refinement or atomic coordinate data resulting 
# from the CCDC's data processing and validation procedures.
#
#######################################################################

data_REZBOP01
_chemical_formula_moiety         'C8 H6 Cl2 N2'
_chemical_name_systematic        5,6-dichloro-2-methyl-1H-benzimidazole
_symmetry_cell_setting           orthorhombic
_symmetry_space_group_name_H-M   'P c a 21'
_symmetry_Int_Tables_number      29
_space_group_name_Hall           'P 2c -2ac'
loop_
_symmetry_equiv_pos_site_id
_symmetry_equiv_pos_as_xyz
1 x,y,z
2 1/2-x,y,1/2+z
3 1/2+x,-y,z
4 -x,-y,1/2+z
_cell_length_a                   13.9343(3)
_cell_length_b                   5.64024(15)
_cell_length_c                   10.3593(3)
_cell_angle_alpha                90
_cell_angle_beta                 90
_cell_angle_gamma                90
_cell_volume                     814.166
_cell_formula_units_Z            4
loop_
_atom_site_label
_atom_site_type_symbol
_atom_site_fract_x
_atom_site_fract_y
_atom_site_fract_z
Cl1 Cl 0.52288(4) 1.26460(10) 0.41259(15)
Cl2 Cl 0.53831(4) 1.29182(9) 0.11159(15)
N1 N 0.76413(13) 0.5596(3) 0.1517(2)
C1 C 0.64184(14) 0.8911(4) 0.4000(2)
C2 C 0.69694(14) 0.7316(4) 0.3303(2)
N2 N 0.75428(16) 0.5442(3) 0.3670(2)
C3 C 0.86069(15) 0.2465(3) 0.2610(3)
C4 C 0.70417(14) 0.7391(4) 0.1948(2)
C5 C 0.60011(15) 1.0745(4) 0.1947(3)
C6 C 0.79255(12) 0.4487(3) 0.2579(3)
C7 C 0.59371(15) 1.0629(4) 0.3303(3)
C8 C 0.65542(15) 0.9141(4) 0.1259(2)
H1 H 0.634(2) 0.885(6) 0.487(3)
H2 H 0.912(2) 0.287(6) 0.317(3)
H3 H 0.881(2) 0.210(6) 0.174(3)
H4 H 0.833(2) 0.120(6) 0.302(3)
H5 H 0.658(2) 0.920(5) 0.034(3)
H6 H 0.7614(19) 0.502(5) 0.443(2)
loop_
_geom_bond_atom_site_label_1
_geom_bond_atom_site_label_2
_geom_bond_site_symmetry_1
_geom_bond_site_symmetry_2
Cl1 C7 1_555 1_555
Cl2 C5 1_555 1_555
N1 C4 1_555 1_555
C1 C2 1_555 1_555
C2 N2 1_555 1_555
N2 C6 1_555 1_555
C3 C6 1_555 1_555
C4 C2 1_555 1_555
C5 C7 1_555 1_555
C6 N1 1_555 1_555
C7 C1 1_555 1_555
C8 C4 1_555 1_555
H1 C1 1_555 1_555
H2 C3 1_555 1_555
H3 C3 1_555 1_555
H4 C3 1_555 1_555
H5 C8 1_555 1_555
H6 N2 1_555 1_555
C5 C8 1_555 1_555

#END
