
#######################################################################
#
#                 Cambridge Crystallographic Data Centre
#                                CCDC 
#
#######################################################################
#
# If this CIF has been generated from an entry in the Cambridge 
# Structural Database, then it will include bibliographic, chemical, 
# crystal, experimental, refinement or atomic coordinate data resulting 
# from the CCDC's data processing and validation procedures.
#
#######################################################################

data_REZGUA
_chemical_formula_moiety         'C13 H10 N2 O4'
_chemical_name_systematic        
'Methyl 2-methyl-1,3-dioxo-2,3-dihydro-1H-pyrrolo[3,4-a]indolizine-4-carboxylate'
_symmetry_cell_setting           monoclinic
_symmetry_space_group_name_H-M   'C 2/c'
_symmetry_Int_Tables_number      15
_space_group_name_Hall           '-C 2yn'
loop_
_symmetry_equiv_pos_site_id
_symmetry_equiv_pos_as_xyz
1 x,y,z
2 -x,y,1/2-z
3 1/2+x,1/2+y,z
4 1/2-x,1/2+y,1/2-z
5 -x,-y,-z
6 x,-y,1/2+z
7 1/2-x,1/2-y,-z
8 1/2+x,1/2-y,1/2+z
_cell_length_a                   12.418(11)
_cell_length_b                   15.769(14)
_cell_length_c                   12.812(17)
_cell_angle_alpha                90
_cell_angle_beta                 116.432(10)
_cell_angle_gamma                90
_cell_volume                     2246.57
_exptl_crystal_colour            yellow
_exptl_crystal_description       block
_cell_formula_units_Z            8
loop_
_atom_site_label
_atom_site_type_symbol
_atom_site_fract_x
_atom_site_fract_y
_atom_site_fract_z
O1 O 0.3385(3) 0.42407(19) 0.1511(3)
O2 O 0.2888(4) -0.0172(2) 0.1475(4)
O3 O 0.4395(3) 0.03074(19) 0.1129(3)
O4 O 0.4952(3) 0.2051(2) 0.0295(3)
N1 N 0.2661(3) 0.1519(2) 0.2217(3)
N2 N 0.4299(3) 0.3272(2) 0.0823(3)
C1 C 0.2162(4) 0.1001(3) 0.2752(4)
H1 H 0.2209 0.0414 0.2711
C2 C 0.1599(5) 0.1364(3) 0.3340(5)
H2 H 0.1260 0.1021 0.3705
C3 C 0.1523(5) 0.2254(3) 0.3405(5)
H3 H 0.1131 0.2492 0.3806
C4 C 0.2018(4) 0.2764(3) 0.2886(4)
H4 H 0.1970 0.3350 0.2930
C5 C 0.2607(4) 0.2398(3) 0.2279(4)
C6 C 0.3238(4) 0.2719(3) 0.1701(4)
C7 C 0.3589(4) 0.3518(3) 0.1365(4)
C8 C 0.4902(5) 0.3873(3) 0.0400(5)
H5 H 0.4474 0.4402 0.0221
H6 H 0.4920 0.3652 -0.0290
H7 H 0.5709 0.3963 0.0990
C9 C 0.4395(4) 0.2398(3) 0.0737(4)
C10 C 0.3687(4) 0.2041(3) 0.1325(4)
C11 C 0.3337(4) 0.1287(3) 0.1632(4)
C12 C 0.3488(4) 0.0403(3) 0.1398(4)
C13 C 0.4603(6) -0.0555(3) 0.0867(5)
H8 H 0.5382 -0.0591 0.0882
H9 H 0.3997 -0.0710 0.0108
H10 H 0.4569 -0.0933 0.1439
loop_
_geom_bond_atom_site_label_1
_geom_bond_atom_site_label_2
_geom_bond_site_symmetry_1
_geom_bond_site_symmetry_2
O1 C7 1_555 1_555
O2 C12 1_555 1_555
O3 C12 1_555 1_555
O4 C9 1_555 1_555
N1 C1 1_555 1_555
N2 C7 1_555 1_555
C1 H1 1_555 1_555
C2 C1 1_555 1_555
H2 C2 1_555 1_555
C3 C2 1_555 1_555
H3 C3 1_555 1_555
C4 C3 1_555 1_555
H4 C4 1_555 1_555
C5 N1 1_555 1_555
C6 C5 1_555 1_555
C7 C6 1_555 1_555
C8 N2 1_555 1_555
H5 C8 1_555 1_555
H6 C8 1_555 1_555
H7 C8 1_555 1_555
C9 N2 1_555 1_555
C10 C6 1_555 1_555
C11 N1 1_555 1_555
C12 C11 1_555 1_555
C13 O3 1_555 1_555
H8 C13 1_555 1_555
H9 C13 1_555 1_555
H10 C13 1_555 1_555
C4 C5 1_555 1_555
C9 C10 1_555 1_555
C10 C11 1_555 1_555

#END
