
#######################################################################
#
#                 Cambridge Crystallographic Data Centre
#                                CCDC 
#
#######################################################################
#
# If this CIF has been generated from an entry in the Cambridge 
# Structural Database, then it will include bibliographic, chemical, 
# crystal, experimental, refinement or atomic coordinate data resulting 
# from the CCDC's data processing and validation procedures.
#
#######################################################################

data_REZNER
_chemical_formula_moiety         'C13 H11 N5 O3'
_chemical_name_systematic        
N-Methyl-N'-(4-nitrobenzylidene)pyrazine-2-carbohydrazide
_symmetry_cell_setting           monoclinic
_symmetry_space_group_name_H-M   'C 2/c'
_symmetry_Int_Tables_number      15
_space_group_name_Hall           '-C 2yn'
loop_
_symmetry_equiv_pos_site_id
_symmetry_equiv_pos_as_xyz
1 x,y,z
2 -x,y,1/2-z
3 1/2+x,1/2+y,z
4 1/2-x,1/2+y,1/2-z
5 -x,-y,-z
6 x,-y,1/2+z
7 1/2-x,1/2-y,-z
8 1/2+x,1/2-y,1/2+z
_cell_length_a                   17.510(2)
_cell_length_b                   10.5421(11)
_cell_length_c                   14.9638(14)
_cell_angle_alpha                90
_cell_angle_beta                 107.887(8)
_cell_angle_gamma                90
_cell_volume                     2628.69
_exptl_crystal_colour            orange
_exptl_crystal_description       prism
_cell_formula_units_Z            8
loop_
_atom_site_label
_atom_site_type_symbol
_atom_site_fract_x
_atom_site_fract_y
_atom_site_fract_z
O1 O 0.57061(8) 0.47908(13) 0.45169(10)
O2 O 0.86046(10) -0.34850(14) 0.71616(12)
O3 O 0.95959(9) -0.26236(14) 0.82272(11)
N1 N 0.69672(9) 0.24637(14) 0.58377(11)
N2 N 0.67240(9) 0.36628(15) 0.55006(11)
N3 N 0.89617(10) -0.25541(15) 0.75878(12)
N4 N 0.57793(10) 0.16583(15) 0.41024(12)
N5 N 0.42373(10) 0.15461(17) 0.43127(13)
C1 C 0.76619(11) 0.23431(18) 0.64385(13)
H1 H 0.7979 0.3071 0.6677
C2 C 0.59832(11) 0.37657(17) 0.48461(13)
C3 C 0.79675(11) 0.10698(18) 0.67581(13)
C4 C 0.75341(11) -0.00272(18) 0.63833(13)
H2 H 0.7015 0.0047 0.5939
C5 C 0.78555(12) -0.12142(19) 0.66549(14)
H3 H 0.7566 -0.1960 0.6398
C6 C 0.86118(11) -0.12919(18) 0.73113(13)
C7 C 0.90534(11) -0.02318(19) 0.77173(13)
H4 H 0.9563 -0.0314 0.8178
C8 C 0.87229(11) 0.09528(19) 0.74256(14)
H5 H 0.9015 0.1695 0.7684
C9 C 0.54957(11) 0.25722(17) 0.45338(12)
C10 C 0.47319(11) 0.25233(18) 0.46330(14)
H6 H 0.4557 0.3204 0.4937
C11 C 0.45238(13) 0.0629(2) 0.38884(16)
H7 H 0.4195 -0.0088 0.3651
C12 C 0.52813(12) 0.06823(19) 0.37812(15)
H8 H 0.5453 0.0005 0.3470
C13 C 0.72305(12) 0.47763(18) 0.58082(14)
H9 H 0.6958 0.5526 0.5469
H10 H 0.7741 0.4652 0.5678
H11 H 0.7333 0.4900 0.6484
loop_
_geom_bond_atom_site_label_1
_geom_bond_atom_site_label_2
_geom_bond_site_symmetry_1
_geom_bond_site_symmetry_2
O1 C2 1_555 1_555
O2 N3 1_555 1_555
O3 N3 1_555 1_555
N1 N2 1_555 1_555
N2 C2 1_555 1_555
N3 C6 1_555 1_555
N4 C9 1_555 1_555
N5 C10 1_555 1_555
C1 N1 1_555 1_555
H1 C1 1_555 1_555
C2 C9 1_555 1_555
C3 C1 1_555 1_555
C4 C3 1_555 1_555
H2 C4 1_555 1_555
C5 C4 1_555 1_555
H3 C5 1_555 1_555
C6 C5 1_555 1_555
C7 C6 1_555 1_555
H4 C7 1_555 1_555
C8 C3 1_555 1_555
H5 C8 1_555 1_555
C9 C10 1_555 1_555
C10 H6 1_555 1_555
C11 N5 1_555 1_555
H7 C11 1_555 1_555
C12 N4 1_555 1_555
H8 C12 1_555 1_555
C13 N2 1_555 1_555
H9 C13 1_555 1_555
H10 C13 1_555 1_555
H11 C13 1_555 1_555
C7 C8 1_555 1_555
C11 C12 1_555 1_555

#END
