
#######################################################################
#
#                 Cambridge Crystallographic Data Centre
#                                CCDC 
#
#######################################################################
#
# If this CIF has been generated from an entry in the Cambridge 
# Structural Database, then it will include bibliographic, chemical, 
# crystal, experimental, refinement or atomic coordinate data resulting 
# from the CCDC's data processing and validation procedures.
#
#######################################################################

data_REZNOA
_chemical_formula_moiety         'C20 H30 Br1 N1 O4 S1'
_chemical_name_systematic        
4-(4-Bromophenylsulfonyl)-1-oxa-4-azacyclohexadecan-16-one
_chemical_properties_biological  'potential fungicidal activity'
_symmetry_cell_setting           monoclinic
_symmetry_space_group_name_H-M   'P 21'
_symmetry_Int_Tables_number      4
_space_group_name_Hall           'P 2yb'
loop_
_symmetry_equiv_pos_site_id
_symmetry_equiv_pos_as_xyz
1 x,y,z
2 -x,1/2+y,-z
_cell_length_a                   11.582(2)
_cell_length_b                   5.4948(11)
_cell_length_c                   17.171(3)
_cell_angle_alpha                90
_cell_angle_beta                 91.65(3)
_cell_angle_gamma                90
_cell_volume                     1092.32
_exptl_crystal_colour            colorless
_exptl_crystal_description       block
_cell_formula_units_Z            2
_exptl_crystal_recrystallization_method acetonitrile
loop_
_atom_site_label
_atom_site_type_symbol
_atom_site_fract_x
_atom_site_fract_y
_atom_site_fract_z
Br1 Br 0.22407(9) 0.4924(2) 0.17094(5)
S1 S 0.22081(16) 1.0955(3) 0.48880(11)
O1 O 0.4115(4) 1.0913(11) 0.6960(3)
O2 O 0.5029(5) 0.7628(13) 0.7372(3)
O3 O 0.1031(4) 1.1557(9) 0.4959(3)
O4 O 0.3083(4) 1.2767(11) 0.4823(3)
N1 N 0.2577(5) 0.9275(12) 0.5652(3)
C1 C 0.1765(7) 0.7442(15) 0.5896(5)
H1 H 0.1925 0.5937 0.5625
H2 H 0.0992 0.7956 0.5739
C2 C 0.1793(7) 0.6939(17) 0.6770(5)
H3 H 0.2572 0.6496 0.6938
H4 H 0.1582 0.8406 0.7046
C3 C 0.0993(7) 0.496(2) 0.6967(4)
H5 H 0.1140 0.3580 0.6632
H6 H 0.0209 0.5504 0.6855
C4 C 0.1083(8) 0.4102(16) 0.7826(6)
H7 H 0.0706 0.2534 0.7869
H8 H 0.1891 0.3887 0.7974
C5 C 0.0534(8) 0.590(2) 0.8395(5)
H9 H 0.0846 0.7514 0.8314
H10 H -0.0293 0.5965 0.8292
C6 C 0.0762(9) 0.515(3) 0.9204(5)
H11 H 0.0594 0.3431 0.9249
H12 H 0.0233 0.6020 0.9534
C7 C 0.2014(10) 0.561(2) 0.9520(6)
H13 H 0.2098 0.4871 1.0031
H14 H 0.2544 0.4786 0.9181
C8 C 0.2370(9) 0.826(2) 0.9584(5)
H15 H 0.2054 0.9114 0.9132
H16 H 0.2019 0.8944 1.0040
C9 C 0.3641(9) 0.874(2) 0.9640(5)
H17 H 0.3754 1.0439 0.9778
H18 H 0.3968 0.7773 1.0064
C10 C 0.4301(8) 0.824(2) 0.8936(5)
H19 H 0.4139 0.6593 0.8757
H20 H 0.5122 0.8351 0.9060
C11 C 0.3970(7) 1.009(2) 0.8275(4)
H21 H 0.3136 1.0228 0.8228
H22 H 0.4279 1.1683 0.8410
C12 C 0.4449(7) 0.9276(19) 0.7488(5)
C13 C 0.4527(7) 1.0640(18) 0.6205(4)
H23 H 0.5331 1.0151 0.6233
H24 H 0.4476 1.2184 0.5932
C14 C 0.3810(6) 0.8706(15) 0.5755(4)
H25 H 0.4135 0.8494 0.5245
H26 H 0.3886 0.7167 0.6029
C15 C 0.2271(6) 0.9166(14) 0.4051(4)
C16 C 0.1511(7) 0.7201(16) 0.3929(5)
H27 H 0.1005 0.6759 0.4315
C17 C 0.1515(6) 0.5933(15) 0.3241(4)
H28 H 0.1005 0.4644 0.3163
C18 C 0.2279(8) 0.6553(16) 0.2652(4)
C19 C 0.3026(7) 0.8509(18) 0.2808(5)
H29 H 0.3539 0.8976 0.2429
C20 C 0.3030(6) 0.972(2) 0.3475(4)
H30 H 0.3559 1.0974 0.3557
loop_
_geom_bond_atom_site_label_1
_geom_bond_atom_site_label_2
_geom_bond_site_symmetry_1
_geom_bond_site_symmetry_2
Br1 C18 1_555 1_555
S1 O3 1_555 1_555
O1 C12 1_555 1_555
O2 C12 1_555 1_555
O4 S1 1_555 1_555
N1 S1 1_555 1_555
C1 N1 1_555 1_555
H1 C1 1_555 1_555
H2 C1 1_555 1_555
C2 C1 1_555 1_555
H3 C2 1_555 1_555
H4 C2 1_555 1_555
C3 C2 1_555 1_555
H5 C3 1_555 1_555
H6 C3 1_555 1_555
C4 C3 1_555 1_555
H7 C4 1_555 1_555
H8 C4 1_555 1_555
C5 C4 1_555 1_555
H9 C5 1_555 1_555
H10 C5 1_555 1_555
C6 C5 1_555 1_555
H11 C6 1_555 1_555
H12 C6 1_555 1_555
C7 C6 1_555 1_555
H13 C7 1_555 1_555
H14 C7 1_555 1_555
C8 C7 1_555 1_555
H15 C8 1_555 1_555
H16 C8 1_555 1_555
C9 C8 1_555 1_555
H17 C9 1_555 1_555
H18 C9 1_555 1_555
C10 C9 1_555 1_555
H19 C10 1_555 1_555
H20 C10 1_555 1_555
C11 C10 1_555 1_555
H21 C11 1_555 1_555
H22 C11 1_555 1_555
C12 C11 1_555 1_555
C13 O1 1_555 1_555
H23 C13 1_555 1_555
H24 C13 1_555 1_555
C14 N1 1_555 1_555
H25 C14 1_555 1_555
H26 C14 1_555 1_555
C15 S1 1_555 1_555
C16 C15 1_555 1_555
H27 C16 1_555 1_555
C17 C16 1_555 1_555
H28 C17 1_555 1_555
C18 C17 1_555 1_555
C19 C18 1_555 1_555
H29 C19 1_555 1_555
C20 C15 1_555 1_555
H30 C20 1_555 1_555
C13 C14 1_555 1_555
C19 C20 1_555 1_555

#END
