
#######################################################################
#
#                 Cambridge Crystallographic Data Centre
#                                CCDC 
#
#######################################################################
#
# If this CIF has been generated from an entry in the Cambridge 
# Structural Database, then it will include bibliographic, chemical, 
# crystal, experimental, refinement or atomic coordinate data resulting 
# from the CCDC's data processing and validation procedures.
#
#######################################################################

data_REZNOB
_chemical_formula_moiety         'C14 H14 N4 O2'
_chemical_name_systematic        
N'-(2-Methoxybenzylidene)-N-methylpyrazine-2-carbohydrazide
_symmetry_cell_setting           triclinic
_symmetry_space_group_name_H-M   'P -1'
_symmetry_Int_Tables_number      2
_space_group_name_Hall           '-P 1'
loop_
_symmetry_equiv_pos_site_id
_symmetry_equiv_pos_as_xyz
1 x,y,z
2 -x,-y,-z
_cell_length_a                   4.032(5)
_cell_length_b                   10.628(15)
_cell_length_c                   15.034(19)
_cell_angle_alpha                94.08(3)
_cell_angle_beta                 90.36(3)
_cell_angle_gamma                92.07(3)
_cell_volume                     642.161
_exptl_crystal_colour            brown
_exptl_crystal_description       block
_cell_formula_units_Z            2
loop_
_atom_site_label
_atom_site_type_symbol
_atom_site_fract_x
_atom_site_fract_y
_atom_site_fract_z
O1 O 0.8377(4) 0.40652(13) 0.38061(9)
O2 O -0.0014(4) 0.97966(14) 0.37116(11)
N1 N 0.4082(4) 0.65216(15) 0.29794(10)
N2 N 0.5864(4) 0.59046(15) 0.35931(10)
C1 C 0.3178(5) 0.76459(18) 0.31972(13)
H1 H 0.3606 0.8017 0.3782
C2 C 0.6893(5) 0.47329(18) 0.33125(12)
C3 C 0.1489(5) 0.83521(18) 0.25415(14)
C4 C -0.0030(5) 0.94854(18) 0.28078(16)
C5 C -0.1466(6) 1.0204(2) 0.21866(19)
H2 H -0.2464 1.0974 0.2374
C6 C -0.1441(6) 0.9796(2) 0.12891(19)
H3 H -0.2417 1.0289 0.0861
C7 C 0.0005(5) 0.8673(2) 0.10160(16)
H4 H -0.0001 0.8389 0.0402
C8 C 0.1455(5) 0.79676(19) 0.16372(14)
H5 H 0.2453 0.7201 0.1443
C9 C 0.6666(5) 0.6458(2) 0.44850(12)
H6 H 0.8087 0.5893 0.4790
H7 H 0.4614 0.6577 0.4822
H8 H 0.7836 0.7276 0.4443
C10 C 0.6213(5) 0.42870(17) 0.23544(12)
C11 C 0.5341(5) 0.34126(19) 0.06766(13)
H9 H 0.4943 0.3080 0.0081
C12 C 0.749(3) 0.4998(11) 0.1676(9)
H10 H 0.8672 0.5776 0.1818
C13 C 0.419(2) 0.2706(9) 0.1407(4)
H11 H 0.3043 0.1917 0.1279
N3 N 0.4691(17) 0.3124(6) 0.2250(3)
N4 N 0.702(2) 0.4571(6) 0.0834(6)
C14 C -0.1477(7) 1.0963(2) 0.4016(2)
H12 H -0.1318 1.1074 0.4668
H13 H -0.3816 1.0941 0.3832
H14 H -0.0295 1.1668 0.3755
N5? N 0.779(3) 0.4873(10) 0.1712(8)
N6? N 0.376(2) 0.2812(8) 0.1252(4)
C15? C 0.420(2) 0.3263(9) 0.2109(5)
H15? H 0.3059 0.2846 0.2561
C16? C 0.742(3) 0.4378(8) 0.0867(8)
H16? H 0.8665 0.4728 0.0405
loop_
_geom_bond_atom_site_label_1
_geom_bond_atom_site_label_2
_geom_bond_site_symmetry_1
_geom_bond_site_symmetry_2
O1 C2 1_555 1_555
O2 C4 1_555 1_555
N1 N2 1_555 1_555
N2 C2 1_555 1_555
C1 N1 1_555 1_555
H1 C1 1_555 1_555
C2 C10 1_555 1_555
C3 C1 1_555 1_555
C4 C3 1_555 1_555
C5 C4 1_555 1_555
H2 C5 1_555 1_555
C6 C5 1_555 1_555
H3 C6 1_555 1_555
C7 C6 1_555 1_555
H4 C7 1_555 1_555
C8 C3 1_555 1_555
H5 C8 1_555 1_555
C9 N2 1_555 1_555
H6 C9 1_555 1_555
H7 C9 1_555 1_555
H8 C9 1_555 1_555
C10 C12 1_555 1_555
C11 H9 1_555 1_555
C12 H10 1_555 1_555
C13 C11 1_555 1_555
H11 C13 1_555 1_555
N3 C10 1_555 1_555
N4 C11 1_555 1_555
C14 O2 1_555 1_555
H12 C14 1_555 1_555
H13 C14 1_555 1_555
H14 C14 1_555 1_555
C7 C8 1_555 1_555
C12 N4 1_555 1_555
C13 N3 1_555 1_555

#END
