
#######################################################################
#
#                 Cambridge Crystallographic Data Centre
#                                CCDC 
#
#######################################################################
#
# If this CIF has been generated from an entry in the Cambridge 
# Structural Database, then it will include bibliographic, chemical, 
# crystal, experimental, refinement or atomic coordinate data resulting 
# from the CCDC's data processing and validation procedures.
#
#######################################################################

data_REZQET
_chemical_name_common            
3-Methyl-1,4-diphenyl-1H,5H,7H-furo(3,4-b)pyrazolo(4,3-e)pyridin-5-one
_chemical_formula_moiety         'C21 H15 N3 O2'
_chemical_name_systematic        
3-Methyl-1,4-diphenyl-1,7-dihydro-5H-furo[3,4-b]pyrazolo[4,3-e]pyridin-5-one
_symmetry_cell_setting           monoclinic
_symmetry_space_group_name_H-M   'P 21/c'
_symmetry_Int_Tables_number      14
_space_group_name_Hall           '-P 2ybc'
loop_
_symmetry_equiv_pos_site_id
_symmetry_equiv_pos_as_xyz
1 x,y,z
2 -x,1/2+y,1/2-z
3 -x,-y,-z
4 x,1/2-y,1/2+z
_cell_length_a                   7.067(4)
_cell_length_b                   22.4393(12)
_cell_length_c                   10.871(5)
_cell_angle_alpha                90
_cell_angle_beta                 104.909(9)
_cell_angle_gamma                90
_cell_volume                     1665.87
_exptl_crystal_colour            'light yellow'
_exptl_crystal_description       needle
_chemical_melting_point          '489-491 K'
_cell_formula_units_Z            4
loop_
_atom_site_label
_atom_site_type_symbol
_atom_site_fract_x
_atom_site_fract_y
_atom_site_fract_z
N1 N 0.7397(6) 0.63353(16) 0.3565(3)
N2 N 1.0425(5) 0.58194(15) 0.4535(3)
N3 N 1.1518(5) 0.56675(16) 0.5764(3)
O1 O 0.3034(4) 0.70791(13) 0.3836(3)
O2 O 0.3184(5) 0.71327(15) 0.5904(3)
C1 C 0.8813(7) 0.61332(19) 0.4573(4)
C2 C 1.0530(7) 0.58875(19) 0.6534(4)
C3 C 0.8832(7) 0.62002(19) 0.5874(4)
C4 C 0.7282(7) 0.64968(18) 0.6197(4)
C5 C 0.5784(6) 0.66698(19) 0.5165(4)
C6 C 0.3984(7) 0.6980(2) 0.5107(4)
C7 C 0.4260(7) 0.6877(2) 0.3053(4)
H1 H 0.4672 0.7209 0.2614
H2 H 0.3567 0.6592 0.2425
C8 C 0.5966(7) 0.65929(19) 0.3933(4)
C9 C 1.1204(7) 0.5651(2) 0.3509(4)
C10 C 1.0169(8) 0.5779(2) 0.2239(4)
H3 H 0.8958 0.5968 0.2060
C11 C 1.1003(8) 0.5617(2) 0.1279(5)
H4 H 1.0363 0.5719 0.0447
C12 C 1.2682(9) 0.5322(2) 0.1487(5)
H5 H 1.3166 0.5204 0.0807
C13 C 1.3718(8) 0.5188(2) 0.2731(5)
H6 H 1.4923 0.4996 0.2892
C14 C 1.2914(8) 0.5348(2) 0.3731(4)
H7 H 1.3563 0.5246 0.4561
C15 C 1.1305(6) 0.5776(2) 0.7953(3)
H8 H 1.2507 0.5555 0.8106
H9 H 1.0359 0.5552 0.8256
H10 H 1.1541 0.6150 0.8393
C16 C 0.7325(6) 0.66367(19) 0.7553(4)
C17 C 0.5936(6) 0.6422(2) 0.8115(4)
H11 H 0.4919 0.6188 0.7644
C18 C 0.6028(8) 0.6547(2) 0.9374(4)
H12 H 0.5080 0.6398 0.9748
C19 C 0.7519(8) 0.6892(2) 1.0067(4)
H13 H 0.7582 0.6974 1.0915
C20 C 0.8935(7) 0.7121(2) 0.9530(4)
H14 H 0.9936 0.7358 1.0008
C21 C 0.8840(7) 0.69913(19) 0.8254(4)
H15 H 0.9784 0.7141 0.7878
loop_
_geom_bond_atom_site_label_1
_geom_bond_atom_site_label_2
_geom_bond_site_symmetry_1
_geom_bond_site_symmetry_2
N1 C1 1_555 1_555
N2 N3 1_555 1_555
N3 C2 1_555 1_555
O1 C6 1_555 1_555
O2 C6 1_555 1_555
C1 N2 1_555 1_555
C2 C3 1_555 1_555
C3 C1 1_555 1_555
C4 C3 1_555 1_555
C5 C4 1_555 1_555
C6 C5 1_555 1_555
C7 O1 1_555 1_555
H1 C7 1_555 1_555
H2 C7 1_555 1_555
C8 N1 1_555 1_555
C9 N2 1_555 1_555
C10 C9 1_555 1_555
H3 C10 1_555 1_555
C11 C10 1_555 1_555
H4 C11 1_555 1_555
C12 C11 1_555 1_555
H5 C12 1_555 1_555
C13 C12 1_555 1_555
H6 C13 1_555 1_555
C14 C9 1_555 1_555
H7 C14 1_555 1_555
C15 C2 1_555 1_555
H8 C15 1_555 1_555
H9 C15 1_555 1_555
H10 C15 1_555 1_555
C16 C4 1_555 1_555
C17 C16 1_555 1_555
H11 C17 1_555 1_555
C18 C17 1_555 1_555
H12 C18 1_555 1_555
C19 C18 1_555 1_555
H13 C19 1_555 1_555
C20 C19 1_555 1_555
H14 C20 1_555 1_555
C21 C16 1_555 1_555
H15 C21 1_555 1_555
C5 C8 1_555 1_555
C7 C8 1_555 1_555
C13 C14 1_555 1_555
C20 C21 1_555 1_555

#END
