
#######################################################################
#
#                 Cambridge Crystallographic Data Centre
#                                CCDC 
#
#######################################################################
#
# If this CIF has been generated from an entry in the Cambridge 
# Structural Database, then it will include bibliographic, chemical, 
# crystal, experimental, refinement or atomic coordinate data resulting 
# from the CCDC's data processing and validation procedures.
#
#######################################################################

data_REZREU
_chemical_formula_moiety         'C22 H30 Br1 N3 O2 S1'
_chemical_name_systematic        
2-(Bromophenylimino)-10-oxo-9-oxa-1-thia-3,4-diazaspiro(4.15)eicosa-3-ene
_symmetry_cell_setting           triclinic
_symmetry_space_group_name_H-M   'P -1'
_symmetry_Int_Tables_number      2
_space_group_name_Hall           '-P 1'
loop_
_symmetry_equiv_pos_site_id
_symmetry_equiv_pos_as_xyz
1 x,y,z
2 -x,-y,-z
_cell_length_a                   9.6152(18)
_cell_length_b                   10.527(2)
_cell_length_c                   12.013(2)
_cell_angle_alpha                79.297(4)
_cell_angle_beta                 87.928(4)
_cell_angle_gamma                79.413(4)
_cell_volume                     1174.45
_exptl_crystal_colour            yellow
_exptl_crystal_description       block
_chemical_melting_point          '363-365 K'
_cell_formula_units_Z            2
_exptl_crystal_recrystallization_method 'petroleum ether'
loop_
_atom_site_label
_atom_site_type_symbol
_atom_site_fract_x
_atom_site_fract_y
_atom_site_fract_z
Br1 Br 0.40529(7) 0.92097(7) 1.13674(6)
C1 C 0.8080(5) 0.8189(5) 0.6935(4)
H1 H 0.8000 0.8793 0.7463
H2 H 0.9076 0.7948 0.6761
C2 C 0.7306(5) 0.8895(5) 0.5854(5)
H3 H 0.7225 0.8259 0.5380
H4 H 0.6357 0.9295 0.6043
C3 C 0.8046(6) 0.9942(5) 0.5198(5)
H5 H 0.9014 0.9544 0.5057
H6 H 0.8081 1.0595 0.5665
C4 C 0.7374(7) 1.0635(5) 0.4075(5)
H7 H 0.7969 1.1239 0.3702
H8 H 0.6468 1.1156 0.4226
C5 C 0.7135(6) 0.9747(5) 0.3261(5)
H9 H 0.6701 1.0292 0.2577
H10 H 0.6473 0.9195 0.3605
C6 C 0.8474(6) 0.8866(6) 0.2934(5)
H11 H 0.9025 0.9400 0.2415
H12 H 0.9040 0.8495 0.3609
C7 C 0.8183(6) 0.7750(5) 0.2382(5)
H13 H 0.7505 0.8106 0.1774
H14 H 0.9053 0.7353 0.2051
C8 C 0.7610(6) 0.6697(5) 0.3215(4)
H15 H 0.8233 0.6426 0.3867
H16 H 0.6690 0.7080 0.3478
C9 C 0.7462(7) 0.5507(5) 0.2755(4)
H17 H 0.8388 0.5091 0.2530
H18 H 0.6873 0.5775 0.2084
C10 C 0.6816(6) 0.4504(5) 0.3603(4)
H19 H 0.5912 0.4927 0.3862
H20 H 0.6649 0.3805 0.3229
C11 C 0.7758(6) 0.3929(5) 0.4599(4)
C12 C 0.7848(6) 0.3543(5) 0.6613(4)
H21 H 0.8855 0.3414 0.6455
H22 H 0.7618 0.2711 0.6996
C13 C 0.7466(5) 0.4555(5) 0.7352(4)
H23 H 0.7954 0.4242 0.8070
H24 H 0.6457 0.4676 0.7502
C14 C 0.7851(5) 0.5862(5) 0.6814(4)
H25 H 0.7348 0.6166 0.6101
H26 H 0.8854 0.5719 0.6641
C15 C 0.7538(4) 0.6955(5) 0.7511(4)
C16 C 0.6065(4) 0.6905(4) 0.9300(4)
C17 C 0.3779(4) 0.7305(4) 1.0032(4)
C18 C 0.3070(5) 0.8297(5) 1.0552(4)
C19 C 0.1602(5) 0.8620(5) 1.0473(5)
H27 H 0.1118 0.9301 1.0810
C20 C 0.0863(5) 0.7944(6) 0.9903(5)
H28 H -0.0118 0.8158 0.9859
C21 C 0.1586(5) 0.6948(5) 0.9399(4)
H29 H 0.1092 0.6480 0.9017
C22 C 0.3030(4) 0.6644(5) 0.9457(4)
H30 H 0.3511 0.5979 0.9102
N1 N 0.8293(4) 0.6491(4) 0.8600(3)
N2 N 0.7590(4) 0.6459(4) 0.9481(3)
N3 N 0.5282(4) 0.6939(4) 1.0160(3)
O1 O 0.8990(4) 0.3465(4) 0.4553(3)
O2 O 0.7057(3) 0.3994(3) 0.5563(3)
S1 S 0.56615(11) 0.73387(12) 0.78633(10)
loop_
_geom_bond_atom_site_label_1
_geom_bond_atom_site_label_2
_geom_bond_site_symmetry_1
_geom_bond_site_symmetry_2
Br1 C18 1_555 1_555
C1 H1 1_555 1_555
H2 C1 1_555 1_555
C2 C1 1_555 1_555
H3 C2 1_555 1_555
H4 C2 1_555 1_555
C3 C2 1_555 1_555
H5 C3 1_555 1_555
H6 C3 1_555 1_555
C4 C3 1_555 1_555
H7 C4 1_555 1_555
H8 C4 1_555 1_555
C5 C4 1_555 1_555
H9 C5 1_555 1_555
H10 C5 1_555 1_555
C6 C5 1_555 1_555
H11 C6 1_555 1_555
H12 C6 1_555 1_555
C7 C6 1_555 1_555
H13 C7 1_555 1_555
H14 C7 1_555 1_555
C8 C7 1_555 1_555
H15 C8 1_555 1_555
H16 C8 1_555 1_555
C9 C8 1_555 1_555
H17 C9 1_555 1_555
H18 C9 1_555 1_555
C10 C9 1_555 1_555
H19 C10 1_555 1_555
H20 C10 1_555 1_555
C11 C10 1_555 1_555
C12 H21 1_555 1_555
H22 C12 1_555 1_555
C13 C12 1_555 1_555
H23 C13 1_555 1_555
H24 C13 1_555 1_555
C14 C13 1_555 1_555
H25 C14 1_555 1_555
H26 C14 1_555 1_555
C15 C1 1_555 1_555
C16 N2 1_555 1_555
C17 C18 1_555 1_555
C18 C19 1_555 1_555
C19 H27 1_555 1_555
C20 C19 1_555 1_555
H28 C20 1_555 1_555
C21 C20 1_555 1_555
H29 C21 1_555 1_555
C22 C17 1_555 1_555
H30 C22 1_555 1_555
N1 C15 1_555 1_555
N2 N1 1_555 1_555
N3 C16 1_555 1_555
O1 C11 1_555 1_555
O2 C11 1_555 1_555
S1 C15 1_555 1_555
C12 O2 1_555 1_555
C14 C15 1_555 1_555
C16 S1 1_555 1_555
C17 N3 1_555 1_555
C21 C22 1_555 1_555

#END
