
#######################################################################
#
#                 Cambridge Crystallographic Data Centre
#                                CCDC 
#
#######################################################################
#
# If this CIF has been generated from an entry in the Cambridge 
# Structural Database, then it will include bibliographic, chemical, 
# crystal, experimental, refinement or atomic coordinate data resulting 
# from the CCDC's data processing and validation procedures.
#
#######################################################################

data_REZSUL
_chemical_formula_moiety         'C15 H20 N4 O3'
_chemical_name_systematic        
'Benzyl 5-azido-6-hydroxy-2-methylazepane-1-carboxylate'
_symmetry_cell_setting           triclinic
_symmetry_space_group_name_H-M   'P -1'
_symmetry_Int_Tables_number      2
_space_group_name_Hall           '-P 1'
loop_
_symmetry_equiv_pos_site_id
_symmetry_equiv_pos_as_xyz
1 x,y,z
2 -x,-y,-z
_cell_length_a                   8.650(2)
_cell_length_b                   8.745(3)
_cell_length_c                   10.766(2)
_cell_angle_alpha                74.45(2)
_cell_angle_beta                 77.26(2)
_cell_angle_gamma                85.56(2)
_cell_volume                     765.116
_exptl_crystal_colour            colorless
_exptl_crystal_description       prism
_cell_formula_units_Z            2
loop_
_atom_site_label
_atom_site_type_symbol
_atom_site_fract_x
_atom_site_fract_y
_atom_site_fract_z
O1 O 0.0624(1) -0.1732(1) 0.3893(1)
O2 O 0.1806(1) -0.1817(1) 0.1814(1)
O3 O 0.2621(1) 0.1385(1) 0.5548(1)
N1 N 0.3111(1) -0.0800(1) 0.2973(1)
N2 N 0.3063(2) 0.4121(2) 0.3272(1)
N3 N 0.3082(2) 0.4633(2) 0.4227(1)
N4 N 0.3045(3) 0.5265(2) 0.5024(2)
C1 C 0.1768(2) -0.1470(2) 0.2970(1)
C2 C 0.3276(2) -0.0445(2) 0.4190(1)
C3 C 0.2727(2) 0.1249(2) 0.4238(1)
C4 C 0.3837(2) 0.2524(2) 0.3305(1)
C5 C 0.4283(2) 0.2397(2) 0.1883(1)
C6 C 0.5352(2) 0.0953(2) 0.1729(1)
C7 C 0.4464(2) -0.0528(2) 0.1829(1)
C8 C 0.5547(2) -0.1993(2) 0.1884(2)
C9 C 0.0420(2) -0.2604(2) 0.1740(1)
C10 C 0.0738(2) -0.2863(2) 0.0382(1)
C11 C 0.1743(2) -0.4094(2) 0.0093(2)
C12 C 0.2058(2) -0.4323(2) -0.1161(2)
C13 C 0.1394(2) -0.3322(2) -0.2143(2)
C14 C 0.0398(2) -0.2090(2) -0.1858(2)
C15 C 0.0066(2) -0.1870(2) -0.0601(1)
H1 H 0.1620(30) 0.1470(20) 0.5879(19)
H2 H 0.4400 -0.0590 0.4267
H3 H 0.2644 -0.1204 0.4953
H4 H 0.1652 0.1447 0.4019
H5 H 0.4830 0.2473 0.3647
H6 H 0.4834 0.3372 0.1320
H7 H 0.3303 0.2327 0.1570
H8 H 0.6093 0.1232 0.0862
H9 H 0.5994 0.0704 0.2417
H10 H 0.4022 -0.0335 0.1015
H11 H 0.4926 -0.2912 0.1947
H12 H 0.6028 -0.2193 0.2657
H13 H 0.6382 -0.1817 0.1083
H14 H -0.0544 -0.1931 0.1881
H15 H 0.0265 -0.3631 0.2417
H16 H 0.2217 -0.4780 0.0758
H17 H 0.2735 -0.5177 -0.1348
H18 H 0.1619 -0.3477 -0.3005
H19 H -0.0059 -0.1393 -0.2529
H20 H -0.0630 -0.1030 -0.0411
loop_
_geom_bond_atom_site_label_1
_geom_bond_atom_site_label_2
_geom_bond_site_symmetry_1
_geom_bond_site_symmetry_2
O1 C1 1_555 1_555
O2 C1 1_555 1_555
O3 C3 1_555 1_555
N1 C1 1_555 1_555
N2 N3 1_555 1_555
N3 N4 1_555 1_555
C2 N1 1_555 1_555
C3 C2 1_555 1_555
C4 N2 1_555 1_555
C5 C4 1_555 1_555
C6 C5 1_555 1_555
C7 N1 1_555 1_555
C8 C7 1_555 1_555
C9 O2 1_555 1_555
C10 C9 1_555 1_555
C11 C10 1_555 1_555
C12 C11 1_555 1_555
C13 C12 1_555 1_555
C14 C13 1_555 1_555
C15 C10 1_555 1_555
H1 O3 1_555 1_555
H2 C2 1_555 1_555
H3 C2 1_555 1_555
H4 C3 1_555 1_555
H5 C4 1_555 1_555
H6 C5 1_555 1_555
H7 C5 1_555 1_555
H8 C6 1_555 1_555
H9 C6 1_555 1_555
H10 C7 1_555 1_555
H11 C8 1_555 1_555
H12 C8 1_555 1_555
H13 C8 1_555 1_555
H14 C9 1_555 1_555
H15 C9 1_555 1_555
H16 C11 1_555 1_555
H17 C12 1_555 1_555
H18 C13 1_555 1_555
H19 C14 1_555 1_555
H20 C15 1_555 1_555
C3 C4 1_555 1_555
C6 C7 1_555 1_555
C14 C15 1_555 1_555

#END
