
#######################################################################
#
#                 Cambridge Crystallographic Data Centre
#                                CCDC 
#
#######################################################################
#
# If this CIF has been generated from an entry in the Cambridge 
# Structural Database, then it will include bibliographic, chemical, 
# crystal, experimental, refinement or atomic coordinate data resulting 
# from the CCDC's data processing and validation procedures.
#
#######################################################################

data_REZWAW01
_chemical_formula_moiety         'C12 H16 Ca1 Cl2 N4 O4'
_chemical_name_systematic        diaqua-dichloro-bis(nicotinamide)-calcium
_symmetry_cell_setting           monoclinic
_symmetry_space_group_name_H-M   'C 2/c'
_symmetry_Int_Tables_number      15
_space_group_name_Hall           '-C 2yn'
loop_
_symmetry_equiv_pos_site_id
_symmetry_equiv_pos_as_xyz
1 x,y,z
2 -x,y,1/2-z
3 1/2+x,1/2+y,z
4 1/2-x,1/2+y,1/2-z
5 -x,-y,-z
6 x,-y,1/2+z
7 1/2-x,1/2-y,-z
8 1/2+x,1/2-y,1/2+z
_cell_length_a                   21.677(4)
_cell_length_b                   6.8290(14)
_cell_length_c                   12.803(3)
_cell_angle_alpha                90
_cell_angle_beta                 117.80(3)
_cell_angle_gamma                90
_cell_volume                     1676.51
_exptl_crystal_colour            colorless
_exptl_crystal_description       plate
_cell_formula_units_Z            4
loop_
_atom_site_label
_atom_site_type_symbol
_atom_site_fract_x
_atom_site_fract_y
_atom_site_fract_z
Ca1 Ca 1.0000 0.95554(5) 0.2500
Cl1 Cl 1.037471(17) 1.23954(5) 0.13547(3)
O1 O 0.88915(5) 0.93580(15) 0.10206(8)
O2 O 1.02499(6) 0.70891(16) 0.14413(9)
H1 H 1.0076 0.7357 0.0719
H2 H 1.0294 0.5875 0.1556
N1 N 0.72357(6) 1.07568(19) 0.15674(10)
N2 N 0.82583(6) 0.89242(18) -0.09362(10)
H3 H 0.8631 0.8604 -0.1006
H4 H 0.7846 0.8946 -0.1564
C1 C 0.76762(6) 0.99121(19) 0.02053(11)
C2 C 0.64715(7) 1.0696(2) -0.05266(12)
H5 H 0.6014 1.0863 -0.1159
C3 C 0.70155(7) 1.0152(2) -0.07495(12)
H6 H 0.6939 0.9949 -0.1535
C4 C 0.77541(7) 1.0224(2) 0.13353(11)
H7 H 0.8205 1.0048 0.1985
C5 C 0.66041(7) 1.0992(2) 0.06335(12)
H8 H 0.6228 1.1381 0.0773
C6 C 0.83179(7) 0.93724(18) 0.01115(11)
Cl1A Cl 0.962529(17) 1.23954(5) 0.36453(3)
O1A O 1.11085(5) 0.93580(15) 0.39794(8)
O2A O 0.97501(6) 0.70891(16) 0.35587(9)
H1A H 0.9924 0.7357 0.4281
H2A H 0.9706 0.5875 0.3444
N1A N 1.27643(6) 1.07568(19) 0.34326(10)
N2A N 1.17417(6) 0.89242(18) 0.59362(10)
H3A H 1.1369 0.8604 0.6006
H4A H 1.2154 0.8946 0.6564
C1A C 1.23238(6) 0.99121(19) 0.47947(11)
C2A C 1.35285(7) 1.0696(2) 0.55266(12)
H5A H 1.3986 1.0863 0.6159
C3A C 1.29845(7) 1.0152(2) 0.57495(12)
H6A H 1.3061 0.9949 0.6535
C4A C 1.22459(7) 1.0224(2) 0.36647(11)
H7A H 1.1795 1.0048 0.3015
C5A C 1.33959(7) 1.0992(2) 0.43665(12)
H8A H 1.3772 1.1381 0.4227
C6A C 1.16821(7) 0.93724(18) 0.48885(11)
loop_
_geom_bond_atom_site_label_1
_geom_bond_atom_site_label_2
_geom_bond_site_symmetry_1
_geom_bond_site_symmetry_2
Ca1 Cl1 1_555 1_555
O1 Ca1 1_555 1_555
O2 Ca1 1_555 1_555
H1 O2 1_555 1_555
H2 O2 1_555 1_555
N1 C4 1_555 1_555
N2 H3 1_555 1_555
H4 N2 1_555 1_555
C1 C3 1_555 1_555
C2 H5 1_555 1_555
C3 C2 1_555 1_555
H6 C3 1_555 1_555
C4 C1 1_555 1_555
H7 C4 1_555 1_555
C5 N1 1_555 1_555
H8 C5 1_555 1_555
C6 O1 1_555 1_555
Cl1A Ca1 1_555 1_555
O1A Ca1 1_555 1_555
O2A Ca1 1_555 1_555
H1A O2A 1_555 1_555
H2A O2A 1_555 1_555
N1A C4A 1_555 1_555
N2A H3A 1_555 1_555
H4A N2A 1_555 1_555
C1A C3A 1_555 1_555
C2A H5A 1_555 1_555
C3A C2A 1_555 1_555
H6A C3A 1_555 1_555
C4A C1A 1_555 1_555
H7A C4A 1_555 1_555
C5A N1A 1_555 1_555
H8A C5A 1_555 1_555
C6A O1A 1_555 1_555
N2 C6 1_555 1_555
C1 C6 1_555 1_555
C2 C5 1_555 1_555
N2A C6A 1_555 1_555
C1A C6A 1_555 1_555
C2A C5A 1_555 1_555

#END
