
#######################################################################
#
#                 Cambridge Crystallographic Data Centre
#                                CCDC 
#
#######################################################################
#
# If this CIF has been generated from an entry in the Cambridge 
# Structural Database, then it will include bibliographic, chemical, 
# crystal, experimental, refinement or atomic coordinate data resulting 
# from the CCDC's data processing and validation procedures.
#
#######################################################################

data_REZWAX
_chemical_formula_moiety         'C32 H25 N1 O1'
_chemical_name_systematic        
3-(benzyloxy)-2-phenyl-4,5-dihydro-3H-spiro[acenaphthylene-1,3'-indole]
_symmetry_cell_setting           triclinic
_symmetry_space_group_name_H-M   'P -1'
_symmetry_Int_Tables_number      2
_space_group_name_Hall           '-P 1'
loop_
_symmetry_equiv_pos_site_id
_symmetry_equiv_pos_as_xyz
1 x,y,z
2 -x,-y,-z
_cell_length_a                   9.556(2)
_cell_length_b                   10.106(2)
_cell_length_c                   14.055(3)
_cell_angle_alpha                73.104(3)
_cell_angle_beta                 80.764(4)
_cell_angle_gamma                67.629(4)
_cell_volume                     1199.09
_exptl_crystal_colour            colorless
_exptl_crystal_description       block
_cell_formula_units_Z            2
loop_
_atom_site_label
_atom_site_type_symbol
_atom_site_fract_x
_atom_site_fract_y
_atom_site_fract_z
N1 N 1.13148(17) -0.27341(17) 0.42049(12)
O1 O 0.47909(13) 0.18461(14) 0.18904(8)
C1 C 0.9987(2) -0.2558(2) 0.18719(14)
H1 H 0.9073 -0.2128 0.1562
C2 C 1.1292(3) -0.3392(2) 0.14222(16)
H2 H 1.1257 -0.3514 0.0796
C3 C 1.2646(3) -0.4048(2) 0.18923(18)
H3 H 1.3505 -0.4608 0.1578
C4 C 1.2744(2) -0.3886(2) 0.28128(17)
H4 H 1.3653 -0.4331 0.3129
C5 C 1.1454(2) -0.3046(2) 0.32523(14)
C6 C 1.0088(2) -0.23853(19) 0.27947(13)
C7 C 0.89190(18) -0.15823(18) 0.34892(12)
C8 C 0.9934(2) -0.1926(2) 0.43208(13)
H5 H 0.9568 -0.1566 0.4885
C9 C 0.76183(19) -0.21637(19) 0.38479(12)
C10 C 0.7601(2) -0.3558(2) 0.43021(13)
H6 H 0.8497 -0.4362 0.4444
C11 C 0.6194(2) -0.3727(2) 0.45447(14)
H7 H 0.6155 -0.4663 0.4847
C12 C 0.4853(2) -0.2531(2) 0.43442(13)
H8 H 0.3934 -0.2682 0.4514
C13 C 0.48537(19) -0.1116(2) 0.38959(12)
C14 C 0.3489(2) 0.0282(2) 0.36610(14)
H9 H 0.2702 0.0230 0.4185
H10 H 0.3101 0.0357 0.3043
C15 C 0.3850(2) 0.1665(2) 0.35621(13)
H11 H 0.4046 0.1681 0.4214
H12 H 0.2970 0.2531 0.3331
C16 C 0.52136(19) 0.1758(2) 0.28473(12)
H13 H 0.5427 0.2639 0.2830
C17 C 0.65663(19) 0.03844(18) 0.31705(12)
C18 C 0.62679(19) -0.09747(19) 0.36444(12)
C19 C 0.80766(19) 0.00885(18) 0.30784(12)
C20 C 0.8900(2) 0.11339(19) 0.27037(13)
C21 C 0.8654(2) 0.2247(2) 0.31638(15)
H14 H 0.7960 0.2341 0.3707
C22 C 0.9429(3) 0.3223(2) 0.2825(2)
H15 H 0.9252 0.3963 0.3145
C23 C 1.0447(3) 0.3107(3) 0.2031(2)
H16 H 1.0960 0.3768 0.1806
C24 C 1.0712(3) 0.2017(3) 0.15643(19)
H17 H 1.1409 0.1935 0.1021
C25 C 0.9951(2) 0.1034(2) 0.18961(16)
H18 H 1.0144 0.0293 0.1574
C26 C 0.5866(2) 0.2064(2) 0.10956(13)
H19 H 0.6786 0.1198 0.1173
H20 H 0.6120 0.2907 0.1094
C27 C 0.5185(2) 0.2329(2) 0.01399(13)
C28 C 0.3948(3) 0.3548(3) -0.01621(17)
H21 H 0.3524 0.4216 0.0233
C29 C 0.3305(3) 0.3817(4) -0.1046(2)
H22 H 0.2461 0.4661 -0.1244
C30 C 0.3915(4) 0.2840(5) -0.1625(2)
H23 H 0.3491 0.3011 -0.2220
C31 C 0.5130(5) 0.1629(4) -0.1330(2)
H24 H 0.5544 0.0955 -0.1720
C32 C 0.5771(3) 0.1374(3) -0.04547(17)
H25 H 0.6620 0.0532 -0.0266
loop_
_geom_bond_atom_site_label_1
_geom_bond_atom_site_label_2
_geom_bond_site_symmetry_1
_geom_bond_site_symmetry_2
N1 C5 1_555 1_555
O1 C16 1_555 1_555
C1 H1 1_555 1_555
C2 C1 1_555 1_555
H2 C2 1_555 1_555
C3 C2 1_555 1_555
H3 C3 1_555 1_555
C4 C3 1_555 1_555
H4 C4 1_555 1_555
C5 C4 1_555 1_555
C6 C1 1_555 1_555
C7 C6 1_555 1_555
C8 N1 1_555 1_555
H5 C8 1_555 1_555
C9 C7 1_555 1_555
C10 C9 1_555 1_555
H6 C10 1_555 1_555
C11 C10 1_555 1_555
H7 C11 1_555 1_555
C12 C11 1_555 1_555
H8 C12 1_555 1_555
C13 C12 1_555 1_555
C14 C13 1_555 1_555
H9 C14 1_555 1_555
H10 C14 1_555 1_555
C15 C14 1_555 1_555
H11 C15 1_555 1_555
H12 C15 1_555 1_555
C16 C15 1_555 1_555
H13 C16 1_555 1_555
C17 C16 1_555 1_555
C18 C9 1_555 1_555
C19 C7 1_555 1_555
C20 C19 1_555 1_555
C21 C20 1_555 1_555
H14 C21 1_555 1_555
C22 C21 1_555 1_555
H15 C22 1_555 1_555
C23 C22 1_555 1_555
H16 C23 1_555 1_555
C24 C23 1_555 1_555
H17 C24 1_555 1_555
C25 C20 1_555 1_555
H18 C25 1_555 1_555
C26 O1 1_555 1_555
H19 C26 1_555 1_555
H20 C26 1_555 1_555
C27 C26 1_555 1_555
C28 C27 1_555 1_555
H21 C28 1_555 1_555
C29 C28 1_555 1_555
H22 C29 1_555 1_555
C30 C29 1_555 1_555
H23 C30 1_555 1_555
C31 C30 1_555 1_555
H24 C31 1_555 1_555
C32 C27 1_555 1_555
H25 C32 1_555 1_555
C5 C6 1_555 1_555
C7 C8 1_555 1_555
C13 C18 1_555 1_555
C17 C18 1_555 1_555
C17 C19 1_555 1_555
C24 C25 1_555 1_555
C31 C32 1_555 1_555

#END
