
#######################################################################
#
#                 Cambridge Crystallographic Data Centre
#                                CCDC 
#
#######################################################################
#
# If this CIF has been generated from an entry in the Cambridge 
# Structural Database, then it will include bibliographic, chemical, 
# crystal, experimental, refinement or atomic coordinate data resulting 
# from the CCDC's data processing and validation procedures.
#
#######################################################################

data_REZWOL
_chemical_formula_moiety         'C20 H17 F2 N1 O3'
_chemical_name_systematic        
'4,6-difluoro-5-[4-(oxan-2-yl)phenyl]-1H-indole-3-carboxylic acid'
_symmetry_cell_setting           monoclinic
_symmetry_space_group_name_H-M   'P 21'
_symmetry_Int_Tables_number      4
_space_group_name_Hall           'P 2yb'
loop_
_symmetry_equiv_pos_site_id
_symmetry_equiv_pos_as_xyz
1 x,y,z
2 -x,1/2+y,-z
_cell_length_a                   10.0671(3)
_cell_length_b                   10.4134(3)
_cell_length_c                   16.2840(5)
_cell_angle_alpha                90
_cell_angle_beta                 97.3980(10)
_cell_angle_gamma                90
_cell_volume                     1692.89
_exptl_crystal_description       plate
_cell_formula_units_Z            4
loop_
_atom_site_label
_atom_site_type_symbol
_atom_site_fract_x
_atom_site_fract_y
_atom_site_fract_z
C1 C 0.39805(18) 0.5083(2) 0.76504(10)
H1 H 0.4038 0.5267 0.8213
C2 C 0.34980(15) 0.59097(17) 0.70269(9)
C3 C 0.36014(14) 0.52457(15) 0.62617(9)
C4 C 0.41510(16) 0.40265(17) 0.64828(10)
C5 C 0.30422(15) 0.71989(18) 0.71847(9)
C6 C 0.44135(17) 0.31065(17) 0.59045(11)
H2 H 0.4754 0.2300 0.6061
C7 C 0.41402(16) 0.34617(16) 0.50945(11)
C8 C 0.36179(14) 0.46573(16) 0.48097(10)
C9 C 0.33546(14) 0.55177(15) 0.54169(9)
C10 C 0.34579(15) 0.50179(16) 0.39192(9)
C11 C 0.45044(16) 0.48148(18) 0.34545(10)
H3 H 0.5271 0.4388 0.3691
C12 C 0.44212(16) 0.52371(18) 0.26482(10)
H4 H 0.5130 0.5079 0.2348
C13 C 0.33056(15) 0.58918(18) 0.22745(9)
C14 C 0.22490(17) 0.6053(2) 0.27298(11)
H5 H 0.1473 0.6459 0.2487
C15 C 0.23204(16) 0.5625(2) 0.35355(11)
H6 H 0.1593 0.5746 0.3826
C16 C 0.32220(18) 0.64680(18) 0.14181(10)
H7 H 0.2281 0.6460 0.1172
C17 C 0.4036(3) 0.5821(2) 0.08225(12)
H8 H 0.3728 0.4944 0.0728
H9 H 0.4969 0.5795 0.1061
C18 C 0.3905(3) 0.6542(3) -0.00017(13)
H10 H 0.4515 0.6174 -0.0353
H11 H 0.3000 0.6451 -0.0282
C19 C 0.4220(3) 0.7930(3) 0.01375(14)
H12 H 0.4023 0.8394 -0.0381
H13 H 0.5166 0.8031 0.0331
C20 C 0.3411(3) 0.8481(2) 0.07657(14)
H14 H 0.3655 0.9374 0.0866
H15 H 0.2467 0.8448 0.0551
F1 F 0.28708(10) 0.66773(9) 0.51770(6)
F2 F 0.43898(12) 0.25936(10) 0.45140(7)
H16 H 0.486(2) 0.328(2) 0.7612(13)
H17 H 0.279(3) 0.8337(19) 0.8069(17)
N1 N 0.43617(16) 0.39625(16) 0.73306(9)
O1 O 0.31342(17) 0.74912(15) 0.79740(8)
O2 O 0.26078(13) 0.79534(13) 0.66380(7)
O3 O 0.36351(15) 0.77796(13) 0.15327(7)
C21 C 0.11213(17) 0.27616(19) -0.27775(11)
H18 H 0.1106 0.2601 -0.3340
C22 C 0.15405(16) 0.19060(18) -0.21599(10)
C23 C 0.14077(15) 0.25435(16) -0.13872(10)
C24 C 0.08850(17) 0.37800(16) -0.16037(11)
C25 C 0.19647(16) 0.06063(17) -0.23187(10)
C26 C 0.05873(19) 0.46762(17) -0.10240(12)
H19 H 0.0248 0.5483 -0.1179
C27 C 0.08181(17) 0.43112(17) -0.02155(12)
C28 C 0.13300(16) 0.31035(16) 0.00676(11)
C29 C 0.16264(15) 0.22597(16) -0.05440(10)
C30 C 0.14658(16) 0.27467(17) 0.09576(10)
C31 C 0.04433(16) 0.29962(17) 0.14321(11)
H20 H -0.0305 0.3456 0.1201
C32 C 0.05171(16) 0.25749(18) 0.22396(11)
H21 H -0.0178 0.2769 0.2544
C33 C 0.16059(15) 0.18665(17) 0.26105(10)
C34 C 0.26573(17) 0.1671(2) 0.21463(12)
H22 H 0.3419 0.1237 0.2384
C35 C 0.25940(18) 0.2106(2) 0.13436(12)
H23 H 0.3318 0.1969 0.1053
C36 C 0.16218(15) 0.13721(17) 0.34814(10)
H24 H 0.1803 0.2097 0.3863
C37 C 0.26256(16) 0.03111(18) 0.37516(12)
H25 H 0.2477 -0.0408 0.3372
H26 H 0.3527 0.0627 0.3732
C38 C 0.24876(19) -0.0139(2) 0.46261(13)
H27 H 0.3068 -0.0872 0.4764
H28 H 0.2765 0.0543 0.5016
C39 C 0.1057(2) -0.0509(3) 0.46961(13)
H29 H 0.0828 -0.1285 0.4380
H30 H 0.0959 -0.0682 0.5271
C40 C 0.01282(19) 0.0554(3) 0.43761(12)
H31 H -0.0789 0.0284 0.4396
H32 H 0.0298 0.1299 0.4732
F3 F 0.21302(11) 0.11021(10) -0.03055(6)
F4 F 0.05588(13) 0.51694(10) 0.03657(7)
H33 H 0.035(2) 0.4571(19) -0.2780(12)
H34 H 0.213(4) -0.061(2) -0.316(2)
N2 N 0.07317(16) 0.38745(16) -0.24509(10)
O4 O 0.02872(10) 0.09051(14) 0.35445(7)
O5 O 0.18688(17) 0.03179(15) -0.31116(8)
O6 O 0.23833(14) -0.01613(13) -0.17747(7)
loop_
_geom_bond_atom_site_label_1
_geom_bond_atom_site_label_2
_geom_bond_site_symmetry_1
_geom_bond_site_symmetry_2
C1 H1 1_555 1_555
C2 C1 1_555 1_555
C3 C2 1_555 1_555
C4 C3 1_555 1_555
C5 C2 1_555 1_555
C6 C4 1_555 1_555
H2 C6 1_555 1_555
C7 C6 1_555 1_555
C8 C7 1_555 1_555
C9 C3 1_555 1_555
C10 C8 1_555 1_555
C11 C10 1_555 1_555
H3 C11 1_555 1_555
C12 C11 1_555 1_555
H4 C12 1_555 1_555
C13 C12 1_555 1_555
C14 C13 1_555 1_555
H5 C14 1_555 1_555
C15 C10 1_555 1_555
H6 C15 1_555 1_555
C16 C13 1_555 1_555
H7 C16 1_555 1_555
C17 C16 1_555 1_555
H8 C17 1_555 1_555
H9 C17 1_555 1_555
C18 C17 1_555 1_555
H10 C18 1_555 1_555
H11 C18 1_555 1_555
C19 C18 1_555 1_555
H12 C19 1_555 1_555
H13 C19 1_555 1_555
C20 C19 1_555 1_555
H14 C20 1_555 1_555
H15 C20 1_555 1_555
F1 C9 1_555 1_555
F2 C7 1_555 1_555
H16 N1 1_555 1_555
H17 O1 1_555 1_555
N1 C1 1_555 1_555
O1 C5 1_555 1_555
O2 C5 1_555 1_555
O3 C16 1_555 1_555
C21 H18 1_555 1_555
C22 C21 1_555 1_555
C23 C22 1_555 1_555
C24 C23 1_555 1_555
C25 C22 1_555 1_555
C26 C24 1_555 1_555
H19 C26 1_555 1_555
C27 C26 1_555 1_555
C28 C27 1_555 1_555
C29 C23 1_555 1_555
C30 C28 1_555 1_555
C31 C30 1_555 1_555
H20 C31 1_555 1_555
C32 C31 1_555 1_555
H21 C32 1_555 1_555
C33 C32 1_555 1_555
C34 C33 1_555 1_555
H22 C34 1_555 1_555
C35 C30 1_555 1_555
H23 C35 1_555 1_555
C36 C33 1_555 1_555
H24 C36 1_555 1_555
C37 C36 1_555 1_555
H25 C37 1_555 1_555
H26 C37 1_555 1_555
C38 C37 1_555 1_555
H27 C38 1_555 1_555
H28 C38 1_555 1_555
C39 C38 1_555 1_555
H29 C39 1_555 1_555
H30 C39 1_555 1_555
C40 C39 1_555 1_555
H31 C40 1_555 1_555
H32 C40 1_555 1_555
F3 C29 1_555 1_555
F4 C27 1_555 1_555
H33 N2 1_555 1_555
H34 O5 1_555 1_555
N2 C21 1_555 1_555
O4 C36 1_555 1_555
O5 C25 1_555 1_555
O6 C25 1_555 1_555
C4 N1 1_555 1_555
C8 C9 1_555 1_555
C14 C15 1_555 1_555
C20 O3 1_555 1_555
C24 N2 1_555 1_555
C28 C29 1_555 1_555
C34 C35 1_555 1_555
C40 O4 1_555 1_555

#END
