
#######################################################################
#
#                 Cambridge Crystallographic Data Centre
#                                CCDC 
#
#######################################################################
#
# If this CIF has been generated from an entry in the Cambridge 
# Structural Database, then it will include bibliographic, chemical, 
# crystal, experimental, refinement or atomic coordinate data resulting 
# from the CCDC's data processing and validation procedures.
#
#######################################################################

data_REZYUT
_chemical_name_common            
bis(4''-nitro-[3,3':4',3'']-trifurazan-4-yl)-diazene
_chemical_formula_moiety         'C12 N16 O10'
_chemical_name_systematic        
4-nitro-4''-((4''-nitro-3,3':4',3''-ter-1,2,5-oxadiazol-4-yl)diazenyl)-3,3':4',3''-ter-1,2,5-oxadiazole
_symmetry_cell_setting           monoclinic
_symmetry_space_group_name_H-M   'P 21/n'
_symmetry_Int_Tables_number      14
_space_group_name_Hall           '-P 2yn'
loop_
_symmetry_equiv_pos_site_id
_symmetry_equiv_pos_as_xyz
1 x,y,z
2 1/2-x,1/2+y,1/2-z
3 -x,-y,-z
4 1/2+x,1/2-y,1/2+z
_cell_length_a                   9.7026(4)
_cell_length_b                   7.5875(4)
_cell_length_c                   13.5805(5)
_cell_angle_alpha                90
_cell_angle_beta                 102.867(4)
_cell_angle_gamma                90
_cell_volume                     974.671
_exptl_crystal_colour            yellow
_exptl_crystal_description       block
_chemical_melting_point          '116 deg.C'
_cell_formula_units_Z            2
loop_
_atom_site_label
_atom_site_type_symbol
_atom_site_fract_x
_atom_site_fract_y
_atom_site_fract_z
N1 N 0.00374(14) 0.92064(16) 0.01323(9)
N2 N 0.13301(16) 0.66684(19) 0.00639(10)
N3 N 0.30059(16) 0.75575(19) -0.07597(10)
N4 N 0.24960(14) 1.3213(2) -0.18249(10)
N5 N 0.37688(14) 1.1310(2) -0.06905(11)
N6 N -0.02432(15) 1.0060(2) -0.25157(11)
N7 N -0.18864(17) 1.2024(3) -0.33182(11)
N8 N -0.07618(16) 1.4758(2) -0.28384(11)
C1 C 0.11370(16) 0.8321(2) -0.01812(10)
C2 C 0.21920(15) 0.8886(2) -0.06899(10)
C3 C 0.25216(15) 1.0639(2) -0.10403(10)
C4 C 0.17183(16) 1.1846(2) -0.17426(10)
C5 C 0.02768(16) 1.1638(2) -0.23486(10)
C6 C -0.07605(17) 1.2844(2) -0.28484(10)
O1 O 0.24785(15) 0.61648(16) -0.02911(9)
O2 O 0.37680(12) 1.29103(17) -0.11714(9)
O3 O -0.15792(14) 1.0278(2) -0.31178(10)
O4 O -0.16562(16) 1.5511(2) -0.34666(11)
O5 O 0.01126(17) 1.54592(19) -0.21842(13)
N1B N -0.00374(14) 1.07936(16) -0.01323(9)
N2B N -0.13301(16) 1.33316(19) -0.00639(10)
N3B N -0.30059(16) 1.24425(19) 0.07597(10)
N4B N -0.24960(14) 0.6787(2) 0.18249(10)
N5B N -0.37688(14) 0.8690(2) 0.06905(11)
N6B N 0.02432(15) 0.9940(2) 0.25157(11)
N7B N 0.18864(17) 0.7976(3) 0.33182(11)
N8B N 0.07618(16) 0.5242(2) 0.28384(11)
C1B C -0.11370(16) 1.1679(2) 0.01812(10)
C2B C -0.21920(15) 1.1114(2) 0.06899(10)
C3B C -0.25216(15) 0.9361(2) 0.10403(10)
C4B C -0.17183(16) 0.8154(2) 0.17426(10)
C5B C -0.02768(16) 0.8362(2) 0.23486(10)
C6B C 0.07605(17) 0.7156(2) 0.28484(10)
O1B O -0.24785(15) 1.38352(16) 0.02911(9)
O2B O -0.37680(12) 0.70897(17) 0.11714(9)
O3B O 0.15792(14) 0.9722(2) 0.31178(10)
O4B O 0.16562(16) 0.4489(2) 0.34666(11)
O5B O -0.01126(17) 0.45408(19) 0.21842(13)
loop_
_geom_bond_atom_site_label_1
_geom_bond_atom_site_label_2
_geom_bond_site_symmetry_1
_geom_bond_site_symmetry_2
N1 C1 1_555 1_555
N2 C1 1_555 1_555
N3 C2 1_555 1_555
N4 C4 1_555 1_555
N5 C3 1_555 1_555
N6 C5 1_555 1_555
N7 C6 1_555 1_555
N8 C6 1_555 1_555
C1 C2 1_555 1_555
C2 C3 1_555 1_555
C3 C4 1_555 1_555
C4 C5 1_555 1_555
C5 C6 1_555 1_555
O1 N2 1_555 1_555
O2 N4 1_555 1_555
O3 N6 1_555 1_555
O4 N8 1_555 1_555
O5 N8 1_555 1_555
N1B N1 1_555 1_555
N2B C1B 1_555 1_555
N3B C2B 1_555 1_555
N4B C4B 1_555 1_555
N5B C3B 1_555 1_555
N6B C5B 1_555 1_555
N7B C6B 1_555 1_555
N8B C6B 1_555 1_555
C1B N1B 1_555 1_555
C2B C1B 1_555 1_555
C3B C2B 1_555 1_555
C4B C3B 1_555 1_555
C5B C4B 1_555 1_555
C6B C5B 1_555 1_555
O1B N2B 1_555 1_555
O2B N4B 1_555 1_555
O3B N6B 1_555 1_555
O4B N8B 1_555 1_555
O5B N8B 1_555 1_555
N3 O1 1_555 1_555
N5 O2 1_555 1_555
N7 O3 1_555 1_555
N3B O1B 1_555 1_555
N5B O2B 1_555 1_555
N7B O3B 1_555 1_555

#END
