
#######################################################################
#
#                 Cambridge Crystallographic Data Centre
#                                CCDC 
#
#######################################################################
#
# If this CIF has been generated from an entry in the Cambridge 
# Structural Database, then it will include bibliographic, chemical, 
# crystal, experimental, refinement or atomic coordinate data resulting 
# from the CCDC's data processing and validation procedures.
#
#######################################################################

data_REZYEA
_chemical_name_common            
'C-(4-(Hydroxymethoxyboryl)phenyl)calix(4)resorcinarene methanol ethanol solvate'
_chemical_formula_moiety         'C56 H52 B4 O16,6(C1 H4 O1),4(C2 H6 O1)'
_chemical_name_systematic        
'2,8,14,20-tetrakis(4-(Hydroxymethoxyboryl)phenyl)-4,6,10,12,16,18,22,24-octahydroxycalix(4)arene methanol ethanol solvate'
_symmetry_cell_setting           triclinic
_symmetry_space_group_name_H-M   'P -1'
_symmetry_Int_Tables_number      2
_space_group_name_Hall           '-P 1'
loop_
_symmetry_equiv_pos_site_id
_symmetry_equiv_pos_as_xyz
1 x,y,z
2 -x,-y,-z
_cell_length_a                   12.105(1)
_cell_length_b                   12.145(4)
_cell_length_c                   13.547(2)
_cell_angle_alpha                74.72(2)
_cell_angle_beta                 66.281(8)
_cell_angle_gamma                81.38(2)
_cell_volume                     1756.75
_exptl_crystal_colour            colorless
_exptl_crystal_description       prism
_cell_formula_units_Z            1
loop_
_atom_site_label
_atom_site_type_symbol
_atom_site_fract_x
_atom_site_fract_y
_atom_site_fract_z
O1 O 0.4081(2) 0.1237(2) 0.2100(2)
O2 O 0.4377(2) -0.2806(2) 0.3582(2)
O3 O 0.6387(3) 0.3943(3) 0.1386(2)
O4 O 0.3878(2) 0.4946(2) 0.4851(2)
O5 O 1.1951(2) 0.0674(3) 0.2120(2)
O6 O 1.2148(2) 0.0704(3) 0.0326(2)
O7 O 1.2302(2) -0.3069(3) 0.3393(2)
O8 O 1.2418(2) -0.2613(3) 0.1558(2)
C1 C 0.4631(3) 0.0292(3) 0.2580(3)
C2 C 0.4182(3) -0.0787(4) 0.2881(3)
C3 C 0.4784(3) -0.1720(3) 0.3308(3)
C4 C 0.5822(3) -0.1615(3) 0.3480(3)
C5 C 0.6226(3) -0.0508(3) 0.3188(3)
C6 C 0.5671(3) 0.0459(3) 0.2718(3)
C7 C 0.6206(3) 0.1616(3) 0.2282(3)
C8 C 0.5540(3) 0.2482(3) 0.2988(3)
C9 C 0.5684(3) 0.3657(4) 0.2494(3)
C10 C 0.5132(3) 0.4480(3) 0.3102(3)
C11 C 0.4442(3) 0.4153(3) 0.4223(3)
C12 C 0.4290(3) 0.3001(3) 0.4757(3)
C13 C 0.4846(3) 0.2188(3) 0.4114(3)
C14 C 0.6418(3) -0.2667(3) 0.3999(3)
C15 C 0.7784(3) -0.2633(3) 0.3663(3)
C16 C 0.8327(3) -0.3201(4) 0.4397(3)
C17 C 0.9576(3) -0.3238(4) 0.4084(3)
C18 C 1.0338(3) -0.2724(3) 0.3034(3)
C19 C 0.9779(3) -0.2154(4) 0.2298(3)
C20 C 0.8535(3) -0.2110(4) 0.2605(3)
C21 C 1.3710(4) -0.2799(5) 0.1143(4)
C22 C 0.7551(3) 0.1516(3) 0.2037(3)
C23 C 0.8005(3) 0.1566(4) 0.2821(3)
C24 C 0.9241(3) 0.1353(4) 0.2609(3)
C25 C 1.0060(3) 0.1113(3) 0.1619(3)
C26 C 0.9597(3) 0.1110(4) 0.0820(3)
C27 C 0.8367(3) 0.1300(4) 0.1030(3)
C28 C 1.3427(4) 0.0447(5) 0.0002(4)
B1 B 1.1432(4) 0.0831(4) 0.1362(4)
B2 B 1.1736(4) -0.2796(4) 0.2659(4)
H1 H 0.347(4) 0.104(4) 0.201(4)
H2 H 0.382(4) -0.285(4) 0.351(4)
H3 H 0.6571 0.4809 0.1064
H4 H 0.410(4) 0.549(4) 0.449(4)
H5 H 1.146(4) 0.088(4) 0.276(4)
H6 H 1.167(4) -0.325(4) 0.427(4)
H7 H 0.3464 -0.0880 0.2793
H8 H 0.6917 -0.0410 0.3317
H9 H 0.6098 0.1921 0.1603
H10 H 0.5226 0.5267 0.2752
H11 H 0.4743 0.1402 0.4464
H12 H 0.6280 -0.3206 0.3669
H13 H 0.7839 -0.3570 0.5126
H14 H 0.9917 -0.3629 0.4610
H15 H 1.0266 -0.1786 0.1568
H16 H 0.8191 -0.1715 0.2083
H17 H 1.4022 -0.2626 0.0357
H18 H 1.3913 -0.3576 0.1408
H19 H 1.4049 -0.2320 0.1389
H20 H 0.7473 0.1744 0.3504
H21 H 0.9526 0.1375 0.3162
H22 H 1.0136 0.0976 0.0121
H23 H 0.8082 0.1281 0.0476
H24 H 1.3767 0.0392 -0.0750
H25 H 1.3791 0.1037 0.0088
H26 H 1.3567 -0.0259 0.0455
C14A C 0.3582(3) 0.2667(3) 0.6001(3)
C4A C 0.4178(3) 0.1615(3) 0.6520(3)
C3A C 0.5216(3) 0.1720(3) 0.6692(3)
O2A O 0.5623(2) 0.2806(2) 0.6418(2)
H2A H 0.618(4) 0.285(4) 0.649(4)
C2A C 0.5818(3) 0.0787(4) 0.7119(3)
C1A C 0.5369(3) -0.0292(3) 0.7420(3)
O1A O 0.5919(2) -0.1237(2) 0.7900(2)
H1A H 0.653(4) -0.104(4) 0.799(4)
C6A C 0.4329(3) -0.0459(3) 0.7282(3)
C5A C 0.3774(3) 0.0508(3) 0.6812(3)
H8A H 0.3083 0.0410 0.6683
C7A C 0.3794(3) -0.1616(3) 0.7718(3)
C8A C 0.4460(3) -0.2482(3) 0.7012(3)
C9A C 0.4316(3) -0.3657(4) 0.7506(3)
O3A O 0.3613(3) -0.3943(3) 0.8614(2)
H3A H 0.3429 -0.4809 0.8936
C10A C 0.4868(3) -0.4480(3) 0.6898(3)
C11A C 0.5558(3) -0.4153(3) 0.5777(3)
O4A O 0.6122(2) -0.4946(2) 0.5149(2)
H4A H 0.590(4) -0.549(4) 0.551(4)
C12A C 0.5710(3) -0.3001(3) 0.5243(3)
C13A C 0.5154(3) -0.2188(3) 0.5886(3)
H11A H 0.5257 -0.1402 0.5536
H10A H 0.4774 -0.5267 0.7248
C22A C 0.2449(3) -0.1516(3) 0.7963(3)
C23A C 0.1995(3) -0.1566(4) 0.7179(3)
C24A C 0.0759(3) -0.1353(4) 0.7391(3)
C25A C -0.0060(3) -0.1113(3) 0.8381(3)
C26A C 0.0403(3) -0.1110(4) 0.9180(3)
C27A C 0.1633(3) -0.1300(4) 0.8970(3)
H23A H 0.1918 -0.1281 0.9524
H22A H -0.0136 -0.0976 0.9879
B1A B -0.1432(4) -0.0831(4) 0.8638(4)
O5A O -0.1951(2) -0.0674(3) 0.7880(2)
H5A H -0.146(4) -0.088(4) 0.724(4)
O6A O -0.2148(2) -0.0704(3) 0.9674(2)
C28A C -0.3427(4) -0.0447(5) 0.9998(4)
H24A H -0.3767 -0.0392 1.0750
H25A H -0.3791 -0.1037 0.9912
H26A H -0.3567 0.0259 0.9545
H21A H 0.0474 -0.1375 0.6838
H20A H 0.2527 -0.1744 0.6496
H9A H 0.3902 -0.1921 0.8397
H7A H 0.6536 0.0880 0.7207
C15A C 0.2216(3) 0.2633(3) 0.6337(3)
C16A C 0.1673(3) 0.3201(4) 0.5603(3)
C17A C 0.0424(3) 0.3238(4) 0.5916(3)
C18A C -0.0338(3) 0.2724(3) 0.6966(3)
C19A C 0.0221(3) 0.2154(4) 0.7702(3)
C20A C 0.1465(3) 0.2110(4) 0.7395(3)
H16A H 0.1809 0.1715 0.7917
H15A H -0.0266 0.1786 0.8432
B2A B -0.1736(4) 0.2796(4) 0.7341(4)
O7A O -0.2302(2) 0.3069(3) 0.6607(2)
H6A H -0.167(4) 0.325(4) 0.573(4)
O8A O -0.2418(2) 0.2613(3) 0.8442(2)
C21A C -0.3710(4) 0.2799(5) 0.8857(4)
H17A H -0.4022 0.2626 0.9643
H18A H -0.3913 0.3576 0.8592
H19A H -0.4049 0.2320 0.8611
H14A H 0.0083 0.3629 0.5390
H13A H 0.2161 0.3570 0.4874
H12A H 0.3720 0.3206 0.6331
O9 O 0.6730(3) 0.6184(3) 0.0604(3)
C29 C 0.7332(5) 0.6606(5) 0.1127(5)
H27 H 0.7544 0.6013 -0.0096
H28 H 0.7554 0.5992 0.1624
H29 H 0.6809 0.7143 0.1524
H30 H 0.8037 0.6969 0.0582
O10 O 0.0935(6) 0.4428(7) 1.0986(5)
C30 C 0.0811(6) 0.5756(5) 1.0642(5)
C31 C 0.0953(5) 0.5992(5) 0.9392(5)
O11 O 0.3304(8) 0.3448(8) 0.1460(6)
C32 C 0.2679(6) 0.3965(6) 0.2429(6)
C33 C 0.1446(6) 0.3453(7) 0.2868(5)
O12 O 0.0975(5) 0.1186(5) 0.4171(4)
C34 C 0.1698(5) 0.0727(5) 0.4757(4)
O14 O 0.1350(4) 0.6304(6) 0.5598(4)
C35 C 0.120(1) 0.5972(7) 0.6532(6)
O13? O 0.0918(8) 0.018(1) 0.4338(7)
loop_
_geom_bond_atom_site_label_1
_geom_bond_atom_site_label_2
_geom_bond_site_symmetry_1
_geom_bond_site_symmetry_2
O1 C1 1_555 1_555
O2 C3 1_555 1_555
O3 C9 1_555 1_555
O4 C11 1_555 1_555
O5 B1 1_555 1_555
O6 C28 1_555 1_555
O7 B2 1_555 1_555
O8 C21 1_555 1_555
C1 C2 1_555 1_555
C2 C3 1_555 1_555
C3 C4 1_555 1_555
C4 C5 1_555 1_555
C5 C6 1_555 1_555
C6 C1 1_555 1_555
C7 C6 1_555 1_555
C8 C7 1_555 1_555
C9 C8 1_555 1_555
C10 C9 1_555 1_555
C11 C10 1_555 1_555
C12 C11 1_555 1_555
C13 C8 1_555 1_555
C14 C4 1_555 1_555
C15 C14 1_555 1_555
C16 C15 1_555 1_555
C17 C16 1_555 1_555
C18 C17 1_555 1_555
C19 C18 1_555 1_555
C20 C15 1_555 1_555
C21 H17 1_555 1_555
C22 C7 1_555 1_555
C23 C22 1_555 1_555
C24 C23 1_555 1_555
C25 C24 1_555 1_555
C26 C25 1_555 1_555
C27 C22 1_555 1_555
C28 H24 1_555 1_555
B1 O6 1_555 1_555
B2 O8 1_555 1_555
O9 C29 1_555 1_555
C29 H28 1_555 1_555
O10 C30 1_555 1_555
C30 C31 1_555 1_555
O11 C32 1_555 1_555
C32 C33 1_555 1_555
O12 C34 1_555 1_555
O14 C35 1_555 1_555
H1 O1 1_555 1_555
H2 O2 1_555 1_555
H3 O3 1_555 1_555
H4 O4 1_555 1_555
H5 O5 1_555 1_555
H6 O7 1_555 1_555
H7 C2 1_555 1_555
H8 C5 1_555 1_555
H9 C7 1_555 1_555
H10 C10 1_555 1_555
H11 C13 1_555 1_555
H12 C14 1_555 1_555
H13 C16 1_555 1_555
H14 C17 1_555 1_555
H15 C19 1_555 1_555
H16 C20 1_555 1_555
H18 C21 1_555 1_555
H19 C21 1_555 1_555
H20 C23 1_555 1_555
H21 C24 1_555 1_555
H22 C26 1_555 1_555
H23 C27 1_555 1_555
H25 C28 1_555 1_555
H26 C28 1_555 1_555
H27 O9 1_555 1_555
H29 C29 1_555 1_555
H30 C29 1_555 1_555
C14A C12 1_555 1_555
C4A C14A 1_555 1_555
C3A C4A 1_555 1_555
O2A C3A 1_555 1_555
H2A O2A 1_555 1_555
C2A C3A 1_555 1_555
C1A C2A 1_555 1_555
O1A C1A 1_555 1_555
H1A O1A 1_555 1_555
C6A C1A 1_555 1_555
C5A C4A 1_555 1_555
H8A C5A 1_555 1_555
C7A C6A 1_555 1_555
C8A C7A 1_555 1_555
C9A C8A 1_555 1_555
O3A C9A 1_555 1_555
H3A O3A 1_555 1_555
C10A C9A 1_555 1_555
C11A C10A 1_555 1_555
O4A C11A 1_555 1_555
H4A O4A 1_555 1_555
C12A C14 1_555 1_555
C13A C8A 1_555 1_555
H11A C13A 1_555 1_555
H10A C10A 1_555 1_555
C22A C7A 1_555 1_555
C23A C22A 1_555 1_555
C24A C23A 1_555 1_555
C25A C24A 1_555 1_555
C26A C25A 1_555 1_555
C27A C22A 1_555 1_555
H23A C27A 1_555 1_555
H22A C26A 1_555 1_555
B1A C25A 1_555 1_555
O5A B1A 1_555 1_555
H5A O5A 1_555 1_555
O6A B1A 1_555 1_555
C28A O6A 1_555 1_555
H24A C28A 1_555 1_555
H25A C28A 1_555 1_555
H26A C28A 1_555 1_555
H21A C24A 1_555 1_555
H20A C23A 1_555 1_555
H9A C7A 1_555 1_555
H7A C2A 1_555 1_555
C15A C14A 1_555 1_555
C16A C15A 1_555 1_555
C17A C16A 1_555 1_555
C18A C17A 1_555 1_555
C19A C18A 1_555 1_555
C20A C15A 1_555 1_555
H16A C20A 1_555 1_555
H15A C19A 1_555 1_555
B2A C18A 1_555 1_555
O7A B2A 1_555 1_555
H6A O7A 1_555 1_555
O8A B2A 1_555 1_555
C21A O8A 1_555 1_555
H17A C21A 1_555 1_555
H18A C21A 1_555 1_555
H19A C21A 1_555 1_555
H14A C17A 1_555 1_555
H13A C16A 1_555 1_555
H12A C14A 1_555 1_555
C12 C13 1_555 1_555
C18 B2 1_555 1_555
C19 C20 1_555 1_555
C25 B1 1_555 1_555
C26 C27 1_555 1_555
C6A C5A 1_555 1_555
C11A C12A 1_555 1_555
C12A C13A 1_555 1_555
C26A C27A 1_555 1_555
C19A C20A 1_555 1_555

#END
