
#######################################################################
#
#                 Cambridge Crystallographic Data Centre
#                                CCDC 
#
#######################################################################
#
# If this CIF has been generated from an entry in the Cambridge 
# Structural Database, then it will include bibliographic, chemical, 
# crystal, experimental, refinement or atomic coordinate data resulting 
# from the CCDC's data processing and validation procedures.
#
#######################################################################

data_RIBLET
_chemical_formula_moiety         'C2 H9 N2 1+,C7 H5 O2 1-,C7 H6 O2'
_chemical_name_systematic        '2-aminoethan-1-aminium benzoic acid benzoate'
_symmetry_cell_setting           orthorhombic
_symmetry_space_group_name_H-M   'P c a 21'
_symmetry_Int_Tables_number      29
_space_group_name_Hall           'P 2c -2ac'
loop_
_symmetry_equiv_pos_site_id
_symmetry_equiv_pos_as_xyz
1 x,y,z
2 -x,-y,1/2+z
3 1/2-x,y,1/2+z
4 1/2+x,-y,z
_cell_length_a                   8.425(3)
_cell_length_b                   9.144(3)
_cell_length_c                   21.000(5)
_cell_angle_alpha                90
_cell_angle_beta                 90
_cell_angle_gamma                90
_cell_volume                     1617.8
_exptl_crystal_colour            colorless
_chemical_melting_point          153.5deg.C
_cell_formula_units_Z            4
loop_
_atom_site_label
_atom_site_type_symbol
_atom_site_fract_x
_atom_site_fract_y
_atom_site_fract_z
C1 C 0.3910(4) 0.7646(4) 0.5000
C2 C 0.5386(4) 0.7789(4) 0.4591(3)
O1 O 0.5653(3) 0.9027(3) 0.4345(2)
O2 O 0.6260(3) 0.6721(3) 0.4524(2)
C3 C 0.3122(5) 0.8874(5) 0.5225(3)
C4 C 0.1752(5) 0.8718(6) 0.5588(3)
C5 C 0.1197(6) 0.7345(7) 0.5730(3)
C6 C 0.1955(6) 0.6116(6) 0.5505(3)
C7 C 0.3327(5) 0.6267(5) 0.5150(3)
H1 H 0.363(5) 0.979(4) 0.516(2)
H2 H 0.124(5) 0.963(5) 0.572(2)
H3 H 0.037(6) 0.716(6) 0.597(3)
H4 H 0.153(5) 0.513(5) 0.560(2)
H5 H 0.382(5) 0.526(6) 0.494(2)
C8 C 0.5216(4) 0.7354(4) 0.2496(2)
C9 C 0.3744(4) 0.7211(4) 0.2903(3)
O3 O 0.2868(3) 0.8292(3) 0.2966(2)
O4 O 0.3491(3) 0.5977(3) 0.3155(2)
C10 C 0.5762(5) 0.8726(5) 0.2321(3)
C11 C 0.7107(6) 0.8876(7) 0.1938(3)
C12 C 0.7891(6) 0.7652(8) 0.1737(3)
C13 C 0.7353(6) 0.6280(6) 0.1906(3)
C14 C 0.6023(5) 0.6121(5) 0.2290(3)
H6 H 0.519(5) 0.961(5) 0.241(2)
H7 H 0.754(7) 1.000(6) 0.188(3)
H8 H 0.894(6) 0.784(6) 0.151(2)
H9 H 0.793(5) 0.546(5) 0.174(2)
H10 H 0.569(4) 0.502(4) 0.242(2)
H11 H 0.24(1) 0.55(1) 0.315(4)
N1 N -0.1540(4) 0.9280(4) 0.3709(3)
C15 C -0.0803(4) 0.7920(4) 0.3475(3)
C16 C -0.0063(5) 0.7107(4) 0.4026(3)
N2 N 0.0680(4) 0.5732(4) 0.3791(3)
H12 H -0.087(4) 0.967(4) 0.395(2)
H13 H -0.240(4) 0.909(3) 0.391(1)
H14 H -0.170(4) 0.991(4) 0.342(2)
H15 H 0.015(6) 0.831(5) 0.315(2)
H16 H -0.164(4) 0.731(4) 0.327(2)
H17 H 0.090(6) 0.779(6) 0.422(3)
H18 H -0.090(4) 0.679(4) 0.433(2)
H19 H 0.009(5) 0.516(5) 0.355(2)
H20 H 0.086(6) 0.500(7) 0.421(3)
loop_
_geom_bond_atom_site_label_1
_geom_bond_atom_site_label_2
_geom_bond_site_symmetry_1
_geom_bond_site_symmetry_2
C1 C2 1_555 1_555
C2 O1 1_555 1_555
O2 C2 1_555 1_555
C3 C1 1_555 1_555
C4 C3 1_555 1_555
C5 C4 1_555 1_555
C6 C5 1_555 1_555
C7 C1 1_555 1_555
H1 C3 1_555 1_555
H2 C4 1_555 1_555
H3 C5 1_555 1_555
H4 C6 1_555 1_555
H5 C7 1_555 1_555
C8 C9 1_555 1_555
C9 O3 1_555 1_555
O4 C9 1_555 1_555
C10 C8 1_555 1_555
C11 C10 1_555 1_555
C12 C11 1_555 1_555
C13 C12 1_555 1_555
C14 C8 1_555 1_555
H6 C10 1_555 1_555
H7 C11 1_555 1_555
H8 C12 1_555 1_555
H9 C13 1_555 1_555
H10 C14 1_555 1_555
H11 O4 1_555 1_555
N1 C15 1_555 1_555
C15 C16 1_555 1_555
C16 N2 1_555 1_555
N2 H19 1_555 1_555
H12 N1 1_555 1_555
H13 N1 1_555 1_555
H14 N1 1_555 1_555
H15 C15 1_555 1_555
H16 C15 1_555 1_555
H17 C16 1_555 1_555
H18 C16 1_555 1_555
H20 N2 1_555 1_555
C6 C7 1_555 1_555
C13 C14 1_555 1_555

#END
