
#######################################################################
#
#                 Cambridge Crystallographic Data Centre
#                                CCDC 
#
#######################################################################
#
# If this CIF has been generated from an entry in the Cambridge 
# Structural Database, then it will include bibliographic, chemical, 
# crystal, experimental, refinement or atomic coordinate data resulting 
# from the CCDC's data processing and validation procedures.
#
#######################################################################

data_RIBMAT
_chemical_formula_moiety         'C4 N6 O9 2-,K1 1+,H4 N1 O1 1+,H2 O1'
_chemical_name_systematic        
'hydroxyammonium potassium bis(dinitromethyl)furazan monohydrate'
_symmetry_cell_setting           monoclinic
_symmetry_space_group_name_H-M   'P 21/n'
_symmetry_Int_Tables_number      14
_space_group_name_Hall           '-P 2yn'
loop_
_symmetry_equiv_pos_site_id
_symmetry_equiv_pos_as_xyz
1 x,y,z
2 1/2-x,1/2+y,1/2-z
3 -x,-y,-z
4 1/2+x,1/2-y,1/2+z
_cell_length_a                   7.0473(9)
_cell_length_b                   11.2381(14)
_cell_length_c                   15.7519(19)
_cell_angle_alpha                90
_cell_angle_beta                 91.842(2)
_cell_angle_gamma                90
_cell_volume                     1246.88
_exptl_crystal_colour            yellow
_exptl_crystal_description       block
_cell_formula_units_Z            4
loop_
_atom_site_label
_atom_site_type_symbol
_atom_site_fract_x
_atom_site_fract_y
_atom_site_fract_z
K1 K 0.25152(9) 0.90827(6) 0.93372(4)
O1 O 0.1095(3) 0.7369(2) 1.05439(16)
H1 H 0.089(5) 0.685(2) 1.0189(18)
H2 H 0.178(7) 0.710(4) 1.076(3)
N1 N 0.6406(3) 0.6684(2) 0.95809(13)
N2 N 0.5759(3) 0.70586(18) 0.80954(13)
N3 N 1.0255(3) 0.6168(2) 0.89090(15)
N4 N 1.0721(3) 0.4852(2) 0.78497(15)
N5 N 0.6041(3) 0.40388(18) 0.75442(13)
N6 N 0.7696(3) 0.48860(19) 0.63738(13)
O2 O 0.5119(3) 0.7331(2) 0.98124(13)
O3 O 0.7371(3) 0.6094(2) 1.01063(12)
O4 O 0.4169(3) 0.75013(17) 0.82175(12)
O5 O 0.6387(3) 0.70098(17) 0.73621(11)
O6 O 1.1567(3) 0.54778(18) 0.85129(13)
O7 O 0.9115(3) 0.54740(18) 0.61467(12)
O8 O 0.6489(3) 0.4547(2) 0.58328(12)
O9 O 0.4762(3) 0.35920(19) 0.70966(12)
O10 O 0.6042(3) 0.39314(18) 0.83391(12)
C1 C 0.6899(4) 0.6587(2) 0.87356(15)
C2 C 0.8636(3) 0.5989(2) 0.85057(15)
C3 C 0.8936(3) 0.5152(2) 0.78378(15)
C4 C 0.7558(3) 0.4651(2) 0.72242(15)
N7 N 0.2898(4) 1.2314(2) 0.84425(15)
O11 O 0.1813(3) 1.1479(2) 0.88630(15)
H3 H 0.394(3) 1.200(3) 0.839(2)
H4 H 0.297(5) 1.2921(18) 0.8734(18)
H5 H 0.239(5) 1.254(4) 0.7997(15)
H6 H 0.085(3) 1.186(3) 0.895(2)
loop_
_geom_bond_atom_site_label_1
_geom_bond_atom_site_label_2
_geom_bond_site_symmetry_1
_geom_bond_site_symmetry_2
O1 H1 1_555 1_555
H2 O1 1_555 1_555
N1 O2 1_555 1_555
N2 O4 1_555 1_555
N3 O6 1_555 1_555
N4 O6 1_555 1_555
N5 O9 1_555 1_555
N6 O7 1_555 1_555
O3 N1 1_555 1_555
O5 N2 1_555 1_555
O8 N6 1_555 1_555
O10 N5 1_555 1_555
C1 N1 1_555 1_555
C2 N3 1_555 1_555
C3 N4 1_555 1_555
C4 N5 1_555 1_555
N7 O11 1_555 1_555
O11 H6 1_555 1_555
H3 N7 1_555 1_555
H4 N7 1_555 1_555
H5 N7 1_555 1_555
N2 C1 1_555 1_555
N6 C4 1_555 1_555
C1 C2 1_555 1_555
C2 C3 1_555 1_555
C3 C4 1_555 1_555

#END
