
#######################################################################
#
#                 Cambridge Crystallographic Data Centre
#                                CCDC 
#
#######################################################################
#
# If this CIF has been generated from an entry in the Cambridge 
# Structural Database, then it will include bibliographic, chemical, 
# crystal, experimental, refinement or atomic coordinate data resulting 
# from the CCDC's data processing and validation procedures.
#
#######################################################################

data_RIBMAQ
_chemical_formula_moiety         'C52 H40 B2 K2 N16'
_chemical_name_systematic        
"bis(\m~2~-Dihydrogen bis(3-(6'-(2,2'-bipyridyl))pyrazolato) borate)-di-potassium"
_symmetry_cell_setting           triclinic
_symmetry_space_group_name_H-M   'P -1'
_symmetry_Int_Tables_number      2
_space_group_name_Hall           '-P 1'
loop_
_symmetry_equiv_pos_site_id
_symmetry_equiv_pos_as_xyz
1 x,y,z
2 -x,-y,-z
_cell_length_a                   9.858(2)
_cell_length_b                   13.566(2)
_cell_length_c                   18.4766(12)
_cell_angle_alpha                87.541(10)
_cell_angle_beta                 85.050(9)
_cell_angle_gamma                83.102(9)
_cell_volume                     2442.58
_exptl_crystal_colour            colorless
_cell_formula_units_Z            2
loop_
_atom_site_label
_atom_site_type_symbol
_atom_site_fract_x
_atom_site_fract_y
_atom_site_fract_z
K1 K -0.0613(2) 0.1348(1) 0.1885(1)
K2 K -0.1910(2) 0.3475(1) 0.3264(1)
B1 B 0.0494(9) 0.4131(6) 0.1453(4)
B2 B -0.0072(8) 0.0892(6) 0.4007(4)
N1 N 0.0321(5) 0.4972(4) 0.2000(3)
N2 N -0.0175(5) 0.4838(4) 0.2702(3)
C1 C -0.0236(7) 0.5720(5) 0.3015(4)
C2 C 0.0237(7) 0.6421(6) 0.2509(4)
C3 C 0.0572(7) 0.5919(5) 0.1882(4)
N3 N -0.1519(6) 0.5166(4) 0.4090(3)
C4 C -0.1973(8) 0.5272(6) 0.4793(4)
C5 C -0.1674(10) 0.6027(7) 0.5204(5)
C6 C -0.0905(10) 0.6728(7) 0.4883(5)
C7 C -0.0422(8) 0.6639(6) 0.4157(5)
C8 C -0.0738(7) 0.5842(5) 0.3774(4)
N4 N -0.2681(7) 0.3623(5) 0.4797(3)
C9 C -0.3472(9) 0.2933(6) 0.5072(4)
C10 C -0.4488(10) 0.3112(7) 0.5638(4)
C11 C -0.4656(11) 0.3998(8) 0.5938(5)
C12 C -0.3854(11) 0.4717(7) 0.5676(5)
C13 C -0.2848(9) 0.4508(6) 0.5109(4)
N5 N -0.1628(5) 0.3248(4) 0.1410(3)
N6 N -0.0882(5) 0.3995(4) 0.1162(3)
C14 C -0.1535(7) 0.4524(5) 0.0634(3)
C15 C -0.2706(7) 0.4141(5) 0.0524(4)
C16 C -0.2739(7) 0.3329(5) 0.1027(3)
N7 N -0.3388(5) 0.1775(4) 0.1525(3)
C17 C -0.3766(7) 0.2623(5) 0.1154(3)
C18 C -0.5047(7) 0.2852(6) 0.0883(4)
C19 C -0.5987(8) 0.2183(6) 0.1025(4)
C20 C -0.5647(7) 0.1320(6) 0.1420(4)
C21 C -0.4330(7) 0.1134(5) 0.1663(4)
N8 N -0.2553(6) -0.0011(4) 0.2172(3)
C22 C -0.3884(7) 0.0200(5) 0.2087(4)
C23 C -0.4845(8) -0.0424(6) 0.2375(4)
C24 C -0.4384(9) -0.1290(7) 0.2749(4)
C25 C -0.3041(9) -0.1507(6) 0.2840(4)
C26 C -0.2169(8) -0.0843(6) 0.2550(4)
N9 N -0.1610(6) 0.0840(4) 0.3977(3)
N10 N -0.2394(6) 0.1532(4) 0.3587(3)
C27 C -0.3674(7) 0.1301(5) 0.3702(4)
C28 C -0.3737(8) 0.0453(6) 0.4160(4)
C29 C -0.2427(8) 0.0190(5) 0.4322(4)
N11 N -0.4507(6) 0.2829(4) 0.3082(3)
C30 C -0.5526(7) 0.3435(6) 0.2802(4)
C31 C -0.6866(8) 0.3205(7) 0.2848(4)
C32 C -0.7156(8) 0.2312(7) 0.3169(5)
C33 C -0.6124(8) 0.1682(6) 0.3442(4)
C34 C -0.4811(7) 0.1950(6) 0.3403(4)
N12 N -0.3951(6) 0.4681(4) 0.2568(3)
C35 C -0.3598(8) 0.5500(6) 0.2217(4)
C36 C -0.4363(9) 0.6036(6) 0.1714(4)
C37 C -0.5547(9) 0.5699(7) 0.1557(5)
C38 C -0.5959(8) 0.4858(6) 0.1915(5)
C39 C -0.5128(7) 0.4367(6) 0.2422(4)
N13 N 0.0917(5) 0.0112(4) 0.2823(3)
N14 N 0.0772(5) 0.0049(4) 0.3563(3)
C40 C 0.1349(7) -0.0849(5) 0.3797(4)
C41 C 0.1861(7) -0.1394(5) 0.3206(4)
C42 C 0.1572(6) -0.0750(5) 0.2606(3)
N15 N 0.1634(5) -0.0132(4) 0.1373(3)
C43 C 0.1902(7) -0.0928(5) 0.1827(3)
C44 C 0.2487(9) -0.1831(5) 0.1570(4)
C45 C 0.2774(11) -0.1939(6) 0.0847(4)
C46 C 0.2524(10) -0.1135(6) 0.0374(4)
C47 C 0.1969(7) -0.0250(5) 0.0660(3)
N16 N 0.0717(6) 0.1356(4) 0.0389(3)
C48 C 0.1757(8) 0.0676(5) 0.0191(4)
C49 C 0.2673(9) 0.0816(5) -0.0413(4)
C50 C 0.2490(10) 0.1679(6) -0.0830(4)
C51 C 0.1403(9) 0.2368(6) -0.0636(4)
C52 C 0.0553(9) 0.2200(6) -0.0031(4)
H1 H 0.1225(54) 0.4313(38) 0.0993(29)
H2 H 0.0834(51) 0.3517(40) 0.1710(28)
H3 H 0.0267(60) 0.0820(44) 0.4550(34)
H4 H 0.0132(65) 0.1655(50) 0.3775(35)
H5 H 0.0309(7) 0.7101(6) 0.2585(4)
H6 H 0.0926(7) 0.6195(5) 0.1434(4)
H7 H -0.1997(10) 0.6063(7) 0.5703(5)
H8 H -0.0705(10) 0.7266(7) 0.5153(5)
H9 H 0.0116(8) 0.7115(6) 0.3924(5)
H10 H -0.3331(9) 0.2292(6) 0.4870(4)
H11 H -0.5050(10) 0.2613(7) 0.5806(4)
H12 H -0.5328(11) 0.4133(8) 0.6332(5)
H13 H -0.3984(11) 0.5355(7) 0.5882(5)
H14 H -0.1220(7) 0.5085(5) 0.0376(3)
H15 H -0.3357(7) 0.4368(5) 0.0186(4)
H16 H -0.5264(7) 0.3449(6) 0.0608(4)
H17 H -0.6871(8) 0.2317(6) 0.0851(4)
H18 H -0.6294(7) 0.0858(6) 0.1526(4)
H19 H -0.5793(8) -0.0257(6) 0.2315(4)
H20 H -0.5016(9) -0.1731(7) 0.2940(4)
H21 H -0.2705(9) -0.2096(6) 0.3096(4)
H22 H -0.1224(8) -0.0989(6) 0.2625(4)
H23 H -0.4523(8) 0.0135(6) 0.4320(4)
H24 H -0.2123(8) -0.0359(5) 0.4627(4)
H25 H -0.7573(8) 0.3657(7) 0.2660(4)
H26 H -0.8064(8) 0.2136(7) 0.3201(5)
H27 H -0.6308(8) 0.1059(6) 0.3658(4)
H28 H -0.2764(8) 0.5730(6) 0.2320(4)
H29 H -0.4074(9) 0.6623(6) 0.1484(4)
H30 H -0.6086(9) 0.6041(7) 0.1202(5)
H31 H -0.6791(8) 0.4619(6) 0.1818(5)
H32 H 0.1392(7) -0.1067(5) 0.4290(4)
H33 H 0.2308(7) -0.2054(5) 0.3203(4)
H34 H 0.2689(9) -0.2376(5) 0.1899(4)
H35 H 0.3147(11) -0.2567(6) 0.0664(4)
H36 H 0.2732(10) -0.1196(6) -0.0135(4)
H37 H 0.3414(9) 0.0321(5) -0.0534(4)
H38 H 0.3103(10) 0.1794(6) -0.1242(4)
H39 H 0.1240(9) 0.2963(6) -0.0921(4)
H40 H -0.0184(9) 0.2694(6) 0.0101(4)
loop_
_geom_bond_atom_site_label_1
_geom_bond_atom_site_label_2
_geom_bond_site_symmetry_1
_geom_bond_site_symmetry_2
K1 N5 1_555 1_555
K2 N2 1_555 1_555
B1 N1 1_555 1_555
B2 N9 1_555 1_555
N1 N2 1_555 1_555
N2 C1 1_555 1_555
C1 C2 1_555 1_555
C2 C3 1_555 1_555
C3 N1 1_555 1_555
N3 K2 1_555 1_555
C4 N3 1_555 1_555
C5 C4 1_555 1_555
C6 C5 1_555 1_555
C7 C6 1_555 1_555
C8 C1 1_555 1_555
N4 K2 1_555 1_555
C9 N4 1_555 1_555
C10 C9 1_555 1_555
C11 C10 1_555 1_555
C12 C11 1_555 1_555
C13 C4 1_555 1_555
N5 N6 1_555 1_555
N6 B1 1_555 1_555
C14 N6 1_555 1_555
C15 C14 1_555 1_555
C16 N5 1_555 1_555
N7 K1 1_555 1_555
C17 C16 1_555 1_555
C18 C17 1_555 1_555
C19 C18 1_555 1_555
C20 C19 1_555 1_555
C21 N7 1_555 1_555
N8 K1 1_555 1_555
C22 C21 1_555 1_555
C23 C22 1_555 1_555
C24 C23 1_555 1_555
C25 C24 1_555 1_555
C26 N8 1_555 1_555
N9 N10 1_555 1_555
N10 K2 1_555 1_555
C27 N10 1_555 1_555
C28 C27 1_555 1_555
C29 N9 1_555 1_555
N11 K2 1_555 1_555
C30 N11 1_555 1_555
C31 C30 1_555 1_555
C32 C31 1_555 1_555
C33 C32 1_555 1_555
C34 C27 1_555 1_555
N12 K2 1_555 1_555
C35 N12 1_555 1_555
C36 C35 1_555 1_555
C37 C36 1_555 1_555
C38 C37 1_555 1_555
C39 C30 1_555 1_555
N13 K1 1_555 1_555
N14 B2 1_555 1_555
C40 N14 1_555 1_555
C41 C40 1_555 1_555
C42 N13 1_555 1_555
N15 K1 1_555 1_555
C43 C42 1_555 1_555
C44 C43 1_555 1_555
C45 C44 1_555 1_555
C46 C45 1_555 1_555
C47 N15 1_555 1_555
N16 K1 1_555 1_555
C48 C47 1_555 1_555
C49 C48 1_555 1_555
C50 C49 1_555 1_555
C51 C50 1_555 1_555
C52 N16 1_555 1_555
H1 B1 1_555 1_555
H2 B1 1_555 1_555
H3 B2 1_555 1_555
H4 B2 1_555 1_555
H5 C2 1_555 1_555
H6 C3 1_555 1_555
H7 C5 1_555 1_555
H8 C6 1_555 1_555
H9 C7 1_555 1_555
H10 C9 1_555 1_555
H11 C10 1_555 1_555
H12 C11 1_555 1_555
H13 C12 1_555 1_555
H14 C14 1_555 1_555
H15 C15 1_555 1_555
H16 C18 1_555 1_555
H17 C19 1_555 1_555
H18 C20 1_555 1_555
H19 C23 1_555 1_555
H20 C24 1_555 1_555
H21 C25 1_555 1_555
H22 C26 1_555 1_555
H23 C28 1_555 1_555
H24 C29 1_555 1_555
H25 C31 1_555 1_555
H26 C32 1_555 1_555
H27 C33 1_555 1_555
H28 C35 1_555 1_555
H29 C36 1_555 1_555
H30 C37 1_555 1_555
H31 C38 1_555 1_555
H32 C40 1_555 1_555
H33 C41 1_555 1_555
H34 C44 1_555 1_555
H35 C45 1_555 1_555
H36 C46 1_555 1_555
H37 C49 1_555 1_555
H38 C50 1_555 1_555
H39 C51 1_555 1_555
H40 C52 1_555 1_555
N3 C8 1_555 1_555
C7 C8 1_555 1_555
N4 C13 1_555 1_555
C12 C13 1_555 1_555
C15 C16 1_555 1_555
N7 C17 1_555 1_555
C20 C21 1_555 1_555
N8 C22 1_555 1_555
C25 C26 1_555 1_555
C28 C29 1_555 1_555
N11 C34 1_555 1_555
C33 C34 1_555 1_555
N12 C39 1_555 1_555
C38 C39 1_555 1_555
N13 N14 1_555 1_555
C41 C42 1_555 1_555
N15 C43 1_555 1_555
C46 C47 1_555 1_555
N16 C48 1_555 1_555
C51 C52 1_555 1_555

#END
