
#######################################################################
#
#                 Cambridge Crystallographic Data Centre
#                                CCDC 
#
#######################################################################
#
# If this CIF has been generated from an entry in the Cambridge 
# Structural Database, then it will include bibliographic, chemical, 
# crystal, experimental, refinement or atomic coordinate data resulting 
# from the CCDC's data processing and validation procedures.
#
#######################################################################

data_RIBNAT
_chemical_formula_moiety         'C41 H26 B1 N3,C1 H2 Cl2'
_chemical_name_systematic        
'3,6,9-Triphenyl-9c-(phenylethynyl)-9cH-8b\l^5^,9b,9d-triaza-9\L^5^-boratricyclopenta[cd,gh,kl]phenalene dichloromethane'
_symmetry_cell_setting           monoclinic
_symmetry_space_group_name_H-M   'P 21/n'
_symmetry_Int_Tables_number      14
_space_group_name_Hall           '-P 2yn'
loop_
_symmetry_equiv_pos_site_id
_symmetry_equiv_pos_as_xyz
1 x,y,z
2 1/2-x,1/2+y,1/2-z
3 -x,-y,-z
4 1/2+x,1/2-y,1/2+z
_cell_length_a                   13.7682(3)
_cell_length_b                   15.2869(3)
_cell_length_c                   16.1548(3)
_cell_angle_alpha                90
_cell_angle_beta                 106.9498(11)
_cell_angle_gamma                90
_cell_volume                     3252.45
_exptl_crystal_colour            orange
_exptl_crystal_description       prism
_cell_formula_units_Z            4
loop_
_atom_site_label
_atom_site_type_symbol
_atom_site_fract_x
_atom_site_fract_y
_atom_site_fract_z
Cl1 Cl 0.2162(2) 0.05031(12) 0.12592(18)
Cl2 Cl 0.29518(15) 0.20141(12) 0.06265(14)
C1 C 0.3009(8) 0.0870(7) 0.0732(7)
H1 H 0.2847 0.0599 0.0152
H2 H 0.3706 0.0693 0.1062
N1 N 0.86942(18) 0.96314(15) 0.18733(15)
N2 N 0.82437(18) 1.05370(15) 0.29002(15)
N3 N 0.85757(17) 0.90249(15) 0.31918(15)
C3 C 0.8745(2) 1.11976(19) 0.17275(18)
C4 C 0.8478(2) 1.16078(19) 0.38841(19)
H5 H 0.8514 1.1919 0.4401
C5 C 0.8581(2) 1.19610(19) 0.31287(19)
H6 H 0.8704 1.2559 0.3036
C6 C 0.9385(2) 1.00004(19) 0.08334(19)
H7 H 0.9575 1.0328 0.0406
C7 C 0.9264(2) 0.81625(19) 0.22447(19)
C8 C 0.9032(2) 1.19823(18) 0.13212(18)
C9 C 0.9353(2) 0.7828(2) 0.38600(19)
H8 H 0.9674 0.7273 0.3965
C10 C 0.8885(2) 1.03427(18) 0.14370(18)
C11 C 0.9910(2) 1.2005(2) 0.1063(2)
H9 H 1.0341 1.1507 0.1163
C12 C 0.6001(2) 0.92373(19) 0.1738(2)
C13 C 0.8649(2) 0.91341(19) 0.40472(18)
C14 C 0.9037(2) 0.82747(18) 0.30383(18)
C15 C 0.9748(2) 0.73398(19) 0.20739(19)
C16 C 0.8418(2) 0.99692(19) 0.43325(18)
C17 C 0.8471(2) 1.12707(18) 0.25077(18)
C18 C 0.9110(2) 0.83441(19) 0.44621(19)
H10 H 0.9227 0.8203 0.5056
C19 C 0.8431(2) 1.27399(19) 0.11856(19)
H11 H 0.7830 1.2752 0.1361
C20 C 0.8374(2) 1.01399(19) 0.52204(19)
C21 C 0.6894(2) 0.94307(18) 0.20454(19)
C22 C 0.9045(2) 0.9757(2) 0.5952(2)
H12 H 0.9572 0.9385 0.5888
C23 C 0.9714(3) 0.5768(2) 0.1928(2)
H13 H 0.9384 0.5225 0.1942
C24 C 1.0666(2) 0.7344(2) 0.1874(2)
H14 H 1.0997 0.7885 0.1853
C25 C 0.8305(2) 1.06868(19) 0.37498(18)
C26 C 1.0620(3) 0.5784(2) 0.1728(2)
H15 H 1.0913 0.5255 0.1605
C27 C 0.9276(2) 0.65357(19) 0.2107(2)
H16 H 0.8656 0.6515 0.2253
C28 C 0.4955(2) 0.89659(19) 0.1408(2)
C29 C 0.9538(2) 0.9126(2) 0.09833(19)
H17 H 0.9850 0.8740 0.0677
C30 C 0.9143(2) 0.88897(18) 0.16863(19)
C31 C 0.9562(3) 1.3467(2) 0.0527(2)
H18 H 0.9734 1.3966 0.0249
C32 C 0.4447(2) 0.8622(2) 0.1970(2)
H19 H 0.4786 0.8589 0.2572
C33 C 0.8949(3) 0.9915(2) 0.6770(2)
H20 H 0.9406 0.9646 0.7261
B1 B 0.8060(3) 0.9653(2) 0.2483(2)
C34 C 1.0175(3) 1.2729(2) 0.0663(2)
H21 H 1.0773 1.2721 0.0483
C35 C 0.4439(3) 0.9003(2) 0.0527(2)
H22 H 0.4773 0.9227 0.0134
C36 C 0.8192(3) 1.0462(2) 0.6877(2)
H23 H 0.8131 1.0570 0.7439
C37 C 1.1104(3) 0.6576(2) 0.1707(2)
H24 H 1.1735 0.6591 0.1579
C38 C 0.7610(2) 1.0688(2) 0.5342(2)
H25 H 0.7142 1.0955 0.4856
C39 C 0.8707(3) 1.3469(2) 0.0799(2)
H26 H 0.8297 1.3980 0.0721
C40 C 0.7533(3) 1.0845(2) 0.6166(2)
H27 H 0.7016 1.1223 0.6238
C41 C 0.3459(3) 0.8332(2) 0.1655(2)
H28 H 0.3124 0.8098 0.2044
C42 C 0.2950(3) 0.8376(2) 0.0782(2)
H29 H 0.2269 0.8176 0.0571
C43 C 0.3441(3) 0.8716(2) 0.0219(2)
H30 H 0.3095 0.8752 -0.0382
Cl3? Cl 0.32211(16) 0.12856(14) 0.00552(12)
Cl4? Cl 0.2193(3) 0.1015(5) 0.1365(3)
C2? C 0.3339(8) 0.1024(8) 0.1136(6)
H3? H 0.3658 0.0440 0.1268
H4? H 0.3794 0.1455 0.1517
loop_
_geom_bond_atom_site_label_1
_geom_bond_atom_site_label_2
_geom_bond_site_symmetry_1
_geom_bond_site_symmetry_2
Cl1 C1 1_555 1_555
Cl2 C1 1_555 1_555
C1 H1 1_555 1_555
H2 C1 1_555 1_555
N1 C10 1_555 1_555
N2 C17 1_555 1_555
N3 C13 1_555 1_555
C3 C8 1_555 1_555
C4 H5 1_555 1_555
C5 C4 1_555 1_555
H6 C5 1_555 1_555
C6 H7 1_555 1_555
C7 C14 1_555 1_555
C8 C11 1_555 1_555
C9 H8 1_555 1_555
C10 C3 1_555 1_555
C11 H9 1_555 1_555
C12 C21 1_555 1_555
C13 C16 1_555 1_555
C14 N3 1_555 1_555
C15 C7 1_555 1_555
C16 C20 1_555 1_555
C17 C3 1_555 1_555
C18 C9 1_555 1_555
H10 C18 1_555 1_555
C19 C8 1_555 1_555
H11 C19 1_555 1_555
C20 C22 1_555 1_555
C21 B1 1_555 1_555
C22 H12 1_555 1_555
C23 H13 1_555 1_555
C24 C15 1_555 1_555
H14 C24 1_555 1_555
C25 N2 1_555 1_555
C26 C23 1_555 1_555
H15 C26 1_555 1_555
C27 C15 1_555 1_555
H16 C27 1_555 1_555
C28 C12 1_555 1_555
C29 C6 1_555 1_555
H17 C29 1_555 1_555
C30 N1 1_555 1_555
C31 H18 1_555 1_555
C32 C28 1_555 1_555
H19 C32 1_555 1_555
C33 C22 1_555 1_555
H20 C33 1_555 1_555
B1 N1 1_555 1_555
C34 C11 1_555 1_555
H21 C34 1_555 1_555
C35 C28 1_555 1_555
H22 C35 1_555 1_555
C36 C33 1_555 1_555
H23 C36 1_555 1_555
C37 C24 1_555 1_555
H24 C37 1_555 1_555
C38 C20 1_555 1_555
H25 C38 1_555 1_555
C39 C19 1_555 1_555
H26 C39 1_555 1_555
C40 C36 1_555 1_555
H27 C40 1_555 1_555
C41 C32 1_555 1_555
H28 C41 1_555 1_555
C42 C41 1_555 1_555
H29 C42 1_555 1_555
C43 C35 1_555 1_555
H30 C43 1_555 1_555
N2 B1 1_555 1_555
N3 B1 1_555 1_555
C4 C25 1_555 1_555
C5 C17 1_555 1_555
C6 C10 1_555 1_555
C7 C30 1_555 1_555
C9 C14 1_555 1_555
C13 C18 1_555 1_555
C16 C25 1_555 1_555
C23 C27 1_555 1_555
C26 C37 1_555 1_555
C29 C30 1_555 1_555
C31 C34 1_555 1_555
C31 C39 1_555 1_555
C38 C40 1_555 1_555
C42 C43 1_555 1_555

#END
