
#######################################################################
#
#                 Cambridge Crystallographic Data Centre
#                                CCDC 
#
#######################################################################
#
# If this CIF has been generated from an entry in the Cambridge 
# Structural Database, then it will include bibliographic, chemical, 
# crystal, experimental, refinement or atomic coordinate data resulting 
# from the CCDC's data processing and validation procedures.
#
#######################################################################

data_RIBNEX
_chemical_formula_moiety         'C41 H28 B1 N3'
_chemical_name_systematic        
3,6,9-Triphenyl-9c-(2-phenylvinyl)-9cH-8b\l^5^,9b,9d-triaza-9\L^5^-boratricyclopenta[cd,gh,kl]phenalene
_symmetry_cell_setting           triclinic
_symmetry_space_group_name_H-M   'P -1'
_symmetry_Int_Tables_number      2
_space_group_name_Hall           '-P 1'
loop_
_symmetry_equiv_pos_site_id
_symmetry_equiv_pos_as_xyz
1 x,y,z
2 -x,-y,-z
_cell_length_a                   12.6432(2)
_cell_length_b                   15.6313(4)
_cell_length_c                   17.6443(3)
_cell_angle_alpha                85.9715(11)
_cell_angle_beta                 69.3300(16)
_cell_angle_gamma                67.5029(11)
_cell_volume                     3005.8
_exptl_crystal_colour            orange
_exptl_crystal_description       prism
_cell_formula_units_Z            4
loop_
_atom_site_label
_atom_site_type_symbol
_atom_site_fract_x
_atom_site_fract_y
_atom_site_fract_z
C1 C 0.8930(2) 0.43676(13) 0.43922(11)
C2 C 0.99823(19) 0.45338(13) 0.38616(11)
H1 H 0.9991 0.4942 0.3436
C3 C 1.0966(2) 0.40092(13) 0.40705(11)
H2 H 1.1771 0.4000 0.3824
C4 C 1.0577(2) 0.34692(14) 0.47302(11)
C5 C 1.1180(2) 0.26671(13) 0.50712(11)
C6 C 1.0480(2) 0.21458(14) 0.55257(11)
C7 C 1.0800(2) 0.11869(14) 0.56914(10)
H3 H 1.1601 0.0752 0.5626
C8 C 0.97611(19) 0.10037(14) 0.59587(10)
H4 H 0.9713 0.0422 0.6118
C9 C 0.8754(2) 0.18388(14) 0.59576(10)
C10 C 0.7537(2) 0.20452(13) 0.59940(10)
C11 C 0.69574(18) 0.28517(13) 0.56471(10)
C12 C 0.59775(18) 0.31207(13) 0.53365(11)
H5 H 0.5383 0.2853 0.5450
C13 C 0.60518(18) 0.38335(13) 0.48474(11)
H6 H 0.5514 0.4146 0.4564
C14 C 0.70823(19) 0.40269(13) 0.48361(11)
C15 C 0.77651(19) 0.45428(13) 0.43558(11)
C16 C 1.2514(2) 0.22673(13) 0.48854(12)
C17 C 1.3359(2) 0.22780(14) 0.41160(13)
H7 H 1.3068 0.2573 0.3699
C18 C 1.4606(2) 0.18676(15) 0.39541(15)
H8 H 1.5160 0.1891 0.3431
C19 C 1.5054(2) 0.14248(16) 0.45442(18)
H9 H 1.5912 0.1136 0.4428
C20 C 1.4237(2) 0.14064(15) 0.53107(15)
H10 H 1.4537 0.1102 0.5721
C21 C 1.2992(2) 0.18288(14) 0.54784(13)
H11 H 1.2446 0.1822 0.6009
C22 C 0.69237(19) 0.13879(14) 0.62988(11)
C23 C 0.7450(2) 0.04701(14) 0.59932(11)
H12 H 0.8233 0.0247 0.5576
C24 C 0.6847(2) -0.01295(14) 0.62895(13)
H13 H 0.7219 -0.0758 0.6074
C25 C 0.5706(2) 0.01865(15) 0.68971(12)
H14 H 0.5293 -0.0223 0.7102
C26 C 0.51743(19) 0.10933(15) 0.72019(12)
H15 H 0.4392 0.1312 0.7621
C27 C 0.57703(19) 0.16935(14) 0.69031(11)
H16 H 0.5385 0.2324 0.7114
C28 C 0.73820(18) 0.51352(13) 0.37297(11)
C29 C 0.69773(17) 0.48259(13) 0.32078(11)
H17 H 0.6891 0.4245 0.3278
C30 C 0.66973(18) 0.53452(14) 0.25895(11)
H18 H 0.6410 0.5125 0.2244
C31 C 0.68347(19) 0.61827(15) 0.24731(12)
H19 H 0.6658 0.6535 0.2040
C32 C 0.72301(19) 0.65120(14) 0.29869(12)
H20 H 0.7318 0.7092 0.2911
C33 C 0.74981(18) 0.59880(14) 0.36139(11)
H21 H 0.7764 0.6216 0.3968
C34 C 0.7933(2) 0.41984(13) 0.64421(11)
H22 H 0.8464 0.4195 0.6713
C35 C 0.6764(2) 0.47874(13) 0.67422(11)
H23 H 0.6232 0.4709 0.6509
C36 C 0.6197(2) 0.55398(14) 0.73865(11)
C37 C 0.6779(2) 0.56459(16) 0.78902(12)
H24 H 0.7562 0.5194 0.7845
C38 C 0.6244(2) 0.63909(18) 0.84507(14)
H25 H 0.6661 0.6451 0.8786
C39 C 0.5108(3) 0.70527(18) 0.85314(15)
H26 H 0.4749 0.7574 0.8914
C40 C 0.4493(2) 0.69562(17) 0.80549(14)
H27 H 0.3699 0.7401 0.8116
C41 C 0.5042(2) 0.62073(15) 0.74881(12)
H28 H 0.4617 0.6147 0.7158
B1 B 0.8488(2) 0.35017(16) 0.56560(13)
N1 N 0.93396(16) 0.37730(10) 0.49269(9)
N2 N 0.92387(16) 0.25063(11) 0.57313(9)
N3 N 0.75359(14) 0.34503(10) 0.53663(8)
C42 C 0.24934(19) 0.18748(13) 0.11635(11)
C43 C 0.33104(18) 0.10256(13) 0.13500(11)
H29 H 0.3096 0.0680 0.1803
C44 C 0.44401(19) 0.08000(13) 0.07703(11)
H30 H 0.5145 0.0266 0.0747
C45 C 0.43909(19) 0.15082(13) 0.01938(11)
C46 C 0.52663(19) 0.17536(13) -0.04434(11)
C47 C 0.4872(2) 0.26669(14) -0.07101(11)
C48 C 0.5492(2) 0.32743(15) -0.10906(11)
H31 H 0.6347 0.3090 -0.1375
C49 C 0.46371(19) 0.41633(15) -0.09714(11)
H32 H 0.4798 0.4702 -0.1156
C50 C 0.3455(2) 0.41417(14) -0.05192(11)
C51 C 0.2293(2) 0.48229(14) -0.00805(11)
C52 C 0.14218(19) 0.45308(13) 0.05146(12)
C53 C 0.03987(18) 0.49930(14) 0.12277(12)
H33 H -0.0008 0.5646 0.1348
C54 C 0.01071(18) 0.43294(13) 0.17083(11)
H34 H -0.0541 0.4443 0.2218
C55 C 0.09482(18) 0.34369(14) 0.13097(11)
C56 C 0.13072(19) 0.25273(13) 0.15885(11)
C57 C 0.65742(19) 0.11431(13) -0.07414(11)
C58 C 0.71734(19) 0.06778(13) -0.02161(12)
H35 H 0.6737 0.0778 0.0353
C59 C 0.8389(2) 0.00730(14) -0.05035(13)
H36 H 0.8770 -0.0244 -0.0132
C60 C 0.9047(2) -0.00718(14) -0.13231(14)
H37 H 0.9879 -0.0489 -0.1522
C61 C 0.8478(2) 0.04005(15) -0.18557(13)
H38 H 0.8929 0.0310 -0.2423
C62 C 0.7260(2) 0.10027(14) -0.15731(12)
H39 H 0.6887 0.1323 -0.1948
C63 C 0.2020(2) 0.58351(14) -0.01220(11)
C64 C 0.2717(2) 0.62294(15) 0.00618(14)
H40 H 0.3408 0.5847 0.0196
C65 C 0.2413(2) 0.71806(16) 0.00519(14)
H41 H 0.2896 0.7445 0.0182
C66 C 0.1418(2) 0.77457(15) -0.01438(12)
H42 H 0.1211 0.8397 -0.0147
C67 C 0.0728(2) 0.73583(14) -0.03348(11)
H43 H 0.0047 0.7741 -0.0479
C68 C 0.10242(18) 0.64111(14) -0.03175(11)
H44 H 0.0533 0.6151 -0.0443
C69 C 0.0489(2) 0.23130(13) 0.23498(11)
C70 C -0.0707(2) 0.24666(13) 0.24253(12)
H45 H -0.0999 0.2740 0.2003
C71 C -0.1476(2) 0.22258(13) 0.31072(12)
H46 H -0.2285 0.2328 0.3147
C72 C -0.1062(2) 0.18361(14) 0.37305(12)
H47 H -0.1580 0.1662 0.4195
C73 C 0.0108(2) 0.17029(13) 0.36705(12)
H48 H 0.0387 0.1449 0.4102
C74 C 0.08830(19) 0.19371(13) 0.29843(11)
H49 H 0.1688 0.1839 0.2950
C75 C 0.22307(17) 0.25049(14) -0.06877(11)
H50 H 0.1765 0.2969 -0.0948
C76 C 0.24714(17) 0.16268(14) -0.08810(11)
H51 H 0.2939 0.1176 -0.0612
C77 C 0.21140(19) 0.12536(15) -0.14549(11)
C78 C 0.1188(2) 0.18026(15) -0.17381(11)
H52 H 0.0757 0.2441 -0.1556
C79 C 0.0890(2) 0.14241(17) -0.22854(12)
H53 H 0.0259 0.1806 -0.2475
C80 C 0.1509(2) 0.04912(17) -0.25562(12)
H54 H 0.1306 0.0235 -0.2932
C81 C 0.2416(2) -0.00569(16) -0.22752(12)
H55 H 0.2838 -0.0697 -0.2455
C82 C 0.27194(19) 0.03142(15) -0.17354(11)
H56 H 0.3352 -0.0075 -0.1549
B2 B 0.2659(2) 0.28492(16) -0.00505(13)
N4 N 0.31869(15) 0.20939(10) 0.04435(9)
N5 N 0.36496(16) 0.32187(11) -0.04325(9)
N6 N 0.16604(14) 0.36047(10) 0.05710(9)
loop_
_geom_bond_atom_site_label_1
_geom_bond_atom_site_label_2
_geom_bond_site_symmetry_1
_geom_bond_site_symmetry_2
C1 C2 1_555 1_555
C2 H1 1_555 1_555
C3 C2 1_555 1_555
H2 C3 1_555 1_555
C4 C3 1_555 1_555
C5 C4 1_555 1_555
C6 C5 1_555 1_555
C7 C6 1_555 1_555
H3 C7 1_555 1_555
C8 C7 1_555 1_555
H4 C8 1_555 1_555
C9 C8 1_555 1_555
C10 C9 1_555 1_555
C11 C10 1_555 1_555
C12 C11 1_555 1_555
H5 C12 1_555 1_555
C13 C12 1_555 1_555
H6 C13 1_555 1_555
C14 C13 1_555 1_555
C15 C1 1_555 1_555
C16 C5 1_555 1_555
C17 C16 1_555 1_555
H7 C17 1_555 1_555
C18 C17 1_555 1_555
H8 C18 1_555 1_555
C19 C18 1_555 1_555
H9 C19 1_555 1_555
C20 C19 1_555 1_555
H10 C20 1_555 1_555
C21 C16 1_555 1_555
H11 C21 1_555 1_555
C22 C10 1_555 1_555
C23 C22 1_555 1_555
H12 C23 1_555 1_555
C24 C23 1_555 1_555
H13 C24 1_555 1_555
C25 C24 1_555 1_555
H14 C25 1_555 1_555
C26 C25 1_555 1_555
H15 C26 1_555 1_555
C27 C22 1_555 1_555
H16 C27 1_555 1_555
C28 C15 1_555 1_555
C29 C28 1_555 1_555
H17 C29 1_555 1_555
C30 C29 1_555 1_555
H18 C30 1_555 1_555
C31 C30 1_555 1_555
H19 C31 1_555 1_555
C32 C31 1_555 1_555
H20 C32 1_555 1_555
C33 C28 1_555 1_555
H21 C33 1_555 1_555
C34 H22 1_555 1_555
C35 C34 1_555 1_555
H23 C35 1_555 1_555
C36 C35 1_555 1_555
C37 C36 1_555 1_555
H24 C37 1_555 1_555
C38 C37 1_555 1_555
H25 C38 1_555 1_555
C39 C38 1_555 1_555
H26 C39 1_555 1_555
C40 C39 1_555 1_555
H27 C40 1_555 1_555
C41 C36 1_555 1_555
H28 C41 1_555 1_555
B1 C34 1_555 1_555
N1 C1 1_555 1_555
N2 C6 1_555 1_555
N3 C11 1_555 1_555
C42 C43 1_555 1_555
C43 H29 1_555 1_555
C44 C43 1_555 1_555
H30 C44 1_555 1_555
C45 C44 1_555 1_555
C46 C45 1_555 1_555
C47 C46 1_555 1_555
C48 C47 1_555 1_555
H31 C48 1_555 1_555
C49 C48 1_555 1_555
H32 C49 1_555 1_555
C50 C49 1_555 1_555
C51 C50 1_555 1_555
C52 C51 1_555 1_555
C53 C52 1_555 1_555
H33 C53 1_555 1_555
C54 C53 1_555 1_555
H34 C54 1_555 1_555
C55 C54 1_555 1_555
C56 C42 1_555 1_555
C57 C46 1_555 1_555
C58 C57 1_555 1_555
H35 C58 1_555 1_555
C59 C58 1_555 1_555
H36 C59 1_555 1_555
C60 C59 1_555 1_555
H37 C60 1_555 1_555
C61 C60 1_555 1_555
H38 C61 1_555 1_555
C62 C57 1_555 1_555
H39 C62 1_555 1_555
C63 C51 1_555 1_555
C64 C63 1_555 1_555
H40 C64 1_555 1_555
C65 C64 1_555 1_555
H41 C65 1_555 1_555
C66 C65 1_555 1_555
H42 C66 1_555 1_555
C67 C66 1_555 1_555
H43 C67 1_555 1_555
C68 C63 1_555 1_555
H44 C68 1_555 1_555
C69 C56 1_555 1_555
C70 C69 1_555 1_555
H45 C70 1_555 1_555
C71 C70 1_555 1_555
H46 C71 1_555 1_555
C72 C71 1_555 1_555
H47 C72 1_555 1_555
C73 C72 1_555 1_555
H48 C73 1_555 1_555
C74 C69 1_555 1_555
H49 C74 1_555 1_555
C75 H50 1_555 1_555
C76 C75 1_555 1_555
H51 C76 1_555 1_555
C77 C76 1_555 1_555
C78 C77 1_555 1_555
H52 C78 1_555 1_555
C79 C78 1_555 1_555
H53 C79 1_555 1_555
C80 C79 1_555 1_555
H54 C80 1_555 1_555
C81 C80 1_555 1_555
H55 C81 1_555 1_555
C82 C77 1_555 1_555
H56 C82 1_555 1_555
B2 C75 1_555 1_555
N4 C42 1_555 1_555
N5 C47 1_555 1_555
N6 C52 1_555 1_555
C4 N1 1_555 1_555
C9 N2 1_555 1_555
C14 C15 1_555 1_555
C14 N3 1_555 1_555
C20 C21 1_555 1_555
C26 C27 1_555 1_555
C32 C33 1_555 1_555
C40 C41 1_555 1_555
B1 N1 1_555 1_555
B1 N2 1_555 1_555
B1 N3 1_555 1_555
C45 N4 1_555 1_555
C50 N5 1_555 1_555
C55 C56 1_555 1_555
C55 N6 1_555 1_555
C61 C62 1_555 1_555
C67 C68 1_555 1_555
C73 C74 1_555 1_555
C81 C82 1_555 1_555
B2 N4 1_555 1_555
B2 N5 1_555 1_555
B2 N6 1_555 1_555

#END
