
#######################################################################
#
#                 Cambridge Crystallographic Data Centre
#                                CCDC 
#
#######################################################################
#
# If this CIF has been generated from an entry in the Cambridge 
# Structural Database, then it will include bibliographic, chemical, 
# crystal, experimental, refinement or atomic coordinate data resulting 
# from the CCDC's data processing and validation procedures.
#
#######################################################################

data_RIBQAV
_chemical_formula_moiety         'C15 H16 N4 O5 S1'
_chemical_name_systematic        
anti,anti-4-(1,3-Dimethyl-3-phenylureido)-3-nitrobenzenesulfonamide
_symmetry_cell_setting           orthorhombic
_symmetry_space_group_name_H-M   'P b c a'
_symmetry_Int_Tables_number      61
_space_group_name_Hall           '-P 2ac 2ab'
loop_
_symmetry_equiv_pos_site_id
_symmetry_equiv_pos_as_xyz
1 x,y,z
2 1/2-x,-y,1/2+z
3 -x,1/2+y,1/2-z
4 1/2+x,1/2-y,-z
5 -x,-y,-z
6 1/2+x,y,1/2-z
7 x,1/2-y,1/2+z
8 1/2-x,1/2+y,z
_cell_length_a                   13.760(6)
_cell_length_b                   14.269(6)
_cell_length_c                   16.488(7)
_cell_angle_alpha                90
_cell_angle_beta                 90
_cell_angle_gamma                90
_cell_volume                     3237.28
_exptl_crystal_colour            yellow
_exptl_crystal_description       rod
_cell_formula_units_Z            8
loop_
_atom_site_label
_atom_site_type_symbol
_atom_site_fract_x
_atom_site_fract_y
_atom_site_fract_z
S1 S 0.49431(2) 0.16136(2) 0.71556(2)
O1 O 0.08164(7) 0.01775(7) 0.39990(6)
N1 N 0.14541(7) 0.09642(7) 0.50728(6)
O2 O 0.46840(8) 0.22140(8) 0.78154(6)
O3 O 0.41381(8) 0.05192(9) 0.41652(6)
O4 O 0.28623(8) 0.13341(10) 0.38586(6)
O5 O 0.57612(7) 0.18272(9) 0.66545(7)
C1 C 0.29885(9) 0.16270(9) 0.68218(7)
H1 H 0.2903 0.1809 0.7359
C2 C 0.39210(9) 0.15239(9) 0.65075(7)
C3 C 0.32424(9) 0.11691(9) 0.52138(7)
C4 C 0.21884(9) 0.14589(9) 0.63346(8)
H2 H 0.1568 0.1520 0.6552
C5 C 0.13953(9) 0.01930(9) 0.45691(7)
C6 C 0.22941(9) 0.12000(8) 0.55255(7)
N2 N 0.20141(8) -0.05401(8) 0.47260(6)
C7 C 0.40558(9) 0.12983(9) 0.56959(8)
H3 H 0.4677 0.1236 0.5481
C8 C 0.16878(10) -0.08170(9) 0.61754(8)
H4 H 0.1032 -0.0692 0.6093
N3 N 0.51321(9) 0.05884(10) 0.75363(8)
C9 C 0.30056(11) -0.12325(10) 0.70724(9)
H5 H 0.3230 -0.1367 0.7591
C10 C 0.23361(9) -0.07896(9) 0.55288(8)
C11 C 0.36420(10) -0.12307(10) 0.64214(9)
H6 H 0.4293 -0.1378 0.6502
N4 N 0.34206(9) 0.09880(9) 0.43494(7)
C12 C 0.20292(11) -0.10319(10) 0.69452(9)
H7 H 0.1600 -0.1042 0.7381
C13 C 0.20957(13) -0.12520(13) 0.40887(10)
H8 H 0.1500 -0.1600 0.4056
H9 H 0.2621 -0.1671 0.4215
H10 H 0.2220 -0.0952 0.3578
C14 C 0.33124(10) -0.10097(9) 0.56505(9)
H11 H 0.3742 -0.1008 0.5215
C15 C 0.06681(10) 0.16546(10) 0.50193(10)
H12 H 0.0720 0.1991 0.4517
H13 H 0.0717 0.2086 0.5464
H14 H 0.0053 0.1339 0.5041
H15 H 0.4770(13) 0.0410(14) 0.7899(12)
H16 H 0.5308(16) 0.0177(17) 0.7168(14)
loop_
_geom_bond_atom_site_label_1
_geom_bond_atom_site_label_2
_geom_bond_site_symmetry_1
_geom_bond_site_symmetry_2
S1 O2 1_555 1_555
O1 C5 1_555 1_555
N1 C5 1_555 1_555
O3 N4 1_555 1_555
O4 N4 1_555 1_555
O5 S1 1_555 1_555
C1 H1 1_555 1_555
C2 S1 1_555 1_555
C3 C6 1_555 1_555
C4 C1 1_555 1_555
H2 C4 1_555 1_555
C5 N2 1_555 1_555
C6 N1 1_555 1_555
N2 C10 1_555 1_555
C7 C2 1_555 1_555
H3 C7 1_555 1_555
C8 H4 1_555 1_555
N3 S1 1_555 1_555
C9 H5 1_555 1_555
C10 C8 1_555 1_555
C11 C9 1_555 1_555
H6 C11 1_555 1_555
N4 C3 1_555 1_555
C12 C8 1_555 1_555
H7 C12 1_555 1_555
C13 N2 1_555 1_555
H8 C13 1_555 1_555
H9 C13 1_555 1_555
H10 C13 1_555 1_555
C14 C10 1_555 1_555
H11 C14 1_555 1_555
C15 N1 1_555 1_555
H12 C15 1_555 1_555
H13 C15 1_555 1_555
H14 C15 1_555 1_555
H15 N3 1_555 1_555
H16 N3 1_555 1_555
C1 C2 1_555 1_555
C3 C7 1_555 1_555
C4 C6 1_555 1_555
C9 C12 1_555 1_555
C11 C14 1_555 1_555

#END
