
#######################################################################
#
#                 Cambridge Crystallographic Data Centre
#                                CCDC 
#
#######################################################################
#
# If this CIF has been generated from an entry in the Cambridge 
# Structural Database, then it will include bibliographic, chemical, 
# crystal, experimental, refinement or atomic coordinate data resulting 
# from the CCDC's data processing and validation procedures.
#
#######################################################################

data_RIBSEC
_chemical_name_common            
4,7-Bis(7-bromo-2,3-dihydrothieno[3,4-b][1,4]dioxin-5-yl)-2-dodecyl-2H-benzo[1,2,3]triazole
_chemical_formula_moiety         'C30 H35 Br2 N3 O4 S2'
_chemical_name_systematic        
4,7-bis(7-bromo-2,3-dihydrothieno[3,4-b][1,4]dioxin-5-yl)-2-dodecyl-2H-benzotriazole
_symmetry_cell_setting           monoclinic
_symmetry_space_group_name_H-M   'P 21/c'
_symmetry_Int_Tables_number      14
_space_group_name_Hall           '-P 2ybc'
loop_
_symmetry_equiv_pos_site_id
_symmetry_equiv_pos_as_xyz
1 x,y,z
2 -x,1/2+y,1/2-z
3 -x,-y,-z
4 x,1/2-y,1/2+z
_cell_length_a                   15.9739(6)
_cell_length_b                   13.3946(4)
_cell_length_c                   15.1964(5)
_cell_angle_alpha                90
_cell_angle_beta                 108.7370(10)
_cell_angle_gamma                90
_cell_volume                     3079.16
_exptl_crystal_colour            yellow
_exptl_crystal_description       block
_cell_formula_units_Z            4
loop_
_atom_site_label
_atom_site_type_symbol
_atom_site_fract_x
_atom_site_fract_y
_atom_site_fract_z
Br1 Br 0.377037(16) 0.716323(18) 1.147110(18)
Br2 Br -0.499660(15) 1.016762(19) 0.745459(16)
C1 C 0.27316(15) 0.77700(16) 1.15061(16)
C2 C 0.26095(15) 0.81849(16) 1.22717(15)
C3 C 0.29905(18) 0.88827(19) 1.37469(17)
H1 H 0.3078 0.9584 1.3589
H2 H 0.3371 0.8757 1.4394
C4 C 0.20395(17) 0.8722(2) 1.36705(15)
H3 H 0.1944 0.8011 1.3788
H4 H 0.1893 0.9128 1.4146
C5 C 0.17469(15) 0.85672(16) 1.20795(14)
C6 C 0.12134(14) 0.84437(15) 1.11723(14)
C7 C 0.02969(14) 0.87450(15) 1.07519(14)
C8 C -0.01259(15) 0.94008(16) 1.11758(14)
H5 H 0.0206 0.9677 1.1759
C9 C -0.10197(15) 0.96804(16) 1.07917(14)
H6 H -0.1261 1.0129 1.1131
C10 C -0.15621(14) 0.93324(15) 0.99429(14)
C11 C -0.11370(14) 0.86789(15) 0.94811(14)
C12 C -0.02462(14) 0.83854(15) 0.98711(14)
C13 C -0.24807(14) 0.96297(16) 0.95432(14)
C14 C -0.30110(14) 1.01085(16) 0.99667(15)
C15 C -0.34882(15) 1.05647(19) 1.11981(16)
H7 H -0.3280 1.0877 1.1821
H8 H -0.3777 0.9924 1.1252
C16 C -0.41478(16) 1.12409(18) 1.05369(16)
H9 H -0.4635 1.1388 1.0788
H10 H -0.3858 1.1880 1.0481
C17 C -0.38773(14) 1.03189(16) 0.93604(15)
C18 C -0.39972(15) 0.99830(16) 0.84827(15)
C19 C -0.08608(16) 0.71921(17) 0.76996(15)
H11 H -0.1440 0.6852 0.7465
H12 H -0.0392 0.6678 0.7820
C20 C -0.07652(16) 0.79242(17) 0.69698(15)
H13 H -0.0906 0.7575 0.6365
H14 H -0.1199 0.8471 0.6898
C21 C 0.01587(15) 0.83707(17) 0.72156(15)
H15 H 0.0290 0.8739 0.7810
H16 H 0.0594 0.7822 0.7310
C22 C 0.02710(16) 0.90760(18) 0.64758(15)
H17 H 0.0093 0.8725 0.5870
H18 H -0.0129 0.9654 0.6418
C23 C 0.12065(16) 0.94509(18) 0.66877(15)
H19 H 0.1611 0.8871 0.6790
H20 H 0.1369 0.9843 0.7270
C24 C 0.13351(16) 1.00979(17) 0.59166(16)
H21 H 0.0947 1.0691 0.5831
H22 H 0.1150 0.9714 0.5329
C25 C 0.22873(17) 1.0446(2) 0.61117(16)
H23 H 0.2484 1.0788 0.6721
H24 H 0.2668 0.9853 0.6158
C26 C 0.24221(17) 1.11484(18) 0.53808(16)
H25 H 0.2223 1.0811 0.4769
H26 H 0.2049 1.1748 0.5339
C27 C 0.3375(2) 1.1471(3) 0.55904(18)
H27 H 0.3736 1.0875 0.5573
H28 H 0.3590 1.1743 0.6230
C28 C 0.3529(2) 1.2255(2) 0.4925(2)
H29 H 0.3095 1.2801 0.4859
H30 H 0.4126 1.2543 0.5208
C29 C 0.3455(2) 1.1874(2) 0.39770(18)
H31 H 0.2862 1.1577 0.3691
H32 H 0.3899 1.1342 0.4034
C30 C 0.3595(2) 1.2691(2) 0.3346(2)
H33 H 0.3176 1.3236 0.3311
H34 H 0.3500 1.2419 0.2722
H35 H 0.4201 1.2947 0.3596
N1 N -0.00407(13) 0.77626(13) 0.92677(12)
N2 N -0.07936(13) 0.77171(13) 0.85680(13)
N3 N -0.14725(12) 0.82388(14) 0.86404(12)
O1 O 0.32393(11) 0.82180(12) 1.31239(11)
O2 O 0.14680(11) 0.90011(12) 1.27556(10)
O3 O -0.27429(10) 1.03772(12) 1.08811(10)
O4 O -0.45064(10) 1.07903(12) 0.96290(11)
S1 S 0.18007(4) 0.78285(4) 1.05501(4)
S2 S -0.30718(4) 0.94071(4) 0.83794(4)
loop_
_geom_bond_atom_site_label_1
_geom_bond_atom_site_label_2
_geom_bond_site_symmetry_1
_geom_bond_site_symmetry_2
Br1 C1 1_555 1_555
Br2 C18 1_555 1_555
C1 C2 1_555 1_555
C2 C5 1_555 1_555
C3 H1 1_555 1_555
H2 C3 1_555 1_555
C4 C3 1_555 1_555
H3 C4 1_555 1_555
H4 C4 1_555 1_555
C5 C6 1_555 1_555
C6 C7 1_555 1_555
C7 C8 1_555 1_555
C8 H5 1_555 1_555
C9 C8 1_555 1_555
H6 C9 1_555 1_555
C10 C9 1_555 1_555
C11 C10 1_555 1_555
C12 C7 1_555 1_555
C13 C10 1_555 1_555
C14 C13 1_555 1_555
C15 H7 1_555 1_555
H8 C15 1_555 1_555
C16 C15 1_555 1_555
H9 C16 1_555 1_555
H10 C16 1_555 1_555
C17 C14 1_555 1_555
C18 C17 1_555 1_555
C19 H11 1_555 1_555
H12 C19 1_555 1_555
C20 C19 1_555 1_555
H13 C20 1_555 1_555
H14 C20 1_555 1_555
C21 C20 1_555 1_555
H15 C21 1_555 1_555
H16 C21 1_555 1_555
C22 C21 1_555 1_555
H17 C22 1_555 1_555
H18 C22 1_555 1_555
C23 C22 1_555 1_555
H19 C23 1_555 1_555
H20 C23 1_555 1_555
C24 C23 1_555 1_555
H21 C24 1_555 1_555
H22 C24 1_555 1_555
C25 C24 1_555 1_555
H23 C25 1_555 1_555
H24 C25 1_555 1_555
C26 C25 1_555 1_555
H25 C26 1_555 1_555
H26 C26 1_555 1_555
C27 C26 1_555 1_555
H27 C27 1_555 1_555
H28 C27 1_555 1_555
C28 C27 1_555 1_555
H29 C28 1_555 1_555
H30 C28 1_555 1_555
C29 C28 1_555 1_555
H31 C29 1_555 1_555
H32 C29 1_555 1_555
C30 C29 1_555 1_555
H33 C30 1_555 1_555
H34 C30 1_555 1_555
H35 C30 1_555 1_555
N1 C12 1_555 1_555
N2 C19 1_555 1_555
N3 C11 1_555 1_555
O1 C2 1_555 1_555
O2 C4 1_555 1_555
O3 C14 1_555 1_555
O4 C16 1_555 1_555
S1 C1 1_555 1_555
S2 C13 1_555 1_555
C3 O1 1_555 1_555
C5 O2 1_555 1_555
C6 S1 1_555 1_555
C11 C12 1_555 1_555
C15 O3 1_555 1_555
C17 O4 1_555 1_555
C18 S2 1_555 1_555
N1 N2 1_555 1_555
N2 N3 1_555 1_555

#END
