
#######################################################################
#
#                 Cambridge Crystallographic Data Centre
#                                CCDC 
#
#######################################################################
#
# If this CIF has been generated from an entry in the Cambridge 
# Structural Database, then it will include bibliographic, chemical, 
# crystal, experimental, refinement or atomic coordinate data resulting 
# from the CCDC's data processing and validation procedures.
#
#######################################################################

data_RIBTAA
_chemical_formula_moiety         'C6 H12 N2 O3 S1'
_chemical_name_systematic        N-carbamoylmethionine
_symmetry_cell_setting           monoclinic
_symmetry_space_group_name_H-M   'P 21/c'
_symmetry_Int_Tables_number      14
_space_group_name_Hall           '-P 2ybc'
loop_
_symmetry_equiv_pos_site_id
_symmetry_equiv_pos_as_xyz
1 x,y,z
2 -x,1/2+y,1/2-z
3 -x,-y,-z
4 x,1/2-y,1/2+z
_cell_length_a                   5.3039(10)
_cell_length_b                   9.5115(17)
_cell_length_c                   18.827(4)
_cell_angle_alpha                90
_cell_angle_beta                 96.720(5)
_cell_angle_gamma                90
_cell_volume                     943.26
_exptl_crystal_colour            colorless
_exptl_crystal_description       block
_cell_formula_units_Z            4
loop_
_atom_site_label
_atom_site_type_symbol
_atom_site_fract_x
_atom_site_fract_y
_atom_site_fract_z
C1 C 0.7898(4) 0.4070(2) 0.31149(12)
C2 C 0.5034(4) 0.1538(2) 0.35032(12)
C3 C 0.6564(4) 0.2533(2) 0.40249(12)
H1 H 0.540257 0.324370 0.417771
C4 C 0.7714(5) 0.1742(3) 0.46799(14)
H2 H 0.912775 0.117298 0.456471
H3 H 0.645722 0.112662 0.485098
C5 C 0.8642(14) 0.2841(9) 0.5264(3)
H4 H 0.962905 0.354657 0.504680
H5 H 0.978031 0.236948 0.562873
C6 C 0.546(2) 0.2404(14) 0.6299(6)
H6 H 0.507552 0.154309 0.604331
H7 H 0.400228 0.270239 0.651798
H8 H 0.686122 0.225544 0.666273
N1 N 0.8548(3) 0.32548(19) 0.36929(10)
H9 H 1.011520 0.316141 0.386357
N2 N 0.9767(4) 0.4555(3) 0.27685(12)
H10 H 0.942387 0.507283 0.239529
H11 H 1.131783 0.434979 0.291789
O1 O 0.5611(3) 0.43391(18) 0.29188(9)
O2 O 0.6403(3) 0.09237(19) 0.30629(10)
H12 H 0.548107 0.045707 0.277263
O3 O 0.2786(3) 0.13245(17) 0.35225(10)
S1 S 0.6275(5) 0.3725(3) 0.56944(14)
H13? H 0.885148 0.104694 0.451570
H14? H 0.634023 0.122591 0.485770
S2? S 0.715(4) 0.3640(8) 0.5677(3)
C7? C 0.918(3) 0.2472(17) 0.5327(7)
H15? H 1.062857 0.297073 0.518218
H16? H 0.978819 0.178088 0.568532
C8? C 0.582(5) 0.249(2) 0.6281(13)
H17? H 0.452391 0.192967 0.602374
H18? H 0.510379 0.304051 0.663621
H19? H 0.713112 0.189539 0.651086
loop_
_geom_bond_atom_site_label_1
_geom_bond_atom_site_label_2
_geom_bond_site_symmetry_1
_geom_bond_site_symmetry_2
C1 N1 1_555 1_555
C2 C3 1_555 1_555
C3 H1 1_555 1_555
C4 C3 1_555 1_555
H2 C4 1_555 1_555
H3 C4 1_555 1_555
C5 C4 1_555 1_555
H4 C5 1_555 1_555
H5 C5 1_555 1_555
C6 H6 1_555 1_555
H7 C6 1_555 1_555
H8 C6 1_555 1_555
N1 C3 1_555 1_555
H9 N1 1_555 1_555
N2 C1 1_555 1_555
H10 N2 1_555 1_555
H11 N2 1_555 1_555
O1 C1 1_555 1_555
O2 C2 1_555 1_555
H12 O2 1_555 1_555
O3 C2 1_555 1_555
S1 C5 1_555 1_555
C6 S1 1_555 1_555

#END
