
#######################################################################
#
#                 Cambridge Crystallographic Data Centre
#                                CCDC 
#
#######################################################################
#
# If this CIF has been generated from an entry in the Cambridge 
# Structural Database, then it will include bibliographic, chemical, 
# crystal, experimental, refinement or atomic coordinate data resulting 
# from the CCDC's data processing and validation procedures.
#
#######################################################################

data_RICBOV
_chemical_formula_moiety         'C21 H32 N2 O1 S2'
_chemical_name_systematic        
"Methyl N'-(17\b-hydroxyandrost-1-en-3-ylidene)hydrazinedithiocarboxylate"
_symmetry_cell_setting           orthorhombic
_symmetry_space_group_name_H-M   'P 21 21 21'
_symmetry_Int_Tables_number      19
_space_group_name_Hall           'P 2ac 2ab'
loop_
_symmetry_equiv_pos_site_id
_symmetry_equiv_pos_as_xyz
1 x,y,z
2 1/2-x,-y,1/2+z
3 1/2+x,1/2-y,-z
4 -x,1/2+y,1/2-z
_cell_length_a                   9.8693(10)
_cell_length_b                   11.7844(12)
_cell_length_c                   18.0029(18)
_cell_angle_alpha                90
_cell_angle_beta                 90
_cell_angle_gamma                90
_cell_volume                     2093.81
_exptl_crystal_colour            colorless
_exptl_crystal_description       prism
_chemical_melting_point          '533-535 K'
_cell_formula_units_Z            4
_exptl_crystal_recrystallization_method THF/acetone/water
loop_
_atom_site_label
_atom_site_type_symbol
_atom_site_fract_x
_atom_site_fract_y
_atom_site_fract_z
S1 S 0.36979(6) 0.34521(5) 0.13645(3)
S2 S 0.29285(9) 0.45143(5) 0.28267(3)
O1 O 0.4187(2) 1.33090(17) -0.25816(11)
H1 H 0.4326 1.2996 -0.2981
N1 N 0.29223(18) 0.55427(13) 0.07706(8)
N2 N 0.2901(2) 0.55291(13) 0.15390(8)
H2 H 0.2730 0.6145 0.1778
C1 C 0.2846(2) 0.75692(16) -0.06946(10)
H3 H 0.2786 0.7542 -0.1210
C2 C 0.2896(2) 0.65916(16) -0.03265(10)
H4 H 0.2874 0.5916 -0.0594
C3 C 0.29824(19) 0.65421(15) 0.04785(10)
C4 C 0.3145(3) 0.76390(16) 0.08918(11)
H5 H 0.3749 0.7524 0.1310
H6 H 0.2272 0.7877 0.1084
C5 C 0.3717(2) 0.85713(15) 0.03925(9)
H7 H 0.4616 0.8310 0.0236
C6 C 0.3943(3) 0.96829(17) 0.08030(11)
H8 H 0.3078 0.9995 0.0957
H9 H 0.4482 0.9547 0.1245
C7 C 0.4669(3) 1.05253(17) 0.03024(10)
H10 H 0.4783 1.1238 0.0564
H11 H 0.5562 1.0235 0.0181
C8 C 0.3879(2) 1.07306(14) -0.04093(10)
H12 H 0.3004 1.1068 -0.0278
C9 C 0.3609(2) 0.96040(14) -0.08270(9)
H13 H 0.4501 0.9283 -0.0942
C10 C 0.2880(2) 0.87193(14) -0.03279(10)
C11 C 0.2904(3) 0.98053(19) -0.15796(12)
H14 H 0.2869 0.9094 -0.1850
H15 H 0.1979 1.0048 -0.1490
C12 C 0.3618(3) 1.06974(19) -0.20622(11)
H16 H 0.4497 1.0412 -0.2215
H17 H 0.3085 1.0838 -0.2506
C13 C 0.3800(2) 1.18038(17) -0.16338(12)
C14 C 0.46090(19) 1.15381(15) -0.09331(10)
H18 H 0.5425 1.1138 -0.1099
C15 C 0.5090(3) 1.27034(18) -0.06513(13)
H19 H 0.4418 1.3046 -0.0328
H20 H 0.5939 1.2637 -0.0383
C16 C 0.5271(3) 1.34019(19) -0.13665(13)
H21 H 0.4744 1.4096 -0.1342
H22 H 0.6217 1.3599 -0.1437
C17 C 0.4774(2) 1.26540(19) -0.19998(12)
H23 H 0.5549 1.2235 -0.2202
C18 C 0.2466(3) 1.2396(2) -0.1466(2)
H24 H 0.1936 1.1932 -0.1138
H25 H 0.1977 1.2514 -0.1921
H26 H 0.2643 1.3114 -0.1234
C19 C 0.1412(2) 0.9082(2) -0.01695(16)
H27 H 0.1031 0.8597 0.0205
H28 H 0.0886 0.9023 -0.0617
H29 H 0.1401 0.9854 0.0002
C20 C 0.3143(2) 0.45701(16) 0.19161(11)
C21 C 0.3957(3) 0.23635(19) 0.20459(13)
H30 H 0.4361 0.1713 0.1814
H31 H 0.3101 0.2153 0.2259
H32 H 0.4546 0.2642 0.2429
loop_
_geom_bond_atom_site_label_1
_geom_bond_atom_site_label_2
_geom_bond_site_symmetry_1
_geom_bond_site_symmetry_2
S1 C20 1_555 1_555
S2 C20 1_555 1_555
O1 H1 1_555 1_555
N1 N2 1_555 1_555
N2 H2 1_555 1_555
C1 H3 1_555 1_555
C2 C1 1_555 1_555
H4 C2 1_555 1_555
C3 N1 1_555 1_555
C4 C3 1_555 1_555
H5 C4 1_555 1_555
H6 C4 1_555 1_555
C5 C4 1_555 1_555
H7 C5 1_555 1_555
C6 C5 1_555 1_555
H8 C6 1_555 1_555
H9 C6 1_555 1_555
C7 C6 1_555 1_555
H10 C7 1_555 1_555
H11 C7 1_555 1_555
C8 C7 1_555 1_555
H12 C8 1_555 1_555
C9 C8 1_555 1_555
H13 C9 1_555 1_555
C10 C1 1_555 1_555
C11 C9 1_555 1_555
H14 C11 1_555 1_555
H15 C11 1_555 1_555
C12 C11 1_555 1_555
H16 C12 1_555 1_555
H17 C12 1_555 1_555
C13 C12 1_555 1_555
C14 C8 1_555 1_555
H18 C14 1_555 1_555
C15 C14 1_555 1_555
H19 C15 1_555 1_555
H20 C15 1_555 1_555
C16 C15 1_555 1_555
H21 C16 1_555 1_555
H22 C16 1_555 1_555
C17 O1 1_555 1_555
H23 C17 1_555 1_555
C18 C13 1_555 1_555
H24 C18 1_555 1_555
H25 C18 1_555 1_555
H26 C18 1_555 1_555
C19 C10 1_555 1_555
H27 C19 1_555 1_555
H28 C19 1_555 1_555
H29 C19 1_555 1_555
C20 N2 1_555 1_555
C21 S1 1_555 1_555
H30 C21 1_555 1_555
H31 C21 1_555 1_555
H32 C21 1_555 1_555
C2 C3 1_555 1_555
C5 C10 1_555 1_555
C9 C10 1_555 1_555
C13 C14 1_555 1_555
C13 C17 1_555 1_555
C16 C17 1_555 1_555

#END
