
#######################################################################
#
#                 Cambridge Crystallographic Data Centre
#                                CCDC 
#
#######################################################################
#
# If this CIF has been generated from an entry in the Cambridge 
# Structural Database, then it will include bibliographic, chemical, 
# crystal, experimental, refinement or atomic coordinate data resulting 
# from the CCDC's data processing and validation procedures.
#
#######################################################################

data_RICCEN
_chemical_formula_moiety         'C51 H66 N6 O6,H2 O1'
_chemical_name_systematic        
"2,2',2''-((7,15,23-Tri-t-butyl-3,11,19-trioxatetracyclo[19.3.1.1^5,9^.1^13,17^]heptacosa-1(25),5(27),6,8,13(26),14,16,21,23-nonaene-25,26,27-triyl)tris(oxymethylene))tris(1-methyl-1H-imidazole) monohydrate"
_symmetry_cell_setting           monoclinic
_symmetry_space_group_name_H-M   'P 21/a'
_symmetry_Int_Tables_number      14
_space_group_name_Hall           '-P 2yab'
loop_
_symmetry_equiv_pos_site_id
_symmetry_equiv_pos_as_xyz
1 x,y,z
2 1/2-x,1/2+y,-z
3 -x,-y,-z
4 1/2+x,1/2-y,z
_cell_length_a                   20.7295(17)
_cell_length_b                   12.6213(4)
_cell_length_c                   37.718(3)
_cell_angle_alpha                90
_cell_angle_beta                 100.908(6)
_cell_angle_gamma                90
_cell_volume                     9689.99
_exptl_crystal_colour            colorless
_exptl_crystal_description       prism
_cell_formula_units_Z            8
loop_
_atom_site_label
_atom_site_type_symbol
_atom_site_fract_x
_atom_site_fract_y
_atom_site_fract_z
O1 O 0.40395(9) 0.90912(15) 0.39089(5)
C1 C 0.40303(13) 0.8106(2) 0.37381(7)
C2 C 0.39638(12) 0.7180(2) 0.39254(7)
C3 C 0.39977(12) 0.6216(2) 0.37496(7)
H1 H 0.3949 0.5593 0.3873
C4 C 0.41028(13) 0.6147(2) 0.33940(7)
C5 C 0.41683(13) 0.7098(2) 0.32173(8)
H2 H 0.4239 0.7077 0.2981
C6 C 0.41318(12) 0.8083(2) 0.33815(7)
C7 C 0.42155(13) 0.9098(2) 0.31840(8)
H3 H 0.4582 0.9490 0.3321
H4 H 0.4323 0.8925 0.2951
O2 O 0.36417(9) 0.97627(15) 0.31276(5)
C8 C 0.31293(13) 0.9407(2) 0.28409(7)
H5 H 0.3154 0.8645 0.2812
H6 H 0.3173 0.9740 0.2615
C9 C 0.33957(13) 0.9490(2) 0.39468(8)
H7 H 0.3161 0.8955 0.4057
H8 H 0.3139 0.9664 0.3711
C10 C 0.34934(13) 1.0447(2) 0.41766(8)
N1 N 0.36114(13) 1.1425(2) 0.40495(7)
C11 C 0.3676(2) 1.1713(3) 0.36837(9)
H9 H 0.4133 1.1738 0.3669
H10 H 0.3481 1.2396 0.3625
H11 H 0.3457 1.1195 0.3517
C12 C 0.36799(17) 1.2110(3) 0.43390(9)
H12 H 0.3768 1.2833 0.4338
C13 C 0.35924(16) 1.1517(3) 0.46237(9)
H13 H 0.3607 1.1779 0.4856
N2 N 0.34789(12) 1.0472(2) 0.45254(7)
C14 C 0.41421(14) 0.5068(2) 0.32106(8)
C15 C 0.44386(16) 0.5157(3) 0.28702(8)
H14 H 0.4452 0.4469 0.2764
H15 H 0.4876 0.5437 0.2932
H16 H 0.4173 0.5622 0.2701
C16 C 0.34494(15) 0.4591(3) 0.31123(9)
H17 H 0.3472 0.3916 0.2998
H18 H 0.3172 0.5058 0.2950
H19 H 0.3272 0.4500 0.3328
C17 C 0.45714(15) 0.4307(2) 0.34749(8)
H20 H 0.4593 0.3632 0.3361
H21 H 0.4383 0.4220 0.3687
H22 H 0.5006 0.4595 0.3542
O3 O 0.24428(9) 0.80243(15) 0.32322(5)
C18 C 0.21607(13) 0.9005(2) 0.31353(7)
C19 C 0.24841(13) 0.9709(2) 0.29415(7)
C20 C 0.22315(13) 1.0718(2) 0.28740(7)
H23 H 0.2447 1.1185 0.2745
C21 C 0.16643(13) 1.1068(2) 0.29914(7)
C22 C 0.13591(13) 1.0334(2) 0.31798(7)
H24 H 0.0979 1.0539 0.3259
C23 C 0.15937(13) 0.9303(2) 0.32565(7)
C24 C 0.12539(14) 0.8552(2) 0.34716(8)
H25 H 0.0894 0.8203 0.3313
H26 H 0.1561 0.8014 0.3583
O4 O 0.10102(9) 0.91210(15) 0.37428(5)
C25 C 0.07026(13) 0.8453(2) 0.39685(7)
H27 H 0.0328 0.8111 0.3819
H28 H 0.0536 0.8896 0.4141
C26 C 0.23057(14) 0.7210(2) 0.29585(7)
H29 H 0.2683 0.6743 0.2979
H30 H 0.2240 0.7538 0.2722
C27 C 0.17153(14) 0.6573(2) 0.29889(7)
N3 N 0.16702(11) 0.59703(19) 0.32808(6)
C28 C 0.21601(14) 0.5853(3) 0.36133(7)
H31 H 0.2548 0.6245 0.3592
H32 H 0.2269 0.5118 0.3652
H33 H 0.1984 0.6120 0.3814
C29 C 0.10610(14) 0.5506(3) 0.32103(8)
H34 H 0.0884 0.5052 0.3361
C30 C 0.07718(15) 0.5839(3) 0.28795(8)
H35 H 0.0353 0.5641 0.2763
N4 N 0.11782(12) 0.6513(2) 0.27355(6)
C31 C 0.14204(14) 1.2208(2) 0.29141(8)
C32 C 0.12675(16) 1.2396(3) 0.25041(8)
H36 H 0.1653 1.2255 0.2405
H37 H 0.1135 1.3119 0.2456
H38 H 0.0919 1.1933 0.2395
C33 C 0.07974(15) 1.2436(3) 0.30631(9)
H39 H 0.0457 1.1955 0.2957
H40 H 0.0658 1.3151 0.3006
H41 H 0.0887 1.2345 0.3320
C34 C 0.19546(15) 1.2983(3) 0.30867(9)
H42 H 0.2350 1.2847 0.2996
H43 H 0.2039 1.2892 0.3344
H44 H 0.1811 1.3695 0.3028
O5 O 0.20732(9) 0.87783(15) 0.43407(5)
C35 C 0.17911(13) 0.7783(2) 0.43466(7)
C36 C 0.11362(13) 0.7601(2) 0.41754(7)
C37 C 0.08809(14) 0.6592(2) 0.41963(7)
H45 H 0.0449 0.6467 0.4083
C38 C 0.12411(13) 0.5750(2) 0.43791(7)
C39 C 0.19002(13) 0.5950(2) 0.45235(7)
H46 H 0.2160 0.5400 0.4635
C40 C 0.21830(13) 0.6946(2) 0.45061(7)
C41 C 0.29159(13) 0.7095(2) 0.46139(7)
H47 H 0.3019 0.7812 0.4699
H48 H 0.3100 0.6602 0.4803
O6 O 0.31693(8) 0.68935(15) 0.42911(5)
C42 C 0.38464(12) 0.7184(2) 0.43071(7)
H49 H 0.4135 0.6680 0.4453
H50 H 0.3931 0.7882 0.4413
C43 C 0.20615(14) 0.9403(2) 0.46651(8)
H51 H 0.2433 0.9884 0.4705
H52 H 0.2104 0.8934 0.4872
C44 C 0.14431(15) 1.0024(2) 0.46344(8)
N5 N 0.12774(12) 1.0805(2) 0.43877(7)
C45 C 0.16774(16) 1.1199(3) 0.41375(8)
H53 H 0.2093 1.1439 0.4271
H54 H 0.1455 1.1778 0.4001
H55 H 0.1748 1.0641 0.3976
C46 C 0.06671(16) 1.1161(3) 0.44241(9)
H56 H 0.0422 1.1690 0.4289
C47 C 0.04943(17) 1.0593(3) 0.46940(10)
H57 H 0.0104 1.0678 0.4778
N6 N 0.09783(13) 0.9871(2) 0.48269(7)
C48 C 0.09120(14) 0.4677(2) 0.44125(7)
C49 C 0.03292(15) 0.4831(3) 0.46045(8)
H58 H 0.0123 0.4159 0.4627
H59 H 0.0017 0.5306 0.4467
H60 H 0.0483 0.5122 0.4840
C50 C 0.13859(15) 0.3886(2) 0.46326(8)
H61 H 0.1164 0.3225 0.4648
H62 H 0.1536 0.4161 0.4871
H63 H 0.1755 0.3776 0.4517
C51 C 0.06572(16) 0.4207(2) 0.40385(8)
H64 H 0.0454 0.3535 0.4064
H65 H 0.1017 0.4112 0.3914
H66 H 0.0341 0.4680 0.3903
O7 O 0.10574(9) 0.53421(16) 0.11089(5)
C52 C 0.10890(13) 0.6298(2) 0.12937(8)
C53 C 0.11330(12) 0.7254(2) 0.11138(7)
C54 C 0.11171(13) 0.8204(2) 0.13037(8)
H67 H 0.1150 0.8840 0.1184
C55 C 0.10543(13) 0.8235(2) 0.16670(7)
C56 C 0.10077(13) 0.7257(2) 0.18351(8)
H68 H 0.0967 0.7250 0.2076
C57 C 0.10196(13) 0.6292(2) 0.16562(7)
C58 C 0.09492(13) 0.5259(2) 0.18442(8)
H69 H 0.0858 0.5406 0.2082
H70 H 0.0576 0.4876 0.1710
O8 O 0.15215(9) 0.45963(15) 0.18808(5)
C59 C 0.20504(13) 0.4902(2) 0.21692(7)
H71 H 0.2018 0.4522 0.2389
H72 H 0.2029 0.5656 0.2216
C60 C 0.16848(13) 0.4935(2) 0.10508(8)
H73 H 0.1958 0.4736 0.1279
H74 H 0.1914 0.5471 0.0938
C61 C 0.15439(14) 0.3997(3) 0.08118(8)
N7 N 0.13995(17) 0.3025(2) 0.09292(7)
C62 C 0.1374(3) 0.2707(4) 0.13009(11)
H75 H 0.1367 0.3328 0.1447
H76 H 0.1753 0.2288 0.1396
H77 H 0.0983 0.2298 0.1302
C63 C 0.1277(2) 0.2372(3) 0.06303(10)
H78 H 0.1164 0.1658 0.0625
C64 C 0.13530(16) 0.2976(3) 0.03491(9)
H79 H 0.1301 0.2741 0.0112
N8 N 0.15195(13) 0.3998(2) 0.04618(7)
C65 C 0.10596(14) 0.9297(2) 0.18653(7)
C66 C 0.08214(18) 0.9182(3) 0.22235(8)
H80 H 0.1087 0.8668 0.2372
H81 H 0.0372 0.8953 0.2177
H82 H 0.0856 0.9852 0.2346
C67 C 0.17614(15) 0.9739(3) 0.19432(9)
H83 H 0.2049 0.9239 0.2086
H84 H 0.1768 1.0394 0.2073
H85 H 0.1906 0.9861 0.1720
C68 C 0.06242(16) 1.0117(3) 0.16362(8)
H86 H 0.0638 1.0771 0.1768
H87 H 0.0180 0.9861 0.1582
H88 H 0.0781 1.0234 0.1416
O9 O 0.26650(9) 0.63253(15) 0.17576(5)
C69 C 0.29758(13) 0.5355(2) 0.18432(7)
C70 C 0.26898(13) 0.4633(2) 0.20510(7)
C71 C 0.29745(14) 0.3645(2) 0.21179(7)
H89 H 0.2788 0.3165 0.2256
C72 C 0.35359(14) 0.3338(2) 0.19843(8)
C73 C 0.37975(13) 0.4080(2) 0.17802(7)
H90 H 0.4169 0.3896 0.1689
C74 C 0.35295(13) 0.5092(2) 0.17040(7)
C75 C 0.38156(14) 0.5878(2) 0.14743(7)
H91 H 0.3479 0.6377 0.1366
H92 H 0.4168 0.6273 0.1623
O10 O 0.40627(9) 0.53242(15) 0.11985(5)
C76 C 0.43500(13) 0.6015(2) 0.09702(7)
H93 H 0.4495 0.5589 0.0786
H94 H 0.4737 0.6340 0.1114
C77 C 0.28228(14) 0.7124(2) 0.20340(8)
H95 H 0.2850 0.6795 0.2269
H96 H 0.2471 0.7643 0.2004
C78 C 0.34524(14) 0.7674(2) 0.20232(7)
N9 N 0.35453(11) 0.83237(19) 0.17501(6)
C79 C 0.30595(14) 0.8598(2) 0.14285(7)
H97 H 0.2666 0.8196 0.1426
H98 H 0.3233 0.8437 0.1216
H99 H 0.2961 0.9341 0.1432
C80 C 0.41944(15) 0.8620(2) 0.18218(8)
H100 H 0.4408 0.9053 0.1681
C81 C 0.44597(16) 0.8151(3) 0.21400(8)
H101 H 0.4895 0.8223 0.2255
N10 N 0.39970(12) 0.7555(2) 0.22692(6)
C82 C 0.38113(14) 0.2219(2) 0.20610(8)
C83 C 0.39765(17) 0.2006(3) 0.24678(8)
H102 H 0.4147 0.1300 0.2510
H103 H 0.3586 0.2078 0.2568
H104 H 0.4300 0.2507 0.2581
C84 C 0.44354(16) 0.2039(3) 0.19039(10)
H105 H 0.4592 0.1329 0.1957
H106 H 0.4768 0.2534 0.2010
H107 H 0.4336 0.2140 0.1647
C85 C 0.32947(16) 0.1405(3) 0.18870(10)
H108 H 0.3467 0.0702 0.1934
H109 H 0.3190 0.1522 0.1631
H110 H 0.2905 0.1483 0.1987
O11 O 0.29605(9) 0.57331(15) 0.06327(5)
C86 C 0.32437(13) 0.6730(2) 0.06288(7)
C87 C 0.39072(13) 0.6887(2) 0.07853(7)
C88 C 0.41625(14) 0.7903(2) 0.07724(7)
H111 H 0.4601 0.8014 0.0876
C89 C 0.37960(13) 0.8767(2) 0.06122(7)
C90 C 0.31297(14) 0.8575(2) 0.04799(7)
H112 H 0.2864 0.9136 0.0381
C91 C 0.28485(13) 0.7581(2) 0.04896(7)
C92 C 0.21137(13) 0.7441(2) 0.03989(7)
H113 H 0.1916 0.7964 0.0223
H114 H 0.2001 0.6739 0.0302
O12 O 0.18943(8) 0.75865(15) 0.07343(5)
C93 C 0.12201(13) 0.7294(2) 0.07239(7)
H115 H 0.1128 0.6608 0.0610
H116 H 0.0927 0.7814 0.0590
C94 C 0.29368(14) 0.5134(2) 0.03001(8)
H117 H 0.2855 0.5616 0.0096
H118 H 0.2576 0.4633 0.0273
C95 C 0.35555(15) 0.4555(2) 0.02988(8)
N11 N 0.37606(13) 0.3736(2) 0.05303(7)
C96 C 0.34042(17) 0.3287(3) 0.07923(9)
H119 H 0.3281 0.3843 0.0940
H120 H 0.3680 0.2787 0.0942
H121 H 0.3017 0.2934 0.0668
C97 C 0.43618(17) 0.3424(3) 0.04639(10)
H122 H 0.4628 0.2889 0.0581
C98 C 0.44894(17) 0.4050(3) 0.01932(10)
H123 H 0.4865 0.4005 0.0093
N12 N 0.39847(13) 0.4761(2) 0.00875(7)
C99 C 0.41166(14) 0.9851(2) 0.05904(7)
C100 C 0.47115(15) 0.9743(3) 0.04059(8)
H124 H 0.4911 1.0425 0.0393
H125 H 0.4571 0.9468 0.0166
H126 H 0.5025 0.9267 0.0543
C101 C 0.36387(15) 1.0640(2) 0.03726(8)
H127 H 0.3854 1.1309 0.0364
H128 H 0.3265 1.0729 0.0486
H129 H 0.3497 1.0376 0.0132
C102 C 0.43477(15) 1.0293(2) 0.09731(8)
H130 H 0.4550 1.0972 0.0959
H131 H 0.4660 0.9815 0.1109
H132 H 0.3977 1.0368 0.1090
O13 O 0.34239(16) 0.4593(2) 0.43979(7)
H133 H 0.333(2) 0.5252(12) 0.4354(9)
H134 H 0.3600(19) 0.460(3) 0.4622(4)
O14 O 0.16917(19) 0.9906(2) 0.06859(8)
H135 H 0.177(2) 0.9249(12) 0.0737(10)
H136 H 0.149(2) 0.991(3) 0.0467(5)
loop_
_geom_bond_atom_site_label_1
_geom_bond_atom_site_label_2
_geom_bond_site_symmetry_1
_geom_bond_site_symmetry_2
O1 C1 1_555 1_555
C1 C2 1_555 1_555
C2 C3 1_555 1_555
C3 H1 1_555 1_555
C4 C3 1_555 1_555
C5 C4 1_555 1_555
H2 C5 1_555 1_555
C6 C1 1_555 1_555
C7 C6 1_555 1_555
H3 C7 1_555 1_555
H4 C7 1_555 1_555
O2 C7 1_555 1_555
C8 O2 1_555 1_555
H5 C8 1_555 1_555
H6 C8 1_555 1_555
C9 O1 1_555 1_555
H7 C9 1_555 1_555
H8 C9 1_555 1_555
C10 C9 1_555 1_555
N1 C10 1_555 1_555
C11 N1 1_555 1_555
H9 C11 1_555 1_555
H10 C11 1_555 1_555
H11 C11 1_555 1_555
C12 N1 1_555 1_555
H12 C12 1_555 1_555
C13 C12 1_555 1_555
H13 C13 1_555 1_555
N2 C10 1_555 1_555
C14 C4 1_555 1_555
C15 C14 1_555 1_555
H14 C15 1_555 1_555
H15 C15 1_555 1_555
H16 C15 1_555 1_555
C16 C14 1_555 1_555
H17 C16 1_555 1_555
H18 C16 1_555 1_555
H19 C16 1_555 1_555
C17 C14 1_555 1_555
H20 C17 1_555 1_555
H21 C17 1_555 1_555
H22 C17 1_555 1_555
O3 C18 1_555 1_555
C18 C19 1_555 1_555
C19 C8 1_555 1_555
C20 C19 1_555 1_555
H23 C20 1_555 1_555
C21 C20 1_555 1_555
C22 C21 1_555 1_555
H24 C22 1_555 1_555
C23 C18 1_555 1_555
C24 C23 1_555 1_555
H25 C24 1_555 1_555
H26 C24 1_555 1_555
O4 C24 1_555 1_555
C25 O4 1_555 1_555
H27 C25 1_555 1_555
H28 C25 1_555 1_555
C26 O3 1_555 1_555
H29 C26 1_555 1_555
H30 C26 1_555 1_555
C27 C26 1_555 1_555
N3 C27 1_555 1_555
C28 N3 1_555 1_555
H31 C28 1_555 1_555
H32 C28 1_555 1_555
H33 C28 1_555 1_555
C29 N3 1_555 1_555
H34 C29 1_555 1_555
C30 C29 1_555 1_555
H35 C30 1_555 1_555
N4 C27 1_555 1_555
C31 C21 1_555 1_555
C32 C31 1_555 1_555
H36 C32 1_555 1_555
H37 C32 1_555 1_555
H38 C32 1_555 1_555
C33 C31 1_555 1_555
H39 C33 1_555 1_555
H40 C33 1_555 1_555
H41 C33 1_555 1_555
C34 C31 1_555 1_555
H42 C34 1_555 1_555
H43 C34 1_555 1_555
H44 C34 1_555 1_555
O5 C35 1_555 1_555
C35 C36 1_555 1_555
C36 C25 1_555 1_555
C37 C36 1_555 1_555
H45 C37 1_555 1_555
C38 C37 1_555 1_555
C39 C38 1_555 1_555
H46 C39 1_555 1_555
C40 C35 1_555 1_555
C41 C40 1_555 1_555
H47 C41 1_555 1_555
H48 C41 1_555 1_555
O6 C41 1_555 1_555
C42 C2 1_555 1_555
H49 C42 1_555 1_555
H50 C42 1_555 1_555
C43 O5 1_555 1_555
H51 C43 1_555 1_555
H52 C43 1_555 1_555
C44 C43 1_555 1_555
N5 C44 1_555 1_555
C45 N5 1_555 1_555
H53 C45 1_555 1_555
H54 C45 1_555 1_555
H55 C45 1_555 1_555
C46 N5 1_555 1_555
H56 C46 1_555 1_555
C47 C46 1_555 1_555
H57 C47 1_555 1_555
N6 C44 1_555 1_555
C48 C38 1_555 1_555
C49 C48 1_555 1_555
H58 C49 1_555 1_555
H59 C49 1_555 1_555
H60 C49 1_555 1_555
C50 C48 1_555 1_555
H61 C50 1_555 1_555
H62 C50 1_555 1_555
H63 C50 1_555 1_555
C51 C48 1_555 1_555
H64 C51 1_555 1_555
H65 C51 1_555 1_555
H66 C51 1_555 1_555
O7 C52 1_555 1_555
C52 C53 1_555 1_555
C53 C54 1_555 1_555
C54 H67 1_555 1_555
C55 C54 1_555 1_555
C56 C55 1_555 1_555
H68 C56 1_555 1_555
C57 C52 1_555 1_555
C58 C57 1_555 1_555
H69 C58 1_555 1_555
H70 C58 1_555 1_555
O8 C58 1_555 1_555
C59 O8 1_555 1_555
H71 C59 1_555 1_555
H72 C59 1_555 1_555
C60 O7 1_555 1_555
H73 C60 1_555 1_555
H74 C60 1_555 1_555
C61 C60 1_555 1_555
N7 C61 1_555 1_555
C62 N7 1_555 1_555
H75 C62 1_555 1_555
H76 C62 1_555 1_555
H77 C62 1_555 1_555
C63 N7 1_555 1_555
H78 C63 1_555 1_555
C64 C63 1_555 1_555
H79 C64 1_555 1_555
N8 C61 1_555 1_555
C65 C55 1_555 1_555
C66 C65 1_555 1_555
H80 C66 1_555 1_555
H81 C66 1_555 1_555
H82 C66 1_555 1_555
C67 C65 1_555 1_555
H83 C67 1_555 1_555
H84 C67 1_555 1_555
H85 C67 1_555 1_555
C68 C65 1_555 1_555
H86 C68 1_555 1_555
H87 C68 1_555 1_555
H88 C68 1_555 1_555
O9 C69 1_555 1_555
C69 C70 1_555 1_555
C70 C59 1_555 1_555
C71 C70 1_555 1_555
H89 C71 1_555 1_555
C72 C71 1_555 1_555
C73 C72 1_555 1_555
H90 C73 1_555 1_555
C74 C69 1_555 1_555
C75 C74 1_555 1_555
H91 C75 1_555 1_555
H92 C75 1_555 1_555
O10 C75 1_555 1_555
C76 O10 1_555 1_555
H93 C76 1_555 1_555
H94 C76 1_555 1_555
C77 O9 1_555 1_555
H95 C77 1_555 1_555
H96 C77 1_555 1_555
C78 C77 1_555 1_555
N9 C78 1_555 1_555
C79 N9 1_555 1_555
H97 C79 1_555 1_555
H98 C79 1_555 1_555
H99 C79 1_555 1_555
C80 N9 1_555 1_555
H100 C80 1_555 1_555
C81 C80 1_555 1_555
H101 C81 1_555 1_555
N10 C78 1_555 1_555
C82 C72 1_555 1_555
C83 C82 1_555 1_555
H102 C83 1_555 1_555
H103 C83 1_555 1_555
H104 C83 1_555 1_555
C84 C82 1_555 1_555
H105 C84 1_555 1_555
H106 C84 1_555 1_555
H107 C84 1_555 1_555
C85 C82 1_555 1_555
H108 C85 1_555 1_555
H109 C85 1_555 1_555
H110 C85 1_555 1_555
O11 C86 1_555 1_555
C86 C87 1_555 1_555
C87 C76 1_555 1_555
C88 C87 1_555 1_555
H111 C88 1_555 1_555
C89 C88 1_555 1_555
C90 C89 1_555 1_555
H112 C90 1_555 1_555
C91 C86 1_555 1_555
C92 C91 1_555 1_555
H113 C92 1_555 1_555
H114 C92 1_555 1_555
O12 C92 1_555 1_555
C93 C53 1_555 1_555
H115 C93 1_555 1_555
H116 C93 1_555 1_555
C94 O11 1_555 1_555
H117 C94 1_555 1_555
H118 C94 1_555 1_555
C95 C94 1_555 1_555
N11 C95 1_555 1_555
C96 N11 1_555 1_555
H119 C96 1_555 1_555
H120 C96 1_555 1_555
H121 C96 1_555 1_555
C97 N11 1_555 1_555
H122 C97 1_555 1_555
C98 C97 1_555 1_555
H123 C98 1_555 1_555
N12 C95 1_555 1_555
C99 C89 1_555 1_555
C100 C99 1_555 1_555
H124 C100 1_555 1_555
H125 C100 1_555 1_555
H126 C100 1_555 1_555
C101 C99 1_555 1_555
H127 C101 1_555 1_555
H128 C101 1_555 1_555
H129 C101 1_555 1_555
C102 C99 1_555 1_555
H130 C102 1_555 1_555
H131 C102 1_555 1_555
H132 C102 1_555 1_555
O13 H133 1_555 1_555
H134 O13 1_555 1_555
O14 H135 1_555 1_555
H136 O14 1_555 1_555
C5 C6 1_555 1_555
C13 N2 1_555 1_555
C22 C23 1_555 1_555
C30 N4 1_555 1_555
C39 C40 1_555 1_555
O6 C42 1_555 1_555
C47 N6 1_555 1_555
C56 C57 1_555 1_555
C64 N8 1_555 1_555
C73 C74 1_555 1_555
C81 N10 1_555 1_555
C90 C91 1_555 1_555
O12 C93 1_555 1_555
C98 N12 1_555 1_555

#END
