
#######################################################################
#
#                 Cambridge Crystallographic Data Centre
#                                CCDC 
#
#######################################################################
#
# If this CIF has been generated from an entry in the Cambridge 
# Structural Database, then it will include bibliographic, chemical, 
# crystal, experimental, refinement or atomic coordinate data resulting 
# from the CCDC's data processing and validation procedures.
#
#######################################################################

data_RICDAJ
_chemical_formula_moiety         'C14 H16 N2 O4'
_chemical_name_systematic        
'Ethyl 4-(2-hydroxyphenyl)-6-methyl-2-oxo-1,2,3,4-tetrahydropyrimidine-5-carboxylate'
_symmetry_cell_setting           monoclinic
_symmetry_space_group_name_H-M   'C 2/c'
_symmetry_Int_Tables_number      15
_space_group_name_Hall           '-C 2yn'
loop_
_symmetry_equiv_pos_site_id
_symmetry_equiv_pos_as_xyz
1 x,y,z
2 1/2+x,1/2+y,z
3 -x,y,1/2-z
4 1/2-x,1/2+y,1/2-z
5 -x,-y,-z
6 1/2-x,1/2-y,-z
7 x,-y,1/2+z
8 1/2+x,1/2-y,1/2+z
_cell_length_a                   20.757(3)
_cell_length_b                   9.042(2)
_cell_length_c                   13.919(2)
_cell_angle_alpha                90
_cell_angle_beta                 92.313(3)
_cell_angle_gamma                90
_cell_volume                     2610.26
_exptl_crystal_colour            white
_exptl_crystal_description       prism
_chemical_melting_point          '490 K'
_cell_formula_units_Z            8
_exptl_crystal_recrystallization_method 'aqueous ethanol'
loop_
_atom_site_label
_atom_site_type_symbol
_atom_site_fract_x
_atom_site_fract_y
_atom_site_fract_z
N1 N 0.07708(11) 0.6935(2) 1.11033(16)
H1 H 0.0869 0.7010 1.1707
N2 N 0.04431(10) 0.8044(2) 0.96781(16)
H2 H 0.0207 0.8697 0.9385
O1 O 0.13181(11) 0.3171(2) 0.95946(14)
O2 O 0.07365(11) 0.3977(2) 0.83254(15)
O3 O 0.03723(10) 0.9281(2) 1.10907(14)
O4 O 0.06549(9) 0.8956(2) 0.76659(14)
H3 H 0.0664 0.9587 0.7243
C1 C 0.09483(14) 0.4163(3) 0.9137(2)
C2 C 0.08496(12) 0.5514(3) 0.96959(19)
C3 C 0.08734(13) 0.5583(3) 1.06554(19)
C4 C 0.05200(12) 0.8162(3) 1.0631(2)
C5 C 0.07301(12) 0.6888(3) 0.90913(18)
H4 H 0.0416 0.6632 0.8574
C6 C 0.13346(12) 0.7449(3) 0.86283(19)
C7 C 0.12675(14) 0.8508(3) 0.79024(19)
C8 C 0.17964(16) 0.9065(3) 0.7466(2)
H5 H 0.1745 0.9770 0.6982
C9 C 0.24035(17) 0.8579(4) 0.7747(3)
H6 H 0.2762 0.8952 0.7448
C10 C 0.24832(15) 0.7548(4) 0.8464(3)
H7 H 0.2895 0.7227 0.8652
C11 C 0.19527(13) 0.6986(3) 0.8904(2)
H8 H 0.2009 0.6290 0.9392
C12 C 0.09848(16) 0.4337(3) 1.1353(2)
H9 H 0.0859 0.3421 1.1051
H10 H 0.0733 0.4496 1.1907
H11 H 0.1434 0.4296 1.1546
C13 C 0.14261(17) 0.1766(3) 0.9126(2)
H12 H 0.1633 0.1919 0.8521
H13 H 0.1019 0.1261 0.8996
C14 C 0.1840(2) 0.0889(4) 0.9778(3)
H14 H 0.2229 0.1429 0.9934
H15 H 0.1946 -0.0027 0.9473
H16 H 0.1618 0.0688 1.0356
loop_
_geom_bond_atom_site_label_1
_geom_bond_atom_site_label_2
_geom_bond_site_symmetry_1
_geom_bond_site_symmetry_2
N1 H1 1_555 1_555
N2 H2 1_555 1_555
O1 C1 1_555 1_555
O2 C1 1_555 1_555
O3 C4 1_555 1_555
O4 H3 1_555 1_555
C1 C2 1_555 1_555
C2 C3 1_555 1_555
C3 N1 1_555 1_555
C4 N1 1_555 1_555
C5 N2 1_555 1_555
H4 C5 1_555 1_555
C6 C5 1_555 1_555
C7 O4 1_555 1_555
C8 C7 1_555 1_555
H5 C8 1_555 1_555
C9 C8 1_555 1_555
H6 C9 1_555 1_555
C10 C9 1_555 1_555
H7 C10 1_555 1_555
C11 C6 1_555 1_555
H8 C11 1_555 1_555
C12 C3 1_555 1_555
H9 C12 1_555 1_555
H10 C12 1_555 1_555
H11 C12 1_555 1_555
C13 O1 1_555 1_555
H12 C13 1_555 1_555
H13 C13 1_555 1_555
C14 C13 1_555 1_555
H14 C14 1_555 1_555
H15 C14 1_555 1_555
H16 C14 1_555 1_555
N2 C4 1_555 1_555
C2 C5 1_555 1_555
C6 C7 1_555 1_555
C10 C11 1_555 1_555

#END
