
#######################################################################
#
#                 Cambridge Crystallographic Data Centre
#                                CCDC 
#
#######################################################################
#
# If this CIF has been generated from an entry in the Cambridge 
# Structural Database, then it will include bibliographic, chemical, 
# crystal, experimental, refinement or atomic coordinate data resulting 
# from the CCDC's data processing and validation procedures.
#
#######################################################################

data_RICFEQ
_chemical_formula_moiety         'C20 H24 N3 1+,Br1 1-'
_chemical_name_systematic        
'1-Mesityl-3-(2-(methylamino)benzyl)-1H-imidazol-3-ium bromide'
_symmetry_cell_setting           monoclinic
_symmetry_space_group_name_H-M   'P 21/c'
_symmetry_Int_Tables_number      14
_space_group_name_Hall           '-P 2ybc'
loop_
_symmetry_equiv_pos_site_id
_symmetry_equiv_pos_as_xyz
1 x,y,z
2 -x,1/2+y,1/2-z
3 -x,-y,-z
4 x,1/2-y,1/2+z
_cell_length_a                   10.403(4)
_cell_length_b                   9.077(3)
_cell_length_c                   20.526(7)
_cell_angle_alpha                90
_cell_angle_beta                 96.017(5)
_cell_angle_gamma                90
_cell_volume                     1927.55
_exptl_crystal_colour            colorless
_exptl_crystal_description       Block
_cell_formula_units_Z            4
loop_
_atom_site_label
_atom_site_type_symbol
_atom_site_fract_x
_atom_site_fract_y
_atom_site_fract_z
Br1 Br 0.64135(9) 0.43728(8) 0.15089(4)
N1 N 0.6715(4) -0.0581(5) 0.1221(2)
N2 N 0.6409(4) 0.0280(5) 0.2177(2)
N3 N 0.8705(5) 0.2562(6) 0.2511(3)
H1 H 0.8058 0.2528 0.2214
C1 C 0.7461(9) -0.0684(9) -0.1495(4)
H2 H 0.6878 -0.1380 -0.1720
H3 H 0.8335 -0.0950 -0.1554
H4 H 0.7280 0.0283 -0.1670
C2 C 0.7291(7) -0.0693(7) -0.0783(3)
C3 C 0.6360(6) -0.1561(7) -0.0538(3)
H5 H 0.5869 -0.2185 -0.0825
C4 C 0.6123(5) -0.1547(6) 0.0111(3)
C5 C 0.6913(5) -0.0633(6) 0.0545(3)
C6 C 0.7878(5) 0.0254(7) 0.0315(3)
C7 C 0.8014(6) 0.0195(7) -0.0338(3)
H6 H 0.8638 0.0795 -0.0495
C8 C 0.5058(6) -0.2472(7) 0.0346(3)
H7 H 0.4632 -0.3016 -0.0016
H8 H 0.4443 -0.1844 0.0527
H9 H 0.5419 -0.3147 0.0676
C9 C 0.8728(6) 0.1268(8) 0.0765(3)
H10 H 0.9326 0.1771 0.0516
H11 H 0.9198 0.0698 0.1104
H12 H 0.8197 0.1977 0.0958
C10 C 0.6482(5) 0.0622(6) 0.1571(3)
H13 H 0.6386 0.1569 0.1400
C11 C 0.6786(5) -0.1774(7) 0.1661(3)
H14 H 0.6941 -0.2756 0.1566
C12 C 0.6586(5) -0.1211(7) 0.2240(3)
H15 H 0.6569 -0.1744 0.2626
C13 C 0.6259(5) 0.1316(7) 0.2722(3)
H16 H 0.5499 0.1049 0.2932
H17 H 0.6132 0.2306 0.2549
C14 C 0.7428(6) 0.1294(7) 0.3222(3)
C15 C 0.7305(8) 0.0570(8) 0.3812(4)
H18 H 0.6514 0.0159 0.3885
C16 C 0.8336(12) 0.0457(12) 0.4287(5)
H19 H 0.8261 -0.0013 0.4684
C17 C 0.9471(11) 0.1064(13) 0.4149(5)
H20 H 1.0179 0.0993 0.4464
C18 C 0.9638(7) 0.1784(10) 0.3567(4)
H21 H 1.0434 0.2188 0.3498
C19 C 0.8596(6) 0.1888(7) 0.3094(3)
C20 C 0.9873(7) 0.3343(11) 0.2368(4)
H22 H 0.9746 0.3740 0.1932
H23 H 1.0589 0.2672 0.2401
H24 H 1.0049 0.4131 0.2676
loop_
_geom_bond_atom_site_label_1
_geom_bond_atom_site_label_2
_geom_bond_site_symmetry_1
_geom_bond_site_symmetry_2
N1 C5 1_555 1_555
N2 C10 1_555 1_555
N3 H1 1_555 1_555
C1 H2 1_555 1_555
H3 C1 1_555 1_555
H4 C1 1_555 1_555
C2 C1 1_555 1_555
C3 C2 1_555 1_555
H5 C3 1_555 1_555
C4 C3 1_555 1_555
C5 C4 1_555 1_555
C6 C5 1_555 1_555
C7 C2 1_555 1_555
H6 C7 1_555 1_555
C8 C4 1_555 1_555
H7 C8 1_555 1_555
H8 C8 1_555 1_555
H9 C8 1_555 1_555
C9 C6 1_555 1_555
H10 C9 1_555 1_555
H11 C9 1_555 1_555
H12 C9 1_555 1_555
C10 N1 1_555 1_555
H13 C10 1_555 1_555
C11 N1 1_555 1_555
H14 C11 1_555 1_555
C12 N2 1_555 1_555
H15 C12 1_555 1_555
C13 N2 1_555 1_555
H16 C13 1_555 1_555
H17 C13 1_555 1_555
C14 C13 1_555 1_555
C15 C14 1_555 1_555
H18 C15 1_555 1_555
C16 C15 1_555 1_555
H19 C16 1_555 1_555
C17 C16 1_555 1_555
H20 C17 1_555 1_555
C18 C17 1_555 1_555
H21 C18 1_555 1_555
C19 N3 1_555 1_555
C20 N3 1_555 1_555
H22 C20 1_555 1_555
H23 C20 1_555 1_555
H24 C20 1_555 1_555
C6 C7 1_555 1_555
C11 C12 1_555 1_555
C14 C19 1_555 1_555
C18 C19 1_555 1_555

#END
