
#######################################################################
#
#                 Cambridge Crystallographic Data Centre
#                                CCDC 
#
#######################################################################
#
# If this CIF has been generated from an entry in the Cambridge 
# Structural Database, then it will include bibliographic, chemical, 
# crystal, experimental, refinement or atomic coordinate data resulting 
# from the CCDC's data processing and validation procedures.
#
#######################################################################

data_RICGUH
_chemical_formula_moiety         'C45 H60 N6,5(C6 H6)'
_chemical_name_systematic        
"1,3,6,8,11,13-Hexa-t-butyl-2,3,6,7,8,11,12,13-octahydro-1H-di-imidazo[4',5':10,11;4'',5'':6,7]triphenyleno[2,3-d]imidazole-2,7,12-triylidene benzene solvate"
_symmetry_cell_setting           monoclinic
_symmetry_space_group_name_H-M   'P 21/m'
_symmetry_Int_Tables_number      11
_space_group_name_Hall           '-P 2yb'
loop_
_symmetry_equiv_pos_site_id
_symmetry_equiv_pos_as_xyz
1 x,y,z
2 -x,1/2+y,-z
3 -x,-y,-z
4 x,1/2-y,z
_cell_length_a                   8.4291(3)
_cell_length_b                   33.6359(11)
_cell_length_c                   11.6153(3)
_cell_angle_alpha                90
_cell_angle_beta                 93.9449(10)
_cell_angle_gamma                90
_cell_volume                     3285.37
_exptl_crystal_colour            colorless
_exptl_crystal_description       plate
_cell_formula_units_Z            2
_chemical_properties_physical    'air- and moisture-sensitive'
_exptl_crystal_recrystallization_method benzene
loop_
_atom_site_label
_atom_site_type_symbol
_atom_site_fract_x
_atom_site_fract_y
_atom_site_fract_z
N1 N 2.23983(16) 0.13591(4) 0.76857(11)
N2 N 2.05050(16) 0.10457(4) 0.67092(12)
N3 N 1.36666(16) 0.21768(4) 0.36589(12)
C1 C 2.1913(2) 0.09852(5) 0.73531(15)
C2 C 1.2818(3) 0.2500 0.3235(2)
C3 C 2.13351(19) 0.16536(5) 0.72530(14)
C4 C 2.01083(19) 0.14501(5) 0.66311(14)
C5 C 1.88766(19) 0.16549(5) 0.60636(14)
H1 H 1.8047 0.1513 0.5647
C6 C 1.88406(19) 0.20718(5) 0.60976(14)
C7 C 2.00952(19) 0.22808(5) 0.67117(14)
C8 C 2.13324(19) 0.20648(5) 0.72939(14)
H2 H 2.2169 0.2202 0.7717
C9 C 1.50399(19) 0.22923(5) 0.43319(14)
C10 C 1.62586(19) 0.20845(5) 0.49108(14)
H3 H 1.6243 0.1802 0.4915
C11 C 1.75208(19) 0.22890(5) 0.54933(14)
C12 C 2.3887(2) 0.14350(5) 0.84326(14)
C13 C 2.5042(2) 0.16759(6) 0.77528(16)
H4 H 2.5305 0.1526 0.7069
H5 H 2.6015 0.1728 0.8241
H6 H 2.4546 0.1929 0.7513
C14 C 2.3452(2) 0.16524(6) 0.95259(15)
H7 H 2.2938 0.1906 0.9313
H8 H 2.4418 0.1703 1.0023
H9 H 2.2720 0.1488 0.9941
C15 C 2.4657(2) 0.10410(6) 0.87813(17)
H10 H 2.3927 0.0886 0.9224
H11 H 2.5643 0.1090 0.9257
H12 H 2.4898 0.0893 0.8088
C16 C 1.9523(2) 0.07147(5) 0.61699(15)
C17 C 1.7864(2) 0.07251(6) 0.66350(17)
H13 H 1.7966 0.0716 0.7480
H14 H 1.7248 0.0495 0.6341
H15 H 1.7319 0.0970 0.6382
C18 C 2.0301(2) 0.03185(5) 0.64960(17)
H16 H 2.1365 0.0309 0.6207
H17 H 1.9653 0.0101 0.6153
H18 H 2.0384 0.0290 0.7338
C19 C 1.9435(2) 0.07611(6) 0.48558(16)
H19 H 1.8986 0.1022 0.4644
H20 H 1.8756 0.0552 0.4501
H21 H 2.0505 0.0739 0.4582
C20 C 1.3183(2) 0.17582(5) 0.34155(15)
C21 C 1.2898(2) 0.15528(6) 0.45486(16)
H22 H 1.3881 0.1556 0.5051
H23 H 1.2569 0.1277 0.4397
H24 H 1.2060 0.1693 0.4929
C22 C 1.4495(2) 0.15527(6) 0.27904(16)
H25 H 1.4734 0.1709 0.2112
H26 H 1.4139 0.1287 0.2545
H27 H 1.5454 0.1530 0.3313
C23 C 1.1658(2) 0.17504(6) 0.26394(19)
H28 H 1.0807 0.1881 0.3032
H29 H 1.1359 0.1474 0.2467
H30 H 1.1825 0.1891 0.1919
N1C N 2.23983(16) 0.36409(4) 0.76857(11)
N2C N 2.05050(16) 0.39543(4) 0.67092(12)
N3C N 1.36666(16) 0.28232(4) 0.36589(12)
C1C C 2.1913(2) 0.40148(5) 0.73531(15)
C3C C 2.13351(19) 0.33464(5) 0.72530(14)
C4C C 2.01083(19) 0.35499(5) 0.66311(14)
C5C C 1.88766(19) 0.33451(5) 0.60636(14)
H1C H 1.8047 0.3487 0.5647
C6C C 1.88406(19) 0.29282(5) 0.60976(14)
C7C C 2.00952(19) 0.27192(5) 0.67117(14)
C8C C 2.13324(19) 0.29352(5) 0.72939(14)
H2C H 2.2169 0.2798 0.7717
C9C C 1.50399(19) 0.27077(5) 0.43319(14)
C10C C 1.62586(19) 0.29155(5) 0.49108(14)
H3C H 1.6243 0.3198 0.4915
C11C C 1.75208(19) 0.27110(5) 0.54933(14)
C12C C 2.3887(2) 0.35650(5) 0.84326(14)
C13C C 2.5042(2) 0.33241(6) 0.77528(16)
H4C H 2.5305 0.3474 0.7069
H5C H 2.6015 0.3272 0.8241
H6C H 2.4546 0.3071 0.7513
C14C C 2.3452(2) 0.33476(6) 0.95259(15)
H7C H 2.2938 0.3094 0.9313
H8C H 2.4418 0.3297 1.0023
H9C H 2.2720 0.3512 0.9941
C15C C 2.4657(2) 0.39590(6) 0.87813(17)
H10C H 2.3927 0.4114 0.9224
H11C H 2.5643 0.3910 0.9257
H12C H 2.4898 0.4107 0.8088
C16C C 1.9523(2) 0.42853(5) 0.61699(15)
C17C C 1.7864(2) 0.42749(6) 0.66350(17)
H13C H 1.7966 0.4284 0.7480
H14C H 1.7248 0.4505 0.6341
H15C H 1.7319 0.4030 0.6382
C18C C 2.0301(2) 0.46815(5) 0.64960(17)
H16C H 2.1365 0.4691 0.6207
H17C H 1.9653 0.4899 0.6153
H18C H 2.0384 0.4710 0.7338
C19C C 1.9435(2) 0.42389(6) 0.48558(16)
H19C H 1.8986 0.3978 0.4644
H20C H 1.8756 0.4448 0.4501
H21C H 2.0505 0.4261 0.4582
C20C C 1.3183(2) 0.32418(5) 0.34155(15)
C21C C 1.2898(2) 0.34472(6) 0.45486(16)
H22C H 1.3881 0.3444 0.5051
H23C H 1.2569 0.3723 0.4397
H24C H 1.2060 0.3307 0.4929
C22C C 1.4495(2) 0.34473(6) 0.27904(16)
H25C H 1.4734 0.3291 0.2112
H26C H 1.4139 0.3713 0.2545
H27C H 1.5454 0.3470 0.3313
C23C C 1.1658(2) 0.32496(6) 0.26394(19)
H28C H 1.0807 0.3119 0.3032
H29C H 1.1359 0.3526 0.2467
H30C H 1.1825 0.3109 0.1919
C24 C 0.9187(5) 0.2500 0.1251(4)
H31 H 1.0164 0.2500 0.1710
C25 C 0.9170(4) 0.2500 0.0068(4)
H32 H 1.0147 0.2500 -0.0294
C26 C 0.7772(4) 0.2500 -0.0592(3)
H33 H 0.7777 0.2500 -0.1410
C27 C 0.6378(4) 0.2500 -0.0084(3)
H34 H 0.5405 0.2500 -0.0548
C28 C 0.6356(4) 0.2500 0.1080(3)
H35 H 0.5368 0.2500 0.1427
C29 C 0.7754(6) 0.2500 0.1762(3)
H36 H 0.7736 0.2500 0.2579
C30 C 0.2891(3) 0.04759(7) 0.2618(2)
H37 H 0.2033 0.0657 0.2659
C31 C 0.3954(3) 0.04249(7) 0.3557(2)
H38 H 0.3835 0.0571 0.4245
C32 C 0.5196(3) 0.01599(6) 0.3495(2)
H39 H 0.5937 0.0125 0.4141
C33 C 0.5367(2) -0.00542(6) 0.25014(18)
H40 H 0.6221 -0.0237 0.2463
C34 C 0.4301(3) -0.00034(6) 0.1568(2)
H41 H 0.4412 -0.0153 0.0885
C35 C 0.3061(3) 0.02659(7) 0.1620(2)
H42 H 0.2334 0.0305 0.0968
C36 C -0.1983(5) 0.12751(19) 0.1327(6)
H43 H -0.2357 0.1491 0.1763
C37 C -0.2321(6) 0.0893(2) 0.1627(4)
H44 H -0.2935 0.0843 0.2267
C38 C -0.1765(6) 0.05777(18) 0.0993(5)
H45 H -0.1974 0.0312 0.1215
C39 C -0.0904(7) 0.0651(2) 0.0038(6)
H46 H -0.0555 0.0437 -0.0414
C40 C -0.0560(9) 0.1039(2) -0.0247(6)
H47 H 0.0052 0.1093 -0.0886
C41 C -0.1110(7) 0.13478(18) 0.0402(5)
H48 H -0.0878 0.1614 0.0201
C42? C -0.162(2) 0.1366(7) 0.081(2)
H49? H -0.1972 0.1634 0.0842
C43? C -0.199(3) 0.1096(8) 0.159(2)
H50? H -0.2437 0.1188 0.2271
C44? C -0.178(3) 0.0714(7) 0.148(2)
H51? H -0.2200 0.0527 0.1989
C45? C -0.090(3) 0.0598(8) 0.0569(18)
H52? H -0.0593 0.0328 0.0474
C46? C -0.051(4) 0.0867(9) -0.013(3)
H53? H -0.0020 0.0778 -0.0798
C47? C -0.071(3) 0.1238(7) -0.004(2)
H54? H -0.0253 0.1419 -0.0552
loop_
_geom_bond_atom_site_label_1
_geom_bond_atom_site_label_2
_geom_bond_site_symmetry_1
_geom_bond_site_symmetry_2
N1 C1 1_555 1_555
N2 C1 1_555 1_555
N3 C2 1_555 1_555
C2 N3C 1_555 1_555
C3 N1 1_555 1_555
C4 N2 1_555 1_555
C5 C4 1_555 1_555
H1 C5 1_555 1_555
C6 C5 1_555 1_555
C7 C6 1_555 1_555
C8 C3 1_555 1_555
H2 C8 1_555 1_555
C9 N3 1_555 1_555
C10 C9 1_555 1_555
H3 C10 1_555 1_555
C11 C6 1_555 1_555
C12 N1 1_555 1_555
C13 C12 1_555 1_555
H4 C13 1_555 1_555
H5 C13 1_555 1_555
H6 C13 1_555 1_555
C14 C12 1_555 1_555
H7 C14 1_555 1_555
H8 C14 1_555 1_555
H9 C14 1_555 1_555
C15 C12 1_555 1_555
H10 C15 1_555 1_555
H11 C15 1_555 1_555
H12 C15 1_555 1_555
C16 N2 1_555 1_555
C17 C16 1_555 1_555
H13 C17 1_555 1_555
H14 C17 1_555 1_555
H15 C17 1_555 1_555
C18 C16 1_555 1_555
H16 C18 1_555 1_555
H17 C18 1_555 1_555
H18 C18 1_555 1_555
C19 C16 1_555 1_555
H19 C19 1_555 1_555
H20 C19 1_555 1_555
H21 C19 1_555 1_555
C20 N3 1_555 1_555
C21 C20 1_555 1_555
H22 C21 1_555 1_555
H23 C21 1_555 1_555
H24 C21 1_555 1_555
C22 C20 1_555 1_555
H25 C22 1_555 1_555
H26 C22 1_555 1_555
H27 C22 1_555 1_555
C23 C20 1_555 1_555
H28 C23 1_555 1_555
H29 C23 1_555 1_555
H30 C23 1_555 1_555
C24 H31 1_555 1_555
C25 C24 1_555 1_555
H32 C25 1_555 1_555
C26 C25 1_555 1_555
H33 C26 1_555 1_555
C27 C26 1_555 1_555
H34 C27 1_555 1_555
C28 C27 1_555 1_555
H35 C28 1_555 1_555
C29 C24 1_555 1_555
H36 C29 1_555 1_555
C30 H37 1_555 1_555
C31 C30 1_555 1_555
H38 C31 1_555 1_555
C32 C31 1_555 1_555
H39 C32 1_555 1_555
C33 C32 1_555 1_555
H40 C33 1_555 1_555
C34 C33 1_555 1_555
H41 C34 1_555 1_555
C35 C30 1_555 1_555
H42 C35 1_555 1_555
C36 H43 1_555 1_555
C37 C36 1_555 1_555
H44 C37 1_555 1_555
C38 C37 1_555 1_555
H45 C38 1_555 1_555
C39 C38 1_555 1_555
H46 C39 1_555 1_555
C40 C39 1_555 1_555
H47 C40 1_555 1_555
C41 C36 1_555 1_555
H48 C41 1_555 1_555
N1C C1C 1_555 1_555
N2C C1C 1_555 1_555
N3C C9C 1_555 1_555
C3C N1C 1_555 1_555
C4C N2C 1_555 1_555
C5C C4C 1_555 1_555
H1C C5C 1_555 1_555
C6C C5C 1_555 1_555
C7C C7 1_555 1_555
C8C C3C 1_555 1_555
H2C C8C 1_555 1_555
C9C C9 1_555 1_555
C10C C9C 1_555 1_555
H3C C10C 1_555 1_555
C11C C11 1_555 1_555
C12C N1C 1_555 1_555
C13C C12C 1_555 1_555
H4C C13C 1_555 1_555
H5C C13C 1_555 1_555
H6C C13C 1_555 1_555
C14C C12C 1_555 1_555
H7C C14C 1_555 1_555
H8C C14C 1_555 1_555
H9C C14C 1_555 1_555
C15C C12C 1_555 1_555
H10C C15C 1_555 1_555
H11C C15C 1_555 1_555
H12C C15C 1_555 1_555
C16C N2C 1_555 1_555
C17C C16C 1_555 1_555
H13C C17C 1_555 1_555
H14C C17C 1_555 1_555
H15C C17C 1_555 1_555
C18C C16C 1_555 1_555
H16C C18C 1_555 1_555
H17C C18C 1_555 1_555
H18C C18C 1_555 1_555
C19C C16C 1_555 1_555
H19C C19C 1_555 1_555
H20C C19C 1_555 1_555
H21C C19C 1_555 1_555
C20C N3C 1_555 1_555
C21C C20C 1_555 1_555
H22C C21C 1_555 1_555
H23C C21C 1_555 1_555
H24C C21C 1_555 1_555
C22C C20C 1_555 1_555
H25C C22C 1_555 1_555
H26C C22C 1_555 1_555
H27C C22C 1_555 1_555
C23C C20C 1_555 1_555
H28C C23C 1_555 1_555
H29C C23C 1_555 1_555
H30C C23C 1_555 1_555
C3 C4 1_555 1_555
C7 C8 1_555 1_555
C10 C11 1_555 1_555
C28 C29 1_555 1_555
C34 C35 1_555 1_555
C40 C41 1_555 1_555
C3C C4C 1_555 1_555
C6C C7C 1_555 1_555
C6C C11C 1_555 1_555
C7C C8C 1_555 1_555
C10C C11C 1_555 1_555

#END
