
#######################################################################
#
#                 Cambridge Crystallographic Data Centre
#                                CCDC 
#
#######################################################################
#
# If this CIF has been generated from an entry in the Cambridge 
# Structural Database, then it will include bibliographic, chemical, 
# crystal, experimental, refinement or atomic coordinate data resulting 
# from the CCDC's data processing and validation procedures.
#
#######################################################################

data_RICHAO
_chemical_formula_moiety         
'C75 H75 N6 3+,3(B1 F4 1-),H2 O1,1.5(C1 H2 Cl2)'
_chemical_name_systematic        
"1,3,6,8,11,13-Hexamesityl-8,13-dihydro-1H-diimidazo[4',5':10,11;4'',5'':6,7]triphenyleno[2,3-d]imidazole-3,6,11-tri-ium tris(tetrafluoroborate) dichloromethane solvate monohydrate"
_symmetry_cell_setting           monoclinic
_symmetry_space_group_name_H-M   'P 21/c'
_symmetry_Int_Tables_number      14
_space_group_name_Hall           '-P 2ybc'
loop_
_symmetry_equiv_pos_site_id
_symmetry_equiv_pos_as_xyz
1 x,y,z
2 -x,1/2+y,1/2-z
3 -x,-y,-z
4 x,1/2-y,1/2+z
_cell_length_a                   18.1690(3)
_cell_length_b                   35.2816(6)
_cell_length_c                   23.4175(4)
_cell_angle_alpha                90
_cell_angle_beta                 98.6191(6)
_cell_angle_gamma                90
_cell_volume                     14841.8
_exptl_crystal_colour            brown
_exptl_crystal_description       block
_cell_formula_units_Z            8
_chemical_properties_physical    hygroscopic
_exptl_crystal_recrystallization_method 'diethyl ether/dichloromethane'
loop_
_atom_site_label
_atom_site_type_symbol
_atom_site_fract_x
_atom_site_fract_y
_atom_site_fract_z
N1 N -0.0421(3) 0.67249(14) 0.1564(2)
N2 N 0.0326(3) 0.65871(14) 0.2364(2)
N3 N 0.2575(3) 0.81484(13) 0.3998(2)
N4 N 0.2471(3) 0.87278(14) 0.3666(2)
N5 N -0.0488(3) 0.91878(14) 0.1103(2)
N6 N -0.1337(3) 0.87580(15) 0.0823(2)
C1 C -0.0117(4) 0.64492(19) 0.1905(3)
H1 H -0.0204 0.6187 0.1832
C2 C 0.2823(3) 0.85001(17) 0.4069(3)
H2 H 0.3203 0.8579 0.4369
C3 C -0.1130(4) 0.91146(18) 0.0766(3)
H3 H -0.1403 0.9294 0.0516
C4 C -0.0166(4) 0.70703(16) 0.1815(3)
C5 C 0.0310(3) 0.69838(16) 0.2319(3)
C6 C 0.0705(3) 0.72612(16) 0.2649(3)
H4 H 0.1043 0.7198 0.2986
C7 C 0.0595(3) 0.76363(16) 0.2475(2)
C8 C 0.1050(3) 0.79418(16) 0.2775(2)
C9 C 0.1573(3) 0.78554(16) 0.3261(3)
H5 H 0.1621 0.7605 0.3411
C10 C 0.2012(3) 0.81432(16) 0.3513(2)
C11 C 0.1949(3) 0.85123(17) 0.3305(3)
C12 C 0.1450(3) 0.86053(16) 0.2826(3)
H6 H 0.1416 0.8858 0.2684
C13 C 0.0992(3) 0.83205(16) 0.2551(3)
C14 C 0.0410(3) 0.84136(16) 0.2057(3)
C15 C 0.0333(3) 0.87802(16) 0.1836(3)
H7 H 0.0680 0.8973 0.1975
C16 C -0.0259(3) 0.88561(16) 0.1410(3)
C17 C -0.0791(3) 0.85811(17) 0.1221(3)
C18 C -0.0721(3) 0.82143(17) 0.1418(3)
H8 H -0.1087 0.8029 0.1288
C19 C -0.0094(3) 0.81233(16) 0.1815(3)
C20 C 0.0053(3) 0.77254(16) 0.1982(3)
C21 C -0.0306(3) 0.74360(16) 0.1640(3)
H9 H -0.0637 0.7492 0.1296
C22 C -0.0889(4) 0.66702(17) 0.1010(3)
C23 C -0.0538(4) 0.6638(2) 0.0527(3)
C24 C -0.1009(5) 0.6567(2) 0.0005(3)
H10 H -0.0798 0.6543 -0.0341
C25 C -0.1768(4) 0.65305(19) -0.0020(3)
C26 C -0.2074(4) 0.6568(2) 0.0462(4)
H11 H -0.2598 0.6543 0.0440
C27 C -0.1643(4) 0.6643(2) 0.1000(3)
C28 C 0.0284(5) 0.6679(3) 0.0550(4)
H12 H 0.0410 0.6665 0.0158
H13 H 0.0538 0.6474 0.0785
H14 H 0.0445 0.6924 0.0723
C29 C -0.2226(5) 0.6437(2) -0.0604(3)
H15 H -0.2757 0.6459 -0.0576
H16 H -0.2116 0.6177 -0.0714
H17 H -0.2100 0.6614 -0.0896
C30 C -0.1993(5) 0.6679(3) 0.1538(4)
H18 H -0.1801 0.6479 0.1811
H19 H -0.2535 0.6653 0.1441
H20 H -0.1873 0.6927 0.1715
C31 C 0.0744(4) 0.63555(17) 0.2805(3)
C32 C 0.1324(5) 0.6142(2) 0.2655(3)
C33 C 0.1689(5) 0.5900(2) 0.3081(4)
H21 H 0.2082 0.5744 0.2990
C34 C 0.1498(5) 0.5881(2) 0.3617(4)
C35 C 0.0922(5) 0.6107(2) 0.3758(4)
H22 H 0.0794 0.6096 0.4136
C36 C 0.0533(4) 0.63467(19) 0.3350(3)
C37 C 0.1542(5) 0.6153(3) 0.2062(4)
H23 H 0.2038 0.6041 0.2073
H24 H 0.1551 0.6416 0.1931
H25 H 0.1180 0.6009 0.1794
C38 C 0.1890(6) 0.5598(3) 0.4058(4)
H26 H 0.1621 0.5356 0.4023
H27 H 0.1898 0.5699 0.4449
H28 H 0.2401 0.5557 0.3985
C39 C -0.0111(5) 0.6583(2) 0.3498(4)
H29 H 0.0006 0.6853 0.3466
H30 H -0.0191 0.6527 0.3894
H31 H -0.0563 0.6523 0.3230
C40 C 0.2877(3) 0.78307(16) 0.4353(3)
C41 C 0.3548(4) 0.76790(19) 0.4253(3)
C42 C 0.3870(4) 0.74029(19) 0.4641(3)
H32 H 0.4332 0.7294 0.4586
C43 C 0.3536(4) 0.72857(18) 0.5097(3)
C44 C 0.2847(4) 0.74295(19) 0.5158(3)
H33 H 0.2602 0.7338 0.5461
C45 C 0.2499(3) 0.77083(17) 0.4784(3)
C46 C 0.3936(4) 0.7808(2) 0.3766(3)
H34 H 0.4183 0.8051 0.3867
H35 H 0.3570 0.7839 0.3416
H36 H 0.4307 0.7619 0.3697
C47 C 0.3935(4) 0.7009(2) 0.5534(3)
H37 H 0.4162 0.6807 0.5331
H38 H 0.3578 0.6898 0.5760
H39 H 0.4324 0.7143 0.5792
C48 C 0.1747(4) 0.7864(2) 0.4864(3)
H40 H 0.1780 0.8140 0.4911
H41 H 0.1590 0.7750 0.5208
H42 H 0.1382 0.7803 0.4524
C49 C 0.2656(3) 0.91257(17) 0.3600(3)
C50 C 0.3301(5) 0.9202(2) 0.3395(4)
C51 C 0.3497(5) 0.9587(3) 0.3379(4)
H43 H 0.3957 0.9653 0.3258
C52 C 0.3051(5) 0.9868(2) 0.3530(3)
C53 C 0.2412(4) 0.9774(2) 0.3719(4)
H44 H 0.2097 0.9971 0.3818
C54 C 0.2193(4) 0.9398(2) 0.3773(3)
C55 C 0.3764(6) 0.8905(3) 0.3193(6)
H45 H 0.3502 0.8662 0.3183
H46 H 0.4236 0.8887 0.3456
H47 H 0.3864 0.8968 0.2804
C56 C 0.3292(6) 1.0288(2) 0.3499(4)
H48 H 0.3661 1.0348 0.3837
H49 H 0.2857 1.0453 0.3495
H50 H 0.3511 1.0329 0.3146
C57 C 0.1503(5) 0.9299(3) 0.4025(6)
H51 H 0.1151 0.9168 0.3734
H52 H 0.1273 0.9532 0.4144
H53 H 0.1636 0.9134 0.4361
C58 C -0.0110(4) 0.95483(17) 0.1123(3)
C59 C 0.0373(4) 0.9609(2) 0.0737(4)
C60 C 0.0700(4) 0.9971(2) 0.0737(5)
H54 H 0.1032 1.0023 0.0471
C61 C 0.0556(5) 1.0246(2) 0.1105(5)
C62 C 0.0064(5) 1.0171(2) 0.1494(4)
H55 H -0.0037 1.0365 0.1753
C63 C -0.0281(5) 0.9822(2) 0.1511(3)
C64 C 0.0556(7) 0.9317(3) 0.0322(5)
H56 H 0.0674 0.9077 0.0527
H57 H 0.0987 0.9400 0.0148
H58 H 0.0128 0.9281 0.0019
C65 C 0.0915(5) 1.0639(2) 0.1092(6)
H59 H 0.1458 1.0613 0.1153
H60 H 0.0763 1.0797 0.1398
H61 H 0.0752 1.0758 0.0716
C66 C -0.0839(7) 0.9745(3) 0.1917(4)
H62 H -0.1330 0.9698 0.1692
H63 H -0.0867 0.9965 0.2168
H64 H -0.0682 0.9522 0.2155
C67 C -0.2066(3) 0.86069(17) 0.0580(3)
C68 C -0.2184(3) 0.84842(18) 0.0012(3)
C69 C -0.2895(4) 0.8357(2) -0.0205(3)
H65 H -0.2995 0.8271 -0.0594
C70 C -0.3453(4) 0.8352(2) 0.0125(4)
C71 C -0.3309(4) 0.8480(2) 0.0687(4)
H66 H -0.3700 0.8481 0.0915
C72 C -0.2612(4) 0.8609(2) 0.0929(3)
C73 C -0.1603(4) 0.8501(2) -0.0373(3)
H67 H -0.1618 0.8749 -0.0562
H68 H -0.1695 0.8302 -0.0667
H69 H -0.1111 0.8463 -0.0143
C74 C -0.4230(4) 0.8215(3) -0.0130(5)
H70 H -0.4286 0.8225 -0.0552
H71 H -0.4605 0.8378 0.0006
H72 H -0.4297 0.7953 -0.0007
C75 C -0.2480(5) 0.8763(3) 0.1537(4)
H73 H -0.2959 0.8797 0.1675
H74 H -0.2225 0.9008 0.1540
H75 H -0.2172 0.8585 0.1790
N7 N 0.6791(3) 0.77884(16) 0.2903(2)
N8 N 0.5962(3) 0.76685(15) 0.2148(2)
N9 N 0.3593(5) 0.92691(19) 0.0708(3)
N10 N 0.3370(4) 0.97363(19) 0.1296(3)
N11 N 0.6290(3) 1.02085(15) 0.3770(2)
N12 N 0.7266(3) 0.98369(15) 0.3980(2)
C76 C 0.6465(4) 0.7522(2) 0.2552(3)
H76 H 0.6579 0.7259 0.2588
C77 C 0.3170(6) 0.9576(2) 0.0780(5)
H77 H 0.2778 0.9666 0.0498
C78 C 0.6962(4) 1.01708(19) 0.4080(3)
H78 H 0.7195 1.0357 0.4339
C79 C 0.5955(4) 0.80635(17) 0.2233(3)
C80 C 0.5507(4) 0.83410(17) 0.1962(3)
H79 H 0.5151 0.8285 0.1633
C81 C 0.5588(3) 0.87098(17) 0.2181(3)
C82 C 0.5077(4) 0.90073(17) 0.1936(3)
C83 C 0.4636(4) 0.8960(2) 0.1391(3)
H80 H 0.4708 0.8750 0.1151
C84 C 0.4099(5) 0.9226(2) 0.1221(3)
C85 C 0.3972(4) 0.9526(2) 0.1575(3)
C86 C 0.4423(4) 0.95963(19) 0.2095(3)
H81 H 0.4342 0.9810 0.2325
C87 C 0.5003(3) 0.93414(17) 0.2269(3)
C88 C 0.5569(3) 0.94287(17) 0.2764(3)
C89 C 0.5547(3) 0.97792(18) 0.3043(3)
H82 H 0.5134 0.9945 0.2953
C90 C 0.6147(3) 0.98746(17) 0.3453(3)
C91 C 0.6763(3) 0.96376(17) 0.3582(3)
C92 C 0.6782(3) 0.92862(17) 0.3331(3)
H83 H 0.7197 0.9123 0.3430
C93 C 0.6174(3) 0.91731(17) 0.2925(2)
C94 C 0.6131(3) 0.87897(16) 0.2675(2)
C95 C 0.6577(3) 0.84999(17) 0.2939(3)
H84 H 0.6940 0.8550 0.3267
C96 C 0.6482(3) 0.81399(18) 0.2717(3)
C97 C 0.7241(6) 0.7706(3) 0.3486(4)
C98 C 0.7972(6) 0.7647(4) 0.3486(5)
C99 C 0.8407(8) 0.7569(6) 0.4035(7)
H85 H 0.8930 0.7533 0.4065
C100 C 0.8071(8) 0.7546(4) 0.4511(6)
C101 C 0.7343(8) 0.7606(4) 0.4500(5)
H86 H 0.7132 0.7600 0.4847
C102 C 0.6888(7) 0.7680(5) 0.3965(4)
C103 C 0.8314(8) 0.7676(5) 0.2935(7)
H87 H 0.7922 0.7728 0.2609
H88 H 0.8560 0.7436 0.2868
H89 H 0.8680 0.7882 0.2972
C104 C 0.8553(11) 0.7452(4) 0.5101(6)
H90 H 0.8236 0.7446 0.5405
H91 H 0.8938 0.7646 0.5193
H92 H 0.8790 0.7204 0.5077
C105 C 0.6075(7) 0.7750(4) 0.3958(6)
H93 H 0.5838 0.7802 0.3562
H94 H 0.6008 0.7968 0.4204
H95 H 0.5847 0.7525 0.4104
C106 C 0.5467(4) 0.74502(19) 0.1717(3)
C107 C 0.5715(5) 0.7346(2) 0.1219(3)
C108 C 0.5233(5) 0.7122(2) 0.0831(3)
H96 H 0.5374 0.7057 0.0468
C109 C 0.4571(6) 0.6995(2) 0.0960(4)
C110 C 0.4347(5) 0.7113(3) 0.1459(4)
H97 H 0.3879 0.7028 0.1544
C111 C 0.4769(4) 0.7350(2) 0.1849(4)
C112 C 0.6470(5) 0.7467(3) 0.1097(4)
H98 H 0.6719 0.7617 0.1422
H99 H 0.6414 0.7620 0.0745
H100 H 0.6770 0.7242 0.1046
C113 C 0.4069(6) 0.6726(2) 0.0563(4)
H101 H 0.4297 0.6672 0.0218
H102 H 0.3582 0.6845 0.0448
H103 H 0.4006 0.6489 0.0768
C114 C 0.4510(6) 0.7471(3) 0.2406(4)
H104 H 0.4876 0.7644 0.2617
H105 H 0.4456 0.7247 0.2644
H106 H 0.4029 0.7600 0.2318
C115 C 0.3652(5) 0.9063(3) 0.0140(4)
C116 C 0.4210(8) 0.9122(5) -0.0151(7)
C117 C 0.4237(7) 0.8917(4) -0.0681(5)
H107 H 0.4636 0.8952 -0.0896
C118 C 0.3679(7) 0.8674(4) -0.0862(5)
C119 C 0.3132(7) 0.8619(4) -0.0553(5)
H108 H 0.2754 0.8441 -0.0690
C120 C 0.3083(6) 0.8813(3) -0.0027(5)
C121 C 0.4835(8) 0.9399(4) 0.0024(7)
H109 H 0.4754 0.9530 0.0378
H110 H 0.4849 0.9584 -0.0286
H111 H 0.5309 0.9262 0.0094
C122 C 0.3675(9) 0.8450(5) -0.1433(6)
H112 H 0.3230 0.8290 -0.1503
H113 H 0.4121 0.8290 -0.1403
H114 H 0.3673 0.8628 -0.1754
C123 C 0.2486(13) 0.8735(8) 0.0330(9)
H115 H 0.2556 0.8899 0.0673
H116 H 0.2509 0.8469 0.0451
H117 H 0.1998 0.8787 0.0102
C124 C 0.3041(6) 1.0062(2) 0.1549(5)
C125 C 0.3366(6) 1.0409(3) 0.1492(5)
C126 C 0.3076(7) 1.0720(3) 0.1754(6)
H118 H 0.3280 1.0965 0.1714
C127 C 0.2516(8) 1.0677(4) 0.2059(7)
C128 C 0.2215(7) 1.0319(4) 0.2129(6)
H119 H 0.1826 1.0293 0.2355
C129 C 0.2472(7) 1.0001(3) 0.1874(5)
C130 C 0.3994(7) 1.0475(3) 0.1147(6)
H120 H 0.4146 1.0232 0.0998
H121 H 0.4418 1.0589 0.1396
H122 H 0.3826 1.0646 0.0824
C131 C 0.2251(8) 1.1029(4) 0.2351(7)
H123 H 0.1848 1.0958 0.2564
H124 H 0.2070 1.1218 0.2057
H125 H 0.2666 1.1135 0.2618
C132 C 0.2145(7) 0.9614(3) 0.1932(6)
H126 H 0.2404 0.9429 0.1722
H127 H 0.1615 0.9618 0.1772
H128 H 0.2203 0.9544 0.2341
C133 C 0.5747(4) 1.05075(18) 0.3795(3)
C134 C 0.5447(4) 1.0548(2) 0.4292(3)
C135 C 0.4857(4) 1.0809(2) 0.4276(4)
H129 H 0.4631 1.0843 0.4612
C136 C 0.4603(4) 1.1012(2) 0.3799(4)
C137 C 0.4944(4) 1.0983(2) 0.3325(4)
H130 H 0.4774 1.1135 0.2997
C138 C 0.5549(4) 1.0730(2) 0.3306(3)
C139 C 0.5727(5) 1.0333(3) 0.4841(4)
H131 H 0.5797 1.0066 0.4748
H132 H 0.5362 1.0353 0.5108
H133 H 0.6202 1.0441 0.5021
C140 C 0.3926(4) 1.1272(2) 0.3784(5)
H134 H 0.3746 1.1262 0.4158
H135 H 0.3530 1.1187 0.3479
H136 H 0.4067 1.1532 0.3706
C141 C 0.5934(6) 1.0712(3) 0.2783(4)
H137 H 0.6329 1.0521 0.2843
H138 H 0.6152 1.0960 0.2721
H139 H 0.5573 1.0644 0.2445
C142 C 0.7995(4) 0.97172(19) 0.4259(3)
C143 C 0.8603(4) 0.9799(2) 0.3994(3)
C144 C 0.9305(4) 0.9690(2) 0.4282(4)
H140 H 0.9737 0.9743 0.4112
C145 C 0.9379(4) 0.9509(2) 0.4803(4)
C146 C 0.8754(5) 0.9437(2) 0.5060(3)
H141 H 0.8809 0.9313 0.5424
C147 C 0.8045(4) 0.95421(19) 0.4794(3)
C148 C 0.8523(5) 1.0009(3) 0.3422(4)
H142 H 0.7995 1.0060 0.3287
H143 H 0.8725 0.9853 0.3136
H144 H 0.8796 1.0249 0.3473
C149 C 1.0157(5) 0.9385(3) 0.5102(4)
H145 H 1.0531 0.9459 0.4862
H146 H 1.0165 0.9110 0.5153
H147 H 1.0267 0.9509 0.5479
C150 C 0.7383(5) 0.9465(2) 0.5076(4)
H148 H 0.6935 0.9557 0.4829
H149 H 0.7435 0.9596 0.5449
H150 H 0.7339 0.9192 0.5137
C151 C 0.2409(11) 0.7085(7) 0.1655(7)
H151 H 0.2850 0.7201 0.1522
H152 H 0.2341 0.6827 0.1491
Cl1 Cl 0.2537(4) 0.7064(2) 0.2408(3)
Cl2 Cl 0.1652(4) 0.7347(2) 0.1438(3)
B1 B 0.2617(8) 0.4709(3) 0.4779(6)
F1 F 0.2626(8) 0.4386(2) 0.5067(4)
F2 F 0.2335(4) 0.46546(18) 0.4191(3)
F3 F 0.2106(3) 0.4919(3) 0.4981(3)
F4 F 0.3249(3) 0.4913(2) 0.4844(3)
B2 B 0.5419(13) 0.6251(6) 0.9314(8)
F5 F 0.5586(5) 0.5875(3) 0.9322(4)
F6 F 0.5485(5) 0.6404(3) 0.8785(3)
F7 F 0.4695(5) 0.6289(3) 0.9422(3)
F8 F 0.5884(7) 0.6429(4) 0.9741(5)
B3 B 0.410(2) 0.1681(4) 0.1893(11)
F9 F 0.4396(7) 0.1369(2) 0.1656(6)
F10 F 0.4196(10) 0.1715(2) 0.2409(4)
F11 F 0.4478(10) 0.1994(3) 0.1607(5)
F12 F 0.3450(10) 0.1718(4) 0.1639(5)
B4 B 0.0563(7) 0.6917(5) 0.5281(8)
F13 F 0.0938(13) 0.6995(4) 0.4873(6)
F14 F 0.0337(8) 0.7177(3) 0.5576(4)
F15 F 0.1130(9) 0.6797(8) 0.5619(12)
F16 F 0.0227(4) 0.6610(2) 0.5171(5)
B5 B 0.0653(6) 0.0450(3) 0.3243(6)
F17 F 0.1253(4) 0.0645(2) 0.3488(3)
F18 F 0.0655(6) 0.0130(3) 0.3602(5)
F19 F 0.0847(13) 0.0326(5) 0.2750(6)
F20 F -0.0022(9) 0.0589(4) 0.3073(14)
B6 B 0.2387(7) 0.6078(4) 0.0650(6)
F21 F 0.1861(4) 0.5816(2) 0.0639(3)
F22 F 0.2786(4) 0.6016(2) 0.0232(3)
F23 F 0.2860(7) 0.6034(4) 0.1154(5)
F24 F 0.2118(7) 0.6413(3) 0.0705(6)
C152 C 0.0490(6) 0.3899(3) 0.1620(5)
H153 H 0.0557 0.4059 0.1285
H154 H 0.0130 0.4029 0.1832
Cl3 Cl 0.13356(17) 0.38688(11) 0.20712(13)
Cl4 Cl 0.0110(2) 0.34693(10) 0.13671(14)
C153 C 0.3439(9) 0.4837(6) 0.3534(7)
H155 H 0.3200 0.4937 0.3856
H156 H 0.3419 0.4557 0.3552
Cl5 Cl 0.2901(7) 0.4990(3) 0.2860(5)
Cl6 Cl 0.4282(3) 0.49636(17) 0.3631(2)
O1 O 0.1618(5) 0.7978(2) 0.8957(4)
O2 O 0.0746(7) 0.9517(3) 0.2723(5)
C154? C 0.7504(13) 0.7731(10) 0.3249(9)
C155? C 0.8149(14) 0.7753(13) 0.3028(10)
C156? C 0.8832(13) 0.7680(9) 0.3405(10)
H157? H 0.9293 0.7680 0.3260
C157? C 0.8813(13) 0.7610(10) 0.3968(11)
C158? C 0.8165(15) 0.7560(19) 0.4166(14)
H158? H 0.8164 0.7454 0.4538
C159? C 0.7479(14) 0.7665(8) 0.3828(9)
C160? C 0.8187(15) 0.7825(11) 0.2393(10)
H159? H 0.7682 0.7852 0.2182
H160? H 0.8435 0.7611 0.2234
H161? H 0.8469 0.8058 0.2354
C161? C 0.9566(17) 0.7551(9) 0.4369(14)
H162? H 0.9977 0.7604 0.4153
H163? H 0.9601 0.7288 0.4507
H164? H 0.9596 0.7723 0.4700
C162? C 0.6780(19) 0.768(2) 0.4094(18)
H165? H 0.6361 0.7747 0.3800
H166? H 0.6834 0.7864 0.4407
H167? H 0.6689 0.7426 0.4250
C163? C 0.3195(11) 0.8989(6) 0.0334(9)
C164? C 0.3632(13) 0.8948(8) -0.0086(10)
C165? C 0.3382(17) 0.8712(10) -0.0569(12)
H168? H 0.3629 0.8703 -0.0899
C166? C 0.2764(14) 0.8500(8) -0.0528(10)
C167? C 0.2358(13) 0.8514(7) -0.0097(9)
H169? H 0.1951 0.8346 -0.0089
C168? C 0.255(2) 0.8784(14) 0.0344(16)
C169? C 0.430(2) 0.9205(14) -0.010(2)
H170? H 0.4381 0.9357 0.0253
H171? H 0.4198 0.9374 -0.0437
H172? H 0.4738 0.9051 -0.0130
C170? C 0.255(2) 0.8225(10) -0.1041(13)
H173? H 0.2909 0.8250 -0.1313
H174? H 0.2050 0.8286 -0.1237
H175? H 0.2559 0.7964 -0.0896
C171? C 0.2151(18) 0.8765(10) 0.0867(12)
H176? H 0.2339 0.8966 0.1140
H177? H 0.2241 0.8518 0.1055
H178? H 0.1615 0.8800 0.0745
F25? F 0.0599(11) 0.0093(4) 0.3118(12)
F26? F 0.0528(8) 0.0659(4) 0.2703(5)
F27? F 0.0140(8) 0.0628(3) 0.3550(5)
H179? H 0.3743 0.4603 0.3553
H180? H 0.3137 0.4834 0.3852
Cl7? Cl 0.4018(5) 0.5253(3) 0.3569(4)
Cl8? Cl 0.2894(4) 0.4878(2) 0.2889(3)
Cl9? Cl 0.2261(10) 0.7413(4) 0.1763(7)
Cl10? Cl 0.2452(6) 0.8757(3) 0.1780(5)
Cl11? Cl 0.3071(10) 0.8108(5) 0.1997(8)
C172? C 0.2244(19) 0.8295(5) 0.1544(13)
Cl12? Cl 0.2754(9) 0.8015(4) 0.1980(6)
H181? H 0.2263 0.7924 0.1230
C173? C 0.2293(14) 0.7879(6) 0.1650(13)
H182? H 0.2353 0.8262 0.1146
H183? H 0.1710 0.8240 0.1547
H184? H 0.1848 0.7996 0.1774
loop_
_geom_bond_atom_site_label_1
_geom_bond_atom_site_label_2
_geom_bond_site_symmetry_1
_geom_bond_site_symmetry_2
N1 C1 1_555 1_555
N2 C1 1_555 1_555
N3 C2 1_555 1_555
N4 C2 1_555 1_555
N5 C3 1_555 1_555
N6 C3 1_555 1_555
C1 H1 1_555 1_555
C2 H2 1_555 1_555
C3 H3 1_555 1_555
C4 N1 1_555 1_555
C5 N2 1_555 1_555
C6 C5 1_555 1_555
H4 C6 1_555 1_555
C7 C6 1_555 1_555
C8 C7 1_555 1_555
C9 C8 1_555 1_555
H5 C9 1_555 1_555
C10 N3 1_555 1_555
C11 N4 1_555 1_555
C12 C11 1_555 1_555
H6 C12 1_555 1_555
C13 C8 1_555 1_555
C14 C13 1_555 1_555
C15 C14 1_555 1_555
H7 C15 1_555 1_555
C16 N5 1_555 1_555
C17 N6 1_555 1_555
C18 C17 1_555 1_555
H8 C18 1_555 1_555
C19 C14 1_555 1_555
C20 C7 1_555 1_555
C21 C4 1_555 1_555
H9 C21 1_555 1_555
C22 N1 1_555 1_555
C23 C22 1_555 1_555
C24 C23 1_555 1_555
H10 C24 1_555 1_555
C25 C24 1_555 1_555
C26 C25 1_555 1_555
H11 C26 1_555 1_555
C27 C22 1_555 1_555
C28 C23 1_555 1_555
H12 C28 1_555 1_555
H13 C28 1_555 1_555
H14 C28 1_555 1_555
C29 C25 1_555 1_555
H15 C29 1_555 1_555
H16 C29 1_555 1_555
H17 C29 1_555 1_555
C30 C27 1_555 1_555
H18 C30 1_555 1_555
H19 C30 1_555 1_555
H20 C30 1_555 1_555
C31 N2 1_555 1_555
C32 C31 1_555 1_555
C33 C32 1_555 1_555
H21 C33 1_555 1_555
C34 C33 1_555 1_555
C35 C34 1_555 1_555
H22 C35 1_555 1_555
C36 C31 1_555 1_555
C37 C32 1_555 1_555
H23 C37 1_555 1_555
H24 C37 1_555 1_555
H25 C37 1_555 1_555
C38 C34 1_555 1_555
H26 C38 1_555 1_555
H27 C38 1_555 1_555
H28 C38 1_555 1_555
C39 C36 1_555 1_555
H29 C39 1_555 1_555
H30 C39 1_555 1_555
H31 C39 1_555 1_555
C40 N3 1_555 1_555
C41 C40 1_555 1_555
C42 C41 1_555 1_555
H32 C42 1_555 1_555
C43 C42 1_555 1_555
C44 C43 1_555 1_555
H33 C44 1_555 1_555
C45 C40 1_555 1_555
C46 C41 1_555 1_555
H34 C46 1_555 1_555
H35 C46 1_555 1_555
H36 C46 1_555 1_555
C47 C43 1_555 1_555
H37 C47 1_555 1_555
H38 C47 1_555 1_555
H39 C47 1_555 1_555
C48 C45 1_555 1_555
H40 C48 1_555 1_555
H41 C48 1_555 1_555
H42 C48 1_555 1_555
C49 N4 1_555 1_555
C50 C49 1_555 1_555
C51 C50 1_555 1_555
H43 C51 1_555 1_555
C52 C51 1_555 1_555
C53 C52 1_555 1_555
H44 C53 1_555 1_555
C54 C49 1_555 1_555
C55 C50 1_555 1_555
H45 C55 1_555 1_555
H46 C55 1_555 1_555
H47 C55 1_555 1_555
C56 C52 1_555 1_555
H48 C56 1_555 1_555
H49 C56 1_555 1_555
H50 C56 1_555 1_555
C57 C54 1_555 1_555
H51 C57 1_555 1_555
H52 C57 1_555 1_555
H53 C57 1_555 1_555
C58 N5 1_555 1_555
C59 C58 1_555 1_555
C60 C59 1_555 1_555
H54 C60 1_555 1_555
C61 C60 1_555 1_555
C62 C61 1_555 1_555
H55 C62 1_555 1_555
C63 C58 1_555 1_555
C64 C59 1_555 1_555
H56 C64 1_555 1_555
H57 C64 1_555 1_555
H58 C64 1_555 1_555
C65 C61 1_555 1_555
H59 C65 1_555 1_555
H60 C65 1_555 1_555
H61 C65 1_555 1_555
C66 C63 1_555 1_555
H62 C66 1_555 1_555
H63 C66 1_555 1_555
H64 C66 1_555 1_555
C67 N6 1_555 1_555
C68 C67 1_555 1_555
C69 C68 1_555 1_555
H65 C69 1_555 1_555
C70 C69 1_555 1_555
C71 C70 1_555 1_555
H66 C71 1_555 1_555
C72 C67 1_555 1_555
C73 C68 1_555 1_555
H67 C73 1_555 1_555
H68 C73 1_555 1_555
H69 C73 1_555 1_555
C74 C70 1_555 1_555
H70 C74 1_555 1_555
H71 C74 1_555 1_555
H72 C74 1_555 1_555
C75 C72 1_555 1_555
H73 C75 1_555 1_555
H74 C75 1_555 1_555
H75 C75 1_555 1_555
N7 C76 1_555 1_555
N8 C76 1_555 1_555
N9 C77 1_555 1_555
N10 C77 1_555 1_555
N11 C78 1_555 1_555
N12 C78 1_555 1_555
C76 H76 1_555 1_555
C77 H77 1_555 1_555
C78 H78 1_555 1_555
C79 N8 1_555 1_555
C80 C79 1_555 1_555
H79 C80 1_555 1_555
C81 C80 1_555 1_555
C82 C81 1_555 1_555
C83 C82 1_555 1_555
H80 C83 1_555 1_555
C84 N9 1_555 1_555
C85 N10 1_555 1_555
C86 C85 1_555 1_555
H81 C86 1_555 1_555
C87 C82 1_555 1_555
C88 C87 1_555 1_555
C89 C88 1_555 1_555
H82 C89 1_555 1_555
C90 N11 1_555 1_555
C91 N12 1_555 1_555
C92 C91 1_555 1_555
H83 C92 1_555 1_555
C93 C88 1_555 1_555
C94 C81 1_555 1_555
C95 C94 1_555 1_555
H84 C95 1_555 1_555
C96 N7 1_555 1_555
C97 N7 1_555 1_555
C98 C97 1_555 1_555
C99 C98 1_555 1_555
H85 C99 1_555 1_555
C100 C99 1_555 1_555
C101 C100 1_555 1_555
H86 C101 1_555 1_555
C102 C97 1_555 1_555
C103 C98 1_555 1_555
H87 C103 1_555 1_555
H88 C103 1_555 1_555
H89 C103 1_555 1_555
C104 C100 1_555 1_555
H90 C104 1_555 1_555
H91 C104 1_555 1_555
H92 C104 1_555 1_555
C105 C102 1_555 1_555
H93 C105 1_555 1_555
H94 C105 1_555 1_555
H95 C105 1_555 1_555
C106 N8 1_555 1_555
C107 C106 1_555 1_555
C108 C107 1_555 1_555
H96 C108 1_555 1_555
C109 C108 1_555 1_555
C110 C109 1_555 1_555
H97 C110 1_555 1_555
C111 C106 1_555 1_555
C112 C107 1_555 1_555
H98 C112 1_555 1_555
H99 C112 1_555 1_555
H100 C112 1_555 1_555
C113 C109 1_555 1_555
H101 C113 1_555 1_555
H102 C113 1_555 1_555
H103 C113 1_555 1_555
C114 C111 1_555 1_555
H104 C114 1_555 1_555
H105 C114 1_555 1_555
H106 C114 1_555 1_555
C115 N9 1_555 1_555
C116 C115 1_555 1_555
C117 C116 1_555 1_555
H107 C117 1_555 1_555
C118 C117 1_555 1_555
C119 C118 1_555 1_555
H108 C119 1_555 1_555
C120 C115 1_555 1_555
C121 C116 1_555 1_555
H109 C121 1_555 1_555
H110 C121 1_555 1_555
H111 C121 1_555 1_555
C122 C118 1_555 1_555
H112 C122 1_555 1_555
H113 C122 1_555 1_555
H114 C122 1_555 1_555
C123 C120 1_555 1_555
H115 C123 1_555 1_555
H116 C123 1_555 1_555
H117 C123 1_555 1_555
C124 N10 1_555 1_555
C125 C124 1_555 1_555
C126 C125 1_555 1_555
H118 C126 1_555 1_555
C127 C126 1_555 1_555
C128 C127 1_555 1_555
H119 C128 1_555 1_555
C129 C124 1_555 1_555
C130 C125 1_555 1_555
H120 C130 1_555 1_555
H121 C130 1_555 1_555
H122 C130 1_555 1_555
C131 C127 1_555 1_555
H123 C131 1_555 1_555
H124 C131 1_555 1_555
H125 C131 1_555 1_555
C132 C129 1_555 1_555
H126 C132 1_555 1_555
H127 C132 1_555 1_555
H128 C132 1_555 1_555
C133 N11 1_555 1_555
C134 C133 1_555 1_555
C135 C134 1_555 1_555
H129 C135 1_555 1_555
C136 C135 1_555 1_555
C137 C136 1_555 1_555
H130 C137 1_555 1_555
C138 C133 1_555 1_555
C139 C134 1_555 1_555
H131 C139 1_555 1_555
H132 C139 1_555 1_555
H133 C139 1_555 1_555
C140 C136 1_555 1_555
H134 C140 1_555 1_555
H135 C140 1_555 1_555
H136 C140 1_555 1_555
C141 C138 1_555 1_555
H137 C141 1_555 1_555
H138 C141 1_555 1_555
H139 C141 1_555 1_555
C142 N12 1_555 1_555
C143 C142 1_555 1_555
C144 C143 1_555 1_555
H140 C144 1_555 1_555
C145 C144 1_555 1_555
C146 C145 1_555 1_555
H141 C146 1_555 1_555
C147 C142 1_555 1_555
C148 C143 1_555 1_555
H142 C148 1_555 1_555
H143 C148 1_555 1_555
H144 C148 1_555 1_555
C149 C145 1_555 1_555
H145 C149 1_555 1_555
H146 C149 1_555 1_555
H147 C149 1_555 1_555
C150 C147 1_555 1_555
H148 C150 1_555 1_555
H149 C150 1_555 1_555
H150 C150 1_555 1_555
C151 H151 1_555 1_555
H152 C151 1_555 1_555
Cl1 C151 1_555 1_555
Cl2 C151 1_555 1_555
B1 F1 1_555 1_555
F2 B1 1_555 1_555
F3 B1 1_555 1_555
F4 B1 1_555 1_555
B2 F5 1_555 1_555
F6 B2 1_555 1_555
F7 B2 1_555 1_555
F8 B2 1_555 1_555
B3 F9 1_555 1_555
F10 B3 1_555 1_555
F11 B3 1_555 1_555
F12 B3 1_555 1_555
B4 F13 1_555 1_555
F14 B4 1_555 1_555
F15 B4 1_555 1_555
F16 B4 1_555 1_555
B5 F17 1_555 1_555
F18 B5 1_555 1_555
F19 B5 1_555 1_555
F20 B5 1_555 1_555
B6 F21 1_555 1_555
F22 B6 1_555 1_555
F23 B6 1_555 1_555
F24 B6 1_555 1_555
C152 H153 1_555 1_555
H154 C152 1_555 1_555
Cl3 C152 1_555 1_555
Cl4 C152 1_555 1_555
C153 H155 1_555 1_555
H156 C153 1_555 1_555
Cl5 C153 1_555 1_555
Cl6 C153 1_555 1_555
C4 C5 1_555 1_555
C9 C10 1_555 1_555
C10 C11 1_555 1_555
C12 C13 1_555 1_555
C15 C16 1_555 1_555
C16 C17 1_555 1_555
C18 C19 1_555 1_555
C19 C20 1_555 1_555
C20 C21 1_555 1_555
C26 C27 1_555 1_555
C35 C36 1_555 1_555
C44 C45 1_555 1_555
C53 C54 1_555 1_555
C62 C63 1_555 1_555
C71 C72 1_555 1_555
C79 C96 1_555 1_555
C83 C84 1_555 1_555
C84 C85 1_555 1_555
C86 C87 1_555 1_555
C89 C90 1_555 1_555
C90 C91 1_555 1_555
C92 C93 1_555 1_555
C93 C94 1_555 1_555
C95 C96 1_555 1_555
C101 C102 1_555 1_555
C110 C111 1_555 1_555
C119 C120 1_555 1_555
C128 C129 1_555 1_555
C137 C138 1_555 1_555
C146 C147 1_555 1_555

#END
