
#######################################################################
#
#                 Cambridge Crystallographic Data Centre
#                                CCDC 
#
#######################################################################
#
# If this CIF has been generated from an entry in the Cambridge 
# Structural Database, then it will include bibliographic, chemical, 
# crystal, experimental, refinement or atomic coordinate data resulting 
# from the CCDC's data processing and validation procedures.
#
#######################################################################

data_RICKEV
_chemical_formula_moiety         'C20 H15 N1 O3'
_chemical_name_systematic        
2-Ethyl-6-phenoxy-1H-benzo[de]isoquinoline-1,3(2H)-dione
_symmetry_cell_setting           monoclinic
_symmetry_space_group_name_H-M   'P 21/c'
_symmetry_Int_Tables_number      14
_space_group_name_Hall           '-P 2ybc'
loop_
_symmetry_equiv_pos_site_id
_symmetry_equiv_pos_as_xyz
1 x,y,z
2 -x,1/2+y,1/2-z
3 -x,-y,-z
4 x,1/2-y,1/2+z
_cell_length_a                   13.893(6)
_cell_length_b                   10.823(5)
_cell_length_c                   10.819(5)
_cell_angle_alpha                90
_cell_angle_beta                 106.183(6)
_cell_angle_gamma                90
_cell_volume                     1562.33
_exptl_crystal_colour            yellow
_exptl_crystal_description       rectangular
_cell_formula_units_Z            4
loop_
_atom_site_label
_atom_site_type_symbol
_atom_site_fract_x
_atom_site_fract_y
_atom_site_fract_z
C1 C 0.38477(9) 0.13965(11) 0.06253(10)
N1 N 0.70202(8) 0.14537(11) 0.16535(10)
C2 C 0.49094(9) 0.14207(10) 0.09656(10)
C3 C 0.54120(9) 0.23827(11) 0.05100(11)
C4 C 0.54561(9) 0.04584(11) 0.17375(10)
C5 C 0.33646(10) 0.04014(12) 0.10535(12)
C6 C 0.65631(10) 0.04727(12) 0.21068(12)
C7 C 0.33180(9) 0.23668(12) -0.01704(12)
C8 C 0.48633(10) 0.32907(12) -0.02656(12)
C9 C 0.38139(10) 0.32954(13) -0.06042(13)
O1 O 0.23002(7) 0.22746(10) -0.04508(10)
C10 C 0.39115(11) -0.05241(13) 0.17816(12)
C11 C 0.65119(10) 0.24029(12) 0.08499(12)
C12 C 0.49645(11) -0.05005(12) 0.21291(11)
C13 C 0.17041(9) 0.31178(13) -0.13265(13)
C14 C 0.81261(11) 0.14669(19) 0.20283(17)
C15 C 0.13680(12) 0.27736(17) -0.26011(15)
C16 C 0.04480(12) 0.46622(18) -0.30239(18)
C17 C 0.14370(13) 0.42096(16) -0.08803(17)
C18 C 0.07286(13) 0.35626(19) -0.34491(16)
C19 C 0.08028(15) 0.49894(17) -0.1748(2)
O2 O 0.70662(8) -0.03290(10) 0.27754(10)
O3 O 0.69784(8) 0.32032(11) 0.04751(11)
C20 C 0.85537(14) 0.2108(2) 0.33044(19)
H1 H 0.2650(12) 0.0385(13) 0.0840(14)
H2 H 0.3453(11) 0.3935(15) -0.1121(14)
H3 H 0.5224(11) 0.3928(14) -0.0570(13)
H4 H 0.5357(11) -0.1168(15) 0.2654(14)
H5 H 0.3555(12) -0.1209(15) 0.2062(14)
H6 H 0.8299(13) 0.1875(17) 0.1309(18)
H7 H 0.8324(15) 0.300(2) 0.3298(18)
H8 H 0.0003(14) 0.5225(17) -0.3613(18)
H9 H 0.9299(16) 0.2092(18) 0.3498(18)
H10 H 0.8314(15) 0.1719(19) 0.3993(19)
H11 H 0.8354(14) 0.0569(19) 0.2043(17)
H12 H 0.1593(16) 0.199(2) -0.2863(19)
H13 H 0.0633(16) 0.570(2) -0.145(2)
H14 H 0.1659(14) 0.4413(17) -0.0027(19)
H15 H 0.0476(15) 0.332(2) -0.437(2)
loop_
_geom_bond_atom_site_label_1
_geom_bond_atom_site_label_2
_geom_bond_site_symmetry_1
_geom_bond_site_symmetry_2
C1 C2 1_555 1_555
N1 C6 1_555 1_555
C2 C3 1_555 1_555
C3 C8 1_555 1_555
C4 C2 1_555 1_555
C5 C1 1_555 1_555
C6 C4 1_555 1_555
C7 C1 1_555 1_555
C8 C9 1_555 1_555
C9 C7 1_555 1_555
O1 C7 1_555 1_555
C10 C5 1_555 1_555
C11 N1 1_555 1_555
C12 C4 1_555 1_555
C13 O1 1_555 1_555
C14 N1 1_555 1_555
C15 C13 1_555 1_555
C16 C18 1_555 1_555
C17 C13 1_555 1_555
C18 C15 1_555 1_555
C19 C16 1_555 1_555
O2 C6 1_555 1_555
O3 C11 1_555 1_555
C20 C14 1_555 1_555
H1 C5 1_555 1_555
H2 C9 1_555 1_555
H3 C8 1_555 1_555
H4 C12 1_555 1_555
H5 C10 1_555 1_555
H6 C14 1_555 1_555
H7 C20 1_555 1_555
H8 C16 1_555 1_555
H9 C20 1_555 1_555
H10 C20 1_555 1_555
H11 C14 1_555 1_555
H12 C15 1_555 1_555
H13 C19 1_555 1_555
H14 C17 1_555 1_555
H15 C18 1_555 1_555
C3 C11 1_555 1_555
C10 C12 1_555 1_555
C17 C19 1_555 1_555

#END
