
#######################################################################
#
#                 Cambridge Crystallographic Data Centre
#                                CCDC 
#
#######################################################################
#
# If this CIF has been generated from an entry in the Cambridge 
# Structural Database, then it will include bibliographic, chemical, 
# crystal, experimental, refinement or atomic coordinate data resulting 
# from the CCDC's data processing and validation procedures.
#
#######################################################################

data_RICKAR
_chemical_formula_moiety         'C25 H25 N1 O3 S2'
_chemical_name_systematic        
6-(4-(bis(Ethylsulfanyl)methyl)phenoxy)-2-ethyl-1H-benzo[de]isoquinoline-1,3(2H)-dione
_symmetry_cell_setting           triclinic
_symmetry_space_group_name_H-M   'P -1'
_symmetry_Int_Tables_number      2
_space_group_name_Hall           '-P 1'
loop_
_symmetry_equiv_pos_site_id
_symmetry_equiv_pos_as_xyz
1 x,y,z
2 -x,-y,-z
_cell_length_a                   8.6529(7)
_cell_length_b                   8.6955(7)
_cell_length_c                   15.3316(12)
_cell_angle_alpha                87.905(2)
_cell_angle_beta                 76.192(2)
_cell_angle_gamma                87.453(2)
_cell_volume                     1118.73
_exptl_crystal_colour            yellow
_exptl_crystal_description       rectangular
_cell_formula_units_Z            2
loop_
_atom_site_label
_atom_site_type_symbol
_atom_site_fract_x
_atom_site_fract_y
_atom_site_fract_z
S1 S 0.28344(10) 1.44886(8) 0.29672(5)
S2 S 0.15920(9) 1.25400(8) 0.45802(4)
O1 O 1.1068(2) 0.7963(2) -0.19661(13)
O2 O 1.0196(2) 0.2847(2) -0.17847(13)
O3 O 0.5203(2) 0.77047(19) 0.14619(12)
N1 N 1.0703(2) 0.5386(2) -0.18266(13)
C1 C 1.2123(3) 0.5141(3) -0.25742(17)
H1 H 1.2542 0.4095 -0.2532
H2 H 1.2938 0.5835 -0.2516
C2 C 1.1758(4) 0.5409(4) -0.34768(19)
H3 H 1.2712 0.5242 -0.3939
H4 H 1.1358 0.6448 -0.3525
H5 H 1.0972 0.4707 -0.3544
C3 C 1.0313(3) 0.6911(3) -0.15594(16)
C4 C 0.8973(3) 0.7141(3) -0.07753(15)
C5 C 0.8104(3) 0.5868(2) -0.03426(14)
C6 C 0.8498(3) 0.4369(2) -0.06731(15)
C7 C 0.9837(3) 0.4112(3) -0.14641(16)
C8 C 0.7642(3) 0.3143(3) -0.02449(16)
H6 H 0.7902 0.2157 -0.0463
C9 C 0.6399(3) 0.3359(3) 0.05076(16)
H7 H 0.5835 0.2520 0.0790
C10 C 0.6001(3) 0.4806(3) 0.08352(15)
H8 H 0.5163 0.4943 0.1337
C11 C 0.6844(3) 0.6082(2) 0.04203(14)
C12 C 0.6483(3) 0.7609(3) 0.07346(16)
C13 C 0.7327(3) 0.8827(3) 0.03103(18)
H9 H 0.7069 0.9817 0.0522
C14 C 0.8577(3) 0.8577(3) -0.04424(16)
H10 H 0.9154 0.9409 -0.0723
C15 C 0.4832(3) 0.9055(3) 0.19508(16)
C16 C 0.5909(3) 0.9725(3) 0.23276(17)
H11 H 0.6962 0.9359 0.2217
C17 C 0.5385(3) 1.0977(3) 0.28834(17)
H12 H 0.6103 1.1448 0.3143
C18 C 0.3820(3) 1.1528(3) 0.30555(15)
C19 C 0.2774(3) 1.0819(3) 0.26635(16)
H13 H 0.1722 1.1185 0.2771
C20 C 0.3255(3) 0.9578(3) 0.21153(17)
H14 H 0.2534 0.9101 0.1861
C21 C 0.3300(3) 1.2888(3) 0.36605(16)
H15 H 0.4192 1.3159 0.3909
C22 C 0.2397(4) 1.6073(3) 0.3732(2)
H16 H 0.1971 1.6939 0.3435
H17 H 0.1571 1.5770 0.4250
C23 C 0.3785(5) 1.6595(4) 0.4055(3)
H18 H 0.3447 1.7436 0.4453
H19 H 0.4602 1.6926 0.3550
H20 H 0.4197 1.5758 0.4369
C24 C 0.2435(4) 1.1116(4) 0.5250(2)
H21 H 0.2823 1.0215 0.4896
H22 H 0.3326 1.1540 0.5430
C25 C 0.1186(4) 1.0667(4) 0.6064(2)
H23 H 0.1628 0.9909 0.6416
H24 H 0.0308 1.0246 0.5882
H25 H 0.0819 1.1559 0.6418
loop_
_geom_bond_atom_site_label_1
_geom_bond_atom_site_label_2
_geom_bond_site_symmetry_1
_geom_bond_site_symmetry_2
S1 C21 1_555 1_555
S2 C21 1_555 1_555
O1 C3 1_555 1_555
O2 C7 1_555 1_555
O3 C12 1_555 1_555
N1 C1 1_555 1_555
C1 H1 1_555 1_555
H2 C1 1_555 1_555
C2 C1 1_555 1_555
H3 C2 1_555 1_555
H4 C2 1_555 1_555
H5 C2 1_555 1_555
C3 N1 1_555 1_555
C4 C3 1_555 1_555
C5 C4 1_555 1_555
C6 C5 1_555 1_555
C7 N1 1_555 1_555
C8 C6 1_555 1_555
H6 C8 1_555 1_555
C9 C8 1_555 1_555
H7 C9 1_555 1_555
C10 C9 1_555 1_555
H8 C10 1_555 1_555
C11 C5 1_555 1_555
C12 C11 1_555 1_555
C13 C12 1_555 1_555
H9 C13 1_555 1_555
C14 C4 1_555 1_555
H10 C14 1_555 1_555
C15 O3 1_555 1_555
C16 C15 1_555 1_555
H11 C16 1_555 1_555
C17 C16 1_555 1_555
H12 C17 1_555 1_555
C18 C17 1_555 1_555
C19 C18 1_555 1_555
H13 C19 1_555 1_555
C20 C15 1_555 1_555
H14 C20 1_555 1_555
C21 C18 1_555 1_555
H15 C21 1_555 1_555
C22 S1 1_555 1_555
H16 C22 1_555 1_555
H17 C22 1_555 1_555
C23 C22 1_555 1_555
H18 C23 1_555 1_555
H19 C23 1_555 1_555
H20 C23 1_555 1_555
C24 S2 1_555 1_555
H21 C24 1_555 1_555
H22 C24 1_555 1_555
C25 C24 1_555 1_555
H23 C25 1_555 1_555
H24 C25 1_555 1_555
H25 C25 1_555 1_555
C6 C7 1_555 1_555
C10 C11 1_555 1_555
C13 C14 1_555 1_555
C19 C20 1_555 1_555

#END
