
#######################################################################
#
#                 Cambridge Crystallographic Data Centre
#                                CCDC 
#
#######################################################################
#
# If this CIF has been generated from an entry in the Cambridge 
# Structural Database, then it will include bibliographic, chemical, 
# crystal, experimental, refinement or atomic coordinate data resulting 
# from the CCDC's data processing and validation procedures.
#
#######################################################################

data_RICNIA01
_chemical_formula_moiety         'C20 H21 Cl1 N2 S1'
_chemical_name_systematic        
2-(4-Chlorophenyl)-5,8-dihydrospiro(imidazo(2,1-b)benzo(d)thiazole-7(6H),1'-cyclohexane)
_symmetry_cell_setting           monoclinic
_symmetry_space_group_name_H-M   'P 21/c'
_symmetry_Int_Tables_number      14
_space_group_name_Hall           '-P 2ybc'
loop_
_symmetry_equiv_pos_site_id
_symmetry_equiv_pos_as_xyz
1 x,y,z
2 -x,1/2+y,1/2-z
3 -x,-y,-z
4 x,1/2-y,1/2+z
_cell_length_a                   15.278(4)
_cell_length_b                   10.823(3)
_cell_length_c                   11.383(3)
_cell_angle_alpha                90
_cell_angle_beta                 111.55(2)
_cell_angle_gamma                90
_cell_volume                     1750.65
_exptl_crystal_colour            colorless
_chemical_melting_point          195-197deg.C
_cell_formula_units_Z            4
loop_
_atom_site_label
_atom_site_type_symbol
_atom_site_fract_x
_atom_site_fract_y
_atom_site_fract_z
S1 S 0.25161(5) -0.02245(7) 0.27849(8)
C1 C 0.3653(2) 0.0273(3) 0.3017(3)
N1 N 0.3979(2) 0.1031(2) 0.4042(2)
C2 C 0.3346(2) 0.1272(3) 0.4643(3)
C3 C 0.2523(2) 0.0691(3) 0.4065(3)
N2 N 0.4236(2) 0.0135(2) 0.2429(2)
C4 C 0.5004(2) 0.0869(3) 0.3125(3)
C5 C 0.4857(2) 0.1424(3) 0.4115(3)
C6 C 0.3575(2) 0.2070(3) 0.5773(3)
C7 C 0.2811(2) 0.1899(3) 0.6338(3)
C8 C 0.1795(2) 0.1901(3) 0.5356(3)
C9 C 0.1691(2) 0.0793(3) 0.4459(3)
C10 C 0.1126(2) 0.1749(3) 0.6080(3)
C11 C 0.0094(2) 0.1932(3) 0.5253(3)
C12 C -0.0054(2) 0.3202(3) 0.4654(3)
C13 C 0.0546(2) 0.3344(3) 0.3856(3)
C14 C 0.1590(2) 0.3133(3) 0.4643(3)
C15 C 0.5805(2) 0.1019(3) 0.2720(3)
C16 C 0.5758(2) 0.0597(3) 0.1538(3)
C17 C 0.6496(2) 0.0753(3) 0.1129(3)
C18 C 0.7304(2) 0.1322(3) 0.1931(3)
C19 C 0.7382(2) 0.1738(3) 0.3101(3)
C20 C 0.6633(2) 0.1589(3) 0.3498(3)
Cl1 Cl 0.82499(6) 0.15202(9) 0.1428(1)
H1 H 0.5276 0.1970 0.4731
H2 H 0.4176 0.1839 0.6385
H3 H 0.3593 0.2918 0.5537
H4 H 0.2919 0.1124 0.6779
H5 H 0.2868 0.2560 0.6825
H6 H 0.1132 0.0902 0.3720
H7 H 0.1638 0.0047 0.4885
H8 H 0.1295 0.2346 0.6751
H9 H 0.1203 0.0931 0.6431
H10 H -0.0283 0.1853 0.5763
H11 H -0.0091 0.1315 0.4602
H12 H -0.0705 0.3303 0.4130
H13 H 0.0123 0.3820 0.5305
H14 H 0.0345 0.2752 0.3182
H15 H 0.0465 0.4164 0.3510
H16 H 0.1804 0.3790 0.5248
H17 H 0.1934 0.3154 0.4086
H18 H 0.5198 0.0188 0.0997
H19 H 0.6450 0.0474 0.0308
H20 H 0.7951 0.2129 0.3643
H21 H 0.6685 0.1882 0.4317
loop_
_geom_bond_atom_site_label_1
_geom_bond_atom_site_label_2
_geom_bond_site_symmetry_1
_geom_bond_site_symmetry_2
S1 C1 1_555 1_555
C1 N1 1_555 1_555
N1 C2 1_555 1_555
C2 C3 1_555 1_555
C3 S1 1_555 1_555
N2 C1 1_555 1_555
C4 N2 1_555 1_555
C5 N1 1_555 1_555
C6 C2 1_555 1_555
C7 C6 1_555 1_555
C8 C7 1_555 1_555
C9 C3 1_555 1_555
C10 C8 1_555 1_555
C11 C10 1_555 1_555
C12 C11 1_555 1_555
C13 C12 1_555 1_555
C14 C8 1_555 1_555
C15 C4 1_555 1_555
C16 C15 1_555 1_555
C17 C16 1_555 1_555
C18 C17 1_555 1_555
C19 C18 1_555 1_555
C20 C15 1_555 1_555
Cl1 C18 1_555 1_555
H1 C5 1_555 1_555
H2 C6 1_555 1_555
H3 C6 1_555 1_555
H4 C7 1_555 1_555
H5 C7 1_555 1_555
H6 C9 1_555 1_555
H7 C9 1_555 1_555
H8 C10 1_555 1_555
H9 C10 1_555 1_555
H10 C11 1_555 1_555
H11 C11 1_555 1_555
H12 C12 1_555 1_555
H13 C12 1_555 1_555
H14 C13 1_555 1_555
H15 C13 1_555 1_555
H16 C14 1_555 1_555
H17 C14 1_555 1_555
H18 C16 1_555 1_555
H19 C17 1_555 1_555
H20 C19 1_555 1_555
H21 C20 1_555 1_555
C4 C5 1_555 1_555
C8 C9 1_555 1_555
C13 C14 1_555 1_555
C19 C20 1_555 1_555

#END
