
#######################################################################
#
#                 Cambridge Crystallographic Data Centre
#                                CCDC 
#
#######################################################################
#
# If this CIF has been generated from an entry in the Cambridge 
# Structural Database, then it will include bibliographic, chemical, 
# crystal, experimental, refinement or atomic coordinate data resulting 
# from the CCDC's data processing and validation procedures.
#
#######################################################################

data_RICQOL
_chemical_formula_moiety         'C94 H1 F30,0.2(C6 H14),0.18(C7 H8)'
_chemical_name_systematic        
'decakis(trifluoromethyl)C84fullerene n-hexane toluene solvate'
_symmetry_cell_setting           monoclinic
_symmetry_space_group_name_H-M   'P 21/n'
_symmetry_Int_Tables_number      14
_space_group_name_Hall           '-P 2yn'
loop_
_symmetry_equiv_pos_site_id
_symmetry_equiv_pos_as_xyz
1 x,y,z
2 1/2-x,1/2+y,1/2-z
3 -x,-y,-z
4 1/2+x,1/2-y,1/2+z
_cell_length_a                   11.5050(10)
_cell_length_b                   28.2140(10)
_cell_length_c                   41.475(2)
_cell_angle_alpha                90
_cell_angle_beta                 90.543(8)
_cell_angle_gamma                90
_cell_volume                     13462.3
_exptl_crystal_colour            black
_exptl_crystal_description       needle
_cell_formula_units_Z            8
loop_
_atom_site_label
_atom_site_type_symbol
_atom_site_fract_x
_atom_site_fract_y
_atom_site_fract_z
F31 F 0.3368(8) 0.9627(3) 0.4211(3)
F32 F 0.1744(10) 0.9732(3) 0.4449(3)
F33 F 0.1779(8) 0.97269(18) 0.39355(19)
F34 F -0.0073(3) 0.95324(10) 0.47912(7)
F35 F 0.1338(3) 0.94050(12) 0.51054(10)
F36 F -0.0314(4) 0.91587(12) 0.52253(9)
F37 F 0.0159(6) 0.9492(2) 0.34912(15)
F38 F 0.0510(7) 0.9102(2) 0.30627(13)
F39 F 0.1895(5) 0.94091(19) 0.33203(16)
F40 F -0.3120(3) 0.83383(10) 0.50920(7)
F41 F -0.2298(3) 0.89603(9) 0.48946(7)
F42 F -0.3430(3) 0.85451(10) 0.45983(7)
F43 F 0.4845(3) 0.69529(11) 0.54087(7)
F44 F 0.5654(3) 0.75311(11) 0.51592(8)
F45 F 0.6016(3) 0.68170(12) 0.50217(7)
F46 F 0.2344(4) 0.77983(14) 0.26499(8)
F47 F 0.2033(9) 0.8529(3) 0.27951(15)
F48 F 0.3658(3) 0.82351(15) 0.28448(8)
F49 F 0.5952(3) 0.60339(12) 0.42320(10)
F50 F 0.4722(3) 0.55562(11) 0.44356(10)
F51 F 0.5607(4) 0.60529(13) 0.47385(9)
F52 F 0.4917(3) 0.75140(13) 0.29831(7)
F53 F 0.5912(3) 0.71125(11) 0.33223(7)
F54 F 0.6025(3) 0.78758(11) 0.33261(7)
F55 F -0.0310(4) 0.53248(10) 0.47683(9)
F56 F -0.0426(3) 0.57253(11) 0.52077(8)
F57 F -0.1826(3) 0.57499(12) 0.48566(10)
F58 F 0.2922(4) 0.51212(12) 0.41870(13)
F59 F 0.1101(4) 0.50404(11) 0.42253(12)
F60 F 0.2118(5) 0.51536(12) 0.46450(10)
C95 C 0.1939(4) 0.86508(15) 0.47699(11)
C96 C 0.2553(4) 0.87663(15) 0.45072(10)
C97 C 0.1978(4) 0.89976(15) 0.42102(10)
C98 C 0.0702(4) 0.88481(14) 0.41907(10)
C99 C 0.0060(4) 0.87008(14) 0.44680(10)
C100 C 0.0646(4) 0.87389(15) 0.48060(10)
C101 C 0.0313(4) 0.83103(16) 0.50100(10)
C102 C 0.1341(4) 0.80549(16) 0.51105(10)
C103 C 0.2318(4) 0.82583(16) 0.49634(10)
C104 C 0.3311(4) 0.79872(16) 0.48865(10)
C105 C 0.3948(4) 0.80993(16) 0.45944(10)
C106 C 0.3560(4) 0.84974(15) 0.44205(10)
C107 C 0.3649(4) 0.85244(15) 0.40756(10)
C108 C 0.2667(4) 0.87517(15) 0.39392(10)
C109 C 0.2235(4) 0.85976(15) 0.36469(10)
C110 C 0.0963(4) 0.87330(16) 0.35708(10)
C111 C 0.0269(4) 0.87503(14) 0.38887(11)
C112 C -0.0773(4) 0.84858(15) 0.38500(11)
C113 C -0.1403(4) 0.83337(15) 0.41145(11)
C114 C -0.0979(4) 0.84520(15) 0.44310(10)
C115 C -0.1601(4) 0.82115(16) 0.47168(11)
C116 C -0.0703(4) 0.80764(16) 0.49767(10)
C117 C -0.0760(4) 0.75766(16) 0.50384(11)
C118 C 0.0214(5) 0.73193(16) 0.51500(11)
C119 C 0.1305(4) 0.75691(16) 0.51890(10)
C120 C 0.2365(5) 0.73215(17) 0.51475(11)
C121 C 0.3331(4) 0.75205(16) 0.50072(10)
C122 C 0.4138(4) 0.71304(17) 0.48805(11)
C123 C 0.4538(4) 0.72393(16) 0.45404(11)
C124 C 0.4533(4) 0.77173(16) 0.44224(11)
C125 C 0.4698(4) 0.77758(16) 0.40862(11)
C126 C 0.4212(4) 0.81752(15) 0.39104(10)
C127 C 0.3824(4) 0.80331(15) 0.36010(10)
C128 C 0.2817(4) 0.82278(15) 0.34759(10)
C129 C 0.2209(4) 0.79479(17) 0.32052(10)
C130 C 0.0901(4) 0.79746(17) 0.32404(10)
C131 C 0.0347(4) 0.83218(16) 0.34013(10)
C132 C -0.0728(4) 0.82246(16) 0.35538(11)
C133 C -0.1299(4) 0.77881(16) 0.35252(11)
C134 C -0.2071(5) 0.76672(17) 0.37765(12)
C135 C -0.2149(4) 0.79370(16) 0.40625(11)
C136 C -0.2421(4) 0.76164(16) 0.43272(12)
C137 C -0.2054(4) 0.77212(16) 0.46282(11)
C138 C -0.1578(4) 0.73629(16) 0.48254(11)
C139 C -0.1459(5) 0.68860(17) 0.47148(12)
C140 C -0.0590(5) 0.66187(16) 0.48676(12)
C141 C 0.0231(5) 0.68259(17) 0.50730(11)
C142 C 0.1324(5) 0.65776(17) 0.50409(12)
C143 C 0.2355(5) 0.68120(16) 0.50773(12)
C144 C 0.3329(5) 0.66947(17) 0.48869(12)
C145 C 0.3217(5) 0.63521(16) 0.46488(12)
C146 C 0.4136(5) 0.63530(16) 0.43853(13)
C147 C 0.4605(4) 0.68619(16) 0.43248(12)
C148 C 0.4618(4) 0.69438(16) 0.39876(11)
C149 C 0.4744(4) 0.73904(16) 0.38701(11)
C150 C 0.4301(4) 0.75321(16) 0.35306(11)
C151 C 0.3298(5) 0.72072(16) 0.34252(11)
C152 C 0.2399(5) 0.74074(16) 0.32610(11)
C153 C 0.1307(5) 0.71745(17) 0.32361(11)
C154 C 0.0392(5) 0.75144(17) 0.32256(10)
C155 C -0.0715(5) 0.74153(17) 0.33503(11)
C156 C -0.0939(5) 0.69331(18) 0.34371(12)
C157 C -0.1697(5) 0.68223(18) 0.36988(13)
C158 C -0.2242(5) 0.71721(17) 0.38660(12)
C159 C -0.2360(4) 0.71356(17) 0.42080(12)
C160 C -0.1833(5) 0.67698(16) 0.43892(12)
C161 C -0.1228(5) 0.63937(16) 0.42134(13)
C162 C -0.0292(5) 0.61317(16) 0.43641(13)
C163 C -0.0109(5) 0.61588(16) 0.47272(13)
C164 C 0.1203(5) 0.62146(16) 0.48084(13)
C165 C 0.2129(5) 0.61050(16) 0.46097(13)
C166 C 0.1829(5) 0.58267(17) 0.43029(13)
C167 C 0.2550(5) 0.60206(16) 0.40214(13)
C168 C 0.3577(5) 0.62528(16) 0.40538(12)
C169 C 0.3911(5) 0.65945(17) 0.38244(12)
C170 C 0.3172(5) 0.67328(17) 0.35640(12)
C171 C 0.2094(5) 0.64884(17) 0.35236(12)
C172 C 0.1135(5) 0.67120(17) 0.33593(11)
C173 C -0.0025(5) 0.65930(17) 0.34356(12)
C174 C -0.0257(5) 0.62595(17) 0.36926(14)
C175 C -0.1232(5) 0.64223(17) 0.38737(14)
C176 C 0.0634(5) 0.60389(16) 0.38462(13)
C177 C 0.0583(5) 0.59482(16) 0.41826(14)
C178 C 0.1818(5) 0.61240(17) 0.37522(13)
C179 C 0.2160(5) 0.95392(17) 0.42169(13)
C180 C 0.0386(4) 0.92162(16) 0.49816(11)
C181 C 0.0852(5) 0.91970(18) 0.33708(12)
C182 C -0.2618(5) 0.85212(17) 0.48277(12)
C183 C 0.5176(5) 0.71020(18) 0.51193(12)
C184 C 0.2564(5) 0.81226(19) 0.28674(11)
C185 C 0.5109(6) 0.59980(19) 0.44528(15)
C186 C 0.5290(5) 0.75128(19) 0.32861(12)
C187 C -0.0668(6) 0.57307(19) 0.48939(15)
C188 C 0.1996(6) 0.52791(19) 0.43457(17)
F1 F 0.7662(11) 0.4818(3) 0.0482(2)
F2 F 0.7070(11) 0.4392(4) 0.0858(3)
F3 F 0.8841(6) 0.4391(2) 0.0756(2)
F4 F 0.8744(3) 0.55967(17) 0.01445(7)
F5 F 1.0445(4) 0.58433(15) 0.01700(8)
F6 F 1.0042(4) 0.51678(13) 0.03491(8)
F7 F 1.0270(4) 0.40346(16) 0.16015(18)
F8 F 0.8663(6) 0.40132(16) 0.13356(17)
F9 F 0.8626(7) 0.39577(15) 0.18502(15)
F10 F 1.3490(3) 0.57930(10) 0.09226(7)
F11 F 1.2361(3) 0.57237(11) 0.05143(7)
F12 F 1.3184(3) 0.63980(11) 0.06220(7)
F13 F 0.5233(3) 0.77795(10) 0.09361(8)
F14 F 0.4422(3) 0.70957(11) 0.08755(8)
F15 F 0.4021(3) 0.75173(12) 0.12899(8)
F16 F 0.7331(4) 0.46431(15) 0.27546(9)
F17 F 0.6443(4) 0.43764(16) 0.23610(12)
F18 F 0.8262(5) 0.42288(15) 0.24500(15)
F19 F 0.5331(3) 0.79975(12) 0.22748(9)
F20 F 0.4410(3) 0.78566(14) 0.18338(9)
F21 F 0.4083(3) 0.74263(12) 0.22473(9)
F22 F 0.3983(3) 0.51803(10) 0.21657(8)
F23 F 0.4145(3) 0.57319(13) 0.25185(8)
F24 F 0.5096(3) 0.50932(14) 0.25777(9)
F25 F 1.0288(3) 0.84965(11) 0.21230(8)
F26 F 1.0508(3) 0.85591(10) 0.16109(8)
F27 F 1.1865(3) 0.82280(12) 0.18969(9)
F28 F 0.7918(4) 0.84874(12) 0.22899(8)
F29 F 0.8929(4) 0.82053(13) 0.26739(9)
F30 F 0.7132(4) 0.81057(14) 0.26687(10)
C1 C 0.8129(4) 0.58524(16) 0.07274(10)
C2 C 0.7510(4) 0.55250(16) 0.08861(10)
C3 C 0.8069(4) 0.50756(15) 0.10251(11)
C4 C 0.9357(4) 0.51727(15) 0.11051(10)
C5 C 1.0000(4) 0.55448(15) 0.09481(10)
C6 C 0.9422(4) 0.58189(15) 0.06660(10)
C7 C 0.9756(4) 0.63458(15) 0.06867(10)
C8 C 0.8728(4) 0.66320(15) 0.07119(9)
C9 C 0.7742(4) 0.63334(15) 0.07377(10)
C10 C 0.6730(4) 0.64785(16) 0.09102(10)
C11 C 0.6101(4) 0.61223(16) 0.10882(10)
C12 C 0.6496(4) 0.56517(16) 0.10629(11)
C13 C 0.6398(4) 0.53269(15) 0.13255(11)
C14 C 0.7381(4) 0.50219(15) 0.13405(11)
C15 C 0.7817(4) 0.48865(15) 0.16384(11)
C16 C 0.9071(5) 0.47136(15) 0.16456(11)
C17 C 0.9781(4) 0.49815(15) 0.13857(11)
C18 C 1.0815(4) 0.51577(15) 0.15291(11)
C19 C 1.1454(4) 0.55179(15) 0.13820(11)
C20 C 1.1046(4) 0.57075(15) 0.10839(10)
C21 C 1.1657(4) 0.61588(15) 0.09632(10)
C22 C 1.0771(4) 0.65017(15) 0.08144(10)
C23 C 1.0806(4) 0.69562(15) 0.09748(11)
C24 C 0.9822(4) 0.72530(15) 0.09925(11)
C25 C 0.8747(4) 0.70860(15) 0.08532(10)
C26 C 0.7683(4) 0.72439(15) 0.09829(10)
C27 C 0.6706(4) 0.69556(16) 0.10101(10)
C28 C 0.5899(4) 0.71457(17) 0.12704(11)
C29 C 0.5507(4) 0.67565(16) 0.14915(11)
C30 C 0.5502(4) 0.62682(17) 0.13837(11)
C31 C 0.5333(4) 0.59184(16) 0.16228(11)
C32 C 0.5841(4) 0.54533(15) 0.16011(11)
C33 C 0.6226(4) 0.52878(15) 0.19054(11)
C34 C 0.7229(5) 0.50199(15) 0.19265(11)
C35 C 0.7828(5) 0.49961(16) 0.22564(12)
C36 C 0.9126(5) 0.50133(16) 0.22210(11)
C37 C 0.9688(5) 0.48853(16) 0.19509(11)
C38 C 1.0765(4) 0.51028(16) 0.18706(11)
C39 C 1.1332(4) 0.54243(18) 0.20791(11)
C40 C 1.2091(5) 0.57503(19) 0.19281(12)
C41 C 1.2193(4) 0.57905(17) 0.15948(11)
C42 C 1.2454(4) 0.62758(18) 0.15204(12)
C43 C 1.2102(4) 0.64596(17) 0.12448(11)
C44 C 1.1622(4) 0.69381(17) 0.12355(12)
C45 C 1.1502(5) 0.72069(17) 0.15182(12)
C46 C 1.0641(5) 0.75546(17) 0.15084(11)
C47 C 0.9795(5) 0.75726(15) 0.12577(11)
C48 C 0.8718(5) 0.77316(15) 0.13843(11)
C49 C 0.7683(5) 0.75804(15) 0.12545(11)
C50 C 0.6716(5) 0.74938(16) 0.14495(12)
C51 C 0.6809(5) 0.75498(17) 0.17842(12)
C52 C 0.5900(5) 0.73143(18) 0.19869(13)
C53 C 0.5440(4) 0.68587(17) 0.18206(11)
C54 C 0.5411(4) 0.64896(18) 0.20512(11)
C55 C 0.5276(4) 0.60363(17) 0.19543(12)
C56 C 0.5736(4) 0.56139(18) 0.21696(12)
C57 C 0.6720(5) 0.57749(18) 0.23935(11)
C58 C 0.7614(5) 0.54670(18) 0.24409(11)
C59 C 0.8726(5) 0.56321(17) 0.25652(10)
C60 C 0.9644(5) 0.53636(17) 0.24307(11)
C61 C 1.0735(4) 0.55596(19) 0.23731(11)
C62 C 1.0948(4) 0.60126(19) 0.25053(11)
C63 C 1.1723(5) 0.6345(2) 0.23472(11)
C64 C 1.2256(5) 0.62177(19) 0.20696(12)
C65 C 1.2388(4) 0.65529(19) 0.18173(12)
C66 C 1.1885(4) 0.69971(19) 0.18243(11)
C67 C 1.1243(5) 0.71437(18) 0.21205(12)
C68 C 1.0305(5) 0.74818(17) 0.21081(11)
C69 C 1.0123(5) 0.77867(17) 0.18111(12)
C70 C 0.8818(5) 0.78123(16) 0.17202(12)
C71 C 0.7892(5) 0.77132(16) 0.19178(12)
C72 C 0.8172(5) 0.76545(18) 0.22796(12)
C73 C 0.7458(5) 0.72470(19) 0.24185(11)
C74 C 0.6457(5) 0.70932(18) 0.22881(12)
C75 C 0.6120(5) 0.6617(2) 0.23296(11)
C76 C 0.6844(5) 0.62666(18) 0.24841(11)
C77 C 0.7919(4) 0.64303(17) 0.26216(10)
C78 C 0.8878(4) 0.61089(17) 0.26599(10)
C79 C 1.0044(4) 0.62813(18) 0.26450(10)
C80 C 1.0260(5) 0.67728(18) 0.25792(11)
C81 C 1.1243(5) 0.68145(19) 0.23745(11)
C82 C 0.9351(5) 0.70786(17) 0.25482(10)
C83 C 0.9405(5) 0.74585(17) 0.23239(12)
C84 C 0.8168(5) 0.69229(18) 0.25871(10)
C85 C 0.7887(5) 0.46531(18) 0.07875(13)
C86 C 0.9691(5) 0.56070(17) 0.03271(11)
C87 C 0.9153(6) 0.41653(18) 0.16135(14)
C88 C 1.2684(4) 0.60209(17) 0.07478(11)
C89 C 0.4896(5) 0.73894(18) 0.10946(12)
C90 C 0.7460(6) 0.4548(2) 0.24516(14)
C91 C 0.4929(5) 0.7655(2) 0.20850(14)
C92 C 0.4737(5) 0.5386(2) 0.23602(13)
C93 C 1.0695(5) 0.8277(2) 0.18583(15)
C94 C 0.8031(6) 0.8132(2) 0.24726(14)
F61? F 0.8367(19) 0.4243(4) 0.0936(5)
F62? F 0.833(2) 0.4707(6) 0.0530(4)
F63? F 0.6708(16) 0.4519(9) 0.0796(6)
F64? F 0.9878(17) 0.4029(4) 0.1393(5)
F65? F 0.8197(12) 0.3942(3) 0.1564(4)
F66? F 0.9554(15) 0.3969(3) 0.1914(3)
F67? F 0.1163(9) 0.9791(2) 0.4143(3)
F68? F 0.2986(13) 0.9688(3) 0.4066(3)
F69? F 0.2312(15) 0.9694(3) 0.4540(2)
F70? F 0.1343(10) 0.9157(3) 0.3106(2)
F71? F 0.1287(8) 0.9568(2) 0.35405(18)
F72? F -0.0311(7) 0.9304(3) 0.33287(19)
F73? F 0.161(2) 0.8319(13) 0.2730(5)
C189? C 0.774(2) 0.9075(9) 0.0746(6)
C190? C 0.882(3) 0.8918(8) 0.0859(5)
H1? H 0.8858 0.8696 0.1031
C191? C 0.983(2) 0.9084(10) 0.0720(7)
H2? H 1.0568 0.8976 0.0797
C192? C 0.978(2) 0.9408(10) 0.0468(7)
H3? H 1.0471 0.9522 0.0373
C193? C 0.870(3) 0.9566(8) 0.0355(5)
H4? H 0.8664 0.9787 0.0183
C194? C 0.769(2) 0.9399(9) 0.0494(6)
H5? H 0.6953 0.9507 0.0417
C195? C 0.672(2) 0.8800(8) 0.0897(6)
H6? H 0.6708 0.8476 0.0813
H7? H 0.5987 0.8959 0.0841
H8? H 0.6816 0.8793 0.1132
C196? C 0.661(3) 0.5823(10) 0.3346(7)
C197? C 0.353(4) 0.5009(15) 0.3315(10)
C198? C 0.454(4) 0.5210(16) 0.3406(11)
C199? C 0.582(4) 0.5845(14) 0.3312(9)
C200? C 0.568(5) 0.5338(18) 0.3458(12)
C201? C 0.726(5) 0.536(2) 0.3468(13)
C202? C 0.101(4) 0.5035(18) 0.3217(12)
F74? F 0.7603(15) 0.4174(5) 0.2242(4)
loop_
_geom_bond_atom_site_label_1
_geom_bond_atom_site_label_2
_geom_bond_site_symmetry_1
_geom_bond_site_symmetry_2
F1 C85 1_555 1_555
F2 C85 1_555 1_555
F3 C85 1_555 1_555
F4 C86 1_555 1_555
F5 C86 1_555 1_555
F6 C86 1_555 1_555
F7 C87 1_555 1_555
F8 C87 1_555 1_555
F9 C87 1_555 1_555
F10 C88 1_555 1_555
F11 C88 1_555 1_555
F12 C88 1_555 1_555
F13 C89 1_555 1_555
F14 C89 1_555 1_555
F15 C89 1_555 1_555
F16 C90 1_555 1_555
F17 C90 1_555 1_555
F18 C90 1_555 1_555
F19 C91 1_555 1_555
F20 C91 1_555 1_555
F21 C91 1_555 1_555
F22 C92 1_555 1_555
F23 C92 1_555 1_555
F24 C92 1_555 1_555
F25 C93 1_555 1_555
F26 C93 1_555 1_555
F27 C93 1_555 1_555
F28 C94 1_555 1_555
F29 C94 1_555 1_555
F30 C94 1_555 1_555
C1 C2 1_555 1_555
C2 C3 1_555 1_555
C3 C4 1_555 1_555
C4 C5 1_555 1_555
C5 C6 1_555 1_555
C6 C1 1_555 1_555
C7 C6 1_555 1_555
C8 C7 1_555 1_555
C9 C1 1_555 1_555
C10 C9 1_555 1_555
C11 C10 1_555 1_555
C12 C2 1_555 1_555
C13 C12 1_555 1_555
C14 C3 1_555 1_555
C15 C14 1_555 1_555
C16 C15 1_555 1_555
C17 C4 1_555 1_555
C18 C17 1_555 1_555
C19 C18 1_555 1_555
C20 C5 1_555 1_555
C21 C20 1_555 1_555
C22 C7 1_555 1_555
C23 C22 1_555 1_555
C24 C23 1_555 1_555
C25 C8 1_555 1_555
C26 C25 1_555 1_555
C27 C10 1_555 1_555
C28 C27 1_555 1_555
C29 C28 1_555 1_555
C30 C11 1_555 1_555
C31 C30 1_555 1_555
C32 C13 1_555 1_555
C33 C32 1_555 1_555
C34 C15 1_555 1_555
C35 C34 1_555 1_555
C36 C35 1_555 1_555
C37 C16 1_555 1_555
C38 C18 1_555 1_555
C39 C38 1_555 1_555
C40 C39 1_555 1_555
C41 C19 1_555 1_555
C42 C41 1_555 1_555
C43 C21 1_555 1_555
C44 C23 1_555 1_555
C45 C44 1_555 1_555
C46 C45 1_555 1_555
C47 C24 1_555 1_555
C48 C47 1_555 1_555
C49 C26 1_555 1_555
C50 C28 1_555 1_555
C51 C50 1_555 1_555
C52 C51 1_555 1_555
C53 C29 1_555 1_555
C54 C53 1_555 1_555
C55 C31 1_555 1_555
C56 C33 1_555 1_555
C57 C56 1_555 1_555
C58 C35 1_555 1_555
C59 C58 1_555 1_555
C60 C36 1_555 1_555
C61 C39 1_555 1_555
C62 C61 1_555 1_555
C63 C62 1_555 1_555
C64 C40 1_555 1_555
C65 C42 1_555 1_555
C66 C45 1_555 1_555
C67 C66 1_555 1_555
C68 C67 1_555 1_555
C69 C46 1_555 1_555
C70 C48 1_555 1_555
C71 C51 1_555 1_555
C72 C71 1_555 1_555
C73 C72 1_555 1_555
C74 C52 1_555 1_555
C75 C54 1_555 1_555
C76 C57 1_555 1_555
C77 C76 1_555 1_555
C78 C59 1_555 1_555
C79 C62 1_555 1_555
C80 C79 1_555 1_555
C81 C63 1_555 1_555
C82 C80 1_555 1_555
C83 C68 1_555 1_555
C84 C73 1_555 1_555
C85 C3 1_555 1_555
C86 C6 1_555 1_555
C87 C16 1_555 1_555
C88 C21 1_555 1_555
C89 C28 1_555 1_555
C90 C35 1_555 1_555
C91 C52 1_555 1_555
C92 C56 1_555 1_555
C93 C69 1_555 1_555
C94 C72 1_555 1_555
F31 C179 1_555 1_555
F32 C179 1_555 1_555
F33 C179 1_555 1_555
F34 C180 1_555 1_555
F35 C180 1_555 1_555
F36 C180 1_555 1_555
F37 C181 1_555 1_555
F38 C181 1_555 1_555
F39 C181 1_555 1_555
F40 C182 1_555 1_555
F41 C182 1_555 1_555
F42 C182 1_555 1_555
F43 C183 1_555 1_555
F44 C183 1_555 1_555
F45 C183 1_555 1_555
F46 C184 1_555 1_555
F47 C184 1_555 1_555
F48 C184 1_555 1_555
F49 C185 1_555 1_555
F50 C185 1_555 1_555
F51 C185 1_555 1_555
F52 C186 1_555 1_555
F53 C186 1_555 1_555
F54 C186 1_555 1_555
F55 C187 1_555 1_555
F56 C187 1_555 1_555
F57 C187 1_555 1_555
F58 C188 1_555 1_555
F59 C188 1_555 1_555
F60 C188 1_555 1_555
C95 C96 1_555 1_555
C96 C97 1_555 1_555
C97 C98 1_555 1_555
C98 C99 1_555 1_555
C99 C100 1_555 1_555
C100 C95 1_555 1_555
C101 C100 1_555 1_555
C102 C101 1_555 1_555
C103 C95 1_555 1_555
C104 C103 1_555 1_555
C105 C104 1_555 1_555
C106 C96 1_555 1_555
C107 C106 1_555 1_555
C108 C97 1_555 1_555
C109 C108 1_555 1_555
C110 C109 1_555 1_555
C111 C98 1_555 1_555
C112 C111 1_555 1_555
C113 C112 1_555 1_555
C114 C99 1_555 1_555
C115 C114 1_555 1_555
C116 C101 1_555 1_555
C117 C116 1_555 1_555
C118 C117 1_555 1_555
C119 C102 1_555 1_555
C120 C119 1_555 1_555
C121 C104 1_555 1_555
C122 C121 1_555 1_555
C123 C122 1_555 1_555
C124 C105 1_555 1_555
C125 C124 1_555 1_555
C126 C107 1_555 1_555
C127 C126 1_555 1_555
C128 C109 1_555 1_555
C129 C128 1_555 1_555
C130 C129 1_555 1_555
C131 C110 1_555 1_555
C132 C112 1_555 1_555
C133 C132 1_555 1_555
C134 C133 1_555 1_555
C135 C113 1_555 1_555
C136 C135 1_555 1_555
C137 C115 1_555 1_555
C138 C117 1_555 1_555
C139 C138 1_555 1_555
C140 C139 1_555 1_555
C141 C118 1_555 1_555
C142 C141 1_555 1_555
C143 C120 1_555 1_555
C144 C122 1_555 1_555
C145 C144 1_555 1_555
C146 C145 1_555 1_555
C147 C123 1_555 1_555
C148 C147 1_555 1_555
C149 C125 1_555 1_555
C150 C127 1_555 1_555
C151 C150 1_555 1_555
C152 C129 1_555 1_555
C153 C152 1_555 1_555
C154 C130 1_555 1_555
C155 C133 1_555 1_555
C156 C155 1_555 1_555
C157 C156 1_555 1_555
C158 C134 1_555 1_555
C159 C136 1_555 1_555
C160 C139 1_555 1_555
C161 C160 1_555 1_555
C162 C161 1_555 1_555
C163 C140 1_555 1_555
C164 C142 1_555 1_555
C165 C145 1_555 1_555
C166 C165 1_555 1_555
C167 C166 1_555 1_555
C168 C146 1_555 1_555
C169 C148 1_555 1_555
C170 C151 1_555 1_555
C171 C170 1_555 1_555
C172 C153 1_555 1_555
C173 C156 1_555 1_555
C174 C173 1_555 1_555
C175 C157 1_555 1_555
C176 C174 1_555 1_555
C177 C162 1_555 1_555
C178 C167 1_555 1_555
C179 C97 1_555 1_555
C180 C100 1_555 1_555
C181 C110 1_555 1_555
C182 C115 1_555 1_555
C183 C122 1_555 1_555
C184 C129 1_555 1_555
C185 C146 1_555 1_555
C186 C150 1_555 1_555
C187 C163 1_555 1_555
C188 C166 1_555 1_555
C8 C9 1_555 1_555
C11 C12 1_555 1_555
C13 C14 1_555 1_555
C16 C17 1_555 1_555
C19 C20 1_555 1_555
C21 C22 1_555 1_555
C24 C25 1_555 1_555
C26 C27 1_555 1_555
C29 C30 1_555 1_555
C31 C32 1_555 1_555
C33 C34 1_555 1_555
C36 C37 1_555 1_555
C37 C38 1_555 1_555
C40 C41 1_555 1_555
C42 C43 1_555 1_555
C43 C44 1_555 1_555
C46 C47 1_555 1_555
C48 C49 1_555 1_555
C49 C50 1_555 1_555
C52 C53 1_555 1_555
C54 C55 1_555 1_555
C55 C56 1_555 1_555
C57 C58 1_555 1_555
C59 C60 1_555 1_555
C60 C61 1_555 1_555
C63 C64 1_555 1_555
C64 C65 1_555 1_555
C65 C66 1_555 1_555
C67 C81 1_555 1_555
C68 C69 1_555 1_555
C69 C70 1_555 1_555
C70 C71 1_555 1_555
C72 C83 1_555 1_555
C73 C74 1_555 1_555
C74 C75 1_555 1_555
C75 C76 1_555 1_555
C77 C78 1_555 1_555
C77 C84 1_555 1_555
C78 C79 1_555 1_555
C80 C81 1_555 1_555
C82 C83 1_555 1_555
C82 C84 1_555 1_555
C102 C103 1_555 1_555
C105 C106 1_555 1_555
C107 C108 1_555 1_555
C110 C111 1_555 1_555
C113 C114 1_555 1_555
C115 C116 1_555 1_555
C118 C119 1_555 1_555
C120 C121 1_555 1_555
C123 C124 1_555 1_555
C125 C126 1_555 1_555
C127 C128 1_555 1_555
C130 C131 1_555 1_555
C131 C132 1_555 1_555
C134 C135 1_555 1_555
C136 C137 1_555 1_555
C137 C138 1_555 1_555
C140 C141 1_555 1_555
C142 C143 1_555 1_555
C143 C144 1_555 1_555
C146 C147 1_555 1_555
C148 C149 1_555 1_555
C149 C150 1_555 1_555
C151 C152 1_555 1_555
C153 C154 1_555 1_555
C154 C155 1_555 1_555
C157 C158 1_555 1_555
C158 C159 1_555 1_555
C159 C160 1_555 1_555
C161 C175 1_555 1_555
C162 C163 1_555 1_555
C163 C164 1_555 1_555
C164 C165 1_555 1_555
C166 C177 1_555 1_555
C167 C168 1_555 1_555
C168 C169 1_555 1_555
C169 C170 1_555 1_555
C171 C172 1_555 1_555
C171 C178 1_555 1_555
C172 C173 1_555 1_555
C174 C175 1_555 1_555
C176 C177 1_555 1_555
C176 C178 1_555 1_555

#END
