
#######################################################################
#
#                 Cambridge Crystallographic Data Centre
#                                CCDC 
#
#######################################################################
#
# If this CIF has been generated from an entry in the Cambridge 
# Structural Database, then it will include bibliographic, chemical, 
# crystal, experimental, refinement or atomic coordinate data resulting 
# from the CCDC's data processing and validation procedures.
#
#######################################################################

data_RICRIG
_chemical_formula_moiety         'C100 F48'
_chemical_name_systematic        hexadecakis(trifluoromethyl)-C84(23)fullerene
_symmetry_cell_setting           triclinic
_symmetry_space_group_name_H-M   'P -1'
_symmetry_Int_Tables_number      2
_space_group_name_Hall           '-P 1'
loop_
_symmetry_equiv_pos_site_id
_symmetry_equiv_pos_as_xyz
1 x,y,z
2 -x,-y,-z
_cell_length_a                   14.0150(10)
_cell_length_b                   14.3630(10)
_cell_length_c                   18.7240(10)
_cell_angle_alpha                80.533(7)
_cell_angle_beta                 75.891(5)
_cell_angle_gamma                67.830(8)
_cell_volume                     3374.1
_exptl_crystal_colour            orange
_exptl_crystal_description       block
_cell_formula_units_Z            2
loop_
_atom_site_label
_atom_site_type_symbol
_atom_site_fract_x
_atom_site_fract_y
_atom_site_fract_z
F1 F 0.5963(6) 0.2268(6) -0.0930(4)
F2 F 0.5167(6) 0.1224(6) -0.0496(4)
F3 F 0.4339(7) 0.2773(7) -0.0753(4)
F4 F 0.7185(7) 0.0631(8) -0.0344(5)
F5 F 0.8224(8) -0.0380(7) 0.0308(5)
F6 F 0.8484(8) 0.0907(7) -0.0271(5)
F7 F 0.9867(7) 0.2128(8) 0.1074(5)
F8 F 0.9244(5) 0.2291(6) 0.0093(4)
F9 F 0.9764(6) 0.0853(6) 0.0675(5)
F10 F 0.2811(19) 0.0832(14) 0.0786(11)
F11 F 0.3022(12) 0.2041(17) 0.0029(7)
F12 F 0.1614(12) 0.2399(15) 0.0804(10)
F13 F 0.7998(9) -0.2001(6) 0.2436(5)
F14 F 0.8828(6) -0.1383(6) 0.1512(5)
F15 F 0.7461(7) -0.1610(6) 0.1418(5)
F16 F 0.9358(7) -0.1106(6) 0.2854(5)
F17 F 0.9930(6) -0.0216(7) 0.1988(4)
F18 F 0.9772(6) 0.0073(6) 0.3097(4)
F19 F 0.7458(6) 0.5509(6) 0.0584(4)
F20 F 0.8290(5) 0.5195(5) 0.1458(4)
F21 F 0.8773(5) 0.4142(6) 0.0643(4)
F22 F 0.0510(7) 0.4593(8) 0.1290(5)
F23 F 0.0146(7) 0.3406(7) 0.2026(6)
F24 F -0.0182(7) 0.4868(10) 0.2410(6)
F25 F 0.3199(7) -0.0519(6) 0.1794(5)
F26 F 0.2543(11) -0.0468(10) 0.2967(6)
F27 F 0.1705(9) 0.0495(8) 0.2226(7)
F28 F 0.589(2) -0.2002(13) 0.2448(11)
F29 F 0.541(3) -0.2014(17) 0.3599(13)
F30 F 0.440(2) -0.1604(18) 0.297(2)
F31 F 0.8552(6) 0.1578(5) 0.4689(4)
F32 F 0.8737(7) 0.0110(6) 0.4432(4)
F33 F 0.7487(6) 0.0844(6) 0.5277(4)
F34 F 0.1547(9) 0.7150(10) 0.1305(8)
F35 F 0.0588(9) 0.6249(7) 0.1624(7)
F36 F 0.0800(10) 0.7062(8) 0.2396(6)
F37 F 0.0425(8) 0.2214(8) 0.4332(5)
F38 F -0.0207(7) 0.3338(8) 0.3513(6)
F39 F 0.0455(6) 0.1817(7) 0.3248(5)
F40 F 0.1910(8) 0.7752(6) 0.2948(5)
F41 F 0.1149(6) 0.7084(6) 0.3873(5)
F42 F 0.2398(6) 0.7500(6) 0.3925(5)
F43 F 0.1491(8) 0.3186(8) 0.5913(4)
F44 F 0.0451(7) 0.3494(6) 0.5213(5)
F45 F 0.1297(8) 0.1936(7) 0.5522(5)
F46 F 0.2446(6) 0.5012(8) 0.5914(4)
F47 F 0.1867(8) 0.6215(7) 0.5118(5)
F48 F 0.1167(7) 0.5047(7) 0.5454(5)
C1 C 0.6844(9) 0.2305(9) 0.0576(6)
C2 C 0.5883(10) 0.2852(10) 0.0361(6)
C3 C 0.5058(10) 0.2377(9) 0.0339(6)
C4 C 0.5191(9) 0.1490(10) 0.0893(6)
C5 C 0.6164(9) 0.0892(9) 0.1142(7)
C6 C 0.7156(10) 0.1200(9) 0.0762(7)
C7 C 0.7804(10) 0.1095(10) 0.1349(7)
C8 C 0.8184(10) 0.2044(10) 0.1261(7)
C9 C 0.7287(9) 0.2812(8) 0.0884(6)
C10 C 0.6813(7) 0.3800(8) 0.1037(5)
C11 C 0.5771(9) 0.4376(8) 0.0864(6)
C12 C 0.5367(9) 0.3877(9) 0.0497(6)
C13 C 0.4266(10) 0.4114(9) 0.0612(6)
C14 C 0.4006(9) 0.3241(9) 0.0615(6)
C15 C 0.3193(11) 0.3110(10) 0.1112(6)
C16 C 0.3190(10) 0.2024(9) 0.1291(7)
C17 C 0.4270(10) 0.1317(9) 0.1314(7)
C18 C 0.4300(10) 0.0644(9) 0.1927(6)
C19 C 0.5253(10) 0.0087(8) 0.2172(6)
C20 C 0.6172(9) 0.0246(9) 0.1767(6)
C21 C 0.7214(11) -0.0232(9) 0.2106(7)
C22 C 0.7811(11) 0.0462(9) 0.1920(7)
C23 C 0.8208(9) 0.0593(9) 0.2614(7)
C24 C 0.8113(10) 0.1643(9) 0.2644(7)
C25 C 0.8093(8) 0.2360(9) 0.1990(7)
C26 C 0.7755(9) 0.3399(10) 0.2076(7)
C27 C 0.7211(9) 0.4206(9) 0.1533(6)
C28 C 0.6355(10) 0.4955(8) 0.2015(7)
C29 C 0.5345(10) 0.5462(8) 0.1890(6)
C30 C 0.5036(9) 0.5217(8) 0.1308(6)
C31 C 0.3974(10) 0.5458(9) 0.1340(6)
C32 C 0.3558(9) 0.4880(8) 0.1020(6)
C33 C 0.2629(9) 0.4826(8) 0.1448(6)
C34 C 0.2442(9) 0.3906(10) 0.1520(7)
C35 C 0.1612(9) 0.3761(9) 0.2181(7)
C36 C 0.1974(10) 0.2640(9) 0.2463(6)
C37 C 0.2623(10) 0.1861(10) 0.2074(6)
C38 C 0.3205(11) 0.0853(10) 0.2371(7)
C39 C 0.3235(11) 0.0842(10) 0.3201(7)
C40 C 0.4151(10) 0.0235(10) 0.3424(7)
C41 C 0.5169(11) -0.0475(11) 0.2942(8)
C42 C 0.5961(11) -0.0296(8) 0.3316(6)
C43 C 0.6842(10) -0.0184(8) 0.2912(6)
C44 C 0.7392(11) 0.0313(10) 0.3221(7)
C45 C 0.6876(11) 0.0810(9) 0.3857(6)
C46 C 0.7286(9) 0.1529(9) 0.4047(7)
C47 C 0.7784(9) 0.2026(9) 0.3338(7)
C48 C 0.7436(9) 0.3082(9) 0.3388(6)
C49 C 0.7418(9) 0.3738(9) 0.2771(6)
C50 C 0.6542(8) 0.4688(9) 0.2762(6)
C51 C 0.5705(9) 0.4965(8) 0.3393(6)
C52 C 0.4715(9) 0.5628(8) 0.3256(7)
C53 C 0.4524(10) 0.5870(8) 0.2505(6)
C54 C 0.3463(9) 0.6085(8) 0.2525(6)
C55 C 0.3184(9) 0.5887(8) 0.1940(6)
C56 C 0.2222(9) 0.5601(9) 0.2033(7)
C57 C 0.1973(9) 0.5039(8) 0.2808(7)
C58 C 0.1702(9) 0.4212(10) 0.2868(7)
C59 C 0.1750(7) 0.3554(8) 0.3466(6)
C60 C 0.1670(11) 0.2533(9) 0.3303(7)
C61 C 0.2504(11) 0.1656(9) 0.3627(6)
C62 C 0.2737(10) 0.1790(10) 0.4266(7)
C63 C 0.3657(11) 0.1187(9) 0.4478(6)
C64 C 0.4325(11) 0.0408(9) 0.4078(7)
C65 C 0.5465(11) 0.0201(9) 0.3952(7)
C66 C 0.5892(10) 0.0781(10) 0.4238(6)
C67 C 0.5130(10) 0.1589(9) 0.4690(7)
C68 C 0.5472(10) 0.2422(9) 0.4733(6)
C69 C 0.6417(10) 0.2437(8) 0.4391(6)
C70 C 0.6542(9) 0.3327(9) 0.4027(6)
C71 C 0.5703(9) 0.4278(8) 0.4032(6)
C72 C 0.4778(9) 0.4296(8) 0.4481(6)
C73 C 0.3769(8) 0.4996(9) 0.4343(7)
C74 C 0.3749(9) 0.5638(8) 0.3746(6)
C75 C 0.2853(10) 0.6041(8) 0.3322(7)
C76 C 0.2328(9) 0.5239(9) 0.3410(6)
C77 C 0.2368(8) 0.4517(9) 0.4051(7)
C78 C 0.2046(10) 0.3656(10) 0.4072(7)
C79 C 0.2269(8) 0.2800(9) 0.4661(6)
C80 C 0.3283(11) 0.2699(9) 0.4924(6)
C81 C 0.4057(11) 0.1756(9) 0.4824(6)
C82 C 0.3533(9) 0.3542(10) 0.4937(6)
C83 C 0.4583(10) 0.3415(9) 0.4864(6)
C84 C 0.2914(10) 0.4583(9) 0.4662(6)
C85 C 0.5125(11) 0.2140(12) -0.0473(8)
C86 C 0.7813(10) 0.0571(9) 0.0126(6)
C87 C 0.9299(11) 0.1795(11) 0.0759(7)
C88 C 0.2622(10) 0.1829(10) 0.0707(7)
C89 C 0.7863(11) -0.1327(10) 0.1875(7)
C90 C 0.9358(10) -0.0193(11) 0.2629(7)
C91 C 0.7987(11) 0.4755(9) 0.1044(7)
C92 C 0.0522(11) 0.4160(12) 0.1979(8)
C93 C 0.2701(13) 0.0074(11) 0.2327(7)
C94 C 0.5260(14) -0.1501(10) 0.2971(9)
C95 C 0.8051(10) 0.1006(10) 0.4623(7)
C96 C 0.1222(10) 0.6504(10) 0.1864(7)
C97 C 0.0605(10) 0.2436(10) 0.3594(7)
C98 C 0.2082(11) 0.7108(10) 0.3539(7)
C99 C 0.1363(12) 0.2836(11) 0.5319(7)
C100 C 0.2084(12) 0.5200(11) 0.5286(7)
F49? F 0.342(2) 0.119(2) 0.0202(12)
F50? F 0.2075(19) 0.1219(16) 0.1013(11)
F51? F 0.214(3) 0.2523(18) 0.0395(16)
F52? F 0.053(4) 0.341(3) 0.149(3)
F53? F -0.008(3) 0.417(3) 0.266(2)
F54? F 0.045(4) 0.498(4) 0.169(3)
F55? F 0.474(2) -0.1871(18) 0.3595(13)
F56? F 0.491(3) -0.1708(14) 0.2451(13)
F57? F 0.6230(19) -0.2142(15) 0.2866(18)
F58? F 0.039(4) 0.638(4) 0.232(3)
F59? F 0.135(4) 0.724(4) 0.197(3)
F60? F 0.121(5) 0.663(4) 0.122(3)
F61? F 0.222(3) 0.571(3) 0.558(2)
F62? F 0.131(6) 0.582(7) 0.513(5)
F63? F 0.159(4) 0.444(3) 0.584(2)
F64? F 0.000(3) 0.288(3) 0.397(3)
F65? F 0.072(3) 0.148(3) 0.399(2)
loop_
_geom_bond_atom_site_label_1
_geom_bond_atom_site_label_2
_geom_bond_site_symmetry_1
_geom_bond_site_symmetry_2
F1 C85 1_555 1_555
F2 C85 1_555 1_555
F3 C85 1_555 1_555
F4 C86 1_555 1_555
F5 C86 1_555 1_555
F6 C86 1_555 1_555
F7 C87 1_555 1_555
F8 C87 1_555 1_555
F9 C87 1_555 1_555
F10 C88 1_555 1_555
F11 C88 1_555 1_555
F12 C88 1_555 1_555
F13 C89 1_555 1_555
F14 C89 1_555 1_555
F15 C89 1_555 1_555
F16 C90 1_555 1_555
F17 C90 1_555 1_555
F18 C90 1_555 1_555
F19 C91 1_555 1_555
F20 C91 1_555 1_555
F21 C91 1_555 1_555
F22 C92 1_555 1_555
F23 C92 1_555 1_555
F24 C92 1_555 1_555
F25 C93 1_555 1_555
F26 C93 1_555 1_555
F27 C93 1_555 1_555
F28 C94 1_555 1_555
F29 C94 1_555 1_555
F30 C94 1_555 1_555
F31 C95 1_555 1_555
F32 C95 1_555 1_555
F33 C95 1_555 1_555
F34 C96 1_555 1_555
F35 C96 1_555 1_555
F36 C96 1_555 1_555
F37 C97 1_555 1_555
F38 C97 1_555 1_555
F39 C97 1_555 1_555
F40 C98 1_555 1_555
F41 C98 1_555 1_555
F42 C98 1_555 1_555
F43 C99 1_555 1_555
F44 C99 1_555 1_555
F45 C99 1_555 1_555
F46 C100 1_555 1_555
F47 C100 1_555 1_555
F48 C100 1_555 1_555
C1 C2 1_555 1_555
C2 C3 1_555 1_555
C3 C4 1_555 1_555
C4 C5 1_555 1_555
C5 C6 1_555 1_555
C6 C1 1_555 1_555
C7 C6 1_555 1_555
C8 C7 1_555 1_555
C9 C1 1_555 1_555
C10 C9 1_555 1_555
C11 C10 1_555 1_555
C12 C2 1_555 1_555
C13 C12 1_555 1_555
C14 C3 1_555 1_555
C15 C14 1_555 1_555
C16 C15 1_555 1_555
C17 C4 1_555 1_555
C18 C17 1_555 1_555
C19 C18 1_555 1_555
C20 C5 1_555 1_555
C21 C20 1_555 1_555
C22 C7 1_555 1_555
C23 C22 1_555 1_555
C24 C23 1_555 1_555
C25 C8 1_555 1_555
C26 C25 1_555 1_555
C27 C10 1_555 1_555
C28 C27 1_555 1_555
C29 C28 1_555 1_555
C30 C11 1_555 1_555
C31 C30 1_555 1_555
C32 C13 1_555 1_555
C33 C32 1_555 1_555
C34 C15 1_555 1_555
C35 C34 1_555 1_555
C36 C35 1_555 1_555
C37 C16 1_555 1_555
C38 C18 1_555 1_555
C39 C38 1_555 1_555
C40 C39 1_555 1_555
C41 C19 1_555 1_555
C42 C41 1_555 1_555
C43 C21 1_555 1_555
C44 C23 1_555 1_555
C45 C44 1_555 1_555
C46 C45 1_555 1_555
C47 C24 1_555 1_555
C48 C47 1_555 1_555
C49 C26 1_555 1_555
C50 C28 1_555 1_555
C51 C50 1_555 1_555
C52 C51 1_555 1_555
C53 C29 1_555 1_555
C54 C53 1_555 1_555
C55 C31 1_555 1_555
C56 C33 1_555 1_555
C57 C56 1_555 1_555
C58 C35 1_555 1_555
C59 C58 1_555 1_555
C60 C36 1_555 1_555
C61 C39 1_555 1_555
C62 C61 1_555 1_555
C63 C62 1_555 1_555
C64 C40 1_555 1_555
C65 C42 1_555 1_555
C66 C45 1_555 1_555
C67 C66 1_555 1_555
C68 C67 1_555 1_555
C69 C46 1_555 1_555
C70 C48 1_555 1_555
C71 C51 1_555 1_555
C72 C71 1_555 1_555
C73 C72 1_555 1_555
C74 C52 1_555 1_555
C75 C54 1_555 1_555
C76 C57 1_555 1_555
C77 C76 1_555 1_555
C78 C59 1_555 1_555
C79 C62 1_555 1_555
C80 C79 1_555 1_555
C81 C63 1_555 1_555
C82 C80 1_555 1_555
C83 C68 1_555 1_555
C84 C73 1_555 1_555
C85 C3 1_555 1_555
C86 C6 1_555 1_555
C87 C8 1_555 1_555
C88 C16 1_555 1_555
C89 C21 1_555 1_555
C90 C23 1_555 1_555
C91 C27 1_555 1_555
C92 C35 1_555 1_555
C93 C38 1_555 1_555
C94 C41 1_555 1_555
C95 C46 1_555 1_555
C96 C56 1_555 1_555
C97 C60 1_555 1_555
C98 C75 1_555 1_555
C99 C79 1_555 1_555
C100 C84 1_555 1_555
C8 C9 1_555 1_555
C11 C12 1_555 1_555
C13 C14 1_555 1_555
C16 C17 1_555 1_555
C19 C20 1_555 1_555
C21 C22 1_555 1_555
C24 C25 1_555 1_555
C26 C27 1_555 1_555
C29 C30 1_555 1_555
C31 C32 1_555 1_555
C33 C34 1_555 1_555
C36 C37 1_555 1_555
C37 C38 1_555 1_555
C40 C41 1_555 1_555
C42 C43 1_555 1_555
C43 C44 1_555 1_555
C46 C47 1_555 1_555
C48 C49 1_555 1_555
C49 C50 1_555 1_555
C52 C53 1_555 1_555
C54 C55 1_555 1_555
C55 C56 1_555 1_555
C57 C58 1_555 1_555
C59 C60 1_555 1_555
C60 C61 1_555 1_555
C63 C64 1_555 1_555
C64 C65 1_555 1_555
C65 C66 1_555 1_555
C67 C81 1_555 1_555
C68 C69 1_555 1_555
C69 C70 1_555 1_555
C70 C71 1_555 1_555
C72 C83 1_555 1_555
C73 C74 1_555 1_555
C74 C75 1_555 1_555
C75 C76 1_555 1_555
C77 C78 1_555 1_555
C77 C84 1_555 1_555
C78 C79 1_555 1_555
C80 C81 1_555 1_555
C82 C83 1_555 1_555
C82 C84 1_555 1_555

#END
