
#######################################################################
#
#                 Cambridge Crystallographic Data Centre
#                                CCDC 
#
#######################################################################
#
# If this CIF has been generated from an entry in the Cambridge 
# Structural Database, then it will include bibliographic, chemical, 
# crystal, experimental, refinement or atomic coordinate data resulting 
# from the CCDC's data processing and validation procedures.
#
#######################################################################

data_RICREC
_chemical_formula_moiety         'C100 F48,C7 H8'
_chemical_name_systematic        
'hexadecakis(trifluoromethyl)C84fullerene toluene solvate'
_symmetry_cell_setting           triclinic
_symmetry_space_group_name_H-M   'P -1'
_symmetry_Int_Tables_number      2
_space_group_name_Hall           '-P 1'
loop_
_symmetry_equiv_pos_site_id
_symmetry_equiv_pos_as_xyz
1 x,y,z
2 -x,-y,-z
_cell_length_a                   14.1112(7)
_cell_length_b                   15.8918(9)
_cell_length_c                   16.7440(10)
_cell_angle_alpha                72.947(3)
_cell_angle_beta                 79.345(3)
_cell_angle_gamma                77.561(3)
_cell_volume                     3475.6
_exptl_crystal_colour            orange
_exptl_crystal_description       plate
_cell_formula_units_Z            2
loop_
_atom_site_label
_atom_site_type_symbol
_atom_site_fract_x
_atom_site_fract_y
_atom_site_fract_z
F1 F 0.0311(3) 0.6469(2) 0.2365(3)
F2 F 0.1463(4) 0.6659(3) 0.2907(3)
F3 F 0.1526(5) 0.6964(3) 0.1569(3)
F4 F 0.3379(10) 0.6610(3) 0.2883(3)
F5 F 0.4342(5) 0.5868(4) 0.3776(8)
F6 F 0.2796(5) 0.5952(5) 0.4124(6)
F7 F 0.65670(16) 0.47505(17) 0.30928(14)
F8 F 0.66228(13) 0.49947(12) 0.17619(13)
F9 F 0.55905(15) 0.58415(14) 0.24137(19)
F10 F -0.1462(2) 0.4452(2) 0.3459(3)
F11 F -0.07899(19) 0.52662(19) 0.36851(16)
F12 F -0.0990(3) 0.5473(3) 0.2406(3)
F13 F 0.38645(19) 0.32682(13) 0.61719(14)
F14 F 0.42320(18) 0.44571(16) 0.53190(16)
F15 F 0.27437(15) 0.43314(17) 0.56862(15)
F16 F 0.66616(15) 0.33868(14) 0.43995(16)
F17 F 0.57306(15) 0.27717(15) 0.54800(14)
F18 F 0.67321(13) 0.19610(12) 0.47670(13)
F19 F -0.1021(6) 0.2722(7) 0.1210(12)
F20 F -0.1053(5) 0.4131(8) 0.0994(5)
F21 F -0.15851(16) 0.3537(2) 0.21414(18)
F22 F -0.0379(4) 0.2562(3) 0.5672(3)
F23 F -0.07141(15) 0.39344(13) 0.50509(16)
F24 F -0.1303(2) 0.2857(3) 0.4701(3)
F25 F 0.1972(12) 0.2898(11) 0.6497(5)
F26 F 0.1419(14) 0.1684(15) 0.6662(16)
F27 F 0.0568(11) 0.2971(9) 0.6156(4)
F28 F 0.66978(14) 0.24540(14) -0.05991(13)
F29 F 0.75786(14) 0.15436(13) 0.03162(14)
F30 F 0.74840(13) 0.29615(12) 0.00975(13)
F31 F 0.1277(6) 0.2699(5) -0.0814(6)
F32 F 0.0065(3) 0.3407(5) -0.0188(3)
F33 F 0.1164(6) 0.4097(3) -0.0997(4)
F34 F -0.0866(3) 0.0923(4) 0.2927(3)
F35 F -0.1545(4) 0.2078(3) 0.3372(5)
F36 F -0.0900(3) 0.0896(4) 0.4221(4)
F37 F 0.68430(14) -0.07451(12) 0.25316(15)
F38 F 0.75905(13) 0.00201(13) 0.30101(14)
F39 F 0.76662(14) 0.02188(14) 0.16739(15)
F40 F 0.2097(5) 0.1303(9) -0.0529(6)
F41 F 0.3357(8) 0.0340(4) -0.0279(5)
F42 F 0.3499(10) 0.1582(7) -0.1155(5)
F43 F 0.1249(6) -0.0958(5) 0.2849(4)
F44 F 0.1621(5) -0.1349(4) 0.4079(6)
F45 F 0.0299(4) -0.0491(4) 0.3803(7)
F46 F 0.3974(3) -0.1069(3) 0.1059(4)
F47 F 0.2416(4) -0.0664(3) 0.1135(4)
F48 F 0.3070(6) -0.1496(3) 0.2200(3)
C1 C 0.3682(2) 0.51846(17) 0.2271(2)
C2 C 0.2891(2) 0.54031(17) 0.1831(2)
C3 C 0.1841(2) 0.54557(18) 0.2265(2)
C4 C 0.1839(2) 0.48195(18) 0.3150(2)
C5 C 0.26572(19) 0.45718(18) 0.35962(19)
C6 C 0.3582(2) 0.50201(18) 0.3209(2)
C7 C 0.45248(19) 0.43532(18) 0.3397(2)
C8 C 0.5267(2) 0.43815(18) 0.2602(2)
C9 C 0.4580(2) 0.47803(18) 0.1925(2)
C10 C 0.4681(2) 0.45173(18) 0.1184(2)
C11 C 0.3857(2) 0.46956(18) 0.0735(2)
C12 C 0.2979(2) 0.51772(17) 0.1070(2)
C13 C 0.2030(2) 0.50389(18) 0.0982(2)
C14 C 0.1385(2) 0.50678(18) 0.1713(2)
C15 C 0.0715(2) 0.44856(19) 0.2006(2)
C16 C 0.0285(2) 0.4321(2) 0.2919(2)
C17 C 0.1067(2) 0.43365(19) 0.3446(2)
C18 C 0.1108(2) 0.36162(19) 0.4158(2)
C19 C 0.1912(2) 0.33601(18) 0.4601(2)
C20 C 0.2697(2) 0.38471(18) 0.43152(19)
C21 C 0.3653(2) 0.34946(18) 0.4732(2)
C22 C 0.45600(19) 0.36689(18) 0.4074(2)
C23 C 0.5345(2) 0.28257(19) 0.4142(2)
C24 C 0.58246(19) 0.27215(19) 0.3278(2)
C25 C 0.57942(19) 0.34448(19) 0.2556(2)
C26 C 0.59949(19) 0.32707(19) 0.1771(2)
C27 C 0.5446(2) 0.37888(18) 0.1071(2)
C28 C 0.5394(2) 0.32529(18) 0.0577(2)
C29 C 0.4560(2) 0.33745(19) 0.01590(19)
C30 C 0.3788(2) 0.41182(19) 0.0221(2)
C31 C 0.2845(2) 0.40472(19) 0.0091(2)
C32 C 0.1972(2) 0.44791(18) 0.0509(2)
C33 C 0.1243(2) 0.39332(19) 0.0763(2)
C34 C 0.0648(2) 0.39044(19) 0.1511(2)
C35 C 0.0134(2) 0.3104(2) 0.1890(2)
C36 C 0.0058(2) 0.2822(2) 0.2842(2)
C37 C 0.01245(19) 0.3360(2) 0.3308(2)
C38 C 0.0344(2) 0.3028(2) 0.4214(2)
C39 C 0.0833(2) 0.2059(2) 0.4418(2)
C40 C 0.1538(2) 0.18116(19) 0.4949(2)
C41 C 0.1984(2) 0.24487(19) 0.5259(2)
C42 C 0.3058(2) 0.20012(19) 0.5212(2)
C43 C 0.3810(2) 0.24821(18) 0.49616(19)
C44 C 0.4706(2) 0.21110(19) 0.4578(2)
C45 C 0.4836(2) 0.12824(18) 0.4391(2)
C46 C 0.5568(2) 0.11306(18) 0.3712(2)
C47 C 0.6064(2) 0.18587(19) 0.3169(2)
C48 C 0.63507(19) 0.16913(19) 0.2368(2)
C49 C 0.63159(19) 0.23943(19) 0.1667(2)
C50 C 0.6077(2) 0.23511(19) 0.0829(2)
C51 C 0.55389(19) 0.15732(18) 0.0968(2)
C52 C 0.4795(2) 0.17181(18) 0.0470(2)
C53 C 0.4322(2) 0.26081(19) 0.0038(2)
C54 C 0.3361(2) 0.25493(19) -0.00315(19)
C55 C 0.2633(2) 0.32696(19) -0.0017(2)
C56 C 0.1568(2) 0.3167(2) 0.0318(2)
C57 C 0.1531(2) 0.22736(19) 0.0991(2)
C58 C 0.0824(2) 0.2267(2) 0.1693(2)
C59 C 0.0858(2) 0.1549(2) 0.2411(2)
C60 C 0.0203(2) 0.1809(2) 0.3171(2)
C61 C 0.0771(2) 0.1473(2) 0.3929(2)
C62 C 0.1410(2) 0.06778(19) 0.3991(2)
C63 C 0.2170(2) 0.04714(19) 0.4492(2)
C64 C 0.2235(2) 0.10267(19) 0.4964(2)
C65 C 0.3177(2) 0.11649(19) 0.5056(2)
C66 C 0.4043(2) 0.07960(18) 0.4613(2)
C67 C 0.3980(2) 0.01903(18) 0.4123(2)
C68 C 0.4718(2) 0.00811(17) 0.3433(2)
C69 C 0.5527(2) 0.05497(18) 0.3261(2)
C70 C 0.6153(2) 0.07751(19) 0.2400(2)
C71 C 0.5572(2) 0.08459(18) 0.1690(2)
C72 C 0.4863(2) 0.02980(18) 0.1882(2)
C73 C 0.4149(2) 0.04313(18) 0.1348(2)
C74 C 0.4114(2) 0.11331(18) 0.0654(2)
C75 C 0.3173(2) 0.15884(19) 0.0283(2)
C76 C 0.2295(2) 0.15238(19) 0.1003(2)
C77 C 0.2328(2) 0.07946(19) 0.1736(2)
C78 C 0.1606(2) 0.08115(18) 0.2441(2)
C79 C 0.1717(2) 0.0156(2) 0.3310(2)
C80 C 0.2804(2) -0.01673(18) 0.3395(2)
C81 C 0.3040(2) 0.00128(18) 0.4103(2)
C82 C 0.3494(2) -0.02233(18) 0.2722(2)
C83 C 0.4454(2) -0.01139(18) 0.2738(2)
C84 C 0.3244(2) 0.00371(18) 0.1825(2)
C85 C 0.1347(2) 0.6434(2) 0.2258(2)
C86 C 0.3503(2) 0.58789(19) 0.3514(2)
C87 C 0.6028(2) 0.5002(2) 0.2468(2)
C88 C -0.0686(2) 0.4989(2) 0.3042(3)
C89 C 0.3620(2) 0.3893(2) 0.5493(2)
C90 C 0.6127(2) 0.2749(2) 0.4704(2)
C91 C -0.0896(2) 0.3304(2) 0.1587(2)
C92 C -0.0589(2) 0.3176(3) 0.4857(3)
C93 C 0.1539(2) 0.2503(2) 0.6153(2)
C94 C 0.6980(2) 0.2319(2) 0.0158(2)
C95 C 0.0969(2) 0.3304(2) -0.0406(2)
C96 C -0.0799(2) 0.1459(2) 0.3410(2)
C97 C 0.7084(2) 0.0062(2) 0.2395(2)
C98 C 0.3040(2) 0.1219(2) -0.0451(2)
C99 C 0.1168(2) -0.0649(2) 0.3520(3)
C100 C 0.3134(2) -0.0780(2) 0.1541(2)
F49? F 0.2111(3) 0.6951(2) 0.2164(3)
F50? F 0.0950(4) 0.6851(3) 0.1546(3)
F51? F 0.0798(3) 0.6542(2) 0.2894(3)
F52? F 0.3960(10) 0.5718(5) 0.4172(8)
F53? F 0.2557(5) 0.6209(5) 0.3738(8)
F54? F 0.3863(8) 0.6529(5) 0.2917(5)
F55? F -0.1368(2) 0.4840(2) 0.2693(3)
F56? F -0.0513(3) 0.5882(2) 0.2463(2)
F57? F -0.1221(6) 0.2511(5) 0.1675(11)
F58? F -0.0876(5) 0.3751(9) 0.0824(4)
F59? F -0.0760(5) 0.2565(3) 0.5436(4)
F60? F -0.1436(3) 0.3499(4) 0.4396(3)
F61? F 0.2302(8) 0.2535(10) 0.6589(4)
F62? F 0.1225(13) 0.1777(15) 0.6577(16)
F63? F 0.0916(9) 0.3194(5) 0.6160(4)
F64? F 0.0493(4) 0.4118(3) -0.0642(3)
F65? F 0.1487(5) 0.3058(6) -0.1054(5)
F66? F 0.0220(4) 0.2774(4) -0.0143(3)
F67? F -0.1194(3) 0.1552(4) 0.2696(3)
F68? F -0.1451(4) 0.1999(4) 0.3828(6)
F69? F -0.0712(4) 0.0673(4) 0.3845(5)
F70? F 0.3838(5) 0.0615(5) -0.0620(5)
F71? F 0.3063(6) 0.1883(5) -0.1185(4)
F72? F 0.2271(6) 0.0885(6) -0.0343(5)
F73? F 0.0684(4) -0.0780(3) 0.4310(3)
F74? F 0.0427(4) -0.0466(3) 0.3027(4)
F75? F 0.1716(4) -0.1358(3) 0.3440(5)
F76? F 0.2250(4) -0.1005(4) 0.1847(5)
F77? F 0.3790(5) -0.1446(3) 0.1790(5)
F78? F 0.3184(4) -0.0564(3) 0.0714(3)
C101? C 0.9866(9) 0.0954(15) 0.0218(13)
C102? C 1.005(2) -0.011(2) -0.0376(18)
C103? C 1.001(2) -0.1108(19) 0.112(2)
C104? C 1.0002(18) -0.0312(15) 0.1123(16)
C105? C 1.0121(11) -0.0449(15) -0.0244(18)
C106? C 1.0037(13) -0.079(2) 0.1293(15)
C107? C 0.9891(5) 0.0773(7) -0.0474(6)
C108? C 0.9907(5) 0.0474(7) 0.1046(7)
loop_
_geom_bond_atom_site_label_1
_geom_bond_atom_site_label_2
_geom_bond_site_symmetry_1
_geom_bond_site_symmetry_2
F1 C85 1_555 1_555
F2 C85 1_555 1_555
F3 C85 1_555 1_555
F4 C86 1_555 1_555
F5 C86 1_555 1_555
F6 C86 1_555 1_555
F7 C87 1_555 1_555
F8 C87 1_555 1_555
F9 C87 1_555 1_555
F10 C88 1_555 1_555
F11 C88 1_555 1_555
F12 C88 1_555 1_555
F13 C89 1_555 1_555
F14 C89 1_555 1_555
F15 C89 1_555 1_555
F16 C90 1_555 1_555
F17 C90 1_555 1_555
F18 C90 1_555 1_555
F19 C91 1_555 1_555
F20 C91 1_555 1_555
F21 C91 1_555 1_555
F22 C92 1_555 1_555
F23 C92 1_555 1_555
F24 C92 1_555 1_555
F25 C93 1_555 1_555
F26 C93 1_555 1_555
F27 C93 1_555 1_555
F28 C94 1_555 1_555
F29 C94 1_555 1_555
F30 C94 1_555 1_555
F31 C95 1_555 1_555
F32 C95 1_555 1_555
F33 C95 1_555 1_555
F34 C96 1_555 1_555
F35 C96 1_555 1_555
F36 C96 1_555 1_555
F37 C97 1_555 1_555
F38 C97 1_555 1_555
F39 C97 1_555 1_555
F40 C98 1_555 1_555
F41 C98 1_555 1_555
F42 C98 1_555 1_555
F43 C99 1_555 1_555
F44 C99 1_555 1_555
F45 C99 1_555 1_555
F46 C100 1_555 1_555
F47 C100 1_555 1_555
F48 C100 1_555 1_555
C1 C2 1_555 1_555
C2 C3 1_555 1_555
C3 C4 1_555 1_555
C4 C5 1_555 1_555
C5 C6 1_555 1_555
C6 C1 1_555 1_555
C7 C6 1_555 1_555
C8 C7 1_555 1_555
C9 C1 1_555 1_555
C10 C9 1_555 1_555
C11 C10 1_555 1_555
C12 C2 1_555 1_555
C13 C12 1_555 1_555
C14 C3 1_555 1_555
C15 C14 1_555 1_555
C16 C15 1_555 1_555
C17 C4 1_555 1_555
C18 C17 1_555 1_555
C19 C18 1_555 1_555
C20 C5 1_555 1_555
C21 C20 1_555 1_555
C22 C7 1_555 1_555
C23 C22 1_555 1_555
C24 C23 1_555 1_555
C25 C8 1_555 1_555
C26 C25 1_555 1_555
C27 C10 1_555 1_555
C28 C27 1_555 1_555
C29 C28 1_555 1_555
C30 C11 1_555 1_555
C31 C30 1_555 1_555
C32 C13 1_555 1_555
C33 C32 1_555 1_555
C34 C15 1_555 1_555
C35 C34 1_555 1_555
C36 C35 1_555 1_555
C37 C16 1_555 1_555
C38 C18 1_555 1_555
C39 C38 1_555 1_555
C40 C39 1_555 1_555
C41 C19 1_555 1_555
C42 C41 1_555 1_555
C43 C21 1_555 1_555
C44 C23 1_555 1_555
C45 C44 1_555 1_555
C46 C45 1_555 1_555
C47 C24 1_555 1_555
C48 C47 1_555 1_555
C49 C26 1_555 1_555
C50 C28 1_555 1_555
C51 C50 1_555 1_555
C52 C51 1_555 1_555
C53 C29 1_555 1_555
C54 C53 1_555 1_555
C55 C31 1_555 1_555
C56 C33 1_555 1_555
C57 C56 1_555 1_555
C58 C35 1_555 1_555
C59 C58 1_555 1_555
C60 C36 1_555 1_555
C61 C39 1_555 1_555
C62 C61 1_555 1_555
C63 C62 1_555 1_555
C64 C40 1_555 1_555
C65 C42 1_555 1_555
C66 C45 1_555 1_555
C67 C66 1_555 1_555
C68 C67 1_555 1_555
C69 C46 1_555 1_555
C70 C48 1_555 1_555
C71 C51 1_555 1_555
C72 C71 1_555 1_555
C73 C72 1_555 1_555
C74 C52 1_555 1_555
C75 C54 1_555 1_555
C76 C57 1_555 1_555
C77 C76 1_555 1_555
C78 C59 1_555 1_555
C79 C62 1_555 1_555
C80 C79 1_555 1_555
C81 C63 1_555 1_555
C82 C80 1_555 1_555
C83 C68 1_555 1_555
C84 C73 1_555 1_555
C85 C3 1_555 1_555
C86 C6 1_555 1_555
C87 C8 1_555 1_555
C88 C16 1_555 1_555
C89 C21 1_555 1_555
C90 C23 1_555 1_555
C91 C35 1_555 1_555
C92 C38 1_555 1_555
C93 C41 1_555 1_555
C94 C50 1_555 1_555
C95 C56 1_555 1_555
C96 C60 1_555 1_555
C97 C70 1_555 1_555
C98 C75 1_555 1_555
C99 C79 1_555 1_555
C100 C84 1_555 1_555
C8 C9 1_555 1_555
C11 C12 1_555 1_555
C13 C14 1_555 1_555
C16 C17 1_555 1_555
C19 C20 1_555 1_555
C21 C22 1_555 1_555
C24 C25 1_555 1_555
C26 C27 1_555 1_555
C29 C30 1_555 1_555
C31 C32 1_555 1_555
C33 C34 1_555 1_555
C36 C37 1_555 1_555
C37 C38 1_555 1_555
C40 C41 1_555 1_555
C42 C43 1_555 1_555
C43 C44 1_555 1_555
C46 C47 1_555 1_555
C48 C49 1_555 1_555
C49 C50 1_555 1_555
C52 C53 1_555 1_555
C54 C55 1_555 1_555
C55 C56 1_555 1_555
C57 C58 1_555 1_555
C59 C60 1_555 1_555
C60 C61 1_555 1_555
C63 C64 1_555 1_555
C64 C65 1_555 1_555
C65 C66 1_555 1_555
C67 C81 1_555 1_555
C68 C69 1_555 1_555
C69 C70 1_555 1_555
C70 C71 1_555 1_555
C72 C83 1_555 1_555
C73 C74 1_555 1_555
C74 C75 1_555 1_555
C75 C76 1_555 1_555
C77 C78 1_555 1_555
C77 C84 1_555 1_555
C78 C79 1_555 1_555
C80 C81 1_555 1_555
C82 C83 1_555 1_555
C82 C84 1_555 1_555

#END
