
#######################################################################
#
#                 Cambridge Crystallographic Data Centre
#                                CCDC 
#
#######################################################################
#
# If this CIF has been generated from an entry in the Cambridge 
# Structural Database, then it will include bibliographic, chemical, 
# crystal, experimental, refinement or atomic coordinate data resulting 
# from the CCDC's data processing and validation procedures.
#
#######################################################################

data_RICROM
_chemical_formula_moiety         'C98 F42,2.27(C7 H8)'
_chemical_name_systematic        
'tetradecakis(trifluoromethyl)-C84(23)fullerene toluene solvate'
_symmetry_cell_setting           triclinic
_symmetry_space_group_name_H-M   'P -1'
_symmetry_Int_Tables_number      2
_space_group_name_Hall           '-P 1'
loop_
_symmetry_equiv_pos_site_id
_symmetry_equiv_pos_as_xyz
1 x,y,z
2 -x,-y,-z
_cell_length_a                   13.6400(10)
_cell_length_b                   14.3220(10)
_cell_length_c                   20.678(2)
_cell_angle_alpha                83.180(10)
_cell_angle_beta                 82.675(8)
_cell_angle_gamma                89.050(10)
_cell_volume                     3978.17
_exptl_crystal_colour            red
_exptl_crystal_description       needle
_cell_formula_units_Z            2
loop_
_atom_site_label
_atom_site_type_symbol
_atom_site_fract_x
_atom_site_fract_y
_atom_site_fract_z
F1 F 0.2437(16) 0.101(2) 0.1536(12)
F2 F 0.3170(17) 0.210(2) 0.0663(14)
F3 F 0.3252(9) 0.0409(14) 0.0874(8)
F4 F 0.5634(11) -0.1879(16) 0.1227(9)
F5 F 0.4283(7) -0.1281(14) 0.1193(8)
F6 F 0.5393(11) -0.0946(12) 0.0438(7)
F7 F 0.3899(9) -0.1437(15) 0.3131(9)
F8 F 0.5228(9) -0.1945(11) 0.3374(7)
F9 F 0.4910(15) -0.2189(16) 0.2462(8)
F10 F 0.6892(9) 0.4654(12) -0.0713(6)
F11 F 0.5703(6) 0.3781(9) -0.0812(5)
F12 F 0.7164(7) 0.3322(10) -0.1061(5)
F13 F 0.8910(6) 0.2431(9) -0.0985(4)
F14 F 0.7668(7) 0.1566(8) -0.1101(5)
F15 F 0.9007(8) 0.0948(10) -0.0820(5)
F16 F 0.7641(9) 0.0782(15) 0.5233(7)
F17 F 0.6463(8) -0.0220(11) 0.5187(6)
F18 F 0.7895(11) -0.0537(14) 0.4931(7)
F19 F 0.7266(11) 0.6576(13) 0.0702(7)
F20 F 0.7961(7) 0.5846(9) -0.0064(5)
F21 F 0.6387(7) 0.5958(10) 0.0099(7)
F22 F 1.1295(6) 0.2439(10) 0.0267(5)
F23 F 1.1280(6) 0.0922(10) 0.0330(5)
F24 F 1.0528(6) 0.1743(8) -0.0379(6)
F25 F 1.0601(7) 0.1475(12) 0.3953(6)
F26 F 0.9583(8) 0.0516(10) 0.4585(6)
F27 F 1.0582(8) 0.0030(12) 0.3828(7)
F28 F 0.5614(10) 0.4684(14) 0.4522(8)
F29 F 0.7137(10) 0.4699(12) 0.4571(7)
F30 F 0.6538(16) 0.5709(19) 0.3891(12)
F31 F 0.9127(8) 0.6132(12) 0.0850(7)
F32 F 1.0454(7) 0.5240(10) 0.0783(5)
F33 F 0.9933(9) 0.5929(13) 0.1652(7)
F34 F 0.9761(11) 0.5583(13) 0.2888(7)
F35 F 0.9858(10) 0.4473(12) 0.3730(7)
F36 F 0.8599(10) 0.5399(14) 0.3704(7)
C1 C 0.4885(14) -0.0149(18) 0.2045(10)
C2 C 0.4300(13) 0.061(2) 0.2056(10)
C3 C 0.4203(10) 0.1336(17) 0.1493(9)
C4 C 0.5091(11) 0.1340(19) 0.0927(9)
C5 C 0.5687(11) 0.0594(15) 0.0906(8)
C6 C 0.5607(11) -0.0272(19) 0.1362(10)
C7 C 0.6529(11) -0.0569(16) 0.1671(12)
C8 C 0.6443(11) -0.0732(15) 0.2354(11)
C9 C 0.5339(11) -0.0624(17) 0.2649(13)
C10 C 0.5250(12) -0.0020(18) 0.3189(9)
C11 C 0.4687(13) 0.073(2) 0.3248(10)
C12 C 0.3959(10) 0.1047(17) 0.2680(9)
C13 C 0.4085(11) 0.206(2) 0.2471(12)
C14 C 0.4190(9) 0.2291(18) 0.1795(9)
C15 C 0.4619(12) 0.3142(18) 0.1503(10)
C16 C 0.5128(11) 0.3124(18) 0.0821(9)
C17 C 0.5332(9) 0.2218(19) 0.0589(9)
C18 C 0.6287(11) 0.2344(17) 0.0174(8)
C19 C 0.6896(9) 0.1582(15) 0.0143(8)
C20 C 0.6659(9) 0.0694(15) 0.0524(8)
C21 C 0.7508(10) 0.0247(15) 0.0696(9)
C22 C 0.7533(11) -0.0263(14) 0.1311(9)
C23 C 0.8350(11) -0.0272(15) 0.1672(10)
C24 C 0.8177(10) -0.0460(17) 0.2373(11)
C25 C 0.7229(13) -0.0715(17) 0.2716(11)
C26 C 0.7007(11) -0.0438(17) 0.3357(11)
C27 C 0.6043(11) -0.0036(18) 0.3597(13)
C28 C 0.6041(17) 0.061(2) 0.4020(10)
C29 C 0.5562(15) 0.139(2) 0.4081(10)
C30 C 0.4737(13) 0.147(2) 0.3631(11)
C31 C 0.4602(13) 0.242(2) 0.3508(12)
C32 C 0.4296(13) 0.279(2) 0.2831(12)
C33 C 0.4665(14) 0.360(2) 0.2523(13)
C34 C 0.4810(11) 0.386(2) 0.1825(10)
C35 C 0.5602(14) 0.4521(16) 0.1555(10)
C36 C 0.6094(11) 0.4496(19) 0.0891(10)
C37 C 0.5850(11) 0.3803(17) 0.0564(9)
C38 C 0.6614(10) 0.3347(15) 0.0099(8)
C39 C 0.7688(13) 0.3337(19) 0.0296(8)
C40 C 0.8300(10) 0.2609(16) 0.0262(7)
C41 C 0.8028(10) 0.1705(18) 0.0007(9)
C42 C 0.8308(11) 0.0878(15) 0.0412(9)
C43 C 0.9150(10) 0.0819(15) 0.0744(9)
C44 C 0.9144(11) 0.0261(14) 0.1385(9)
C45 C 0.9786(12) 0.0663(18) 0.1706(10)
C46 C 0.9663(12) 0.0541(18) 0.2441(12)
C47 C 0.8900(11) -0.0143(16) 0.2749(10)
C48 C 0.8641(12) 0.0148(17) 0.3383(11)
C49 C 0.7673(12) 0.0023(17) 0.3716(11)
C50 C 0.7200(12) 0.0590(18) 0.4195(9)
C51 C 0.7590(13) 0.1566(18) 0.4003(10)
C52 C 0.6995(13) 0.234(2) 0.4036(10)
C53 C 0.5773(12) 0.228(2) 0.4249(11)
C54 C 0.5263(16) 0.287(2) 0.3811(11)
C55 C 0.5571(16) 0.376(2) 0.3514(14)
C56 C 0.5239(17) 0.4212(19) 0.2888(14)
C57 C 0.6113(15) 0.4748(19) 0.2584(13)
C58 C 0.6232(12) 0.4928(19) 0.1922(14)
C59 C 0.7204(11) 0.5051(17) 0.1562(10)
C60 C 0.7091(11) 0.4895(15) 0.0837(9)
C61 C 0.7862(11) 0.4096(16) 0.0630(9)
C62 C 0.8760(15) 0.4048(17) 0.0936(9)
C63 C 0.9349(12) 0.329(2) 0.0900(10)
C64 C 0.9131(11) 0.2559(16) 0.0590(10)
C65 C 0.9792(10) 0.1713(14) 0.0702(8)
C66 C 1.0062(9) 0.1613(18) 0.1440(12)
C67 C 1.0122(12) 0.237(3) 0.1778(11)
C68 C 1.0008(10) 0.213(2) 0.2530(10)
C69 C 0.9794(10) 0.123(2) 0.2777(10)
C70 C 0.9264(11) 0.0956(14) 0.3472(9)
C71 C 0.8588(10) 0.1803(19) 0.3691(9)
C72 C 0.8836(13) 0.2654(19) 0.3450(9)
C73 C 0.8271(14) 0.3423(19) 0.3487(9)
C74 C 0.7255(14) 0.329(2) 0.3791(11)
C75 C 0.6591(14) 0.4120(18) 0.3634(10)
C76 C 0.6920(16) 0.4674(17) 0.2947(11)
C77 C 0.7875(13) 0.4652(18) 0.2620(12)
C78 C 0.8021(14) 0.4884(18) 0.1868(12)
C79 C 0.8992(14) 0.458(2) 0.1518(14)
C80 C 0.9589(12) 0.392(2) 0.1861(10)
C81 C 0.9891(13) 0.327(2) 0.1498(12)
C82 C 0.9452(13) 0.3759(19) 0.2566(10)
C83 C 0.9641(13) 0.287(2) 0.2844(10)
C84 C 0.8692(14) 0.4203(19) 0.2951(12)
C85 C 0.3220(12) 0.123(2) 0.1101(12)
C86 C 0.526(2) -0.106(2) 0.1050(17)
C87 C 0.4857(15) -0.158(2) 0.2806(17)
C88 C 0.6621(11) 0.3758(18) -0.0631(10)
C89 C 0.8397(12) 0.1650(17) -0.0746(9)
C90 C 0.734(2) 0.018(2) 0.4898(15)
C91 C 0.7135(15) 0.582(2) 0.0385(11)
C92 C 1.0730(13) 0.1660(18) 0.0230(11)
C93 C 1.003(2) 0.075(2) 0.3946(10)
C94 C 0.644(2) 0.497(3) 0.4116(13)
C95 C 0.965(2) 0.540(2) 0.1189(18)
C96 C 0.920(2) 0.491(2) 0.3373(15)
F37 F 0.2709(6) 0.0904(10) 0.3595(6)
F38 F 0.2228(9) 0.1392(14) 0.2756(6)
F39 F 0.2661(12) -0.0135(18) 0.2989(14)
C97 C 0.272(2) 0.054(2) 0.2854(13)
F40 F 0.4564(10) 0.266(2) 0.5112(7)
F41 F 0.5860(12) 0.1386(18) 0.5300(9)
F42 F 0.5907(12) 0.3025(18) 0.5172(7)
C98 C 0.5709(18) 0.224(2) 0.5166(15)
F43? F 0.243(2) 0.164(3) 0.1505(18)
F44? F 0.330(3) 0.158(3) 0.060(2)
F45? F 0.4573(15) 0.191(2) 0.5135(11)
C99? C 0.222(4) 0.367(4) 0.392(3)
C100? C 0.283(3) 0.471(3) 0.363(2)
C101? C 0.369(5) 0.558(4) 0.342(3)
C102? C 0.300(5) 0.560(4) 0.275(3)
C103? C 0.241(3) 0.485(4) 0.262(2)
C104? C 0.210(3) 0.383(3) 0.295(2)
C105? C 0.918(3) -0.241(3) 0.242(2)
C106? C 0.801(4) -0.265(4) 0.205(3)
C107? C 1.173(5) -0.227(4) 0.279(3)
C108? C 0.729(5) -0.287(5) 0.306(4)
C109? C 0.870(5) 0.742(4) 0.346(3)
C110? C 0.954(4) 0.729(3) 0.442(3)
C111? C 0.877(5) 0.374(5) 0.574(3)
C112? C 0.898(4) 0.251(4) 0.551(3)
C113? C 0.840(4) 0.261(4) 0.621(3)
C114? C 1.000(5) 0.792(4) 0.353(3)
loop_
_geom_bond_atom_site_label_1
_geom_bond_atom_site_label_2
_geom_bond_site_symmetry_1
_geom_bond_site_symmetry_2
F1 C85 1_555 1_555
F2 C85 1_555 1_555
F3 C85 1_555 1_555
F4 C86 1_555 1_555
F5 C86 1_555 1_555
F6 C86 1_555 1_555
F7 C87 1_555 1_555
F8 C87 1_555 1_555
F9 C87 1_555 1_555
F10 C88 1_555 1_555
F11 C88 1_555 1_555
F12 C88 1_555 1_555
F13 C89 1_555 1_555
F14 C89 1_555 1_555
F15 C89 1_555 1_555
F16 C90 1_555 1_555
F17 C90 1_555 1_555
F18 C90 1_555 1_555
F19 C91 1_555 1_555
F20 C91 1_555 1_555
F21 C91 1_555 1_555
F22 C92 1_555 1_555
F23 C92 1_555 1_555
F24 C92 1_555 1_555
F25 C93 1_555 1_555
F26 C93 1_555 1_555
F27 C93 1_555 1_555
F28 C94 1_555 1_555
F29 C94 1_555 1_555
F30 C94 1_555 1_555
F31 C95 1_555 1_555
F32 C95 1_555 1_555
F33 C95 1_555 1_555
F34 C96 1_555 1_555
F35 C96 1_555 1_555
F36 C96 1_555 1_555
C1 C2 1_555 1_555
C2 C3 1_555 1_555
C3 C4 1_555 1_555
C4 C5 1_555 1_555
C5 C6 1_555 1_555
C6 C1 1_555 1_555
C7 C6 1_555 1_555
C8 C7 1_555 1_555
C9 C1 1_555 1_555
C10 C9 1_555 1_555
C11 C10 1_555 1_555
C12 C2 1_555 1_555
C13 C12 1_555 1_555
C14 C3 1_555 1_555
C15 C14 1_555 1_555
C16 C15 1_555 1_555
C17 C4 1_555 1_555
C18 C17 1_555 1_555
C19 C18 1_555 1_555
C20 C5 1_555 1_555
C21 C20 1_555 1_555
C22 C7 1_555 1_555
C23 C22 1_555 1_555
C24 C23 1_555 1_555
C25 C8 1_555 1_555
C26 C25 1_555 1_555
C27 C10 1_555 1_555
C28 C27 1_555 1_555
C29 C28 1_555 1_555
C30 C11 1_555 1_555
C31 C30 1_555 1_555
C32 C13 1_555 1_555
C33 C32 1_555 1_555
C34 C15 1_555 1_555
C35 C34 1_555 1_555
C36 C35 1_555 1_555
C37 C16 1_555 1_555
C38 C18 1_555 1_555
C39 C38 1_555 1_555
C40 C39 1_555 1_555
C41 C19 1_555 1_555
C42 C21 1_555 1_555
C43 C42 1_555 1_555
C44 C23 1_555 1_555
C45 C44 1_555 1_555
C46 C45 1_555 1_555
C47 C24 1_555 1_555
C48 C47 1_555 1_555
C49 C26 1_555 1_555
C50 C28 1_555 1_555
C51 C50 1_555 1_555
C52 C51 1_555 1_555
C53 C29 1_555 1_555
C54 C31 1_555 1_555
C55 C54 1_555 1_555
C56 C33 1_555 1_555
C57 C56 1_555 1_555
C58 C35 1_555 1_555
C59 C58 1_555 1_555
C60 C36 1_555 1_555
C61 C39 1_555 1_555
C62 C61 1_555 1_555
C63 C62 1_555 1_555
C64 C40 1_555 1_555
C65 C43 1_555 1_555
C66 C45 1_555 1_555
C67 C66 1_555 1_555
C68 C67 1_555 1_555
C69 C46 1_555 1_555
C70 C48 1_555 1_555
C71 C51 1_555 1_555
C72 C71 1_555 1_555
C73 C72 1_555 1_555
C74 C52 1_555 1_555
C75 C55 1_555 1_555
C76 C57 1_555 1_555
C77 C76 1_555 1_555
C78 C59 1_555 1_555
C79 C62 1_555 1_555
C80 C79 1_555 1_555
C81 C63 1_555 1_555
C82 C80 1_555 1_555
C83 C68 1_555 1_555
C84 C73 1_555 1_555
C85 C3 1_555 1_555
C86 C6 1_555 1_555
C87 C9 1_555 1_555
C88 C38 1_555 1_555
C89 C41 1_555 1_555
C90 C50 1_555 1_555
C91 C60 1_555 1_555
C92 C65 1_555 1_555
C93 C70 1_555 1_555
C94 C75 1_555 1_555
C95 C79 1_555 1_555
C96 C84 1_555 1_555
F37 C97 1_555 1_555
F38 C97 1_555 1_555
F39 C97 1_555 1_555
C97 C12 1_555 1_555
F40 C98 1_555 1_555
F41 C98 1_555 1_555
F42 C98 1_555 1_555
C98 C53 1_555 1_555
C8 C9 1_555 1_555
C11 C12 1_555 1_555
C13 C14 1_555 1_555
C16 C17 1_555 1_555
C19 C20 1_555 1_555
C21 C22 1_555 1_555
C24 C25 1_555 1_555
C26 C27 1_555 1_555
C29 C30 1_555 1_555
C31 C32 1_555 1_555
C33 C34 1_555 1_555
C36 C37 1_555 1_555
C37 C38 1_555 1_555
C40 C41 1_555 1_555
C41 C42 1_555 1_555
C43 C44 1_555 1_555
C46 C47 1_555 1_555
C48 C49 1_555 1_555
C49 C50 1_555 1_555
C52 C53 1_555 1_555
C53 C54 1_555 1_555
C55 C56 1_555 1_555
C57 C58 1_555 1_555
C59 C60 1_555 1_555
C60 C61 1_555 1_555
C63 C64 1_555 1_555
C64 C65 1_555 1_555
C65 C66 1_555 1_555
C67 C81 1_555 1_555
C68 C69 1_555 1_555
C69 C70 1_555 1_555
C70 C71 1_555 1_555
C72 C83 1_555 1_555
C73 C74 1_555 1_555
C74 C75 1_555 1_555
C75 C76 1_555 1_555
C77 C78 1_555 1_555
C77 C84 1_555 1_555
C78 C79 1_555 1_555
C80 C81 1_555 1_555
C82 C83 1_555 1_555
C82 C84 1_555 1_555

#END
