
#######################################################################
#
#                 Cambridge Crystallographic Data Centre
#                                CCDC 
#
#######################################################################
#
# If this CIF has been generated from an entry in the Cambridge 
# Structural Database, then it will include bibliographic, chemical, 
# crystal, experimental, refinement or atomic coordinate data resulting 
# from the CCDC's data processing and validation procedures.
#
#######################################################################

data_RICRAY
_chemical_formula_moiety         'C102 F54,1.5(C7 H8)'
_chemical_name_systematic        
'octadecakis(trifluoromethyl)C84fullerene toluene solvate'
_symmetry_cell_setting           triclinic
_symmetry_space_group_name_H-M   'P -1'
_symmetry_Int_Tables_number      2
_space_group_name_Hall           '-P 1'
loop_
_symmetry_equiv_pos_site_id
_symmetry_equiv_pos_as_xyz
1 x,y,z
2 -x,-y,-z
_cell_length_a                   13.4950(10)
_cell_length_b                   14.4630(10)
_cell_length_c                   21.9310(10)
_cell_angle_alpha                88.982(6)
_cell_angle_beta                 88.490(8)
_cell_angle_gamma                67.901(8)
_cell_volume                     3964.47
_exptl_crystal_colour            yellow
_exptl_crystal_description       plate
_cell_formula_units_Z            2
loop_
_atom_site_label
_atom_site_type_symbol
_atom_site_fract_x
_atom_site_fract_y
_atom_site_fract_z
F1 F -0.2606(3) 0.4470(3) 0.37252(18)
F2 F -0.1615(3) 0.4372(3) 0.44770(14)
F3 F -0.2018(3) 0.5605(2) 0.38662(18)
F4 F -0.0841(6) 0.6866(5) 0.3572(3)
F5 F 0.0743(7) 0.6815(5) 0.3655(3)
F6 F 0.0071(9) 0.6093(5) 0.4314(3)
F7 F -0.0321(3) 0.7303(2) 0.24448(14)
F8 F -0.1484(3) 0.6867(2) 0.20175(18)
F9 F -0.0104(3) 0.6864(2) 0.15172(14)
F10 F -0.2691(3) 0.5863(3) 0.25980(17)
F11 F -0.2662(2) 0.5247(3) 0.17225(14)
F12 F -0.3053(3) 0.4562(3) 0.25150(18)
F13 F -0.0522(3) 0.1074(2) 0.46191(14)
F14 F -0.1550(3) 0.2552(3) 0.44189(17)
F15 F -0.0340(3) 0.2262(2) 0.50914(12)
F16 F -0.2650(3) 0.3389(5) 0.1588(3)
F17 F -0.1979(4) 0.3265(6) 0.0693(2)
F18 F -0.1978(4) 0.1991(3) 0.1187(3)
F19 F 0.0203(4) -0.1062(3) 0.31465(19)
F20 F 0.0387(3) -0.0698(3) 0.40616(15)
F21 F -0.0928(2) 0.0242(2) 0.35536(15)
F22 F 0.1928(3) 0.1795(2) 0.55043(12)
F23 F 0.1696(2) 0.0481(2) 0.52242(12)
F24 F 0.3279(2) 0.0489(2) 0.52458(12)
F25 F 0.5074(3) 0.2307(4) 0.48788(17)
F26 F 0.3739(7) 0.2141(6) 0.5331(2)
F27 F 0.3709(4) 0.3583(3) 0.51312(16)
F28 F 0.1720(4) 0.4874(2) -0.01979(14)
F29 F 0.1375(3) 0.3636(3) -0.04592(13)
F30 F 0.2989(3) 0.3494(3) -0.04089(13)
F31 F -0.0293(3) 0.1732(3) 0.00013(14)
F32 F -0.0311(2) 0.3180(2) -0.02126(12)
F33 F 0.1108(3) 0.1873(3) -0.03956(12)
F34 F -0.0121(3) -0.0871(3) 0.1972(2)
F35 F -0.0856(3) 0.0149(3) 0.12715(14)
F36 F -0.1432(3) 0.0507(3) 0.21846(15)
F37 F 0.2446(2) -0.1843(2) 0.38823(14)
F38 F 0.4057(2) -0.18808(19) 0.38657(12)
F39 F 0.2966(2) -0.1149(2) 0.45984(12)
F40 F 0.6308(3) 0.2698(2) 0.40464(15)
F41 F 0.7193(2) 0.1839(3) 0.33034(14)
F42 F 0.6770(2) 0.1103(2) 0.40664(13)
F43 F 0.5076(3) 0.2111(2) -0.01487(12)
F44 F 0.4736(3) 0.3625(2) 0.00666(14)
F45 F 0.6084(2) 0.2485(3) 0.04528(13)
F46 F 0.2730(2) -0.1119(2) 0.05481(13)
F47 F 0.1166(3) -0.1019(2) 0.08516(14)
F48 F 0.1341(3) -0.0062(2) 0.01258(13)
F49 F 0.6825(2) -0.1337(2) 0.31183(15)
F50 F 0.7407(2) -0.0874(2) 0.22948(13)
F51 F 0.7363(2) -0.0120(2) 0.31286(13)
F52 F 0.5862(3) -0.0697(3) 0.05338(15)
F53 F 0.6347(3) 0.0529(2) 0.04898(16)
F54 F 0.6965(3) -0.0596(3) 0.11683(14)
C1 C -0.0165(4) 0.5267(3) 0.2862(2)
C2 C -0.0742(4) 0.4704(3) 0.2915(2)
C3 C -0.0769(4) 0.4078(3) 0.3488(2)
C4 C 0.0244(4) 0.3831(3) 0.38463(19)
C5 C 0.0876(4) 0.4397(3) 0.37814(19)
C6 C 0.0603(4) 0.5302(3) 0.3356(2)
C7 C 0.1584(4) 0.5212(3) 0.2958(2)
C8 C 0.1343(4) 0.5351(3) 0.2356(2)
C9 C 0.0170(4) 0.5566(3) 0.2244(2)
C10 C 0.0069(4) 0.4905(3) 0.1735(2)
C11 C -0.0564(4) 0.4345(3) 0.17910(19)
C12 C -0.1204(4) 0.4353(4) 0.2374(2)
C13 C -0.0970(4) 0.3272(4) 0.2572(2)
C14 C -0.0735(3) 0.3117(3) 0.3188(2)
C15 C -0.0207(4) 0.2157(3) 0.34199(19)
C16 C 0.0250(4) 0.2057(3) 0.40602(19)
C17 C 0.0652(4) 0.2903(3) 0.41446(18)
C18 C 0.1692(4) 0.2545(3) 0.43714(18)
C19 C 0.2309(4) 0.3103(3) 0.43159(19)
C20 C 0.1912(4) 0.4023(3) 0.40085(19)
C21 C 0.2798(4) 0.4211(3) 0.37161(19)
C22 C 0.2661(4) 0.4725(3) 0.3155(2)
C23 C 0.3510(4) 0.4401(3) 0.2708(2)
C24 C 0.3257(4) 0.4549(3) 0.2064(2)
C25 C 0.2165(4) 0.5016(3) 0.1892(2)
C26 C 0.1872(4) 0.4780(3) 0.13207(19)
C27 C 0.0842(4) 0.4693(3) 0.1264(2)
C28 C 0.0954(4) 0.3959(3) 0.08331(19)
C29 C 0.0334(4) 0.3398(3) 0.08950(19)
C30 C -0.0422(4) 0.3595(4) 0.1369(2)
C31 C -0.0740(4) 0.2696(4) 0.14854(19)
C32 C -0.0694(4) 0.2465(4) 0.2175(2)
C33 C -0.0192(4) 0.1492(3) 0.24030(19)
C34 C 0.0048(4) 0.1338(3) 0.3034(2)
C35 C 0.0770(4) 0.0293(3) 0.32734(19)
C36 C 0.1541(4) 0.0382(3) 0.37554(18)
C37 C 0.1316(4) 0.1168(3) 0.40985(19)
C38 C 0.2167(4) 0.1419(3) 0.44353(18)
C39 C 0.3249(4) 0.1043(3) 0.40782(18)
C40 C 0.3898(4) 0.1615(3) 0.40162(18)
C41 C 0.3514(4) 0.2654(3) 0.42954(18)
C42 C 0.3747(4) 0.3394(3) 0.3855(2)
C43 C 0.4569(4) 0.3099(3) 0.3436(2)
C44 C 0.4462(4) 0.3622(3) 0.28765(19)
C45 C 0.5119(4) 0.2908(3) 0.24370(19)
C46 C 0.4881(4) 0.3052(3) 0.18270(19)
C47 C 0.3981(4) 0.3910(3) 0.1636(2)
C48 C 0.3652(4) 0.3669(3) 0.10794(19)
C49 C 0.2605(4) 0.4103(3) 0.09239(19)
C50 C 0.2059(4) 0.3583(3) 0.05339(18)
C51 C 0.2590(4) 0.2432(3) 0.06260(18)
C52 C 0.1944(4) 0.1865(3) 0.06920(18)
C53 C 0.0702(4) 0.2347(4) 0.06557(19)
C54 C 0.0166(4) 0.1897(4) 0.11396(19)
C55 C 0.0599(4) 0.0985(3) 0.1338(2)
C56 C 0.0249(4) 0.0623(3) 0.19482(19)
C57 C 0.1333(4) -0.0073(3) 0.21615(19)
C58 C 0.1574(4) -0.0224(3) 0.27801(19)
C59 C 0.2610(4) -0.0535(3) 0.29585(19)
C60 C 0.2689(3) -0.0332(3) 0.36317(18)
C61 C 0.3472(4) 0.0183(3) 0.37168(19)
C62 C 0.4350(4) -0.0075(3) 0.33156(18)
C63 C 0.5018(3) 0.0459(3) 0.32663(18)
C64 C 0.4801(4) 0.1320(3) 0.36092(19)
C65 C 0.5364(4) 0.2026(3) 0.33901(19)
C66 C 0.5523(4) 0.1938(3) 0.2686(2)
C67 C 0.5637(3) 0.1128(3) 0.23286(19)
C68 C 0.5378(3) 0.1277(3) 0.16896(19)
C69 C 0.5048(3) 0.2240(3) 0.14497(19)
C70 C 0.4374(4) 0.2628(3) 0.08655(19)
C71 C 0.3702(4) 0.2006(3) 0.07673(18)
C72 C 0.4128(4) 0.1021(3) 0.09539(18)
C73 C 0.3476(4) 0.0476(3) 0.10346(18)
C74 C 0.2392(4) 0.0876(3) 0.09031(18)
C75 C 0.1722(4) 0.0290(3) 0.11291(19)
C76 C 0.2131(4) -0.0238(3) 0.17333(19)
C77 C 0.3217(4) -0.0552(3) 0.18971(19)
C78 C 0.3464(4) -0.0708(3) 0.25357(19)
C79 C 0.4397(3) -0.0584(3) 0.27315(18)
C80 C 0.5092(3) -0.0352(3) 0.23381(19)
C81 C 0.5690(3) 0.0175(3) 0.26725(18)
C82 C 0.4850(3) -0.0208(3) 0.17165(19)
C83 C 0.5176(3) 0.0503(3) 0.13103(18)
C84 C 0.3923(4) -0.0289(3) 0.15124(18)
C85 C -0.1772(4) 0.4636(4) 0.3893(2)
C86 C 0.0189(5) 0.6268(4) 0.3751(2)
C87 C -0.0442(4) 0.6681(4) 0.2063(2)
C88 C -0.2424(4) 0.5021(4) 0.2305(2)
C89 C -0.0560(4) 0.1992(4) 0.4556(2)
C90 C -0.1849(4) 0.2832(4) 0.1233(2)
C91 C 0.0094(4) -0.0319(4) 0.3512(2)
C92 C 0.2273(4) 0.1041(4) 0.5117(2)
C93 C 0.4008(5) 0.2659(4) 0.4927(2)
C94 C 0.2051(4) 0.3892(4) -0.0148(2)
C95 C 0.0304(4) 0.2280(4) -0.0003(2)
C96 C -0.0557(4) 0.0097(4) 0.1846(2)
C97 C 0.3039(4) -0.1314(4) 0.4005(2)
C98 C 0.6431(4) 0.1892(4) 0.3706(2)
C99 C 0.5091(4) 0.2704(4) 0.0305(2)
C100 C 0.1736(4) -0.0481(4) 0.0655(2)
C101 C 0.6840(4) -0.0550(3) 0.2799(2)
C102 C 0.6119(4) -0.0073(3) 0.0880(2)
C103 C 0.3188(7) 0.6698(6) 0.1330(4)
C104 C 0.2400(6) 0.7107(5) 0.1779(4)
H1 H 0.1668 0.7351 0.1671
C105 C 0.2658(8) 0.7164(5) 0.2365(4)
H2 H 0.2109 0.7444 0.2664
C106 C 0.3705(9) 0.6818(6) 0.2525(5)
H3 H 0.3886 0.6840 0.2939
C107 C 0.4487(7) 0.6440(6) 0.2093(5)
H4 H 0.5218 0.6218 0.2200
C108 C 0.4212(7) 0.6383(6) 0.1497(4)
H5 H 0.4762 0.6112 0.1197
C109 C 0.2919(8) 0.6519(7) 0.0681(4)
H6 H 0.2916 0.7073 0.0416
H7 H 0.2211 0.6475 0.0681
H8 H 0.3457 0.5893 0.0528
F55? F 0.1058(9) 0.6199(7) 0.4140(5)
F56? F -0.0519(15) 0.6217(14) 0.4161(10)
F57? F -0.0084(15) 0.7070(7) 0.3519(5)
F58? F -0.1725(18) 0.253(3) 0.0636(9)
F59? F -0.232(2) 0.234(3) 0.1539(16)
F60? F -0.248(2) 0.375(2) 0.122(2)
F61? F 0.320(4) 0.240(4) 0.537(3)
F62? F 0.422(6) 0.317(6) 0.506(2)
F63? F 0.474(3) 0.176(3) 0.5088(16)
C110? C 0.343(2) 0.604(2) 0.4621(14)
C111? C 0.505(5) 0.497(5) 0.5152(19)
C112? C 0.557(4) 0.451(3) 0.4534(18)
C113? C 0.505(3) 0.510(2) 0.3996(13)
C114? C 0.413(3) 0.572(3) 0.4098(16)
C115? C 0.394(4) 0.557(3) 0.512(2)
loop_
_geom_bond_atom_site_label_1
_geom_bond_atom_site_label_2
_geom_bond_site_symmetry_1
_geom_bond_site_symmetry_2
F1 C85 1_555 1_555
F2 C85 1_555 1_555
F3 C85 1_555 1_555
F4 C86 1_555 1_555
F5 C86 1_555 1_555
F6 C86 1_555 1_555
F7 C87 1_555 1_555
F8 C87 1_555 1_555
F9 C87 1_555 1_555
F10 C88 1_555 1_555
F11 C88 1_555 1_555
F12 C88 1_555 1_555
F13 C89 1_555 1_555
F14 C89 1_555 1_555
F15 C89 1_555 1_555
F16 C90 1_555 1_555
F17 C90 1_555 1_555
F18 C90 1_555 1_555
F19 C91 1_555 1_555
F20 C91 1_555 1_555
F21 C91 1_555 1_555
F22 C92 1_555 1_555
F23 C92 1_555 1_555
F24 C92 1_555 1_555
F25 C93 1_555 1_555
F26 C93 1_555 1_555
F27 C93 1_555 1_555
F28 C94 1_555 1_555
F29 C94 1_555 1_555
F30 C94 1_555 1_555
F31 C95 1_555 1_555
F32 C95 1_555 1_555
F33 C95 1_555 1_555
F34 C96 1_555 1_555
F35 C96 1_555 1_555
F36 C96 1_555 1_555
F37 C97 1_555 1_555
F38 C97 1_555 1_555
F39 C97 1_555 1_555
F40 C98 1_555 1_555
F41 C98 1_555 1_555
F42 C98 1_555 1_555
F43 C99 1_555 1_555
F44 C99 1_555 1_555
F45 C99 1_555 1_555
F46 C100 1_555 1_555
F47 C100 1_555 1_555
F48 C100 1_555 1_555
F49 C101 1_555 1_555
F50 C101 1_555 1_555
F51 C101 1_555 1_555
F52 C102 1_555 1_555
F53 C102 1_555 1_555
F54 C102 1_555 1_555
C1 C2 1_555 1_555
C2 C3 1_555 1_555
C3 C4 1_555 1_555
C4 C5 1_555 1_555
C5 C6 1_555 1_555
C6 C1 1_555 1_555
C7 C6 1_555 1_555
C8 C7 1_555 1_555
C9 C1 1_555 1_555
C10 C9 1_555 1_555
C11 C10 1_555 1_555
C12 C2 1_555 1_555
C13 C12 1_555 1_555
C14 C3 1_555 1_555
C15 C14 1_555 1_555
C16 C15 1_555 1_555
C17 C4 1_555 1_555
C18 C17 1_555 1_555
C19 C18 1_555 1_555
C20 C5 1_555 1_555
C21 C20 1_555 1_555
C22 C7 1_555 1_555
C23 C22 1_555 1_555
C24 C23 1_555 1_555
C25 C8 1_555 1_555
C26 C25 1_555 1_555
C27 C10 1_555 1_555
C28 C27 1_555 1_555
C29 C28 1_555 1_555
C30 C11 1_555 1_555
C31 C30 1_555 1_555
C32 C13 1_555 1_555
C33 C32 1_555 1_555
C34 C15 1_555 1_555
C35 C34 1_555 1_555
C36 C35 1_555 1_555
C37 C16 1_555 1_555
C38 C18 1_555 1_555
C39 C38 1_555 1_555
C40 C39 1_555 1_555
C41 C19 1_555 1_555
C42 C21 1_555 1_555
C43 C42 1_555 1_555
C44 C23 1_555 1_555
C45 C44 1_555 1_555
C46 C45 1_555 1_555
C47 C24 1_555 1_555
C48 C47 1_555 1_555
C49 C26 1_555 1_555
C50 C28 1_555 1_555
C51 C50 1_555 1_555
C52 C51 1_555 1_555
C53 C29 1_555 1_555
C54 C31 1_555 1_555
C55 C54 1_555 1_555
C56 C33 1_555 1_555
C57 C56 1_555 1_555
C58 C35 1_555 1_555
C59 C58 1_555 1_555
C60 C36 1_555 1_555
C61 C39 1_555 1_555
C62 C61 1_555 1_555
C63 C62 1_555 1_555
C64 C40 1_555 1_555
C65 C43 1_555 1_555
C66 C45 1_555 1_555
C67 C66 1_555 1_555
C68 C67 1_555 1_555
C69 C46 1_555 1_555
C70 C48 1_555 1_555
C71 C51 1_555 1_555
C72 C71 1_555 1_555
C73 C72 1_555 1_555
C74 C52 1_555 1_555
C75 C55 1_555 1_555
C76 C57 1_555 1_555
C77 C76 1_555 1_555
C78 C59 1_555 1_555
C79 C62 1_555 1_555
C80 C79 1_555 1_555
C81 C63 1_555 1_555
C82 C80 1_555 1_555
C83 C68 1_555 1_555
C84 C73 1_555 1_555
C85 C3 1_555 1_555
C86 C6 1_555 1_555
C87 C9 1_555 1_555
C88 C12 1_555 1_555
C89 C16 1_555 1_555
C90 C31 1_555 1_555
C91 C35 1_555 1_555
C92 C38 1_555 1_555
C93 C41 1_555 1_555
C94 C50 1_555 1_555
C95 C53 1_555 1_555
C96 C56 1_555 1_555
C97 C60 1_555 1_555
C98 C65 1_555 1_555
C99 C70 1_555 1_555
C100 C75 1_555 1_555
C101 C81 1_555 1_555
C102 C83 1_555 1_555
C103 C104 1_555 1_555
C104 H1 1_555 1_555
C105 C104 1_555 1_555
H2 C105 1_555 1_555
C106 C105 1_555 1_555
H3 C106 1_555 1_555
C107 C106 1_555 1_555
H4 C107 1_555 1_555
C108 C103 1_555 1_555
H5 C108 1_555 1_555
C109 C103 1_555 1_555
H6 C109 1_555 1_555
H7 C109 1_555 1_555
H8 C109 1_555 1_555
C8 C9 1_555 1_555
C11 C12 1_555 1_555
C13 C14 1_555 1_555
C16 C17 1_555 1_555
C19 C20 1_555 1_555
C21 C22 1_555 1_555
C24 C25 1_555 1_555
C26 C27 1_555 1_555
C29 C30 1_555 1_555
C31 C32 1_555 1_555
C33 C34 1_555 1_555
C36 C37 1_555 1_555
C37 C38 1_555 1_555
C40 C41 1_555 1_555
C41 C42 1_555 1_555
C43 C44 1_555 1_555
C46 C47 1_555 1_555
C48 C49 1_555 1_555
C49 C50 1_555 1_555
C52 C53 1_555 1_555
C53 C54 1_555 1_555
C55 C56 1_555 1_555
C57 C58 1_555 1_555
C59 C60 1_555 1_555
C60 C61 1_555 1_555
C63 C64 1_555 1_555
C64 C65 1_555 1_555
C65 C66 1_555 1_555
C67 C81 1_555 1_555
C68 C69 1_555 1_555
C69 C70 1_555 1_555
C70 C71 1_555 1_555
C72 C83 1_555 1_555
C73 C74 1_555 1_555
C74 C75 1_555 1_555
C75 C76 1_555 1_555
C77 C78 1_555 1_555
C77 C84 1_555 1_555
C78 C79 1_555 1_555
C80 C81 1_555 1_555
C82 C83 1_555 1_555
C82 C84 1_555 1_555
C107 C108 1_555 1_555

#END
