
#######################################################################
#
#                 Cambridge Crystallographic Data Centre
#                                CCDC 
#
#######################################################################
#
# If this CIF has been generated from an entry in the Cambridge 
# Structural Database, then it will include bibliographic, chemical, 
# crystal, experimental, refinement or atomic coordinate data resulting 
# from the CCDC's data processing and validation procedures.
#
#######################################################################

data_RICSIH
_chemical_formula_moiety         'C88 F12,0.5(C8 H10)'
_chemical_name_systematic        
'tetrakis(trifluoromethyl)-C84(23)fullerene p-xylene solvate'
_symmetry_cell_setting           triclinic
_symmetry_space_group_name_H-M   'P -1'
_symmetry_Int_Tables_number      2
_space_group_name_Hall           '-P 1'
loop_
_symmetry_equiv_pos_site_id
_symmetry_equiv_pos_as_xyz
1 x,y,z
2 -x,-y,-z
_cell_length_a                   11.4021(5)
_cell_length_b                   11.5669(4)
_cell_length_c                   19.0571(5)
_cell_angle_alpha                84.0200(10)
_cell_angle_beta                 88.1850(10)
_cell_angle_gamma                72.320(2)
_cell_volume                     2381.64
_exptl_crystal_colour            black
_exptl_crystal_description       needle
_cell_formula_units_Z            2
loop_
_atom_site_label
_atom_site_type_symbol
_atom_site_fract_x
_atom_site_fract_y
_atom_site_fract_z
F1 F 0.65799(13) -0.17352(14) 0.10789(10)
F2 F 0.49938(14) -0.01929(14) 0.08607(9)
F3 F 0.58544(16) -0.05054(15) 0.18662(9)
F4 F 0.11221(19) 0.11352(15) 0.06631(12)
F5 F 0.1613(3) -0.00074(18) -0.01765(11)
F6 F 0.29785(15) 0.05115(16) 0.03476(11)
F7 F 0.63530(13) -0.24515(13) 0.40443(8)
F8 F 0.49129(13) -0.07289(13) 0.39261(8)
F9 F 0.62928(13) -0.11985(13) 0.31253(8)
F10 F -0.09812(13) 0.12915(12) 0.23841(9)
F11 F -0.20638(12) 0.04110(13) 0.18475(10)
F12 F -0.08367(14) 0.12326(13) 0.12620(9)
C1 C 0.58550(18) -0.3982(2) 0.16259(13)
C2 C 0.63134(18) -0.5165(2) 0.19002(13)
C3 C 0.60004(19) -0.6114(2) 0.15839(13)
C4 C 0.5146(2) -0.5808(2) 0.10175(13)
C5 C 0.4627(2) -0.4536(2) 0.07360(12)
C6 C 0.50577(19) -0.3658(2) 0.10126(12)
C7 C 0.43563(19) -0.2425(2) 0.10222(12)
C8 C 0.47309(18) -0.18613(19) 0.16340(12)
C9 C 0.55234(17) -0.30212(19) 0.20712(12)
C10 C 0.55213(18) -0.32761(18) 0.27936(12)
C11 C 0.59169(18) -0.45415(19) 0.31111(12)
C12 C 0.64075(17) -0.54517(19) 0.26463(13)
C13 C 0.63006(18) -0.66622(19) 0.27825(13)
C14 C 0.60098(19) -0.7054(2) 0.21243(14)
C15 C 0.5188(2) -0.77610(19) 0.21230(14)
C16 C 0.4497(2) -0.7583(2) 0.14906(13)
C17 C 0.4455(2) -0.6621(2) 0.09629(13)
C18 C 0.3234(2) -0.6202(2) 0.06445(13)
C19 C 0.2706(2) -0.4971(2) 0.03779(12)
C20 C 0.3419(2) -0.4119(2) 0.04168(12)
C21 C 0.2763(2) -0.2874(2) 0.04159(12)
C22 C 0.3216(2) -0.2033(2) 0.07258(12)
C23 C 0.21625(19) -0.09804(19) 0.09675(12)
C24 C 0.23685(19) -0.08035(18) 0.17354(12)
C25 C 0.35916(18) -0.12214(18) 0.20503(12)
C26 C 0.36969(18) -0.13715(17) 0.27822(12)
C27 C 0.47725(19) -0.22712(19) 0.32258(12)
C28 C 0.40847(19) -0.27679(19) 0.38201(11)
C29 C 0.4444(2) -0.3989(2) 0.41209(12)
C30 C 0.54092(19) -0.49037(19) 0.37745(12)
C31 C 0.5411(2) -0.6128(2) 0.39123(12)
C32 C 0.58105(19) -0.69904(19) 0.33998(13)
C33 C 0.4983(2) -0.77419(19) 0.34169(14)
C34 C 0.4669(2) -0.81138(19) 0.27842(14)
C35 C 0.3475(2) -0.82707(19) 0.27815(14)
C36 C 0.2800(2) -0.81016(19) 0.21254(14)
C37 C 0.3290(2) -0.7770(2) 0.15049(14)
C38 C 0.2519(2) -0.6908(2) 0.09767(13)
C39 C 0.1230(2) -0.6400(2) 0.10918(13)
C40 C 0.0685(2) -0.5229(2) 0.07454(13)
C41 C 0.1397(2) -0.4533(2) 0.03894(12)
C42 C 0.0772(2) -0.3266(2) 0.04607(12)
C43 C 0.1440(2) -0.2466(2) 0.04770(12)
C44 C 0.10696(19) -0.14970(19) 0.09161(12)
C45 C 0.01302(18) -0.14316(19) 0.13923(12)
C46 C 0.00479(18) -0.06530(19) 0.19957(13)
C47 C 0.13392(18) -0.05645(18) 0.21684(12)
C48 C 0.14770(19) -0.07722(18) 0.29072(12)
C49 C 0.26357(19) -0.11717(18) 0.32087(12)
C50 C 0.2865(2) -0.20228(19) 0.38422(12)
C51 C 0.1911(2) -0.2430(2) 0.41780(12)
C52 C 0.2298(2) -0.3582(2) 0.45641(12)
C53 C 0.3544(2) -0.4348(2) 0.45376(12)
C54 C 0.3513(2) -0.5589(2) 0.46031(12)
C55 C 0.4422(2) -0.6450(2) 0.42997(12)
C56 C 0.4119(2) -0.73892(19) 0.39668(13)
C57 C 0.2867(2) -0.7364(2) 0.39080(13)
C58 C 0.2598(2) -0.78818(19) 0.33170(14)
C59 C 0.1374(2) -0.74614(19) 0.30005(14)
C60 C 0.1498(2) -0.7593(2) 0.22662(14)
C61 C 0.0707(2) -0.6755(2) 0.17562(13)
C62 C -0.03351(19) -0.5915(2) 0.20364(13)
C63 C -0.08566(19) -0.4702(2) 0.16683(13)
C64 C -0.03707(19) -0.4376(2) 0.10517(12)
C65 C -0.02625(19) -0.3161(2) 0.09127(12)
C66 C -0.05541(18) -0.23261(19) 0.14324(12)
C67 C -0.10869(18) -0.2674(2) 0.20880(13)
C68 C -0.09101(18) -0.2152(2) 0.27322(13)
C69 C -0.02751(18) -0.12687(19) 0.26862(13)
C70 C 0.04981(19) -0.12148(19) 0.32261(13)
C71 C 0.06887(19) -0.2011(2) 0.38578(12)
C72 C -0.00771(19) -0.2769(2) 0.39480(13)
C73 C 0.0360(2) -0.3971(2) 0.43322(13)
C74 C 0.1515(2) -0.4371(2) 0.46286(12)
C75 C 0.2250(2) -0.5603(2) 0.46029(12)
C76 C 0.1886(2) -0.6421(2) 0.42181(13)
C77 C 0.0659(2) -0.5999(2) 0.38996(13)
C78 C 0.0423(2) -0.6526(2) 0.32729(13)
C79 C -0.04824(19) -0.5806(2) 0.27709(14)
C80 C -0.11210(18) -0.4546(2) 0.28609(14)
C81 C -0.12712(18) -0.3833(2) 0.21817(13)
C82 C -0.09255(19) -0.4068(2) 0.34541(14)
C83 C -0.08570(19) -0.2835(2) 0.33970(13)
C84 C -0.0087(2) -0.4804(2) 0.39947(13)
C85 C 0.5541(2) -0.1053(2) 0.13605(14)
C86 C 0.1975(2) 0.0175(2) 0.04434(14)
C87 C 0.55940(19) -0.1646(2) 0.35760(13)
C88 C -0.0961(2) 0.0589(2) 0.18654(14)
C89 C -0.1209(2) 1.0102(2) 0.47974(14)
C90 C -0.0635(3) 0.9291(2) 0.53607(14)
H1 H -0.1065 0.8794 0.5614
C91 C -0.0553(3) 1.0811(2) 0.44381(14)
H2 H -0.0922 1.1374 0.4049
C92 C -0.2503(3) 1.0187(3) 0.4584(2)
H3 H -0.2729 0.9490 0.4819
H4 H -0.2539 1.0181 0.4072
H5 H -0.3078 1.0946 0.4725
C89A C 0.1209(2) 0.9898(2) 0.52026(14)
C90A C 0.0635(3) 1.0709(2) 0.46393(14)
H1A H 0.1065 1.1206 0.4386
C91A C 0.0553(3) 0.9189(2) 0.55619(14)
H2A H 0.0922 0.8626 0.5951
C92A C 0.2503(3) 0.9813(3) 0.5416(2)
H3A H 0.2729 1.0510 0.5181
H4A H 0.2539 0.9819 0.5928
H5A H 0.3078 0.9054 0.5275
F13? F 0.291(2) -0.004(3) -0.0027(15)
F14? F 0.201(3) 0.100(3) 0.0711(17)
F15? F 0.097(3) 0.059(3) 0.0167(18)
loop_
_geom_bond_atom_site_label_1
_geom_bond_atom_site_label_2
_geom_bond_site_symmetry_1
_geom_bond_site_symmetry_2
F1 C85 1_555 1_555
F2 C85 1_555 1_555
F3 C85 1_555 1_555
F4 C86 1_555 1_555
F5 C86 1_555 1_555
F6 C86 1_555 1_555
F7 C87 1_555 1_555
F8 C87 1_555 1_555
F9 C87 1_555 1_555
F10 C88 1_555 1_555
F11 C88 1_555 1_555
F12 C88 1_555 1_555
C1 C2 1_555 1_555
C2 C3 1_555 1_555
C3 C4 1_555 1_555
C4 C5 1_555 1_555
C5 C6 1_555 1_555
C6 C1 1_555 1_555
C7 C6 1_555 1_555
C8 C7 1_555 1_555
C9 C1 1_555 1_555
C10 C9 1_555 1_555
C11 C10 1_555 1_555
C12 C2 1_555 1_555
C13 C12 1_555 1_555
C14 C3 1_555 1_555
C15 C14 1_555 1_555
C16 C15 1_555 1_555
C17 C4 1_555 1_555
C18 C17 1_555 1_555
C19 C18 1_555 1_555
C20 C5 1_555 1_555
C21 C20 1_555 1_555
C22 C7 1_555 1_555
C23 C22 1_555 1_555
C24 C23 1_555 1_555
C25 C8 1_555 1_555
C26 C25 1_555 1_555
C27 C10 1_555 1_555
C28 C27 1_555 1_555
C29 C28 1_555 1_555
C30 C11 1_555 1_555
C31 C30 1_555 1_555
C32 C13 1_555 1_555
C33 C32 1_555 1_555
C34 C15 1_555 1_555
C35 C34 1_555 1_555
C36 C35 1_555 1_555
C37 C16 1_555 1_555
C38 C18 1_555 1_555
C39 C38 1_555 1_555
C40 C39 1_555 1_555
C41 C19 1_555 1_555
C42 C41 1_555 1_555
C43 C21 1_555 1_555
C44 C23 1_555 1_555
C45 C44 1_555 1_555
C46 C45 1_555 1_555
C47 C24 1_555 1_555
C48 C47 1_555 1_555
C49 C26 1_555 1_555
C50 C28 1_555 1_555
C51 C50 1_555 1_555
C52 C51 1_555 1_555
C53 C29 1_555 1_555
C54 C53 1_555 1_555
C55 C31 1_555 1_555
C56 C33 1_555 1_555
C57 C56 1_555 1_555
C58 C35 1_555 1_555
C59 C58 1_555 1_555
C60 C36 1_555 1_555
C61 C39 1_555 1_555
C62 C61 1_555 1_555
C63 C62 1_555 1_555
C64 C40 1_555 1_555
C65 C42 1_555 1_555
C66 C45 1_555 1_555
C67 C66 1_555 1_555
C68 C67 1_555 1_555
C69 C46 1_555 1_555
C70 C48 1_555 1_555
C71 C51 1_555 1_555
C72 C71 1_555 1_555
C73 C72 1_555 1_555
C74 C52 1_555 1_555
C75 C54 1_555 1_555
C76 C57 1_555 1_555
C77 C76 1_555 1_555
C78 C59 1_555 1_555
C79 C62 1_555 1_555
C80 C79 1_555 1_555
C81 C63 1_555 1_555
C82 C80 1_555 1_555
C83 C68 1_555 1_555
C84 C73 1_555 1_555
C85 C8 1_555 1_555
C86 C23 1_555 1_555
C87 C27 1_555 1_555
C88 C46 1_555 1_555
C89 C90 1_555 1_555
C90 H1 1_555 1_555
C91 C89 1_555 1_555
H2 C91 1_555 1_555
C92 C89 1_555 1_555
H3 C92 1_555 1_555
H4 C92 1_555 1_555
H5 C92 1_555 1_555
C89A C90A 1_555 1_555
C90A C91 1_555 1_555
H1A C90A 1_555 1_555
C91A C90 1_555 1_555
H2A C91A 1_555 1_555
C92A C89A 1_555 1_555
H3A C92A 1_555 1_555
H4A C92A 1_555 1_555
H5A C92A 1_555 1_555
C8 C9 1_555 1_555
C11 C12 1_555 1_555
C13 C14 1_555 1_555
C16 C17 1_555 1_555
C19 C20 1_555 1_555
C21 C22 1_555 1_555
C24 C25 1_555 1_555
C26 C27 1_555 1_555
C29 C30 1_555 1_555
C31 C32 1_555 1_555
C33 C34 1_555 1_555
C36 C37 1_555 1_555
C37 C38 1_555 1_555
C40 C41 1_555 1_555
C42 C43 1_555 1_555
C43 C44 1_555 1_555
C46 C47 1_555 1_555
C48 C49 1_555 1_555
C49 C50 1_555 1_555
C52 C53 1_555 1_555
C54 C55 1_555 1_555
C55 C56 1_555 1_555
C57 C58 1_555 1_555
C59 C60 1_555 1_555
C60 C61 1_555 1_555
C63 C64 1_555 1_555
C64 C65 1_555 1_555
C65 C66 1_555 1_555
C67 C81 1_555 1_555
C68 C69 1_555 1_555
C69 C70 1_555 1_555
C70 C71 1_555 1_555
C72 C83 1_555 1_555
C73 C74 1_555 1_555
C74 C75 1_555 1_555
C75 C76 1_555 1_555
C77 C78 1_555 1_555
C77 C84 1_555 1_555
C78 C79 1_555 1_555
C80 C81 1_555 1_555
C82 C83 1_555 1_555
C82 C84 1_555 1_555
C89A C91A 1_555 1_555

#END
