
#######################################################################
#
#                 Cambridge Crystallographic Data Centre
#                                CCDC 
#
#######################################################################
#
# If this CIF has been generated from an entry in the Cambridge 
# Structural Database, then it will include bibliographic, chemical, 
# crystal, experimental, refinement or atomic coordinate data resulting 
# from the CCDC's data processing and validation procedures.
#
#######################################################################

data_RICSAZ
_chemical_formula_moiety         'C96 F36,C8 H10,C7 H8'
_chemical_name_systematic        
'hexadecakis(trifluoromethyl)-C84(23)fullerene toluene p-xylene solvate'
_symmetry_cell_setting           triclinic
_symmetry_space_group_name_H-M   'P -1'
_symmetry_Int_Tables_number      2
_space_group_name_Hall           '-P 1'
loop_
_symmetry_equiv_pos_site_id
_symmetry_equiv_pos_as_xyz
1 x,y,z
2 -x,-y,-z
_cell_length_a                   12.0230(10)
_cell_length_b                   14.8690(10)
_cell_length_c                   21.191(2)
_cell_angle_alpha                89.048(4)
_cell_angle_beta                 85.248(5)
_cell_angle_gamma                68.874(6)
_cell_volume                     3521.2
_exptl_crystal_colour            orange
_exptl_crystal_description       block
_cell_formula_units_Z            2
loop_
_atom_site_label
_atom_site_type_symbol
_atom_site_fract_x
_atom_site_fract_y
_atom_site_fract_z
F1 F -0.48874(17) -0.04423(13) 0.05932(9)
F2 F -0.52823(18) 0.05134(14) 0.13871(10)
F3 F -0.39736(17) 0.05434(13) 0.06387(9)
F4 F -0.13784(19) -0.20280(15) -0.06970(8)
F5 F -0.2838(2) -0.24973(15) -0.04658(9)
F6 F -0.30048(19) -0.10480(13) -0.02498(9)
F7 F -0.2118(2) 0.16420(13) 0.17230(9)
F8 F -0.3787(2) 0.14497(13) 0.16647(11)
F9 F -0.3284(2) 0.17443(13) 0.25598(9)
F10 F 0.0521(2) -0.15016(13) -0.05523(9)
F11 F 0.1031(2) -0.29866(14) -0.08284(9)
F12 F 0.2307(2) -0.24866(18) -0.04732(10)
F13 F -0.41442(17) -0.51592(13) 0.21787(11)
F14 F -0.3312(2) -0.60351(16) 0.29409(9)
F15 F -0.26063(18) -0.64384(13) 0.19855(9)
F16 F -0.2605(2) 0.13730(14) 0.37233(10)
F17 F -0.3954(2) 0.08237(16) 0.40558(11)
F18 F -0.2348(2) 0.04561(15) 0.45240(10)
F19 F 0.2059(3) -0.0890(3) 0.01555(12)
F20 F 0.1784(3) -0.00044(15) 0.09827(12)
F21 F 0.3421(2) -0.1218(2) 0.08009(16)
F22 F -0.0372(5) -0.6559(2) 0.4293(2)
F23 F -0.1912(9) -0.6489(7) 0.3806(4)
F24 F -0.2082(5) -0.5527(2) 0.45967(13)
F25 F -0.3887(2) -0.20753(15) 0.49729(10)
F26 F -0.3867(2) -0.06597(14) 0.48092(9)
F27 F -0.5202(2) -0.10847(15) 0.44205(10)
F28 F 0.36315(18) -0.73418(12) 0.17502(10)
F29 F 0.46902(17) -0.64810(13) 0.18966(10)
F30 F 0.40583(18) -0.71344(14) 0.26827(10)
F31 F 0.3372(3) -0.6540(3) 0.3951(2)
F32 F 0.2313(6) -0.7298(3) 0.3642(3)
F33 F 0.1763(4) -0.6470(3) 0.44775(18)
F34 F 0.2004(3) -0.13156(16) 0.44338(11)
F35 F 0.2471(2) -0.27589(17) 0.47856(10)
F36 F 0.3658(2) -0.24153(19) 0.40888(11)
C1 C -0.2773(3) -0.24565(19) 0.08446(12)
C2 C -0.3485(3) -0.18043(19) 0.12677(13)
C3 C -0.3409(3) -0.08071(19) 0.13423(14)
C4 C -0.2125(3) -0.08764(19) 0.11370(13)
C5 C -0.1339(3) -0.15864(19) 0.07119(12)
C6 C -0.1815(3) -0.22885(19) 0.03891(13)
C7 C -0.0873(3) -0.32960(19) 0.03499(12)
C8 C -0.1321(3) -0.39687(19) 0.06719(12)
C9 C -0.2460(3) -0.34549(19) 0.09776(12)
C10 C -0.2889(3) -0.37778(19) 0.15505(13)
C11 C -0.3623(3) -0.3084(2) 0.20125(13)
C12 C -0.3934(3) -0.2106(2) 0.18486(14)
C13 C -0.4094(3) -0.1370(2) 0.23120(14)
C14 C -0.3632(3) -0.06766(19) 0.20683(14)
C15 C -0.3073(3) -0.02710(18) 0.24554(14)
C16 C -0.2241(3) 0.01848(19) 0.21261(13)
C17 C -0.1656(3) -0.03617(18) 0.15026(13)
C18 C -0.0425(3) -0.05646(18) 0.14708(13)
C19 C 0.0358(3) -0.12473(19) 0.10563(13)
C20 C -0.0092(3) -0.17747(19) 0.06632(12)
C21 C 0.0804(3) -0.2651(2) 0.02878(13)
C22 C 0.0309(3) -0.34627(19) 0.03026(12)
C23 C 0.1111(3) -0.43087(19) 0.05750(12)
C24 C 0.0712(3) -0.50062(19) 0.08735(12)
C25 C -0.0551(3) -0.48257(18) 0.09234(12)
C26 C -0.1062(3) -0.51993(18) 0.14460(12)
C27 C -0.2176(3) -0.47119(19) 0.17347(13)
C28 C -0.2298(3) -0.50877(19) 0.24052(13)
C29 C -0.2826(3) -0.4277(2) 0.28819(13)
C30 C -0.3575(3) -0.3328(2) 0.26875(14)
C31 C -0.3844(3) -0.2574(2) 0.31297(14)
C32 C -0.4059(3) -0.1592(2) 0.29425(15)
C33 C -0.3569(3) -0.1132(2) 0.33554(14)
C34 C -0.3036(3) -0.05034(19) 0.31162(14)
C35 C -0.2165(3) -0.0306(2) 0.35237(13)
C36 C -0.1112(3) -0.02045(19) 0.31271(13)
C37 C -0.1144(3) 0.00232(18) 0.24838(14)
C38 C -0.0111(3) -0.0304(2) 0.20782(13)
C39 C 0.1030(3) -0.0857(2) 0.22969(14)
C40 C 0.1871(3) -0.1463(2) 0.18573(14)
C41 C 0.1696(3) -0.1543(2) 0.11514(14)
C42 C 0.2327(3) -0.2625(2) 0.10363(14)
C43 C 0.1899(3) -0.3119(2) 0.06593(13)
C44 C 0.2065(3) -0.4099(2) 0.07998(13)
C45 C 0.2655(3) -0.4568(2) 0.13316(14)
C46 C 0.2361(3) -0.53581(19) 0.15598(14)
C47 C 0.1421(3) -0.55562(18) 0.13477(13)
C48 C 0.0885(3) -0.59586(18) 0.18633(13)
C49 C -0.0312(3) -0.57935(18) 0.19119(12)
C50 C -0.0968(3) -0.56617(18) 0.25081(13)
C51 C -0.0407(3) -0.56604(18) 0.30524(13)
C52 C -0.1200(3) -0.5204(2) 0.36414(13)
C53 C -0.2350(3) -0.4389(2) 0.34605(13)
C54 C -0.2550(3) -0.3575(2) 0.38582(13)
C55 C -0.3334(3) -0.2696(2) 0.37116(14)
C56 C -0.3229(3) -0.1766(2) 0.39459(14)
C57 C -0.1935(3) -0.1933(2) 0.40622(13)
C58 C -0.1508(3) -0.1222(2) 0.38924(12)
C59 C -0.0262(3) -0.1414(2) 0.38311(13)
C60 C -0.0022(3) -0.0760(2) 0.33548(14)
C61 C 0.1069(3) -0.1086(2) 0.29625(14)
C62 C 0.1971(3) -0.1927(2) 0.31435(14)
C63 C 0.2741(3) -0.2557(2) 0.26851(15)
C64 C 0.2701(3) -0.2334(2) 0.20469(15)
C65 C 0.2916(3) -0.3077(2) 0.15797(15)
C66 C 0.3068(3) -0.4024(2) 0.17520(15)
C67 C 0.3099(3) -0.4273(2) 0.24277(15)
C68 C 0.2775(3) -0.5069(2) 0.26654(15)
C69 C 0.2637(3) -0.5794(2) 0.22129(14)
C70 C 0.1493(3) -0.60030(18) 0.24124(14)
C71 C 0.0861(3) -0.58383(18) 0.30021(14)
C72 C 0.1468(3) -0.5579(2) 0.35431(14)
C73 C 0.0562(3) -0.4789(2) 0.39588(13)
C74 C -0.0644(3) -0.4616(2) 0.40053(13)
C75 C -0.1458(3) -0.3688(2) 0.41442(13)
C76 C -0.1100(3) -0.2880(2) 0.41942(13)
C77 C 0.0147(3) -0.3057(2) 0.41509(13)
C78 C 0.0568(3) -0.2299(2) 0.39659(13)
C79 C 0.1875(3) -0.2490(2) 0.37439(15)
C80 C 0.2492(3) -0.3525(2) 0.34935(15)
C81 C 0.3003(3) -0.3551(2) 0.28695(15)
C82 C 0.2077(3) -0.4235(2) 0.36836(15)
C83 C 0.2299(3) -0.5047(2) 0.32780(15)
C84 C 0.0958(3) -0.4034(2) 0.40568(13)
C85 C -0.4403(3) -0.0028(2) 0.09878(15)
C86 C -0.2272(3) -0.1954(2) -0.02621(14)
C87 C -0.2880(3) 0.1274(2) 0.20184(14)
C88 C 0.1168(3) -0.2400(2) -0.04034(14)
C89 C -0.3091(3) -0.5700(2) 0.23818(14)
C90 C -0.2780(4) 0.0600(2) 0.39649(15)
C91 C 0.2256(3) -0.0912(2) 0.07636(16)
C92 C -0.1486(4) -0.5934(2) 0.40886(15)
C93 C -0.4062(4) -0.1386(2) 0.45435(15)
C94 C 0.3767(3) -0.6702(2) 0.21394(15)
C95 C 0.2169(4) -0.6466(2) 0.39358(17)
C96 C 0.2515(4) -0.2248(3) 0.42730(17)
C97 C 0.1087(4) -0.8894(3) 0.3579(2)
C98 C 0.0381(4) -0.8472(3) 0.3102(2)
H1 H -0.0460 -0.8190 0.3196
C99 C 0.0854(5) -0.8441(3) 0.2483(2)
H2 H 0.0339 -0.8142 0.2162
C100 C 0.2064(5) -0.8842(4) 0.2338(2)
H3 H 0.2398 -0.8818 0.1919
C101 C 0.2786(5) -0.9277(4) 0.2804(3)
H4 H 0.3626 -0.9562 0.2705
C102 C 0.2312(5) -0.9311(4) 0.3420(3)
H5 H 0.2830 -0.9622 0.3736
C103 C 0.0552(6) -0.8912(4) 0.4245(2)
H6 H -0.0264 -0.8435 0.4292
H7 H 0.1040 -0.8758 0.4544
H8 H 0.0533 -0.9556 0.4334
C104 C 0.5010(6) -0.4163(7) -0.0061(4)
C105 C 0.4568(5) -0.4510(7) -0.0528(3)
H9 H 0.4270 -0.4138 -0.0888
C106 C 0.5426(5) -0.4619(7) 0.0457(3)
H10 H 0.5712 -0.4321 0.0768
C107 C 0.5051(9) -0.3345(10) -0.0162(6)
H11 H 0.5052 -0.3034 0.0243
H12 H 0.4352 -0.2953 -0.0379
H13 H 0.5783 -0.3406 -0.0427
C104A C 0.4990(6) -0.5837(7) 0.0061(4)
C105A C 0.5432(5) -0.5490(7) 0.0528(3)
H9A H 0.5730 -0.5862 0.0888
C106A C 0.4574(5) -0.5381(7) -0.0457(3)
H10A H 0.4288 -0.5679 -0.0768
C107A C 0.4949(9) -0.6655(10) 0.0162(6)
H11A H 0.4948 -0.6966 -0.0243
H12A H 0.5648 -0.7047 0.0379
H13A H 0.4217 -0.6594 0.0427
C108 C 0.5027(7) -0.5577(7) 0.4499(6)
C109 C 0.4894(8) -0.5912(7) 0.5121(6)
H14 H 0.4808 -0.6516 0.5198
C110 C 0.5104(7) -0.4687(6) 0.4395(6)
H15 H 0.5158 -0.4478 0.3971
C111 C 0.5086(17) -0.6256(16) 0.4042(10)
H16 H 0.4964 -0.5947 0.3628
H17 H 0.4463 -0.6526 0.4151
H18 H 0.5873 -0.6774 0.4024
C108A C 0.4973(7) -0.4423(7) 0.5501(6)
C109A C 0.5106(8) -0.4088(7) 0.4879(6)
H14A H 0.5192 -0.3484 0.4802
C110A C 0.4896(7) -0.5313(6) 0.5605(6)
H15A H 0.4842 -0.5522 0.6029
C111A C 0.4914(17) -0.3744(16) 0.5958(10)
H16A H 0.5036 -0.4053 0.6372
H17A H 0.5537 -0.3474 0.5849
H18A H 0.4127 -0.3226 0.5976
F37? F 0.267(3) -0.040(3) 0.1125(13)
F38? F 0.318(5) -0.148(3) 0.041(2)
F39? F 0.166(3) -0.039(3) 0.0382(17)
F40? F -0.1076(15) -0.6216(11) 0.4529(5)
F41? F -0.2816(14) -0.5436(7) 0.4375(8)
F42? F -0.173(3) -0.662(2) 0.3787(15)
F43? F 0.2430(6) -0.6136(3) 0.4462(2)
F44? F 0.1244(7) -0.6814(4) 0.4266(3)
F45? F 0.2847(8) -0.7139(5) 0.3668(3)
loop_
_geom_bond_atom_site_label_1
_geom_bond_atom_site_label_2
_geom_bond_site_symmetry_1
_geom_bond_site_symmetry_2
F1 C85 1_555 1_555
F2 C85 1_555 1_555
F3 C85 1_555 1_555
F4 C86 1_555 1_555
F5 C86 1_555 1_555
F6 C86 1_555 1_555
F7 C87 1_555 1_555
F8 C87 1_555 1_555
F9 C87 1_555 1_555
F10 C88 1_555 1_555
F11 C88 1_555 1_555
F12 C88 1_555 1_555
F13 C89 1_555 1_555
F14 C89 1_555 1_555
F15 C89 1_555 1_555
F16 C90 1_555 1_555
F17 C90 1_555 1_555
F18 C90 1_555 1_555
F19 C91 1_555 1_555
F20 C91 1_555 1_555
F21 C91 1_555 1_555
F22 C92 1_555 1_555
F23 C92 1_555 1_555
F24 C92 1_555 1_555
F25 C93 1_555 1_555
F26 C93 1_555 1_555
F27 C93 1_555 1_555
F28 C94 1_555 1_555
F29 C94 1_555 1_555
F30 C94 1_555 1_555
F31 C95 1_555 1_555
F32 C95 1_555 1_555
F33 C95 1_555 1_555
F34 C96 1_555 1_555
F35 C96 1_555 1_555
F36 C96 1_555 1_555
C1 C2 1_555 1_555
C2 C3 1_555 1_555
C3 C4 1_555 1_555
C4 C5 1_555 1_555
C5 C6 1_555 1_555
C6 C1 1_555 1_555
C7 C6 1_555 1_555
C8 C7 1_555 1_555
C9 C1 1_555 1_555
C10 C9 1_555 1_555
C11 C10 1_555 1_555
C12 C2 1_555 1_555
C13 C12 1_555 1_555
C14 C3 1_555 1_555
C15 C14 1_555 1_555
C16 C15 1_555 1_555
C17 C4 1_555 1_555
C18 C17 1_555 1_555
C19 C18 1_555 1_555
C20 C5 1_555 1_555
C21 C20 1_555 1_555
C22 C7 1_555 1_555
C23 C22 1_555 1_555
C24 C23 1_555 1_555
C25 C8 1_555 1_555
C26 C25 1_555 1_555
C27 C10 1_555 1_555
C28 C27 1_555 1_555
C29 C28 1_555 1_555
C30 C11 1_555 1_555
C31 C30 1_555 1_555
C32 C13 1_555 1_555
C33 C32 1_555 1_555
C34 C15 1_555 1_555
C35 C34 1_555 1_555
C36 C35 1_555 1_555
C37 C16 1_555 1_555
C38 C18 1_555 1_555
C39 C38 1_555 1_555
C40 C39 1_555 1_555
C41 C19 1_555 1_555
C42 C41 1_555 1_555
C43 C21 1_555 1_555
C44 C23 1_555 1_555
C45 C44 1_555 1_555
C46 C45 1_555 1_555
C47 C24 1_555 1_555
C48 C47 1_555 1_555
C49 C26 1_555 1_555
C50 C28 1_555 1_555
C51 C50 1_555 1_555
C52 C51 1_555 1_555
C53 C29 1_555 1_555
C54 C53 1_555 1_555
C55 C31 1_555 1_555
C56 C33 1_555 1_555
C57 C56 1_555 1_555
C58 C35 1_555 1_555
C59 C58 1_555 1_555
C60 C36 1_555 1_555
C61 C39 1_555 1_555
C62 C61 1_555 1_555
C63 C62 1_555 1_555
C64 C40 1_555 1_555
C65 C42 1_555 1_555
C66 C45 1_555 1_555
C67 C66 1_555 1_555
C68 C67 1_555 1_555
C69 C46 1_555 1_555
C70 C48 1_555 1_555
C71 C51 1_555 1_555
C72 C71 1_555 1_555
C73 C72 1_555 1_555
C74 C52 1_555 1_555
C75 C54 1_555 1_555
C76 C57 1_555 1_555
C77 C76 1_555 1_555
C78 C59 1_555 1_555
C79 C62 1_555 1_555
C80 C79 1_555 1_555
C81 C63 1_555 1_555
C82 C80 1_555 1_555
C83 C68 1_555 1_555
C84 C73 1_555 1_555
C85 C3 1_555 1_555
C86 C6 1_555 1_555
C87 C16 1_555 1_555
C88 C21 1_555 1_555
C89 C28 1_555 1_555
C90 C35 1_555 1_555
C91 C41 1_555 1_555
C92 C52 1_555 1_555
C93 C56 1_555 1_555
C94 C69 1_555 1_555
C95 C72 1_555 1_555
C96 C79 1_555 1_555
C97 C98 1_555 1_555
C98 H1 1_555 1_555
C99 C98 1_555 1_555
H2 C99 1_555 1_555
C100 C99 1_555 1_555
H3 C100 1_555 1_555
C101 C100 1_555 1_555
H4 C101 1_555 1_555
C102 C97 1_555 1_555
H5 C102 1_555 1_555
C103 C97 1_555 1_555
H6 C103 1_555 1_555
H7 C103 1_555 1_555
H8 C103 1_555 1_555
C104 C105 1_555 1_555
C105 H9 1_555 1_555
C106 C104 1_555 1_555
H10 C106 1_555 1_555
C107 C104 1_555 1_555
H11 C107 1_555 1_555
H12 C107 1_555 1_555
H13 C107 1_555 1_555
C108 C109 1_555 1_555
C109 H14 1_555 1_555
C110 C108 1_555 1_555
H15 C110 1_555 1_555
C111 C108 1_555 1_555
H16 C111 1_555 1_555
H17 C111 1_555 1_555
H18 C111 1_555 1_555
C104A C105A 1_555 1_555
C105A C106 1_555 1_555
H9A C105A 1_555 1_555
C106A C105 1_555 1_555
H10A C106A 1_555 1_555
C107A C104A 1_555 1_555
H11A C107A 1_555 1_555
H12A C107A 1_555 1_555
H13A C107A 1_555 1_555
C108A C109A 1_555 1_555
C109A C110 1_555 1_555
H14A C109A 1_555 1_555
C110A C109 1_555 1_555
H15A C110A 1_555 1_555
C111A C108A 1_555 1_555
H16A C111A 1_555 1_555
H17A C111A 1_555 1_555
H18A C111A 1_555 1_555
C8 C9 1_555 1_555
C11 C12 1_555 1_555
C13 C14 1_555 1_555
C16 C17 1_555 1_555
C19 C20 1_555 1_555
C21 C22 1_555 1_555
C24 C25 1_555 1_555
C26 C27 1_555 1_555
C29 C30 1_555 1_555
C31 C32 1_555 1_555
C33 C34 1_555 1_555
C36 C37 1_555 1_555
C37 C38 1_555 1_555
C40 C41 1_555 1_555
C42 C43 1_555 1_555
C43 C44 1_555 1_555
C46 C47 1_555 1_555
C48 C49 1_555 1_555
C49 C50 1_555 1_555
C52 C53 1_555 1_555
C54 C55 1_555 1_555
C55 C56 1_555 1_555
C57 C58 1_555 1_555
C59 C60 1_555 1_555
C60 C61 1_555 1_555
C63 C64 1_555 1_555
C64 C65 1_555 1_555
C65 C66 1_555 1_555
C67 C81 1_555 1_555
C68 C69 1_555 1_555
C69 C70 1_555 1_555
C70 C71 1_555 1_555
C72 C83 1_555 1_555
C73 C74 1_555 1_555
C74 C75 1_555 1_555
C75 C76 1_555 1_555
C77 C78 1_555 1_555
C77 C84 1_555 1_555
C78 C79 1_555 1_555
C80 C81 1_555 1_555
C82 C83 1_555 1_555
C82 C84 1_555 1_555
C101 C102 1_555 1_555
C104A C106A 1_555 1_555
C108A C110A 1_555 1_555

#END
