
#######################################################################
#
#                 Cambridge Crystallographic Data Centre
#                                CCDC 
#
#######################################################################
#
# If this CIF has been generated from an entry in the Cambridge 
# Structural Database, then it will include bibliographic, chemical, 
# crystal, experimental, refinement or atomic coordinate data resulting 
# from the CCDC's data processing and validation procedures.
#
#######################################################################

data_RIDCUE
_chemical_formula_moiety         'C14 H24 F3 N1 O3 S1'
_chemical_name_systematic        
't-Butyl 2-(1-((t-butylsulfinyl)amino)-2,2,2-trifluoroethyl)but-3-enoate'
_symmetry_cell_setting           monoclinic
_symmetry_space_group_name_H-M   'P 21'
_symmetry_Int_Tables_number      4
_space_group_name_Hall           'P 2yb'
loop_
_symmetry_equiv_pos_site_id
_symmetry_equiv_pos_as_xyz
1 x,y,z
2 -x,1/2+y,-z
_cell_length_a                   9.4050(12)
_cell_length_b                   9.9217(12)
_cell_length_c                   10.9244(14)
_cell_angle_alpha                90
_cell_angle_beta                 113.544(2)
_cell_angle_gamma                90
_cell_volume                     934.534
_exptl_crystal_colour            colorless
_exptl_crystal_description       prismatic
_cell_formula_units_Z            2
loop_
_atom_site_label
_atom_site_type_symbol
_atom_site_fract_x
_atom_site_fract_y
_atom_site_fract_z
S1 S 0.67325(6) 0.13385(6) 0.61019(5)
F1 F 0.3365(3) 0.0903(2) 0.6228(3)
F2 F 0.2493(2) 0.2887(2) 0.5982(3)
F3 F 0.3050(3) 0.1870(3) 0.7810(3)
N1 N 0.5696(2) 0.26329(19) 0.6263(2)
O1 O 0.5765(2) 0.02834(19) 0.5178(2)
O2 O 0.8017(2) 0.3777(2) 0.9130(2)
O3 O 0.70632(19) 0.57658(18) 0.81800(18)
C1 C 0.5157(3) 0.2618(2) 0.7323(2)
H1 H 0.5831 0.2017 0.8028
C2 C 0.5272(3) 0.4039(2) 0.7910(2)
H2 H 0.4632 0.4669 0.7218
C3 C 0.4874(14) 0.4141(19) 0.9149(10)
H3 H 0.5376 0.3583 0.9880
C4 C 0.3825(7) 0.5018(6) 0.9180(6)
H4 H 0.3321 0.5577 0.8451
H5 H 0.3593 0.5073 0.9930
C5 C 0.3506(4) 0.2076(3) 0.6822(3)
C6 C 0.6973(3) 0.4492(3) 0.8479(2)
C7 C 0.8505(3) 0.6579(3) 0.8822(3)
C8 C 0.8954(5) 0.6594(5) 1.0292(3)
H6 H 0.8110 0.6941 1.0481
H7 H 0.9849 0.7157 1.0708
H8 H 0.9191 0.5694 1.0636
C9 C 0.7997(5) 0.7952(4) 0.8235(6)
H9 H 0.7852 0.7950 0.7314
H10 H 0.8775 0.8603 0.8716
H11 H 0.7038 0.8182 0.8300
C10 C 0.9763(4) 0.6041(4) 0.8450(5)
H12 H 1.0002 0.5132 0.8767
H13 H 1.0673 0.6591 0.8847
H14 H 0.9423 0.6054 0.7496
C11 C 0.7708(3) 0.2218(2) 0.5157(3)
C12 C 0.6509(4) 0.2680(3) 0.3813(3)
H15 H 0.5894 0.3391 0.3947
H16 H 0.5849 0.1936 0.3373
H17 H 0.7026 0.3003 0.3270
C13 C 0.8642(3) 0.3386(3) 0.6003(3)
H18 H 0.9327 0.3732 0.5622
H19 H 0.9239 0.3075 0.6894
H20 H 0.7948 0.4085 0.6027
C14 C 0.8781(3) 0.1134(3) 0.4990(4)
H21 H 0.8169 0.0404 0.4466
H22 H 0.9460 0.0805 0.5853
H23 H 0.9387 0.1517 0.4548
H24 H 0.519(2) 0.308(2) 0.5577(18)
C15? C 0.458(3) 0.415(3) 0.8893(17)
H25? H 0.3580 0.3801 0.8552
C16? C 0.496(3) 0.457(2) 1.0079(18)
H26? H 0.5936 0.4946 1.0542
H27? H 0.4259 0.4514 1.0483
loop_
_geom_bond_atom_site_label_1
_geom_bond_atom_site_label_2
_geom_bond_site_symmetry_1
_geom_bond_site_symmetry_2
S1 N1 1_555 1_555
F1 C5 1_555 1_555
F2 C5 1_555 1_555
F3 C5 1_555 1_555
N1 C1 1_555 1_555
O1 S1 1_555 1_555
O2 C6 1_555 1_555
O3 C6 1_555 1_555
C1 H1 1_555 1_555
C2 C1 1_555 1_555
H2 C2 1_555 1_555
C3 C2 1_555 1_555
H3 C3 1_555 1_555
C4 C3 1_555 1_555
H4 C4 1_555 1_555
H5 C4 1_555 1_555
C5 C1 1_555 1_555
C6 C2 1_555 1_555
C7 O3 1_555 1_555
C8 C7 1_555 1_555
H6 C8 1_555 1_555
H7 C8 1_555 1_555
H8 C8 1_555 1_555
C9 C7 1_555 1_555
H9 C9 1_555 1_555
H10 C9 1_555 1_555
H11 C9 1_555 1_555
C10 C7 1_555 1_555
H12 C10 1_555 1_555
H13 C10 1_555 1_555
H14 C10 1_555 1_555
C11 S1 1_555 1_555
C12 C11 1_555 1_555
H15 C12 1_555 1_555
H16 C12 1_555 1_555
H17 C12 1_555 1_555
C13 C11 1_555 1_555
H18 C13 1_555 1_555
H19 C13 1_555 1_555
H20 C13 1_555 1_555
C14 C11 1_555 1_555
H21 C14 1_555 1_555
H22 C14 1_555 1_555
H23 C14 1_555 1_555
H24 N1 1_555 1_555

#END
