
#######################################################################
#
#                 Cambridge Crystallographic Data Centre
#                                CCDC 
#
#######################################################################
#
# If this CIF has been generated from an entry in the Cambridge 
# Structural Database, then it will include bibliographic, chemical, 
# crystal, experimental, refinement or atomic coordinate data resulting 
# from the CCDC's data processing and validation procedures.
#
#######################################################################

data_RIDJUL
_chemical_formula_moiety         'C22 H14 N2 O4'
_chemical_name_systematic        'Naphthalene-2,3-diyl di-isonicotinate'
_symmetry_cell_setting           monoclinic
_symmetry_space_group_name_H-M   'C 2/c'
_symmetry_Int_Tables_number      15
_space_group_name_Hall           '-C 2yn'
loop_
_symmetry_equiv_pos_site_id
_symmetry_equiv_pos_as_xyz
1 x,y,z
2 -x,y,1/2-z
3 1/2+x,1/2+y,z
4 1/2-x,1/2+y,1/2-z
5 -x,-y,-z
6 x,-y,1/2+z
7 1/2-x,1/2-y,-z
8 1/2+x,1/2-y,1/2+z
_cell_length_a                   13.44780(10)
_cell_length_b                   14.12220(10)
_cell_length_c                   9.66920(10)
_cell_angle_alpha                90
_cell_angle_beta                 108.0260(10)
_cell_angle_gamma                90
_cell_volume                     1746.17
_exptl_crystal_colour            colorless
_exptl_crystal_description       block
_cell_formula_units_Z            4
loop_
_atom_site_label
_atom_site_type_symbol
_atom_site_fract_x
_atom_site_fract_y
_atom_site_fract_z
O1 O 0.17183(11) 0.13899(8) 0.71194(15)
O2 O 0.08174(10) 0.12086(8) 0.87207(13)
N1 N 0.15802(14) 0.46538(10) 0.91647(19)
C1 C 0.10964(16) 0.40407(13) 0.9783(2)
H1 H 0.0793 0.4276 1.0481
C2 C 0.10076(14) 0.30794(12) 0.94727(19)
H2 H 0.0651 0.2670 0.9941
C3 C 0.14523(12) 0.27336(10) 0.84621(17)
C4 C 0.19632(14) 0.33600(12) 0.7813(2)
H3 H 0.2281 0.3144 0.7120
C5 C 0.20020(16) 0.43057(13) 0.8194(2)
H4 H 0.2349 0.4732 0.7737
C6 C 0.13669(12) 0.17191(11) 0.80085(17)
C7 C 0.04485(13) 0.03229(11) 0.81179(18)
C8 C 0.08978(14) -0.04959(11) 0.87314(19)
H5 H 0.1503 -0.0485 0.9562
C9 C 0.04544(13) -0.13717(11) 0.81200(19)
C10 C 0.08981(14) -0.22502(12) 0.8701(2)
H6 H 0.1510 -0.2259 0.9521
C11 C 0.04587(15) -0.30873(12) 0.8099(2)
H7 H 0.0774 -0.3670 0.8491
O1A O -0.17183(11) 0.13899(8) 0.78806(15)
O2A O -0.08174(10) 0.12086(8) 0.62793(13)
N1A N -0.15802(14) 0.46538(10) 0.58353(19)
C1A C -0.10964(16) 0.40407(13) 0.5217(2)
H1A H -0.0793 0.4276 0.4519
C2A C -0.10076(14) 0.30794(12) 0.55273(19)
H2A H -0.0651 0.2670 0.5059
C3A C -0.14523(12) 0.27336(10) 0.65379(17)
C4A C -0.19632(14) 0.33600(12) 0.7187(2)
H3A H -0.2281 0.3144 0.7880
C5A C -0.20020(16) 0.43057(13) 0.6806(2)
H4A H -0.2349 0.4732 0.7263
C6A C -0.13669(12) 0.17191(11) 0.69915(17)
C7A C -0.04485(13) 0.03229(11) 0.68821(18)
C8A C -0.08978(14) -0.04959(11) 0.62686(19)
H5A H -0.1503 -0.0485 0.5438
C9A C -0.04544(13) -0.13717(11) 0.68800(19)
C10A C -0.08981(14) -0.22502(12) 0.6299(2)
H6A H -0.1510 -0.2259 0.5479
C11A C -0.04587(15) -0.30873(12) 0.6901(2)
H7A H -0.0774 -0.3670 0.6509
loop_
_geom_bond_atom_site_label_1
_geom_bond_atom_site_label_2
_geom_bond_site_symmetry_1
_geom_bond_site_symmetry_2
O1 C6 1_555 1_555
O2 C6 1_555 1_555
N1 C1 1_555 1_555
C1 H1 1_555 1_555
C2 C1 1_555 1_555
H2 C2 1_555 1_555
C3 C2 1_555 1_555
C4 C3 1_555 1_555
H3 C4 1_555 1_555
C5 N1 1_555 1_555
H4 C5 1_555 1_555
C6 C3 1_555 1_555
C7 O2 1_555 1_555
C8 C7 1_555 1_555
H5 C8 1_555 1_555
C9 C8 1_555 1_555
C10 C9 1_555 1_555
H6 C10 1_555 1_555
C11 C10 1_555 1_555
H7 C11 1_555 1_555
O1A C6A 1_555 1_555
O2A C6A 1_555 1_555
N1A C1A 1_555 1_555
C1A H1A 1_555 1_555
C2A C1A 1_555 1_555
H2A C2A 1_555 1_555
C3A C2A 1_555 1_555
C4A C3A 1_555 1_555
H3A C4A 1_555 1_555
C5A N1A 1_555 1_555
H4A C5A 1_555 1_555
C6A C3A 1_555 1_555
C7A C7 1_555 1_555
C8A C7A 1_555 1_555
H5A C8A 1_555 1_555
C9A C9 1_555 1_555
C10A C9A 1_555 1_555
H6A C10A 1_555 1_555
C11A C11 1_555 1_555
H7A C11A 1_555 1_555
C4 C5 1_555 1_555
O2A C7A 1_555 1_555
C4A C5A 1_555 1_555
C8A C9A 1_555 1_555
C10A C11A 1_555 1_555

#END
