
#######################################################################
#
#                 Cambridge Crystallographic Data Centre
#                                CCDC 
#
#######################################################################
#
# If this CIF has been generated from an entry in the Cambridge 
# Structural Database, then it will include bibliographic, chemical, 
# crystal, experimental, refinement or atomic coordinate data resulting 
# from the CCDC's data processing and validation procedures.
#
#######################################################################

data_RIDNUQ02
_chemical_formula_moiety         'C12 H28 N1 1+,C2 H1 O4 1-'
_chemical_name_systematic        'tributylammonium hydrogen ethanedioate'
_symmetry_cell_setting           monoclinic
_symmetry_space_group_name_H-M   'P 21/n'
_symmetry_Int_Tables_number      14
_space_group_name_Hall           '-P 2yn'
loop_
_symmetry_equiv_pos_site_id
_symmetry_equiv_pos_as_xyz
1 x,y,z
2 1/2-x,1/2+y,1/2-z
3 -x,-y,-z
4 1/2+x,1/2-y,1/2+z
_cell_length_a                   5.6017(2)
_cell_length_b                   15.3459(5)
_cell_length_c                   18.7745(11)
_cell_angle_alpha                90
_cell_angle_beta                 94.757(4)
_cell_angle_gamma                90
_cell_volume                     1608.36
_exptl_crystal_colour            colorless
_exptl_crystal_description       plate
_cell_formula_units_Z            4
loop_
_atom_site_label
_atom_site_type_symbol
_atom_site_fract_x
_atom_site_fract_y
_atom_site_fract_z
O1 O -0.0149(4) 0.05205(15) 0.20767(16)
O2 O 0.1385(4) -0.07866(14) 0.18657(15)
O3 O 0.4398(4) 0.11780(16) 0.22214(17)
O4 O 0.5769(4) -0.01382(15) 0.19555(15)
H1 H 0.735(8) 0.012(3) 0.203(2)
C1 C 0.1547(5) 0.0001(2) 0.19953(18)
C2 C 0.4085(5) 0.0422(2) 0.20727(19)
N1 N -0.5179(4) -0.20312(18) 0.16943(17)
H2 H -0.5916 -0.1455 0.1794
C3 C -0.3595(6) -0.1877(3) 0.1090(3)
H3 H -0.2314 -0.1460 0.1254
H4 H -0.2819 -0.2433 0.0975
C4 C -0.4919(9) -0.1527(3) 0.0426(3)
H5 H -0.5892 -0.1023 0.0558
H6 H -0.6039 -0.1981 0.0227
C5 C -0.3666(7) -0.2269(2) 0.2352(2)
H7 H -0.3112 -0.2879 0.2311
H8 H -0.2235 -0.1889 0.2397
C6 C -0.4961(7) -0.2184(3) 0.2997(3)
H9 H -0.6242 -0.2629 0.2988
H10 H -0.5724 -0.1602 0.3002
C7 C -0.3240(9) -0.2299(3) 0.3685(3)
H11 H -0.4209 -0.2295 0.4103
H12 H -0.2475 -0.2880 0.3668
C8 C -0.1353(10) -0.1643(4) 0.3802(3)
H13 H -0.0142 -0.1736 0.3462
H14 H -0.0604 -0.1694 0.4291
H15 H -0.2048 -0.1061 0.3731
C9 C -0.7220(5) -0.2639(2) 0.14940(19)
H16 H -0.8254 -0.2373 0.1099
H17 H -0.8191 -0.2699 0.1909
C10 C -0.6490(6) -0.3544(2) 0.1263(2)
H18 H -0.5627 -0.3850 0.1671
H19 H -0.5399 -0.3495 0.0876
C11 C -0.8729(7) -0.4068(3) 0.0996(3)
H20 H -0.9894 -0.4056 0.1365
H21 H -0.9492 -0.3791 0.0559
C12 C -0.8125(11) -0.4996(3) 0.0836(3)
H22 H -0.6918 -0.5009 0.0487
H23 H -0.9572 -0.5299 0.0640
H24 H -0.7489 -0.5285 0.1277
C13 C -0.1507(17) -0.0961(17) -0.0140(8)
H25 H -0.1462 -0.0431 0.0151
H26 H -0.1058 -0.0821 -0.0620
H27 H -0.0380 -0.1389 0.0083
C14 C -0.3306(15) -0.1231(9) -0.0176(5)
H28 H -0.3219 -0.1749 -0.0488
H29 H -0.4292 -0.0800 -0.0461
loop_
_geom_bond_atom_site_label_1
_geom_bond_atom_site_label_2
_geom_bond_site_symmetry_1
_geom_bond_site_symmetry_2
O1 C1 1_555 1_555
O2 C1 1_555 1_555
O3 C2 1_555 1_555
O4 H1 1_555 1_555
C1 C2 1_555 1_555
C2 O4 1_555 1_555
N1 H2 1_555 1_555
C3 N1 1_555 1_555
H3 C3 1_555 1_555
H4 C3 1_555 1_555
C4 C3 1_555 1_555
H5 C4 1_555 1_555
H6 C4 1_555 1_555
C5 N1 1_555 1_555
H7 C5 1_555 1_555
H8 C5 1_555 1_555
C6 C5 1_555 1_555
H9 C6 1_555 1_555
H10 C6 1_555 1_555
C7 C6 1_555 1_555
H11 C7 1_555 1_555
H12 C7 1_555 1_555
C8 C7 1_555 1_555
H13 C8 1_555 1_555
H14 C8 1_555 1_555
H15 C8 1_555 1_555
C9 N1 1_555 1_555
H16 C9 1_555 1_555
H17 C9 1_555 1_555
C10 C9 1_555 1_555
H18 C10 1_555 1_555
H19 C10 1_555 1_555
C11 C10 1_555 1_555
H20 C11 1_555 1_555
H21 C11 1_555 1_555
C12 C11 1_555 1_555
H22 C12 1_555 1_555
H23 C12 1_555 1_555
H24 C12 1_555 1_555
C13 H25 1_555 1_555
H26 C13 1_555 1_555
H27 C13 1_555 1_555
C14 C4 1_555 1_555
H28 C14 1_555 1_555
H29 C14 1_555 1_555
C13 C14 1_555 1_555

#END
