
#######################################################################
#
#                 Cambridge Crystallographic Data Centre
#                                CCDC 
#
#######################################################################
#
# If this CIF has been generated from an entry in the Cambridge 
# Structural Database, then it will include bibliographic, chemical, 
# crystal, experimental, refinement or atomic coordinate data resulting 
# from the CCDC's data processing and validation procedures.
#
#######################################################################

data_RIDNAT
_chemical_formula_moiety         'C22 H42 O3'
_chemical_name_systematic        
(1R,4S,5S)-4-Heptadecyl-3,6,8-trioxabicyclo(3.2.1)octane
_symmetry_cell_setting           orthorhombic
_symmetry_space_group_name_H-M   'P 21 21 21'
_symmetry_Int_Tables_number      19
_space_group_name_Hall           'P 2ac 2ab'
loop_
_symmetry_equiv_pos_site_id
_symmetry_equiv_pos_as_xyz
1 x,y,z
2 1/2-x,-y,1/2+z
3 1/2+x,1/2-y,-z
4 -x,1/2+y,1/2-z
_cell_length_a                   7.34(2)
_cell_length_b                   51.8(2)
_cell_length_c                   5.636(8)
_cell_angle_alpha                90
_cell_angle_beta                 90
_cell_angle_gamma                90
_cell_volume                     2142.87
_exptl_crystal_colour            colorless
_chemical_melting_point          65-66deg.C
_cell_formula_units_Z            4
loop_
_atom_site_label
_atom_site_type_symbol
_atom_site_fract_x
_atom_site_fract_y
_atom_site_fract_z
O1 O 0.923(2) 0.0526(2) -0.353(2)
O2 O 1.206(2) 0.0416(3) -0.666(3)
O3 O 0.937(2) 0.0220(2) -0.765(2)
C1 C 0.989(4) 0.0130(3) -0.533(3)
C2 C 0.863(3) 0.0264(3) -0.356(3)
C3 C 0.912(3) 0.0634(3) -0.590(3)
C4 C 1.027(4) 0.0461(3) -0.754(3)
C5 C 1.190(4) 0.0206(4) -0.502(4)
C6 C 0.999(3) 0.0897(3) -0.566(3)
C7 C 0.900(3) 0.1505(3) -0.181(3)
C8 C 0.978(2) 0.1768(3) -0.167(3)
C9 C 0.893(3) 0.1928(3) 0.031(3)
C10 C 0.976(3) 0.2195(3) 0.044(3)
C11 C 0.901(3) 0.2360(3) 0.239(3)
C12 C 0.976(3) 0.2632(3) 0.254(3)
C13 C 0.895(3) 0.2788(3) 0.449(3)
C14 C 0.977(3) 0.3058(3) 0.462(3)
C15 C 0.900(3) 0.3223(3) 0.658(3)
C16 C 0.977(3) 0.3490(3) 0.672(3)
C17 C 0.898(3) 0.3652(3) 0.870(3)
C18 C 0.978(2) 0.3916(3) 0.887(3)
C19 C 0.908(3) 0.4076(3) 1.089(3)
C20 C 0.992(3) 0.4336(4) 1.110(3)
loop_
_geom_bond_atom_site_label_1
_geom_bond_atom_site_label_2
_geom_bond_site_symmetry_1
_geom_bond_site_symmetry_2
O1 C2 1_555 1_555
O2 C4 1_555 1_555
O3 C1 1_555 1_555
C1 C2 1_555 1_555
C3 O1 1_555 1_555
C4 O3 1_555 1_555
C5 O2 1_555 1_555
C6 C3 1_555 1_555
C7 C8 1_555 1_555
C8 C9 1_555 1_555
C9 C10 1_555 1_555
C10 C11 1_555 1_555
C11 C12 1_555 1_555
C12 C13 1_555 1_555
C13 C14 1_555 1_555
C14 C15 1_555 1_555
C15 C16 1_555 1_555
C16 C17 1_555 1_555
C17 C18 1_555 1_555
C18 C19 1_555 1_555
C19 C20 1_555 1_555
C1 C5 1_555 1_555
C3 C4 1_555 1_555

#END
