
#######################################################################
#
#                 Cambridge Crystallographic Data Centre
#                                CCDC 
#
#######################################################################
#
# If this CIF has been generated from an entry in the Cambridge 
# Structural Database, then it will include bibliographic, chemical, 
# crystal, experimental, refinement or atomic coordinate data resulting 
# from the CCDC's data processing and validation procedures.
#
#######################################################################

data_RIDVOR
_chemical_formula_moiety         'C16 H23 B1 N1 P1'
_chemical_name_systematic        
N-((Borane)(diphenyl)phosphoranyl)-2-methylpropan-2-amine
_symmetry_cell_setting           orthorhombic
_symmetry_space_group_name_H-M   'P 21 21 21'
_symmetry_Int_Tables_number      19
_space_group_name_Hall           'P 2ac 2ab'
loop_
_symmetry_equiv_pos_site_id
_symmetry_equiv_pos_as_xyz
1 x,y,z
2 1/2-x,-y,1/2+z
3 1/2+x,1/2-y,-z
4 -x,1/2+y,1/2-z
_cell_length_a                   9.6150(6)
_cell_length_b                   9.7070(6)
_cell_length_c                   17.6865(5)
_cell_angle_alpha                90
_cell_angle_beta                 90
_cell_angle_gamma                90
_cell_volume                     1650.73
_exptl_crystal_colour            colorless
_exptl_crystal_description       plates
_cell_formula_units_Z            4
loop_
_atom_site_label
_atom_site_type_symbol
_atom_site_fract_x
_atom_site_fract_y
_atom_site_fract_z
P1 P 0.75900(8) 0.85140(8) 0.28693(4)
N1 N 0.7887(3) 0.6875(3) 0.30802(14)
H1 H 0.7830 0.6296 0.2713
B1 B 0.8885(5) 0.9879(6) 0.3226(3)
C1 C 0.8241(4) 0.6297(4) 0.3837(2)
C2 C 0.7347(6) 0.6980(5) 0.4443(2)
H2 H 0.6383 0.6804 0.4340
H3 H 0.7511 0.7955 0.4441
H4 H 0.7585 0.6610 0.4930
C3 C 0.7926(5) 0.4754(4) 0.3792(3)
H5 H 0.8457 0.4349 0.3390
H6 H 0.6952 0.4621 0.3697
H7 H 0.8171 0.4323 0.4262
C4 C 0.9790(5) 0.6502(5) 0.3989(3)
H8 H 0.9987 0.7469 0.4028
H9 H 1.0318 0.6114 0.3580
H10 H 1.0037 0.6053 0.4453
C5 C 0.7596(3) 0.8480(3) 0.18434(15)
C6 C 0.6624(4) 0.9224(4) 0.1434(2)
H11 H 0.5939 0.9721 0.1686
C7 C 0.6669(5) 0.9230(4) 0.0647(2)
H12 H 0.6019 0.9736 0.0374
C8 C 0.7671(5) 0.8490(4) 0.02768(19)
H13 H 0.7682 0.8473 -0.0249
C9 C 0.8659(4) 0.7775(5) 0.0675(2)
H14 H 0.9346 0.7290 0.0418
C10 C 0.8640(4) 0.7768(4) 0.1463(2)
H15 H 0.9318 0.7292 0.1732
C11 C 0.5463(4) 1.0075(4) 0.3511(2)
H16 H 0.6161 1.0701 0.3634
C12 C 0.4108(4) 1.0343(4) 0.3729(2)
H17 H 0.3899 1.1143 0.3995
C13 C 0.3073(4) 0.9430(5) 0.3552(2)
H18 H 0.2162 0.9607 0.3700
C14 C 0.3380(4) 0.8254(5) 0.3155(2)
H19 H 0.2676 0.7639 0.3030
C15 C 0.4738(4) 0.7983(4) 0.2943(2)
H20 H 0.4941 0.7178 0.2680
C16 C 0.5798(3) 0.8897(3) 0.31162(18)
H21 H 0.880(4) 0.973(4) 0.386(2)
H22 H 0.985(4) 0.953(4) 0.2947(18)
H23 H 0.851(4) 1.081(4) 0.300(2)
loop_
_geom_bond_atom_site_label_1
_geom_bond_atom_site_label_2
_geom_bond_site_symmetry_1
_geom_bond_site_symmetry_2
P1 N1 1_555 1_555
N1 H1 1_555 1_555
B1 P1 1_555 1_555
C1 N1 1_555 1_555
C2 C1 1_555 1_555
H2 C2 1_555 1_555
H3 C2 1_555 1_555
H4 C2 1_555 1_555
C3 C1 1_555 1_555
H5 C3 1_555 1_555
H6 C3 1_555 1_555
H7 C3 1_555 1_555
C4 C1 1_555 1_555
H8 C4 1_555 1_555
H9 C4 1_555 1_555
H10 C4 1_555 1_555
C5 P1 1_555 1_555
C6 C5 1_555 1_555
H11 C6 1_555 1_555
C7 C6 1_555 1_555
H12 C7 1_555 1_555
C8 C7 1_555 1_555
H13 C8 1_555 1_555
C9 C8 1_555 1_555
H14 C9 1_555 1_555
C10 C5 1_555 1_555
H15 C10 1_555 1_555
C11 H16 1_555 1_555
C12 C11 1_555 1_555
H17 C12 1_555 1_555
C13 C12 1_555 1_555
H18 C13 1_555 1_555
C14 C13 1_555 1_555
H19 C14 1_555 1_555
C15 C14 1_555 1_555
H20 C15 1_555 1_555
C16 P1 1_555 1_555
H21 B1 1_555 1_555
H22 B1 1_555 1_555
H23 B1 1_555 1_555
C9 C10 1_555 1_555
C11 C16 1_555 1_555
C15 C16 1_555 1_555

#END
