
#######################################################################
#
#                 Cambridge Crystallographic Data Centre
#                                CCDC 
#
#######################################################################
#
# If this CIF has been generated from an entry in the Cambridge 
# Structural Database, then it will include bibliographic, chemical, 
# crystal, experimental, refinement or atomic coordinate data resulting 
# from the CCDC's data processing and validation procedures.
#
#######################################################################

data_RIDVIL
_chemical_formula_moiety         'C20 H23 B1 N1 P1'
_chemical_name_systematic        
N-((Borane)(diphenyl)phosphoranyl)-2,6-dimethylaniline
_symmetry_cell_setting           tetragonal
_symmetry_space_group_name_H-M   'P 43'
_symmetry_Int_Tables_number      78
_space_group_name_Hall           'P 4cw'
loop_
_symmetry_equiv_pos_site_id
_symmetry_equiv_pos_as_xyz
1 x,y,z
2 -y,x,3/4+z
3 -x,-y,1/2+z
4 y,-x,1/4+z
_cell_length_a                   12.0218(3)
_cell_length_b                   12.0218(3)
_cell_length_c                   12.7828(3)
_cell_angle_alpha                90
_cell_angle_beta                 90
_cell_angle_gamma                90
_cell_volume                     1847.42
_exptl_crystal_colour            colorless
_exptl_crystal_description       block
_cell_formula_units_Z            4
loop_
_atom_site_label
_atom_site_type_symbol
_atom_site_fract_x
_atom_site_fract_y
_atom_site_fract_z
P1 P 0.49786(5) 0.95079(5) 0.95000(5)
N1 N 0.53664(18) 1.01320(17) 0.84040(16)
H1 H 0.5294 0.9767 0.7829
B1 B 0.5393(4) 1.0301(3) 1.0734(3)
C1 C 0.5402(2) 0.7413(2) 1.0299(2)
H2 H 0.4968 0.7646 1.0860
C2 C 0.3496(2) 0.92200(19) 0.9409(2)
C3 C 0.6202(2) 0.7743(2) 0.8617(2)
H3 H 0.6312 0.8199 0.8038
C4 C 0.5103(2) 1.2139(2) 0.8183(2)
C5 C 0.6965(2) 1.1390(3) 0.8388(3)
C6 C 0.6511(3) 0.6013(2) 0.9476(3)
H4 H 0.6837 0.5312 0.9489
C7 C 0.3868(2) 1.1989(3) 0.8114(3)
H5 H 0.3606 1.1618 0.8731
H6 H 0.3692 1.1549 0.7509
H7 H 0.3516 1.2703 0.8056
C8 C 0.5817(2) 1.1243(2) 0.83427(18)
C9 C 0.5567(3) 1.3188(2) 0.8054(2)
H8 H 0.5105 1.3797 0.7938
C10 C 0.3042(3) 0.8857(3) 0.8470(3)
H9 H 0.3493 0.8786 0.7882
C11 C 0.1920(3) 0.8599(3) 0.8402(4)
H10 H 0.1622 0.8351 0.7773
C12 C 0.5871(3) 0.6364(2) 1.0307(3)
H11 H 0.5755 0.5893 1.0874
C13 C 0.2810(3) 0.9327(3) 1.0272(3)
H12 H 0.3099 0.9563 1.0909
C14 C 0.6702(3) 1.3341(3) 0.8097(3)
H13 H 0.7000 1.4049 0.8013
C15 C 0.1682(4) 0.9078(3) 1.0177(5)
H14 H 0.1218 0.9166 1.0753
C16 C 0.6665(3) 0.6690(3) 0.8636(3)
H15 H 0.7085 0.6443 0.8071
C17 C 0.7392(3) 1.2455(3) 0.8262(3)
H16 H 0.8157 1.2566 0.8289
C18 C 0.1249(3) 0.8710(3) 0.9264(5)
H17 H 0.0498 0.8532 0.9221
C19 C 0.7762(3) 1.0431(3) 0.8535(4)
H18 H 0.7720 0.9944 0.7941
H19 H 0.7567 1.0027 0.9156
H20 H 0.8506 1.0712 0.8601
C20 C 0.55753(19) 0.81213(18) 0.9455(2)
H21 H 0.519(3) 0.975(3) 1.132(4)
H22 H 0.488(2) 1.110(2) 1.077(3)
H23 H 0.630(3) 1.041(3) 1.070(3)
loop_
_geom_bond_atom_site_label_1
_geom_bond_atom_site_label_2
_geom_bond_site_symmetry_1
_geom_bond_site_symmetry_2
P1 N1 1_555 1_555
N1 H1 1_555 1_555
B1 P1 1_555 1_555
C1 H2 1_555 1_555
C2 P1 1_555 1_555
C3 H3 1_555 1_555
C4 C7 1_555 1_555
C5 C8 1_555 1_555
C6 H4 1_555 1_555
C7 H5 1_555 1_555
H6 C7 1_555 1_555
H7 C7 1_555 1_555
C8 N1 1_555 1_555
C9 C4 1_555 1_555
H8 C9 1_555 1_555
C10 C2 1_555 1_555
H9 C10 1_555 1_555
C11 C10 1_555 1_555
H10 C11 1_555 1_555
C12 C1 1_555 1_555
H11 C12 1_555 1_555
C13 C2 1_555 1_555
H12 C13 1_555 1_555
C14 C9 1_555 1_555
H13 C14 1_555 1_555
C15 C13 1_555 1_555
H14 C15 1_555 1_555
C16 C3 1_555 1_555
H15 C16 1_555 1_555
C17 C5 1_555 1_555
H16 C17 1_555 1_555
C18 C11 1_555 1_555
H17 C18 1_555 1_555
C19 C5 1_555 1_555
H18 C19 1_555 1_555
H19 C19 1_555 1_555
H20 C19 1_555 1_555
C20 P1 1_555 1_555
H21 B1 1_555 1_555
H22 B1 1_555 1_555
H23 B1 1_555 1_555
C1 C20 1_555 1_555
C3 C20 1_555 1_555
C4 C8 1_555 1_555
C6 C12 1_555 1_555
C6 C16 1_555 1_555
C14 C17 1_555 1_555
C15 C18 1_555 1_555

#END
