
#######################################################################
#
#                 Cambridge Crystallographic Data Centre
#                                CCDC 
#
#######################################################################
#
# If this CIF has been generated from an entry in the Cambridge 
# Structural Database, then it will include bibliographic, chemical, 
# crystal, experimental, refinement or atomic coordinate data resulting 
# from the CCDC's data processing and validation procedures.
#
#######################################################################

data_RIDYOU
_chemical_formula_moiety         'C23 H23 N1 O1'
_chemical_name_systematic        
2-(2-Methoxyethyl)-1,9-dimethyl-4-phenyl-9H-carbazole
_symmetry_cell_setting           monoclinic
_symmetry_space_group_name_H-M   'P 21/c'
_symmetry_Int_Tables_number      14
_space_group_name_Hall           '-P 2ybc'
loop_
_symmetry_equiv_pos_site_id
_symmetry_equiv_pos_as_xyz
1 x,y,z
2 -x,1/2+y,1/2-z
3 -x,-y,-z
4 x,1/2-y,1/2+z
_cell_length_a                   11.7369(11)
_cell_length_b                   7.8396(7)
_cell_length_c                   19.7796(18)
_cell_angle_alpha                90
_cell_angle_beta                 94.449(2)
_cell_angle_gamma                90
_cell_volume                     1814.49
_exptl_crystal_colour            colorless
_exptl_crystal_description       prismatic
_cell_formula_units_Z            4
loop_
_atom_site_label
_atom_site_type_symbol
_atom_site_fract_x
_atom_site_fract_y
_atom_site_fract_z
N1 N 0.44860(13) 0.29817(19) -0.03714(8)
O1 O 0.72461(12) 0.09599(18) 0.28066(8)
C1 C 0.33987(17) 0.3456(2) -0.06093(9)
C2 C 0.3025(2) 0.4148(3) -0.12360(10)
H1 H 0.3527 0.4304 -0.1572
C3 C 0.1901(2) 0.4591(3) -0.13426(10)
H2 H 0.1638 0.5055 -0.1759
C4 C 0.1144(2) 0.4369(3) -0.08510(10)
H3 H 0.0387 0.4709 -0.0935
C5 C 0.15033(16) 0.3644(2) -0.02339(9)
H4 H 0.0990 0.3490 0.0096
C6 C 0.26388(15) 0.3147(2) -0.01104(8)
C7 C 0.33091(13) 0.23954(19) 0.04550(8)
C8 C 0.44531(14) 0.2330(2) 0.02836(9)
C9 C 0.53449(14) 0.1678(2) 0.07282(11)
C10 C 0.50404(14) 0.1135(2) 0.13620(10)
C11 C 0.39103(14) 0.1212(2) 0.15268(9)
H5 H 0.3743 0.0857 0.1957
C12 C 0.30209(13) 0.17890(19) 0.10847(8)
C13 C 0.18293(13) 0.16166(19) 0.12736(8)
C14 C 0.14920(14) 0.2321(2) 0.18664(8)
H6 H 0.2001 0.2994 0.2133
C15 C 0.04117(16) 0.2040(3) 0.20661(10)
H7 H 0.0198 0.2531 0.2465
C16 C -0.03518(15) 0.1050(3) 0.16867(10)
H8 H -0.1078 0.0856 0.1828
C17 C -0.00357(15) 0.0345(3) 0.10943(10)
H9 H -0.0552 -0.0324 0.0831
C18 C 0.10449(14) 0.0625(2) 0.08885(9)
H10 H 0.1250 0.0142 0.0486
C19 C 0.59025(16) 0.0406(2) 0.18905(12)
H11 H 0.5516 -0.0373 0.2178
H12 H 0.6467 -0.0243 0.1665
C20 C 0.64994(15) 0.1744(2) 0.23245(10)
H13 H 0.6919 0.2502 0.2046
H14 H 0.5944 0.2416 0.2547
C21 C 0.78953(17) 0.2083(3) 0.32276(11)
H15 H 0.8352 0.2787 0.2958
H16 H 0.8385 0.1444 0.3546
H17 H 0.7395 0.2789 0.3469
C22 C 0.65619(16) 0.1516(3) 0.05365(13)
H18 H 0.6567 0.0964 0.0104
H19 H 0.6996 0.0851 0.0873
H20 H 0.6895 0.2631 0.0511
C23 C 0.54710(19) 0.3260(3) -0.07587(12)
H21 H 0.5733 0.2187 -0.0921
H22 H 0.6071 0.3787 -0.0474
H23 H 0.5260 0.3992 -0.1137
loop_
_geom_bond_atom_site_label_1
_geom_bond_atom_site_label_2
_geom_bond_site_symmetry_1
_geom_bond_site_symmetry_2
N1 C1 1_555 1_555
O1 C20 1_555 1_555
C1 C2 1_555 1_555
C2 H1 1_555 1_555
C3 C2 1_555 1_555
H2 C3 1_555 1_555
C4 C3 1_555 1_555
H3 C4 1_555 1_555
C5 C4 1_555 1_555
H4 C5 1_555 1_555
C6 C1 1_555 1_555
C7 C6 1_555 1_555
C8 N1 1_555 1_555
C9 C8 1_555 1_555
C10 C9 1_555 1_555
C11 C10 1_555 1_555
H5 C11 1_555 1_555
C12 C7 1_555 1_555
C13 C12 1_555 1_555
C14 C13 1_555 1_555
H6 C14 1_555 1_555
C15 C14 1_555 1_555
H7 C15 1_555 1_555
C16 C15 1_555 1_555
H8 C16 1_555 1_555
C17 C16 1_555 1_555
H9 C17 1_555 1_555
C18 C13 1_555 1_555
H10 C18 1_555 1_555
C19 C10 1_555 1_555
H11 C19 1_555 1_555
H12 C19 1_555 1_555
C20 C19 1_555 1_555
H13 C20 1_555 1_555
H14 C20 1_555 1_555
C21 O1 1_555 1_555
H15 C21 1_555 1_555
H16 C21 1_555 1_555
H17 C21 1_555 1_555
C22 C9 1_555 1_555
H18 C22 1_555 1_555
H19 C22 1_555 1_555
H20 C22 1_555 1_555
C23 N1 1_555 1_555
H21 C23 1_555 1_555
H22 C23 1_555 1_555
H23 C23 1_555 1_555
C5 C6 1_555 1_555
C7 C8 1_555 1_555
C11 C12 1_555 1_555
C17 C18 1_555 1_555

#END
