
#######################################################################
#
#                 Cambridge Crystallographic Data Centre
#                                CCDC 
#
#######################################################################
#
# If this CIF has been generated from an entry in the Cambridge 
# Structural Database, then it will include bibliographic, chemical, 
# crystal, experimental, refinement or atomic coordinate data resulting 
# from the CCDC's data processing and validation procedures.
#
#######################################################################

data_RIDYUA
_chemical_formula_moiety         'C27 H22 Br1 N1'
_chemical_name_systematic        
9-Benzyl-6-bromo-1,2-dimethyl-4-phenyl-9H-carbazole
_symmetry_cell_setting           triclinic
_symmetry_space_group_name_H-M   'P -1'
_symmetry_Int_Tables_number      2
_space_group_name_Hall           '-P 1'
loop_
_symmetry_equiv_pos_site_id
_symmetry_equiv_pos_as_xyz
1 x,y,z
2 -x,-y,-z
_cell_length_a                   9.4333(9)
_cell_length_b                   10.8122(10)
_cell_length_c                   11.0022(10)
_cell_angle_alpha                95.356(2)
_cell_angle_beta                 102.751(2)
_cell_angle_gamma                105.271(2)
_cell_volume                     1042.07
_exptl_crystal_colour            colorless
_exptl_crystal_description       prismatic
_cell_formula_units_Z            2
loop_
_atom_site_label
_atom_site_type_symbol
_atom_site_fract_x
_atom_site_fract_y
_atom_site_fract_z
Br1 Br 0.72469(3) 0.90906(2) 0.69182(3)
N1 N 0.05034(19) 0.68395(16) 0.48714(15)
C1 C 0.2066(2) 0.73544(19) 0.51905(18)
C2 C 0.3005(3) 0.7748(2) 0.4402(2)
H1 H 0.2605 0.7671 0.3537
C3 C 0.4542(3) 0.8255(2) 0.4932(2)
H2 H 0.5195 0.8519 0.4423
C4 C 0.5120(2) 0.8372(2) 0.6228(2)
C5 C 0.4202(2) 0.79791(19) 0.70230(19)
H3 H 0.4611 0.8070 0.7888
C6 C 0.2644(2) 0.74430(18) 0.64945(18)
C7 C 0.1344(2) 0.69233(18) 0.69858(17)
C8 C 0.0034(2) 0.65863(18) 0.59621(18)
C9 C -0.1447(2) 0.61278(19) 0.6121(2)
C10 C -0.1555(2) 0.5957(2) 0.7338(2)
C11 C -0.0249(3) 0.6245(2) 0.8343(2)
H4 H -0.0366 0.6100 0.9140
C12 C 0.1204(2) 0.67340(19) 0.82003(18)
C13 C 0.2550(2) 0.7012(2) 0.92943(17)
C14 C 0.2750(3) 0.7926(2) 1.0340(2)
H5 H 0.2022 0.8358 1.0367
C15 C 0.4022(3) 0.8198(3) 1.1339(2)
H6 H 0.4150 0.8822 1.2028
C16 C 0.5096(3) 0.7560(3) 1.1327(2)
H7 H 0.5946 0.7743 1.2006
C17 C 0.4906(3) 0.6646(3) 1.0300(2)
H8 H 0.5633 0.6212 1.0283
C18 C 0.3644(3) 0.6371(2) 0.9299(2)
H9 H 0.3524 0.5745 0.8615
C19 C -0.2868(3) 0.5871(2) 0.5074(2)
H10 H -0.3136 0.4997 0.4639
H11 H -0.2693 0.6469 0.4493
H12 H -0.3682 0.5982 0.5423
C20 C -0.3074(3) 0.5456(3) 0.7629(3)
H13 H -0.3605 0.6101 0.7545
H14 H -0.2920 0.5273 0.8478
H15 H -0.3663 0.4676 0.7051
C21 C -0.0363(3) 0.6493(2) 0.35538(18)
H16 H -0.1324 0.5854 0.3497
H17 H 0.0192 0.6092 0.3073
C22 C -0.0676(2) 0.7637(2) 0.29605(18)
C23 C -0.0738(3) 0.7647(3) 0.1700(2)
H18 H -0.0581 0.6961 0.1225
C24 C -0.1033(4) 0.8679(4) 0.1136(3)
H19 H -0.1081 0.8679 0.0283
C25 C -0.1253(4) 0.9688(3) 0.1824(3)
H20 H -0.1435 1.0384 0.1445
C26 C -0.1207(3) 0.9682(2) 0.3073(3)
H21 H -0.1375 1.0368 0.3539
C27 C -0.0914(3) 0.8666(2) 0.3645(2)
H22 H -0.0876 0.8673 0.4497
loop_
_geom_bond_atom_site_label_1
_geom_bond_atom_site_label_2
_geom_bond_site_symmetry_1
_geom_bond_site_symmetry_2
Br1 C4 1_555 1_555
N1 C1 1_555 1_555
C1 C2 1_555 1_555
C2 H1 1_555 1_555
C3 C2 1_555 1_555
H2 C3 1_555 1_555
C4 C3 1_555 1_555
C5 C4 1_555 1_555
H3 C5 1_555 1_555
C6 C1 1_555 1_555
C7 C6 1_555 1_555
C8 N1 1_555 1_555
C9 C8 1_555 1_555
C10 C9 1_555 1_555
C11 C10 1_555 1_555
H4 C11 1_555 1_555
C12 C7 1_555 1_555
C13 C12 1_555 1_555
C14 C13 1_555 1_555
H5 C14 1_555 1_555
C15 C14 1_555 1_555
H6 C15 1_555 1_555
C16 C15 1_555 1_555
H7 C16 1_555 1_555
C17 C16 1_555 1_555
H8 C17 1_555 1_555
C18 C13 1_555 1_555
H9 C18 1_555 1_555
C19 C9 1_555 1_555
H10 C19 1_555 1_555
H11 C19 1_555 1_555
H12 C19 1_555 1_555
C20 C10 1_555 1_555
H13 C20 1_555 1_555
H14 C20 1_555 1_555
H15 C20 1_555 1_555
C21 N1 1_555 1_555
H16 C21 1_555 1_555
H17 C21 1_555 1_555
C22 C21 1_555 1_555
C23 C22 1_555 1_555
H18 C23 1_555 1_555
C24 C23 1_555 1_555
H19 C24 1_555 1_555
C25 C24 1_555 1_555
H20 C25 1_555 1_555
C26 C25 1_555 1_555
H21 C26 1_555 1_555
C27 C22 1_555 1_555
H22 C27 1_555 1_555
C5 C6 1_555 1_555
C7 C8 1_555 1_555
C11 C12 1_555 1_555
C17 C18 1_555 1_555
C26 C27 1_555 1_555

#END
