
#######################################################################
#
#                 Cambridge Crystallographic Data Centre
#                                CCDC 
#
#######################################################################
#
# If this CIF has been generated from an entry in the Cambridge 
# Structural Database, then it will include bibliographic, chemical, 
# crystal, experimental, refinement or atomic coordinate data resulting 
# from the CCDC's data processing and validation procedures.
#
#######################################################################

data_RIFBAK
_chemical_formula_moiety         'C27 H30 N2 O4 S2'
_chemical_name_systematic        
N-but-2-yn-1-yl-4-methyl-N-((2-((4-methylphenyl)sulfonyl)-2,3,5,7a-tetrahydro-1H-isoindol-4-yl)methyl)benzenesulfonamide
_symmetry_cell_setting           monoclinic
_symmetry_space_group_name_H-M   'P 21/c'
_symmetry_Int_Tables_number      14
_space_group_name_Hall           '-P 2ybc'
loop_
_symmetry_equiv_pos_site_id
_symmetry_equiv_pos_as_xyz
1 x,y,z
2 -x,1/2+y,1/2-z
3 -x,-y,-z
4 x,1/2-y,1/2+z
_cell_length_a                   13.5935(4)
_cell_length_b                   9.6906(6)
_cell_length_c                   19.9797(12)
_cell_angle_alpha                90.00
_cell_angle_beta                 97.708(3)
_cell_angle_gamma                90.00
_cell_volume                     2608.13
_cell_formula_units_Z            4
loop_
_atom_site_label
_atom_site_type_symbol
_atom_site_fract_x
_atom_site_fract_y
_atom_site_fract_z
S1 S 0.68340(6) 0.86714(9) 0.17530(4)
S2 S 0.14247(6) 0.61486(10) -0.02697(4)
N1 N 0.62619(18) 0.8582(3) 0.09833(13)
N2 N 0.23737(17) 0.7189(3) -0.02720(13)
O1 O 0.62237(17) 0.9477(3) 0.21277(13)
O2 O 0.78293(17) 0.9098(3) 0.16963(13)
O3 O 0.17992(18) 0.4784(3) -0.03256(15)
O4 O 0.06740(16) 0.6674(3) -0.07671(12)
C1 C 0.6883(4) 0.2783(5) 0.2758(3)
H1 H 0.6229 0.2533 0.2846
H2 H 0.7343 0.2683 0.3164
H3 H 0.7080 0.2192 0.2414
C2 C 0.6881(3) 0.4266(4) 0.25224(18)
C3 C 0.7588(2) 0.4728(4) 0.21237(17)
H4 H 0.8062 0.4115 0.2006
C4 C 0.7593(2) 0.6071(4) 0.19026(16)
H5 H 0.8068 0.6364 0.1639
C5 C 0.6885(2) 0.6985(3) 0.20757(14)
C6 C 0.6175(2) 0.6543(4) 0.24623(17)
H6 H 0.5695 0.7152 0.2576
C7 C 0.6185(3) 0.5187(4) 0.26779(17)
H7 H 0.5705 0.4894 0.2936
C8 C 0.6724(2) 0.7818(4) 0.04722(16)
H8 H 0.6837 0.6860 0.0601
H9 H 0.7347 0.8235 0.0395
C9 C 0.5946(2) 0.7948(4) -0.01432(16)
H10 H 0.5968 0.8898 -0.0309
C10 C 0.5000(2) 0.7782(4) 0.01641(15)
C11 C 0.5177(2) 0.8288(4) 0.08886(16)
H11 H 0.4795 0.9115 0.0947
H12 H 0.5011 0.7584 0.1200
C12 C 0.6000(2) 0.7023(4) -0.07169(18)
H13 H 0.6614 0.6867 -0.0861
C13 C 0.5209(3) 0.6402(5) -0.10371(19)
H14 H 0.5284 0.5863 -0.1412
C14 C 0.4200(3) 0.6523(5) -0.08270(19)
H15 H 0.3904 0.5612 -0.0832
H16 H 0.3789 0.7086 -0.1155
C15 C 0.4200(2) 0.7141(4) -0.01415(16)
C16 C 0.3280(2) 0.6876(4) 0.01996(16)
H17 H 0.3268 0.5919 0.0340
H18 H 0.3300 0.7452 0.0599
C17 C 0.2194(3) 0.8646(4) -0.04261(18)
H19 H 0.1661 0.8716 -0.0799
H20 H 0.2786 0.9031 -0.0577
C18 C 0.1934(3) 0.9495(4) 0.0135(2)
C19 C 0.1705(3) 1.0197(4) 0.0572(2)
C20 C 0.1397(4) 1.1044(5) 0.1117(2)
H21 H 0.1026 1.0487 0.1391
H22 H 0.0990 1.1792 0.0925
H23 H 0.1974 1.1407 0.1389
C21 C 0.1007(2) 0.6271(3) 0.05282(17)
C22 C 0.0337(2) 0.7266(4) 0.06549(18)
H24 H 0.0070 0.7857 0.0311
C23 C 0.0061(3) 0.7390(5) 0.1287(2)
H25 H -0.0399 0.8060 0.1367
C24 C 0.0459(3) 0.6526(5) 0.18143(19)
C25 C 0.0186(3) 0.6684(7) 0.2508(2)
H26 H -0.0182 0.5889 0.2618
H27 H -0.0214 0.7495 0.2527
H28 H 0.0778 0.6769 0.2826
C26 C 0.1116(3) 0.5506(5) 0.1671(2)
H29 H 0.1375 0.4897 0.2009
C27 C 0.1392(3) 0.5381(4) 0.1036(2)
H30 H 0.1837 0.4697 0.0949
loop_
_geom_bond_atom_site_label_1
_geom_bond_atom_site_label_2
_geom_bond_site_symmetry_1
_geom_bond_site_symmetry_2
S1 N1 1_555 1_555
S2 N2 1_555 1_555
N1 C8 1_555 1_555
N2 C16 1_555 1_555
O1 S1 1_555 1_555
O2 S1 1_555 1_555
O3 S2 1_555 1_555
O4 S2 1_555 1_555
C1 H1 1_555 1_555
H2 C1 1_555 1_555
H3 C1 1_555 1_555
C2 C1 1_555 1_555
C3 C2 1_555 1_555
H4 C3 1_555 1_555
C4 C3 1_555 1_555
H5 C4 1_555 1_555
C5 S1 1_555 1_555
C6 C5 1_555 1_555
H6 C6 1_555 1_555
C7 C2 1_555 1_555
H7 C7 1_555 1_555
C8 H8 1_555 1_555
H9 C8 1_555 1_555
C9 C8 1_555 1_555
H10 C9 1_555 1_555
C10 C9 1_555 1_555
C11 N1 1_555 1_555
H11 C11 1_555 1_555
H12 C11 1_555 1_555
C12 C9 1_555 1_555
H13 C12 1_555 1_555
C13 C12 1_555 1_555
H14 C13 1_555 1_555
C14 C13 1_555 1_555
H15 C14 1_555 1_555
H16 C14 1_555 1_555
C15 C10 1_555 1_555
C16 C15 1_555 1_555
H17 C16 1_555 1_555
H18 C16 1_555 1_555
C17 N2 1_555 1_555
H19 C17 1_555 1_555
H20 C17 1_555 1_555
C18 C17 1_555 1_555
C19 C18 1_555 1_555
C20 C19 1_555 1_555
H21 C20 1_555 1_555
H22 C20 1_555 1_555
H23 C20 1_555 1_555
C21 S2 1_555 1_555
C22 C21 1_555 1_555
H24 C22 1_555 1_555
C23 C22 1_555 1_555
H25 C23 1_555 1_555
C24 C23 1_555 1_555
C25 C24 1_555 1_555
H26 C25 1_555 1_555
H27 C25 1_555 1_555
H28 C25 1_555 1_555
C26 C24 1_555 1_555
H29 C26 1_555 1_555
C27 C21 1_555 1_555
H30 C27 1_555 1_555
C4 C5 1_555 1_555
C6 C7 1_555 1_555
C10 C11 1_555 1_555
C14 C15 1_555 1_555
C26 C27 1_555 1_555

#END
