
#######################################################################
#
#                 Cambridge Crystallographic Data Centre
#                                CCDC 
#
#######################################################################
#
# If this CIF has been generated from an entry in the Cambridge 
# Structural Database, then it will include bibliographic, chemical, 
# crystal, experimental, refinement or atomic coordinate data resulting 
# from the CCDC's data processing and validation procedures.
#
#######################################################################

data_RIFFAP
_chemical_formula_moiety         'C25 H25 B1 N1 P1'
_chemical_name_systematic        
(Diphenylmethylamino(diphenyl)phosphine)-borane
_symmetry_cell_setting           triclinic
_symmetry_space_group_name_H-M   'P -1'
_symmetry_Int_Tables_number      2
_space_group_name_Hall           '-P 1'
loop_
_symmetry_equiv_pos_site_id
_symmetry_equiv_pos_as_xyz
1 x,y,z
2 -x,-y,-z
_cell_length_a                   9.1468(10)
_cell_length_b                   10.0257(19)
_cell_length_c                   12.941(2)
_cell_angle_alpha                73.657(16)
_cell_angle_beta                 71.578(14)
_cell_angle_gamma                82.298(13)
_cell_volume                     1079.1
_exptl_crystal_colour            colorless
_exptl_crystal_description       blocks
_cell_formula_units_Z            2
loop_
_atom_site_label
_atom_site_type_symbol
_atom_site_fract_x
_atom_site_fract_y
_atom_site_fract_z
P1 P 0.90633(13) 0.88242(11) 0.35014(9)
N1 N 0.9378(4) 1.0479(3) 0.3202(3)
H1 H 0.9741 1.0727 0.3653
B1 B 0.9174(9) 0.7990(7) 0.5004(5)
C1 C 0.9112(5) 1.1589(4) 0.2252(3)
H2 H 0.8723 1.1150 0.1810
C2 C 0.7838(5) 1.2639(5) 0.2678(3)
C3 C 0.6374(5) 1.2599(6) 0.2618(4)
H3 H 0.6160 1.1932 0.2317
C4 C 0.5210(6) 1.3536(7) 0.2998(5)
H4 H 0.4230 1.3507 0.2936
C5 C 0.5496(8) 1.4507(7) 0.3466(5)
H5 H 0.4719 1.5138 0.3722
C6 C 0.6970(7) 1.4529(6) 0.3551(4)
H6 H 0.7185 1.5176 0.3870
C7 C 0.8110(6) 1.3596(5) 0.3163(4)
H7 H 0.9089 1.3614 0.3232
C8 C 1.0584(5) 1.2299(4) 0.1459(3)
C9 C 1.0531(6) 1.3118(5) 0.0413(4)
H8 H 0.9607 1.3258 0.0230
C10 C 1.1841(7) 1.3730(6) -0.0362(4)
H9 H 1.1784 1.4284 -0.1059
C11 C 1.3196(6) 1.3538(6) -0.0127(4)
H10 H 1.4076 1.3935 -0.0663
C12 C 1.3264(6) 1.2749(6) 0.0914(4)
H11 H 1.4189 1.2630 0.1093
C13 C 1.1963(5) 1.2131(5) 0.1696(4)
H12 H 1.2025 1.1591 0.2395
C14 C 1.0441(5) 0.8022(5) 0.2471(4)
C15 C 1.0650(6) 0.6591(5) 0.2731(5)
H13 H 1.0084 0.6063 0.3424
C16 C 1.1699(7) 0.5932(6) 0.1968(6)
H14 H 1.1819 0.4966 0.2150
C17 C 1.2548(6) 0.6683(7) 0.0965(6)
H15 H 1.3244 0.6232 0.0459
C18 C 1.2390(6) 0.8089(6) 0.0693(5)
H16 H 1.2997 0.8600 0.0008
C19 C 1.1326(6) 0.8775(5) 0.1429(4)
H17 H 1.1205 0.9740 0.1226
C20 C 0.7222(5) 0.8729(4) 0.3279(4)
C21 C 0.5905(6) 0.8757(5) 0.4152(4)
H18 H 0.5987 0.8808 0.4838
C22 C 0.4475(6) 0.8712(6) 0.4044(5)
H19 H 0.3602 0.8710 0.4656
C23 C 0.4331(6) 0.8669(6) 0.3027(6)
H20 H 0.3358 0.8654 0.2948
C24 C 0.5619(6) 0.8648(6) 0.2133(5)
H21 H 0.5522 0.8624 0.1445
C25 C 0.7074(6) 0.8661(5) 0.2255(4)
H22 H 0.7950 0.8625 0.1652
H23 H 0.837(7) 0.865(6) 0.555(5)
H24 H 1.036(6) 0.808(5) 0.502(4)
H25 H 0.890(6) 0.686(6) 0.525(5)
loop_
_geom_bond_atom_site_label_1
_geom_bond_atom_site_label_2
_geom_bond_site_symmetry_1
_geom_bond_site_symmetry_2
P1 N1 1_555 1_555
N1 H1 1_555 1_555
B1 P1 1_555 1_555
C1 N1 1_555 1_555
H2 C1 1_555 1_555
C2 C1 1_555 1_555
C3 C2 1_555 1_555
H3 C3 1_555 1_555
C4 C3 1_555 1_555
H4 C4 1_555 1_555
C5 C4 1_555 1_555
H5 C5 1_555 1_555
C6 C5 1_555 1_555
H6 C6 1_555 1_555
C7 C2 1_555 1_555
H7 C7 1_555 1_555
C8 C1 1_555 1_555
C9 C8 1_555 1_555
H8 C9 1_555 1_555
C10 C9 1_555 1_555
H9 C10 1_555 1_555
C11 C10 1_555 1_555
H10 C11 1_555 1_555
C12 C11 1_555 1_555
H11 C12 1_555 1_555
C13 C8 1_555 1_555
H12 C13 1_555 1_555
C14 P1 1_555 1_555
C15 C14 1_555 1_555
H13 C15 1_555 1_555
C16 C15 1_555 1_555
H14 C16 1_555 1_555
C17 C16 1_555 1_555
H15 C17 1_555 1_555
C18 C17 1_555 1_555
H16 C18 1_555 1_555
C19 C14 1_555 1_555
H17 C19 1_555 1_555
C20 P1 1_555 1_555
C21 C20 1_555 1_555
H18 C21 1_555 1_555
C22 C21 1_555 1_555
H19 C22 1_555 1_555
C23 C22 1_555 1_555
H20 C23 1_555 1_555
C24 C23 1_555 1_555
H21 C24 1_555 1_555
C25 C20 1_555 1_555
H22 C25 1_555 1_555
H23 B1 1_555 1_555
H24 B1 1_555 1_555
H25 B1 1_555 1_555
C6 C7 1_555 1_555
C12 C13 1_555 1_555
C18 C19 1_555 1_555
C24 C25 1_555 1_555

#END
