
#######################################################################
#
#                 Cambridge Crystallographic Data Centre
#                                CCDC 
#
#######################################################################
#
# If this CIF has been generated from an entry in the Cambridge 
# Structural Database, then it will include bibliographic, chemical, 
# crystal, experimental, refinement or atomic coordinate data resulting 
# from the CCDC's data processing and validation procedures.
#
#######################################################################

data_RIFHOG
_chemical_formula_moiety         'C12 H12 N2 O2'
_chemical_name_systematic        'ethyl 1-aminoisoquinoline-3-carboxylate'
_symmetry_cell_setting           rhombohedral
_symmetry_space_group_name_H-M   'R -3'
_symmetry_Int_Tables_number      148
_space_group_name_Hall           '-R 3'
loop_
_symmetry_equiv_pos_site_id
_symmetry_equiv_pos_as_xyz
1 x,y,z
2 -y,x-y,z
3 -x+y,-x,z
4 2/3+x,1/3+y,1/3+z
5 2/3-y,1/3+x-y,1/3+z
6 2/3-x+y,1/3-x,1/3+z
7 1/3+x,2/3+y,2/3+z
8 1/3-y,2/3+x-y,2/3+z
9 1/3-x+y,2/3-x,2/3+z
10 -x,-y,-z
11 y,-x+y,-z
12 x-y,x,-z
13 1/3-x,2/3-y,2/3-z
14 1/3+y,2/3-x+y,2/3-z
15 1/3+x-y,2/3+x,2/3-z
16 2/3-x,1/3-y,1/3-z
17 2/3+y,1/3-x+y,1/3-z
18 2/3+x-y,1/3+x,1/3-z
_cell_length_a                   28.7013(15)
_cell_length_b                   28.7013(15)
_cell_length_c                   6.9232(4)
_cell_angle_alpha                90
_cell_angle_beta                 90
_cell_angle_gamma                120
_cell_volume                     4939.02
_exptl_crystal_colour            colorless
_exptl_crystal_description       block
_cell_formula_units_Z            18
loop_
_atom_site_label
_atom_site_type_symbol
_atom_site_fract_x
_atom_site_fract_y
_atom_site_fract_z
O1 O 0.78866(8) 0.55753(8) 0.4796(3)
O2 O 0.79642(8) 0.48552(7) 0.4146(3)
N1 N 0.83831(8) 0.60354(8) 0.1332(3)
N2 N 0.86346(12) 0.66950(10) -0.0934(4)
H1 H 0.8509(11) 0.6863(11) -0.011(4)
H2 H 0.8807(11) 0.6858(12) -0.192(4)
C1 C 0.86288(10) 0.62426(10) -0.0333(4)
C2 C 0.88758(10) 0.60038(10) -0.1481(3)
C3 C 0.91494(11) 0.62252(11) -0.3226(4)
H3 H 0.9185 0.6546 -0.3680
C4 C 0.93630(12) 0.59706(12) -0.4257(4)
H4 H 0.9544 0.6121 -0.5406
C5 C 0.93127(12) 0.54905(12) -0.3608(4)
H5 H 0.9453 0.5318 -0.4340
C6 C 0.90602(10) 0.52701(11) -0.1909(4)
H6 H 0.9035 0.4952 -0.1476
C7 C 0.88363(9) 0.55217(10) -0.0803(4)
C8 C 0.85631(10) 0.53045(10) 0.0954(4)
H7 H 0.8529 0.4987 0.1438
C9 C 0.83506(9) 0.55641(10) 0.1927(3)
C10 C 0.80468(10) 0.53498(11) 0.3769(4)
C11 C 0.76672(12) 0.46035(12) 0.5886(4)
H8 H 0.7310 0.4559 0.5815
H9 H 0.7850 0.4825 0.7000
C12 C 0.76317(17) 0.40745(14) 0.6068(5)
H10 H 0.7446 0.3856 0.4969
H11 H 0.7439 0.3900 0.7225
H12 H 0.7987 0.4123 0.6130
loop_
_geom_bond_atom_site_label_1
_geom_bond_atom_site_label_2
_geom_bond_site_symmetry_1
_geom_bond_site_symmetry_2
O1 C10 1_555 1_555
O2 C10 1_555 1_555
N1 C1 1_555 1_555
N2 H1 1_555 1_555
H2 N2 1_555 1_555
C1 N2 1_555 1_555
C2 C1 1_555 1_555
C3 C2 1_555 1_555
H3 C3 1_555 1_555
C4 C3 1_555 1_555
H4 C4 1_555 1_555
C5 C4 1_555 1_555
H5 C5 1_555 1_555
C6 C5 1_555 1_555
H6 C6 1_555 1_555
C7 C2 1_555 1_555
C8 C7 1_555 1_555
H7 C8 1_555 1_555
C9 N1 1_555 1_555
C10 C9 1_555 1_555
C11 O2 1_555 1_555
H8 C11 1_555 1_555
H9 C11 1_555 1_555
C12 C11 1_555 1_555
H10 C12 1_555 1_555
H11 C12 1_555 1_555
H12 C12 1_555 1_555
C6 C7 1_555 1_555
C8 C9 1_555 1_555

#END
