
#######################################################################
#
#                 Cambridge Crystallographic Data Centre
#                                CCDC 
#
#######################################################################
#
# If this CIF has been generated from an entry in the Cambridge 
# Structural Database, then it will include bibliographic, chemical, 
# crystal, experimental, refinement or atomic coordinate data resulting 
# from the CCDC's data processing and validation procedures.
#
#######################################################################

data_RIFKUO
_chemical_formula_moiety         'C37 H26 N2 O1 S1'
_chemical_name_systematic        2,7-bis(Diphenylamino)-9H-thioxanthen-9-one
_symmetry_cell_setting           monoclinic
_symmetry_space_group_name_H-M   'P 21/c'
_symmetry_Int_Tables_number      14
_space_group_name_Hall           '-P 2ybc'
loop_
_symmetry_equiv_pos_site_id
_symmetry_equiv_pos_as_xyz
1 x,y,z
2 -x,1/2+y,1/2-z
3 -x,-y,-z
4 x,1/2-y,1/2+z
_cell_length_a                   8.8384(14)
_cell_length_b                   18.101(3)
_cell_length_c                   17.418(3)
_cell_angle_alpha                90
_cell_angle_beta                 92.577(4)
_cell_angle_gamma                90
_cell_volume                     2783.78
_exptl_crystal_colour            red
_exptl_crystal_description       prismatic
_cell_formula_units_Z            4
loop_
_atom_site_label
_atom_site_type_symbol
_atom_site_fract_x
_atom_site_fract_y
_atom_site_fract_z
S1 S 0.10134(16) 0.47839(7) 0.33605(7)
N1 N 0.3123(5) 0.78185(19) 0.26733(19)
N2 N 0.2262(5) 0.27633(19) 0.0785(2)
O1 O 0.3619(4) 0.53938(17) 0.13415(19)
C1 C 0.1667(5) 0.5651(2) 0.3103(2)
C2 C 0.1325(5) 0.6235(2) 0.3587(2)
H1 H 0.0775 0.6143 0.4019
C3 C 0.1775(5) 0.6933(3) 0.3439(2)
H2 H 0.1500 0.7313 0.3764
C4 C 0.2639(5) 0.7097(2) 0.2813(2)
C5 C 0.2990(5) 0.6518(2) 0.2334(2)
H3 H 0.3571 0.6612 0.1913
C6 C 0.2504(5) 0.5799(2) 0.2460(2)
C7 C 0.2870(5) 0.5229(2) 0.1893(2)
C8 C 0.2299(5) 0.4466(2) 0.1968(2)
C9 C 0.1529(5) 0.4223(2) 0.2604(2)
C10 C 0.1109(5) 0.3489(2) 0.2649(3)
H4 H 0.0638 0.3321 0.3083
C11 C 0.1370(5) 0.3009(2) 0.2072(3)
H5 H 0.1076 0.2518 0.2114
C12 C 0.2074(5) 0.3246(2) 0.1419(2)
C13 C 0.2569(5) 0.3964(2) 0.1386(2)
H6 H 0.3097 0.4118 0.0965
C14 C 0.3158(5) 0.8368(2) 0.3265(3)
C15 C 0.3767(6) 0.8227(3) 0.3997(3)
H7 H 0.4184 0.7765 0.4108
C16 C 0.3768(6) 0.8749(3) 0.4553(3)
H8 H 0.4166 0.8642 0.5043
C17 C 0.3186(8) 0.9430(3) 0.4394(4)
H9 H 0.3208 0.9793 0.4773
C18 C 0.2566(8) 0.9584(3) 0.3675(4)
H10 H 0.2155 1.0048 0.3570
C19 C 0.2551(6) 0.9057(3) 0.3112(3)
H11 H 0.2130 0.9164 0.2626
C20 C 0.3439(5) 0.8052(2) 0.1918(2)
C21 C 0.4725(6) 0.8459(3) 0.1798(3)
H12 H 0.5396 0.8566 0.2209
C22 C 0.5025(6) 0.8707(3) 0.1076(3)
H13 H 0.5896 0.8982 0.1004
C23 C 0.4050(7) 0.8552(3) 0.0458(3)
H14 H 0.4256 0.8720 -0.0031
C24 C 0.2773(7) 0.8146(3) 0.0574(3)
H15 H 0.2111 0.8038 0.0159
C25 C 0.2451(6) 0.7894(2) 0.1298(3)
H16 H 0.1578 0.7620 0.1369
C26 C 0.1852(6) 0.3037(2) 0.0038(3)
C27 C 0.0516(6) 0.3418(3) -0.0087(3)
H17 H -0.0113 0.3504 0.0317
C28 C 0.0112(7) 0.3672(3) -0.0813(3)
H18 H -0.0792 0.3929 -0.0896
C29 C 0.1022(8) 0.3551(3) -0.1411(3)
H19 H 0.0739 0.3719 -0.1902
C30 C 0.2361(7) 0.3178(3) -0.1281(3)
H20 H 0.2992 0.3098 -0.1686
C31 C 0.2778(6) 0.2923(3) -0.0564(3)
H21 H 0.3689 0.2672 -0.0483
C32 C 0.2531(5) 0.2003(2) 0.0891(2)
C33 C 0.1977(6) 0.1487(3) 0.0361(3)
H22 H 0.1432 0.1642 -0.0078
C34 C 0.2234(7) 0.0739(3) 0.0485(3)
H23 H 0.1873 0.0396 0.0123
C35 C 0.3016(7) 0.0501(3) 0.1135(4)
H24 H 0.3155 -0.0001 0.1226
C36 C 0.3589(6) 0.1011(3) 0.1650(3)
H25 H 0.4129 0.0851 0.2090
C37 C 0.3380(6) 0.1750(3) 0.1530(3)
H26 H 0.3809 0.2088 0.1879
loop_
_geom_bond_atom_site_label_1
_geom_bond_atom_site_label_2
_geom_bond_site_symmetry_1
_geom_bond_site_symmetry_2
S1 C1 1_555 1_555
N1 C4 1_555 1_555
N2 C12 1_555 1_555
O1 C7 1_555 1_555
C1 C2 1_555 1_555
C2 H1 1_555 1_555
C3 C2 1_555 1_555
H2 C3 1_555 1_555
C4 C3 1_555 1_555
C5 C4 1_555 1_555
H3 C5 1_555 1_555
C6 C1 1_555 1_555
C7 C6 1_555 1_555
C8 C7 1_555 1_555
C9 S1 1_555 1_555
C10 C9 1_555 1_555
H4 C10 1_555 1_555
C11 C10 1_555 1_555
H5 C11 1_555 1_555
C12 C11 1_555 1_555
C13 C8 1_555 1_555
H6 C13 1_555 1_555
C14 N1 1_555 1_555
C15 C14 1_555 1_555
H7 C15 1_555 1_555
C16 C15 1_555 1_555
H8 C16 1_555 1_555
C17 C16 1_555 1_555
H9 C17 1_555 1_555
C18 C17 1_555 1_555
H10 C18 1_555 1_555
C19 C14 1_555 1_555
H11 C19 1_555 1_555
C20 N1 1_555 1_555
C21 C20 1_555 1_555
H12 C21 1_555 1_555
C22 C21 1_555 1_555
H13 C22 1_555 1_555
C23 C22 1_555 1_555
H14 C23 1_555 1_555
C24 C23 1_555 1_555
H15 C24 1_555 1_555
C25 C20 1_555 1_555
H16 C25 1_555 1_555
C26 N2 1_555 1_555
C27 C26 1_555 1_555
H17 C27 1_555 1_555
C28 C27 1_555 1_555
H18 C28 1_555 1_555
C29 C28 1_555 1_555
H19 C29 1_555 1_555
C30 C29 1_555 1_555
H20 C30 1_555 1_555
C31 C26 1_555 1_555
H21 C31 1_555 1_555
C32 N2 1_555 1_555
C33 C32 1_555 1_555
H22 C33 1_555 1_555
C34 C33 1_555 1_555
H23 C34 1_555 1_555
C35 C34 1_555 1_555
H24 C35 1_555 1_555
C36 C35 1_555 1_555
H25 C36 1_555 1_555
C37 C32 1_555 1_555
H26 C37 1_555 1_555
C5 C6 1_555 1_555
C8 C9 1_555 1_555
C12 C13 1_555 1_555
C18 C19 1_555 1_555
C24 C25 1_555 1_555
C30 C31 1_555 1_555
C36 C37 1_555 1_555

#END
