
#######################################################################
#
#                 Cambridge Crystallographic Data Centre
#                                CCDC 
#
#######################################################################
#
# If this CIF has been generated from an entry in the Cambridge 
# Structural Database, then it will include bibliographic, chemical, 
# crystal, experimental, refinement or atomic coordinate data resulting 
# from the CCDC's data processing and validation procedures.
#
#######################################################################

data_RIFNIG
_chemical_formula_moiety         'C31 H27 N3 O4,C3 H8 O1'
_chemical_name_systematic        
'cyclopentyl {1-[(benzenecarbonyl)amino]-2-oxo-1-phenyl-1,2-dihydro-3H-benzo[e]indol-3-yl}carbamate propan-2-ol solvate'
_symmetry_cell_setting           hexagonal
_symmetry_space_group_name_H-M   'P 61'
_symmetry_Int_Tables_number      169
_space_group_name_Hall           'P 61'
loop_
_symmetry_equiv_pos_site_id
_symmetry_equiv_pos_as_xyz
1 x,y,z
2 -y,x-y,1/3+z
3 -x+y,-x,2/3+z
4 -x,-y,1/2+z
5 y,-x+y,5/6+z
6 x-y,x,1/6+z
_cell_length_a                   9.8356(2)
_cell_length_b                   9.8356(2)
_cell_length_c                   54.8983(11)
_cell_angle_alpha                90
_cell_angle_beta                 90
_cell_angle_gamma                120
_cell_volume                     4599.29
_exptl_crystal_colour            colorless
_exptl_crystal_description       block
_cell_formula_units_Z            6
loop_
_atom_site_label
_atom_site_type_symbol
_atom_site_fract_x
_atom_site_fract_y
_atom_site_fract_z
O1 O 0.8944(2) 1.13174(19) 0.49030(3)
O2 O 0.60756(19) 0.8109(2) 0.50546(3)
O3 O 0.9839(3) 1.1135(3) 0.42072(3)
O4 O 1.1461(2) 1.1461(2) 0.45205(3)
N1 N 0.9194(2) 0.9249(2) 0.47641(3)
N2 N 0.8992(3) 0.9418(2) 0.45183(3)
H1 H 0.808(4) 0.927(4) 0.4475(6)
N3 N 0.78671(19) 0.9321(2) 0.53480(3)
H2 H 0.808(3) 0.949(4) 0.5503(6)
C1 C 0.9113(2) 0.9446(2) 0.51895(3)
C2 C 0.9028(2) 1.0162(2) 0.49398(3)
C3 C 0.9024(2) 0.7855(2) 0.48633(3)
C4 C 0.8934(3) 0.6580(3) 0.47348(4)
H3 H 0.902727 0.660248 0.456604
C5 C 0.8703(3) 0.5300(3) 0.48668(5)
H4 H 0.865605 0.444684 0.478578
C6 C 0.8534(3) 0.5240(3) 0.51238(4)
C7 C 0.8232(3) 0.3880(3) 0.52587(5)
H5 H 0.815304 0.301241 0.517780
C8 C 0.8060(3) 0.3840(3) 0.55041(5)
H6 H 0.785386 0.294051 0.558955
C9 C 0.8188(3) 0.5142(3) 0.56312(4)
H7 H 0.806790 0.509486 0.579954
C10 C 0.8489(3) 0.6476(3) 0.55087(4)
H8 H 0.858629 0.733488 0.559481
C11 C 0.8654(2) 0.6561(2) 0.52513(3)
C12 C 0.8920(2) 0.7880(2) 0.51125(3)
C13 C 1.0726(2) 1.0585(2) 0.52965(3)
C14 C 1.0989(3) 1.1972(3) 0.54057(5)
H9 H 1.016332 1.216986 0.542315
C15 C 1.2471(4) 1.3063(4) 0.54887(6)
H10 H 1.263487 1.398220 0.556315
C16 C 1.3712(4) 1.2781(4) 0.54607(8)
H11 H 1.470616 1.350806 0.551714
C17 C 1.3468(4) 1.1428(4) 0.53496(9)
H12 H 1.430238 1.124701 0.532880
C18 C 1.1976(3) 1.0324(3) 0.52679(6)
H13 H 1.181868 0.940615 0.519370
C19 C 0.6375(2) 0.8590(2) 0.52652(3)
C20 C 0.5110(2) 0.8373(3) 0.54372(3)
C21 C 0.3581(3) 0.7278(3) 0.53761(5)
H14 H 0.338401 0.670645 0.523263
C22 C 0.2346(3) 0.7023(4) 0.55249(6)
H15 H 0.132416 0.627411 0.548305
C23 C 0.2630(3) 0.7878(5) 0.57345(6)
H16 H 0.180134 0.769941 0.583626
C24 C 0.4147(4) 0.9006(5) 0.57953(5)
H17 H 0.432928 0.960284 0.593565
C25 C 0.5396(3) 0.9253(3) 0.56486(4)
H18 H 0.641692 1.000055 0.569121
C26 C 1.0112(3) 1.0744(3) 0.44011(4)
C27 C 1.2616(4) 1.3033(4) 0.44342(6)
H19 H 1.275921 1.306436 0.425719
C28 C 1.4122(5) 1.3489(7) 0.45706(13)
H20 H 1.419064 1.256458 0.461071
H21 H 1.502692 1.418800 0.447284
C29 C 1.4056(11) 1.4304(10) 0.47989(15)
H22 H 1.391241 1.365065 0.493985
H23 H 1.503046 1.528926 0.481891
C30 C 1.2763(6) 1.4589(5) 0.47779(7)
H24 H 1.311024 1.568072 0.481323
H25 H 1.194413 1.393919 0.489297
C31 C 1.2136(5) 1.4193(4) 0.45189(6)
H26 H 1.100346 1.372735 0.451629
H27 H 1.260095 1.512382 0.441715
O5 O 0.5706(3) 0.8506(3) 0.45573(4)
H28 H 0.571046 0.827728 0.470081
C32 C 0.3579(9) 0.8969(10) 0.4602(3)
H29 H 0.292183 0.837737 0.446764
H30 H 0.339972 0.981964 0.463959
H31 H 0.333322 0.829805 0.474125
C33 C 0.5154(7) 0.9569(7) 0.45384(13)
H32 H 0.563485 1.017886 0.468646
C34 C 0.5989(10) 1.0760(9) 0.43659(15)
H33 H 0.668839 1.172054 0.444861
H34 H 0.526429 1.091113 0.426857
H35 H 0.658485 1.046168 0.426283
loop_
_geom_bond_atom_site_label_1
_geom_bond_atom_site_label_2
_geom_bond_site_symmetry_1
_geom_bond_site_symmetry_2
O1 C2 1_555 1_555
O2 C19 1_555 1_555
O3 C26 1_555 1_555
O4 C26 1_555 1_555
N1 N2 1_555 1_555
N2 H1 1_555 1_555
N3 H2 1_555 1_555
C1 N3 1_555 1_555
C2 N1 1_555 1_555
C3 N1 1_555 1_555
C4 C3 1_555 1_555
H3 C4 1_555 1_555
C5 C4 1_555 1_555
H4 C5 1_555 1_555
C6 C5 1_555 1_555
C7 C6 1_555 1_555
H5 C7 1_555 1_555
C8 C7 1_555 1_555
H6 C8 1_555 1_555
C9 C8 1_555 1_555
H7 C9 1_555 1_555
C10 C9 1_555 1_555
H8 C10 1_555 1_555
C11 C6 1_555 1_555
C12 C1 1_555 1_555
C13 C1 1_555 1_555
C14 C13 1_555 1_555
H9 C14 1_555 1_555
C15 C14 1_555 1_555
H10 C15 1_555 1_555
C16 C15 1_555 1_555
H11 C16 1_555 1_555
C17 C16 1_555 1_555
H12 C17 1_555 1_555
C18 C13 1_555 1_555
H13 C18 1_555 1_555
C19 N3 1_555 1_555
C20 C19 1_555 1_555
C21 C20 1_555 1_555
H14 C21 1_555 1_555
C22 C21 1_555 1_555
H15 C22 1_555 1_555
C23 C22 1_555 1_555
H16 C23 1_555 1_555
C24 C23 1_555 1_555
H17 C24 1_555 1_555
C25 C20 1_555 1_555
H18 C25 1_555 1_555
C26 N2 1_555 1_555
C27 O4 1_555 1_555
H19 C27 1_555 1_555
C28 C27 1_555 1_555
H20 C28 1_555 1_555
H21 C28 1_555 1_555
C29 C28 1_555 1_555
H22 C29 1_555 1_555
H23 C29 1_555 1_555
C30 C29 1_555 1_555
H24 C30 1_555 1_555
H25 C30 1_555 1_555
C31 C27 1_555 1_555
H26 C31 1_555 1_555
H27 C31 1_555 1_555
O5 H28 1_555 1_555
C32 H29 1_555 1_555
H30 C32 1_555 1_555
H31 C32 1_555 1_555
C33 O5 1_555 1_555
H32 C33 1_555 1_555
C34 C33 1_555 1_555
H33 C34 1_555 1_555
H34 C34 1_555 1_555
H35 C34 1_555 1_555
C1 C2 1_555 1_555
C3 C12 1_555 1_555
C10 C11 1_555 1_555
C11 C12 1_555 1_555
C17 C18 1_555 1_555
C24 C25 1_555 1_555
C30 C31 1_555 1_555
C32 C33 1_555 1_555

#END
