
#######################################################################
#
#                 Cambridge Crystallographic Data Centre
#                                CCDC 
#
#######################################################################
#
# If this CIF has been generated from an entry in the Cambridge 
# Structural Database, then it will include bibliographic, chemical, 
# crystal, experimental, refinement or atomic coordinate data resulting 
# from the CCDC's data processing and validation procedures.
#
#######################################################################

data_RIFPII
_chemical_formula_moiety         'C21 H17 N1 O3 S1'
_chemical_name_systematic        
14-(methylsulfonyl)-6,6a,11,11a-tetrahydro-6,11-epiminoindeno[2,1-d]naphtho[1,2-b]pyran
_symmetry_cell_setting           monoclinic
_symmetry_space_group_name_H-M   'P 21/c'
_symmetry_Int_Tables_number      14
_space_group_name_Hall           '-P 2ybc'
loop_
_symmetry_equiv_pos_site_id
_symmetry_equiv_pos_as_xyz
1 x,y,z
2 -x,1/2+y,1/2-z
3 -x,-y,-z
4 x,1/2-y,1/2+z
_cell_length_a                   12.0221(7)
_cell_length_b                   16.8829(11)
_cell_length_c                   8.8371(5)
_cell_angle_alpha                90
_cell_angle_beta                 106.653(4)
_cell_angle_gamma                90
_cell_volume                     1718.42
_exptl_crystal_colour            colorless
_exptl_crystal_description       plate
_cell_formula_units_Z            4
loop_
_atom_site_label
_atom_site_type_symbol
_atom_site_fract_x
_atom_site_fract_y
_atom_site_fract_z
N1 N 0.24644(17) 0.43787(13) 0.4413(2)
O1 O 0.38557(14) 0.53720(11) 0.5571(2)
O2 O 0.37371(15) 0.34488(11) 0.6252(2)
O3 O 0.16518(15) 0.31443(11) 0.5075(2)
S1 S 0.27216(5) 0.34549(4) 0.49228(7)
C1 C 0.3024(2) 0.58291(15) 0.5967(3)
C2 C 0.1927(2) 0.59248(15) 0.4960(3)
C3 C 0.1124(2) 0.63953(16) 0.5466(3)
H1 H 0.0356 0.6458 0.4792
C4 C 0.1437(2) 0.67621(15) 0.6917(3)
H2 H 0.0887 0.708 0.7226
C5 C 0.2569(2) 0.66697(15) 0.7952(3)
C6 C 0.3381(2) 0.61897(15) 0.7483(3)
C7 C 0.4502(2) 0.60642(16) 0.8548(3)
H3 H 0.5048 0.5744 0.8238
C8 C 0.4798(2) 0.63990(17) 1.0009(3)
H4 H 0.5545 0.6304 1.0717
C9 C 0.4002(2) 0.68877(17) 1.0483(3)
H5 H 0.4221 0.7127 1.1498
C10 C 0.2921(2) 0.70142(16) 0.9480(3)
H6 H 0.2392 0.7341 0.9813
C11 C 0.1625(2) 0.55486(15) 0.3344(3)
H7 H 0.1015 0.5856 0.2555
C12 C 0.2721(2) 0.54163(16) 0.2779(3)
H8 H 0.313 0.5906 0.2591
C13 C 0.3388(2) 0.48965(16) 0.4189(3)
H9 H 0.4011 0.4582 0.3921
C14 C 0.1334(2) 0.46555(16) 0.3296(3)
H10 H 0.0615 0.4509 0.3584
C15 C 0.1355(2) 0.44352(16) 0.1647(3)
C16 C 0.2242(2) 0.48896(16) 0.1358(3)
C17 C 0.2556(2) 0.48018(17) -0.0022(3)
H11 H 0.3153 0.5116 -0.0223
C18 C 0.1966(2) 0.42370(18) -0.1107(3)
H12 H 0.2164 0.4167 -0.2065
C19 C 0.1101(2) 0.37783(18) -0.0815(3)
H13 H 0.0722 0.3392 -0.1568
C20 C 0.0772(2) 0.38714(17) 0.0569(3)
H14 H 0.017 0.3559 0.0764
C21 C 0.3065(2) 0.29506(17) 0.3381(3)
H15 H 0.3228 0.2394 0.3675
H16 H 0.3751 0.3193 0.3183
H17 H 0.2409 0.2983 0.2422
loop_
_geom_bond_atom_site_label_1
_geom_bond_atom_site_label_2
_geom_bond_site_symmetry_1
_geom_bond_site_symmetry_2
N1 S1 1_555 1_555
O1 C1 1_555 1_555
O2 S1 1_555 1_555
O3 S1 1_555 1_555
S1 C21 1_555 1_555
C1 C2 1_555 1_555
C2 C3 1_555 1_555
C3 H1 1_555 1_555
C4 C3 1_555 1_555
H2 C4 1_555 1_555
C5 C4 1_555 1_555
C6 C1 1_555 1_555
C7 C6 1_555 1_555
H3 C7 1_555 1_555
C8 C7 1_555 1_555
H4 C8 1_555 1_555
C9 C8 1_555 1_555
H5 C9 1_555 1_555
C10 C5 1_555 1_555
H6 C10 1_555 1_555
C11 C2 1_555 1_555
H7 C11 1_555 1_555
C12 C11 1_555 1_555
H8 C12 1_555 1_555
C13 N1 1_555 1_555
H9 C13 1_555 1_555
C14 N1 1_555 1_555
H10 C14 1_555 1_555
C15 C14 1_555 1_555
C16 C12 1_555 1_555
C17 C16 1_555 1_555
H11 C17 1_555 1_555
C18 C17 1_555 1_555
H12 C18 1_555 1_555
C19 C18 1_555 1_555
H13 C19 1_555 1_555
C20 C15 1_555 1_555
H14 C20 1_555 1_555
C21 H15 1_555 1_555
H16 C21 1_555 1_555
H17 C21 1_555 1_555
O1 C13 1_555 1_555
C5 C6 1_555 1_555
C9 C10 1_555 1_555
C11 C14 1_555 1_555
C12 C13 1_555 1_555
C15 C16 1_555 1_555
C19 C20 1_555 1_555

#END
