
#######################################################################
#
#                 Cambridge Crystallographic Data Centre
#                                CCDC 
#
#######################################################################
#
# If this CIF has been generated from an entry in the Cambridge 
# Structural Database, then it will include bibliographic, chemical, 
# crystal, experimental, refinement or atomic coordinate data resulting 
# from the CCDC's data processing and validation procedures.
#
#######################################################################

data_RIFPAA
_chemical_formula_moiety         'C17 H15 N1 O3 S1'
_chemical_name_systematic        
12-(methylsulfonyl)-6,6a,11,11a-tetrahydro-6,11-epiminobenzo[b]indeno[2,1-d]pyran
_symmetry_cell_setting           monoclinic
_symmetry_space_group_name_H-M   'P 21/n'
_symmetry_Int_Tables_number      14
_space_group_name_Hall           '-P 2yn'
loop_
_symmetry_equiv_pos_site_id
_symmetry_equiv_pos_as_xyz
1 x,y,z
2 1/2-x,1/2+y,1/2-z
3 -x,-y,-z
4 1/2+x,1/2-y,1/2+z
_cell_length_a                   8.8738(3)
_cell_length_b                   13.1824(4)
_cell_length_c                   12.5875(4)
_cell_angle_alpha                90
_cell_angle_beta                 102.4480(10)
_cell_angle_gamma                90
_cell_volume                     1437.85
_exptl_crystal_colour            colorless
_exptl_crystal_description       prism
_cell_formula_units_Z            4
loop_
_atom_site_label
_atom_site_type_symbol
_atom_site_fract_x
_atom_site_fract_y
_atom_site_fract_z
N1 N 0.3703(2) 0.67870(13) 0.21896(15)
O1 O 0.41020(18) 0.50723(12) 0.16862(13)
O2 O 0.31633(19) 0.84869(13) 0.14125(16)
O3 O 0.2003(2) 0.69690(15) 0.03893(14)
S1 S 0.24546(6) 0.75056(4) 0.13923(4)
C1 C 0.5684(3) 0.51471(17) 0.19632(19)
C2 C 0.6521(3) 0.46316(18) 0.1300(2)
H1 H 0.6002 0.4256 0.0685
C3 C 0.8113(3) 0.46823(19) 0.1559(2)
H2 H 0.8688 0.4341 0.1113
C4 C 0.8880(3) 0.52169(19) 0.2449(2)
H3 H 0.9976 0.5235 0.2623
C5 C 0.8046(3) 0.57276(17) 0.3090(2)
H4 H 0.8581 0.6108 0.3695
C6 C 0.6447(2) 0.56992(16) 0.28719(18)
C7 C 0.5519(2) 0.61483(17) 0.36238(18)
H5 H 0.6132 0.6191 0.4388
C8 C 0.3994(3) 0.55496(17) 0.35556(18)
H6 H 0.412 0.4828 0.3803
C9 C 0.3353(3) 0.57030(16) 0.23258(18)
H7 H 0.2213 0.5585 0.214
C10 C 0.4671(2) 0.71558(17) 0.32551(19)
H8 H 0.5339 0.7759 0.3216
C11 C 0.3596(3) 0.72274(18) 0.40630(19)
C12 C 0.3142(2) 0.62267(18) 0.41993(18)
C13 C 0.2098(3) 0.60018(19) 0.48284(19)
H9 H 0.178 0.5322 0.4904
C14 C 0.1516(3) 0.6798(2) 0.5354(2)
H10 H 0.0802 0.6662 0.5801
C15 C 0.1988(3) 0.7799(2) 0.5222(2)
H11 H 0.1593 0.8335 0.5586
C16 C 0.3029(3) 0.80179(19) 0.4565(2)
H12 H 0.3335 0.8696 0.447
C17 C 0.0799(2) 0.76468(17) 0.1946(2)
H13 H 0.0014 0.8034 0.144
H14 H 0.1076 0.8008 0.2641
H15 H 0.0388 0.6976 0.2064
loop_
_geom_bond_atom_site_label_1
_geom_bond_atom_site_label_2
_geom_bond_site_symmetry_1
_geom_bond_site_symmetry_2
N1 S1 1_555 1_555
O1 C1 1_555 1_555
O2 S1 1_555 1_555
O3 S1 1_555 1_555
S1 C17 1_555 1_555
C1 C2 1_555 1_555
C2 H1 1_555 1_555
C3 C2 1_555 1_555
H2 C3 1_555 1_555
C4 C3 1_555 1_555
H3 C4 1_555 1_555
C5 C4 1_555 1_555
H4 C5 1_555 1_555
C6 C1 1_555 1_555
C7 C6 1_555 1_555
H5 C7 1_555 1_555
C8 C7 1_555 1_555
H6 C8 1_555 1_555
C9 N1 1_555 1_555
H7 C9 1_555 1_555
C10 N1 1_555 1_555
H8 C10 1_555 1_555
C11 C10 1_555 1_555
C12 C8 1_555 1_555
C13 C12 1_555 1_555
H9 C13 1_555 1_555
C14 C13 1_555 1_555
H10 C14 1_555 1_555
C15 C14 1_555 1_555
H11 C15 1_555 1_555
C16 C11 1_555 1_555
H12 C16 1_555 1_555
C17 H13 1_555 1_555
H14 C17 1_555 1_555
H15 C17 1_555 1_555
O1 C9 1_555 1_555
C5 C6 1_555 1_555
C7 C10 1_555 1_555
C8 C9 1_555 1_555
C11 C12 1_555 1_555
C15 C16 1_555 1_555

#END
