
#######################################################################
#
#                 Cambridge Crystallographic Data Centre
#                                CCDC 
#
#######################################################################
#
# If this CIF has been generated from an entry in the Cambridge 
# Structural Database, then it will include bibliographic, chemical, 
# crystal, experimental, refinement or atomic coordinate data resulting 
# from the CCDC's data processing and validation procedures.
#
#######################################################################

data_RIFTOS
_chemical_formula_moiety         'C43 H38 O3 P2'
_chemical_name_systematic        
"((1S,3R,3'R)-7'-(diphenylphosphaneyl)-3,3'-diethyl-3H,3'H-1,1'-spirobi[isobenzofuran]-7-yl)diphenylphosphine oxide"
_symmetry_cell_setting           monoclinic
_symmetry_space_group_name_H-M   'P 21'
_symmetry_Int_Tables_number      4
_space_group_name_Hall           'P 2yb'
loop_
_symmetry_equiv_pos_site_id
_symmetry_equiv_pos_as_xyz
1 x,y,z
2 -x,1/2+y,-z
_cell_length_a                   10.01060(10)
_cell_length_b                   31.3874(3)
_cell_length_c                   11.24650(10)
_cell_angle_alpha                90
_cell_angle_beta                 90.2490(10)
_cell_angle_gamma                90
_cell_volume                     3533.69
_exptl_crystal_colour            colorless
_exptl_crystal_description       block
_cell_formula_units_Z            4
_exptl_crystal_recrystallization_method 
'Re-crystallisation from solvent: dichloromethane/hexanes'
loop_
_atom_site_label
_atom_site_type_symbol
_atom_site_fract_x
_atom_site_fract_y
_atom_site_fract_z
P1 P 0.59962(12) 0.33848(4) 1.01534(10)
P2 P 0.34263(13) 0.36224(4) 0.70477(11)
O1 O 0.4589(4) 0.34887(12) 1.0321(3)
O2 O 0.5858(3) 0.44929(11) 0.9644(3)
O3 O 0.5323(4) 0.45843(10) 0.7618(3)
C1 C 0.7054(5) 0.35770(14) 1.1347(4)
C2 C 0.6594(6) 0.35215(17) 1.2508(4)
H1 H 0.5772 0.3385 1.2642
C3 C 0.7339(7) 0.36650(19) 1.3455(4)
H2 H 0.7026 0.3625 1.4234
C4 C 0.8536(7) 0.38655(18) 1.3270(5)
H3 H 0.9041 0.3961 1.3923
C5 C 0.9003(6) 0.39273(18) 1.2139(5)
H4 H 0.9822 0.4067 1.2017
C6 C 0.8264(6) 0.37836(17) 1.1180(4)
H5 H 0.8585 0.3826 1.0404
C7 C 0.6258(5) 0.28141(16) 1.0144(4)
C8 C 0.7349(6) 0.26121(18) 1.0670(5)
H6 H 0.8029 0.2775 1.1027
C9 C 0.7435(8) 0.2174(2) 1.0671(6)
H7 H 0.8171 0.2037 1.1025
C10 C 0.6425(9) 0.1936(2) 1.0144(8)
H8 H 0.6467 0.1637 1.0159
C11 C 0.5373(8) 0.2133(2) 0.9608(10)
H9 H 0.4702 0.1970 0.9240
C12 C 0.5288(7) 0.2572(2) 0.9602(7)
H10 H 0.4561 0.2706 0.9225
C13 C 0.6745(4) 0.35784(15) 0.8791(4)
C14 C 0.7784(5) 0.33482(19) 0.8260(4)
H11 H 0.8036 0.3084 0.8583
C15 C 0.8455(5) 0.3503(2) 0.7262(4)
H12 H 0.9143 0.3341 0.6919
C16 C 0.8115(5) 0.38887(19) 0.6782(4)
H13 H 0.8594 0.3998 0.6133
C17 C 0.7054(5) 0.41185(16) 0.7262(4)
C18 C 0.6369(4) 0.39624(15) 0.8244(3)
C19 C 0.6490(5) 0.45342(16) 0.6882(4)
H14 H 0.7138 0.4764 0.7063
C20 C 0.6062(6) 0.45642(17) 0.5590(4)
H15 H 0.6858 0.4552 0.5087
H16 H 0.5503 0.4317 0.5396
C21 C 0.5296(7) 0.4966(2) 0.5302(5)
H17 H 0.4458 0.4966 0.5733
H18 H 0.5115 0.4977 0.4455
H19 H 0.5821 0.5212 0.5534
C22 C 0.5352(5) 0.42928(13) 0.8596(3)
C23 C 0.4791(5) 0.46765(15) 1.0319(4)
H20 H 0.4751 0.4987 1.0177
C24 C 0.5054(5) 0.45903(15) 1.1618(4)
H21 H 0.5098 0.4282 1.1746
H22 H 0.4308 0.4701 1.2087
C25 C 0.6344(6) 0.4792(2) 1.2055(4)
H23 H 0.7079 0.4697 1.1564
H24 H 0.6506 0.4708 1.2874
H25 H 0.6270 0.5100 1.2008
C26 C 0.3561(5) 0.44678(15) 0.9838(4)
C27 C 0.2255(5) 0.45044(17) 1.0215(4)
H26 H 0.2029 0.4684 1.0853
C28 C 0.1284(5) 0.42668(18) 0.9621(4)
H27 H 0.0387 0.4287 0.9858
C29 C 0.1623(5) 0.40027(18) 0.8690(5)
H28 H 0.0952 0.3840 0.8319
C30 C 0.2936(5) 0.39699(15) 0.8283(4)
C31 C 0.3883(4) 0.42109(14) 0.8878(3)
C32 C 0.2242(6) 0.31813(16) 0.7181(5)
C33 C 0.1697(7) 0.2977(2) 0.6176(6)
H29 H 0.1850 0.3087 0.5411
C34 C 0.0942(9) 0.2618(2) 0.6324(8)
H30 H 0.0599 0.2478 0.5649
C35 C 0.0668(12) 0.2453(3) 0.7446(10)
H31 H 0.0133 0.2209 0.7529
C36 C 0.1188(10) 0.2651(2) 0.8420(8)
H32 H 0.1001 0.2545 0.9183
C37 C 0.1990(7) 0.30077(19) 0.8299(6)
H33 H 0.2369 0.3134 0.8978
C38 C 0.2801(5) 0.39195(16) 0.5753(4)
C39 C 0.1994(6) 0.42736(19) 0.5823(4)
H34 H 0.1680 0.4364 0.6568
C40 C 0.1634(7) 0.4501(2) 0.4805(5)
H35 H 0.1091 0.4745 0.4864
C41 C 0.2084(7) 0.4365(2) 0.3706(5)
H36 H 0.1838 0.4515 0.3015
C42 C 0.2876(6) 0.4016(2) 0.3626(5)
H37 H 0.3168 0.3924 0.2876
C43 C 0.3263(6) 0.37947(18) 0.4637(5)
H38 H 0.3838 0.3559 0.4570
P3 P -0.09980(12) 0.66170(4) 0.77105(10)
P4 P 0.15638(12) 0.64378(4) 0.46624(11)
O4 O 0.0398(4) 0.65087(13) 0.7883(4)
O5 O -0.0904(3) 0.54922(10) 0.6977(3)
O6 O -0.0308(3) 0.54797(10) 0.4962(2)
C44 C -0.2056(5) 0.64221(15) 0.8892(4)
C45 C -0.1680(6) 0.65236(16) 1.0054(4)
H39 H -0.0908 0.6687 1.0193
C46 C -0.2438(6) 0.63845(18) 1.1002(4)
H40 H -0.2185 0.6455 1.1784
C47 C -0.3555(6) 0.61451(19) 1.0805(5)
H41 H -0.4068 0.6052 1.1452
C48 C -0.3935(7) 0.6040(2) 0.9669(5)
H42 H -0.4701 0.5872 0.9541
C49 C -0.3187(6) 0.6180(2) 0.8708(5)
H43 H -0.3454 0.6110 0.7929
C50 C -0.1244(5) 0.71876(16) 0.7724(4)
C51 C -0.2313(6) 0.73964(18) 0.8260(5)
H44 H -0.2984 0.7236 0.8632
C52 C -0.2400(8) 0.7830(2) 0.8254(6)
H45 H -0.3133 0.7966 0.8610
C53 C -0.1409(8) 0.8069(2) 0.7722(7)
H46 H -0.1456 0.8368 0.7730
C54 C -0.0356(8) 0.7869(2) 0.7183(8)
H47 H 0.0311 0.8031 0.6812
C55 C -0.0269(6) 0.74321(19) 0.7181(6)
H48 H 0.0457 0.7298 0.6809
C56 C -0.1782(4) 0.64394(15) 0.6340(4)
C57 C -0.2843(5) 0.66761(17) 0.5858(4)
H49 H -0.3099 0.6931 0.6230
C58 C -0.3524(5) 0.65434(19) 0.4846(4)
H50 H -0.4232 0.6708 0.4543
C59 C -0.3164(5) 0.61702(19) 0.4284(4)
H51 H -0.3644 0.6074 0.3616
C60 C -0.2093(4) 0.59412(15) 0.4714(4)
C61 C -0.1396(4) 0.60700(14) 0.5729(3)
C62 C -0.0372(4) 0.57303(13) 0.6021(3)
C63 C 0.0157(5) 0.52924(15) 0.7651(4)
H52 H 0.0216 0.4987 0.7443
C64 C -0.0176(5) 0.53423(17) 0.8970(4)
H53 H 0.0552 0.5222 0.9448
H54 H -0.0243 0.5646 0.9161
C65 C -0.1479(6) 0.5123(2) 0.9298(5)
H55 H -0.2207 0.5247 0.8846
H56 H -0.1644 0.5159 1.0141
H57 H -0.1415 0.4821 0.9116
C66 C -0.1481(5) 0.55390(16) 0.4242(4)
H58 H -0.2103 0.5299 0.4375
C67 C -0.1101(5) 0.55514(17) 0.2956(4)
H59 H -0.0622 0.5818 0.2800
H60 H -0.1917 0.5553 0.2472
C68 C -0.0239(6) 0.5183(2) 0.2573(5)
H61 H 0.0574 0.5180 0.3045
H62 H -0.0016 0.5215 0.1739
H63 H -0.0721 0.4919 0.2689
C69 C 0.1073(4) 0.58064(14) 0.6363(4)
C70 C 0.1387(5) 0.55195(15) 0.7256(4)
C71 C 0.2687(5) 0.54708(18) 0.7652(4)
H64 H 0.2902 0.5271 0.8244
C72 C 0.3656(5) 0.57224(19) 0.7156(5)
H65 H 0.4546 0.5694 0.7414
C73 C 0.3345(5) 0.60185(18) 0.6277(4)
H66 H 0.4027 0.6191 0.5967
C74 C 0.2036(4) 0.60652(14) 0.5842(4)
C75 C 0.2766(5) 0.68734(16) 0.4828(5)
C76 C 0.3079(7) 0.7032(2) 0.5956(6)
H67 H 0.2733 0.6895 0.6632
C77 C 0.3888(9) 0.7385(2) 0.6097(9)
H68 H 0.4111 0.7483 0.6863
C78 C 0.4364(9) 0.7592(2) 0.5103(9)
H69 H 0.4910 0.7834 0.5192
C79 C 0.4049(8) 0.7449(2) 0.3994(8)
H70 H 0.4364 0.7596 0.3325
C80 C 0.3269(7) 0.70872(18) 0.3839(6)
H71 H 0.3079 0.6987 0.3069
C81 C 0.2128(5) 0.61695(15) 0.3302(4)
C82 C 0.1504(6) 0.62819(18) 0.2234(5)
H72 H 0.0852 0.6498 0.2232
C83 C 0.1830(7) 0.6080(2) 0.1172(5)
H73 H 0.1410 0.6162 0.0458
C84 C 0.2763(7) 0.5763(2) 0.1174(5)
H74 H 0.2978 0.5623 0.0461
C85 C 0.3385(7) 0.5648(2) 0.2215(6)
H75 H 0.4033 0.5431 0.2207
C86 C 0.3074(6) 0.58473(18) 0.3277(5)
H76 H 0.3505 0.5764 0.3983
loop_
_geom_bond_atom_site_label_1
_geom_bond_atom_site_label_2
_geom_bond_site_symmetry_1
_geom_bond_site_symmetry_2
P1 O1 1_555 1_555
P2 C30 1_555 1_555
O2 C22 1_555 1_555
O3 C19 1_555 1_555
C1 P1 1_555 1_555
C2 C1 1_555 1_555
H1 C2 1_555 1_555
C3 C2 1_555 1_555
H2 C3 1_555 1_555
C4 C3 1_555 1_555
H3 C4 1_555 1_555
C5 C4 1_555 1_555
H4 C5 1_555 1_555
C6 C1 1_555 1_555
H5 C6 1_555 1_555
C7 P1 1_555 1_555
C8 C7 1_555 1_555
H6 C8 1_555 1_555
C9 C8 1_555 1_555
H7 C9 1_555 1_555
C10 C9 1_555 1_555
H8 C10 1_555 1_555
C11 C10 1_555 1_555
H9 C11 1_555 1_555
C12 C7 1_555 1_555
H10 C12 1_555 1_555
C13 P1 1_555 1_555
C14 C13 1_555 1_555
H11 C14 1_555 1_555
C15 C14 1_555 1_555
H12 C15 1_555 1_555
C16 C15 1_555 1_555
H13 C16 1_555 1_555
C17 C16 1_555 1_555
C18 C13 1_555 1_555
C19 C17 1_555 1_555
H14 C19 1_555 1_555
C20 C19 1_555 1_555
H15 C20 1_555 1_555
H16 C20 1_555 1_555
C21 C20 1_555 1_555
H17 C21 1_555 1_555
H18 C21 1_555 1_555
H19 C21 1_555 1_555
C22 O3 1_555 1_555
C23 O2 1_555 1_555
H20 C23 1_555 1_555
C24 C23 1_555 1_555
H21 C24 1_555 1_555
H22 C24 1_555 1_555
C25 C24 1_555 1_555
H23 C25 1_555 1_555
H24 C25 1_555 1_555
H25 C25 1_555 1_555
C26 C23 1_555 1_555
C27 C26 1_555 1_555
H26 C27 1_555 1_555
C28 C27 1_555 1_555
H27 C28 1_555 1_555
C29 C28 1_555 1_555
H28 C29 1_555 1_555
C30 C29 1_555 1_555
C31 C22 1_555 1_555
C32 P2 1_555 1_555
C33 C32 1_555 1_555
H29 C33 1_555 1_555
C34 C33 1_555 1_555
H30 C34 1_555 1_555
C35 C34 1_555 1_555
H31 C35 1_555 1_555
C36 C35 1_555 1_555
H32 C36 1_555 1_555
C37 C32 1_555 1_555
H33 C37 1_555 1_555
C38 P2 1_555 1_555
C39 C38 1_555 1_555
H34 C39 1_555 1_555
C40 C39 1_555 1_555
H35 C40 1_555 1_555
C41 C40 1_555 1_555
H36 C41 1_555 1_555
C42 C41 1_555 1_555
H37 C42 1_555 1_555
C43 C38 1_555 1_555
H38 C43 1_555 1_555
P3 O4 1_555 1_555
P4 C74 1_555 1_555
O5 C62 1_555 1_555
O6 C62 1_555 1_555
C44 P3 1_555 1_555
C45 C44 1_555 1_555
H39 C45 1_555 1_555
C46 C45 1_555 1_555
H40 C46 1_555 1_555
C47 C46 1_555 1_555
H41 C47 1_555 1_555
C48 C47 1_555 1_555
H42 C48 1_555 1_555
C49 C44 1_555 1_555
H43 C49 1_555 1_555
C50 P3 1_555 1_555
C51 C50 1_555 1_555
H44 C51 1_555 1_555
C52 C51 1_555 1_555
H45 C52 1_555 1_555
C53 C52 1_555 1_555
H46 C53 1_555 1_555
C54 C53 1_555 1_555
H47 C54 1_555 1_555
C55 C50 1_555 1_555
H48 C55 1_555 1_555
C56 P3 1_555 1_555
C57 C56 1_555 1_555
H49 C57 1_555 1_555
C58 C57 1_555 1_555
H50 C58 1_555 1_555
C59 C58 1_555 1_555
H51 C59 1_555 1_555
C60 C59 1_555 1_555
C61 C56 1_555 1_555
C62 C61 1_555 1_555
C63 O5 1_555 1_555
H52 C63 1_555 1_555
C64 C63 1_555 1_555
H53 C64 1_555 1_555
H54 C64 1_555 1_555
C65 C64 1_555 1_555
H55 C65 1_555 1_555
H56 C65 1_555 1_555
H57 C65 1_555 1_555
C66 O6 1_555 1_555
H58 C66 1_555 1_555
C67 C66 1_555 1_555
H59 C67 1_555 1_555
H60 C67 1_555 1_555
C68 C67 1_555 1_555
H61 C68 1_555 1_555
H62 C68 1_555 1_555
H63 C68 1_555 1_555
C69 C62 1_555 1_555
C70 C63 1_555 1_555
C71 C70 1_555 1_555
H64 C71 1_555 1_555
C72 C71 1_555 1_555
H65 C72 1_555 1_555
C73 C72 1_555 1_555
H66 C73 1_555 1_555
C74 C69 1_555 1_555
C75 P4 1_555 1_555
C76 C75 1_555 1_555
H67 C76 1_555 1_555
C77 C76 1_555 1_555
H68 C77 1_555 1_555
C78 C77 1_555 1_555
H69 C78 1_555 1_555
C79 C78 1_555 1_555
H70 C79 1_555 1_555
C80 C75 1_555 1_555
H71 C80 1_555 1_555
C81 P4 1_555 1_555
C82 C81 1_555 1_555
H72 C82 1_555 1_555
C83 C82 1_555 1_555
H73 C83 1_555 1_555
C84 C83 1_555 1_555
H74 C84 1_555 1_555
C85 C84 1_555 1_555
H75 C85 1_555 1_555
C86 C81 1_555 1_555
H76 C86 1_555 1_555
C5 C6 1_555 1_555
C11 C12 1_555 1_555
C17 C18 1_555 1_555
C18 C22 1_555 1_555
C26 C31 1_555 1_555
C30 C31 1_555 1_555
C36 C37 1_555 1_555
C42 C43 1_555 1_555
C48 C49 1_555 1_555
C54 C55 1_555 1_555
C60 C61 1_555 1_555
C60 C66 1_555 1_555
C69 C70 1_555 1_555
C73 C74 1_555 1_555
C79 C80 1_555 1_555
C85 C86 1_555 1_555

#END
