
#######################################################################
#
#                 Cambridge Crystallographic Data Centre
#                                CCDC 
#
#######################################################################
#
# If this CIF has been generated from an entry in the Cambridge 
# Structural Database, then it will include bibliographic, chemical, 
# crystal, experimental, refinement or atomic coordinate data resulting 
# from the CCDC's data processing and validation procedures.
#
#######################################################################

data_RIGCUH
_chemical_formula_moiety         'C16 H22 N8 2+,2(F6 P1 1-)'
_chemical_name_systematic        
"1,1'-(6-(Piperidin-1-yl)-1,3,5-triazine-2,4-diyl)bis(3-methyl-1H-imidazol-3-ium) bis(hexafluorophosphate)"
_symmetry_cell_setting           monoclinic
_symmetry_space_group_name_H-M   'P 21/n'
_symmetry_Int_Tables_number      14
_space_group_name_Hall           '-P 2yn'
loop_
_symmetry_equiv_pos_site_id
_symmetry_equiv_pos_as_xyz
1 x,y,z
2 1/2-x,1/2+y,1/2-z
3 -x,-y,-z
4 1/2+x,1/2-y,1/2+z
_cell_length_a                   12.9534(6)
_cell_length_b                   12.4354(3)
_cell_length_c                   15.5327(7)
_cell_angle_alpha                90
_cell_angle_beta                 99.439(2)
_cell_angle_gamma                90
_cell_volume                     2468.14
_exptl_crystal_colour            colorless
_exptl_crystal_description       block
_cell_formula_units_Z            4
loop_
_atom_site_label
_atom_site_type_symbol
_atom_site_fract_x
_atom_site_fract_y
_atom_site_fract_z
C1 C 1.0328(3) 0.8036(3) -0.0547(3)
H1 H 1.0582 0.8336 0.0010
C2 C 1.0005(4) 0.7767(4) -0.1970(3)
H2 H 1.0000 0.7861 -0.2578
C3 C 0.9542(4) 0.6971(4) -0.1592(3)
H3 H 0.9149 0.6394 -0.1883
C4 C 1.1101(4) 0.9397(4) -0.1424(4)
H4 H 1.1401 0.9688 -0.0851
H5 H 1.0644 0.9936 -0.1751
H6 H 1.1667 0.9213 -0.1746
C5 C 0.9449(3) 0.6469(3) -0.0045(3)
C6 C 0.8548(3) 0.5060(3) 0.0322(3)
C7 C 0.9560(3) 0.6033(3) 0.1328(3)
C8 C 0.7340(4) 0.4075(4) -0.0794(3)
H7 H 0.7428 0.3324 -0.0981
H8 H 0.7630 0.4560 -0.1200
C9 C 0.6189(4) 0.4315(5) -0.0817(4)
H9 H 0.5801 0.4157 -0.1407
H10 H 0.6100 0.5088 -0.0698
C10 C 0.5738(4) 0.3646(5) -0.0144(4)
H11 H 0.5002 0.3859 -0.0143
H12 H 0.5746 0.2876 -0.0305
C11 C 0.6363(4) 0.3804(4) 0.0758(4)
H13 H 0.6092 0.3319 0.1175
H14 H 0.6282 0.4554 0.0950
C12 C 0.7513(4) 0.3567(4) 0.0762(4)
H15 H 0.7919 0.3728 0.1345
H16 H 0.7606 0.2797 0.0636
N1 N 1.0490(3) 0.8426(3) -0.1308(3)
N2 N 0.9742(3) 0.7142(3) -0.0702(2)
N3 N 0.8795(3) 0.5697(3) -0.0332(2)
N4 N 0.8936(3) 0.5208(3) 0.1179(2)
N5 N 0.9885(3) 0.6713(3) 0.0765(2)
N6 N 0.7898(3) 0.4233(3) 0.0097(3)
C13 C 1.0716(14) 0.6998(12) 0.2488(7)
H17 H 1.1044 0.7469 0.2134
C14 C 0.9701(19) 0.5744(18) 0.2921(11)
H18 H 0.9202 0.5182 0.2907
C15 C 1.0236(14) 0.6227(12) 0.3641(9)
H19 H 1.0191 0.6073 0.4233
C16 C 1.1624(7) 0.7645(6) 0.3895(5)
H20 H 1.2145 0.7178 0.4240
H21 H 1.1267 0.8072 0.4288
H22 H 1.1973 0.8127 0.3535
N7 N 1.0030(10) 0.624(2) 0.2205(7)
N8 N 1.0861(9) 0.6988(10) 0.3335(5)
F1 F 0.1941(3) 1.0979(3) 0.1733(3)
F2 F 0.2104(4) 0.8478(3) 0.1389(4)
F3 F 0.0988(3) 0.9777(4) 0.0857(3)
F4 F 0.2716(3) 0.9951(4) 0.0826(2)
F5 F 0.3076(3) 0.9736(4) 0.2272(3)
F6 F 0.1344(4) 0.9505(4) 0.2305(3)
P1 P 0.20422(19) 0.97372(16) 0.15636(16)
F13 F 0.7277(8) 0.6990(6) 0.0861(6)
F14 F 0.7162(6) 0.8961(5) 0.2133(4)
F15 F 0.5953(3) 0.7918(4) 0.1307(3)
F16 F 0.7258(4) 0.7181(4) 0.2293(3)
F17 F 0.8429(3) 0.8040(3) 0.1689(3)
F18 F 0.7165(5) 0.8796(4) 0.0723(3)
P3 P 0.7191(3) 0.7968(4) 0.1491(3)
C17? C 0.954(4) 0.568(3) 0.2904(18)
H23? H 0.9062 0.5096 0.2847
C18? C 1.054(3) 0.702(3) 0.2598(17)
H24? H 1.0876 0.7532 0.2280
C19? C 1.068(2) 0.690(3) 0.3477(13)
H25? H 1.1116 0.7314 0.3901
C20? C 0.9981(13) 0.5661(11) 0.4503(8)
H26? H 0.9716 0.6237 0.4839
H27? H 1.0677 0.5440 0.4797
H28? H 0.9504 0.5045 0.4462
N9? N 0.980(2) 0.625(4) 0.2256(14)
N10? N 1.005(3) 0.605(2) 0.3632(14)
F7? F 0.2028(14) 1.0673(11) 0.1169(13)
F8? F 0.2550(13) 0.9067(16) 0.0665(9)
F9? F 0.3390(11) 0.9720(17) 0.1907(12)
F10? F 0.1776(15) 0.9897(15) 0.2372(11)
F11? F 0.1065(11) 0.9118(16) 0.1156(12)
F12? F 0.2435(16) 0.8338(11) 0.1989(15)
P2? P 0.2231(9) 0.9480(9) 0.1533(8)
F19? F 0.707(3) 0.677(2) 0.087(2)
F20? F 0.722(2) 0.9001(18) 0.1845(16)
F21? F 0.6307(10) 0.7522(14) 0.1963(10)
F22? F 0.8073(14) 0.7421(14) 0.2098(10)
F23? F 0.7991(10) 0.8252(11) 0.0829(9)
F24? F 0.6258(13) 0.8331(13) 0.0670(10)
P4? P 0.7152(12) 0.7862(15) 0.1391(10)
loop_
_geom_bond_atom_site_label_1
_geom_bond_atom_site_label_2
_geom_bond_site_symmetry_1
_geom_bond_site_symmetry_2
C1 H1 1_555 1_555
C2 H2 1_555 1_555
C3 C2 1_555 1_555
H3 C3 1_555 1_555
C4 H4 1_555 1_555
H5 C4 1_555 1_555
H6 C4 1_555 1_555
C5 N2 1_555 1_555
C6 N3 1_555 1_555
C7 N4 1_555 1_555
C8 H7 1_555 1_555
H8 C8 1_555 1_555
C9 C8 1_555 1_555
H9 C9 1_555 1_555
H10 C9 1_555 1_555
C10 C9 1_555 1_555
H11 C10 1_555 1_555
H12 C10 1_555 1_555
C11 C10 1_555 1_555
H13 C11 1_555 1_555
H14 C11 1_555 1_555
C12 C11 1_555 1_555
H15 C12 1_555 1_555
H16 C12 1_555 1_555
N1 C1 1_555 1_555
N2 C1 1_555 1_555
N3 C5 1_555 1_555
N4 C6 1_555 1_555
N5 C5 1_555 1_555
N6 C6 1_555 1_555
C13 H17 1_555 1_555
C14 H18 1_555 1_555
C15 C14 1_555 1_555
H19 C15 1_555 1_555
C16 H20 1_555 1_555
H21 C16 1_555 1_555
H22 C16 1_555 1_555
N7 C7 1_555 1_555
N8 C13 1_555 1_555
F1 P1 1_555 1_555
F2 P1 1_555 1_555
F3 P1 1_555 1_555
F4 P1 1_555 1_555
F5 P1 1_555 1_555
F6 P1 1_555 1_555
F13 P3 1_555 1_555
F14 P3 1_555 1_555
F15 P3 1_555 1_555
F16 P3 1_555 1_555
F17 P3 1_555 1_555
F18 P3 1_555 1_555
C2 N1 1_555 1_555
C3 N2 1_555 1_555
C4 N1 1_555 1_555
C7 N5 1_555 1_555
C8 N6 1_555 1_555
C12 N6 1_555 1_555
C13 N7 1_555 1_555
C14 N7 1_555 1_555
C15 N8 1_555 1_555
C16 N8 1_555 1_555

#END
