
#######################################################################
#
#                 Cambridge Crystallographic Data Centre
#                                CCDC 
#
#######################################################################
#
# If this CIF has been generated from an entry in the Cambridge 
# Structural Database, then it will include bibliographic, chemical, 
# crystal, experimental, refinement or atomic coordinate data resulting 
# from the CCDC's data processing and validation procedures.
#
#######################################################################

data_RIGLUP
_chemical_formula_moiety         'C9 H7 I1 N2 O1'
_chemical_name_systematic        2-cyano-4-iodoacetanilide
_symmetry_cell_setting           triclinic
_symmetry_space_group_name_H-M   'P -1'
_symmetry_Int_Tables_number      2
_space_group_name_Hall           '-P 1'
loop_
_symmetry_equiv_pos_site_id
_symmetry_equiv_pos_as_xyz
1 x,y,z
2 -x,-y,-z
_cell_length_a                   4.6657(2)
_cell_length_b                   9.4172(4)
_cell_length_c                   11.6841(4)
_cell_angle_alpha                109.7520(17)
_cell_angle_beta                 98.598(2)
_cell_angle_gamma                90.926(2)
_cell_volume                     476.511
_exptl_crystal_colour            colorless
_exptl_crystal_description       plate
_chemical_melting_point          '449-451 K'
_cell_formula_units_Z            2
_exptl_crystal_recrystallization_method 'aqueous ethanol'
loop_
_atom_site_label
_atom_site_type_symbol
_atom_site_fract_x
_atom_site_fract_y
_atom_site_fract_z
C1 C 0.4745(6) 0.7510(3) 0.4281(3)
N1 N 0.5835(5) 0.7571(3) 0.5479(2)
C2 C 0.4614(6) 0.8221(3) 0.6515(3)
O1 O 0.2268(5) 0.8773(3) 0.6482(2)
C3 C 0.6356(7) 0.8183(4) 0.7689(3)
C4 C 0.5777(6) 0.6477(3) 0.3278(3)
C5 C 0.7918(6) 0.5453(3) 0.3466(3)
N2 N 0.9606(6) 0.4631(3) 0.3599(3)
C6 C 0.4760(6) 0.6388(3) 0.2069(3)
C7 C 0.2682(6) 0.7335(3) 0.1854(3)
I1 I 0.10582(5) 0.72195(2) 0.005121(18)
C8 C 0.1651(6) 0.8377(3) 0.2832(3)
C9 C 0.2676(6) 0.8468(3) 0.4032(3)
H1 H 0.7419 0.7136 0.5549
H2 H 0.5702 0.8937 0.8393
H3 H 0.8418 0.8414 0.7700
H4 H 0.6087 0.7175 0.7743
H5 H 0.5490 0.5684 0.1401
H6 H 0.0234 0.9032 0.2678
H7 H 0.1962 0.9192 0.4694
loop_
_geom_bond_atom_site_label_1
_geom_bond_atom_site_label_2
_geom_bond_site_symmetry_1
_geom_bond_site_symmetry_2
C1 N1 1_555 1_555
N1 C2 1_555 1_555
C2 O1 1_555 1_555
C3 C2 1_555 1_555
C4 C1 1_555 1_555
C5 C4 1_555 1_555
N2 C5 1_555 1_555
C6 C4 1_555 1_555
C7 C6 1_555 1_555
I1 C7 1_555 1_555
C8 C7 1_555 1_555
C9 C1 1_555 1_555
H1 N1 1_555 1_555
H2 C3 1_555 1_555
H3 C3 1_555 1_555
H4 C3 1_555 1_555
H5 C6 1_555 1_555
H6 C8 1_555 1_555
H7 C9 1_555 1_555
C8 C9 1_555 1_555

#END
