
#######################################################################
#
#                 Cambridge Crystallographic Data Centre
#                                CCDC 
#
#######################################################################
#
# If this CIF has been generated from an entry in the Cambridge 
# Structural Database, then it will include bibliographic, chemical, 
# crystal, experimental, refinement or atomic coordinate data resulting 
# from the CCDC's data processing and validation procedures.
#
#######################################################################

data_RIGLUR
_chemical_formula_moiety         'C38 H28 N2 O4'
_chemical_name_systematic        
18-(4-methoxyphenyl)-17,21-diphenyl-16-oxa-17,21-diazahexacyclo[6.6.5.3^15,19^.0^2,7^.0^9,14^.0^15,19^]docosa-2,4,6,9,11,13-hexaene-20,22-dione
_symmetry_cell_setting           triclinic
_symmetry_space_group_name_H-M   'P -1'
_symmetry_Int_Tables_number      2
_space_group_name_Hall           '-P 1'
loop_
_symmetry_equiv_pos_site_id
_symmetry_equiv_pos_as_xyz
1 x,y,z
2 -x,-y,-z
_cell_length_a                   8.6287(4)
_cell_length_b                   9.7315(4)
_cell_length_c                   18.9596(7)
_cell_angle_alpha                91.473(3)
_cell_angle_beta                 97.475(3)
_cell_angle_gamma                115.725(4)
_cell_volume                     1416.03
_exptl_crystal_colour            colorless
_exptl_crystal_description       prism
_cell_formula_units_Z            2
loop_
_atom_site_label
_atom_site_type_symbol
_atom_site_fract_x
_atom_site_fract_y
_atom_site_fract_z
O1 O 0.60386(12) 0.87490(10) 0.71542(5)
O2 O 0.81939(13) 0.52321(11) 1.05579(5)
O3 O 0.85069(12) 0.55284(10) 0.76747(5)
O4 O 0.45969(12) 0.61552(10) 0.59998(5)
C1 C 1.01632(16) 0.88503(14) 0.73418(7)
H1 H 1.0990 0.8753 0.7719
N1 N 0.58548(14) 0.80721(12) 0.78492(5)
C2 C 0.93724(17) 0.75445(15) 0.99348(7)
H2 H 1.0335 0.8034 1.0290
C3 C 0.82241(16) 0.78775(13) 0.74427(6)
C4 C 0.58202(16) 0.65006(14) 0.64687(7)
C5 C 0.70024(16) 0.81071(13) 0.68351(6)
C6 C 0.52944(18) 0.21815(15) 0.54594(7)
H3 H 0.5344 0.1987 0.4982
N2 N 0.64278(14) 0.54951(11) 0.67646(6)
C7 C 0.3540(2) 0.9001(2) 0.91566(8)
H4 H 0.2724 0.8483 0.9449
C8 C 0.77784(16) 0.75580(14) 0.87812(6)
C9 C 1.00170(18) 0.71313(15) 0.52154(7)
H5 H 0.9942 0.6753 0.4750
C10 C 1.12518(17) 0.75027(14) 0.64633(7)
H6 H 1.1993 0.7376 0.6830
C11 C 0.5459(2) 1.13557(18) 0.87403(8)
H7 H 0.5916 1.2416 0.8749
C12 C 0.81097(17) 0.60812(15) 1.00031(7)
C13 C 0.52931(17) 0.89673(15) 0.82793(7)
C14 C 0.51645(17) 0.27488(14) 0.68893(7)
H8 H 0.5132 0.2944 0.7369
C15 C 0.91813(17) 0.82712(15) 0.93274(7)
H9 H 1.0015 0.9259 0.9287
C16 C 0.40531(18) 0.81833(17) 0.87040(7)
H10 H 0.3569 0.7121 0.8687
C17 C 0.80703(16) 0.91964(14) 0.63086(7)
H11 H 0.7326 0.9352 0.5914
C18 C 1.04259(16) 1.04951(14) 0.73051(7)
C19 C 0.60038(18) 1.05586(16) 0.82933(7)
H12 H 0.6833 1.1080 0.8007
C20 C 0.64958(17) 0.61018(14) 0.88701(7)
H13 H 0.5530 0.5613 0.8516
C21 C 0.66446(17) 0.53816(14) 0.94760(7)
H14 H 0.5766 0.4427 0.9533
C22 C 0.58185(16) 0.39420(14) 0.64644(7)
C23 C 0.76874(16) 0.83593(14) 0.81192(6)
H15 H 0.8392 0.9464 0.8239
C24 C 1.16063(17) 1.17477(15) 0.77658(7)
H16 H 1.2347 1.1631 0.8136
C25 C 1.02651(16) 0.82587(14) 0.66059(7)
C26 C 0.59068(17) 0.36843(15) 0.57524(7)
H17 H 0.6366 0.4499 0.5475
C27 C 0.4235(2) 1.0579(2) 0.91739(8)
H18 H 0.3883 1.1120 0.9476
C28 C 0.9869(2) 0.57191(18) 1.09863(8)
H19 H 1.0723 0.5860 1.0682
H20 H 0.9829 0.4955 1.1303
H21 H 1.0177 0.6669 1.1261
C29 C 0.91454(16) 0.84451(14) 0.60529(7)
C30 C 0.46106(18) 0.09744(15) 0.58762(8)
H22 H 0.4186 -0.0028 0.5676
C31 C 1.16700(18) 1.31872(15) 0.76668(8)
H23 H 1.2478 1.4037 0.7966
C32 C 0.92962(16) 1.06754(14) 0.67560(7)
C33 C 0.93295(17) 1.20987(14) 0.66711(7)
H24 H 0.8553 1.2209 0.6315
C34 C 0.77858(16) 0.61806(14) 0.73406(6)
C35 C 1.05405(19) 1.33620(15) 0.71262(8)
H25 H 1.0591 1.4325 0.7067
C36 C 1.11144(18) 0.69358(15) 0.57620(8)
H26 H 1.1764 0.6424 0.5661
C37 C 0.90217(18) 0.78892(15) 0.53543(7)
H27 H 0.8288 0.8020 0.4986
C38 C 0.45583(18) 0.12566(15) 0.65899(8)
H28 H 0.4116 0.0444 0.6870
loop_
_geom_bond_atom_site_label_1
_geom_bond_atom_site_label_2
_geom_bond_site_symmetry_1
_geom_bond_site_symmetry_2
O1 N1 1_555 1_555
O2 C12 1_555 1_555
O3 C34 1_555 1_555
O4 C4 1_555 1_555
C1 H1 1_555 1_555
N1 C13 1_555 1_555
C2 H2 1_555 1_555
C3 C1 1_555 1_555
C4 C5 1_555 1_555
C5 O1 1_555 1_555
C6 H3 1_555 1_555
N2 C4 1_555 1_555
C7 H4 1_555 1_555
C8 C15 1_555 1_555
C9 H5 1_555 1_555
C10 H6 1_555 1_555
C11 H7 1_555 1_555
C12 C2 1_555 1_555
C13 C16 1_555 1_555
C14 H8 1_555 1_555
C15 C2 1_555 1_555
H9 C15 1_555 1_555
C16 C7 1_555 1_555
H10 C16 1_555 1_555
C17 C5 1_555 1_555
H11 C17 1_555 1_555
C18 C1 1_555 1_555
C19 C11 1_555 1_555
H12 C19 1_555 1_555
C20 C8 1_555 1_555
H13 C20 1_555 1_555
C21 C12 1_555 1_555
H14 C21 1_555 1_555
C22 N2 1_555 1_555
C23 N1 1_555 1_555
H15 C23 1_555 1_555
C24 C18 1_555 1_555
H16 C24 1_555 1_555
C25 C1 1_555 1_555
C26 C6 1_555 1_555
H17 C26 1_555 1_555
C27 C7 1_555 1_555
H18 C27 1_555 1_555
C28 O2 1_555 1_555
H19 C28 1_555 1_555
H20 C28 1_555 1_555
H21 C28 1_555 1_555
C29 C17 1_555 1_555
C30 C6 1_555 1_555
H22 C30 1_555 1_555
C31 C24 1_555 1_555
H23 C31 1_555 1_555
C32 C17 1_555 1_555
C33 C32 1_555 1_555
H24 C33 1_555 1_555
C34 C3 1_555 1_555
C35 C31 1_555 1_555
H25 C35 1_555 1_555
C36 C9 1_555 1_555
H26 C36 1_555 1_555
C37 C9 1_555 1_555
H27 C37 1_555 1_555
C38 C14 1_555 1_555
H28 C38 1_555 1_555
C3 C5 1_555 1_555
C3 C23 1_555 1_555
N2 C34 1_555 1_555
C8 C23 1_555 1_555
C10 C25 1_555 1_555
C10 C36 1_555 1_555
C11 C27 1_555 1_555
C13 C19 1_555 1_555
C14 C22 1_555 1_555
C18 C32 1_555 1_555
C20 C21 1_555 1_555
C22 C26 1_555 1_555
C25 C29 1_555 1_555
C29 C37 1_555 1_555
C30 C38 1_555 1_555
C33 C35 1_555 1_555

#END
