
#######################################################################
#
#                 Cambridge Crystallographic Data Centre
#                                CCDC 
#
#######################################################################
#
# If this CIF has been generated from an entry in the Cambridge 
# Structural Database, then it will include bibliographic, chemical, 
# crystal, experimental, refinement or atomic coordinate data resulting 
# from the CCDC's data processing and validation procedures.
#
#######################################################################

data_RIGMAW
_chemical_formula_moiety         'C13 H16 N2 O3 S1'
_chemical_name_systematic        
rac-2-isopropyl-3-(2-nitrobenzyl)-1,3-thiazolidin-4-one
_symmetry_cell_setting           orthorhombic
_symmetry_space_group_name_H-M   'P 21 21 21'
_symmetry_Int_Tables_number      19
_space_group_name_Hall           'P 2ac 2ab'
loop_
_symmetry_equiv_pos_site_id
_symmetry_equiv_pos_as_xyz
1 x,y,z
2 1/2-x,-y,1/2+z
3 1/2+x,1/2-y,-z
4 -x,1/2+y,1/2-z
_cell_length_a                   11.7604(4)
_cell_length_b                   14.9847(7)
_cell_length_c                   15.1844(8)
_cell_angle_alpha                90
_cell_angle_beta                 90
_cell_angle_gamma                90
_cell_volume                     2675.89
_exptl_crystal_colour            colorless
_exptl_crystal_description       plate
_cell_formula_units_Z            8
_exptl_crystal_recrystallization_method methanol/heptane
loop_
_atom_site_label
_atom_site_type_symbol
_atom_site_fract_x
_atom_site_fract_y
_atom_site_fract_z
S1 S 0.73562(5) 0.44125(5) -0.09125(5)
C1 C 0.80579(19) 0.35848(15) -0.01969(18)
C2 C 0.87413(19) 0.40015(16) 0.05529(19)
C3 C 0.9717(2) 0.45510(18) 0.0178(2)
C4 C 0.8010(2) 0.45535(17) 0.11769(19)
N1 N 0.71355(15) 0.30044(12) 0.00968(15)
C5 C 0.7381(2) 0.21616(15) 0.05331(18)
C6 C 0.75648(18) 0.13942(15) -0.01051(17)
C7 C 0.78679(19) 0.05272(17) 0.01411(18)
N2 N 0.79677(18) 0.02855(15) 0.10840(17)
O1 O 0.75775(18) 0.07915(13) 0.16375(13)
O2 O 0.84301(17) -0.04289(14) 0.12649(15)
C8 C 0.8058(2) -0.01527(16) -0.0452(2)
C9 C 0.7920(2) 0.00135(17) -0.1339(2)
C10 C 0.7603(2) 0.08504(17) -0.16129(19)
C11 C 0.74425(19) 0.15284(16) -0.10026(18)
C12 C 0.6039(2) 0.32574(16) -0.0040(2)
O3 O 0.52147(14) 0.28187(11) 0.01830(14)
C13 C 0.59608(19) 0.41524(16) -0.0485(2)
H1 H 0.8589 0.3223 -0.0567
H2 H 0.9082 0.3503 0.0903
H3 H 0.9410 0.5048 -0.0168
H4 H 1.0189 0.4173 -0.0202
H5 H 1.0181 0.4786 0.0661
H6 H 0.7712 0.5076 0.0864
H7 H 0.8471 0.4750 0.1678
H8 H 0.7375 0.4189 0.1390
H9 H 0.6742 0.2011 0.0931
H10 H 0.8072 0.2233 0.0899
H11 H 0.8281 -0.0728 -0.0252
H12 H 0.8044 -0.0448 -0.1757
H13 H 0.7494 0.0966 -0.2222
H14 H 0.7241 0.2106 -0.1208
H15 H 0.5719 0.4614 -0.0057
H16 H 0.5399 0.4131 -0.0969
S2 S 0.42204(6) 0.14265(5) 0.68231(5)
C14 C 0.48074(19) 0.22471(16) 0.60587(19)
C15 C 0.54193(19) 0.30361(17) 0.65024(18)
C16 C 0.6447(2) 0.26913(19) 0.7012(2)
C17 C 0.4641(2) 0.35826(18) 0.7091(2)
N3 N 0.38369(15) 0.25240(13) 0.55199(15)
C18 C 0.4022(2) 0.30116(16) 0.47045(18)
C19 C 0.42663(18) 0.24179(15) 0.39236(17)
C20 C 0.46195(19) 0.27236(15) 0.30996(19)
N4 N 0.48013(18) 0.36842(15) 0.29427(17)
O4 O 0.43117(17) 0.42270(12) 0.34197(14)
O5 O 0.54409(16) 0.38963(13) 0.23396(15)
C21 C 0.4835(2) 0.21712(18) 0.2387(2)
C22 C 0.4718(2) 0.12603(18) 0.2497(2)
C23 C 0.4387(2) 0.09256(17) 0.32991(19)
C24 C 0.41661(19) 0.14913(15) 0.39991(18)
C25 C 0.2773(2) 0.23295(16) 0.58051(19)
O6 O 0.19034(14) 0.25286(13) 0.54084(14)
C26 C 0.2788(2) 0.18309(18) 0.6664(2)
H17 H 0.5365 0.1936 0.5668
H18 H 0.5706 0.3438 0.6026
H19 H 0.6882 0.3198 0.7243
H20 H 0.6931 0.2338 0.6619
H21 H 0.6189 0.2317 0.7502
H22 H 0.4381 0.3213 0.7584
H23 H 0.3984 0.3788 0.6751
H24 H 0.5058 0.4100 0.7320
H25 H 0.4669 0.3426 0.4787
H26 H 0.3339 0.3375 0.4576
H27 H 0.5057 0.2413 0.1835
H28 H 0.4866 0.0867 0.2019
H29 H 0.4309 0.0299 0.3374
H30 H 0.3940 0.1242 0.4547
H31 H 0.2568 0.2232 0.7154
H32 H 0.2247 0.1325 0.6645
loop_
_geom_bond_atom_site_label_1
_geom_bond_atom_site_label_2
_geom_bond_site_symmetry_1
_geom_bond_site_symmetry_2
S1 C1 1_555 1_555
C1 C2 1_555 1_555
C2 C3 1_555 1_555
C3 H3 1_555 1_555
C4 C2 1_555 1_555
N1 C1 1_555 1_555
C5 N1 1_555 1_555
C6 C5 1_555 1_555
C7 C6 1_555 1_555
N2 C7 1_555 1_555
O1 N2 1_555 1_555
O2 N2 1_555 1_555
C8 C7 1_555 1_555
C9 C8 1_555 1_555
C10 C9 1_555 1_555
C11 C6 1_555 1_555
C12 N1 1_555 1_555
O3 C12 1_555 1_555
C13 S1 1_555 1_555
S2 C14 1_555 1_555
C14 C15 1_555 1_555
C15 C16 1_555 1_555
C16 H19 1_555 1_555
C17 C15 1_555 1_555
N3 C14 1_555 1_555
C18 N3 1_555 1_555
C19 C18 1_555 1_555
C20 C19 1_555 1_555
N4 C20 1_555 1_555
O4 N4 1_555 1_555
O5 N4 1_555 1_555
C21 C20 1_555 1_555
C22 C21 1_555 1_555
C23 C22 1_555 1_555
C24 C19 1_555 1_555
C25 N3 1_555 1_555
O6 C25 1_555 1_555
C26 S2 1_555 1_555
H1 C1 1_555 1_555
H2 C2 1_555 1_555
H4 C3 1_555 1_555
H5 C3 1_555 1_555
H6 C4 1_555 1_555
H7 C4 1_555 1_555
H8 C4 1_555 1_555
H9 C5 1_555 1_555
H10 C5 1_555 1_555
H11 C8 1_555 1_555
H12 C9 1_555 1_555
H13 C10 1_555 1_555
H14 C11 1_555 1_555
H15 C13 1_555 1_555
H16 C13 1_555 1_555
H17 C14 1_555 1_555
H18 C15 1_555 1_555
H20 C16 1_555 1_555
H21 C16 1_555 1_555
H22 C17 1_555 1_555
H23 C17 1_555 1_555
H24 C17 1_555 1_555
H25 C18 1_555 1_555
H26 C18 1_555 1_555
H27 C21 1_555 1_555
H28 C22 1_555 1_555
H29 C23 1_555 1_555
H30 C24 1_555 1_555
H31 C26 1_555 1_555
H32 C26 1_555 1_555
C10 C11 1_555 1_555
C12 C13 1_555 1_555
C23 C24 1_555 1_555
C25 C26 1_555 1_555

#END
