
#######################################################################
#
#                 Cambridge Crystallographic Data Centre
#                                CCDC 
#
#######################################################################
#
# If this CIF has been generated from an entry in the Cambridge 
# Structural Database, then it will include bibliographic, chemical, 
# crystal, experimental, refinement or atomic coordinate data resulting 
# from the CCDC's data processing and validation procedures.
#
#######################################################################

data_RIGSOP
_chemical_formula_moiety         'C22 H36 O2'
_chemical_name_systematic        3\a-Hydroxy-3\b-methyl-5\a-pregnan-20-one
_chemical_properties_biological  'orally active anticonvulsant agent'
_symmetry_cell_setting           monoclinic
_symmetry_space_group_name_H-M   'P 21'
_symmetry_Int_Tables_number      4
_space_group_name_Hall           'P 2yb'
loop_
_symmetry_equiv_pos_site_id
_symmetry_equiv_pos_as_xyz
1 x,y,z
2 -x,1/2+y,-z
_cell_length_a                   16.339(6)
_cell_length_b                   7.290(2)
_cell_length_c                   16.613(5)
_cell_angle_alpha                90
_cell_angle_beta                 100.59(3)
_cell_angle_gamma                90
_cell_volume                     1945.09
_exptl_crystal_colour            colorless
_chemical_melting_point          190-192deg.C
_cell_formula_units_Z            4
loop_
_atom_site_label
_atom_site_type_symbol
_atom_site_fract_x
_atom_site_fract_y
_atom_site_fract_z
O1 O -0.0582(3) 0.4600(8) 0.8516(3)
O2 O 0.4133(3) 0.4914(8) 0.4585(3)
C1 C -0.0988(4) 0.3955(10) 0.7728(4)
C2 C -0.0565(4) 0.2197(11) 0.7503(4)
C3 C 0.0317(4) 0.2569(10) 0.7344(4)
C4 C 0.0351(4) 0.4061(9) 0.6691(4)
C5 C -0.0062(4) 0.5807(10) 0.6983(4)
C6 C -0.0937(4) 0.5475(9) 0.7126(4)
C7 C 0.1266(4) 0.4544(10) 0.6640(4)
C8 C 0.1318(4) 0.6191(9) 0.6057(4)
C9 C 0.0886(3) 0.7890(10) 0.6348(4)
C10 C -0.0010(4) 0.7458(10) 0.6429(4)
C11 C 0.1768(4) 0.2903(10) 0.6457(4)
C12 C 0.2671(4) 0.3386(11) 0.6371(4)
C13 C 0.2688(3) 0.4887(11) 0.5756(4)
C14 C 0.2229(4) 0.6595(9) 0.6022(4)
C15 C 0.3557(4) 0.5825(10) 0.5743(4)
C16 C 0.3341(4) 0.7734(9) 0.5382(4)
C17 C 0.2449(4) 0.8160(11) 0.5499(4)
C18 C 0.4106(4) 0.4681(11) 0.5314(4)
C19 C 0.4611(4) 0.3208(11) 0.5779(4)
C20 C -0.0121(4) 0.3407(11) 0.5861(4)
C21 C 0.2311(4) 0.4241(10) 0.4884(4)
C22 C -0.1893(4) 0.3487(12) 0.7779(5)
H1 H -0.0585 0.3626 0.8797
H2 H -0.0537 0.1321 0.7938
H3 H -0.0884 0.1665 0.7016
H4 H 0.0646 0.3003 0.7847
H5 H 0.0568 0.1461 0.7193
H6 H 0.0264 0.6131 0.7504
H7 H -0.1286 0.5204 0.6609
H8 H -0.1148 0.6566 0.7339
H9 H 0.1523 0.4944 0.7178
H10 H 0.1036 0.5851 0.5519
H11 H 0.1194 0.8305 0.6864
H12 H 0.0884 0.8858 0.5955
H13 H -0.0334 0.7186 0.5900
H14 H -0.0251 0.8513 0.6642
H15 H 0.1770 0.1974 0.6867
H16 H 0.1492 0.2407 0.5943
H17 H 0.2971 0.3772 0.6895
H18 H 0.2942 0.2320 0.6204
H19 H 0.2496 0.6876 0.6573
H20 H 0.3836 0.5983 0.6300
H21 H 0.3716 0.8638 0.5663
H22 H 0.3380 0.7745 0.4813
H23 H 0.2076 0.8167 0.4980
H24 H 0.2414 0.9320 0.5764
H25 H 0.4927 0.2561 0.5436
H26 H 0.4242 0.2369 0.5980
H27 H 0.4983 0.3742 0.6233
H28 H 0.0139 0.2319 0.5700
H29 H -0.0110 0.4350 0.5460
H30 H -0.0687 0.3140 0.5901
H31 H 0.1781 0.3676 0.4885
H32 H 0.2679 0.3368 0.4704
H33 H 0.2241 0.5274 0.4519
H34 H -0.2156 0.4593 0.7916
H35 H -0.1904 0.2586 0.8198
H36 H -0.2186 0.3026 0.7265
O3 O 0.5524(3) 0.7192(7) 0.6530(3)
O4 O 0.0778(3) 0.6363(8) 1.0502(3)
C23 C 0.5998(4) 0.7724(11) 0.7305(4)
C24 C 0.5982(4) 0.6049(11) 0.7879(4)
C25 C 0.5115(4) 0.5632(9) 0.8079(4)
C26 C 0.4714(4) 0.7299(9) 0.8422(3)
C27 C 0.4715(4) 0.8889(9) 0.7805(4)
C28 C 0.5580(4) 0.9329(10) 0.7627(4)
C29 C 0.3794(4) 0.6893(9) 0.8491(3)
C30 C 0.3335(4) 0.8603(9) 0.8722(4)
C31 C 0.3378(4) 1.0154(9) 0.8125(4)
C32 C 0.4267(4) 1.0574(10) 0.8065(4)
C33 C 0.3705(4) 0.5274(10) 0.9054(4)
C34 C 0.2794(4) 0.4853(10) 0.9140(4)
C35 C 0.2364(4) 0.6564(9) 0.9390(3)
C36 C 0.2439(4) 0.8068(9) 0.8768(3)
C37 C 0.1394(4) 0.6505(10) 0.9315(4)
C38 C 0.1112(4) 0.8489(11) 0.9176(5)
C39 C 0.1835(4) 0.9577(12) 0.8948(5)
C40 C 0.1093(4) 0.5524(11) 1.0008(4)
C41 C 0.1168(5) 0.3494(11) 1.0078(4)
C42 C 0.5238(4) 0.7796(12) 0.9266(3)
C43 C 0.2759(4) 0.7143(11) 1.0278(3)
C44 C 0.6887(4) 0.8165(13) 0.7220(4)
H37 H 0.5407 0.6094 0.6379
H38 H 0.6183 0.4981 0.7638
H39 H 0.6354 0.6294 0.8386
H40 H 0.4760 0.5258 0.7580
H41 H 0.5149 0.4630 0.8459
H42 H 0.4389 0.8482 0.7296
H43 H 0.5924 0.9752 0.8123
H44 H 0.5542 1.0297 0.7230
H45 H 0.3512 0.6531 0.7956
H46 H 0.3596 0.9001 0.9259
H47 H 0.3080 0.9787 0.7597
H48 H 0.3110 1.1226 0.8292
H49 H 0.4560 1.1004 0.8585
H50 H 0.4272 1.1530 0.7669
H51 H 0.3949 0.4204 0.8859
H52 H 0.4016 0.5559 0.9588
H53 H 0.2494 0.4416 0.8624
H54 H 0.2786 0.3912 0.9542
H55 H 0.2210 0.7567 0.8240
H56 H 0.1184 0.5849 0.8819
H57 H 0.0631 0.8567 0.8749
H58 H 0.0970 0.8975 0.9670
H59 H 0.2099 1.0336 0.9393
H60 H 0.1646 1.0334 0.8478
H61 H 0.0953 0.3089 1.0548
H62 H 0.1741 0.3141 1.0134
H63 H 0.0853 0.2942 0.9593
H64 H 0.5226 0.6775 0.9629
H65 H 0.5009 0.8859 0.9485
H66 H 0.5802 0.8041 0.9212
H67 H 0.3354 0.7209 1.0333
H68 H 0.2618 0.6246 1.0653
H69 H 0.2547 0.8319 1.0399
H70 H 0.6871 0.9192 0.6856
H71 H 0.7135 0.7133 0.6998
H72 H 0.7212 0.8477 0.7744
loop_
_geom_bond_atom_site_label_1
_geom_bond_atom_site_label_2
_geom_bond_site_symmetry_1
_geom_bond_site_symmetry_2
O1 C1 1_555 1_555
O2 C18 1_555 1_555
C1 C2 1_555 1_555
C2 C3 1_555 1_555
C3 C4 1_555 1_555
C4 C5 1_555 1_555
C5 C6 1_555 1_555
C6 C1 1_555 1_555
C7 C4 1_555 1_555
C8 C7 1_555 1_555
C9 C8 1_555 1_555
C10 C5 1_555 1_555
C11 C7 1_555 1_555
C12 C11 1_555 1_555
C13 C12 1_555 1_555
C14 C8 1_555 1_555
C15 C13 1_555 1_555
C16 C15 1_555 1_555
C17 C14 1_555 1_555
C18 C15 1_555 1_555
C19 C18 1_555 1_555
C20 C4 1_555 1_555
C21 C13 1_555 1_555
C22 C1 1_555 1_555
O3 C23 1_555 1_555
O4 C40 1_555 1_555
C23 C24 1_555 1_555
C24 C25 1_555 1_555
C25 C26 1_555 1_555
C26 C27 1_555 1_555
C27 C28 1_555 1_555
C28 C23 1_555 1_555
C29 C26 1_555 1_555
C30 C29 1_555 1_555
C31 C30 1_555 1_555
C32 C27 1_555 1_555
C33 C29 1_555 1_555
C34 C33 1_555 1_555
C35 C34 1_555 1_555
C36 C30 1_555 1_555
C37 C35 1_555 1_555
C38 C37 1_555 1_555
C39 C36 1_555 1_555
C40 C37 1_555 1_555
C41 C40 1_555 1_555
C42 C26 1_555 1_555
C43 C35 1_555 1_555
C44 C23 1_555 1_555
H1 O1 1_555 1_555
H2 C2 1_555 1_555
H3 C2 1_555 1_555
H4 C3 1_555 1_555
H5 C3 1_555 1_555
H6 C5 1_555 1_555
H7 C6 1_555 1_555
H8 C6 1_555 1_555
H9 C7 1_555 1_555
H10 C8 1_555 1_555
H11 C9 1_555 1_555
H12 C9 1_555 1_555
H13 C10 1_555 1_555
H14 C10 1_555 1_555
H15 C11 1_555 1_555
H16 C11 1_555 1_555
H17 C12 1_555 1_555
H18 C12 1_555 1_555
H19 C14 1_555 1_555
H20 C15 1_555 1_555
H21 C16 1_555 1_555
H22 C16 1_555 1_555
H23 C17 1_555 1_555
H24 C17 1_555 1_555
H25 C19 1_555 1_555
H26 C19 1_555 1_555
H27 C19 1_555 1_555
H28 C20 1_555 1_555
H29 C20 1_555 1_555
H30 C20 1_555 1_555
H31 C21 1_555 1_555
H32 C21 1_555 1_555
H33 C21 1_555 1_555
H34 C22 1_555 1_555
H35 C22 1_555 1_555
H36 C22 1_555 1_555
H37 O3 1_555 1_555
H38 C24 1_555 1_555
H39 C24 1_555 1_555
H40 C25 1_555 1_555
H41 C25 1_555 1_555
H42 C27 1_555 1_555
H43 C28 1_555 1_555
H44 C28 1_555 1_555
H45 C29 1_555 1_555
H46 C30 1_555 1_555
H47 C31 1_555 1_555
H48 C31 1_555 1_555
H49 C32 1_555 1_555
H50 C32 1_555 1_555
H51 C33 1_555 1_555
H52 C33 1_555 1_555
H53 C34 1_555 1_555
H54 C34 1_555 1_555
H55 C36 1_555 1_555
H56 C37 1_555 1_555
H57 C38 1_555 1_555
H58 C38 1_555 1_555
H59 C39 1_555 1_555
H60 C39 1_555 1_555
H61 C41 1_555 1_555
H62 C41 1_555 1_555
H63 C41 1_555 1_555
H64 C42 1_555 1_555
H65 C42 1_555 1_555
H66 C42 1_555 1_555
H67 C43 1_555 1_555
H68 C43 1_555 1_555
H69 C43 1_555 1_555
H70 C44 1_555 1_555
H71 C44 1_555 1_555
H72 C44 1_555 1_555
C9 C10 1_555 1_555
C13 C14 1_555 1_555
C16 C17 1_555 1_555
C31 C32 1_555 1_555
C35 C36 1_555 1_555
C38 C39 1_555 1_555

#END
