
#######################################################################
#
#                 Cambridge Crystallographic Data Centre
#                                CCDC 
#
#######################################################################
#
# If this CIF has been generated from an entry in the Cambridge 
# Structural Database, then it will include bibliographic, chemical, 
# crystal, experimental, refinement or atomic coordinate data resulting 
# from the CCDC's data processing and validation procedures.
#
#######################################################################

data_RIGTAE
_chemical_formula_moiety         'C13 H17 N1 O2'
_chemical_name_systematic        
4-Hydroxy-3,3,4-trimethyl-1-phenylpyrrolidin-2-one
_symmetry_cell_setting           monoclinic
_symmetry_space_group_name_H-M   'C 2/c'
_symmetry_Int_Tables_number      15
_space_group_name_Hall           '-C 2yn'
loop_
_symmetry_equiv_pos_site_id
_symmetry_equiv_pos_as_xyz
1 x,y,z
2 -x,y,1/2-z
3 1/2+x,1/2+y,z
4 1/2-x,1/2+y,1/2-z
5 -x,-y,-z
6 x,-y,1/2+z
7 1/2-x,1/2-y,-z
8 1/2+x,1/2-y,1/2+z
_cell_length_a                   22.590(5)
_cell_length_b                   6.6126(16)
_cell_length_c                   19.413(5)
_cell_angle_alpha                90
_cell_angle_beta                 122.398(3)
_cell_angle_gamma                90
_cell_volume                     2448.51
_exptl_crystal_colour            white
_exptl_crystal_description       block
_cell_formula_units_Z            8
loop_
_atom_site_label
_atom_site_type_symbol
_atom_site_fract_x
_atom_site_fract_y
_atom_site_fract_z
C1 C -0.09987(11) 0.4391(3) 0.25260(12)
H1 H -0.0626 0.3573 0.2625
C2 C -0.16752(11) 0.3871(3) 0.19322(12)
H2 H -0.1754 0.2690 0.1635
C3 C -0.22341(11) 0.5044(4) 0.17688(13)
H3 H -0.2688 0.4671 0.1367
C4 C -0.21107(11) 0.6781(4) 0.22095(13)
H4 H -0.2486 0.7601 0.2101
C5 C -0.14385(10) 0.7336(3) 0.28123(12)
H5 H -0.1365 0.8515 0.3109
C6 C -0.08762(9) 0.6144(3) 0.29755(10)
C7 C -0.00264(10) 0.8866(2) 0.38736(11)
H6 H -0.0205 0.9200 0.4216
H7 H -0.0223 0.9797 0.3417
C8 C 0.07757(9) 0.8925(2) 0.43611(10)
C9 C 0.09663(9) 0.6779(2) 0.47301(10)
C10 C 0.03693(9) 0.5535(2) 0.40618(10)
C11 C 0.10376(12) 0.9342(3) 0.37984(13)
H8 H 0.0860 1.0623 0.3533
H9 H 0.0877 0.8294 0.3395
H10 H 0.1541 0.9374 0.4112
C12 C 0.16820(10) 0.5981(3) 0.49518(13)
H11 H 0.1757 0.4664 0.5193
H12 H 0.2042 0.6885 0.5333
H13 H 0.1697 0.5893 0.4468
C13 C 0.09032(11) 0.6623(3) 0.54819(11)
H14 H 0.0959 0.5238 0.5655
H15 H 0.0451 0.7101 0.5341
H16 H 0.1261 0.7431 0.5917
N1 N -0.01876(7) 0.6758(2) 0.35912(8)
O1 O 0.03759(7) 0.36930(18) 0.39833(8)
O2 O 0.10402(7) 1.03942(18) 0.49953(8)
H17 H 0.0915 1.1525 0.4795
loop_
_geom_bond_atom_site_label_1
_geom_bond_atom_site_label_2
_geom_bond_site_symmetry_1
_geom_bond_site_symmetry_2
C1 H1 1_555 1_555
C2 C1 1_555 1_555
H2 C2 1_555 1_555
C3 C2 1_555 1_555
H3 C3 1_555 1_555
C4 C3 1_555 1_555
H4 C4 1_555 1_555
C5 C4 1_555 1_555
H5 C5 1_555 1_555
C6 C1 1_555 1_555
C7 H6 1_555 1_555
H7 C7 1_555 1_555
C8 C7 1_555 1_555
C9 C8 1_555 1_555
C10 C9 1_555 1_555
C11 C8 1_555 1_555
H8 C11 1_555 1_555
H9 C11 1_555 1_555
H10 C11 1_555 1_555
C12 C9 1_555 1_555
H11 C12 1_555 1_555
H12 C12 1_555 1_555
H13 C12 1_555 1_555
C13 C9 1_555 1_555
H14 C13 1_555 1_555
H15 C13 1_555 1_555
H16 C13 1_555 1_555
N1 C6 1_555 1_555
O1 C10 1_555 1_555
O2 C8 1_555 1_555
H17 O2 1_555 1_555
C5 C6 1_555 1_555
C7 N1 1_555 1_555
C10 N1 1_555 1_555

#END
