
#######################################################################
#
#                 Cambridge Crystallographic Data Centre
#                                CCDC 
#
#######################################################################
#
# If this CIF has been generated from an entry in the Cambridge 
# Structural Database, then it will include bibliographic, chemical, 
# crystal, experimental, refinement or atomic coordinate data resulting 
# from the CCDC's data processing and validation procedures.
#
#######################################################################

data_RIGWEL
_chemical_formula_moiety         'C46 H48 N2 O4 S2'
_chemical_name_systematic        
(S,S)-3,6-bis(5-(1-benzofuran-2-yl)-2-thienyl)-2,5-bis(2-ethylhexyl)-2,5-dihydropyrrolo[3,4-c]pyrrole-1,4-dione
_symmetry_cell_setting           monoclinic
_symmetry_space_group_name_H-M   'P 21'
_symmetry_Int_Tables_number      4
_space_group_name_Hall           'P 2yb'
loop_
_symmetry_equiv_pos_site_id
_symmetry_equiv_pos_as_xyz
1 x,y,z
2 -x,1/2+y,-z
_cell_length_a                   10.3788(5)
_cell_length_b                   28.3034(14)
_cell_length_c                   13.5165(7)
_cell_angle_alpha                90
_cell_angle_beta                 103.577(2)
_cell_angle_gamma                90
_cell_volume                     3859.59
_exptl_crystal_colour            'dark red'
_exptl_crystal_description       needle
_cell_formula_units_Z            4
loop_
_atom_site_label
_atom_site_type_symbol
_atom_site_fract_x
_atom_site_fract_y
_atom_site_fract_z
C1 C 0.9773(3) 0.68447(11) 0.9198(3)
C2 C 0.9448(3) 0.63687(11) 0.9450(2)
C3 C 0.9913(3) 0.59996(11) 1.0118(2)
C4 C 0.7889(3) 0.57658(11) 0.9070(3)
C5 C 0.8235(3) 0.62392(11) 0.8800(3)
C6 C 0.7760(3) 0.66109(12) 0.8138(3)
C7 C 0.6583(3) 0.66085(12) 0.7328(3)
C8 C 0.5767(3) 0.62221(12) 0.7072(3)
H1 H 0.5906 0.5931 0.7430
C9 C 0.4713(3) 0.63020(13) 0.6231(3)
H2 H 0.4066 0.6070 0.5959
C10 C 0.4707(3) 0.67491(14) 0.5838(3)
C11 C 0.3787(4) 0.69403(16) 0.4975(3)
C12 C 0.2245(3) 0.70590(12) 0.3547(3)
C13 C 0.1296(3) 0.70328(15) 0.2625(3)
H3 H 0.0904 0.6742 0.2361
C14 C 0.0955(4) 0.7467(2) 0.2110(3)
H4 H 0.0320 0.7471 0.1477
C15 C 0.1537(5) 0.78828(18) 0.2520(4)
H5 H 0.1287 0.8169 0.2157
C16 C 0.2439(5) 0.79009(15) 0.3408(4)
H6 H 0.2817 0.8192 0.3681
C17 C 0.2787(3) 0.74944(13) 0.3894(3)
C18 C 1.1125(3) 0.59869(11) 1.0889(2)
C19 C 1.2173(3) 0.62935(12) 1.0949(3)
H7 H 1.2164 0.6542 1.0475
C20 C 1.3254(3) 0.62065(12) 1.1774(2)
H8 H 1.4054 0.6383 1.1903
C21 C 1.3029(3) 0.58376(12) 1.2374(3)
C22 C 1.3881(3) 0.56480(13) 1.3283(3)
C23 C 1.5792(3) 0.56129(13) 1.4421(2)
C24 C 1.7080(3) 0.56924(14) 1.4922(3)
H9 H 1.7627 0.5912 1.4680
C25 C 1.7540(4) 0.54316(13) 1.5810(3)
H10 H 1.8428 0.5471 1.6189
C26 C 1.6713(4) 0.51140(13) 1.6148(3)
H11 H 1.7046 0.4946 1.6764
C27 C 1.5433(4) 0.50363(12) 1.5620(3)
H12 H 1.4887 0.4815 1.5858
C28 C 1.4949(3) 0.52911(12) 1.4717(3)
C29 C 1.3717(3) 0.53214(13) 1.3968(3)
H13 H 1.2935 0.5145 1.3958
C30 C 0.8717(3) 0.74312(11) 0.7879(3)
H14 H 0.8395 0.7378 0.7138
H15 H 0.9653 0.7534 0.8002
C31 C 0.7911(3) 0.78324(11) 0.8190(2)
H16 H 0.6957 0.7738 0.8036
C32 C 0.8061(3) 0.82670(12) 0.7539(3)
H17 H 0.7775 0.8551 0.7857
H18 H 0.9011 0.8307 0.7547
C33 C 0.7274(4) 0.82400(13) 0.6434(3)
H19 H 0.7578 0.7962 0.6107
H20 H 0.6326 0.8192 0.6423
C34 C 0.7410(4) 0.86799(14) 0.5818(3)
H21 H 0.8355 0.8725 0.5813
H22 H 0.7121 0.8959 0.6150
C35 C 0.6593(5) 0.86492(17) 0.4721(3)
H23 H 0.5656 0.8605 0.4721
H24 H 0.6901 0.8381 0.4379
H25 H 0.6697 0.8942 0.4361
C36 C 0.8376(3) 0.79398(12) 0.9341(3)
H26 H 0.8418 0.7640 0.9725
H27 H 0.9283 0.8073 0.9480
C37 C 0.7474(4) 0.82844(12) 0.9724(3)
H28 H 0.6570 0.8158 0.9578
H29 H 0.7475 0.8589 0.9381
H30 H 0.7797 0.8327 1.0460
C38 C 0.8981(3) 0.51777(11) 1.0379(3)
H31 H 0.8058 0.5060 1.0235
H32 H 0.9278 0.5222 1.1124
C39 C 0.9850(3) 0.47955(11) 1.0059(3)
H33 H 1.0799 0.4894 1.0292
C40 C 0.9526(3) 0.47398(12) 0.8901(3)
H34 H 0.8557 0.4694 0.8657
H35 H 0.9757 0.5038 0.8600
C41 C 1.0230(3) 0.43326(12) 0.8506(3)
H36 H 1.1192 0.4354 0.8817
H37 H 0.9906 0.4030 0.8724
C42 C 1.0021(4) 0.43294(13) 0.7357(3)
H38 H 1.0351 0.4630 0.7137
H39 H 0.9060 0.4309 0.7043
C43 C 1.0727(4) 0.39182(13) 0.6976(3)
H40 H 1.0363 0.3619 0.7153
H41 H 1.1677 0.3932 0.7294
H42 H 1.0593 0.3940 0.6235
C44 C 0.9654(4) 0.43372(12) 1.0610(3)
H43 H 0.8717 0.4238 1.0374
H44 H 1.0208 0.4088 1.0406
C45 C 0.9984(5) 0.43639(15) 1.1754(3)
H45 H 0.9378 0.4585 1.1972
H46 H 1.0898 0.4474 1.2000
H47 H 0.9891 0.4050 1.2035
C46 C 0.2904(3) 0.67193(12) 0.4257(2)
N1 N 0.8674(3) 0.69773(9) 0.8407(2)
N2 N 0.8979(2) 0.56395(10) 0.9889(2)
O1 O 1.0729(2) 0.70999(8) 0.95187(17)
O2 O 0.6946(2) 0.55045(7) 0.87618(18)
O3 O 1.5149(2) 0.58391(8) 1.35340(17)
O4 O 0.3755(3) 0.74096(11) 0.4810(2)
S1 S 0.60286(9) 0.70750(3) 0.65116(7)
S2 S 1.14850(8) 0.55917(3) 1.19078(6)
C48 C 0.4791(3) 0.69659(11) 0.8866(2)
C49 C 0.4403(3) 0.65034(11) 0.9146(2)
C50 C 0.4842(3) 0.61306(12) 0.9802(3)
C51 C 0.2789(3) 0.59227(12) 0.8771(3)
C52 C 0.3166(3) 0.63916(11) 0.8507(3)
C53 C 0.2730(3) 0.67648(11) 0.7844(2)
C54 C 0.1503(3) 0.67933(12) 0.7094(2)
C55 C 0.0439(3) 0.64940(11) 0.7024(2)
H48 H 0.0428 0.6243 0.7489
C56 C -0.0618(3) 0.65934(12) 0.6206(3)
H49 H -0.1428 0.6422 0.6071
C57 C -0.0386(3) 0.69614(12) 0.5613(2)
C58 C -0.1235(3) 0.71530(13) 0.4707(2)
C59 C -0.3145(3) 0.71916(12) 0.3573(2)
C60 C -0.4442(3) 0.71192(14) 0.3063(3)
H50 H -0.4996 0.6900 0.3299
C61 C -0.4896(4) 0.73822(13) 0.2189(3)
H51 H -0.5790 0.7349 0.1818
C62 C -0.4062(4) 0.76967(13) 0.1841(3)
H52 H -0.4394 0.7867 0.1228
C63 C -0.2768(4) 0.77650(14) 0.2366(3)
H53 H -0.2211 0.7980 0.2122
C64 C -0.2290(3) 0.75101(12) 0.3270(3)
C65 C -0.1064(3) 0.74753(13) 0.4014(3)
H54 H -0.0276 0.7647 0.4020
C66 C 0.5994(3) 0.61339(12) 1.0626(3)
C67 C 0.6819(3) 0.65211(12) 1.0898(3)
H55 H 0.6686 0.6812 1.0539
C68 C 0.7856(3) 0.64460(13) 1.1740(3)
H56 H 0.8492 0.6681 1.2016
C69 C 0.7873(3) 0.59998(13) 1.2134(3)
C70 C 0.8816(4) 0.58153(16) 1.3006(3)
C71 C 0.9936(3) 0.52791(13) 1.4053(3)
C72 C 1.0419(4) 0.48670(16) 1.4509(5)
H57 H 1.0098 0.4570 1.4226
C73 C 1.1369(5) 0.4896(2) 1.5378(4)
H58 H 1.1741 0.4613 1.5702
C74 C 1.1824(4) 0.5332(2) 1.5817(3)
H59 H 1.2455 0.5342 1.6452
C75 C 1.1346(4) 0.57543(17) 1.5316(3)
H60 H 1.1672 0.6053 1.5584
C76 C 1.0386(3) 0.57191(12) 1.4419(2)
C77 C 0.3672(3) 0.75895(11) 0.7675(3)
H61 H 0.3314 0.7583 0.6929
H62 H 0.4587 0.7715 0.7805
C78 C 0.2826(3) 0.79277(11) 0.8148(3)
H63 H 0.1879 0.7825 0.7940
C79 C 0.2942(4) 0.84263(13) 0.7728(3)
H64 H 0.2482 0.8650 0.8092
H65 H 0.3891 0.8516 0.7887
C80 C 0.2389(6) 0.84867(15) 0.6607(3)
H66 H 0.1438 0.8401 0.6443
H67 H 0.2847 0.8265 0.6238
C81 C 0.2532(7) 0.89857(17) 0.6226(4)
H68 H 0.1787 0.9173 0.6361
H69 H 0.3355 0.9119 0.6659
C82 C 0.2568(14) 0.9060(3) 0.5324(8)
H70 H 0.1942 0.8849 0.4876
H71 H 0.3466 0.9001 0.5239
H72 H 0.2324 0.9389 0.5148
C83 C 0.3268(3) 0.79147(13) 0.9310(3)
H73 H 0.3267 0.7582 0.9535
H74 H 0.4192 0.8031 0.9515
C84 C 0.2427(4) 0.82010(14) 0.9858(3)
H75 H 0.1499 0.8102 0.9632
H76 H 0.2503 0.8537 0.9705
H77 H 0.2731 0.8150 1.0593
C85 C 0.3783(3) 0.53396(11) 1.0120(3)
H78 H 0.2833 0.5271 1.0062
H79 H 0.4199 0.5391 1.0849
C86 C 0.4426(3) 0.49048(12) 0.9755(3)
H80 H 0.5408 0.4952 0.9916
C87 C 0.3934(4) 0.48374(13) 0.8612(3)
H81 H 0.4213 0.5116 0.8271
H82 H 0.2953 0.4838 0.8450
C88 C 0.4386(4) 0.43919(13) 0.8136(3)
H83 H 0.4009 0.4111 0.8400
H84 H 0.4026 0.4402 0.7390
C89 C 0.5846(4) 0.43401(13) 0.8347(3)
H85 H 0.6191 0.4262 0.9076
H86 H 0.6242 0.4645 0.8213
C90 C 0.6275(4) 0.39494(13) 0.7687(3)
H87 H 0.6005 0.4039 0.6968
H88 H 0.5850 0.3650 0.7792
H89 H 0.7240 0.3912 0.7884
C91 C 0.4113(4) 0.44756(12) 1.0368(3)
H90 H 0.3140 0.4429 1.0202
H91 H 0.4511 0.4191 1.0136
C92 C 0.4586(5) 0.45091(15) 1.1498(3)
H92 H 0.4104 0.4761 1.1753
H93 H 0.5537 0.4580 1.1675
H94 H 0.4428 0.4208 1.1807
C93 C 0.9652(3) 0.60517(12) 1.3715(3)
N3 N 0.3722(2) 0.71077(10) 0.80590(19)
N4 N 0.3887(3) 0.57749(9) 0.9567(2)
O6 O 0.5757(2) 0.72193(8) 0.91868(17)
O7 O 0.1800(2) 0.56808(8) 0.84758(17)
O8 O -0.2498(2) 0.69677(8) 0.44657(17)
O9 O 0.8951(3) 0.53455(11) 1.3151(2)
S3 S 0.11676(8) 0.71983(3) 0.60897(6)
S4 S 0.65668(8) 0.56661(3) 1.14631(7)
C47? C 0.3755(3) 0.74096(11) 0.4810(2)
O5? O 0.2904(3) 0.67193(12) 0.4257(2)
C94? C 0.8951(3) 0.53455(11) 1.3151(2)
O10? O 0.9652(3) 0.60517(12) 1.3715(3)
loop_
_geom_bond_atom_site_label_1
_geom_bond_atom_site_label_2
_geom_bond_site_symmetry_1
_geom_bond_site_symmetry_2
C1 C2 1_555 1_555
C2 C3 1_555 1_555
C3 C18 1_555 1_555
C4 C5 1_555 1_555
C5 C2 1_555 1_555
C6 C5 1_555 1_555
C7 C6 1_555 1_555
C8 C7 1_555 1_555
H1 C8 1_555 1_555
C9 C8 1_555 1_555
H2 C9 1_555 1_555
C10 C9 1_555 1_555
C11 C10 1_555 1_555
C12 C13 1_555 1_555
C13 H3 1_555 1_555
C14 C13 1_555 1_555
H4 C14 1_555 1_555
C15 C14 1_555 1_555
H5 C15 1_555 1_555
C16 C15 1_555 1_555
H6 C16 1_555 1_555
C17 C12 1_555 1_555
C18 C19 1_555 1_555
C19 H7 1_555 1_555
C20 C19 1_555 1_555
H8 C20 1_555 1_555
C21 C20 1_555 1_555
C22 C21 1_555 1_555
C23 C24 1_555 1_555
C24 H9 1_555 1_555
C25 C24 1_555 1_555
H10 C25 1_555 1_555
C26 C25 1_555 1_555
H11 C26 1_555 1_555
C27 C26 1_555 1_555
H12 C27 1_555 1_555
C28 C23 1_555 1_555
C29 C22 1_555 1_555
H13 C29 1_555 1_555
C30 H14 1_555 1_555
H15 C30 1_555 1_555
C31 C30 1_555 1_555
H16 C31 1_555 1_555
C32 C31 1_555 1_555
H17 C32 1_555 1_555
H18 C32 1_555 1_555
C33 C32 1_555 1_555
H19 C33 1_555 1_555
H20 C33 1_555 1_555
C34 C33 1_555 1_555
H21 C34 1_555 1_555
H22 C34 1_555 1_555
C35 C34 1_555 1_555
H23 C35 1_555 1_555
H24 C35 1_555 1_555
H25 C35 1_555 1_555
C36 C31 1_555 1_555
H26 C36 1_555 1_555
H27 C36 1_555 1_555
C37 C36 1_555 1_555
H28 C37 1_555 1_555
H29 C37 1_555 1_555
H30 C37 1_555 1_555
C38 H31 1_555 1_555
H32 C38 1_555 1_555
C39 C38 1_555 1_555
H33 C39 1_555 1_555
C40 C39 1_555 1_555
H34 C40 1_555 1_555
H35 C40 1_555 1_555
C41 C40 1_555 1_555
H36 C41 1_555 1_555
H37 C41 1_555 1_555
C42 C41 1_555 1_555
H38 C42 1_555 1_555
H39 C42 1_555 1_555
C43 C42 1_555 1_555
H40 C43 1_555 1_555
H41 C43 1_555 1_555
H42 C43 1_555 1_555
C44 C39 1_555 1_555
H43 C44 1_555 1_555
H44 C44 1_555 1_555
C45 C44 1_555 1_555
H45 C45 1_555 1_555
H46 C45 1_555 1_555
H47 C45 1_555 1_555
C46 C11 1_555 1_555
N1 C1 1_555 1_555
N2 C3 1_555 1_555
O1 C1 1_555 1_555
O2 C4 1_555 1_555
O3 C22 1_555 1_555
O4 C11 1_555 1_555
S1 C7 1_555 1_555
S2 C18 1_555 1_555
C48 C49 1_555 1_555
C49 C50 1_555 1_555
C50 C66 1_555 1_555
C51 C52 1_555 1_555
C52 C49 1_555 1_555
C53 C52 1_555 1_555
C54 C53 1_555 1_555
C55 C54 1_555 1_555
H48 C55 1_555 1_555
C56 C55 1_555 1_555
H49 C56 1_555 1_555
C57 C56 1_555 1_555
C58 C57 1_555 1_555
C59 C60 1_555 1_555
C60 H50 1_555 1_555
C61 C60 1_555 1_555
H51 C61 1_555 1_555
C62 C61 1_555 1_555
H52 C62 1_555 1_555
C63 C62 1_555 1_555
H53 C63 1_555 1_555
C64 C59 1_555 1_555
C65 C58 1_555 1_555
H54 C65 1_555 1_555
C66 C67 1_555 1_555
C67 H55 1_555 1_555
C68 C67 1_555 1_555
H56 C68 1_555 1_555
C69 C68 1_555 1_555
C70 C69 1_555 1_555
C71 C72 1_555 1_555
C72 H57 1_555 1_555
C73 C72 1_555 1_555
H58 C73 1_555 1_555
C74 C73 1_555 1_555
H59 C74 1_555 1_555
C75 C74 1_555 1_555
H60 C75 1_555 1_555
C76 C71 1_555 1_555
C77 H61 1_555 1_555
H62 C77 1_555 1_555
C78 C77 1_555 1_555
H63 C78 1_555 1_555
C79 C78 1_555 1_555
H64 C79 1_555 1_555
H65 C79 1_555 1_555
C80 C79 1_555 1_555
H66 C80 1_555 1_555
H67 C80 1_555 1_555
C81 C80 1_555 1_555
H68 C81 1_555 1_555
H69 C81 1_555 1_555
C82 C81 1_555 1_555
H70 C82 1_555 1_555
H71 C82 1_555 1_555
H72 C82 1_555 1_555
C83 C78 1_555 1_555
H73 C83 1_555 1_555
H74 C83 1_555 1_555
C84 C83 1_555 1_555
H75 C84 1_555 1_555
H76 C84 1_555 1_555
H77 C84 1_555 1_555
C85 H78 1_555 1_555
H79 C85 1_555 1_555
C86 C85 1_555 1_555
H80 C86 1_555 1_555
C87 C86 1_555 1_555
H81 C87 1_555 1_555
H82 C87 1_555 1_555
C88 C87 1_555 1_555
H83 C88 1_555 1_555
H84 C88 1_555 1_555
C89 C88 1_555 1_555
H85 C89 1_555 1_555
H86 C89 1_555 1_555
C90 C89 1_555 1_555
H87 C90 1_555 1_555
H88 C90 1_555 1_555
H89 C90 1_555 1_555
C91 C86 1_555 1_555
H90 C91 1_555 1_555
H91 C91 1_555 1_555
C92 C91 1_555 1_555
H92 C92 1_555 1_555
H93 C92 1_555 1_555
H94 C92 1_555 1_555
C93 C70 1_555 1_555
N3 C48 1_555 1_555
N4 C50 1_555 1_555
O6 C48 1_555 1_555
O7 C51 1_555 1_555
O8 C58 1_555 1_555
O9 C70 1_555 1_555
S3 C54 1_555 1_555
S4 C66 1_555 1_555
C4 N2 1_555 1_555
C6 N1 1_555 1_555
C10 S1 1_555 1_555
C12 C46 1_555 1_555
C16 C17 1_555 1_555
C17 O4 1_555 1_555
C21 S2 1_555 1_555
C23 O3 1_555 1_555
C27 C28 1_555 1_555
C28 C29 1_555 1_555
C30 N1 1_555 1_555
C38 N2 1_555 1_555
C51 N4 1_555 1_555
C53 N3 1_555 1_555
C57 S3 1_555 1_555
C59 O8 1_555 1_555
C63 C64 1_555 1_555
C64 C65 1_555 1_555
C69 S4 1_555 1_555
C71 O9 1_555 1_555
C75 C76 1_555 1_555
C76 C93 1_555 1_555
C77 N3 1_555 1_555
C85 N4 1_555 1_555

#END
