
#######################################################################
#
#                 Cambridge Crystallographic Data Centre
#                                CCDC 
#
#######################################################################
#
# If this CIF has been generated from an entry in the Cambridge 
# Structural Database, then it will include bibliographic, chemical, 
# crystal, experimental, refinement or atomic coordinate data resulting 
# from the CCDC's data processing and validation procedures.
#
#######################################################################

data_RIGXAI
_chemical_formula_moiety         'C14 H17 N1 O2'
_chemical_name_systematic        
7-Hydroxy-7-methyl-5-(4-methylphenyl)-5-azaspiro[2.4]heptan-4-one
_symmetry_cell_setting           monoclinic
_symmetry_space_group_name_H-M   'P 21/c'
_symmetry_Int_Tables_number      14
_space_group_name_Hall           '-P 2ybc'
loop_
_symmetry_equiv_pos_site_id
_symmetry_equiv_pos_as_xyz
1 x,y,z
2 -x,1/2+y,1/2-z
3 -x,-y,-z
4 x,1/2-y,1/2+z
_cell_length_a                   8.6775(18)
_cell_length_b                   18.791(4)
_cell_length_c                   7.5798(16)
_cell_angle_alpha                90
_cell_angle_beta                 93.790(3)
_cell_angle_gamma                90
_cell_volume                     1233.25
_exptl_crystal_colour            yellow
_cell_formula_units_Z            4
loop_
_atom_site_label
_atom_site_type_symbol
_atom_site_fract_x
_atom_site_fract_y
_atom_site_fract_z
C1 C 0.8269(3) 0.55752(12) 0.5165(3)
H1 H 0.8059 0.5260 0.6117
H2 H 0.9288 0.5770 0.5369
H3 H 0.8203 0.5317 0.4071
C2 C 0.7102(2) 0.61711(11) 0.5071(3)
C3 C 0.5580(2) 0.60533(11) 0.4453(3)
H4 H 0.5282 0.5598 0.4086
C4 C 0.4496(2) 0.65927(11) 0.4367(2)
H5 H 0.3488 0.6498 0.3936
C5 C 0.4902(2) 0.72723(10) 0.4921(2)
C6 C 0.6421(2) 0.74004(11) 0.5543(3)
H6 H 0.6716 0.7854 0.5924
C7 C 0.7493(2) 0.68551(12) 0.5596(3)
H7 H 0.8507 0.6952 0.5996
C8 C 0.4245(2) 0.85766(11) 0.4537(3)
H8 H 0.4839 0.8612 0.3500
H9 H 0.4858 0.8763 0.5548
C9 C 0.2709(2) 0.89878(11) 0.4253(3)
C10 C 0.2819(3) 0.97363(12) 0.4966(3)
H10 H 0.3557 1.0000 0.4341
H11 H 0.3143 0.9723 0.6202
H12 H 0.1827 0.9962 0.4811
C11 C 0.1598(2) 0.84952(11) 0.5120(2)
C12 C 0.0560(3) 0.87033(14) 0.6577(3)
H13 H 0.0413 0.8358 0.7503
H14 H 0.0573 0.9196 0.6959
C13 C -0.0125(2) 0.85416(13) 0.4769(3)
H15 H -0.0532 0.8936 0.4058
H16 H -0.0693 0.8099 0.4602
C14 C 0.2313(2) 0.77790(11) 0.5284(2)
N1 N 0.38037(17) 0.78387(8) 0.4845(2)
O1 O 0.16711(16) 0.72338(8) 0.5751(2)
O2 O 0.22810(18) 0.90664(8) 0.24141(18)
H17 H 0.2152 0.8672 0.1963
loop_
_geom_bond_atom_site_label_1
_geom_bond_atom_site_label_2
_geom_bond_site_symmetry_1
_geom_bond_site_symmetry_2
C1 H1 1_555 1_555
H2 C1 1_555 1_555
H3 C1 1_555 1_555
C2 C1 1_555 1_555
C3 C2 1_555 1_555
H4 C3 1_555 1_555
C4 C3 1_555 1_555
H5 C4 1_555 1_555
C5 C4 1_555 1_555
C6 C5 1_555 1_555
H6 C6 1_555 1_555
C7 C2 1_555 1_555
H7 C7 1_555 1_555
C8 H8 1_555 1_555
H9 C8 1_555 1_555
C9 C8 1_555 1_555
C10 C9 1_555 1_555
H10 C10 1_555 1_555
H11 C10 1_555 1_555
H12 C10 1_555 1_555
C11 C9 1_555 1_555
C12 C11 1_555 1_555
H13 C12 1_555 1_555
H14 C12 1_555 1_555
C13 C11 1_555 1_555
H15 C13 1_555 1_555
H16 C13 1_555 1_555
C14 C11 1_555 1_555
N1 C5 1_555 1_555
O1 C14 1_555 1_555
O2 C9 1_555 1_555
H17 O2 1_555 1_555
C6 C7 1_555 1_555
C8 N1 1_555 1_555
C12 C13 1_555 1_555
C14 N1 1_555 1_555

#END
