
#######################################################################
#
#                 Cambridge Crystallographic Data Centre
#                                CCDC 
#
#######################################################################
#
# If this CIF has been generated from an entry in the Cambridge 
# Structural Database, then it will include bibliographic, chemical, 
# crystal, experimental, refinement or atomic coordinate data resulting 
# from the CCDC's data processing and validation procedures.
#
#######################################################################

data_RIGXUB
_chemical_formula_moiety         'C19 H18 N2 O3 S1'
_chemical_name_systematic        
4-Benzyl-5-ethyl-2-(2-furylcarbonylmethylsulfanyl)pyrimidin-6(1H)-one
_chemical_properties_biological  'activity against HIV-1'
_symmetry_cell_setting           monoclinic
_symmetry_space_group_name_H-M   'P 21/c'
_symmetry_Int_Tables_number      14
_space_group_name_Hall           '-P 2ybc'
loop_
_symmetry_equiv_pos_site_id
_symmetry_equiv_pos_as_xyz
1 x,y,z
2 -x,1/2+y,1/2-z
3 -x,-y,-z
4 x,1/2-y,1/2+z
_cell_length_a                   12.062(2)
_cell_length_b                   9.3943(16)
_cell_length_c                   15.988(3)
_cell_angle_alpha                90
_cell_angle_beta                 105.065(2)
_cell_angle_gamma                90
_cell_volume                     1749.4
_exptl_crystal_colour            colorless
_exptl_crystal_description       block
_cell_formula_units_Z            4
_exptl_crystal_recrystallization_method 'ethyl acetate'
loop_
_atom_site_label
_atom_site_type_symbol
_atom_site_fract_x
_atom_site_fract_y
_atom_site_fract_z
S1 S 0.21735(5) -0.03809(8) 0.32866(4)
O1 O -0.03737(15) 0.3007(2) 0.10972(12)
O2 O 0.03442(17) 0.1848(2) 0.26973(12)
O3 O 0.61953(13) 0.05256(17) 0.45976(10)
N1 N 0.36113(16) 0.0657(2) 0.23957(12)
N2 N 0.43313(16) 0.02249(18) 0.38744(12)
H1 H 0.4173 -0.0022 0.4348
C1 C -0.0516(3) 0.3368(3) 0.0258(2)
H2 H -0.0991 0.4100 -0.0018
C2 C 0.0103(3) 0.2551(3) -0.01204(19)
H3 H 0.0159 0.2617 -0.0688
C3 C 0.0663(2) 0.1558(3) 0.05134(17)
H4 H 0.1151 0.0829 0.0439
C4 C 0.0360(2) 0.1864(3) 0.12422(16)
C5 C 0.0637(2) 0.1276(3) 0.21057(16)
C6 C 0.1246(2) -0.0145(3) 0.22227(15)
H5 H 0.1695 -0.0227 0.1802
H6 H 0.0678 -0.0900 0.2108
C7 C 0.34761(19) 0.0250(2) 0.31377(15)
C8 C 0.4720(2) 0.1010(3) 0.23741(16)
C9 C 0.56412(19) 0.0970(2) 0.30779(15)
C10 C 0.5446(2) 0.0578(2) 0.38995(15)
C11 C 0.68681(19) 0.1267(3) 0.30770(16)
H7 H 0.7218 0.1863 0.3570
H8 H 0.6878 0.1791 0.2556
C12 C 0.7578(2) -0.0081(3) 0.31167(19)
H9 H 0.8350 0.0168 0.3116
H10 H 0.7248 -0.0666 0.2623
H11 H 0.7586 -0.0595 0.3637
C13 C 0.4817(2) 0.1521(3) 0.14954(16)
H12 H 0.4731 0.2548 0.1477
H13 H 0.5587 0.1311 0.1451
C14 C 0.3976(2) 0.0910(3) 0.07077(16)
C15 C 0.3393(2) 0.1813(3) 0.00613(17)
H14 H 0.3492 0.2792 0.0128
C16 C 0.2657(2) 0.1267(4) -0.06902(18)
H15 H 0.2272 0.1879 -0.1127
C17 C 0.2502(3) -0.0166(4) -0.07834(18)
H16 H 0.2005 -0.0533 -0.1282
C18 C 0.3077(3) -0.1066(3) -0.0144(2)
H17 H 0.2975 -0.2044 -0.0210
C19 C 0.3802(2) -0.0527(3) 0.05903(19)
H18 H 0.4186 -0.1149 0.1021
loop_
_geom_bond_atom_site_label_1
_geom_bond_atom_site_label_2
_geom_bond_site_symmetry_1
_geom_bond_site_symmetry_2
S1 C6 1_555 1_555
O1 C1 1_555 1_555
O2 C5 1_555 1_555
O3 C10 1_555 1_555
N1 C7 1_555 1_555
N2 H1 1_555 1_555
C1 H2 1_555 1_555
C2 C1 1_555 1_555
H3 C2 1_555 1_555
C3 C2 1_555 1_555
H4 C3 1_555 1_555
C4 O1 1_555 1_555
C5 C4 1_555 1_555
C6 C5 1_555 1_555
H5 C6 1_555 1_555
H6 C6 1_555 1_555
C7 S1 1_555 1_555
C8 N1 1_555 1_555
C9 C8 1_555 1_555
C10 N2 1_555 1_555
C11 C9 1_555 1_555
H7 C11 1_555 1_555
H8 C11 1_555 1_555
C12 C11 1_555 1_555
H9 C12 1_555 1_555
H10 C12 1_555 1_555
H11 C12 1_555 1_555
C13 C8 1_555 1_555
H12 C13 1_555 1_555
H13 C13 1_555 1_555
C14 C13 1_555 1_555
C15 C14 1_555 1_555
H14 C15 1_555 1_555
C16 C15 1_555 1_555
H15 C16 1_555 1_555
C17 C16 1_555 1_555
H16 C17 1_555 1_555
C18 C17 1_555 1_555
H17 C18 1_555 1_555
C19 C14 1_555 1_555
H18 C19 1_555 1_555
N2 C7 1_555 1_555
C3 C4 1_555 1_555
C9 C10 1_555 1_555
C18 C19 1_555 1_555

#END
