
#######################################################################
#
#                 Cambridge Crystallographic Data Centre
#                                CCDC 
#
#######################################################################
#
# If this CIF has been generated from an entry in the Cambridge 
# Structural Database, then it will include bibliographic, chemical, 
# crystal, experimental, refinement or atomic coordinate data resulting 
# from the CCDC's data processing and validation procedures.
#
#######################################################################

data_RIGXAH
_chemical_formula_moiety         'C25 H26 O5'
_chemical_name_systematic        
'Methyl 5-O-triphenylmethyl-\a-D-arabinofuranoside'
_symmetry_cell_setting           orthorhombic
_symmetry_space_group_name_H-M   'P 21 21 21'
_symmetry_Int_Tables_number      19
_space_group_name_Hall           'P 2ac 2ab'
loop_
_symmetry_equiv_pos_site_id
_symmetry_equiv_pos_as_xyz
1 x,y,z
2 1/2-x,-y,1/2+z
3 -x,1/2+y,1/2-z
4 1/2+x,1/2-y,-z
_cell_length_a                   7.4286(15)
_cell_length_b                   8.1298(16)
_cell_length_c                   34.101(7)
_cell_angle_alpha                90
_cell_angle_beta                 90
_cell_angle_gamma                90
_cell_volume                     2059.46
_exptl_crystal_colour            colorless
_exptl_crystal_description       block
_cell_formula_units_Z            4
_exptl_crystal_recrystallization_method 'hexane/ethyl acetate'
loop_
_atom_site_label
_atom_site_type_symbol
_atom_site_fract_x
_atom_site_fract_y
_atom_site_fract_z
O1 O 0.5208(3) 0.5222(3) 0.08813(6)
O2 O 0.4450(3) 0.6557(3) 0.02943(6)
O3 O 0.6178(4) 0.2463(3) 0.03120(7)
H1 H 0.646(6) 0.221(5) 0.0550(7)
O4 O 0.1565(3) 0.3851(3) 0.04668(7)
H2 H 0.143(6) 0.362(6) 0.0231(10)
O5 O 0.5912(3) 0.2009(2) 0.11522(5)
C1 C 0.5460(5) 0.5315(4) 0.04707(9)
H3 H 0.6740 0.5455 0.0409
C2 C 0.4782(5) 0.3666(4) 0.03127(10)
H4 H 0.4307 0.3808 0.0047
C3 C 0.3270(4) 0.3232(4) 0.05910(8)
H5 H 0.3210 0.2038 0.0629
C4 C 0.3786(4) 0.4081(4) 0.09739(8)
H6 H 0.2744 0.4705 0.1069
C5 C 0.4398(4) 0.2931(4) 0.12950(8)
H7 H 0.4740 0.3555 0.1526
H8 H 0.3428 0.2190 0.1366
C6 C 0.5213(6) 0.8169(4) 0.03313(10)
H9 H 0.4504 0.8940 0.0184
H10 H 0.6422 0.8162 0.0232
H11 H 0.5223 0.8486 0.0602
C7 C 0.6897(4) 0.1002(4) 0.14349(8)
C8 C 0.8065(4) -0.0140(4) 0.11786(8)
C9 C 0.9242(4) 0.0581(4) 0.09055(8)
H12 H 0.9268 0.1719 0.0878
C10 C 1.0355(5) -0.0378(4) 0.06784(9)
H13 H 1.1104 0.0116 0.0495
C11 C 1.0372(5) -0.2078(4) 0.07207(9)
H14 H 1.1138 -0.2720 0.0569
C12 C 0.9242(5) -0.2801(4) 0.09896(9)
H15 H 0.9236 -0.3939 0.1018
C13 C 0.8107(5) -0.1839(4) 0.12205(9)
H16 H 0.7367 -0.2341 0.1405
C14 C 0.5546(4) 0.0034(4) 0.16861(8)
C15 C 0.4268(4) -0.0927(4) 0.15044(9)
H17 H 0.4244 -0.0973 0.1232
C16 C 0.3028(5) -0.1820(4) 0.17135(11)
H18 H 0.2173 -0.2451 0.1583
C17 C 0.3051(5) -0.1779(4) 0.21152(11)
H19 H 0.2228 -0.2397 0.2258
C18 C 0.4296(5) -0.0822(5) 0.23045(9)
H20 H 0.4312 -0.0787 0.2577
C19 C 0.5529(4) 0.0092(4) 0.20932(8)
H21 H 0.6354 0.0752 0.2225
C20 C 0.8215(4) 0.2061(4) 0.16746(8)
C21 C 0.9461(4) 0.1301(4) 0.19168(9)
H22 H 0.9453 0.0160 0.1938
C22 C 1.0720(5) 0.2198(4) 0.21282(10)
H23 H 1.1545 0.1660 0.2288
C23 C 1.0741(5) 0.3882(5) 0.20995(10)
H24 H 1.1571 0.4493 0.2243
C24 C 0.9544(5) 0.4649(4) 0.18615(10)
H25 H 0.9563 0.5791 0.1843
C25 C 0.8290(5) 0.3765(4) 0.16445(9)
H26 H 0.7499 0.4315 0.1479
loop_
_geom_bond_atom_site_label_1
_geom_bond_atom_site_label_2
_geom_bond_site_symmetry_1
_geom_bond_site_symmetry_2
O1 C1 1_555 1_555
O2 C1 1_555 1_555
O3 H1 1_555 1_555
O4 H2 1_555 1_555
O5 C5 1_555 1_555
C1 H3 1_555 1_555
C2 O3 1_555 1_555
H4 C2 1_555 1_555
C3 O4 1_555 1_555
H5 C3 1_555 1_555
C4 O1 1_555 1_555
H6 C4 1_555 1_555
C5 C4 1_555 1_555
H7 C5 1_555 1_555
H8 C5 1_555 1_555
C6 O2 1_555 1_555
H9 C6 1_555 1_555
H10 C6 1_555 1_555
H11 C6 1_555 1_555
C7 O5 1_555 1_555
C8 C7 1_555 1_555
C9 C8 1_555 1_555
H12 C9 1_555 1_555
C10 C9 1_555 1_555
H13 C10 1_555 1_555
C11 C10 1_555 1_555
H14 C11 1_555 1_555
C12 C11 1_555 1_555
H15 C12 1_555 1_555
C13 C8 1_555 1_555
H16 C13 1_555 1_555
C14 C7 1_555 1_555
C15 C14 1_555 1_555
H17 C15 1_555 1_555
C16 C15 1_555 1_555
H18 C16 1_555 1_555
C17 C16 1_555 1_555
H19 C17 1_555 1_555
C18 C17 1_555 1_555
H20 C18 1_555 1_555
C19 C14 1_555 1_555
H21 C19 1_555 1_555
C20 C7 1_555 1_555
C21 C20 1_555 1_555
H22 C21 1_555 1_555
C22 C21 1_555 1_555
H23 C22 1_555 1_555
C23 C22 1_555 1_555
H24 C23 1_555 1_555
C24 C23 1_555 1_555
H25 C24 1_555 1_555
C25 C20 1_555 1_555
H26 C25 1_555 1_555
C1 C2 1_555 1_555
C2 C3 1_555 1_555
C3 C4 1_555 1_555
C12 C13 1_555 1_555
C18 C19 1_555 1_555
C24 C25 1_555 1_555

#END
