
#######################################################################
#
#                 Cambridge Crystallographic Data Centre
#                                CCDC 
#
#######################################################################
#
# If this CIF has been generated from an entry in the Cambridge 
# Structural Database, then it will include bibliographic, chemical, 
# crystal, experimental, refinement or atomic coordinate data resulting 
# from the CCDC's data processing and validation procedures.
#
#######################################################################

data_RIGZAL
_chemical_formula_moiety         'C20 H28 N3 O1 1+,C6 H2 N3 O7 1-'
_chemical_name_systematic        
'2-{2-[4-(dimethylamino)phenyl]ethenyl}-6-methyl-4-oxo-5-pentyl-3,4-dihydropyrimidin-1-ium 2,4,6-trinitrophenolate'
_symmetry_cell_setting           triclinic
_symmetry_space_group_name_H-M   'P -1'
_symmetry_Int_Tables_number      2
_space_group_name_Hall           '-P 1'
loop_
_symmetry_equiv_pos_site_id
_symmetry_equiv_pos_as_xyz
1 x,y,z
2 -x,-y,-z
_cell_length_a                   8.2210(16)
_cell_length_b                   13.321(3)
_cell_length_c                   13.350(3)
_cell_angle_alpha                99.34(3)
_cell_angle_beta                 106.12(3)
_cell_angle_gamma                92.50(3)
_cell_volume                     1379.8
_exptl_crystal_colour            yellow
_exptl_crystal_description       prism
_cell_formula_units_Z            2
loop_
_atom_site_label
_atom_site_type_symbol
_atom_site_fract_x
_atom_site_fract_y
_atom_site_fract_z
O1 O 0.8666(5) 0.3377(3) 0.1823(3)
C1 C 1.0473(9) 0.4893(4) 0.2021(5)
C2 C 1.0790(10) 0.5763(5) 0.1680(6)
C3 C 0.9613(9) 0.6073(4) 0.0877(5)
C4 C 0.8121(10) 0.5487(5) 0.0385(6)
C5 C 0.7791(8) 0.4587(5) 0.0717(5)
C6 C 0.8937(8) 0.4227(4) 0.1565(5)
N1 N 1.1769(10) 0.4600(5) 0.2869(5)
O2 O 0.8925(7) 0.7200(3) -0.0284(4)
N2 N 0.6197(9) 0.3972(5) 0.0159(6)
O3 O 0.5584(7) 0.3992(4) -0.0770(5)
O4 O 0.5471(6) 0.3516(4) 0.0655(5)
H1 H 0.732(7) 0.557(4) -0.023(4)
H2 H 1.175(6) 0.615(3) 0.196(3)
O5 O 1.1374(9) 0.4237(5) 0.3531(5)
O6 O 1.3225(9) 0.4762(5) 0.2876(6)
N3 N 0.9932(9) 0.7010(4) 0.0508(5)
O7 O 1.1202(8) 0.7568(4) 0.1039(5)
N4 N 0.8821(6) 0.2439(4) 0.3419(4)
C7 C 0.9828(7) 0.1683(4) 0.3510(4)
N5 N 0.9591(7) 0.1051(4) 0.4155(4)
C8 C 0.8417(9) 0.1136(5) 0.4723(5)
C9 C 0.7346(8) 0.1965(5) 0.4589(5)
C10 C 0.7605(8) 0.2602(5) 0.3941(5)
O8 O 0.8356(6) 0.0525(4) 0.5316(4)
C11 C 0.6664(9) 0.3519(5) 0.3736(5)
H3 H 0.7387 0.4128 0.4109
H4 H 0.5670 0.3489 0.3979
H5 H 0.6329 0.3529 0.2989
C12 C 1.1025(7) 0.1564(4) 0.2927(4)
C13 C 1.2065(8) 0.0826(4) 0.2940(5)
C14 C 1.3385(7) 0.0686(4) 0.2436(4)
C15 C 1.3840(8) 0.1364(4) 0.1843(5)
C16 C 1.5188(8) 0.1228(5) 0.1421(5)
C17 C 1.6111(7) 0.0377(4) 0.1552(4)
C18 C 1.5622(8) -0.0310(5) 0.2130(5)
C19 C 1.4317(8) -0.0149(5) 0.2561(5)
N6 N 1.7443(6) 0.0230(3) 0.1151(4)
C20 C 1.8322(8) -0.0693(5) 0.1215(5)
H6 H 1.7532 -0.1279 0.0858
H7 H 1.8798 -0.0746 0.1946
H8 H 1.9217 -0.0664 0.0884
C21 C 1.7895(7) 0.0898(4) 0.0481(5)
H9 H 1.7843 0.1598 0.0779
H10 H 1.7112 0.0734 -0.0219
H11 H 1.9028 0.0801 0.0442
H12 H 1.543(5) 0.169(3) 0.102(3)
H13 H 1.112(6) 0.201(3) 0.244(3)
H14 H 1.402(6) -0.060(4) 0.300(4)
H15 H 1.199(5) 0.034(3) 0.330(3)
H16 H 1.339(6) 0.196(3) 0.178(3)
H17 H 1.617(6) -0.084(3) 0.225(3)
C22 C 0.5692(8) 0.1899(7) 0.4927(6)
H18 H 0.4766 0.2160 0.4443
H19 H 0.5355 0.1203 0.4965
C23 C 0.6226(11) 0.2589(8) 0.6039(6)
H20 H 0.6633 0.3267 0.5985
H21 H 0.7147 0.2309 0.6507
C24 C 0.4702(11) 0.2662(9) 0.6509(9)
H22 H 0.4374 0.1980 0.6594
H23 H 0.5110 0.3075 0.7213
C25 C 0.3068(15) 0.3098(13) 0.5912(13)
H24 H 0.2556 0.2661 0.5229
H25 H 0.3353 0.3774 0.5791
C26 C 0.179(3) 0.3160(19) 0.6579(19)
H26 H 0.2386 0.3429 0.7308
H27 H 0.1260 0.2489 0.6522
H28 H 0.0940 0.3600 0.6319
H29 H 1.017(6) 0.058(3) 0.429(4)
H30 H 0.887(8) 0.282(4) 0.291(5)
C27? C 0.6919(18) 0.2450(12) 0.5612(8)
H31? H 0.7635 0.2234 0.6234
H32? H 0.7024 0.3191 0.5714
C28? C 0.5044(18) 0.2011(16) 0.5353(15)
H33? H 0.5046 0.1274 0.5192
H34? H 0.4447 0.2218 0.4695
C29? C 0.389(3) 0.2216(14) 0.6094(17)
H35? H 0.2814 0.1801 0.5804
H36? H 0.4445 0.2078 0.6794
C30? C 0.365(3) 0.3366(13) 0.613(2)
H37? H 0.3392 0.3525 0.5425
H38? H 0.4680 0.3777 0.6571
C31? C 0.216(4) 0.361(3) 0.661(3)
H39? H 0.1412 0.2995 0.6483
H40? H 0.1537 0.4116 0.6274
H41? H 0.2599 0.3854 0.7356
loop_
_geom_bond_atom_site_label_1
_geom_bond_atom_site_label_2
_geom_bond_site_symmetry_1
_geom_bond_site_symmetry_2
O1 C6 1_555 1_555
C1 C2 1_555 1_555
C2 C3 1_555 1_555
C3 C4 1_555 1_555
C4 C5 1_555 1_555
C5 C6 1_555 1_555
C6 C1 1_555 1_555
N1 C1 1_555 1_555
O2 N3 1_555 1_555
N2 C5 1_555 1_555
O3 N2 1_555 1_555
O4 N2 1_555 1_555
H1 C4 1_555 1_555
H2 C2 1_555 1_555
O5 N1 1_555 1_555
O6 N1 1_555 1_555
N3 C3 1_555 1_555
O7 N3 1_555 1_555
N4 C7 1_555 1_555
C7 N5 1_555 1_555
N5 C8 1_555 1_555
C8 C9 1_555 1_555
C9 C10 1_555 1_555
C10 N4 1_555 1_555
O8 C8 1_555 1_555
C11 C10 1_555 1_555
H3 C11 1_555 1_555
H4 C11 1_555 1_555
H5 C11 1_555 1_555
C12 C7 1_555 1_555
C13 C12 1_555 1_555
C14 C13 1_555 1_555
C15 C14 1_555 1_555
C16 C15 1_555 1_555
C17 C16 1_555 1_555
C18 C17 1_555 1_555
C19 C14 1_555 1_555
N6 C17 1_555 1_555
C20 N6 1_555 1_555
H6 C20 1_555 1_555
H7 C20 1_555 1_555
H8 C20 1_555 1_555
C21 N6 1_555 1_555
H9 C21 1_555 1_555
H10 C21 1_555 1_555
H11 C21 1_555 1_555
H12 C16 1_555 1_555
H13 C12 1_555 1_555
H14 C19 1_555 1_555
H15 C13 1_555 1_555
H16 C15 1_555 1_555
H17 C18 1_555 1_555
C22 C9 1_555 1_555
H18 C22 1_555 1_555
H19 C22 1_555 1_555
C23 C22 1_555 1_555
H20 C23 1_555 1_555
H21 C23 1_555 1_555
C24 C23 1_555 1_555
H22 C24 1_555 1_555
H23 C24 1_555 1_555
C25 C24 1_555 1_555
H24 C25 1_555 1_555
H25 C25 1_555 1_555
C26 C25 1_555 1_555
H26 C26 1_555 1_555
H27 C26 1_555 1_555
H28 C26 1_555 1_555
H29 N5 1_555 1_555
H30 N4 1_555 1_555
C18 C19 1_555 1_555

#END
