
#######################################################################
#
#                 Cambridge Crystallographic Data Centre
#                                CCDC 
#
#######################################################################
#
# If this CIF has been generated from an entry in the Cambridge 
# Structural Database, then it will include bibliographic, chemical, 
# crystal, experimental, refinement or atomic coordinate data resulting 
# from the CCDC's data processing and validation procedures.
#
#######################################################################

data_RIGZUF
_chemical_formula_moiety         'C15 H19 N3 O2'
_chemical_name_systematic        
3,3-dimethyl-6-oxo-8-(pyrrolidin-1-yl)-3,4,6,7-tetrahydro-1H-pyrano[3,4-c]pyridine-5-carbonitrile
_symmetry_cell_setting           triclinic
_symmetry_space_group_name_H-M   'P -1'
_symmetry_Int_Tables_number      2
_space_group_name_Hall           '-P 1'
loop_
_symmetry_equiv_pos_site_id
_symmetry_equiv_pos_as_xyz
1 x,y,z
2 -x,-y,-z
_cell_length_a                   6.7472(3)
_cell_length_b                   10.6007(5)
_cell_length_c                   10.8352(6)
_cell_angle_alpha                101.111(4)
_cell_angle_beta                 107.701(4)
_cell_angle_gamma                99.836(4)
_cell_volume                     702.301
_exptl_crystal_colour            colorless
_exptl_crystal_description       prism
_cell_formula_units_Z            2
_exptl_crystal_preparation       CH~3~CN
loop_
_atom_site_label
_atom_site_type_symbol
_atom_site_fract_x
_atom_site_fract_y
_atom_site_fract_z
N1 N 1.2382(2) 0.37323(13) 0.99368(13)
H1 H 1.345(4) 0.444(3) 1.057(3)
C1 C 1.2498(2) 0.34852(16) 0.86626(16)
C2 C 1.0820(2) 0.24589(15) 0.76848(15)
C3 C 0.9345(2) 0.16517(14) 0.80567(15)
C4 C 0.9363(2) 0.19012(14) 0.93639(15)
C5 C 1.0881(2) 0.30354(14) 1.03239(15)
O1 O 1.39908(19) 0.41744(13) 0.84552(13)
C6 C 1.0771(2) 0.22243(15) 0.63341(16)
N2 N 1.0695(3) 0.20364(16) 0.52422(16)
C7 C 0.7800(2) 0.04595(15) 0.69982(16)
H2 H 0.8604 -0.0154 0.6736
H3 H 0.7088 0.0741 0.6214
C8 C 0.6103(2) -0.02663(15) 0.74441(16)
O2 O 0.71848(17) -0.03528(10) 0.87886(11)
C9 C 0.7962(2) 0.08871(15) 0.97568(16)
H4 H 0.8785 0.0768 1.0613
H5 H 0.6755 0.1219 0.9866
C10 C 0.4296(3) 0.04217(19) 0.7389(2)
H6 H 0.3429 0.0049 0.7850
H7 H 0.3427 0.0300 0.6470
H8 H 0.4887 0.1352 0.7813
C11 C 0.5241(3) -0.16913(16) 0.66083(19)
H9 H 0.6401 -0.2120 0.6693
H10 H 0.4568 -0.1710 0.5684
H11 H 0.4207 -0.2147 0.6918
N3 N 1.09691(19) 0.34958(12) 1.15848(13)
C12 C 0.9238(3) 0.31552(17) 1.21134(17)
H12 H 0.9239 0.2324 1.2361
H13 H 0.7849 0.3079 1.1452
C13 C 0.9726(3) 0.42886(17) 1.33312(18)
H14 H 0.9029 0.4979 1.3091
H15 H 0.9261 0.3984 1.4010
C14 C 1.2130(3) 0.47803(18) 1.38195(17)
H16 H 1.2824 0.4239 1.4356
H17 H 1.2587 0.5695 1.4350
C15 C 1.2639(3) 0.46547(17) 1.25414(17)
H18 H 1.2561 0.5446 1.2224
H19 H 1.4060 0.4505 1.2679
loop_
_geom_bond_atom_site_label_1
_geom_bond_atom_site_label_2
_geom_bond_site_symmetry_1
_geom_bond_site_symmetry_2
N1 H1 1_555 1_555
C1 N1 1_555 1_555
C2 C1 1_555 1_555
C3 C2 1_555 1_555
C4 C3 1_555 1_555
C5 N1 1_555 1_555
O1 C1 1_555 1_555
C6 C2 1_555 1_555
N2 C6 1_555 1_555
C7 C3 1_555 1_555
H2 C7 1_555 1_555
H3 C7 1_555 1_555
C8 C7 1_555 1_555
O2 C8 1_555 1_555
C9 C4 1_555 1_555
H4 C9 1_555 1_555
H5 C9 1_555 1_555
C10 C8 1_555 1_555
H6 C10 1_555 1_555
H7 C10 1_555 1_555
H8 C10 1_555 1_555
C11 C8 1_555 1_555
H9 C11 1_555 1_555
H10 C11 1_555 1_555
H11 C11 1_555 1_555
N3 C5 1_555 1_555
C12 N3 1_555 1_555
H12 C12 1_555 1_555
H13 C12 1_555 1_555
C13 C12 1_555 1_555
H14 C13 1_555 1_555
H15 C13 1_555 1_555
C14 C13 1_555 1_555
H16 C14 1_555 1_555
H17 C14 1_555 1_555
C15 N3 1_555 1_555
H18 C15 1_555 1_555
H19 C15 1_555 1_555
C4 C5 1_555 1_555
O2 C9 1_555 1_555
C14 C15 1_555 1_555

#END
