
#######################################################################
#
#                 Cambridge Crystallographic Data Centre
#                                CCDC 
#
#######################################################################
#
# If this CIF has been generated from an entry in the Cambridge 
# Structural Database, then it will include bibliographic, chemical, 
# crystal, experimental, refinement or atomic coordinate data resulting 
# from the CCDC's data processing and validation procedures.
#
#######################################################################

data_RIGZIT
_chemical_formula_moiety         'C14 H18 N4 O2,H2 O1'
_chemical_name_systematic        
'3-hydroxy-7-methyl-1-(morpholin-4-yl)-5,6,7,8-tetrahydro-2,7-naphthyridine-4-carbonitrile monohydrate'
_symmetry_cell_setting           monoclinic
_symmetry_space_group_name_H-M   'P 21/c'
_symmetry_Int_Tables_number      14
_space_group_name_Hall           '-P 2ybc'
loop_
_symmetry_equiv_pos_site_id
_symmetry_equiv_pos_as_xyz
1 x,y,z
2 -x,1/2+y,1/2-z
3 -x,-y,-z
4 x,1/2-y,1/2+z
_cell_length_a                   9.5039(4)
_cell_length_b                   7.1036(2)
_cell_length_c                   21.8519(8)
_cell_angle_alpha                90
_cell_angle_beta                 102.094(6)
_cell_angle_gamma                90
_cell_volume                     1442.52
_exptl_crystal_colour            colorless
_exptl_crystal_description       plate
_cell_formula_units_Z            4
_exptl_crystal_preparation       CH~3~CN
loop_
_atom_site_label
_atom_site_type_symbol
_atom_site_fract_x
_atom_site_fract_y
_atom_site_fract_z
N1 N 0.20985(14) 0.3260(2) 0.07185(7)
C1 C 0.18446(17) 0.3214(3) 0.00912(8)
C2 C 0.04717(18) 0.2664(3) -0.02565(8)
C3 C -0.06457(17) 0.2293(3) 0.00524(7)
C4 C -0.03825(17) 0.2410(3) 0.06970(8)
C5 C 0.10428(18) 0.2843(3) 0.10193(8)
O1 O 0.28637(12) 0.36527(19) -0.01947(6)
H1 H 0.3569 0.4017 0.0062
C6 C 0.02485(19) 0.2662(3) -0.09217(9)
N2 N 0.0085(2) 0.2667(3) -0.14544(8)
C7 C -0.21355(17) 0.1910(3) -0.03309(8)
H2 H -0.2095 0.0819 -0.0594
H3 H -0.2439 0.2977 -0.0604
C8 C -0.32435(18) 0.1561(3) 0.00616(9)
H4 H -0.4202 0.1751 -0.0190
H5 H -0.3173 0.0272 0.0211
N3 N -0.29904(14) 0.2887(2) 0.06046(7)
C9 C -0.16105(17) 0.2384(3) 0.10382(8)
H6 H -0.1691 0.1140 0.1210
H7 H -0.1418 0.3274 0.1382
C10 C -0.42073(19) 0.2855(3) 0.09418(10)
H8 H -0.4317 0.1605 0.1092
H9 H -0.5079 0.3229 0.0661
H10 H -0.4006 0.3710 0.1289
N4 N 0.13871(16) 0.2984(3) 0.16620(7)
C11 C 0.09670(19) 0.1560(3) 0.20706(8)
H11 H 0.0154 0.0851 0.1841
H12 H 0.0672 0.2171 0.2420
C12 C 0.2191(2) 0.0244(4) 0.23116(10)
H13 H 0.1898 -0.0658 0.2594
H14 H 0.2426 -0.0449 0.1964
O2 O 0.34437(14) 0.1231(2) 0.26343(6)
C13 C 0.3880(2) 0.2550(4) 0.22209(10)
H15 H 0.4142 0.1882 0.1874
H16 H 0.4722 0.3225 0.2441
C14 C 0.2708(2) 0.3925(4) 0.19736(10)
H17 H 0.2514 0.4680 0.2317
H18 H 0.3025 0.4765 0.1680
O3 O 0.6145(2) 0.8135(3) 0.11704(8)
H19 H 0.635(3) 0.766(3) 0.1520(4)
H20 H 0.644(3) 0.747(3) 0.0918(7)
loop_
_geom_bond_atom_site_label_1
_geom_bond_atom_site_label_2
_geom_bond_site_symmetry_1
_geom_bond_site_symmetry_2
N1 C1 1_555 1_555
C1 C2 1_555 1_555
C2 C3 1_555 1_555
C3 C4 1_555 1_555
C4 C5 1_555 1_555
C5 N1 1_555 1_555
O1 C1 1_555 1_555
H1 O1 1_555 1_555
C6 C2 1_555 1_555
N2 C6 1_555 1_555
C7 C3 1_555 1_555
H2 C7 1_555 1_555
H3 C7 1_555 1_555
C8 C7 1_555 1_555
H4 C8 1_555 1_555
H5 C8 1_555 1_555
N3 C8 1_555 1_555
C9 C4 1_555 1_555
H6 C9 1_555 1_555
H7 C9 1_555 1_555
C10 N3 1_555 1_555
H8 C10 1_555 1_555
H9 C10 1_555 1_555
H10 C10 1_555 1_555
N4 C5 1_555 1_555
C11 N4 1_555 1_555
H11 C11 1_555 1_555
H12 C11 1_555 1_555
C12 C11 1_555 1_555
H13 C12 1_555 1_555
H14 C12 1_555 1_555
O2 C12 1_555 1_555
C13 O2 1_555 1_555
H15 C13 1_555 1_555
H16 C13 1_555 1_555
C14 N4 1_555 1_555
H17 C14 1_555 1_555
H18 C14 1_555 1_555
O3 H19 1_555 1_555
H20 O3 1_555 1_555
N3 C9 1_555 1_555
C13 C14 1_555 1_555

#END
