
#######################################################################
#
#                 Cambridge Crystallographic Data Centre
#                                CCDC 
#
#######################################################################
#
# If this CIF has been generated from an entry in the Cambridge 
# Structural Database, then it will include bibliographic, chemical, 
# crystal, experimental, refinement or atomic coordinate data resulting 
# from the CCDC's data processing and validation procedures.
#
#######################################################################

data_RIHCUH01
_chemical_formula_moiety         'C18 H18 N2'
_chemical_name_systematic        
1,1'-Dimethyl-2,3-dihydro-1H,1'H-2,3'-biindole
_symmetry_cell_setting           triclinic
_symmetry_space_group_name_H-M   'P -1'
_symmetry_Int_Tables_number      2
_space_group_name_Hall           '-P 1'
loop_
_symmetry_equiv_pos_site_id
_symmetry_equiv_pos_as_xyz
1 x,y,z
2 -x,-y,-z
_cell_length_a                   7.4091(17)
_cell_length_b                   10.304(2)
_cell_length_c                   10.827(2)
_cell_angle_alpha                65.477(3)
_cell_angle_beta                 74.681(2)
_cell_angle_gamma                83.961(3)
_cell_volume                     725.28
_exptl_crystal_colour            colorless
_exptl_crystal_description       block
_cell_formula_units_Z            2
loop_
_atom_site_label
_atom_site_type_symbol
_atom_site_fract_x
_atom_site_fract_y
_atom_site_fract_z
C1 C 0.9698(5) 0.2286(3) 0.5707(4)
H1 H 0.9076 0.2980 0.6066
H2 H 1.0538 0.1718 0.6281
C2 C 1.0723(4) 0.2998(3) 0.4189(3)
C3 C 1.2385(5) 0.3737(4) 0.3559(4)
H3 H 1.3101 0.3839 0.4101
C4 C 1.2990(5) 0.4328(3) 0.2118(4)
H4 H 1.4116 0.4829 0.1692
C5 C 1.1954(5) 0.4184(3) 0.1312(4)
H5 H 1.2384 0.4584 0.0343
C6 C 1.0270(4) 0.3449(3) 0.1919(3)
H6 H 0.9567 0.3349 0.1368
C7 C 0.9651(4) 0.2864(3) 0.3370(3)
C8 C 0.8286(4) 0.1348(3) 0.5644(3)
H7 H 0.8934 0.0463 0.5662
C9 C 0.6563(4) 0.0933(3) 0.6781(3)
C10 C 0.6085(4) -0.0423(3) 0.7738(3)
H8 H 0.6796 -0.1225 0.7746
C11 C 0.3790(4) 0.0919(3) 0.8341(3)
C12 C 0.2194(4) 0.1458(4) 0.8984(3)
H9 H 0.1356 0.0861 0.9781
C13 C 0.1902(5) 0.2898(4) 0.8401(4)
H10 H 0.0830 0.3279 0.8800
C14 C 0.3153(5) 0.3799(3) 0.7240(4)
H11 H 0.2914 0.4773 0.6879
C15 C 0.4750(4) 0.3285(3) 0.6602(3)
H12 H 0.5589 0.3903 0.5823
C16 C 0.5087(4) 0.1814(3) 0.7149(3)
C17 C 0.6984(6) 0.1489(5) 0.3726(4)
H13 H 0.6616 0.2201 0.2923
H14 H 0.5889 0.1038 0.4440
H15 H 0.7744 0.0786 0.3464
C18 C 0.3507(5) -0.1722(3) 0.9832(3)
H16 H 0.3137 -0.1554 1.0673
H17 H 0.4350 -0.2516 0.9963
H18 H 0.2420 -0.1931 0.9622
N1 N 0.8006(3) 0.2130(3) 0.4237(3)
N2 N 0.4440(3) -0.0454(2) 0.8677(2)
loop_
_geom_bond_atom_site_label_1
_geom_bond_atom_site_label_2
_geom_bond_site_symmetry_1
_geom_bond_site_symmetry_2
C1 H1 1_555 1_555
H2 C1 1_555 1_555
C2 C1 1_555 1_555
C3 C2 1_555 1_555
H3 C3 1_555 1_555
C4 C3 1_555 1_555
H4 C4 1_555 1_555
C5 C4 1_555 1_555
H5 C5 1_555 1_555
C6 C5 1_555 1_555
H6 C6 1_555 1_555
C7 C2 1_555 1_555
C8 C1 1_555 1_555
H7 C8 1_555 1_555
C9 C8 1_555 1_555
C10 C9 1_555 1_555
H8 C10 1_555 1_555
C11 C12 1_555 1_555
C12 H9 1_555 1_555
C13 C12 1_555 1_555
H10 C13 1_555 1_555
C14 C13 1_555 1_555
H11 C14 1_555 1_555
C15 C14 1_555 1_555
H12 C15 1_555 1_555
C16 C9 1_555 1_555
C17 H13 1_555 1_555
H14 C17 1_555 1_555
H15 C17 1_555 1_555
C18 H16 1_555 1_555
H17 C18 1_555 1_555
H18 C18 1_555 1_555
N1 C7 1_555 1_555
N2 C10 1_555 1_555
C6 C7 1_555 1_555
C8 N1 1_555 1_555
C11 C16 1_555 1_555
C11 N2 1_555 1_555
C15 C16 1_555 1_555
C17 N1 1_555 1_555
C18 N2 1_555 1_555

#END
