
#######################################################################
#
#                 Cambridge Crystallographic Data Centre
#                                CCDC 
#
#######################################################################
#
# If this CIF has been generated from an entry in the Cambridge 
# Structural Database, then it will include bibliographic, chemical, 
# crystal, experimental, refinement or atomic coordinate data resulting 
# from the CCDC's data processing and validation procedures.
#
#######################################################################

data_RIHDAO
_chemical_formula_moiety         'C11 H11 N1 O1'
_chemical_name_systematic        8-Methoxy-2-methylquinoline
_symmetry_cell_setting           monoclinic
_symmetry_space_group_name_H-M   'C 2/c'
_symmetry_Int_Tables_number      15
_space_group_name_Hall           '-C 2yn'
loop_
_symmetry_equiv_pos_site_id
_symmetry_equiv_pos_as_xyz
1 x,y,z
2 1/2+x,1/2+y,z
3 -x,y,1/2-z
4 1/2-x,1/2+y,1/2-z
5 -x,-y,-z
6 1/2-x,1/2-y,-z
7 x,-y,1/2+z
8 1/2+x,1/2-y,1/2+z
_cell_length_a                   12.3699(15)
_cell_length_b                   13.3799(16)
_cell_length_c                   22.502(3)
_cell_angle_alpha                90
_cell_angle_beta                 95.685(2)
_cell_angle_gamma                90
_cell_volume                     3705.94
_exptl_crystal_colour            colorless
_exptl_crystal_description       block
_cell_formula_units_Z            16
_exptl_crystal_recrystallization_method 'acetonitrile/ethyl ether'
loop_
_atom_site_label
_atom_site_type_symbol
_atom_site_fract_x
_atom_site_fract_y
_atom_site_fract_z
O1 O 0.74271(11) 0.15865(9) 0.58693(6)
N1 N 0.57238(12) 0.23122(11) 0.63623(6)
C1 C 0.48732(15) 0.26629(15) 0.66019(8)
C2 C 0.47217(17) 0.36938(16) 0.66988(9)
H1 H 0.4105 0.3917 0.6863
C3 C 0.54767(18) 0.43539(15) 0.65518(9)
H2 H 0.5382 0.5033 0.6618
C4 C 0.64109(15) 0.40149(13) 0.62969(8)
C5 C 0.72433(18) 0.46566(15) 0.61435(10)
H3 H 0.7192 0.5342 0.6204
C6 C 0.81189(19) 0.42698(16) 0.59080(10)
H4 H 0.8669 0.4696 0.5812
C7 C 0.82133(17) 0.32373(16) 0.58059(9)
H5 H 0.8820 0.2990 0.5641
C8 C 0.74178(15) 0.25964(13) 0.59475(8)
C9 C 0.64900(14) 0.29722(12) 0.62055(7)
C10 C 0.40475(18) 0.19176(18) 0.67682(12)
H6 H 0.3412 0.1956 0.6488
H7 H 0.3854 0.2063 0.7162
H8 H 0.4349 0.1257 0.6762
C11 C 0.83617(17) 0.11558(17) 0.56500(10)
H9 H 0.8431 0.1401 0.5255
H10 H 0.8288 0.0442 0.5639
H11 H 0.8997 0.1334 0.5908
O2 O 0.13317(12) 0.16984(9) 0.70878(6)
N2 N 0.11457(12) 0.21770(12) 0.59369(7)
C12 C 0.10418(16) 0.23993(18) 0.53695(9)
C13 C 0.09775(19) 0.34002(19) 0.51669(10)
H12 H 0.0884 0.3530 0.4759
C14 C 0.10492(18) 0.41715(18) 0.55569(10)
H13 H 0.1016 0.4828 0.5421
C15 C 0.11774(15) 0.39576(14) 0.61825(10)
C16 C 0.12603(18) 0.47028(16) 0.66199(12)
H14 H 0.1237 0.5375 0.6513
C17 C 0.13752(19) 0.44278(17) 0.72031(11)
H15 H 0.1433 0.4926 0.7492
C18 C 0.14103(17) 0.34306(15) 0.73898(9)
H16 H 0.1492 0.3273 0.7794
C19 C 0.13227(15) 0.26878(13) 0.69660(9)
C20 C 0.12074(13) 0.29363(13) 0.63434(8)
C21 C 0.0976(2) 0.15372(19) 0.49351(10)
H17 H 0.1038 0.0919 0.5152
H18 H 0.1557 0.1587 0.4684
H19 H 0.0292 0.1557 0.4693
C22 C 0.14963(19) 0.14123(16) 0.77003(9)
H20 H 0.2182 0.1667 0.7874
H21 H 0.1495 0.0697 0.7730
H22 H 0.0923 0.1681 0.7910
loop_
_geom_bond_atom_site_label_1
_geom_bond_atom_site_label_2
_geom_bond_site_symmetry_1
_geom_bond_site_symmetry_2
O1 C8 1_555 1_555
O2 C19 1_555 1_555
N1 C1 1_555 1_555
N2 C12 1_555 1_555
C1 C2 1_555 1_555
C2 H1 1_555 1_555
C3 C2 1_555 1_555
H2 C3 1_555 1_555
C4 C3 1_555 1_555
C5 C4 1_555 1_555
H3 C5 1_555 1_555
C6 C5 1_555 1_555
H4 C6 1_555 1_555
C7 C6 1_555 1_555
H5 C7 1_555 1_555
C8 C7 1_555 1_555
C9 N1 1_555 1_555
C10 C1 1_555 1_555
H6 C10 1_555 1_555
H7 C10 1_555 1_555
H8 C10 1_555 1_555
C11 O1 1_555 1_555
H9 C11 1_555 1_555
H10 C11 1_555 1_555
H11 C11 1_555 1_555
C12 C13 1_555 1_555
C13 H12 1_555 1_555
C14 C13 1_555 1_555
H13 C14 1_555 1_555
C15 C14 1_555 1_555
C16 C15 1_555 1_555
H14 C16 1_555 1_555
C17 C16 1_555 1_555
H15 C17 1_555 1_555
C18 C17 1_555 1_555
H16 C18 1_555 1_555
C19 C18 1_555 1_555
C20 N2 1_555 1_555
C21 C12 1_555 1_555
H17 C21 1_555 1_555
H18 C21 1_555 1_555
H19 C21 1_555 1_555
C22 O2 1_555 1_555
H20 C22 1_555 1_555
H21 C22 1_555 1_555
H22 C22 1_555 1_555
C4 C9 1_555 1_555
C8 C9 1_555 1_555
C15 C20 1_555 1_555
C19 C20 1_555 1_555

#END
