
#######################################################################
#
#                 Cambridge Crystallographic Data Centre
#                                CCDC 
#
#######################################################################
#
# If this CIF has been generated from an entry in the Cambridge 
# Structural Database, then it will include bibliographic, chemical, 
# crystal, experimental, refinement or atomic coordinate data resulting 
# from the CCDC's data processing and validation procedures.
#
#######################################################################

data_RIHJOK
_chemical_formula_moiety         'C13 H14 N1 O1 1+,H2 O1,Br1 1-'
_chemical_name_systematic        
'1-allyl-2-hydroxy-6-methylquinolinium bromide monohydrate'
_symmetry_cell_setting           monoclinic
_symmetry_space_group_name_H-M   'C 2/c'
_symmetry_Int_Tables_number      15
_space_group_name_Hall           '-C 2yn'
loop_
_symmetry_equiv_pos_site_id
_symmetry_equiv_pos_as_xyz
1 x,y,z
2 -x,y,1/2-z
3 1/2+x,1/2+y,z
4 1/2-x,1/2+y,1/2-z
5 -x,-y,-z
6 x,-y,1/2+z
7 1/2-x,1/2-y,-z
8 1/2+x,1/2-y,1/2+z
_cell_length_a                   20.3851(11)
_cell_length_b                   10.4133(6)
_cell_length_c                   14.4227(9)
_cell_angle_alpha                90
_cell_angle_beta                 118.367(2)
_cell_angle_gamma                90
_cell_volume                     2693.97
_exptl_crystal_colour            colorless
_exptl_crystal_description       block
_cell_formula_units_Z            8
loop_
_atom_site_label
_atom_site_type_symbol
_atom_site_fract_x
_atom_site_fract_y
_atom_site_fract_z
Br1 Br 0.286708(13) 0.28535(2) 0.21657(2)
O1 O 0.68426(11) 0.01909(17) 0.76383(17)
H1 H 0.7139 0.0584 0.7475
H2 H 0.6945 -0.0606 0.7706
N1 N 0.47810(10) 0.25879(15) 0.57677(14)
C1 C 0.29909(19) 0.1119(3) 0.4819(4)
C2 C 0.37089(15) 0.1187(2) 0.5401(2)
H3 H 0.3916 0.0913 0.6097
C3 C 0.42188(12) 0.1685(2) 0.50085(18)
H4 H 0.4472 0.0969 0.4886
H5 H 0.3927 0.2121 0.4342
C4 C 0.46068(11) 0.39020(17) 0.57349(15)
C5 C 0.38945(12) 0.4372(2) 0.50544(17)
H6 H 0.3522 0.3819 0.4600
C6 C 0.37539(13) 0.5655(2) 0.50668(18)
H7 H 0.3277 0.5960 0.4624
C7 C 0.42993(13) 0.6523(2) 0.57184(18)
C8 C 0.41129(18) 0.7930(2) 0.5714(2)
H8 H 0.3854 0.8051 0.6116
H9 H 0.3802 0.8208 0.5002
H10 H 0.4565 0.8424 0.6021
C9 C 0.54482(12) 0.21363(18) 0.64651(17)
C10 C 0.60115(12) 0.29769(19) 0.71625(18)
H11 H 0.6475 0.2656 0.7645
C11 C 0.58722(12) 0.4248(2) 0.71242(16)
H12 H 0.6246 0.4803 0.7573
C12 C 0.51651(11) 0.47448(18) 0.64095(15)
C13 C 0.49996(13) 0.60665(19) 0.63755(17)
H13 H 0.5372 0.6636 0.6806
O2 O 0.55420(9) 0.08979(15) 0.64580(14)
H14 H 0.5922(17) 0.070(3) 0.675(2)
H15 H 0.264(2) 0.070(4) 0.508(2)
H16 H 0.278(3) 0.131(4) 0.416(4)
loop_
_geom_bond_atom_site_label_1
_geom_bond_atom_site_label_2
_geom_bond_site_symmetry_1
_geom_bond_site_symmetry_2
O1 H1 1_555 1_555
H2 O1 1_555 1_555
N1 C3 1_555 1_555
C1 C2 1_555 1_555
C2 H3 1_555 1_555
C3 C2 1_555 1_555
H4 C3 1_555 1_555
H5 C3 1_555 1_555
C4 N1 1_555 1_555
C5 C4 1_555 1_555
H6 C5 1_555 1_555
C6 C5 1_555 1_555
H7 C6 1_555 1_555
C7 C6 1_555 1_555
C8 C7 1_555 1_555
H8 C8 1_555 1_555
H9 C8 1_555 1_555
H10 C8 1_555 1_555
C9 N1 1_555 1_555
C10 C9 1_555 1_555
H11 C10 1_555 1_555
C11 C10 1_555 1_555
H12 C11 1_555 1_555
C12 C4 1_555 1_555
C13 C7 1_555 1_555
H13 C13 1_555 1_555
O2 C9 1_555 1_555
H14 O2 1_555 1_555
H15 C1 1_555 1_555
H16 C1 1_555 1_555
C11 C12 1_555 1_555
C12 C13 1_555 1_555

#END
