
#######################################################################
#
#                 Cambridge Crystallographic Data Centre
#                                CCDC 
#
#######################################################################
#
# If this CIF has been generated from an entry in the Cambridge 
# Structural Database, then it will include bibliographic, chemical, 
# crystal, experimental, refinement or atomic coordinate data resulting 
# from the CCDC's data processing and validation procedures.
#
#######################################################################

data_RIHKOK
_chemical_formula_moiety         'C18 H14 B1 F2 N1 O1'
_chemical_name_systematic        
1,1-Difluoro-3-(4-methylphenyl)-1H-11\l^5^,1\l^5^-[1,3,2]oxazaborinino[3,4-a]quinoline
_symmetry_cell_setting           monoclinic
_symmetry_space_group_name_H-M   'P 21/n'
_symmetry_Int_Tables_number      14
_space_group_name_Hall           '-P 2yn'
loop_
_symmetry_equiv_pos_site_id
_symmetry_equiv_pos_as_xyz
1 x,y,z
2 1/2-x,1/2+y,1/2-z
3 -x,-y,-z
4 1/2+x,1/2-y,1/2+z
_cell_length_a                   8.2951(2)
_cell_length_b                   12.8843(2)
_cell_length_c                   13.5914(3)
_cell_angle_alpha                90
_cell_angle_beta                 103.305(2)
_cell_angle_gamma                90
_cell_volume                     1413.61
_exptl_crystal_colour            yellow
_exptl_crystal_description       prism
_cell_formula_units_Z            4
loop_
_atom_site_label
_atom_site_type_symbol
_atom_site_fract_x
_atom_site_fract_y
_atom_site_fract_z
F1 F 0.72971(9) 0.47701(6) 0.86094(6)
F2 F 0.54109(9) 0.53220(5) 0.72187(6)
O1 O 0.75943(10) 0.43171(6) 0.70060(7)
N1 N 0.53414(12) 0.35129(7) 0.77054(7)
B1 B 0.64333(17) 0.45109(10) 0.76385(10)
C1 C 0.57361(14) 0.25990(9) 0.73283(8)
C2 C 0.47479(15) 0.17039(9) 0.73521(9)
H1 H 0.5055 0.1062 0.7105
C3 C 0.33704(15) 0.17588(9) 0.77247(9)
H2 H 0.2683 0.1166 0.7704
C4 C 0.15690(15) 0.27725(10) 0.85826(9)
H3 H 0.0861 0.2190 0.8565
C5 C 0.12392(15) 0.36731(10) 0.90306(9)
H4 H 0.0297 0.3721 0.9314
C6 C 0.23029(15) 0.45254(10) 0.90683(9)
H5 H 0.2088 0.5143 0.9398
C7 C 0.36510(15) 0.44876(9) 0.86382(9)
H6 H 0.4352 0.5076 0.8669
C8 C 0.39874(14) 0.35735(9) 0.81527(8)
C9 C 0.29529(14) 0.27015(9) 0.81461(9)
C10 C 0.71295(14) 0.25330(9) 0.68854(9)
H7 H 0.7464 0.1871 0.6697
C11 C 0.79932(14) 0.33811(9) 0.67236(8)
C12 C 0.93967(14) 0.33723(9) 0.62279(8)
C13 C 1.03144(15) 0.42738(10) 0.62095(9)
H8 H 1.0016 0.4890 0.6507
C14 C 1.16572(15) 0.42839(10) 0.57625(10)
H9 H 1.2277 0.4905 0.5769
C15 C 1.21108(15) 0.33997(10) 0.53052(9)
C16 C 1.11864(15) 0.24975(10) 0.53231(9)
H10 H 1.1480 0.1884 0.5018
C17 C 0.98509(15) 0.24752(9) 0.57756(9)
H11 H 0.9243 0.1851 0.5779
C18 C 1.35408(17) 0.34234(12) 0.47931(11)
H12 H 1.3453 0.2834 0.4328
H13 H 1.4586 0.3378 0.5304
H14 H 1.3513 0.4073 0.4415
H15? H 1.4248 0.4023 0.5037
H16? H 1.3115 0.3479 0.4060
H17? H 1.4189 0.2784 0.4950
loop_
_geom_bond_atom_site_label_1
_geom_bond_atom_site_label_2
_geom_bond_site_symmetry_1
_geom_bond_site_symmetry_2
F1 B1 1_555 1_555
F2 B1 1_555 1_555
O1 B1 1_555 1_555
N1 B1 1_555 1_555
C1 N1 1_555 1_555
C2 C1 1_555 1_555
H1 C2 1_555 1_555
C3 C2 1_555 1_555
H2 C3 1_555 1_555
C4 H3 1_555 1_555
C5 C4 1_555 1_555
H4 C5 1_555 1_555
C6 C5 1_555 1_555
H5 C6 1_555 1_555
C7 C6 1_555 1_555
H6 C7 1_555 1_555
C8 N1 1_555 1_555
C9 C3 1_555 1_555
C10 C1 1_555 1_555
H7 C10 1_555 1_555
C11 O1 1_555 1_555
C12 C11 1_555 1_555
C13 C12 1_555 1_555
H8 C13 1_555 1_555
C14 C13 1_555 1_555
H9 C14 1_555 1_555
C15 C14 1_555 1_555
C16 C15 1_555 1_555
H10 C16 1_555 1_555
C17 C12 1_555 1_555
H11 C17 1_555 1_555
C18 C15 1_555 1_555
H12 C18 1_555 1_555
H13 C18 1_555 1_555
H14 C18 1_555 1_555
C4 C9 1_555 1_555
C7 C8 1_555 1_555
C8 C9 1_555 1_555
C10 C11 1_555 1_555
C16 C17 1_555 1_555

#END
