
#######################################################################
#
#                 Cambridge Crystallographic Data Centre
#                                CCDC 
#
#######################################################################
#
# If this CIF has been generated from an entry in the Cambridge 
# Structural Database, then it will include bibliographic, chemical, 
# crystal, experimental, refinement or atomic coordinate data resulting 
# from the CCDC's data processing and validation procedures.
#
#######################################################################

data_RIHSOT
_chemical_formula_moiety         'C15 H9 F2 N3 O2 S1'
_chemical_name_systematic        
{3-[5-(2,4-difluorophenyl)furan-2-carbonyl]-1,3-thiazolidin-2-ylidene}cyanamide
_symmetry_cell_setting           monoclinic
_symmetry_space_group_name_H-M   'P 21/c'
_symmetry_Int_Tables_number      14
_space_group_name_Hall           '-P 2ybc'
loop_
_symmetry_equiv_pos_site_id
_symmetry_equiv_pos_as_xyz
1 x,y,z
2 -x,1/2+y,1/2-z
3 -x,-y,-z
4 x,1/2-y,1/2+z
_cell_length_a                   17.065(3)
_cell_length_b                   6.2298(9)
_cell_length_c                   13.312(2)
_cell_angle_alpha                90
_cell_angle_beta                 97.980(4)
_cell_angle_gamma                90
_cell_volume                     1401.52
_exptl_crystal_colour            colorless
_exptl_crystal_description       Prism
_cell_formula_units_Z            4
_exptl_crystal_preparation       Fiber
loop_
_atom_site_label
_atom_site_type_symbol
_atom_site_fract_x
_atom_site_fract_y
_atom_site_fract_z
S1 S 0.04400(2) 0.51717(5) 0.34357(2)
F1 F 0.53947(4) 0.83809(12) 0.22122(5)
F2 F 0.76131(4) 0.80294(12) 0.47040(6)
O1 O 0.27411(5) 0.71399(14) 0.56226(6)
O2 O 0.39110(4) 0.73624(12) 0.44051(6)
N1 N 0.17594(5) 0.68257(16) 0.42824(7)
N2 N 0.19277(5) 0.40275(17) 0.31542(7)
N3 N 0.13189(6) 0.1172(2) 0.19967(10)
C1 C 0.03878(7) 0.7566(2) 0.42032(9)
H1 H 0.0334 0.8870 0.3774
H2 H -0.0066 0.7489 0.4591
C2 C 0.11661(7) 0.7584(2) 0.49122(9)
H3 H 0.1295 0.9050 0.5171
H4 H 0.1142 0.6611 0.5495
C3 C 0.14758(6) 0.52891(18) 0.36020(8)
C4 C 0.15703(7) 0.2534(2) 0.25341(10)
C5 C 0.25753(6) 0.70710(17) 0.47129(8)
C6 C 0.31281(6) 0.74031(17) 0.39968(8)
C7 C 0.30534(7) 0.79155(18) 0.29907(8)
H5 H 0.2574 0.8056 0.2538
C8 C 0.38281(6) 0.81963(18) 0.27544(8)
H6 H 0.3972 0.8559 0.2111
C9 C 0.43317(6) 0.78442(17) 0.36339(8)
C10 C 0.51885(6) 0.78682(16) 0.39132(8)
C11 C 0.57033(7) 0.81637(17) 0.32002(8)
C12 C 0.65141(7) 0.82312(18) 0.34371(9)
H7 H 0.6848 0.8450 0.2932
C13 C 0.68169(6) 0.79651(18) 0.44460(9)
C14 C 0.63484(7) 0.76436(18) 0.51957(9)
H8 H 0.6577 0.7458 0.5883
C15 C 0.55348(6) 0.75977(17) 0.49220(8)
H9 H 0.5204 0.7378 0.5431
loop_
_geom_bond_atom_site_label_1
_geom_bond_atom_site_label_2
_geom_bond_site_symmetry_1
_geom_bond_site_symmetry_2
S1 C1 1_555 1_555
F1 C11 1_555 1_555
F2 C13 1_555 1_555
O1 C5 1_555 1_555
O2 C6 1_555 1_555
N1 C2 1_555 1_555
N2 C3 1_555 1_555
N3 C4 1_555 1_555
C1 H1 1_555 1_555
H2 C1 1_555 1_555
C2 C1 1_555 1_555
H3 C2 1_555 1_555
H4 C2 1_555 1_555
C3 S1 1_555 1_555
C4 N2 1_555 1_555
C5 N1 1_555 1_555
C6 C5 1_555 1_555
C7 C6 1_555 1_555
H5 C7 1_555 1_555
C8 C7 1_555 1_555
H6 C8 1_555 1_555
C9 O2 1_555 1_555
C10 C9 1_555 1_555
C11 C10 1_555 1_555
C12 C11 1_555 1_555
H7 C12 1_555 1_555
C13 C12 1_555 1_555
C14 C13 1_555 1_555
H8 C14 1_555 1_555
C15 C10 1_555 1_555
H9 C15 1_555 1_555
N1 C3 1_555 1_555
C8 C9 1_555 1_555
C14 C15 1_555 1_555

#END
