
#######################################################################
#
#                 Cambridge Crystallographic Data Centre
#                                CCDC 
#
#######################################################################
#
# If this CIF has been generated from an entry in the Cambridge 
# Structural Database, then it will include bibliographic, chemical, 
# crystal, experimental, refinement or atomic coordinate data resulting 
# from the CCDC's data processing and validation procedures.
#
#######################################################################

data_RIHVUC
_chemical_formula_moiety         'C18 H23 B10 N1'
_chemical_name_systematic        
1-methyl-2,7-(1-methylbenzo(f)quinoline-3-yl-2-ylmethyl)-1,2-dicarba-closo-dodecaborane
_symmetry_cell_setting           orthorhombic
_symmetry_space_group_name_H-M   'A m a 2'
_symmetry_Int_Tables_number      40
_space_group_name_Hall           'A 2 -2a'
loop_
_symmetry_equiv_pos_site_id
_symmetry_equiv_pos_as_xyz
1 x,y,z
2 -x,-y,z
3 1/2+x,-y,z
4 1/2-x,y,z
5 x,1/2+y,1/2+z
6 -x,1/2-y,1/2+z
7 1/2+x,1/2-y,1/2+z
8 1/2-x,1/2+y,1/2+z
_cell_length_a                   7.2240(3)
_cell_length_b                   24.5840(11)
_cell_length_c                   11.2382(5)
_cell_angle_alpha                90
_cell_angle_beta                 90
_cell_angle_gamma                90
_cell_volume                     1995.85
_exptl_crystal_colour            colorless
_exptl_crystal_description       block
_cell_formula_units_Z            4
loop_
_atom_site_label
_atom_site_type_symbol
_atom_site_fract_x
_atom_site_fract_y
_atom_site_fract_z
N1 N 0.7500 0.04037(13) 0.6453(3)
C1 C 0.7500 0.13260(15) 0.5638(4)
C2 C 0.5401(14) 0.0807(3) 0.4089(8)
H1 H 0.4784 0.0843 0.3337
H2 H 0.6282 0.0515 0.4047
H3 H 0.4506 0.0730 0.4698
C3 C 0.7500 0.09326(14) 0.6639(4)
C4 C 0.7500 0.11907(14) 0.7737(4)
C5 C 0.7500 0.18127(16) 0.7671(5)
H4 H 0.8592 0.1962 0.8053
C6 C 0.7500 0.08783(16) 0.8759(4)
C7 C 0.7500 0.1174(2) 0.9941(5)
C8 C 0.7500 0.03010(16) 0.8627(4)
C9 C 0.7500 -0.00934(18) 0.9604(4)
C10 C 0.7500 0.0034(3) 1.0802(5)
H5 H 0.7500 0.0398 1.1028
C11 C 0.7500 -0.0357(3) 1.1666(6)
H6 H 0.7500 -0.0250 1.2460
C12 C 0.7500 -0.0896(3) 1.1408(6)
H7 H 0.7500 -0.1155 1.2012
C13 C 0.7500 -0.10469(19) 1.0258(5)
H8 H 0.7500 -0.1415 1.0064
C14 C 0.7500 -0.06530(16) 0.9337(4)
C15 C 0.7500 -0.08378(16) 0.8134(5)
H9 H 0.7500 -0.1209 0.7974
C16 C 0.7500 -0.04822(16) 0.7235(4)
H10 H 0.7500 -0.0609 0.6456
C17 C 0.7500 0.00902(14) 0.7452(3)
B1 B 0.5514(5) 0.16936(15) 0.5523(4)
H11 H 0.4312 0.1697 0.6124
B2 B 0.7500 0.19466(18) 0.6289(5)
B3 B 0.5528(7) 0.19451(18) 0.4068(4)
H12 H 0.4342 0.2137 0.3620
B4 B 0.6260(6) 0.23681(15) 0.5267(4)
H13 H 0.5454 0.2722 0.5566
B5 B 0.7500 0.1676(3) 0.3335(6)
H14 H 0.7500 0.1733 0.2365
B6 B 0.7500 0.2367(3) 0.3911(7)
H15 H 0.7500 0.2726 0.3326
C18 C 0.6322(7) 0.12933(15) 0.4361(3)
C2C C 0.9599(14) 0.0807(3) 0.4089(8)
H1C H 1.0216 0.0843 0.3337
H2C H 0.8718 0.0515 0.4047
H3C H 1.0494 0.0730 0.4698
H4C H 0.6408 0.1962 0.8053
B1C B 0.9486(5) 0.16936(15) 0.5523(4)
H11C H 1.0688 0.1697 0.6124
B3C B 0.9472(7) 0.19451(18) 0.4068(4)
H12C H 1.0658 0.2137 0.3620
B4C B 0.8740(6) 0.23681(15) 0.5267(4)
H13C H 0.9546 0.2722 0.5566
C18C C 0.8678(7) 0.12933(15) 0.4361(3)
H16? H 0.8592 0.1962 0.8053
H17? H 0.806(5) 0.1584(17) 0.974(4)
H18? H 0.852(6) 0.1132(17) 1.043(4)
B7? B 0.6322(7) 0.12933(15) 0.4361(3)
loop_
_geom_bond_atom_site_label_1
_geom_bond_atom_site_label_2
_geom_bond_site_symmetry_1
_geom_bond_site_symmetry_2
N1 C3 1_555 1_555
C1 C3 1_555 1_555
C2 H1 1_555 1_555
H2 C2 1_555 1_555
H3 C2 1_555 1_555
C3 C4 1_555 1_555
C4 C5 1_555 1_555
C5 H4 1_555 1_555
C6 C4 1_555 1_555
C7 C6 1_555 1_555
C8 C6 1_555 1_555
C9 C8 1_555 1_555
C10 C9 1_555 1_555
H5 C10 1_555 1_555
C11 C10 1_555 1_555
H6 C11 1_555 1_555
C12 C11 1_555 1_555
H7 C12 1_555 1_555
C13 C12 1_555 1_555
H8 C13 1_555 1_555
C14 C9 1_555 1_555
C15 C14 1_555 1_555
H9 C15 1_555 1_555
C16 C15 1_555 1_555
H10 C16 1_555 1_555
C17 N1 1_555 1_555
B1 C1 1_555 1_555
H11 B1 1_555 1_555
B2 C1 1_555 1_555
B3 B1 1_555 1_555
H12 B3 1_555 1_555
B4 B1 1_555 1_555
H13 B4 1_555 1_555
B5 B3 1_555 1_555
H14 B5 1_555 1_555
B6 B3 1_555 1_555
H15 B6 1_555 1_555
C18 C1 1_555 1_555
C2C H1C 1_555 1_555
H2C C2C 1_555 1_555
H3C C2C 1_555 1_555
H4C C5 1_555 1_555
B1C C1 1_555 1_555
H11C B1C 1_555 1_555
B3C B5 1_555 1_555
H12C B3C 1_555 1_555
B4C B2 1_555 1_555
H13C B4C 1_555 1_555
C18C C1 1_555 1_555
C2 C18 1_555 1_555
C5 B2 1_555 1_555
C8 C17 1_555 1_555
C13 C14 1_555 1_555
C16 C17 1_555 1_555
B1 B2 1_555 1_555
B1 C18 1_555 1_555
B2 B4 1_555 1_555
B2 B1C 1_555 1_555
B3 B4 1_555 1_555
B3 C18 1_555 1_555
B4 B6 1_555 1_555
B4 B4C 1_555 1_555
B5 B6 1_555 1_555
B5 C18 1_555 1_555
B5 C18C 1_555 1_555
B6 B3C 1_555 1_555
B6 B4C 1_555 1_555
C18 C18C 1_555 1_555
C2C C18C 1_555 1_555
B1C B3C 1_555 1_555
B1C B4C 1_555 1_555
B1C C18C 1_555 1_555
B3C B4C 1_555 1_555
B3C C18C 1_555 1_555

#END
