
#######################################################################
#
#                 Cambridge Crystallographic Data Centre
#                                CCDC 
#
#######################################################################
#
# If this CIF has been generated from an entry in the Cambridge 
# Structural Database, then it will include bibliographic, chemical, 
# crystal, experimental, refinement or atomic coordinate data resulting 
# from the CCDC's data processing and validation procedures.
#
#######################################################################

data_RIHWOU
_chemical_formula_moiety         'C40 H46 N4 O1,C6 H14'
_chemical_name_systematic        
'15-(2-Hydroxyethyl)-5-phenyl-2,8,12,18-tetramethyl-3,7,13,17-tetraethylporphyrin n-hexane solvate'
_symmetry_cell_setting           monoclinic
_symmetry_space_group_name_H-M   'P 21/c'
_symmetry_Int_Tables_number      14
_space_group_name_Hall           '-P 2ybc'
loop_
_symmetry_equiv_pos_site_id
_symmetry_equiv_pos_as_xyz
1 x,y,z
2 -x,1/2+y,1/2-z
3 -x,-y,-z
4 x,1/2-y,1/2+z
_cell_length_a                   8.090(2)
_cell_length_b                   12.598(2)
_cell_length_c                   34.86(2)
_cell_angle_alpha                90
_cell_angle_beta                 94.82(3)
_cell_angle_gamma                90
_cell_volume                     3540.29
_exptl_crystal_colour            red
_cell_formula_units_Z            4
loop_
_atom_site_label
_atom_site_type_symbol
_atom_site_fract_x
_atom_site_fract_y
_atom_site_fract_z
N1 N 0.3489(4) 1.1164(3) 0.1042(1)
N2 N 0.3373(4) 0.9176(3) 0.1324(1)
N3 N 0.0223(4) 0.9720(3) 0.1786(1)
N4 N 0.0537(4) 1.1761(3) 0.1566(1)
C1 C 0.3272(5) 1.2233(3) 0.0988(1)
C2 C 0.4474(5) 1.2577(3) 0.0737(1)
C3 C 0.4661(6) 1.3692(3) 0.0602(1)
C4 C 0.5416(5) 1.1709(3) 0.0651(1)
C5 C 0.6842(5) 1.1799(3) 0.0404(1)
C6 C 0.8396(5) 1.2243(4) 0.0628(1)
C7 C 0.4813(4) 1.0806(3) 0.0854(1)
C8 C 0.5393(5) 0.9759(3) 0.0889(1)
C9 C 0.6880(5) 0.9482(3) 0.0674(1)
C10 C 0.8477(5) 0.9634(3) 0.0841(1)
C11 C 0.9828(5) 0.9365(3) 0.0646(1)
C12 C 0.9606(5) 0.8952(3) 0.0281(1)
C13 C 0.8013(5) 0.8804(3) 0.0106(1)
C14 C 0.6660(5) 0.9059(3) 0.0304(1)
C15 C 0.4748(5) 0.8983(1) 0.1126(1)
C16 C 0.5374(5) 0.7899(3) 0.1203(1)
C17 C 0.6781(6) 0.7293(4) 0.1048(2)
C18 C 0.6187(7) 0.6592(4) 0.0712(2)
C19 C 0.4351(5) 0.7468(3) 0.1450(1)
C20 C 0.4438(6) 0.6382(3) 0.1627(2)
C21 C 0.3084(5) 0.8260(3) 0.1513(1)
C22 C 0.1751(5) 0.8031(3) 0.1728(1)
C23 C 0.0451(5) 0.8654(3) 0.1837(1)
C24 C -0.0876(5) 0.8272(3) 0.2045(1)
C25 C -0.1079(5) 0.7138(3) 0.2163(1)
C26 C -0.1872(5) 0.9120(3) 0.2123(1)
C27 C -0.3325(5) 0.8996(3) 0.2360(1)
C28 C -0.2794(5) 0.9136(3) 0.2786(1)
C29 C -0.1157(5) 1.0063(3) 0.1960(1)
C30 C -0.1659(4) 1.1137(3) 0.1955(1)
C31 C -0.3171(4) 1.1415(3) 0.2164(1)
C32 C -0.4763(4) 1.1294(3) 0.1903(1)
C33 C -0.0862(4) 1.1942(3) 0.1758(1)
C34 C -0.1384(5) 1.3066(3) 0.1704(1)
C35 C -0.2810(5) 1.3703(3) 0.1848(1)
C36 C -0.2336(5) 1.4277(3) 0.2225(1)
C37 C -0.0281(5) 1.3522(3) 0.1484(1)
C38 C -0.0255(5) 1.4638(3) 0.1345(1)
C39 C 0.0896(5) 1.2703(3) 0.1394(1)
C40 C 0.2127(5) 1.2889(3) 0.1151(1)
O1 O -0.6117(3) 1.1532(2) 0.2124(1)
H1 H 0.2865 1.0751 0.1184
H2 H 0.0885 1.0144 0.1659
H3 H 0.5557 1.3739 0.0439
H4 H 0.3647 1.3908 0.0460
H5 H 0.4882 1.4148 0.0821
H6 H 0.6539 1.2262 0.0190
H7 H 0.7084 1.1112 0.0303
H8 H 0.9294 1.2294 0.0466
H9 H 0.8154 1.2934 0.0725
H10 H 0.8704 1.1775 0.0839
H11 H 0.8628 0.9921 0.1097
H12 H 1.0932 0.9469 0.0764
H13 H 1.0543 0.8761 0.0143
H14 H 0.7861 0.8531 -0.0152
H15 H 0.5560 0.8935 0.0187
H16 H 0.7311 0.6854 0.1247
H17 H 0.7588 0.7783 0.0965
H18 H 0.7085 0.6208 0.0614
H19 H 0.5388 0.6100 0.0797
H20 H 0.5667 0.7036 0.0513
H21 H 0.5366 0.6004 0.1540
H22 H 0.4568 0.6444 0.1903
H23 H 0.3433 0.6003 0.1552
H24 H 0.1713 0.7309 0.1815
H25 H -0.2056 0.7070 0.2299
H26 H -0.1184 0.6697 0.1937
H27 H -0.0126 0.6920 0.2327
H28 H -0.3809 0.8306 0.2316
H29 H -0.4149 0.9520 0.2282
H30 H -0.3732 0.9058 0.2935
H31 H -0.1979 0.8607 0.2862
H32 H -0.2321 0.9830 0.2828
H33 H -0.3074 1.2132 0.2257
H34 H -0.3221 1.0952 0.2382
H35 H -0.4854 1.0584 0.1804
H36 H -0.4745 1.1778 0.1691
H37 H -0.3710 1.3228 0.1885
H38 H -0.3192 1.4214 0.1656
H39 H -0.3265 1.4664 0.2308
H40 H -0.1970 1.3765 0.2418
H41 H -0.1448 1.4760 0.2187
H42 H -0.1152 1.5022 0.1444
H43 H 0.0780 1.4962 0.1435
H44 H -0.0378 1.4651 0.1069
H45 H 0.2237 1.3621 0.1081
H46 H -0.7019 1.1474 0.1982
C41 C 0.1522(8) 0.6530(5) 0.0678(2)
C42 C 0.1232(8) 0.6110(5) 0.0269(2)
C43 C 0.0146(8) 0.5165(5) 0.0199(2)
H47 H 0.2228 0.7143 0.0682
H48 H 0.0486 0.6718 0.0776
H49 H 0.2051 0.5984 0.0837
H50 H 0.1708 0.6456 0.0059
H51 H -0.0907 0.5308 0.0296
H52 H 0.0645 0.4584 0.0345
C43B C -0.0146(8) 0.4835(5) -0.0199(2)
C42B C -0.1232(8) 0.3890(5) -0.0269(2)
C41B C -0.1522(8) 0.3470(5) -0.0678(2)
H47B H -0.2228 0.2857 -0.0682
H48B H -0.0486 0.3282 -0.0776
H49B H -0.2051 0.4016 -0.0837
H50B H -0.1708 0.3544 -0.0059
H51B H 0.0907 0.4692 -0.0296
H52B H -0.0645 0.5416 -0.0345
loop_
_geom_bond_atom_site_label_1
_geom_bond_atom_site_label_2
_geom_bond_site_symmetry_1
_geom_bond_site_symmetry_2
N1 C1 1_555 1_555
N2 C15 1_555 1_555
N3 C23 1_555 1_555
N4 C33 1_555 1_555
C1 C2 1_555 1_555
C2 C3 1_555 1_555
C3 H3 1_555 1_555
C4 C2 1_555 1_555
C5 C4 1_555 1_555
C6 C5 1_555 1_555
C7 N1 1_555 1_555
C8 C7 1_555 1_555
C9 C8 1_555 1_555
C10 C9 1_555 1_555
C11 C10 1_555 1_555
C12 C11 1_555 1_555
C13 C12 1_555 1_555
C14 C9 1_555 1_555
C15 C8 1_555 1_555
C16 C15 1_555 1_555
C17 C16 1_555 1_555
C18 C17 1_555 1_555
C19 C16 1_555 1_555
C20 C19 1_555 1_555
C21 N2 1_555 1_555
C22 C21 1_555 1_555
C23 C22 1_555 1_555
C24 C23 1_555 1_555
C25 C24 1_555 1_555
C26 C24 1_555 1_555
C27 C26 1_555 1_555
C28 C27 1_555 1_555
C29 N3 1_555 1_555
C30 C29 1_555 1_555
C31 C30 1_555 1_555
C32 C31 1_555 1_555
C33 C30 1_555 1_555
C34 C33 1_555 1_555
C35 C34 1_555 1_555
C36 C35 1_555 1_555
C37 C34 1_555 1_555
C38 C37 1_555 1_555
C39 N4 1_555 1_555
C40 C1 1_555 1_555
O1 C32 1_555 1_555
C41 C42 1_555 1_555
C42 C43 1_555 1_555
C43 H51 1_555 1_555
H1 N1 1_555 1_555
H2 N3 1_555 1_555
H4 C3 1_555 1_555
H5 C3 1_555 1_555
H6 C5 1_555 1_555
H7 C5 1_555 1_555
H8 C6 1_555 1_555
H9 C6 1_555 1_555
H10 C6 1_555 1_555
H11 C10 1_555 1_555
H12 C11 1_555 1_555
H13 C12 1_555 1_555
H14 C13 1_555 1_555
H15 C14 1_555 1_555
H16 C17 1_555 1_555
H17 C17 1_555 1_555
H18 C18 1_555 1_555
H19 C18 1_555 1_555
H20 C18 1_555 1_555
H21 C20 1_555 1_555
H22 C20 1_555 1_555
H23 C20 1_555 1_555
H24 C22 1_555 1_555
H25 C25 1_555 1_555
H26 C25 1_555 1_555
H27 C25 1_555 1_555
H28 C27 1_555 1_555
H29 C27 1_555 1_555
H30 C28 1_555 1_555
H31 C28 1_555 1_555
H32 C28 1_555 1_555
H33 C31 1_555 1_555
H34 C31 1_555 1_555
H35 C32 1_555 1_555
H36 C32 1_555 1_555
H37 C35 1_555 1_555
H38 C35 1_555 1_555
H39 C36 1_555 1_555
H40 C36 1_555 1_555
H41 C36 1_555 1_555
H42 C38 1_555 1_555
H43 C38 1_555 1_555
H44 C38 1_555 1_555
H45 C40 1_555 1_555
H46 O1 1_555 1_555
H47 C41 1_555 1_555
H48 C41 1_555 1_555
H49 C41 1_555 1_555
H50 C42 1_555 1_555
H52 C43 1_555 1_555
C43B C43 1_555 1_555
C42B C43B 1_555 1_555
C41B C42B 1_555 1_555
H47B C41B 1_555 1_555
H48B C41B 1_555 1_555
H49B C41B 1_555 1_555
H50B C42B 1_555 1_555
H51B C43B 1_555 1_555
H52B C43B 1_555 1_555
C4 C7 1_555 1_555
C13 C14 1_555 1_555
C19 C21 1_555 1_555
C26 C29 1_555 1_555
C37 C39 1_555 1_555
C39 C40 1_555 1_555

#END
