
#######################################################################
#
#                 Cambridge Crystallographic Data Centre
#                                CCDC 
#
#######################################################################
#
# If this CIF has been generated from an entry in the Cambridge 
# Structural Database, then it will include bibliographic, chemical, 
# crystal, experimental, refinement or atomic coordinate data resulting 
# from the CCDC's data processing and validation procedures.
#
#######################################################################

data_RIHWIO
_chemical_formula_moiety         'C50 H60 N6'
_chemical_name_systematic        
5,15-bis(4-Pyridyl)-2,8,12,18-tetrakis(n-butyl)-3,7,13,17-tetramethylporphyrin
_symmetry_cell_setting           triclinic
_symmetry_space_group_name_H-M   'P -1'
_symmetry_Int_Tables_number      2
_space_group_name_Hall           '-P 1'
loop_
_symmetry_equiv_pos_site_id
_symmetry_equiv_pos_as_xyz
1 x,y,z
2 -x,-y,-z
_cell_length_a                   8.851(3)
_cell_length_b                   10.177(5)
_cell_length_c                   12.631(6)
_cell_angle_alpha                107.68(4)
_cell_angle_beta                 92.36(3)
_cell_angle_gamma                104.24(3)
_cell_volume                     1042.41
_exptl_crystal_colour            red
_chemical_melting_point          'above 300deg.C'
_cell_formula_units_Z            1
loop_
_atom_site_label
_atom_site_type_symbol
_atom_site_fract_x
_atom_site_fract_y
_atom_site_fract_z
N1 N 0.5973(3) -0.1596(3) 0.5181(2)
N2 N 0.3427(3) 0.0033(2) 0.6209(2)
C1 C 0.7125(3) -0.2188(3) 0.4733(2)
C2 C 0.7288(3) -0.3270(3) 0.5255(2)
C3 C 0.8425(4) -0.4177(3) 0.5079(3)
C4 C 0.6186(3) -0.3305(3) 0.5974(2)
C5 C 0.5856(4) -0.4195(3) 0.6734(2)
C6 C 0.6705(4) -0.3422(3) 0.7925(3)
C7 C 0.6058(4) -0.4161(4) 0.8755(3)
C8 C 0.7014(5) -0.3513(5) 0.9895(3)
C9 C 0.5378(3) -0.2239(3) 0.5933(2)
C10 C 0.4201(3) -0.1959(3) 0.6595(2)
C11 C 0.3322(3) -0.0981(3) 0.6721(2)
C12 C 0.2074(3) -0.0921(3) 0.7428(3)
C13 C 0.1688(3) -0.1831(3) 0.8173(3)
C14 C 0.2795(4) -0.1266(3) 0.9278(3)
C15 C 0.2509(4) -0.2223(3) 1.0013(3)
C16 C 0.3598(5) -0.1621(4) 1.1096(3)
C17 C 0.1423(3) 0.0117(3) 0.7312(3)
C18 C 0.0022(4) 0.0461(4) 0.7860(3)
C19 C 0.2285(3) 0.0728(3) 0.6538(2)
C20 C 0.7958(3) -0.1793(3) 0.3900(2)
C21 C 0.9207(3) -0.2501(3) 0.3477(2)
C22 C 0.8883(4) -0.3698(3) 0.2518(3)
C23 C 1.0085(4) -0.4299(3) 0.2144(3)
C24 C 1.1854(4) -0.2664(3) 0.3581(3)
C25 C 1.0732(4) -0.1989(3) 0.4004(3)
N3 N 1.1550(3) -0.3802(3) 0.2665(2)
H1 H 0.5660 -0.0900 0.5010
H2 H 0.8237 -0.4784 0.5538
H3 H 0.8288 -0.4757 0.4306
H4 H 0.9478 -0.3564 0.5281
H5 H 0.6182 -0.5052 0.6427
H6 H 0.4745 -0.4471 0.6765
H7 H 0.6592 -0.2465 0.8164
H8 H 0.7805 -0.3359 0.7924
H9 H 0.6036 -0.5155 0.8462
H10 H 0.4998 -0.4109 0.8832
H11 H 0.6565 -0.4018 1.0387
H12 H 0.8071 -0.3580 0.9824
H13 H 0.7023 -0.2524 1.0198
H14 H 0.3940 -0.2572 0.7046
H15 H 0.1739 -0.2784 0.7778
H16 H 0.0631 -0.1885 0.8340
H17 H 0.2685 -0.0343 0.9699
H18 H 0.3859 -0.1143 0.9110
H19 H 0.2633 -0.3144 0.9599
H20 H 0.1443 -0.2354 1.0178
H21 H 0.3368 -0.2263 1.1526
H22 H 0.4664 -0.1505 1.0933
H23 H 0.3463 -0.0708 1.1518
H24 H -0.0285 -0.0120 0.8329
H25 H 0.0290 0.1455 0.8305
H26 H -0.0833 0.0263 0.7291
H27 H 0.7838 -0.4101 0.2125
H28 H 0.9855 -0.5112 0.1473
H29 H 1.2905 -0.2293 0.3965
H30 H 1.1003 -0.1158 0.4663
C20A C 0.2042(3) 0.1793(3) 0.6100(2)
C1A C 0.2875(3) 0.2188(3) 0.5267(2)
N1A N 0.4027(3) 0.1596(3) 0.4819(2)
C9A C 0.4622(3) 0.2239(3) 0.4067(2)
C4A C 0.3814(3) 0.3305(3) 0.4026(2)
C2A C 0.2712(3) 0.3270(3) 0.4745(2)
C3A C 0.1575(4) 0.4177(3) 0.4921(3)
H2A H 0.1763 0.4784 0.4462
H3A H 0.1712 0.4757 0.5694
H4A H 0.0522 0.3564 0.4719
C5A C 0.4144(4) 0.4195(3) 0.3266(2)
C6A C 0.3295(4) 0.3422(3) 0.2075(3)
C7A C 0.3942(4) 0.4161(4) 0.1245(3)
C8A C 0.2986(5) 0.3513(5) 0.0105(3)
H11A H 0.3435 0.4018 -0.0387
H12A H 0.1929 0.3580 0.0176
H13A H 0.2977 0.2524 -0.0198
H9A H 0.3964 0.5155 0.1538
H10A H 0.5002 0.4109 0.1168
H7A H 0.3408 0.2465 0.1836
H8A H 0.2195 0.3359 0.2076
H5A H 0.3818 0.5052 0.3573
H6A H 0.5255 0.4471 0.3235
C10A C 0.5799(3) 0.1959(3) 0.3405(2)
C11A C 0.6678(3) 0.0981(3) 0.3279(2)
N2A N 0.6573(3) -0.0033(2) 0.3791(2)
C19A C 0.7715(3) -0.0728(3) 0.3462(2)
C17A C 0.8577(3) -0.0117(3) 0.2688(3)
C12A C 0.7926(3) 0.0921(3) 0.2572(3)
C13A C 0.8312(3) 0.1831(3) 0.1827(3)
C14A C 0.7205(4) 0.1266(3) 0.0722(3)
C15A C 0.7491(4) 0.2223(3) -0.0013(3)
C16A C 0.6402(5) 0.1621(4) -0.1096(3)
H21A H 0.6632 0.2263 -0.1526
H22A H 0.5336 0.1505 -0.0933
H23A H 0.6537 0.0708 -0.1518
H19A H 0.7367 0.3144 0.0401
H20A H 0.8557 0.2354 -0.0178
H17A H 0.7315 0.0343 0.0301
H18A H 0.6141 0.1143 0.0890
H15A H 0.8261 0.2784 0.2222
H16A H 0.9369 0.1885 0.1660
C18A C 0.9978(4) -0.0461(4) 0.2140(3)
H24A H 1.0285 0.0120 0.1671
H25A H 0.9710 -0.1455 0.1695
H26A H 1.0833 -0.0263 0.2709
H14A H 0.6060 0.2572 0.2954
H1A H 0.4340 0.0900 0.4990
C21A C 0.0793(3) 0.2501(3) 0.6523(2)
C22A C 0.1117(4) 0.3698(3) 0.7482(3)
C23A C -0.0085(4) 0.4299(3) 0.7856(3)
N3A N -0.1550(3) 0.3802(3) 0.7335(2)
C24A C -0.1854(4) 0.2664(3) 0.6419(3)
C25A C -0.0732(4) 0.1989(3) 0.5996(3)
H30A H -0.1003 0.1158 0.5337
H29A H -0.2905 0.2293 0.6035
H28A H 0.0145 0.5112 0.8527
H27A H 0.2162 0.4101 0.7875
H31? H -0.2299 0.4231 0.7592
loop_
_geom_bond_atom_site_label_1
_geom_bond_atom_site_label_2
_geom_bond_site_symmetry_1
_geom_bond_site_symmetry_2
N1 C1 1_555 1_555
N2 C11 1_555 1_555
C1 C2 1_555 1_555
C2 C3 1_555 1_555
C3 H2 1_555 1_555
C4 C2 1_555 1_555
C5 C4 1_555 1_555
C6 C5 1_555 1_555
C7 C6 1_555 1_555
C8 C7 1_555 1_555
C9 N1 1_555 1_555
C10 C9 1_555 1_555
C11 C10 1_555 1_555
C12 C11 1_555 1_555
C13 C12 1_555 1_555
C14 C13 1_555 1_555
C15 C14 1_555 1_555
C16 C15 1_555 1_555
C17 C12 1_555 1_555
C18 C17 1_555 1_555
C19 N2 1_555 1_555
C20 C1 1_555 1_555
C21 C20 1_555 1_555
C22 C21 1_555 1_555
C23 C22 1_555 1_555
C24 C25 1_555 1_555
C25 C21 1_555 1_555
N3 C23 1_555 1_555
H1 N1 1_555 1_555
H3 C3 1_555 1_555
H4 C3 1_555 1_555
H5 C5 1_555 1_555
H6 C5 1_555 1_555
H7 C6 1_555 1_555
H8 C6 1_555 1_555
H9 C7 1_555 1_555
H10 C7 1_555 1_555
H11 C8 1_555 1_555
H12 C8 1_555 1_555
H13 C8 1_555 1_555
H14 C10 1_555 1_555
H15 C13 1_555 1_555
H16 C13 1_555 1_555
H17 C14 1_555 1_555
H18 C14 1_555 1_555
H19 C15 1_555 1_555
H20 C15 1_555 1_555
H21 C16 1_555 1_555
H22 C16 1_555 1_555
H23 C16 1_555 1_555
H24 C18 1_555 1_555
H25 C18 1_555 1_555
H26 C18 1_555 1_555
H27 C22 1_555 1_555
H28 C23 1_555 1_555
H29 C24 1_555 1_555
H30 C25 1_555 1_555
C20A C19 1_555 1_555
C1A C20A 1_555 1_555
N1A C1A 1_555 1_555
C9A N1A 1_555 1_555
C4A C9A 1_555 1_555
C2A C1A 1_555 1_555
C3A C2A 1_555 1_555
H2A C3A 1_555 1_555
H3A C3A 1_555 1_555
H4A C3A 1_555 1_555
C5A C4A 1_555 1_555
C6A C5A 1_555 1_555
C7A C6A 1_555 1_555
C8A C7A 1_555 1_555
H11A C8A 1_555 1_555
H12A C8A 1_555 1_555
H13A C8A 1_555 1_555
H9A C7A 1_555 1_555
H10A C7A 1_555 1_555
H7A C6A 1_555 1_555
H8A C6A 1_555 1_555
H5A C5A 1_555 1_555
H6A C5A 1_555 1_555
C10A C9A 1_555 1_555
C11A C10A 1_555 1_555
N2A C11A 1_555 1_555
C19A C20 1_555 1_555
C17A C19A 1_555 1_555
C12A C11A 1_555 1_555
C13A C12A 1_555 1_555
C14A C13A 1_555 1_555
C15A C14A 1_555 1_555
C16A C15A 1_555 1_555
H21A C16A 1_555 1_555
H22A C16A 1_555 1_555
H23A C16A 1_555 1_555
H19A C15A 1_555 1_555
H20A C15A 1_555 1_555
H17A C14A 1_555 1_555
H18A C14A 1_555 1_555
H15A C13A 1_555 1_555
H16A C13A 1_555 1_555
C18A C17A 1_555 1_555
H24A C18A 1_555 1_555
H25A C18A 1_555 1_555
H26A C18A 1_555 1_555
H14A C10A 1_555 1_555
H1A N1A 1_555 1_555
C21A C20A 1_555 1_555
C22A C21A 1_555 1_555
C23A C22A 1_555 1_555
N3A C23A 1_555 1_555
C24A N3A 1_555 1_555
C25A C21A 1_555 1_555
H30A C25A 1_555 1_555
H29A C24A 1_555 1_555
H28A C23A 1_555 1_555
H27A C22A 1_555 1_555
C4 C9 1_555 1_555
C17 C19 1_555 1_555
C24 N3 1_555 1_555
C4A C2A 1_555 1_555
N2A C19A 1_555 1_555
C17A C12A 1_555 1_555
C24A C25A 1_555 1_555

#END
