
#######################################################################
#
#                 Cambridge Crystallographic Data Centre
#                                CCDC 
#
#######################################################################
#
# If this CIF has been generated from an entry in the Cambridge 
# Structural Database, then it will include bibliographic, chemical, 
# crystal, experimental, refinement or atomic coordinate data resulting 
# from the CCDC's data processing and validation procedures.
#
#######################################################################

data_RIHWAJ
_chemical_formula_moiety         'C14 H24 B10 Cl1 N1 O1'
_chemical_name_systematic        
1-methyl-2,7-(1-(4-chlorophenylamino)-2-acetylpropane-1,3-diyl)-1,2-dicarba-closo-dodecaborane
_symmetry_cell_setting           monoclinic
_symmetry_space_group_name_H-M   'P 21/n'
_symmetry_Int_Tables_number      14
_space_group_name_Hall           '-P 2yn'
loop_
_symmetry_equiv_pos_site_id
_symmetry_equiv_pos_as_xyz
1 x,y,z
2 1/2-x,1/2+y,1/2-z
3 -x,-y,-z
4 1/2+x,1/2-y,1/2+z
_cell_length_a                   11.4617(4)
_cell_length_b                   7.4840(3)
_cell_length_c                   23.7344(8)
_cell_angle_alpha                90
_cell_angle_beta                 96.0865(14)
_cell_angle_gamma                90
_cell_volume                     2024.45
_exptl_crystal_colour            colorless
_exptl_crystal_description       block
_cell_formula_units_Z            4
loop_
_atom_site_label
_atom_site_type_symbol
_atom_site_fract_x
_atom_site_fract_y
_atom_site_fract_z
Cl1 Cl -0.06967(7) 0.20803(11) -0.00076(4)
O1 O 0.35191(18) 0.2891(2) 0.25957(7)
N1 N 0.27702(14) 0.5680(2) 0.16217(7)
H1 H 0.2489 0.6616 0.1769
C1 C 0.48972(16) 0.6382(3) 0.14661(8)
C2 C 0.46637(18) 0.7861(3) 0.09389(8)
C3 C 0.34548(19) 0.8140(4) 0.06284(10)
H2 H 0.3493 0.9036 0.0342
H3 H 0.3179 0.7038 0.0455
H4 H 0.2925 0.8522 0.0892
C4 C 0.56168(18) 0.6272(4) 0.25423(9)
H5 H 0.6092 0.5237 0.2658
H6 H 0.5712 0.7161 0.2841
C5 C 0.43074(17) 0.5744(3) 0.24086(8)
H7 H 0.3848 0.6803 0.2487
C6 C 0.39355(19) 0.4283(3) 0.27880(9)
C7 C 0.4109(3) 0.4641(4) 0.34113(10)
H8 H 0.4447 0.5806 0.3477
H9 H 0.3366 0.4590 0.3563
H10 H 0.4626 0.3757 0.3594
C8 C 0.39909(15) 0.5300(3) 0.17713(8)
H11 H 0.4124 0.4023 0.1713
C9 C 0.20041(16) 0.4660(3) 0.12585(8)
C10 C 0.23501(18) 0.3609(3) 0.08271(9)
H12 H 0.3145 0.3453 0.0794
C11 C 0.1525(2) 0.2782(3) 0.04419(9)
H13 H 0.1767 0.2083 0.0152
C12 C 0.0354(2) 0.3001(3) 0.04916(10)
C13 C -0.00114(19) 0.3966(3) 0.09316(12)
H14 H -0.0807 0.4071 0.0970
C14 C 0.08061(18) 0.4781(3) 0.13172(10)
H15 H 0.0557 0.5417 0.1619
B1 B 0.4951(2) 0.8611(3) 0.16242(10)
H16 H 0.4302 0.9312 0.1853
B2 B 0.5973(2) 0.7062(4) 0.19663(10)
B3 B 0.6234(2) 0.5403(4) 0.14611(11)
H17 H 0.6432 0.4014 0.1589
B4 B 0.5363(2) 0.5888(4) 0.08208(10)
H18 H 0.4981 0.4833 0.0536
B5 B 0.5602(2) 0.9631(4) 0.10648(12)
H19 H 0.5388 1.1010 0.0931
B6 B 0.6461(2) 0.9146(4) 0.17162(12)
H20 H 0.6810 1.0204 0.2009
B7 B 0.7266(2) 0.7156(5) 0.16126(13)
H21 H 0.8142 0.6926 0.1838
B8 B 0.6884(2) 0.6412(5) 0.08985(13)
H22 H 0.7510 0.5697 0.0660
B9 B 0.5861(2) 0.7950(4) 0.05693(11)
H23 H 0.5815 0.8239 0.0113
B10 B 0.7030(2) 0.8731(5) 0.10568(13)
H24 H 0.7757 0.9526 0.0921
loop_
_geom_bond_atom_site_label_1
_geom_bond_atom_site_label_2
_geom_bond_site_symmetry_1
_geom_bond_site_symmetry_2
Cl1 C12 1_555 1_555
O1 C6 1_555 1_555
N1 H1 1_555 1_555
C1 C2 1_555 1_555
C2 C3 1_555 1_555
C3 H2 1_555 1_555
H3 C3 1_555 1_555
H4 C3 1_555 1_555
C4 H5 1_555 1_555
H6 C4 1_555 1_555
C5 C4 1_555 1_555
H7 C5 1_555 1_555
C6 C5 1_555 1_555
C7 C6 1_555 1_555
H8 C7 1_555 1_555
H9 C7 1_555 1_555
H10 C7 1_555 1_555
C8 N1 1_555 1_555
H11 C8 1_555 1_555
C9 N1 1_555 1_555
C10 C9 1_555 1_555
H12 C10 1_555 1_555
C11 C10 1_555 1_555
H13 C11 1_555 1_555
C12 C11 1_555 1_555
C13 C12 1_555 1_555
H14 C13 1_555 1_555
C14 C9 1_555 1_555
H15 C14 1_555 1_555
B1 C1 1_555 1_555
H16 B1 1_555 1_555
B2 C1 1_555 1_555
B3 C1 1_555 1_555
H17 B3 1_555 1_555
B4 C1 1_555 1_555
H18 B4 1_555 1_555
B5 C2 1_555 1_555
H19 B5 1_555 1_555
B6 B1 1_555 1_555
H20 B6 1_555 1_555
B7 B2 1_555 1_555
H21 B7 1_555 1_555
B8 B3 1_555 1_555
H22 B8 1_555 1_555
B9 C2 1_555 1_555
H23 B9 1_555 1_555
B10 B5 1_555 1_555
H24 B10 1_555 1_555
C1 C8 1_555 1_555
C2 B1 1_555 1_555
C2 B4 1_555 1_555
C4 B2 1_555 1_555
C5 C8 1_555 1_555
C13 C14 1_555 1_555
B1 B2 1_555 1_555
B1 B5 1_555 1_555
B2 B3 1_555 1_555
B2 B6 1_555 1_555
B3 B4 1_555 1_555
B3 B7 1_555 1_555
B4 B8 1_555 1_555
B4 B9 1_555 1_555
B5 B6 1_555 1_555
B5 B9 1_555 1_555
B6 B7 1_555 1_555
B6 B10 1_555 1_555
B7 B8 1_555 1_555
B7 B10 1_555 1_555
B8 B9 1_555 1_555
B8 B10 1_555 1_555
B9 B10 1_555 1_555

#END
