
#######################################################################
#
#                 Cambridge Crystallographic Data Centre
#                                CCDC 
#
#######################################################################
#
# If this CIF has been generated from an entry in the Cambridge 
# Structural Database, then it will include bibliographic, chemical, 
# crystal, experimental, refinement or atomic coordinate data resulting 
# from the CCDC's data processing and validation procedures.
#
#######################################################################

data_RIHXAH
_chemical_formula_moiety         'C40 H44 N4 O2'
_chemical_name_systematic        
5-Methoxycarbonyl-15-phenyl-2,8,13,17-tetramethyl-3,7,12,18-tetraethylporphyrin
_symmetry_cell_setting           triclinic
_symmetry_space_group_name_H-M   'P -1'
_symmetry_Int_Tables_number      2
_space_group_name_Hall           '-P 1'
loop_
_symmetry_equiv_pos_site_id
_symmetry_equiv_pos_as_xyz
1 x,y,z
2 -x,-y,-z
_cell_length_a                   9.095(2)
_cell_length_b                   13.412(4)
_cell_length_c                   15.165(3)
_cell_angle_alpha                65.59(2)
_cell_angle_beta                 76.51(2)
_cell_angle_gamma                79.62(2)
_cell_volume                     1630.68
_exptl_crystal_colour            red
_cell_formula_units_Z            2
loop_
_atom_site_label
_atom_site_type_symbol
_atom_site_fract_x
_atom_site_fract_y
_atom_site_fract_z
N1 N 0.2938(4) 0.7963(3) 0.6213(3)
N2 N 0.3113(4) 0.5949(3) 0.6126(3)
N3 N 0.2912(4) 0.4782(3) 0.8418(3)
N4 N 0.2709(4) 0.6815(3) 0.8497(3)
C1 C 0.2953(5) 0.8821(3) 0.6481(3)
C2 C 0.2946(5) 0.9823(3) 0.5607(3)
C3 C 0.2926(6) 1.0953(4) 0.5601(4)
C4 C 0.2924(5) 0.9569(3) 0.4835(3)
C5 C 0.2763(5) 1.0402(4) 0.3821(3)
C6 C 0.1102(6) 1.0850(4) 0.3734(4)
C7 C 0.2928(5) 0.8370(3) 0.5220(3)
C8 C 0.2972(5) 0.7687(3) 0.4720(3)
C9 C 0.3059(6) 0.8229(4) 0.3625(4)
C10 C 0.1647(7) 0.9117(4) 0.2349(3)
O1 O 0.1679(4) 0.8570(3) 0.3379(2)
O2 O 0.4235(4) 0.8365(3) 0.3032(2)
C11 C 0.3002(5) 0.6529(3) 0.5159(3)
C12 C 0.2999(5) 0.5781(4) 0.4680(3)
C13 C 0.2713(5) 0.6022(4) 0.3662(3)
C14 C 0.1008(5) 0.6137(4) 0.3663(3)
C15 C 0.3120(5) 0.4737(3) 0.5390(3)
C16 C 0.3161(5) 0.3681(3) 0.5279(3)
C17 C 0.3170(5) 0.4848(3) 0.6285(3)
C18 C 0.3129(5) 0.3966(3) 0.7196(3)
C19 C 0.2929(5) 0.3934(3) 0.8143(3)
C20 C 0.2557(5) 0.2968(3) 0.9020(3)
C21 C 0.2371(5) 0.1878(3) 0.9026(3)
C22 C 0.0772(6) 0.1804(4) 0.8908(4)
C23 C 0.2264(5) 0.3264(3) 0.9812(3)
C24 C 0.1627(6) 0.2551(4) 1.0839(3)
C25 C 0.2558(5) 0.4418(3) 0.9428(3)
C26 C 0.2513(5) 0.5084(3) 0.9949(3)
C27 C 0.2294(5) 0.4551(3) 1.1043(3)
C28 C 0.3497(5) 0.3946(3) 1.1513(3)
C29 C 0.3307(5) 0.3478(3) 1.2524(3)
C30 C 0.1889(5) 0.3573(4) 1.3091(4)
C31 C 0.0682(6) 0.4181(4) 1.2622(3)
C32 C 0.0893(5) 0.4668(4) 1.1608(3)
C33 C 0.2676(5) 0.6217(3) 0.9492(3)
C34 C 0.2864(5) 0.6945(3) 0.9960(3)
C35 C 0.3098(6) 0.6656(4) 1.0977(3)
C36 C 0.2941(5) 0.7978(3) 0.9219(3)
C37 C 0.3145(5) 0.9009(3) 0.9309(3)
C38 C 0.4828(6) 0.9193(4) 0.9119(4)
C39 C 0.2859(5) 0.7881(3) 0.8324(3)
C40 C 0.2941(5) 0.8766(3) 0.7414(3)
H1 H 0.2928 0.7248 0.6617
H2 H 0.3108 0.5474 0.8007
H3 H 0.2919 1.1501 0.4947
H4 H 0.2030 1.1088 0.6033
H5 H 0.3810 1.0986 0.5828
H6 H 0.3173 1.0075 0.3348
H7 H 0.3343 1.1001 0.3673
H8 H 0.1033 1.1386 0.3083
H9 H 0.0529 1.0250 0.3876
H10 H 0.0701 1.1183 0.4203
H11 H 0.0614 0.9339 0.2250
H12 H 0.2202 0.9753 0.2080
H13 H 0.2105 0.8625 0.2025
H14 H 0.3219 0.5447 0.3448
H15 H 0.3117 0.6700 0.3206
H16 H 0.0838 0.6295 0.3015
H17 H 0.0609 0.5456 0.4113
H18 H 0.0507 0.6719 0.3870
H19 H 0.3094 0.3833 0.4613
H20 H 0.4100 0.3249 0.5430
H21 H 0.2326 0.3282 0.5718
H22 H 0.3262 0.3256 0.7160
H23 H 0.2598 0.1304 0.9630
H24 H 0.3084 0.1763 0.8493
H25 H 0.0700 0.1098 0.8911
H26 H 0.0058 0.1906 0.9447
H27 H 0.0549 0.2370 0.8300
H28 H 0.1538 0.1830 1.0880
H29 H 0.2303 0.2497 1.1260
H30 H 0.0645 0.2871 1.1043
H31 H 0.4463 0.3847 1.1121
H32 H 0.4150 0.3073 1.2842
H33 H 0.1756 0.3239 1.3796
H34 H -0.0300 0.4264 1.3005
H35 H 0.0061 0.5075 1.1279
H36 H 0.3191 0.7312 1.1061
H37 H 0.2232 0.6309 1.1427
H38 H 0.3998 0.6160 1.1105
H39 H 0.2714 0.8967 0.9963
H40 H 0.2626 0.9627 0.8855
H41 H 0.4951 0.9857 0.9180
H42 H 0.5342 0.8578 0.9578
H43 H 0.5253 0.9243 0.8462
H44 H 0.2990 0.9464 0.7436
loop_
_geom_bond_atom_site_label_1
_geom_bond_atom_site_label_2
_geom_bond_site_symmetry_1
_geom_bond_site_symmetry_2
N1 C1 1_555 1_555
N2 C11 1_555 1_555
N3 C19 1_555 1_555
N4 C33 1_555 1_555
C1 C2 1_555 1_555
C2 C3 1_555 1_555
C3 H3 1_555 1_555
C4 C2 1_555 1_555
C5 C4 1_555 1_555
C6 C5 1_555 1_555
C7 N1 1_555 1_555
C8 C7 1_555 1_555
C9 C8 1_555 1_555
C10 O1 1_555 1_555
O1 C9 1_555 1_555
O2 C9 1_555 1_555
C11 C8 1_555 1_555
C12 C11 1_555 1_555
C13 C12 1_555 1_555
C14 C13 1_555 1_555
C15 C12 1_555 1_555
C16 C15 1_555 1_555
C17 N2 1_555 1_555
C18 C17 1_555 1_555
C19 C18 1_555 1_555
C20 C19 1_555 1_555
C21 C20 1_555 1_555
C22 C21 1_555 1_555
C23 C20 1_555 1_555
C24 C23 1_555 1_555
C25 N3 1_555 1_555
C26 C25 1_555 1_555
C27 C26 1_555 1_555
C28 C27 1_555 1_555
C29 C28 1_555 1_555
C30 C29 1_555 1_555
C31 C30 1_555 1_555
C32 C27 1_555 1_555
C33 C26 1_555 1_555
C34 C33 1_555 1_555
C35 C34 1_555 1_555
C36 C34 1_555 1_555
C37 C36 1_555 1_555
C38 C37 1_555 1_555
C39 N4 1_555 1_555
C40 C1 1_555 1_555
H1 N1 1_555 1_555
H2 N3 1_555 1_555
H4 C3 1_555 1_555
H5 C3 1_555 1_555
H6 C5 1_555 1_555
H7 C5 1_555 1_555
H8 C6 1_555 1_555
H9 C6 1_555 1_555
H10 C6 1_555 1_555
H11 C10 1_555 1_555
H12 C10 1_555 1_555
H13 C10 1_555 1_555
H14 C13 1_555 1_555
H15 C13 1_555 1_555
H16 C14 1_555 1_555
H17 C14 1_555 1_555
H18 C14 1_555 1_555
H19 C16 1_555 1_555
H20 C16 1_555 1_555
H21 C16 1_555 1_555
H22 C18 1_555 1_555
H23 C21 1_555 1_555
H24 C21 1_555 1_555
H25 C22 1_555 1_555
H26 C22 1_555 1_555
H27 C22 1_555 1_555
H28 C24 1_555 1_555
H29 C24 1_555 1_555
H30 C24 1_555 1_555
H31 C28 1_555 1_555
H32 C29 1_555 1_555
H33 C30 1_555 1_555
H34 C31 1_555 1_555
H35 C32 1_555 1_555
H36 C35 1_555 1_555
H37 C35 1_555 1_555
H38 C35 1_555 1_555
H39 C37 1_555 1_555
H40 C37 1_555 1_555
H41 C38 1_555 1_555
H42 C38 1_555 1_555
H43 C38 1_555 1_555
H44 C40 1_555 1_555
C4 C7 1_555 1_555
C15 C17 1_555 1_555
C23 C25 1_555 1_555
C31 C32 1_555 1_555
C36 C39 1_555 1_555
C39 C40 1_555 1_555

#END
