
#######################################################################
#
#                 Cambridge Crystallographic Data Centre
#                                CCDC 
#
#######################################################################
#
# If this CIF has been generated from an entry in the Cambridge 
# Structural Database, then it will include bibliographic, chemical, 
# crystal, experimental, refinement or atomic coordinate data resulting 
# from the CCDC's data processing and validation procedures.
#
#######################################################################

data_RIHZIU
_chemical_formula_moiety         'C42 H50 O2 Si2'
_chemical_name_systematic        
2,8-bis{[triisopropylsilyl]ethynyl}indeno[1,2-b]fluorene-6,12-dione
_symmetry_cell_setting           triclinic
_symmetry_space_group_name_H-M   'P -1'
_symmetry_Int_Tables_number      2
_space_group_name_Hall           '-P 1'
loop_
_symmetry_equiv_pos_site_id
_symmetry_equiv_pos_as_xyz
1 x,y,z
2 -x,-y,-z
_cell_length_a                   7.6019(6)
_cell_length_b                   7.7795(7)
_cell_length_c                   17.7908(15)
_cell_angle_alpha                94.036(5)
_cell_angle_beta                 92.577(5)
_cell_angle_gamma                114.867(4)
_cell_volume                     948.979
_exptl_crystal_colour            red
_exptl_crystal_description       plate
_cell_formula_units_Z            1
loop_
_atom_site_label
_atom_site_type_symbol
_atom_site_fract_x
_atom_site_fract_y
_atom_site_fract_z
C1 C 0.7272(5) 0.9046(5) 0.2577(2)
C2 C 0.7265(5) 0.7978(5) 0.30350(19)
C3 C 0.7119(4) 0.6545(4) 0.35229(16)
C4 C 0.5288(4) 0.5377(4) 0.37605(17)
H1 H 0.4211 0.5622 0.3654
C5 C 0.5133(4) 0.3883(4) 0.41496(15)
C6 C 0.3357(4) 0.2387(4) 0.44296(16)
C7 C 0.4045(4) 0.1025(4) 0.47560(15)
C8 C 0.2954(4) -0.0628(4) 0.50750(15)
H2 H 0.1632 -0.1024 0.5126
C9 C 0.6047(4) 0.1670(4) 0.46827(14)
C10 C 0.6715(4) 0.3447(4) 0.43131(15)
C11 C 0.8544(4) 0.4633(4) 0.41109(16)
H3 H 0.9623 0.4405 0.4235
C12 C 0.8716(4) 0.6160(4) 0.37199(17)
H4 H 0.9935 0.6962 0.3582
C13 C 0.5339(8) 1.1513(8) 0.2145(3)
H5 H 0.6115 1.2564 0.2528
C14 C 0.4675(14) 1.2406(16) 0.1519(6)
H6 H 0.4279 1.1549 0.1065
H7 H 0.5729 1.3581 0.1427
H8 H 0.3598 1.2649 0.1671
C15 C 0.3593(7) 1.0204(8) 0.2529(3)
H9 H 0.2923 1.0915 0.2732
H10 H 0.4024 0.9675 0.2931
H11 H 0.2728 0.9194 0.2166
C16 C 0.9538(8) 1.2335(7) 0.1673(3)
H12 H 1.0329 1.1639 0.1566
C17 C 0.9581(11) 1.3395(11) 0.0996(4)
H13 H 0.8932 1.4204 0.109
H14 H 0.8931 1.2502 0.0563
H15 H 1.0906 1.4156 0.0901
C18 C 1.0481(7) 1.3607(8) 0.2385(3)
H16 H 1.1814 1.441 0.2316
H17 H 1.0427 1.2845 0.2793
H18 H 0.9807 1.4382 0.2502
C19 C 0.6273(11) 0.8885(8) 0.0928(3)
H19 H 0.6184 0.9648 0.0525
C20 C 0.7550(19) 0.7994(14) 0.0705(4)
H20 H 0.7313 0.6922 0.0988
H21 H 0.8883 0.8901 0.0807
H22 H 0.7292 0.7574 0.0175
C21 C 0.4230(14) 0.7215(10) 0.0958(5)
H23 H 0.3955 0.6319 0.0521
H24 H 0.3262 0.7704 0.0965
H25 H 0.4214 0.6592 0.1407
O1 O 0.1739(3) 0.2297(3) 0.43947(14)
Si1 Si 0.69929(15) 1.04317(13) 0.18294(5)
C1A C 0.2728(5) -0.9046(5) 0.7423(2)
C2A C 0.2735(5) -0.7978(5) 0.69650(19)
C3A C 0.2881(4) -0.6545(4) 0.64771(16)
C4A C 0.4712(4) -0.5377(4) 0.62395(17)
H1A H 0.5789 -0.5622 0.6346
C5A C 0.4867(4) -0.3883(4) 0.58504(15)
C6A C 0.6643(4) -0.2387(4) 0.55704(16)
C7A C 0.5955(4) -0.1025(4) 0.52440(15)
C8A C 0.7046(4) 0.0628(4) 0.49250(15)
H2A H 0.8368 0.1024 0.4874
C9A C 0.3953(4) -0.1670(4) 0.53173(14)
C10A C 0.3285(4) -0.3447(4) 0.56869(15)
C11A C 0.1456(4) -0.4633(4) 0.58891(16)
H3A H 0.0377 -0.4405 0.5765
C12A C 0.1284(4) -0.6160(4) 0.62801(17)
H4A H 0.0065 -0.6962 0.6418
C13A C 0.4661(8) -1.1513(8) 0.7855(3)
H5A H 0.3885 -1.2564 0.7472
C14A C 0.5325(14) -1.2406(16) 0.8481(6)
H6A H 0.5721 -1.1549 0.8935
H7A H 0.4271 -1.3581 0.8573
H8A H 0.6402 -1.2649 0.8329
C15A C 0.6407(7) -1.0204(8) 0.7471(3)
H9A H 0.7077 -1.0915 0.7268
H10A H 0.5976 -0.9675 0.7069
H11A H 0.7272 -0.9194 0.7834
C16A C 0.0462(8) -1.2335(7) 0.8327(3)
H12A H -0.0329 -1.1639 0.8434
C17A C 0.0419(11) -1.3395(11) 0.9004(4)
H13A H 0.1068 -1.4204 0.891
H14A H 0.1069 -1.2502 0.9437
H15A H -0.0906 -1.4156 0.9099
C18A C -0.0481(7) -1.3607(8) 0.7615(3)
H16A H -0.1814 -1.441 0.7684
H17A H -0.0427 -1.2845 0.7207
H18A H 0.0193 -1.4382 0.7498
C19A C 0.3727(11) -0.8885(8) 0.9072(3)
H19A H 0.3816 -0.9648 0.9475
C20A C 0.2450(19) -0.7994(14) 0.9295(4)
H20A H 0.2687 -0.6922 0.9012
H21A H 0.1117 -0.8901 0.9193
H22A H 0.2708 -0.7574 0.9825
C21A C 0.5770(14) -0.7215(10) 0.9042(5)
H23A H 0.6045 -0.6319 0.9479
H24A H 0.6738 -0.7704 0.9035
H25A H 0.5786 -0.6592 0.8593
O1A O 0.8261(3) -0.2297(3) 0.56053(14)
Si1A Si 0.30071(15) -1.04317(13) 0.81706(5)
loop_
_geom_bond_atom_site_label_1
_geom_bond_atom_site_label_2
_geom_bond_site_symmetry_1
_geom_bond_site_symmetry_2
C1 C2 1_555 1_555
C2 C3 1_555 1_555
C3 C4 1_555 1_555
C4 H1 1_555 1_555
C5 C4 1_555 1_555
C6 C5 1_555 1_555
C7 C6 1_555 1_555
C8 C7 1_555 1_555
H2 C8 1_555 1_555
C9 C7 1_555 1_555
C10 C5 1_555 1_555
C11 C10 1_555 1_555
H3 C11 1_555 1_555
C12 C3 1_555 1_555
H4 C12 1_555 1_555
C13 H5 1_555 1_555
C14 C13 1_555 1_555
H6 C14 1_555 1_555
H7 C14 1_555 1_555
H8 C14 1_555 1_555
C15 C13 1_555 1_555
H9 C15 1_555 1_555
H10 C15 1_555 1_555
H11 C15 1_555 1_555
C16 H12 1_555 1_555
C17 C16 1_555 1_555
H13 C17 1_555 1_555
H14 C17 1_555 1_555
H15 C17 1_555 1_555
C18 C16 1_555 1_555
H16 C18 1_555 1_555
H17 C18 1_555 1_555
H18 C18 1_555 1_555
C19 H19 1_555 1_555
C20 C19 1_555 1_555
H20 C20 1_555 1_555
H21 C20 1_555 1_555
H22 C20 1_555 1_555
C21 C19 1_555 1_555
H23 C21 1_555 1_555
H24 C21 1_555 1_555
H25 C21 1_555 1_555
O1 C6 1_555 1_555
Si1 C1 1_555 1_555
C1A C2A 1_555 1_555
C2A C3A 1_555 1_555
C3A C4A 1_555 1_555
C4A H1A 1_555 1_555
C5A C4A 1_555 1_555
C6A C5A 1_555 1_555
C7A C6A 1_555 1_555
C8A C9 1_555 1_555
H2A C8A 1_555 1_555
C9A C8 1_555 1_555
C10A C5A 1_555 1_555
C11A C10A 1_555 1_555
H3A C11A 1_555 1_555
C12A C3A 1_555 1_555
H4A C12A 1_555 1_555
C13A H5A 1_555 1_555
C14A C13A 1_555 1_555
H6A C14A 1_555 1_555
H7A C14A 1_555 1_555
H8A C14A 1_555 1_555
C15A C13A 1_555 1_555
H9A C15A 1_555 1_555
H10A C15A 1_555 1_555
H11A C15A 1_555 1_555
C16A H12A 1_555 1_555
C17A C16A 1_555 1_555
H13A C17A 1_555 1_555
H14A C17A 1_555 1_555
H15A C17A 1_555 1_555
C18A C16A 1_555 1_555
H16A C18A 1_555 1_555
H17A C18A 1_555 1_555
H18A C18A 1_555 1_555
C19A H19A 1_555 1_555
C20A C19A 1_555 1_555
H20A C20A 1_555 1_555
H21A C20A 1_555 1_555
H22A C20A 1_555 1_555
C21A C19A 1_555 1_555
H23A C21A 1_555 1_555
H24A C21A 1_555 1_555
H25A C21A 1_555 1_555
O1A C6A 1_555 1_555
Si1A C1A 1_555 1_555
C9 C10 1_555 1_555
C11 C12 1_555 1_555
C13 Si1 1_555 1_555
C16 Si1 1_555 1_555
C19 Si1 1_555 1_555
C7A C8A 1_555 1_555
C7A C9A 1_555 1_555
C9A C10A 1_555 1_555
C11A C12A 1_555 1_555
C13A Si1A 1_555 1_555
C16A Si1A 1_555 1_555
C19A Si1A 1_555 1_555

#END
