
#######################################################################
#
#                 Cambridge Crystallographic Data Centre
#                                CCDC 
#
#######################################################################
#
# If this CIF has been generated from an entry in the Cambridge 
# Structural Database, then it will include bibliographic, chemical, 
# crystal, experimental, refinement or atomic coordinate data resulting 
# from the CCDC's data processing and validation procedures.
#
#######################################################################

data_RIJBUK
_chemical_formula_moiety         'C23 H27 F1 N2 O2'
_chemical_name_systematic        
3-[3-fluoro-4-(4-hydroxyphenyl)piperidin-1-yl]-1-[(4-methylphenyl)methyl]pyrrolidin-2-one
_symmetry_cell_setting           monoclinic
_symmetry_space_group_name_H-M   'P 21'
_symmetry_Int_Tables_number      4
_space_group_name_Hall           'P 2yb'
loop_
_symmetry_equiv_pos_site_id
_symmetry_equiv_pos_as_xyz
1 x,y,z
2 -x,1/2+y,-z
_cell_length_a                   10.2313(3)
_cell_length_b                   9.7990(3)
_cell_length_c                   20.3249(5)
_cell_angle_alpha                90
_cell_angle_beta                 95.7160(10)
_cell_angle_gamma                90
_cell_volume                     2027.57
_exptl_crystal_colour            colorless
_exptl_crystal_description       plate
_cell_formula_units_Z            4
_exptl_crystal_recrystallization_method methanol
loop_
_atom_site_label
_atom_site_type_symbol
_atom_site_fract_x
_atom_site_fract_y
_atom_site_fract_z
F1 F 0.41234(14) 0.08744(16) 0.33229(8)
O1 O 0.13013(19) 0.40603(17) 0.55645(9)
O2 O 0.2645(3) 0.3752(3) 0.05631(10)
H1 H 0.276878 0.458967 0.056554
N1 N 0.0377(2) 0.2153(2) 0.59501(10)
N2 N 0.20940(18) 0.2114(2) 0.45737(9)
C1 C 0.0851(9) 0.4441(19) 0.9104(4)
H2 H 0.130182 0.531162 0.910810
H3 H 0.001517 0.455284 0.928487
H4 H 0.138572 0.378835 0.936973
C2 C 0.0618(14) 0.393(2) 0.8406(6)
C3 C -0.0004(14) 0.271(2) 0.8260(7)
H5 H -0.020287 0.213014 0.860338
C4 C -0.0343(10) 0.2338(12) 0.7611(5)
H6 H -0.080703 0.151383 0.754295
C5 C 0.0675(13) 0.4244(11) 0.7201(6)
H7 H 0.094758 0.476312 0.684997
C6 C 0.1028(8) 0.4695(12) 0.7889(4)
H8 H 0.152576 0.549212 0.797695
C7 C -0.0080(3) 0.3024(4) 0.70600(15)
C8 C -0.0540(2) 0.2856(3) 0.63429(14)
H9 H -0.136919 0.234704 0.630630
H10 H -0.072353 0.376136 0.615117
C9 C 0.0459(3) 0.0675(3) 0.59345(14)
H11 H -0.039866 0.027202 0.579140
H12 H 0.077142 0.031274 0.637144
C10 C 0.1441(3) 0.0379(3) 0.54361(14)
H13 H 0.099989 -0.004157 0.503657
H14 H 0.212976 -0.024064 0.562663
C11 C 0.2035(2) 0.1771(2) 0.52713(12)
H15 H 0.294111 0.180818 0.549253
C12 C 0.1219(2) 0.2807(3) 0.56056(12)
C13 C 0.0818(2) 0.2115(3) 0.41799(12)
H16 H 0.020413 0.269975 0.439103
H17 H 0.045970 0.118731 0.415488
C14 C 0.0968(3) 0.2637(3) 0.34897(12)
H18 H 0.124798 0.359344 0.351646
H19 H 0.011374 0.259891 0.322558
C15 C 0.1973(2) 0.1805(2) 0.31401(12)
H20 H 0.163399 0.086061 0.309006
C16 C 0.3234(2) 0.1752(2) 0.35954(12)
H21 H 0.361778 0.267857 0.363855
C17 C 0.3012(2) 0.1222(2) 0.42724(12)
H22 H 0.265514 0.029362 0.423501
H23 H 0.384944 0.118912 0.455177
C18 C 0.2150(2) 0.2333(3) 0.24574(12)
C19 C 0.1964(3) 0.1494(3) 0.19090(13)
H24 H 0.173011 0.057543 0.196234
C20 C 0.2118(3) 0.1987(3) 0.12803(15)
H25 H 0.197055 0.140479 0.091301
C21 C 0.2482(3) 0.3320(3) 0.11902(13)
C22 C 0.2680(3) 0.4179(3) 0.17298(14)
H26 H 0.292728 0.509292 0.167496
C23 C 0.2508(3) 0.3678(3) 0.23528(13)
H27 H 0.263824 0.426834 0.271788
F2 F 0.69429(16) 0.6248(2) 0.32139(8)
O3 O 0.3059(3) 0.6456(3) 0.05096(11)
O4 O 0.2894(2) 0.6255(2) 0.55703(9)
H35 H 0.242057 0.556586 0.553029
N3 N 0.3680(3) 0.8613(3) 0.02859(12)
N4 N 0.4876(2) 0.7196(3) 0.17229(10)
C30 C 0.3085(4) 0.7707(6) -0.29499(19)
H36 H 0.226415 0.792903 -0.320860
H37 H 0.378836 0.824808 -0.310309
H38 H 0.327590 0.674519 -0.300039
C31 C 0.2970(3) 0.8015(4) -0.22333(16)
C32 C 0.1844(4) 0.8587(6) -0.2029(2)
H39 H 0.114621 0.881241 -0.234665
C33 C 0.1720(3) 0.8837(5) -0.13690(19)
H40 H 0.092435 0.918402 -0.124446
C34 C 0.2737(3) 0.8586(3) -0.08929(15)
C35 C 0.3880(3) 0.8100(5) -0.10996(16)
H41 H 0.461155 0.796898 -0.078780
C36 C 0.3986(3) 0.7796(4) -0.17588(15)
H42 H 0.477645 0.743171 -0.188096
C37 C 0.2555(4) 0.8922(5) -0.01787(16)
H43 H 0.235510 0.989697 -0.014734
H44 H 0.179586 0.841365 -0.005029
C38 C 0.4705(4) 0.9602(4) 0.0477(2)
H45 H 0.437998 1.032274 0.075249
H46 H 0.503034 1.001964 0.008629
C39 C 0.5767(4) 0.8782(5) 0.08606(17)
H47 H 0.610329 0.926648 0.126431
H48 H 0.649731 0.861860 0.059309
C40 C 0.5126(3) 0.7426(4) 0.10323(13)
H49 H 0.568231 0.667105 0.089588
C41 C 0.3843(3) 0.7408(4) 0.05888(13)
C42 C 0.4106(3) 0.8276(3) 0.19936(13)
H50 H 0.330698 0.844273 0.169726
H51 H 0.461836 0.912225 0.203059
C43 C 0.3743(2) 0.7855(3) 0.26702(12)
H52 H 0.317065 0.705168 0.262289
H53 H 0.325003 0.859546 0.285477
C44 C 0.4952(2) 0.7520(3) 0.31514(12)
H54 H 0.548639 0.836020 0.321756
C45 C 0.5751(2) 0.6473(3) 0.28176(12)
H55 H 0.525264 0.560669 0.276685
C46 C 0.6089(3) 0.6951(4) 0.21461(13)
H56 H 0.660766 0.779205 0.219417
H57 H 0.661350 0.625409 0.194708
C47 C 0.4530(2) 0.7098(2) 0.38157(11)
C48 C 0.3991(2) 0.5822(3) 0.39234(12)
H58 H 0.399704 0.515201 0.359276
C49 C 0.3447(2) 0.5509(2) 0.45028(12)
H59 H 0.308777 0.463916 0.456039
C50 C 0.3436(2) 0.6482(3) 0.49966(12)
C51 C 0.4020(2) 0.7742(2) 0.49145(12)
H60 H 0.405258 0.839396 0.525480
C52 C 0.4555(2) 0.8036(2) 0.43296(12)
H61 H 0.494475 0.889375 0.427970
C24? C 0.0602(12) 0.287(3) 0.9179(5)
H28? H 0.023561 0.202880 0.932778
H29? H 0.153479 0.290576 0.932116
H30? H 0.016802 0.364143 0.936624
C25? C 0.0384(18) 0.295(4) 0.8394(14)
C26? C -0.0267(11) 0.181(2) 0.8113(6)
H31? H -0.053048 0.108456 0.837380
C27? C -0.0512(13) 0.1788(15) 0.7411(7)
H32? H -0.092084 0.104424 0.718218
C28? C 0.053(2) 0.405(2) 0.7401(8)
H33? H 0.078554 0.483579 0.718472
C29? C 0.0755(13) 0.393(2) 0.8063(10)
H34? H 0.122944 0.463008 0.829253
loop_
_geom_bond_atom_site_label_1
_geom_bond_atom_site_label_2
_geom_bond_site_symmetry_1
_geom_bond_site_symmetry_2
F1 C16 1_555 1_555
O1 C12 1_555 1_555
O2 H1 1_555 1_555
N1 C8 1_555 1_555
N2 C11 1_555 1_555
C1 H2 1_555 1_555
H3 C1 1_555 1_555
H4 C1 1_555 1_555
C2 C1 1_555 1_555
C3 C2 1_555 1_555
H5 C3 1_555 1_555
C4 C3 1_555 1_555
H6 C4 1_555 1_555
C5 H7 1_555 1_555
C6 C2 1_555 1_555
H8 C6 1_555 1_555
C7 C4 1_555 1_555
C8 C7 1_555 1_555
H9 C8 1_555 1_555
H10 C8 1_555 1_555
C9 N1 1_555 1_555
H11 C9 1_555 1_555
H12 C9 1_555 1_555
C10 C9 1_555 1_555
H13 C10 1_555 1_555
H14 C10 1_555 1_555
C11 C10 1_555 1_555
H15 C11 1_555 1_555
C12 N1 1_555 1_555
C13 N2 1_555 1_555
H16 C13 1_555 1_555
H17 C13 1_555 1_555
C14 C13 1_555 1_555
H18 C14 1_555 1_555
H19 C14 1_555 1_555
C15 C14 1_555 1_555
H20 C15 1_555 1_555
C16 C15 1_555 1_555
H21 C16 1_555 1_555
C17 N2 1_555 1_555
H22 C17 1_555 1_555
H23 C17 1_555 1_555
C18 C15 1_555 1_555
C19 C18 1_555 1_555
H24 C19 1_555 1_555
C20 C19 1_555 1_555
H25 C20 1_555 1_555
C21 O2 1_555 1_555
C22 C21 1_555 1_555
H26 C22 1_555 1_555
C23 C18 1_555 1_555
H27 C23 1_555 1_555
F2 C45 1_555 1_555
O3 C41 1_555 1_555
O4 H35 1_555 1_555
N3 C37 1_555 1_555
N4 C40 1_555 1_555
C30 H36 1_555 1_555
H37 C30 1_555 1_555
H38 C30 1_555 1_555
C31 C30 1_555 1_555
C32 C31 1_555 1_555
H39 C32 1_555 1_555
C33 C32 1_555 1_555
H40 C33 1_555 1_555
C34 C33 1_555 1_555
C35 C34 1_555 1_555
H41 C35 1_555 1_555
C36 C31 1_555 1_555
H42 C36 1_555 1_555
C37 C34 1_555 1_555
H43 C37 1_555 1_555
H44 C37 1_555 1_555
C38 N3 1_555 1_555
H45 C38 1_555 1_555
H46 C38 1_555 1_555
C39 C38 1_555 1_555
H47 C39 1_555 1_555
H48 C39 1_555 1_555
C40 C39 1_555 1_555
H49 C40 1_555 1_555
C41 N3 1_555 1_555
C42 N4 1_555 1_555
H50 C42 1_555 1_555
H51 C42 1_555 1_555
C43 C42 1_555 1_555
H52 C43 1_555 1_555
H53 C43 1_555 1_555
C44 C43 1_555 1_555
H54 C44 1_555 1_555
C45 C44 1_555 1_555
H55 C45 1_555 1_555
C46 N4 1_555 1_555
H56 C46 1_555 1_555
H57 C46 1_555 1_555
C47 C44 1_555 1_555
C48 C47 1_555 1_555
H58 C48 1_555 1_555
C49 C48 1_555 1_555
H59 C49 1_555 1_555
C50 O4 1_555 1_555
C51 C50 1_555 1_555
H60 C51 1_555 1_555
C52 C47 1_555 1_555
H61 C52 1_555 1_555
C5 C6 1_555 1_555
C5 C7 1_555 1_555
C11 C12 1_555 1_555
C16 C17 1_555 1_555
C20 C21 1_555 1_555
C22 C23 1_555 1_555
C35 C36 1_555 1_555
C40 C41 1_555 1_555
C45 C46 1_555 1_555
C49 C50 1_555 1_555
C51 C52 1_555 1_555

#END
