
#######################################################################
#
#                 Cambridge Crystallographic Data Centre
#                                CCDC 
#
#######################################################################
#
# If this CIF has been generated from an entry in the Cambridge 
# Structural Database, then it will include bibliographic, chemical, 
# crystal, experimental, refinement or atomic coordinate data resulting 
# from the CCDC's data processing and validation procedures.
#
#######################################################################

data_RIJBEU
_chemical_formula_moiety         'C20 H30 O4,H2 O1'
_chemical_name_systematic        
'14,15,18-trihydroxyatis-16-en-7-one monohydrate'
_symmetry_cell_setting           orthorhombic
_symmetry_space_group_name_H-M   'P 21 21 21'
_symmetry_Int_Tables_number      19
_space_group_name_Hall           'P 2ac 2ab'
loop_
_symmetry_equiv_pos_site_id
_symmetry_equiv_pos_as_xyz
1 x,y,z
2 1/2+x,1/2-y,-z
3 -x,1/2+y,1/2-z
4 1/2-x,-y,1/2+z
_cell_length_a                   6.60840(10)
_cell_length_b                   11.8396(2)
_cell_length_c                   22.9114(4)
_cell_angle_alpha                90
_cell_angle_beta                 90
_cell_angle_gamma                90
_cell_volume                     1792.61
_exptl_crystal_colour            colorless
_exptl_crystal_description       prism
_cell_formula_units_Z            4
loop_
_atom_site_label
_atom_site_type_symbol
_atom_site_fract_x
_atom_site_fract_y
_atom_site_fract_z
O1 O 1.10863(16) 0.38956(9) 0.33121(4)
H1 H 1.2003 0.3405 0.3325
O2 O 0.64962(15) 0.71169(7) 0.13172(4)
O3 O 0.80465(15) 0.63121(8) 0.01189(4)
H2 H 0.8755 0.6763 0.0315
O4 O 0.26383(14) 0.57242(8) 0.09936(4)
H3 H 0.2058 0.6355 0.0979
C1 C 1.0416(2) 0.40315(11) 0.27192(6)
H4 H 1.0769 0.3352 0.2489
H5 H 1.1097 0.4691 0.2540
C2 C 0.8120(2) 0.42079(11) 0.27127(6)
C3 C 0.7253(2) 0.45538(10) 0.21042(6)
H6 H 0.5800 0.4732 0.2183
C4 C 0.7181(2) 0.36322(10) 0.16192(6)
C5 C 0.5712(2) 0.41009(10) 0.11491(6)
H7 H 0.4402 0.4210 0.1360
C6 C 0.5196(2) 0.32739(11) 0.06431(6)
H8 H 0.6186 0.2646 0.0638
H9 H 0.3833 0.2949 0.0705
C7 C 0.5254(2) 0.39011(11) 0.00555(6)
H10 H 0.4864 0.3379 -0.0269
C8 C 0.3851(2) 0.49080(11) 0.00700(6)
C9 C 0.2471(2) 0.51267(13) -0.03329(6)
H11 H 0.2317 0.4635 -0.0657
H12 H 0.1635 0.5776 -0.0298
C10 C 0.9275(2) 0.33150(11) 0.13738(6)
H13 H 0.9946 0.2789 0.1641
H14 H 1.0099 0.3998 0.1333
H15 H 0.9111 0.2956 0.0991
C11 C 0.6160(2) 0.25617(11) 0.18723(6)
H16 H 0.4703 0.2717 0.1933
H17 H 0.6275 0.1941 0.1585
C12 C 0.7090(2) 0.21767(11) 0.24501(6)
H18 H 0.6342 0.1512 0.2599
H19 H 0.8515 0.1950 0.2386
C13 C 0.7010(2) 0.31201(12) 0.28998(6)
H20 H 0.7614 0.2844 0.3268
H21 H 0.5575 0.3306 0.2979
C14 C 0.6213(2) 0.52851(10) 0.08911(5)
C15 C 0.6878(2) 0.61141(11) 0.13583(5)
C16 C 0.8130(2) 0.56627(11) 0.18585(6)
H22 H 0.8182 0.6235 0.2173
H23 H 0.9531 0.5528 0.1722
C17 C 0.7923(2) 0.52501(10) 0.04181(6)
H24 H 0.9250 0.5076 0.0607
C18 C 0.7417(2) 0.43325(12) -0.00352(6)
H25 H 0.7553 0.4648 -0.0433
H26 H 0.8382 0.3697 0.0004
C19 C 0.4276(2) 0.57029(11) 0.05829(5)
H27 H 0.4508 0.6484 0.0431
C20 C 0.7589(2) 0.51322(12) 0.31600(6)
H28 H 0.7869 0.4855 0.3555
H29 H 0.6151 0.5324 0.3126
H30 H 0.8409 0.5806 0.3083
O5 O 0.06486(15) 0.77112(8) 0.07122(4)
H31 H 0.135(3) 0.8079(13) 0.0483(6)
H32 H 0.019(3) 0.8132(13) 0.0961(6)
loop_
_geom_bond_atom_site_label_1
_geom_bond_atom_site_label_2
_geom_bond_site_symmetry_1
_geom_bond_site_symmetry_2
O1 H1 1_555 1_555
O2 C15 1_555 1_555
O3 H2 1_555 1_555
O4 H3 1_555 1_555
C1 O1 1_555 1_555
H4 C1 1_555 1_555
H5 C1 1_555 1_555
C2 C1 1_555 1_555
C3 C2 1_555 1_555
H6 C3 1_555 1_555
C4 C3 1_555 1_555
C5 C4 1_555 1_555
H7 C5 1_555 1_555
C6 C5 1_555 1_555
H8 C6 1_555 1_555
H9 C6 1_555 1_555
C7 C6 1_555 1_555
H10 C7 1_555 1_555
C8 C7 1_555 1_555
C9 C8 1_555 1_555
H11 C9 1_555 1_555
H12 C9 1_555 1_555
C10 C4 1_555 1_555
H13 C10 1_555 1_555
H14 C10 1_555 1_555
H15 C10 1_555 1_555
C11 C4 1_555 1_555
H16 C11 1_555 1_555
H17 C11 1_555 1_555
C12 C11 1_555 1_555
H18 C12 1_555 1_555
H19 C12 1_555 1_555
C13 C2 1_555 1_555
H20 C13 1_555 1_555
H21 C13 1_555 1_555
C14 C5 1_555 1_555
C15 C14 1_555 1_555
C16 C3 1_555 1_555
H22 C16 1_555 1_555
H23 C16 1_555 1_555
C17 O3 1_555 1_555
H24 C17 1_555 1_555
C18 C7 1_555 1_555
H25 C18 1_555 1_555
H26 C18 1_555 1_555
C19 O4 1_555 1_555
H27 C19 1_555 1_555
C20 C2 1_555 1_555
H28 C20 1_555 1_555
H29 C20 1_555 1_555
H30 C20 1_555 1_555
O5 H31 1_555 1_555
H32 O5 1_555 1_555
C8 C19 1_555 1_555
C12 C13 1_555 1_555
C14 C17 1_555 1_555
C14 C19 1_555 1_555
C15 C16 1_555 1_555
C17 C18 1_555 1_555

#END
