
#######################################################################
#
#                 Cambridge Crystallographic Data Centre
#                                CCDC 
#
#######################################################################
#
# If this CIF has been generated from an entry in the Cambridge 
# Structural Database, then it will include bibliographic, chemical, 
# crystal, experimental, refinement or atomic coordinate data resulting 
# from the CCDC's data processing and validation procedures.
#
#######################################################################

data_RIJLUR
_chemical_formula_moiety         'C74 H48'
_chemical_name_systematic        
9,10,11,12,13,14,15,16-Octaphenyldibenzo(a,c)naphthacene
_symmetry_cell_setting           orthorhombic
_symmetry_space_group_name_H-M   'P b c n'
_symmetry_Int_Tables_number      60
_space_group_name_Hall           '-P 2n 2ab'
loop_
_symmetry_equiv_pos_site_id
_symmetry_equiv_pos_as_xyz
1 x,y,z
2 1/2-x,1/2-y,1/2+z
3 1/2+x,1/2-y,-z
4 -x,y,1/2-z
5 -x,-y,-z
6 1/2+x,1/2+y,1/2-z
7 1/2-x,1/2+y,z
8 x,-y,1/2+z
_cell_length_a                   16.5623(19)
_cell_length_b                   17.7964(17)
_cell_length_c                   17.6408(16)
_cell_angle_alpha                90
_cell_angle_beta                 90
_cell_angle_gamma                90
_cell_volume                     5199.61
_exptl_crystal_colour            orange
_chemical_melting_point          'above 400 deg.C'
_cell_formula_units_Z            4
loop_
_atom_site_label
_atom_site_type_symbol
_atom_site_fract_x
_atom_site_fract_y
_atom_site_fract_z
C1 C 0.04423 0.71166 0.25071
C2 C 0.08711 0.77715 0.26516
H1 H 0.05915 0.82142 0.27493
C3 C 0.17081 0.77783 0.26530
H2 H 0.19865 0.82229 0.27449
C4 C 0.21258 0.71200 0.25169
H3 H 0.26872 0.71248 0.25064
C5 C 0.17168 0.64563 0.23966
H4 H 0.20056 0.60134 0.23274
C6 C 0.08672 0.64404 0.23770
C7 C 0.03985 0.57261 0.23243
C8 C 0.06837 0.50655 0.20177
C9 C 0.02498 0.43689 0.21785
C10 C 0.03117 0.36916 0.17523
C11 C 0.00552 0.30215 0.21043
C12 C -0.00991 0.23270 0.17073
C13 C -0.01107 0.16699 0.20960
C14 C 0.14546 0.50206 0.15890
C15 C 0.20693 0.45634 0.18745
H5 H 0.19931 0.42969 0.23223
C16 C 0.27958 0.45102 0.14834
H6 H 0.32187 0.42296 0.16838
C17 C 0.28895 0.48720 0.08008
H7 H 0.33688 0.48175 0.05318
C18 C 0.22879 0.53096 0.05140
H8 H 0.23616 0.55598 0.00563
C19 C 0.15716 0.53814 0.09012
H9 H 0.11604 0.56756 0.06992
C20 C 0.06440 0.36718 0.09714
C21 C 0.13435 0.32652 0.08229
H10 H 0.16055 0.30064 0.12092
C22 C 0.16475 0.32518 0.00794
H11 H 0.21204 0.29886 -0.00222
C23 C 0.12650 0.36152 -0.04928
H12 H 0.14750 0.35990 -0.09815
C24 C 0.05693 0.40058 -0.03504
H13 H 0.02960 0.42427 -0.07441
C25 C 0.02737 0.40463 0.03854
H14 H -0.01841 0.43328 0.04835
C26 C -0.04361 0.23582 0.09177
C27 C -0.00558 0.20462 0.03030
H15 H 0.04255 0.17839 0.03642
C28 C -0.04015 0.21268 -0.04215
H16 H -0.01453 0.19228 -0.08431
C29 C -0.11105 0.25035 -0.05042
H17 H -0.13389 0.25434 -0.09842
C30 C -0.14985 0.28266 0.01023
H18 H -0.19780 0.30910 0.00376
C31 C -0.11542 0.27466 0.08115
H19 H -0.14106 0.29587 0.12289
C32 C -0.03881 0.09468 0.17499
C33 C 0.01143 0.04323 0.14546
H20 H 0.06677 0.05197 0.14694
C34 C -0.01672 -0.02222 0.11297
H21 H 0.01997 -0.05665 0.09331
C35 C -0.09535 -0.03707 0.10919
H22 H -0.11378 -0.08151 0.08752
C36 C -0.14762 0.01356 0.13740
H23 H -0.20290 0.00465 0.13506
C37 C -0.11896 0.07832 0.16960
H24 H -0.15597 0.11276 0.18869
C1C C -0.04423 0.71166 0.24929
C2C C -0.08711 0.77715 0.23484
H1C H -0.05915 0.82142 0.22507
C3C C -0.17081 0.77783 0.23470
H2C H -0.19865 0.82229 0.22551
C4C C -0.21258 0.71200 0.24831
H3C H -0.26872 0.71248 0.24936
C5C C -0.17168 0.64563 0.26034
H4C H -0.20056 0.60134 0.26726
C6C C -0.08672 0.64404 0.26230
C7C C -0.03985 0.57261 0.26757
C9C C -0.02498 0.43689 0.28215
C8C C -0.06837 0.50655 0.29823
C14C C -0.14546 0.50206 0.34110
C15C C -0.20693 0.45634 0.31255
H5C H -0.19931 0.42969 0.26777
C16C C -0.27958 0.45102 0.35166
H6C H -0.32187 0.42296 0.33162
C17C C -0.28895 0.48720 0.41992
H7C H -0.33688 0.48175 0.44682
C18C C -0.22879 0.53096 0.44860
H8C H -0.23616 0.55598 0.49437
C19C C -0.15716 0.53814 0.40988
H9C H -0.11604 0.56756 0.43008
C10C C -0.03117 0.36916 0.32477
C11C C -0.00552 0.30215 0.28957
C13C C 0.01107 0.16699 0.29040
C12C C 0.00991 0.23270 0.32927
C26C C 0.04361 0.23582 0.40823
C27C C 0.00558 0.20462 0.46970
H15C H -0.04255 0.17839 0.46358
C28C C 0.04015 0.21268 0.54215
H16C H 0.01453 0.19228 0.58431
C29C C 0.11105 0.25035 0.55042
H17C H 0.13389 0.25434 0.59842
C30C C 0.14985 0.28266 0.48977
H18C H 0.19780 0.30910 0.49624
C31C C 0.11542 0.27466 0.41885
H19C H 0.14106 0.29587 0.37711
C32C C 0.03881 0.09468 0.32501
C33C C -0.01143 0.04323 0.35454
H20C H -0.06677 0.05197 0.35306
C34C C 0.01672 -0.02222 0.38703
H21C H -0.01997 -0.05665 0.40669
C35C C 0.09535 -0.03707 0.39081
H22C H 0.11378 -0.08151 0.41248
C36C C 0.14762 0.01356 0.36260
H23C H 0.20290 0.00465 0.36494
C37C C 0.11896 0.07832 0.33040
H24C H 0.15597 0.11276 0.31131
C20C C -0.06440 0.36718 0.40286
C21C C -0.13435 0.32652 0.41771
H10C H -0.16055 0.30064 0.37908
C22C C -0.16475 0.32518 0.49206
H11C H -0.21204 0.29886 0.50222
C23C C -0.12650 0.36152 0.54928
H12C H -0.14750 0.35990 0.59815
C24C C -0.05693 0.40058 0.53504
H13C H -0.02960 0.42427 0.57441
C25C C -0.02737 0.40463 0.46146
H14C H 0.01841 0.43328 0.45165
loop_
_geom_bond_atom_site_label_1
_geom_bond_atom_site_label_2
_geom_bond_site_symmetry_1
_geom_bond_site_symmetry_2
C1 C2 1_555 1_555
C2 H1 1_555 1_555
C3 C2 1_555 1_555
H2 C3 1_555 1_555
C4 C3 1_555 1_555
H3 C4 1_555 1_555
C5 C4 1_555 1_555
H4 C5 1_555 1_555
C6 C1 1_555 1_555
C7 C6 1_555 1_555
C8 C7 1_555 1_555
C9 C8 1_555 1_555
C10 C9 1_555 1_555
C11 C10 1_555 1_555
C12 C11 1_555 1_555
C13 C12 1_555 1_555
C14 C8 1_555 1_555
C15 C14 1_555 1_555
H5 C15 1_555 1_555
C16 C15 1_555 1_555
H6 C16 1_555 1_555
C17 C16 1_555 1_555
H7 C17 1_555 1_555
C18 C17 1_555 1_555
H8 C18 1_555 1_555
C19 C14 1_555 1_555
H9 C19 1_555 1_555
C20 C10 1_555 1_555
C21 C20 1_555 1_555
H10 C21 1_555 1_555
C22 C21 1_555 1_555
H11 C22 1_555 1_555
C23 C22 1_555 1_555
H12 C23 1_555 1_555
C24 C23 1_555 1_555
H13 C24 1_555 1_555
C25 C20 1_555 1_555
H14 C25 1_555 1_555
C26 C12 1_555 1_555
C27 C26 1_555 1_555
H15 C27 1_555 1_555
C28 C27 1_555 1_555
H16 C28 1_555 1_555
C29 C28 1_555 1_555
H17 C29 1_555 1_555
C30 C29 1_555 1_555
H18 C30 1_555 1_555
C31 C26 1_555 1_555
H19 C31 1_555 1_555
C32 C13 1_555 1_555
C33 C32 1_555 1_555
H20 C33 1_555 1_555
C34 C33 1_555 1_555
H21 C34 1_555 1_555
C35 C34 1_555 1_555
H22 C35 1_555 1_555
C36 C35 1_555 1_555
H23 C36 1_555 1_555
C37 C32 1_555 1_555
H24 C37 1_555 1_555
C1C C1 1_555 1_555
C2C C1C 1_555 1_555
H1C C2C 1_555 1_555
C3C C2C 1_555 1_555
H2C C3C 1_555 1_555
C4C C3C 1_555 1_555
H3C C4C 1_555 1_555
C5C C4C 1_555 1_555
H4C C5C 1_555 1_555
C6C C1C 1_555 1_555
C7C C7 1_555 1_555
C9C C9 1_555 1_555
C8C C7C 1_555 1_555
C14C C8C 1_555 1_555
C15C C14C 1_555 1_555
H5C C15C 1_555 1_555
C16C C15C 1_555 1_555
H6C C16C 1_555 1_555
C17C C16C 1_555 1_555
H7C C17C 1_555 1_555
C18C C17C 1_555 1_555
H8C C18C 1_555 1_555
C19C C14C 1_555 1_555
H9C C19C 1_555 1_555
C10C C9C 1_555 1_555
C11C C11 1_555 1_555
C13C C13 1_555 1_555
C12C C11C 1_555 1_555
C26C C12C 1_555 1_555
C27C C26C 1_555 1_555
H15C C27C 1_555 1_555
C28C C27C 1_555 1_555
H16C C28C 1_555 1_555
C29C C28C 1_555 1_555
H17C C29C 1_555 1_555
C30C C29C 1_555 1_555
H18C C30C 1_555 1_555
C31C C26C 1_555 1_555
H19C C31C 1_555 1_555
C32C C13C 1_555 1_555
C33C C32C 1_555 1_555
H20C C33C 1_555 1_555
C34C C33C 1_555 1_555
H21C C34C 1_555 1_555
C35C C34C 1_555 1_555
H22C C35C 1_555 1_555
C36C C35C 1_555 1_555
H23C C36C 1_555 1_555
C37C C32C 1_555 1_555
H24C C37C 1_555 1_555
C20C C10C 1_555 1_555
C21C C20C 1_555 1_555
H10C C21C 1_555 1_555
C22C C21C 1_555 1_555
H11C C22C 1_555 1_555
C23C C22C 1_555 1_555
H12C C23C 1_555 1_555
C24C C23C 1_555 1_555
H13C C24C 1_555 1_555
C25C C20C 1_555 1_555
H14C C25C 1_555 1_555
C5 C6 1_555 1_555
C18 C19 1_555 1_555
C24 C25 1_555 1_555
C30 C31 1_555 1_555
C36 C37 1_555 1_555
C5C C6C 1_555 1_555
C6C C7C 1_555 1_555
C9C C8C 1_555 1_555
C18C C19C 1_555 1_555
C10C C11C 1_555 1_555
C13C C12C 1_555 1_555
C30C C31C 1_555 1_555
C36C C37C 1_555 1_555
C24C C25C 1_555 1_555

#END
