
#######################################################################
#
#                 Cambridge Crystallographic Data Centre
#                                CCDC 
#
#######################################################################
#
# If this CIF has been generated from an entry in the Cambridge 
# Structural Database, then it will include bibliographic, chemical, 
# crystal, experimental, refinement or atomic coordinate data resulting 
# from the CCDC's data processing and validation procedures.
#
#######################################################################

data_RIJPAE
_chemical_formula_moiety         '3(C9 H28 O1 Si4),C6 H16 N1 1+,Cl1 1-'
_chemical_name_systematic        
'triethylammonium chloride tris(tris(trimethylsilyl)silanol)'
_symmetry_cell_setting           triclinic
_symmetry_space_group_name_H-M   'P -1'
_symmetry_Int_Tables_number      2
_space_group_name_Hall           '-P 1'
loop_
_symmetry_equiv_pos_site_id
_symmetry_equiv_pos_as_xyz
1 x,y,z
2 -x,-y,-z
_cell_length_a                   9.4066(8)
_cell_length_b                   14.4997(13)
_cell_length_c                   23.353(2)
_cell_angle_alpha                91.298(7)
_cell_angle_beta                 90.390(7)
_cell_angle_gamma                104.658(6)
_cell_volume                     3080.47
_exptl_crystal_colour            colorless
_exptl_crystal_description       plank
_cell_formula_units_Z            2
loop_
_atom_site_label
_atom_site_type_symbol
_atom_site_fract_x
_atom_site_fract_y
_atom_site_fract_z
Si1 Si 0.2525(3) 0.2425(2) 0.11033(12)
Si2 Si 0.0757(3) 0.1147(2) 0.14940(13)
Si3 Si 0.1384(4) 0.3221(2) 0.04486(14)
Si4 Si 0.4311(3) 0.1833(2) 0.06212(14)
O1 O 0.3405(7) 0.3196(5) 0.1622(3)
H1 H 0.296222 0.362546 0.167583
C1 C 0.1475(14) 0.0712(8) 0.2167(5)
H2 H 0.245465 0.061682 0.209729
H3 H 0.080811 0.010626 0.227477
H4 H 0.153294 0.118558 0.247791
C2 C -0.0932(11) 0.1553(9) 0.1697(5)
H5 H -0.066164 0.208220 0.197748
H6 H -0.165694 0.102174 0.186365
H7 H -0.135581 0.176388 0.135435
C3 C 0.0269(16) 0.0127(8) 0.0960(6)
H8 H -0.010616 0.033977 0.060756
H9 H -0.048685 -0.039395 0.111969
H10 H 0.114602 -0.009651 0.087447
C4 C 0.0273(15) 0.3934(9) 0.0836(6)
H11 H -0.048304 0.350786 0.106117
H12 H -0.019796 0.426182 0.055814
H13 H 0.091665 0.440587 0.109275
C5 C 0.2783(19) 0.4074(11) -0.0002(6)
H14 H 0.355755 0.446177 0.024799
H15 H 0.229389 0.449101 -0.020842
H16 H 0.321664 0.370797 -0.027771
C6 C 0.0029(18) 0.2333(11) -0.0025(6)
H17 H 0.056345 0.198961 -0.027579
H18 H -0.053278 0.267258 -0.025975
H19 H -0.064547 0.187787 0.021409
C7 C 0.4867(14) 0.0877(9) 0.1033(6)
H20 H 0.524811 0.113301 0.141175
H21 H 0.563092 0.066433 0.082442
H22 H 0.401037 0.033624 0.107879
C8 C 0.3553(15) 0.1310(12) -0.0099(6)
H23 H 0.265537 0.080292 -0.004457
H24 H 0.428378 0.104461 -0.029502
H25 H 0.332536 0.181000 -0.033098
C9 C 0.6011(13) 0.2853(10) 0.0501(6)
H26 H 0.573348 0.334790 0.027968
H27 H 0.674216 0.260976 0.028940
H28 H 0.642865 0.312321 0.087169
Si5 Si 0.3752(3) 0.69639(18) 0.24928(12)
Si6 Si 0.2704(3) 0.6993(2) 0.15807(13)
Si7 Si 0.6124(3) 0.8006(2) 0.25649(15)
Si8 Si 0.2230(3) 0.7402(2) 0.31824(13)
O2 O 0.3972(8) 0.5876(5) 0.2616(3)
H29 H 0.324670 0.546213 0.248175
C10 C 0.3530(15) 0.6288(10) 0.1067(5)
H30 H 0.460073 0.646271 0.111883
H31 H 0.328237 0.642257 0.067453
H32 H 0.314441 0.560682 0.113636
C11 C 0.3029(17) 0.8257(9) 0.1332(6)
H33 H 0.257249 0.862385 0.159932
H34 H 0.259517 0.825545 0.094908
H35 H 0.408788 0.854964 0.131839
C12 C 0.0681(13) 0.6450(9) 0.1592(5)
H36 H 0.049586 0.576994 0.167257
H37 H 0.024794 0.652685 0.121872
H38 H 0.023686 0.676839 0.189050
C13 C 0.7269(15) 0.8030(10) 0.1902(7)
H39 H 0.741627 0.739317 0.182507
H40 H 0.822515 0.848722 0.196243
H41 H 0.676152 0.822078 0.157508
C14 C 0.6016(16) 0.9274(9) 0.2694(8)
H42 H 0.544098 0.945747 0.238452
H43 H 0.700907 0.969783 0.270228
H44 H 0.554010 0.932492 0.306085
C15 C 0.7137(15) 0.7626(10) 0.3181(6)
H45 H 0.649071 0.749576 0.351240
H46 H 0.801075 0.813636 0.328073
H47 H 0.743474 0.704728 0.306834
C16 C 0.3134(19) 0.7660(13) 0.3909(6)
H48 H 0.370828 0.719643 0.398369
H49 H 0.237980 0.761205 0.420219
H50 H 0.378663 0.830489 0.392084
C17 C 0.1629(13) 0.8473(8) 0.2936(6)
H51 H 0.249109 0.901277 0.290010
H52 H 0.095504 0.863687 0.321539
H53 H 0.112788 0.832565 0.256293
C18 C 0.0571(14) 0.6389(9) 0.3246(6)
H54 H -0.002153 0.632260 0.289347
H55 H -0.001345 0.651161 0.357145
H56 H 0.087442 0.579955 0.330643
Si9 Si 0.2114(3) 0.24709(18) 0.39785(11)
Si10 Si 0.2034(3) 0.3913(2) 0.44454(12)
Si11 Si -0.0239(3) 0.14197(19) 0.40182(12)
Si12 Si 0.3838(3) 0.1793(2) 0.44238(12)
O3 O 0.2632(7) 0.2643(5) 0.3303(3)
H57 H 0.197603 0.280797 0.311558
C19 C 0.2139(14) 0.3814(8) 0.5238(5)
H58 H 0.137392 0.326194 0.536007
H59 H 0.199041 0.439451 0.542383
H60 H 0.310646 0.373226 0.534734
C20 C 0.3588(14) 0.4899(8) 0.4228(6)
H61 H 0.451289 0.478561 0.436744
H62 H 0.347032 0.550293 0.439139
H63 H 0.360541 0.492992 0.380895
C21 C 0.0285(13) 0.4250(9) 0.4251(6)
H64 H 0.010228 0.415651 0.383775
H65 H 0.038179 0.492124 0.435787
H66 H -0.053867 0.384835 0.445726
C22 C -0.0984(12) 0.1473(8) 0.4753(5)
H67 H -0.023850 0.141845 0.503697
H68 H -0.186241 0.094685 0.479552
H69 H -0.124089 0.208175 0.481363
C23 C -0.1462(12) 0.1793(8) 0.3489(5)
H70 H -0.156853 0.242885 0.359725
H71 H -0.242885 0.133694 0.348409
H72 H -0.103054 0.181004 0.310737
C24 C -0.0195(13) 0.0171(7) 0.3820(5)
H73 H 0.028256 0.016403 0.344935
H74 H -0.120180 -0.023289 0.379474
H75 H 0.035654 -0.007157 0.411342
C25 C 0.5640(12) 0.2687(9) 0.4528(6)
H76 H 0.604233 0.290371 0.415439
H77 H 0.632553 0.239514 0.472999
H78 H 0.549913 0.323350 0.475516
C26 C 0.3127(14) 0.1355(9) 0.5148(5)
H79 H 0.303278 0.189762 0.538990
H80 H 0.381545 0.104099 0.532936
H81 H 0.216413 0.090070 0.510160
C27 C 0.4148(13) 0.0758(8) 0.3988(6)
H82 H 0.327975 0.021810 0.400860
H83 H 0.500690 0.057353 0.413960
H84 H 0.431731 0.094269 0.358819
N1 N 0.6157(10) 0.3799(6) 0.2239(4)
H85 H 0.523821 0.360331 0.200052
C28 C 0.6702(13) 0.2921(10) 0.2297(6)
H86 H 0.690775 0.269593 0.191018
H87 H 0.763939 0.308826 0.251658
C29 C 0.5657(13) 0.2128(9) 0.2585(6)
H88 H 0.468900 0.200742 0.239846
H89 H 0.557631 0.230367 0.298931
H90 H 0.601697 0.155095 0.255828
C30 C 0.7195(15) 0.4520(11) 0.1909(6)
H91 H 0.800900 0.485729 0.216694
H92 H 0.762092 0.418850 0.160516
C31 C 0.657(2) 0.5213(13) 0.1647(8)
H93 H 0.601849 0.493226 0.130040
H94 H 0.735098 0.576857 0.154644
H95 H 0.589832 0.541067 0.191655
C32 C 0.5711(12) 0.4185(8) 0.2803(5)
H96 H 0.534631 0.475514 0.272782
H97 H 0.489688 0.369753 0.296883
C33 C 0.6970(15) 0.4451(10) 0.3230(6)
H98 H 0.783076 0.485874 0.304785
H99 H 0.721049 0.387063 0.336180
H100 H 0.668517 0.479503 0.355798
Cl1 Cl 0.1439(3) 0.39805(18) 0.24601(11)
loop_
_geom_bond_atom_site_label_1
_geom_bond_atom_site_label_2
_geom_bond_site_symmetry_1
_geom_bond_site_symmetry_2
Si1 Si2 1_555 1_555
Si2 C1 1_555 1_555
Si3 Si1 1_555 1_555
Si4 Si1 1_555 1_555
O1 Si1 1_555 1_555
H1 O1 1_555 1_555
C1 H2 1_555 1_555
H3 C1 1_555 1_555
H4 C1 1_555 1_555
C2 Si2 1_555 1_555
H5 C2 1_555 1_555
H6 C2 1_555 1_555
H7 C2 1_555 1_555
C3 Si2 1_555 1_555
H8 C3 1_555 1_555
H9 C3 1_555 1_555
H10 C3 1_555 1_555
C4 Si3 1_555 1_555
H11 C4 1_555 1_555
H12 C4 1_555 1_555
H13 C4 1_555 1_555
C5 Si3 1_555 1_555
H14 C5 1_555 1_555
H15 C5 1_555 1_555
H16 C5 1_555 1_555
C6 Si3 1_555 1_555
H17 C6 1_555 1_555
H18 C6 1_555 1_555
H19 C6 1_555 1_555
C7 Si4 1_555 1_555
H20 C7 1_555 1_555
H21 C7 1_555 1_555
H22 C7 1_555 1_555
C8 Si4 1_555 1_555
H23 C8 1_555 1_555
H24 C8 1_555 1_555
H25 C8 1_555 1_555
C9 Si4 1_555 1_555
H26 C9 1_555 1_555
H27 C9 1_555 1_555
H28 C9 1_555 1_555
Si5 Si6 1_555 1_555
Si6 C10 1_555 1_555
Si7 Si5 1_555 1_555
Si8 Si5 1_555 1_555
O2 Si5 1_555 1_555
H29 O2 1_555 1_555
C10 H30 1_555 1_555
H31 C10 1_555 1_555
H32 C10 1_555 1_555
C11 Si6 1_555 1_555
H33 C11 1_555 1_555
H34 C11 1_555 1_555
H35 C11 1_555 1_555
C12 Si6 1_555 1_555
H36 C12 1_555 1_555
H37 C12 1_555 1_555
H38 C12 1_555 1_555
C13 Si7 1_555 1_555
H39 C13 1_555 1_555
H40 C13 1_555 1_555
H41 C13 1_555 1_555
C14 Si7 1_555 1_555
H42 C14 1_555 1_555
H43 C14 1_555 1_555
H44 C14 1_555 1_555
C15 Si7 1_555 1_555
H45 C15 1_555 1_555
H46 C15 1_555 1_555
H47 C15 1_555 1_555
C16 Si8 1_555 1_555
H48 C16 1_555 1_555
H49 C16 1_555 1_555
H50 C16 1_555 1_555
C17 Si8 1_555 1_555
H51 C17 1_555 1_555
H52 C17 1_555 1_555
H53 C17 1_555 1_555
C18 Si8 1_555 1_555
H54 C18 1_555 1_555
H55 C18 1_555 1_555
H56 C18 1_555 1_555
Si9 Si10 1_555 1_555
Si10 C19 1_555 1_555
Si11 Si9 1_555 1_555
Si12 Si9 1_555 1_555
O3 Si9 1_555 1_555
H57 O3 1_555 1_555
C19 H58 1_555 1_555
H59 C19 1_555 1_555
H60 C19 1_555 1_555
C20 Si10 1_555 1_555
H61 C20 1_555 1_555
H62 C20 1_555 1_555
H63 C20 1_555 1_555
C21 Si10 1_555 1_555
H64 C21 1_555 1_555
H65 C21 1_555 1_555
H66 C21 1_555 1_555
C22 Si11 1_555 1_555
H67 C22 1_555 1_555
H68 C22 1_555 1_555
H69 C22 1_555 1_555
C23 Si11 1_555 1_555
H70 C23 1_555 1_555
H71 C23 1_555 1_555
H72 C23 1_555 1_555
C24 Si11 1_555 1_555
H73 C24 1_555 1_555
H74 C24 1_555 1_555
H75 C24 1_555 1_555
C25 Si12 1_555 1_555
H76 C25 1_555 1_555
H77 C25 1_555 1_555
H78 C25 1_555 1_555
C26 Si12 1_555 1_555
H79 C26 1_555 1_555
H80 C26 1_555 1_555
H81 C26 1_555 1_555
C27 Si12 1_555 1_555
H82 C27 1_555 1_555
H83 C27 1_555 1_555
H84 C27 1_555 1_555
N1 H85 1_555 1_555
C28 N1 1_555 1_555
H86 C28 1_555 1_555
H87 C28 1_555 1_555
C29 C28 1_555 1_555
H88 C29 1_555 1_555
H89 C29 1_555 1_555
H90 C29 1_555 1_555
C30 N1 1_555 1_555
H91 C30 1_555 1_555
H92 C30 1_555 1_555
C31 C30 1_555 1_555
H93 C31 1_555 1_555
H94 C31 1_555 1_555
H95 C31 1_555 1_555
C32 N1 1_555 1_555
H96 C32 1_555 1_555
H97 C32 1_555 1_555
C33 C32 1_555 1_555
H98 C33 1_555 1_555
H99 C33 1_555 1_555
H100 C33 1_555 1_555

#END
