
#######################################################################
#
#                 Cambridge Crystallographic Data Centre
#                                CCDC 
#
#######################################################################
#
# If this CIF has been generated from an entry in the Cambridge 
# Structural Database, then it will include bibliographic, chemical, 
# crystal, experimental, refinement or atomic coordinate data resulting 
# from the CCDC's data processing and validation procedures.
#
#######################################################################

data_RIKBOE
_chemical_formula_moiety         'C56 H60 K2 N2 P4 S2 Si2'
_chemical_name_systematic        
bis(\m~2~,\h^6^-2,2-dimethyl-4,4,6,6-tetraphenyl-6-sulfido-3-aza-4,6-diphospha-2-silahex-4-en-3-yl)-di-potassium
_symmetry_cell_setting           monoclinic
_symmetry_space_group_name_H-M   'P 21/n'
_symmetry_Int_Tables_number      14
_space_group_name_Hall           '-P 2yn'
loop_
_symmetry_equiv_pos_site_id
_symmetry_equiv_pos_as_xyz
1 x,y,z
2 1/2-x,1/2+y,1/2-z
3 -x,-y,-z
4 1/2+x,1/2-y,1/2+z
_cell_length_a                   11.5785(5)
_cell_length_b                   14.3272(5)
_cell_length_c                   16.7733(8)
_cell_angle_alpha                90
_cell_angle_beta                 97.621(4)
_cell_angle_gamma                90
_cell_volume                     2757.9
_exptl_crystal_colour            colorless
_exptl_crystal_description       prism
_cell_formula_units_Z            2
loop_
_atom_site_label
_atom_site_type_symbol
_atom_site_fract_x
_atom_site_fract_y
_atom_site_fract_z
K1 K 0.51641(6) 1.01056(4) 0.11830(4)
S1 S 0.38884(7) 0.85326(5) 0.00920(5)
P1 P 0.48422(6) 0.75845(5) 0.07758(5)
P2 P 0.72408(6) 0.82101(5) 0.04997(4)
Si1 Si 0.82061(7) 0.96109(6) 0.17407(5)
N1 N 0.72217(19) 0.91059(15) 0.10394(13)
C1 C 0.6240(2) 0.7364(2) 0.06269(18)
H1 H 0.632(2) 0.6833(18) 0.0447(15)
C2 C 0.4768(2) 0.79010(17) 0.18284(18)
C3 C 0.5769(3) 0.7881(2) 0.2390(2)
H2 H 0.648(3) 0.770(2) 0.2207(18)
C4 C 0.5703(3) 0.8110(3) 0.3185(2)
H3 H 0.643(3) 0.813(2) 0.355(2)
C5 C 0.4656(4) 0.8350(2) 0.3432(2)
H4 H 0.463(3) 0.857(2) 0.398(2)
C6 C 0.3675(3) 0.8362(2) 0.2879(2)
H5 H 0.296(3) 0.849(2) 0.305(2)
C7 C 0.3717(3) 0.8135(2) 0.2087(2)
H6 H 0.309(3) 0.816(2) 0.1702(19)
C8 C 0.4105(2) 0.64624(18) 0.06605(17)
C9 C 0.4088(3) 0.5860(2) 0.13037(19)
H7 H 0.444(3) 0.6035(19) 0.1769(18)
C10 C 0.3510(3) 0.5014(2) 0.1208(2)
H8 H 0.348(2) 0.4635(19) 0.1719(18)
C11 C 0.2960(3) 0.4754(2) 0.0470(2)
H9 H 0.254(3) 0.419(2) 0.0427(18)
C12 C 0.3002(3) 0.5334(2) -0.0179(2)
H10 H 0.262(3) 0.510(2) -0.0695(19)
C13 C 0.3565(3) 0.6185(2) -0.0085(2)
H11 H 0.354(2) 0.663(2) -0.0539(18)
C14 C 0.7076(2) 0.85776(19) -0.05557(17)
C15 C 0.6474(3) 0.8029(2) -0.11600(18)
H12 H 0.607(2) 0.747(2) -0.0999(16)
C16 C 0.6393(3) 0.8296(2) -0.19607(18)
H13 H 0.597(3) 0.795(2) -0.2366(18)
C17 C 0.6926(3) 0.9111(2) -0.2169(2)
H14 H 0.686(3) 0.927(2) -0.2694(19)
C18 C 0.7528(3) 0.9660(2) -0.15771(19)
H15 H 0.787(3) 1.022(2) -0.1713(18)
C19 C 0.7589(3) 0.9407(2) -0.07754(18)
H16 H 0.797(2) 0.9806(18) -0.0357(17)
C20 C 0.8651(2) 0.76080(19) 0.05853(16)
C21 C 0.9603(3) 0.8019(2) 0.03070(19)
H17 H 0.953(2) 0.8599(19) 0.0024(17)
C22 C 1.0683(3) 0.7583(2) 0.04142(19)
H18 H 1.125(3) 0.7875(19) 0.0248(19)
C23 C 1.0813(3) 0.6726(2) 0.07749(19)
H19 H 1.150(3) 0.641(2) 0.0839(18)
C24 C 0.9877(3) 0.6302(2) 0.1047(2)
H20 H 0.992(3) 0.572(2) 0.1279(18)
C25 C 0.8799(3) 0.6751(2) 0.09644(18)
H21 H 0.818(2) 0.6451(18) 0.1204(16)
C26 C 0.7434(3) 1.0408(3) 0.2389(2)
H22 H 0.704(3) 1.097(2) 0.211(2)
H23 H 0.797(3) 1.065(2) 0.280(2)
H24 H 0.685(3) 1.004(3) 0.259(2)
C27 C 0.9053(4) 0.8765(3) 0.2433(2)
H25 H 0.862(3) 0.831(3) 0.262(2)
H26 H 0.948(3) 0.906(2) 0.291(2)
H27 H 0.964(3) 0.848(2) 0.214(2)
C28 C 0.9252(3) 1.0382(3) 0.1280(2)
H28 H 0.978(3) 1.001(2) 0.098(2)
H29 H 0.976(3) 1.071(2) 0.166(2)
H30 H 0.884(3) 1.076(2) 0.095(2)
K1B K 0.48359(6) 0.98944(4) -0.11830(4)
S1B S 0.61116(7) 1.14674(5) -0.00920(5)
P1B P 0.51578(6) 1.24155(5) -0.07758(5)
P2B P 0.27592(6) 1.17899(5) -0.04997(4)
Si1B Si 0.17939(7) 1.03891(6) -0.17407(5)
N1B N 0.27783(19) 1.08941(15) -0.10394(13)
C1B C 0.3760(2) 1.2636(2) -0.06269(18)
H1B H 0.368(2) 1.3167(18) -0.0447(15)
C2B C 0.5232(2) 1.20990(17) -0.18284(18)
C3B C 0.4231(3) 1.2119(2) -0.2390(2)
H2B H 0.352(3) 1.230(2) -0.2207(18)
C4B C 0.4297(3) 1.1890(3) -0.3185(2)
H3B H 0.357(3) 1.187(2) -0.355(2)
C5B C 0.5344(4) 1.1650(2) -0.3432(2)
H4B H 0.537(3) 1.143(2) -0.398(2)
C6B C 0.6325(3) 1.1638(2) -0.2879(2)
H5B H 0.704(3) 1.151(2) -0.305(2)
C7B C 0.6283(3) 1.1865(2) -0.2087(2)
H6B H 0.691(3) 1.184(2) -0.1702(19)
C8B C 0.5895(2) 1.35376(18) -0.06605(17)
C9B C 0.5912(3) 1.4140(2) -0.13037(19)
H7B H 0.556(3) 1.3965(19) -0.1769(18)
C10B C 0.6490(3) 1.4986(2) -0.1208(2)
H8B H 0.652(2) 1.5365(19) -0.1719(18)
C11B C 0.7040(3) 1.5246(2) -0.0470(2)
H9B H 0.746(3) 1.581(2) -0.0427(18)
C12B C 0.6998(3) 1.4666(2) 0.0179(2)
H10B H 0.738(3) 1.490(2) 0.0695(19)
C13B C 0.6435(3) 1.3815(2) 0.0085(2)
H11B H 0.646(2) 1.337(2) 0.0539(18)
C14B C 0.2924(2) 1.14224(19) 0.05557(17)
C15B C 0.3526(3) 1.1971(2) 0.11600(18)
H12B H 0.393(2) 1.253(2) 0.0999(16)
C16B C 0.3607(3) 1.1704(2) 0.19607(18)
H13B H 0.403(3) 1.205(2) 0.2366(18)
C17B C 0.3074(3) 1.0889(2) 0.2169(2)
H14B H 0.314(3) 1.073(2) 0.2694(19)
C18B C 0.2472(3) 1.0340(2) 0.15771(19)
H15B H 0.213(3) 0.978(2) 0.1713(18)
C19B C 0.2411(3) 1.0593(2) 0.07754(18)
H16B H 0.203(2) 1.0194(18) 0.0357(17)
C20B C 0.1349(2) 1.23920(19) -0.05853(16)
C21B C 0.0397(3) 1.1981(2) -0.03070(19)
H17B H 0.047(2) 1.1401(19) -0.0024(17)
C22B C -0.0683(3) 1.2417(2) -0.04142(19)
H18B H -0.125(3) 1.2125(19) -0.0248(19)
C23B C -0.0813(3) 1.3274(2) -0.07749(19)
H19B H -0.150(3) 1.359(2) -0.0839(18)
C24B C 0.0123(3) 1.3698(2) -0.1047(2)
H20B H 0.008(3) 1.428(2) -0.1279(18)
C25B C 0.1201(3) 1.3249(2) -0.09644(18)
H21B H 0.182(2) 1.3549(18) -0.1204(16)
C26B C 0.2566(3) 0.9592(3) -0.2389(2)
H22B H 0.296(3) 0.903(2) -0.211(2)
H23B H 0.203(3) 0.935(2) -0.280(2)
H24B H 0.315(3) 0.996(3) -0.259(2)
C27B C 0.0947(4) 1.1235(3) -0.2433(2)
H25B H 0.138(3) 1.169(3) -0.262(2)
H26B H 0.052(3) 1.094(2) -0.291(2)
H27B H 0.036(3) 1.152(2) -0.214(2)
C28B C 0.0748(3) 0.9618(3) -0.1280(2)
H28B H 0.022(3) 0.999(2) -0.098(2)
H29B H 0.024(3) 0.929(2) -0.166(2)
H30B H 0.116(3) 0.924(2) -0.095(2)
loop_
_geom_bond_atom_site_label_1
_geom_bond_atom_site_label_2
_geom_bond_site_symmetry_1
_geom_bond_site_symmetry_2
K1 S1 1_555 1_555
S1 P1 1_555 1_555
P1 C1 1_555 1_555
P2 N1 1_555 1_555
Si1 N1 1_555 1_555
N1 K1 1_555 1_555
C1 P2 1_555 1_555
H1 C1 1_555 1_555
C2 K1 1_555 1_555
C3 C2 1_555 1_555
H2 C3 1_555 1_555
C4 C3 1_555 1_555
H3 C4 1_555 1_555
C5 C4 1_555 1_555
H4 C5 1_555 1_555
C6 C5 1_555 1_555
H5 C6 1_555 1_555
C7 C2 1_555 1_555
H6 C7 1_555 1_555
C8 P1 1_555 1_555
C9 C8 1_555 1_555
H7 C9 1_555 1_555
C10 C9 1_555 1_555
H8 C10 1_555 1_555
C11 C10 1_555 1_555
H9 C11 1_555 1_555
C12 C11 1_555 1_555
H10 C12 1_555 1_555
C13 C8 1_555 1_555
H11 C13 1_555 1_555
C14 P2 1_555 1_555
C15 C14 1_555 1_555
H12 C15 1_555 1_555
C16 C15 1_555 1_555
H13 C16 1_555 1_555
C17 C16 1_555 1_555
H14 C17 1_555 1_555
C18 C17 1_555 1_555
H15 C18 1_555 1_555
C19 C14 1_555 1_555
H16 C19 1_555 1_555
C20 P2 1_555 1_555
C21 C20 1_555 1_555
H17 C21 1_555 1_555
C22 C21 1_555 1_555
H18 C22 1_555 1_555
C23 C22 1_555 1_555
H19 C23 1_555 1_555
C24 C23 1_555 1_555
H20 C24 1_555 1_555
C25 C20 1_555 1_555
H21 C25 1_555 1_555
C26 Si1 1_555 1_555
H22 C26 1_555 1_555
H23 C26 1_555 1_555
H24 C26 1_555 1_555
C27 Si1 1_555 1_555
H25 C27 1_555 1_555
H26 C27 1_555 1_555
H27 C27 1_555 1_555
C28 Si1 1_555 1_555
H28 C28 1_555 1_555
H29 C28 1_555 1_555
H30 C28 1_555 1_555
K1B S1 1_555 1_555
S1B K1 1_555 1_555
P1B S1B 1_555 1_555
P2B N1B 1_555 1_555
Si1B N1B 1_555 1_555
N1B K1B 1_555 1_555
C1B P1B 1_555 1_555
H1B C1B 1_555 1_555
C2B K1B 1_555 1_555
C3B C2B 1_555 1_555
H2B C3B 1_555 1_555
C4B C3B 1_555 1_555
H3B C4B 1_555 1_555
C5B C4B 1_555 1_555
H4B C5B 1_555 1_555
C6B C5B 1_555 1_555
H5B C6B 1_555 1_555
C7B C2B 1_555 1_555
H6B C7B 1_555 1_555
C8B P1B 1_555 1_555
C9B C8B 1_555 1_555
H7B C9B 1_555 1_555
C10B C9B 1_555 1_555
H8B C10B 1_555 1_555
C11B C10B 1_555 1_555
H9B C11B 1_555 1_555
C12B C11B 1_555 1_555
H10B C12B 1_555 1_555
C13B C8B 1_555 1_555
H11B C13B 1_555 1_555
C14B K1 1_555 1_555
C15B K1 1_555 1_555
H12B C15B 1_555 1_555
C16B K1 1_555 1_555
H13B C16B 1_555 1_555
C17B K1 1_555 1_555
H14B C17B 1_555 1_555
C18B K1 1_555 1_555
H15B C18B 1_555 1_555
C19B K1 1_555 1_555
H16B C19B 1_555 1_555
C20B P2B 1_555 1_555
C21B C20B 1_555 1_555
H17B C21B 1_555 1_555
C22B C21B 1_555 1_555
H18B C22B 1_555 1_555
C23B C22B 1_555 1_555
H19B C23B 1_555 1_555
C24B C23B 1_555 1_555
H20B C24B 1_555 1_555
C25B C20B 1_555 1_555
H21B C25B 1_555 1_555
C26B Si1B 1_555 1_555
H22B C26B 1_555 1_555
H23B C26B 1_555 1_555
H24B C26B 1_555 1_555
C27B Si1B 1_555 1_555
H25B C27B 1_555 1_555
H26B C27B 1_555 1_555
H27B C27B 1_555 1_555
C28B Si1B 1_555 1_555
H28B C28B 1_555 1_555
H29B C28B 1_555 1_555
H30B C28B 1_555 1_555
P1 C2 1_555 1_555
C6 C7 1_555 1_555
C12 C13 1_555 1_555
C14 K1B 1_555 1_555
C15 K1B 1_555 1_555
C16 K1B 1_555 1_555
C17 K1B 1_555 1_555
C18 C19 1_555 1_555
C18 K1B 1_555 1_555
C19 K1B 1_555 1_555
C24 C25 1_555 1_555
K1B S1B 1_555 1_555
P1B C2B 1_555 1_555
P2B C1B 1_555 1_555
P2B C14B 1_555 1_555
C6B C7B 1_555 1_555
C12B C13B 1_555 1_555
C14B C15B 1_555 1_555
C14B C19B 1_555 1_555
C15B C16B 1_555 1_555
C16B C17B 1_555 1_555
C17B C18B 1_555 1_555
C18B C19B 1_555 1_555
C24B C25B 1_555 1_555

#END
