
#######################################################################
#
#                 Cambridge Crystallographic Data Centre
#                                CCDC 
#
#######################################################################
#
# If this CIF has been generated from an entry in the Cambridge 
# Structural Database, then it will include bibliographic, chemical, 
# crystal, experimental, refinement or atomic coordinate data resulting 
# from the CCDC's data processing and validation procedures.
#
#######################################################################

data_RIKHIF
_chemical_name_common            
'1$4!,1$6!,3$4!,3$6!,5$4!,5$6!,7$4!,7$6!,9$4!,9$6!-decaformyl-(1,3)decabenzenacyclodecaphane unknown solvate'
_chemical_formula_moiety         'C70 H40 O10'
_chemical_name_systematic        
'undecacyclo[45.3.1.1^2,6^.1^7,11^.1^12,16^.1^17,21^.1^22,26^.1^27,31^.1^32,36^.1^37,41^.1^42,46^]hexaconta-1(51),2(60),3,5,7(59),8,10,12(58),13,15,17(57),18,20,22(56),23,25,27(55),28,30,32(54),33,35,37(53),38,40,42(52),43,45,47,49-triacontaene-3,5,13,15,23,25,33,35,43,45-decacarbaldehyde unknown solvate'
_symmetry_cell_setting           monoclinic
_symmetry_space_group_name_H-M   'C 2/m'
_symmetry_Int_Tables_number      12
_space_group_name_Hall           '-C 2y'
loop_
_symmetry_equiv_pos_site_id
_symmetry_equiv_pos_as_xyz
1 x,y,z
2 -x,y,-z
3 1/2+x,1/2+y,z
4 1/2-x,1/2+y,-z
5 -x,-y,-z
6 x,-y,z
7 1/2-x,1/2-y,-z
8 1/2+x,1/2-y,z
_cell_length_a                   27.067(2)
_cell_length_b                   23.017(2)
_cell_length_c                   15.3850(12)
_cell_angle_alpha                90
_cell_angle_beta                 122.082(5)
_cell_angle_gamma                90
_cell_volume                     8121.16
_exptl_crystal_colour            colorless
_exptl_crystal_description       prism
_cell_formula_units_Z            4
loop_
_atom_site_label
_atom_site_type_symbol
_atom_site_fract_x
_atom_site_fract_y
_atom_site_fract_z
O1 O 0.28324(11) 0.39422(10) 0.8254(2)
O2 O 0.23134(11) 0.13885(12) 0.3851(2)
O3 O 0.29669(11) 0.21214(12) 0.7380(2)
O4 O 0.15876(11) 0.22595(11) 0.0374(2)
O5 O 0.13505(12) 0.40905(13) -0.1534(2)
C1 C 0.41162(14) 0.44651(15) 0.8292(3)
C2 C 0.31191(14) 0.44754(15) 0.0547(3)
C3 C 0.43318(14) 0.29916(15) 0.7448(3)
C4 C 0.29782(15) 0.30061(15) 0.1475(3)
C5 C 0.34918(14) 0.22908(15) 0.6563(3)
C6 C 0.31821(14) 0.19215(15) 0.4876(3)
C7 C 0.4369(2) 0.5000 0.8314(4)
H1 H 0.4730 0.5000 0.8346
C8 C 0.39672(14) 0.25756(15) 0.6624(3)
C9 C 0.33883(14) 0.26282(15) 0.2338(3)
C10 C 0.33187(15) 0.25349(14) 0.3171(3)
H2 H 0.2986 0.2690 0.3147
C11 C 0.22627(15) 0.37834(15) -0.0100(3)
C12 C 0.35871(14) 0.44739(15) 0.8251(3)
C13 C 0.40551(14) 0.25094(15) 0.5808(3)
H3 H 0.4387 0.2682 0.5852
C14 C 0.23720(14) 0.28972(15) 0.0823(3)
C15 C 0.36613(15) 0.21934(16) 0.4930(3)
C16 C 0.31092(15) 0.19639(15) 0.5711(3)
H4 H 0.2795 0.1767 0.5691
C17 C 0.37207(14) 0.22247(16) 0.4016(3)
C18 C 0.44004(14) 0.39204(14) 0.8253(3)
C19 C 0.20330(15) 0.32875(15) 0.0046(3)
H5 H 0.1629 0.3210 -0.0400
C20 C 0.31972(15) 0.35203(15) 0.1323(3)
H6 H 0.3602 0.3600 0.1757
C21 C 0.49255(14) 0.29013(15) 0.8133(3)
H7 H 0.5108 0.2558 0.8093
C22 C 0.36634(15) 0.44797(16) 0.0666(3)
H8 H 0.3849 0.4122 0.0703
C23 C 0.49928(15) 0.38311(15) 0.8917(3)
H9 H 0.5225 0.4122 0.9403
C24 C 0.18647(17) 0.41440(17) -0.1035(3)
H10 H 0.2036 0.4432 -0.1236
C25 C 0.27705(15) 0.15754(16) 0.3986(3)
H11 H 0.2864 0.1491 0.3486
C26 C 0.2844(2) 0.5000 0.0488(4)
H12 H 0.2471 0.5000 0.0406
C27 C 0.52495(14) 0.33184(14) 0.8877(3)
H13 H 0.5651 0.3252 0.9363
C28 C 0.3332(2) 0.5000 0.8234(4)
H14 H 0.2974 0.5000 0.8210
C29 C 0.40777(14) 0.35047(15) 0.7526(3)
H15 H 0.3672 0.3567 0.7063
C30 C 0.38773(15) 0.23965(16) 0.2386(3)
H16 H 0.3937 0.2461 0.1838
C31 C 0.28494(14) 0.39182(16) 0.0565(3)
C32 C 0.3944(2) 0.5000 0.0730(4)
H17 H 0.4318 0.5000 0.0816
C33 C 0.33036(17) 0.39362(16) 0.8340(3)
H18 H 0.3502 0.3576 0.8470
C34 C 0.33963(16) 0.23138(16) 0.7428(3)
H19 H 0.3688 0.2489 0.8052
C35 C 0.20976(16) 0.23621(16) 0.0898(3)
H20 H 0.2341 0.2081 0.1395
C36 C 0.42089(16) 0.19814(17) 0.4055(3)
H21 H 0.4486 0.1760 0.4632
C37 C 0.42777(16) 0.20716(17) 0.3230(3)
H22 H 0.4605 0.1908 0.3246
O1E O 0.28324(11) 0.60578(10) 0.8254(2)
O2E O 0.23134(11) 0.86115(12) 0.3851(2)
O3E O 0.29669(11) 0.78786(12) 0.7380(2)
O4E O 0.15876(11) 0.77405(11) 0.0374(2)
O5E O 0.13505(12) 0.59095(13) -0.1534(2)
C1E C 0.41162(14) 0.55349(15) 0.8292(3)
C2E C 0.31191(14) 0.55246(15) 0.0547(3)
C3E C 0.43318(14) 0.70084(15) 0.7448(3)
C4E C 0.29782(15) 0.69939(15) 0.1475(3)
C5E C 0.34918(14) 0.77092(15) 0.6563(3)
C6E C 0.31821(14) 0.80785(15) 0.4876(3)
C8E C 0.39672(14) 0.74244(15) 0.6624(3)
C9E C 0.33883(14) 0.73718(15) 0.2338(3)
C10E C 0.33187(15) 0.74651(14) 0.3171(3)
H2E H 0.2986 0.7310 0.3147
C11E C 0.22627(15) 0.62166(15) -0.0100(3)
C12E C 0.35871(14) 0.55261(15) 0.8251(3)
C13E C 0.40551(14) 0.74906(15) 0.5808(3)
H3E H 0.4387 0.7318 0.5852
C14E C 0.23720(14) 0.71028(15) 0.0823(3)
C15E C 0.36613(15) 0.78066(16) 0.4930(3)
C16E C 0.31092(15) 0.80361(15) 0.5711(3)
H4E H 0.2795 0.8233 0.5691
C17E C 0.37207(14) 0.77753(16) 0.4016(3)
C18E C 0.44004(14) 0.60796(14) 0.8253(3)
C19E C 0.20330(15) 0.67125(15) 0.0046(3)
H5E H 0.1629 0.6790 -0.0400
C20E C 0.31972(15) 0.64797(15) 0.1323(3)
H6E H 0.3602 0.6400 0.1757
C21E C 0.49255(14) 0.70987(15) 0.8133(3)
H7E H 0.5108 0.7442 0.8093
C22E C 0.36634(15) 0.55203(16) 0.0666(3)
H8E H 0.3849 0.5878 0.0703
C23E C 0.49928(15) 0.61689(15) 0.8917(3)
H9E H 0.5225 0.5878 0.9403
C24E C 0.18647(17) 0.58560(17) -0.1035(3)
H10E H 0.2036 0.5568 -0.1236
C25E C 0.27705(15) 0.84246(16) 0.3986(3)
H11E H 0.2864 0.8509 0.3486
C27E C 0.52495(14) 0.66816(14) 0.8877(3)
H13E H 0.5651 0.6748 0.9363
C29E C 0.40777(14) 0.64953(15) 0.7526(3)
H15E H 0.3672 0.6433 0.7063
C30E C 0.38773(15) 0.76035(16) 0.2386(3)
H16E H 0.3937 0.7539 0.1838
C31E C 0.28494(14) 0.60818(16) 0.0565(3)
C33E C 0.33036(17) 0.60638(16) 0.8340(3)
H18E H 0.3502 0.6424 0.8470
C34E C 0.33963(16) 0.76862(16) 0.7428(3)
H19E H 0.3688 0.7511 0.8052
C35E C 0.20976(16) 0.76379(16) 0.0898(3)
H20E H 0.2341 0.7919 0.1395
C36E C 0.42089(16) 0.80186(17) 0.4055(3)
H21E H 0.4486 0.8240 0.4632
C37E C 0.42777(16) 0.79284(17) 0.3230(3)
H22E H 0.4605 0.8092 0.3246
loop_
_geom_bond_atom_site_label_1
_geom_bond_atom_site_label_2
_geom_bond_site_symmetry_1
_geom_bond_site_symmetry_2
O1 C33 1_555 1_555
O2 C25 1_555 1_555
O3 C34 1_555 1_555
O4 C35 1_555 1_555
O5 C24 1_555 1_555
C1 C7 1_555 1_555
C2 C22 1_555 1_555
C3 C8 1_555 1_555
C4 C9 1_555 1_555
C5 C8 1_555 1_555
C6 C15 1_555 1_555
C7 H1 1_555 1_555
C8 C13 1_555 1_555
C9 C10 1_555 1_555
C10 H2 1_555 1_555
C11 C19 1_555 1_555
C12 C1 1_555 1_555
C13 H3 1_555 1_555
C14 C4 1_555 1_555
C15 C13 1_555 1_555
C16 C5 1_555 1_555
H4 C16 1_555 1_555
C17 C10 1_555 1_555
C18 C1 1_555 1_555
C19 C14 1_555 1_555
H5 C19 1_555 1_555
C20 C4 1_555 1_555
H6 C20 1_555 1_555
C21 C3 1_555 1_555
H7 C21 1_555 1_555
C22 H8 1_555 1_555
C23 C18 1_555 1_555
H9 C23 1_555 1_555
C24 C11 1_555 1_555
H10 C24 1_555 1_555
C25 C6 1_555 1_555
H11 C25 1_555 1_555
C26 C2 1_555 1_555
H12 C26 1_555 1_555
C27 C21 1_555 1_555
H13 C27 1_555 1_555
C28 C12 1_555 1_555
H14 C28 1_555 1_555
C29 C3 1_555 1_555
H15 C29 1_555 1_555
C30 C9 1_555 1_555
H16 C30 1_555 1_555
C31 C2 1_555 1_555
C32 C22 1_555 1_555
H17 C32 1_555 1_555
C33 C12 1_555 1_555
H18 C33 1_555 1_555
C34 C5 1_555 1_555
H19 C34 1_555 1_555
C35 C14 1_555 1_555
H20 C35 1_555 1_555
C36 C17 1_555 1_555
H21 C36 1_555 1_555
C37 C30 1_555 1_555
H22 C37 1_555 1_555
O1E C33E 1_555 1_555
O2E C25E 1_555 1_555
O3E C34E 1_555 1_555
O4E C35E 1_555 1_555
O5E C24E 1_555 1_555
C1E C7 1_555 1_555
C2E C26 1_555 1_555
C3E C8E 1_555 1_555
C4E C9E 1_555 1_555
C5E C8E 1_555 1_555
C6E C15E 1_555 1_555
C8E C13E 1_555 1_555
C9E C10E 1_555 1_555
C10E H2E 1_555 1_555
C11E C19E 1_555 1_555
C12E C28 1_555 1_555
C13E H3E 1_555 1_555
C14E C4E 1_555 1_555
C15E C13E 1_555 1_555
C16E C5E 1_555 1_555
H4E C16E 1_555 1_555
C17E C10E 1_555 1_555
C18E C1E 1_555 1_555
C19E C14E 1_555 1_555
H5E C19E 1_555 1_555
C20E C4E 1_555 1_555
H6E C20E 1_555 1_555
C21E C3E 1_555 1_555
H7E C21E 1_555 1_555
C22E C32 1_555 1_555
H8E C22E 1_555 1_555
C23E C18E 1_555 1_555
H9E C23E 1_555 1_555
C24E C11E 1_555 1_555
H10E C24E 1_555 1_555
C25E C6E 1_555 1_555
H11E C25E 1_555 1_555
C27E C21E 1_555 1_555
H13E C27E 1_555 1_555
C29E C3E 1_555 1_555
H15E C29E 1_555 1_555
C30E C9E 1_555 1_555
H16E C30E 1_555 1_555
C31E C2E 1_555 1_555
C33E C12E 1_555 1_555
H18E C33E 1_555 1_555
C34E C5E 1_555 1_555
H19E C34E 1_555 1_555
C35E C14E 1_555 1_555
H20E C35E 1_555 1_555
C36E C17E 1_555 1_555
H21E C36E 1_555 1_555
C37E C30E 1_555 1_555
H22E C37E 1_555 1_555
C6 C16 1_555 1_555
C11 C31 1_555 1_555
C15 C17 1_555 1_555
C18 C29 1_555 1_555
C20 C31 1_555 1_555
C23 C27 1_555 1_555
C36 C37 1_555 1_555
C1E C12E 1_555 1_555
C2E C22E 1_555 1_555
C6E C16E 1_555 1_555
C11E C31E 1_555 1_555
C15E C17E 1_555 1_555
C18E C29E 1_555 1_555
C20E C31E 1_555 1_555
C23E C27E 1_555 1_555
C36E C37E 1_555 1_555

#END
