
#######################################################################
#
#                 Cambridge Crystallographic Data Centre
#                                CCDC 
#
#######################################################################
#
# If this CIF has been generated from an entry in the Cambridge 
# Structural Database, then it will include bibliographic, chemical, 
# crystal, experimental, refinement or atomic coordinate data resulting 
# from the CCDC's data processing and validation procedures.
#
#######################################################################

data_RIKHUR
_chemical_name_common            
'decamesityl-[20,(6,5)]-coronene decaradicaloid unknown solvate'
_chemical_formula_moiety         'C160 H130'
_chemical_name_systematic        
'cyclodeca[1,2-f](3-mesitylindene) decaradicaloid unknown solvate'
_symmetry_cell_setting           orthorhombic
_symmetry_space_group_name_H-M   'I m m 2'
_symmetry_Int_Tables_number      44
_space_group_name_Hall           'I 2 -2'
loop_
_symmetry_equiv_pos_site_id
_symmetry_equiv_pos_as_xyz
1 x,y,z
2 -x,-y,z
3 -x,y,z
4 x,-y,z
5 1/2+x,1/2+y,1/2+z
6 1/2-x,1/2-y,1/2+z
7 1/2-x,1/2+y,1/2+z
8 1/2+x,1/2-y,1/2+z
_cell_length_a                   43.12(16)
_cell_length_b                   8.57(3)
_cell_length_c                   31.30(12)
_cell_angle_alpha                90
_cell_angle_beta                 90
_cell_angle_gamma                90
_cell_volume                     11566.6
_exptl_crystal_colour            green
_exptl_crystal_description       prism
_cell_formula_units_Z            2
_exptl_crystal_recrystallization_method acetonitrile/chlorobenzene
loop_
_atom_site_label
_atom_site_type_symbol
_atom_site_fract_x
_atom_site_fract_y
_atom_site_fract_z
C1 C 0.5287(14) 0.5000 0.3181(16)
C2 C 0.5575(13) 0.5000 0.3053(15)
H1 H 0.5628 0.5000 0.2758
C3 C 0.5812(14) 0.5000 0.3390(18)
C4 C 0.5689(13) 0.5000 0.3801(16)
C5 C 0.5365(10) 0.5000 0.3934(14)
H2 H 0.5296 0.5000 0.4222
C6 C 0.5176(9) 0.5000 0.3585(15)
C7 C 0.6125(14) 0.5000 0.3396(18)
C8 C 0.6246(14) 0.5000 0.3807(18)
C9 C 0.6540(11) 0.5000 0.3982(16)
H3 H 0.6729 0.5000 0.3828
C10 C 0.6508(11) 0.5000 0.4433(19)
C11 C 0.6261(13) 0.5000 0.4717(17)
C12 C 0.5998(12) 0.5000 0.4484(18)
H4 H 0.5810 0.5000 0.4643
C13 C 0.5970(11) 0.5000 0.4078(19)
C14 C 0.6788(14) 0.5000 0.4690(18)
C15 C 0.6715(11) 0.5000 0.5083(19)
C16 C 0.6888(8) 0.5000 0.5471(18)
H5 H 0.7109 0.5000 0.5471
C17 C 0.6709(11) 0.5000 0.5876(16)
C18 C 0.6380(12) 0.5000 0.5926(18)
C19 C 0.6223(8) 0.5000 0.5588(14)
H6 H 0.6003 0.5000 0.5602
C20 C 0.6380(10) 0.5000 0.5167(18)
C21 C 0.6864(12) 0.5000 0.6308(14)
C22 C 0.6590(11) 0.5000 0.6576(16)
C23 C 0.6515(12) 0.5000 0.7040(16)
H7 H 0.6678 0.5000 0.7245
C24 C 0.6207(13) 0.5000 0.7176(16)
C25 C 0.5936(12) 0.5000 0.690(2)
C26 C 0.5946(10) 0.5000 0.6461(16)
H8 H 0.5774 0.5000 0.6272
C27 C 0.6269(11) 0.5000 0.6345(15)
C28 C 0.6126(13) 0.5000 0.7645(17)
C29 C 0.5776(12) 0.5000 0.7649(19)
C30 C 0.5601(12) 0.5000 0.8029(16)
H9 H 0.5676 0.5000 0.8315
C31 C 0.5276(13) 0.5000 0.7884(15)
C32 C 0.5153(10) 0.5000 0.7428(14)
C33 C 0.5404(14) 0.5000 0.7137(15)
H10 H 0.5341 0.5000 0.6847
C34 C 0.5715(15) 0.5000 0.7185(18)
C35 C 0.5000 0.5000 0.292(2)
C36 C 0.5000 0.5000 0.247(2)
C37 C 0.5000 0.369(5) 0.2211(14)
C38 C 0.5000 0.368(6) 0.1773(14)
H11 H 0.5000 0.2701 0.1632
C39 C 0.5000 0.5000 0.153(2)
C40 C 0.5000 0.5000 0.103(2)
C41 C 0.5000 0.190(7) 0.2370(16)
H12 H 0.5000 0.1878 0.2683
H13 H 0.4814 0.1374 0.2262
C42 C 0.6315(12) 0.5000 0.2979(18)
C43 C 0.6391(10) 0.643(5) 0.2791(12)
C44 C 0.6613(9) 0.643(5) 0.2450(12)
H14 H 0.6670 0.7360 0.2304
C45 C 0.6739(13) 0.5000 0.235(2)
C46 C 0.6918(13) 0.5000 0.1884(17)
C47 C 0.6178(9) 0.791(5) 0.2875(12)
H15 H 0.6263 0.8813 0.2721
H16 H 0.5968 0.7696 0.2773
H17 H 0.6173 0.8136 0.3182
C48 C 0.7079(14) 0.5000 0.4532(16)
C49 C 0.7278(9) 0.382(5) 0.4413(12)
C50 C 0.7586(8) 0.364(5) 0.4269(12)
H18 H 0.7682 0.2663 0.4213
C51 C 0.7722(13) 0.5000 0.4224(19)
C52 C 0.8085(8) 0.5000 0.4120(16)
C53 C 0.7104(7) 0.222(4) 0.4327(11)
H19 H 0.7255 0.1420 0.4244
H20 H 0.6996 0.1885 0.4588
H21 H 0.6952 0.2357 0.4097
C54 C 0.7192(14) 0.5000 0.6433(17)
C55 C 0.7322(11) 0.635(6) 0.6470(14)
C56 C 0.7633(9) 0.621(5) 0.6557(12)
H22 H 0.7744 0.7156 0.6515
C57 C 0.7819(12) 0.5000 0.6690(19)
C58 C 0.8175(10) 0.5000 0.6776(17)
C59 C 0.7177(7) 0.774(4) 0.6228(12)
H23 H 0.7298 0.8684 0.6285
H24 H 0.7177 0.7520 0.5921
H25 H 0.6963 0.7893 0.6326
C60 C 0.6305(14) 0.5000 0.798(2)
C61 C 0.6456(9) 0.618(6) 0.8181(14)
C62 C 0.6595(9) 0.616(5) 0.8592(11)
H26 H 0.6649 0.7153 0.8707
C63 C 0.6655(14) 0.5000 0.882(2)
C64 C 0.6850(12) 0.5000 0.9228(15)
C65 C 0.5000 0.5000 0.819(2)
C66 C 0.6436(7) 0.780(5) 0.7906(11)
H27 H 0.6547 0.8632 0.8059
H28 H 0.6530 0.7647 0.7625
H29 H 0.6218 0.8105 0.7871
C67 C 0.5000 0.5000 0.867(2)
C68 C 0.5000 0.650(5) 0.8844(14)
C69 C 0.5000 0.644(7) 0.9296(15)
H30 H 0.5000 0.7356 0.9467
C70 C 0.5000 0.5000 0.947(3)
C71 C 0.5000 0.5000 0.997(2)
C72 C 0.5000 0.780(7) 0.8506(15)
H31 H 0.5000 0.8823 0.8649
H32 H 0.5186 0.7710 0.8327
C1A C 0.4713(14) 0.5000 0.3181(16)
C2A C 0.4425(13) 0.5000 0.3053(15)
H1A H 0.4372 0.5000 0.2758
C3A C 0.4188(14) 0.5000 0.3390(18)
C4A C 0.4311(13) 0.5000 0.3801(16)
C5A C 0.4635(10) 0.5000 0.3934(14)
H2A H 0.4704 0.5000 0.4222
C6A C 0.4824(9) 0.5000 0.3585(15)
C7A C 0.3875(14) 0.5000 0.3396(18)
C8A C 0.3754(14) 0.5000 0.3807(18)
C9A C 0.3460(11) 0.5000 0.3982(16)
H3A H 0.3271 0.5000 0.3828
C10A C 0.3492(11) 0.5000 0.4433(19)
C11A C 0.3739(13) 0.5000 0.4717(17)
C12A C 0.4002(12) 0.5000 0.4484(18)
H4A H 0.4190 0.5000 0.4643
C13A C 0.4030(11) 0.5000 0.4078(19)
C14A C 0.3212(14) 0.5000 0.4690(18)
C15A C 0.3285(11) 0.5000 0.5083(19)
C16A C 0.3112(8) 0.5000 0.5471(18)
H5A H 0.2891 0.5000 0.5471
C17A C 0.3291(11) 0.5000 0.5876(16)
C18A C 0.3620(12) 0.5000 0.5926(18)
C19A C 0.3777(8) 0.5000 0.5588(14)
H6A H 0.3997 0.5000 0.5602
C20A C 0.3620(10) 0.5000 0.5167(18)
C21A C 0.3136(12) 0.5000 0.6308(14)
C22A C 0.3410(11) 0.5000 0.6576(16)
C23A C 0.3485(12) 0.5000 0.7040(16)
H7A H 0.3322 0.5000 0.7245
C24A C 0.3793(13) 0.5000 0.7176(16)
C25A C 0.4064(12) 0.5000 0.690(2)
C26A C 0.4054(10) 0.5000 0.6461(16)
H8A H 0.4226 0.5000 0.6272
C27A C 0.3731(11) 0.5000 0.6345(15)
C28A C 0.3874(13) 0.5000 0.7645(17)
C29A C 0.4224(12) 0.5000 0.7649(19)
C30A C 0.4399(12) 0.5000 0.8029(16)
H9A H 0.4324 0.5000 0.8315
C31A C 0.4724(13) 0.5000 0.7884(15)
C32A C 0.4847(10) 0.5000 0.7428(14)
C33A C 0.4596(14) 0.5000 0.7137(15)
H10A H 0.4659 0.5000 0.6847
C34A C 0.4285(15) 0.5000 0.7185(18)
C37A C 0.5000 0.631(5) 0.2211(14)
C38A C 0.5000 0.632(6) 0.1773(14)
H11A H 0.5000 0.7299 0.1632
C41A C 0.5000 0.810(7) 0.2370(16)
H12A H 0.5000 0.8122 0.2683
H13A H 0.5186 0.8626 0.2262
C42A C 0.3685(12) 0.5000 0.2979(18)
C43A C 0.3609(10) 0.357(5) 0.2791(12)
C44A C 0.3387(9) 0.357(5) 0.2450(12)
H14A H 0.3330 0.2640 0.2304
C45A C 0.3261(13) 0.5000 0.235(2)
C46A C 0.3082(13) 0.5000 0.1884(17)
C47A C 0.3822(9) 0.209(5) 0.2875(12)
H15A H 0.3737 0.1187 0.2721
H16A H 0.4032 0.2304 0.2773
H17A H 0.3827 0.1864 0.3182
C48A C 0.2921(14) 0.5000 0.4532(16)
C49A C 0.2722(9) 0.618(5) 0.4413(12)
C50A C 0.2414(8) 0.636(5) 0.4269(12)
H18A H 0.2318 0.7337 0.4213
C51A C 0.2278(13) 0.5000 0.4224(19)
C52A C 0.1915(8) 0.5000 0.4120(16)
C53A C 0.2896(7) 0.778(4) 0.4327(11)
H19A H 0.2745 0.8580 0.4244
H20A H 0.3004 0.8115 0.4588
H21A H 0.3048 0.7643 0.4097
C54A C 0.2808(14) 0.5000 0.6433(17)
C55A C 0.2678(11) 0.365(6) 0.6470(14)
C56A C 0.2367(9) 0.379(5) 0.6557(12)
H22A H 0.2256 0.2844 0.6515
C57A C 0.2181(12) 0.5000 0.6690(19)
C58A C 0.1825(10) 0.5000 0.6776(17)
C59A C 0.2823(7) 0.226(4) 0.6228(12)
H23A H 0.2702 0.1316 0.6285
H24A H 0.2823 0.2480 0.5921
H25A H 0.3037 0.2107 0.6326
C60A C 0.3695(14) 0.5000 0.798(2)
C61A C 0.3544(9) 0.382(6) 0.8181(14)
C62A C 0.3405(9) 0.384(5) 0.8592(11)
H26A H 0.3351 0.2847 0.8707
C63A C 0.3345(14) 0.5000 0.882(2)
C64A C 0.3150(12) 0.5000 0.9228(15)
C66A C 0.3564(7) 0.220(5) 0.7906(11)
H27A H 0.3453 0.1368 0.8059
H28A H 0.3470 0.2353 0.7625
H29A H 0.3782 0.1895 0.7871
C68A C 0.5000 0.350(5) 0.8844(14)
C69A C 0.5000 0.356(7) 0.9296(15)
H30A H 0.5000 0.2644 0.9467
C72A C 0.5000 0.220(7) 0.8506(15)
H31A H 0.5000 0.1177 0.8649
H32A H 0.4814 0.2290 0.8327
H13B H 0.5186 0.1374 0.2262
C43B C 0.3609(10) 0.643(5) 0.2791(12)
C44B C 0.3387(9) 0.643(5) 0.2450(12)
H14B H 0.3330 0.7360 0.2304
C47B C 0.3822(9) 0.791(5) 0.2875(12)
H15B H 0.3737 0.8813 0.2721
H16B H 0.4032 0.7696 0.2773
H17B H 0.3827 0.8136 0.3182
C49B C 0.2722(9) 0.382(5) 0.4413(12)
C50B C 0.2414(8) 0.364(5) 0.4269(12)
H18B H 0.2318 0.2663 0.4213
C53B C 0.2896(7) 0.222(4) 0.4327(11)
H19B H 0.2745 0.1420 0.4244
H20B H 0.3004 0.1885 0.4588
H21B H 0.3048 0.2357 0.4097
C55B C 0.2678(11) 0.635(6) 0.6470(14)
C56B C 0.2367(9) 0.621(5) 0.6557(12)
H22B H 0.2256 0.7156 0.6515
C59B C 0.2823(7) 0.774(4) 0.6228(12)
H23B H 0.2702 0.8684 0.6285
H24B H 0.2823 0.7520 0.5921
H25B H 0.3037 0.7893 0.6326
C61B C 0.3544(9) 0.618(6) 0.8181(14)
C62B C 0.3405(9) 0.616(5) 0.8592(11)
H26B H 0.3351 0.7153 0.8707
C66B C 0.3564(7) 0.780(5) 0.7906(11)
H27B H 0.3453 0.8632 0.8059
H28B H 0.3470 0.7647 0.7625
H29B H 0.3782 0.8105 0.7871
H32B H 0.4814 0.7710 0.8327
H13C H 0.4814 0.8626 0.2262
C43C C 0.6391(10) 0.357(5) 0.2791(12)
C44C C 0.6613(9) 0.357(5) 0.2450(12)
H14C H 0.6670 0.2640 0.2304
C47C C 0.6178(9) 0.209(5) 0.2875(12)
H15C H 0.6263 0.1187 0.2721
H16C H 0.5968 0.2304 0.2773
H17C H 0.6173 0.1864 0.3182
C49C C 0.7278(9) 0.618(5) 0.4413(12)
C50C C 0.7586(8) 0.636(5) 0.4269(12)
H18C H 0.7682 0.7337 0.4213
C53C C 0.7104(7) 0.778(4) 0.4327(11)
H19C H 0.7255 0.8580 0.4244
H20C H 0.6996 0.8115 0.4588
H21C H 0.6952 0.7643 0.4097
C55C C 0.7322(11) 0.365(6) 0.6470(14)
C56C C 0.7633(9) 0.379(5) 0.6557(12)
H22C H 0.7744 0.2844 0.6515
C59C C 0.7177(7) 0.226(4) 0.6228(12)
H23C H 0.7298 0.1316 0.6285
H24C H 0.7177 0.2480 0.5921
H25C H 0.6963 0.2107 0.6326
C61C C 0.6456(9) 0.382(6) 0.8181(14)
C62C C 0.6595(9) 0.384(5) 0.8592(11)
H26C H 0.6649 0.2847 0.8707
C66C C 0.6436(7) 0.220(5) 0.7906(11)
H27C H 0.6547 0.1368 0.8059
H28C H 0.6530 0.2353 0.7625
H29C H 0.6218 0.1895 0.7871
H32C H 0.5186 0.2290 0.8327
H33? H 0.4814 0.5539 0.0930
H34? H 0.4814 0.1374 0.2262
H35? H 0.5186 0.7710 0.8327
H36? H 0.4814 0.5539 0.0930
H37? H 0.5186 0.5539 1.0072
H38? H 0.5000 0.3922 1.0072
H39? H 0.5186 0.5539 1.0072
H40? H 0.6861 0.6062 0.9343
H41? H 0.6755 0.4307 0.9439
H42? H 0.7060 0.4631 0.9162
H43? H 0.8159 0.3922 0.4095
H44? H 0.8122 0.5554 0.3851
H45? H 0.8197 0.5524 0.4352
H46? H 0.7087 0.4235 0.1889
H47? H 0.6771 0.4724 0.1658
H48? H 0.7003 0.6041 0.1828
H49? H 0.8286 0.5284 0.6514
H50? H 0.8240 0.3957 0.6869
H51? H 0.8224 0.5759 0.7001
H52? H 0.5000 0.3922 0.0930
loop_
_geom_bond_atom_site_label_1
_geom_bond_atom_site_label_2
_geom_bond_site_symmetry_1
_geom_bond_site_symmetry_2
C1 C2 1_555 1_555
C2 H1 1_555 1_555
C3 C2 1_555 1_555
C4 C3 1_555 1_555
C5 C4 1_555 1_555
H2 C5 1_555 1_555
C6 C1 1_555 1_555
C7 C3 1_555 1_555
C8 C7 1_555 1_555
C9 C8 1_555 1_555
H3 C9 1_555 1_555
C10 C9 1_555 1_555
C11 C10 1_555 1_555
C12 C11 1_555 1_555
H4 C12 1_555 1_555
C13 C4 1_555 1_555
C14 C10 1_555 1_555
C15 C14 1_555 1_555
C16 C15 1_555 1_555
H5 C16 1_555 1_555
C17 C16 1_555 1_555
C18 C17 1_555 1_555
C19 C18 1_555 1_555
H6 C19 1_555 1_555
C20 C11 1_555 1_555
C21 C17 1_555 1_555
C22 C21 1_555 1_555
C23 C22 1_555 1_555
H7 C23 1_555 1_555
C24 C23 1_555 1_555
C25 C24 1_555 1_555
C26 C25 1_555 1_555
H8 C26 1_555 1_555
C27 C18 1_555 1_555
C28 C24 1_555 1_555
C29 C28 1_555 1_555
C30 C29 1_555 1_555
H9 C30 1_555 1_555
C31 C30 1_555 1_555
C32 C31 1_555 1_555
C33 C32 1_555 1_555
H10 C33 1_555 1_555
C34 C25 1_555 1_555
C35 C1 1_555 1_555
C36 C35 1_555 1_555
C37 C36 1_555 1_555
C38 C37 1_555 1_555
H11 C38 1_555 1_555
C39 C38 1_555 1_555
C40 C39 1_555 1_555
C41 C37 1_555 1_555
H12 C41 1_555 1_555
H13 C41 1_555 1_555
C42 C7 1_555 1_555
C43 C42 1_555 1_555
C44 C43 1_555 1_555
H14 C44 1_555 1_555
C45 C44 1_555 1_555
C46 C45 1_555 1_555
C47 C43 1_555 1_555
H15 C47 1_555 1_555
H16 C47 1_555 1_555
H17 C47 1_555 1_555
C48 C14 1_555 1_555
C49 C48 1_555 1_555
C50 C49 1_555 1_555
H18 C50 1_555 1_555
C51 C50 1_555 1_555
C52 C51 1_555 1_555
C53 C49 1_555 1_555
H19 C53 1_555 1_555
H20 C53 1_555 1_555
H21 C53 1_555 1_555
C54 C21 1_555 1_555
C55 C54 1_555 1_555
C56 C55 1_555 1_555
H22 C56 1_555 1_555
C57 C56 1_555 1_555
C58 C57 1_555 1_555
C59 C55 1_555 1_555
H23 C59 1_555 1_555
H24 C59 1_555 1_555
H25 C59 1_555 1_555
C60 C28 1_555 1_555
C61 C60 1_555 1_555
C62 C61 1_555 1_555
H26 C62 1_555 1_555
C63 C62 1_555 1_555
C64 C63 1_555 1_555
C65 C31 1_555 1_555
C66 C61 1_555 1_555
H27 C66 1_555 1_555
H28 C66 1_555 1_555
H29 C66 1_555 1_555
C67 C65 1_555 1_555
C68 C67 1_555 1_555
C69 C68 1_555 1_555
H30 C69 1_555 1_555
C70 C69 1_555 1_555
C71 C70 1_555 1_555
C72 C68 1_555 1_555
H31 C72 1_555 1_555
H32 C72 1_555 1_555
C1A C35 1_555 1_555
C2A C1A 1_555 1_555
H1A C2A 1_555 1_555
C3A C2A 1_555 1_555
C4A C3A 1_555 1_555
C5A C4A 1_555 1_555
H2A C5A 1_555 1_555
C6A C6 1_555 1_555
C7A C3A 1_555 1_555
C8A C7A 1_555 1_555
C9A C8A 1_555 1_555
H3A C9A 1_555 1_555
C10A C9A 1_555 1_555
C11A C10A 1_555 1_555
C12A C11A 1_555 1_555
H4A C12A 1_555 1_555
C13A C4A 1_555 1_555
C14A C10A 1_555 1_555
C15A C14A 1_555 1_555
C16A C15A 1_555 1_555
H5A C16A 1_555 1_555
C17A C16A 1_555 1_555
C18A C17A 1_555 1_555
C19A C18A 1_555 1_555
H6A C19A 1_555 1_555
C20A C11A 1_555 1_555
C21A C17A 1_555 1_555
C22A C21A 1_555 1_555
C23A C22A 1_555 1_555
H7A C23A 1_555 1_555
C24A C23A 1_555 1_555
C25A C24A 1_555 1_555
C26A C25A 1_555 1_555
H8A C26A 1_555 1_555
C27A C18A 1_555 1_555
C28A C24A 1_555 1_555
C29A C28A 1_555 1_555
C30A C29A 1_555 1_555
H9A C30A 1_555 1_555
C31A C65 1_555 1_555
C32A C32 1_555 1_555
C33A C32A 1_555 1_555
H10A C33A 1_555 1_555
C34A C25A 1_555 1_555
C37A C36 1_555 1_555
C38A C39 1_555 1_555
H11A C38A 1_555 1_555
C41A C37A 1_555 1_555
H12A C41A 1_555 1_555
H13A C41A 1_555 1_555
C42A C7A 1_555 1_555
C43A C42A 1_555 1_555
C44A C43A 1_555 1_555
H14A C44A 1_555 1_555
C45A C44A 1_555 1_555
C46A C45A 1_555 1_555
C47A C43A 1_555 1_555
H15A C47A 1_555 1_555
H16A C47A 1_555 1_555
H17A C47A 1_555 1_555
C48A C14A 1_555 1_555
C49A C48A 1_555 1_555
C50A C49A 1_555 1_555
H18A C50A 1_555 1_555
C51A C50A 1_555 1_555
C52A C51A 1_555 1_555
C53A C49A 1_555 1_555
H19A C53A 1_555 1_555
H20A C53A 1_555 1_555
H21A C53A 1_555 1_555
C54A C21A 1_555 1_555
C55A C54A 1_555 1_555
C56A C55A 1_555 1_555
H22A C56A 1_555 1_555
C57A C56A 1_555 1_555
C58A C57A 1_555 1_555
C59A C55A 1_555 1_555
H23A C59A 1_555 1_555
H24A C59A 1_555 1_555
H25A C59A 1_555 1_555
C60A C28A 1_555 1_555
C61A C60A 1_555 1_555
C62A C61A 1_555 1_555
H26A C62A 1_555 1_555
C63A C62A 1_555 1_555
C64A C63A 1_555 1_555
C66A C61A 1_555 1_555
H27A C66A 1_555 1_555
H28A C66A 1_555 1_555
H29A C66A 1_555 1_555
C68A C67 1_555 1_555
C69A C70 1_555 1_555
H30A C69A 1_555 1_555
C72A C68A 1_555 1_555
H31A C72A 1_555 1_555
H32A C72A 1_555 1_555
H13B C41 1_555 1_555
C43B C42A 1_555 1_555
C44B C45A 1_555 1_555
H14B C44B 1_555 1_555
C47B C43B 1_555 1_555
H15B C47B 1_555 1_555
H16B C47B 1_555 1_555
H17B C47B 1_555 1_555
C49B C48A 1_555 1_555
C50B C51A 1_555 1_555
H18B C50B 1_555 1_555
C53B C49B 1_555 1_555
H19B C53B 1_555 1_555
H20B C53B 1_555 1_555
H21B C53B 1_555 1_555
C55B C54A 1_555 1_555
C56B C57A 1_555 1_555
H22B C56B 1_555 1_555
C59B C55B 1_555 1_555
H23B C59B 1_555 1_555
H24B C59B 1_555 1_555
H25B C59B 1_555 1_555
C61B C60A 1_555 1_555
C62B C63A 1_555 1_555
H26B C62B 1_555 1_555
C66B C61B 1_555 1_555
H27B C66B 1_555 1_555
H28B C66B 1_555 1_555
H29B C66B 1_555 1_555
H32B C72 1_555 1_555
H13C C41A 1_555 1_555
C43C C42 1_555 1_555
C44C C45 1_555 1_555
H14C C44C 1_555 1_555
C47C C43C 1_555 1_555
H15C C47C 1_555 1_555
H16C C47C 1_555 1_555
H17C C47C 1_555 1_555
C49C C48 1_555 1_555
C50C C51 1_555 1_555
H18C C50C 1_555 1_555
C53C C49C 1_555 1_555
H19C C53C 1_555 1_555
H20C C53C 1_555 1_555
H21C C53C 1_555 1_555
C55C C54 1_555 1_555
C56C C57 1_555 1_555
H22C C56C 1_555 1_555
C59C C55C 1_555 1_555
H23C C59C 1_555 1_555
H24C C59C 1_555 1_555
H25C C59C 1_555 1_555
C61C C60 1_555 1_555
C62C C63 1_555 1_555
H26C C62C 1_555 1_555
C66C C61C 1_555 1_555
H27C C66C 1_555 1_555
H28C C66C 1_555 1_555
H29C C66C 1_555 1_555
H32C C72A 1_555 1_555
C5 C6 1_555 1_555
C8 C13 1_555 1_555
C12 C13 1_555 1_555
C15 C20 1_555 1_555
C19 C20 1_555 1_555
C22 C27 1_555 1_555
C26 C27 1_555 1_555
C29 C34 1_555 1_555
C33 C34 1_555 1_555
C1A C6A 1_555 1_555
C5A C6A 1_555 1_555
C8A C13A 1_555 1_555
C12A C13A 1_555 1_555
C15A C20A 1_555 1_555
C19A C20A 1_555 1_555
C22A C27A 1_555 1_555
C26A C27A 1_555 1_555
C29A C34A 1_555 1_555
C30A C31A 1_555 1_555
C31A C32A 1_555 1_555
C33A C34A 1_555 1_555
C37A C38A 1_555 1_555
C68A C69A 1_555 1_555
C43B C44B 1_555 1_555
C49B C50B 1_555 1_555
C55B C56B 1_555 1_555
C61B C62B 1_555 1_555
C43C C44C 1_555 1_555
C49C C50C 1_555 1_555
C55C C56C 1_555 1_555
C61C C62C 1_555 1_555

#END
