
#######################################################################
#
#                 Cambridge Crystallographic Data Centre
#                                CCDC 
#
#######################################################################
#
# If this CIF has been generated from an entry in the Cambridge 
# Structural Database, then it will include bibliographic, chemical, 
# crystal, experimental, refinement or atomic coordinate data resulting 
# from the CCDC's data processing and validation procedures.
#
#######################################################################

data_RIKHEB
_chemical_name_common            
'1$4!,1$6!,3$4!,3$6!,5$4!,5$6!,7$4!,7$6!-octaformyl-(1,3)octabenzenacyclooctaphane acetonitrile tetrahydrofuran solvate'
_chemical_formula_moiety         'C56 H32 O8,2(C4 H8 O1),C2 H3 N1'
_chemical_name_systematic        
'nonacyclo[35.3.1.1^2,6^.1^7,11^.1^12,16^.1^17,21^.1^22,26^.1^27,31^.1^32,36^]octatetraconta-1(41),2(48),3,5,7(47),8,10,12(46),13,15,17(45),18,20,22(44),23,25,27(43),28,30,32(42),33,35,37,39-tetracosaene-3,5,13,15,23,25,33,35-octacarbaldehyde acetonitrile tetrahydrofuran solvate'
_symmetry_cell_setting           triclinic
_symmetry_space_group_name_H-M   'P -1'
_symmetry_Int_Tables_number      2
_space_group_name_Hall           '-P 1'
loop_
_symmetry_equiv_pos_site_id
_symmetry_equiv_pos_as_xyz
1 x,y,z
2 -x,-y,-z
_cell_length_a                   11.2862(5)
_cell_length_b                   12.4963(5)
_cell_length_c                   20.0553(8)
_cell_angle_alpha                101.119(2)
_cell_angle_beta                 99.809(2)
_cell_angle_gamma                108.339(2)
_cell_volume                     2552.12
_exptl_crystal_colour            colorless
_exptl_crystal_description       Block
_cell_formula_units_Z            2
loop_
_atom_site_label
_atom_site_type_symbol
_atom_site_fract_x
_atom_site_fract_y
_atom_site_fract_z
O1 O 0.96747(19) 0.60559(17) 0.50403(10)
O2 O 1.12014(19) 0.86666(17) 0.74472(11)
O3 O 1.08185(16) 0.69896(15) 1.09723(8)
O4 O 0.8530(3) 0.3162(2) 1.14378(12)
O5 O 0.08284(18) -0.09615(17) 0.97669(10)
O6 O -0.24460(16) 0.00848(15) 0.82574(10)
O7 O -0.18843(17) 0.05540(18) 0.44088(10)
O8 O 0.17070(19) 0.09943(19) 0.32034(9)
C1 C 0.7526(2) 0.4925(2) 0.61116(12)
C2 C 0.8568(2) 0.5664(2) 0.59229(12)
C3 C 0.9458(2) 0.6654(2) 0.64228(12)
H1 H 1.0171 0.7137 0.6295
C4 C 0.9327(2) 0.6949(2) 0.71014(12)
C5 C 0.8271(2) 0.6239(2) 0.72931(12)
C6 C 0.7398(2) 0.5235(2) 0.67962(12)
H2 H 0.6694 0.4745 0.6927
C7 C 0.8717(3) 0.5497(2) 0.51938(13)
H3 H 0.8029 0.4926 0.4830
C8 C 1.0323(2) 0.8011(2) 0.76084(13)
H4 H 1.0265 0.8182 0.8082
C9 C 0.8044(2) 0.65301(19) 0.80063(11)
C10 C 0.7727(2) 0.7502(2) 0.82280(12)
H5 H 0.7672 0.7999 0.7930
C11 C 0.7488(2) 0.7749(2) 0.88861(13)
H6 H 0.7251 0.8406 0.9031
C12 C 0.7591(2) 0.7048(2) 0.93339(12)
H7 H 0.7447 0.7236 0.9788
C13 C 0.7906(2) 0.60670(19) 0.91159(12)
C14 C 0.8112(2) 0.58066(19) 0.84485(12)
H8 H 0.8302 0.5126 0.8292
C15 C 0.7946(2) 0.52650(19) 0.95719(11)
C16 C 0.8869(2) 0.55895(19) 1.02156(11)
C17 C 0.8803(2) 0.4797(2) 1.06200(11)
H9 H 0.9420 0.5019 1.1055
C18 C 0.7857(2) 0.3689(2) 1.04038(12)
C19 C 0.6967(2) 0.3342(2) 0.97498(12)
C20 C 0.7029(2) 0.4142(2) 0.93500(12)
H10 H 0.6423 0.3912 0.8910
C21 C 0.9960(2) 0.6720(2) 1.04453(12)
H11 H 0.9993 0.7260 1.0168
C22 C 0.7772(3) 0.2917(2) 1.08824(13)
H12 H 0.7078 0.2186 1.0743
C23 C 0.5941(2) 0.2164(2) 0.94600(12)
C24 C 0.6231(2) 0.1155(2) 0.93188(12)
H13 H 0.7101 0.1200 0.9432
C25 C 0.5240(2) 0.0078(2) 0.90099(13)
H14 H 0.5437 -0.0612 0.8913
C26 C 0.3969(2) 0.0005(2) 0.88428(12)
H15 H 0.3300 -0.0734 0.8634
C27 C 0.3672(2) 0.1010(2) 0.89801(11)
C28 C 0.4661(2) 0.20874(19) 0.92854(12)
H16 H 0.4462 0.2778 0.9376
C29 C 0.2327(2) 0.09645(19) 0.87747(11)
C30 C 0.1346(2) 0.03459(18) 0.90524(11)
C31 C 0.0097(2) 0.02968(19) 0.88154(11)
H17 H -0.0560 -0.0112 0.9011
C32 C -0.0216(2) 0.08299(19) 0.82999(12)
C33 C 0.0765(2) 0.14634(19) 0.80218(11)
C34 C 0.2022(2) 0.1526(2) 0.82725(12)
H18 H 0.2689 0.1965 0.8095
C35 C 0.1628(2) -0.0246(2) 0.95952(12)
H19 H 0.2506 -0.0048 0.9827
C36 C -0.1593(2) 0.0640(2) 0.80333(13)
H20 H -0.1817 0.0974 0.7666
C37 C 0.0538(2) 0.2056(2) 0.74629(12)
C38 C -0.0012(2) 0.2909(2) 0.75456(12)
H21 H -0.0299 0.3096 0.7956
C39 C -0.0142(3) 0.3488(2) 0.70298(13)
H22 H -0.0503 0.4081 0.7093
C40 C 0.0251(2) 0.3208(2) 0.64223(13)
H23 H 0.0147 0.3601 0.6068
C41 C 0.0798(2) 0.2355(2) 0.63289(12)
C42 C 0.0954(2) 0.1791(2) 0.68548(12)
H24 H 0.1348 0.1222 0.6800
C43 C 0.1217(2) 0.2052(2) 0.56721(12)
C44 C 0.0319(2) 0.14723(19) 0.50190(12)
C45 C 0.0752(2) 0.1281(2) 0.44156(12)
H25 H 0.0142 0.0899 0.3976
C46 C 0.2053(2) 0.1635(2) 0.44395(12)
C47 C 0.2970(2) 0.2162(2) 0.50971(12)
C48 C 0.2524(2) 0.2369(2) 0.56979(12)
H26 H 0.3131 0.2739 0.6139
C49 C -0.1085(2) 0.1039(2) 0.49600(13)
H27 H -0.1374 0.1148 0.5378
C50 C 0.2440(2) 0.1546(2) 0.37652(13)
H28 H 0.3315 0.1947 0.3777
C51 C 0.4368(2) 0.2452(2) 0.51539(12)
C52 C 0.4819(2) 0.1638(2) 0.48114(13)
H29 H 0.4224 0.0894 0.4538
C53 C 0.6122(3) 0.1902(3) 0.48653(14)
H30 H 0.6417 0.1341 0.4627
C54 C 0.7004(2) 0.2987(2) 0.52682(13)
H31 H 0.7897 0.3169 0.5297
C55 C 0.6585(2) 0.3807(2) 0.56292(12)
C56 C 0.5265(2) 0.3532(2) 0.55688(11)
H32 H 0.4971 0.4088 0.5814
N1 N 0.5643(7) 0.5114(7) 0.0612(5)
C57 C 0.5832(16) 0.5141(13) 0.1183(7)
C58 C 0.6083(11) 0.5218(10) 0.1923(6)
H33 H 0.6152 0.5993 0.2183
H34 H 0.6892 0.5095 0.2073
H35 H 0.5375 0.4618 0.2015
O9 O 0.5878(8) 0.0373(7) 0.6666(4)
C61 C 0.6305(12) 0.1499(10) 0.6677(6)
H39 H 0.5728 0.1642 0.6302
H40 H 0.7179 0.1728 0.6594
C62 C 0.6343(12) 0.2265(9) 0.7437(6)
H41 H 0.7019 0.2266 0.7823
H42 H 0.6397 0.3073 0.7442
C63 C 0.4991(12) 0.1451(10) 0.7410(7)
H43 H 0.4860 0.1482 0.7888
H44 H 0.4323 0.1662 0.7136
C64 C 0.4952(12) 0.0289(9) 0.7064(7)
H45 H 0.5118 -0.0126 0.7422
H46 H 0.4083 -0.0170 0.6752
O12 O 0.6671(6) 0.4412(5) 0.3448(3)
C73 C 0.5489(9) 0.3623(8) 0.3415(5)
H63 H 0.4796 0.3866 0.3197
H64 H 0.5404 0.3569 0.3892
C74 C 0.5393(8) 0.2445(8) 0.2972(6)
H65 H 0.5100 0.1825 0.3213
H66 H 0.4775 0.2230 0.2511
C75 C 0.6662(9) 0.2585(8) 0.2884(6)
H67 H 0.6661 0.2411 0.2381
H68 H 0.7011 0.2068 0.3105
C76 C 0.7465(11) 0.3912(9) 0.3267(7)
H69 H 0.8115 0.3979 0.3687
H70 H 0.7921 0.4298 0.2948
N2? N 0.5427(8) 0.5871(7) 0.2441(5)
C59? C 0.5612(9) 0.5421(9) 0.1947(5)
C60? C 0.5865(17) 0.4916(13) 0.1263(7)
H36? H 0.6736 0.5371 0.1245
H37? H 0.5235 0.4946 0.0872
H38? H 0.5786 0.4102 0.1227
O10? O 0.4564(9) 0.2076(7) 0.7408(4)
C65? C 0.5534(12) 0.2791(9) 0.7416(7)
H47? H 0.5976 0.3288 0.7898
H48? H 0.5381 0.3293 0.7110
C66? C 0.6288(11) 0.2138(10) 0.7154(7)
H49? H 0.6930 0.2102 0.7544
H50? H 0.6743 0.2496 0.6826
C67? C 0.5230(12) 0.0843(9) 0.6751(7)
H51? H 0.4934 0.0755 0.6243
H52? H 0.5566 0.0219 0.6821
C68? C 0.4225(11) 0.0856(10) 0.7112(7)
H53? H 0.3362 0.0512 0.6782
H54? H 0.4244 0.0432 0.7481
O11? O 0.7472(18) 0.3688(15) 0.3308(9)
C69? C 0.7433(18) 0.3899(19) 0.2605(10)
H55? H 0.7412 0.4688 0.2613
H56? H 0.8198 0.3836 0.2447
C70? C 0.6246(19) 0.299(2) 0.2137(8)
H57? H 0.6459 0.2449 0.1789
H58? H 0.5713 0.3352 0.1882
C71? C 0.5540(15) 0.2354(18) 0.2586(11)
H59? H 0.5051 0.1521 0.2340
H60? H 0.4949 0.2719 0.2757
C72? C 0.674(2) 0.2514(18) 0.3211(10)
H61? H 0.6458 0.2371 0.3638
H62? H 0.7206 0.1996 0.3067
O13? O 0.5259(10) 0.3208(13) 0.2886(7)
C77? C 0.6111(17) 0.365(2) 0.3513(8)
H71? H 0.5711 0.3365 0.3878
H72? H 0.6406 0.4517 0.3644
C78? C 0.7257(15) 0.325(2) 0.3449(8)
H73? H 0.7086 0.2449 0.3506
H74? H 0.8067 0.3794 0.3788
C79? C 0.7275(14) 0.330(2) 0.2676(8)
H75? H 0.7784 0.4091 0.2658
H76? H 0.7639 0.2735 0.2455
C80? C 0.5912(15) 0.297(2) 0.2330(8)
H77? H 0.5539 0.2130 0.2075
H78? H 0.5814 0.3434 0.1992
loop_
_geom_bond_atom_site_label_1
_geom_bond_atom_site_label_2
_geom_bond_site_symmetry_1
_geom_bond_site_symmetry_2
O1 C7 1_555 1_555
O2 C8 1_555 1_555
O3 C21 1_555 1_555
O4 C22 1_555 1_555
O5 C35 1_555 1_555
O6 C36 1_555 1_555
O7 C49 1_555 1_555
O8 C50 1_555 1_555
C1 C2 1_555 1_555
C2 C3 1_555 1_555
C3 H1 1_555 1_555
C4 C3 1_555 1_555
C5 C4 1_555 1_555
C6 C1 1_555 1_555
H2 C6 1_555 1_555
C7 C2 1_555 1_555
H3 C7 1_555 1_555
C8 C4 1_555 1_555
H4 C8 1_555 1_555
C9 C5 1_555 1_555
C10 C9 1_555 1_555
H5 C10 1_555 1_555
C11 C10 1_555 1_555
H6 C11 1_555 1_555
C12 C11 1_555 1_555
H7 C12 1_555 1_555
C13 C12 1_555 1_555
C14 C9 1_555 1_555
H8 C14 1_555 1_555
C15 C13 1_555 1_555
C16 C15 1_555 1_555
C17 C16 1_555 1_555
H9 C17 1_555 1_555
C18 C17 1_555 1_555
C19 C18 1_555 1_555
C20 C15 1_555 1_555
H10 C20 1_555 1_555
C21 C16 1_555 1_555
H11 C21 1_555 1_555
C22 C18 1_555 1_555
H12 C22 1_555 1_555
C23 C19 1_555 1_555
C24 C23 1_555 1_555
H13 C24 1_555 1_555
C25 C24 1_555 1_555
H14 C25 1_555 1_555
C26 C25 1_555 1_555
H15 C26 1_555 1_555
C27 C26 1_555 1_555
C28 C23 1_555 1_555
H16 C28 1_555 1_555
C29 C27 1_555 1_555
C30 C29 1_555 1_555
C31 C30 1_555 1_555
H17 C31 1_555 1_555
C32 C31 1_555 1_555
C33 C32 1_555 1_555
C34 C29 1_555 1_555
H18 C34 1_555 1_555
C35 C30 1_555 1_555
H19 C35 1_555 1_555
C36 C32 1_555 1_555
H20 C36 1_555 1_555
C37 C33 1_555 1_555
C38 C37 1_555 1_555
H21 C38 1_555 1_555
C39 C38 1_555 1_555
H22 C39 1_555 1_555
C40 C39 1_555 1_555
H23 C40 1_555 1_555
C41 C40 1_555 1_555
C42 C37 1_555 1_555
H24 C42 1_555 1_555
C43 C41 1_555 1_555
C44 C43 1_555 1_555
C45 C44 1_555 1_555
H25 C45 1_555 1_555
C46 C45 1_555 1_555
C47 C46 1_555 1_555
C48 C43 1_555 1_555
H26 C48 1_555 1_555
C49 C44 1_555 1_555
H27 C49 1_555 1_555
C50 C46 1_555 1_555
H28 C50 1_555 1_555
C51 C47 1_555 1_555
C52 C51 1_555 1_555
H29 C52 1_555 1_555
C53 C52 1_555 1_555
H30 C53 1_555 1_555
C54 C53 1_555 1_555
H31 C54 1_555 1_555
C55 C1 1_555 1_555
C56 C51 1_555 1_555
H32 C56 1_555 1_555
N1 C57 1_555 1_555
C57 C58 1_555 1_555
C58 H33 1_555 1_555
H34 C58 1_555 1_555
H35 C58 1_555 1_555
O9 C61 1_555 1_555
C61 H39 1_555 1_555
H40 C61 1_555 1_555
C62 C61 1_555 1_555
H41 C62 1_555 1_555
H42 C62 1_555 1_555
C63 C62 1_555 1_555
H43 C63 1_555 1_555
H44 C63 1_555 1_555
C64 O9 1_555 1_555
H45 C64 1_555 1_555
H46 C64 1_555 1_555
O12 C73 1_555 1_555
C73 H63 1_555 1_555
H64 C73 1_555 1_555
C74 C73 1_555 1_555
H65 C74 1_555 1_555
H66 C74 1_555 1_555
C75 C74 1_555 1_555
H67 C75 1_555 1_555
H68 C75 1_555 1_555
C76 O12 1_555 1_555
H69 C76 1_555 1_555
H70 C76 1_555 1_555
C5 C6 1_555 1_555
C13 C14 1_555 1_555
C19 C20 1_555 1_555
C27 C28 1_555 1_555
C33 C34 1_555 1_555
C41 C42 1_555 1_555
C47 C48 1_555 1_555
C54 C55 1_555 1_555
C55 C56 1_555 1_555
C63 C64 1_555 1_555
C75 C76 1_555 1_555

#END
