
#######################################################################
#
#                 Cambridge Crystallographic Data Centre
#                                CCDC 
#
#######################################################################
#
# If this CIF has been generated from an entry in the Cambridge 
# Structural Database, then it will include bibliographic, chemical, 
# crystal, experimental, refinement or atomic coordinate data resulting 
# from the CCDC's data processing and validation procedures.
#
#######################################################################

data_RIKKII
_chemical_formula_moiety         'C11 H10 N3 1+,Cl1 O4 1-'
_chemical_name_systematic        
'1-(4-cyanobenzyl)-1H-imidazol-3-ium perchlorate'
_symmetry_cell_setting           monoclinic
_symmetry_space_group_name_H-M   'P 21/c'
_symmetry_Int_Tables_number      14
_space_group_name_Hall           '-P 2ybc'
loop_
_symmetry_equiv_pos_site_id
_symmetry_equiv_pos_as_xyz
1 x,y,z
2 -x,1/2+y,1/2-z
3 -x,-y,-z
4 x,1/2-y,1/2+z
_cell_length_a                   8.3725(2)
_cell_length_b                   22.5781(5)
_cell_length_c                   7.2008(2)
_cell_angle_alpha                90
_cell_angle_beta                 114.656(4)
_cell_angle_gamma                90
_cell_volume                     1237.1
_exptl_crystal_colour            colorless
_exptl_crystal_description       cube
_cell_formula_units_Z            4
loop_
_atom_site_label
_atom_site_type_symbol
_atom_site_fract_x
_atom_site_fract_y
_atom_site_fract_z
Cl1 Cl 0.27739(5) 0.604065(18) 0.41662(6)
O1 O 0.14118(18) 0.55971(6) 0.3684(2)
O2 O 0.24154(17) 0.64039(6) 0.2402(2)
O3 O 0.2799(2) 0.63960(8) 0.5828(2)
O4 O 0.44588(18) 0.57559(7) 0.4742(2)
N1 N 0.18494(18) 0.51684(6) 0.7711(2)
H1 H 0.127(4) 0.5465(14) 0.688(5)
N2 N 0.34425(18) 0.44050(6) 0.9046(2)
N3 N 0.0637(2) 0.11483(7) 0.8280(3)
C1 C 0.1946(2) 0.51194(8) 0.9644(3)
H2 H 0.1408 0.5373 1.0268
C2 C 0.2950(2) 0.46420(8) 1.0499(3)
H3 H 0.3261 0.4496 1.1843
C3 C 0.2753(2) 0.47335(7) 0.7364(3)
H4 H 0.2884 0.4668 0.6132
C4 C 0.4532(2) 0.38801(7) 0.9289(3)
H5 H 0.5509 0.3888 1.0670
H6 H 0.5053 0.3900 0.8283
C5 C 0.3564(2) 0.32980(7) 0.9014(2)
C6 C 0.4528(2) 0.27850(7) 0.9169(3)
H7 H 0.5734 0.2813 0.9422
C7 C 0.3750(2) 0.22352(7) 0.8960(3)
H8 H 0.4415 0.1886 0.9065
C8 C 0.1976(2) 0.21966(7) 0.8593(2)
C9 C 0.0988(2) 0.27087(7) 0.8411(3)
H9 H -0.0219 0.2681 0.8153
C10 C 0.1785(2) 0.32590(7) 0.8612(3)
H10 H 0.1118 0.3610 0.8475
C11 C 0.1201(2) 0.16180(8) 0.8407(3)
loop_
_geom_bond_atom_site_label_1
_geom_bond_atom_site_label_2
_geom_bond_site_symmetry_1
_geom_bond_site_symmetry_2
Cl1 O1 1_555 1_555
O2 Cl1 1_555 1_555
O3 Cl1 1_555 1_555
O4 Cl1 1_555 1_555
N1 H1 1_555 1_555
N2 C2 1_555 1_555
N3 C11 1_555 1_555
C1 N1 1_555 1_555
H2 C1 1_555 1_555
C2 C1 1_555 1_555
H3 C2 1_555 1_555
C3 N1 1_555 1_555
H4 C3 1_555 1_555
C4 N2 1_555 1_555
H5 C4 1_555 1_555
H6 C4 1_555 1_555
C5 C4 1_555 1_555
C6 C5 1_555 1_555
H7 C6 1_555 1_555
C7 C6 1_555 1_555
H8 C7 1_555 1_555
C8 C7 1_555 1_555
C9 C8 1_555 1_555
H9 C9 1_555 1_555
C10 C5 1_555 1_555
H10 C10 1_555 1_555
C11 C8 1_555 1_555
N2 C3 1_555 1_555
C9 C10 1_555 1_555

#END
