
#######################################################################
#
#                 Cambridge Crystallographic Data Centre
#                                CCDC 
#
#######################################################################
#
# If this CIF has been generated from an entry in the Cambridge 
# Structural Database, then it will include bibliographic, chemical, 
# crystal, experimental, refinement or atomic coordinate data resulting 
# from the CCDC's data processing and validation procedures.
#
#######################################################################

data_RIKZOD
_chemical_formula_moiety         'C7 H4 N8 O7'
_chemical_name_systematic        
1-((2,4,6-trinitrophenyl)amino)-1,4-dihydro-5H-tetrazol-5-one
_symmetry_cell_setting           monoclinic
_symmetry_space_group_name_H-M   'P 21/c'
_symmetry_Int_Tables_number      14
_space_group_name_Hall           '-P 2ybc'
loop_
_symmetry_equiv_pos_site_id
_symmetry_equiv_pos_as_xyz
1 x,y,z
2 -x,1/2+y,1/2-z
3 -x,-y,-z
4 x,1/2-y,1/2+z
_cell_length_a                   12.3900(10)
_cell_length_b                   8.5600(7)
_cell_length_c                   11.4401(9)
_cell_angle_alpha                90
_cell_angle_beta                 93.821(2)
_cell_angle_gamma                90
_cell_volume                     1210.62
_cell_formula_units_Z            4
loop_
_atom_site_label
_atom_site_type_symbol
_atom_site_fract_x
_atom_site_fract_y
_atom_site_fract_z
O1 O 0.5372(5) 0.1478(7) 0.2608(7)
O2 O 0.3906(6) 0.5709(9) 0.5119(7)
O3 O 0.2431(7) 0.6945(10) 0.5416(8)
O4 O 0.0085(9) 0.8268(13) 0.2154(11)
O5 O -0.0057(8) 0.6752(12) 0.0639(12)
O6 O 0.2189(6) 0.1839(8) 0.0866(8)
O7 O 0.3751(6) 0.2938(9) 0.0989(7)
N1 N 0.3692(5) 0.1846(7) 0.3362(6)
N2 N 0.2884(6) 0.0894(9) 0.3695(8)
N3 N 0.3140(7) -0.0485(8) 0.3455(8)
N4 N 0.4113(6) -0.0465(8) 0.3000(8)
H1 H 0.4442 -0.1288 0.2779
N5 N 0.3732(6) 0.3408(7) 0.3585(7)
H2 H 0.4260 0.3811 0.4008
N6 N 0.2984(7) 0.6125(9) 0.4838(7)
N7 N 0.0327(7) 0.7135(11) 0.1643(10)
N8 N 0.2819(7) 0.2831(9) 0.1225(7)
C1 C 0.4533(8) 0.0986(10) 0.2945(9)
C2 C 0.2899(6) 0.4339(9) 0.3085(8)
C3 C 0.2486(7) 0.5622(9) 0.3690(8)
C4 C 0.1648(8) 0.6547(10) 0.3224(10)
H3 H 0.1399 0.7392 0.3641
C5 C 0.1195(7) 0.6188(10) 0.2139(10)
C6 C 0.1570(7) 0.4915(10) 0.1490(9)
H4 H 0.1263 0.4672 0.0748
C7 C 0.2397(7) 0.4066(9) 0.1996(8)
loop_
_geom_bond_atom_site_label_1
_geom_bond_atom_site_label_2
_geom_bond_site_symmetry_1
_geom_bond_site_symmetry_2
O1 C1 1_555 1_555
O2 N6 1_555 1_555
O3 N6 1_555 1_555
O4 N7 1_555 1_555
O5 N7 1_555 1_555
O6 N8 1_555 1_555
O7 N8 1_555 1_555
N1 N2 1_555 1_555
N2 N3 1_555 1_555
N3 N4 1_555 1_555
N4 H1 1_555 1_555
N5 N1 1_555 1_555
H2 N5 1_555 1_555
N6 C3 1_555 1_555
N7 C5 1_555 1_555
N8 C7 1_555 1_555
C1 N1 1_555 1_555
C2 N5 1_555 1_555
C3 C2 1_555 1_555
C4 C3 1_555 1_555
H3 C4 1_555 1_555
C5 C4 1_555 1_555
C6 C5 1_555 1_555
H4 C6 1_555 1_555
C7 C2 1_555 1_555
N4 C1 1_555 1_555
C6 C7 1_555 1_555

#END
