
#######################################################################
#
#                 Cambridge Crystallographic Data Centre
#                                CCDC 
#
#######################################################################
#
# If this CIF has been generated from an entry in the Cambridge 
# Structural Database, then it will include bibliographic, chemical, 
# crystal, experimental, refinement or atomic coordinate data resulting 
# from the CCDC's data processing and validation procedures.
#
#######################################################################

data_RILDAU
_chemical_formula_moiety         'C48 H30 N8,0.37(H2 O1)'
_chemical_name_systematic        
"2,2'-(1,4-phenylene)bis(5,8-bis(pyridin-4-yl)-1H-perimidine) hydrate"
_symmetry_cell_setting           monoclinic
_symmetry_space_group_name_H-M   'C 2/c'
_symmetry_Int_Tables_number      15
_space_group_name_Hall           '-C 2yn'
loop_
_symmetry_equiv_pos_site_id
_symmetry_equiv_pos_as_xyz
1 x,y,z
2 -x,y,1/2-z
3 1/2+x,1/2+y,z
4 1/2-x,1/2+y,1/2-z
5 -x,-y,-z
6 x,-y,1/2+z
7 1/2-x,1/2-y,-z
8 1/2+x,1/2-y,1/2+z
_cell_length_a                   23.7642(11)
_cell_length_b                   4.9856(3)
_cell_length_c                   30.7618(16)
_cell_angle_alpha                90
_cell_angle_beta                 106.104(2)
_cell_angle_gamma                90
_cell_volume                     3501.61
_exptl_crystal_colour            orange
_exptl_crystal_description       Needle
_cell_formula_units_Z            4
_chemical_properties_physical    Air-sensitive
loop_
_atom_site_label
_atom_site_type_symbol
_atom_site_fract_x
_atom_site_fract_y
_atom_site_fract_z
C1 C -0.01246(13) -0.3106(6) 0.03007(12)
C2 C -0.02701(13) -0.1120(6) 0.06068(13)
N1 N -0.08219(11) -0.0780(6) 0.05877(11)
C3 C -0.09604(13) 0.1131(6) 0.08750(13)
C4 C -0.15401(14) 0.1591(7) 0.08592(15)
H1 H -0.184125 0.058408 0.065769
C5 C -0.16857(13) 0.3544(7) 0.11402(14)
C6 C -0.12534(13) 0.5004(6) 0.14367(13)
H2 H -0.135820 0.631090 0.162504
C7 C -0.06540(13) 0.4583(6) 0.14650(13)
C8 C -0.01917(14) 0.5996(7) 0.17624(13)
H3 H -0.027816 0.726078 0.196581
C9 C 0.03860(13) 0.5589(6) 0.17657(12)
C10 C 0.05140(13) 0.3684(6) 0.14691(12)
H4 H 0.090868 0.341026 0.146660
C11 C 0.00755(13) 0.2217(6) 0.11832(12)
N2 N 0.01789(11) 0.0289(5) 0.08850(10)
C12 C -0.05169(12) 0.2634(6) 0.11747(12)
C13 C -0.23161(14) 0.4069(7) 0.11019(16)
N3 N -0.35149(13) 0.5054(6) 0.09959(14)
C14 C 0.08675(13) 0.7077(6) 0.20855(12)
C15 C 0.07721(15) 0.9319(7) 0.23217(13)
H5 H 0.038611 1.000244 0.227085
C16 C 0.12321(16) 1.0574(8) 0.26306(14)
H6 H 0.114308 1.207081 0.279090
N4 N 0.17886(13) 0.9836(6) 0.27190(12)
C17 C 0.18837(16) 0.7719(8) 0.24882(16)
H7 H 0.227729 0.713879 0.253827
C18 C 0.14507(15) 0.6282(8) 0.21784(15)
H8 H 0.155279 0.476051 0.203039
C19 C 0.0422(4) -0.314(2) 0.0191(3)
H9 H 0.070980 -0.181376 0.031454
C20 C -0.0532(7) -0.493(3) 0.0092(5)
H10 H -0.090840 -0.486659 0.014293
C21 C -0.2731(2) 0.4505(13) 0.0623(2)
H11 H -0.259243 0.440574 0.036188
C22 C -0.3306(3) 0.5040(13) 0.0589(3)
H12 H -0.357119 0.540409 0.030151
C23 C -0.3158(3) 0.4883(14) 0.1348(3)
H13 H -0.328630 0.514350 0.161137
C24 C -0.2562(3) 0.4333(13) 0.1415(3)
H14 H -0.232510 0.414350 0.171811
H15 H 0.058(2) -0.005(9) 0.0913(16)
C1D C 0.01246(13) -0.6894(6) -0.03007(12)
C2D C 0.02701(13) -0.8880(6) -0.06068(13)
N1D N 0.08219(11) -0.9220(6) -0.05877(11)
C3D C 0.09604(13) -1.1131(6) -0.08750(13)
C4D C 0.15401(14) -1.1591(7) -0.08592(15)
H1D H 0.184125 -1.058408 -0.065769
C5D C 0.16857(13) -1.3544(7) -0.11402(14)
C6D C 0.12534(13) -1.5004(6) -0.14367(13)
H2D H 0.135820 -1.631090 -0.162504
C7D C 0.06540(13) -1.4583(6) -0.14650(13)
C8D C 0.01917(14) -1.5996(7) -0.17624(13)
H3D H 0.027816 -1.726078 -0.196581
C9D C -0.03860(13) -1.5589(6) -0.17657(12)
C10D C -0.05140(13) -1.3684(6) -0.14691(12)
H4D H -0.090868 -1.341026 -0.146660
C11D C -0.00755(13) -1.2217(6) -0.11832(12)
N2D N -0.01789(11) -1.0289(5) -0.08850(10)
C12D C 0.05169(12) -1.2634(6) -0.11747(12)
C13D C 0.23161(14) -1.4069(7) -0.11019(16)
N3D N 0.35149(13) -1.5054(6) -0.09959(14)
C14D C -0.08675(13) -1.7077(6) -0.20855(12)
C15D C -0.07721(15) -1.9319(7) -0.23217(13)
H5D H -0.038611 -2.000244 -0.227085
C16D C -0.12321(16) -2.0574(8) -0.26306(14)
H6D H -0.114308 -2.207081 -0.279090
N4D N -0.17886(13) -1.9836(6) -0.27190(12)
C17D C -0.18837(16) -1.7719(8) -0.24882(16)
H7D H -0.227729 -1.713879 -0.253827
C18D C -0.14507(15) -1.6282(8) -0.21784(15)
H8D H -0.155279 -1.476051 -0.203039
C19D C -0.0422(4) -0.686(2) -0.0191(3)
H9D H -0.070980 -0.818624 -0.031454
C20D C 0.0532(7) -0.507(3) -0.0092(5)
H10D H 0.090840 -0.513341 -0.014293
C21D C 0.2731(2) -1.4505(13) -0.0623(2)
H11D H 0.259243 -1.440574 -0.036188
C22D C 0.3306(3) -1.5040(13) -0.0589(3)
H12D H 0.357119 -1.540409 -0.030151
C23D C 0.3158(3) -1.4883(14) -0.1348(3)
H13D H 0.328630 -1.514350 -0.161137
C24D C 0.2562(3) -1.4333(13) -0.1415(3)
H14D H 0.232510 -1.414350 -0.171811
H15D H -0.058(2) -0.995(9) -0.0913(16)
O1 O -0.2043(13) 0.507(8) 0.0050(10)
C25? C 0.0441(5) -0.403(2) 0.0358(4)
H16? H 0.074516 -0.341555 0.060914
C26? C -0.0573(7) -0.417(3) -0.0060(5)
H17? H -0.096824 -0.363807 -0.009838
C27? C -0.2690(3) 0.1862(15) 0.1098(3)
H18? H -0.254592 0.007477 0.112821
C28? C -0.3272(3) 0.2403(15) 0.1047(3)
H19? H -0.352807 0.093713 0.104643
C29? C -0.3102(3) 0.6880(17) 0.1146(3)
H20? H -0.322480 0.858814 0.122176
C30? C -0.2504(3) 0.6524(15) 0.1202(3)
H21? H -0.223535 0.794802 0.130685
O2? O -0.255(2) 0.309(8) 0.0052(16)
loop_
_geom_bond_atom_site_label_1
_geom_bond_atom_site_label_2
_geom_bond_site_symmetry_1
_geom_bond_site_symmetry_2
C1 C2 1_555 1_555
C2 N1 1_555 1_555
N1 C3 1_555 1_555
C3 C4 1_555 1_555
C4 H1 1_555 1_555
C5 C4 1_555 1_555
C6 C5 1_555 1_555
H2 C6 1_555 1_555
C7 C6 1_555 1_555
C8 C7 1_555 1_555
H3 C8 1_555 1_555
C9 C8 1_555 1_555
C10 C9 1_555 1_555
H4 C10 1_555 1_555
C11 C10 1_555 1_555
N2 C2 1_555 1_555
C12 C3 1_555 1_555
C13 C5 1_555 1_555
N3 C22 1_555 1_555
C14 C9 1_555 1_555
C15 C14 1_555 1_555
H5 C15 1_555 1_555
C16 C15 1_555 1_555
H6 C16 1_555 1_555
N4 C16 1_555 1_555
C17 N4 1_555 1_555
H7 C17 1_555 1_555
C18 C14 1_555 1_555
H8 C18 1_555 1_555
C19 C1 1_555 1_555
H9 C19 1_555 1_555
C20 C1 1_555 1_555
H10 C20 1_555 1_555
C21 C13 1_555 1_555
H11 C21 1_555 1_555
C22 C21 1_555 1_555
H12 C22 1_555 1_555
C23 N3 1_555 1_555
H13 C23 1_555 1_555
C24 C13 1_555 1_555
H14 C24 1_555 1_555
H15 N2 1_555 1_555
C1D C2D 1_555 1_555
C2D N1D 1_555 1_555
N1D C3D 1_555 1_555
C3D C4D 1_555 1_555
C4D H1D 1_555 1_555
C5D C4D 1_555 1_555
C6D C5D 1_555 1_555
H2D C6D 1_555 1_555
C7D C6D 1_555 1_555
C8D C7D 1_555 1_555
H3D C8D 1_555 1_555
C9D C8D 1_555 1_555
C10D C9D 1_555 1_555
H4D C10D 1_555 1_555
C11D C10D 1_555 1_555
N2D C2D 1_555 1_555
C12D C3D 1_555 1_555
C13D C5D 1_555 1_555
N3D C22D 1_555 1_555
C14D C9D 1_555 1_555
C15D C14D 1_555 1_555
H5D C15D 1_555 1_555
C16D C15D 1_555 1_555
H6D C16D 1_555 1_555
N4D C16D 1_555 1_555
C17D N4D 1_555 1_555
H7D C17D 1_555 1_555
C18D C14D 1_555 1_555
H8D C18D 1_555 1_555
C19D C20 1_555 1_555
H9D C19D 1_555 1_555
C20D C19 1_555 1_555
H10D C20D 1_555 1_555
C21D C13D 1_555 1_555
H11D C21D 1_555 1_555
C22D C21D 1_555 1_555
H12D C22D 1_555 1_555
C23D N3D 1_555 1_555
H13D C23D 1_555 1_555
C24D C13D 1_555 1_555
H14D C24D 1_555 1_555
H15D N2D 1_555 1_555
C7 C12 1_555 1_555
C11 N2 1_555 1_555
C11 C12 1_555 1_555
C17 C18 1_555 1_555
C23 C24 1_555 1_555
C1D C19D 1_555 1_555
C1D C20D 1_555 1_555
C7D C12D 1_555 1_555
C11D N2D 1_555 1_555
C11D C12D 1_555 1_555
C17D C18D 1_555 1_555
C23D C24D 1_555 1_555

#END
