
#######################################################################
#
#                 Cambridge Crystallographic Data Centre
#                                CCDC 
#
#######################################################################
#
# If this CIF has been generated from an entry in the Cambridge 
# Structural Database, then it will include bibliographic, chemical, 
# crystal, experimental, refinement or atomic coordinate data resulting 
# from the CCDC's data processing and validation procedures.
#
#######################################################################

data_RILFUQ
_chemical_formula_moiety         'C22 H15 N1 O1 S1,C4 H10 O1'
_chemical_name_systematic        
'1-(10H-phenothiazin-10-yl)naphthalen-2-ol diethyl ether solvate'
_symmetry_cell_setting           monoclinic
_symmetry_space_group_name_H-M   'P 21/n'
_symmetry_Int_Tables_number      14
_space_group_name_Hall           '-P 2yn'
loop_
_symmetry_equiv_pos_site_id
_symmetry_equiv_pos_as_xyz
1 x,y,z
2 1/2-x,1/2+y,1/2-z
3 -x,-y,-z
4 1/2+x,1/2-y,1/2+z
_cell_length_a                   9.1512(10)
_cell_length_b                   19.982(2)
_cell_length_c                   12.0034(12)
_cell_angle_alpha                90
_cell_angle_beta                 91.661(5)
_cell_angle_gamma                90
_cell_volume                     2194.01
_exptl_crystal_colour            colorless
_exptl_crystal_description       plate
_cell_formula_units_Z            4
loop_
_atom_site_label
_atom_site_type_symbol
_atom_site_fract_x
_atom_site_fract_y
_atom_site_fract_z
S1 S 0.64454(5) 0.56412(2) 0.85190(4)
H1 H 0.337(3) 0.8204(13) 0.6958(19)
O1 O 0.38147(14) 0.78433(6) 0.69414(11)
N1 N 0.45230(13) 0.65033(6) 0.70002(10)
C1 C 0.39618(16) 0.63806(7) 0.80660(12)
C2 C 0.25692(19) 0.65887(9) 0.83497(14)
H2 H 0.203(2) 0.6823(10) 0.7819(16)
C3 C 0.2032(2) 0.64606(10) 0.93987(16)
H3 H 0.108(3) 0.6628(11) 0.9580(18)
C4 C 0.2888(2) 0.61401(11) 1.01966(16)
H4 H 0.252(3) 0.6062(12) 1.090(2)
C5 C 0.4266(2) 0.59286(10) 0.99312(14)
H5 H 0.485(3) 0.5692(11) 1.048(2)
C6 C 0.47926(17) 0.60293(7) 0.88704(12)
C7 C 0.85396(18) 0.62509(10) 0.73264(16)
H6 H 0.922(2) 0.6019(11) 0.7799(17)
C8 C 0.70500(16) 0.62001(7) 0.75010(13)
C9 C 0.9052(2) 0.66159(12) 0.64525(19)
H7 H 1.005(3) 0.6608(12) 0.633(2)
C10 C 0.8071(2) 0.69538(12) 0.57652(19)
H8 H 0.845(3) 0.7230(13) 0.516(2)
C11 C 0.65862(19) 0.69268(10) 0.59582(15)
H9 H 0.591(2) 0.7171(11) 0.5494(18)
C12 C 0.60405(16) 0.65466(7) 0.68263(12)
C13 C 0.35525(15) 0.67766(7) 0.61541(11)
C14 C 0.32182(16) 0.74437(8) 0.61364(13)
C15 C 0.22837(18) 0.77065(8) 0.52842(14)
H10 H 0.207(2) 0.8179(11) 0.5290(16)
C16 C 0.17063(18) 0.72951(9) 0.44851(14)
H11 H 0.106(2) 0.7456(10) 0.3924(16)
C17 C 0.20164(17) 0.66065(8) 0.44791(12)
C18 C 0.1432(2) 0.61722(11) 0.36536(17)
H12 H 0.080(3) 0.6345(12) 0.310(2)
C19 C 0.1768(3) 0.55129(12) 0.3659(2)
H13 H 0.134(3) 0.5189(14) 0.318(2)
C20 C 0.2715(2) 0.52467(10) 0.44890(18)
H14 H 0.296(2) 0.4756(12) 0.4472(18)
C21 C 0.32969(19) 0.56496(8) 0.52989(14)
H15 H 0.393(2) 0.5482(10) 0.5860(17)
C22 C 0.29702(15) 0.63394(7) 0.53223(11)
O2 O 0.22409(15) 0.89927(6) 0.71414(11)
C23 C 0.2933(3) 0.96266(11) 0.7077(2)
H16 H 0.225(3) 0.9929(16) 0.697(2)
H17 H 0.336(3) 0.9744(16) 0.782(3)
C24 C 0.4056(3) 0.96081(14) 0.6217(2)
H18 H 0.461(3) 1.0052(17) 0.612(2)
H19 H 0.483(3) 0.9241(15) 0.641(2)
H20 H 0.365(3) 0.9477(16) 0.554(3)
C25 C 0.1078(3) 0.89663(14) 0.7914(2)
H21 H 0.152(3) 0.9026(15) 0.862(3)
H22 H 0.040(3) 0.9334(15) 0.772(2)
C26 C 0.0391(4) 0.82997(17) 0.7871(3)
H23 H -0.038(4) 0.8280(17) 0.842(3)
H24 H 0.107(4) 0.798(2) 0.810(3)
H25 H 0.004(4) 0.8180(18) 0.715(3)
loop_
_geom_bond_atom_site_label_1
_geom_bond_atom_site_label_2
_geom_bond_site_symmetry_1
_geom_bond_site_symmetry_2
S1 C6 1_555 1_555
H1 O1 1_555 1_555
O1 C14 1_555 1_555
N1 C1 1_555 1_555
C1 C2 1_555 1_555
C2 H2 1_555 1_555
C3 C2 1_555 1_555
H3 C3 1_555 1_555
C4 C3 1_555 1_555
H4 C4 1_555 1_555
C5 C4 1_555 1_555
H5 C5 1_555 1_555
C6 C1 1_555 1_555
C7 H6 1_555 1_555
C8 S1 1_555 1_555
C9 C7 1_555 1_555
H7 C9 1_555 1_555
C10 C9 1_555 1_555
H8 C10 1_555 1_555
C11 C10 1_555 1_555
H9 C11 1_555 1_555
C12 N1 1_555 1_555
C13 N1 1_555 1_555
C14 C13 1_555 1_555
C15 C14 1_555 1_555
H10 C15 1_555 1_555
C16 C15 1_555 1_555
H11 C16 1_555 1_555
C17 C16 1_555 1_555
C18 C17 1_555 1_555
H12 C18 1_555 1_555
C19 C18 1_555 1_555
H13 C19 1_555 1_555
C20 C19 1_555 1_555
H14 C20 1_555 1_555
C21 C20 1_555 1_555
H15 C21 1_555 1_555
C22 C13 1_555 1_555
O2 C23 1_555 1_555
C23 H16 1_555 1_555
H17 C23 1_555 1_555
C24 C23 1_555 1_555
H18 C24 1_555 1_555
H19 C24 1_555 1_555
H20 C24 1_555 1_555
C25 O2 1_555 1_555
H21 C25 1_555 1_555
H22 C25 1_555 1_555
C26 C25 1_555 1_555
H23 C26 1_555 1_555
H24 C26 1_555 1_555
H25 C26 1_555 1_555
C5 C6 1_555 1_555
C7 C8 1_555 1_555
C8 C12 1_555 1_555
C11 C12 1_555 1_555
C17 C22 1_555 1_555
C21 C22 1_555 1_555

#END
