
#######################################################################
#
#                 Cambridge Crystallographic Data Centre
#                                CCDC 
#
#######################################################################
#
# If this CIF has been generated from an entry in the Cambridge 
# Structural Database, then it will include bibliographic, chemical, 
# crystal, experimental, refinement or atomic coordinate data resulting 
# from the CCDC's data processing and validation procedures.
#
#######################################################################

data_RILFEX
_chemical_formula_moiety         'C24 H46 N6 O2,2(H1 Cl1 O4)'
_chemical_name_systematic        
'trans-2,13-bis(Carbamoylmethyl)-5,16-dimethyl-2,6,13,17-tetraazatricyclo(16.4.0.0^7,12^)docosane perchloric acid solvate'
_symmetry_cell_setting           triclinic
_symmetry_space_group_name_H-M   'P -1'
_symmetry_Int_Tables_number      2
_space_group_name_Hall           '-P 1'
loop_
_symmetry_equiv_pos_site_id
_symmetry_equiv_pos_as_xyz
1 x,y,z
2 -x,-y,-z
_cell_length_a                   8.9330(11)
_cell_length_b                   9.584(4)
_cell_length_c                   9.8021(18)
_cell_angle_alpha                71.55(2)
_cell_angle_beta                 72.958(12)
_cell_angle_gamma                81.044(17)
_cell_volume                     759.272
_exptl_crystal_colour            colorless
_exptl_crystal_description       block
_cell_formula_units_Z            1
_exptl_crystal_recrystallization_method water/acetonitrile
loop_
_atom_site_label
_atom_site_type_symbol
_atom_site_fract_x
_atom_site_fract_y
_atom_site_fract_z
Cl1 Cl 0.25564(11) 0.20914(11) 1.19769(11)
O2 O 0.4182(4) 0.1953(5) 1.1944(4)
O3 O 0.2186(4) 0.3528(4) 1.1072(4)
O4 O 0.2285(7) 0.1027(5) 1.1396(7)
O6 O 0.1532(17) 0.1694(17) 1.3429(18)
O1 O 0.6375(5) 0.4850(4) 0.6706(3)
N1 N 0.2871(3) 0.5142(3) 0.6175(3)
H1 H 0.3917 0.5153 0.6266
N2 N 0.4978(3) 0.2647(3) 0.6350(3)
N3 N 0.6110(4) 0.3800(4) 0.9115(4)
H2 H 0.6580 0.4556 0.9236
H3 H 0.5830 0.2963 0.9988
C1 C 0.2247(4) 0.3665(4) 0.7156(4)
H4 H 0.2303 0.3525 0.8175
C2 C 0.0554(5) 0.3593(5) 0.7171(6)
H5 H 0.0477 0.3769 0.6162
H6 H -0.0105 0.4350 0.7574
C3 C -0.0007(5) 0.2075(5) 0.8124(6)
H7 H 0.0010 0.1931 0.9144
H8 H -0.1080 0.2025 0.8116
C4 C 0.1017(5) 0.0869(5) 0.7553(6)
H9 H 0.0937 0.0969 0.6560
H10 H 0.0653 -0.0082 0.8194
C5 C 0.2714(4) 0.0938(4) 0.7507(5)
H11 H 0.3358 0.0181 0.7093
H12 H 0.2810 0.0748 0.8512
C6 C 0.3306(4) 0.2463(4) 0.6553(4)
H13 H 0.3174 0.2609 0.5558
C7 C 0.5994(4) 0.1726(4) 0.5417(5)
H14 H 0.5549 0.1806 0.4601
H15 H 0.5987 0.0703 0.6015
C8 C 0.7680(4) 0.2147(4) 0.4780(4)
H16 H 0.8027 0.2306 0.5566
H17 H 0.8319 0.1312 0.4509
C9 C 0.1979(4) 0.6498(4) 0.6569(4)
H18 H 0.0858 0.6355 0.6810
C10 C 0.2303(7) 0.6611(5) 0.7953(5)
H19 H 0.2056 0.5714 0.8740
H20 H 0.1669 0.7424 0.8249
H21 H 0.3392 0.6765 0.7753
C11 C 0.5390(4) 0.2417(4) 0.7742(4)
H22 H 0.6191 0.1611 0.7849
H23 H 0.4473 0.2139 0.8568
C12 C 0.5992(4) 0.3788(4) 0.7811(4)
C8A C 0.2320(4) 0.7853(4) 0.5220(4)
C7A C 0.4006(4) 0.8274(4) 0.4583(5)
N2A N 0.5022(3) 0.7353(3) 0.3650(3)
C6A C 0.6694(4) 0.7537(4) 0.3447(4)
C1A C 0.7753(4) 0.6335(4) 0.2844(4)
N1A N 0.7129(3) 0.4858(3) 0.3825(3)
H1A H 0.6083 0.4847 0.3734
C9A C 0.8021(4) 0.3502(4) 0.3431(4)
H18A H 0.9142 0.3645 0.3190
C10A C 0.7697(7) 0.3389(5) 0.2047(5)
H19A H 0.7944 0.4286 0.1260
H20A H 0.8331 0.2576 0.1751
H21A H 0.6608 0.3235 0.2247
H4A H 0.7697 0.6475 0.1825
C2A C 0.9446(5) 0.6407(5) 0.2829(6)
H5A H 0.9523 0.6231 0.3838
H6A H 1.0105 0.5650 0.2426
C3A C 1.0007(5) 0.7925(5) 0.1876(6)
H7A H 0.9990 0.8069 0.0856
H8A H 1.1080 0.7975 0.1884
C4A C 0.8983(5) 0.9131(5) 0.2447(6)
H9A H 0.9063 0.9031 0.3440
H10A H 0.9347 1.0082 0.1806
C5A C 0.7286(4) 0.9062(4) 0.2493(5)
H11A H 0.6642 0.9819 0.2907
H12A H 0.7190 0.9252 0.1488
H13A H 0.6826 0.7391 0.4442
C11A C 0.4610(4) 0.7583(4) 0.2258(4)
H22A H 0.3809 0.8389 0.2151
H23A H 0.5527 0.7861 0.1432
C12A C 0.4008(4) 0.6212(4) 0.2189(4)
O1A O 0.3625(5) 0.5150(4) 0.3294(3)
N3A N 0.3890(4) 0.6200(4) 0.0885(4)
H2A H 0.3420 0.5444 0.0764
H3A H 0.4170 0.7037 0.0012
H14A H 0.4451 0.8194 0.5399
H15A H 0.4013 0.9297 0.3985
H16A H 0.1973 0.7694 0.4434
H17A H 0.1681 0.8688 0.5491
O5? O 0.184(3) 0.219(3) 1.343(3)
loop_
_geom_bond_atom_site_label_1
_geom_bond_atom_site_label_2
_geom_bond_site_symmetry_1
_geom_bond_site_symmetry_2
Cl1 O2 1_555 1_555
O1 C12 1_555 1_555
O3 Cl1 1_555 1_555
O4 Cl1 1_555 1_555
O6 Cl1 1_555 1_555
N1 H1 1_555 1_555
N2 C6 1_555 1_555
N3 H2 1_555 1_555
H3 N3 1_555 1_555
C1 N1 1_555 1_555
H4 C1 1_555 1_555
C2 C1 1_555 1_555
H5 C2 1_555 1_555
H6 C2 1_555 1_555
C3 C2 1_555 1_555
H7 C3 1_555 1_555
H8 C3 1_555 1_555
C4 C3 1_555 1_555
H9 C4 1_555 1_555
H10 C4 1_555 1_555
C5 C4 1_555 1_555
H11 C5 1_555 1_555
H12 C5 1_555 1_555
C6 C1 1_555 1_555
H13 C6 1_555 1_555
C7 N2 1_555 1_555
H14 C7 1_555 1_555
H15 C7 1_555 1_555
C8 C7 1_555 1_555
H16 C8 1_555 1_555
H17 C8 1_555 1_555
C9 N1 1_555 1_555
H18 C9 1_555 1_555
C10 C9 1_555 1_555
H19 C10 1_555 1_555
H20 C10 1_555 1_555
H21 C10 1_555 1_555
C11 N2 1_555 1_555
H22 C11 1_555 1_555
H23 C11 1_555 1_555
C12 N3 1_555 1_555
C8A C9 1_555 1_555
C7A C8A 1_555 1_555
N2A C7A 1_555 1_555
C6A N2A 1_555 1_555
C1A C6A 1_555 1_555
N1A C1A 1_555 1_555
H1A N1A 1_555 1_555
C9A C8 1_555 1_555
H18A C9A 1_555 1_555
C10A C9A 1_555 1_555
H19A C10A 1_555 1_555
H20A C10A 1_555 1_555
H21A C10A 1_555 1_555
H4A C1A 1_555 1_555
C2A C1A 1_555 1_555
H5A C2A 1_555 1_555
H6A C2A 1_555 1_555
C3A C2A 1_555 1_555
H7A C3A 1_555 1_555
H8A C3A 1_555 1_555
C4A C3A 1_555 1_555
H9A C4A 1_555 1_555
H10A C4A 1_555 1_555
C5A C6A 1_555 1_555
H11A C5A 1_555 1_555
H12A C5A 1_555 1_555
H13A C6A 1_555 1_555
C11A N2A 1_555 1_555
H22A C11A 1_555 1_555
H23A C11A 1_555 1_555
C12A C11A 1_555 1_555
O1A C12A 1_555 1_555
N3A C12A 1_555 1_555
H2A N3A 1_555 1_555
H3A N3A 1_555 1_555
H14A C7A 1_555 1_555
H15A C7A 1_555 1_555
H16A C8A 1_555 1_555
H17A C8A 1_555 1_555
C5 C6 1_555 1_555
C11 C12 1_555 1_555
N1A C9A 1_555 1_555
C4A C5A 1_555 1_555

#END
