
#######################################################################
#
#                 Cambridge Crystallographic Data Centre
#                                CCDC 
#
#######################################################################
#
# If this CIF has been generated from an entry in the Cambridge 
# Structural Database, then it will include bibliographic, chemical, 
# crystal, experimental, refinement or atomic coordinate data resulting 
# from the CCDC's data processing and validation procedures.
#
#######################################################################

data_RILNOP
_chemical_formula_moiety         'C68 H125 Li5 N12 O9 P4,0.1(H2 O1),3.9(C7 H8)'
_chemical_name_systematic        
'(Tetra-t-butylcalix-4-arene)-hydroxo-teterakishexamethylphosphoramide-penta-lithium toluene solvate hydrate'
_symmetry_cell_setting           orthorhombic
_symmetry_space_group_name_H-M   'P b c n'
_symmetry_Int_Tables_number      60
_space_group_name_Hall           '-P 2n 2ab'
loop_
_symmetry_equiv_pos_site_id
_symmetry_equiv_pos_as_xyz
1 x,y,z
2 1/2-x,1/2-y,1/2+z
3 1/2+x,1/2-y,-z
4 -x,y,1/2-z
5 -x,-y,-z
6 1/2+x,1/2+y,1/2-z
7 1/2-x,1/2+y,z
8 x,-y,1/2+z
_cell_length_a                   18.380(3)
_cell_length_b                   28.436(6)
_cell_length_c                   19.724(3)
_cell_angle_alpha                90
_cell_angle_beta                 90
_cell_angle_gamma                90
_cell_volume                     10308.8
_exptl_crystal_colour            colorless
_cell_formula_units_Z            4
loop_
_atom_site_label
_atom_site_type_symbol
_atom_site_fract_x
_atom_site_fract_y
_atom_site_fract_z
P1 P 0.58476(9) 0.37555(6) 0.04527(8)
P2 P 0.73086(9) 0.36504(6) 0.33195(8)
O1 O 0.5887(2) 0.34666(13) 0.1070(2)
O2 O 0.6547(2) 0.35029(13) 0.3221(2)
O3 O 0.6062(2) 0.25969(12) 0.2170(2)
O4 O 0.4649(2) 0.25858(12) 0.1532(2)
Li1 Li 0.5458(5) 0.3019(3) 0.1656(5)
Li2 Li 0.5908(5) 0.3023(3) 0.2925(5)
N1 N 0.6401(3) 0.3542(2) -0.0119(2)
C1 C 0.6424(5) 0.3707(4) -0.0821(4)
H1 H 0.6315(35) 0.3445(7) -0.1127(4)
H2 H 0.6909(12) 0.3831(21) -0.0922(11)
H3 H 0.6061(25) 0.3956(17) -0.0884(9)
C2 C 0.6884(4) 0.3153(2) 0.0023(4)
H4 H 0.7380(6) 0.3236(7) -0.0115(22)
H5 H 0.6723(16) 0.2875(5) -0.0230(19)
H6 H 0.6877(20) 0.3084(11) 0.0510(5)
N2 N 0.5056(3) 0.3801(2) 0.0063(2)
C3 C 0.4786(4) 0.3355(3) -0.0230(4)
H7 H 0.4396(19) 0.3423(3) -0.0555(19)
H8 H 0.4597(25) 0.3154(8) 0.0132(5)
H9 H 0.5185(8) 0.3194(9) -0.0464(22)
C4 C 0.4471(4) 0.4054(3) 0.0410(4)
H10 H 0.4086(12) 0.4129(14) 0.0084(6)
H11 H 0.4664(7) 0.4345(8) 0.0604(20)
H12 H 0.4273(17) 0.3856(7) 0.0772(15)
N3 N 0.6035(3) 0.4308(2) 0.0657(3)
C5 C 0.6069(5) 0.4675(3) 0.0136(5)
H13 H 0.6010(35) 0.4984(3) 0.0348(6)
H14 H 0.5679(22) 0.4625(13) -0.0195(19)
H15 H 0.6541(15) 0.4661(15) -0.0094(22)
C6 C 0.6559(4) 0.4383(2) 0.1208(4)
H16 H 0.6459(17) 0.4685(8) 0.1429(16)
H17 H 0.7054(4) 0.4387(16) 0.1022(5)
H18 H 0.6516(18) 0.4129(9) 0.1540(13)
N4 N 0.7745(3) 0.3695(2) 0.2604(3)
C7 C 0.8324(5) 0.4034(3) 0.2476(5)
H19 H 0.8256(23) 0.4175(19) 0.2027(17)
H20 H 0.8796(6) 0.3875(6) 0.2493(37)
H21 H 0.8309(26) 0.4282(14) 0.2822(23)
C8 C 0.7653(4) 0.3334(2) 0.2076(3)
H22 H 0.7529(24) 0.3486(3) 0.1645(6)
H23 H 0.7261(17) 0.3119(9) 0.2208(11)
H24 H 0.8107(9) 0.3157(10) 0.2024(16)
N5 N 0.7343(3) 0.4161(2) 0.3716(3)
C9 C 0.7928(5) 0.4287(3) 0.4205(4)
H25 H 0.7710(5) 0.4404(22) 0.4626(13)
H26 H 0.8237(22) 0.4533(17) 0.4007(14)
H27 H 0.8224(23) 0.4009(6) 0.4303(26)
C10 C 0.6885(5) 0.4546(2) 0.3473(4)
H28 H 0.6647(26) 0.4698(14) 0.3859(5)
H29 H 0.6515(21) 0.4422(4) 0.3164(24)
H30 H 0.7187(7) 0.4776(11) 0.3233(27)
N6 N 0.7747(3) 0.3279(2) 0.3807(3)
C11 C 0.8463(4) 0.3089(4) 0.3681(5)
H31 H 0.8454(10) 0.2748(5) 0.3746(34)
H32 H 0.8812(8) 0.3231(18) 0.3996(24)
H33 H 0.8608(16) 0.3161(21) 0.3214(12)
C12 C 0.7401(4) 0.3117(3) 0.4432(3)
H34 H 0.7654(17) 0.3253(14) 0.4823(3)
H35 H 0.7428(24) 0.2773(3) 0.4455(12)
H36 H 0.6891(8) 0.3216(15) 0.4437(12)
C13 C 0.6357(3) 0.2175(2) 0.2063(3)
C14 C 0.6300(3) 0.1950(2) 0.1421(3)
C15 C 0.6623(3) 0.1512(2) 0.1326(3)
H37 H 0.6597(3) 0.1372(2) 0.0890(3)
C16 C 0.6981(3) 0.1269(2) 0.1840(3)
C17 C 0.7016(3) 0.1485(2) 0.2471(3)
H38 H 0.7251(3) 0.1326(2) 0.2834(3)
C18 C 0.6717(3) 0.1930(2) 0.2590(3)
C19 C 0.4530(3) 0.2182(2) 0.1200(3)
C20 C 0.5086(3) 0.1966(2) 0.0818(3)
C21 C 0.4949(3) 0.1558(2) 0.0458(3)
H39 H 0.5333(3) 0.1426(2) 0.0198(3)
C22 C 0.4276(3) 0.1332(2) 0.0458(3)
C23 C 0.3737(3) 0.1536(2) 0.0864(3)
H40 H 0.3276(3) 0.1386(2) 0.0892(3)
C24 C 0.3848(3) 0.1951(2) 0.1230(3)
C25 C 0.7332(4) 0.0789(2) 0.1685(3)
C26 C 0.6769(4) 0.0451(2) 0.1385(4)
H41 H 0.6395(16) 0.0383(14) 0.1724(10)
H42 H 0.7010(7) 0.0157(7) 0.1252(25)
H43 H 0.6543(21) 0.0595(8) 0.0986(16)
C27 C 0.7664(5) 0.0566(3) 0.2318(4)
H44 H 0.7286(8) 0.0526(19) 0.2664(12)
H45 H 0.8050(22) 0.0769(11) 0.2494(17)
H46 H 0.7868(30) 0.0258(10) 0.2201(7)
C28 C 0.7947(4) 0.0859(2) 0.1160(4)
H47 H 0.7745(6) 0.0997(15) 0.0746(9)
H48 H 0.8168(17) 0.0554(3) 0.1054(18)
H49 H 0.8317(13) 0.1070(13) 0.1348(10)
C29 C 0.4116(4) 0.0897(2) 0.0015(3)
C30 C 0.3430(12) 0.0640(7) 0.0285(15)
H50 H 0.3003(15) 0.0842(18) 0.0224(55)
H51 H 0.3493(28) 0.0570(35) 0.0768(20)
H52 H 0.3361(37) 0.0346(21) 0.0033(41)
C31 C 0.4751(11) 0.0550(6) 0.0074(10)
H53 H 0.5193(16) 0.0694(16) -0.0111(51)
H54 H 0.4637(26) 0.0264(17) -0.0181(47)
H55 H 0.4830(41) 0.0471(30) 0.0552(11)
C35 C 0.3510(8) 0.1032(2) -0.0515(8)
H65 H 0.3704(5) 0.1265(5) -0.0834(3)
H66 H 0.3090(4) 0.1166(9) -0.0276(7)
H67 H 0.3358(16) 0.0751(2) -0.0763(16)
C36 C 0.5862(3) 0.2159(2) 0.0839(3)
H68 H 0.6109(3) 0.2088(3) 0.0405(3)
H69 H 0.5845(3) 0.2506(2) 0.0891(3)
C37 C 0.6756(3) 0.2131(2) 0.3309(3)
H70 H 0.7232(3) 0.2048(2) 0.3510(3)
H71 H 0.6727(3) 0.2479(2) 0.3285(3)
O5 O 0.5000 0.3258(2) 0.2500
H83 H 0.5000 0.3612 0.2500
Li3 Li 0.5000 0.2469(5) 0.2500
O4C O 0.5351(2) 0.25858(12) 0.3468(2)
Li1C Li 0.4542(5) 0.3019(3) 0.3344(5)
O1C O 0.4113(2) 0.34666(13) 0.3930(2)
P1C P 0.41524(9) 0.37555(6) 0.45473(8)
N1C N 0.3599(3) 0.3542(2) 0.5119(2)
C1C C 0.3576(5) 0.3707(4) 0.5821(4)
H1C H 0.3685(35) 0.3445(7) 0.6127(4)
H2C H 0.3091(12) 0.3831(21) 0.5922(11)
H3C H 0.3939(25) 0.3956(17) 0.5884(9)
C2C C 0.3116(4) 0.3153(2) 0.4977(4)
H4C H 0.2620(6) 0.3236(7) 0.5115(22)
H5C H 0.3277(16) 0.2875(5) 0.5230(19)
H6C H 0.3123(20) 0.3084(11) 0.4490(5)
N2C N 0.4944(3) 0.3801(2) 0.4937(2)
C3C C 0.5214(4) 0.3355(3) 0.5230(4)
H7C H 0.5604(19) 0.3423(3) 0.5555(19)
H8C H 0.5403(25) 0.3154(8) 0.4868(5)
H9C H 0.4815(8) 0.3194(9) 0.5464(22)
C4C C 0.5529(4) 0.4054(3) 0.4590(4)
H10C H 0.5914(12) 0.4129(14) 0.4916(6)
H11C H 0.5336(7) 0.4345(8) 0.4396(20)
H12C H 0.5727(17) 0.3856(7) 0.4228(15)
N3C N 0.3965(3) 0.4308(2) 0.4343(3)
C5C C 0.3931(5) 0.4675(3) 0.4864(5)
H13C H 0.3990(35) 0.4984(3) 0.4652(6)
H14C H 0.4321(22) 0.4625(13) 0.5195(19)
H15C H 0.3459(15) 0.4661(15) 0.5094(22)
C6C C 0.3441(4) 0.4383(2) 0.3792(4)
H16C H 0.3541(17) 0.4685(8) 0.3571(16)
H17C H 0.2946(4) 0.4387(16) 0.3978(5)
H18C H 0.3484(18) 0.4129(9) 0.3460(13)
O3C O 0.3938(2) 0.25969(12) 0.2830(2)
Li2C Li 0.4092(5) 0.3023(3) 0.2075(5)
O2C O 0.3453(2) 0.35029(13) 0.1779(2)
P2C P 0.26914(9) 0.36504(6) 0.16805(8)
N4C N 0.2255(3) 0.3695(2) 0.2396(3)
C7C C 0.1676(5) 0.4034(3) 0.2524(5)
H19C H 0.1744(23) 0.4175(19) 0.2973(17)
H20C H 0.1204(6) 0.3875(6) 0.2507(37)
H21C H 0.1691(26) 0.4282(14) 0.2178(23)
C8C C 0.2347(4) 0.3334(2) 0.2924(3)
H22C H 0.2471(24) 0.3486(3) 0.3355(6)
H23C H 0.2739(17) 0.3119(9) 0.2792(11)
H24C H 0.1893(9) 0.3157(10) 0.2976(16)
N5C N 0.2657(3) 0.4161(2) 0.1284(3)
C9C C 0.2072(5) 0.4287(3) 0.0795(4)
H25C H 0.2290(5) 0.4404(22) 0.0374(13)
H26C H 0.1763(22) 0.4533(17) 0.0993(14)
H27C H 0.1776(23) 0.4009(6) 0.0697(26)
C10C C 0.3115(5) 0.4546(2) 0.1527(4)
H28C H 0.3353(26) 0.4698(14) 0.1141(5)
H29C H 0.3485(21) 0.4422(4) 0.1836(24)
H30C H 0.2813(7) 0.4776(11) 0.1767(27)
N6C N 0.2253(3) 0.3279(2) 0.1193(3)
C11C C 0.1537(4) 0.3089(4) 0.1319(5)
H31C H 0.1546(10) 0.2748(5) 0.1254(34)
H32C H 0.1188(8) 0.3231(18) 0.1004(24)
H33C H 0.1392(16) 0.3161(21) 0.1786(12)
C12C C 0.2599(4) 0.3117(3) 0.0568(3)
H34C H 0.2346(17) 0.3253(14) 0.0177(3)
H35C H 0.2572(24) 0.2773(3) 0.0545(12)
H36C H 0.3109(8) 0.3216(15) 0.0563(12)
C37C C 0.3244(3) 0.2131(2) 0.1691(3)
C18C C 0.3283(3) 0.1930(2) 0.2410(3)
C13C C 0.3643(3) 0.2175(2) 0.2937(3)
C24C C 0.6152(3) 0.1951(2) 0.3770(3)
C19C C 0.5470(3) 0.2182(2) 0.3800(3)
C20C C 0.4914(3) 0.1966(2) 0.4182(3)
C21C C 0.5051(3) 0.1558(2) 0.4542(3)
H39C H 0.4667(3) 0.1426(2) 0.4802(3)
C22C C 0.5724(3) 0.1332(2) 0.4542(3)
C23C C 0.6263(3) 0.1536(2) 0.4136(3)
H40C H 0.6724(3) 0.1386(2) 0.4108(3)
C29C C 0.5884(4) 0.0897(2) 0.4985(3)
C30C C 0.6570(12) 0.0640(7) 0.4715(15)
H50C H 0.6997(15) 0.0842(18) 0.4776(55)
H51C H 0.6507(28) 0.0570(35) 0.4232(20)
H52C H 0.6639(37) 0.0346(21) 0.4967(41)
C31C C 0.5249(11) 0.0550(6) 0.4926(10)
H53C H 0.4807(16) 0.0694(16) 0.5111(51)
H54C H 0.5363(26) 0.0264(17) 0.5181(47)
H55C H 0.5170(41) 0.0471(30) 0.4448(11)
C35C C 0.6490(8) 0.1032(2) 0.5515(8)
H65C H 0.6296(5) 0.1265(5) 0.5834(3)
H66C H 0.6910(4) 0.1166(9) 0.5276(7)
H67C H 0.6642(16) 0.0751(2) 0.5763(16)
C36C C 0.4138(3) 0.2159(2) 0.4161(3)
C14C C 0.3700(3) 0.1950(2) 0.3579(3)
C15C C 0.3377(3) 0.1512(2) 0.3674(3)
H37C H 0.3403(3) 0.1372(2) 0.4110(3)
C16C C 0.3019(3) 0.1269(2) 0.3160(3)
C17C C 0.2984(3) 0.1485(2) 0.2529(3)
H38C H 0.2749(3) 0.1326(2) 0.2166(3)
C25C C 0.2668(4) 0.0789(2) 0.3315(3)
C26C C 0.3231(4) 0.0451(2) 0.3615(4)
H41C H 0.3605(16) 0.0383(14) 0.3276(10)
H42C H 0.2990(7) 0.0157(7) 0.3748(25)
H43C H 0.3457(21) 0.0595(8) 0.4014(16)
C27C C 0.2336(5) 0.0566(3) 0.2682(4)
H44C H 0.2714(8) 0.0526(19) 0.2336(12)
H45C H 0.1950(22) 0.0769(11) 0.2506(17)
H46C H 0.2132(30) 0.0258(10) 0.2799(7)
C28C C 0.2053(4) 0.0859(2) 0.3840(4)
H47C H 0.2255(6) 0.0997(15) 0.4254(9)
H48C H 0.1832(17) 0.0554(3) 0.3946(18)
H49C H 0.1683(13) 0.1070(13) 0.3652(10)
H68C H 0.3891(3) 0.2088(3) 0.4595(3)
H69C H 0.4155(3) 0.2506(2) 0.4109(3)
H70C H 0.2768(3) 0.2048(2) 0.1490(3)
H71C H 0.3273(3) 0.2479(2) 0.1715(3)
C38 C 0.5983(5) 0.2752(3) -0.3098(4)
C39 C 0.5439(5) 0.2489(3) -0.3364(4)
H72 H 0.4999(5) 0.2445(3) -0.3120(4)
C40 C 0.5529(4) 0.2285(3) -0.3987(4)
H73 H 0.5146(4) 0.2104(3) -0.4179(4)
C41 C 0.6164(4) 0.2339(2) -0.4336(3)
H74 H 0.6222(4) 0.2196(2) -0.4767(3)
C42 C 0.6710(4) 0.2598(2) -0.4065(4)
H75 H 0.7152(4) 0.2634(2) -0.4310(4)
C43 C 0.6638(5) 0.2808(3) -0.3446(4)
H76 H 0.7024(5) 0.2987(3) -0.3258(4)
C44 C 0.6068(18) 0.3020(11) -0.2481(18)
C50 C 0.5000 0.4997(5) 0.2500
C51 C 0.4949(6) 0.5215(3) 0.3110(4)
H84 H 0.4921(6) 0.5042(3) 0.3522(4)
C52 C 0.4939(7) 0.5688(4) 0.3101(5)
H85 H 0.4891(7) 0.5862(4) 0.3509(5)
C53 C 0.5000 0.5907(6) 0.2500
H86 H 0.5000 0.6241(6) 0.2500
C54 C 0.5000 0.4469(5) 0.2500
H89 H 0.4586 0.4354(5) 0.2234
C52C C 0.5061(7) 0.5688(4) 0.1899(5)
C51C C 0.5051(6) 0.5215(3) 0.1890(4)
H89C H 0.5414 0.4354(5) 0.2766
H84C H 0.5079(6) 0.5042(3) 0.1478(4)
H85C H 0.5109(7) 0.5862(4) 0.1491(5)
O6 O 0.5000 0.1684(18) 0.2500
C32? C 0.4035(13) 0.1049(6) -0.0716(8)
H56? H 0.4500(20) 0.1173(39) -0.0881(20)
H57? H 0.3662(47) 0.1294(31) -0.0748(12)
H58? H 0.3890(66) 0.0779(11) -0.0993(13)
C33? C 0.3826(17) 0.0487(8) 0.0394(16)
H59? H 0.3349(46) 0.0567(23) 0.0586(77)
H60? H 0.4161(50) 0.0405(38) 0.0762(55)
H61? H 0.3775(90) 0.0219(20) 0.0086(24)
C34? C 0.4795(12) 0.0729(7) -0.0371(12)
H62? H 0.5185(26) 0.0660(48) -0.0048(12)
H63? H 0.4955(49) 0.0975(21) -0.0685(52)
H64? H 0.4677(23) 0.0443(30) -0.0627(60)
C45? C 0.5000 0.0729(4) 0.2500
C46? C 0.4673(5) 0.0476(3) 0.2009(4)
H77? H 0.4435(5) 0.0638(3) 0.1651(4)
C47? C 0.4672(5) -0.0015(4) 0.2008(5)
H78? H 0.4434(5) -0.0179(4) 0.1652(5)
C48? C 0.5000 -0.0254(4) 0.2500
H79? H 0.5000 -0.0588(4) 0.2500
C49? C 0.5000 0.1256(3) 0.2500
H80? H 0.527(17) 0.1370(3) 0.211(10)
H81? H 0.523(18) 0.1370(3) 0.2915(86)
H82? H 0.4498(9) 0.1370(3) 0.248(19)
H87? H 0.4960 0.4354(5) 0.2967
H88? H 0.5454 0.4354(5) 0.2299
loop_
_geom_bond_atom_site_label_1
_geom_bond_atom_site_label_2
_geom_bond_site_symmetry_1
_geom_bond_site_symmetry_2
P1 O1 1_555 1_555
P2 O2 1_555 1_555
O1 Li1 1_555 1_555
O2 Li2 1_555 1_555
O3 Li1 1_555 1_555
O4 Li1 1_555 1_555
Li1 O5 1_555 1_555
Li2 O3 1_555 1_555
N1 P1 1_555 1_555
C1 N1 1_555 1_555
H1 C1 1_555 1_555
H2 C1 1_555 1_555
H3 C1 1_555 1_555
C2 N1 1_555 1_555
H4 C2 1_555 1_555
H5 C2 1_555 1_555
H6 C2 1_555 1_555
N2 P1 1_555 1_555
C3 N2 1_555 1_555
H7 C3 1_555 1_555
H8 C3 1_555 1_555
H9 C3 1_555 1_555
C4 N2 1_555 1_555
H10 C4 1_555 1_555
H11 C4 1_555 1_555
H12 C4 1_555 1_555
N3 P1 1_555 1_555
C5 N3 1_555 1_555
H13 C5 1_555 1_555
H14 C5 1_555 1_555
H15 C5 1_555 1_555
C6 N3 1_555 1_555
H16 C6 1_555 1_555
H17 C6 1_555 1_555
H18 C6 1_555 1_555
N4 P2 1_555 1_555
C7 N4 1_555 1_555
H19 C7 1_555 1_555
H20 C7 1_555 1_555
H21 C7 1_555 1_555
C8 N4 1_555 1_555
H22 C8 1_555 1_555
H23 C8 1_555 1_555
H24 C8 1_555 1_555
N5 P2 1_555 1_555
C9 N5 1_555 1_555
H25 C9 1_555 1_555
H26 C9 1_555 1_555
H27 C9 1_555 1_555
C10 N5 1_555 1_555
H28 C10 1_555 1_555
H29 C10 1_555 1_555
H30 C10 1_555 1_555
N6 P2 1_555 1_555
C11 N6 1_555 1_555
H31 C11 1_555 1_555
H32 C11 1_555 1_555
H33 C11 1_555 1_555
C12 N6 1_555 1_555
H34 C12 1_555 1_555
H35 C12 1_555 1_555
H36 C12 1_555 1_555
C13 O3 1_555 1_555
C14 C13 1_555 1_555
C15 C14 1_555 1_555
H37 C15 1_555 1_555
C16 C15 1_555 1_555
C17 C16 1_555 1_555
H38 C17 1_555 1_555
C18 C13 1_555 1_555
C19 O4 1_555 1_555
C20 C19 1_555 1_555
C21 C20 1_555 1_555
H39 C21 1_555 1_555
C22 C21 1_555 1_555
C23 C22 1_555 1_555
H40 C23 1_555 1_555
C24 C19 1_555 1_555
C25 C16 1_555 1_555
C26 C25 1_555 1_555
H41 C26 1_555 1_555
H42 C26 1_555 1_555
H43 C26 1_555 1_555
C27 C25 1_555 1_555
H44 C27 1_555 1_555
H45 C27 1_555 1_555
H46 C27 1_555 1_555
C28 C25 1_555 1_555
H47 C28 1_555 1_555
H48 C28 1_555 1_555
H49 C28 1_555 1_555
C29 C22 1_555 1_555
C30 C29 1_555 1_555
H50 C30 1_555 1_555
H51 C30 1_555 1_555
H52 C30 1_555 1_555
C31 C29 1_555 1_555
H53 C31 1_555 1_555
H54 C31 1_555 1_555
H55 C31 1_555 1_555
C35 C29 1_555 1_555
H65 C35 1_555 1_555
H66 C35 1_555 1_555
H67 C35 1_555 1_555
C36 C14 1_555 1_555
H68 C36 1_555 1_555
H69 C36 1_555 1_555
C37 C18 1_555 1_555
H70 C37 1_555 1_555
H71 C37 1_555 1_555
C38 C39 1_555 1_555
C39 H72 1_555 1_555
C40 C39 1_555 1_555
H73 C40 1_555 1_555
C41 C40 1_555 1_555
H74 C41 1_555 1_555
C42 C41 1_555 1_555
H75 C42 1_555 1_555
C43 C38 1_555 1_555
H76 C43 1_555 1_555
C44 C38 1_555 1_555
O5 Li2 1_555 1_555
H83 O5 1_555 1_555
Li3 O3 1_555 1_555
C50 C51 1_555 1_555
C51 H84 1_555 1_555
C52 C51 1_555 1_555
H85 C52 1_555 1_555
C53 C52 1_555 1_555
H86 C53 1_555 1_555
C54 C50 1_555 1_555
H89 C54 1_555 1_555
O4C Li2 1_555 1_555
Li1C O5 1_555 1_555
O1C Li1C 1_555 1_555
P1C O1C 1_555 1_555
N1C P1C 1_555 1_555
C1C N1C 1_555 1_555
H1C C1C 1_555 1_555
H2C C1C 1_555 1_555
H3C C1C 1_555 1_555
C2C N1C 1_555 1_555
H4C C2C 1_555 1_555
H5C C2C 1_555 1_555
H6C C2C 1_555 1_555
N2C P1C 1_555 1_555
C3C N2C 1_555 1_555
H7C C3C 1_555 1_555
H8C C3C 1_555 1_555
H9C C3C 1_555 1_555
C4C N2C 1_555 1_555
H10C C4C 1_555 1_555
H11C C4C 1_555 1_555
H12C C4C 1_555 1_555
N3C P1C 1_555 1_555
C5C N3C 1_555 1_555
H13C C5C 1_555 1_555
H14C C5C 1_555 1_555
H15C C5C 1_555 1_555
C6C N3C 1_555 1_555
H16C C6C 1_555 1_555
H17C C6C 1_555 1_555
H18C C6C 1_555 1_555
O3C Li3 1_555 1_555
Li2C O4 1_555 1_555
O2C Li2C 1_555 1_555
P2C O2C 1_555 1_555
N4C P2C 1_555 1_555
C7C N4C 1_555 1_555
H19C C7C 1_555 1_555
H20C C7C 1_555 1_555
H21C C7C 1_555 1_555
C8C N4C 1_555 1_555
H22C C8C 1_555 1_555
H23C C8C 1_555 1_555
H24C C8C 1_555 1_555
N5C P2C 1_555 1_555
C9C N5C 1_555 1_555
H25C C9C 1_555 1_555
H26C C9C 1_555 1_555
H27C C9C 1_555 1_555
C10C N5C 1_555 1_555
H28C C10C 1_555 1_555
H29C C10C 1_555 1_555
H30C C10C 1_555 1_555
N6C P2C 1_555 1_555
C11C N6C 1_555 1_555
H31C C11C 1_555 1_555
H32C C11C 1_555 1_555
H33C C11C 1_555 1_555
C12C N6C 1_555 1_555
H34C C12C 1_555 1_555
H35C C12C 1_555 1_555
H36C C12C 1_555 1_555
C37C C24 1_555 1_555
C18C C37C 1_555 1_555
C13C O3C 1_555 1_555
C24C C37 1_555 1_555
C19C O4C 1_555 1_555
C20C C19C 1_555 1_555
C21C C20C 1_555 1_555
H39C C21C 1_555 1_555
C22C C21C 1_555 1_555
C23C C24C 1_555 1_555
H40C C23C 1_555 1_555
C29C C22C 1_555 1_555
C30C C29C 1_555 1_555
H50C C30C 1_555 1_555
H51C C30C 1_555 1_555
H52C C30C 1_555 1_555
C31C C29C 1_555 1_555
H53C C31C 1_555 1_555
H54C C31C 1_555 1_555
H55C C31C 1_555 1_555
C35C C29C 1_555 1_555
H65C C35C 1_555 1_555
H66C C35C 1_555 1_555
H67C C35C 1_555 1_555
C36C C20C 1_555 1_555
C14C C13C 1_555 1_555
C15C C14C 1_555 1_555
H37C C15C 1_555 1_555
C16C C15C 1_555 1_555
C17C C18C 1_555 1_555
H38C C17C 1_555 1_555
C25C C16C 1_555 1_555
C26C C25C 1_555 1_555
H41C C26C 1_555 1_555
H42C C26C 1_555 1_555
H43C C26C 1_555 1_555
C27C C25C 1_555 1_555
H44C C27C 1_555 1_555
H45C C27C 1_555 1_555
H46C C27C 1_555 1_555
C28C C25C 1_555 1_555
H47C C28C 1_555 1_555
H48C C28C 1_555 1_555
H49C C28C 1_555 1_555
H68C C36C 1_555 1_555
H69C C36C 1_555 1_555
H70C C37C 1_555 1_555
H71C C37C 1_555 1_555
C52C C53 1_555 1_555
C51C C50 1_555 1_555
H89C C54 1_555 1_555
H84C C51C 1_555 1_555
H85C C52C 1_555 1_555
O4 Li3 1_555 1_555
C17 C18 1_555 1_555
C20 C36 1_555 1_555
C23 C24 1_555 1_555
C42 C43 1_555 1_555
O5 Li2C 1_555 1_555
Li3 O4C 1_555 1_555
O4C Li1C 1_555 1_555
Li1C O3C 1_555 1_555
O3C Li2C 1_555 1_555
C18C C13C 1_555 1_555
C24C C19C 1_555 1_555
C22C C23C 1_555 1_555
C36C C14C 1_555 1_555
C16C C17C 1_555 1_555
C52C C51C 1_555 1_555

#END
