
#######################################################################
#
#                 Cambridge Crystallographic Data Centre
#                                CCDC 
#
#######################################################################
#
# If this CIF has been generated from an entry in the Cambridge 
# Structural Database, then it will include bibliographic, chemical, 
# crystal, experimental, refinement or atomic coordinate data resulting 
# from the CCDC's data processing and validation procedures.
#
#######################################################################

data_RILNOS
_chemical_formula_moiety         'C22 H19 Cl1 O6'
_chemical_name_systematic        
'dimethyl 2-chloro-10-oxo-8-phenyl-5,7,8,9-tetrahydro-6H-5,9-(epoxymethano)benzo[7]annulene-6,6-dicarboxylate'
_symmetry_cell_setting           monoclinic
_symmetry_space_group_name_H-M   'P 21/c'
_symmetry_Int_Tables_number      14
_space_group_name_Hall           '-P 2ybc'
loop_
_symmetry_equiv_pos_site_id
_symmetry_equiv_pos_as_xyz
1 x,y,z
2 -x,1/2+y,1/2-z
3 -x,-y,-z
4 x,1/2-y,1/2+z
_cell_length_a                   11.7922(5)
_cell_length_b                   34.8462(13)
_cell_length_c                   10.0659(5)
_cell_angle_alpha                90
_cell_angle_beta                 110.251(5)
_cell_angle_gamma                90
_cell_volume                     3880.53
_exptl_crystal_colour            colorless
_exptl_crystal_description       block
_chemical_melting_point          '179-182 deg.C'
_cell_formula_units_Z            8
loop_
_atom_site_label
_atom_site_type_symbol
_atom_site_fract_x
_atom_site_fract_y
_atom_site_fract_z
Cl1 Cl 0.34325(9) 0.52495(3) 0.61107(11)
O1 O 0.4764(2) 0.34352(7) 0.5734(3)
O2 O 0.5748(2) 0.35649(8) 0.4282(3)
O3 O 0.0762(2) 0.30555(8) 0.5096(3)
O4 O 0.3407(3) 0.27179(8) 0.5957(3)
O5 O 0.2912(3) 0.28231(8) 0.3631(3)
O6 O 0.1837(3) 0.33702(9) 0.7095(3)
C1 C 0.3720(3) 0.41621(10) 0.5060(4)
C2 C 0.3602(3) 0.39585(11) 0.6199(4)
C3 C 0.3916(3) 0.39221(10) 0.3910(4)
H1 H 0.420174 0.408837 0.330630
C4 C 0.3679(3) 0.45586(10) 0.5040(4)
H2 H 0.377715 0.469458 0.429170
C5 C 0.1994(3) 0.39634(10) 0.1759(4)
C6 C 0.3490(3) 0.47500(11) 0.6151(4)
C7 C 0.2746(3) 0.37079(10) 0.2964(4)
H3 H 0.300469 0.348621 0.254098
C8 C 0.3725(3) 0.35298(11) 0.6153(4)
H4 H 0.388103 0.342944 0.710901
C9 C 0.4886(3) 0.36306(10) 0.4622(4)
C10 C 0.1954(3) 0.35554(10) 0.3786(4)
H5 H 0.155654 0.377257 0.403972
H6 H 0.132800 0.339447 0.315124
C11 C 0.2984(3) 0.29270(11) 0.4784(4)
C12 C 0.1958(3) 0.38949(11) 0.0385(4)
H7 H 0.242147 0.369735 0.021734
C13 C 0.3429(3) 0.41551(11) 0.7318(4)
H8 H 0.335552 0.402005 0.808094
C14 C 0.2599(3) 0.33245(10) 0.5138(4)
C15 C 0.0593(3) 0.44871(11) 0.0862(4)
H9 H 0.014219 0.468867 0.102746
C16 C 0.1708(3) 0.32579(11) 0.5920(4)
C17 C 0.3367(3) 0.45520(12) 0.7294(4)
H10 H 0.324329 0.468490 0.803350
C18 C 0.1310(3) 0.42668(10) 0.1989(4)
H11 H 0.133603 0.432161 0.290297
C19 C 0.0543(3) 0.44091(12) -0.0509(4)
H12 H 0.004373 0.455240 -0.126521
C20 C 0.1246(3) 0.41151(12) -0.0738(4)
H13 H 0.123834 0.406574 -0.164910
C21 C 0.3847(4) 0.23370(12) 0.5817(6)
H14 H 0.336181 0.222902 0.492290
H15 H 0.379637 0.217692 0.657047
H16 H 0.467228 0.235278 0.586351
C22 C -0.0140(4) 0.29518(14) 0.5710(6)
H17 H -0.085074 0.285847 0.498060
H18 H -0.034365 0.317326 0.614921
H19 H 0.017671 0.275504 0.640823
Cl2 Cl 0.64764(9) -0.01669(3) 0.37900(11)
O7 O 0.5612(2) 0.16536(7) 0.4533(3)
O8 O 0.7049(3) 0.23558(7) 0.4445(3)
O9 O 0.4579(2) 0.15209(8) 0.5931(3)
O10 O 0.9685(2) 0.19748(8) 0.5269(3)
O11 O 0.8564(3) 0.16971(9) 0.3220(3)
O12 O 0.7544(3) 0.22248(8) 0.6763(3)
C23 C 0.6708(3) 0.11219(11) 0.4003(4)
C24 C 0.7570(3) 0.13364(10) 0.7268(3)
H20 H 0.734331 0.155717 0.772495
C25 C 0.5444(3) 0.14502(10) 0.5607(4)
C26 C 0.6536(3) 0.09120(10) 0.5100(3)
C27 C 0.6649(3) 0.15508(11) 0.4112(4)
H21 H 0.651636 0.166022 0.317354
C28 C 0.8290(3) 0.10647(10) 0.8429(4)
C29 C 0.6601(3) 0.03314(11) 0.3880(4)
C30 C 0.6471(3) 0.05161(10) 0.5042(4)
H22 H 0.634247 0.037642 0.576426
C31 C 0.6371(3) 0.11450(10) 0.6279(4)
H23 H 0.605641 0.097735 0.685236
C32 C 0.8900(3) 0.07489(10) 0.8156(4)
H24 H 0.883496 0.069340 0.722923
C33 C 0.8379(3) 0.11333(11) 0.9828(4)
H25 H 0.796261 0.133895 1.003030
C34 C 0.7793(3) 0.17368(10) 0.5172(4)
C35 C 0.6818(3) 0.05347(12) 0.2804(4)
H26 H 0.693391 0.040553 0.205210
C36 C 0.8392(3) 0.14858(10) 0.6481(4)
H27 H 0.904168 0.163239 0.714527
H28 H 0.875506 0.126625 0.619006
C37 C 0.9602(3) 0.05162(11) 0.9248(4)
H29 H 1.000559 0.030699 0.904842
C38 C 0.6860(3) 0.09308(12) 0.2863(4)
H30 H 0.698935 0.106975 0.213952
C39 C 0.8701(3) 0.17974(10) 0.4406(4)
C40 C 0.7455(3) 0.21331(11) 0.5585(4)
C41 C 0.9075(3) 0.09003(12) 1.0919(4)
H31 H 0.912171 0.094959 1.184422
C42 C 0.9705(3) 0.05932(12) 1.0634(4)
H32 H 1.019212 0.044050 1.136788
C43 C 0.6627(4) 0.27337(11) 0.4645(6)
H33 H 0.653024 0.288801 0.382351
H34 H 0.720542 0.285200 0.546085
H35 H 0.586439 0.271173 0.478540
C44 C 1.0629(4) 0.20607(14) 0.4699(6)
H36 H 1.035370 0.225697 0.399002
H37 H 1.082137 0.183332 0.428180
H38 H 1.133600 0.214869 0.544636
loop_
_geom_bond_atom_site_label_1
_geom_bond_atom_site_label_2
_geom_bond_site_symmetry_1
_geom_bond_site_symmetry_2
Cl1 C6 1_555 1_555
O1 C8 1_555 1_555
O2 C9 1_555 1_555
O3 C16 1_555 1_555
O4 C11 1_555 1_555
O5 C11 1_555 1_555
O6 C16 1_555 1_555
C1 C2 1_555 1_555
C2 C8 1_555 1_555
C3 C1 1_555 1_555
H1 C3 1_555 1_555
C4 C1 1_555 1_555
H2 C4 1_555 1_555
C5 C7 1_555 1_555
C6 C4 1_555 1_555
C7 C3 1_555 1_555
H3 C7 1_555 1_555
C8 H4 1_555 1_555
C9 O1 1_555 1_555
C10 C7 1_555 1_555
H5 C10 1_555 1_555
H6 C10 1_555 1_555
C11 C14 1_555 1_555
C12 C5 1_555 1_555
H7 C12 1_555 1_555
C13 C2 1_555 1_555
H8 C13 1_555 1_555
C14 C8 1_555 1_555
C15 H9 1_555 1_555
C16 C14 1_555 1_555
C17 C6 1_555 1_555
H10 C17 1_555 1_555
C18 C5 1_555 1_555
H11 C18 1_555 1_555
C19 C15 1_555 1_555
H12 C19 1_555 1_555
C20 C12 1_555 1_555
H13 C20 1_555 1_555
C21 O4 1_555 1_555
H14 C21 1_555 1_555
H15 C21 1_555 1_555
H16 C21 1_555 1_555
C22 O3 1_555 1_555
H17 C22 1_555 1_555
H18 C22 1_555 1_555
H19 C22 1_555 1_555
Cl2 C29 1_555 1_555
O7 C25 1_555 1_555
O8 C40 1_555 1_555
O9 C25 1_555 1_555
O10 C39 1_555 1_555
O11 C39 1_555 1_555
O12 C40 1_555 1_555
C23 C26 1_555 1_555
C24 H20 1_555 1_555
C25 C31 1_555 1_555
C26 C30 1_555 1_555
C27 O7 1_555 1_555
H21 C27 1_555 1_555
C28 C24 1_555 1_555
C29 C30 1_555 1_555
C30 H22 1_555 1_555
C31 C24 1_555 1_555
H23 C31 1_555 1_555
C32 C28 1_555 1_555
H24 C32 1_555 1_555
C33 C28 1_555 1_555
H25 C33 1_555 1_555
C34 C27 1_555 1_555
C35 C29 1_555 1_555
H26 C35 1_555 1_555
C36 C24 1_555 1_555
H27 C36 1_555 1_555
H28 C36 1_555 1_555
C37 C32 1_555 1_555
H29 C37 1_555 1_555
C38 C23 1_555 1_555
H30 C38 1_555 1_555
C39 C34 1_555 1_555
C40 C34 1_555 1_555
C41 C33 1_555 1_555
H31 C41 1_555 1_555
C42 C37 1_555 1_555
H32 C42 1_555 1_555
C43 O8 1_555 1_555
H33 C43 1_555 1_555
H34 C43 1_555 1_555
H35 C43 1_555 1_555
C44 O10 1_555 1_555
H36 C44 1_555 1_555
H37 C44 1_555 1_555
H38 C44 1_555 1_555
C3 C9 1_555 1_555
C10 C14 1_555 1_555
C13 C17 1_555 1_555
C15 C18 1_555 1_555
C19 C20 1_555 1_555
C23 C27 1_555 1_555
C26 C31 1_555 1_555
C34 C36 1_555 1_555
C35 C38 1_555 1_555
C41 C42 1_555 1_555

#END
