
#######################################################################
#
#                 Cambridge Crystallographic Data Centre
#                                CCDC 
#
#######################################################################
#
# If this CIF has been generated from an entry in the Cambridge 
# Structural Database, then it will include bibliographic, chemical, 
# crystal, experimental, refinement or atomic coordinate data resulting 
# from the CCDC's data processing and validation procedures.
#
#######################################################################

data_RILNUY
_chemical_formula_moiety         'C18 H18 O6'
_chemical_name_systematic        
'dimethyl 12-oxo-5,7,10,11-tetrahydro-6H-5,11-(epoxymethano)benzo[9]annulene-6,6-dicarboxylate'
_symmetry_cell_setting           monoclinic
_symmetry_space_group_name_H-M   'I 2/a'
_symmetry_Int_Tables_number      15
_space_group_name_Hall           '-I 2ya'
loop_
_symmetry_equiv_pos_site_id
_symmetry_equiv_pos_as_xyz
1 x,y,z
2 1/2-x,y,-z
3 1/2+x,1/2+y,1/2+z
4 -x,1/2+y,1/2-z
5 -x,-y,-z
6 1/2+x,-y,z
7 1/2-x,1/2-y,1/2-z
8 x,1/2-y,1/2+z
_cell_length_a                   14.7230(19)
_cell_length_b                   11.9377(16)
_cell_length_c                   19.126(3)
_cell_angle_alpha                90
_cell_angle_beta                 109.906(15)
_cell_angle_gamma                90
_cell_volume                     3160.72
_exptl_crystal_colour            colorless
_exptl_crystal_description       block
_chemical_melting_point          '121-123 deg.C'
_cell_formula_units_Z            8
loop_
_atom_site_label
_atom_site_type_symbol
_atom_site_fract_x
_atom_site_fract_y
_atom_site_fract_z
O1 O 0.51036(16) 0.2466(2) 0.56233(13)
O2 O 0.24358(17) 0.2848(2) 0.59134(15)
O3 O 0.66343(18) 0.2297(2) 0.57611(17)
O4 O 0.3698(2) 0.0734(2) 0.55183(18)
O5 O 0.4913(2) 0.0373(3) 0.65820(18)
O6 O 0.2816(2) 0.1378(3) 0.6672(2)
C1 C 0.4566(3) 0.6564(3) 0.5940(2)
H1 H 0.461863 0.734017 0.595535
C2 C 0.4296(2) 0.2977(3) 0.57826(18)
H2 H 0.373307 0.287885 0.533020
C3 C 0.4417(2) 0.4228(3) 0.58995(19)
C4 C 0.5300(2) 0.4745(3) 0.59858(19)
C5 C 0.5358(2) 0.5908(3) 0.5995(2)
H3 H 0.594227 0.624991 0.603824
C6 C 0.3692(3) 0.6057(3) 0.5863(2)
H4 H 0.315576 0.649358 0.583146
C7 C 0.4106(2) 0.2198(3) 0.6389(2)
C8 C 0.3615(2) 0.4904(3) 0.5832(2)
H5 H 0.302027 0.457093 0.576453
C9 C 0.6011(2) 0.2887(3) 0.5831(2)
C10 C 0.3026(3) 0.2210(3) 0.6283(2)
C11 C 0.4308(2) 0.0998(4) 0.6188(2)
C12 C 0.6201(2) 0.4067(3) 0.6117(2)
H6 H 0.659872 0.443838 0.586625
C13 C 0.6794(3) 0.4010(4) 0.6969(2)
H7 H 0.730837 0.346174 0.706932
H8 H 0.707232 0.473437 0.715280
C14 C 0.5723(3) 0.2659(4) 0.7266(2)
H9 H 0.612239 0.205727 0.726303
C15 C 0.4691(3) 0.2440(4) 0.7210(2)
H10 H 0.442789 0.308743 0.738094
H11 H 0.466080 0.180225 0.751612
C16 C 0.6066(3) 0.3670(4) 0.7319(2)
H12 H 0.585366 0.420192 0.758396
C17 C 0.3768(4) -0.0388(4) 0.5256(3)
H13 H 0.331652 -0.047387 0.476022
H14 H 0.362402 -0.092215 0.557840
H15 H 0.441181 -0.051398 0.525402
C18 C 0.1797(3) 0.1272(5) 0.6581(4)
H16 H 0.142104 0.126307 0.606061
H17 H 0.160418 0.189580 0.681452
H18 H 0.169491 0.058779 0.680686
loop_
_geom_bond_atom_site_label_1
_geom_bond_atom_site_label_2
_geom_bond_site_symmetry_1
_geom_bond_site_symmetry_2
O1 C2 1_555 1_555
O2 C10 1_555 1_555
O3 C9 1_555 1_555
O4 C11 1_555 1_555
O5 C11 1_555 1_555
O6 C10 1_555 1_555
C1 H1 1_555 1_555
C2 H2 1_555 1_555
C3 C2 1_555 1_555
C4 C3 1_555 1_555
C5 C1 1_555 1_555
H3 C5 1_555 1_555
C6 C1 1_555 1_555
H4 C6 1_555 1_555
C7 C2 1_555 1_555
C8 C3 1_555 1_555
H5 C8 1_555 1_555
C9 O1 1_555 1_555
C10 C7 1_555 1_555
C11 C7 1_555 1_555
C12 C4 1_555 1_555
H6 C12 1_555 1_555
C13 C12 1_555 1_555
H7 C13 1_555 1_555
H8 C13 1_555 1_555
C14 H9 1_555 1_555
C15 C7 1_555 1_555
H10 C15 1_555 1_555
H11 C15 1_555 1_555
C16 C13 1_555 1_555
H12 C16 1_555 1_555
C17 O4 1_555 1_555
H13 C17 1_555 1_555
H14 C17 1_555 1_555
H15 C17 1_555 1_555
C18 O6 1_555 1_555
H16 C18 1_555 1_555
H17 C18 1_555 1_555
H18 C18 1_555 1_555
C4 C5 1_555 1_555
C6 C8 1_555 1_555
C9 C12 1_555 1_555
C14 C15 1_555 1_555
C14 C16 1_555 1_555

#END
