
#######################################################################
#
#                 Cambridge Crystallographic Data Centre
#                                CCDC 
#
#######################################################################
#
# If this CIF has been generated from an entry in the Cambridge 
# Structural Database, then it will include bibliographic, chemical, 
# crystal, experimental, refinement or atomic coordinate data resulting 
# from the CCDC's data processing and validation procedures.
#
#######################################################################

data_RILQAH
_chemical_formula_moiety         'C24 H24 O8'
_chemical_name_systematic        
'trimethyl 10-hydroxy-8-phenyl-7,8,9,10-tetrahydro-5,10-epoxybenzo[8]annulene-6,6,9(5H)-tricarboxylate'
_symmetry_cell_setting           triclinic
_symmetry_space_group_name_H-M   'P -1'
_symmetry_Int_Tables_number      2
_space_group_name_Hall           '-P 1'
loop_
_symmetry_equiv_pos_site_id
_symmetry_equiv_pos_as_xyz
1 x,y,z
2 -x,-y,-z
_cell_length_a                   7.6525(7)
_cell_length_b                   8.0385(8)
_cell_length_c                   18.065(2)
_cell_angle_alpha                81.008(9)
_cell_angle_beta                 81.067(9)
_cell_angle_gamma                76.851(8)
_cell_volume                     1060.51
_exptl_crystal_colour            colorless
_exptl_crystal_description       block
_chemical_melting_point          '232-234 deg.C'
_cell_formula_units_Z            2
loop_
_atom_site_label
_atom_site_type_symbol
_atom_site_fract_x
_atom_site_fract_y
_atom_site_fract_z
O1 O 0.39194(16) 0.50855(15) 0.33274(7)
O2 O 0.90926(17) 0.69318(16) 0.36411(7)
O3 O 0.74872(18) 0.59184(16) 0.46959(7)
O4 O 0.19139(17) 0.59035(17) 0.24407(7)
H1 H 0.112092 0.636956 0.274732
O5 O 0.61610(18) 0.26151(16) 0.43453(7)
O6 O 0.89475(17) 0.24631(15) 0.37118(7)
O7 O 0.6276(2) 0.73790(18) 0.11600(8)
O8 O 0.41730(19) 0.6272(2) 0.07793(8)
C1 C 0.7262(2) 0.3281(2) 0.39293(10)
C2 C 0.7987(2) 0.6115(2) 0.39515(10)
C3 C 0.4892(2) 0.5960(2) 0.37102(10)
H2 H 0.448111 0.584864 0.425376
C4 C 0.4413(2) 0.7807(2) 0.33652(10)
C5 C 0.4555(2) 0.9322(2) 0.36118(11)
H3 H 0.505294 0.929649 0.405248
C6 C 0.6807(2) 0.4178(2) 0.22861(10)
H4 H 0.648907 0.324762 0.266600
C7 C 0.7657(2) 0.5265(2) 0.27074(9)
H5 H 0.895959 0.486506 0.264718
H6 H 0.739316 0.645651 0.248097
C8 C 0.3601(2) 0.6041(2) 0.25961(10)
C9 C 0.6949(2) 0.5165(2) 0.35574(9)
C10 C 0.3695(2) 0.7850(2) 0.27010(10)
C11 C 0.5003(2) 0.5138(2) 0.19804(10)
H7 H 0.446598 0.425580 0.183806
C12 C 0.8142(2) 0.3290(2) 0.16816(10)
C13 C 0.5268(3) 0.6392(3) 0.12735(10)
C14 C 0.3065(3) 0.9396(2) 0.22738(11)
H8 H 0.257539 0.941864 0.183148
C15 C 0.3931(3) 1.0874(2) 0.31804(11)
H9 H 0.401438 1.190223 0.333378
C16 C 0.3181(3) 1.0910(2) 0.25208(12)
H10 H 0.275465 1.196141 0.224361
C17 C 0.8275(3) 0.6824(3) 0.51510(11)
H11 H 0.952791 0.676863 0.496259
H12 H 0.817076 0.629503 0.566614
H13 H 0.764590 0.800564 0.512522
C18 C 0.9400(3) 0.4092(3) 0.12089(11)
H14 H 0.944141 0.521889 0.125410
C19 C 0.8138(3) 0.1590(3) 0.16084(12)
H15 H 0.731070 0.103223 0.192464
C20 C 0.9316(3) 0.0625(2) 0.39522(14)
H16 H 0.858649 0.009153 0.371416
H17 H 0.903365 0.041636 0.449072
H18 H 1.057143 0.015010 0.381090
C21 C 0.9347(3) 0.0714(3) 0.10720(13)
H19 H 0.932891 -0.042064 0.103103
C22 C 1.0601(3) 0.3216(3) 0.06676(12)
H20 H 1.142866 0.376883 0.034877
C23 C 1.0575(3) 0.1538(4) 0.05997(13)
H21 H 1.138259 0.096164 0.023687
C24 C 0.4221(3) 0.7456(3) 0.00871(12)
H22 H 0.534335 0.712090 -0.022570
H23 H 0.411720 0.860058 0.020576
H24 H 0.323296 0.743153 -0.017721
loop_
_geom_bond_atom_site_label_1
_geom_bond_atom_site_label_2
_geom_bond_site_symmetry_1
_geom_bond_site_symmetry_2
O1 C3 1_555 1_555
O2 C2 1_555 1_555
O3 C2 1_555 1_555
O4 H1 1_555 1_555
O5 C1 1_555 1_555
O6 C1 1_555 1_555
O7 C13 1_555 1_555
O8 C13 1_555 1_555
C1 C9 1_555 1_555
C2 C9 1_555 1_555
C3 H2 1_555 1_555
C4 C3 1_555 1_555
C5 C4 1_555 1_555
H3 C5 1_555 1_555
C6 H4 1_555 1_555
C7 C6 1_555 1_555
H5 C7 1_555 1_555
H6 C7 1_555 1_555
C8 O1 1_555 1_555
C9 C3 1_555 1_555
C10 C4 1_555 1_555
C11 C6 1_555 1_555
H7 C11 1_555 1_555
C12 C6 1_555 1_555
C13 C11 1_555 1_555
C14 C10 1_555 1_555
H8 C14 1_555 1_555
C15 C5 1_555 1_555
H9 C15 1_555 1_555
C16 C14 1_555 1_555
H10 C16 1_555 1_555
C17 O3 1_555 1_555
H11 C17 1_555 1_555
H12 C17 1_555 1_555
H13 C17 1_555 1_555
C18 C12 1_555 1_555
H14 C18 1_555 1_555
C19 C12 1_555 1_555
H15 C19 1_555 1_555
C20 O6 1_555 1_555
H16 C20 1_555 1_555
H17 C20 1_555 1_555
H18 C20 1_555 1_555
C21 C19 1_555 1_555
H19 C21 1_555 1_555
C22 C18 1_555 1_555
H20 C22 1_555 1_555
C23 C21 1_555 1_555
H21 C23 1_555 1_555
C24 O8 1_555 1_555
H22 C24 1_555 1_555
H23 C24 1_555 1_555
H24 C24 1_555 1_555
O4 C8 1_555 1_555
C7 C9 1_555 1_555
C8 C10 1_555 1_555
C8 C11 1_555 1_555
C15 C16 1_555 1_555
C22 C23 1_555 1_555

#END
