
#######################################################################
#
#                 Cambridge Crystallographic Data Centre
#                                CCDC 
#
#######################################################################
#
# If this CIF has been generated from an entry in the Cambridge 
# Structural Database, then it will include bibliographic, chemical, 
# crystal, experimental, refinement or atomic coordinate data resulting 
# from the CCDC's data processing and validation procedures.
#
#######################################################################

data_RILSEM
_chemical_formula_moiety         'C12 H11 Cl1 N2'
_chemical_name_systematic        
4-Chloro-N-(1-(1H-pyrrol-2-yl)ethylidene)aniline
_symmetry_cell_setting           monoclinic
_symmetry_space_group_name_H-M   'P 21/c'
_symmetry_Int_Tables_number      14
_space_group_name_Hall           '-P 2ybc'
loop_
_symmetry_equiv_pos_site_id
_symmetry_equiv_pos_as_xyz
1 x,y,z
2 -x,1/2+y,1/2-z
3 -x,-y,-z
4 x,1/2-y,1/2+z
_cell_length_a                   13.323(3)
_cell_length_b                   9.802(2)
_cell_length_c                   9.107(2)
_cell_angle_alpha                90
_cell_angle_beta                 109.212(4)
_cell_angle_gamma                90
_cell_volume                     1123.07
_exptl_crystal_colour            colorless
_exptl_crystal_description       block
_chemical_melting_point          '406 K'
_cell_formula_units_Z            4
loop_
_atom_site_label
_atom_site_type_symbol
_atom_site_fract_x
_atom_site_fract_y
_atom_site_fract_z
Cl1 Cl 0.00330(5) 0.16504(11) 0.14277(11)
N1 N 0.65655(12) 0.04155(17) 0.16365(18)
H1 H 0.6113(13) 0.007(2) 0.0813(16)
N2 N 0.44650(12) 0.08102(17) 0.16294(18)
C1 C 0.76260(15) 0.0441(2) 0.1946(2)
H2 H 0.7987 0.0081 0.1318
C2 C 0.80796(17) 0.1080(2) 0.3330(3)
H3 H 0.8802 0.1235 0.3819
C3 C 0.72636(17) 0.1458(2) 0.3875(3)
H4 H 0.7343 0.1915 0.4802
C4 C 0.63166(15) 0.10419(19) 0.2812(2)
C5 C 0.52395(15) 0.12363(19) 0.2789(2)
C6 C 0.50966(19) 0.1964(3) 0.4156(3)
H5 H 0.5741 0.1903 0.5027
H6 H 0.4526 0.1548 0.4419
H7 H 0.4932 0.2905 0.3896
C7 C 0.34104(15) 0.1035(2) 0.1626(2)
C8 C 0.28700(18) 0.2205(2) 0.0996(3)
H8 H 0.3210 0.2877 0.0614
C9 C 0.18295(19) 0.2391(3) 0.0924(3)
H9 H 0.1470 0.3186 0.0497
C10 C 0.13327(17) 0.1407(3) 0.1481(3)
C11 C 0.18439(19) 0.0230(3) 0.2082(3)
H10 H 0.1495 -0.0443 0.2448
C12 C 0.28855(17) 0.0040(3) 0.2146(3)
H11 H 0.3234 -0.0768 0.2546
H12? H 0.4391 0.2335 0.3868
H13? H 0.5607 0.2689 0.4476
H14? H 0.5200 0.1332 0.4999
loop_
_geom_bond_atom_site_label_1
_geom_bond_atom_site_label_2
_geom_bond_site_symmetry_1
_geom_bond_site_symmetry_2
Cl1 C10 1_555 1_555
N1 H1 1_555 1_555
N2 C5 1_555 1_555
C1 N1 1_555 1_555
H2 C1 1_555 1_555
C2 C1 1_555 1_555
H3 C2 1_555 1_555
C3 C2 1_555 1_555
H4 C3 1_555 1_555
C4 N1 1_555 1_555
C5 C4 1_555 1_555
C6 C5 1_555 1_555
H5 C6 1_555 1_555
H6 C6 1_555 1_555
H7 C6 1_555 1_555
C7 N2 1_555 1_555
C8 C7 1_555 1_555
H8 C8 1_555 1_555
C9 C8 1_555 1_555
H9 C9 1_555 1_555
C10 C9 1_555 1_555
C11 C10 1_555 1_555
H10 C11 1_555 1_555
C12 C7 1_555 1_555
H11 C12 1_555 1_555
C3 C4 1_555 1_555
C11 C12 1_555 1_555

#END
