
#######################################################################
#
#                 Cambridge Crystallographic Data Centre
#                                CCDC 
#
#######################################################################
#
# If this CIF has been generated from an entry in the Cambridge 
# Structural Database, then it will include bibliographic, chemical, 
# crystal, experimental, refinement or atomic coordinate data resulting 
# from the CCDC's data processing and validation procedures.
#
#######################################################################

data_RILYIW
_chemical_compound_source        'Stagonosporopsis cucurbitacearum'
_chemical_name_common            'Didymellamide A'
_chemical_formula_moiety         'C24 H29 N1 O7'
_chemical_name_systematic        
3-((2,6-Dimethyl-1,2,4a,5,6,7,8,8a-octahydronaphthalen-1-yl)carbonyl)-1,4-dihydroxy-5-(2-hydroxy-5-oxo-7-oxabicyclo[4.1.0]hept-2-yl)pyridin-2(1H)-one
_symmetry_cell_setting           monoclinic
_symmetry_space_group_name_H-M   'P 21'
_symmetry_Int_Tables_number      4
_space_group_name_Hall           'P 2yb'
loop_
_symmetry_equiv_pos_site_id
_symmetry_equiv_pos_as_xyz
1 x,y,z
2 -x,1/2+y,-z
_cell_length_a                   7.5649(7)
_cell_length_b                   9.7850(11)
_cell_length_c                   29.716(3)
_cell_angle_alpha                90
_cell_angle_beta                 90.594(7)
_cell_angle_gamma                90
_cell_volume                     2199.54
_exptl_crystal_colour            colorless
_exptl_crystal_description       platelet
_cell_formula_units_Z            4
loop_
_atom_site_label
_atom_site_type_symbol
_atom_site_fract_x
_atom_site_fract_y
_atom_site_fract_z
O1 O 1.1434(3) 0.3253(3) 0.21472(5)
O2 O 1.2558(2) 0.4538(2) 0.28750(5)
O3 O 0.8255(2) 0.20969(19) 0.37272(5)
O4 O 1.0026(3) 0.38043(19) 0.41199(6)
O5 O 0.7128(3) -0.0006(2) 0.25161(6)
O6 O 0.6774(3) -0.0653(2) 0.36884(6)
O7 O 0.3907(3) -0.2415(3) 0.29365(6)
N1 N 1.0721(3) 0.2978(3) 0.25664(6)
C1 C 1.1346(3) 0.3714(3) 0.29349(8)
C2 C 1.0447(3) 0.3406(3) 0.33510(8)
C3 C 0.9085(3) 0.2423(3) 0.33553(7)
C4 C 0.8548(3) 0.1724(3) 0.29564(8)
C5 C 0.9412(3) 0.2046(3) 0.25741(8)
C6 C 1.0896(3) 0.4100(3) 0.37766(8)
C7 C 1.2394(3) 0.5112(3) 0.38318(7)
C8 C 1.1981(3) 0.6213(3) 0.41826(8)
C9 C 1.0280(3) 0.6995(3) 0.40706(8)
C10 C 0.9953(3) 0.8154(3) 0.44066(8)
C11 C 1.1502(4) 0.9129(3) 0.44518(8)
C12 C 1.3184(4) 0.8339(3) 0.45600(8)
C13 C 1.3511(3) 0.7228(3) 0.42099(8)
C14 C 1.5233(3) 0.6494(4) 0.42730(9)
C15 C 1.5488(3) 0.5198(3) 0.41520(9)
C16 C 1.4117(3) 0.4287(3) 0.39490(8)
C17 C 1.3851(4) 0.3049(3) 0.42576(10)
C18 C 1.1134(4) 1.0249(3) 0.47959(9)
C19 C 0.7142(3) 0.0592(3) 0.29546(8)
C20 C 0.7681(4) -0.0548(3) 0.32728(9)
C21 C 0.6361(4) -0.1657(4) 0.33464(8)
C22 C 0.4641(4) -0.1450(3) 0.31184(8)
C23 C 0.3905(4) -0.0027(3) 0.31305(8)
C24 C 0.5298(3) 0.1139(3) 0.30759(8)
H1 H 1.2541 0.3285 0.2169
H2 H 0.8676 0.2550 0.3943
H3 H 0.6150 0.0147 0.2390
H4 H 0.9083 0.1600 0.2302
H5 H 1.2572 0.5576 0.3536
H6 H 1.1848 0.5764 0.4483
H7 H 0.9267 0.6355 0.4074
H8 H 1.0363 0.7381 0.3764
H9 H 0.8894 0.8674 0.4309
H10 H 0.9703 0.7753 0.4705
H11 H 1.1665 0.9581 0.4153
H12 H 1.3085 0.7915 0.4861
H13 H 1.4201 0.8976 0.4568
H14 H 1.3564 0.7695 0.3911
H15 H 1.6194 0.6978 0.4406
H16 H 1.6634 0.4825 0.4199
H17 H 1.4599 0.3937 0.3659
H18 H 1.3093 0.2377 0.4105
H19 H 1.3291 0.3345 0.4537
H20 H 1.5000 0.2633 0.4328
H21 H 1.0937 0.9833 0.5091
H22 H 1.0079 1.0762 0.4703
H23 H 1.2149 1.0869 0.4814
H24 H 0.8955 -0.0821 0.3274
H25 H 0.6800 -0.2613 0.3389
H26 H 0.3295 0.0103 0.3420
H27 H 0.3008 0.0063 0.2888
H28 H 0.4890 0.1774 0.2837
H29 H 0.5385 0.1661 0.3361
O8 O 0.6087(3) 0.4586(3) 0.28579(5)
O9 O 0.4971(3) 0.3348(3) 0.21150(5)
O10 O 0.9460(3) 0.5731(3) 0.13077(5)
O11 O 0.7430(3) 0.4307(3) 0.08769(6)
O12 O 1.0590(3) 0.7780(3) 0.25274(6)
O13 O 1.2828(3) 0.7047(2) 0.14922(6)
O14 O 1.3962(3) 1.0108(3) 0.20814(6)
N2 N 0.6786(3) 0.4910(3) 0.24410(6)
C25 C 0.6194(3) 0.4175(3) 0.20653(8)
C26 C 0.7122(3) 0.4505(3) 0.16575(8)
C27 C 0.8538(3) 0.5449(3) 0.16693(8)
C28 C 0.9029(3) 0.6144(3) 0.20716(8)
C29 C 0.8106(3) 0.5837(3) 0.24464(8)
C30 C 0.6635(4) 0.3906(3) 0.12168(8)
C31 C 0.5318(4) 0.2758(4) 0.11567(8)
C32 C 0.4406(4) 0.2809(3) 0.06907(8)
C33 C 0.3460(4) 0.4165(4) 0.05957(10)
C34 C 0.2590(4) 0.4144(4) 0.01253(10)
C35 C 0.1330(4) 0.2939(4) 0.00619(9)
C36 C 0.2243(4) 0.1598(4) 0.01818(9)
C37 C 0.3075(4) 0.1627(4) 0.06530(9)
C38 C 0.3894(4) 0.0292(4) 0.07889(9)
C39 C 0.5326(4) 0.0183(4) 0.10472(9)
C40 C 0.6343(4) 0.1390(4) 0.12341(9)
C41 C 0.8197(4) 0.1373(4) 0.10371(11)
C42 C 0.0573(5) 0.2888(5) -0.04173(10)
C43 C 1.0438(4) 0.7278(3) 0.20793(8)
C44 C 1.2250(4) 0.6750(4) 0.19359(9)
C45 C 1.3623(4) 0.7803(4) 0.18640(9)
C46 C 1.3032(4) 0.9223(4) 0.19006(8)
C47 C 1.1252(4) 0.9576(4) 0.17206(12)
C48 C 0.9851(4) 0.8449(3) 0.17778(9)
H30 H 0.4981 0.4537 0.2836
H31 H 0.9048 0.5292 0.1088
H32 H 1.1533 0.7491 0.2645
H33 H 0.8397 0.6286 0.2721
H34 H 0.4394 0.2845 0.1393
H35 H 0.5328 0.2676 0.0456
H36 H 0.4321 0.4925 0.0614
H37 H 0.2545 0.4322 0.0826
H38 H 0.1929 0.5007 0.0078
H39 H 0.3525 0.4096 -0.0105
H40 H 0.0322 0.3065 0.0273
H41 H 0.3175 0.1410 -0.0041
H42 H 0.1370 0.0846 0.0165
H43 H 0.2104 0.1820 0.0870
H44 H 0.3353 -0.0526 0.0684
H45 H 0.5740 -0.0708 0.1119
H46 H 0.6466 0.1253 0.1566
H47 H 0.8945 0.2030 0.1199
H48 H 0.8135 0.1623 0.0718
H49 H 0.8702 0.0455 0.1068
H50 H 0.1543 0.2836 -0.0633
H51 H -0.0125 0.3714 -0.0476
H52 H -0.0185 0.2081 -0.0451
H53 H 1.2651 0.5864 0.2070
H54 H 1.4869 0.7583 0.1953
H55 H 1.1355 0.9789 0.1396
H56 H 1.0835 1.0414 0.1873
H57 H 0.8771 0.8862 0.1905
H58 H 0.9539 0.8078 0.1477
loop_
_geom_bond_atom_site_label_1
_geom_bond_atom_site_label_2
_geom_bond_site_symmetry_1
_geom_bond_site_symmetry_2
O1 N1 1_555 1_555
O2 C1 1_555 1_555
O3 C3 1_555 1_555
O4 C6 1_555 1_555
O5 C19 1_555 1_555
O6 C20 1_555 1_555
O7 C22 1_555 1_555
N1 C1 1_555 1_555
C1 C2 1_555 1_555
C2 C3 1_555 1_555
C3 C4 1_555 1_555
C4 C5 1_555 1_555
C5 N1 1_555 1_555
C6 C2 1_555 1_555
C7 C6 1_555 1_555
C8 C7 1_555 1_555
C9 C8 1_555 1_555
C10 C9 1_555 1_555
C11 C10 1_555 1_555
C12 C11 1_555 1_555
C13 C8 1_555 1_555
C14 C13 1_555 1_555
C15 C14 1_555 1_555
C16 C7 1_555 1_555
C17 C16 1_555 1_555
C18 C11 1_555 1_555
C19 C4 1_555 1_555
C20 C19 1_555 1_555
C21 O6 1_555 1_555
C22 C21 1_555 1_555
C23 C22 1_555 1_555
C24 C19 1_555 1_555
H1 O1 1_555 1_555
H2 O3 1_555 1_555
H3 O5 1_555 1_555
H4 C5 1_555 1_555
H5 C7 1_555 1_555
H6 C8 1_555 1_555
H7 C9 1_555 1_555
H8 C9 1_555 1_555
H9 C10 1_555 1_555
H10 C10 1_555 1_555
H11 C11 1_555 1_555
H12 C12 1_555 1_555
H13 C12 1_555 1_555
H14 C13 1_555 1_555
H15 C14 1_555 1_555
H16 C15 1_555 1_555
H17 C16 1_555 1_555
H18 C17 1_555 1_555
H19 C17 1_555 1_555
H20 C17 1_555 1_555
H21 C18 1_555 1_555
H22 C18 1_555 1_555
H23 C18 1_555 1_555
H24 C20 1_555 1_555
H25 C21 1_555 1_555
H26 C23 1_555 1_555
H27 C23 1_555 1_555
H28 C24 1_555 1_555
H29 C24 1_555 1_555
O8 N2 1_555 1_555
O9 C25 1_555 1_555
O10 C27 1_555 1_555
O11 C30 1_555 1_555
O12 C43 1_555 1_555
O13 C44 1_555 1_555
O14 C46 1_555 1_555
N2 C25 1_555 1_555
C25 C26 1_555 1_555
C26 C27 1_555 1_555
C27 C28 1_555 1_555
C28 C29 1_555 1_555
C29 N2 1_555 1_555
C30 C26 1_555 1_555
C31 C30 1_555 1_555
C32 C31 1_555 1_555
C33 C32 1_555 1_555
C34 C33 1_555 1_555
C35 C34 1_555 1_555
C36 C35 1_555 1_555
C37 C32 1_555 1_555
C38 C37 1_555 1_555
C39 C38 1_555 1_555
C40 C31 1_555 1_555
C41 C40 1_555 1_555
C42 C35 1_555 1_555
C43 C28 1_555 1_555
C44 C43 1_555 1_555
C45 O13 1_555 1_555
C46 C45 1_555 1_555
C47 C46 1_555 1_555
C48 C43 1_555 1_555
H30 O8 1_555 1_555
H31 O10 1_555 1_555
H32 O12 1_555 1_555
H33 C29 1_555 1_555
H34 C31 1_555 1_555
H35 C32 1_555 1_555
H36 C33 1_555 1_555
H37 C33 1_555 1_555
H38 C34 1_555 1_555
H39 C34 1_555 1_555
H40 C35 1_555 1_555
H41 C36 1_555 1_555
H42 C36 1_555 1_555
H43 C37 1_555 1_555
H44 C38 1_555 1_555
H45 C39 1_555 1_555
H46 C40 1_555 1_555
H47 C41 1_555 1_555
H48 C41 1_555 1_555
H49 C41 1_555 1_555
H50 C42 1_555 1_555
H51 C42 1_555 1_555
H52 C42 1_555 1_555
H53 C44 1_555 1_555
H54 C45 1_555 1_555
H55 C47 1_555 1_555
H56 C47 1_555 1_555
H57 C48 1_555 1_555
H58 C48 1_555 1_555
C12 C13 1_555 1_555
C15 C16 1_555 1_555
C20 C21 1_555 1_555
C23 C24 1_555 1_555
C36 C37 1_555 1_555
C39 C40 1_555 1_555
C44 C45 1_555 1_555
C47 C48 1_555 1_555

#END
