
#######################################################################
#
#                 Cambridge Crystallographic Data Centre
#                                CCDC 
#
#######################################################################
#
# If this CIF has been generated from an entry in the Cambridge 
# Structural Database, then it will include bibliographic, chemical, 
# crystal, experimental, refinement or atomic coordinate data resulting 
# from the CCDC's data processing and validation procedures.
#
#######################################################################

data_RIMBEW
_chemical_formula_moiety         'C17 H13 N3 O1,H2 O1'
_chemical_name_systematic        
'8-(1H-Benzimidazol-2-ylmethoxy)quinoline monohydrate'
_symmetry_cell_setting           orthorhombic
_symmetry_space_group_name_H-M   'P 21 21 21'
_symmetry_Int_Tables_number      19
_space_group_name_Hall           'P 2ac 2ab'
loop_
_symmetry_equiv_pos_site_id
_symmetry_equiv_pos_as_xyz
1 x,y,z
2 1/2-x,-y,1/2+z
3 -x,1/2+y,1/2-z
4 1/2+x,1/2-y,-z
_cell_length_a                   6.1679(12)
_cell_length_b                   11.094(2)
_cell_length_c                   20.502(4)
_cell_angle_alpha                90
_cell_angle_beta                 90
_cell_angle_gamma                90
_cell_volume                     1402.88
_exptl_crystal_colour            colorless
_exptl_crystal_description       plate
_cell_formula_units_Z            4
loop_
_atom_site_label
_atom_site_type_symbol
_atom_site_fract_x
_atom_site_fract_y
_atom_site_fract_z
O1 O 0.70538(9) 0.86768(5) 0.14109(3)
N1 N 0.82709(12) 1.03042(6) 0.05135(3)
N2 N 0.34077(11) 0.92882(6) 0.20550(3)
H1 H 0.3746 0.9764 0.1740
N3 N 0.36377(12) 0.77363(6) 0.27537(3)
C1 C 0.88756(16) 1.10840(7) 0.00577(4)
H2 H 0.7980 1.1743 -0.0021
C2 C 1.07849(16) 1.09794(8) -0.03150(4)
H3 H 1.1122 1.1549 -0.0632
C3 C 1.21293(15) 1.00257(8) -0.02022(4)
H4 H 1.3415 0.9949 -0.0436
C4 C 1.15598(14) 0.91521(7) 0.02721(4)
C5 C 1.28526(14) 0.81205(8) 0.03975(4)
H5 H 1.4166 0.8017 0.0182
C6 C 1.21598(14) 0.72833(7) 0.08357(4)
H6 H 1.2990 0.6596 0.0907
C7 C 1.01976(13) 0.74376(7) 0.11856(4)
H7 H 0.9755 0.6855 0.1484
C8 C 0.89491(13) 0.84444(7) 0.10856(4)
C9 C 0.95816(14) 0.93301(7) 0.06158(4)
C10 C 0.65019(14) 0.78507(7) 0.19152(4)
H8 H 0.7684 0.7789 0.2225
H9 H 0.6240 0.7058 0.1732
C11 C 0.45163(14) 0.82967(7) 0.22478(4)
C12 C 0.16288(13) 0.93884(7) 0.24609(4)
C13 C -0.01106(15) 1.01856(7) 0.24679(4)
H10 H -0.0209 1.0820 0.2173
C14 C -0.16961(15) 0.99854(7) 0.29382(4)
H11 H -0.2892 1.0495 0.2956
C15 C -0.15352(15) 0.90322(8) 0.33867(4)
H12 H -0.2616 0.8931 0.3698
C16 C 0.02011(15) 0.82397(8) 0.33743(4)
H13 H 0.0301 0.7611 0.3673
C17 C 0.17982(14) 0.84134(7) 0.28990(4)
O2 O 0.45798(10) 1.11879(5) 0.12375(3)
H14 H 0.5052(13) 1.1686(4) 0.1525(2)
H15 H 0.5604(8) 1.0836(5) 0.1021(3)
loop_
_geom_bond_atom_site_label_1
_geom_bond_atom_site_label_2
_geom_bond_site_symmetry_1
_geom_bond_site_symmetry_2
O1 C8 1_555 1_555
N1 C1 1_555 1_555
N2 H1 1_555 1_555
N3 C11 1_555 1_555
C1 H2 1_555 1_555
C2 C1 1_555 1_555
H3 C2 1_555 1_555
C3 C2 1_555 1_555
H4 C3 1_555 1_555
C4 C3 1_555 1_555
C5 C4 1_555 1_555
H5 C5 1_555 1_555
C6 C5 1_555 1_555
H6 C6 1_555 1_555
C7 C6 1_555 1_555
H7 C7 1_555 1_555
C8 C7 1_555 1_555
C9 N1 1_555 1_555
C10 O1 1_555 1_555
H8 C10 1_555 1_555
H9 C10 1_555 1_555
C11 N2 1_555 1_555
C12 N2 1_555 1_555
C13 C12 1_555 1_555
H10 C13 1_555 1_555
C14 C13 1_555 1_555
H11 C14 1_555 1_555
C15 C14 1_555 1_555
H12 C15 1_555 1_555
C16 C15 1_555 1_555
H13 C16 1_555 1_555
C17 N3 1_555 1_555
O2 H14 1_555 1_555
H15 O2 1_555 1_555
C4 C9 1_555 1_555
C8 C9 1_555 1_555
C10 C11 1_555 1_555
C12 C17 1_555 1_555
C16 C17 1_555 1_555

#END
