
#######################################################################
#
#                 Cambridge Crystallographic Data Centre
#                                CCDC 
#
#######################################################################
#
# If this CIF has been generated from an entry in the Cambridge 
# Structural Database, then it will include bibliographic, chemical, 
# crystal, experimental, refinement or atomic coordinate data resulting 
# from the CCDC's data processing and validation procedures.
#
#######################################################################

data_RIMDUO
_chemical_formula_moiety         'C34 H28 N2 S2'
_chemical_name_systematic        
(S)-4,5-Diphenyl-1-(1-phenyl-3-(phenylsulfanyl)propan-2-yl)-2-(2-thienyl)-1H-imidazole
_symmetry_cell_setting           orthorhombic
_symmetry_space_group_name_H-M   'P 21 21 21'
_symmetry_Int_Tables_number      19
_space_group_name_Hall           'P 2ac 2ab'
loop_
_symmetry_equiv_pos_site_id
_symmetry_equiv_pos_as_xyz
1 x,y,z
2 1/2-x,-y,1/2+z
3 1/2+x,1/2-y,-z
4 -x,1/2+y,1/2-z
_cell_length_a                   12.7882(7)
_cell_length_b                   13.7906(6)
_cell_length_c                   16.0636(7)
_cell_angle_alpha                90
_cell_angle_beta                 90
_cell_angle_gamma                90
_cell_volume                     2832.93
_exptl_crystal_colour            colorless
_exptl_crystal_description       prism
_cell_formula_units_Z            4
_exptl_crystal_recrystallization_method methanol
loop_
_atom_site_label
_atom_site_type_symbol
_atom_site_fract_x
_atom_site_fract_y
_atom_site_fract_z
S1 S 0.81367(14) 0.86015(13) 0.18676(10)
S2 S 0.81179(9) 0.59192(7) 0.34985(7)
N1 N 0.94171(17) 0.89681(13) 0.35239(13)
N2 N 0.99498(16) 0.74395(13) 0.34692(13)
C1 C 0.9468(3) 1.0322(2) 0.48649(18)
H1 H 0.9486 1.0543 0.4318
C2 C 0.9363(3) 1.0980(2) 0.5507(2)
H2 H 0.9311 1.1639 0.5388
C3 C 0.9334(3) 1.0675(3) 0.6313(2)
H3 H 0.9279 1.1123 0.6743
C4 C 0.9387(4) 0.9715(3) 0.6481(2)
H4 H 0.9358 0.9504 0.7030
C5 C 0.9485(4) 0.9043(3) 0.5844(2)
H5 H 0.9510 0.8384 0.5969
C6 C 0.9547(2) 0.9346(2) 0.50214(16)
C7 C 0.9663(2) 0.86640(18) 0.43152(15)
C8 C 0.9998(2) 0.77216(18) 0.43000(16)
C9 C 1.0384(2) 0.70951(18) 0.49927(17)
C10 C 1.1412(3) 0.7148(3) 0.5238(2)
H6 H 1.1864 0.7573 0.4969
C11 C 1.1781(3) 0.6576(4) 0.5881(2)
H7 H 1.2481 0.6608 0.6035
C12 C 1.1111(5) 0.5961(3) 0.6291(3)
H8 H 1.1359 0.5573 0.6722
C13 C 1.0084(4) 0.5919(3) 0.6068(3)
H9 H 0.9630 0.5510 0.6352
C14 C 0.9716(3) 0.6484(2) 0.5419(2)
H10 H 0.9014 0.6452 0.5270
C15 C 1.2350(3) 0.7748(3) 0.2846(2)
H11 H 1.2166 0.7990 0.3366
C16 C 1.2929(4) 0.8319(5) 0.2318(3)
H12 H 1.3138 0.8938 0.2476
C17 C 1.3196(5) 0.7947(6) 0.1542(4)
H13 H 1.3566 0.8323 0.1162
C18 C 1.2909(5) 0.7026(6) 0.1346(4)
H14 H 1.3122 0.6768 0.0839
C19 C 1.2322(4) 0.6470(5) 0.1861(3)
H15 H 1.2117 0.5852 0.1698
C20 C 1.2032(2) 0.6824(3) 0.2626(2)
C21 C 1.1339(3) 0.6223(2) 0.3168(3)
H16 H 1.1560 0.6298 0.3742
H17 H 1.1426 0.5546 0.3019
C22 C 1.0172(2) 0.64862(18) 0.3103(2)
H18 H 1.0012 0.6537 0.2508
C23 C 0.9491(3) 0.5675(2) 0.3445(2)
H19 H 0.9734 0.5518 0.4001
H20 H 0.9594 0.5105 0.3101
C24 C 0.7696(3) 0.5971(2) 0.2451(3)
C25 C 0.8234(3) 0.5596(3) 0.1775(3)
H21 H 0.8884 0.5308 0.1856
C26 C 0.7819(4) 0.5644(4) 0.0983(3)
H22 H 0.8187 0.5382 0.0538
C27 C 0.6879(4) 0.6071(4) 0.0850(4)
H23 H 0.6607 0.6113 0.0314
C28 C 0.6332(4) 0.6443(4) 0.1515(4)
H24 H 0.5681 0.6727 0.1429
C29 C 0.6739(3) 0.6397(3) 0.2305(3)
H25 H 0.6364 0.6658 0.2748
C30 C 0.9593(2) 0.82233(16) 0.30391(15)
C31 C 0.9363(2) 0.82435(16) 0.21422(16)
C32 C 0.9968(7) 0.8110(9) 0.1418(7)
H26 H 1.0664 0.7912 0.1424
C33 C 0.9421(13) 0.8304(11) 0.0703(5)
H27 H 0.9687 0.8242 0.0167
C34 C 0.8463(12) 0.8591(13) 0.0882(7)
H28 H 0.7996 0.8778 0.0469
S3? S 1.0259(4) 0.8013(3) 0.1389(3)
C35? C 0.8446(13) 0.8515(15) 0.1757(10)
H29? H 0.7844 0.8649 0.2060
C36? C 0.847(3) 0.858(3) 0.0864(10)
H30? H 0.7910 0.8752 0.0520
C37? C 0.946(2) 0.835(2) 0.0614(14)
H31? H 0.9678 0.8376 0.0061
loop_
_geom_bond_atom_site_label_1
_geom_bond_atom_site_label_2
_geom_bond_site_symmetry_1
_geom_bond_site_symmetry_2
S1 C31 1_555 1_555
S2 C23 1_555 1_555
N1 C7 1_555 1_555
N2 C8 1_555 1_555
C1 H1 1_555 1_555
C2 C1 1_555 1_555
H2 C2 1_555 1_555
C3 C2 1_555 1_555
H3 C3 1_555 1_555
C4 C3 1_555 1_555
H4 C4 1_555 1_555
C5 C4 1_555 1_555
H5 C5 1_555 1_555
C6 C1 1_555 1_555
C7 C6 1_555 1_555
C8 C7 1_555 1_555
C9 C8 1_555 1_555
C10 C9 1_555 1_555
H6 C10 1_555 1_555
C11 C10 1_555 1_555
H7 C11 1_555 1_555
C12 C11 1_555 1_555
H8 C12 1_555 1_555
C13 C12 1_555 1_555
H9 C13 1_555 1_555
C14 C9 1_555 1_555
H10 C14 1_555 1_555
C15 H11 1_555 1_555
C16 C15 1_555 1_555
H12 C16 1_555 1_555
C17 C16 1_555 1_555
H13 C17 1_555 1_555
C18 C17 1_555 1_555
H14 C18 1_555 1_555
C19 C18 1_555 1_555
H15 C19 1_555 1_555
C20 C15 1_555 1_555
C21 C20 1_555 1_555
H16 C21 1_555 1_555
H17 C21 1_555 1_555
C22 N2 1_555 1_555
H18 C22 1_555 1_555
C23 C22 1_555 1_555
H19 C23 1_555 1_555
H20 C23 1_555 1_555
C24 S2 1_555 1_555
C25 C24 1_555 1_555
H21 C25 1_555 1_555
C26 C25 1_555 1_555
H22 C26 1_555 1_555
C27 C26 1_555 1_555
H23 C27 1_555 1_555
C28 C27 1_555 1_555
H24 C28 1_555 1_555
C29 C24 1_555 1_555
H25 C29 1_555 1_555
C30 N1 1_555 1_555
C31 C30 1_555 1_555
C32 C31 1_555 1_555
H26 C32 1_555 1_555
C33 C32 1_555 1_555
H27 C33 1_555 1_555
C34 S1 1_555 1_555
H28 C34 1_555 1_555
N2 C30 1_555 1_555
C5 C6 1_555 1_555
C13 C14 1_555 1_555
C19 C20 1_555 1_555
C21 C22 1_555 1_555
C28 C29 1_555 1_555
C33 C34 1_555 1_555

#END
