
#######################################################################
#
#                 Cambridge Crystallographic Data Centre
#                                CCDC 
#
#######################################################################
#
# If this CIF has been generated from an entry in the Cambridge 
# Structural Database, then it will include bibliographic, chemical, 
# crystal, experimental, refinement or atomic coordinate data resulting 
# from the CCDC's data processing and validation procedures.
#
#######################################################################

data_RIMJUU
_chemical_compound_source        'Cephaloziella kiaeri'
_chemical_name_common            'Cephaloziellin E'
_chemical_formula_moiety         'C20 H22 O6'
_chemical_name_systematic        
4-(3a-Methyl-1-oxo-3-(2-oxopropyl)-1,3,3a,4,5,6-hexahydro-2-benzofuran-4-yl)-3,4-dihydro-2,3'-bifuran-5(2H)-one
_symmetry_cell_setting           monoclinic
_symmetry_space_group_name_H-M   'P 21'
_symmetry_Int_Tables_number      4
_space_group_name_Hall           'P 2yb'
loop_
_symmetry_equiv_pos_site_id
_symmetry_equiv_pos_as_xyz
1 x,y,z
2 -x,1/2+y,-z
_cell_length_a                   8.783(2)
_cell_length_b                   11.166(3)
_cell_length_c                   9.402(2)
_cell_angle_alpha                90
_cell_angle_beta                 104.489(3)
_cell_angle_gamma                90
_cell_volume                     892.738
_exptl_crystal_colour            colorless
_exptl_crystal_description       plate
_cell_formula_units_Z            2
loop_
_atom_site_label
_atom_site_type_symbol
_atom_site_fract_x
_atom_site_fract_y
_atom_site_fract_z
C1 C -0.3024(3) 0.5637(2) 0.7351(2)
H1 H -0.2816 0.6164 0.8198
H2 H -0.3700 0.6065 0.6534
C2 C -0.3892(3) 0.4534(3) 0.7684(3)
H3 H -0.3484 0.4324 0.8711
H4 H -0.4996 0.4731 0.7538
C3 C -0.3757(2) 0.3480(2) 0.6774(3)
H5 H -0.4339 0.2797 0.6845
C4 C -0.2831(2) 0.34834(18) 0.5859(2)
C5 C -0.1835(2) 0.45170(18) 0.5604(2)
C6 C -0.0456(2) 0.38076(19) 0.5259(2)
H6 H 0.0292 0.3598 0.6186
C7 C 0.0431(2) 0.43677(19) 0.4252(2)
H7 H -0.0214 0.4328 0.3252
H8 H 0.0610 0.5206 0.4508
C8 C 0.1976(3) 0.3786(2) 0.4312(3)
C9 C -0.0175(2) 0.4838(2) 0.8271(2)
H9 H -0.0284 0.3967 0.8324
C10 C -0.1455(2) 0.53497(19) 0.6967(2)
H10 H -0.1049 0.6102 0.6670
C11 C 0.1494(2) 0.5164(2) 0.8176(2)
H11 H 0.2258 0.4589 0.8701
H12 H 0.1561 0.5208 0.7163
C12 C 0.1740(2) 0.6387(2) 0.8907(2)
H13 H 0.1234 0.6997 0.8195
C13 C 0.3397(3) 0.6739(2) 0.9552(2)
C14 C 0.4595(3) 0.6130(2) 1.0600(2)
H14 H 0.4486 0.5411 1.1066
C15 C 0.5894(3) 0.6777(2) 1.0790(3)
H15 H 0.6855 0.6573 1.1420
C16 C 0.4087(3) 0.7717(3) 0.9212(3)
H16 H 0.3576 0.8296 0.8553
C17 C 0.2742(3) 0.4065(3) 0.3101(3)
H17 H 0.3802 0.3768 0.3354
H18 H 0.2753 0.4916 0.2960
H19 H 0.2165 0.3689 0.2210
C18 C -0.2504(3) 0.2458(2) 0.5012(3)
C19 C -0.2712(2) 0.5222(2) 0.4235(2)
H20 H -0.2919 0.4705 0.3393
H21 H -0.2076 0.5884 0.4078
H22 H -0.3688 0.5518 0.4382
C20 C -0.0196(3) 0.5403(2) 0.9730(2)
O1 O 0.5635(2) 0.77707(17) 0.99457(19)
O2 O 0.08863(18) 0.62935(16) 1.00595(15)
O3 O -0.09762(19) 0.5143(2) 1.05621(17)
O4 O -0.31933(17) 0.15180(15) 0.46991(18)
O5 O -0.11885(15) 0.26986(12) 0.45508(15)
O6 O 0.25927(19) 0.31334(17) 0.5307(2)
loop_
_geom_bond_atom_site_label_1
_geom_bond_atom_site_label_2
_geom_bond_site_symmetry_1
_geom_bond_site_symmetry_2
C1 H1 1_555 1_555
H2 C1 1_555 1_555
C2 C1 1_555 1_555
H3 C2 1_555 1_555
H4 C2 1_555 1_555
C3 C2 1_555 1_555
H5 C3 1_555 1_555
C4 C3 1_555 1_555
C5 C4 1_555 1_555
C6 C5 1_555 1_555
H6 C6 1_555 1_555
C7 C6 1_555 1_555
H7 C7 1_555 1_555
H8 C7 1_555 1_555
C8 C7 1_555 1_555
C9 H9 1_555 1_555
C10 C1 1_555 1_555
H10 C10 1_555 1_555
C11 C9 1_555 1_555
H11 C11 1_555 1_555
H12 C11 1_555 1_555
C12 C11 1_555 1_555
H13 C12 1_555 1_555
C13 C12 1_555 1_555
C14 C13 1_555 1_555
H14 C14 1_555 1_555
C15 C14 1_555 1_555
H15 C15 1_555 1_555
C16 C13 1_555 1_555
H16 C16 1_555 1_555
C17 C8 1_555 1_555
H17 C17 1_555 1_555
H18 C17 1_555 1_555
H19 C17 1_555 1_555
C18 C4 1_555 1_555
C19 C5 1_555 1_555
H20 C19 1_555 1_555
H21 C19 1_555 1_555
H22 C19 1_555 1_555
C20 C9 1_555 1_555
O1 C15 1_555 1_555
O2 C12 1_555 1_555
O3 C20 1_555 1_555
O4 C18 1_555 1_555
O5 C6 1_555 1_555
O6 C8 1_555 1_555
C5 C10 1_555 1_555
C9 C10 1_555 1_555
C16 O1 1_555 1_555
C18 O5 1_555 1_555
C20 O2 1_555 1_555

#END
