
#######################################################################
#
#                 Cambridge Crystallographic Data Centre
#                                CCDC 
#
#######################################################################
#
# If this CIF has been generated from an entry in the Cambridge 
# Structural Database, then it will include bibliographic, chemical, 
# crystal, experimental, refinement or atomic coordinate data resulting 
# from the CCDC's data processing and validation procedures.
#
#######################################################################

data_RIMJOO
_chemical_compound_source        'Cephaloziella kiaeri'
_chemical_name_common            'Cephaloziellin O'
_chemical_formula_moiety         'C21 H26 O6'
_chemical_name_systematic        
'Methyl 4-acetyl-3-(3-furyl)-5a-methyl-1-oxododecahydronaphtho[1,2-c]furan-6-carboxylate'
_symmetry_cell_setting           monoclinic
_symmetry_space_group_name_H-M   'P 21'
_symmetry_Int_Tables_number      4
_space_group_name_Hall           'P 2yb'
loop_
_symmetry_equiv_pos_site_id
_symmetry_equiv_pos_as_xyz
1 x,y,z
2 -x,1/2+y,-z
_cell_length_a                   9.098(2)
_cell_length_b                   10.562(2)
_cell_length_c                   10.531(2)
_cell_angle_alpha                90
_cell_angle_beta                 104.753(3)
_cell_angle_gamma                90
_cell_volume                     978.595
_exptl_crystal_colour            colorless
_exptl_crystal_description       prism
_cell_formula_units_Z            2
loop_
_atom_site_label
_atom_site_type_symbol
_atom_site_fract_x
_atom_site_fract_y
_atom_site_fract_z
C1 C 0.3916(2) 0.95613(19) 0.87633(17)
H1 H 0.2980 1.0014 0.8732
H2 H 0.4382 0.9351 0.9674
C2 C 0.4978(2) 1.0422(2) 0.82630(19)
H3 H 0.5132 1.1201 0.8766
H4 H 0.5956 1.0011 0.8376
C3 C 0.4313(2) 1.0720(2) 0.68246(18)
H5 H 0.5013 1.1253 0.6509
H6 H 0.3368 1.1181 0.6720
C4 C 0.4019(2) 0.95047(18) 0.60168(17)
H7 H 0.5002 0.9084 0.6116
C5 C 0.29453(17) 0.85433(16) 0.64697(15)
C6 C 0.13010(17) 0.90443(17) 0.61442(15)
H8 H 0.1291 0.9867 0.6552
H9 H 0.0939 0.9155 0.5202
C7 C 0.02159(18) 0.81519(15) 0.66169(16)
H10 H 0.0226 0.7332 0.6183
C8 C -0.13971(19) 0.86676(18) 0.62082(18)
C9 C 0.2418(2) 0.75851(16) 0.85551(16)
H11 H 0.2710 0.7765 0.9499
C10 C 0.35368(19) 0.83385(17) 0.79779(16)
H12 H 0.4476 0.7842 0.8127
C11 C 0.07327(18) 0.79368(15) 0.80943(17)
H13 H 0.0522 0.8689 0.8564
C12 C -0.0029(2) 0.67673(18) 0.85170(17)
H14 H -0.1009 0.6620 0.7883
C13 C -0.0274(2) 0.68793(18) 0.98583(19)
C14 C -0.1361(4) 0.7697(2) 1.0192(3)
H15 H -0.2041 0.8225 0.9622
C15 C -0.1222(5) 0.7564(3) 1.1468(3)
H16 H -0.1804 0.7992 1.1939
C16 C 0.0445(3) 0.6312(2) 1.0972(2)
H17 H 0.1221 0.5722 1.1046
C17 C -0.2132(2) 0.8734(2) 0.4775(2)
H18 H -0.1720 0.9435 0.4398
H19 H -0.3208 0.8847 0.4640
H20 H -0.1942 0.7962 0.4362
C18 C 0.3425(2) 0.9843(2) 0.45783(17)
C19 C 0.2997(2) 0.72849(19) 0.57481(19)
H21 H 0.2523 0.7392 0.4830
H22 H 0.2465 0.6646 0.6103
H23 H 0.4035 0.7031 0.5861
C20 C 0.2386(3) 0.61557(18) 0.84451(18)
C21 C 0.3408(3) 0.9281(3) 0.2402(2)
H24 H 0.3601 1.0146 0.2215
H25 H 0.2336 0.9116 0.2121
H26 H 0.3935 0.8729 0.1943
O1 O 0.39370(16) 0.90582(18) 0.37960(13)
O2 O 0.25920(19) 1.07155(17) 0.41716(14)
O3 O 0.33968(19) 0.54413(15) 0.84009(16)
O4 O 0.09891(17) 0.57246(12) 0.84546(13)
O5 O -0.0112(3) 0.6716(2) 1.19913(18)
O6 O -0.20521(15) 0.9002(2) 0.70116(15)
loop_
_geom_bond_atom_site_label_1
_geom_bond_atom_site_label_2
_geom_bond_site_symmetry_1
_geom_bond_site_symmetry_2
C1 H1 1_555 1_555
H2 C1 1_555 1_555
C2 C1 1_555 1_555
H3 C2 1_555 1_555
H4 C2 1_555 1_555
C3 C2 1_555 1_555
H5 C3 1_555 1_555
H6 C3 1_555 1_555
C4 C3 1_555 1_555
H7 C4 1_555 1_555
C5 C4 1_555 1_555
C6 C5 1_555 1_555
H8 C6 1_555 1_555
H9 C6 1_555 1_555
C7 C6 1_555 1_555
H10 C7 1_555 1_555
C8 C7 1_555 1_555
C9 H11 1_555 1_555
C10 C1 1_555 1_555
H12 C10 1_555 1_555
C11 C7 1_555 1_555
H13 C11 1_555 1_555
C12 C11 1_555 1_555
H14 C12 1_555 1_555
C13 C12 1_555 1_555
C14 C13 1_555 1_555
H15 C14 1_555 1_555
C15 C14 1_555 1_555
H16 C15 1_555 1_555
C16 C13 1_555 1_555
H17 C16 1_555 1_555
C17 C8 1_555 1_555
H18 C17 1_555 1_555
H19 C17 1_555 1_555
H20 C17 1_555 1_555
C18 C4 1_555 1_555
C19 C5 1_555 1_555
H21 C19 1_555 1_555
H22 C19 1_555 1_555
H23 C19 1_555 1_555
C20 C9 1_555 1_555
C21 H24 1_555 1_555
H25 C21 1_555 1_555
H26 C21 1_555 1_555
O1 C18 1_555 1_555
O2 C18 1_555 1_555
O3 C20 1_555 1_555
O4 C12 1_555 1_555
O5 C15 1_555 1_555
O6 C8 1_555 1_555
C5 C10 1_555 1_555
C9 C10 1_555 1_555
C9 C11 1_555 1_555
C16 O5 1_555 1_555
C20 O4 1_555 1_555
C21 O1 1_555 1_555

#END
