
#######################################################################
#
#                 Cambridge Crystallographic Data Centre
#                                CCDC 
#
#######################################################################
#
# If this CIF has been generated from an entry in the Cambridge 
# Structural Database, then it will include bibliographic, chemical, 
# crystal, experimental, refinement or atomic coordinate data resulting 
# from the CCDC's data processing and validation procedures.
#
#######################################################################

data_RIMKAB02
_chemical_compound_source        'Cephaloziella kiaeri'
_chemical_formula_moiety         'C20 H22 O7'
_chemical_name_systematic        
8a-Hydroxy-2,8b-dimethyl-2-(5-oxo-2,3,4,5-tetrahydro-2,3'-bifuran-4-yl)-3,3a,7,8,8a,8b-hexahydrofuro[2,3,4-de]chromen-5(2H)-one
_symmetry_cell_setting           monoclinic
_symmetry_space_group_name_H-M   'P 21'
_symmetry_Int_Tables_number      4
_space_group_name_Hall           'P 2yb'
loop_
_symmetry_equiv_pos_site_id
_symmetry_equiv_pos_as_xyz
1 x,y,z
2 -x,1/2+y,-z
_cell_length_a                   13.8311(12)
_cell_length_b                   8.7849(8)
_cell_length_c                   16.2147(14)
_cell_angle_alpha                90
_cell_angle_beta                 108.3810(11)
_cell_angle_gamma                90
_cell_volume                     1869.65
_exptl_crystal_colour            colorless
_exptl_crystal_description       plate
_cell_formula_units_Z            4
loop_
_atom_site_label
_atom_site_type_symbol
_atom_site_fract_x
_atom_site_fract_y
_atom_site_fract_z
C1 C 0.6249(3) 1.0810(4) 0.6095(2)
H1 H 0.6422 1.1303 0.5626
H2 H 0.5576 1.1160 0.6075
C2 C 0.7003(3) 1.1296(5) 0.6946(3)
H3 H 0.7682 1.1289 0.6893
H4 H 0.6850 1.2332 0.7073
C3 C 0.6989(4) 1.0297(6) 0.7681(3)
H5 H 0.7318 1.0615 0.8248
C4 C 0.6524(3) 0.8981(5) 0.7550(2)
C5 C 0.5937(3) 0.8298(4) 0.6680(2)
C6 C 0.6333(3) 0.6660(4) 0.6863(2)
H6 H 0.5856 0.5943 0.6479
C7 C 0.7389(3) 0.6453(5) 0.6797(2)
H7 H 0.7548 0.5376 0.6819
H8 H 0.7879 0.6938 0.7292
C8 C 0.7490(2) 0.7123(4) 0.5967(2)
C9 C 0.8614(2) 0.7243(4) 0.5991(2)
H9 H 0.8933 0.6239 0.6131
C10 C 0.6207(2) 0.9092(4) 0.5943(2)
C11 C 0.8748(2) 0.7791(5) 0.5144(2)
H10 H 0.8855 0.6939 0.4803
H11 H 0.8153 0.8356 0.4803
C12 C 0.9677(3) 0.8808(5) 0.5418(3)
H12 H 0.9555 0.9706 0.5041
C13 C 1.0647(2) 0.8083(4) 0.5425(3)
C14 C 1.1023(3) 0.7978(6) 0.4736(3)
H13 H 1.0686 0.8394 0.4194
C15 C 1.1871(3) 0.7269(6) 0.4895(3)
H14 H 1.2251 0.7088 0.4523
C16 C 1.1333(3) 0.7295(7) 0.6072(4)
H15 H 1.1284 0.7116 0.6622
C17 C 0.6886(3) 0.6184(5) 0.5182(2)
H16 H 0.6211 0.6012 0.5207
H17 H 0.7220 0.5224 0.5186
H18 H 0.6848 0.6725 0.4658
C18 C 0.6588(4) 0.7754(7) 0.8189(3)
C19 C 0.4790(3) 0.8380(5) 0.6541(3)
H19 H 0.4649 0.7961 0.7038
H20 H 0.4430 0.7808 0.6032
H21 H 0.4571 0.9422 0.6466
C20 C 0.9226(3) 0.8378(5) 0.6645(3)
O1 O 1.2089(3) 0.6819(5) 0.5787(4)
O2 O 0.9770(2) 0.9274(4) 0.6290(2)
O3 O 0.9270(2) 0.8529(5) 0.7394(2)
O4 O 0.71865(14) 0.8701(2) 0.59085(13)
O5 O 0.54501(15) 0.8704(3) 0.51600(14)
H22 H 0.5673 0.8827 0.4752
O6 O 0.6386(2) 0.6409(4) 0.77688(18)
O7 O 0.6810(3) 0.7845(5) 0.89735(19)
C21 C 0.3774(2) 0.4697(4) 0.94724(19)
H23 H 0.3415 0.4725 0.9899
H24 H 0.4483 0.4936 0.9771
C22 C 0.3337(3) 0.5903(4) 0.8800(2)
H25 H 0.2603 0.5920 0.8667
H26 H 0.3597 0.6888 0.9040
C23 C 0.3588(3) 0.5656(4) 0.7983(2)
H27 H 0.3454 0.6428 0.7570
C24 C 0.3992(2) 0.4382(4) 0.78297(19)
C25 C 0.4263(2) 0.3029(4) 0.84186(18)
C26 C 0.3877(3) 0.1790(4) 0.7732(2)
H28 H 0.4216 0.0817 0.7932
C27 C 0.2730(3) 0.1613(5) 0.7435(2)
H29 H 0.2543 0.0706 0.7078
H30 H 0.2420 0.2482 0.7082
C28 C 0.2325(3) 0.1487(4) 0.8211(2)
C29 C 0.1159(3) 0.1646(5) 0.7928(2)
H31 H 0.0858 0.0959 0.7438
C30 C 0.3711(2) 0.3103(4) 0.91121(17)
C31 C 0.0642(3) 0.1390(5) 0.8610(3)
H32 H 0.1058 0.0756 0.9077
H33 H -0.0016 0.0906 0.8358
C32 C 0.0520(3) 0.2965(5) 0.8938(3)
H34 H 0.1129 0.3225 0.9422
C33 C -0.0407(4) 0.3178(6) 0.9215(4)
C34 C -0.0680(7) 0.2371(12) 0.9805(7)
H35 H -0.0311 0.1541 1.0098
C35 C -0.1511(8) 0.2860(12) 0.9929(9)
H36 H -0.1761 0.2590 1.0378
C36 C -0.1204(5) 0.4082(11) 0.8910(4)
H37 H -0.1292 0.4819 0.8481
C37 C 0.2644(4) -0.0020(4) 0.8682(3)
H38 H 0.3349 -0.0209 0.8753
H39 H 0.2237 -0.0827 0.8347
H40 H 0.2546 0.0025 0.9242
C38 C 0.4105(2) 0.3911(5) 0.6995(2)
C39 C 0.5413(3) 0.2919(6) 0.8832(2)
H41 H 0.5737 0.3079 0.8396
H42 H 0.5588 0.1928 0.9084
H43 H 0.5638 0.3680 0.9276
C40 C 0.0836(4) 0.3244(7) 0.7650(3)
O8 O -0.1886(4) 0.3719(11) 0.9353(5)
O9 O 0.0451(2) 0.3953(4) 0.8214(3)
O10 O 0.0876(3) 0.3908(6) 0.7008(3)
O11 O 0.26544(15) 0.2793(2) 0.87609(12)
O12 O 0.41825(18) 0.2055(3) 0.97701(14)
H44 H 0.3910 0.2092 1.0152
O13 O 0.4142(2) 0.2375(3) 0.69799(15)
O14 O 0.41538(19) 0.4659(3) 0.63864(15)
loop_
_geom_bond_atom_site_label_1
_geom_bond_atom_site_label_2
_geom_bond_site_symmetry_1
_geom_bond_site_symmetry_2
C1 H1 1_555 1_555
H2 C1 1_555 1_555
C2 C1 1_555 1_555
H3 C2 1_555 1_555
H4 C2 1_555 1_555
C3 C2 1_555 1_555
H5 C3 1_555 1_555
C4 C3 1_555 1_555
C5 C4 1_555 1_555
C6 C5 1_555 1_555
H6 C6 1_555 1_555
C7 C6 1_555 1_555
H7 C7 1_555 1_555
H8 C7 1_555 1_555
C8 C7 1_555 1_555
C9 C8 1_555 1_555
H9 C9 1_555 1_555
C10 C1 1_555 1_555
C11 C9 1_555 1_555
H10 C11 1_555 1_555
H11 C11 1_555 1_555
C12 C11 1_555 1_555
H12 C12 1_555 1_555
C13 C12 1_555 1_555
C14 C13 1_555 1_555
H13 C14 1_555 1_555
C15 C14 1_555 1_555
H14 C15 1_555 1_555
C16 C13 1_555 1_555
H15 C16 1_555 1_555
C17 C8 1_555 1_555
H16 C17 1_555 1_555
H17 C17 1_555 1_555
H18 C17 1_555 1_555
C18 C4 1_555 1_555
C19 C5 1_555 1_555
H19 C19 1_555 1_555
H20 C19 1_555 1_555
H21 C19 1_555 1_555
C20 C9 1_555 1_555
O1 C15 1_555 1_555
O2 C12 1_555 1_555
O3 C20 1_555 1_555
O4 C8 1_555 1_555
O5 C10 1_555 1_555
H22 O5 1_555 1_555
O6 C6 1_555 1_555
O7 C18 1_555 1_555
C21 H23 1_555 1_555
H24 C21 1_555 1_555
C22 C21 1_555 1_555
H25 C22 1_555 1_555
H26 C22 1_555 1_555
C23 C22 1_555 1_555
H27 C23 1_555 1_555
C24 C23 1_555 1_555
C25 C24 1_555 1_555
C26 C25 1_555 1_555
H28 C26 1_555 1_555
C27 C26 1_555 1_555
H29 C27 1_555 1_555
H30 C27 1_555 1_555
C28 C27 1_555 1_555
C29 C28 1_555 1_555
H31 C29 1_555 1_555
C30 C21 1_555 1_555
C31 C29 1_555 1_555
H32 C31 1_555 1_555
H33 C31 1_555 1_555
C32 C31 1_555 1_555
H34 C32 1_555 1_555
C33 C32 1_555 1_555
C34 C33 1_555 1_555
H35 C34 1_555 1_555
C35 C34 1_555 1_555
H36 C35 1_555 1_555
C36 C33 1_555 1_555
H37 C36 1_555 1_555
C37 C28 1_555 1_555
H38 C37 1_555 1_555
H39 C37 1_555 1_555
H40 C37 1_555 1_555
C38 C24 1_555 1_555
C39 C25 1_555 1_555
H41 C39 1_555 1_555
H42 C39 1_555 1_555
H43 C39 1_555 1_555
C40 C29 1_555 1_555
O8 C35 1_555 1_555
O9 C32 1_555 1_555
O10 C40 1_555 1_555
O11 C28 1_555 1_555
O12 C30 1_555 1_555
H44 O12 1_555 1_555
O13 C26 1_555 1_555
O14 C38 1_555 1_555
C5 C10 1_555 1_555
C10 O4 1_555 1_555
C16 O1 1_555 1_555
C18 O6 1_555 1_555
C20 O2 1_555 1_555
C25 C30 1_555 1_555
C30 O11 1_555 1_555
C36 O8 1_555 1_555
C38 O13 1_555 1_555
C40 O9 1_555 1_555

#END
