
#######################################################################
#
#                 Cambridge Crystallographic Data Centre
#                                CCDC 
#
#######################################################################
#
# If this CIF has been generated from an entry in the Cambridge 
# Structural Database, then it will include bibliographic, chemical, 
# crystal, experimental, refinement or atomic coordinate data resulting 
# from the CCDC's data processing and validation procedures.
#
#######################################################################

data_RIMLUW
_chemical_compound_source        'whole plants of Salvia cavaleriei'
_chemical_name_common            '11alpha-Hydroxyleukamenin E dihydrate'
_chemical_formula_moiety         'C22 H32 O6,2(H2 O1)'
_chemical_name_systematic        
'7,11,14-Trihydroxy-15-oxokaur-16-en-3-yl acetate dihydrate'
_chemical_properties_biological  'cytotoxic activity'
_symmetry_cell_setting           monoclinic
_symmetry_space_group_name_H-M   'P 21'
_symmetry_Int_Tables_number      4
_space_group_name_Hall           'P 2yb'
loop_
_symmetry_equiv_pos_site_id
_symmetry_equiv_pos_as_xyz
1 x,y,z
2 -x,1/2+y,-z
_cell_length_a                   8.5553(2)
_cell_length_b                   7.0580(2)
_cell_length_c                   18.5846(5)
_cell_angle_alpha                90
_cell_angle_beta                 94.6680(10)
_cell_angle_gamma                90
_cell_volume                     1118.48
_chemical_melting_point          '195-197 deg.C'
_cell_formula_units_Z            2
loop_
_atom_site_label
_atom_site_type_symbol
_atom_site_fract_x
_atom_site_fract_y
_atom_site_fract_z
C1 C -0.07290(19) 0.1134(3) 0.61062(8)
H1 H -0.0222 -0.0074 0.6037
H2 H -0.1838 0.0981 0.5964
C2 C -0.0052(2) 0.2603(3) 0.56168(8)
H3 H -0.0177 0.2151 0.5123
H4 H -0.0648 0.3768 0.5640
C3 C 0.1653(2) 0.3027(3) 0.58117(8)
H5 H 0.2003 0.4022 0.5494
C4 C 0.20039(19) 0.3621(3) 0.66043(8)
C5 C 0.12631(17) 0.2126(2) 0.70909(7)
H6 H 0.1798 0.0941 0.6987
C6 C 0.16711(18) 0.2443(2) 0.78995(8)
H7 H 0.2754 0.2847 0.7985
H8 H 0.1004 0.3421 0.8076
C7 C 0.14254(17) 0.0596(2) 0.82898(7)
H9 H 0.2038 -0.0376 0.8062
C8 C -0.02904(17) -0.0035(2) 0.82094(7)
C9 C -0.08729(17) -0.0142(2) 0.73776(8)
H10 H -0.0215 -0.1130 0.7187
C10 C -0.05231(16) 0.1664(2) 0.69209(7)
C11 C -0.25597(18) -0.1030(3) 0.73174(8)
H11 H -0.2416 -0.2393 0.7399
C12 C -0.36637(19) -0.0355(3) 0.78715(9)
H12 H -0.4569 -0.1186 0.7859
H13 H -0.4032 0.0911 0.7746
C13 C -0.28442(19) -0.0339(3) 0.86359(9)
H14 H -0.3570 -0.0006 0.8998
C14 C -0.14749(18) 0.1054(2) 0.86402(8)
H15 H -0.1795 0.2248 0.8403
C15 C -0.0454(2) -0.2037(2) 0.85187(8)
C16 C -0.2019(2) -0.2180(3) 0.88122(9)
C17 C -0.2477(3) -0.3690(4) 0.91562(12)
H16 H -0.1811 -0.4727 0.9225
H17 H -0.3465 -0.3717 0.9330
C18 C 0.1426(2) 0.5664(3) 0.66926(10)
H18 H 0.2075 0.6517 0.6446
H19 H 0.1481 0.5983 0.7196
H20 H 0.0360 0.5768 0.6491
C19 C 0.3800(2) 0.3661(3) 0.67731(10)
H21 H 0.4200 0.2389 0.6782
H22 H 0.4048 0.4244 0.7235
H23 H 0.4271 0.4374 0.6407
C20 C -0.1637(2) 0.3317(3) 0.70558(9)
H24 H -0.1660 0.4187 0.6658
H25 H -0.1272 0.3961 0.7493
H26 H -0.2673 0.2834 0.7101
C21 C 0.3951(2) -0.0877(3) 0.50843(11)
H27 H 0.3905 -0.1420 0.4609
H28 H 0.3552 -0.1771 0.5413
H29 H 0.5019 -0.0574 0.5240
C22 C 0.29867(17) 0.0875(3) 0.50690(8)
O1 O 0.26267(16) 0.1804(2) 0.45407(6)
O2 O 0.25640(14) 0.12919(19) 0.57192(6)
O3 O 0.20220(13) 0.07183(19) 0.90343(6)
H30 H 0.130(2) 0.126(3) 0.9249(11)
O4 O -0.34170(14) -0.0842(2) 0.66317(6)
H31 H -0.3065 -0.1580 0.6345
O5 O -0.08327(14) 0.13624(19) 0.93619(6)
H32 H -0.1482 0.1565 0.9660
O6 O 0.05176(16) -0.3271(2) 0.85068(7)
O7 O 0.31894(16) 0.7329(2) 0.97555(7)
H33 H 0.2802 0.8089 0.9443
H34 H 0.4020 0.7861 1.0046
O8 O 0.42520(19) 0.3658(3) 0.93469(10)
H35 H 0.3580 0.2786 0.9297
H36 H 0.3884 0.4628 0.9536
loop_
_geom_bond_atom_site_label_1
_geom_bond_atom_site_label_2
_geom_bond_site_symmetry_1
_geom_bond_site_symmetry_2
C1 H1 1_555 1_555
H2 C1 1_555 1_555
C2 C1 1_555 1_555
H3 C2 1_555 1_555
H4 C2 1_555 1_555
C3 C2 1_555 1_555
H5 C3 1_555 1_555
C4 C3 1_555 1_555
C5 C4 1_555 1_555
H6 C5 1_555 1_555
C6 C5 1_555 1_555
H7 C6 1_555 1_555
H8 C6 1_555 1_555
C7 C6 1_555 1_555
H9 C7 1_555 1_555
C8 C7 1_555 1_555
C9 C8 1_555 1_555
H10 C9 1_555 1_555
C10 C1 1_555 1_555
C11 C9 1_555 1_555
H11 C11 1_555 1_555
C12 C11 1_555 1_555
H12 C12 1_555 1_555
H13 C12 1_555 1_555
C13 C12 1_555 1_555
H14 C13 1_555 1_555
C14 C8 1_555 1_555
H15 C14 1_555 1_555
C15 C8 1_555 1_555
C16 C13 1_555 1_555
C17 C16 1_555 1_555
H16 C17 1_555 1_555
H17 C17 1_555 1_555
C18 C4 1_555 1_555
H18 C18 1_555 1_555
H19 C18 1_555 1_555
H20 C18 1_555 1_555
C19 C4 1_555 1_555
H21 C19 1_555 1_555
H22 C19 1_555 1_555
H23 C19 1_555 1_555
C20 C10 1_555 1_555
H24 C20 1_555 1_555
H25 C20 1_555 1_555
H26 C20 1_555 1_555
C21 H27 1_555 1_555
H28 C21 1_555 1_555
H29 C21 1_555 1_555
C22 C21 1_555 1_555
O1 C22 1_555 1_555
O2 C3 1_555 1_555
O3 C7 1_555 1_555
H30 O3 1_555 1_555
O4 C11 1_555 1_555
H31 O4 1_555 1_555
O5 C14 1_555 1_555
H32 O5 1_555 1_555
O6 C15 1_555 1_555
O7 H33 1_555 1_555
H34 O7 1_555 1_555
O8 H35 1_555 1_555
H36 O8 1_555 1_555
C5 C10 1_555 1_555
C9 C10 1_555 1_555
C13 C14 1_555 1_555
C15 C16 1_555 1_555
C22 O2 1_555 1_555

#END
