
#######################################################################
#
#                 Cambridge Crystallographic Data Centre
#                                CCDC 
#
#######################################################################
#
# If this CIF has been generated from an entry in the Cambridge 
# Structural Database, then it will include bibliographic, chemical, 
# crystal, experimental, refinement or atomic coordinate data resulting 
# from the CCDC's data processing and validation procedures.
#
#######################################################################

data_RIMLIL
_chemical_formula_moiety         'C33 H27 F1 N2 O4 S1'
_chemical_name_systematic        
3-(benzenecarbonyl)-2-(3-fluorophenyl)-1-[(4-methylphenyl)sulfonyl]-4-(2-oxo-2-phenylethyl)pyrrolidine-3-carbonitrile
_symmetry_cell_setting           triclinic
_symmetry_space_group_name_H-M   'P -1'
_symmetry_Int_Tables_number      2
_space_group_name_Hall           '-P 1'
loop_
_symmetry_equiv_pos_site_id
_symmetry_equiv_pos_as_xyz
1 x,y,z
2 -x,-y,-z
_cell_length_a                   9.7629(4)
_cell_length_b                   11.7118(6)
_cell_length_c                   13.5050(7)
_cell_angle_alpha                90.002(4)
_cell_angle_beta                 91.798(4)
_cell_angle_gamma                112.093(4)
_cell_volume                     1429.97
_exptl_crystal_colour            'whitish colorless'
_exptl_crystal_description       block
_cell_formula_units_Z            2
_exptl_crystal_recrystallization_method dichloromethane/methanol
loop_
_atom_site_label
_atom_site_type_symbol
_atom_site_fract_x
_atom_site_fract_y
_atom_site_fract_z
S1 S 0.40608(9) 0.68372(7) 0.11007(5)
O1 O 0.3880(2) 0.7984(2) 0.09798(16)
O2 O 0.3523(3) 0.5906(2) 0.03463(15)
O3 O 0.5251(3) 0.8439(2) 0.47490(17)
N1 N 0.3216(3) 0.6238(2) 0.21192(17)
O4 O 0.3705(3) 0.3850(2) 0.4320(2)
N2 N -0.0143(3) 0.5145(3) 0.3499(2)
C1 C 0.4506(3) 0.7948(3) 0.6395(2)
C2 C 0.2422(3) 0.4927(3) 0.3466(2)
C3 C 0.4419(3) 0.7696(3) 0.5302(2)
C4 C 0.0944(3) 0.5004(3) 0.3469(2)
C5 C 0.3570(3) 0.6163(3) 0.3867(2)
C6 C 0.3628(3) 0.7050(3) 0.3026(2)
C7 C 0.2960(3) 0.4952(3) 0.2385(2)
C8 C 0.5951(3) 0.7155(3) 0.1341(2)
C9 C 0.3243(3) 0.6530(3) 0.4891(2)
C10 C 0.1931(3) 0.3959(3) 0.1702(2)
C11 C 0.3773(4) 0.7052(3) 0.7069(2)
C12 C 0.1109(4) 0.2762(3) 0.4303(3)
C13 C 0.6886(4) 0.8316(3) 0.1648(3)
C14 C 0.2490(4) 0.3810(3) 0.4056(2)
C15 C 0.6482(4) 0.6220(3) 0.1228(3)
C16 C 0.5333(4) 0.9130(3) 0.6741(2)
C17 C 0.8913(4) 0.7607(4) 0.1769(3)
C18 C 0.8360(4) 0.8540(3) 0.1860(3)
C19 C 0.5415(4) 0.9414(4) 0.7737(3)
C20 C 0.4696(4) 0.8521(4) 0.8400(3)
C21 C 0.0672(4) 0.4026(4) 0.1256(2)
C22 C -0.0101(4) 0.2302(3) 0.3645(3)
F1 F 0.1411(5) 0.0885(3) 0.0904(3)
C23 C 0.2215(4) 0.2890(3) 0.1581(3)
C24 C 0.3880(4) 0.7344(4) 0.8071(3)
C25 C 0.7949(4) 0.6456(4) 0.1447(3)
C26 C -0.1348(4) 0.1308(4) 0.3903(4)
C27 C 0.1068(5) 0.2217(4) 0.5218(3)
C28 C -0.0294(5) 0.3011(5) 0.0743(3)
C29 C -0.0046(6) 0.1940(4) 0.0637(3)
C30 C 0.1213(5) 0.1896(4) 0.1042(3)
C31 C -0.1396(6) 0.0789(4) 0.4813(4)
C32 C 1.0509(4) 0.7859(5) 0.1995(3)
C33 C -0.0206(7) 0.1237(4) 0.5466(4)
H1 H 0.5852(4) 0.5441(3) 0.1007(3)
H2 H 0.8301(4) 0.5826(4) 0.1377(3)
H3 H 0.8993(4) 0.9324(3) 0.2067(3)
H4 H 0.6529(4) 0.8944(3) 0.1711(3)
H5 H 0.3073(4) 0.2839(3) 0.1860(3)
H6 H -0.0726(6) 0.1264(4) 0.0296(3)
H7 H 0.0480(4) 0.4744(4) 0.1300(2)
H8 H 0.1880(5) 0.2503(4) 0.5658(3)
H9 H -0.0252(7) 0.0879(4) 0.6085(4)
H10 H -0.2239(6) 0.0131(4) 0.4991(4)
H11 H -0.2150(4) 0.0994(4) 0.3458(4)
H12 H -0.0074(4) 0.2663(3) 0.3029(3)
H13 H 0.5838(4) 0.9738(3) 0.6296(2)
H14 H 0.5959(4) 1.0214(4) 0.7960(3)
H15 H 0.4760(4) 0.8713(4) 0.9073(3)
H16 H 0.3396(4) 0.6738(4) 0.8523(3)
H17 H 0.3211(4) 0.6255(3) 0.6850(2)
H18 H 0.4531(3) 0.6080(3) 0.3915(2)
H19 H 0.4613(3) 0.7678(3) 0.2981(2)
H20 H 0.2929(3) 0.7446(3) 0.3120(2)
H21 H 0.3918(3) 0.4862(3) 0.2417(2)
H22 H 0.3141(3) 0.5863(3) 0.5345(2)
H23 H 0.2305(3) 0.6639(3) 0.4853(2)
H24 H 1.1068(7) 0.8730(5) 0.196(2)
H25 H 1.0619(6) 0.757(3) 0.2647(10)
H26 H 1.0865(10) 0.744(2) 0.1519(15)
F2? F -0.1263(9) 0.3010(9) 0.0304(6)
H27? H 0.2279(3) 0.6193(2) 0.19780(17)
loop_
_geom_bond_atom_site_label_1
_geom_bond_atom_site_label_2
_geom_bond_site_symmetry_1
_geom_bond_site_symmetry_2
S1 O1 1_555 1_555
O2 S1 1_555 1_555
O3 C3 1_555 1_555
N1 S1 1_555 1_555
O4 C14 1_555 1_555
N2 C4 1_555 1_555
C1 C3 1_555 1_555
C2 C4 1_555 1_555
C3 C9 1_555 1_555
C5 C2 1_555 1_555
C6 N1 1_555 1_555
C7 N1 1_555 1_555
C8 S1 1_555 1_555
C9 C5 1_555 1_555
C10 C7 1_555 1_555
C11 C1 1_555 1_555
C12 C14 1_555 1_555
C13 C8 1_555 1_555
C14 C2 1_555 1_555
C15 C8 1_555 1_555
C16 C1 1_555 1_555
C17 C18 1_555 1_555
C18 C13 1_555 1_555
C19 C16 1_555 1_555
C20 C19 1_555 1_555
C21 C10 1_555 1_555
C22 C12 1_555 1_555
F1 C30 1_555 1_555
C23 C10 1_555 1_555
C24 C11 1_555 1_555
C25 C15 1_555 1_555
C26 C22 1_555 1_555
C27 C12 1_555 1_555
C28 C21 1_555 1_555
C29 C28 1_555 1_555
C30 C23 1_555 1_555
C31 C26 1_555 1_555
C32 C17 1_555 1_555
C33 C27 1_555 1_555
H1 C15 1_555 1_555
H2 C25 1_555 1_555
H3 C18 1_555 1_555
H4 C13 1_555 1_555
H5 C23 1_555 1_555
H6 C29 1_555 1_555
H7 C21 1_555 1_555
H8 C27 1_555 1_555
H9 C33 1_555 1_555
H10 C31 1_555 1_555
H11 C26 1_555 1_555
H12 C22 1_555 1_555
H13 C16 1_555 1_555
H14 C19 1_555 1_555
H15 C20 1_555 1_555
H16 C24 1_555 1_555
H17 C11 1_555 1_555
H18 C5 1_555 1_555
H19 C6 1_555 1_555
H20 C6 1_555 1_555
H21 C7 1_555 1_555
H22 C9 1_555 1_555
H23 C9 1_555 1_555
H24 C32 1_555 1_555
H25 C32 1_555 1_555
H26 C32 1_555 1_555
C2 C7 1_555 1_555
C5 C6 1_555 1_555
C17 C25 1_555 1_555
C20 C24 1_555 1_555
C29 C30 1_555 1_555
C31 C33 1_555 1_555

#END
