
#######################################################################
#
#                 Cambridge Crystallographic Data Centre
#                                CCDC 
#
#######################################################################
#
# If this CIF has been generated from an entry in the Cambridge 
# Structural Database, then it will include bibliographic, chemical, 
# crystal, experimental, refinement or atomic coordinate data resulting 
# from the CCDC's data processing and validation procedures.
#
#######################################################################

data_RIMMUX
_chemical_compound_source        
'culture of the edible mushroom Pleurotus cornucopiae'
_chemical_name_common            'Pleurospiroketal A'
_chemical_formula_moiety         'C15 H22 O5'
_chemical_name_systematic        
(2R,3aR,6S,7R,7aS)-6,7-Dihydroxy-5',5',6-trimethyl-3-methyleneoctahydro-3H,3'H-spiro[1-benzofuran-2,2'-furan]-3'-one
_chemical_properties_biological  
'inhibitory activity against nitric oxide production in lipopolysaccharide-activated macrophages'
_symmetry_cell_setting           orthorhombic
_symmetry_space_group_name_H-M   'P 21 21 21'
_symmetry_Int_Tables_number      19
_space_group_name_Hall           'P 2ac 2ab'
loop_
_symmetry_equiv_pos_site_id
_symmetry_equiv_pos_as_xyz
1 x,y,z
2 1/2-x,-y,1/2+z
3 1/2+x,1/2-y,-z
4 -x,1/2+y,1/2-z
_cell_length_a                   9.89040(10)
_cell_length_b                   10.02150(10)
_cell_length_c                   15.2050(2)
_cell_angle_alpha                90
_cell_angle_beta                 90
_cell_angle_gamma                90
_cell_volume                     1507.07
_cell_formula_units_Z            4
loop_
_atom_site_label
_atom_site_type_symbol
_atom_site_fract_x
_atom_site_fract_y
_atom_site_fract_z
O1 O 0.42196(11) 0.24456(12) 0.69706(8)
O2 O 0.32362(12) 0.33622(13) 0.94738(7)
H1 H 0.2799 0.3868 0.9788
O3 O 0.29344(12) 0.41521(11) 0.76326(7)
O4 O 0.04066(12) 0.30047(12) 0.97482(8)
H2 H -0.0225 0.2662 1.0015
O5 O 0.24916(15) 0.46622(15) 0.56734(10)
C1 C 0.23532(15) 0.27133(15) 0.88723(10)
H3 H 0.2885 0.2039 0.8559
C2 C 0.30701(17) 0.32499(16) 0.69135(10)
C3 C 0.18397(16) 0.37083(15) 0.81892(11)
H4 H 0.1428 0.4476 0.8485
C4 C 0.11869(16) 0.19887(17) 0.93295(11)
C5 C 0.08288(17) 0.30955(18) 0.75385(11)
H5 H 0.0371 0.3826 0.7230
C6 C 0.17842(17) 0.24379(17) 0.69026(10)
C7 C 0.03608(18) 0.12650(17) 0.86299(12)
H6 H 0.0936 0.0630 0.8328
H7 H -0.0362 0.0771 0.8913
C8 C -0.02438(17) 0.2221(2) 0.79622(11)
H8 H -0.0907 0.2783 0.8251
H9 H -0.0705 0.1714 0.7509
C9 C 0.54052(19) 0.3132(2) 0.66057(13)
C10 C 0.33394(18) 0.41170(19) 0.61043(12)
C11 C 0.1717(2) 0.1005(2) 1.00093(13)
H10 H 0.2261 0.1471 1.0432
H11 H 0.2254 0.0337 0.9722
H12 H 0.0969 0.0587 1.0303
C12 C 0.1628(2) 0.1341(2) 0.64412(13)
H13 H 0.0831 0.0854 0.6486
H14 H 0.2315 0.1051 0.6070
C13 C 0.6281(2) 0.2077(2) 0.62031(18)
H15 H 0.6526 0.1435 0.6644
H16 H 0.7084 0.2480 0.5968
H17 H 0.5795 0.1639 0.5739
C14 C 0.6125(3) 0.3843(3) 0.7347(2)
H18 H 0.5533 0.4501 0.7598
H19 H 0.6921 0.4273 0.7123
H20 H 0.6376 0.3208 0.7790
C15 C 0.4818(2) 0.4094(3) 0.5929(2)
H21 H 0.5204 0.4977 0.5999
H22 H 0.5000 0.3783 0.5337
loop_
_geom_bond_atom_site_label_1
_geom_bond_atom_site_label_2
_geom_bond_site_symmetry_1
_geom_bond_site_symmetry_2
O1 C2 1_555 1_555
O2 H1 1_555 1_555
O3 C2 1_555 1_555
O4 H2 1_555 1_555
O5 C10 1_555 1_555
C1 O2 1_555 1_555
H3 C1 1_555 1_555
C2 C6 1_555 1_555
C3 O3 1_555 1_555
H4 C3 1_555 1_555
C4 O4 1_555 1_555
C5 C3 1_555 1_555
H5 C5 1_555 1_555
C6 C5 1_555 1_555
C7 C4 1_555 1_555
H6 C7 1_555 1_555
H7 C7 1_555 1_555
C8 C5 1_555 1_555
H8 C8 1_555 1_555
H9 C8 1_555 1_555
C9 O1 1_555 1_555
C10 C2 1_555 1_555
C11 C4 1_555 1_555
H10 C11 1_555 1_555
H11 C11 1_555 1_555
H12 C11 1_555 1_555
C12 C6 1_555 1_555
H13 C12 1_555 1_555
H14 C12 1_555 1_555
C13 C9 1_555 1_555
H15 C13 1_555 1_555
H16 C13 1_555 1_555
H17 C13 1_555 1_555
C14 C9 1_555 1_555
H18 C14 1_555 1_555
H19 C14 1_555 1_555
H20 C14 1_555 1_555
C15 C9 1_555 1_555
H21 C15 1_555 1_555
H22 C15 1_555 1_555
C1 C3 1_555 1_555
C1 C4 1_555 1_555
C7 C8 1_555 1_555
C10 C15 1_555 1_555

#END
