
#######################################################################
#
#                 Cambridge Crystallographic Data Centre
#                                CCDC 
#
#######################################################################
#
# If this CIF has been generated from an entry in the Cambridge 
# Structural Database, then it will include bibliographic, chemical, 
# crystal, experimental, refinement or atomic coordinate data resulting 
# from the CCDC's data processing and validation procedures.
#
#######################################################################

data_RIMNAE
_chemical_compound_source        'Sinularia brassica'
_chemical_name_common            'Sinubrasolide A'
_chemical_formula_moiety         'C28 H38 O4'
_chemical_name_systematic        
24-Methyl-23,26-epoxyfurosta-1,4-dien-3,26-dione
_symmetry_cell_setting           orthorhombic
_symmetry_space_group_name_H-M   'P 21 21 21'
_symmetry_Int_Tables_number      19
_space_group_name_Hall           'P 2ac 2ab'
loop_
_symmetry_equiv_pos_site_id
_symmetry_equiv_pos_as_xyz
1 x,y,z
2 1/2+x,1/2-y,-z
3 -x,1/2+y,1/2-z
4 1/2-x,-y,1/2+z
_cell_length_a                   6.1962(2)
_cell_length_b                   12.5597(4)
_cell_length_c                   30.5348(11)
_cell_angle_alpha                90
_cell_angle_beta                 90
_cell_angle_gamma                90
_cell_volume                     2376.29
_exptl_crystal_colour            colorless
_cell_formula_units_Z            4
_exptl_crystal_recrystallization_method acetone/n-hexane
loop_
_atom_site_label
_atom_site_type_symbol
_atom_site_fract_x
_atom_site_fract_y
_atom_site_fract_z
C1 C 0.0205(2) 1.19919(10) 0.17066(4)
H1 H 0.1120 1.2100 0.1461
C2 C -0.1013(2) 1.28069(10) 0.18330(4)
H2 H -0.0936 1.3463 0.1679
C3 C -0.2477(2) 1.26995(11) 0.22080(4)
C4 C -0.2539(2) 1.16605(11) 0.24198(4)
H3 H -0.3475 1.1568 0.2663
C5 C -0.1350(2) 1.08314(10) 0.22902(4)
C6 C -0.1538(2) 0.97575(11) 0.24987(4)
H4 H -0.2725 0.9768 0.2716
H5 H -0.0182 0.9590 0.2656
C7 C -0.1980(2) 0.88923(11) 0.21581(4)
H6 H -0.1938 0.8187 0.2302
H7 H -0.3446 0.8994 0.2036
C8 C -0.0337(2) 0.89118(10) 0.17854(4)
H8 H 0.1125 0.8747 0.1906
C9 C -0.0289(2) 1.00321(10) 0.15730(4)
H9 H -0.1792 1.0179 0.1470
C10 C 0.0258(2) 1.09177(10) 0.19188(4)
C11 C 0.1166(2) 1.00859(10) 0.11630(4)
H10 H 0.0953 1.0782 0.1017
H11 H 0.2695 1.0041 0.1255
C12 C 0.0701(2) 0.91935(10) 0.08335(4)
H12 H -0.0741 0.9307 0.0702
H13 H 0.1783 0.9220 0.0595
C13 C 0.07668(19) 0.80973(9) 0.10505(4)
C14 C -0.08791(19) 0.81044(10) 0.14295(4)
H14 H -0.2282 0.8339 0.1299
C15 C -0.1151(2) 0.69201(10) 0.15405(4)
H15 H -0.2512 0.6791 0.1702
H16 H 0.0076 0.6655 0.1717
C16 C -0.1200(2) 0.63911(9) 0.10865(4)
H17 H -0.2730 0.6251 0.1000
C17 C -0.01783(19) 0.71986(9) 0.07626(4)
H18 H -0.1349 0.7504 0.0575
C18 C 0.30550(19) 0.78581(11) 0.12119(4)
H19 H 0.4017 0.7768 0.0960
H20 H 0.3044 0.7203 0.1386
H21 H 0.3569 0.8450 0.1393
C19 C 0.2561(2) 1.07936(11) 0.21085(4)
H22 H 0.3622 1.0866 0.1872
H23 H 0.2707 1.0090 0.2244
H24 H 0.2814 1.1346 0.2329
C20 C 0.1300(2) 0.65152(9) 0.04738(4)
H25 H 0.2635 0.6924 0.0399
C21 C 0.0155(2) 0.61753(10) 0.00544(4)
H26 H -0.1183 0.5800 0.0129
H27 H 0.1097 0.5701 -0.0114
H28 H -0.0186 0.6806 -0.0121
C22 C 0.18729(19) 0.55889(10) 0.07813(4)
H29 H 0.3118 0.5806 0.0970
C23 C 0.2404(2) 0.45445(10) 0.05631(4)
H30 H 0.1176 0.4327 0.0370
C24 C 0.3044(2) 0.36082(10) 0.08570(4)
H31 H 0.1733 0.3184 0.0935
C25 C 0.4457(2) 0.29744(10) 0.05361(4)
H32 H 0.3461 0.2593 0.0332
C26 C 0.5536(2) 0.38471(10) 0.02777(4)
C27 C 0.6025(3) 0.21534(11) 0.07149(5)
H33 H 0.6786 0.1811 0.0471
H34 H 0.5229 0.1615 0.0882
H35 H 0.7073 0.2505 0.0907
C28 C 0.4235(2) 0.39311(11) 0.12727(4)
H36 H 0.5537 0.4332 0.1195
H37 H 0.4641 0.3292 0.1437
H38 H 0.3292 0.4377 0.1454
O1 O -0.35762(16) 1.34577(8) 0.23357(3)
O2 O 0.00245(15) 0.54218(7) 0.10539(3)
O3 O 0.43201(15) 0.47410(6) 0.02940(3)
O4 O 0.72042(17) 0.38233(8) 0.00759(3)
loop_
_geom_bond_atom_site_label_1
_geom_bond_atom_site_label_2
_geom_bond_site_symmetry_1
_geom_bond_site_symmetry_2
C1 H1 1_555 1_555
C2 C1 1_555 1_555
H2 C2 1_555 1_555
C3 C2 1_555 1_555
C4 C3 1_555 1_555
H3 C4 1_555 1_555
C5 C4 1_555 1_555
C6 C5 1_555 1_555
H4 C6 1_555 1_555
H5 C6 1_555 1_555
C7 C6 1_555 1_555
H6 C7 1_555 1_555
H7 C7 1_555 1_555
C8 C7 1_555 1_555
H8 C8 1_555 1_555
C9 C8 1_555 1_555
H9 C9 1_555 1_555
C10 C1 1_555 1_555
C11 C9 1_555 1_555
H10 C11 1_555 1_555
H11 C11 1_555 1_555
C12 C11 1_555 1_555
H12 C12 1_555 1_555
H13 C12 1_555 1_555
C13 C12 1_555 1_555
C14 C8 1_555 1_555
H14 C14 1_555 1_555
C15 C14 1_555 1_555
H15 C15 1_555 1_555
H16 C15 1_555 1_555
C16 C15 1_555 1_555
H17 C16 1_555 1_555
C17 C13 1_555 1_555
H18 C17 1_555 1_555
C18 C13 1_555 1_555
H19 C18 1_555 1_555
H20 C18 1_555 1_555
H21 C18 1_555 1_555
C19 C10 1_555 1_555
H22 C19 1_555 1_555
H23 C19 1_555 1_555
H24 C19 1_555 1_555
C20 C17 1_555 1_555
H25 C20 1_555 1_555
C21 C20 1_555 1_555
H26 C21 1_555 1_555
H27 C21 1_555 1_555
H28 C21 1_555 1_555
C22 C20 1_555 1_555
H29 C22 1_555 1_555
C23 C22 1_555 1_555
H30 C23 1_555 1_555
C24 C23 1_555 1_555
H31 C24 1_555 1_555
C25 C24 1_555 1_555
H32 C25 1_555 1_555
C26 C25 1_555 1_555
C27 C25 1_555 1_555
H33 C27 1_555 1_555
H34 C27 1_555 1_555
H35 C27 1_555 1_555
C28 C24 1_555 1_555
H36 C28 1_555 1_555
H37 C28 1_555 1_555
H38 C28 1_555 1_555
O1 C3 1_555 1_555
O2 C16 1_555 1_555
O3 C23 1_555 1_555
O4 C26 1_555 1_555
C5 C10 1_555 1_555
C9 C10 1_555 1_555
C13 C14 1_555 1_555
C16 C17 1_555 1_555
C22 O2 1_555 1_555
C26 O3 1_555 1_555

#END
