
#######################################################################
#
#                 Cambridge Crystallographic Data Centre
#                                CCDC 
#
#######################################################################
#
# If this CIF has been generated from an entry in the Cambridge 
# Structural Database, then it will include bibliographic, chemical, 
# crystal, experimental, refinement or atomic coordinate data resulting 
# from the CCDC's data processing and validation procedures.
#
#######################################################################

data_RIMNUY
_chemical_compound_source        'gdmAI -disrupted Streptomyces sp. LZ35'
_chemical_name_common            'hygrocin C'
_chemical_formula_moiety         'C28 H31 N1 O8'
_chemical_name_systematic        
9-Ethyl-4,12,25-trihydroxy-3,13,16-trimethyl-14-oxa-20-azatetracyclo[16.6.1.0^5,24^.0^21,25^]pentacosa-1(24),2,4,10,16,21-hexaene-6,15,19,23-tetrone
_symmetry_cell_setting           monoclinic
_symmetry_space_group_name_H-M   'P 21'
_symmetry_Int_Tables_number      4
_space_group_name_Hall           'P 2yb'
loop_
_symmetry_equiv_pos_site_id
_symmetry_equiv_pos_as_xyz
1 x,y,z
2 -x,1/2+y,-z
_cell_length_a                   9.630(3)
_cell_length_b                   9.913(3)
_cell_length_c                   13.627(4)
_cell_angle_alpha                90
_cell_angle_beta                 90.466(5)
_cell_angle_gamma                90
_cell_volume                     1300.82
_exptl_crystal_colour            yellow
_exptl_crystal_description       block
_cell_formula_units_Z            2
loop_
_atom_site_label
_atom_site_type_symbol
_atom_site_fract_x
_atom_site_fract_y
_atom_site_fract_z
C1 C 0.1792(6) 0.9780(6) -0.0470(4)
C2 C 0.0956(6) 0.8775(6) -0.1089(4)
H1 H 0.1239 0.8850 -0.1776
C3 C -0.0575(6) 0.8965(6) -0.1026(4)
H2 H -0.0969 0.8811 -0.0416
C4 C -0.1449(7) 0.9331(6) -0.1747(4)
C5 C -0.2950(7) 0.9671(9) -0.1549(5)
H3 H -0.3093 1.0622 -0.1636
H4 H -0.3174 0.9424 -0.0888
H5 H -0.3537 0.9183 -0.1998
C6 C -0.1061(7) 0.9554(6) -0.2780(4)
C7 C 0.0354(7) 0.8856(7) -0.4125(4)
H6 H -0.0377 0.9275 -0.4526
C8 C 0.1604(10) 0.9724(8) -0.4113(6)
H7 H 0.1376 1.0585 -0.3835
H8 H 0.1928 0.9846 -0.4771
H9 H 0.2318 0.9304 -0.3724
C9 C 0.0626(8) 0.7418(7) -0.4484(4)
H10 H -0.0228 0.6896 -0.4396
C10 C 0.1754(8) 0.6715(7) -0.3955(4)
H11 H 0.1642 0.6633 -0.3280
C11 C 0.2895(8) 0.6191(8) -0.4307(5)
H12 H 0.3074 0.6318 -0.4971
C12 C 0.3946(8) 0.5390(8) -0.3709(5)
H13 H 0.3828 0.5640 -0.3019
C13 C 0.5420(10) 0.5761(10) -0.3997(6)
H14 H 0.6047 0.5080 -0.3738
H15 H 0.5483 0.5735 -0.4707
C14 C 0.5898(14) 0.7083(15) -0.3659(8)
H16 H 0.6891 0.7131 -0.3708
H17 H 0.5632 0.7212 -0.2988
H18 H 0.5485 0.7774 -0.4059
C15 C 0.3680(9) 0.3878(8) -0.3795(5)
H19 H 0.4063 0.3557 -0.4408
H20 H 0.2686 0.3721 -0.3815
C16 C 0.4314(9) 0.3062(8) -0.2948(5)
H21 H 0.4428 0.2138 -0.3168
H22 H 0.5234 0.3418 -0.2811
C17 C 0.3505(7) 0.3042(7) -0.1991(5)
C18 C 0.2364(7) 0.4033(7) -0.1835(5)
C19 C 0.1042(7) 0.3682(7) -0.2165(4)
C20 C -0.0104(7) 0.4537(7) -0.2062(4)
C21 C -0.1523(8) 0.4087(7) -0.2400(5)
H23 H -0.2201 0.4745 -0.2209
H24 H -0.1741 0.3235 -0.2105
H25 H -0.1532 0.3995 -0.3101
C22 C 0.0096(7) 0.5765(7) -0.1602(4)
H26 H -0.0650 0.6352 -0.1534
C23 C 0.1410(6) 0.6143(6) -0.1235(4)
C24 C 0.1541(6) 0.7425(6) -0.0650(4)
C25 C 0.3034(6) 0.7820(6) -0.0465(4)
C26 C 0.4109(6) 0.7023(7) -0.0555(4)
H27 H 0.4981 0.7315 -0.0348
C27 C 0.3950(7) 0.5679(6) -0.0979(4)
C28 C 0.2525(7) 0.5291(6) -0.1342(4)
N1 N 0.2997(6) 0.9169(6) -0.0198(4)
H28 H 0.3661 0.9569 0.0111
O1 O 0.1472(5) 1.0900(5) -0.0266(4)
O2 O 0.1016(5) 0.7267(4) 0.0311(3)
H29 H 0.0227 0.6953 0.0283
O3 O 0.4917(5) 0.4935(5) -0.1115(4)
O4 O 0.3767(6) 0.2174(6) -0.1392(4)
O5 O 0.0934(6) 0.2473(6) -0.2630(5)
H30 H 0.0125 0.2353 -0.2803
O6 O 0.0864(7) 0.7541(6) -0.5510(3)
H31 H 0.0984 0.6790 -0.5750
O7 O -0.0137(5) 0.8672(5) -0.3111(3)
O8 O -0.1550(7) 1.0443(5) -0.3279(4)
loop_
_geom_bond_atom_site_label_1
_geom_bond_atom_site_label_2
_geom_bond_site_symmetry_1
_geom_bond_site_symmetry_2
C1 C2 1_555 1_555
C2 H1 1_555 1_555
C3 C2 1_555 1_555
H2 C3 1_555 1_555
C4 C3 1_555 1_555
C5 C4 1_555 1_555
H3 C5 1_555 1_555
H4 C5 1_555 1_555
H5 C5 1_555 1_555
C6 C4 1_555 1_555
C7 H6 1_555 1_555
C8 C7 1_555 1_555
H7 C8 1_555 1_555
H8 C8 1_555 1_555
H9 C8 1_555 1_555
C9 C7 1_555 1_555
H10 C9 1_555 1_555
C10 C9 1_555 1_555
H11 C10 1_555 1_555
C11 C10 1_555 1_555
H12 C11 1_555 1_555
C12 C11 1_555 1_555
H13 C12 1_555 1_555
C13 C12 1_555 1_555
H14 C13 1_555 1_555
H15 C13 1_555 1_555
C14 C13 1_555 1_555
H16 C14 1_555 1_555
H17 C14 1_555 1_555
H18 C14 1_555 1_555
C15 C12 1_555 1_555
H19 C15 1_555 1_555
H20 C15 1_555 1_555
C16 C15 1_555 1_555
H21 C16 1_555 1_555
H22 C16 1_555 1_555
C17 C16 1_555 1_555
C18 C17 1_555 1_555
C19 C18 1_555 1_555
C20 C19 1_555 1_555
C21 C20 1_555 1_555
H23 C21 1_555 1_555
H24 C21 1_555 1_555
H25 C21 1_555 1_555
C22 C20 1_555 1_555
H26 C22 1_555 1_555
C23 C22 1_555 1_555
C24 C2 1_555 1_555
C25 C24 1_555 1_555
C26 C25 1_555 1_555
H27 C26 1_555 1_555
C27 C26 1_555 1_555
C28 C18 1_555 1_555
N1 C1 1_555 1_555
H28 N1 1_555 1_555
O1 C1 1_555 1_555
O2 C24 1_555 1_555
H29 O2 1_555 1_555
O3 C27 1_555 1_555
O4 C17 1_555 1_555
O5 C19 1_555 1_555
H30 O5 1_555 1_555
O6 C9 1_555 1_555
H31 O6 1_555 1_555
O7 C6 1_555 1_555
O8 C6 1_555 1_555
C7 O7 1_555 1_555
C23 C24 1_555 1_555
C23 C28 1_555 1_555
C25 N1 1_555 1_555
C27 C28 1_555 1_555

#END
