
#######################################################################
#
#                 Cambridge Crystallographic Data Centre
#                                CCDC 
#
#######################################################################
#
# If this CIF has been generated from an entry in the Cambridge 
# Structural Database, then it will include bibliographic, chemical, 
# crystal, experimental, refinement or atomic coordinate data resulting 
# from the CCDC's data processing and validation procedures.
#
#######################################################################

data_RIMPUA
_chemical_compound_source        'Plumbago zeylanica'
_chemical_formula_moiety         'C16 H27 N3 O4,C1 H4 O1'
_chemical_name_systematic        
'2-(3-(t-Butoxycarbonyl)-2-iminioimidazolidin-4-yl)-6-methylhept-5-enoate methanol solvate'
_symmetry_cell_setting           monoclinic
_symmetry_space_group_name_H-M   'C 2'
_symmetry_Int_Tables_number      5
_space_group_name_Hall           'C 2y'
loop_
_symmetry_equiv_pos_site_id
_symmetry_equiv_pos_as_xyz
1 x,y,z
2 -x,y,-z
3 1/2+x,1/2+y,z
4 1/2-x,1/2+y,-z
_cell_length_a                   19.4525(4)
_cell_length_b                   6.8143(2)
_cell_length_c                   14.9925(4)
_cell_angle_alpha                90
_cell_angle_beta                 90.9140(10)
_cell_angle_gamma                90
_cell_volume                     1987.08
_exptl_crystal_description       block
_cell_formula_units_Z            4
loop_
_atom_site_label
_atom_site_type_symbol
_atom_site_fract_x
_atom_site_fract_y
_atom_site_fract_z
N1 N 0.37449(9) 0.9911(4) 0.47063(11)
N2 N 0.36108(8) 0.9956(3) 0.62838(11)
N3 N 0.27132(9) 1.0551(3) 0.54059(12)
H1 H 0.2457 1.0579 0.4917
O1 O 0.43641(7) 0.9837(3) 0.74047(9)
O2 O 0.47584(7) 0.9761(3) 0.59857(10)
O3 O 0.29534(8) 0.5999(3) 0.62046(10)
O4 O 0.19188(8) 0.6445(3) 0.67702(11)
C1 C 0.33748(10) 1.0130(4) 0.54174(13)
C2 C 0.24539(11) 1.0963(4) 0.62935(14)
H2 H 0.2017 1.0263 0.6398
H3 H 0.2382 1.2388 0.6381
C3 C 0.30379(10) 1.0180(3) 0.69165(13)
H4 H 0.3162 1.1217 0.7363
C4 C 0.28533(10) 0.8283(4) 0.74125(14)
H5 H 0.3287 0.7719 0.7672
C5 C 0.25446(10) 0.6771(4) 0.67533(14)
C6 C 0.23724(11) 0.8764(4) 0.81835(15)
H6 H 0.2550 0.9935 0.8503
H7 H 0.1912 0.9094 0.7935
C7 C 0.23000(11) 0.7079(4) 0.88500(15)
H8 H 0.1901 0.7335 0.9235
H9 H 0.2211 0.5843 0.8521
C8 C 0.29371(13) 0.6841(5) 0.94254(16)
H10 H 0.3013 0.7816 0.9869
C9 C 0.34022(12) 0.5431(4) 0.93828(16)
C10 C 0.33606(15) 0.3771(5) 0.8720(2)
H11 H 0.2931 0.3875 0.8372
H12 H 0.3371 0.2515 0.9038
H13 H 0.3752 0.3844 0.8318
C11 C 0.40332(15) 0.5346(5) 0.9971(2)
H14 H 0.4026 0.6435 1.0398
H15 H 0.4444 0.5448 0.9604
H16 H 0.4042 0.4098 1.0296
C12 C 0.43042(10) 0.9850(4) 0.65219(14)
C13 C 0.50595(10) 0.9879(4) 0.78403(14)
C14 C 0.48767(12) 0.9812(6) 0.88225(15)
H17 H 0.4585 1.0938 0.8965
H18 H 0.5299 0.9863 0.9188
H19 H 0.4629 0.8593 0.8947
C15 C 0.54673(15) 0.8072(5) 0.7577(2)
H20 H 0.5185 0.6896 0.7659
H21 H 0.5883 0.7977 0.7953
H22 H 0.5597 0.8177 0.6950
C16 C 0.54102(12) 1.1784(5) 0.76172(17)
H23 H 0.5502 1.1827 0.6977
H24 H 0.5845 1.1879 0.7953
H25 H 0.5112 1.2884 0.7776
H26 H 0.4161(13) 0.971(5) 0.4761(17)
H27 H 0.3531(14) 1.033(6) 0.416(2)
O5 O 0.41880(12) 0.4528(5) 0.66540(17)
H28 H 0.3775 0.4858 0.6576
C17 C 0.45273(18) 0.4694(7) 0.5870(3)
H29 H 0.4531 0.6071 0.5683
H30 H 0.4294 0.3900 0.5412
H31 H 0.5001 0.4229 0.5952
loop_
_geom_bond_atom_site_label_1
_geom_bond_atom_site_label_2
_geom_bond_site_symmetry_1
_geom_bond_site_symmetry_2
N1 C1 1_555 1_555
N2 C1 1_555 1_555
N3 H1 1_555 1_555
O1 C12 1_555 1_555
O2 C12 1_555 1_555
O3 C5 1_555 1_555
O4 C5 1_555 1_555
C1 N3 1_555 1_555
C2 N3 1_555 1_555
H2 C2 1_555 1_555
H3 C2 1_555 1_555
C3 N2 1_555 1_555
H4 C3 1_555 1_555
C4 C3 1_555 1_555
H5 C4 1_555 1_555
C5 C4 1_555 1_555
C6 C4 1_555 1_555
H6 C6 1_555 1_555
H7 C6 1_555 1_555
C7 C6 1_555 1_555
H8 C7 1_555 1_555
H9 C7 1_555 1_555
C8 C7 1_555 1_555
H10 C8 1_555 1_555
C9 C8 1_555 1_555
C10 C9 1_555 1_555
H11 C10 1_555 1_555
H12 C10 1_555 1_555
H13 C10 1_555 1_555
C11 C9 1_555 1_555
H14 C11 1_555 1_555
H15 C11 1_555 1_555
H16 C11 1_555 1_555
C12 N2 1_555 1_555
C13 O1 1_555 1_555
C14 C13 1_555 1_555
H17 C14 1_555 1_555
H18 C14 1_555 1_555
H19 C14 1_555 1_555
C15 C13 1_555 1_555
H20 C15 1_555 1_555
H21 C15 1_555 1_555
H22 C15 1_555 1_555
C16 C13 1_555 1_555
H23 C16 1_555 1_555
H24 C16 1_555 1_555
H25 C16 1_555 1_555
H26 N1 1_555 1_555
H27 N1 1_555 1_555
O5 H28 1_555 1_555
C17 O5 1_555 1_555
H29 C17 1_555 1_555
H30 C17 1_555 1_555
H31 C17 1_555 1_555
C2 C3 1_555 1_555

#END
