
#######################################################################
#
#                 Cambridge Crystallographic Data Centre
#                                CCDC 
#
#######################################################################
#
# If this CIF has been generated from an entry in the Cambridge 
# Structural Database, then it will include bibliographic, chemical, 
# crystal, experimental, refinement or atomic coordinate data resulting 
# from the CCDC's data processing and validation procedures.
#
#######################################################################

data_RIMQIP
_chemical_compound_source        'Cinnamomum wilsonii'
_chemical_name_common            'Wilsonol E'
_chemical_formula_moiety         'C13 H26 O3'
_chemical_name_systematic        
4-(3-Hydroxybutyl)-3,5,5-trimethylcyclohexane-1,2-diol
_symmetry_cell_setting           monoclinic
_symmetry_space_group_name_H-M   'P 21'
_symmetry_Int_Tables_number      4
_space_group_name_Hall           'P 2yb'
loop_
_symmetry_equiv_pos_site_id
_symmetry_equiv_pos_as_xyz
1 x,y,z
2 -x,1/2+y,-z
_cell_length_a                   6.7617(3)
_cell_length_b                   7.8646(3)
_cell_length_c                   12.6936(5)
_cell_angle_alpha                90
_cell_angle_beta                 102.866(2)
_cell_angle_gamma                90
_cell_volume                     658.074
_cell_formula_units_Z            2
loop_
_atom_site_label
_atom_site_type_symbol
_atom_site_fract_x
_atom_site_fract_y
_atom_site_fract_z
C1 C 0.3997(3) 0.0109(2) 0.80878(15)
C2 C 0.1785(3) -0.0489(3) 0.77657(15)
H1 H 0.1643 -0.1477 0.8200
H2 H 0.0936 0.0400 0.7957
C3 C 0.0957(3) -0.0948(3) 0.65849(16)
H3 H -0.0520 -0.1065 0.6462
C4 C 0.1437(3) 0.0438(2) 0.58373(15)
H4 H 0.1118 -0.0001 0.5096
C5 C 0.3669(3) 0.0980(2) 0.61153(15)
H5 H 0.4478 -0.0019 0.6020
C6 C 0.4344(3) 0.1535(2) 0.72996(15)
H6 H 0.3425 0.2460 0.7391
C7 C 0.5462(4) -0.1395(3) 0.8097(2)
H7 H 0.6830 -0.1024 0.8382
H8 H 0.5341 -0.1806 0.7373
H9 H 0.5129 -0.2291 0.8541
C8 C 0.4344(4) 0.0803(4) 0.92388(16)
H10 H 0.4052 -0.0068 0.9711
H11 H 0.3467 0.1759 0.9253
H12 H 0.5732 0.1155 0.9475
C9 C 0.4040(4) 0.2329(4) 0.53165(19)
H13 H 0.3518 0.1937 0.4592
H14 H 0.5470 0.2536 0.5423
H15 H 0.3365 0.3364 0.5432
C10 C 0.6522(8) 0.2292(8) 0.7642(7)
H16 H 0.7119 0.1923 0.8372
H17 H 0.7340 0.1830 0.7172
C11 C 0.6620(8) 0.4189(7) 0.7603(5)
H18 H 0.5807 0.4643 0.8078
H19 H 0.5994 0.4551 0.6874
C12 C 0.8746(6) 0.4997(6) 0.7919(3)
H20 H 0.8510 0.6215 0.8001
C13 C 0.9977(10) 0.4439(9) 0.8975(6)
H21 H 1.0301 0.3255 0.8939
H22 H 0.9221 0.4609 0.9524
H23 H 1.1207 0.5091 0.9149
O1 O 0.9812(18) 0.4879(17) 0.7078(9)
H24 H 0.9035 0.4561 0.6521
O2 O 0.1777(2) -0.25057(19) 0.62743(12)
H25 H 0.1358 -0.3307 0.6576
O3 O 0.0128(2) 0.18521(18) 0.58925(11)
H26 H -0.0379 0.2185 0.5280
C14? C 0.6515(14) 0.2017(14) 0.7436(10)
H27? H 0.7319 0.1170 0.7898
H28? H 0.6850 0.1931 0.6734
C15? C 0.7177(11) 0.3673(12) 0.7876(7)
H29? H 0.6698 0.3818 0.8536
H30? H 0.6502 0.4524 0.7368
C16? C 0.9385(9) 0.4052(8) 0.8125(5)
H31? H 1.0100 0.2999 0.8391
C17? C 0.9878(13) 0.5321(13) 0.9009(8)
H32? H 1.1270 0.5663 0.9105
H33? H 0.9669 0.4826 0.9667
H34? H 0.9015 0.6296 0.8827
O4? O 1.013(3) 0.460(3) 0.7222(14)
H35? H 0.9924 0.3865 0.6754
loop_
_geom_bond_atom_site_label_1
_geom_bond_atom_site_label_2
_geom_bond_site_symmetry_1
_geom_bond_site_symmetry_2
C1 C2 1_555 1_555
C2 H1 1_555 1_555
H2 C2 1_555 1_555
C3 C2 1_555 1_555
H3 C3 1_555 1_555
C4 C3 1_555 1_555
H4 C4 1_555 1_555
C5 C4 1_555 1_555
H5 C5 1_555 1_555
C6 C1 1_555 1_555
H6 C6 1_555 1_555
C7 C1 1_555 1_555
H7 C7 1_555 1_555
H8 C7 1_555 1_555
H9 C7 1_555 1_555
C8 C1 1_555 1_555
H10 C8 1_555 1_555
H11 C8 1_555 1_555
H12 C8 1_555 1_555
C9 C5 1_555 1_555
H13 C9 1_555 1_555
H14 C9 1_555 1_555
H15 C9 1_555 1_555
C10 C6 1_555 1_555
H16 C10 1_555 1_555
H17 C10 1_555 1_555
C11 C10 1_555 1_555
H18 C11 1_555 1_555
H19 C11 1_555 1_555
C12 C11 1_555 1_555
H20 C12 1_555 1_555
C13 C12 1_555 1_555
H21 C13 1_555 1_555
H22 C13 1_555 1_555
H23 C13 1_555 1_555
O1 C12 1_555 1_555
H24 O1 1_555 1_555
O2 C3 1_555 1_555
H25 O2 1_555 1_555
O3 C4 1_555 1_555
H26 O3 1_555 1_555
C5 C6 1_555 1_555

#END
