
#######################################################################
#
#                 Cambridge Crystallographic Data Centre
#                                CCDC 
#
#######################################################################
#
# If this CIF has been generated from an entry in the Cambridge 
# Structural Database, then it will include bibliographic, chemical, 
# crystal, experimental, refinement or atomic coordinate data resulting 
# from the CCDC's data processing and validation procedures.
#
#######################################################################

data_RIMQUB
_chemical_compound_source        'Cinnamomum wilsonii'
_chemical_name_common            'Wilsonol C'
_chemical_formula_moiety         'C13 H22 O4'
_chemical_name_systematic        
4-(1,4,5-Trihydroxy-2,2,6-trimethylcyclohexyl)but-3-en-2-one
_symmetry_cell_setting           orthorhombic
_symmetry_space_group_name_H-M   'P 21 21 21'
_symmetry_Int_Tables_number      19
_space_group_name_Hall           'P 2ac 2ab'
loop_
_symmetry_equiv_pos_site_id
_symmetry_equiv_pos_as_xyz
1 x,y,z
2 1/2+x,1/2-y,-z
3 -x,1/2+y,1/2-z
4 1/2-x,-y,1/2+z
_cell_length_a                   8.0315(2)
_cell_length_b                   10.5320(2)
_cell_length_c                   15.8116(3)
_cell_angle_alpha                90
_cell_angle_beta                 90
_cell_angle_gamma                90
_cell_volume                     1337.47
_exptl_crystal_description       block
_cell_formula_units_Z            4
loop_
_atom_site_label
_atom_site_type_symbol
_atom_site_fract_x
_atom_site_fract_y
_atom_site_fract_z
C1 C 0.65901(19) 0.36694(17) 0.69154(10)
C2 C 0.6888(2) 0.22444(17) 0.70765(11)
H1 H 0.6330 0.2015 0.7599
H2 H 0.6360 0.1771 0.6624
C3 C 0.8696(2) 0.18135(17) 0.71387(11)
H3 H 0.8722 0.0883 0.7145
C4 C 0.97154(19) 0.22764(14) 0.63916(10)
H4 H 1.0892 0.2095 0.6503
C5 C 0.95183(17) 0.37113(13) 0.62485(9)
H5 H 0.9912 0.4138 0.6762
C6 C 0.76514(17) 0.40806(14) 0.61292(8)
C7 C 0.75658(19) 0.54891(14) 0.59837(10)
H6 H 0.7843 0.6011 0.6437
C8 C 0.7132(3) 0.60520(16) 0.52704(10)
H7 H 0.6722 0.5547 0.4835
C9 C 0.7257(3) 0.74293(18) 0.51218(11)
C10 C 0.7450(4) 0.83322(19) 0.58377(13)
H8 H 0.7774 0.9149 0.5624
H9 H 0.8289 0.8023 0.6218
H10 H 0.6410 0.8408 0.6134
C11 C 0.6998(3) 0.44780(19) 0.77005(11)
H11 H 0.6428 0.4138 0.8184
H12 H 0.6643 0.5337 0.7607
H13 H 0.8176 0.4463 0.7801
C12 C 0.4728(2) 0.3848(2) 0.67123(14)
H14 H 0.4080 0.3688 0.7211
H15 H 0.4406 0.3265 0.6275
H16 H 0.4538 0.4703 0.6524
C13 C 1.0603(2) 0.41660(15) 0.55219(12)
H17 H 1.1722 0.3868 0.5602
H18 H 1.0599 0.5077 0.5505
H19 H 1.0174 0.3840 0.4998
O1 O 0.9538(2) 0.22663(17) 0.78661(8)
H20 H 0.8897 0.2269 0.8270
O2 O 0.92071(14) 0.15652(11) 0.56614(7)
H21 H 0.9999 0.1487 0.5338
O3 O 0.70239(14) 0.34624(10) 0.53856(6)
H22 H 0.7523 0.2792 0.5313
O4 O 0.7198(4) 0.78314(15) 0.44058(9)
loop_
_geom_bond_atom_site_label_1
_geom_bond_atom_site_label_2
_geom_bond_site_symmetry_1
_geom_bond_site_symmetry_2
C1 C2 1_555 1_555
C2 H1 1_555 1_555
H2 C2 1_555 1_555
C3 C2 1_555 1_555
H3 C3 1_555 1_555
C4 C3 1_555 1_555
H4 C4 1_555 1_555
C5 C4 1_555 1_555
H5 C5 1_555 1_555
C6 C1 1_555 1_555
C7 C6 1_555 1_555
H6 C7 1_555 1_555
C8 C7 1_555 1_555
H7 C8 1_555 1_555
C9 C8 1_555 1_555
C10 C9 1_555 1_555
H8 C10 1_555 1_555
H9 C10 1_555 1_555
H10 C10 1_555 1_555
C11 C1 1_555 1_555
H11 C11 1_555 1_555
H12 C11 1_555 1_555
H13 C11 1_555 1_555
C12 C1 1_555 1_555
H14 C12 1_555 1_555
H15 C12 1_555 1_555
H16 C12 1_555 1_555
C13 C5 1_555 1_555
H17 C13 1_555 1_555
H18 C13 1_555 1_555
H19 C13 1_555 1_555
O1 C3 1_555 1_555
H20 O1 1_555 1_555
O2 C4 1_555 1_555
H21 O2 1_555 1_555
O3 C6 1_555 1_555
H22 O3 1_555 1_555
O4 C9 1_555 1_555
C5 C6 1_555 1_555

#END
