
#######################################################################
#
#                 Cambridge Crystallographic Data Centre
#                                CCDC 
#
#######################################################################
#
# If this CIF has been generated from an entry in the Cambridge 
# Structural Database, then it will include bibliographic, chemical, 
# crystal, experimental, refinement or atomic coordinate data resulting 
# from the CCDC's data processing and validation procedures.
#
#######################################################################

data_RIMREM
_chemical_compound_source        'Cinnamomum wilsonii'
_chemical_name_common            'Wilsonol A monohydrate'
_chemical_formula_moiety         'C13 H24 O4,H2 O1'
_chemical_name_systematic        
'4-(3-Hydroxybut-1-en-1-yl)-3,5,5-trimethylcyclohexane-1,2,4-triol monohydrate'
_symmetry_cell_setting           monoclinic
_symmetry_space_group_name_H-M   'P 21'
_symmetry_Int_Tables_number      4
_space_group_name_Hall           'P 2yb'
loop_
_symmetry_equiv_pos_site_id
_symmetry_equiv_pos_as_xyz
1 x,y,z
2 -x,1/2+y,-z
_cell_length_a                   6.0818(2)
_cell_length_b                   19.4319(7)
_cell_length_c                   12.9792(4)
_cell_angle_alpha                90
_cell_angle_beta                 90.883(2)
_cell_angle_gamma                90
_cell_volume                     1533.71
_cell_formula_units_Z            4
loop_
_atom_site_label
_atom_site_type_symbol
_atom_site_fract_x
_atom_site_fract_y
_atom_site_fract_z
C1 C 0.3175(2) 0.98344(7) 0.75874(10)
C2 C 0.4677(2) 1.04249(8) 0.79572(11)
H1 H 0.5263 1.0306 0.8633
H2 H 0.5909 1.0455 0.7494
C3 C 0.3624(2) 1.11345(8) 0.80263(10)
H3 H 0.4783 1.1477 0.8148
C4 C 0.2383(2) 1.13191(7) 0.70324(10)
H4 H 0.1519 1.1737 0.7149
C5 C 0.0841(2) 1.07477(7) 0.66652(10)
H5 H -0.0241 1.0679 0.7207
C6 C 0.2072(2) 1.00551(7) 0.65362(10)
C7 C 0.0485(2) 0.95147(8) 0.61558(11)
H6 H -0.0832 0.9483 0.6508
C8 C 0.0727(2) 0.90826(7) 0.53895(11)
H7 H 0.2017 0.9107 0.5016
C9 C -0.0943(3) 0.85535(8) 0.50792(12)
H8 H -0.2231 0.8598 0.5519
C10 C -0.0061(4) 0.78259(10) 0.51583(19)
H9 H -0.1162 0.7508 0.4916
H10 H 0.0311 0.7725 0.5864
H11 H 0.1228 0.7784 0.4745
C11 C 0.1448(3) 0.96532(9) 0.84022(12)
H12 H 0.0637 0.9254 0.8183
H13 H 0.0459 1.0034 0.8482
H14 H 0.2176 0.9559 0.9049
C12 C 0.4601(3) 0.91914(9) 0.74360(15)
H15 H 0.5642 0.9276 0.6902
H16 H 0.3681 0.8810 0.7244
H17 H 0.5374 0.9087 0.8067
C13 C -0.0434(3) 1.09666(9) 0.56945(12)
H18 H -0.1216 1.1386 0.5828
H19 H -0.1461 1.0612 0.5503
H20 H 0.0574 1.1040 0.5143
O1 O 0.20586(19) 1.11820(6) 0.88395(7)
H21 H 0.2634 1.1054 0.9382
O2 O 0.3934(2) 1.14517(6) 0.62386(8)
H22 H 0.4469 1.1835 0.6322
O3 O 0.37635(16) 1.01316(5) 0.57746(7)
H23 H 0.4207 1.0530 0.5776
O4 O -0.1613(2) 0.86542(6) 0.40182(8)
H24 H -0.2382 0.9000 0.3972
C14 C 0.5331(2) 0.61139(7) 0.74350(10)
C15 C 0.6896(2) 0.55814(8) 0.69682(11)
H25 H 0.7307 0.5742 0.6290
H26 H 0.8225 0.5568 0.7391
C16 C 0.6035(2) 0.48532(8) 0.68616(11)
H27 H 0.7269 0.4554 0.6684
C17 C 0.5074(3) 0.45939(7) 0.78650(10)
H28 H 0.4319 0.4156 0.7734
C18 C 0.3450(2) 0.51004(7) 0.83341(10)
H29 H 0.2231 0.5152 0.7838
C19 C 0.4477(2) 0.58245(7) 0.84896(9)
C20 C 0.2787(2) 0.63071(8) 0.89271(11)
H30 H 0.1379 0.6280 0.8641
C21 C 0.3075(3) 0.67606(8) 0.96641(11)
H31 H 0.4423 0.6764 1.0012
C22 C 0.1379(4) 0.72741(10) 0.99842(13)
H32 H 0.0012 0.7189 0.9596
C23 C 0.2138(9) 0.79941(12) 0.9777(3)
H33 H 0.0997 0.8312 0.9954
H34 H 0.2469 0.8042 0.9060
H35 H 0.3432 0.8089 1.0185
C24 C 0.3428(3) 0.62826(9) 0.66826(12)
H36 H 0.4012 0.6413 0.6028
H37 H 0.2577 0.6655 0.6953
H38 H 0.2509 0.5885 0.6597
C25 C 0.6622(4) 0.67829(10) 0.76185(15)
H39 H 0.7263 0.6931 0.6984
H40 H 0.7765 0.6704 0.8123
H41 H 0.5645 0.7133 0.7863
C26 C 0.2481(3) 0.47988(10) 0.93210(12)
H42 H 0.1777 0.4368 0.9166
H43 H 0.1423 0.5114 0.9594
H44 H 0.3639 0.4726 0.9821
O5 O 0.43646(18) 0.47792(6) 0.60798(7)
H45 H 0.4885 0.4865 0.5515
O6 O 0.6818(2) 0.44818(7) 0.85957(9)
H46 H 0.7610 0.4170 0.8393
O7 O 0.62891(16) 0.57830(6) 0.92160(7)
H47 H 0.6912 0.5411 0.9153
O8 O 0.0953(2) 0.72289(6) 1.10576(9)
H48 H 0.0140 0.6901 1.1165
O9 O 0.8769(2) 0.33453(7) 0.76612(10)
H49 H 0.910(4) 0.3001(10) 0.8011(18)
H50 H 0.978(3) 0.3393(14) 0.7246(17)
O10 O 0.5106(3) 0.27539(8) 0.6581(2)
H51 H 0.433(6) 0.3054(17) 0.632(3)
H52 H 0.617(5) 0.291(2) 0.689(3)
loop_
_geom_bond_atom_site_label_1
_geom_bond_atom_site_label_2
_geom_bond_site_symmetry_1
_geom_bond_site_symmetry_2
C1 C2 1_555 1_555
C2 H1 1_555 1_555
H2 C2 1_555 1_555
C3 C2 1_555 1_555
H3 C3 1_555 1_555
C4 C3 1_555 1_555
H4 C4 1_555 1_555
C5 C4 1_555 1_555
H5 C5 1_555 1_555
C6 C1 1_555 1_555
C7 C6 1_555 1_555
H6 C7 1_555 1_555
C8 C7 1_555 1_555
H7 C8 1_555 1_555
C9 C8 1_555 1_555
H8 C9 1_555 1_555
C10 C9 1_555 1_555
H9 C10 1_555 1_555
H10 C10 1_555 1_555
H11 C10 1_555 1_555
C11 C1 1_555 1_555
H12 C11 1_555 1_555
H13 C11 1_555 1_555
H14 C11 1_555 1_555
C12 C1 1_555 1_555
H15 C12 1_555 1_555
H16 C12 1_555 1_555
H17 C12 1_555 1_555
C13 C5 1_555 1_555
H18 C13 1_555 1_555
H19 C13 1_555 1_555
H20 C13 1_555 1_555
O1 C3 1_555 1_555
H21 O1 1_555 1_555
O2 C4 1_555 1_555
H22 O2 1_555 1_555
O3 C6 1_555 1_555
H23 O3 1_555 1_555
O4 C9 1_555 1_555
H24 O4 1_555 1_555
C14 C15 1_555 1_555
C15 H25 1_555 1_555
H26 C15 1_555 1_555
C16 C15 1_555 1_555
H27 C16 1_555 1_555
C17 C16 1_555 1_555
H28 C17 1_555 1_555
C18 C17 1_555 1_555
H29 C18 1_555 1_555
C19 C14 1_555 1_555
C20 C19 1_555 1_555
H30 C20 1_555 1_555
C21 C20 1_555 1_555
H31 C21 1_555 1_555
C22 C21 1_555 1_555
H32 C22 1_555 1_555
C23 C22 1_555 1_555
H33 C23 1_555 1_555
H34 C23 1_555 1_555
H35 C23 1_555 1_555
C24 C14 1_555 1_555
H36 C24 1_555 1_555
H37 C24 1_555 1_555
H38 C24 1_555 1_555
C25 C14 1_555 1_555
H39 C25 1_555 1_555
H40 C25 1_555 1_555
H41 C25 1_555 1_555
C26 C18 1_555 1_555
H42 C26 1_555 1_555
H43 C26 1_555 1_555
H44 C26 1_555 1_555
O5 C16 1_555 1_555
H45 O5 1_555 1_555
O6 C17 1_555 1_555
H46 O6 1_555 1_555
O7 C19 1_555 1_555
H47 O7 1_555 1_555
O8 C22 1_555 1_555
H48 O8 1_555 1_555
O9 H49 1_555 1_555
H50 O9 1_555 1_555
O10 H51 1_555 1_555
H52 O10 1_555 1_555
C5 C6 1_555 1_555
C18 C19 1_555 1_555

#END
