
#######################################################################
#
#                 Cambridge Crystallographic Data Centre
#                                CCDC 
#
#######################################################################
#
# If this CIF has been generated from an entry in the Cambridge 
# Structural Database, then it will include bibliographic, chemical, 
# crystal, experimental, refinement or atomic coordinate data resulting 
# from the CCDC's data processing and validation procedures.
#
#######################################################################

data_RIMSOX
_chemical_compound_source        'roots of Alangium chinense'
_chemical_name_common            (3S,4R,5S,8R,10R)-Tetrahydroperezinone
_chemical_formula_moiety         'C15 H21 O3'
_chemical_name_systematic        
8b-Hydroxy-2,2,5,8-tetramethyl-2a,4,5,8,8a,8b-hexahydro-2H-naphtho[1,8-bc]furan-7(3H)-one
_symmetry_cell_setting           orthorhombic
_symmetry_space_group_name_H-M   'P 21 21 21'
_symmetry_Int_Tables_number      19
_space_group_name_Hall           'P 2ac 2ab'
loop_
_symmetry_equiv_pos_site_id
_symmetry_equiv_pos_as_xyz
1 x,y,z
2 1/2-x,-y,1/2+z
3 1/2+x,1/2-y,-z
4 -x,1/2+y,1/2-z
_cell_length_a                   9.003(3)
_cell_length_b                   8.280(5)
_cell_length_c                   18.182(5)
_cell_angle_alpha                90
_cell_angle_beta                 90
_cell_angle_gamma                90
_cell_volume                     1355.37
_exptl_crystal_colour            colorless
_exptl_crystal_description       Prism
_chemical_melting_point          '146-147 deg.C'
_cell_formula_units_Z            4
_exptl_crystal_recrystallization_method dichloromethane/methanol
loop_
_atom_site_label
_atom_site_type_symbol
_atom_site_fract_x
_atom_site_fract_y
_atom_site_fract_z
O1 O -0.38521(16) -0.03648(19) -0.83905(7)
O2 O -0.19279(14) 0.00380(17) -0.65725(7)
O3 O -0.36410(16) -0.36529(16) -0.60344(8)
H1 H -0.452(2) -0.412(4) -0.6242(15)
C1 C -0.64043(19) -0.1566(3) -0.61079(10)
H2 H -0.6419 -0.2629 -0.5871
C2 C -0.6153(2) -0.0321(3) -0.55033(12)
H3 H -0.6986 -0.0345 -0.5165
H4 H -0.6110 0.0748 -0.5720
C3 C -0.4718(3) -0.0642(3) -0.50795(10)
H5 H -0.4684 -0.0656 -0.4568
C4 C -0.3337(2) -0.0938(2) -0.55556(8)
H6 H -0.2641 -0.1547 -0.5248
C5 C -0.36240(19) -0.1989(2) -0.62385(8)
C6 C -0.50683(17) -0.1537(2) -0.66098(9)
C7 C -0.51100(19) -0.1073(2) -0.73114(10)
H7 H -0.6020 -0.0767 -0.7510
C8 C -0.3794(2) -0.1018(2) -0.77872(9)
C9 C -0.2428(2) -0.1880(2) -0.75213(9)
H8 H -0.2615 -0.3037 -0.7588
C10 C -0.22451(18) -0.1608(2) -0.67010(9)
H9 H -0.1413 -0.2263 -0.6523
C11 C -0.2461(2) 0.0531(2) -0.58508(9)
C12 C -0.7883(2) -0.1368(4) -0.64994(16)
H10 H -0.8674 -0.1400 -0.6146
H11 H -0.8009 -0.2229 -0.6848
H12 H -0.7899 -0.0351 -0.6753
C13 C -0.1037(2) -0.1488(4) -0.79643(12)
H13 H -0.1222 -0.1686 -0.8476
H14 H -0.0232 -0.2157 -0.7800
H15 H -0.0781 -0.0373 -0.7895
C14 C -0.3342(3) 0.2060(3) -0.59804(14)
H16 H -0.2690 0.2893 -0.6157
H17 H -0.3792 0.2401 -0.5528
H18 H -0.4101 0.1858 -0.6339
C15 C -0.1126(3) 0.0882(3) -0.53649(12)
H19 H -0.0595 0.1795 -0.5557
H20 H -0.0483 -0.0043 -0.5357
H21 H -0.1457 0.1115 -0.4874
loop_
_geom_bond_atom_site_label_1
_geom_bond_atom_site_label_2
_geom_bond_site_symmetry_1
_geom_bond_site_symmetry_2
O1 C8 1_555 1_555
O2 C10 1_555 1_555
O3 H1 1_555 1_555
C1 H2 1_555 1_555
C2 C1 1_555 1_555
H3 C2 1_555 1_555
H4 C2 1_555 1_555
C3 C2 1_555 1_555
H5 C3 1_555 1_555
C4 C3 1_555 1_555
H6 C4 1_555 1_555
C5 O3 1_555 1_555
C6 C1 1_555 1_555
C7 C6 1_555 1_555
H7 C7 1_555 1_555
C8 C7 1_555 1_555
C9 C8 1_555 1_555
H8 C9 1_555 1_555
C10 C5 1_555 1_555
H9 C10 1_555 1_555
C11 O2 1_555 1_555
C12 C1 1_555 1_555
H10 C12 1_555 1_555
H11 C12 1_555 1_555
H12 C12 1_555 1_555
C13 C9 1_555 1_555
H13 C13 1_555 1_555
H14 C13 1_555 1_555
H15 C13 1_555 1_555
C14 C11 1_555 1_555
H16 C14 1_555 1_555
H17 C14 1_555 1_555
H18 C14 1_555 1_555
C15 C11 1_555 1_555
H19 C15 1_555 1_555
H20 C15 1_555 1_555
H21 C15 1_555 1_555
C4 C5 1_555 1_555
C4 C11 1_555 1_555
C5 C6 1_555 1_555
C9 C10 1_555 1_555

#END
