
#######################################################################
#
#                 Cambridge Crystallographic Data Centre
#                                CCDC 
#
#######################################################################
#
# If this CIF has been generated from an entry in the Cambridge 
# Structural Database, then it will include bibliographic, chemical, 
# crystal, experimental, refinement or atomic coordinate data resulting 
# from the CCDC's data processing and validation procedures.
#
#######################################################################

data_RIMSIR
_chemical_compound_source        
'culture of the mangrove-derived fungus Cladosporium sp. PJX-41'
_chemical_name_common            Cladoquinazoline
_chemical_formula_moiety         'C23 H22 N4 O4'
_chemical_name_systematic        
4-((3-Hydroxy-2-oxo-2,3-dihydro-1H-indol-3-yl)methyl)-1-isopropyl-2H-pyrazino[2,1-b]quinazoline-3,6(1H,4H)-dione
_symmetry_cell_setting           monoclinic
_symmetry_space_group_name_H-M   'P 21'
_symmetry_Int_Tables_number      4
_space_group_name_Hall           'P 2yb'
loop_
_symmetry_equiv_pos_site_id
_symmetry_equiv_pos_as_xyz
1 x,y,z
2 -x,1/2+y,-z
_cell_length_a                   10.8171(4)
_cell_length_b                   6.2921(3)
_cell_length_c                   15.0930(5)
_cell_angle_alpha                90
_cell_angle_beta                 96.093(3)
_cell_angle_gamma                90
_cell_volume                     1021.46
_cell_formula_units_Z            2
loop_
_atom_site_label
_atom_site_type_symbol
_atom_site_fract_x
_atom_site_fract_y
_atom_site_fract_z
O1 O 0.15802(18) 0.7061(3) 0.91007(12)
H1 H 0.1223 0.6693 0.9529
N1 N -0.1946(2) 0.6419(4) 0.68720(14)
O2 O -0.0317(2) 1.0013(4) 0.96934(13)
O3 O -0.1457(2) 1.1600(4) 0.78500(16)
O4 O -0.0267(2) 0.5658(4) 0.61463(16)
C1 C 0.1563(3) 0.9543(5) 0.79143(17)
N2 N 0.1094(2) 1.1924(4) 0.89742(15)
H2 H 0.1116 1.3072 0.9285
N3 N -0.3818(2) 0.4493(5) 0.66495(17)
N4 N -0.3129(3) 0.9457(5) 0.7793(2)
H3 H -0.3537 1.0481 0.8002
C2 C -0.3162(3) 0.6027(6) 0.70156(19)
C3 C -0.0300(3) 0.7055(5) 0.80966(18)
H4 H -0.0793 0.6597 0.8562
H5 H 0.0048 0.5789 0.7853
C4 C 0.0769(3) 0.8401(5) 0.85238(17)
C5 C -0.1180(3) 0.8105(5) 0.73529(18)
H6 H -0.0658 0.8727 0.6928
C6 C -0.2063(3) 0.3472(6) 0.58685(18)
C7 C 0.1778(2) 1.1595(5) 0.82354(17)
C8 C -0.1334(3) 0.5221(6) 0.62739(18)
C9 C 0.2534(3) 1.3007(6) 0.7859(2)
H7 H 0.2673 1.4370 0.8087
C10 C -0.3263(3) 0.3146(5) 0.60853(18)
C11 C -0.1940(3) 0.9871(6) 0.76816(19)
C12 C -0.2189(3) 0.0347(7) 0.4953(2)
H8 H -0.1834 -0.0594 0.4578
C13 C 0.2080(3) 0.8869(6) 0.71637(19)
H9 H 0.1925 0.7516 0.6930
C14 C 0.0408(3) 1.0207(5) 0.91266(18)
C15 C -0.3388(3) 0.0018(7) 0.5167(2)
H10 H -0.3835 -0.1152 0.4933
C16 C -0.1533(3) 0.2072(6) 0.52980(19)
H11 H -0.0731 0.2313 0.5152
C17 C -0.3811(3) 0.7501(6) 0.7604(2)
H12 H -0.4573 0.7932 0.7239
C18 C 0.3086(3) 1.2292(7) 0.7114(2)
H13 H 0.3626 1.3186 0.6850
C19 C 0.2848(3) 1.0307(7) 0.6768(2)
H14 H 0.3202 0.9901 0.6259
C20 C -0.3926(3) 0.1387(6) 0.5718(2)
H15 H -0.4735 0.1147 0.5849
C21 C -0.4261(4) 0.6377(8) 0.8416(3)
H16 H -0.4799 0.5192 0.8199
C22 C -0.3193(4) 0.5491(11) 0.9006(3)
H17 H -0.2710 0.4583 0.8665
H18 H -0.3499 0.4686 0.9477
H19 H -0.2682 0.6634 0.9257
C23 C -0.5013(5) 0.7863(10) 0.8927(4)
H20 H -0.4466 0.8835 0.9266
H21 H -0.5471 0.7058 0.9322
H22 H -0.5582 0.8646 0.8517
loop_
_geom_bond_atom_site_label_1
_geom_bond_atom_site_label_2
_geom_bond_site_symmetry_1
_geom_bond_site_symmetry_2
O1 H1 1_555 1_555
N1 C2 1_555 1_555
O2 C14 1_555 1_555
O3 C11 1_555 1_555
O4 C8 1_555 1_555
C1 C4 1_555 1_555
N2 H2 1_555 1_555
N3 C2 1_555 1_555
N4 H3 1_555 1_555
C2 C17 1_555 1_555
C3 H4 1_555 1_555
H5 C3 1_555 1_555
C4 O1 1_555 1_555
C5 N1 1_555 1_555
H6 C5 1_555 1_555
C6 C8 1_555 1_555
C7 C1 1_555 1_555
C8 N1 1_555 1_555
C9 C7 1_555 1_555
H7 C9 1_555 1_555
C10 N3 1_555 1_555
C11 N4 1_555 1_555
C12 H8 1_555 1_555
C13 C1 1_555 1_555
H9 C13 1_555 1_555
C14 N2 1_555 1_555
C15 C12 1_555 1_555
H10 C15 1_555 1_555
C16 C6 1_555 1_555
H11 C16 1_555 1_555
C17 N4 1_555 1_555
H12 C17 1_555 1_555
C18 C9 1_555 1_555
H13 C18 1_555 1_555
C19 C13 1_555 1_555
H14 C19 1_555 1_555
C20 C10 1_555 1_555
H15 C20 1_555 1_555
C21 C17 1_555 1_555
H16 C21 1_555 1_555
C22 C21 1_555 1_555
H17 C22 1_555 1_555
H18 C22 1_555 1_555
H19 C22 1_555 1_555
C23 C21 1_555 1_555
H20 C23 1_555 1_555
H21 C23 1_555 1_555
H22 C23 1_555 1_555
N2 C7 1_555 1_555
C3 C4 1_555 1_555
C3 C5 1_555 1_555
C4 C14 1_555 1_555
C5 C11 1_555 1_555
C6 C10 1_555 1_555
C12 C16 1_555 1_555
C15 C20 1_555 1_555
C18 C19 1_555 1_555

#END
