
#######################################################################
#
#                 Cambridge Crystallographic Data Centre
#                                CCDC 
#
#######################################################################
#
# If this CIF has been generated from an entry in the Cambridge 
# Structural Database, then it will include bibliographic, chemical, 
# crystal, experimental, refinement or atomic coordinate data resulting 
# from the CCDC's data processing and validation procedures.
#
#######################################################################

data_RIMTAK01
_chemical_compound_source        'fermentation broth of Penicillium camemberti'
_chemical_name_common            3-Deoxo-4b-deoxypaxilline
_chemical_formula_moiety         'C27 H35 N1 O2'
_chemical_name_systematic        
2-(12b,12c-Dimethyl-3,4b,5,6,6a,7,12,12b,12c,13,14,14a-dodecahydro-2H-chromeno[5',6':6,7]indeno[1,2-b]indol-2-yl)propan-2-ol
_symmetry_cell_setting           orthorhombic
_symmetry_space_group_name_H-M   'P 21 21 2'
_symmetry_Int_Tables_number      18
_space_group_name_Hall           'P 2 2ab'
loop_
_symmetry_equiv_pos_site_id
_symmetry_equiv_pos_as_xyz
1 x,y,z
2 -x,-y,z
3 1/2-x,1/2+y,-z
4 1/2+x,1/2-y,-z
_cell_length_a                   11.6639(11)
_cell_length_b                   24.764(2)
_cell_length_c                   7.7832(5)
_cell_angle_alpha                90
_cell_angle_beta                 90
_cell_angle_gamma                90
_cell_volume                     2248.14
_cell_formula_units_Z            4
loop_
_atom_site_label
_atom_site_type_symbol
_atom_site_fract_x
_atom_site_fract_y
_atom_site_fract_z
N1 N 0.32574(17) 0.07972(8) 0.5084(3)
H1 H 0.2894 0.0845 0.6033
O1 O 0.51254(14) 0.28748(7) 1.0901(2)
O2 O 0.65179(16) 0.41156(7) 1.2260(2)
H2 H 0.6590 0.4263 1.1322
C1 C 0.6022(2) 0.32650(9) 1.0989(3)
H3 H 0.6688 0.3094 1.1531
C2 C 0.6367(3) 0.34398(10) 0.9199(4)
H4 H 0.5777 0.3671 0.8718
H5 H 0.7074 0.3645 0.9253
C3 C 0.6531(2) 0.29585(10) 0.8072(3)
H6 H 0.6941 0.3001 0.7057
C4 C 0.7123(2) 0.20566(10) 0.5866(4)
H7 H 0.7868 0.2156 0.6322
H8 H 0.6852 0.2355 0.5170
C5 C 0.7265(2) 0.15607(10) 0.4716(4)
H9 H 0.7728 0.1649 0.3720
H10 H 0.7640 0.1272 0.5344
C6 C 0.5893(2) 0.09562(10) 0.2780(3)
H11 H 0.6015 0.1099 0.1634
H12 H 0.6384 0.0645 0.2956
C7 C 0.3488(2) 0.02784(9) 0.0800(3)
H13 H 0.4029 0.0284 -0.0078
C8 C 0.2455(2) 0.00219(11) 0.0573(4)
H14 H 0.2301 -0.0149 -0.0465
C9 C 0.1638(2) 0.00146(11) 0.1871(4)
H15 H 0.0950 -0.0166 0.1682
C10 C 0.1812(2) 0.02647(10) 0.3421(4)
H16 H 0.1254 0.0261 0.4275
C11 C 0.4510(2) 0.15856(10) 0.8572(3)
H17 H 0.3767 0.1428 0.8323
H18 H 0.4963 0.1315 0.9165
C12 C 0.4345(2) 0.20713(11) 0.9764(4)
H19 H 0.3779 0.2312 0.9267
H20 H 0.4051 0.1947 1.0860
C13 C 0.5609(2) 0.37180(9) 1.2170(3)
C14 C 0.5466(3) 0.35168(11) 1.3987(3)
H21 H 0.6176 0.3364 1.4379
H22 H 0.4877 0.3246 1.4019
H23 H 0.5255 0.3812 1.4720
C15 C 0.4516(2) 0.39835(12) 1.1534(4)
H24 H 0.4305 0.4270 1.2302
H25 H 0.3913 0.3720 1.1493
H26 H 0.4641 0.4128 1.0405
C16 C 0.6125(2) 0.24759(9) 0.8441(3)
C17 C 0.6077(2) 0.13868(9) 0.4163(3)
H27 H 0.5718 0.1714 0.3703
C18 C 0.4654(2) 0.08245(9) 0.3097(3)
C19 C 0.2857(2) 0.05236(10) 0.3662(3)
C20 C 0.4345(2) 0.09803(9) 0.4709(3)
C21 C 0.5453(2) 0.23826(9) 1.0062(3)
H28 H 0.5932 0.2174 1.0855
C22 C 0.6298(2) 0.19738(9) 0.7356(3)
H29 H 0.6665 0.1709 0.8113
C23 C 0.3716(2) 0.05321(9) 0.2376(3)
C24 C 0.5318(2) 0.12207(9) 0.5721(3)
C25 C 0.5103(2) 0.17273(9) 0.6875(3)
C26 C 0.5867(2) 0.07479(9) 0.6732(3)
H30 H 0.5299 0.0584 0.7459
H31 H 0.6485 0.0882 0.7425
H32 H 0.6156 0.0484 0.5940
C27 C 0.4353(2) 0.21354(10) 0.5902(3)
H33 H 0.3607 0.1983 0.5713
H34 H 0.4702 0.2218 0.4817
H35 H 0.4282 0.2460 0.6569
loop_
_geom_bond_atom_site_label_1
_geom_bond_atom_site_label_2
_geom_bond_site_symmetry_1
_geom_bond_site_symmetry_2
N1 H1 1_555 1_555
O1 C1 1_555 1_555
O2 H2 1_555 1_555
C1 H3 1_555 1_555
C2 C1 1_555 1_555
H4 C2 1_555 1_555
H5 C2 1_555 1_555
C3 C2 1_555 1_555
H6 C3 1_555 1_555
C4 H7 1_555 1_555
H8 C4 1_555 1_555
C5 C4 1_555 1_555
H9 C5 1_555 1_555
H10 C5 1_555 1_555
C6 H11 1_555 1_555
H12 C6 1_555 1_555
C7 H13 1_555 1_555
C8 C7 1_555 1_555
H14 C8 1_555 1_555
C9 C8 1_555 1_555
H15 C9 1_555 1_555
C10 C9 1_555 1_555
H16 C10 1_555 1_555
C11 H17 1_555 1_555
H18 C11 1_555 1_555
C12 C11 1_555 1_555
H19 C12 1_555 1_555
H20 C12 1_555 1_555
C13 O2 1_555 1_555
C14 C13 1_555 1_555
H21 C14 1_555 1_555
H22 C14 1_555 1_555
H23 C14 1_555 1_555
C15 C13 1_555 1_555
H24 C15 1_555 1_555
H25 C15 1_555 1_555
H26 C15 1_555 1_555
C16 C3 1_555 1_555
C17 C5 1_555 1_555
H27 C17 1_555 1_555
C18 C6 1_555 1_555
C19 N1 1_555 1_555
C20 N1 1_555 1_555
C21 O1 1_555 1_555
H28 C21 1_555 1_555
C22 C4 1_555 1_555
H29 C22 1_555 1_555
C23 C7 1_555 1_555
C24 C17 1_555 1_555
C25 C11 1_555 1_555
C26 C24 1_555 1_555
H30 C26 1_555 1_555
H31 C26 1_555 1_555
H32 C26 1_555 1_555
C27 C25 1_555 1_555
H33 C27 1_555 1_555
H34 C27 1_555 1_555
H35 C27 1_555 1_555
C1 C13 1_555 1_555
C6 C17 1_555 1_555
C10 C19 1_555 1_555
C12 C21 1_555 1_555
C16 C21 1_555 1_555
C16 C22 1_555 1_555
C18 C20 1_555 1_555
C18 C23 1_555 1_555
C19 C23 1_555 1_555
C20 C24 1_555 1_555
C22 C25 1_555 1_555
C24 C25 1_555 1_555

#END
