
#######################################################################
#
#                 Cambridge Crystallographic Data Centre
#                                CCDC 
#
#######################################################################
#
# If this CIF has been generated from an entry in the Cambridge 
# Structural Database, then it will include bibliographic, chemical, 
# crystal, experimental, refinement or atomic coordinate data resulting 
# from the CCDC's data processing and validation procedures.
#
#######################################################################

data_RIMTAK
_chemical_compound_source        'fermentation broth of Penicillium camemberti'
_chemical_name_common            3-Deoxo-4b-deoxypaxilline
_chemical_formula_moiety         'C27 H35 N1 O2'
_chemical_name_systematic        
2-(12b,12c-Dimethyl-3,4b,5,6,6a,7,12,12b,12c,13,14,14a-dodecahydro-2H-chromeno[5',6':6,7]indeno[1,2-b]indol-2-yl)propan-2-ol
_symmetry_cell_setting           orthorhombic
_symmetry_space_group_name_H-M   'P 21 21 2'
_symmetry_Int_Tables_number      18
_space_group_name_Hall           'P 2 2ab'
loop_
_symmetry_equiv_pos_site_id
_symmetry_equiv_pos_as_xyz
1 x,y,z
2 1/2+x,1/2-y,-z
3 1/2-x,1/2+y,-z
4 -x,-y,z
_cell_length_a                   11.5420(5)
_cell_length_b                   24.4903(12)
_cell_length_c                   7.7765(4)
_cell_angle_alpha                90
_cell_angle_beta                 90
_cell_angle_gamma                90
_cell_volume                     2198.16
_exptl_crystal_colour            colorless
_exptl_crystal_description       prism
_cell_formula_units_Z            4
loop_
_atom_site_label
_atom_site_type_symbol
_atom_site_fract_x
_atom_site_fract_y
_atom_site_fract_z
O1 O 0.48676(9) 0.28696(4) 0.40483(14)
O2 O 0.34885(9) 0.41365(4) 0.26801(14)
H1 H 0.2869 0.3996 0.2327
N1 N 0.67381(10) 0.07893(5) 0.99440(17)
H2 H 0.7112 0.0835 0.8969
C1 C 0.83848(13) 0.00019(7) 1.3193(2)
H3 H 0.9092 -0.0186 1.3388
C2 C 0.82039(12) 0.02562(6) 1.1626(2)
H4 H 0.8780 0.0252 1.0754
C3 C 0.71434(13) 0.05186(6) 1.1373(2)
C4 C 0.56395(12) 0.09759(6) 1.03175(19)
C5 C 0.46506(12) 0.12147(6) 0.9288(2)
C6 C 0.48711(12) 0.17203(6) 0.81123(19)
C7 C 0.54660(13) 0.15647(6) 0.64025(19)
H5 H 0.6230 0.1400 0.6657
H6 H 0.4991 0.1286 0.5810
C8 C 0.56396(13) 0.20524(6) 0.5193(2)
H7 H 0.6232 0.2299 0.5689
H8 H 0.5936 0.1919 0.4075
C9 C 0.45249(13) 0.23755(6) 0.4889(2)
H9 H 0.4026 0.2163 0.4079
C10 C 0.39568(12) 0.32646(6) 0.3945(2)
H10 H 0.3269 0.3088 0.3396
C11 C 0.43850(13) 0.37234(6) 0.2750(2)
C12 C 0.45091(14) 0.35159(7) 0.0928(2)
H11 H 0.3766 0.3368 0.0536
H12 H 0.5099 0.3228 0.0893
H13 H 0.4742 0.3817 0.0174
C13 C 0.55098(14) 0.39810(7) 0.3371(2)
H14 H 0.5750 0.4266 0.2562
H15 H 0.6114 0.3701 0.3439
H16 H 0.5390 0.4142 0.4510
C14 C 0.40954(13) 0.07297(6) 0.8303(2)
H17 H 0.4682 0.0555 0.7575
H18 H 0.3460 0.0865 0.7583
H19 H 0.3794 0.0463 0.9129
C15 C 0.38819(12) 0.13914(6) 1.0848(2)
H20 H 0.4251 0.1731 1.1306
C16 C 0.40620(12) 0.09573(6) 1.2251(2)
H21 H 0.3937 0.1108 1.3417
H22 H 0.3555 0.0636 1.2076
C17 C 0.53211(12) 0.08229(6) 1.1931(2)
C18 C 0.62682(12) 0.05294(6) 1.2673(2)
C19 C 0.64974(13) 0.02781(6) 1.4261(2)
H23 H 0.5939 0.0288 1.5158
C20 C 0.75482(13) 0.00160(7) 1.4500(2)
H24 H 0.7705 -0.0157 1.5568
C21 C 0.26797(12) 0.15625(6) 1.0277(2)
H25 H 0.2196 0.1654 1.1287
H26 H 0.2301 0.1262 0.9637
C22 C 0.28232(12) 0.20629(6) 0.9119(2)
H27 H 0.3109 0.2372 0.9822
H28 H 0.2055 0.2166 0.8654
C23 C 0.36631(12) 0.19712(6) 0.7609(2)
H29 H 0.3282 0.1697 0.6843
C24 C 0.38445(12) 0.24747(6) 0.6519(2)
C25 C 0.34384(13) 0.29682(6) 0.6885(2)
H30 H 0.3019 0.3018 0.7925
C26 C 0.36129(13) 0.34501(6) 0.5732(2)
H31 H 0.4226 0.3688 0.6212
H32 H 0.2887 0.3665 0.5669
C27 C 0.56394(12) 0.21370(6) 0.9051(2)
H33 H 0.6410 0.1980 0.9237
H34 H 0.5290 0.2229 1.0162
H35 H 0.5709 0.2468 0.8352
loop_
_geom_bond_atom_site_label_1
_geom_bond_atom_site_label_2
_geom_bond_site_symmetry_1
_geom_bond_site_symmetry_2
O1 C9 1_555 1_555
O2 H1 1_555 1_555
N1 H2 1_555 1_555
C1 H3 1_555 1_555
C2 C1 1_555 1_555
H4 C2 1_555 1_555
C3 N1 1_555 1_555
C4 N1 1_555 1_555
C5 C4 1_555 1_555
C6 C5 1_555 1_555
C7 C6 1_555 1_555
H5 C7 1_555 1_555
H6 C7 1_555 1_555
C8 C7 1_555 1_555
H7 C8 1_555 1_555
H8 C8 1_555 1_555
C9 C8 1_555 1_555
H9 C9 1_555 1_555
C10 O1 1_555 1_555
H10 C10 1_555 1_555
C11 O2 1_555 1_555
C12 C11 1_555 1_555
H11 C12 1_555 1_555
H12 C12 1_555 1_555
H13 C12 1_555 1_555
C13 C11 1_555 1_555
H14 C13 1_555 1_555
H15 C13 1_555 1_555
H16 C13 1_555 1_555
C14 C5 1_555 1_555
H17 C14 1_555 1_555
H18 C14 1_555 1_555
H19 C14 1_555 1_555
C15 C5 1_555 1_555
H20 C15 1_555 1_555
C16 C15 1_555 1_555
H21 C16 1_555 1_555
H22 C16 1_555 1_555
C17 C4 1_555 1_555
C18 C3 1_555 1_555
C19 C18 1_555 1_555
H23 C19 1_555 1_555
C20 C1 1_555 1_555
H24 C20 1_555 1_555
C21 C15 1_555 1_555
H25 C21 1_555 1_555
H26 C21 1_555 1_555
C22 C21 1_555 1_555
H27 C22 1_555 1_555
H28 C22 1_555 1_555
C23 C6 1_555 1_555
H29 C23 1_555 1_555
C24 C9 1_555 1_555
C25 C24 1_555 1_555
H30 C25 1_555 1_555
C26 C10 1_555 1_555
H31 C26 1_555 1_555
H32 C26 1_555 1_555
C27 C6 1_555 1_555
H33 C27 1_555 1_555
H34 C27 1_555 1_555
H35 C27 1_555 1_555
C2 C3 1_555 1_555
C10 C11 1_555 1_555
C16 C17 1_555 1_555
C17 C18 1_555 1_555
C19 C20 1_555 1_555
C22 C23 1_555 1_555
C23 C24 1_555 1_555
C25 C26 1_555 1_555

#END
