
#######################################################################
#
#                 Cambridge Crystallographic Data Centre
#                                CCDC 
#
#######################################################################
#
# If this CIF has been generated from an entry in the Cambridge 
# Structural Database, then it will include bibliographic, chemical, 
# crystal, experimental, refinement or atomic coordinate data resulting 
# from the CCDC's data processing and validation procedures.
#
#######################################################################

data_RIMVOB
_chemical_formula_moiety         'C31 H33 Br1 O5'
_chemical_name_systematic        
'methyl 2-(7-bromo-4-(3,5-di-t-butyl-4-hydroxyphenyl)-2-oxo-3,4-dihydro-2H-1-benzopyran-3-yl)benzoate'
_symmetry_cell_setting           triclinic
_symmetry_space_group_name_H-M   'P -1'
_symmetry_Int_Tables_number      2
_space_group_name_Hall           '-P 1'
loop_
_symmetry_equiv_pos_site_id
_symmetry_equiv_pos_as_xyz
1 x,y,z
2 -x,-y,-z
_cell_length_a                   10.1745(11)
_cell_length_b                   11.3873(13)
_cell_length_c                   12.2870(14)
_cell_angle_alpha                85.634(2)
_cell_angle_beta                 82.125(2)
_cell_angle_gamma                86.327(2)
_cell_volume                     1403.98
_exptl_crystal_colour            colorless
_exptl_crystal_description       block
_cell_formula_units_Z            2
loop_
_atom_site_label
_atom_site_type_symbol
_atom_site_fract_x
_atom_site_fract_y
_atom_site_fract_z
Br1 Br 0.89268(4) 0.30593(3) -0.01622(3)
O1 O 0.4701(2) 0.35469(16) 0.2637(2)
O2 O 0.3389(2) 0.35630(19) 0.4202(2)
O3 O 0.51932(18) 1.08211(16) 0.26665(17)
H1 H 0.462636 1.123065 0.252218
O4 O 0.1785(2) 0.4677(2) 0.25769(18)
O5 O -0.0210(2) 0.5430(2) 0.3207(2)
C1 C 0.5551(3) 0.4139(2) 0.1823(3)
C2 C 0.6575(3) 0.3448(2) 0.1306(3)
H2 H 0.667654 0.264770 0.151023
C3 C 0.7437(3) 0.3966(3) 0.0487(3)
C4 C 0.7268(3) 0.5149(3) 0.0151(2)
H3 H 0.783808 0.548982 -0.042647
C5 C 0.6235(3) 0.5806(2) 0.0692(2)
H4 H 0.611218 0.659936 0.046837
C6 C 0.5374(3) 0.5332(2) 0.1555(2)
C7 C 0.4269(3) 0.6048(2) 0.2196(2)
H5 H 0.345851 0.600447 0.185516
C8 C 0.4032(3) 0.5461(2) 0.3381(2)
H6 H 0.483452 0.559534 0.370267
C9 C 0.3959(3) 0.4136(3) 0.3453(3)
C10 C 0.2915(3) 0.6060(2) 0.4111(2)
C11 C 0.3274(4) 0.6754(3) 0.4894(3)
H7 H 0.416833 0.680587 0.495813
C12 C 0.2338(7) 0.7360(4) 0.5568(4)
H8 H 0.259651 0.780398 0.609954
C13 C 0.1024(7) 0.7319(4) 0.5468(4)
H9 H 0.039456 0.775729 0.591384
C14 C 0.0622(4) 0.6633(3) 0.4712(3)
H10 H -0.027792 0.659138 0.466364
C15 C 0.1564(3) 0.6001(2) 0.4021(2)
C16 C 0.1101(3) 0.5292(3) 0.3200(3)
C17 C -0.0781(4) 0.4825(4) 0.2417(4)
H11 H -0.052978 0.518552 0.169243
H12 H -0.173146 0.487232 0.258675
H13 H -0.046310 0.401231 0.244289
C18 C 0.4542(2) 0.7341(2) 0.2230(2)
C19 C 0.5690(3) 0.7665(2) 0.2580(2)
H14 H 0.632418 0.707496 0.274010
C20 C 0.5947(2) 0.8825(2) 0.2705(2)
C21 C 0.4948(2) 0.9683(2) 0.2473(2)
C22 C 0.3806(2) 0.9410(2) 0.2053(2)
C23 C 0.3628(2) 0.8220(2) 0.1954(2)
H15 H 0.286471 0.801343 0.169210
C24 C 0.2762(3) 1.0362(2) 0.1717(2)
C25 C 0.3414(3) 1.1258(3) 0.0832(3)
H16 H 0.406752 1.165976 0.113394
H17 H 0.274592 1.182165 0.060320
H18 H 0.383255 1.085028 0.020999
C26 C 0.2078(3) 1.0997(3) 0.2717(3)
H19 H 0.165887 1.043265 0.325221
H20 H 0.141965 1.157006 0.248703
H21 H 0.272694 1.138578 0.303642
C27 C 0.1675(3) 0.9837(3) 0.1198(3)
H22 H 0.206419 0.944884 0.055514
H23 H 0.105041 1.045538 0.099314
H24 H 0.122412 0.927706 0.171896
C28 C 0.7225(3) 0.9141(2) 0.3116(3)
C29 C 0.7943(3) 1.0080(3) 0.2349(3)
H25 H 0.815479 0.979988 0.162483
H26 H 0.874761 1.024432 0.262214
H27 H 0.738007 1.078784 0.231648
C30 C 0.6887(4) 0.9558(4) 0.4285(3)
H28 H 0.629570 1.024857 0.427254
H29 H 0.768837 0.974149 0.455214
H30 H 0.646668 0.894388 0.476110
C31 C 0.8200(3) 0.8059(3) 0.3173(4)
H31 H 0.780942 0.746603 0.369310
H32 H 0.900713 0.828482 0.340210
H33 H 0.839187 0.775092 0.245947
loop_
_geom_bond_atom_site_label_1
_geom_bond_atom_site_label_2
_geom_bond_site_symmetry_1
_geom_bond_site_symmetry_2
Br1 C3 1_555 1_555
O1 C1 1_555 1_555
O2 C9 1_555 1_555
O3 H1 1_555 1_555
O4 C16 1_555 1_555
O5 C16 1_555 1_555
C1 C2 1_555 1_555
C2 H2 1_555 1_555
C3 C2 1_555 1_555
C4 C3 1_555 1_555
H3 C4 1_555 1_555
C5 C4 1_555 1_555
H4 C5 1_555 1_555
C6 C1 1_555 1_555
C7 C6 1_555 1_555
H5 C7 1_555 1_555
C8 C7 1_555 1_555
H6 C8 1_555 1_555
C9 O1 1_555 1_555
C10 C8 1_555 1_555
C11 C10 1_555 1_555
H7 C11 1_555 1_555
C12 C11 1_555 1_555
H8 C12 1_555 1_555
C13 C12 1_555 1_555
H9 C13 1_555 1_555
C14 C13 1_555 1_555
H10 C14 1_555 1_555
C15 C10 1_555 1_555
C16 C15 1_555 1_555
C17 O5 1_555 1_555
H11 C17 1_555 1_555
H12 C17 1_555 1_555
H13 C17 1_555 1_555
C18 C7 1_555 1_555
C19 C18 1_555 1_555
H14 C19 1_555 1_555
C20 C19 1_555 1_555
C21 O3 1_555 1_555
C22 C21 1_555 1_555
C23 C18 1_555 1_555
H15 C23 1_555 1_555
C24 C22 1_555 1_555
C25 C24 1_555 1_555
H16 C25 1_555 1_555
H17 C25 1_555 1_555
H18 C25 1_555 1_555
C26 C24 1_555 1_555
H19 C26 1_555 1_555
H20 C26 1_555 1_555
H21 C26 1_555 1_555
C27 C24 1_555 1_555
H22 C27 1_555 1_555
H23 C27 1_555 1_555
H24 C27 1_555 1_555
C28 C20 1_555 1_555
C29 C28 1_555 1_555
H25 C29 1_555 1_555
H26 C29 1_555 1_555
H27 C29 1_555 1_555
C30 C28 1_555 1_555
H28 C30 1_555 1_555
H29 C30 1_555 1_555
H30 C30 1_555 1_555
C31 C28 1_555 1_555
H31 C31 1_555 1_555
H32 C31 1_555 1_555
H33 C31 1_555 1_555
C5 C6 1_555 1_555
C8 C9 1_555 1_555
C14 C15 1_555 1_555
C20 C21 1_555 1_555
C22 C23 1_555 1_555

#END
