
#######################################################################
#
#                 Cambridge Crystallographic Data Centre
#                                CCDC 
#
#######################################################################
#
# If this CIF has been generated from an entry in the Cambridge 
# Structural Database, then it will include bibliographic, chemical, 
# crystal, experimental, refinement or atomic coordinate data resulting 
# from the CCDC's data processing and validation procedures.
#
#######################################################################

data_RINGIG
_chemical_formula_moiety         'C39 H34 O4 P1 1+,0.5(H2 O1),Br1 1-'
_chemical_name_systematic        
'(3-(Methoxycarbonyl)-5-oxo-3-(2-oxo-2-phenylethyl)-5-phenylpent-1-en-1-yl)(triphenyl)phosphonium bromide hemihydrate'
_symmetry_cell_setting           monoclinic
_symmetry_space_group_name_H-M   'P 21/c'
_symmetry_Int_Tables_number      14
_space_group_name_Hall           '-P 2ybc'
loop_
_symmetry_equiv_pos_site_id
_symmetry_equiv_pos_as_xyz
1 x,y,z
2 -x,1/2+y,1/2-z
3 -x,-y,-z
4 x,1/2-y,1/2+z
_cell_length_a                   9.5869(5)
_cell_length_b                   35.5331(19)
_cell_length_c                   10.4715(6)
_cell_angle_alpha                90
_cell_angle_beta                 104.2700(10)
_cell_angle_gamma                90
_cell_volume                     3457.08
_exptl_crystal_colour            colorless
_exptl_crystal_description       prismatic
_cell_formula_units_Z            4
loop_
_atom_site_label
_atom_site_type_symbol
_atom_site_fract_x
_atom_site_fract_y
_atom_site_fract_z
Br1 Br 0.74127(3) 0.896536(11) 0.79538(3)
P1 P 0.45392(7) 0.89338(2) 0.34104(7)
O1 O 0.1622(2) 0.78793(7) 0.5010(2)
O2 O 0.2285(2) 0.78209(6) 0.71845(19)
O3 O 0.1398(2) 0.86831(7) 0.6143(2)
O4 O 0.4695(3) 0.76552(7) 0.4702(2)
C1 C 0.4658(3) 0.86748(8) 0.4873(3)
H1 H 0.5392 0.8733 0.5609
C2 C 0.3761(3) 0.84044(8) 0.4971(3)
H2 H 0.3099 0.8327 0.4209
C3 C 0.3740(3) 0.82108(8) 0.6250(2)
C4 C 0.2416(3) 0.79556(8) 0.6042(3)
C5 C 0.1083(4) 0.75741(11) 0.7160(4)
H3 H 0.0210 0.7719 0.6986
H4 H 0.1218 0.7451 0.7997
H5 H 0.1020 0.7389 0.6480
C6 C 0.3728(3) 0.85056(8) 0.7327(3)
H6 H 0.3752 0.8376 0.8146
H7 H 0.4595 0.8657 0.7461
C7 C 0.2448(3) 0.87626(9) 0.7018(3)
C8 C 0.2459(3) 0.91136(9) 0.7791(3)
C9 C 0.3729(4) 0.92731(9) 0.8499(3)
H8 H 0.4605 0.9159 0.8512
C10 C 0.3691(5) 0.96018(11) 0.9186(4)
H9 H 0.4545 0.9711 0.9658
C11 C 0.2400(6) 0.97692(12) 0.9178(5)
H10 H 0.2380 0.9991 0.9644
C12 C 0.1145(5) 0.96104(12) 0.8488(4)
H11 H 0.0270 0.9724 0.8489
C13 C 0.1167(4) 0.92857(10) 0.7794(3)
H12 H 0.0307 0.9180 0.7320
C14 C 0.5099(3) 0.79658(8) 0.6769(3)
H13 H 0.5930 0.8131 0.6989
H14 H 0.5017 0.7845 0.7577
C15 C 0.5377(3) 0.76673(8) 0.5846(3)
C16 C 0.6501(3) 0.73798(8) 0.6379(3)
C17 C 0.7338(3) 0.73890(10) 0.7659(3)
H15 H 0.7211 0.7580 0.8226
C18 C 0.8366(4) 0.71132(11) 0.8100(4)
H16 H 0.8923 0.7121 0.8963
C19 C 0.8573(4) 0.68336(11) 0.7299(4)
H17 H 0.9273 0.6652 0.7607
C20 C 0.7751(4) 0.68175(10) 0.6033(4)
H18 H 0.7890 0.6625 0.5476
C21 C 0.6719(4) 0.70872(9) 0.5588(3)
H19 H 0.6152 0.7072 0.4730
C22 C 0.3831(3) 0.93904(8) 0.3635(3)
C23 C 0.4238(4) 0.97042(10) 0.3041(4)
H20 H 0.4920 0.9682 0.2550
C24 C 0.3640(5) 1.00488(10) 0.3171(4)
H21 H 0.3908 1.0259 0.2758
C25 C 0.2655(4) 1.00830(11) 0.3903(4)
H22 H 0.2242 1.0316 0.3980
C26 C 0.2271(5) 0.97776(12) 0.4525(5)
H23 H 0.1617 0.9804 0.5045
C27 C 0.2853(4) 0.94297(10) 0.4384(4)
H24 H 0.2579 0.9221 0.4798
C28 C 0.3362(3) 0.87024(8) 0.2040(2)
C29 C 0.3743(3) 0.83548(9) 0.1644(3)
H25 H 0.4609 0.8244 0.2078
C30 C 0.2835(4) 0.81740(10) 0.0605(3)
H26 H 0.3093 0.7941 0.0328
C31 C 0.1546(4) 0.83357(11) -0.0029(3)
H27 H 0.0931 0.8209 -0.0722
C32 C 0.1165(3) 0.86771(10) 0.0348(3)
H28 H 0.0291 0.8784 -0.0083
C33 C 0.2083(3) 0.88670(9) 0.1382(3)
H29 H 0.1836 0.9104 0.1629
C34 C 0.6271(3) 0.90030(7) 0.3099(3)
C35 C 0.7474(3) 0.90360(9) 0.4142(3)
H30 H 0.7410 0.8987 0.4998
C36 C 0.8764(3) 0.91423(11) 0.3899(4)
H31 H 0.9574 0.9166 0.4597
C37 C 0.8868(4) 0.92130(11) 0.2643(4)
H32 H 0.9742 0.9290 0.2496
C38 C 0.7691(4) 0.91714(10) 0.1596(4)
H33 H 0.7772 0.9214 0.0741
C39 C 0.6393(3) 0.90656(9) 0.1822(3)
H34 H 0.5593 0.9036 0.1116
O5 O 0.8767(8) 0.8275(2) 0.6699(10)
H35 H 0.825(4) 0.8283(12) 0.598(3)
H36 H 0.836(8) 0.8455(15) 0.690(8)
loop_
_geom_bond_atom_site_label_1
_geom_bond_atom_site_label_2
_geom_bond_site_symmetry_1
_geom_bond_site_symmetry_2
P1 C1 1_555 1_555
O1 C4 1_555 1_555
O2 C4 1_555 1_555
O3 C7 1_555 1_555
O4 C15 1_555 1_555
C1 H1 1_555 1_555
C2 C1 1_555 1_555
H2 C2 1_555 1_555
C3 C2 1_555 1_555
C4 C3 1_555 1_555
C5 O2 1_555 1_555
H3 C5 1_555 1_555
H4 C5 1_555 1_555
H5 C5 1_555 1_555
C6 C3 1_555 1_555
H6 C6 1_555 1_555
H7 C6 1_555 1_555
C7 C6 1_555 1_555
C8 C7 1_555 1_555
C9 C8 1_555 1_555
H8 C9 1_555 1_555
C10 C9 1_555 1_555
H9 C10 1_555 1_555
C11 C10 1_555 1_555
H10 C11 1_555 1_555
C12 C11 1_555 1_555
H11 C12 1_555 1_555
C13 C8 1_555 1_555
H12 C13 1_555 1_555
C14 C3 1_555 1_555
H13 C14 1_555 1_555
H14 C14 1_555 1_555
C15 C14 1_555 1_555
C16 C15 1_555 1_555
C17 C16 1_555 1_555
H15 C17 1_555 1_555
C18 C17 1_555 1_555
H16 C18 1_555 1_555
C19 C18 1_555 1_555
H17 C19 1_555 1_555
C20 C19 1_555 1_555
H18 C20 1_555 1_555
C21 C16 1_555 1_555
H19 C21 1_555 1_555
C22 P1 1_555 1_555
C23 C22 1_555 1_555
H20 C23 1_555 1_555
C24 C23 1_555 1_555
H21 C24 1_555 1_555
C25 C24 1_555 1_555
H22 C25 1_555 1_555
C26 C25 1_555 1_555
H23 C26 1_555 1_555
C27 C22 1_555 1_555
H24 C27 1_555 1_555
C28 P1 1_555 1_555
C29 C28 1_555 1_555
H25 C29 1_555 1_555
C30 C29 1_555 1_555
H26 C30 1_555 1_555
C31 C30 1_555 1_555
H27 C31 1_555 1_555
C32 C31 1_555 1_555
H28 C32 1_555 1_555
C33 C28 1_555 1_555
H29 C33 1_555 1_555
C34 P1 1_555 1_555
C35 C34 1_555 1_555
H30 C35 1_555 1_555
C36 C35 1_555 1_555
H31 C36 1_555 1_555
C37 C36 1_555 1_555
H32 C37 1_555 1_555
C38 C37 1_555 1_555
H33 C38 1_555 1_555
C39 C34 1_555 1_555
H34 C39 1_555 1_555
O5 H35 1_555 1_555
H36 O5 1_555 1_555
C12 C13 1_555 1_555
C20 C21 1_555 1_555
C26 C27 1_555 1_555
C32 C33 1_555 1_555
C38 C39 1_555 1_555

#END
