
#######################################################################
#
#                 Cambridge Crystallographic Data Centre
#                                CCDC 
#
#######################################################################
#
# If this CIF has been generated from an entry in the Cambridge 
# Structural Database, then it will include bibliographic, chemical, 
# crystal, experimental, refinement or atomic coordinate data resulting 
# from the CCDC's data processing and validation procedures.
#
#######################################################################

data_RINHIF
_chemical_formula_moiety         'C31 H41 N1 O12 Si1'
_chemical_name_systematic        
'Methyl (1\a,2\b,6\a,11R*)-2-acetoxy-1-(t-butyldimethylsilyl)oxy-6-hydroxy-13-p-nitrobenzoyloxy-9-oxo-(7\bH)-5,11-epoxy-8-eudesmen-14-oate'
_symmetry_cell_setting           monoclinic
_symmetry_space_group_name_H-M   'P 21/c'
_symmetry_Int_Tables_number      14
_space_group_name_Hall           '-P 2ybc'
loop_
_symmetry_equiv_pos_site_id
_symmetry_equiv_pos_as_xyz
1 x,y,z
2 -x,1/2+y,1/2-z
3 -x,-y,-z
4 x,1/2-y,1/2+z
_cell_length_a                   13.361(3)
_cell_length_b                   13.611(3)
_cell_length_c                   18.573(4)
_cell_angle_alpha                90
_cell_angle_beta                 91.57(3)
_cell_angle_gamma                90
_cell_volume                     3376.35
_exptl_crystal_colour            colorless
_chemical_melting_point          213-214deg.C
_cell_formula_units_Z            4
loop_
_atom_site_label
_atom_site_type_symbol
_atom_site_fract_x
_atom_site_fract_y
_atom_site_fract_z
Si1 Si 0.8736(1) 1.0048(2) 0.7202(1)
O1 O 0.6234(3) 0.9415(3) 0.7837(2)
O2 O 0.7032(3) 1.2928(3) 0.8048(2)
O3 O 0.8160(3) 1.0493(3) 0.7902(2)
O4 O 0.6881(3) 1.0600(3) 1.0643(2)
O5 O 0.7973(3) 0.9889(3) 0.9305(2)
O6 O 0.5180(3) 1.1332(3) 0.8055(2)
C1 C 0.7773(4) 1.2145(4) 0.8140(3)
C2 C 0.7302(4) 1.0734(4) 0.9329(3)
O7 O 0.5611(3) 1.2071(3) 0.9088(2)
O8 O 0.7306(4) 1.2997(3) 0.6868(3)
O9 O 0.7263(3) 0.7356(3) 0.9559(2)
C3 C 0.6686(4) 1.0784(4) 0.8593(3)
C4 C 0.8180(4) 1.2221(4) 0.8900(3)
C5 C 0.7983(4) 1.1614(4) 0.9433(3)
C6 C 0.6268(4) 0.9752(5) 0.8435(3)
C7 C 0.7351(4) 1.1134(4) 0.7970(3)
C8 C 0.7733(5) 0.8172(4) 0.9194(3)
C9 C 0.7562(5) 0.9054(4) 0.9681(3)
C10 C 0.6841(5) 0.5706(5) 0.9705(3)
C11 C 0.5855(5) 0.9202(5) 0.9073(3)
N1 N 0.5593(5) 0.3426(5) 1.0910(3)
C12 C 0.5778(4) 1.1487(5) 0.8633(3)
O10 O 0.5743(5) 0.2587(5) 1.0714(3)
C13 C 0.6518(5) 0.3996(5) 0.9876(4)
C14 C 0.5946(5) 0.5175(6) 1.0734(3)
O11 O 0.7630(5) 0.6353(4) 0.8668(3)
C15 C 0.6922(5) 0.4743(5) 0.9483(3)
C16 C 0.6460(5) 0.9346(4) 0.9772(3)
C17 C 0.6343(5) 0.5923(5) 1.0329(3)
C18 C 0.8174(5) 0.8886(5) 1.0389(3)
C19 C 0.6903(5) 1.3316(5) 0.7384(4)
C20 C 0.7297(6) 0.6492(5) 0.9256(4)
C21 C 0.6544(5) 1.0445(5) 0.9921(3)
O12 O 0.5096(5) 0.3641(5) 1.1413(3)
C22 C 0.6046(5) 0.4226(5) 1.0492(4)
C23 C 0.8596(5) 1.0879(6) 0.6413(3)
C24 C 0.8555(5) 1.1741(5) 1.0140(3)
C25 C 0.6238(5) 1.4183(5) 0.7391(4)
C26 C 0.8240(6) 0.8797(6) 0.6972(4)
C27 C 0.4299(5) 1.1941(6) 0.7997(4)
C28 C 1.0670(6) 0.9495(6) 0.6889(4)
C29 C 1.0146(6) 0.9284(7) 0.8175(4)
C30 C 1.0057(5) 0.9941(6) 0.7510(4)
C31 C 1.0459(5) 1.0986(7) 0.7693(5)
H1 H 0.6425 1.0438 1.0931
H2 H 0.8307 1.2270 0.7816
H3 H 0.8614 1.2767 0.9009
H4 H 0.6957 1.1152 0.7530
H5 H 0.7433 0.8282 0.8726
H6 H 0.8436 0.8049 0.9148
H7 H 0.5810 0.8515 0.8957
H8 H 0.5188 0.9440 0.9144
H9 H 0.6571 0.3323 0.9729
H10 H 0.5610 0.5300 1.1175
H11 H 0.7261 0.4605 0.9045
H12 H 0.6169 0.9006 1.0167
H13 H 0.6282 0.6596 1.0477
H14 H 0.8851 0.8713 1.0284
H15 H 0.8171 0.9479 1.0669
H16 H 0.7874 0.8365 1.0657
H17 H 0.5911 1.0762 0.9828
H18 H 0.8857 1.1518 0.6532
H19 H 0.8956 1.0610 0.6019
H20 H 0.7899 1.0932 0.6279
H21 H 0.8947 1.2331 1.0126
H22 H 0.8089 1.1785 1.0524
H23 H 0.8988 1.1187 1.0221
H24 H 0.6158 1.4439 0.6911
H25 H 0.5598 1.3983 0.7562
H26 H 0.6514 1.4683 0.7702
H27 H 0.8315 0.8371 0.7382
H28 H 0.7543 0.8853 0.6838
H29 H 0.8600 0.8531 0.6577
H30 H 0.3927 1.1769 0.7565
H31 H 0.3888 1.1844 0.8406
H32 H 0.4497 1.2618 0.7973
H33 H 1.1365 0.9420 0.7023
H34 H 1.0387 0.8863 0.6777
H35 H 1.0606 0.9915 0.6475
H36 H 1.0833 0.9229 0.8334
H37 H 0.9760 0.9558 0.8554
H38 H 0.9891 0.8644 0.8051
H39 H 1.1146 1.0957 0.7857
H40 H 1.0405 1.1392 0.7271
H41 H 1.0059 1.1258 0.8065
loop_
_geom_bond_atom_site_label_1
_geom_bond_atom_site_label_2
_geom_bond_site_symmetry_1
_geom_bond_site_symmetry_2
Si1 O3 1_555 1_555
O1 C6 1_555 1_555
O2 C1 1_555 1_555
O3 C7 1_555 1_555
O4 C21 1_555 1_555
O5 C2 1_555 1_555
O6 C12 1_555 1_555
C1 C4 1_555 1_555
C2 C3 1_555 1_555
O7 C12 1_555 1_555
O8 C19 1_555 1_555
O9 C8 1_555 1_555
C3 C6 1_555 1_555
C4 C5 1_555 1_555
C5 C2 1_555 1_555
C6 C11 1_555 1_555
C7 C1 1_555 1_555
C8 C9 1_555 1_555
C9 O5 1_555 1_555
C10 C15 1_555 1_555
C11 C16 1_555 1_555
N1 O10 1_555 1_555
C12 C3 1_555 1_555
C13 C15 1_555 1_555
C14 C17 1_555 1_555
O11 C20 1_555 1_555
C15 H11 1_555 1_555
C16 C9 1_555 1_555
C17 C10 1_555 1_555
C18 C9 1_555 1_555
C19 O2 1_555 1_555
C20 O9 1_555 1_555
C21 C2 1_555 1_555
O12 N1 1_555 1_555
C22 N1 1_555 1_555
C23 Si1 1_555 1_555
C24 C5 1_555 1_555
C25 C19 1_555 1_555
C26 Si1 1_555 1_555
C27 O6 1_555 1_555
C28 C30 1_555 1_555
C29 C30 1_555 1_555
C30 Si1 1_555 1_555
C31 C30 1_555 1_555
H1 O4 1_555 1_555
H2 C1 1_555 1_555
H3 C4 1_555 1_555
H4 C7 1_555 1_555
H5 C8 1_555 1_555
H6 C8 1_555 1_555
H7 C11 1_555 1_555
H8 C11 1_555 1_555
H9 C13 1_555 1_555
H10 C14 1_555 1_555
H12 C16 1_555 1_555
H13 C17 1_555 1_555
H14 C18 1_555 1_555
H15 C18 1_555 1_555
H16 C18 1_555 1_555
H17 C21 1_555 1_555
H18 C23 1_555 1_555
H19 C23 1_555 1_555
H20 C23 1_555 1_555
H21 C24 1_555 1_555
H22 C24 1_555 1_555
H23 C24 1_555 1_555
H24 C25 1_555 1_555
H25 C25 1_555 1_555
H26 C25 1_555 1_555
H27 C26 1_555 1_555
H28 C26 1_555 1_555
H29 C26 1_555 1_555
H30 C27 1_555 1_555
H31 C27 1_555 1_555
H32 C27 1_555 1_555
H33 C28 1_555 1_555
H34 C28 1_555 1_555
H35 C28 1_555 1_555
H36 C29 1_555 1_555
H37 C29 1_555 1_555
H38 C29 1_555 1_555
H39 C31 1_555 1_555
H40 C31 1_555 1_555
H41 C31 1_555 1_555
C3 C7 1_555 1_555
C10 C20 1_555 1_555
C13 C22 1_555 1_555
C14 C22 1_555 1_555
C16 C21 1_555 1_555

#END
