
#######################################################################
#
#                 Cambridge Crystallographic Data Centre
#                                CCDC 
#
#######################################################################
#
# If this CIF has been generated from an entry in the Cambridge 
# Structural Database, then it will include bibliographic, chemical, 
# crystal, experimental, refinement or atomic coordinate data resulting 
# from the CCDC's data processing and validation procedures.
#
#######################################################################

data_RINJOP
_chemical_formula_moiety         'C26 H24 Br1 N1 O2'
_chemical_name_systematic        
2-Benzyl-1-((4-bromophenyl)ethynyl)-6,7-dimethoxy-1,2,3,4-tetrahydroisoquinoline
_symmetry_cell_setting           monoclinic
_symmetry_space_group_name_H-M   'P 21'
_symmetry_Int_Tables_number      4
_space_group_name_Hall           'P 2yb'
loop_
_symmetry_equiv_pos_site_id
_symmetry_equiv_pos_as_xyz
1 x,y,z
2 -x,1/2+y,-z
_cell_length_a                   11.100(3)
_cell_length_b                   13.908(3)
_cell_length_c                   29.172(7)
_cell_angle_alpha                90
_cell_angle_beta                 94.769(4)
_cell_angle_gamma                90
_cell_volume                     4487.95
_exptl_crystal_colour            colorless
_exptl_crystal_description       prismatic
_cell_formula_units_Z            8
loop_
_atom_site_label
_atom_site_type_symbol
_atom_site_fract_x
_atom_site_fract_y
_atom_site_fract_z
Br1 Br 1.37441(16) 0.33549(10) 0.28468(5)
N1 N 0.9964(6) -0.1495(5) 0.4362(3)
O1 O 0.8513(7) 0.0635(5) 0.6166(2)
O2 O 0.7264(6) 0.1378(4) 0.54760(19)
C1 C 0.9156(8) -0.0278(6) 0.4860(3)
C2 C 0.8336(8) 0.0424(6) 0.4939(3)
H1 H 0.7928 0.0726 0.4688
C3 C 0.8089(8) 0.0701(6) 0.5370(3)
C4 C 0.8758(10) 0.0303(7) 0.5745(3)
C5 C 0.9596(10) -0.0382(7) 0.5675(3)
H2 H 1.0027 -0.0658 0.5928
C6 C 0.9834(8) -0.0685(6) 0.5233(3)
C7 C 1.0735(9) -0.1461(6) 0.5169(4)
H3 H 1.0409 -0.2067 0.5267
H4 H 1.1462 -0.1328 0.5367
C8 C 1.1065(8) -0.1561(7) 0.4684(3)
H5 H 1.1628 -0.1057 0.4616
H6 H 1.1457 -0.2176 0.4646
C9 C 0.9414(8) -0.0556(6) 0.4370(3)
H7 H 0.8631 -0.0602 0.4189
C10 C 1.0112(9) 0.0200(6) 0.4155(3)
C11 C 1.0737(9) 0.0737(6) 0.3974(3)
C12 C 1.1484(9) 0.1353(7) 0.3728(3)
C13 C 1.1534(13) 0.2321(9) 0.3806(4)
H8 H 1.1085 0.2588 0.4029
C14 C 1.2254(12) 0.2913(8) 0.3555(5)
H9 H 1.2314 0.3566 0.3622
C15 C 1.2855(11) 0.2545(9) 0.3218(4)
C16 C 1.2887(12) 0.1598(9) 0.3150(4)
H10 H 1.3376 0.1336 0.2938
C17 C 1.2166(11) 0.1004(7) 0.3405(4)
H11 H 1.2159 0.0345 0.3349
C18 C 0.9258(13) 0.0379(9) 0.6557(4)
H12 H 1.0061 0.0614 0.6529
H13 H 0.9277 -0.0308 0.6587
H14 H 0.8946 0.0656 0.6825
C19 C 0.6489(8) 0.1741(6) 0.5114(3)
H15 H 0.6958 0.1992 0.4880
H16 H 0.6002 0.2245 0.5227
H17 H 0.5975 0.1235 0.4988
C20 C 1.0286(8) -0.1789(7) 0.3900(3)
H18 H 1.0900 -0.1352 0.3807
H19 H 1.0645 -0.2425 0.3926
C21 C 0.9299(8) -0.1814(7) 0.3536(3)
C22 C 0.9218(10) -0.1184(8) 0.3181(4)
H20 H 0.9788 -0.0695 0.3175
C23 C 0.8301(13) -0.1249(10) 0.2826(5)
H21 H 0.8273 -0.0803 0.2588
C24 C 0.7471(12) -0.1932(12) 0.2821(5)
H22 H 0.6860 -0.1966 0.2583
C25 C 0.7528(10) -0.2584(9) 0.3169(4)
H23 H 0.6954 -0.3072 0.3164
C26 C 0.8412(10) -0.2542(8) 0.3529(4)
H24 H 0.8425 -0.2991 0.3765
Br2 Br 0.45083(16) 0.65570(11) 0.22319(5)
N2 N 0.7542(7) 0.1204(5) 0.0761(3)
O3 O 0.8758(9) 0.2972(6) -0.1156(2)
O4 O 1.0152(6) 0.3813(5) -0.0522(2)
C27 C 0.8301(8) 0.2327(6) 0.0203(3)
C28 C 0.9173(8) 0.2977(6) 0.0084(3)
H25 H 0.9652 0.3290 0.0314
C29 C 0.9337(9) 0.3164(6) -0.0364(3)
C30 C 0.8545(11) 0.2736(7) -0.0721(3)
C31 C 0.7760(10) 0.2105(7) -0.0600(3)
H26 H 0.7287 0.1789 -0.0831
C32 C 0.7592(10) 0.1882(7) -0.0149(4)
C33 C 0.6619(9) 0.1166(7) -0.0020(3)
H27 H 0.5864 0.1317 -0.0198
H28 H 0.6857 0.0524 -0.0106
C34 C 0.6409(8) 0.1171(7) 0.0478(3)
H29 H 0.5921 0.1724 0.0545
H30 H 0.5967 0.0596 0.0551
C35 C 0.8140(8) 0.2147(6) 0.0703(3)
H31 H 0.8948 0.2111 0.0866
C36 C 0.7494(9) 0.2944(7) 0.0907(3)
C37 C 0.6928(9) 0.3546(7) 0.1095(4)
C38 C 0.6325(11) 0.4256(8) 0.1359(4)
C39 C 0.5819(15) 0.5039(11) 0.1144(5)
H32 H 0.5813 0.5100 0.0827
C40 C 0.5300(14) 0.5763(11) 0.1405(5)
H33 H 0.5010 0.6330 0.1268
C41 C 0.5236(12) 0.5601(10) 0.1878(4)
C42 C 0.5784(15) 0.4878(11) 0.2071(4)
H34 H 0.5830 0.4811 0.2389
C43 C 0.6305(14) 0.4199(11) 0.1804(5)
H35 H 0.6665 0.3666 0.1952
C44 C 0.7989(15) 0.2576(11) -0.1506(4)
H36 H 0.8411 0.2089 -0.1662
H37 H 0.7721 0.3070 -0.1721
H38 H 0.7302 0.2295 -0.1377
C45 C 1.0970(10) 0.4234(8) -0.0184(4)
H39 H 1.0529 0.4533 0.0047
H40 H 1.1448 0.4708 -0.0324
H41 H 1.1491 0.3746 -0.0044
C46 C 0.7338(10) 0.0993(8) 0.1246(3)
H42 H 0.6844 0.1501 0.1360
H43 H 0.6885 0.0398 0.1256
C47 C 0.8444(10) 0.0904(8) 0.1555(4)
C48 C 0.8859(12) 0.1567(10) 0.1873(4)
H44 H 0.8444 0.2145 0.1888
C49 C 0.9892(15) 0.1418(12) 0.2183(4)
H45 H 1.0172 0.1881 0.2396
C50 C 1.0456(12) 0.0536(11) 0.2148(5)
H46 H 1.1132 0.0403 0.2348
C51 C 1.0073(14) -0.0134(10) 0.1840(5)
H47 H 1.0473 -0.0721 0.1833
C52 C 0.9100(12) 0.0043(9) 0.1535(4)
H48 H 0.8867 -0.0412 0.1312
Br3 Br 0.85439(19) 0.37079(13) 0.29027(6)
N3 N 0.5086(6) -0.1500(4) 0.4279(2)
O5 O 0.2455(6) 0.1237(4) 0.54998(19)
O6 O 0.3997(7) 0.0634(5) 0.6144(2)
C53 C 0.4315(8) -0.0364(6) 0.4817(3)
C54 C 0.3425(8) 0.0327(5) 0.4921(3)
H49 H 0.2916 0.0593 0.4685
C55 C 0.3321(9) 0.0598(6) 0.5365(3)
C56 C 0.4146(9) 0.0261(7) 0.5719(3)
C57 C 0.4993(9) -0.0384(6) 0.5614(3)
H50 H 0.5528 -0.0617 0.5850
C58 C 0.5100(8) -0.0712(6) 0.5172(3)
C59 C 0.6033(8) -0.1444(6) 0.5071(3)
H51 H 0.6793 -0.1280 0.5242
H52 H 0.5784 -0.2069 0.5177
C60 C 0.6226(8) -0.1507(7) 0.4576(3)
H53 H 0.6721 -0.0969 0.4494
H54 H 0.6664 -0.2094 0.4521
C61 C 0.4459(8) -0.0582(6) 0.4324(3)
H55 H 0.3652 -0.0636 0.4163
C62 C 0.5121(9) 0.0224(6) 0.4105(3)
C63 C 0.5697(10) 0.0822(6) 0.3929(3)
C64 C 0.6372(9) 0.1495(7) 0.3708(3)
C65 C 0.7137(12) 0.1195(9) 0.3383(4)
H56 H 0.7191 0.0541 0.3321
C66 C 0.7836(14) 0.1841(10) 0.3142(4)
H57 H 0.8364 0.1631 0.2931
C67 C 0.7687(13) 0.2813(10) 0.3239(5)
C68 C 0.7015(12) 0.3141(8) 0.3583(5)
H58 H 0.7002 0.3788 0.3662
C69 C 0.6359(12) 0.2462(8) 0.3806(4)
H59 H 0.5885 0.2673 0.4035
C70 C 0.1598(8) 0.1564(6) 0.5156(3)
H60 H 0.2002 0.1876 0.4919
H61 H 0.1063 0.2012 0.5287
H62 H 0.1139 0.1029 0.5028
C71 C 0.4955(12) 0.0452(8) 0.6495(3)
H63 H 0.4975 -0.0221 0.6569
H64 H 0.4815 0.0816 0.6766
H65 H 0.5713 0.0640 0.6387
C72 C 0.5348(8) -0.1713(7) 0.3804(3)
H66 H 0.5727 -0.2341 0.3799
H67 H 0.5929 -0.1246 0.3711
C73 C 0.4288(9) -0.1708(6) 0.3457(3)
C74 C 0.3286(10) -0.2303(7) 0.3500(3)
H68 H 0.3254 -0.2697 0.3757
C75 C 0.2356(10) -0.2302(8) 0.3163(4)
H69 H 0.1696 -0.2700 0.3196
C76 C 0.2357(10) -0.1747(9) 0.2785(4)
H70 H 0.1721 -0.1792 0.2557
C77 C 0.3287(12) -0.1116(9) 0.2730(4)
H71 H 0.3276 -0.0706 0.2478
C78 C 0.4265(10) -0.1117(8) 0.3077(4)
H72 H 0.4913 -0.0705 0.3046
Br4 Br -0.05849(14) 0.62777(10) 0.23064(4)
N4 N 0.2541(7) 0.1065(5) 0.0779(3)
O7 O 0.3357(8) 0.3008(6) -0.1135(2)
O8 O 0.4878(6) 0.3791(5) -0.0528(2)
C79 C 0.3204(8) 0.2208(6) 0.0226(3)
C80 C 0.4036(8) 0.2897(6) 0.0091(3)
H73 H 0.4537 0.3202 0.0317
C81 C 0.4136(9) 0.3133(7) -0.0358(3)
C82 C 0.3277(11) 0.2717(8) -0.0691(3)
C83 C 0.2465(10) 0.2041(7) -0.0568(4)
H74 H 0.1942 0.1748 -0.0792
C84 C 0.2423(9) 0.1790(6) -0.0102(3)
C85 C 0.1499(9) 0.1042(7) 0.0024(3)
H75 H 0.0728 0.1173 -0.0146
H76 H 0.1764 0.0409 -0.0065
C86 C 0.1345(9) 0.1050(7) 0.0518(3)
H77 H 0.0901 0.0483 0.0600
H78 H 0.0886 0.1613 0.0594
C87 C 0.3128(8) 0.2008(6) 0.0725(3)
H79 H 0.3954 0.1969 0.0872
C88 C 0.2491(9) 0.2815(7) 0.0947(3)
C89 C 0.1976(9) 0.3411(7) 0.1152(3)
C90 C 0.1417(9) 0.4106(7) 0.1434(3)
C91 C 0.2029(7) 0.4531(8) 0.1817(4)
H80 H 0.2839 0.4386 0.1894
C92 C 0.1432(9) 0.5172(8) 0.2084(3)
H81 H 0.1841 0.5456 0.2340
C93 C 0.0222(9) 0.5389(7) 0.1969(3)
C94 C -0.0391(7) 0.4964(9) 0.1586(4)
H82 H -0.1200 0.5109 0.1509
C95 C 0.0207(9) 0.4322(8) 0.1319(3)
H83 H -0.0203 0.4038 0.1063
C96 C 0.2457(12) 0.2674(9) -0.1484(4)
H84 H 0.2670 0.2043 -0.1583
H85 H 0.2419 0.3106 -0.1741
H86 H 0.1683 0.2651 -0.1359
C97 C 0.5745(10) 0.4208(7) -0.0213(3)
H87 H 0.5357 0.4462 0.0042
H88 H 0.6149 0.4717 -0.0361
H89 H 0.6325 0.3729 -0.0106
C98 C 0.2399(9) 0.0840(7) 0.1273(3)
H90 H 0.1906 0.0267 0.1289
H91 H 0.1972 0.1366 0.1406
C99 C 0.3576(10) 0.0683(8) 0.1554(3)
C100 C 0.3956(10) 0.1372(8) 0.1876(4)
H92 H 0.3514 0.1934 0.1905
C101 C 0.5018(13) 0.1205(10) 0.2159(4)
H93 H 0.5293 0.1668 0.2373
C102 C 0.5661(14) 0.0364(12) 0.2126(5)
H94 H 0.6361 0.0254 0.2316
C103 C 0.5250(13) -0.0303(11) 0.1807(5)
H95 H 0.5668 -0.0879 0.1787
C104 C 0.4199(12) -0.0139(9) 0.1505(4)
H96 H 0.3947 -0.0585 0.1279
C105? C 0.136(2) 0.4098(14) 0.1360(6)
C106? C 0.131(2) 0.3967(12) 0.1831(7)
H97? H 0.1636 0.3414 0.1972
C107? C 0.078(2) 0.4663(15) 0.2091(5)
H98? H 0.0751 0.4575 0.2406
C108? C 0.030(2) 0.5489(14) 0.1880(6)
C109? C 0.034(2) 0.5620(13) 0.1410(6)
H99? H 0.0021 0.6173 0.1269
C110? C 0.087(2) 0.4925(15) 0.1150(5)
H100? H 0.0906 0.5012 0.0835
loop_
_geom_bond_atom_site_label_1
_geom_bond_atom_site_label_2
_geom_bond_site_symmetry_1
_geom_bond_site_symmetry_2
Br1 C15 1_555 1_555
N1 C8 1_555 1_555
O1 C4 1_555 1_555
O2 C3 1_555 1_555
C1 C2 1_555 1_555
C2 H1 1_555 1_555
C3 C2 1_555 1_555
C4 C3 1_555 1_555
C5 C4 1_555 1_555
H2 C5 1_555 1_555
C6 C1 1_555 1_555
C7 C6 1_555 1_555
H3 C7 1_555 1_555
H4 C7 1_555 1_555
C8 C7 1_555 1_555
H5 C8 1_555 1_555
H6 C8 1_555 1_555
C9 N1 1_555 1_555
H7 C9 1_555 1_555
C10 C9 1_555 1_555
C11 C10 1_555 1_555
C12 C11 1_555 1_555
C13 C12 1_555 1_555
H8 C13 1_555 1_555
C14 C13 1_555 1_555
H9 C14 1_555 1_555
C15 C14 1_555 1_555
C16 C15 1_555 1_555
H10 C16 1_555 1_555
C17 C12 1_555 1_555
H11 C17 1_555 1_555
C18 O1 1_555 1_555
H12 C18 1_555 1_555
H13 C18 1_555 1_555
H14 C18 1_555 1_555
C19 O2 1_555 1_555
H15 C19 1_555 1_555
H16 C19 1_555 1_555
H17 C19 1_555 1_555
C20 N1 1_555 1_555
H18 C20 1_555 1_555
H19 C20 1_555 1_555
C21 C20 1_555 1_555
C22 C21 1_555 1_555
H20 C22 1_555 1_555
C23 C22 1_555 1_555
H21 C23 1_555 1_555
C24 C23 1_555 1_555
H22 C24 1_555 1_555
C25 C24 1_555 1_555
H23 C25 1_555 1_555
C26 C21 1_555 1_555
H24 C26 1_555 1_555
Br2 C41 1_555 1_555
N2 C34 1_555 1_555
O3 C30 1_555 1_555
O4 C29 1_555 1_555
C27 C28 1_555 1_555
C28 H25 1_555 1_555
C29 C28 1_555 1_555
C30 C29 1_555 1_555
C31 C30 1_555 1_555
H26 C31 1_555 1_555
C32 C27 1_555 1_555
C33 C32 1_555 1_555
H27 C33 1_555 1_555
H28 C33 1_555 1_555
C34 C33 1_555 1_555
H29 C34 1_555 1_555
H30 C34 1_555 1_555
C35 N2 1_555 1_555
H31 C35 1_555 1_555
C36 C35 1_555 1_555
C37 C36 1_555 1_555
C38 C37 1_555 1_555
C39 C38 1_555 1_555
H32 C39 1_555 1_555
C40 C39 1_555 1_555
H33 C40 1_555 1_555
C41 C40 1_555 1_555
C42 C41 1_555 1_555
H34 C42 1_555 1_555
C43 C38 1_555 1_555
H35 C43 1_555 1_555
C44 O3 1_555 1_555
H36 C44 1_555 1_555
H37 C44 1_555 1_555
H38 C44 1_555 1_555
C45 O4 1_555 1_555
H39 C45 1_555 1_555
H40 C45 1_555 1_555
H41 C45 1_555 1_555
C46 N2 1_555 1_555
H42 C46 1_555 1_555
H43 C46 1_555 1_555
C47 C46 1_555 1_555
C48 C47 1_555 1_555
H44 C48 1_555 1_555
C49 C48 1_555 1_555
H45 C49 1_555 1_555
C50 C49 1_555 1_555
H46 C50 1_555 1_555
C51 C50 1_555 1_555
H47 C51 1_555 1_555
C52 C47 1_555 1_555
H48 C52 1_555 1_555
Br3 C67 1_555 1_555
N3 C60 1_555 1_555
O5 C55 1_555 1_555
O6 C56 1_555 1_555
C53 C54 1_555 1_555
C54 H49 1_555 1_555
C55 C54 1_555 1_555
C56 C55 1_555 1_555
C57 C56 1_555 1_555
H50 C57 1_555 1_555
C58 C53 1_555 1_555
C59 C58 1_555 1_555
H51 C59 1_555 1_555
H52 C59 1_555 1_555
C60 C59 1_555 1_555
H53 C60 1_555 1_555
H54 C60 1_555 1_555
C61 N3 1_555 1_555
H55 C61 1_555 1_555
C62 C61 1_555 1_555
C63 C62 1_555 1_555
C64 C63 1_555 1_555
C65 C64 1_555 1_555
H56 C65 1_555 1_555
C66 C65 1_555 1_555
H57 C66 1_555 1_555
C67 C66 1_555 1_555
C68 C67 1_555 1_555
H58 C68 1_555 1_555
C69 C64 1_555 1_555
H59 C69 1_555 1_555
C70 O5 1_555 1_555
H60 C70 1_555 1_555
H61 C70 1_555 1_555
H62 C70 1_555 1_555
C71 O6 1_555 1_555
H63 C71 1_555 1_555
H64 C71 1_555 1_555
H65 C71 1_555 1_555
C72 N3 1_555 1_555
H66 C72 1_555 1_555
H67 C72 1_555 1_555
C73 C72 1_555 1_555
C74 C73 1_555 1_555
H68 C74 1_555 1_555
C75 C74 1_555 1_555
H69 C75 1_555 1_555
C76 C75 1_555 1_555
H70 C76 1_555 1_555
C77 C76 1_555 1_555
H71 C77 1_555 1_555
C78 C73 1_555 1_555
H72 C78 1_555 1_555
Br4 C93 1_555 1_555
N4 C86 1_555 1_555
O7 C82 1_555 1_555
O8 C81 1_555 1_555
C79 C80 1_555 1_555
C80 H73 1_555 1_555
C81 C80 1_555 1_555
C82 C81 1_555 1_555
C83 C82 1_555 1_555
H74 C83 1_555 1_555
C84 C79 1_555 1_555
C85 C84 1_555 1_555
H75 C85 1_555 1_555
H76 C85 1_555 1_555
C86 C85 1_555 1_555
H77 C86 1_555 1_555
H78 C86 1_555 1_555
C87 N4 1_555 1_555
H79 C87 1_555 1_555
C88 C87 1_555 1_555
C89 C88 1_555 1_555
C90 C89 1_555 1_555
C91 C90 1_555 1_555
H80 C91 1_555 1_555
C92 C91 1_555 1_555
H81 C92 1_555 1_555
C93 C92 1_555 1_555
C94 C93 1_555 1_555
H82 C94 1_555 1_555
C95 C90 1_555 1_555
H83 C95 1_555 1_555
C96 O7 1_555 1_555
H84 C96 1_555 1_555
H85 C96 1_555 1_555
H86 C96 1_555 1_555
C97 O8 1_555 1_555
H87 C97 1_555 1_555
H88 C97 1_555 1_555
H89 C97 1_555 1_555
C98 N4 1_555 1_555
H90 C98 1_555 1_555
H91 C98 1_555 1_555
C99 C98 1_555 1_555
C100 C99 1_555 1_555
H92 C100 1_555 1_555
C101 C100 1_555 1_555
H93 C101 1_555 1_555
C102 C101 1_555 1_555
H94 C102 1_555 1_555
C103 C102 1_555 1_555
H95 C103 1_555 1_555
C104 C99 1_555 1_555
H96 C104 1_555 1_555
C1 C9 1_555 1_555
C5 C6 1_555 1_555
C16 C17 1_555 1_555
C25 C26 1_555 1_555
C27 C35 1_555 1_555
C31 C32 1_555 1_555
C42 C43 1_555 1_555
C51 C52 1_555 1_555
C53 C61 1_555 1_555
C57 C58 1_555 1_555
C68 C69 1_555 1_555
C77 C78 1_555 1_555
C79 C87 1_555 1_555
C83 C84 1_555 1_555
C94 C95 1_555 1_555
C103 C104 1_555 1_555

#END
