
#######################################################################
#
#                 Cambridge Crystallographic Data Centre
#                                CCDC 
#
#######################################################################
#
# If this CIF has been generated from an entry in the Cambridge 
# Structural Database, then it will include bibliographic, chemical, 
# crystal, experimental, refinement or atomic coordinate data resulting 
# from the CCDC's data processing and validation procedures.
#
#######################################################################

data_RINMAE
_chemical_compound_source        'Plant Physalis longifolia'
_chemical_name_common            
'ethyl acetate 4,7-dihydroxy-5,6:22,26-diepoxyergosta-2,24-diene-1,26-dione'
_chemical_formula_moiety         'C28 H38 O6,C4 H8 O2'
_chemical_name_systematic        
'(4S,20S,22R)-4\b,7beta -Dihydroxy-5\b,6beta -epoxy-1-oxowitha-2,24-dienolide'
_symmetry_cell_setting           monoclinic
_symmetry_space_group_name_H-M   'P 21'
_symmetry_Int_Tables_number      4
_space_group_name_Hall           'P 2yb'
loop_
_symmetry_equiv_pos_site_id
_symmetry_equiv_pos_as_xyz
1 x,y,z
2 -x,1/2+y,-z
_cell_length_a                   10.8300(19)
_cell_length_b                   12.273(2)
_cell_length_c                   11.693(2)
_cell_angle_alpha                90
_cell_angle_beta                 112.283(3)
_cell_angle_gamma                90
_cell_volume                     1438.13
_exptl_crystal_colour            colorless
_exptl_crystal_description       'Triangular plate'
_cell_formula_units_Z            2
_exptl_crystal_recrystallization_method EtOAc
loop_
_atom_site_label
_atom_site_type_symbol
_atom_site_fract_x
_atom_site_fract_y
_atom_site_fract_z
O1 O 0.63737(9) 0.64955(8) 0.18797(9)
O2 O 0.24443(9) 0.53731(8) 0.84946(9)
O3 O 0.86359(13) 0.33200(12) 0.41266(11)
O4 O 0.86208(10) 0.52905(10) 0.14257(10)
H1 H 0.8630(19) 0.5844(19) 0.0988(19)
O5 O 0.35965(10) 0.67293(8) 0.18201(9)
H2 H 0.289(2) 0.6591(18) 0.1143(19)
O6 O 0.14702(10) 0.59105(9) 0.97388(9)
C1 C 0.78381(15) 0.37435(14) 0.31966(15)
C2 C 0.74380(16) 0.31762(14) 0.19944(16)
H3 H 0.753(2) 0.2419(19) 0.2004(18)
C3 C 0.71992(14) 0.37423(13) 0.09639(15)
H4 H 0.7019(16) 0.3406(15) 0.0162(16)
C4 C 0.72522(14) 0.49691(12) 0.10310(13)
H5 H 0.6747(16) 0.5305(15) 0.0255(15)
C5 C 0.66386(13) 0.53358(12) 0.19310(12)
C6 C 0.52599(14) 0.57496(11) 0.13966(12)
H6 H 0.4835(16) 0.5802(14) 0.0515(15)
C7 C 0.43335(13) 0.57281(11) 0.20777(12)
H7 H 0.3728(16) 0.5122(15) 0.1766(14)
C8 C 0.50524(13) 0.55778(11) 0.34720(12)
H8 H 0.5479(15) 0.6261(14) 0.3796(14)
C9 C 0.60958(13) 0.46467(12) 0.37577(13)
H9 H 0.5591(16) 0.3980(14) 0.3299(15)
C10 C 0.72261(13) 0.48634(12) 0.32429(13)
C11 C 0.66888(14) 0.43639(13) 0.51454(13)
H10 H 0.7268(18) 0.4958(16) 0.5593(16)
H11 H 0.7247(17) 0.3715(16) 0.5252(16)
C12 C 0.56484(13) 0.41501(12) 0.57148(13)
H12 H 0.6101(16) 0.3981(14) 0.6585(16)
H13 H 0.5136(16) 0.3509(15) 0.5327(15)
C13 C 0.46878(13) 0.51114(11) 0.54832(12)
C14 C 0.40594(13) 0.52680(12) 0.40661(12)
H14 H 0.3724(14) 0.4560(14) 0.3731(14)
C15 C 0.28586(13) 0.60135(12) 0.38564(13)
H15 H 0.3161(15) 0.6799(15) 0.3950(15)
H16 H 0.2199(16) 0.5916(14) 0.3037(15)
C16 C 0.23532(14) 0.56702(13) 0.48776(13)
H17 H 0.2216(18) 0.6283(17) 0.5308(18)
H18 H 0.1523(18) 0.5325(15) 0.4507(15)
C17 C 0.34176(12) 0.48983(11) 0.57710(13)
H19 H 0.3148(15) 0.4097(15) 0.5539(15)
C18 C 0.54001(14) 0.61462(12) 0.61541(13)
H20 H 0.4753(18) 0.6744(16) 0.6016(17)
H21 H 0.5896(17) 0.6029(15) 0.7043(17)
H22 H 0.6064(18) 0.6401(15) 0.5858(16)
C19 C 0.83149(15) 0.56376(15) 0.40803(14)
H23 H 0.7962(14) 0.6333(13) 0.4305(13)
H24 H 0.887(2) 0.523(2) 0.487(2)
H25 H 0.8931(18) 0.5827(16) 0.3694(16)
C20 C 0.35702(13) 0.50348(11) 0.71326(13)
H26 H 0.3854(15) 0.5793(14) 0.7385(14)
C21 C 0.46170(14) 0.42745(13) 0.80262(13)
H27 H 0.5550(17) 0.4502(15) 0.8160(15)
H28 H 0.4552(17) 0.4331(16) 0.8842(17)
H29 H 0.4518(15) 0.3537(15) 0.7714(15)
C22 C 0.22294(13) 0.49141(12) 0.72718(12)
H30 H 0.1591(15) 0.5371(14) 0.6675(14)
C23 C 0.16741(14) 0.37776(12) 0.71690(14)
H31 H 0.1325(18) 0.3552(16) 0.6249(18)
H32 H 0.2303(19) 0.3263(17) 0.7619(17)
C24 C 0.05258(13) 0.37307(12) 0.75900(12)
C25 C 0.03585(13) 0.45084(12) 0.83249(12)
C26 C 0.14230(13) 0.53224(12) 0.88877(12)
C27 C -0.07728(15) 0.45507(14) 0.87731(15)
H33 H -0.1429 0.3987 0.8354
H34 H -0.1199 0.5269 0.8590
H35 H -0.0427 0.4424 0.9667
C28 C -0.03468(15) 0.27519(13) 0.71730(14)
H36 H -0.0741(19) 0.2723(17) 0.627(2)
H37 H -0.106(2) 0.2684(18) 0.749(2)
H38 H 0.018(2) 0.2061(19) 0.749(2)
O7 O 0.78657(11) 0.83173(10) -0.16134(10)
O8 O 0.84874(12) 0.69637(10) -0.02354(12)
C29 C 0.88108(17) 0.75225(17) -0.30031(17)
H39 H 0.808(2) 0.7812(17) -0.3670(19)
H40 H 0.859(2) 0.676(2) -0.285(2)
H41 H 0.961(2) 0.7479(19) -0.321(2)
C30 C 0.90844(17) 0.81993(16) -0.18593(16)
H42 H 0.9790(19) 0.7910(17) -0.1104(19)
H43 H 0.933(2) 0.8957(19) -0.1966(19)
C31 C 0.76900(15) 0.76481(13) -0.07921(14)
C32 C 0.63943(19) 0.78414(15) -0.06564(17)
H44 H 0.627(2) 0.7412(19) -0.002(2)
H45 H 0.563(2) 0.762(2) -0.142(2)
H46 H 0.626(2) 0.858(2) -0.055(2)
loop_
_geom_bond_atom_site_label_1
_geom_bond_atom_site_label_2
_geom_bond_site_symmetry_1
_geom_bond_site_symmetry_2
O1 C5 1_555 1_555
O2 C22 1_555 1_555
O3 C1 1_555 1_555
O4 H1 1_555 1_555
O5 H2 1_555 1_555
O6 C26 1_555 1_555
C1 C2 1_555 1_555
C2 H3 1_555 1_555
C3 C2 1_555 1_555
H4 C3 1_555 1_555
C4 O4 1_555 1_555
H5 C4 1_555 1_555
C5 C4 1_555 1_555
C6 O1 1_555 1_555
H6 C6 1_555 1_555
C7 O5 1_555 1_555
H7 C7 1_555 1_555
C8 C7 1_555 1_555
H8 C8 1_555 1_555
C9 C8 1_555 1_555
H9 C9 1_555 1_555
C10 C1 1_555 1_555
C11 C9 1_555 1_555
H10 C11 1_555 1_555
H11 C11 1_555 1_555
C12 C11 1_555 1_555
H12 C12 1_555 1_555
H13 C12 1_555 1_555
C13 C12 1_555 1_555
C14 C8 1_555 1_555
H14 C14 1_555 1_555
C15 C14 1_555 1_555
H15 C15 1_555 1_555
H16 C15 1_555 1_555
C16 C15 1_555 1_555
H17 C16 1_555 1_555
H18 C16 1_555 1_555
C17 C13 1_555 1_555
H19 C17 1_555 1_555
C18 C13 1_555 1_555
H20 C18 1_555 1_555
H21 C18 1_555 1_555
H22 C18 1_555 1_555
C19 C10 1_555 1_555
H23 C19 1_555 1_555
H24 C19 1_555 1_555
H25 C19 1_555 1_555
C20 C17 1_555 1_555
H26 C20 1_555 1_555
C21 C20 1_555 1_555
H27 C21 1_555 1_555
H28 C21 1_555 1_555
H29 C21 1_555 1_555
C22 C20 1_555 1_555
H30 C22 1_555 1_555
C23 C22 1_555 1_555
H31 C23 1_555 1_555
H32 C23 1_555 1_555
C24 C23 1_555 1_555
C25 C24 1_555 1_555
C26 O2 1_555 1_555
C27 C25 1_555 1_555
H33 C27 1_555 1_555
H34 C27 1_555 1_555
H35 C27 1_555 1_555
C28 C24 1_555 1_555
H36 C28 1_555 1_555
H37 C28 1_555 1_555
H38 C28 1_555 1_555
O7 C30 1_555 1_555
O8 C31 1_555 1_555
C29 H39 1_555 1_555
H40 C29 1_555 1_555
H41 C29 1_555 1_555
C30 C29 1_555 1_555
H42 C30 1_555 1_555
H43 C30 1_555 1_555
C31 O7 1_555 1_555
C32 C31 1_555 1_555
H44 C32 1_555 1_555
H45 C32 1_555 1_555
H46 C32 1_555 1_555
C3 C4 1_555 1_555
C5 C6 1_555 1_555
C5 C10 1_555 1_555
C6 C7 1_555 1_555
C9 C10 1_555 1_555
C13 C14 1_555 1_555
C16 C17 1_555 1_555
C25 C26 1_555 1_555

#END
