
#######################################################################
#
#                 Cambridge Crystallographic Data Centre
#                                CCDC 
#
#######################################################################
#
# If this CIF has been generated from an entry in the Cambridge 
# Structural Database, then it will include bibliographic, chemical, 
# crystal, experimental, refinement or atomic coordinate data resulting 
# from the CCDC's data processing and validation procedures.
#
#######################################################################

data_RINNAF
_chemical_name_common            
'1-(2-(3-Ethyl-2, 2-dimethylcyclobutyl)acetyl)-3-phenylthiourea'
_chemical_formula_moiety         'C17 H24 N2 O1 S1'
_chemical_name_systematic        
2-(3-Ethyl-2,2-dimethylcyclobutyl)-N-(phenylcarbamothioyl)acetamide
_symmetry_cell_setting           triclinic
_symmetry_space_group_name_H-M   'P -1'
_symmetry_Int_Tables_number      2
_space_group_name_Hall           '-P 1'
loop_
_symmetry_equiv_pos_site_id
_symmetry_equiv_pos_as_xyz
1 x,y,z
2 -x,-y,-z
_cell_length_a                   10.200(2)
_cell_length_b                   12.395(3)
_cell_length_c                   15.679(3)
_cell_angle_alpha                92.99(2)
_cell_angle_beta                 106.00(3)
_cell_angle_gamma                111.95(3)
_cell_volume                     1740.38
_exptl_crystal_colour            colorless
_exptl_crystal_description       needle
_chemical_melting_point          '373 K'
_cell_formula_units_Z            4
loop_
_atom_site_label
_atom_site_type_symbol
_atom_site_fract_x
_atom_site_fract_y
_atom_site_fract_z
S1 S 0.99848(13) 0.34631(11) 0.58928(8)
O1 O 1.0313(3) 0.3907(3) 0.30815(19)
N1 N 0.9181(4) 0.3337(3) 0.4139(2)
H1 H 0.8315 0.2968 0.4193
N2 N 1.1709(4) 0.4146(3) 0.4831(2)
H2 H 1.1737 0.4192 0.4290
C1 C 0.7548(7) 0.5100(5) -0.0562(4)
H3 H 0.7038 0.5186 -0.1151
H4 H 0.8388 0.4936 -0.0583
H5 H 0.7887 0.5817 -0.0146
C2 C 0.6560(7) 0.4154(6) -0.0276(4)
H6 H 0.5684 0.4321 -0.0344
H7 H 0.6248 0.3463 -0.0726
C3 C 0.6832(7) 0.3795(6) 0.0515(4)
H8 H 0.7310 0.3326 0.0307
C4 C 0.7538(5) 0.3257(5) 0.1711(3)
H9 H 0.8048 0.2776 0.1566
C5 C 0.8087(7) 0.4321(5) 0.1336(4)
H10 H 0.8101 0.5013 0.1663
H11 H 0.9044 0.4483 0.1248
C6 C 0.6054(6) 0.2818(5) 0.0955(4)
C7 C 0.4810(8) 0.2941(7) 0.1260(5)
H12 H 0.3911 0.2673 0.0756
H13 H 0.5094 0.3755 0.1496
H14 H 0.4643 0.2473 0.1719
C8 C 0.5439(7) 0.1591(5) 0.0466(4)
H15 H 0.4503 0.1426 0.0013
H16 H 0.5290 0.1051 0.0882
H17 H 0.6126 0.1500 0.0184
C9 C 0.7638(5) 0.3217(5) 0.2635(3)
H18 H 0.6989 0.2430 0.2677
H19 H 0.7262 0.3764 0.2832
C10 C 0.9190(5) 0.3512(4) 0.3283(3)
C11 C 1.0363(5) 0.3668(3) 0.4926(3)
C12 C 1.3113(4) 0.4592(4) 0.5534(3)
C13 C 1.4126(4) 0.5701(4) 0.5531(3)
H20 H 1.3864 0.6142 0.5105
C14 C 1.5530(5) 0.6156(4) 0.6162(3)
H21 H 1.6223 0.6900 0.6160
C15 C 1.5891(5) 0.5504(5) 0.6789(3)
H22 H 1.6830 0.5815 0.7222
C16 C 1.4888(6) 0.4396(5) 0.6789(3)
H23 H 1.5157 0.3951 0.7210
C17 C 1.3486(5) 0.3945(4) 0.6167(3)
H24 H 1.2793 0.3203 0.6175
S2 S 0.56508(13) 0.14000(10) 0.40497(8)
O2 O 0.7544(4) -0.1240(3) 0.5102(2)
N3 N 0.7464(4) 0.0568(3) 0.5027(2)
H25 H 0.7924 0.1296 0.5286
N4 N 0.5441(3) -0.0825(3) 0.3936(2)
H26 H 0.5806 -0.1294 0.4191
C18 C 0.9597(5) -0.1702(4) 0.9208(3)
H27 H 1.0146 -0.1959 0.9696
H28 H 0.9047 -0.2342 0.8706
H29 H 0.8918 -0.1459 0.9399
C19 C 1.0604(5) -0.0737(4) 0.8947(3)
H30 H 1.1323 -0.1002 0.8818
H31 H 1.1146 -0.0125 0.9477
C20 C 1.0147(5) -0.0155(4) 0.8201(3)
H32 H 0.9720 0.0325 0.8450
C21 C 0.8997(5) -0.0785(5) 0.7339(3)
H33 H 0.7995 -0.0919 0.7334
H34 H 0.9040 -0.1510 0.7112
C22 C 0.9686(6) 0.0247(6) 0.6902(4)
H35 H 0.9220 0.0763 0.7050
C23 C 1.1123(6) 0.0684(5) 0.7751(4)
C24 C 1.1665(8) 0.1930(6) 0.8169(5)
H36 H 1.2563 0.2136 0.8665
H37 H 1.0919 0.2038 0.8383
H38 H 1.1865 0.2428 0.7731
C25 C 1.2386(7) 0.0459(7) 0.7593(4)
H39 H 1.3218 0.0739 0.8139
H40 H 1.2672 0.0868 0.7127
H41 H 1.2078 -0.0373 0.7412
C26 C 0.9599(6) 0.0394(5) 0.6038(4)
H42 H 1.0249 0.0089 0.5857
H43 H 0.9980 0.1234 0.6021
C27 C 0.8111(5) -0.0173(5) 0.5375(3)
C28 C 0.6166(4) 0.0302(4) 0.4314(3)
C29 C 0.4156(4) -0.1366(3) 0.3177(3)
C30 C 0.3138(5) -0.2478(4) 0.3188(3)
H44 H 0.3311 -0.2832 0.3692
C31 C 0.1884(5) -0.3058(4) 0.2468(3)
H45 H 0.1188 -0.3790 0.2490
C32 C 0.1658(5) -0.2575(5) 0.1736(4)
H46 H 0.0817 -0.2991 0.1241
C33 C 0.2640(5) -0.1469(5) 0.1687(3)
H47 H 0.2455 -0.1136 0.1173
C34 C 0.3884(5) -0.0879(4) 0.2410(3)
H48 H 0.4558 -0.0136 0.2387
loop_
_geom_bond_atom_site_label_1
_geom_bond_atom_site_label_2
_geom_bond_site_symmetry_1
_geom_bond_site_symmetry_2
S1 C11 1_555 1_555
O1 C10 1_555 1_555
N1 H1 1_555 1_555
N2 H2 1_555 1_555
C1 H3 1_555 1_555
H4 C1 1_555 1_555
H5 C1 1_555 1_555
C2 C1 1_555 1_555
H6 C2 1_555 1_555
H7 C2 1_555 1_555
C3 C2 1_555 1_555
H8 C3 1_555 1_555
C4 H9 1_555 1_555
C5 C3 1_555 1_555
H10 C5 1_555 1_555
H11 C5 1_555 1_555
C6 C3 1_555 1_555
C7 C6 1_555 1_555
H12 C7 1_555 1_555
H13 C7 1_555 1_555
H14 C7 1_555 1_555
C8 C6 1_555 1_555
H15 C8 1_555 1_555
H16 C8 1_555 1_555
H17 C8 1_555 1_555
C9 C4 1_555 1_555
H18 C9 1_555 1_555
H19 C9 1_555 1_555
C10 N1 1_555 1_555
C11 N1 1_555 1_555
C12 N2 1_555 1_555
C13 C12 1_555 1_555
H20 C13 1_555 1_555
C14 C13 1_555 1_555
H21 C14 1_555 1_555
C15 C14 1_555 1_555
H22 C15 1_555 1_555
C16 C15 1_555 1_555
H23 C16 1_555 1_555
C17 C12 1_555 1_555
H24 C17 1_555 1_555
S2 C28 1_555 1_555
O2 C27 1_555 1_555
N3 H25 1_555 1_555
N4 H26 1_555 1_555
C18 H27 1_555 1_555
H28 C18 1_555 1_555
H29 C18 1_555 1_555
C19 C18 1_555 1_555
H30 C19 1_555 1_555
H31 C19 1_555 1_555
C20 C19 1_555 1_555
H32 C20 1_555 1_555
C21 C20 1_555 1_555
H33 C21 1_555 1_555
H34 C21 1_555 1_555
C22 C21 1_555 1_555
H35 C22 1_555 1_555
C23 C20 1_555 1_555
C24 C23 1_555 1_555
H36 C24 1_555 1_555
H37 C24 1_555 1_555
H38 C24 1_555 1_555
C25 C23 1_555 1_555
H39 C25 1_555 1_555
H40 C25 1_555 1_555
H41 C25 1_555 1_555
C26 C22 1_555 1_555
H42 C26 1_555 1_555
H43 C26 1_555 1_555
C27 N3 1_555 1_555
C28 N3 1_555 1_555
C29 N4 1_555 1_555
C30 C29 1_555 1_555
H44 C30 1_555 1_555
C31 C30 1_555 1_555
H45 C31 1_555 1_555
C32 C31 1_555 1_555
H46 C32 1_555 1_555
C33 C32 1_555 1_555
H47 C33 1_555 1_555
C34 C29 1_555 1_555
H48 C34 1_555 1_555
N2 C11 1_555 1_555
C4 C5 1_555 1_555
C4 C6 1_555 1_555
C9 C10 1_555 1_555
C16 C17 1_555 1_555
N4 C28 1_555 1_555
C22 C23 1_555 1_555
C26 C27 1_555 1_555
C33 C34 1_555 1_555

#END
