
#######################################################################
#
#                 Cambridge Crystallographic Data Centre
#                                CCDC 
#
#######################################################################
#
# If this CIF has been generated from an entry in the Cambridge 
# Structural Database, then it will include bibliographic, chemical, 
# crystal, experimental, refinement or atomic coordinate data resulting 
# from the CCDC's data processing and validation procedures.
#
#######################################################################

data_RINNUZ
_chemical_formula_moiety         'C27 H39 N3 O6'
_chemical_name_systematic        'Benzene-1,3,5-triyl tris(cyclohexylcarbamate)'
_symmetry_cell_setting           triclinic
_symmetry_space_group_name_H-M   'P -1'
_symmetry_Int_Tables_number      2
_space_group_name_Hall           '-P 1'
loop_
_symmetry_equiv_pos_site_id
_symmetry_equiv_pos_as_xyz
1 x,y,z
2 -x,-y,-z
_cell_length_a                   9.7843(5)
_cell_length_b                   12.0137(6)
_cell_length_c                   12.5621(6)
_cell_angle_alpha                109.821(2)
_cell_angle_beta                 102.469(2)
_cell_angle_gamma                93.990(2)
_cell_volume                     1339.89
_exptl_crystal_colour            colorless
_exptl_crystal_description       plate
_cell_formula_units_Z            2
loop_
_atom_site_label
_atom_site_type_symbol
_atom_site_fract_x
_atom_site_fract_y
_atom_site_fract_z
O1 O 0.06137(10) 0.38225(8) 0.79655(8)
O2 O -0.11182(11) 0.23913(8) 0.65601(8)
O3 O 0.09874(10) 0.64021(8) 0.57937(8)
O4 O 0.32315(10) 0.64761(9) 0.68463(9)
O5 O -0.26957(10) 0.65780(9) 0.76882(8)
O6 O -0.20675(10) 0.68326(9) 0.96204(8)
N1 N 0.03443(12) 0.19957(10) 0.80189(10)
H1 H 0.1069 0.2294 0.8638
N2 N 0.28127(12) 0.68276(11) 0.51459(10)
H2 H 0.2145 0.6845 0.4559
N3 N -0.43117(12) 0.69316(12) 0.87105(10)
H3 H -0.4849 0.6925 0.8049
C1 C 0.00981(14) 0.46919(11) 0.75384(12)
C2 C 0.08170(14) 0.50616(12) 0.68600(11)
H4 H 0.1589 0.4693 0.6631
C3 C 0.03756(14) 0.59906(12) 0.65222(11)
C4 C -0.07718(14) 0.65112(11) 0.68250(11)
H5 H -0.1068 0.7143 0.6582
C5 C -0.14772(14) 0.60915(12) 0.74888(12)
C6 C -0.10496(14) 0.51825(12) 0.78667(12)
H6 H -0.1529 0.4908 0.8334
C7 C -0.01458(14) 0.26869(12) 0.74359(12)
C8 C -0.03106(15) 0.07390(12) 0.76407(12)
H7 H -0.1364 0.0696 0.7438
C9 C 0.01191(16) -0.00352(13) 0.65583(13)
H8 H -0.0447 -0.0845 0.6248
H9 H -0.0097 0.0318 0.5946
C10 C 0.16891(17) -0.01401(13) 0.68270(13)
H10 H 0.2258 0.0657 0.7056
H11 H 0.1910 -0.0683 0.6115
C11 C 0.20896(16) -0.06213(13) 0.78114(13)
H12 H 0.3122 -0.0637 0.7998
H13 H 0.1595 -0.1452 0.7551
C12 C 0.16898(16) 0.01563(13) 0.89068(13)
H14 H 0.2274 0.0959 0.9222
H15 H 0.1896 -0.0208 0.9511
C13 C 0.01232(16) 0.02880(13) 0.86463(13)
H16 H -0.0074 0.0855 0.9358
H17 H -0.0458 -0.0498 0.8446
C14 C 0.24440(14) 0.65637(12) 0.59940(12)
C15 C 0.42992(14) 0.70920(13) 0.51520(12)
H18 H 0.4892 0.6831 0.5752
C16 C 0.47501(18) 0.84149(15) 0.54891(19)
H19 H 0.4629 0.8847 0.6280
H20 H 0.4141 0.8704 0.4932
C17 C 0.62954(19) 0.86798(17) 0.5483(2)
H21 H 0.6553 0.9547 0.5661
H22 H 0.6911 0.8469 0.6100
C18 C 0.6542(2) 0.7974(3) 0.4304(2)
H23 H 0.6007 0.8250 0.3702
H24 H 0.7561 0.8123 0.4339
C19 C 0.60772(19) 0.6650(2) 0.39630(16)
H25 H 0.6689 0.6356 0.4515
H26 H 0.6192 0.6220 0.3170
C20 C 0.45334(17) 0.63797(17) 0.39744(15)
H27 H 0.3910 0.6583 0.3356
H28 H 0.4282 0.5513 0.3804
C21 C -0.29718(14) 0.67845(12) 0.87682(12)
C22 C -0.49326(15) 0.71043(13) 0.97062(12)
H29 H -0.4166 0.7160 1.0401
C23 C -0.60556(17) 0.60361(14) 0.94395(13)
H30 H -0.5618 0.5298 0.9279
H31 H -0.6800 0.5946 0.8730
C24 C -0.67286(19) 0.61912(16) 1.04603(15)
H32 H -0.7498 0.5512 1.0239
H33 H -0.6008 0.6182 1.1143
C25 C -0.73263(19) 0.73594(17) 1.07957(16)
H34 H -0.8139 0.7321 1.0152
H35 H -0.7677 0.7467 1.1502
C26 C -0.62179(19) 0.84246(16) 1.10394(15)
H36 H -0.5460 0.8523 1.1744
H37 H -0.6660 0.9161 1.1200
C27 C -0.55708(17) 0.82587(14) 1.00015(14)
H38 H -0.6312 0.8230 0.9313
H39 H -0.4825 0.8948 1.0196
loop_
_geom_bond_atom_site_label_1
_geom_bond_atom_site_label_2
_geom_bond_site_symmetry_1
_geom_bond_site_symmetry_2
O1 C1 1_555 1_555
O2 C7 1_555 1_555
O3 C3 1_555 1_555
O4 C14 1_555 1_555
O5 C5 1_555 1_555
O6 C21 1_555 1_555
N1 H1 1_555 1_555
N2 H2 1_555 1_555
N3 H3 1_555 1_555
C1 C2 1_555 1_555
C2 H4 1_555 1_555
C3 C2 1_555 1_555
C4 C3 1_555 1_555
H5 C4 1_555 1_555
C5 C4 1_555 1_555
C6 C1 1_555 1_555
H6 C6 1_555 1_555
C7 O1 1_555 1_555
C8 N1 1_555 1_555
H7 C8 1_555 1_555
C9 C8 1_555 1_555
H8 C9 1_555 1_555
H9 C9 1_555 1_555
C10 C9 1_555 1_555
H10 C10 1_555 1_555
H11 C10 1_555 1_555
C11 C10 1_555 1_555
H12 C11 1_555 1_555
H13 C11 1_555 1_555
C12 C11 1_555 1_555
H14 C12 1_555 1_555
H15 C12 1_555 1_555
C13 C8 1_555 1_555
H16 C13 1_555 1_555
H17 C13 1_555 1_555
C14 O3 1_555 1_555
C15 N2 1_555 1_555
H18 C15 1_555 1_555
C16 C15 1_555 1_555
H19 C16 1_555 1_555
H20 C16 1_555 1_555
C17 C16 1_555 1_555
H21 C17 1_555 1_555
H22 C17 1_555 1_555
C18 C17 1_555 1_555
H23 C18 1_555 1_555
H24 C18 1_555 1_555
C19 C18 1_555 1_555
H25 C19 1_555 1_555
H26 C19 1_555 1_555
C20 C15 1_555 1_555
H27 C20 1_555 1_555
H28 C20 1_555 1_555
C21 O5 1_555 1_555
C22 N3 1_555 1_555
H29 C22 1_555 1_555
C23 C22 1_555 1_555
H30 C23 1_555 1_555
H31 C23 1_555 1_555
C24 C23 1_555 1_555
H32 C24 1_555 1_555
H33 C24 1_555 1_555
C25 C24 1_555 1_555
H34 C25 1_555 1_555
H35 C25 1_555 1_555
C26 C25 1_555 1_555
H36 C26 1_555 1_555
H37 C26 1_555 1_555
C27 C22 1_555 1_555
H38 C27 1_555 1_555
H39 C27 1_555 1_555
N1 C7 1_555 1_555
N2 C14 1_555 1_555
N3 C21 1_555 1_555
C5 C6 1_555 1_555
C12 C13 1_555 1_555
C19 C20 1_555 1_555
C26 C27 1_555 1_555

#END
