
#######################################################################
#
#                 Cambridge Crystallographic Data Centre
#                                CCDC 
#
#######################################################################
#
# If this CIF has been generated from an entry in the Cambridge 
# Structural Database, then it will include bibliographic, chemical, 
# crystal, experimental, refinement or atomic coordinate data resulting 
# from the CCDC's data processing and validation procedures.
#
#######################################################################

data_RINPEL
_chemical_formula_moiety         'C27 H39 N3 O6,C4 H8 O1'
_chemical_name_systematic        
'Benzene-1,3,5-triyl tris(cyclohexylcarbamate) tetrahydrofuran clathrate'
_symmetry_cell_setting           triclinic
_symmetry_space_group_name_H-M   'P -1'
_symmetry_Int_Tables_number      2
_space_group_name_Hall           '-P 1'
loop_
_symmetry_equiv_pos_site_id
_symmetry_equiv_pos_as_xyz
1 x,y,z
2 -x,-y,-z
_cell_length_a                   9.6082(7)
_cell_length_b                   12.7842(9)
_cell_length_c                   14.6055(10)
_cell_angle_alpha                74.979(3)
_cell_angle_beta                 71.027(3)
_cell_angle_gamma                77.567(3)
_cell_volume                     1621.65
_exptl_crystal_colour            colorless
_exptl_crystal_description       chunk
_cell_formula_units_Z            2
loop_
_atom_site_label
_atom_site_type_symbol
_atom_site_fract_x
_atom_site_fract_y
_atom_site_fract_z
O1 O 0.48763(14) 0.56085(11) 0.37928(12)
O2 O 0.26943(17) 0.66423(12) 0.36311(15)
O3 O 0.86696(14) 0.75408(11) 0.35444(12)
O4 O 0.81945(17) 0.93880(12) 0.33383(15)
O5 O 0.38550(16) 0.82224(11) 0.58631(10)
O6 O 0.4428(2) 0.68684(14) 0.70824(12)
N1 N 0.32469(19) 0.48723(14) 0.34794(17)
H1 H 0.3931 0.4302 0.3472
N2 N 1.0500(2) 0.84768(14) 0.32672(18)
H2 H 1.1038 0.7836 0.3259
N3 N 0.2776(2) 0.83745(14) 0.74143(13)
H3 H 0.2250 0.8951 0.7158
C1 C 0.5270(2) 0.64181(14) 0.41003(15)
C2 C 0.66955(19) 0.66657(15) 0.36386(14)
H4 H 0.7325 0.6336 0.3116
C3 C 0.71741(19) 0.74110(15) 0.39647(15)
C4 C 0.6252(2) 0.79248(15) 0.47157(15)
H5 H 0.6579 0.8442 0.4924
C5 C 0.4834(2) 0.76531(15) 0.51504(14)
C6 C 0.4322(2) 0.68944(15) 0.48691(15)
H6 H 0.3362 0.6707 0.5188
C7 C 0.3506(2) 0.57735(15) 0.36340(16)
C8 C 0.1849(2) 0.47967(17) 0.33199(18)
H7 H 0.1165 0.5479 0.3438
C9 C 0.1142(3) 0.3863(3) 0.4055(2)
H8 H 0.0954 0.3975 0.4726
H9 H 0.1826 0.3180 0.3986
C10 C -0.0324(3) 0.3768(3) 0.3900(3)
H10 H -0.0726 0.3127 0.4366
H11 H -0.1044 0.4417 0.4044
C11 C -0.0145(4) 0.3667(3) 0.2908(3)
H12 H -0.1119 0.3658 0.2833
H13 H 0.0479 0.2972 0.2789
C12 C 0.0570(4) 0.4612(5) 0.2148(2)
H14 H -0.0115 0.5296 0.2209
H15 H 0.0758 0.4489 0.1481
C13 C 0.2050(3) 0.4715(4) 0.2301(2)
H16 H 0.2781 0.4074 0.2147
H17 H 0.2438 0.5366 0.1846
C14 C 0.9066(2) 0.85636(15) 0.33818(16)
C15 C 1.1221(3) 0.94188(17) 0.3153(2)
H18 H 1.0507 1.0097 0.3071
C16 C 1.2555(5) 0.9478(4) 0.2268(3)
H19 H 1.2248 0.9575 0.1670
H20 H 1.3241 0.8792 0.2326
C17 C 1.3352(6) 1.0445(4) 0.2181(3)
H21 H 1.4254 1.0446 0.1620
H22 H 1.2699 1.1134 0.2047
C18 C 1.3751(5) 1.0385(4) 0.3073(4)
H23 H 1.4162 1.1049 0.3004
H24 H 1.4530 0.9759 0.3144
C19 C 1.2499(5) 1.0273(3) 0.3961(3)
H25 H 1.1794 1.0952 0.3943
H26 H 1.2856 1.0157 0.4542
C20 C 1.1702(4) 0.9323(2) 0.4063(2)
H27 H 1.2367 0.8633 0.4167
H28 H 1.0826 0.9310 0.4642
C21 C 0.3726(2) 0.77416(15) 0.68306(15)
C22 C 0.2586(5) 0.8132(3) 0.8471(3)
H29 H 0.3547 0.7771 0.8595
C23 C 0.1436(6) 0.7357(4) 0.8989(3)
H30 H 0.1764 0.6679 0.8736
H31 H 0.0485 0.7696 0.8857
C24 C 0.1238(9) 0.7101(5) 1.0108(3)
H32 H 0.0502 0.6598 1.0442
H33 H 0.2184 0.6737 1.0236
C25 C 0.0730(17) 0.8135(12) 1.0530(9)
H34 H 0.0651 0.7953 1.1237
H35 H -0.0250 0.8476 1.0448
C26 C 0.1870(7) 0.8929(5) 0.9979(4)
H36 H 0.1524 0.9614 1.0222
H37 H 0.2821 0.8610 1.0118
C27 C 0.2098(4) 0.9173(3) 0.8878(3)
H38 H 0.2854 0.9661 0.8550
H39 H 0.1167 0.9551 0.8734
C34 C 0.3062(15) 0.4250(8) 0.8872(7)
H51 H 0.3627 0.4528 0.8190
H52 H 0.2128 0.4748 0.9032
O7 O 0.2741(16) 0.3159(11) 0.8955(10)
C35 C 0.4225(19) 0.2588(11) 0.9172(15)
H53 H 0.4365 0.1789 0.9260
H54 H 0.5099 0.2890 0.8694
C36 C 0.3767(18) 0.2948(13) 1.0042(10)
H55 H 0.4469 0.2672 1.0439
H56 H 0.2763 0.2804 1.0440
C37 C 0.3833(15) 0.4220(10) 0.9477(8)
H57 H 0.3350 0.4726 0.9928
H58 H 0.4853 0.4364 0.9123
C28? C 0.2010(18) 0.7872(12) 0.8531(12)
H40? H 0.2090 0.7068 0.8635
C29? C 0.0433(14) 0.8366(14) 0.8876(9)
H41? H -0.0164 0.8152 0.8542
H42? H 0.0356 0.9166 0.8714
C30? C -0.017(2) 0.796(2) 1.0028(13)
H43? H -0.0166 0.7165 1.0204
H44? H -0.1177 0.8324 1.0289
C31? C 0.104(6) 0.831(4) 1.044(3)
H45? H 0.1072 0.9099 1.0200
H46? H 0.0684 0.8177 1.1166
C32? C 0.244(2) 0.776(2) 1.0160(12)
H47? H 0.2432 0.6966 1.0326
H48? H 0.3097 0.7930 1.0476
C33? C 0.2927(18) 0.8166(15) 0.9062(11)
H49? H 0.3969 0.7861 0.8802
H50? H 0.2868 0.8964 0.8922
loop_
_geom_bond_atom_site_label_1
_geom_bond_atom_site_label_2
_geom_bond_site_symmetry_1
_geom_bond_site_symmetry_2
O1 C1 1_555 1_555
O2 C7 1_555 1_555
O3 C3 1_555 1_555
O4 C14 1_555 1_555
O5 C5 1_555 1_555
O6 C21 1_555 1_555
N1 H1 1_555 1_555
N2 H2 1_555 1_555
N3 H3 1_555 1_555
C1 C2 1_555 1_555
C2 H4 1_555 1_555
C3 C2 1_555 1_555
C4 C3 1_555 1_555
H5 C4 1_555 1_555
C5 C4 1_555 1_555
C6 C1 1_555 1_555
H6 C6 1_555 1_555
C7 O1 1_555 1_555
C8 N1 1_555 1_555
H7 C8 1_555 1_555
C9 C8 1_555 1_555
H8 C9 1_555 1_555
H9 C9 1_555 1_555
C10 C9 1_555 1_555
H10 C10 1_555 1_555
H11 C10 1_555 1_555
C11 C10 1_555 1_555
H12 C11 1_555 1_555
H13 C11 1_555 1_555
C12 C11 1_555 1_555
H14 C12 1_555 1_555
H15 C12 1_555 1_555
C13 C8 1_555 1_555
H16 C13 1_555 1_555
H17 C13 1_555 1_555
C14 O3 1_555 1_555
C15 N2 1_555 1_555
H18 C15 1_555 1_555
C16 C15 1_555 1_555
H19 C16 1_555 1_555
H20 C16 1_555 1_555
C17 C16 1_555 1_555
H21 C17 1_555 1_555
H22 C17 1_555 1_555
C18 C17 1_555 1_555
H23 C18 1_555 1_555
H24 C18 1_555 1_555
C19 C18 1_555 1_555
H25 C19 1_555 1_555
H26 C19 1_555 1_555
C20 C15 1_555 1_555
H27 C20 1_555 1_555
H28 C20 1_555 1_555
C21 O5 1_555 1_555
C22 N3 1_555 1_555
H29 C22 1_555 1_555
C23 C22 1_555 1_555
H30 C23 1_555 1_555
H31 C23 1_555 1_555
C24 C23 1_555 1_555
H32 C24 1_555 1_555
H33 C24 1_555 1_555
C25 C24 1_555 1_555
H34 C25 1_555 1_555
H35 C25 1_555 1_555
C26 C25 1_555 1_555
H36 C26 1_555 1_555
H37 C26 1_555 1_555
C27 C22 1_555 1_555
H38 C27 1_555 1_555
H39 C27 1_555 1_555
C34 H51 1_555 1_555
H52 C34 1_555 1_555
O7 C34 1_555 1_555
C35 O7 1_555 1_555
H53 C35 1_555 1_555
H54 C35 1_555 1_555
C36 C35 1_555 1_555
H55 C36 1_555 1_555
H56 C36 1_555 1_555
C37 C34 1_555 1_555
H57 C37 1_555 1_555
H58 C37 1_555 1_555
N1 C7 1_555 1_555
N2 C14 1_555 1_555
N3 C21 1_555 1_555
C5 C6 1_555 1_555
C12 C13 1_555 1_555
C19 C20 1_555 1_555
C26 C27 1_555 1_555
C36 C37 1_555 1_555

#END
