
#######################################################################
#
#                 Cambridge Crystallographic Data Centre
#                                CCDC 
#
#######################################################################
#
# If this CIF has been generated from an entry in the Cambridge 
# Structural Database, then it will include bibliographic, chemical, 
# crystal, experimental, refinement or atomic coordinate data resulting 
# from the CCDC's data processing and validation procedures.
#
#######################################################################

data_RINPUB
_chemical_formula_moiety         'C27 H39 N3 O6,C6 H12'
_chemical_name_systematic        
'Benzene-1,3,5-triyl tris(cyclohexylcarbamate) cyclohexane clathrate'
_symmetry_cell_setting           triclinic
_symmetry_space_group_name_H-M   'P -1'
_symmetry_Int_Tables_number      2
_space_group_name_Hall           '-P 1'
loop_
_symmetry_equiv_pos_site_id
_symmetry_equiv_pos_as_xyz
1 x,y,z
2 -x,-y,-z
_cell_length_a                   9.3142(6)
_cell_length_b                   12.9790(10)
_cell_length_c                   14.8266(10)
_cell_angle_alpha                78.059(4)
_cell_angle_beta                 73.016(4)
_cell_angle_gamma                74.112(4)
_cell_volume                     1632.94
_exptl_crystal_colour            colorless
_exptl_crystal_description       plate
_cell_formula_units_Z            2
loop_
_atom_site_label
_atom_site_type_symbol
_atom_site_fract_x
_atom_site_fract_y
_atom_site_fract_z
O1 O 1.04292(17) 0.81080(11) 0.29156(10)
O2 O 1.09801(16) 0.66201(10) 0.40031(9)
O3 O 0.63220(15) 0.75275(10) 0.64365(10)
O4 O 0.70100(16) 0.57258(11) 0.69455(11)
O5 O 1.02276(14) 0.93848(10) 0.59382(10)
O6 O 1.25827(16) 0.83102(11) 0.60181(11)
N1 N 1.1970(2) 0.65103(13) 0.24626(12)
H1 H 1.2362 0.5851 0.2663
N2 N 0.45349(18) 0.65681(12) 0.68804(12)
H2 H 0.3921 0.7191 0.6808
N3 N 1.18971(18) 1.00623(13) 0.63015(12)
H3 H 1.1190 1.0649 0.6302
C1 C 1.0105(2) 0.72256(14) 0.47369(13)
C2 C 0.8686(2) 0.70028(14) 0.52370(14)
H4 H 0.8322 0.6479 0.5083
C3 C 0.7837(2) 0.75915(14) 0.59742(13)
C4 C 0.8377(2) 0.83556(14) 0.62205(13)
H5 H 0.7799 0.8734 0.6726
C5 C 0.9800(2) 0.85477(14) 0.56996(13)
C6 C 1.0683(2) 0.79942(15) 0.49469(13)
H6 H 1.1631 0.8134 0.4595
C7 C 1.1084(2) 0.71646(15) 0.30890(14)
C8 C 1.2296(2) 0.68862(15) 0.14378(14)
H7 H 1.1351 0.7360 0.1291
C9 C 1.3549(2) 0.75252(17) 0.11278(15)
H8 H 1.4479 0.7077 0.1297
H9 H 1.3215 0.8152 0.1461
C10 C 1.3902(3) 0.78943(18) 0.00541(16)
H10 H 1.2996 0.8390 -0.0108
H11 H 1.4728 0.8276 -0.0129
C11 C 1.4377(3) 0.69319(19) -0.04907(16)
H12 H 1.5344 0.6476 -0.0382
H13 H 1.4534 0.7187 -0.1167
C12 C 1.3148(3) 0.62737(19) -0.01755(16)
H14 H 1.3509 0.5639 -0.0500
H15 H 1.2221 0.6704 -0.0358
C13 C 1.2760(2) 0.59171(17) 0.09009(15)
H16 H 1.1921 0.5549 0.1078
H17 H 1.3650 0.5413 0.1076
C14 C 0.6021(2) 0.65117(14) 0.67682(13)
C15 C 0.3915(2) 0.55962(15) 0.71242(14)
H18 H 0.4361 0.5108 0.7622
C16 C 0.4336(3) 0.50155(18) 0.62588(17)
H19 H 0.5449 0.4795 0.6042
H20 H 0.3956 0.5507 0.5747
C17 C 0.3647(3) 0.4021(2) 0.6492(2)
H21 H 0.3890 0.3688 0.5922
H22 H 0.4102 0.3498 0.6960
C18 C 0.1903(3) 0.4327(2) 0.6882(2)
H23 H 0.1437 0.4787 0.6389
H24 H 0.1502 0.3678 0.7063
C19 C 0.1474(3) 0.4916(2) 0.7738(2)
H25 H 0.1841 0.4427 0.8256
H26 H 0.0361 0.5140 0.7947
C20 C 0.2170(2) 0.59118(18) 0.75069(17)
H27 H 0.1723 0.6436 0.7037
H28 H 0.1925 0.6246 0.8078
C21 C 1.1677(2) 0.91825(14) 0.60858(13)
C22 C 1.3318(2) 1.00501(15) 0.65373(13)
H29 H 1.4098 0.9414 0.6318
C23 C 1.3073(2) 0.99649(16) 0.76108(14)
H30 H 1.2716 0.9314 0.7923
H31 H 1.2287 1.0581 0.7844
C24 C 1.4570(2) 0.99334(17) 0.78557(15)
H32 H 1.5315 0.9271 0.7693
H33 H 1.4371 0.9933 0.8536
C25 C 1.5246(2) 1.09039(18) 0.73206(16)
H34 H 1.4581 1.1556 0.7565
H35 H 1.6248 1.0815 0.7436
C26 C 1.5417(2) 1.10329(17) 0.62514(15)
H36 H 1.6211 1.0437 0.5988
H37 H 1.5741 1.1699 0.5952
C27 C 1.3911(2) 1.10566(15) 0.60249(14)
H38 H 1.4079 1.1090 0.5343
H39 H 1.3146 1.1698 0.6223
C28 C 0.1077(3) 0.1091(2) -0.00612(18)
H40 H -0.0008 0.1391 -0.0032
H41 H 0.1459 0.0554 -0.0494
C29 C 0.1266(3) 0.0556(2) 0.09242(18)
H42 H 0.0661 0.0011 0.1161
H43 H 0.2340 0.0200 0.0885
C30 C 0.0752(3) 0.1378(2) 0.16018(18)
H44 H 0.0915 0.1024 0.2219
H45 H -0.0343 0.1691 0.1681
C31 C 0.1639(3) 0.2278(2) 0.12356(19)
H46 H 0.1237 0.2819 0.1665
H47 H 0.2717 0.1977 0.1226
C32 C 0.1502(3) 0.2808(2) 0.0243(2)
H48 H 0.0447 0.3207 0.0272
H49 H 0.2161 0.3319 0.0006
C33 C 0.1952(4) 0.1988(2) -0.04370(18)
H50 H 0.3050 0.1672 -0.0545
H51 H 0.1749 0.2350 -0.1043
loop_
_geom_bond_atom_site_label_1
_geom_bond_atom_site_label_2
_geom_bond_site_symmetry_1
_geom_bond_site_symmetry_2
O1 C7 1_555 1_555
O2 C1 1_555 1_555
O3 C3 1_555 1_555
O4 C14 1_555 1_555
O5 C5 1_555 1_555
O6 C21 1_555 1_555
N1 H1 1_555 1_555
N2 H2 1_555 1_555
N3 H3 1_555 1_555
C1 C2 1_555 1_555
C2 H4 1_555 1_555
C3 C2 1_555 1_555
C4 C3 1_555 1_555
H5 C4 1_555 1_555
C5 C4 1_555 1_555
C6 C1 1_555 1_555
H6 C6 1_555 1_555
C7 O2 1_555 1_555
C8 N1 1_555 1_555
H7 C8 1_555 1_555
C9 C8 1_555 1_555
H8 C9 1_555 1_555
H9 C9 1_555 1_555
C10 C9 1_555 1_555
H10 C10 1_555 1_555
H11 C10 1_555 1_555
C11 C10 1_555 1_555
H12 C11 1_555 1_555
H13 C11 1_555 1_555
C12 C11 1_555 1_555
H14 C12 1_555 1_555
H15 C12 1_555 1_555
C13 C8 1_555 1_555
H16 C13 1_555 1_555
H17 C13 1_555 1_555
C14 O3 1_555 1_555
C15 N2 1_555 1_555
H18 C15 1_555 1_555
C16 C15 1_555 1_555
H19 C16 1_555 1_555
H20 C16 1_555 1_555
C17 C16 1_555 1_555
H21 C17 1_555 1_555
H22 C17 1_555 1_555
C18 C17 1_555 1_555
H23 C18 1_555 1_555
H24 C18 1_555 1_555
C19 C18 1_555 1_555
H25 C19 1_555 1_555
H26 C19 1_555 1_555
C20 C15 1_555 1_555
H27 C20 1_555 1_555
H28 C20 1_555 1_555
C21 O5 1_555 1_555
C22 N3 1_555 1_555
H29 C22 1_555 1_555
C23 C22 1_555 1_555
H30 C23 1_555 1_555
H31 C23 1_555 1_555
C24 C23 1_555 1_555
H32 C24 1_555 1_555
H33 C24 1_555 1_555
C25 C24 1_555 1_555
H34 C25 1_555 1_555
H35 C25 1_555 1_555
C26 C25 1_555 1_555
H36 C26 1_555 1_555
H37 C26 1_555 1_555
C27 C22 1_555 1_555
H38 C27 1_555 1_555
H39 C27 1_555 1_555
C28 H40 1_555 1_555
H41 C28 1_555 1_555
C29 C28 1_555 1_555
H42 C29 1_555 1_555
H43 C29 1_555 1_555
C30 C29 1_555 1_555
H44 C30 1_555 1_555
H45 C30 1_555 1_555
C31 C30 1_555 1_555
H46 C31 1_555 1_555
H47 C31 1_555 1_555
C32 C31 1_555 1_555
H48 C32 1_555 1_555
H49 C32 1_555 1_555
C33 C28 1_555 1_555
H50 C33 1_555 1_555
H51 C33 1_555 1_555
N1 C7 1_555 1_555
N2 C14 1_555 1_555
N3 C21 1_555 1_555
C5 C6 1_555 1_555
C12 C13 1_555 1_555
C19 C20 1_555 1_555
C26 C27 1_555 1_555
C32 C33 1_555 1_555

#END
