
#######################################################################
#
#                 Cambridge Crystallographic Data Centre
#                                CCDC 
#
#######################################################################
#
# If this CIF has been generated from an entry in the Cambridge 
# Structural Database, then it will include bibliographic, chemical, 
# crystal, experimental, refinement or atomic coordinate data resulting 
# from the CCDC's data processing and validation procedures.
#
#######################################################################

data_RINTIT
_chemical_name_common            'Vitamin D!3$ cholesterol'
_chemical_formula_moiety         'C27 H44 O1,C27 H46 O1'
_chemical_name_systematic        
'9,10-Secocholesta-5,7,10-trien-3-ol cholest-5-en-3-ol'
_symmetry_cell_setting           monoclinic
_symmetry_space_group_name_H-M   'C 2'
_symmetry_Int_Tables_number      5
_space_group_name_Hall           'C 2y'
loop_
_symmetry_equiv_pos_site_id
_symmetry_equiv_pos_as_xyz
1 x,y,z
2 -x,y,-z
3 1/2+x,1/2+y,z
4 1/2-x,1/2+y,-z
_cell_length_a                   33.5853(15)
_cell_length_b                   6.6602(3)
_cell_length_c                   21.7816(10)
_cell_angle_alpha                90
_cell_angle_beta                 99.059(2)
_cell_angle_gamma                90
_cell_volume                     4811.44
_exptl_crystal_colour            colorless
_exptl_crystal_description       needle
_cell_formula_units_Z            4
loop_
_atom_site_label
_atom_site_type_symbol
_atom_site_fract_x
_atom_site_fract_y
_atom_site_fract_z
O1 O 0.55155(5) 0.6757(3) 0.53474(8)
H1 H 0.5356 0.6709 0.5596
C1 C 1.03623(11) 0.7209(6) 0.87058(16)
H2 H 1.0226 0.7904 0.8999
H3 H 1.0292 0.7811 0.8303
H4 H 1.0648 0.7296 0.8836
C2 C 1.02341(7) 0.5004(5) 0.86740(12)
H5 H 1.0342 0.4339 0.8334
C3 C 0.97765(7) 0.4877(5) 0.85587(12)
H6 H 0.9701 0.3529 0.8664
H7 H 0.9675 0.5788 0.8846
C4 C 0.95634(7) 0.5341(5) 0.79176(11)
H8 H 0.9646 0.4365 0.7632
H9 H 0.9651 0.6652 0.7797
C5 C 0.91122(6) 0.5336(4) 0.78455(10)
H10 H 0.9032 0.6397 0.8105
H11 H 0.9029 0.4074 0.8009
C6 C 0.88748(6) 0.5606(3) 0.71866(10)
H12 H 0.9005 0.6682 0.6984
C7 C 0.84427(6) 0.6291(3) 0.72316(10)
H13 H 0.8332 0.5311 0.7495
C8 C 0.81254(6) 0.6536(3) 0.66342(10)
C9 C 0.78084(6) 0.7824(3) 0.68978(10)
H14 H 0.7711 0.6984 0.7212
C10 C 0.74333(6) 0.8371(3) 0.64320(10)
H15 H 0.7516 0.9111 0.6084
C11 C 0.71511(6) 0.9689(3) 0.67469(11)
H16 H 0.7160 0.9243 0.7173
H17 H 0.7248 1.1063 0.6758
C12 C 0.67241(6) 0.9641(3) 0.64264(11)
H18 H 0.6548 1.0571 0.6555
C13 C 0.65743(6) 0.8390(3) 0.59759(10)
C14 C 0.61378(7) 0.8547(4) 0.56705(11)
H19 H 0.6002 0.9541 0.5889
H20 H 0.6127 0.8997 0.5245
C15 C 0.59195(6) 0.6557(4) 0.56737(10)
H21 H 0.5910 0.6162 0.6104
C16 C 0.72238(6) 0.6415(3) 0.61871(10)
H22 H 0.7150 0.5719 0.6549
C17 C 0.68246(6) 0.6747(3) 0.57311(9)
C18 C 0.65798(7) 0.4771(4) 0.56930(10)
H23 H 0.6716 0.3779 0.5474
H24 H 0.6579 0.4276 0.6112
C19 C 0.61414(7) 0.4963(4) 0.53661(11)
H25 H 0.6138 0.5309 0.4933
H26 H 0.6005 0.3684 0.5382
C20 C 0.69020(7) 0.7341(4) 0.50763(10)
H27 H 0.6652 0.7708 0.4825
H28 H 0.7018 0.6225 0.4889
H29 H 0.7084 0.8460 0.5107
C21 C 0.75227(6) 0.5036(4) 0.59222(10)
H30 H 0.7390 0.3774 0.5798
H31 H 0.7596 0.5657 0.5553
C22 C 0.79076(6) 0.4605(3) 0.63829(10)
H32 H 0.8089 0.3801 0.6178
H33 H 0.7839 0.3830 0.6728
C23 C 0.80550(7) 0.9487(4) 0.72586(13)
H34 H 0.7912 1.0066 0.7570
H35 H 0.8119 1.0541 0.6983
C24 C 0.84426(7) 0.8364(4) 0.75658(12)
H36 H 0.8440 0.8177 0.8007
H37 H 0.8681 0.9127 0.7514
C25 C 0.88969(8) 0.3699(4) 0.68094(13)
H38 H 0.9174 0.3363 0.6802
H39 H 0.8762 0.3910 0.6392
H40 H 0.8769 0.2620 0.6996
C26 C 1.04037(9) 0.3999(6) 0.92860(15)
H41 H 1.0281 0.4571 0.9615
H42 H 1.0690 0.4206 0.9372
H43 H 1.0348 0.2586 0.9258
C27 C 0.83073(7) 0.7634(4) 0.61268(11)
H44 H 0.8487 0.6748 0.5956
H45 H 0.8454 0.8790 0.6302
H46 H 0.8095 0.8053 0.5804
O2 O 0.51700(5) 0.6460(2) 0.41396(7)
H47 H 0.5321 0.6702 0.4465
C28 C 0.11845(7) -0.1919(4) 0.04259(12)
H48 H 0.1205 -0.2397 0.0846
H49 H 0.1449 -0.1849 0.0311
H50 H 0.1020 -0.2823 0.0151
C29 C 0.09956(6) 0.0145(4) 0.03784(11)
H51 H 0.0979 0.0607 -0.0052
C30 C 0.12455(6) 0.1684(3) 0.08041(10)
H52 H 0.1092 0.2919 0.0797
H53 H 0.1283 0.1176 0.1227
C31 C 0.16573(7) 0.2172(4) 0.06350(11)
H54 H 0.1621 0.2799 0.0228
H55 H 0.1805 0.0930 0.0608
C32 C 0.19085(6) 0.3564(3) 0.11016(10)
H56 H 0.1951 0.2917 0.1506
H57 H 0.1757 0.4785 0.1138
C33 C 0.23212(6) 0.4125(3) 0.09292(9)
H58 H 0.2436 0.2908 0.0775
C34 C 0.26134(6) 0.4849(3) 0.15001(9)
H59 H 0.2489 0.6011 0.1670
C35 C 0.30500(6) 0.5472(3) 0.14192(9)
C36 C 0.32579(6) 0.5432(3) 0.21094(9)
H60 H 0.3126 0.6479 0.2321
C37 C 0.37002(6) 0.5976(3) 0.22020(10)
C38 C 0.39858(6) 0.4858(4) 0.25431(10)
H61 H 0.3902 0.3668 0.2706
C39 C 0.44138(6) 0.5331(3) 0.26820(10)
H62 H 0.4493 0.6508 0.2506
C40 C 0.47082(6) 0.4290(3) 0.30306(9)
C41 C 0.46564(6) 0.2331(3) 0.33433(10)
C42 C 0.48667(7) 0.2180(3) 0.40036(10)
H63 H 0.4857 0.0800 0.4143
H64 H 0.4726 0.3007 0.4267
C43 C 0.53073(7) 0.2855(4) 0.40711(11)
H65 H 0.5424 0.2857 0.4508
H66 H 0.5457 0.1905 0.3859
C44 C 0.05658(7) 0.0029(4) 0.05305(12)
H67 H 0.0413 -0.0937 0.0263
H68 H 0.0440 0.1322 0.0468
H69 H 0.0575 -0.0371 0.0956
C45 C 0.22656(7) 0.5671(4) 0.03952(10)
H70 H 0.2221 0.6977 0.0558
H71 H 0.2037 0.5300 0.0093
H72 H 0.2503 0.5697 0.0201
C46 C 0.51383(6) 0.5048(4) 0.31256(10)
H73 H 0.5139 0.6430 0.2985
H74 H 0.5292 0.4260 0.2871
C47 C 0.53460(6) 0.4943(4) 0.38021(10)
H75 H 0.5633 0.5248 0.3817
C48 C 0.44618(7) 0.0801(4) 0.30459(12)
H76 H 0.4352 0.0925 0.2628
H77 H 0.4435 -0.0398 0.3255
C49 C 0.37669(7) 0.7975(3) 0.19034(11)
H78 H 0.4054 0.8161 0.1907
H79 H 0.3675 0.9040 0.2151
C50 C 0.35487(7) 0.8158(3) 0.12357(11)
H80 H 0.3680 0.7294 0.0970
H81 H 0.3571 0.9530 0.1095
C51 C 0.31016(7) 0.7587(3) 0.11687(11)
H82 H 0.2982 0.7647 0.0734
H83 H 0.2962 0.8544 0.1395
C52 C 0.31234(6) 0.3448(3) 0.23513(10)
H84 H 0.3136 0.3484 0.2799
H85 H 0.3289 0.2349 0.2244
C53 C 0.26828(6) 0.3231(3) 0.20183(9)
H86 H 0.2497 0.3429 0.2311
H87 H 0.2639 0.1901 0.1839
C54 C 0.32355(6) 0.3892(3) 0.10336(10)
H88 H 0.3140 0.4110 0.0600
H89 H 0.3158 0.2574 0.1149
H90 H 0.3524 0.4007 0.1112
loop_
_geom_bond_atom_site_label_1
_geom_bond_atom_site_label_2
_geom_bond_site_symmetry_1
_geom_bond_site_symmetry_2
O1 H1 1_555 1_555
C1 H2 1_555 1_555
H3 C1 1_555 1_555
H4 C1 1_555 1_555
C2 C1 1_555 1_555
H5 C2 1_555 1_555
C3 C2 1_555 1_555
H6 C3 1_555 1_555
H7 C3 1_555 1_555
C4 C3 1_555 1_555
H8 C4 1_555 1_555
H9 C4 1_555 1_555
C5 C4 1_555 1_555
H10 C5 1_555 1_555
H11 C5 1_555 1_555
C6 C5 1_555 1_555
H12 C6 1_555 1_555
C7 C6 1_555 1_555
H13 C7 1_555 1_555
C8 C7 1_555 1_555
C9 C8 1_555 1_555
H14 C9 1_555 1_555
C10 C9 1_555 1_555
H15 C10 1_555 1_555
C11 C10 1_555 1_555
H16 C11 1_555 1_555
H17 C11 1_555 1_555
C12 C11 1_555 1_555
H18 C12 1_555 1_555
C13 C12 1_555 1_555
C14 C13 1_555 1_555
H19 C14 1_555 1_555
H20 C14 1_555 1_555
C15 O1 1_555 1_555
H21 C15 1_555 1_555
C16 C10 1_555 1_555
H22 C16 1_555 1_555
C17 C13 1_555 1_555
C18 C17 1_555 1_555
H23 C18 1_555 1_555
H24 C18 1_555 1_555
C19 C15 1_555 1_555
H25 C19 1_555 1_555
H26 C19 1_555 1_555
C20 C17 1_555 1_555
H27 C20 1_555 1_555
H28 C20 1_555 1_555
H29 C20 1_555 1_555
C21 C16 1_555 1_555
H30 C21 1_555 1_555
H31 C21 1_555 1_555
C22 C8 1_555 1_555
H32 C22 1_555 1_555
H33 C22 1_555 1_555
C23 C9 1_555 1_555
H34 C23 1_555 1_555
H35 C23 1_555 1_555
C24 C7 1_555 1_555
H36 C24 1_555 1_555
H37 C24 1_555 1_555
C25 C6 1_555 1_555
H38 C25 1_555 1_555
H39 C25 1_555 1_555
H40 C25 1_555 1_555
C26 C2 1_555 1_555
H41 C26 1_555 1_555
H42 C26 1_555 1_555
H43 C26 1_555 1_555
C27 C8 1_555 1_555
H44 C27 1_555 1_555
H45 C27 1_555 1_555
H46 C27 1_555 1_555
O2 H47 1_555 1_555
C28 H48 1_555 1_555
H49 C28 1_555 1_555
H50 C28 1_555 1_555
C29 C28 1_555 1_555
H51 C29 1_555 1_555
C30 C29 1_555 1_555
H52 C30 1_555 1_555
H53 C30 1_555 1_555
C31 C30 1_555 1_555
H54 C31 1_555 1_555
H55 C31 1_555 1_555
C32 C31 1_555 1_555
H56 C32 1_555 1_555
H57 C32 1_555 1_555
C33 C32 1_555 1_555
H58 C33 1_555 1_555
C34 C33 1_555 1_555
H59 C34 1_555 1_555
C35 C34 1_555 1_555
C36 C35 1_555 1_555
H60 C36 1_555 1_555
C37 C36 1_555 1_555
C38 C37 1_555 1_555
H61 C38 1_555 1_555
C39 C38 1_555 1_555
H62 C39 1_555 1_555
C40 C39 1_555 1_555
C41 C40 1_555 1_555
C42 C41 1_555 1_555
H63 C42 1_555 1_555
H64 C42 1_555 1_555
C43 C42 1_555 1_555
H65 C43 1_555 1_555
H66 C43 1_555 1_555
C44 C29 1_555 1_555
H67 C44 1_555 1_555
H68 C44 1_555 1_555
H69 C44 1_555 1_555
C45 C33 1_555 1_555
H70 C45 1_555 1_555
H71 C45 1_555 1_555
H72 C45 1_555 1_555
C46 C40 1_555 1_555
H73 C46 1_555 1_555
H74 C46 1_555 1_555
C47 O2 1_555 1_555
H75 C47 1_555 1_555
C48 C41 1_555 1_555
H76 C48 1_555 1_555
H77 C48 1_555 1_555
C49 C37 1_555 1_555
H78 C49 1_555 1_555
H79 C49 1_555 1_555
C50 C49 1_555 1_555
H80 C50 1_555 1_555
H81 C50 1_555 1_555
C51 C35 1_555 1_555
H82 C51 1_555 1_555
H83 C51 1_555 1_555
C52 C36 1_555 1_555
H84 C52 1_555 1_555
H85 C52 1_555 1_555
C53 C34 1_555 1_555
H86 C53 1_555 1_555
H87 C53 1_555 1_555
C54 C35 1_555 1_555
H88 C54 1_555 1_555
H89 C54 1_555 1_555
H90 C54 1_555 1_555
C14 C15 1_555 1_555
C16 C17 1_555 1_555
C18 C19 1_555 1_555
C21 C22 1_555 1_555
C23 C24 1_555 1_555
C43 C47 1_555 1_555
C46 C47 1_555 1_555
C50 C51 1_555 1_555
C52 C53 1_555 1_555

#END
