
#######################################################################
#
#                 Cambridge Crystallographic Data Centre
#                                CCDC 
#
#######################################################################
#
# If this CIF has been generated from an entry in the Cambridge 
# Structural Database, then it will include bibliographic, chemical, 
# crystal, experimental, refinement or atomic coordinate data resulting 
# from the CCDC's data processing and validation procedures.
#
#######################################################################

data_RIPCEA
_chemical_formula_moiety         'C22 H16 I1 N1 O1'
_chemical_name_systematic        1-Benzyl-3-iodo-4-phenylquinolin-2(1H)-one
_symmetry_cell_setting           orthorhombic
_symmetry_space_group_name_H-M   'P b c a'
_symmetry_Int_Tables_number      61
_space_group_name_Hall           '-P 2ac 2ab'
loop_
_symmetry_equiv_pos_site_id
_symmetry_equiv_pos_as_xyz
1 x,y,z
2 1/2-x,-y,1/2+z
3 1/2+x,1/2-y,-z
4 -x,1/2+y,1/2-z
5 -x,-y,-z
6 1/2+x,y,1/2-z
7 1/2-x,1/2+y,z
8 x,1/2-y,1/2+z
_cell_length_a                   10.5172(8)
_cell_length_b                   17.5717(6)
_cell_length_c                   20.0963(11)
_cell_angle_alpha                90
_cell_angle_beta                 90
_cell_angle_gamma                90
_cell_volume                     3713.9
_exptl_crystal_colour            'light yellow'
_exptl_crystal_description       block
_cell_formula_units_Z            8
loop_
_atom_site_label
_atom_site_type_symbol
_atom_site_fract_x
_atom_site_fract_y
_atom_site_fract_z
I1 I 0.56830(6) 0.61350(3) 0.37707(3)
O1 O 0.8216(5) 0.5241(3) 0.3497(3)
N1 N 0.7577(6) 0.4023(3) 0.3355(3)
C1 C 0.7329(8) 0.4782(4) 0.3477(4)
C2 C 0.6014(7) 0.4979(4) 0.3587(4)
C3 C 0.5053(6) 0.4469(4) 0.3584(3)
C4 C 0.5356(7) 0.3680(4) 0.3442(3)
C5 C 0.4394(7) 0.3121(4) 0.3403(3)
H1 H 0.3556 0.3261 0.3483
C6 C 0.4659(9) 0.2387(5) 0.3253(4)
H2 H 0.4014 0.2028 0.3219
C7 C 0.5944(9) 0.2181(5) 0.3149(4)
H3 H 0.6143 0.1677 0.3057
C8 C 0.6897(8) 0.2705(4) 0.3182(4)
H4 H 0.7734 0.2555 0.3112
C9 C 0.6619(7) 0.3472(4) 0.3323(3)
C10 C 0.3718(7) 0.4689(4) 0.3729(4)
C11 C 0.2964(8) 0.5030(4) 0.3259(5)
H5 H 0.3286 0.5119 0.2835
C12 C 0.1737(10) 0.5241(6) 0.3407(7)
H6 H 0.1235 0.5474 0.3085
C13 C 0.1250(11) 0.5105(7) 0.4041(8)
H7 H 0.0418 0.5239 0.4144
C14 C 0.1997(12) 0.4778(6) 0.4500(6)
H8 H 0.1673 0.4695 0.4925
C15 C 0.3232(9) 0.4560(5) 0.4362(4)
H9 H 0.3730 0.4331 0.4688
C16 C 0.8903(7) 0.3794(5) 0.3248(4)
H10 H 0.9396 0.4242 0.3133
H11 H 0.8936 0.3448 0.2872
C17 C 0.9513(6) 0.3413(4) 0.3840(4)
C18 C 1.0612(7) 0.3009(4) 0.3754(4)
H12 H 1.0948 0.2953 0.3329
C19 C 1.1235(9) 0.2679(5) 0.4292(5)
H13 H 1.1974 0.2399 0.4225
C20 C 1.0758(9) 0.2768(5) 0.4919(5)
H14 H 1.1178 0.2555 0.5281
C21 C 0.9668(10) 0.3169(5) 0.5012(5)
H15 H 0.9341 0.3227 0.5439
C22 C 0.9040(8) 0.3490(5) 0.4478(4)
H16 H 0.8291 0.3760 0.4548
loop_
_geom_bond_atom_site_label_1
_geom_bond_atom_site_label_2
_geom_bond_site_symmetry_1
_geom_bond_site_symmetry_2
I1 C2 1_555 1_555
O1 C1 1_555 1_555
N1 C1 1_555 1_555
C1 C2 1_555 1_555
C2 C3 1_555 1_555
C3 C4 1_555 1_555
C4 C5 1_555 1_555
C5 H1 1_555 1_555
C6 C5 1_555 1_555
H2 C6 1_555 1_555
C7 C6 1_555 1_555
H3 C7 1_555 1_555
C8 C7 1_555 1_555
H4 C8 1_555 1_555
C9 N1 1_555 1_555
C10 C3 1_555 1_555
C11 C10 1_555 1_555
H5 C11 1_555 1_555
C12 C11 1_555 1_555
H6 C12 1_555 1_555
C13 C12 1_555 1_555
H7 C13 1_555 1_555
C14 C13 1_555 1_555
H8 C14 1_555 1_555
C15 C10 1_555 1_555
H9 C15 1_555 1_555
C16 N1 1_555 1_555
H10 C16 1_555 1_555
H11 C16 1_555 1_555
C17 C16 1_555 1_555
C18 C17 1_555 1_555
H12 C18 1_555 1_555
C19 C18 1_555 1_555
H13 C19 1_555 1_555
C20 C19 1_555 1_555
H14 C20 1_555 1_555
C21 C20 1_555 1_555
H15 C21 1_555 1_555
C22 C17 1_555 1_555
H16 C22 1_555 1_555
C4 C9 1_555 1_555
C8 C9 1_555 1_555
C14 C15 1_555 1_555
C21 C22 1_555 1_555

#END
