
#######################################################################
#
#                 Cambridge Crystallographic Data Centre
#                                CCDC 
#
#######################################################################
#
# If this CIF has been generated from an entry in the Cambridge 
# Structural Database, then it will include bibliographic, chemical, 
# crystal, experimental, refinement or atomic coordinate data resulting 
# from the CCDC's data processing and validation procedures.
#
#######################################################################

data_RIPGEE
_chemical_formula_moiety         'C18 H16 N2 O3'
_chemical_name_systematic        
'Ethyl 5-cyano-2-methyl-4-(1-naphthyl)-4,5-dihydro-1,3-oxazole-5-carboxylate'
_symmetry_cell_setting           monoclinic
_symmetry_space_group_name_H-M   'P 21/n'
_symmetry_Int_Tables_number      14
_space_group_name_Hall           '-P 2yn'
loop_
_symmetry_equiv_pos_site_id
_symmetry_equiv_pos_as_xyz
1 x,y,z
2 1/2-x,1/2+y,1/2-z
3 -x,-y,-z
4 1/2+x,1/2-y,1/2+z
_cell_length_a                   8.405(3)
_cell_length_b                   15.383(6)
_cell_length_c                   13.304(5)
_cell_angle_alpha                90
_cell_angle_beta                 108.010(4)
_cell_angle_gamma                90
_cell_volume                     1635.85
_exptl_crystal_colour            colorless
_cell_formula_units_Z            4
loop_
_atom_site_label
_atom_site_type_symbol
_atom_site_fract_x
_atom_site_fract_y
_atom_site_fract_z
C1 C 0.4845(3) 1.18660(13) 0.1886(2)
H1 H 0.4297 1.2356 0.2022
C2 C 0.5578(3) 1.18835(16) 0.1078(2)
H2 H 0.5507 1.2383 0.0673
C3 C 0.6386(3) 1.11815(15) 0.08838(17)
H3 H 0.6856 1.1199 0.0336
C4 C 0.6536(2) 1.04215(12) 0.14901(14)
C5 C 0.57739(19) 1.03833(10) 0.23049(13)
C6 C 0.4929(2) 1.11326(11) 0.24803(16)
H4 H 0.4421 1.1128 0.3010
C7 C 0.7441(3) 0.96977(15) 0.13133(17)
H5 H 0.7949 0.9719 0.0784
C8 C 0.7576(3) 0.89728(14) 0.19061(18)
H6 H 0.8198 0.8504 0.1793
C9 C 0.6787(2) 0.89216(12) 0.26896(16)
H7 H 0.6875 0.8412 0.3079
C10 C 0.58949(19) 0.96009(10) 0.28940(13)
C11 C 0.49489(19) 0.95148(11) 0.36870(13)
H8 H 0.4971 1.0071 0.4050
C12 C 0.3077(2) 0.92116(10) 0.31799(13)
C13 C 0.2377(2) 0.93177(12) 0.20311(16)
C14 C 0.1953(2) 0.96336(13) 0.37590(15)
C15 C 0.0391(2) 1.08813(15) 0.38645(16)
H9 H 0.0964 1.0938 0.4616
H10 H -0.0658 1.0579 0.3772
C16 C 0.0074(3) 1.17462(15) 0.3366(2)
H11 H 0.1115 1.2050 0.3490
H12 H -0.0647 1.2071 0.3663
H13 H -0.0454 1.1681 0.2619
C17 C 0.4603(3) 0.82058(13) 0.42490(17)
C18 C 0.4736(3) 0.73493(15) 0.4786(2)
H14 H 0.5809 0.7303 0.5316
H15 H 0.4617 0.6893 0.4276
H16 H 0.3869 0.7299 0.5112
N1 N 0.56146(19) 0.88320(11) 0.44665(12)
N2 N 0.1799(2) 0.93913(13) 0.11444(15)
O1 O 0.1692(2) 0.92981(11) 0.44967(13)
O2 O 0.14283(14) 1.03977(8) 0.33564(9)
O3 O 0.31615(16) 0.83067(7) 0.34143(11)
loop_
_geom_bond_atom_site_label_1
_geom_bond_atom_site_label_2
_geom_bond_site_symmetry_1
_geom_bond_site_symmetry_2
C1 H1 1_555 1_555
C2 C1 1_555 1_555
H2 C2 1_555 1_555
C3 C2 1_555 1_555
H3 C3 1_555 1_555
C4 C3 1_555 1_555
C5 C4 1_555 1_555
C6 C1 1_555 1_555
H4 C6 1_555 1_555
C7 C4 1_555 1_555
H5 C7 1_555 1_555
C8 C7 1_555 1_555
H6 C8 1_555 1_555
C9 C8 1_555 1_555
H7 C9 1_555 1_555
C10 C5 1_555 1_555
C11 C10 1_555 1_555
H8 C11 1_555 1_555
C12 C11 1_555 1_555
C13 C12 1_555 1_555
C14 C12 1_555 1_555
C15 H9 1_555 1_555
H10 C15 1_555 1_555
C16 C15 1_555 1_555
H11 C16 1_555 1_555
H12 C16 1_555 1_555
H13 C16 1_555 1_555
C17 C18 1_555 1_555
C18 H14 1_555 1_555
H15 C18 1_555 1_555
H16 C18 1_555 1_555
N1 C11 1_555 1_555
N2 C13 1_555 1_555
O1 C14 1_555 1_555
O2 C14 1_555 1_555
O3 C12 1_555 1_555
C5 C6 1_555 1_555
C9 C10 1_555 1_555
C15 O2 1_555 1_555
C17 N1 1_555 1_555
C17 O3 1_555 1_555

#END
