
#######################################################################
#
#                 Cambridge Crystallographic Data Centre
#                                CCDC 
#
#######################################################################
#
# If this CIF has been generated from an entry in the Cambridge 
# Structural Database, then it will include bibliographic, chemical, 
# crystal, experimental, refinement or atomic coordinate data resulting 
# from the CCDC's data processing and validation procedures.
#
#######################################################################

data_RIPLIN
_chemical_formula_moiety         'C31 H24 N2 O2'
_chemical_name_systematic        
'Methyl 10,10-dicyano-3-phenyl-1,2,2a,3,4,10-hexahydrobenzo[5,6]indeno[7a,1-a]naphthalene-4-carboxylate'
_symmetry_cell_setting           monoclinic
_symmetry_space_group_name_H-M   'P 21/n'
_symmetry_Int_Tables_number      14
_space_group_name_Hall           '-P 2yn'
loop_
_symmetry_equiv_pos_site_id
_symmetry_equiv_pos_as_xyz
1 x,y,z
2 1/2-x,1/2+y,1/2-z
3 -x,-y,-z
4 1/2+x,1/2-y,1/2+z
_cell_length_a                   10.1576(5)
_cell_length_b                   16.6444(9)
_cell_length_c                   14.4185(7)
_cell_angle_alpha                90
_cell_angle_beta                 100.243(2)
_cell_angle_gamma                90
_cell_volume                     2398.84
_exptl_crystal_colour            colorless
_exptl_crystal_description       block
_cell_formula_units_Z            4
loop_
_atom_site_label
_atom_site_type_symbol
_atom_site_fract_x
_atom_site_fract_y
_atom_site_fract_z
O1 O 0.55231(19) 0.10782(16) 0.44675(12)
O2 O 0.74178(14) 0.04651(9) 0.49521(9)
N1 N 0.87154(18) 0.36693(10) 0.14683(12)
N2 N 0.94256(17) 0.12351(11) 0.08630(12)
C1 C 0.5115(2) -0.00090(12) 0.14981(14)
H1 H 0.6007 -0.0102 0.1461
C2 C 0.4131(2) -0.04914(13) 0.09984(15)
H2 H 0.4365 -0.0905 0.0625
C3 C 0.2809(2) -0.03656(13) 0.10480(15)
H3 H 0.2148 -0.0688 0.0705
C4 C 0.2475(2) 0.02366(13) 0.16042(15)
H4 H 0.1582 0.0320 0.1648
C5 C 0.34525(17) 0.07233(11) 0.21031(13)
H5 H 0.3210 0.1133 0.2478
C6 C 0.47858(16) 0.06116(10) 0.20540(11)
C7 C 0.58350(16) 0.11738(10) 0.25711(11)
H6 H 0.5372 0.1586 0.2877
C8 C 0.66642(16) 0.16057(10) 0.19242(11)
H7 H 0.7042 0.1198 0.1557
C9 C 0.59216(18) 0.22152(11) 0.12438(12)
H8 H 0.6520 0.2420 0.0845
H9 H 0.5181 0.1951 0.0841
C10 C 0.5388(2) 0.29117(12) 0.17431(13)
H10 H 0.5309 0.3376 0.1330
H11 H 0.4495 0.2776 0.1843
C11 C 0.62192(17) 0.31460(10) 0.26806(12)
C12 C 0.58358(19) 0.38189(11) 0.31413(15)
H12 H 0.5122 0.4128 0.2842
C13 C 0.6478(2) 0.40402(12) 0.40213(16)
H13 H 0.6201 0.4492 0.4313
C14 C 0.7537(2) 0.35885(12) 0.44711(14)
H14 H 0.7977 0.3731 0.5070
C15 C 0.79432(18) 0.29228(11) 0.40271(12)
H15 H 0.8658 0.2618 0.4334
C16 C 0.73075(16) 0.26969(10) 0.31314(11)
C17 C 0.78165(15) 0.19720(9) 0.26414(11)
C18 C 0.81728(16) 0.12681(9) 0.33041(11)
C19 C 0.69078(16) 0.07885(10) 0.33369(11)
H16 H 0.7049 0.0230 0.3162
C20 C 0.65095(19) 0.08025(12) 0.43025(13)
C21 C 0.7147(3) 0.04760(16) 0.59052(14)
H17 H 0.7870 0.0221 0.6321
H18 H 0.6329 0.0192 0.5925
H19 H 0.7061 0.1022 0.6101
C22 C 0.88658(17) 0.30423(11) 0.17854(12)
C23 C 0.92671(17) 0.16709(11) 0.14402(12)
C24 C 0.90760(16) 0.22317(9) 0.22060(11)
C25 C 1.03918(16) 0.22147(10) 0.29350(11)
C26 C 1.05386(16) 0.16239(10) 0.36332(12)
C27 C 0.94106(17) 0.11030(10) 0.37258(12)
H20 H 0.9567 0.0641 0.4092
C28 C 1.14387(17) 0.27233(11) 0.28601(13)
H21 H 1.1335 0.3116 0.2394
C29 C 1.26469(18) 0.26507(12) 0.34779(14)
H22 H 1.3350 0.2996 0.3427
C30 C 1.28044(18) 0.20702(12) 0.41642(14)
H23 H 1.3616 0.2020 0.4576
C31 C 1.17610(17) 0.15627(12) 0.42437(13)
H24 H 1.1874 0.1173 0.4713
loop_
_geom_bond_atom_site_label_1
_geom_bond_atom_site_label_2
_geom_bond_site_symmetry_1
_geom_bond_site_symmetry_2
O1 C20 1_555 1_555
O2 C20 1_555 1_555
N1 C22 1_555 1_555
N2 C23 1_555 1_555
C1 H1 1_555 1_555
C2 C1 1_555 1_555
H2 C2 1_555 1_555
C3 C2 1_555 1_555
H3 C3 1_555 1_555
C4 C3 1_555 1_555
H4 C4 1_555 1_555
C5 C4 1_555 1_555
H5 C5 1_555 1_555
C6 C1 1_555 1_555
C7 C6 1_555 1_555
H6 C7 1_555 1_555
C8 C7 1_555 1_555
H7 C8 1_555 1_555
C9 C8 1_555 1_555
H8 C9 1_555 1_555
H9 C9 1_555 1_555
C10 C9 1_555 1_555
H10 C10 1_555 1_555
H11 C10 1_555 1_555
C11 C10 1_555 1_555
C12 C11 1_555 1_555
H12 C12 1_555 1_555
C13 C12 1_555 1_555
H13 C13 1_555 1_555
C14 C13 1_555 1_555
H14 C14 1_555 1_555
C15 C14 1_555 1_555
H15 C15 1_555 1_555
C16 C11 1_555 1_555
C17 C8 1_555 1_555
C18 C17 1_555 1_555
C19 C7 1_555 1_555
H16 C19 1_555 1_555
C20 C19 1_555 1_555
C21 O2 1_555 1_555
H17 C21 1_555 1_555
H18 C21 1_555 1_555
H19 C21 1_555 1_555
C22 C24 1_555 1_555
C23 C24 1_555 1_555
C24 C17 1_555 1_555
C25 C24 1_555 1_555
C26 C25 1_555 1_555
C27 C18 1_555 1_555
H20 C27 1_555 1_555
C28 C25 1_555 1_555
H21 C28 1_555 1_555
C29 C28 1_555 1_555
H22 C29 1_555 1_555
C30 C29 1_555 1_555
H23 C30 1_555 1_555
C31 C26 1_555 1_555
H24 C31 1_555 1_555
C5 C6 1_555 1_555
C15 C16 1_555 1_555
C16 C17 1_555 1_555
C18 C19 1_555 1_555
C26 C27 1_555 1_555
C30 C31 1_555 1_555

#END
