
#######################################################################
#
#                 Cambridge Crystallographic Data Centre
#                                CCDC 
#
#######################################################################
#
# If this CIF has been generated from an entry in the Cambridge 
# Structural Database, then it will include bibliographic, chemical, 
# crystal, experimental, refinement or atomic coordinate data resulting 
# from the CCDC's data processing and validation procedures.
#
#######################################################################

data_RIPPOX
_chemical_formula_moiety         'C15 H16 N6 O3,0.5(C3 H7 N1 O1),0.5(H2 O1)'
_chemical_name_systematic        
'Ethyl 6-methyl-2-oxo-4-(4-(1H-tetrazol-5-yl)phenyl)-1,2,3,4-tetrahydropyrimidine-5-carboxylate N,N-dimethylformamide solvate hemihydrate'
_symmetry_cell_setting           triclinic
_symmetry_space_group_name_H-M   'P -1'
_symmetry_Int_Tables_number      2
_space_group_name_Hall           '-P 1'
loop_
_symmetry_equiv_pos_site_id
_symmetry_equiv_pos_as_xyz
1 x,y,z
2 -x,-y,-z
_cell_length_a                   10.198(2)
_cell_length_b                   13.262(3)
_cell_length_c                   13.771(3)
_cell_angle_alpha                81.14(3)
_cell_angle_beta                 73.32(3)
_cell_angle_gamma                81.14(3)
_cell_volume                     1750.91
_exptl_crystal_colour            colorless
_exptl_crystal_description       prism
_cell_formula_units_Z            4
loop_
_atom_site_label
_atom_site_type_symbol
_atom_site_fract_x
_atom_site_fract_y
_atom_site_fract_z
C1 C -0.0641(2) 0.12944(14) 0.48373(14)
C2 C 0.0311(2) 0.12423(15) 0.37903(14)
H1 H 0.0349 0.0553 0.3602
C3 C 0.1996(2) 0.18600(15) 0.44688(15)
C4 C -0.0284(2) 0.16860(15) 0.55451(15)
C5 C -0.1986(2) 0.09564(15) 0.50272(16)
C6 C -0.3396(2) 0.02727(19) 0.42842(19)
H2 H -0.4063 0.0881 0.4305
H3 H -0.3708 -0.0194 0.4896
C7 C -0.3256(3) -0.0229(2) 0.3366(2)
H4 H -0.4132 -0.0422 0.3382
H5 H -0.2597 -0.0831 0.3355
H6 H -0.2948 0.0240 0.2766
C8 C -0.01594(19) 0.20105(15) 0.30001(14)
C9 C -0.0476(2) 0.30276(16) 0.31468(15)
H7 H -0.0421 0.3237 0.3747
C10 C -0.0868(2) 0.37322(16) 0.24300(15)
H8 H -0.1084 0.4419 0.2543
C11 C -0.0948(2) 0.34373(15) 0.15389(14)
C12 C -0.0661(2) 0.24207(16) 0.13965(15)
H9 H -0.0735 0.2209 0.0803
C13 C -0.0268(2) 0.17167(16) 0.21199(15)
H10 H -0.0071 0.1027 0.2014
C14 C -0.1364(2) 0.41983(16) 0.07781(15)
N1 N -0.2044(2) 0.51006(14) 0.09321(14)
N2 N -0.2227(2) 0.55284(16) 0.00233(16)
N3 N -0.1683(2) 0.49185(16) -0.06570(15)
N4 N -0.11397(19) 0.40810(14) -0.01895(13)
H11 H -0.0709 0.3546 -0.0473
N5 N 0.09736(17) 0.20394(13) 0.53140(12)
H12 H 0.1120 0.2398 0.5734
N6 N 0.16843(17) 0.13960(13) 0.37938(12)
H13 H 0.2358 0.1165 0.3314
O1 O 0.31418(15) 0.21023(12) 0.43537(11)
O2 O -0.29294(17) 0.10389(15) 0.57646(13)
O3 O -0.20729(15) 0.05470(12) 0.42274(11)
C15 C -0.1111(2) 0.17917(19) 0.66052(16)
H14 H -0.1977 0.1530 0.6722
H15 H -0.1272 0.2504 0.6713
H16 H -0.0621 0.1410 0.7070
C16 C 0.5826(2) 0.33833(18) 0.43776(16)
H17 H 0.6658 0.3705 0.4199
H18 H 0.5233 0.3729 0.3970
H19 H 0.6048 0.2676 0.4256
C17 C 0.5117(2) 0.34458(15) 0.54674(15)
C18 C 0.2936(2) 0.31894(15) 0.66511(15)
C19 C 0.4688(2) 0.38080(16) 0.72315(15)
H20 H 0.4668 0.4463 0.7485
C20 C 0.5511(2) 0.38809(15) 0.61304(15)
C21 C 0.6726(2) 0.44166(16) 0.58067(18)
C22 C 0.8083(2) 0.53775(19) 0.6345(2)
H21 H 0.7941 0.5882 0.6817
H22 H 0.8268 0.5735 0.5659
C23 C 0.9280(3) 0.4622(2) 0.6440(2)
H23 H 1.0084 0.4971 0.6298
H24 H 0.9432 0.4131 0.5964
H25 H 0.9102 0.4273 0.7122
C24 C 0.5315(2) 0.29673(15) 0.78896(15)
C25 C 0.5135(2) 0.19572(17) 0.79301(18)
H26 H 0.4583 0.1785 0.7563
C26 C 0.5750(2) 0.12007(17) 0.84981(17)
H27 H 0.5612 0.0520 0.8515
C27 C 0.6568(2) 0.14369(16) 0.90431(15)
C28 C 0.6745(2) 0.24440(18) 0.90086(17)
H28 H 0.7301 0.2617 0.9373
C29 C 0.6123(2) 0.31926(17) 0.84517(17)
H29 H 0.6246 0.3874 0.8450
C30 C 0.7271(2) 0.06657(17) 0.96436(16)
N7 N 0.7876(2) 0.08564(17) 1.03020(16)
N8 N 0.8391(3) -0.0052(2) 1.06887(18)
N9 N 0.8126(2) -0.07778(18) 1.02923(17)
N10 N 0.7422(2) -0.03366(15) 0.96288(15)
H30 H 0.7116 -0.0654 0.9254
N11 N 0.39147(17) 0.30075(13) 0.57831(13)
H31 H 0.3776 0.2594 0.5408
N12 N 0.32924(17) 0.36679(13) 0.72897(13)
H32 H 0.2645 0.3915 0.7777
O4 O 0.17888(14) 0.29226(12) 0.68075(11)
O5 O 0.75258(19) 0.44626(16) 0.49888(14)
O6 O 0.68567(16) 0.48804(12) 0.65585(12)
C31 C 0.4547(3) -0.2117(3) 0.7892(2)
H33 H 0.4796 -0.1429 0.7727
H34 H 0.3594 -0.2101 0.8269
H35 H 0.4691 -0.2420 0.7274
C32 C 0.5170(4) -0.3773(2) 0.8813(3)
H36 H 0.5786 -0.4086 0.9214
H37 H 0.5345 -0.4125 0.8222
H38 H 0.4235 -0.3816 0.9214
C33 C 0.6262(3) -0.22938(19) 0.8775(2)
H39 H 0.6724 -0.2820 0.9215
N13 N 0.5385(2) -0.27157(15) 0.84984(16)
O7 O 0.6507(2) -0.14120(13) 0.85083(15)
O8 O 0.0354(2) 0.25890(15) -0.12360(13)
H40 H 0.0624 0.2107 -0.0829
H41 H 0.1049 0.2824 -0.1668
loop_
_geom_bond_atom_site_label_1
_geom_bond_atom_site_label_2
_geom_bond_site_symmetry_1
_geom_bond_site_symmetry_2
C1 C2 1_555 1_555
C2 H1 1_555 1_555
C3 N5 1_555 1_555
C4 C1 1_555 1_555
C5 C1 1_555 1_555
C6 H2 1_555 1_555
H3 C6 1_555 1_555
C7 C6 1_555 1_555
H4 C7 1_555 1_555
H5 C7 1_555 1_555
H6 C7 1_555 1_555
C8 C2 1_555 1_555
C9 C8 1_555 1_555
H7 C9 1_555 1_555
C10 C9 1_555 1_555
H8 C10 1_555 1_555
C11 C10 1_555 1_555
C12 C11 1_555 1_555
H9 C12 1_555 1_555
C13 C8 1_555 1_555
H10 C13 1_555 1_555
C14 C11 1_555 1_555
N1 C14 1_555 1_555
N2 N1 1_555 1_555
N3 N2 1_555 1_555
N4 C14 1_555 1_555
H11 N4 1_555 1_555
N5 C4 1_555 1_555
H12 N5 1_555 1_555
N6 C2 1_555 1_555
H13 N6 1_555 1_555
O1 C3 1_555 1_555
O2 C5 1_555 1_555
O3 C5 1_555 1_555
C15 C4 1_555 1_555
H14 C15 1_555 1_555
H15 C15 1_555 1_555
H16 C15 1_555 1_555
C16 H17 1_555 1_555
H18 C16 1_555 1_555
H19 C16 1_555 1_555
C17 C16 1_555 1_555
C18 N11 1_555 1_555
C19 H20 1_555 1_555
C20 C17 1_555 1_555
C21 C20 1_555 1_555
C22 H21 1_555 1_555
H22 C22 1_555 1_555
C23 C22 1_555 1_555
H23 C23 1_555 1_555
H24 C23 1_555 1_555
H25 C23 1_555 1_555
C24 C19 1_555 1_555
C25 C24 1_555 1_555
H26 C25 1_555 1_555
C26 C25 1_555 1_555
H27 C26 1_555 1_555
C27 C26 1_555 1_555
C28 C27 1_555 1_555
H28 C28 1_555 1_555
C29 C24 1_555 1_555
H29 C29 1_555 1_555
C30 C27 1_555 1_555
N7 C30 1_555 1_555
N8 N7 1_555 1_555
N9 N8 1_555 1_555
N10 C30 1_555 1_555
H30 N10 1_555 1_555
N11 C17 1_555 1_555
H31 N11 1_555 1_555
N12 C18 1_555 1_555
H32 N12 1_555 1_555
O4 C18 1_555 1_555
O5 C21 1_555 1_555
O6 C21 1_555 1_555
C31 H33 1_555 1_555
H34 C31 1_555 1_555
H35 C31 1_555 1_555
C32 H36 1_555 1_555
H37 C32 1_555 1_555
H38 C32 1_555 1_555
C33 H39 1_555 1_555
N13 C31 1_555 1_555
O7 C33 1_555 1_555
O8 H40 1_555 1_555
H41 O8 1_555 1_555
C3 N6 1_555 1_555
C6 O3 1_555 1_555
C12 C13 1_555 1_555
N3 N4 1_555 1_555
C19 C20 1_555 1_555
C19 N12 1_555 1_555
C22 O6 1_555 1_555
C28 C29 1_555 1_555
N9 N10 1_555 1_555
C32 N13 1_555 1_555
C33 N13 1_555 1_555

#END
