
#######################################################################
#
#                 Cambridge Crystallographic Data Centre
#                                CCDC 
#
#######################################################################
#
# If this CIF has been generated from an entry in the Cambridge 
# Structural Database, then it will include bibliographic, chemical, 
# crystal, experimental, refinement or atomic coordinate data resulting 
# from the CCDC's data processing and validation procedures.
#
#######################################################################

data_RIPPAK
_chemical_formula_moiety         'C22 H20 N4 O1 S1'
_chemical_name_systematic        
5-[2-(4-ethoxyphenyl)quinolin-4-yl]-4-(prop-2-en-1-yl)-2,4-dihydro-3H-1,2,4-triazole-3-thione
_symmetry_cell_setting           triclinic
_symmetry_space_group_name_H-M   'P -1'
_symmetry_Int_Tables_number      2
_space_group_name_Hall           '-P 1'
loop_
_symmetry_equiv_pos_site_id
_symmetry_equiv_pos_as_xyz
1 x,y,z
2 -x,-y,-z
_cell_length_a                   8.0676(16)
_cell_length_b                   8.3517(17)
_cell_length_c                   15.357(3)
_cell_angle_alpha                90.19(3)
_cell_angle_beta                 95.80(3)
_cell_angle_gamma                107.72(3)
_cell_volume                     979.955
_exptl_crystal_colour            'light yellow'
_exptl_crystal_description       prism
_cell_formula_units_Z            2
loop_
_atom_site_label
_atom_site_type_symbol
_atom_site_fract_x
_atom_site_fract_y
_atom_site_fract_z
S1 S 0.57402(13) -0.12646(10) 0.38161(5)
C1 C 0.6080(4) 0.0791(4) 0.37191(18)
H1 H 0.524(3) 0.165(3) 0.4690(19)
N1 N 0.5725(4) 0.1879(3) 0.42552(17)
N2 N 0.6288(3) 0.3500(3) 0.40170(15)
C2 C 0.6988(4) 0.3423(4) 0.32963(18)
N3 N 0.6867(3) 0.1790(3) 0.30751(14)
C3 C 0.7547(5) 0.1134(5) 0.2355(2)
H2 H 0.801(4) 0.029(4) 0.258(2)
H3 H 0.858(4) 0.201(4) 0.2208(19)
C4 C 0.6269(7) 0.0442(5) 0.1590(3)
H4 H 0.636(6) 0.003(5) 0.097(3)
C5 C 0.4672(9) 0.0347(8) 0.1499(4)
H5 H 0.411(10) 0.088(10) 0.208(5)
H6 H 0.426(8) -0.027(7) 0.083(4)
C6 C 0.7833(4) 0.4906(4) 0.28053(17)
C7 C 0.8948(4) 0.6398(3) 0.32636(17)
C8 C 0.9337(5) 0.6606(4) 0.41891(19)
H7 H 0.880(4) 0.566(4) 0.452(2)
C9 C 1.0412(5) 0.8083(4) 0.4555(2)
H8 H 1.060(4) 0.816(4) 0.514(2)
C10 C 1.1159(5) 0.9423(4) 0.4043(2)
H9 H 1.196(5) 1.052(4) 0.432(2)
C11 C 1.0837(4) 0.9273(4) 0.3154(2)
H10 H 1.132(3) 1.022(3) 0.2765(17)
C12 C 0.9727(4) 0.7765(4) 0.27435(18)
N4 N 0.9455(4) 0.7695(3) 0.18482(15)
C13 C 0.8429(4) 0.6295(4) 0.14459(18)
C14 C 0.7590(5) 0.4874(4) 0.19133(19)
H11 H 0.676(4) 0.391(4) 0.1591(18)
C15 C 0.8205(5) 0.6269(4) 0.04749(18)
C16 C 0.7353(6) 0.4861(5) -0.0033(2)
H12 H 0.677(6) 0.392(6) 0.018(3)
C17 C 0.7215(6) 0.4862(5) -0.0944(2)
H13 H 0.658(5) 0.391(5) -0.129(2)
C18 C 0.7922(5) 0.6322(4) -0.13499(18)
C19 C 0.8757(6) 0.7753(5) -0.0852(2)
H14 H 0.937(6) 0.872(6) -0.111(3)
C20 C 0.8902(6) 0.7717(5) 0.0044(2)
H15 H 0.942(5) 0.870(5) 0.043(3)
O1 O 0.7891(4) 0.6496(3) -0.22329(13)
C21 C 0.7178(6) 0.5029(4) -0.2793(2)
H16 H 0.589(5) 0.467(4) -0.272(2)
H17 H 0.781(5) 0.422(5) -0.258(2)
C22 C 0.7571(6) 0.5570(6) -0.3701(2)
H18 H 0.714(4) 0.459(5) -0.411(2)
H19 H 0.695(5) 0.639(5) -0.388(2)
H20 H 0.892(6) 0.598(5) -0.372(3)
loop_
_geom_bond_atom_site_label_1
_geom_bond_atom_site_label_2
_geom_bond_site_symmetry_1
_geom_bond_site_symmetry_2
S1 C1 1_555 1_555
C1 N1 1_555 1_555
H1 N1 1_555 1_555
N1 N2 1_555 1_555
N2 C2 1_555 1_555
C2 N3 1_555 1_555
N3 C1 1_555 1_555
C3 N3 1_555 1_555
H2 C3 1_555 1_555
H3 C3 1_555 1_555
C4 C3 1_555 1_555
H4 C4 1_555 1_555
C5 C4 1_555 1_555
H5 C5 1_555 1_555
H6 C5 1_555 1_555
C6 C2 1_555 1_555
C7 C6 1_555 1_555
C8 C7 1_555 1_555
H7 C8 1_555 1_555
C9 C8 1_555 1_555
H8 C9 1_555 1_555
C10 C9 1_555 1_555
H9 C10 1_555 1_555
C11 C10 1_555 1_555
H10 C11 1_555 1_555
C12 C7 1_555 1_555
N4 C12 1_555 1_555
C13 N4 1_555 1_555
C14 C6 1_555 1_555
H11 C14 1_555 1_555
C15 C13 1_555 1_555
C16 C15 1_555 1_555
H12 C16 1_555 1_555
C17 C16 1_555 1_555
H13 C17 1_555 1_555
C18 C17 1_555 1_555
C19 C18 1_555 1_555
H14 C19 1_555 1_555
C20 C15 1_555 1_555
H15 C20 1_555 1_555
O1 C18 1_555 1_555
C21 O1 1_555 1_555
H16 C21 1_555 1_555
H17 C21 1_555 1_555
C22 C21 1_555 1_555
H18 C22 1_555 1_555
H19 C22 1_555 1_555
H20 C22 1_555 1_555
C11 C12 1_555 1_555
C13 C14 1_555 1_555
C19 C20 1_555 1_555

#END
