
#######################################################################
#
#                 Cambridge Crystallographic Data Centre
#                                CCDC 
#
#######################################################################
#
# If this CIF has been generated from an entry in the Cambridge 
# Structural Database, then it will include bibliographic, chemical, 
# crystal, experimental, refinement or atomic coordinate data resulting 
# from the CCDC's data processing and validation procedures.
#
#######################################################################

data_RIQBUR
_chemical_formula_moiety         'C22 H17 N1 O1 S1'
_chemical_name_systematic        
3-benzylidene-2-[2-(methylsulfanyl)phenyl]-2,3-dihydro-1H-isoindol-1-one
_symmetry_cell_setting           triclinic
_symmetry_space_group_name_H-M   'P -1'
_symmetry_Int_Tables_number      2
_space_group_name_Hall           '-P 1'
loop_
_symmetry_equiv_pos_site_id
_symmetry_equiv_pos_as_xyz
1 x,y,z
2 -x,-y,-z
_cell_length_a                   7.914(3)
_cell_length_b                   8.871(4)
_cell_length_c                   12.394(5)
_cell_angle_alpha                96.871(6)
_cell_angle_beta                 95.022(6)
_cell_angle_gamma                93.923(6)
_cell_volume                     857.814
_exptl_crystal_colour            colorless
_exptl_crystal_description       Block
_cell_formula_units_Z            2
loop_
_atom_site_label
_atom_site_type_symbol
_atom_site_fract_x
_atom_site_fract_y
_atom_site_fract_z
S1 S 0.32221(6) 0.95868(6) 0.26074(4)
O1 O 0.2484(2) 0.6266(2) 0.47194(13)
N1 N 0.3734(2) 0.6473(2) 0.31145(14)
C1 C 0.2492(3) 0.5931(2) 0.37400(18)
C2 C 0.1261(3) 0.4921(2) 0.29578(17)
C3 C -0.0188(3) 0.4062(3) 0.31516(19)
H1 H -0.0538 0.4079 0.3850
C4 C -0.1097(3) 0.3176(3) 0.2257(2)
H2 H -0.2068 0.2578 0.2359
C5 C -0.0573(3) 0.3169(3) 0.1207(2)
H3 H -0.1212 0.2578 0.0622
C6 C 0.0883(3) 0.4028(2) 0.10214(18)
H4 H 0.1234 0.4016 0.0324
C7 C 0.1802(2) 0.4910(2) 0.19179(17)
C8 C 0.3395(2) 0.5893(2) 0.19896(17)
C9 C 0.4262(3) 0.6157(2) 0.11410(17)
H5 H 0.3783 0.5674 0.0465
C10 C 0.5870(3) 0.7104(2) 0.11203(16)
C11 C 0.5928(3) 0.8195(3) 0.03996(17)
H6 H 0.4979 0.8284 -0.0079
C12 C 0.7391(3) 0.9147(3) 0.03909(19)
H7 H 0.7413 0.9873 -0.0092
C13 C 0.8820(3) 0.9024(3) 0.10982(19)
H8 H 0.9784 0.9689 0.1111
C14 C 0.8798(3) 0.7898(3) 0.17869(18)
H9 H 0.9764 0.7789 0.2247
C15 C 0.7343(3) 0.6935(3) 0.17917(17)
H10 H 0.7346 0.6172 0.2245
C16 C 0.5073(3) 0.7580(2) 0.36002(16)
C17 C 0.5004(2) 0.9109(2) 0.34219(16)
C18 C 0.6315(3) 1.0160(3) 0.39181(18)
H11 H 0.6291 1.1179 0.3813
C19 C 0.7655(3) 0.9704(3) 0.45677(19)
H12 H 0.8526 1.0418 0.4886
C20 C 0.7709(3) 0.8194(3) 0.47466(19)
H13 H 0.8614 0.7896 0.5182
C21 C 0.6401(3) 0.7123(3) 0.42711(18)
H14 H 0.6414 0.6113 0.4400
C22 C 0.3636(3) 1.1597(3) 0.2587(2)
H15 H 0.3783 1.2104 0.3322
H16 H 0.2694 1.1978 0.2191
H17 H 0.4652 1.1783 0.2237
loop_
_geom_bond_atom_site_label_1
_geom_bond_atom_site_label_2
_geom_bond_site_symmetry_1
_geom_bond_site_symmetry_2
S1 C17 1_555 1_555
O1 C1 1_555 1_555
N1 C1 1_555 1_555
C1 C2 1_555 1_555
C2 C3 1_555 1_555
C3 H1 1_555 1_555
C4 C3 1_555 1_555
H2 C4 1_555 1_555
C5 C4 1_555 1_555
H3 C5 1_555 1_555
C6 C5 1_555 1_555
H4 C6 1_555 1_555
C7 C2 1_555 1_555
C8 N1 1_555 1_555
C9 C8 1_555 1_555
H5 C9 1_555 1_555
C10 C9 1_555 1_555
C11 C10 1_555 1_555
H6 C11 1_555 1_555
C12 C11 1_555 1_555
H7 C12 1_555 1_555
C13 C12 1_555 1_555
H8 C13 1_555 1_555
C14 C13 1_555 1_555
H9 C14 1_555 1_555
C15 C10 1_555 1_555
H10 C15 1_555 1_555
C16 N1 1_555 1_555
C17 C16 1_555 1_555
C18 C17 1_555 1_555
H11 C18 1_555 1_555
C19 C18 1_555 1_555
H12 C19 1_555 1_555
C20 C19 1_555 1_555
H13 C20 1_555 1_555
C21 C16 1_555 1_555
H14 C21 1_555 1_555
C22 S1 1_555 1_555
H15 C22 1_555 1_555
H16 C22 1_555 1_555
H17 C22 1_555 1_555
C6 C7 1_555 1_555
C7 C8 1_555 1_555
C14 C15 1_555 1_555
C20 C21 1_555 1_555

#END
