
#######################################################################
#
#                 Cambridge Crystallographic Data Centre
#                                CCDC 
#
#######################################################################
#
# If this CIF has been generated from an entry in the Cambridge 
# Structural Database, then it will include bibliographic, chemical, 
# crystal, experimental, refinement or atomic coordinate data resulting 
# from the CCDC's data processing and validation procedures.
#
#######################################################################

data_RIQBAV
_chemical_formula_moiety         'C12 H20 O2'
_chemical_name_systematic        
syn-3-(1-hydroxyallyl)-6,6-dimethylbicyclo[3.1.1]heptan-2-ol
_symmetry_cell_setting           orthorhombic
_symmetry_space_group_name_H-M   'P 21 21 21'
_symmetry_Int_Tables_number      19
_space_group_name_Hall           'P 2ac 2ab'
loop_
_symmetry_equiv_pos_site_id
_symmetry_equiv_pos_as_xyz
1 x,y,z
2 1/2+x,1/2-y,-z
3 -x,1/2+y,1/2-z
4 1/2-x,-y,1/2+z
_cell_length_a                   6.9647(9)
_cell_length_b                   7.2634(10)
_cell_length_c                   23.219(3)
_cell_angle_alpha                90
_cell_angle_beta                 90
_cell_angle_gamma                90
_cell_volume                     1174.59
_exptl_crystal_colour            colorless
_exptl_crystal_description       block
_chemical_melting_point          '88.5 deg.C'
_cell_formula_units_Z            4
loop_
_atom_site_label
_atom_site_type_symbol
_atom_site_fract_x
_atom_site_fract_y
_atom_site_fract_z
O1 O 1.2930(5) 0.0891(7) 0.9694(2)
O2 O 0.6783(4) 0.1500(5) 0.95340(15)
C1 C 1.168(2) -0.1920(16) 0.9333(5)
C2 C 1.1179(7) -0.0024(9) 0.9559(2)
C3 C 0.9957(6) 0.1184(7) 0.9158(2)
C4 C 0.7878(6) 0.0489(7) 0.9120(2)
C5 C 0.7052(7) 0.0605(7) 0.8517(2)
C6 C 0.8458(7) -0.0447(8) 0.8121(2)
C7 C 0.9527(8) 0.1385(8) 0.8065(2)
C8 C 1.0920(7) 0.1542(8) 0.8564(2)
C9 C 0.7591(9) 0.2390(8) 0.8183(2)
C10 C 0.7593(11) 0.4237(7) 0.8494(3)
C11 C 0.6412(9) 0.2586(10) 0.7633(2)
C12 C 1.307(2) -0.280(2) 0.9252(6)
H1 H 1.279(11) -0.411(9) 0.914(2)
H2 H 1.1188 -0.1833 0.8943
H3 H 1.0471 -0.0186 0.9916
H4 H 1.271(11) 0.163(9) 0.998(2)
H5 H 0.9883 0.2377 0.9344
H6 H 0.7870 -0.0795 0.9236
H7 H 0.5472 0.1514 0.9421
H8 H 0.5719 0.0234 0.8483
H9 H 0.7901 -0.0907 0.7767
H10 H 0.9175 -0.1423 0.8308
H11 H 1.0081 0.1617 0.7689
H12 H 1.1458 0.2773 0.8565
H13 H 1.1940 0.0650 0.8510
H14 H 0.7908 0.4049 0.8897
H15 H 0.8539 0.5042 0.8320
H16 H 0.6331 0.4795 0.8464
H17 H 0.5194 0.2021 0.7685
H18 H 0.7066 0.2004 0.7323
H19 H 0.6240 0.3854 0.7547
H20 H 1.424(12) -0.223(13) 0.938(3)
C13? C 1.146(4) -0.330(4) 0.9416(13)
H21? H 1.004(17) -0.300(17) 0.950(4)
loop_
_geom_bond_atom_site_label_1
_geom_bond_atom_site_label_2
_geom_bond_site_symmetry_1
_geom_bond_site_symmetry_2
O1 C2 1_555 1_555
O2 C4 1_555 1_555
C1 C2 1_555 1_555
C2 C3 1_555 1_555
C3 C4 1_555 1_555
C4 C5 1_555 1_555
C5 C6 1_555 1_555
C6 C7 1_555 1_555
C7 C8 1_555 1_555
C8 C3 1_555 1_555
C9 C5 1_555 1_555
C10 C9 1_555 1_555
C11 C9 1_555 1_555
C12 C1 1_555 1_555
H1 C12 1_555 1_555
H2 C1 1_555 1_555
H3 C2 1_555 1_555
H4 O1 1_555 1_555
H5 C3 1_555 1_555
H6 C4 1_555 1_555
H7 O2 1_555 1_555
H8 C5 1_555 1_555
H9 C6 1_555 1_555
H10 C6 1_555 1_555
H11 C7 1_555 1_555
H12 C8 1_555 1_555
H13 C8 1_555 1_555
H14 C10 1_555 1_555
H15 C10 1_555 1_555
H16 C10 1_555 1_555
H17 C11 1_555 1_555
H18 C11 1_555 1_555
H19 C11 1_555 1_555
H20 C12 1_555 1_555
C7 C9 1_555 1_555

#END
