
#######################################################################
#
#                 Cambridge Crystallographic Data Centre
#                                CCDC 
#
#######################################################################
#
# If this CIF has been generated from an entry in the Cambridge 
# Structural Database, then it will include bibliographic, chemical, 
# crystal, experimental, refinement or atomic coordinate data resulting 
# from the CCDC's data processing and validation procedures.
#
#######################################################################

data_RIQBEZ
_chemical_formula_moiety         'C13 H22 O2'
_chemical_name_systematic        
anti-3-(1-hydroxyallyl)-1,7,7-trimethylbicyclo[2.2.1]heptan-2-ol
_symmetry_cell_setting           monoclinic
_symmetry_space_group_name_H-M   'P 21'
_symmetry_Int_Tables_number      4
_space_group_name_Hall           'P 2yb'
loop_
_symmetry_equiv_pos_site_id
_symmetry_equiv_pos_as_xyz
1 x,y,z
2 -x,1/2+y,-z
_cell_length_a                   11.4552(9)
_cell_length_b                   9.8390(7)
_cell_length_c                   11.7723(10)
_cell_angle_alpha                90
_cell_angle_beta                 107.6320(10)
_cell_angle_gamma                90
_cell_volume                     1264.5
_exptl_crystal_colour            colorless
_exptl_crystal_description       prism
_chemical_melting_point          '91.0-92.0 deg.C'
_cell_formula_units_Z            4
loop_
_atom_site_label
_atom_site_type_symbol
_atom_site_fract_x
_atom_site_fract_y
_atom_site_fract_z
O1 O 0.0764(3) 0.9558(3) 0.5027(2)
O2 O -0.0284(2) 0.7174(3) 0.4070(2)
C1 C 0.1205(5) 1.1841(6) 0.3062(5)
C2 C 0.1588(4) 1.0810(4) 0.3770(4)
C3 C 0.0819(3) 0.9611(4) 0.3830(3)
C4 C 0.1347(3) 0.8311(3) 0.3507(3)
C5 C 0.0740(3) 0.6944(3) 0.3658(3)
C6 C 0.0462(3) 0.6242(4) 0.2432(3)
C7 C 0.1712(4) 0.5793(5) 0.2364(4)
C8 C 0.2325(4) 0.7161(6) 0.2168(4)
C9 C 0.1367(3) 0.8203(4) 0.2205(3)
C10 C 0.0164(4) 0.7454(4) 0.1546(3)
C11 C -0.1026(4) 0.8203(5) 0.1470(4)
C12 C 0.0069(7) 0.7067(7) 0.0248(3)
C13 C -0.0464(4) 0.5107(5) 0.2228(4)
H1 H 0.0372 1.1857 0.2531
H2 H 0.1754 1.2593 0.3066
H3 H 0.2426 1.0825 0.4290
H4 H 0.0001 0.9745 0.3289
H5 H 0.039(5) 0.886(6) 0.514(5)
H6 H 0.2192 0.8263 0.4008
H7 H 0.1333 0.6399 0.4244
H8 H -0.060(3) 0.655(4) 0.425(3)
H9 H 0.2183 0.5356 0.3099
H10 H 0.1629 0.5176 0.1701
H11 H 0.2483 0.7170 0.1404
H12 H 0.3085 0.7317 0.2799
H13 H 0.1465 0.9070 0.1852
H14 H -0.0858 0.8934 0.2051
H15 H -0.1369 0.8577 0.0676
H16 H -0.1606 0.7573 0.1636
H17 H 0.0314 0.7835 -0.0144
H18 H -0.0770 0.6821 -0.0177
H19 H 0.0603 0.6301 0.0250
H20 H -0.1280 0.5473 0.1871
H21 H -0.0420 0.4684 0.2984
H22 H -0.0289 0.4436 0.1699
O3 O 0.4767(3) 0.4975(3) 0.5137(3)
O4 O 0.4379(2) 0.7642(3) 0.5660(2)
C14 C 0.3187(5) 0.2932(6) 0.6419(6)
C15 C 0.4182(4) 0.3546(4) 0.6483(4)
C16 C 0.4272(3) 0.4982(4) 0.6125(3)
C17 C 0.5096(3) 0.5836(3) 0.7139(3)
C18 C 0.5173(3) 0.7369(4) 0.6817(3)
C19 C 0.4876(4) 0.8117(4) 0.7844(3)
C20 C 0.6027(4) 0.7898(5) 0.8924(4)
C21 C 0.5950(4) 0.6398(5) 0.9241(3)
C22 C 0.4763(3) 0.5927(4) 0.8307(3)
C23 C 0.3947(3) 0.7183(4) 0.8168(3)
C24 C 0.2701(3) 0.7088(5) 0.7224(4)
C25 C 0.3657(5) 0.7567(6) 0.9318(4)
C26 C 0.4582(5) 0.9596(4) 0.7587(4)
H23 H 0.3205 0.1992 0.6671
H24 H 0.2411 0.3404 0.6119
H25 H 0.4939 0.3040 0.6788
H26 H 0.3459 0.5379 0.5870
H27 H 0.490(3) 0.569(4) 0.505(3)
H28 H 0.5916 0.5463 0.7330
H29 H 0.6008 0.7579 0.6839
H30 H 0.455(6) 0.828(8) 0.537(5)
H31 H 0.6767 0.8075 0.8711
H32 H 0.6009 0.8479 0.9584
H33 H 0.5895 0.6298 1.0043
H34 H 0.6652 0.5895 0.9169
H35 H 0.4411 0.5103 0.8518
H36 H 0.2708 0.6349 0.6681
H37 H 0.2526 0.7935 0.6783
H38 H 0.2074 0.6921 0.7607
H39 H 0.4367 0.7998 0.9867
H40 H 0.3451 0.6754 0.9682
H41 H 0.2969 0.8191 0.9131
H42 H 0.3709 0.9701 0.7206
H43 H 0.5024 0.9935 0.7060
H44 H 0.4824 1.0105 0.8326
loop_
_geom_bond_atom_site_label_1
_geom_bond_atom_site_label_2
_geom_bond_site_symmetry_1
_geom_bond_site_symmetry_2
O1 C3 1_555 1_555
O2 C5 1_555 1_555
O3 C16 1_555 1_555
O4 C18 1_555 1_555
C1 C2 1_555 1_555
C2 C3 1_555 1_555
C3 C4 1_555 1_555
C4 C5 1_555 1_555
C5 C6 1_555 1_555
C6 C7 1_555 1_555
C7 C8 1_555 1_555
C8 C9 1_555 1_555
C9 C4 1_555 1_555
C10 C6 1_555 1_555
C11 C10 1_555 1_555
C12 C10 1_555 1_555
C13 C6 1_555 1_555
C14 C15 1_555 1_555
C15 C16 1_555 1_555
C16 C17 1_555 1_555
C17 C18 1_555 1_555
C18 C19 1_555 1_555
C19 C20 1_555 1_555
C20 C21 1_555 1_555
C21 C22 1_555 1_555
C22 C17 1_555 1_555
C23 C19 1_555 1_555
C24 C23 1_555 1_555
C25 C23 1_555 1_555
C26 C19 1_555 1_555
H1 C1 1_555 1_555
H2 C1 1_555 1_555
H3 C2 1_555 1_555
H4 C3 1_555 1_555
H5 O1 1_555 1_555
H6 C4 1_555 1_555
H7 C5 1_555 1_555
H8 O2 1_555 1_555
H9 C7 1_555 1_555
H10 C7 1_555 1_555
H11 C8 1_555 1_555
H12 C8 1_555 1_555
H13 C9 1_555 1_555
H14 C11 1_555 1_555
H15 C11 1_555 1_555
H16 C11 1_555 1_555
H17 C12 1_555 1_555
H18 C12 1_555 1_555
H19 C12 1_555 1_555
H20 C13 1_555 1_555
H21 C13 1_555 1_555
H22 C13 1_555 1_555
H23 C14 1_555 1_555
H24 C14 1_555 1_555
H25 C15 1_555 1_555
H26 C16 1_555 1_555
H27 O3 1_555 1_555
H28 C17 1_555 1_555
H29 C18 1_555 1_555
H30 O4 1_555 1_555
H31 C20 1_555 1_555
H32 C20 1_555 1_555
H33 C21 1_555 1_555
H34 C21 1_555 1_555
H35 C22 1_555 1_555
H36 C24 1_555 1_555
H37 C24 1_555 1_555
H38 C24 1_555 1_555
H39 C25 1_555 1_555
H40 C25 1_555 1_555
H41 C25 1_555 1_555
H42 C26 1_555 1_555
H43 C26 1_555 1_555
H44 C26 1_555 1_555
C9 C10 1_555 1_555
C22 C23 1_555 1_555

#END
