
#######################################################################
#
#                 Cambridge Crystallographic Data Centre
#                                CCDC 
#
#######################################################################
#
# If this CIF has been generated from an entry in the Cambridge 
# Structural Database, then it will include bibliographic, chemical, 
# crystal, experimental, refinement or atomic coordinate data resulting 
# from the CCDC's data processing and validation procedures.
#
#######################################################################

data_RIQFIJ
_chemical_formula_moiety         'C20 H26 O7'
_chemical_name_systematic        
'10-hydroxy-3,6,10-trimethyl-2,4-dioxo-2,4,5,6,7,8,9,10,11,11a-decahydro-8,11-epoxycyclodeca[b]furan-5-yl 2-methylbut-2-enoate'
_symmetry_cell_setting           orthorhombic
_symmetry_space_group_name_H-M   'P 21 21 21'
_symmetry_Int_Tables_number      19
_space_group_name_Hall           'P 2ac 2ab'
loop_
_symmetry_equiv_pos_site_id
_symmetry_equiv_pos_as_xyz
1 x,y,z
2 1/2+x,1/2-y,-z
3 -x,1/2+y,1/2-z
4 1/2-x,-y,1/2+z
_cell_length_a                   9.7184(3)
_cell_length_b                   9.7217(2)
_cell_length_c                   20.6267(5)
_cell_angle_alpha                90
_cell_angle_beta                 90
_cell_angle_gamma                90
_cell_volume                     1948.8
_exptl_crystal_colour            colorless
_exptl_crystal_description       prism
_cell_formula_units_Z            4
loop_
_atom_site_label
_atom_site_type_symbol
_atom_site_fract_x
_atom_site_fract_y
_atom_site_fract_z
O1 O 0.53696(14) 0.81996(14) 0.13094(6)
O2 O 0.43981(14) 1.19436(14) 0.17627(6)
O3 O 0.47377(16) 1.19049(14) 0.01560(6)
H1 H 0.4696 1.2323 -0.0200
O4 O 0.76006(14) 1.17509(15) 0.08774(6)
O5 O 0.98309(16) 1.17132(17) 0.11376(7)
O6 O 0.57288(15) 1.00555(14) 0.27768(6)
O7 O 0.71589(16) 0.73341(16) 0.18669(7)
C1 C 0.4778(2) 1.4318(2) 0.04676(10)
H2 H 0.5718 1.4363 0.0297
H3 H 0.4694 1.4932 0.0842
H4 H 0.4129 1.4605 0.0130
C2 C 0.4455(2) 1.28468(19) 0.06743(9)
C3 C 0.2972(2) 1.2677(2) 0.09226(10)
H5 H 0.2604 1.3564 0.1081
H6 H 0.2363 1.2327 0.0575
C4 C 0.3081(2) 1.1640(2) 0.14736(9)
H7 H 0.2336 1.1821 0.1797
C5 C 0.3019(2) 1.0136(2) 0.12622(9)
H8 H 0.3698 0.9988 0.0911
H9 H 0.2094 0.9947 0.1082
C6 C 0.3310(2) 0.9099(2) 0.18133(9)
H10 H 0.2969 0.9521 0.2226
C7 C 0.4822(2) 0.86984(19) 0.19202(8)
H11 H 0.4831 0.7907 0.2230
C8 C 0.6579(2) 0.7497(2) 0.13570(10)
C9 C 0.7061(2) 0.7035(2) 0.07087(10)
C10 C 0.8100(3) 0.6143(2) 0.06498(11)
H12 H 0.8336 0.5902 0.0218
C11 C 0.8938(3) 0.5475(3) 0.11622(13)
H13 H 0.9775 0.6016 0.1237
H14 H 0.9190 0.4545 0.1024
H15 H 0.8403 0.5425 0.1564
C12 C 0.6290(3) 0.7567(3) 0.01226(10)
H16 H 0.6679 0.7159 -0.0271
H17 H 0.6376 0.8570 0.0101
H18 H 0.5316 0.7315 0.0158
C13 C 0.5333(2) 1.24036(19) 0.12729(8)
H19 H 0.5856 1.3217 0.1438
C14 C 0.6336(2) 1.1222(2) 0.11467(9)
H20 H 0.5914 1.0542 0.0842
C15 C 0.8659(2) 1.1391(2) 0.12692(9)
C16 C 0.8127(2) 1.0596(2) 0.18275(9)
C17 C 0.6768(2) 1.05134(19) 0.17596(9)
C18 C 0.5759(2) 0.98098(19) 0.22025(9)
C19 C 0.9072(2) 1.0013(2) 0.23292(10)
H21 H 0.8531 0.9670 0.2696
H22 H 0.9702 1.0733 0.2480
H23 H 0.9604 0.9256 0.2140
C20 C 0.2484(2) 0.7780(2) 0.17015(10)
H24 H 0.2801 0.7333 0.1303
H25 H 0.1505 0.8006 0.1661
H26 H 0.2618 0.7155 0.2069
loop_
_geom_bond_atom_site_label_1
_geom_bond_atom_site_label_2
_geom_bond_site_symmetry_1
_geom_bond_site_symmetry_2
O1 C7 1_555 1_555
O2 C4 1_555 1_555
O3 H1 1_555 1_555
O4 C14 1_555 1_555
O5 C15 1_555 1_555
O6 C18 1_555 1_555
O7 C8 1_555 1_555
C1 H2 1_555 1_555
H3 C1 1_555 1_555
H4 C1 1_555 1_555
C2 O3 1_555 1_555
C3 C2 1_555 1_555
H5 C3 1_555 1_555
H6 C3 1_555 1_555
C4 C3 1_555 1_555
H7 C4 1_555 1_555
C5 C4 1_555 1_555
H8 C5 1_555 1_555
H9 C5 1_555 1_555
C6 C5 1_555 1_555
H10 C6 1_555 1_555
C7 C6 1_555 1_555
H11 C7 1_555 1_555
C8 O1 1_555 1_555
C9 C8 1_555 1_555
C10 C9 1_555 1_555
H12 C10 1_555 1_555
C11 C10 1_555 1_555
H13 C11 1_555 1_555
H14 C11 1_555 1_555
H15 C11 1_555 1_555
C12 C9 1_555 1_555
H16 C12 1_555 1_555
H17 C12 1_555 1_555
H18 C12 1_555 1_555
C13 O2 1_555 1_555
H19 C13 1_555 1_555
C14 C13 1_555 1_555
H20 C14 1_555 1_555
C15 O4 1_555 1_555
C16 C15 1_555 1_555
C17 C14 1_555 1_555
C18 C7 1_555 1_555
C19 C16 1_555 1_555
H21 C19 1_555 1_555
H22 C19 1_555 1_555
H23 C19 1_555 1_555
C20 C6 1_555 1_555
H24 C20 1_555 1_555
H25 C20 1_555 1_555
H26 C20 1_555 1_555
C1 C2 1_555 1_555
C2 C13 1_555 1_555
C16 C17 1_555 1_555
C17 C18 1_555 1_555

#END
