
#######################################################################
#
#                 Cambridge Crystallographic Data Centre
#                                CCDC 
#
#######################################################################
#
# If this CIF has been generated from an entry in the Cambridge 
# Structural Database, then it will include bibliographic, chemical, 
# crystal, experimental, refinement or atomic coordinate data resulting 
# from the CCDC's data processing and validation procedures.
#
#######################################################################

data_RIQJIM
_chemical_formula_moiety         'C24 H21 N1 O3'
_chemical_name_systematic        
'Methyl 3-hydroxy-2-phenyl-3-(2-phenylvinyl)indoline-2-carboxylate'
_symmetry_cell_setting           orthorhombic
_symmetry_space_group_name_H-M   'P b c a'
_symmetry_Int_Tables_number      61
_space_group_name_Hall           '-P 2ac 2ab'
loop_
_symmetry_equiv_pos_site_id
_symmetry_equiv_pos_as_xyz
1 x,y,z
2 1/2-x,-y,1/2+z
3 -x,1/2+y,1/2-z
4 1/2+x,1/2-y,-z
5 -x,-y,-z
6 1/2+x,y,1/2-z
7 x,1/2-y,1/2+z
8 1/2-x,1/2+y,z
_cell_length_a                   10.7586(6)
_cell_length_b                   16.5601(10)
_cell_length_c                   21.4710(13)
_cell_angle_alpha                90
_cell_angle_beta                 90
_cell_angle_gamma                90
_cell_volume                     3825.35
_exptl_crystal_colour            colorless
_exptl_crystal_description       block
_cell_formula_units_Z            8
loop_
_atom_site_label
_atom_site_type_symbol
_atom_site_fract_x
_atom_site_fract_y
_atom_site_fract_z
O1 O 1.08138(12) 0.00005(9) 0.72767(6)
O2 O 0.87772(12) 0.01662(8) 0.71679(6)
O3 O 1.16369(11) -0.08369(8) 0.82792(6)
H1 H 1.1710 -0.0587 0.7941
N1 N 0.82783(13) -0.05725(9) 0.82380(6)
H2 H 0.7512 -0.0741 0.8177
C1 C 1.19665(19) -0.31506(12) 0.97044(9)
H3 H 1.2766 -0.2979 0.9571
C2 C 1.1869(2) -0.37612(13) 1.01422(10)
H4 H 1.2598 -0.4002 1.0308
C3 C 1.0717(2) -0.40189(14) 1.03372(11)
H5 H 1.0650 -0.4432 1.0642
C4 C 0.9654(2) -0.36742(14) 1.00875(12)
H6 H 0.8857 -0.3857 1.0216
C5 C 0.9755(2) -0.30648(12) 0.96514(10)
H7 H 0.9022 -0.2833 0.9481
C6 C 1.09124(17) -0.27835(11) 0.94567(8)
C7 C 1.10640(17) -0.21047(11) 0.90211(8)
H8 H 1.1868 -0.2024 0.8849
C8 C 1.01811(17) -0.15976(11) 0.88487(8)
H9 H 0.9358 -0.1710 0.8983
C9 C 1.03787(16) -0.08542(10) 0.84554(8)
C10 C 0.99262(17) -0.01255(10) 0.88217(8)
C11 C 0.86773(17) -0.00014(10) 0.86783(8)
C12 C 0.80003(18) 0.06076(11) 0.89621(8)
H10 H 0.7149 0.0693 0.8866
C13 C 0.86169(19) 0.10901(11) 0.93942(9)
H11 H 0.8175 0.1512 0.9597
C14 C 0.98591(19) 0.09691(11) 0.95359(8)
H12 H 1.0259 0.1312 0.9829
C15 C 1.05259(18) 0.03506(11) 0.92535(8)
H13 H 1.1373 0.0259 0.9356
C16 C 0.9993(2) -0.18348(14) 0.70664(10)
H14 H 1.0590 -0.1458 0.6918
C17 C 0.9880(2) -0.25842(15) 0.67802(12)
H15 H 1.0396 -0.2716 0.6436
C18 C 0.9032(2) -0.31323(13) 0.69917(12)
H16 H 0.8966 -0.3646 0.6797
C19 C 0.8271(2) -0.29429(13) 0.74871(11)
H17 H 0.7680 -0.3325 0.7634
C20 C 0.8369(2) -0.21929(12) 0.77712(9)
H18 H 0.7835 -0.2059 0.8108
C21 C 0.92422(17) -0.16369(11) 0.75653(8)
C22 C 0.93924(16) -0.08330(10) 0.79000(8)
C23 C 0.97655(17) -0.01798(11) 0.74212(8)
C24 C 0.9022(2) 0.07519(14) 0.66791(10)
H19 H 0.8233 0.0970 0.6524
H20 H 0.9467 0.0489 0.6337
H21 H 0.9530 0.1193 0.6846
loop_
_geom_bond_atom_site_label_1
_geom_bond_atom_site_label_2
_geom_bond_site_symmetry_1
_geom_bond_site_symmetry_2
O1 C23 1_555 1_555
O2 C23 1_555 1_555
O3 H1 1_555 1_555
N1 H2 1_555 1_555
C1 H3 1_555 1_555
C2 C1 1_555 1_555
H4 C2 1_555 1_555
C3 C2 1_555 1_555
H5 C3 1_555 1_555
C4 C3 1_555 1_555
H6 C4 1_555 1_555
C5 C4 1_555 1_555
H7 C5 1_555 1_555
C6 C1 1_555 1_555
C7 C6 1_555 1_555
H8 C7 1_555 1_555
C8 C7 1_555 1_555
H9 C8 1_555 1_555
C9 O3 1_555 1_555
C10 C9 1_555 1_555
C11 N1 1_555 1_555
C12 C11 1_555 1_555
H10 C12 1_555 1_555
C13 C12 1_555 1_555
H11 C13 1_555 1_555
C14 C13 1_555 1_555
H12 C14 1_555 1_555
C15 C10 1_555 1_555
H13 C15 1_555 1_555
C16 H14 1_555 1_555
C17 C16 1_555 1_555
H15 C17 1_555 1_555
C18 C17 1_555 1_555
H16 C18 1_555 1_555
C19 C18 1_555 1_555
H17 C19 1_555 1_555
C20 C19 1_555 1_555
H18 C20 1_555 1_555
C21 C16 1_555 1_555
C22 N1 1_555 1_555
C23 C22 1_555 1_555
C24 O2 1_555 1_555
H19 C24 1_555 1_555
H20 C24 1_555 1_555
H21 C24 1_555 1_555
C5 C6 1_555 1_555
C8 C9 1_555 1_555
C9 C22 1_555 1_555
C10 C11 1_555 1_555
C14 C15 1_555 1_555
C20 C21 1_555 1_555
C21 C22 1_555 1_555

#END
