
#######################################################################
#
#                 Cambridge Crystallographic Data Centre
#                                CCDC 
#
#######################################################################
#
# If this CIF has been generated from an entry in the Cambridge 
# Structural Database, then it will include bibliographic, chemical, 
# crystal, experimental, refinement or atomic coordinate data resulting 
# from the CCDC's data processing and validation procedures.
#
#######################################################################

data_RIQVIY
_chemical_formula_moiety         'C32 H35 Br1 N2 O3 S1'
_chemical_name_systematic        
N-(1-(4-Bromophenyl)-2-(1-methyl-2-oxo-1,2-dihydro-3H-indol-3-ylidene)ethylidene)-2,4,6-triisopropylbenzenesulfonamide
_symmetry_cell_setting           triclinic
_symmetry_space_group_name_H-M   'P -1'
_symmetry_Int_Tables_number      2
_space_group_name_Hall           '-P 1'
loop_
_symmetry_equiv_pos_site_id
_symmetry_equiv_pos_as_xyz
1 x,y,z
2 -x,-y,-z
_cell_length_a                   9.2438(8)
_cell_length_b                   10.1908(8)
_cell_length_c                   16.3021(13)
_cell_angle_alpha                97.501(2)
_cell_angle_beta                 101.791(2)
_cell_angle_gamma                97.318(2)
_cell_volume                     1471.52
_exptl_crystal_colour            colorless
_exptl_crystal_description       prismatic
_cell_formula_units_Z            2
loop_
_atom_site_label
_atom_site_type_symbol
_atom_site_fract_x
_atom_site_fract_y
_atom_site_fract_z
Br1 Br 0.80173(5) 0.43638(4) 0.63078(3)
S1 S 0.18644(9) 0.89381(8) 0.79988(5)
N1 N 0.0171(4) 0.8233(3) 0.43135(16)
N2 N 0.3163(3) 0.8109(3) 0.76940(15)
O1 O -0.0972(3) 0.6436(3) 0.47992(17)
O2 O 0.0362(2) 0.8324(2) 0.76020(14)
O3 O 0.2307(3) 1.0284(2) 0.78897(14)
C1 C 0.1421(4) 0.9211(4) 0.4619(2)
C2 C 0.1921(6) 1.0291(4) 0.4249(2)
H1 H 0.1418 1.0430 0.3720
C3 C 0.3207(6) 1.1152(5) 0.4707(3)
H2 H 0.3564 1.1886 0.4479
C4 C 0.3951(5) 1.0949(4) 0.5475(3)
H3 H 0.4812 1.1540 0.5759
C5 C 0.3456(4) 0.9879(3) 0.5847(2)
H4 H 0.3973 0.9756 0.6376
C6 C 0.2193(4) 0.9007(3) 0.54206(19)
C7 C 0.1341(3) 0.7842(3) 0.56204(18)
C8 C 0.0008(4) 0.7375(4) 0.4887(2)
C9 C 0.1564(3) 0.7165(3) 0.62696(19)
H5 H 0.0802 0.6491 0.6294
C10 C 0.2938(3) 0.7413(3) 0.69533(19)
C11 C 0.4202(3) 0.6729(3) 0.67616(18)
C12 C 0.3903(4) 0.5575(3) 0.6169(2)
H6 H 0.2932 0.5267 0.5855
C13 C 0.5050(4) 0.4874(4) 0.6041(2)
H7 H 0.4850 0.4081 0.5655
C14 C 0.6482(4) 0.5363(3) 0.6490(2)
C15 C 0.6816(4) 0.6532(4) 0.7057(2)
H8 H 0.7799 0.6865 0.7343
C16 C 0.5661(3) 0.7205(3) 0.7196(2)
H9 H 0.5869 0.7992 0.7589
C17 C -0.0849(5) 0.8067(5) 0.3484(2)
H10 H -0.1241 0.8884 0.3417
H11 H -0.1657 0.7352 0.3442
H12 H -0.0319 0.7857 0.3048
C18 C 0.2251(3) 0.8738(3) 0.90910(18)
C19 C 0.2126(3) 0.7424(3) 0.92677(19)
C20 C 0.2573(4) 0.7258(4) 1.0115(2)
H13 H 0.2488 0.6393 1.0244
C21 C 0.3132(4) 0.8313(4) 1.0766(2)
C22 C 0.3170(4) 0.9591(4) 1.0570(2)
H14 H 0.3514 1.0312 1.1010
C23 C 0.2720(3) 0.9858(3) 0.97495(19)
C24 C 0.2663(4) 1.1315(3) 0.9627(2)
H15 H 0.3071 1.1457 0.9130
C25 C 0.1043(4) 1.1532(4) 0.9430(3)
H16 H 0.0476 1.0855 0.8971
H17 H 0.0990 1.2401 0.9269
H18 H 0.0638 1.1476 0.9924
C26 C 0.3560(5) 1.2341(4) 1.0368(3)
H19 H 0.3106 1.2302 1.0846
H20 H 0.3582 1.3220 1.0215
H21 H 0.4564 1.2152 1.0515
C27 C 0.1526(4) 0.6154(3) 0.8619(2)
H22 H 0.1263 0.6427 0.8060
C28 C 0.0087(5) 0.5421(5) 0.8791(3)
H23 H 0.0315 0.5106 0.9326
H24 H -0.0327 0.4672 0.8347
H25 H -0.0626 0.6026 0.8809
C29 C 0.2689(5) 0.5228(4) 0.8579(3)
H26 H 0.3562 0.5704 0.8455
H27 H 0.2280 0.4468 0.8142
H28 H 0.2957 0.4928 0.9116
C30 C 0.3677(6) 0.8129(5) 1.1683(2)
H29 H 0.4545 0.8843 1.1876
C31 C 0.4360(5) 0.6948(5) 1.1805(3)
H30 H 0.4860 0.7021 1.2390
H31 H 0.5072 0.6871 1.1455
H32 H 0.3601 0.6168 1.1652
C32 C 0.2704(6) 0.8545(5) 1.2224(3)
H33 H 0.1733 0.8005 1.2028
H34 H 0.2615 0.9470 1.2206
H35 H 0.3118 0.8437 1.2796
loop_
_geom_bond_atom_site_label_1
_geom_bond_atom_site_label_2
_geom_bond_site_symmetry_1
_geom_bond_site_symmetry_2
Br1 C14 1_555 1_555
S1 N2 1_555 1_555
N1 C1 1_555 1_555
N2 C10 1_555 1_555
O1 C8 1_555 1_555
O2 S1 1_555 1_555
O3 S1 1_555 1_555
C1 C2 1_555 1_555
C2 H1 1_555 1_555
C3 C2 1_555 1_555
H2 C3 1_555 1_555
C4 C3 1_555 1_555
H3 C4 1_555 1_555
C5 C4 1_555 1_555
H4 C5 1_555 1_555
C6 C1 1_555 1_555
C7 C6 1_555 1_555
C8 N1 1_555 1_555
C9 C7 1_555 1_555
H5 C9 1_555 1_555
C10 C9 1_555 1_555
C11 C10 1_555 1_555
C12 C11 1_555 1_555
H6 C12 1_555 1_555
C13 C12 1_555 1_555
H7 C13 1_555 1_555
C14 C13 1_555 1_555
C15 C14 1_555 1_555
H8 C15 1_555 1_555
C16 C11 1_555 1_555
H9 C16 1_555 1_555
C17 N1 1_555 1_555
H10 C17 1_555 1_555
H11 C17 1_555 1_555
H12 C17 1_555 1_555
C18 S1 1_555 1_555
C19 C18 1_555 1_555
C20 C19 1_555 1_555
H13 C20 1_555 1_555
C21 C20 1_555 1_555
C22 C21 1_555 1_555
H14 C22 1_555 1_555
C23 C18 1_555 1_555
C24 C23 1_555 1_555
H15 C24 1_555 1_555
C25 C24 1_555 1_555
H16 C25 1_555 1_555
H17 C25 1_555 1_555
H18 C25 1_555 1_555
C26 C24 1_555 1_555
H19 C26 1_555 1_555
H20 C26 1_555 1_555
H21 C26 1_555 1_555
C27 C19 1_555 1_555
H22 C27 1_555 1_555
C28 C27 1_555 1_555
H23 C28 1_555 1_555
H24 C28 1_555 1_555
H25 C28 1_555 1_555
C29 C27 1_555 1_555
H26 C29 1_555 1_555
H27 C29 1_555 1_555
H28 C29 1_555 1_555
C30 C21 1_555 1_555
H29 C30 1_555 1_555
C31 C30 1_555 1_555
H30 C31 1_555 1_555
H31 C31 1_555 1_555
H32 C31 1_555 1_555
C32 C30 1_555 1_555
H33 C32 1_555 1_555
H34 C32 1_555 1_555
H35 C32 1_555 1_555
C5 C6 1_555 1_555
C7 C8 1_555 1_555
C15 C16 1_555 1_555
C22 C23 1_555 1_555

#END
