
#######################################################################
#
#                 Cambridge Crystallographic Data Centre
#                                CCDC 
#
#######################################################################
#
# If this CIF has been generated from an entry in the Cambridge 
# Structural Database, then it will include bibliographic, chemical, 
# crystal, experimental, refinement or atomic coordinate data resulting 
# from the CCDC's data processing and validation procedures.
#
#######################################################################

data_RIRGUV
_chemical_formula_moiety         'C16 H14 O6,C10 H8 N2'
_chemical_name_systematic        
"Ethylene-4,4'-bis(oxybenzoic acid) 4,4'-bipyridine"
_symmetry_cell_setting           triclinic
_symmetry_space_group_name_H-M   'P -1'
_symmetry_Int_Tables_number      2
_space_group_name_Hall           '-P 1'
loop_
_symmetry_equiv_pos_site_id
_symmetry_equiv_pos_as_xyz
1 x,y,z
2 -x,-y,-z
_cell_length_a                   6.8088(10)
_cell_length_b                   11.9870(18)
_cell_length_c                   14.349(2)
_cell_angle_alpha                87.880(3)
_cell_angle_beta                 80.469(2)
_cell_angle_gamma                76.185(2)
_cell_volume                     1121.54
_exptl_crystal_colour            colorless
_exptl_crystal_description       block
_cell_formula_units_Z            2
loop_
_atom_site_label
_atom_site_type_symbol
_atom_site_fract_x
_atom_site_fract_y
_atom_site_fract_z
N1 N 0.1151(5) 1.0226(3) 0.6715(3)
N2 N 0.9602(6) 0.7619(3) 0.8953(3)
C1 C 0.3040(7) 0.9906(4) 0.6228(3)
H1 H 0.3237 1.0046 0.5581
C2 C 0.4722(6) 0.9375(4) 0.6641(3)
H2 H 0.6010 0.9151 0.6273
C3 C 0.4476(6) 0.9182(3) 0.7596(3)
C4 C 0.2528(7) 0.9529(4) 0.8105(3)
H3 H 0.2295 0.9423 0.8755
C5 C 0.0916(6) 1.0041(4) 0.7632(3)
H4 H -0.0393 1.0264 0.7981
C6 C 0.6247(6) 0.8627(4) 0.8067(3)
C7 C 0.7757(7) 0.7734(4) 0.7655(3)
H5 H 0.7690 0.7451 0.7070
C8 C 0.9400(7) 0.7253(4) 0.8124(4)
H6 H 1.0408 0.6642 0.7838
C9 C 0.8139(6) 0.8476(4) 0.9348(3)
H7 H 0.8242 0.8749 0.9932
C10 C 0.6457(6) 0.8985(4) 0.8931(3)
H8 H 0.5453 0.9580 0.9242
O1 O 0.2284(4) 0.5004(3) 0.36670(19)
O2 O 0.0068(4) 0.5842(2) 0.2130(2)
O3 O -0.7104(5) 0.6830(3) -0.0233(3)
H9 H -0.8094 0.7128 -0.0488
O4 O -0.8025(5) 0.8476(3) 0.0557(2)
O5 O 0.7965(4) 0.1355(3) 0.5913(2)
H10 H 0.8952 0.0963 0.6127
O6 O 1.0409(5) 0.1831(3) 0.4871(2)
C11 C 0.6948(6) 0.2764(4) 0.4795(3)
C12 C 0.7422(6) 0.3562(4) 0.4131(3)
H11 H 0.8787 0.3582 0.3943
C13 C 0.5922(6) 0.4333(4) 0.3737(3)
H12 H 0.6277 0.4866 0.3293
C14 C 0.3896(6) 0.4303(4) 0.4011(3)
C15 C 0.3384(6) 0.3534(4) 0.4693(3)
H13 H 0.2015 0.3533 0.4898
C16 C 0.4899(6) 0.2769(4) 0.5072(3)
H14 H 0.4538 0.2245 0.5523
C17 C 0.8620(8) 0.1950(4) 0.5177(3)
C18 C 0.2703(6) 0.5857(4) 0.2995(3)
H15 H 0.3586 0.5494 0.2433
H16 H 0.3395 0.6358 0.3260
C19 C 0.0713(6) 0.6538(4) 0.2745(3)
H17 H -0.0302 0.6728 0.3311
H18 H 0.0894 0.7246 0.2433
C20 C -0.1641(6) 0.6312(4) 0.1738(3)
C21 C -0.1989(6) 0.5676(4) 0.1021(3)
H19 H -0.1074 0.4983 0.0834
C22 C -0.3678(6) 0.6063(4) 0.0583(3)
H20 H -0.3896 0.5628 0.0103
C23 C -0.5056(6) 0.7093(4) 0.0851(3)
C24 C -0.4686(6) 0.7727(4) 0.1568(3)
H21 H -0.5597 0.8423 0.1752
C25 C -0.3002(6) 0.7349(4) 0.2011(3)
H22 H -0.2780 0.7785 0.2489
C26 C -0.6880(7) 0.7543(4) 0.0390(3)
loop_
_geom_bond_atom_site_label_1
_geom_bond_atom_site_label_2
_geom_bond_site_symmetry_1
_geom_bond_site_symmetry_2
N1 C1 1_555 1_555
N2 C8 1_555 1_555
C1 H1 1_555 1_555
C2 C1 1_555 1_555
H2 C2 1_555 1_555
C3 C2 1_555 1_555
C4 C3 1_555 1_555
H3 C4 1_555 1_555
C5 N1 1_555 1_555
H4 C5 1_555 1_555
C6 C3 1_555 1_555
C7 C6 1_555 1_555
H5 C7 1_555 1_555
C8 C7 1_555 1_555
H6 C8 1_555 1_555
C9 N2 1_555 1_555
H7 C9 1_555 1_555
C10 C6 1_555 1_555
H8 C10 1_555 1_555
O1 C14 1_555 1_555
O2 C19 1_555 1_555
O3 H9 1_555 1_555
O4 C26 1_555 1_555
O5 H10 1_555 1_555
O6 C17 1_555 1_555
C11 C12 1_555 1_555
C12 H11 1_555 1_555
C13 C12 1_555 1_555
H12 C13 1_555 1_555
C14 C13 1_555 1_555
C15 C14 1_555 1_555
H13 C15 1_555 1_555
C16 C11 1_555 1_555
H14 C16 1_555 1_555
C17 O5 1_555 1_555
C18 O1 1_555 1_555
H15 C18 1_555 1_555
H16 C18 1_555 1_555
C19 C18 1_555 1_555
H17 C19 1_555 1_555
H18 C19 1_555 1_555
C20 O2 1_555 1_555
C21 C20 1_555 1_555
H19 C21 1_555 1_555
C22 C21 1_555 1_555
H20 C22 1_555 1_555
C23 C22 1_555 1_555
C24 C23 1_555 1_555
H21 C24 1_555 1_555
C25 C20 1_555 1_555
H22 C25 1_555 1_555
C26 O3 1_555 1_555
C4 C5 1_555 1_555
C9 C10 1_555 1_555
C11 C17 1_555 1_555
C15 C16 1_555 1_555
C23 C26 1_555 1_555
C24 C25 1_555 1_555

#END
