
#######################################################################
#
#                 Cambridge Crystallographic Data Centre
#                                CCDC 
#
#######################################################################
#
# If this CIF has been generated from an entry in the Cambridge 
# Structural Database, then it will include bibliographic, chemical, 
# crystal, experimental, refinement or atomic coordinate data resulting 
# from the CCDC's data processing and validation procedures.
#
#######################################################################

data_RIRKAF
_chemical_formula_moiety         'C18 H29 N3 O1 S2'
_chemical_name_systematic        
(4S,8S,15S,16S,17R)-4-(N,N-Dimethylaminodithiocarbamoyl)oxymatrine
_symmetry_cell_setting           orthorhombic
_symmetry_space_group_name_H-M   'P 21 21 21'
_symmetry_Int_Tables_number      19
_space_group_name_Hall           'P 2ac 2ab'
loop_
_symmetry_equiv_pos_site_id
_symmetry_equiv_pos_as_xyz
1 x,y,z
2 1/2-x,-y,1/2+z
3 -x,1/2+y,1/2-z
4 1/2+x,1/2-y,-z
_cell_length_a                   6.6095(5)
_cell_length_b                   13.1672(9)
_cell_length_c                   21.4674(14)
_cell_angle_alpha                90
_cell_angle_beta                 90
_cell_angle_gamma                90
_cell_volume                     1868.28
_exptl_crystal_colour            'pale yellow'
_exptl_crystal_description       block
_cell_formula_units_Z            4
_exptl_crystal_recrystallization_method ethanol
loop_
_atom_site_label
_atom_site_type_symbol
_atom_site_fract_x
_atom_site_fract_y
_atom_site_fract_z
S1 S 0.07199(9) 0.60980(5) 0.94208(3)
S2 S 0.51137(9) 0.55810(5) 0.91937(2)
N1 N 0.3642(3) 0.61239(15) 1.02666(8)
N2 N 0.4735(3) 0.62570(13) 0.71238(7)
N3 N 0.0990(3) 0.79996(12) 0.65396(7)
O1 O 0.5983(4) 0.46934(14) 0.69261(8)
C1 C 0.2145(5) 0.6468(2) 1.07237(11)
H1 H 0.1050 0.5990 1.0742
H2 H 0.1635 0.7121 1.0603
H3 H 0.2771 0.6518 1.1126
C2 C 0.5706(4) 0.6007(2) 1.04953(11)
H4 H 0.6408 0.6643 1.0460
H5 H 0.6394 0.5501 1.0252
H6 H 0.5676 0.5799 1.0924
C3 C 0.3083(3) 0.59706(16) 0.96780(10)
C4 C 0.4133(3) 0.57218(15) 0.84073(9)
H7 H 0.2769 0.5433 0.8382
C5 C 0.5576(4) 0.51220(17) 0.79913(9)
H8 H 0.6951 0.5267 0.8121
H9 H 0.5340 0.4404 0.8060
C6 C 0.5401(4) 0.53345(17) 0.72978(10)
C7 C 0.4501(3) 0.64747(18) 0.64601(9)
H10 H 0.5392 0.6037 0.6221
H11 H 0.4883 0.7173 0.6379
C8 C 0.2314(3) 0.63036(17) 0.62551(9)
H12 H 0.2009 0.5581 0.6311
C9 C 0.2030(4) 0.65554(19) 0.55639(10)
H13 H 0.3092 0.6233 0.5323
H14 H 0.0741 0.6289 0.5422
C10 C 0.2088(4) 0.76887(19) 0.54572(11)
H15 H 0.3444 0.7940 0.5537
H16 H 0.1757 0.7834 0.5026
C11 C 0.0612(4) 0.82242(18) 0.58776(10)
H17 H 0.0712 0.8951 0.5811
H18 H -0.0753 0.8016 0.5771
C12 C -0.0475(4) 0.85770(16) 0.69058(10)
H19 H -0.1831 0.8370 0.6789
H20 H -0.0335 0.9293 0.6809
C13 C -0.0200(4) 0.84260(17) 0.76015(10)
H21 H -0.1262 0.8780 0.7825
H22 H 0.1091 0.8705 0.7731
C14 C -0.0277(3) 0.72991(16) 0.77533(10)
H23 H -0.1627 0.7043 0.7672
H24 H 0.0012 0.7201 0.8192
C15 C 0.1253(3) 0.67043(15) 0.73640(9)
H25 H 0.1011 0.5980 0.7439
C16 C 0.0849(3) 0.69074(15) 0.66677(9)
H26 H -0.0532 0.6685 0.6572
C17 C 0.3481(3) 0.69195(15) 0.75195(8)
H27 H 0.3760 0.7621 0.7394
C18 C 0.4098(3) 0.68202(15) 0.82010(9)
H28 H 0.5431 0.7115 0.8259
H29 H 0.3153 0.7196 0.8458
loop_
_geom_bond_atom_site_label_1
_geom_bond_atom_site_label_2
_geom_bond_site_symmetry_1
_geom_bond_site_symmetry_2
S1 C3 1_555 1_555
S2 C3 1_555 1_555
N1 C1 1_555 1_555
N2 C6 1_555 1_555
N3 C11 1_555 1_555
O1 C6 1_555 1_555
C1 H1 1_555 1_555
H2 C1 1_555 1_555
H3 C1 1_555 1_555
C2 N1 1_555 1_555
H4 C2 1_555 1_555
H5 C2 1_555 1_555
H6 C2 1_555 1_555
C3 N1 1_555 1_555
C4 S2 1_555 1_555
H7 C4 1_555 1_555
C5 C4 1_555 1_555
H8 C5 1_555 1_555
H9 C5 1_555 1_555
C6 C5 1_555 1_555
C7 N2 1_555 1_555
H10 C7 1_555 1_555
H11 C7 1_555 1_555
C8 C7 1_555 1_555
H12 C8 1_555 1_555
C9 C8 1_555 1_555
H13 C9 1_555 1_555
H14 C9 1_555 1_555
C10 C9 1_555 1_555
H15 C10 1_555 1_555
H16 C10 1_555 1_555
C11 C10 1_555 1_555
H17 C11 1_555 1_555
H18 C11 1_555 1_555
C12 N3 1_555 1_555
H19 C12 1_555 1_555
H20 C12 1_555 1_555
C13 C12 1_555 1_555
H21 C13 1_555 1_555
H22 C13 1_555 1_555
C14 C13 1_555 1_555
H23 C14 1_555 1_555
H24 C14 1_555 1_555
C15 C14 1_555 1_555
H25 C15 1_555 1_555
C16 N3 1_555 1_555
H26 C16 1_555 1_555
C17 N2 1_555 1_555
H27 C17 1_555 1_555
C18 C4 1_555 1_555
H28 C18 1_555 1_555
H29 C18 1_555 1_555
C8 C16 1_555 1_555
C15 C16 1_555 1_555
C15 C17 1_555 1_555
C17 C18 1_555 1_555

#END
