
#######################################################################
#
#                 Cambridge Crystallographic Data Centre
#                                CCDC 
#
#######################################################################
#
# If this CIF has been generated from an entry in the Cambridge 
# Structural Database, then it will include bibliographic, chemical, 
# crystal, experimental, refinement or atomic coordinate data resulting 
# from the CCDC's data processing and validation procedures.
#
#######################################################################

data_RIRPAL
_chemical_formula_moiety         'C34 H48 N10 2+,2(Cl1 O4 1-),4(H2 O1)'
_chemical_name_systematic        
'11,30-Dimethyl-3,11,14,19,22,27,30,38-octaaza-8,33-diazoniapentacyclo[33.3.1.1^2,6^.1^16,20^.1^21,25^]dotetraconta-1(39),2(42),3,5,16(41),17,19,21(40),22,24,35,37-dodecaene bis(perchlorate) tetrahydrate'
_symmetry_cell_setting           monoclinic
_symmetry_space_group_name_H-M   'P 21/c'
_symmetry_Int_Tables_number      14
_space_group_name_Hall           '-P 2ybc'
loop_
_symmetry_equiv_pos_site_id
_symmetry_equiv_pos_as_xyz
1 x,y,z
2 -x,1/2+y,1/2-z
3 -x,-y,-z
4 x,1/2-y,1/2+z
_cell_length_a                   20.026(4)
_cell_length_b                   15.4487(19)
_cell_length_c                   14.706(2)
_cell_angle_alpha                90
_cell_angle_beta                 108.555(17)
_cell_angle_gamma                90
_cell_volume                     4313.18
_exptl_crystal_colour            colorless
_cell_formula_units_Z            4
loop_
_atom_site_label
_atom_site_type_symbol
_atom_site_fract_x
_atom_site_fract_y
_atom_site_fract_z
C1 C 0.3814(8) 0.3238(15) 0.7371(11)
H1 H 0.4027 0.3218 0.8077
H2 H 0.4203 0.3256 0.7092
N1 N 0.3408(6) 0.4021(9) 0.7113(7)
H3 H 0.304(4) 0.412(8) 0.731(8)
C2 C 0.3784(7) 0.4833(12) 0.7542(9)
H4 H 0.3430 0.5274 0.7557
H5 H 0.4073 0.4712 0.8213
C3 C 0.4234(6) 0.5187(8) 0.7040(9)
H6 H 0.4651 0.4809 0.7143
H7 H 0.4401 0.5766 0.7304
N2 N 0.3865(4) 0.5261(5) 0.6020(6)
C4 C 0.4385(8) 0.5539(10) 0.5551(13)
H8 H 0.4241 0.6097 0.5232
H9 H 0.4408 0.5106 0.5075
H10 H 0.4850 0.5598 0.6035
C5 C 0.3267(7) 0.5859(7) 0.5758(8)
H11 H 0.3093 0.5907 0.6316
H12 H 0.3445 0.6436 0.5658
C6 C 0.2723(7) 0.5680(6) 0.5001(15)
H13 H 0.2786 0.5986 0.4442
H14 H 0.2295 0.5919 0.5106
N3 N 0.2598(4) 0.4753(5) 0.4752(9)
H15 H 0.3020 0.4466 0.4999
H16 H 0.2298 0.4542 0.5061
C7 C 0.2323(7) 0.4541(6) 0.3799(10)
H17 H 0.2634 0.4775 0.3452
H18 H 0.1855 0.4817 0.3530
N4 N 0.2117(4) 0.1807(4) 0.3337(5)
C8 C 0.1608(5) 0.2348(7) 0.2883(7)
H19 H 0.1188 0.2113 0.2451
C9 C 0.1655(6) 0.3230(8) 0.3003(8)
H20 H 0.1280 0.3594 0.2648
C10 C 0.2248(6) 0.3577(5) 0.3638(7)
C11 C 0.2787(5) 0.3012(6) 0.4145(6)
H21 H 0.3203 0.3226 0.4603
C12 C 0.2696(4) 0.2138(5) 0.3962(5)
N5 N 0.3893(4) 0.1811(4) 0.4938(5)
C13 C 0.3248(4) 0.1492(5) 0.4483(5)
C14 C 0.4385(5) 0.1242(7) 0.5378(6)
H22 H 0.4848 0.1451 0.5684
C15 C 0.4266(5) 0.0356(7) 0.5421(7)
H23 H 0.4631 -0.0021 0.5773
C16 C 0.3608(5) 0.0043(5) 0.4941(6)
C17 C 0.3099(4) 0.0623(5) 0.4473(5)
H24 H 0.2637 0.0423 0.4137
C18 C 0.3472(5) -0.0920(6) 0.4908(6)
H25 H 0.3707 -0.1199 0.4486
H26 H 0.3674 -0.1166 0.5560
N6 N 0.2728(4) -0.1100(4) 0.4554(5)
H27 H 0.2535 -0.0789 0.3998
H28 H 0.2527 -0.0901 0.4997
C19 C 0.2535(6) -0.2015(6) 0.4355(8)
H29 H 0.2629 -0.2336 0.4966
H30 H 0.2822 -0.2276 0.3989
C20 C 0.1773(6) -0.2076(6) 0.3790(9)
H31 H 0.1491 -0.1865 0.4189
H32 H 0.1650 -0.2691 0.3635
N7 N 0.1582(4) -0.1565(5) 0.2878(7)
C21 C 0.1952(8) -0.1911(7) 0.2215(10)
H33 H 0.1971 -0.2545 0.2255
H34 H 0.2432 -0.1679 0.2400
H35 H 0.1695 -0.1736 0.1555
C22 C 0.0817(6) -0.1569(7) 0.2367(11)
H36 H 0.0724 -0.1220 0.1775
H37 H 0.0667 -0.2170 0.2173
C23 C 0.0397(6) -0.1235(8) 0.2918(11)
H38 H 0.0399 -0.1649 0.3432
H39 H -0.0095 -0.1159 0.2499
N8 N 0.0687(5) -0.0386(6) 0.3349(8)
H40 H 0.077(6) -0.0059(15) 0.290(4)
C24 C 0.0266(7) -0.0032(8) 0.3846(10)
H41 H 0.0218 -0.0457 0.4325
H42 H -0.0209 0.0080 0.3390
N9 N 0.1236(7) 0.2336(6) 0.5346(7)
C25 C 0.0586(10) 0.2323(8) 0.4774(10)
H43 H 0.0330 0.2851 0.4671
C26 C 0.0240(7) 0.1587(9) 0.4303(8)
H44 H -0.0242 0.1629 0.3928
C27 C 0.0569(9) 0.0819(10) 0.4362(11)
C28 C 0.1258(10) 0.0820(7) 0.4957(11)
H45 H 0.1526 0.0302 0.5045
C29 C 0.1572(8) 0.1580(9) 0.5438(8)
N10 N 0.2594(7) 0.0841(7) 0.6436(8)
C30 C 0.3285(14) 0.0881(13) 0.7072(14)
H46 H 0.3504 0.0344 0.7309
C31 C 0.3676(10) 0.1610(14) 0.7387(13)
H47 H 0.4136 0.1576 0.7839
C32 C 0.3385(11) 0.2396(12) 0.7033(11)
C33 C 0.2686(8) 0.2376(10) 0.6397(8)
H48 H 0.2473 0.2913 0.6155
C34 C 0.2276(11) 0.1611(9) 0.6093(11)
Cl1 Cl 0.04920(15) 0.59517(19) 0.3914(2)
O1 O -0.0047(7) 0.6412(9) 0.3426(9)
O2 O 0.0912(7) 0.5920(10) 0.3338(10)
O3 O 0.0288(7) 0.5107(7) 0.3973(9)
O4 O 0.0876(6) 0.6273(7) 0.4786(7)
Cl2 Cl 0.6053(2) 0.1992(2) 0.2254(3)
O5 O 0.5590(11) 0.2348(14) 0.2672(17)
O6 O 0.5782(7) 0.1196(7) 0.2124(11)
O7 O 0.6687(6) 0.2045(10) 0.2882(13)
O8 O 0.5943(7) 0.2513(11) 0.1561(11)
O9 O 0.1865(3) 0.0140(4) 0.2368(4)
H49 H 0.1947(4) 0.0619(8) 0.2658(6)
H50 H 0.1745(4) 0.0327(5) 0.1838(9)
O10 O 0.4428(6) 0.3610(7) 0.5368(8)
H51 H 0.4267(6) 0.3078(11) 0.5243(8)
H52 H 0.4753(8) 0.3665(7) 0.5795(10)
O11 O 0.1425(4) 0.0818(4) 0.0524(4)
H53 H 0.1141(6) 0.0586(5) 0.0141(7)
H54 H 0.1367(4) 0.1380(10) 0.0471(4)
O12 O 0.2080(10) 0.5920(7) 0.1392(8)
H55 H 0.2287(10) 0.5474(10) 0.1604(9)
H56 H 0.2439(11) 0.6251(8) 0.1611(9)
loop_
_geom_bond_atom_site_label_1
_geom_bond_atom_site_label_2
_geom_bond_site_symmetry_1
_geom_bond_site_symmetry_2
C1 H1 1_555 1_555
H2 C1 1_555 1_555
N1 C1 1_555 1_555
H3 N1 1_555 1_555
C2 N1 1_555 1_555
H4 C2 1_555 1_555
H5 C2 1_555 1_555
C3 C2 1_555 1_555
H6 C3 1_555 1_555
H7 C3 1_555 1_555
N2 C3 1_555 1_555
C4 N2 1_555 1_555
H8 C4 1_555 1_555
H9 C4 1_555 1_555
H10 C4 1_555 1_555
C5 N2 1_555 1_555
H11 C5 1_555 1_555
H12 C5 1_555 1_555
C6 C5 1_555 1_555
H13 C6 1_555 1_555
H14 C6 1_555 1_555
N3 C6 1_555 1_555
H15 N3 1_555 1_555
H16 N3 1_555 1_555
C7 N3 1_555 1_555
H17 C7 1_555 1_555
H18 C7 1_555 1_555
N4 C8 1_555 1_555
C8 H19 1_555 1_555
C9 C8 1_555 1_555
H20 C9 1_555 1_555
C10 C7 1_555 1_555
C11 C10 1_555 1_555
H21 C11 1_555 1_555
C12 N4 1_555 1_555
N5 C13 1_555 1_555
C13 C12 1_555 1_555
C14 N5 1_555 1_555
H22 C14 1_555 1_555
C15 C14 1_555 1_555
H23 C15 1_555 1_555
C16 C15 1_555 1_555
C17 C13 1_555 1_555
H24 C17 1_555 1_555
C18 C16 1_555 1_555
H25 C18 1_555 1_555
H26 C18 1_555 1_555
N6 C18 1_555 1_555
H27 N6 1_555 1_555
H28 N6 1_555 1_555
C19 N6 1_555 1_555
H29 C19 1_555 1_555
H30 C19 1_555 1_555
C20 C19 1_555 1_555
H31 C20 1_555 1_555
H32 C20 1_555 1_555
N7 C20 1_555 1_555
C21 N7 1_555 1_555
H33 C21 1_555 1_555
H34 C21 1_555 1_555
H35 C21 1_555 1_555
C22 N7 1_555 1_555
H36 C22 1_555 1_555
H37 C22 1_555 1_555
C23 C22 1_555 1_555
H38 C23 1_555 1_555
H39 C23 1_555 1_555
N8 C23 1_555 1_555
H40 N8 1_555 1_555
C24 N8 1_555 1_555
H41 C24 1_555 1_555
H42 C24 1_555 1_555
N9 C25 1_555 1_555
C25 H43 1_555 1_555
C26 C25 1_555 1_555
H44 C26 1_555 1_555
C27 C24 1_555 1_555
C28 C27 1_555 1_555
H45 C28 1_555 1_555
C29 N9 1_555 1_555
N10 C30 1_555 1_555
C30 H46 1_555 1_555
C31 C30 1_555 1_555
H47 C31 1_555 1_555
C32 C1 1_555 1_555
C33 C32 1_555 1_555
H48 C33 1_555 1_555
C34 C29 1_555 1_555
Cl1 O1 1_555 1_555
O2 Cl1 1_555 1_555
O3 Cl1 1_555 1_555
O4 Cl1 1_555 1_555
Cl2 O5 1_555 1_555
O6 Cl2 1_555 1_555
O7 Cl2 1_555 1_555
O8 Cl2 1_555 1_555
O9 H49 1_555 1_555
H50 O9 1_555 1_555
O10 H51 1_555 1_555
H52 O10 1_555 1_555
O11 H53 1_555 1_555
H54 O11 1_555 1_555
O12 H55 1_555 1_555
H56 O12 1_555 1_555
C9 C10 1_555 1_555
C11 C12 1_555 1_555
C16 C17 1_555 1_555
C26 C27 1_555 1_555
C28 C29 1_555 1_555
N10 C34 1_555 1_555
C31 C32 1_555 1_555
C33 C34 1_555 1_555

#END
