
#######################################################################
#
#                 Cambridge Crystallographic Data Centre
#                                CCDC 
#
#######################################################################
#
# If this CIF has been generated from an entry in the Cambridge 
# Structural Database, then it will include bibliographic, chemical, 
# crystal, experimental, refinement or atomic coordinate data resulting 
# from the CCDC's data processing and validation procedures.
#
#######################################################################

data_RIRRUI
_chemical_formula_moiety         'C27 H42 O3,0.5(C1 H4 O1)'
_chemical_name_systematic        
'spirost-5-en-3-ol N,N-dimethylacetamide solvate'
_symmetry_cell_setting           monoclinic
_symmetry_space_group_name_H-M   'P 21'
_symmetry_Int_Tables_number      4
_space_group_name_Hall           'P 2yb'
loop_
_symmetry_equiv_pos_site_id
_symmetry_equiv_pos_as_xyz
1 x,y,z
2 -x,1/2+y,-z
_cell_length_a                   11.029(6)
_cell_length_b                   7.156(3)
_cell_length_c                   30.640(15)
_cell_angle_alpha                90
_cell_angle_beta                 91.410(10)
_cell_angle_gamma                90
_cell_volume                     2417.48
_exptl_crystal_colour            colorless
_exptl_crystal_description       plate
_cell_formula_units_Z            4
loop_
_atom_site_label
_atom_site_type_symbol
_atom_site_fract_x
_atom_site_fract_y
_atom_site_fract_z
O1 O 1.02177(18) 0.1125(3) 0.68707(6)
H1 H 1.0497 0.0124 0.6956
O2 O 0.48803(16) 0.1852(3) 0.36625(6)
O3 O 0.53403(17) 0.1238(3) 0.29390(6)
C1 C 0.9543(2) -0.0913(4) 0.57564(8)
H2 H 0.9444 -0.2194 0.5658
H3 H 1.0219 -0.0379 0.5602
C2 C 0.9855(2) -0.0920(4) 0.62455(8)
H4 H 0.9208 -0.1519 0.6402
H5 H 1.0595 -0.1626 0.6299
C3 C 1.0023(2) 0.1062(4) 0.64085(8)
H6 H 1.0728 0.1611 0.6268
C4 C 0.8914(3) 0.2248(4) 0.63003(8)
H7 H 0.8255 0.1853 0.6483
H8 H 0.9097 0.3541 0.6371
C5 C 0.8495(2) 0.2136(4) 0.58258(8)
C6 C 0.8194(2) 0.3660(4) 0.56036(8)
H9 H 0.8306 0.4806 0.5742
C7 C 0.7684(2) 0.3671(4) 0.51432(8)
H10 H 0.8289 0.4174 0.4951
H11 H 0.6984 0.4491 0.5129
C8 C 0.7309(2) 0.1740(4) 0.49815(8)
H12 H 0.6538 0.1404 0.5113
C9 C 0.8274(2) 0.0312(4) 0.51269(8)
H13 H 0.9052 0.0795 0.5028
C10 C 0.8385(2) 0.0188(4) 0.56323(8)
C11 C 0.8107(2) -0.1612(4) 0.49124(9)
H14 H 0.8821 -0.2364 0.4976
H15 H 0.7420 -0.2231 0.5041
C12 C 0.7900(2) -0.1532(4) 0.44174(8)
H16 H 0.8630 -0.1084 0.4282
H17 H 0.7731 -0.2779 0.4307
C13 C 0.6845(2) -0.0243(4) 0.42963(8)
C14 C 0.7140(2) 0.1698(4) 0.44854(8)
H18 H 0.7925 0.2054 0.4367
C15 C 0.6201(2) 0.2975(4) 0.42662(9)
H19 H 0.6472 0.4265 0.4268
H20 H 0.5427 0.2894 0.4409
C16 C 0.6114(2) 0.2203(4) 0.37997(9)
H21 H 0.6513 0.3040 0.3595
C17 C 0.6716(2) 0.0251(4) 0.38040(8)
H22 H 0.7524 0.0340 0.3679
C18 C 0.7271(2) -0.0774(4) 0.58274(8)
H23 H 0.7188 -0.2009 0.5708
H24 H 0.7376 -0.0850 0.6139
H25 H 0.6556 -0.0060 0.5757
C19 C 0.5649(2) -0.1025(4) 0.44713(8)
H26 H 0.4994 -0.0198 0.4392
H27 H 0.5497 -0.2237 0.4347
H28 H 0.5712 -0.1128 0.4783
C20 C 0.5887(2) -0.0944(4) 0.35020(8)
H29 H 0.5481 -0.1867 0.3684
C21 C 0.6548(3) -0.2004(5) 0.31462(9)
H30 H 0.7129 -0.2841 0.3279
H31 H 0.5971 -0.2706 0.2973
H32 H 0.6958 -0.1130 0.2963
C22 C 0.4921(2) 0.0458(4) 0.33366(8)
C23 C 0.3655(2) -0.0311(5) 0.32647(9)
H33 H 0.3360 -0.0799 0.3538
H34 H 0.3676 -0.1332 0.3057
C24 C 0.2793(2) 0.1194(5) 0.30938(9)
H35 H 0.2658 0.2100 0.3323
H36 H 0.2018 0.0629 0.3016
C25 C 0.3289(2) 0.2195(5) 0.26954(8)
H37 H 0.3261 0.1335 0.2446
C26 C 0.4602(3) 0.2757(5) 0.27888(9)
H38 H 0.4941 0.3262 0.2525
H39 H 0.4621 0.3737 0.3008
C27 C 0.2552(3) 0.3928(5) 0.25793(10)
H40 H 0.1723 0.3579 0.2520
H41 H 0.2588 0.4790 0.2819
H42 H 0.2878 0.4508 0.2325
O4 O -0.04460(17) 0.9354(3) 0.26482(6)
H43 H -0.0399 0.8443 0.2810
O5 O 0.34447(15) 1.0920(3) -0.07401(5)
O6 O 0.49738(14) 0.9187(3) -0.10669(5)
C28 C 0.0561(2) 0.7014(4) 0.16108(8)
H44 H 0.0260 0.5912 0.1459
H45 H 0.1402 0.6786 0.1694
C29 C -0.0165(2) 0.7275(4) 0.20264(8)
H46 H -0.1021 0.7375 0.1950
H47 H -0.0052 0.6195 0.2214
C30 C 0.0249(2) 0.9020(4) 0.22669(8)
H48 H 0.1105 0.8884 0.2354
C31 C 0.0106(2) 1.0709(4) 0.19707(8)
H49 H -0.0748 1.0901 0.1901
H50 H 0.0405 1.1811 0.2123
C32 C 0.0788(2) 1.0466(4) 0.15537(8)
C33 C 0.1585(2) 1.1744(4) 0.14282(8)
H51 H 0.1710 1.2775 0.1608
C34 C 0.2298(2) 1.1646(4) 0.10168(8)
H52 H 0.3132 1.1321 0.1091
H53 H 0.2298 1.2866 0.0879
C35 C 0.1780(2) 1.0214(4) 0.06955(7)
H54 H 0.1035 1.0713 0.0559
C36 C 0.1481(2) 0.8400(4) 0.09395(8)
H55 H 0.2226 0.8030 0.1097
C37 C 0.0503(2) 0.8692(4) 0.12921(8)
C38 C 0.1159(2) 0.6782(4) 0.06286(8)
H56 H 0.0379 0.7035 0.0488
H57 H 0.1081 0.5645 0.0798
C39 C 0.2102(2) 0.6463(4) 0.02752(8)
H58 H 0.2864 0.6071 0.0411
H59 H 0.1825 0.5477 0.0080
C40 C 0.2294(2) 0.8254(4) 0.00165(7)
C41 C 0.2688(2) 0.9793(4) 0.03405(7)
H60 H 0.3420 0.9323 0.0492
C42 C 0.3109(2) 1.1387(4) 0.00464(8)
H61 H 0.3639 1.2246 0.0205
H62 H 0.2425 1.2073 -0.0078
C43 C 0.3793(2) 1.0324(4) -0.03064(7)
H63 H 0.4672 1.0445 -0.0259
C44 C 0.3405(2) 0.8246(4) -0.02857(8)
H64 H 0.4060 0.7517 -0.0147
C45 C -0.0778(2) 0.8848(4) 0.10866(8)
H65 H -0.0961 0.7737 0.0922
H66 H -0.1358 0.8991 0.1313
H67 H -0.0817 0.9913 0.0896
C46 C 0.1128(2) 0.8791(4) -0.02391(8)
H68 H 0.1264 0.9920 -0.0400
H69 H 0.0910 0.7804 -0.0438
H70 H 0.0484 0.8985 -0.0039
C47 C 0.3258(2) 0.7651(4) -0.07665(8)
H71 H 0.2390 0.7493 -0.0832
C48 C 0.3892(2) 0.5839(4) -0.08803(9)
H72 H 0.3756 0.5569 -0.1185
H73 H 0.4747 0.5962 -0.0820
H74 H 0.3574 0.4840 -0.0708
C49 C 0.3695(2) 0.9384(4) -0.10163(7)
C50 C 0.3073(2) 0.9720(4) -0.14552(8)
H75 H 0.2216 0.9939 -0.1413
H76 H 0.3153 0.8614 -0.1635
C51 C 0.3614(2) 1.1387(4) -0.16889(8)
H77 H 0.3418 1.2525 -0.1534
H78 H 0.3261 1.1474 -0.1981
C52 C 0.4986(2) 1.1200(4) -0.17152(8)
H79 H 0.5164 1.0136 -0.1905
C53 C 0.5518(2) 1.0790(4) -0.12613(8)
H80 H 0.6384 1.0583 -0.1281
H81 H 0.5398 1.1867 -0.1075
C54 C 0.5568(2) 1.2939(5) -0.19080(9)
H82 H 0.6429 1.2765 -0.1919
H83 H 0.5245 1.3144 -0.2198
H84 H 0.5395 1.4002 -0.1729
O7 O 0.8731(2) 0.2847(4) 0.28679(6)
H85 H 0.8954 0.1760 0.2844
C55 C 0.7804(3) 0.3209(5) 0.25636(10)
H86 H 0.7320 0.4232 0.2664
H87 H 0.7305 0.2118 0.2529
H88 H 0.8148 0.3528 0.2289
loop_
_geom_bond_atom_site_label_1
_geom_bond_atom_site_label_2
_geom_bond_site_symmetry_1
_geom_bond_site_symmetry_2
O1 H1 1_555 1_555
O2 C16 1_555 1_555
O3 C22 1_555 1_555
C1 H2 1_555 1_555
H3 C1 1_555 1_555
C2 C1 1_555 1_555
H4 C2 1_555 1_555
H5 C2 1_555 1_555
C3 O1 1_555 1_555
H6 C3 1_555 1_555
C4 C3 1_555 1_555
H7 C4 1_555 1_555
H8 C4 1_555 1_555
C5 C4 1_555 1_555
C6 C5 1_555 1_555
H9 C6 1_555 1_555
C7 C6 1_555 1_555
H10 C7 1_555 1_555
H11 C7 1_555 1_555
C8 C7 1_555 1_555
H12 C8 1_555 1_555
C9 C8 1_555 1_555
H13 C9 1_555 1_555
C10 C1 1_555 1_555
C11 C9 1_555 1_555
H14 C11 1_555 1_555
H15 C11 1_555 1_555
C12 C11 1_555 1_555
H16 C12 1_555 1_555
H17 C12 1_555 1_555
C13 C12 1_555 1_555
C14 C8 1_555 1_555
H18 C14 1_555 1_555
C15 C14 1_555 1_555
H19 C15 1_555 1_555
H20 C15 1_555 1_555
C16 C15 1_555 1_555
H21 C16 1_555 1_555
C17 C13 1_555 1_555
H22 C17 1_555 1_555
C18 C10 1_555 1_555
H23 C18 1_555 1_555
H24 C18 1_555 1_555
H25 C18 1_555 1_555
C19 C13 1_555 1_555
H26 C19 1_555 1_555
H27 C19 1_555 1_555
H28 C19 1_555 1_555
C20 C17 1_555 1_555
H29 C20 1_555 1_555
C21 C20 1_555 1_555
H30 C21 1_555 1_555
H31 C21 1_555 1_555
H32 C21 1_555 1_555
C22 O2 1_555 1_555
C23 C22 1_555 1_555
H33 C23 1_555 1_555
H34 C23 1_555 1_555
C24 C23 1_555 1_555
H35 C24 1_555 1_555
H36 C24 1_555 1_555
C25 C24 1_555 1_555
H37 C25 1_555 1_555
C26 O3 1_555 1_555
H38 C26 1_555 1_555
H39 C26 1_555 1_555
C27 C25 1_555 1_555
H40 C27 1_555 1_555
H41 C27 1_555 1_555
H42 C27 1_555 1_555
O4 H43 1_555 1_555
O5 C43 1_555 1_555
O6 C49 1_555 1_555
C28 H44 1_555 1_555
H45 C28 1_555 1_555
C29 C28 1_555 1_555
H46 C29 1_555 1_555
H47 C29 1_555 1_555
C30 O4 1_555 1_555
H48 C30 1_555 1_555
C31 C30 1_555 1_555
H49 C31 1_555 1_555
H50 C31 1_555 1_555
C32 C31 1_555 1_555
C33 C32 1_555 1_555
H51 C33 1_555 1_555
C34 C33 1_555 1_555
H52 C34 1_555 1_555
H53 C34 1_555 1_555
C35 C34 1_555 1_555
H54 C35 1_555 1_555
C36 C35 1_555 1_555
H55 C36 1_555 1_555
C37 C28 1_555 1_555
C38 C36 1_555 1_555
H56 C38 1_555 1_555
H57 C38 1_555 1_555
C39 C38 1_555 1_555
H58 C39 1_555 1_555
H59 C39 1_555 1_555
C40 C39 1_555 1_555
C41 C35 1_555 1_555
H60 C41 1_555 1_555
C42 C41 1_555 1_555
H61 C42 1_555 1_555
H62 C42 1_555 1_555
C43 C42 1_555 1_555
H63 C43 1_555 1_555
C44 C40 1_555 1_555
H64 C44 1_555 1_555
C45 C37 1_555 1_555
H65 C45 1_555 1_555
H66 C45 1_555 1_555
H67 C45 1_555 1_555
C46 C40 1_555 1_555
H68 C46 1_555 1_555
H69 C46 1_555 1_555
H70 C46 1_555 1_555
C47 C44 1_555 1_555
H71 C47 1_555 1_555
C48 C47 1_555 1_555
H72 C48 1_555 1_555
H73 C48 1_555 1_555
H74 C48 1_555 1_555
C49 O5 1_555 1_555
C50 C49 1_555 1_555
H75 C50 1_555 1_555
H76 C50 1_555 1_555
C51 C50 1_555 1_555
H77 C51 1_555 1_555
H78 C51 1_555 1_555
C52 C51 1_555 1_555
H79 C52 1_555 1_555
C53 O6 1_555 1_555
H80 C53 1_555 1_555
H81 C53 1_555 1_555
C54 C52 1_555 1_555
H82 C54 1_555 1_555
H83 C54 1_555 1_555
H84 C54 1_555 1_555
O7 H85 1_555 1_555
C55 O7 1_555 1_555
H86 C55 1_555 1_555
H87 C55 1_555 1_555
H88 C55 1_555 1_555
C2 C3 1_555 1_555
C5 C10 1_555 1_555
C9 C10 1_555 1_555
C13 C14 1_555 1_555
C16 C17 1_555 1_555
C20 C22 1_555 1_555
C25 C26 1_555 1_555
C29 C30 1_555 1_555
C32 C37 1_555 1_555
C36 C37 1_555 1_555
C40 C41 1_555 1_555
C43 C44 1_555 1_555
C47 C49 1_555 1_555
C52 C53 1_555 1_555

#END
