
#######################################################################
#
#                 Cambridge Crystallographic Data Centre
#                                CCDC 
#
#######################################################################
#
# If this CIF has been generated from an entry in the Cambridge 
# Structural Database, then it will include bibliographic, chemical, 
# crystal, experimental, refinement or atomic coordinate data resulting 
# from the CCDC's data processing and validation procedures.
#
#######################################################################

data_RIRSUH
_chemical_name_common            
'(1,4,12,15,18,26,31,39,42,43,44-undecaazapentacyclo[13.13.13.1$6,10!.1$20,24!.1$33,37!]tetratetraconta-4,6,8,10(44),11,18,20,22,24(43),25,31,33,35,37(42),38-pentadecaene-cryptate)-calcium(ii) diperchlorate'
_chemical_formula_moiety         'C33 H39 Ca1 N11 2+,2(Cl1 O4 1-)'
_chemical_name_systematic        
'(1,4,8,11,14,18,23,27-Octa-aza-6,16,25(2,6)-tripyridinabicyclo(9.9.9)nonacosaphane-4,7,14,17,23,26-hexaene)-calcium(ii) diperchlorate'
_symmetry_cell_setting           rhombohedral
_symmetry_space_group_name_H-M   'R -3 c'
_symmetry_Int_Tables_number      167
_space_group_name_Hall           '-R 3 2"c'
loop_
_symmetry_equiv_pos_site_id
_symmetry_equiv_pos_as_xyz
1 x,y,z
2 -y,x-y,z
3 -x+y,-x,z
4 y,x,1/2-z
5 2/3+x,1/3+y,1/3+z
6 2/3-y,1/3+x-y,1/3+z
7 2/3-x+y,1/3-x,1/3+z
8 2/3+y,1/3+x,5/6-z
9 1/3+x,2/3+y,2/3+z
10 1/3+y,2/3+x,1/6-z
11 x-y,-y,1/2-z
12 -x,-x+y,1/2-z
13 1/3-y,2/3+x-y,2/3+z
14 1/3-x+y,2/3-x,2/3+z
15 1/3+x-y,2/3-y,1/6-z
16 1/3-x,2/3-x+y,1/6-z
17 2/3+x-y,1/3-y,5/6-z
18 2/3-x,1/3-x+y,5/6-z
19 -x,-y,-z
20 y,-x+y,-z
21 x-y,x,-z
22 -y,-x,1/2+z
23 1/3-x,2/3-y,2/3-z
24 1/3+y,2/3-x+y,2/3-z
25 1/3+x-y,2/3+x,2/3-z
26 1/3-y,2/3-x,1/6+z
27 2/3-x,1/3-y,1/3-z
28 2/3-y,1/3-x,5/6+z
29 -x+y,y,1/2+z
30 x,x-y,1/2+z
31 2/3+y,1/3-x+y,1/3-z
32 2/3+x-y,1/3+x,1/3-z
33 2/3-x+y,1/3+y,5/6+z
34 2/3+x,1/3+x-y,5/6+z
35 1/3-x+y,2/3+y,1/6+z
36 1/3+x,2/3+x-y,1/6+z
_cell_length_a                   15.246(1)
_cell_length_b                   15.246(1)
_cell_length_c                   31.824(2)
_cell_angle_alpha                90
_cell_angle_beta                 90
_cell_angle_gamma                120.00
_cell_volume                     6406.15
_exptl_crystal_colour            colorless
_exptl_crystal_description       block
_cell_formula_units_Z            6
loop_
_atom_site_label
_atom_site_type_symbol
_atom_site_fract_x
_atom_site_fract_y
_atom_site_fract_z
Ca1 Ca 0.6667 0.3333 0.0833
C1 C 0.6565(3) 0.2353(2) -0.04674(10)
H1 H 0.7215 0.2446 -0.0556
H2 H 0.6088 0.2019 -0.0694
C2 C 0.6212(3) 0.1670(3) -0.00859(10)
H3 H 0.5529 0.1504 -0.0011
H4 H 0.6207 0.1044 -0.0147
C3 C 0.7688(3) 0.2098(3) 0.02908(11)
H5 H 0.7738 0.1627 0.0121
C4 C 0.8505(3) 0.2725(3) 0.05854(11)
C5 C 0.9402(3) 0.2692(3) 0.05770(12)
H6 H 0.9469 0.2243 0.0400
C6 C 1.0183(4) 0.3333 0.0833
H7 H 1.0793 0.3333 0.0833
N1 N 0.6667 0.3333 -0.03999(14)
N2 N 0.6912(2) 0.2202(2) 0.02687(8)
N3 N 0.8360(2) 0.3333 0.0833
C1B C 0.5788(4) 0.3435(3) -0.04674(10)
C1A C 0.7647(2) 0.4212(4) -0.04674(10)
C1N C 0.7545(4) 0.4314(2) 0.21341(10)
C1I C 0.5686(2) 0.3232(3) 0.21341(10)
C1O C 0.6768(3) 0.2455(4) 0.21341(10)
H1B H 0.5231 0.2785 -0.0556
H1A H 0.7554 0.4769 -0.0556
H1N H 0.8102 0.4221 0.2223
H1I H 0.5779 0.3882 0.2223
H1O H 0.6118 0.1898 0.2223
H2B H 0.5931 0.3912 -0.0694
H2A H 0.7981 0.4069 -0.0694
H2N H 0.7402 0.4648 0.2361
H2I H 0.5352 0.2755 0.2361
H2O H 0.7245 0.2598 0.2361
C2B C 0.5458(4) 0.3788(3) -0.00859(10)
C2A C 0.8330(3) 0.4542(4) -0.00859(10)
C2N C 0.7875(4) 0.4997(3) 0.17526(10)
C2I C 0.5003(3) 0.2879(3) 0.17526(10)
C2O C 0.7121(3) 0.2125(4) 0.17526(10)
H3B H 0.5975 0.4471 -0.0011
H3A H 0.8496 0.4025 -0.0011
H3I H 0.4837 0.2196 0.1678
H3O H 0.7804 0.2642 0.1678
H3N H 0.7358 0.5163 0.1678
H4B H 0.4837 0.3793 -0.0147
H4A H 0.8956 0.5163 -0.0147
H4I H 0.4377 0.2874 0.1814
H4O H 0.7126 0.1504 0.1814
H4N H 0.8496 0.5623 0.1814
C3A C 0.7902(3) 0.5590(4) 0.02908(11)
C3I C 0.5431(3) 0.4355(3) 0.13759(11)
C3N C 0.8923(4) 0.4569(3) 0.13759(11)
C3B C 0.4410(4) 0.2312(3) 0.02908(11)
C3O C 0.5645(3) 0.1077(4) 0.13759(11)
H5A H 0.8373 0.6111 0.0121
H5I H 0.4960 0.4405 0.1546
H5N H 0.9444 0.5040 0.1546
H5B H 0.3889 0.2262 0.0121
H5O H 0.5595 0.0556 0.1546
C4A C 0.7275(3) 0.5780(4) 0.05854(11)
C4I C 0.6058(3) 0.5172(3) 0.10813(11)
C4N C 0.9113(4) 0.3942(3) 0.10813(11)
C4B C 0.4220(4) 0.1495(3) 0.05854(11)
C4O C 0.4828(3) 0.0887(4) 0.10813(11)
C5A C 0.7308(3) 0.6710(4) 0.05770(12)
C5I C 0.6025(3) 0.6069(3) 0.10897(12)
C5N C 1.0043(4) 0.3975(3) 0.10897(12)
C5B C 0.3290(4) 0.0598(3) 0.05770(12)
C5O C 0.3931(3) -0.0043(4) 0.10897(12)
H6A H 0.7757 0.7226 0.0400
H6N H 1.0559 0.4424 0.1267
H6B H 0.2774 0.0531 0.0400
H6O H 0.3864 -0.0559 0.1267
H6I H 0.5576 0.6136 0.1267
C6A C 0.6667 0.6850(4) 0.0833
C6B C 0.3150(4) -0.0183(4) 0.0833
H7B H 0.2540 -0.0793 0.0833
H7A H 0.6667 0.7460 0.0833
N1N N 0.6667 0.3334 0.20666(14)
N2B N 0.5290(3) 0.3088(2) 0.02687(8)
N2A N 0.7798(2) 0.4710(3) 0.02687(8)
N2I N 0.5535(2) 0.3579(2) 0.13980(8)
N2N N 0.8043(3) 0.4465(2) 0.13980(8)
N2O N 0.6421(2) 0.1957(3) 0.13980(8)
N3A N 0.6667 0.5027(2) 0.0833
N3B N 0.4973(2) 0.1640(2) 0.0833
Cl1 Cl 0.6667 0.95136(14) 0.0833
O1 O 0.6012(3) 0.9687(3) 0.06121(16)
O2 O 0.7225(4) 0.9281(4) 0.05468(15)
O1O O 0.7321(3) 1.0342(4) 0.10546(16)
O2O O 0.6108(4) 0.8723(6) 0.11199(15)
loop_
_geom_bond_atom_site_label_1
_geom_bond_atom_site_label_2
_geom_bond_site_symmetry_1
_geom_bond_site_symmetry_2
Ca1 N2 1_555 1_555
C1 H1 1_555 1_555
H2 C1 1_555 1_555
C2 C1 1_555 1_555
H3 C2 1_555 1_555
H4 C2 1_555 1_555
C3 H5 1_555 1_555
C4 C3 1_555 1_555
C5 C4 1_555 1_555
H6 C5 1_555 1_555
C6 C5 1_555 1_555
H7 C6 1_555 1_555
N1 C1 1_555 1_555
N2 C2 1_555 1_555
N3 Ca1 1_555 1_555
Cl1 O1 1_555 1_555
O2 Cl1 1_555 1_555
C1B N1 1_555 1_555
C1A N1 1_555 1_555
C1N H1N 1_555 1_555
C1I H1I 1_555 1_555
C1O H1O 1_555 1_555
H1B C1B 1_555 1_555
H1A C1A 1_555 1_555
H2B C1B 1_555 1_555
H2A C1A 1_555 1_555
H2N C1N 1_555 1_555
H2I C1I 1_555 1_555
H2O C1O 1_555 1_555
C2B C1B 1_555 1_555
C2A C1A 1_555 1_555
C2N C1N 1_555 1_555
C2I C1I 1_555 1_555
C2O C1O 1_555 1_555
H3B C2B 1_555 1_555
H3A C2A 1_555 1_555
H3I C2I 1_555 1_555
H3O C2O 1_555 1_555
H3N C2N 1_555 1_555
H4B C2B 1_555 1_555
H4A C2A 1_555 1_555
H4I C2I 1_555 1_555
H4O C2O 1_555 1_555
H4N C2N 1_555 1_555
C3A H5A 1_555 1_555
C3I H5I 1_555 1_555
C3N H5N 1_555 1_555
C3B H5B 1_555 1_555
C3O H5O 1_555 1_555
C4A C3A 1_555 1_555
C4I C3I 1_555 1_555
C4N N3 1_555 1_555
C4B C3B 1_555 1_555
C4O C3O 1_555 1_555
C5A C4A 1_555 1_555
C5I C4I 1_555 1_555
C5N C6 1_555 1_555
C5B C4B 1_555 1_555
C5O C4O 1_555 1_555
H6A C5A 1_555 1_555
H6N C5N 1_555 1_555
H6B C5B 1_555 1_555
H6O C5O 1_555 1_555
H6I C5I 1_555 1_555
C6A C5A 1_555 1_555
C6B C5B 1_555 1_555
H7B C6B 1_555 1_555
H7A C6A 1_555 1_555
N1N C1N 1_555 1_555
N2B Ca1 1_555 1_555
N2A Ca1 1_555 1_555
N2I Ca1 1_555 1_555
N2N Ca1 1_555 1_555
N2O Ca1 1_555 1_555
N3A Ca1 1_555 1_555
N3B Ca1 1_555 1_555
O1O Cl1 1_555 1_555
O2O Cl1 1_555 1_555
C3 N2 1_555 1_555
C4 N3 1_555 1_555
C1I N1N 1_555 1_555
C1O N1N 1_555 1_555
C2B N2B 1_555 1_555
C2A N2A 1_555 1_555
C2N N2N 1_555 1_555
C2I N2I 1_555 1_555
C2O N2O 1_555 1_555
C3A N2A 1_555 1_555
C3I N2I 1_555 1_555
C3N C4N 1_555 1_555
C3N N2N 1_555 1_555
C3B N2B 1_555 1_555
C3O N2O 1_555 1_555
C4A N3A 1_555 1_555
C4I N3A 1_555 1_555
C4N C5N 1_555 1_555
C4B N3B 1_555 1_555
C4O N3B 1_555 1_555
C5I C6A 1_555 1_555
C5O C6B 1_555 1_555

#END
