
#######################################################################
#
#                 Cambridge Crystallographic Data Centre
#                                CCDC 
#
#######################################################################
#
# If this CIF has been generated from an entry in the Cambridge 
# Structural Database, then it will include bibliographic, chemical, 
# crystal, experimental, refinement or atomic coordinate data resulting 
# from the CCDC's data processing and validation procedures.
#
#######################################################################

data_RIRTUJ
_chemical_formula_moiety         'C18 H21 N1 O3 S2'
_chemical_name_systematic        
2-Methyl-N-(2-phenyl-2-(phenylsulfonyl)vinyl)propane-2-sulfinamide
_symmetry_cell_setting           orthorhombic
_symmetry_space_group_name_H-M   'P 21 21 21'
_symmetry_Int_Tables_number      19
_space_group_name_Hall           'P 2ac 2ab'
loop_
_symmetry_equiv_pos_site_id
_symmetry_equiv_pos_as_xyz
1 x,y,z
2 1/2+x,1/2-y,-z
3 -x,1/2+y,1/2-z
4 1/2-x,-y,1/2+z
_cell_length_a                   9.8142(9)
_cell_length_b                   10.5612(10)
_cell_length_c                   17.6233(17)
_cell_angle_alpha                90
_cell_angle_beta                 90
_cell_angle_gamma                90
_cell_volume                     1826.65
_exptl_crystal_colour            colorless
_exptl_crystal_description       block
_cell_formula_units_Z            4
loop_
_atom_site_label
_atom_site_type_symbol
_atom_site_fract_x
_atom_site_fract_y
_atom_site_fract_z
N1 N 0.16717(14) 0.30216(13) 0.94918(8)
O1 O 0.37323(13) 0.23765(12) 1.02781(7)
O2 O 0.47408(14) 0.49283(13) 0.83785(9)
O3 O 0.32018(14) 0.66645(12) 0.79616(9)
S1 S 0.23229(4) 0.19365(3) 1.01062(2)
S2 S 0.34711(4) 0.53222(4) 0.80352(3)
C1 C 0.25108(16) 0.37155(14) 0.90377(9)
H1 H 0.3461 0.3560 0.9083
C2 C 0.21255(15) 0.46032(14) 0.85293(9)
C3 C 0.07029(16) 0.49415(13) 0.83211(9)
C4 C -0.02246(17) 0.39922(15) 0.81270(9)
H2 H 0.0070 0.3136 0.8108
C5 C -0.15738(18) 0.42860(17) 0.79616(10)
H3 H -0.2198 0.3632 0.7835
C6 C -0.20063(17) 0.55367(19) 0.79810(10)
H4 H -0.2930 0.5738 0.7875
C7 C -0.10894(19) 0.64916(17) 0.81552(11)
H5 H -0.1382 0.7349 0.8155
C8 C 0.02539(18) 0.62033(15) 0.83302(10)
H6 H 0.0872 0.6863 0.8457
C9 C 0.25221(18) 0.05532(15) 0.94761(9)
C10 C 0.3507(2) 0.08464(18) 0.88324(10)
H7 H 0.3701 0.0069 0.8549
H8 H 0.4357 0.1185 0.9042
H9 H 0.3098 0.1474 0.8492
C11 C 0.3096(2) -0.04807(18) 0.99947(11)
H10 H 0.3196 -0.1269 0.9707
H11 H 0.2472 -0.0618 1.0421
H12 H 0.3988 -0.0217 1.0188
C12 C 0.1104(2) 0.0210(2) 0.91920(14)
H13 H 0.0772 0.0878 0.8853
H14 H 0.0484 0.0126 0.9625
H15 H 0.1144 -0.0594 0.8915
C13 C 0.33881(16) 0.46585(15) 0.71151(10)
C14 C 0.25886(19) 0.52401(17) 0.65614(11)
H16 H 0.2078 0.5979 0.6678
C15 C 0.2550(2) 0.47259(19) 0.58418(11)
H17 H 0.2005 0.5111 0.5461
C16 C 0.3302(2) 0.3650(2) 0.56702(12)
H18 H 0.3276 0.3308 0.5172
C17 C 0.4095(2) 0.30699(18) 0.62267(12)
H19 H 0.4605 0.2331 0.6108
C18 C 0.41393(18) 0.35704(16) 0.69523(11)
H20 H 0.4675 0.3178 0.7335
H21 H 0.090(3) 0.311(2) 0.9517(12)
loop_
_geom_bond_atom_site_label_1
_geom_bond_atom_site_label_2
_geom_bond_site_symmetry_1
_geom_bond_site_symmetry_2
N1 S1 1_555 1_555
O1 S1 1_555 1_555
O2 S2 1_555 1_555
O3 S2 1_555 1_555
S1 C9 1_555 1_555
S2 C2 1_555 1_555
C1 N1 1_555 1_555
H1 C1 1_555 1_555
C2 C1 1_555 1_555
C3 C2 1_555 1_555
C4 C3 1_555 1_555
H2 C4 1_555 1_555
C5 C4 1_555 1_555
H3 C5 1_555 1_555
C6 C5 1_555 1_555
H4 C6 1_555 1_555
C7 C6 1_555 1_555
H5 C7 1_555 1_555
C8 C3 1_555 1_555
H6 C8 1_555 1_555
C9 C10 1_555 1_555
C10 H7 1_555 1_555
H8 C10 1_555 1_555
H9 C10 1_555 1_555
C11 C9 1_555 1_555
H10 C11 1_555 1_555
H11 C11 1_555 1_555
H12 C11 1_555 1_555
C12 C9 1_555 1_555
H13 C12 1_555 1_555
H14 C12 1_555 1_555
H15 C12 1_555 1_555
C13 S2 1_555 1_555
C14 C13 1_555 1_555
H16 C14 1_555 1_555
C15 C14 1_555 1_555
H17 C15 1_555 1_555
C16 C15 1_555 1_555
H18 C16 1_555 1_555
C17 C16 1_555 1_555
H19 C17 1_555 1_555
C18 C13 1_555 1_555
H20 C18 1_555 1_555
H21 N1 1_555 1_555
C7 C8 1_555 1_555
C17 C18 1_555 1_555

#END
