
#######################################################################
#
#                 Cambridge Crystallographic Data Centre
#                                CCDC 
#
#######################################################################
#
# If this CIF has been generated from an entry in the Cambridge 
# Structural Database, then it will include bibliographic, chemical, 
# crystal, experimental, refinement or atomic coordinate data resulting 
# from the CCDC's data processing and validation procedures.
#
#######################################################################

data_RIRVUL
_chemical_formula_moiety         'C49 H46 O18,C1 H2 Cl2,0.25(C6 H14 O1)'
_chemical_name_systematic        
"Tetramethyl 2,2',2'',2'''-((19,28-dimethoxy-9,25,27,32-tetraoxohexacyclo[21.2.2.2^3,6^.2^8,11^.2^13,16^.2^18,21^]pentatriaconta-1(26),3,5,8(33),10,13,15,18,20,23,28,30,34-tridecaene-4,14,30,34-tetrayl)tetrakis(oxy))tetra-acetate dichloromethane di-isopropyl ether solvate"
_symmetry_cell_setting           triclinic
_symmetry_space_group_name_H-M   'P -1'
_symmetry_Int_Tables_number      2
_space_group_name_Hall           '-P 1'
loop_
_symmetry_equiv_pos_site_id
_symmetry_equiv_pos_as_xyz
1 x,y,z
2 -x,-y,-z
_cell_length_a                   12.2090(11)
_cell_length_b                   12.3468(11)
_cell_length_c                   19.3418(17)
_cell_angle_alpha                84.024(7)
_cell_angle_beta                 87.960(7)
_cell_angle_gamma                61.290(9)
_cell_volume                     2542.94
_exptl_crystal_colour            red
_exptl_crystal_description       platelet
_cell_formula_units_Z            2
loop_
_atom_site_label
_atom_site_type_symbol
_atom_site_fract_x
_atom_site_fract_y
_atom_site_fract_z
O1 O 0.8321(3) 0.0505(3) 0.0309(2)
O2 O 0.5108(3) 0.5084(3) 0.08628(18)
O3 O 1.1793(3) -0.1879(3) 0.20600(18)
O4 O 0.9422(3) 0.3248(3) 0.16485(18)
O5 O 0.9624(3) -0.3214(3) 0.3971(2)
O6 O 1.0785(6) -0.4045(6) 0.2266(4)
O7 O 0.8892(5) -0.2773(6) 0.2631(4)
O8 O 0.9882(3) 0.1129(2) 0.40344(15)
O9 O 0.9904(3) 0.3321(3) 0.3975(2)
O10 O 0.8143(4) 0.4110(3) 0.4594(2)
O11 O 0.4574(3) -0.0701(3) 0.3140(2)
O12 O 0.6158(3) 0.1047(3) 0.50281(17)
O13 O 0.3507(3) 0.1627(3) 0.07345(19)
O14 O 0.5537(4) -0.0626(5) 0.1127(3)
O15 O 0.4279(5) -0.1459(4) 0.1323(3)
O16 O 0.3452(3) 0.3863(3) 0.30821(15)
O17 O 0.3864(4) 0.4622(4) 0.4246(2)
O18 O 0.4168(3) 0.6088(3) 0.36376(18)
C2 C 0.4018(4) 0.3602(4) 0.0557(2)
H3 H 0.3774 0.3274 0.0180
H4 H 0.3556 0.4520 0.0484
C3 C 1.0646(4) -0.1952(4) 0.3613(2)
H5 H 1.1235 -0.2574 0.3345
C4 C 0.7586(4) 0.1581(4) 0.0418(2)
C5 C 0.6233(4) 0.2020(4) 0.0415(2)
H6 H 0.5946 0.1456 0.0326
C6 C 0.5395(4) 0.3167(4) 0.0530(2)
C7 C 0.5847(4) 0.4036(4) 0.0699(2)
C8 C 0.7196(4) 0.3614(4) 0.0672(2)
H7 H 0.7482 0.4182 0.0757
C9 C 0.8034(4) 0.2478(4) 0.0534(2)
C10 C 0.9418(4) 0.2024(5) 0.0525(2)
H8 H 0.9574 0.2740 0.0419
H9 H 0.9795 0.1465 0.0153
C11 C 1.1179(4) -0.0593(4) 0.1949(3)
C12 C 1.0640(4) 0.0051(4) 0.1308(2)
H10 H 1.0694 -0.0402 0.0929
C13 C 1.0027(4) 0.1340(4) 0.1214(2)
C14 C 1.0010(4) 0.1977(4) 0.1776(2)
C15 C 1.0543(4) 0.1327(4) 0.2416(2)
H11 H 1.0494 0.1781 0.2794
C16 C 1.1139(4) 0.0047(4) 0.2518(2)
C17 C 1.2115(7) -0.2526(5) 0.1443(3)
H12 H 1.2326 -0.2056 0.1072
H13 H 1.1403 -0.2609 0.1293
H14 H 1.2835 -0.3352 0.1545
C18 C 0.9426(8) 0.3937(5) 0.2180(4)
H15 H 0.9115 0.4805 0.1995
H16 H 1.0280 0.3598 0.2361
H17 H 0.8887 0.3889 0.2556
C19 C 1.1660(4) -0.0642(4) 0.3223(2)
H18 H 1.1921 -0.0151 0.3483
H19 H 1.2408 -0.1446 0.3161
C20 C 0.9725(4) -0.2149(4) 0.3979(2)
C21 C 1.0703(3) -0.0871(4) 0.3640(2)
C22 C 0.9815(4) 0.0048(4) 0.4041(2)
C23 C 0.8921(4) -0.0162(4) 0.4397(2)
H20 H 0.8333 0.0459 0.4667
C24 C 0.8854(3) -0.1248(4) 0.4374(2)
C25 C 1.0384(5) -0.4088(5) 0.3506(4)
H21 H 1.0311 -0.4852 0.3613
H22 H 1.1266 -0.4308 0.3587
C26 C 1.0055(6) -0.3634(6) 0.2744(5)
C27 C 0.8628(12) -0.2325(11) 0.1851(7)
H23 H 0.9283 -0.2935 0.1578
H24 H 0.8617 -0.1525 0.1758
H25 H 0.7815 -0.2231 0.1722
C28 C 0.8908(4) 0.2092(3) 0.4369(2)
H26 H 0.8916 0.1823 0.4870
H27 H 0.8092 0.2288 0.4167
C29 C 0.9075(4) 0.3214(4) 0.4281(3)
C30 C 0.8148(7) 0.5296(5) 0.4578(4)
H28 H 0.8005 0.5691 0.4099
H29 H 0.8959 0.5150 0.4748
H30 H 0.7485 0.5839 0.4874
C31 C 0.7853(4) -0.1436(4) 0.4771(2)
H31 H 0.7803 -0.1198 0.5249
H32 H 0.8067 -0.2322 0.4802
C32 C 0.4961(4) -0.0267(4) 0.3540(3)
C33 C 0.6174(4) -0.1045(4) 0.3911(2)
H33 H 0.6673 -0.1872 0.3798
C34 C 0.6603(4) -0.0642(4) 0.4394(2)
C35 C 0.5828(4) 0.0657(4) 0.4571(2)
C36 C 0.4648(4) 0.1457(4) 0.4181(2)
H34 H 0.4175 0.2298 0.4276
C37 C 0.4214(4) 0.1049(4) 0.3698(2)
C38 C 0.2999(4) 0.1866(4) 0.3292(2)
H35 H 0.2551 0.1388 0.3248
H36 H 0.2461 0.2586 0.3551
C39 C 0.3468(4) 0.2163(4) 0.1340(2)
C40 C 0.3243(4) 0.1743(4) 0.1994(3)
H37 H 0.3096 0.1050 0.2046
C41 C 0.3232(3) 0.2324(4) 0.2576(2)
C42 C 0.3449(4) 0.3342(4) 0.2482(2)
C43 C 0.3648(4) 0.3768(4) 0.1830(2)
H38 H 0.3767 0.4478 0.1775
C44 C 0.3678(4) 0.3174(4) 0.1246(2)
C45 C 0.3391(6) 0.0540(5) 0.0798(4)
H39 H 0.3211 0.0387 0.0334
H40 H 0.2675 0.0666 0.1099
C46 C 0.4525(6) -0.0561(6) 0.1094(4)
C47 C 0.5341(11) -0.2635(8) 0.1684(6)
H41 H 0.6101 -0.2885 0.1411
H42 H 0.5115 -0.3301 0.1726
H43 H 0.5489 -0.2476 0.2148
C48 C 0.3764(4) 0.4824(4) 0.3003(2)
H44 H 0.3089 0.5567 0.2743
H45 H 0.4543 0.4563 0.2737
C49 C 0.3939(4) 0.5132(4) 0.3703(3)
C50 C 0.4349(6) 0.6525(6) 0.4266(3)
H46 H 0.4634 0.7139 0.4147
H47 H 0.4977 0.5824 0.4564
H48 H 0.3557 0.6908 0.4513
Cl1 Cl 0.7105(2) 0.2534(3) 0.27676(16)
Cl2 Cl 0.65861(17) 0.0738(2) 0.22099(11)
C1 C 0.7714(6) 0.0974(8) 0.2554(4)
H1 H 0.8393 0.0792 0.2215
H2 H 0.8075 0.0395 0.2978
loop_
_geom_bond_atom_site_label_1
_geom_bond_atom_site_label_2
_geom_bond_site_symmetry_1
_geom_bond_site_symmetry_2
Cl1 C1 1_555 1_555
Cl2 C1 1_555 1_555
C1 H1 1_555 1_555
H2 C1 1_555 1_555
O1 C4 1_555 1_555
O2 C7 1_555 1_555
O3 C11 1_555 1_555
O4 C14 1_555 1_555
O5 C20 1_555 1_555
O6 C26 1_555 1_555
O7 C26 1_555 1_555
O8 C22 1_555 1_555
O9 C29 1_555 1_555
O10 C29 1_555 1_555
O11 C32 1_555 1_555
O12 C35 1_555 1_555
O13 C39 1_555 1_555
O14 C46 1_555 1_555
O15 C46 1_555 1_555
O16 C42 1_555 1_555
O17 C49 1_555 1_555
O18 C49 1_555 1_555
C2 H3 1_555 1_555
H4 C2 1_555 1_555
C3 H5 1_555 1_555
C4 C5 1_555 1_555
C5 H6 1_555 1_555
C6 C2 1_555 1_555
C7 C6 1_555 1_555
C8 C7 1_555 1_555
H7 C8 1_555 1_555
C9 C4 1_555 1_555
C10 C9 1_555 1_555
H8 C10 1_555 1_555
H9 C10 1_555 1_555
C11 C12 1_555 1_555
C12 H10 1_555 1_555
C13 C10 1_555 1_555
C14 C13 1_555 1_555
C15 C14 1_555 1_555
H11 C15 1_555 1_555
C16 C11 1_555 1_555
C17 O3 1_555 1_555
H12 C17 1_555 1_555
H13 C17 1_555 1_555
H14 C17 1_555 1_555
C18 O4 1_555 1_555
H15 C18 1_555 1_555
H16 C18 1_555 1_555
H17 C18 1_555 1_555
C19 C16 1_555 1_555
H18 C19 1_555 1_555
H19 C19 1_555 1_555
C20 C3 1_555 1_555
C21 C3 1_555 1_555
C22 C21 1_555 1_555
C23 C22 1_555 1_555
H20 C23 1_555 1_555
C24 C20 1_555 1_555
C25 O5 1_555 1_555
H21 C25 1_555 1_555
H22 C25 1_555 1_555
C26 C25 1_555 1_555
C27 O7 1_555 1_555
H23 C27 1_555 1_555
H24 C27 1_555 1_555
H25 C27 1_555 1_555
C28 O8 1_555 1_555
H26 C28 1_555 1_555
H27 C28 1_555 1_555
C29 C28 1_555 1_555
C30 O10 1_555 1_555
H28 C30 1_555 1_555
H29 C30 1_555 1_555
H30 C30 1_555 1_555
C31 C24 1_555 1_555
H31 C31 1_555 1_555
H32 C31 1_555 1_555
C32 C33 1_555 1_555
C33 H33 1_555 1_555
C34 C31 1_555 1_555
C35 C34 1_555 1_555
C36 C35 1_555 1_555
H34 C36 1_555 1_555
C37 C32 1_555 1_555
C38 C37 1_555 1_555
H35 C38 1_555 1_555
H36 C38 1_555 1_555
C39 C40 1_555 1_555
C40 H37 1_555 1_555
C41 C38 1_555 1_555
C42 C41 1_555 1_555
C43 C42 1_555 1_555
H38 C43 1_555 1_555
C44 C2 1_555 1_555
C45 O13 1_555 1_555
H39 C45 1_555 1_555
H40 C45 1_555 1_555
C46 C45 1_555 1_555
C47 O15 1_555 1_555
H41 C47 1_555 1_555
H42 C47 1_555 1_555
H43 C47 1_555 1_555
C48 O16 1_555 1_555
H44 C48 1_555 1_555
H45 C48 1_555 1_555
C49 C48 1_555 1_555
C50 O18 1_555 1_555
H46 C50 1_555 1_555
H47 C50 1_555 1_555
H48 C50 1_555 1_555
C5 C6 1_555 1_555
C8 C9 1_555 1_555
C12 C13 1_555 1_555
C15 C16 1_555 1_555
C19 C21 1_555 1_555
C23 C24 1_555 1_555
C33 C34 1_555 1_555
C36 C37 1_555 1_555
C39 C44 1_555 1_555
C40 C41 1_555 1_555
C43 C44 1_555 1_555

#END
