
#######################################################################
#
#                 Cambridge Crystallographic Data Centre
#                                CCDC 
#
#######################################################################
#
# If this CIF has been generated from an entry in the Cambridge 
# Structural Database, then it will include bibliographic, chemical, 
# crystal, experimental, refinement or atomic coordinate data resulting 
# from the CCDC's data processing and validation procedures.
#
#######################################################################

data_RIRVIZ
_chemical_name_common            
"tetramethyl 2,2',2'',2'''-((9,19,24,26,28,32-hexamethoxypillar[5]arene-4,14,30,34-tetrayl)tetrakis(oxy))tetraacetate dichloromethane solvate"
_chemical_formula_moiety         'C53 H58 O18,4(C1 H2 Cl2)'
_chemical_name_systematic        
"tetramethyl 2,2',2'',2'''-((9,19,24,26,28,32-hexamethoxyhexacyclo[21.2.2.2^3,6^.2^8,11^.2^13,16^.2^18,21^]pentatriaconta-1(25),3,5,8,10,13,15,18,20,23,26,28,30,32,34-pentadecaene-4,14,30,34-tetrayl)tetrakis(oxy))tetraacetate dichloromethane solvate"
_symmetry_cell_setting           monoclinic
_symmetry_space_group_name_H-M   'C 2/c'
_symmetry_Int_Tables_number      15
_space_group_name_Hall           '-C 2yn'
loop_
_symmetry_equiv_pos_site_id
_symmetry_equiv_pos_as_xyz
1 x,y,z
2 -x,y,1/2-z
3 1/2+x,1/2+y,z
4 1/2-x,1/2+y,1/2-z
5 -x,-y,-z
6 x,-y,1/2+z
7 1/2-x,1/2-y,-z
8 1/2+x,1/2-y,1/2+z
_cell_length_a                   19.5855(4)
_cell_length_b                   15.4343(3)
_cell_length_c                   21.1972(4)
_cell_angle_alpha                90
_cell_angle_beta                 102.2746(19)
_cell_angle_gamma                90
_cell_volume                     6261.19
_exptl_crystal_colour            colorless
_exptl_crystal_description       block
_cell_formula_units_Z            4
loop_
_atom_site_label
_atom_site_type_symbol
_atom_site_fract_x
_atom_site_fract_y
_atom_site_fract_z
O1 O 0.68843(8) 0.10267(10) 0.20478(7)
O2 O 0.54960(8) -0.04425(10) 0.38006(7)
O3 O 0.69239(8) 0.42277(9) 0.20442(6)
O4 O 0.66098(8) 0.50066(10) 0.08902(7)
O5 O 0.73722(8) 0.41628(10) 0.05267(6)
O6 O 0.68700(8) 0.23981(9) 0.42757(6)
O7 O 0.66608(9) 0.13674(10) 0.52302(7)
O8 O 0.62057(8) 0.24699(10) 0.56937(7)
O9 O 0.55541(7) 0.52388(11) 0.38126(6)
C1 C 0.5000 -0.08567(17) 0.2500
H1 H 0.4925 -0.1233 0.2857
C2 C 0.56403(9) -0.02963(12) 0.27316(9)
C3 C 0.59873(10) 0.00595(13) 0.22846(9)
H2 H 0.5845 -0.0095 0.1842
C4 C 0.65358(10) 0.06336(12) 0.24719(9)
C5 C 0.67592(9) 0.08692(12) 0.31205(9)
C6 C 0.64171(10) 0.05081(13) 0.35694(9)
H3 H 0.6562 0.0658 0.4012
C7 C 0.58650(10) -0.00708(13) 0.33777(9)
C8 C 0.67226(14) 0.0750(2) 0.13980(11)
H4 H 0.6990 0.1094 0.1146
H5 H 0.6222 0.0829 0.1222
H6 H 0.6844 0.0137 0.1375
C9 C 0.57256(18) -0.0254(2) 0.44647(12)
H7 H 0.5660 0.0365 0.4538
H8 H 0.6222 -0.0401 0.4602
H9 H 0.5454 -0.0595 0.4715
C10 C 0.73586(9) 0.15016(12) 0.33265(9)
H10 H 0.7578 0.1397 0.3786
H11 H 0.7716 0.1391 0.3069
C11 C 0.71327(9) 0.24408(12) 0.32442(8)
C12 C 0.71612(9) 0.28944(12) 0.26804(9)
H12 H 0.7325 0.2609 0.2344
C13 C 0.69528(10) 0.37567(13) 0.26030(9)
C14 C 0.67302(9) 0.42001(12) 0.30950(8)
C15 C 0.67046(10) 0.37492(13) 0.36598(8)
H13 H 0.6557 0.4040 0.4003
C16 C 0.68924(9) 0.28813(12) 0.37273(8)
C17 C 0.72224(12) 0.38680(14) 0.15579(9)
H14 H 0.7049 0.3270 0.1461
H15 H 0.7737 0.3847 0.1702
C18 C 0.70222(10) 0.44257(13) 0.09658(9)
C19 C 0.72277(14) 0.46459(18) -0.00710(10)
H16 H 0.7450 0.4358 -0.0388
H17 H 0.7414 0.5235 0.0007
H18 H 0.6722 0.4673 -0.0238
C20 C 0.65708(11) 0.27984(13) 0.47488(9)
H19 H 0.6109 0.3044 0.4549
H20 H 0.6875 0.3274 0.4960
C21 C 0.64931(10) 0.21161(14) 0.52386(9)
C22 C 0.60916(14) 0.19070(19) 0.61989(11)
H21 H 0.5751 0.1460 0.6017
H22 H 0.5913 0.2244 0.6520
H23 H 0.6533 0.1631 0.6405
C23 C 0.65041(10) 0.51355(12) 0.30155(9)
H24 H 0.6759 0.5428 0.2720
H25 H 0.6625 0.5431 0.3439
C24 C 0.57275(10) 0.52107(11) 0.27487(8)
C25 C 0.52562(10) 0.52288(13) 0.31605(8)
C26 C 0.45427(10) 0.52256(12) 0.29154(9)
H26 H 0.4232 0.5234 0.3204
C27 C 0.50995(14) 0.5302(3) 0.42467(10)
H27 H 0.4776 0.4810 0.4182
H28 H 0.4834 0.5844 0.4168
H29 H 0.5373 0.5297 0.4691
H1A H 0.5075 -0.1233 0.2143
O1A O 0.31157(8) 0.10267(10) 0.29522(7)
O2A O 0.45040(8) -0.04425(10) 0.11994(7)
O3A O 0.30761(8) 0.42277(9) 0.29558(6)
O4A O 0.33902(8) 0.50066(10) 0.41098(7)
O5A O 0.26278(8) 0.41628(10) 0.44733(6)
O6A O 0.31300(8) 0.23981(9) 0.07243(6)
O7A O 0.33392(9) 0.13674(10) -0.02302(7)
O8A O 0.37943(8) 0.24699(10) -0.06937(7)
O9A O 0.44459(7) 0.52388(11) 0.11874(6)
C2A C 0.43597(9) -0.02963(12) 0.22684(9)
C3A C 0.40127(10) 0.00595(13) 0.27154(9)
H2A H 0.4155 -0.0095 0.3158
C4A C 0.34642(10) 0.06336(12) 0.25281(9)
C5A C 0.32408(9) 0.08692(12) 0.18795(9)
C6A C 0.35829(10) 0.05081(13) 0.14306(9)
H3A H 0.3438 0.0658 0.0988
C7A C 0.41350(10) -0.00708(13) 0.16223(9)
C8A C 0.32774(14) 0.0750(2) 0.36020(11)
H4A H 0.3010 0.1094 0.3854
H5A H 0.3778 0.0829 0.3778
H6A H 0.3156 0.0137 0.3625
C9A C 0.42744(18) -0.0254(2) 0.05353(12)
H7A H 0.4340 0.0365 0.0462
H8A H 0.3778 -0.0401 0.0398
H9A H 0.4546 -0.0595 0.0285
C10A C 0.26414(9) 0.15016(12) 0.16735(9)
H10A H 0.2422 0.1397 0.1214
H11A H 0.2284 0.1391 0.1931
C11A C 0.28673(9) 0.24408(12) 0.17558(8)
C12A C 0.28388(9) 0.28944(12) 0.23196(9)
H12A H 0.2675 0.2609 0.2656
C13A C 0.30472(10) 0.37567(13) 0.23970(9)
C14A C 0.32698(9) 0.42001(12) 0.19050(8)
C15A C 0.32954(10) 0.37492(13) 0.13402(8)
H13A H 0.3443 0.4040 0.0997
C16A C 0.31076(9) 0.28813(12) 0.12727(8)
C17A C 0.27776(12) 0.38680(14) 0.34421(9)
H14A H 0.2951 0.3270 0.3539
H15A H 0.2263 0.3847 0.3298
C18A C 0.29778(10) 0.44257(13) 0.40342(9)
C19A C 0.27723(14) 0.46459(18) 0.50710(10)
H16A H 0.2550 0.4358 0.5388
H17A H 0.2586 0.5235 0.4993
H18A H 0.3278 0.4673 0.5238
C20A C 0.34292(11) 0.27984(13) 0.02512(9)
H19A H 0.3891 0.3044 0.0451
H20A H 0.3125 0.3274 0.0040
C21A C 0.35069(10) 0.21161(14) -0.02386(9)
C22A C 0.39084(14) 0.19070(19) -0.11989(11)
H21A H 0.4249 0.1460 -0.1017
H22A H 0.4087 0.2244 -0.1520
H23A H 0.3467 0.1631 -0.1405
C23A C 0.34959(10) 0.51355(12) 0.19845(9)
H24A H 0.3241 0.5428 0.2280
H25A H 0.3375 0.5431 0.1561
C24A C 0.42725(10) 0.52107(11) 0.22513(8)
C25A C 0.47438(10) 0.52288(13) 0.18395(8)
C26A C 0.54573(10) 0.52256(12) 0.20846(9)
H26A H 0.5768 0.5234 0.1796
C27A C 0.49005(14) 0.5302(3) 0.07533(10)
H27A H 0.5224 0.4810 0.0818
H28A H 0.5166 0.5844 0.0832
H29A H 0.4627 0.5297 0.0309
H30? H 0.4925 -0.1233 0.2857
loop_
_geom_bond_atom_site_label_1
_geom_bond_atom_site_label_2
_geom_bond_site_symmetry_1
_geom_bond_site_symmetry_2
O1 C4 1_555 1_555
O2 C7 1_555 1_555
O3 C13 1_555 1_555
O4 C18 1_555 1_555
O5 C18 1_555 1_555
O6 C16 1_555 1_555
O7 C21 1_555 1_555
O8 C21 1_555 1_555
O9 C25 1_555 1_555
C1 H1 1_555 1_555
C2 C1 1_555 1_555
C3 C2 1_555 1_555
H2 C3 1_555 1_555
C4 C3 1_555 1_555
C5 C4 1_555 1_555
C6 C5 1_555 1_555
H3 C6 1_555 1_555
C7 C2 1_555 1_555
C8 O1 1_555 1_555
H4 C8 1_555 1_555
H5 C8 1_555 1_555
H6 C8 1_555 1_555
C9 O2 1_555 1_555
H7 C9 1_555 1_555
H8 C9 1_555 1_555
H9 C9 1_555 1_555
C10 C5 1_555 1_555
H10 C10 1_555 1_555
H11 C10 1_555 1_555
C11 C10 1_555 1_555
C12 C11 1_555 1_555
H12 C12 1_555 1_555
C13 C12 1_555 1_555
C14 C13 1_555 1_555
C15 C14 1_555 1_555
H13 C15 1_555 1_555
C16 C11 1_555 1_555
C17 O3 1_555 1_555
H14 C17 1_555 1_555
H15 C17 1_555 1_555
C18 C17 1_555 1_555
C19 O5 1_555 1_555
H16 C19 1_555 1_555
H17 C19 1_555 1_555
H18 C19 1_555 1_555
C20 O6 1_555 1_555
H19 C20 1_555 1_555
H20 C20 1_555 1_555
C21 C20 1_555 1_555
C22 O8 1_555 1_555
H21 C22 1_555 1_555
H22 C22 1_555 1_555
H23 C22 1_555 1_555
C23 C14 1_555 1_555
H24 C23 1_555 1_555
H25 C23 1_555 1_555
C24 C23 1_555 1_555
C25 C24 1_555 1_555
C26 C25 1_555 1_555
H26 C26 1_555 1_555
C27 O9 1_555 1_555
H27 C27 1_555 1_555
H28 C27 1_555 1_555
H29 C27 1_555 1_555
H1A C1 1_555 1_555
O1A C4A 1_555 1_555
O2A C7A 1_555 1_555
O3A C13A 1_555 1_555
O4A C18A 1_555 1_555
O5A C18A 1_555 1_555
O6A C16A 1_555 1_555
O7A C21A 1_555 1_555
O8A C21A 1_555 1_555
O9A C25A 1_555 1_555
C2A C1 1_555 1_555
C3A C2A 1_555 1_555
H2A C3A 1_555 1_555
C4A C3A 1_555 1_555
C5A C4A 1_555 1_555
C6A C5A 1_555 1_555
H3A C6A 1_555 1_555
C7A C2A 1_555 1_555
C8A O1A 1_555 1_555
H4A C8A 1_555 1_555
H5A C8A 1_555 1_555
H6A C8A 1_555 1_555
C9A O2A 1_555 1_555
H7A C9A 1_555 1_555
H8A C9A 1_555 1_555
H9A C9A 1_555 1_555
C10A C5A 1_555 1_555
H10A C10A 1_555 1_555
H11A C10A 1_555 1_555
C11A C10A 1_555 1_555
C12A C11A 1_555 1_555
H12A C12A 1_555 1_555
C13A C12A 1_555 1_555
C14A C13A 1_555 1_555
C15A C14A 1_555 1_555
H13A C15A 1_555 1_555
C16A C11A 1_555 1_555
C17A O3A 1_555 1_555
H14A C17A 1_555 1_555
H15A C17A 1_555 1_555
C18A C17A 1_555 1_555
C19A O5A 1_555 1_555
H16A C19A 1_555 1_555
H17A C19A 1_555 1_555
H18A C19A 1_555 1_555
C20A O6A 1_555 1_555
H19A C20A 1_555 1_555
H20A C20A 1_555 1_555
C21A C20A 1_555 1_555
C22A O8A 1_555 1_555
H21A C22A 1_555 1_555
H22A C22A 1_555 1_555
H23A C22A 1_555 1_555
C23A C14A 1_555 1_555
H24A C23A 1_555 1_555
H25A C23A 1_555 1_555
C24A C26 1_555 1_555
C25A C24A 1_555 1_555
C26A C24 1_555 1_555
H26A C26A 1_555 1_555
C27A O9A 1_555 1_555
H27A C27A 1_555 1_555
H28A C27A 1_555 1_555
H29A C27A 1_555 1_555
C6 C7 1_555 1_555
C15 C16 1_555 1_555
C6A C7A 1_555 1_555
C15A C16A 1_555 1_555
C23A C24A 1_555 1_555
C25A C26A 1_555 1_555

#END
