
#######################################################################
#
#                 Cambridge Crystallographic Data Centre
#                                CCDC 
#
#######################################################################
#
# If this CIF has been generated from an entry in the Cambridge 
# Structural Database, then it will include bibliographic, chemical, 
# crystal, experimental, refinement or atomic coordinate data resulting 
# from the CCDC's data processing and validation procedures.
#
#######################################################################

data_RIRXEW
_chemical_formula_moiety         'C21 H23 Br1 N4 O8'
_chemical_name_systematic        
'(11bR*,11cS*)-rel-diethyl 6-bromo-9-methoxy-4,11-dioxo-5,10-dihydro-1H,3H,4H,11H-2-oxa-3a,4a,10a,11a-tetra-azabenz(f)indeno(2,1,7-ija)azulene-11b,11c-dicarboxylate'
_symmetry_cell_setting           monoclinic
_symmetry_space_group_name_H-M   'P 21/n'
_symmetry_Int_Tables_number      14
_space_group_name_Hall           '-P 2yn'
loop_
_symmetry_equiv_pos_site_id
_symmetry_equiv_pos_as_xyz
1 x,y,z
2 1/2-x,1/2+y,1/2-z
3 -x,-y,-z
4 1/2+x,1/2-y,1/2+z
_cell_length_a                   9.2246(6)
_cell_length_b                   11.6031(8)
_cell_length_c                   21.4749(15)
_cell_angle_alpha                90
_cell_angle_beta                 95.3870(10)
_cell_angle_gamma                90
_cell_volume                     2288.39
_exptl_crystal_colour            colorless
_exptl_crystal_description       block
_cell_formula_units_Z            4
_exptl_crystal_recrystallization_method dichloromethane
loop_
_atom_site_label
_atom_site_type_symbol
_atom_site_fract_x
_atom_site_fract_y
_atom_site_fract_z
Br1 Br 0.57294(17) 0.87084(9) 1.04001(5)
C1 C 0.6041(4) 0.6566(4) 0.97427(18)
C2 C 0.6485(6) 0.7233(5) 1.0268(2)
C3 C 0.7521(6) 0.6827(5) 1.0725(2)
H1 H 0.7813 0.7290 1.1067
C4 C 0.8109(5) 0.5772(5) 1.0680(2)
H2 H 0.8812 0.5514 1.0987
C5 C 0.7665(5) 0.5063(4) 1.01703(19)
C6 C 0.6624(4) 0.5463(4) 0.97033(17)
C7 C 0.9300(8) 0.3499(7) 1.0566(4)
H3 H 1.0120 0.4011 1.0612
H4 H 0.9607 0.2757 1.0431
H5 H 0.8899 0.3421 1.0961
O1 O 0.8177(16) 0.3973(15) 1.0096(8)
C9 C 0.4914(4) 0.7006(4) 0.92392(18)
H9 H 0.4064 0.6511 0.9224
H10 H 0.4614 0.7773 0.9352
C10 C 0.6138(4) 0.4681(3) 0.91544(17)
H11 H 0.6630 0.3945 0.9214
H12 H 0.5101 0.4541 0.9152
C11 C 0.6426(5) 0.7862(4) 0.8483(2)
C12 C 0.7733(5) 0.5001(4) 0.83120(18)
C13 C 0.5534(4) 0.6036(3) 0.82418(17)
C14 C 0.4013(4) 0.5554(4) 0.80176(18)
C15 C 0.2821(6) 0.3967(5) 0.7486(3)
H13 H 0.2993 0.3142 0.7497
H14 H 0.2063 0.4135 0.7756
C16 C 0.2343(8) 0.4321(7) 0.6847(3)
H15 H 0.2148 0.5134 0.6839
H16 H 0.1473 0.3910 0.6703
H17 H 0.3094 0.4152 0.6580
C17 C 0.6491(4) 0.6436(3) 0.77189(18)
C18 C 0.5664(5) 0.6525(4) 0.7062(2)
O3 O 0.4468(4) 0.6891(3) 0.69821(14)
O4 O 0.6602(12) 0.6425(10) 0.6639(4)
C19 C 0.604(2) 0.6630(10) 0.5969(6)
H18 H 0.5293 0.7221 0.5941
H19 H 0.6823 0.6875 0.5728
C20 C 0.543(3) 0.5523(17) 0.5732(10)
H20 H 0.6145 0.4927 0.5813
H21 H 0.5170 0.5581 0.5290
H22 H 0.4582 0.5341 0.5939
C23 C 0.8337(5) 0.7980(5) 0.7755(3)
H28 H 0.8293 0.8122 0.7309
H29 H 0.8584 0.8699 0.7969
C24 C 0.9111(5) 0.6116(5) 0.7606(2)
H30 H 0.9882 0.5562 0.7713
H31 H 0.9062 0.6254 0.7159
N1 N 0.5433(3) 0.7050(3) 0.86198(14)
N2 N 0.6426(3) 0.5141(3) 0.85540(14)
N3 N 0.6924(4) 0.7591(3) 0.79149(16)
N4 N 0.7724(3) 0.5639(3) 0.77641(15)
O6 O 0.2900(3) 0.5991(3) 0.81306(14)
O7 O 0.4160(3) 0.4573(3) 0.77150(14)
O8 O 0.6769(4) 0.8709(3) 0.87933(17)
O9 O 0.8721(3) 0.4370(3) 0.85125(14)
O10 O 0.9437(3) 0.7148(4) 0.79252(18)
Br2? Br 0.8610(16) 0.3756(17) 1.0205(8)
O2? O 0.575(5) 0.801(4) 1.0325(19)
C8? C 0.564(5) 0.904(4) 1.071(2)
H6? H 0.6253 0.8952 1.1099
H7? H 0.4650 0.9144 1.0806
H8? H 0.5949 0.9704 1.0494
O5? O 0.6316(18) 0.5954(13) 0.6630(5)
C21? C 0.560(2) 0.615(2) 0.5979(9)
H23? H 0.4857 0.5576 0.5871
H24? H 0.5145 0.6910 0.5947
C22? C 0.6783(18) 0.6071(13) 0.5562(5)
H25? H 0.7457 0.6694 0.5650
H26? H 0.6381 0.6116 0.5134
H27? H 0.7282 0.5350 0.5632
loop_
_geom_bond_atom_site_label_1
_geom_bond_atom_site_label_2
_geom_bond_site_symmetry_1
_geom_bond_site_symmetry_2
Br1 C2 1_555 1_555
C1 C2 1_555 1_555
C2 C3 1_555 1_555
C3 H1 1_555 1_555
C4 C3 1_555 1_555
H2 C4 1_555 1_555
C5 C4 1_555 1_555
C6 C1 1_555 1_555
C7 H3 1_555 1_555
H4 C7 1_555 1_555
H5 C7 1_555 1_555
O1 C5 1_555 1_555
C9 C1 1_555 1_555
H9 C9 1_555 1_555
H10 C9 1_555 1_555
C10 C6 1_555 1_555
H11 C10 1_555 1_555
H12 C10 1_555 1_555
C11 N1 1_555 1_555
C12 N2 1_555 1_555
C13 C14 1_555 1_555
C14 O6 1_555 1_555
C15 H13 1_555 1_555
H14 C15 1_555 1_555
C16 C15 1_555 1_555
H15 C16 1_555 1_555
H16 C16 1_555 1_555
H17 C16 1_555 1_555
C17 C13 1_555 1_555
C18 C17 1_555 1_555
O3 C18 1_555 1_555
O4 C18 1_555 1_555
C19 O4 1_555 1_555
H18 C19 1_555 1_555
H19 C19 1_555 1_555
C20 C19 1_555 1_555
H20 C20 1_555 1_555
H21 C20 1_555 1_555
H22 C20 1_555 1_555
C23 H28 1_555 1_555
H29 C23 1_555 1_555
C24 H30 1_555 1_555
H31 C24 1_555 1_555
N1 C9 1_555 1_555
N2 C10 1_555 1_555
N3 C11 1_555 1_555
N4 C12 1_555 1_555
O7 C14 1_555 1_555
O8 C11 1_555 1_555
O9 C12 1_555 1_555
O10 C23 1_555 1_555
C5 C6 1_555 1_555
C7 O1 1_555 1_555
C13 N1 1_555 1_555
C13 N2 1_555 1_555
C15 O7 1_555 1_555
C17 N3 1_555 1_555
C17 N4 1_555 1_555
C23 N3 1_555 1_555
C24 N4 1_555 1_555
C24 O10 1_555 1_555

#END
