
#######################################################################
#
#                 Cambridge Crystallographic Data Centre
#                                CCDC 
#
#######################################################################
#
# If this CIF has been generated from an entry in the Cambridge 
# Structural Database, then it will include bibliographic, chemical, 
# crystal, experimental, refinement or atomic coordinate data resulting 
# from the CCDC's data processing and validation procedures.
#
#######################################################################

data_RIRXAT
_chemical_formula_moiety         'C51 H54 O18,0.5(C2 H3 N1),2(C1 H2 Cl2)'
_chemical_name_systematic        
'19,28-Dihydroxy-9,24,26,32-tetrakis((2-methoxy-2-oxoethyl)oxy)-4,14,30,34-tetramethoxypillar[5]arene acetonitrile dichloromethane solvate'
_symmetry_cell_setting           triclinic
_symmetry_space_group_name_H-M   'P -1'
_symmetry_Int_Tables_number      2
_space_group_name_Hall           '-P 1'
loop_
_symmetry_equiv_pos_site_id
_symmetry_equiv_pos_as_xyz
1 x,y,z
2 -x,-y,-z
_cell_length_a                   12.101(2)
_cell_length_b                   15.262(3)
_cell_length_c                   15.448(3)
_cell_angle_alpha                91.89(3)
_cell_angle_beta                 95.89(3)
_cell_angle_gamma                101.88(3)
_cell_volume                     2772.88
_exptl_crystal_colour            colorless
_exptl_crystal_description       block
_chemical_melting_point          '197.7-198.5 deg.C'
_cell_formula_units_Z            2
_exptl_crystal_recrystallization_method 'dichloromethane/di-isopropyl ether'
loop_
_atom_site_label
_atom_site_type_symbol
_atom_site_fract_x
_atom_site_fract_y
_atom_site_fract_z
Cl3 Cl 0.9234(2) 0.19715(13) 0.19838(14)
Cl4 Cl 0.9361(2) 0.12734(16) 0.37090(14)
C2 C 0.9370(8) 0.1059(5) 0.2594(5)
H3 H 1.0076 0.0884 0.2497
H4 H 0.8752 0.0559 0.2393
O1 O 0.2429(5) -0.0647(3) 0.1011(5)
O2 O 0.3523(5) 0.0995(4) 0.1515(4)
O3 O 0.2177(5) 0.1251(4) 0.2395(5)
O4 O 0.0914(4) -0.4321(2) 0.0817(2)
O5 O 0.0360(4) -0.6058(3) 0.1120(2)
O6 O 0.1612(4) -0.6381(2) 0.0246(3)
O7 O 0.6499(3) -0.0838(2) 0.5136(2)
O8 O 0.5874(5) 0.0262(3) 0.6270(3)
O9 O 0.6922(3) 0.1452(2) 0.5736(2)
O10 O 0.7343(3) -0.3358(2) 0.2768(2)
O11 O 0.7150(4) -0.4710(2) 0.1518(2)
O12 O 0.7522(4) -0.5632(2) 0.2581(2)
O13 O 0.6758(3) -0.0069(2) 0.2043(2)
O14 O 0.4641(4) -0.3084(2) -0.0046(2)
O15 O 0.3161(3) -0.5073(2) 0.4879(2)
H5 H 0.2529 -0.5149 0.4604
O16 O 0.4633(3) -0.1565(2) 0.6179(2)
H6 H 0.5157 -0.1298 0.5928
O17 O 0.1073(3) -0.5370(2) 0.3955(2)
O18 O 0.0014(3) -0.2097(3) 0.3213(2)
C3 C 0.2020(5) -0.1576(4) 0.0961(5)
C4 C 0.1130(5) -0.1996(4) 0.1386(5)
H7 H 0.0784 -0.1648 0.1733
C5 C 0.0742(4) -0.2887(4) 0.1321(4)
C6 C 0.1310(4) -0.3410(3) 0.0834(3)
C7 C 0.2180(5) -0.3004(3) 0.0362(3)
H8 H 0.2518 -0.3358 0.0014
C8 C 0.2552(5) -0.2075(4) 0.0406(3)
C9 C 0.3537(5) -0.1645(4) -0.0063(3)
H9 H 0.3466 -0.1041 -0.0196
H10 H 0.3518 -0.1983 -0.0609
C10 C 0.4668(4) -0.1610(3) 0.0481(3)
C11 C 0.5172(5) -0.2360(3) 0.0505(3)
C12 C 0.6172(4) -0.2336(3) 0.1067(3)
H11 H 0.6506 -0.2833 0.1084
C13 C 0.6660(4) -0.1573(3) 0.1595(3)
C14 C 0.6173(4) -0.0829(3) 0.1545(3)
C15 C 0.5186(4) -0.0843(3) 0.0995(3)
H12 H 0.4871 -0.0337 0.0970
C16 C 0.7675(4) -0.1585(3) 0.2254(3)
H13 H 0.8175 -0.0996 0.2311
H14 H 0.8097 -0.2011 0.2047
C17 C 0.7306(4) -0.1843(3) 0.3142(3)
C18 C 0.7194(4) -0.2730(3) 0.3396(3)
C19 C 0.6936(4) -0.2944(3) 0.4222(3)
H15 H 0.6912 -0.3527 0.4390
C20 C 0.6709(4) -0.2307(3) 0.4814(3)
C21 C 0.6788(4) -0.1442(3) 0.4540(3)
C22 C 0.7106(4) -0.1211(3) 0.3735(3)
H16 H 0.7189 -0.0617 0.3587
C23 C 0.6358(4) -0.2583(3) 0.5694(3)
H17 H 0.6569 -0.2069 0.6108
H18 H 0.6758 -0.3038 0.5903
C24 C 0.5081(5) -0.2950(3) 0.5638(3)
C25 C 0.4645(5) -0.3830(3) 0.5322(3)
H19 H 0.5143 -0.4187 0.5179
C26 C 0.3491(5) -0.4187(3) 0.5216(3)
C27 C 0.2719(5) -0.3687(3) 0.5458(3)
C28 C 0.3161(5) -0.2810(3) 0.5771(3)
H20 H 0.2663 -0.2461 0.5935
C29 C 0.4319(5) -0.2428(3) 0.5852(3)
C30 C 0.1460(5) -0.4055(4) 0.5346(3)
H21 H 0.1108 -0.3759 0.5774
H22 H 0.1312 -0.4691 0.5445
C31 C 0.0933(4) -0.3913(4) 0.4426(4)
C32 C 0.0638(5) -0.3106(4) 0.4255(4)
H23 H 0.0695 -0.2683 0.4713
C33 C 0.0257(5) -0.2904(4) 0.3418(4)
C34 C 0.0146(4) -0.3554(4) 0.2731(3)
C35 C 0.0406(5) -0.4369(4) 0.2911(4)
H24 H 0.0323 -0.4805 0.2461
C36 C 0.0790(5) -0.4558(4) 0.3747(3)
C37 C -0.0226(5) -0.3349(4) 0.1806(4)
H25 H -0.0777 -0.2970 0.1822
H26 H -0.0601 -0.3906 0.1486
C38 C 0.2075(8) -0.0223(6) 0.1852(6)
H27 H 0.2265 -0.0552 0.2353
H28 H 0.1261 -0.0260 0.1787
C39 C 0.2716(10) 0.0787(6) 0.1998(7)
C40 C 0.3955(8) 0.1901(4) 0.1608(4)
H29 H 0.4594 0.2050 0.1281
H30 H 0.4192 0.2073 0.2213
H31 H 0.3380 0.2215 0.1396
C41 C 0.1539(5) -0.4878(4) 0.0401(4)
H32 H 0.2342 -0.4699 0.0605
H33 H 0.1441 -0.4832 -0.0226
C42 C 0.1074(5) -0.5828(4) 0.0636(3)
C43 C 0.1286(7) -0.7327(4) 0.0431(5)
H34 H 0.1755 -0.7662 0.0154
H35 H 0.0504 -0.7554 0.0212
H36 H 0.1384 -0.7387 0.1049
C44 C 0.6767(5) 0.0078(3) 0.4974(3)
H37 H 0.6336 0.0192 0.4440
H38 H 0.7570 0.0265 0.4913
C45 C 0.6465(5) 0.0585(3) 0.5740(3)
C46 C 0.6593(6) 0.2033(4) 0.6392(4)
H39 H 0.6958 0.2644 0.6328
H40 H 0.6821 0.1859 0.6964
H41 H 0.5783 0.1976 0.6316
C47 C 0.7305(5) -0.4237(3) 0.3050(3)
H42 H 0.6620 -0.4441 0.3326
H43 H 0.7956 -0.4242 0.3471
C48 C 0.7319(5) -0.4847(3) 0.2266(3)
C49 C 0.7471(6) -0.6342(4) 0.1931(3)
H44 H 0.7638 -0.6861 0.2209
H45 H 0.8019 -0.6148 0.1532
H46 H 0.6724 -0.6491 0.1618
C50 C 0.0050(6) -0.1451(5) 0.3907(4)
H47 H -0.0134 -0.0917 0.3675
H48 H 0.0799 -0.1310 0.4218
H49 H -0.0490 -0.1691 0.4297
C51 C 0.0864(7) -0.6080(4) 0.3285(4)
H50 H 0.1095 -0.6598 0.3519
H51 H 0.1291 -0.5888 0.2810
H52 H 0.0069 -0.6229 0.3081
C52 C 0.6114(5) 0.0569(3) 0.2277(4)
H53 H 0.6602 0.1057 0.2625
H54 H 0.5518 0.0287 0.2604
H55 H 0.5788 0.0792 0.1758
C53 C 0.5140(7) -0.3865(4) -0.0013(4)
H56 H 0.4696 -0.4328 -0.0416
H57 H 0.5153 -0.4076 0.0566
H58 H 0.5902 -0.3711 -0.0167
C1 C 0.3560(13) 0.5553(9) 0.2825(8)
H1 H 0.2758 0.5569 0.2776
H2 H 0.3854 0.5640 0.3437
Cl1 Cl 0.4284(3) 0.6414(2) 0.22435(19)
Cl2 Cl 0.3731(5) 0.4476(3) 0.2404(3)
C54? C 0.4358(17) 0.5613(15) 0.2812(12)
H59? H 0.5100 0.5979 0.2753
H60? H 0.4261 0.5616 0.3428
Cl5? Cl 0.3309(5) 0.6114(4) 0.2262(3)
Cl6? Cl 0.4336(8) 0.4543(6) 0.2453(6)
C55? C 0.0936(8) 0.0159(7) -0.0343(6)
H61? H 0.1651 -0.0061 -0.0240
H62? H 0.0438 -0.0247 -0.0820
H63? H 0.1041 0.0746 -0.0361
C56? C 0.0207(8) -0.0211(6) 0.0495(6)
N1? N -0.0349(13) -0.0179(10) 0.0829(10)
loop_
_geom_bond_atom_site_label_1
_geom_bond_atom_site_label_2
_geom_bond_site_symmetry_1
_geom_bond_site_symmetry_2
C1 H1 1_555 1_555
H2 C1 1_555 1_555
Cl1 C1 1_555 1_555
Cl2 C1 1_555 1_555
Cl3 C2 1_555 1_555
Cl4 C2 1_555 1_555
C2 H3 1_555 1_555
H4 C2 1_555 1_555
O1 C3 1_555 1_555
O2 C39 1_555 1_555
O3 C39 1_555 1_555
O4 C6 1_555 1_555
O5 C42 1_555 1_555
O6 C42 1_555 1_555
O7 C21 1_555 1_555
O8 C45 1_555 1_555
O9 C45 1_555 1_555
O10 C18 1_555 1_555
O11 C48 1_555 1_555
O12 C48 1_555 1_555
O13 C14 1_555 1_555
O14 C11 1_555 1_555
O15 H5 1_555 1_555
O16 H6 1_555 1_555
O17 C36 1_555 1_555
O18 C33 1_555 1_555
C3 C4 1_555 1_555
C4 H7 1_555 1_555
C5 C4 1_555 1_555
C6 C5 1_555 1_555
C7 C6 1_555 1_555
H8 C7 1_555 1_555
C8 C3 1_555 1_555
C9 C8 1_555 1_555
H9 C9 1_555 1_555
H10 C9 1_555 1_555
C10 C9 1_555 1_555
C11 C10 1_555 1_555
C12 C11 1_555 1_555
H11 C12 1_555 1_555
C13 C12 1_555 1_555
C14 C13 1_555 1_555
C15 C10 1_555 1_555
H12 C15 1_555 1_555
C16 C13 1_555 1_555
H13 C16 1_555 1_555
H14 C16 1_555 1_555
C17 C16 1_555 1_555
C18 C17 1_555 1_555
C19 C18 1_555 1_555
H15 C19 1_555 1_555
C20 C19 1_555 1_555
C21 C20 1_555 1_555
C22 C17 1_555 1_555
H16 C22 1_555 1_555
C23 C20 1_555 1_555
H17 C23 1_555 1_555
H18 C23 1_555 1_555
C24 C23 1_555 1_555
C25 C24 1_555 1_555
H19 C25 1_555 1_555
C26 O15 1_555 1_555
C27 C26 1_555 1_555
C28 C27 1_555 1_555
H20 C28 1_555 1_555
C29 O16 1_555 1_555
C30 C27 1_555 1_555
H21 C30 1_555 1_555
H22 C30 1_555 1_555
C31 C30 1_555 1_555
C32 C31 1_555 1_555
H23 C32 1_555 1_555
C33 C32 1_555 1_555
C34 C33 1_555 1_555
C35 C34 1_555 1_555
H24 C35 1_555 1_555
C36 C31 1_555 1_555
C37 C5 1_555 1_555
H25 C37 1_555 1_555
H26 C37 1_555 1_555
C38 O1 1_555 1_555
H27 C38 1_555 1_555
H28 C38 1_555 1_555
C39 C38 1_555 1_555
C40 O2 1_555 1_555
H29 C40 1_555 1_555
H30 C40 1_555 1_555
H31 C40 1_555 1_555
C41 O4 1_555 1_555
H32 C41 1_555 1_555
H33 C41 1_555 1_555
C42 C41 1_555 1_555
C43 O6 1_555 1_555
H34 C43 1_555 1_555
H35 C43 1_555 1_555
H36 C43 1_555 1_555
C44 O7 1_555 1_555
H37 C44 1_555 1_555
H38 C44 1_555 1_555
C45 C44 1_555 1_555
C46 O9 1_555 1_555
H39 C46 1_555 1_555
H40 C46 1_555 1_555
H41 C46 1_555 1_555
C47 O10 1_555 1_555
H42 C47 1_555 1_555
H43 C47 1_555 1_555
C48 C47 1_555 1_555
C49 O12 1_555 1_555
H44 C49 1_555 1_555
H45 C49 1_555 1_555
H46 C49 1_555 1_555
C50 O18 1_555 1_555
H47 C50 1_555 1_555
H48 C50 1_555 1_555
H49 C50 1_555 1_555
C51 O17 1_555 1_555
H50 C51 1_555 1_555
H51 C51 1_555 1_555
H52 C51 1_555 1_555
C52 O13 1_555 1_555
H53 C52 1_555 1_555
H54 C52 1_555 1_555
H55 C52 1_555 1_555
C53 O14 1_555 1_555
H56 C53 1_555 1_555
H57 C53 1_555 1_555
H58 C53 1_555 1_555
C7 C8 1_555 1_555
C14 C15 1_555 1_555
C21 C22 1_555 1_555
C24 C29 1_555 1_555
C25 C26 1_555 1_555
C28 C29 1_555 1_555
C34 C37 1_555 1_555
C35 C36 1_555 1_555

#END
