
#######################################################################
#
#                 Cambridge Crystallographic Data Centre
#                                CCDC 
#
#######################################################################
#
# If this CIF has been generated from an entry in the Cambridge 
# Structural Database, then it will include bibliographic, chemical, 
# crystal, experimental, refinement or atomic coordinate data resulting 
# from the CCDC's data processing and validation procedures.
#
#######################################################################

data_RIRXIA
_chemical_name_common            'N-Acryloylglycylglycine monohydrate'
_chemical_formula_moiety         'H2 O1,C7 H10 N2 O4'
_chemical_name_systematic        
'2-(2-Acrylamidoacetamido)acetic acid monohydrate'
_symmetry_cell_setting           monoclinic
_symmetry_space_group_name_H-M   'P 21/n'
_symmetry_Int_Tables_number      14
_space_group_name_Hall           '-P 2yn'
loop_
_symmetry_equiv_pos_site_id
_symmetry_equiv_pos_as_xyz
1 x,y,z
2 1/2-x,1/2+y,1/2-z
3 -x,-y,-z
4 1/2+x,1/2-y,1/2+z
_cell_length_a                   13.332(3)
_cell_length_b                   5.1490(10)
_cell_length_c                   14.458(3)
_cell_angle_alpha                90
_cell_angle_beta                 103.09(3)
_cell_angle_gamma                90
_cell_volume                     966.701
_exptl_crystal_colour            colorless
_exptl_crystal_description       block
_chemical_melting_point          '421-423 K'
_cell_formula_units_Z            4
_exptl_crystal_recrystallization_method ethanol
loop_
_atom_site_label
_atom_site_type_symbol
_atom_site_fract_x
_atom_site_fract_y
_atom_site_fract_z
O1 O 0.23119(13) 1.4675(4) 0.32683(15)
H1 H 0.1700 1.5204 0.3028
H2 H 0.2821 1.5271 0.3067
O2 O -0.09533(11) 0.1547(3) 0.75924(12)
O3 O 0.22255(11) 0.4246(3) 0.68108(11)
O4 O 0.26156(12) 1.1329(4) 0.45810(13)
H3 H 0.2427 1.2454 0.4178
O5 O 0.09464(11) 1.1214(3) 0.46083(12)
N1 N 0.06626(12) 0.2081(4) 0.73869(12)
H4 H 0.1293 0.1580 0.7550
N2 N 0.12573(12) 0.7266(3) 0.59002(12)
H5 H 0.0655 0.7923 0.5697
C1 C -0.0148(2) -0.2397(8) 0.8963(3)
H6 H -0.0855 -0.2131 0.8852
H7 H 0.0166 -0.3632 0.9403
C2 C 0.03980(18) -0.1049(5) 0.85048(17)
H8 H 0.1103 -0.1356 0.8630
C3 C -0.00320(16) 0.0949(4) 0.77944(15)
C4 C 0.03959(15) 0.4106(4) 0.66844(15)
H9 H 0.0015 0.5463 0.6919
H10 H -0.0036 0.3403 0.6107
C5 C 0.13773(14) 0.5225(4) 0.64742(14)
C6 C 0.21375(16) 0.8398(5) 0.56131(17)
H11 H 0.2508 0.7044 0.5363
H12 H 0.2601 0.9146 0.6164
C7 C 0.18165(15) 1.0451(4) 0.48762(15)
loop_
_geom_bond_atom_site_label_1
_geom_bond_atom_site_label_2
_geom_bond_site_symmetry_1
_geom_bond_site_symmetry_2
O1 H1 1_555 1_555
H2 O1 1_555 1_555
O2 C3 1_555 1_555
O3 C5 1_555 1_555
O4 H3 1_555 1_555
O5 C7 1_555 1_555
N1 H4 1_555 1_555
N2 H5 1_555 1_555
C1 H6 1_555 1_555
H7 C1 1_555 1_555
C2 C1 1_555 1_555
H8 C2 1_555 1_555
C3 N1 1_555 1_555
C4 N1 1_555 1_555
H9 C4 1_555 1_555
H10 C4 1_555 1_555
C5 N2 1_555 1_555
C6 N2 1_555 1_555
H11 C6 1_555 1_555
H12 C6 1_555 1_555
C7 O4 1_555 1_555
C2 C3 1_555 1_555
C4 C5 1_555 1_555
C6 C7 1_555 1_555

#END
