
#######################################################################
#
#                 Cambridge Crystallographic Data Centre
#                                CCDC 
#
#######################################################################
#
# If this CIF has been generated from an entry in the Cambridge 
# Structural Database, then it will include bibliographic, chemical, 
# crystal, experimental, refinement or atomic coordinate data resulting 
# from the CCDC's data processing and validation procedures.
#
#######################################################################

data_RISBOL
_chemical_formula_moiety         'C24 H38 N4 O4'
_chemical_name_systematic        1,4-bis(Dimorpholinomethyl)benzene
_symmetry_cell_setting           monoclinic
_symmetry_space_group_name_H-M   'P 21/n'
_symmetry_Int_Tables_number      14
_space_group_name_Hall           '-P 2yn'
loop_
_symmetry_equiv_pos_site_id
_symmetry_equiv_pos_as_xyz
1 x,y,z
2 1/2-x,1/2+y,1/2-z
3 -x,-y,-z
4 1/2+x,1/2-y,1/2+z
_cell_length_a                   11.5497(6)
_cell_length_b                   8.6735(4)
_cell_length_c                   12.1645(6)
_cell_angle_alpha                90
_cell_angle_beta                 90.2410(12)
_cell_angle_gamma                90
_cell_volume                     1218.58
_exptl_crystal_colour            colorless
_exptl_crystal_description       block
_cell_formula_units_Z            2
loop_
_atom_site_label
_atom_site_type_symbol
_atom_site_fract_x
_atom_site_fract_y
_atom_site_fract_z
N1 N 0.55070(11) 0.42236(14) 0.20137(9)
N2 N 0.45661(10) 0.20450(13) 0.27757(9)
O1 O 0.74303(13) 0.56750(17) 0.10348(11)
O2 O 0.35081(12) -0.08940(14) 0.24153(11)
C1 C 0.6295(2) 0.6191(2) 0.08464(15)
H1 H 0.5993 0.5696 0.0190
H2 H 0.6309 0.7294 0.0714
C2 C 0.54923(17) 0.58595(18) 0.17956(13)
H3 H 0.5745 0.6421 0.2443
H4 H 0.4712 0.6188 0.1613
C3 C 0.66818(15) 0.3723(2) 0.22554(14)
H5 H 0.6692 0.2625 0.2405
H6 H 0.6975 0.4259 0.2899
C4 C 0.74258(17) 0.4077(2) 0.12769(16)
H7 H 0.8212 0.3737 0.1423
H8 H 0.7139 0.3512 0.0644
C5 C 0.36981(15) 0.1420(2) 0.35187(13)
H9 H 0.2937 0.1787 0.3304
H10 H 0.3853 0.1771 0.4262
C6 C 0.37208(18) -0.0308(2) 0.34842(14)
H11 H 0.4471 -0.0667 0.3737
H12 H 0.3140 -0.0708 0.3982
C7 C 0.43089(19) -0.0256(2) 0.16656(16)
H13 H 0.4122 -0.0614 0.0931
H14 H 0.5079 -0.0623 0.1848
C8 C 0.43114(16) 0.14682(19) 0.16718(13)
H15 H 0.4890 0.1845 0.1162
H16 H 0.3561 0.1847 0.1433
C9 C 0.46178(13) 0.37317(16) 0.28013(11)
H17 H 0.3870 0.4125 0.2540
C10 C 0.48108(13) 0.43400(17) 0.39599(11)
C11 C 0.56048(13) 0.37049(17) 0.46801(11)
H18 H 0.6019 0.2832 0.4475
C12 C 0.42098(13) 0.56446(17) 0.42950(12)
H19 H 0.3672 0.6090 0.3821
N1B N 0.44930(11) 0.57764(14) 0.79863(9)
N2B N 0.54339(10) 0.79550(13) 0.72243(9)
O1B O 0.25697(13) 0.43250(17) 0.89652(11)
O2B O 0.64919(12) 1.08940(14) 0.75847(11)
C1B C 0.3705(2) 0.3809(2) 0.91536(15)
H1B H 0.4007 0.4304 0.9810
H2B H 0.3691 0.2706 0.9286
C2B C 0.45077(17) 0.41405(18) 0.82044(13)
H3B H 0.4255 0.3579 0.7557
H4B H 0.5288 0.3812 0.8387
C3B C 0.33182(15) 0.6277(2) 0.77446(14)
H5B H 0.3308 0.7375 0.7595
H6B H 0.3025 0.5741 0.7101
C4B C 0.25742(17) 0.5923(2) 0.87231(16)
H7B H 0.1788 0.6263 0.8577
H8B H 0.2861 0.6488 0.9356
C5B C 0.63019(15) 0.8580(2) 0.64813(13)
H9B H 0.7063 0.8213 0.6696
H10B H 0.6147 0.8229 0.5738
C6B C 0.62792(18) 1.0308(2) 0.65158(14)
H11B H 0.5529 1.0667 0.6263
H12B H 0.6860 1.0708 0.6018
C7B C 0.56911(19) 1.0256(2) 0.83344(16)
H13B H 0.5878 1.0614 0.9069
H14B H 0.4921 1.0623 0.8152
C8B C 0.56886(16) 0.85318(19) 0.83282(13)
H15B H 0.5110 0.8155 0.8838
H16B H 0.6439 0.8153 0.8567
C9B C 0.53822(13) 0.62683(16) 0.71987(11)
H17B H 0.6130 0.5875 0.7460
C10B C 0.51892(13) 0.56600(17) 0.60401(11)
C11B C 0.43952(13) 0.62951(17) 0.53199(11)
H18B H 0.3981 0.7168 0.5525
C12B C 0.57902(13) 0.43554(17) 0.57050(12)
H19B H 0.6328 0.3910 0.6179
loop_
_geom_bond_atom_site_label_1
_geom_bond_atom_site_label_2
_geom_bond_site_symmetry_1
_geom_bond_site_symmetry_2
N1 C2 1_555 1_555
N2 C5 1_555 1_555
O1 C1 1_555 1_555
O2 C6 1_555 1_555
C1 H1 1_555 1_555
H2 C1 1_555 1_555
C2 C1 1_555 1_555
H3 C2 1_555 1_555
H4 C2 1_555 1_555
C3 N1 1_555 1_555
H5 C3 1_555 1_555
H6 C3 1_555 1_555
C4 O1 1_555 1_555
H7 C4 1_555 1_555
H8 C4 1_555 1_555
C5 H9 1_555 1_555
H10 C5 1_555 1_555
C6 C5 1_555 1_555
H11 C6 1_555 1_555
H12 C6 1_555 1_555
C7 O2 1_555 1_555
H13 C7 1_555 1_555
H14 C7 1_555 1_555
C8 N2 1_555 1_555
H15 C8 1_555 1_555
H16 C8 1_555 1_555
C9 N1 1_555 1_555
H17 C9 1_555 1_555
C10 C9 1_555 1_555
C11 C10 1_555 1_555
H18 C11 1_555 1_555
C12 C10 1_555 1_555
H19 C12 1_555 1_555
N1B C2B 1_555 1_555
N2B C5B 1_555 1_555
O1B C1B 1_555 1_555
O2B C6B 1_555 1_555
C1B H1B 1_555 1_555
H2B C1B 1_555 1_555
C2B C1B 1_555 1_555
H3B C2B 1_555 1_555
H4B C2B 1_555 1_555
C3B N1B 1_555 1_555
H5B C3B 1_555 1_555
H6B C3B 1_555 1_555
C4B O1B 1_555 1_555
H7B C4B 1_555 1_555
H8B C4B 1_555 1_555
C5B H9B 1_555 1_555
H10B C5B 1_555 1_555
C6B C5B 1_555 1_555
H11B C6B 1_555 1_555
H12B C6B 1_555 1_555
C7B O2B 1_555 1_555
H13B C7B 1_555 1_555
H14B C7B 1_555 1_555
C8B N2B 1_555 1_555
H15B C8B 1_555 1_555
H16B C8B 1_555 1_555
C9B N1B 1_555 1_555
H17B C9B 1_555 1_555
C10B C9B 1_555 1_555
C11B C12 1_555 1_555
H18B C11B 1_555 1_555
C12B C11 1_555 1_555
H19B C12B 1_555 1_555
N2 C9 1_555 1_555
C3 C4 1_555 1_555
C7 C8 1_555 1_555
N2B C9B 1_555 1_555
C3B C4B 1_555 1_555
C7B C8B 1_555 1_555
C10B C11B 1_555 1_555
C10B C12B 1_555 1_555

#END
