
#######################################################################
#
#                 Cambridge Crystallographic Data Centre
#                                CCDC 
#
#######################################################################
#
# If this CIF has been generated from an entry in the Cambridge 
# Structural Database, then it will include bibliographic, chemical, 
# crystal, experimental, refinement or atomic coordinate data resulting 
# from the CCDC's data processing and validation procedures.
#
#######################################################################

data_RISDEC
_chemical_formula_moiety         'C8 H12 F1 N1 O3'
_chemical_name_systematic        'N-Acetyl-4(S)-fluoroproline methyl ester'
_symmetry_cell_setting           orthorhombic
_symmetry_space_group_name_H-M   'P 21 21 21'
_symmetry_Int_Tables_number      19
_space_group_name_Hall           'P 2ac 2ab'
loop_
_symmetry_equiv_pos_site_id
_symmetry_equiv_pos_as_xyz
1 x,y,z
2 1/2-x,-y,1/2+z
3 -x,1/2+y,1/2-z
4 1/2+x,1/2-y,-z
_cell_length_a                   6.6060(9)
_cell_length_b                   6.6603(7)
_cell_length_c                   41.076(3)
_cell_angle_alpha                90
_cell_angle_beta                 90
_cell_angle_gamma                90
_cell_volume                     1807.26
_exptl_crystal_colour            colorless
_cell_formula_units_Z            8
loop_
_atom_site_label
_atom_site_type_symbol
_atom_site_fract_x
_atom_site_fract_y
_atom_site_fract_z
C1 C 0.2166(5) 0.5359(5) 0.25263(6)
H1 H 0.0800 0.5669 0.2464
H2 H 0.2694 0.6475 0.2647
H3 H 0.2182 0.4175 0.2660
C2 C 0.3436(4) 0.5019(4) 0.22283(6)
O1 O 0.4149(3) 0.3368(3) 0.21578(4)
N1 N 0.3791(4) 0.6617(3) 0.20372(5)
C3 C 0.2914(4) 0.8633(4) 0.20698(6)
H4 H 0.3585 0.9385 0.2237
H5 H 0.1495 0.8561 0.2119
C4 C 0.3255(5) 0.9548(4) 0.17370(6)
H6 H 0.3398 1.0981 0.1748
F1 F 0.1627(3) 0.8993(3) 0.15329(4)
C5 C 0.5154(5) 0.8555(5) 0.16137(6)
H7 H 0.6348 0.9164 0.1703
H8 H 0.5223 0.8611 0.1380
C6 C 0.4962(4) 0.6388(4) 0.17358(6)
H9 H 0.4212 0.5604 0.1581
C7 C 0.7011(4) 0.5460(4) 0.17968(6)
O2 O 0.8131(3) 0.5883(3) 0.20199(5)
O3 O 0.7483(3) 0.4163(3) 0.15607(4)
C8 C 0.9469(5) 0.3270(6) 0.15884(7)
H10 H 0.9637 0.2686 0.1800
H11 H 1.0474 0.4298 0.1562
H12 H 0.9659 0.2256 0.1425
C9 C 0.6710(5) 0.5324(4) -0.00200(6)
H13 H 0.7922 0.5442 -0.0147
H14 H 0.6306 0.6646 0.0047
H15 H 0.5658 0.4726 -0.0149
C10 C 0.7100(4) 0.4054(4) 0.02759(6)
O4 O 0.8764(3) 0.3328(3) 0.03407(4)
N2 N 0.5507(3) 0.3717(4) 0.04756(5)
C11 C 0.3468(4) 0.4567(4) 0.04479(6)
H16 H 0.2700 0.3916 0.0280
H17 H 0.3534 0.5981 0.0403
C12 C 0.2589(4) 0.4209(4) 0.07801(6)
H18 H 0.1142 0.4076 0.0773
F2 F 0.3197(3) 0.5776(3) 0.09889(4)
C13 C 0.3608(5) 0.2306(4) 0.08950(6)
H19 H 0.2976 0.1141 0.0802
H20 H 0.3573 0.2204 0.1128
C14 C 0.5782(4) 0.2501(4) 0.07672(6)
H21 H 0.6603 0.3200 0.0923
C15 C 0.6676(4) 0.0464(4) 0.06876(6)
O5 O 0.6162(3) -0.0588(3) 0.04677(5)
O6 O 0.8050(3) -0.0073(3) 0.09154(4)
C16 C 0.8879(5) -0.2058(4) 0.08734(7)
H22 H 0.9498 -0.2164 0.0663
H23 H 0.7812 -0.3033 0.0886
H24 H 0.9867 -0.2314 0.1040
loop_
_geom_bond_atom_site_label_1
_geom_bond_atom_site_label_2
_geom_bond_site_symmetry_1
_geom_bond_site_symmetry_2
C1 H1 1_555 1_555
H2 C1 1_555 1_555
H3 C1 1_555 1_555
C2 C1 1_555 1_555
O1 C2 1_555 1_555
N1 C2 1_555 1_555
C3 N1 1_555 1_555
H4 C3 1_555 1_555
H5 C3 1_555 1_555
C4 C3 1_555 1_555
H6 C4 1_555 1_555
F1 C4 1_555 1_555
C5 C4 1_555 1_555
H7 C5 1_555 1_555
H8 C5 1_555 1_555
C6 N1 1_555 1_555
H9 C6 1_555 1_555
C7 C6 1_555 1_555
O2 C7 1_555 1_555
O3 C7 1_555 1_555
C8 O3 1_555 1_555
H10 C8 1_555 1_555
H11 C8 1_555 1_555
H12 C8 1_555 1_555
C9 H13 1_555 1_555
H14 C9 1_555 1_555
H15 C9 1_555 1_555
C10 C9 1_555 1_555
O4 C10 1_555 1_555
N2 C10 1_555 1_555
C11 N2 1_555 1_555
H16 C11 1_555 1_555
H17 C11 1_555 1_555
C12 C11 1_555 1_555
H18 C12 1_555 1_555
F2 C12 1_555 1_555
C13 C12 1_555 1_555
H19 C13 1_555 1_555
H20 C13 1_555 1_555
C14 N2 1_555 1_555
H21 C14 1_555 1_555
C15 C14 1_555 1_555
O5 C15 1_555 1_555
O6 C15 1_555 1_555
C16 O6 1_555 1_555
H22 C16 1_555 1_555
H23 C16 1_555 1_555
H24 C16 1_555 1_555
C5 C6 1_555 1_555
C13 C14 1_555 1_555

#END
