
#######################################################################
#
#                 Cambridge Crystallographic Data Centre
#                                CCDC 
#
#######################################################################
#
# If this CIF has been generated from an entry in the Cambridge 
# Structural Database, then it will include bibliographic, chemical, 
# crystal, experimental, refinement or atomic coordinate data resulting 
# from the CCDC's data processing and validation procedures.
#
#######################################################################

data_RISDAY
_chemical_formula_moiety         'C8 H13 N1 O4'
_chemical_name_systematic        'N-Acetyl-4(S)-hydroxyproline methyl ester'
_symmetry_cell_setting           monoclinic
_symmetry_space_group_name_H-M   'P 21'
_symmetry_Int_Tables_number      4
_space_group_name_Hall           'P 2yb'
loop_
_symmetry_equiv_pos_site_id
_symmetry_equiv_pos_as_xyz
1 x,y,z
2 -x,1/2+y,-z
_cell_length_a                   6.5077(9)
_cell_length_b                   12.1992(16)
_cell_length_c                   12.0478(14)
_cell_angle_alpha                90
_cell_angle_beta                 98.881(10)
_cell_angle_gamma                90
_cell_volume                     944.993
_exptl_crystal_colour            colorless
_cell_formula_units_Z            4
loop_
_atom_site_label
_atom_site_type_symbol
_atom_site_fract_x
_atom_site_fract_y
_atom_site_fract_z
C1 C 0.4227(8) 0.7116(5) 1.1707(3)
H1 H 0.4379 0.6936 1.2491
H2 H 0.4918 0.7799 1.1616
H3 H 0.2778 0.7207 1.1416
C2 C 0.5134(6) 0.6230(5) 1.1076(3)
O1 O 0.5753(5) 0.5366 1.1527(2)
N1 N 0.5283(5) 0.6412(4) 0.9984(3)
C3 C 0.4307(6) 0.7302(4) 0.9277(3)
H4 H 0.2951 0.7472 0.9451
H5 H 0.5156 0.7949 0.9373
C4 C 0.4137(6) 0.6841(4) 0.8104(3)
H6 H 0.4233 0.7409 0.7563
O2 O 0.2198(4) 0.6277(4) 0.7867(2)
H7 H 0.2281 0.5610 0.7264
C5 C 0.5978(6) 0.6072(4) 0.8173(3)
H8 H 0.5696 0.5516 0.7606
H9 H 0.7240 0.6444 0.8079
C6 C 0.6154(5) 0.5570(4) 0.9345(3)
H10 H 0.5340 0.4912 0.9325
C7 C 0.8416(6) 0.5325(4) 0.9809(3)
O3 O 0.9617(4) 0.5950(4) 1.0315(3)
O4 O 0.8869(4) 0.4316(4) 0.9498(2)
C8 C 1.1005(6) 0.3992(5) 0.9772(4)
H11 H 1.1148 0.3257 0.9511
H12 H 1.1419 0.4018 1.0572
H13 H 1.1873 0.4474 0.9418
C9 C 0.1017(7) 0.8943(5) 0.3665(3)
H14 H 0.0774 0.9015 0.2861
H15 H 0.1344 0.8196 0.3869
H16 H 0.2161 0.9410 0.3957
C10 C -0.0855(6) 0.9297(4) 0.4171(3)
O5 O -0.2512(5) 0.9534(4) 0.3578(2)
N2 N -0.0695(4) 0.9340(4) 0.5284(2)
C11 C 0.1110(6) 0.9008(4) 0.6125(3)
H17 H 0.1672 0.8316 0.5939
H18 H 0.2183 0.9555 0.6187
C12 C 0.0181(6) 0.8932(4) 0.7197(3)
H19 H 0.1204 0.9067 0.7847
O6 O -0.0834(4) 0.7914(4) 0.7299(2)
H20 H 0.0255 0.7228 0.7469
C13 C -0.1467(6) 0.9812(5) 0.7052(3)
H21 H -0.2475 0.9693 0.7544
H22 H -0.0854 1.0524 0.7199
C14 C -0.2440(5) 0.9715(4) 0.5811(3)
H23 H -0.3506 0.9164 0.5733
C15 C -0.3323(6) 1.0788(4) 0.5358(3)
O7 O -0.2329(4) 1.1538(4) 0.5071(3)
O8 O -0.5354(4) 1.0814(4) 0.5338(2)
C16 C -0.6402(7) 1.1836(5) 0.4997(4)
H24 H -0.7864 1.1743 0.5008
H25 H -0.6183 1.2034 0.4253
H26 H -0.5872 1.2404 0.5514
loop_
_geom_bond_atom_site_label_1
_geom_bond_atom_site_label_2
_geom_bond_site_symmetry_1
_geom_bond_site_symmetry_2
C1 H1 1_555 1_555
H2 C1 1_555 1_555
H3 C1 1_555 1_555
C2 C1 1_555 1_555
O1 C2 1_555 1_555
N1 C2 1_555 1_555
C3 N1 1_555 1_555
H4 C3 1_555 1_555
H5 C3 1_555 1_555
C4 C3 1_555 1_555
H6 C4 1_555 1_555
O2 C4 1_555 1_555
H7 O2 1_555 1_555
C5 C4 1_555 1_555
H8 C5 1_555 1_555
H9 C5 1_555 1_555
C6 N1 1_555 1_555
H10 C6 1_555 1_555
C7 C6 1_555 1_555
O3 C7 1_555 1_555
O4 C7 1_555 1_555
C8 O4 1_555 1_555
H11 C8 1_555 1_555
H12 C8 1_555 1_555
H13 C8 1_555 1_555
C9 H14 1_555 1_555
H15 C9 1_555 1_555
H16 C9 1_555 1_555
C10 C9 1_555 1_555
O5 C10 1_555 1_555
N2 C10 1_555 1_555
C11 N2 1_555 1_555
H17 C11 1_555 1_555
H18 C11 1_555 1_555
C12 C11 1_555 1_555
H19 C12 1_555 1_555
O6 C12 1_555 1_555
H20 O6 1_555 1_555
C13 C12 1_555 1_555
H21 C13 1_555 1_555
H22 C13 1_555 1_555
C14 N2 1_555 1_555
H23 C14 1_555 1_555
C15 C14 1_555 1_555
O7 C15 1_555 1_555
O8 C15 1_555 1_555
C16 O8 1_555 1_555
H24 C16 1_555 1_555
H25 C16 1_555 1_555
H26 C16 1_555 1_555
C5 C6 1_555 1_555
C13 C14 1_555 1_555

#END
