
#######################################################################
#
#                 Cambridge Crystallographic Data Centre
#                                CCDC 
#
#######################################################################
#
# If this CIF has been generated from an entry in the Cambridge 
# Structural Database, then it will include bibliographic, chemical, 
# crystal, experimental, refinement or atomic coordinate data resulting 
# from the CCDC's data processing and validation procedures.
#
#######################################################################

data_RISDIH
_chemical_compound_source        'Aspergillus sydowi'
_chemical_name_common            Verruculogen
_chemical_formula_moiety         'C27 H33 N3 O7'
_chemical_name_systematic        
10,10a-Dihydroxy-7-methoxy-2,2-dimethyl-5-(2-methylprop-1-en-1-yl)-1,10,10a,14,14a,15b-hexahydro-5H,12H-3,4-dioxa-5a,11a,15a-triazacyclo-oct(lm)indeno(5,6-b)fluorene-11,15(2H,13H)-dione
_symmetry_cell_setting           orthorhombic
_symmetry_space_group_name_H-M   'P 21 21 21'
_symmetry_Int_Tables_number      19
_space_group_name_Hall           'P 2ac 2ab'
loop_
_symmetry_equiv_pos_site_id
_symmetry_equiv_pos_as_xyz
1 x,y,z
2 1/2-x,-y,1/2+z
3 -x,1/2+y,1/2-z
4 1/2+x,1/2-y,-z
_cell_length_a                   11.0919(15)
_cell_length_b                   13.587(2)
_cell_length_c                   17.329(3)
_cell_angle_alpha                90
_cell_angle_beta                 90
_cell_angle_gamma                90
_cell_volume                     2611.58
_exptl_crystal_colour            colorless
_exptl_crystal_description       block
_cell_formula_units_Z            4
_exptl_crystal_recrystallization_method chloroform/methanol
loop_
_atom_site_label
_atom_site_type_symbol
_atom_site_fract_x
_atom_site_fract_y
_atom_site_fract_z
N1 N -0.0080(2) 0.49991(17) 0.87268(12)
N2 N 0.1406(2) 0.40911(17) 1.05444(12)
N3 N 0.2856(2) 0.29029(18) 1.14384(16)
O1 O -0.11729(18) 0.60443(14) 0.95499(10)
O2 O -0.0234(2) 0.68146(14) 0.95131(11)
O3 O 0.0500(2) 0.46740(17) 1.16292(12)
O4 O 0.3954(2) 0.2560(2) 1.03899(14)
O5 O 0.1201(2) 0.24215(15) 1.01719(13)
H1 H 0.0694 0.2498 0.9833
O6 O 0.2858(3) 0.26652(19) 0.89711(14)
H2 H 0.3307 0.2340 0.9248
O7 O -0.0077(3) 0.4553(2) 0.59212(13)
C1 C 0.0662(2) 0.4571(2) 0.92763(15)
C2 C 0.0680(2) 0.48387(19) 1.01124(15)
H3 H -0.0146 0.4847 1.0313
C3 C 0.1168(3) 0.4079(2) 1.13172(16)
C4 C 0.1758(3) 0.3289(2) 1.17920(17)
H4 H 0.1185 0.2746 1.1854
C5 C 0.2188(3) 0.3601(3) 1.25855(19)
H5 H 0.1534 0.3586 1.2957
H6 H 0.2531 0.4258 1.2573
C6 C 0.3142(4) 0.2834(3) 1.2777(2)
H7 H 0.3707 0.3085 1.3156
H8 H 0.2774 0.2239 1.2976
C7 C 0.3765(3) 0.2638(3) 1.2018(2)
H9 H 0.4481 0.3042 1.1964
H10 H 0.3991 0.1951 1.1972
C8 C 0.3026(3) 0.2881(2) 1.0690(2)
C9 C 0.1980(2) 0.3232(2) 1.01831(17)
C10 C 0.2457(3) 0.3501(2) 0.93781(17)
H11 H 0.3132 0.3960 0.9435
C11 C 0.1487(2) 0.3989(2) 0.89247(16)
C12 C 0.1258(3) 0.4018(2) 0.81131(15)
C13 C 0.1757(3) 0.3572(2) 0.74574(18)
H12 H 0.2414 0.3151 0.7502
C14 C 0.1261(4) 0.3768(2) 0.67513(19)
H13 H 0.1578 0.3460 0.6317
C15 C 0.0300(3) 0.4410(2) 0.66623(17)
C16 C -0.0222(3) 0.4859(2) 0.72910(16)
H14 H -0.0880 0.5278 0.7239
C17 C 0.0283(3) 0.4654(2) 0.80115(15)
C18 C -0.1171(3) 0.5578(2) 0.88253(15)
H15 H -0.1213 0.6078 0.8419
C19 C -0.2284(3) 0.4966(2) 0.88037(16)
H16 H -0.2297 0.4406 0.9112
C20 C -0.3257(3) 0.5148(2) 0.83855(17)
C21 C -0.4331(3) 0.4488(3) 0.8417(2)
H17 H -0.4195 0.3977 0.8788
H18 H -0.4463 0.4201 0.7918
H19 H -0.5027 0.4864 0.8564
C22 C -0.3384(4) 0.6008(3) 0.7849(2)
H20 H -0.4123 0.6348 0.7958
H21 H -0.3395 0.5777 0.7325
H22 H -0.2716 0.6448 0.7920
C23 C 0.1265(3) 0.5860(2) 1.02369(17)
H23 H 0.1676 0.5847 1.0731
H24 H 0.1878 0.5946 0.9843
C24 C 0.0459(3) 0.6763(2) 1.02237(17)
C25 C 0.1227(4) 0.7684(2) 1.0157(2)
H25 H 0.1679 0.7663 0.9685
H26 H 0.1772 0.7718 1.0586
H27 H 0.0716 0.8254 1.0157
C26 C -0.0372(3) 0.6817(3) 1.09160(18)
H28 H -0.0913 0.7363 1.0857
H29 H 0.0098 0.6903 1.1376
H30 H -0.0828 0.6218 1.0954
C27 C -0.1107(5) 0.5151(4) 0.5801(2)
H31 H -0.1277 0.5191 0.5259
H32 H -0.0957 0.5799 0.5999
H33 H -0.1786 0.4869 0.6064
loop_
_geom_bond_atom_site_label_1
_geom_bond_atom_site_label_2
_geom_bond_site_symmetry_1
_geom_bond_site_symmetry_2
N1 C1 1_555 1_555
N2 C2 1_555 1_555
N3 C4 1_555 1_555
O1 O2 1_555 1_555
O2 C24 1_555 1_555
O3 C3 1_555 1_555
O4 C8 1_555 1_555
O5 H1 1_555 1_555
O6 H2 1_555 1_555
O7 C15 1_555 1_555
C1 C2 1_555 1_555
C2 H3 1_555 1_555
C3 N2 1_555 1_555
C4 C3 1_555 1_555
H4 C4 1_555 1_555
C5 C4 1_555 1_555
H5 C5 1_555 1_555
H6 C5 1_555 1_555
C6 C5 1_555 1_555
H7 C6 1_555 1_555
H8 C6 1_555 1_555
C7 N3 1_555 1_555
H9 C7 1_555 1_555
H10 C7 1_555 1_555
C8 N3 1_555 1_555
C9 N2 1_555 1_555
C10 O6 1_555 1_555
H11 C10 1_555 1_555
C11 C1 1_555 1_555
C12 C11 1_555 1_555
C13 C12 1_555 1_555
H12 C13 1_555 1_555
C14 C13 1_555 1_555
H13 C14 1_555 1_555
C15 C14 1_555 1_555
C16 C15 1_555 1_555
H14 C16 1_555 1_555
C17 N1 1_555 1_555
C18 N1 1_555 1_555
H15 C18 1_555 1_555
C19 C18 1_555 1_555
H16 C19 1_555 1_555
C20 C19 1_555 1_555
C21 C20 1_555 1_555
H17 C21 1_555 1_555
H18 C21 1_555 1_555
H19 C21 1_555 1_555
C22 C20 1_555 1_555
H20 C22 1_555 1_555
H21 C22 1_555 1_555
H22 C22 1_555 1_555
C23 C2 1_555 1_555
H23 C23 1_555 1_555
H24 C23 1_555 1_555
C24 C23 1_555 1_555
C25 C24 1_555 1_555
H25 C25 1_555 1_555
H26 C25 1_555 1_555
H27 C25 1_555 1_555
C26 C24 1_555 1_555
H28 C26 1_555 1_555
H29 C26 1_555 1_555
H30 C26 1_555 1_555
C27 O7 1_555 1_555
H31 C27 1_555 1_555
H32 C27 1_555 1_555
H33 C27 1_555 1_555
O1 C18 1_555 1_555
O5 C9 1_555 1_555
C6 C7 1_555 1_555
C8 C9 1_555 1_555
C9 C10 1_555 1_555
C10 C11 1_555 1_555
C12 C17 1_555 1_555
C16 C17 1_555 1_555

#END
