
#######################################################################
#
#                 Cambridge Crystallographic Data Centre
#                                CCDC 
#
#######################################################################
#
# If this CIF has been generated from an entry in the Cambridge 
# Structural Database, then it will include bibliographic, chemical, 
# crystal, experimental, refinement or atomic coordinate data resulting 
# from the CCDC's data processing and validation procedures.
#
#######################################################################

data_RISGEH
_chemical_formula_moiety         'C19 H19 N1 O2'
_chemical_name_systematic        
3-Benzyl-5-(1-(4-methylphenyl)vinyl)-1,3-oxazolidin-2-one
_symmetry_cell_setting           monoclinic
_symmetry_space_group_name_H-M   'P 21/c'
_symmetry_Int_Tables_number      14
_space_group_name_Hall           '-P 2ybc'
loop_
_symmetry_equiv_pos_site_id
_symmetry_equiv_pos_as_xyz
1 x,y,z
2 -x,1/2+y,1/2-z
3 -x,-y,-z
4 x,1/2-y,1/2+z
_cell_length_a                   15.4736(11)
_cell_length_b                   5.9200(4)
_cell_length_c                   17.4387(12)
_cell_angle_alpha                90
_cell_angle_beta                 107.893(2)
_cell_angle_gamma                90
_cell_volume                     1520.18
_exptl_crystal_colour            colorless
_exptl_crystal_description       needle
_cell_formula_units_Z            4
loop_
_atom_site_label
_atom_site_type_symbol
_atom_site_fract_x
_atom_site_fract_y
_atom_site_fract_z
N1 N 0.36735(9) 1.1164(2) -0.00081(8)
O1 O 0.41659(8) 0.81710(19) -0.06004(7)
O2 O 0.43337(8) 0.82243(18) 0.07291(7)
C1 C 0.21832(13) 1.5311(3) -0.13948(11)
H1 H 0.2627 1.6417 -0.1398
C2 C 0.12753(14) 1.5783(3) -0.17556(12)
H2 H 0.1100 1.7199 -0.2013
C3 C 0.06204(14) 1.4210(4) -0.17451(12)
H3 H -0.0005 1.4540 -0.1990
C4 C 0.08821(13) 1.2159(3) -0.13757(12)
H4 H 0.0435 1.1074 -0.1361
C5 C 0.17949(13) 1.1668(3) -0.10243(11)
H5 H 0.1969 1.0237 -0.0779
C6 C 0.24557(12) 1.3241(3) -0.10282(9)
C7 C 0.34563(12) 1.2715(3) -0.06849(10)
H6 H 0.3671 1.2059 -0.1116
H7 H 0.3791 1.4144 -0.0510
C8 C 0.37247(12) 1.1873(3) 0.07996(10)
H8 H 0.3112 1.2040 0.0860
H9 H 0.4059 1.3315 0.0944
C9 C 0.42498(12) 0.9901(3) 0.13123(10)
H10 H 0.4873 1.0450 0.1614
C10 C 0.40608(11) 0.9150(3) -0.00227(9)
C11 C 0.38349(11) 0.8889(3) 0.19146(10)
C12 C 0.30565(11) 0.7294(3) 0.16454(10)
C13 C 0.24606(12) 0.7292(3) 0.08614(11)
H11 H 0.2541 0.8364 0.0484
C14 C 0.17524(12) 0.5753(3) 0.06232(11)
H12 H 0.1358 0.5795 0.0085
C15 C 0.16065(12) 0.4162(3) 0.11489(12)
C16 C 0.21957(14) 0.4171(3) 0.19343(12)
H13 H 0.2108 0.3108 0.2312
C17 C 0.29049(13) 0.5693(3) 0.21757(11)
H14 H 0.3298 0.5647 0.2715
C18 C 0.08644(15) 0.2413(4) 0.08796(14)
H15 H 0.0874 0.1431 0.1335
H16 H 0.0963 0.1503 0.0445
H17 H 0.0274 0.3170 0.0685
C19 C 0.41935(14) 0.9524(3) 0.26787(11)
H18 H 0.4722(16) 1.056(3) 0.2856(13)
H19 H 0.3938(14) 0.902(3) 0.3083(13)
loop_
_geom_bond_atom_site_label_1
_geom_bond_atom_site_label_2
_geom_bond_site_symmetry_1
_geom_bond_site_symmetry_2
N1 C7 1_555 1_555
O1 C10 1_555 1_555
O2 C9 1_555 1_555
C1 H1 1_555 1_555
C2 C1 1_555 1_555
H2 C2 1_555 1_555
C3 C2 1_555 1_555
H3 C3 1_555 1_555
C4 C3 1_555 1_555
H4 C4 1_555 1_555
C5 C4 1_555 1_555
H5 C5 1_555 1_555
C6 C1 1_555 1_555
C7 C6 1_555 1_555
H6 C7 1_555 1_555
H7 C7 1_555 1_555
C8 N1 1_555 1_555
H8 C8 1_555 1_555
H9 C8 1_555 1_555
C9 C8 1_555 1_555
H10 C9 1_555 1_555
C10 N1 1_555 1_555
C11 C9 1_555 1_555
C12 C11 1_555 1_555
C13 C12 1_555 1_555
H11 C13 1_555 1_555
C14 C13 1_555 1_555
H12 C14 1_555 1_555
C15 C14 1_555 1_555
C16 C15 1_555 1_555
H13 C16 1_555 1_555
C17 C12 1_555 1_555
H14 C17 1_555 1_555
C18 C15 1_555 1_555
H15 C18 1_555 1_555
H16 C18 1_555 1_555
H17 C18 1_555 1_555
C19 C11 1_555 1_555
H18 C19 1_555 1_555
H19 C19 1_555 1_555
O2 C10 1_555 1_555
C5 C6 1_555 1_555
C16 C17 1_555 1_555

#END
