
#######################################################################
#
#                 Cambridge Crystallographic Data Centre
#                                CCDC 
#
#######################################################################
#
# If this CIF has been generated from an entry in the Cambridge 
# Structural Database, then it will include bibliographic, chemical, 
# crystal, experimental, refinement or atomic coordinate data resulting 
# from the CCDC's data processing and validation procedures.
#
#######################################################################

data_RISGOS
_chemical_name_common            
1-(dibromo(4-methylphenyl)-tellanyl)-4-methylbenzene
_chemical_formula_moiety         'C14 H14 Br2 Te1'
_chemical_name_systematic        dibromo-bis(p-tolyl)-tellurium
_symmetry_cell_setting           monoclinic
_symmetry_space_group_name_H-M   'P 21/n'
_symmetry_Int_Tables_number      14
_space_group_name_Hall           '-P 2yn'
loop_
_symmetry_equiv_pos_site_id
_symmetry_equiv_pos_as_xyz
1 x,y,z
2 1/2-x,1/2+y,1/2-z
3 -x,-y,-z
4 1/2+x,1/2-y,1/2+z
_cell_length_a                   16.5963(18)
_cell_length_b                   10.2473(11)
_cell_length_c                   17.8978(19)
_cell_angle_alpha                90
_cell_angle_beta                 95.725(2)
_cell_angle_gamma                90
_cell_volume                     3028.65
_exptl_crystal_colour            bronze
_exptl_crystal_description       rhomb
_cell_formula_units_Z            8
loop_
_atom_site_label
_atom_site_type_symbol
_atom_site_fract_x
_atom_site_fract_y
_atom_site_fract_z
Te1 Te 0.99760(3) 0.39116(4) 0.60962(2)
Br1 Br 1.10440(6) 0.22486(9) 0.56027(6)
Br2 Br 0.88781(5) 0.55412(9) 0.66029(6)
C1 C 0.9267(4) 0.2306(6) 0.6371(4)
C2 C 0.9037(4) 0.2153(7) 0.7091(4)
H1 H 0.9188 0.2767 0.7462
C3 C 0.8587(5) 0.1089(8) 0.7249(4)
H2 H 0.8459 0.0968 0.7739
C4 C 0.8317(4) 0.0188(7) 0.6709(4)
C5 C 0.8542(5) 0.0379(7) 0.5981(4)
H3 H 0.8370 -0.0211 0.5604
C6 C 0.9018(4) 0.1439(6) 0.5817(4)
H4 H 0.9166 0.1555 0.5333
C7 C 0.7805(6) -0.0952(9) 0.6883(6)
H5 H 0.7319 -0.0646 0.7073
H6 H 0.8100 -0.1493 0.7253
H7 H 0.7668 -0.1450 0.6434
C8 C 1.0694(4) 0.4113(6) 0.7137(4)
C9 C 1.0862(4) 0.5326(6) 0.7396(4)
H8 H 1.0655 0.6046 0.7125
C10 C 1.1349(4) 0.5507(7) 0.8077(4)
H9 H 1.1465 0.6346 0.8256
C11 C 1.1659(4) 0.4423(8) 0.8484(4)
C12 C 1.1485(5) 0.3204(7) 0.8194(4)
H10 H 1.1695 0.2477 0.8456
C13 C 1.1008(4) 0.3024(7) 0.7525(4)
H11 H 1.0899 0.2189 0.7338
C14 C 1.2166(5) 0.4621(10) 0.9206(5)
H12 H 1.2672 0.5012 0.9111
H13 H 1.2267 0.3794 0.9450
H14 H 1.1888 0.5184 0.9523
Te2 Te 0.73367(2) 0.54971(4) 0.49572(2)
Br3 Br 0.83938(5) 0.38609(8) 0.43966(5)
Br4 Br 0.63265(8) 0.69605(12) 0.56129(7)
C15 C 0.6735(4) 0.3835(6) 0.5327(4)
C16 C 0.7028(4) 0.3288(8) 0.5994(4)
H15 H 0.7483 0.3637 0.6269
C17 C 0.6646(5) 0.2221(8) 0.6258(4)
H16 H 0.6840 0.1874 0.6721
C18 C 0.5990(4) 0.1646(7) 0.5862(4)
C19 C 0.5702(5) 0.2219(8) 0.5185(5)
H17 H 0.5252 0.1866 0.4905
C20 C 0.6074(5) 0.3298(7) 0.4922(4)
H18 H 0.5875 0.3668 0.4466
C21 C 0.5583(5) 0.0469(9) 0.6143(5)
H19 H 0.5693 -0.0274 0.5843
H20 H 0.5009 0.0615 0.6111
H21 H 0.5784 0.0310 0.6657
C22 C 0.6658(4) 0.5725(6) 0.3892(4)
C23 C 0.7050(4) 0.5617(9) 0.3255(4)
H22 H 0.7598 0.5404 0.3293
C24 C 0.6642(4) 0.5821(9) 0.2569(4)
H23 H 0.6929 0.5823 0.2149
C25 C 0.5804(4) 0.6029(6) 0.2472(4)
C26 C 0.5425(4) 0.6103(8) 0.3126(4)
H24 H 0.4870 0.6250 0.3094
C27 C 0.5841(4) 0.5966(8) 0.3805(5)
H25 H 0.5565 0.6038 0.4230
C28 C 0.5376(5) 0.6148(8) 0.1721(4)
H26 H 0.5660 0.6750 0.1430
H27 H 0.4837 0.6462 0.1759
H28 H 0.5351 0.5310 0.1480
loop_
_geom_bond_atom_site_label_1
_geom_bond_atom_site_label_2
_geom_bond_site_symmetry_1
_geom_bond_site_symmetry_2
Te1 Br1 1_555 1_555
Br2 Te1 1_555 1_555
C1 Te1 1_555 1_555
C2 C1 1_555 1_555
H1 C2 1_555 1_555
C3 C2 1_555 1_555
H2 C3 1_555 1_555
C4 C3 1_555 1_555
C5 C4 1_555 1_555
H3 C5 1_555 1_555
C6 C1 1_555 1_555
H4 C6 1_555 1_555
C7 C4 1_555 1_555
H5 C7 1_555 1_555
H6 C7 1_555 1_555
H7 C7 1_555 1_555
C8 Te1 1_555 1_555
C9 C8 1_555 1_555
H8 C9 1_555 1_555
C10 C9 1_555 1_555
H9 C10 1_555 1_555
C11 C10 1_555 1_555
C12 C11 1_555 1_555
H10 C12 1_555 1_555
C13 C8 1_555 1_555
H11 C13 1_555 1_555
C14 C11 1_555 1_555
H12 C14 1_555 1_555
H13 C14 1_555 1_555
H14 C14 1_555 1_555
Te2 Br3 1_555 1_555
Br4 Te2 1_555 1_555
C15 Te2 1_555 1_555
C16 C15 1_555 1_555
H15 C16 1_555 1_555
C17 C16 1_555 1_555
H16 C17 1_555 1_555
C18 C17 1_555 1_555
C19 C18 1_555 1_555
H17 C19 1_555 1_555
C20 C15 1_555 1_555
H18 C20 1_555 1_555
C21 C18 1_555 1_555
H19 C21 1_555 1_555
H20 C21 1_555 1_555
H21 C21 1_555 1_555
C22 Te2 1_555 1_555
C23 C22 1_555 1_555
H22 C23 1_555 1_555
C24 C23 1_555 1_555
H23 C24 1_555 1_555
C25 C24 1_555 1_555
C26 C25 1_555 1_555
H24 C26 1_555 1_555
C27 C22 1_555 1_555
H25 C27 1_555 1_555
C28 C25 1_555 1_555
H26 C28 1_555 1_555
H27 C28 1_555 1_555
H28 C28 1_555 1_555
C5 C6 1_555 1_555
C12 C13 1_555 1_555
C19 C20 1_555 1_555
C26 C27 1_555 1_555

#END
