
#######################################################################
#
#                 Cambridge Crystallographic Data Centre
#                                CCDC 
#
#######################################################################
#
# If this CIF has been generated from an entry in the Cambridge 
# Structural Database, then it will include bibliographic, chemical, 
# crystal, experimental, refinement or atomic coordinate data resulting 
# from the CCDC's data processing and validation procedures.
#
#######################################################################

data_RISHIM
_chemical_formula_moiety         'C10 H16 N1 1+,B1 F4 1-'
_chemical_name_systematic        'N-Isopropylbenzylammonium tetrafluoroborate'
_symmetry_cell_setting           monoclinic
_symmetry_space_group_name_H-M   'C 2/c'
_symmetry_Int_Tables_number      15
_space_group_name_Hall           '-C 2yn'
loop_
_symmetry_equiv_pos_site_id
_symmetry_equiv_pos_as_xyz
1 x,y,z
2 -x,y,1/2-z
3 1/2+x,1/2+y,z
4 1/2-x,1/2+y,1/2-z
5 -x,-y,-z
6 x,-y,1/2+z
7 1/2-x,1/2-y,-z
8 1/2+x,1/2-y,1/2+z
_cell_length_a                   19.5994(6)
_cell_length_b                   7.7561(2)
_cell_length_c                   32.5648(9)
_cell_angle_alpha                90
_cell_angle_beta                 95.614(3)
_cell_angle_gamma                90
_cell_volume                     4926.59
_exptl_crystal_colour            colorless
_exptl_crystal_description       block
_cell_formula_units_Z            16
loop_
_atom_site_label
_atom_site_type_symbol
_atom_site_fract_x
_atom_site_fract_y
_atom_site_fract_z
N1 N 0.26882(9) 0.6780(3) 0.19923(6)
H1 H 0.2681 0.5709 0.2114
H2 H 0.2564 0.7574 0.2181
C1 C 0.21625(12) 0.6809(4) 0.16240(8)
H3 H 0.2261 0.5871 0.1432
H4 H 0.2193 0.7919 0.1477
C2 C 0.14464(12) 0.6589(4) 0.17494(7)
C3 C 0.34156(12) 0.7163(3) 0.18987(8)
H5 H 0.3421 0.8342 0.1775
C4 C 0.36616(15) 0.5912(4) 0.15948(10)
H6 H 0.4136 0.6185 0.1548
H7 H 0.3370 0.5995 0.1333
H8 H 0.3639 0.4738 0.1704
C5 C 0.38605(14) 0.7198(5) 0.23037(9)
H9 H 0.3677 0.8039 0.2489
H10 H 0.4329 0.7524 0.2255
H11 H 0.3865 0.6052 0.2431
C6 C 0.11164(15) 0.5006(5) 0.16987(10)
H12 H 0.1348 0.4052 0.1593
C7 C 0.01137(15) 0.6188(6) 0.19561(9)
H13 H -0.0340 0.6051 0.2030
C8 C 0.11038(14) 0.7976(5) 0.19006(9)
H14 H 0.1323 0.9066 0.1934
C9 C 0.04332(16) 0.7766(6) 0.20043(10)
H15 H 0.0197 0.8716 0.2108
C10 C 0.04475(16) 0.4813(6) 0.18017(10)
H16 H 0.0223 0.3730 0.1765
F1 F 0.23277(9) 0.8240(2) 0.27915(5)
F2 F 0.15603(9) 0.6557(3) 0.30882(7)
B1 B 0.22412(15) 0.6842(4) 0.30558(9)
F3 F 0.25614(12) 0.7225(3) 0.34365(6)
F4 F 0.25287(10) 0.5418(2) 0.28822(7)
F5 F 0.49333(9) 0.61571(19) 0.03148(5)
F6 F 0.48413(15) 0.9027(2) 0.03424(8)
F7 F 0.40832(13) 0.7391(3) 0.06341(10)
B2 B 0.47527(19) 0.7530(4) 0.05616(10)
F8 F 0.5133(2) 0.7520(5) 0.09194(8)
N2 N 0.48238(9) 1.2582(2) 0.05117(6)
H17 H 0.4859 1.1475 0.0414
H18 H 0.4923 1.3323 0.0305
C11 C 0.40907(12) 1.2889(3) 0.06049(8)
H19 H 0.4047 1.4116 0.0693
C12 C 0.53497(13) 1.2824(4) 0.08744(7)
H20 H 0.5260 1.3924 0.1014
H21 H 0.5309 1.1877 0.1074
C13 C 0.60629(13) 1.2847(5) 0.07455(8)
C14 C 0.38962(13) 1.1744(4) 0.09470(8)
H22 H 0.3424 1.1996 0.1003
H23 H 0.4207 1.1956 0.1196
H24 H 0.3931 1.0534 0.0865
C15 C 0.63668(16) 1.1378(7) 0.06205(10)
H25 H 0.6122 1.0320 0.0606
C16 C 0.7040(2) 1.1442(11) 0.05143(12)
H26 H 0.7253 1.0430 0.0423
C17 C 0.36352(14) 1.2622(5) 0.02043(9)
H27 H 0.3773 1.3423 -0.0005
H28 H 0.3156 1.2838 0.0251
H29 H 0.3683 1.1434 0.0109
C18 C 0.64302(18) 1.4397(6) 0.07714(12)
H30 H 0.6220 1.5425 0.0856
C19 C 0.7096(2) 1.4424(11) 0.06743(17)
H31 H 0.7349 1.5471 0.0700
C20 C 0.7398(2) 1.2991(14) 0.05435(12)
H32 H 0.7856 1.3039 0.0471
loop_
_geom_bond_atom_site_label_1
_geom_bond_atom_site_label_2
_geom_bond_site_symmetry_1
_geom_bond_site_symmetry_2
N1 H1 1_555 1_555
H2 N1 1_555 1_555
C1 N1 1_555 1_555
H3 C1 1_555 1_555
H4 C1 1_555 1_555
C2 C1 1_555 1_555
C3 N1 1_555 1_555
H5 C3 1_555 1_555
C4 C3 1_555 1_555
H6 C4 1_555 1_555
H7 C4 1_555 1_555
H8 C4 1_555 1_555
C5 C3 1_555 1_555
H9 C5 1_555 1_555
H10 C5 1_555 1_555
H11 C5 1_555 1_555
C6 C2 1_555 1_555
H12 C6 1_555 1_555
C7 H13 1_555 1_555
C8 C2 1_555 1_555
H14 C8 1_555 1_555
C9 C7 1_555 1_555
H15 C9 1_555 1_555
C10 C6 1_555 1_555
H16 C10 1_555 1_555
F1 B1 1_555 1_555
F2 B1 1_555 1_555
B1 F3 1_555 1_555
F4 B1 1_555 1_555
F5 B2 1_555 1_555
F6 B2 1_555 1_555
F7 B2 1_555 1_555
B2 F8 1_555 1_555
N2 H17 1_555 1_555
H18 N2 1_555 1_555
C11 N2 1_555 1_555
H19 C11 1_555 1_555
C12 N2 1_555 1_555
H20 C12 1_555 1_555
H21 C12 1_555 1_555
C13 C12 1_555 1_555
C14 C11 1_555 1_555
H22 C14 1_555 1_555
H23 C14 1_555 1_555
H24 C14 1_555 1_555
C15 C13 1_555 1_555
H25 C15 1_555 1_555
C16 C15 1_555 1_555
H26 C16 1_555 1_555
C17 C11 1_555 1_555
H27 C17 1_555 1_555
H28 C17 1_555 1_555
H29 C17 1_555 1_555
C18 C13 1_555 1_555
H30 C18 1_555 1_555
C19 C18 1_555 1_555
H31 C19 1_555 1_555
C20 C16 1_555 1_555
H32 C20 1_555 1_555
C7 C10 1_555 1_555
C8 C9 1_555 1_555
C19 C20 1_555 1_555

#END
