
#######################################################################
#
#                 Cambridge Crystallographic Data Centre
#                                CCDC 
#
#######################################################################
#
# If this CIF has been generated from an entry in the Cambridge 
# Structural Database, then it will include bibliographic, chemical, 
# crystal, experimental, refinement or atomic coordinate data resulting 
# from the CCDC's data processing and validation procedures.
#
#######################################################################

data_RISHEJ
_chemical_name_common            
1,3-dibromo-1,1,3,3-tetrakis(4-methylphenyl)-1,3-ditelluroxane
_chemical_formula_moiety         'C28 H28 Br2 O1 Te2'
_chemical_name_systematic        
(\m-oxido)-bis(bromo)-tetrakis(p-tolyl)-di-tellurium
_symmetry_cell_setting           monoclinic
_symmetry_space_group_name_H-M   'C 2/c'
_symmetry_Int_Tables_number      15
_space_group_name_Hall           '-C 2yn'
loop_
_symmetry_equiv_pos_site_id
_symmetry_equiv_pos_as_xyz
1 x,y,z
2 -x,y,1/2-z
3 1/2+x,1/2+y,z
4 1/2-x,1/2+y,1/2-z
5 -x,-y,-z
6 x,-y,1/2+z
7 1/2-x,1/2-y,-z
8 1/2+x,1/2-y,1/2+z
_cell_length_a                   21.0711(15)
_cell_length_b                   13.0240(9)
_cell_length_c                   10.7900(8)
_cell_angle_alpha                90
_cell_angle_beta                 100.566(2)
_cell_angle_gamma                90
_cell_volume                     2910.89
_exptl_crystal_colour            colorless
_exptl_crystal_description       prism
_cell_formula_units_Z            4
loop_
_atom_site_label
_atom_site_type_symbol
_atom_site_fract_x
_atom_site_fract_y
_atom_site_fract_z
Te1 Te 0.54245(2) 0.12104(2) 0.12311(2)
Br1 Br 0.59808(3) 0.03359(4) -0.07759(5)
O1 O 0.5000 0.1900(3) 0.2500
C1 C 0.6252(2) 0.2138(4) 0.1822(4)
C2 C 0.6626(3) 0.2530(6) 0.1005(7)
H1 H 0.6538 0.2350 0.0157
C3 C 0.7121(4) 0.3175(7) 0.1441(8)
H2 H 0.7353 0.3460 0.0871
C4 C 0.7292(3) 0.3421(5) 0.2693(7)
C5 C 0.6931(3) 0.3018(5) 0.3497(6)
H3 H 0.7033 0.3178 0.4350
C6 C 0.6419(3) 0.2380(5) 0.3077(5)
H4 H 0.6182 0.2110 0.3648
C7 C 0.7842(4) 0.4155(8) 0.3210(10)
H5 H 0.7953 0.4079 0.4109
H6 H 0.7707 0.4848 0.3008
H7 H 0.8211 0.3998 0.2839
C8 C 0.4924(2) 0.2251(3) -0.0090(4)
C9 C 0.4584(2) 0.1925(4) -0.1226(4)
H8 H 0.4607 0.1241 -0.1464
C10 C 0.4208(3) 0.2603(5) -0.2017(6)
H9 H 0.3976 0.2361 -0.2778
C11 C 0.4162(5) 0.3601(5) -0.1739(7)
C12 C 0.4501(6) 0.3921(5) -0.0541(8)
H10 H 0.4465 0.4597 -0.0287
C13 C 0.4877(4) 0.3254(4) 0.0240(6)
H11 H 0.5104 0.3486 0.1010
C14 C 0.3777(7) 0.4348(8) -0.2649(10)
H12 H 0.3796 0.4146 -0.3497
H13 H 0.3954 0.5025 -0.2494
H14 H 0.3336 0.4347 -0.2534
Te1A Te 0.45755(2) 0.12104(2) 0.37689(2)
Br1A Br 0.40192(3) 0.03359(4) 0.57759(5)
C1A C 0.3748(2) 0.2138(4) 0.3178(4)
C2A C 0.3374(3) 0.2530(6) 0.3995(7)
H1A H 0.3462 0.2350 0.4843
C3A C 0.2879(4) 0.3175(7) 0.3559(8)
H2A H 0.2647 0.3460 0.4129
C4A C 0.2708(3) 0.3421(5) 0.2307(7)
C5A C 0.3069(3) 0.3018(5) 0.1503(6)
H3A H 0.2967 0.3178 0.0650
C6A C 0.3581(3) 0.2380(5) 0.1923(5)
H4A H 0.3818 0.2110 0.1352
C7A C 0.2158(4) 0.4155(8) 0.1790(10)
H5A H 0.2047 0.4079 0.0891
H6A H 0.2293 0.4848 0.1992
H7A H 0.1789 0.3998 0.2161
C8A C 0.5076(2) 0.2251(3) 0.5090(4)
C9A C 0.5416(2) 0.1925(4) 0.6226(4)
H8A H 0.5393 0.1241 0.6464
C10A C 0.5792(3) 0.2603(5) 0.7017(6)
H9A H 0.6024 0.2361 0.7778
C11A C 0.5838(5) 0.3601(5) 0.6739(7)
C12A C 0.5499(6) 0.3921(5) 0.5541(8)
H10A H 0.5535 0.4597 0.5287
C13A C 0.5123(4) 0.3254(4) 0.4760(6)
H11A H 0.4896 0.3486 0.3990
C14A C 0.6223(7) 0.4348(8) 0.7649(10)
H12A H 0.6204 0.4146 0.8497
H13A H 0.6046 0.5025 0.7494
H14A H 0.6664 0.4347 0.7534
loop_
_geom_bond_atom_site_label_1
_geom_bond_atom_site_label_2
_geom_bond_site_symmetry_1
_geom_bond_site_symmetry_2
Te1 Br1 1_555 1_555
O1 Te1 1_555 1_555
C1 Te1 1_555 1_555
C2 C1 1_555 1_555
H1 C2 1_555 1_555
C3 C2 1_555 1_555
H2 C3 1_555 1_555
C4 C3 1_555 1_555
C5 C4 1_555 1_555
H3 C5 1_555 1_555
C6 C1 1_555 1_555
H4 C6 1_555 1_555
C7 C4 1_555 1_555
H5 C7 1_555 1_555
H6 C7 1_555 1_555
H7 C7 1_555 1_555
C8 Te1 1_555 1_555
C9 C8 1_555 1_555
H8 C9 1_555 1_555
C10 C9 1_555 1_555
H9 C10 1_555 1_555
C11 C10 1_555 1_555
C12 C11 1_555 1_555
H10 C12 1_555 1_555
C13 C8 1_555 1_555
H11 C13 1_555 1_555
C14 C11 1_555 1_555
H12 C14 1_555 1_555
H13 C14 1_555 1_555
H14 C14 1_555 1_555
Te1A O1 1_555 1_555
Br1A Te1A 1_555 1_555
C1A Te1A 1_555 1_555
C2A C1A 1_555 1_555
H1A C2A 1_555 1_555
C3A C2A 1_555 1_555
H2A C3A 1_555 1_555
C4A C3A 1_555 1_555
C5A C4A 1_555 1_555
H3A C5A 1_555 1_555
C6A C1A 1_555 1_555
H4A C6A 1_555 1_555
C7A C4A 1_555 1_555
H5A C7A 1_555 1_555
H6A C7A 1_555 1_555
H7A C7A 1_555 1_555
C8A Te1A 1_555 1_555
C9A C8A 1_555 1_555
H8A C9A 1_555 1_555
C10A C9A 1_555 1_555
H9A C10A 1_555 1_555
C11A C10A 1_555 1_555
C12A C11A 1_555 1_555
H10A C12A 1_555 1_555
C13A C8A 1_555 1_555
H11A C13A 1_555 1_555
C14A C11A 1_555 1_555
H12A C14A 1_555 1_555
H13A C14A 1_555 1_555
H14A C14A 1_555 1_555
C5 C6 1_555 1_555
C12 C13 1_555 1_555
C5A C6A 1_555 1_555
C12A C13A 1_555 1_555

#END
