
#######################################################################
#
#                 Cambridge Crystallographic Data Centre
#                                CCDC 
#
#######################################################################
#
# If this CIF has been generated from an entry in the Cambridge 
# Structural Database, then it will include bibliographic, chemical, 
# crystal, experimental, refinement or atomic coordinate data resulting 
# from the CCDC's data processing and validation procedures.
#
#######################################################################

data_RISYID
_chemical_formula_moiety         'C16 H14 F2 N2 O1'
_chemical_name_systematic        
4,4-Difluoro-2-methyl-3-(phenylimino)-2-azaspiro[4.5]deca-6,9-dien-8-one
_symmetry_cell_setting           orthorhombic
_symmetry_space_group_name_H-M   'P 21 21 21'
_symmetry_Int_Tables_number      19
_space_group_name_Hall           'P 2ac 2ab'
loop_
_symmetry_equiv_pos_site_id
_symmetry_equiv_pos_as_xyz
1 x,y,z
2 1/2-x,-y,1/2+z
3 -x,1/2+y,1/2-z
4 1/2+x,1/2-y,-z
_cell_length_a                   10.8989(9)
_cell_length_b                   11.1991(10)
_cell_length_c                   11.9268(11)
_cell_angle_alpha                90
_cell_angle_beta                 90
_cell_angle_gamma                90
_cell_volume                     1455.76
_exptl_crystal_colour            colorless
_exptl_crystal_description       prismatic
_cell_formula_units_Z            4
_exptl_crystal_recrystallization_method 'ethyl acetate/n-hexane'
loop_
_atom_site_label
_atom_site_type_symbol
_atom_site_fract_x
_atom_site_fract_y
_atom_site_fract_z
F1 F 0.13999(14) 0.75277(10) 0.29291(12)
F2 F -0.04076(11) 0.70006(12) 0.34792(10)
N1 N 0.17628(16) 0.48543(14) 0.30339(14)
N2 N 0.13952(17) 0.55936(16) 0.48054(15)
O1 O -0.2333(2) 0.6227(2) -0.0450(2)
C1 C 0.12763(16) 0.56469(15) 0.37587(16)
C2 C 0.06360(16) 0.65683(16) 0.30326(17)
C3 C 0.04359(17) 0.59762(16) 0.18904(17)
C4 C 0.1567(2) 0.51400(19) 0.18683(18)
H1 H 0.1400 0.4426 0.1434
H2 H 0.2275 0.5543 0.1553
C5 C 0.2639(2) 0.3951(2) 0.3368(2)
H3 H 0.3456 0.4260 0.3292
H4 H 0.2546 0.3260 0.2898
H5 H 0.2495 0.3732 0.4135
C6 C 0.0439(2) 0.68513(18) 0.09525(18)
H6 H 0.1104 0.7367 0.0887
C7 C -0.0453(3) 0.6932(2) 0.0210(2)
H7 H -0.0396 0.7498 -0.0358
C8 C -0.1519(3) 0.6164(3) 0.0256(2)
C9 C -0.1567(2) 0.5320(2) 0.1175(2)
H8 H -0.2240 0.4813 0.1231
C10 C -0.0700(2) 0.52442(18) 0.1928(2)
H9 H -0.0798 0.4706 0.2515
C11 C 0.08942(19) 0.64764(19) 0.55141(17)
C12 C -0.0122(2) 0.6207(2) 0.6158(2)
H10 H -0.0492 0.5462 0.6087
C13 C -0.0594(2) 0.7024(3) 0.6903(2)
H11 H -0.1288 0.6836 0.7321
C14 C -0.0048(3) 0.8105(3) 0.7030(3)
H12 H -0.0374 0.8657 0.7530
C15 C 0.0983(4) 0.8387(2) 0.6423(2)
H13 H 0.1357 0.9127 0.6516
C16 C 0.1467(3) 0.7563(2) 0.5668(2)
H14 H 0.2175 0.7745 0.5268
loop_
_geom_bond_atom_site_label_1
_geom_bond_atom_site_label_2
_geom_bond_site_symmetry_1
_geom_bond_site_symmetry_2
F1 C2 1_555 1_555
F2 C2 1_555 1_555
N1 C1 1_555 1_555
N2 C1 1_555 1_555
O1 C8 1_555 1_555
C1 C2 1_555 1_555
C2 C3 1_555 1_555
C3 C4 1_555 1_555
C4 N1 1_555 1_555
H1 C4 1_555 1_555
H2 C4 1_555 1_555
C5 N1 1_555 1_555
H3 C5 1_555 1_555
H4 C5 1_555 1_555
H5 C5 1_555 1_555
C6 C3 1_555 1_555
H6 C6 1_555 1_555
C7 C6 1_555 1_555
H7 C7 1_555 1_555
C8 C7 1_555 1_555
C9 C8 1_555 1_555
H8 C9 1_555 1_555
C10 C3 1_555 1_555
H9 C10 1_555 1_555
C11 N2 1_555 1_555
C12 C11 1_555 1_555
H10 C12 1_555 1_555
C13 C12 1_555 1_555
H11 C13 1_555 1_555
C14 C13 1_555 1_555
H12 C14 1_555 1_555
C15 C14 1_555 1_555
H13 C15 1_555 1_555
C16 C11 1_555 1_555
H14 C16 1_555 1_555
C9 C10 1_555 1_555
C15 C16 1_555 1_555

#END
