
#######################################################################
#
#                 Cambridge Crystallographic Data Centre
#                                CCDC 
#
#######################################################################
#
# If this CIF has been generated from an entry in the Cambridge 
# Structural Database, then it will include bibliographic, chemical, 
# crystal, experimental, refinement or atomic coordinate data resulting 
# from the CCDC's data processing and validation procedures.
#
#######################################################################

data_RITCON
_chemical_formula_moiety         'C18 H20 N2 O3'
_chemical_name_systematic        
2-Hydroxy-N'-((1Z)-1-(2-hydroxy-5-methylphenyl)-2-methylpropylidene)benzohydrazide
_symmetry_cell_setting           monoclinic
_symmetry_space_group_name_H-M   'P 21/c'
_symmetry_Int_Tables_number      14
_space_group_name_Hall           '-P 2ybc'
loop_
_symmetry_equiv_pos_site_id
_symmetry_equiv_pos_as_xyz
1 x,y,z
2 -x,1/2+y,1/2-z
3 -x,-y,-z
4 x,1/2-y,1/2+z
_cell_length_a                   11.2144(11)
_cell_length_b                   11.2887(11)
_cell_length_c                   13.6535(13)
_cell_angle_alpha                90
_cell_angle_beta                 107.000(2)
_cell_angle_gamma                90
_cell_volume                     1652.95
_exptl_crystal_colour            yellow
_exptl_crystal_description       block
_cell_formula_units_Z            4
loop_
_atom_site_label
_atom_site_type_symbol
_atom_site_fract_x
_atom_site_fract_y
_atom_site_fract_z
O1 O 0.14313(13) 0.32510(11) 0.31013(11)
H1 H 0.1500 0.3965 0.3215
O2 O 0.01561(11) 0.20180(13) -0.04931(10)
H2 H 0.0461 0.2149 -0.0960
O3 O -0.20731(11) 0.03822(11) 0.10448(9)
N1 N -0.01360(13) 0.10594(12) 0.11865(10)
H3 H 0.0346 0.1442 0.0910
N2 N 0.03470(14) 0.05414(12) 0.21453(11)
C1 C 0.21322(16) 0.29390(14) 0.24792(13)
C2 C 0.21798(15) 0.17485(15) 0.22370(12)
C3 C 0.28605(16) 0.14187(17) 0.15787(14)
H4 H 0.2892 0.0623 0.1412
C4 C 0.34956(16) 0.22417(19) 0.11622(14)
C5 C 0.34352(18) 0.34066(19) 0.14234(14)
H5 H 0.3857 0.3972 0.1156
C6 C 0.27685(18) 0.37622(17) 0.20703(14)
H6 H 0.2744 0.4560 0.2235
C7 C 0.4215(2) 0.1856(2) 0.04319(17)
H7 H 0.4735 0.2495 0.0337
H8 H 0.3640 0.1644 -0.0216
H9 H 0.4725 0.1184 0.0713
C8 C 0.14484(16) 0.08723(14) 0.26466(13)
C9 C 0.20075(18) 0.03997(16) 0.37216(14)
H10 H 0.2179 0.1089 0.4178
C10 C 0.1119(2) -0.0383(2) 0.40763(17)
H11 H 0.0360 0.0042 0.4018
H12 H 0.1495 -0.0605 0.4777
H13 H 0.0938 -0.1081 0.3658
C11 C 0.3253(2) -0.0202(2) 0.38364(17)
H14 H 0.3138 -0.0853 0.3366
H15 H 0.3584 -0.0490 0.4524
H16 H 0.3824 0.0357 0.3692
C12 C -0.13535(15) 0.09610(14) 0.06947(13)
C13 C -0.18372(15) 0.16196(14) -0.02863(12)
C14 C -0.11049(17) 0.21255(15) -0.08482(13)
C15 C -0.1663(2) 0.27366(17) -0.17470(15)
H17 H -0.1175 0.3059 -0.2125
C16 C -0.2935(2) 0.28657(18) -0.20782(16)
H18 H -0.3301 0.3283 -0.2678
C17 C -0.3677(2) 0.23870(19) -0.15361(16)
H19 H -0.4538 0.2483 -0.1762
C18 C -0.31253(17) 0.17651(16) -0.06546(15)
H20 H -0.3627 0.1431 -0.0293
loop_
_geom_bond_atom_site_label_1
_geom_bond_atom_site_label_2
_geom_bond_site_symmetry_1
_geom_bond_site_symmetry_2
O1 H1 1_555 1_555
O2 H2 1_555 1_555
O3 C12 1_555 1_555
N1 H3 1_555 1_555
N2 N1 1_555 1_555
C1 O1 1_555 1_555
C2 C1 1_555 1_555
C3 C2 1_555 1_555
H4 C3 1_555 1_555
C4 C3 1_555 1_555
C5 C4 1_555 1_555
H5 C5 1_555 1_555
C6 C1 1_555 1_555
H6 C6 1_555 1_555
C7 C4 1_555 1_555
H7 C7 1_555 1_555
H8 C7 1_555 1_555
H9 C7 1_555 1_555
C8 N2 1_555 1_555
C9 C8 1_555 1_555
H10 C9 1_555 1_555
C10 C9 1_555 1_555
H11 C10 1_555 1_555
H12 C10 1_555 1_555
H13 C10 1_555 1_555
C11 C9 1_555 1_555
H14 C11 1_555 1_555
H15 C11 1_555 1_555
H16 C11 1_555 1_555
C12 N1 1_555 1_555
C13 C12 1_555 1_555
C14 O2 1_555 1_555
C15 C14 1_555 1_555
H17 C15 1_555 1_555
C16 C15 1_555 1_555
H18 C16 1_555 1_555
C17 C16 1_555 1_555
H19 C17 1_555 1_555
C18 C13 1_555 1_555
H20 C18 1_555 1_555
C2 C8 1_555 1_555
C5 C6 1_555 1_555
C13 C14 1_555 1_555
C17 C18 1_555 1_555

#END
