
#######################################################################
#
#                 Cambridge Crystallographic Data Centre
#                                CCDC 
#
#######################################################################
#
# If this CIF has been generated from an entry in the Cambridge 
# Structural Database, then it will include bibliographic, chemical, 
# crystal, experimental, refinement or atomic coordinate data resulting 
# from the CCDC's data processing and validation procedures.
#
#######################################################################

data_RITDEE
_chemical_formula_moiety         'C14 H16 N4 O1 S1'
_chemical_name_systematic        
2-(4,6-Dimethylpyrimidin-2-ylsulfanyl)-N-(4-methylpyridin-2-yl)acetamide
_symmetry_cell_setting           monoclinic
_symmetry_space_group_name_H-M   'P 21/c'
_symmetry_Int_Tables_number      14
_space_group_name_Hall           '-P 2ybc'
loop_
_symmetry_equiv_pos_site_id
_symmetry_equiv_pos_as_xyz
1 x,y,z
2 -x,1/2+y,1/2-z
3 -x,-y,-z
4 x,1/2-y,1/2+z
_cell_length_a                   5.1924(19)
_cell_length_b                   15.423(5)
_cell_length_c                   18.121(6)
_cell_angle_alpha                90
_cell_angle_beta                 91.678(6)
_cell_angle_gamma                90
_cell_volume                     1450.55
_exptl_crystal_colour            colorless
_exptl_crystal_description       Plate
_chemical_melting_point          '418 K'
_cell_formula_units_Z            4
loop_
_atom_site_label
_atom_site_type_symbol
_atom_site_fract_x
_atom_site_fract_y
_atom_site_fract_z
S1 S 0.19772(16) 0.06150(5) 0.30190(4)
O1 O 0.4584(4) 0.17627(12) 0.39721(11)
C1 C 0.5502(6) 0.10500(16) 0.40685(14)
N1 N 0.7497(4) 0.08705(13) 0.45581(11)
H1 H 0.7929 0.0334 0.4603
N2 N -0.0905(5) -0.02849(15) 0.21206(12)
N3 N 0.2279(4) -0.11038(14) 0.28121(12)
N4 N 1.0824(5) 0.11059(13) 0.54011(12)
C2 C 0.4517(5) 0.02656(16) 0.36422(15)
H2 H 0.3873 -0.0166 0.3980
H3 H 0.5901 0.0008 0.3369
C3 C 0.1057(6) -0.03772(17) 0.26160(15)
C4 C 0.8914(5) 0.14679(15) 0.49939(13)
C5 C 0.8368(6) 0.23511(16) 0.50028(15)
H4 H 0.7006 0.2572 0.4716
C6 C -0.0551(6) -0.18068(19) 0.19480(16)
H5 H -0.1119 -0.2310 0.1712
C7 C 1.1828(6) 0.25295(18) 0.58610(17)
H6 H 1.2871 0.2874 0.6167
C8 C 0.1449(6) -0.18362(18) 0.24637(16)
C9 C -0.1703(6) -0.1016(2) 0.17864(15)
C10 C 0.2828(6) -0.26511(18) 0.26755(19)
H7 H 0.4476 -0.2663 0.2449
H8 H 0.1828 -0.3142 0.2511
H9 H 0.3067 -0.2673 0.3202
C11 C 1.2229(6) 0.16531(18) 0.58239(17)
H10 H 1.3570 0.1421 0.6112
C12 C -0.3885(7) -0.0931(2) 0.12243(18)
H11 H -0.5028 -0.0478 0.1372
H12 H -0.4812 -0.1469 0.1191
H13 H -0.3205 -0.0792 0.0752
C13 C 0.9856(6) 0.28937(17) 0.54384(15)
C14 C 0.9279(7) 0.38546(17) 0.54669(19)
H14 H 0.8268 0.3977 0.5890
H15 H 0.8337 0.4023 0.5026
H16 H 1.0866 0.4173 0.5503
loop_
_geom_bond_atom_site_label_1
_geom_bond_atom_site_label_2
_geom_bond_site_symmetry_1
_geom_bond_site_symmetry_2
S1 C2 1_555 1_555
O1 C1 1_555 1_555
C1 N1 1_555 1_555
N1 H1 1_555 1_555
N2 C3 1_555 1_555
N3 C3 1_555 1_555
N4 C4 1_555 1_555
C2 C1 1_555 1_555
H2 C2 1_555 1_555
H3 C2 1_555 1_555
C3 S1 1_555 1_555
C4 N1 1_555 1_555
C5 C4 1_555 1_555
H4 C5 1_555 1_555
C6 H5 1_555 1_555
C7 H6 1_555 1_555
C8 N3 1_555 1_555
C9 N2 1_555 1_555
C10 C8 1_555 1_555
H7 C10 1_555 1_555
H8 C10 1_555 1_555
H9 C10 1_555 1_555
C11 N4 1_555 1_555
H10 C11 1_555 1_555
C12 C9 1_555 1_555
H11 C12 1_555 1_555
H12 C12 1_555 1_555
H13 C12 1_555 1_555
C13 C5 1_555 1_555
C14 C13 1_555 1_555
H14 C14 1_555 1_555
H15 C14 1_555 1_555
H16 C14 1_555 1_555
C6 C8 1_555 1_555
C6 C9 1_555 1_555
C7 C11 1_555 1_555
C7 C13 1_555 1_555

#END
