
#######################################################################
#
#                 Cambridge Crystallographic Data Centre
#                                CCDC 
#
#######################################################################
#
# If this CIF has been generated from an entry in the Cambridge 
# Structural Database, then it will include bibliographic, chemical, 
# crystal, experimental, refinement or atomic coordinate data resulting 
# from the CCDC's data processing and validation procedures.
#
#######################################################################

data_RITFOQ
_chemical_formula_moiety         'C7 H7 N5 S1'
_chemical_name_systematic        
4-Amino-3-(4-pyridyl)-1,2,4-triazole-5(4H)-thione
_symmetry_cell_setting           monoclinic
_symmetry_space_group_name_H-M   'C 2/c'
_symmetry_Int_Tables_number      15
_space_group_name_Hall           '-C 2yn'
loop_
_symmetry_equiv_pos_site_id
_symmetry_equiv_pos_as_xyz
1 x,y,z
2 1/2+x,1/2+y,z
3 -x,y,1/2-z
4 1/2-x,1/2+y,1/2-z
5 -x,-y,-z
6 1/2-x,1/2-y,-z
7 x,-y,1/2+z
8 1/2+x,1/2-y,1/2+z
_cell_length_a                   7.722(6)
_cell_length_b                   14.215(11)
_cell_length_c                   15.068(12)
_cell_angle_alpha                90
_cell_angle_beta                 93.432(15)
_cell_angle_gamma                90
_cell_volume                     1651.02
_exptl_crystal_colour            colorless
_exptl_crystal_description       clubbed
_cell_formula_units_Z            8
_exptl_crystal_recrystallization_method ethanol
loop_
_atom_site_label
_atom_site_type_symbol
_atom_site_fract_x
_atom_site_fract_y
_atom_site_fract_z
S1 S 0.11589(13) 0.51429(7) 0.38748(7)
N1 N 0.2341(3) 0.73058(19) 0.24951(19)
C1 C 0.2889(4) 0.6629(2) 0.2010(2)
N2 N 0.2571(3) 0.57925(19) 0.2400(2)
C2 C 0.3732(4) 0.6799(2) 0.1189(2)
N3 N 0.5323(3) 0.7249(2) -0.0353(2)
N4 N 0.1676(3) 0.68743(19) 0.31970(19)
H1 H 0.1229 0.7172 0.3624
C3 C 0.1781(4) 0.5945(2) 0.3160(2)
C4 C 0.5178(5) 0.7863(3) 0.0293(3)
H2 H 0.5630 0.8462 0.0219
N5 N 0.2980(4) 0.49002(19) 0.2082(2)
H3 H 0.2642 0.4458 0.2463
H4 H 0.2407 0.4820 0.1550
C5 C 0.3874(5) 0.6154(3) 0.0534(3)
H5 H 0.3438 0.5550 0.0596
C6 C 0.4670(5) 0.6408(3) -0.0219(3)
H6 H 0.4753 0.5959 -0.0663
C7 C 0.4414(4) 0.7675(3) 0.1055(2)
H7 H 0.4350 0.8138 0.1488
loop_
_geom_bond_atom_site_label_1
_geom_bond_atom_site_label_2
_geom_bond_site_symmetry_1
_geom_bond_site_symmetry_2
S1 C3 1_555 1_555
N1 C1 1_555 1_555
C1 N2 1_555 1_555
N2 C3 1_555 1_555
C2 C1 1_555 1_555
N3 C4 1_555 1_555
N4 N1 1_555 1_555
H1 N4 1_555 1_555
C3 N4 1_555 1_555
C4 H2 1_555 1_555
N5 N2 1_555 1_555
H3 N5 1_555 1_555
H4 N5 1_555 1_555
C5 C2 1_555 1_555
H5 C5 1_555 1_555
C6 N3 1_555 1_555
H6 C6 1_555 1_555
C7 C2 1_555 1_555
H7 C7 1_555 1_555
C4 C7 1_555 1_555
C5 C6 1_555 1_555

#END
