
#######################################################################
#
#                 Cambridge Crystallographic Data Centre
#                                CCDC 
#
#######################################################################
#
# If this CIF has been generated from an entry in the Cambridge 
# Structural Database, then it will include bibliographic, chemical, 
# crystal, experimental, refinement or atomic coordinate data resulting 
# from the CCDC's data processing and validation procedures.
#
#######################################################################

data_RITFEG
_chemical_formula_moiety         'C16 H14 Cl1 N1 O1'
_chemical_name_systematic        N-Benzyl-N-(4-chlorophenyl)acrylamide
_symmetry_cell_setting           monoclinic
_symmetry_space_group_name_H-M   'P 21/n'
_symmetry_Int_Tables_number      14
_space_group_name_Hall           '-P 2yn'
loop_
_symmetry_equiv_pos_site_id
_symmetry_equiv_pos_as_xyz
1 x,y,z
2 1/2-x,1/2+y,1/2-z
3 -x,-y,-z
4 1/2+x,1/2-y,1/2+z
_cell_length_a                   9.215(4)
_cell_length_b                   9.210(4)
_cell_length_c                   17.090(8)
_cell_angle_alpha                90
_cell_angle_beta                 102.842(6)
_cell_angle_gamma                90
_cell_volume                     1414.15
_exptl_crystal_colour            colorless
_exptl_crystal_description       block
_cell_formula_units_Z            4
_exptl_crystal_recrystallization_method ethanol
loop_
_atom_site_label
_atom_site_type_symbol
_atom_site_fract_x
_atom_site_fract_y
_atom_site_fract_z
C1 C 0.1090(3) 0.2996(3) 0.42821(14)
C2 C 0.0953(3) 0.2145(3) 0.36048(15)
H1 H 0.0888 0.1141 0.3641
C3 C 0.0913(3) 0.2801(3) 0.28706(15)
H2 H 0.0824 0.2240 0.2410
C4 C 0.1004(3) 0.4277(3) 0.28296(15)
C5 C 0.1168(3) 0.5138(3) 0.35022(16)
H3 H 0.1250 0.6141 0.3466
C6 C 0.1209(3) 0.4476(3) 0.42326(16)
H4 H 0.1318 0.5039 0.4694
C7 C 0.2646(3) 0.2115(3) 0.55720(15)
H5 H 0.3338 0.1858 0.5242
H6 H 0.2612 0.1311 0.5934
C8 C 0.3224(3) 0.3442(3) 0.60604(15)
C9 C 0.4397(3) 0.4235(3) 0.59152(16)
H7 H 0.4840 0.3961 0.5499
C10 C 0.4933(4) 0.5435(4) 0.63763(19)
H8 H 0.5720 0.5966 0.6264
C11 C 0.4310(4) 0.5840(4) 0.69955(19)
H9 H 0.4680 0.6637 0.7312
C12 C 0.3137(4) 0.5065(4) 0.71468(19)
H10 H 0.2704 0.5342 0.7566
C13 C 0.2590(3) 0.3874(3) 0.66831(16)
H11 H 0.1788 0.3360 0.6791
C14 C -0.0055(3) 0.1827(3) 0.52919(16)
C15 C -0.1547(4) 0.2031(3) 0.47419(17)
H12 H -0.1607 0.2433 0.4237
C16 C -0.2751(4) 0.1660(4) 0.4955(2)
H13 H -0.2702 0.1258 0.5459
H14 H -0.3669 0.1796 0.4604
Cl1 Cl 0.09117(12) 0.51004(11) 0.18992(5)
N1 N 0.1152(3) 0.2311(2) 0.50484(12)
O1 O 0.0044(3) 0.1269(2) 0.59589(12)
loop_
_geom_bond_atom_site_label_1
_geom_bond_atom_site_label_2
_geom_bond_site_symmetry_1
_geom_bond_site_symmetry_2
C1 C2 1_555 1_555
C2 H1 1_555 1_555
C3 C2 1_555 1_555
H2 C3 1_555 1_555
C4 C3 1_555 1_555
C5 C4 1_555 1_555
H3 C5 1_555 1_555
C6 C1 1_555 1_555
H4 C6 1_555 1_555
C7 H5 1_555 1_555
H6 C7 1_555 1_555
C8 C7 1_555 1_555
C9 C8 1_555 1_555
H7 C9 1_555 1_555
C10 C9 1_555 1_555
H8 C10 1_555 1_555
C11 C10 1_555 1_555
H9 C11 1_555 1_555
C12 C11 1_555 1_555
H10 C12 1_555 1_555
C13 C8 1_555 1_555
H11 C13 1_555 1_555
C14 C15 1_555 1_555
C15 H12 1_555 1_555
C16 C15 1_555 1_555
H13 C16 1_555 1_555
H14 C16 1_555 1_555
Cl1 C4 1_555 1_555
N1 C1 1_555 1_555
O1 C14 1_555 1_555
C5 C6 1_555 1_555
C7 N1 1_555 1_555
C12 C13 1_555 1_555
C14 N1 1_555 1_555

#END
