
#######################################################################
#
#                 Cambridge Crystallographic Data Centre
#                                CCDC 
#
#######################################################################
#
# If this CIF has been generated from an entry in the Cambridge 
# Structural Database, then it will include bibliographic, chemical, 
# crystal, experimental, refinement or atomic coordinate data resulting 
# from the CCDC's data processing and validation procedures.
#
#######################################################################

data_RITKEM
_chemical_formula_moiety         'C6 H8 N3 O2 1+,C6 H2 N3 O7 1-,H2 O1'
_chemical_name_systematic        
'(4-Nitrophenyl)hydrazinium 2,4,6-trinitrophenolate monohydrate'
_symmetry_cell_setting           monoclinic
_symmetry_space_group_name_H-M   'P 21/c'
_symmetry_Int_Tables_number      14
_space_group_name_Hall           '-P 2ybc'
loop_
_symmetry_equiv_pos_site_id
_symmetry_equiv_pos_as_xyz
1 x,y,z
2 -x,1/2+y,1/2-z
3 -x,-y,-z
4 x,1/2-y,1/2+z
_cell_length_a                   4.8483(3)
_cell_length_b                   28.798(2)
_cell_length_c                   11.6352(8)
_cell_angle_alpha                90
_cell_angle_beta                 101.3600(10)
_cell_angle_gamma                90
_cell_volume                     1592.7
_exptl_crystal_colour            yellow
_exptl_crystal_description       needle
_cell_formula_units_Z            4
loop_
_atom_site_label
_atom_site_type_symbol
_atom_site_fract_x
_atom_site_fract_y
_atom_site_fract_z
C1 C -0.3571(5) 0.67096(8) 0.4377(2)
C2 C -0.5710(5) 0.67706(9) 0.3408(2)
H1 H -0.5922 0.6562 0.2786
C3 C -0.7524(6) 0.71420(9) 0.3368(3)
H2 H -0.8968 0.7186 0.2722
C4 C -0.7169(6) 0.74447(8) 0.4294(3)
C5 C -0.5048(7) 0.73915(10) 0.5256(3)
H3 H -0.4836 0.7603 0.5870
C6 C -0.3246(6) 0.70235(10) 0.5302(3)
H4 H -0.1806 0.6983 0.5952
N1 N -0.2290(5) 0.59509(8) 0.3776(2)
H5 H -0.377(3) 0.5818(9) 0.394(2)
H6 H -0.078(3) 0.5783(8) 0.399(2)
H7 H -0.250(4) 0.6027(10) 0.3037(11)
N2 N -0.1620(5) 0.63550(8) 0.4446(2)
H8 H -0.069(6) 0.6290(11) 0.5132(14)
N3 N -0.9135(7) 0.78313(9) 0.4265(3)
O1 O -1.1132(6) 0.78583(8) 0.3443(3)
O2 O -0.8693(7) 0.81070(9) 0.5084(3)
C7 C 0.7836(5) 0.56180(8) 0.7388(2)
C8 C 0.6275(5) 0.59770(7) 0.7872(2)
C9 C 0.6776(5) 0.61004(7) 0.9025(2)
H9 H 0.5682 0.6327 0.9287
C10 C 0.8913(5) 0.58870(8) 0.9798(2)
C11 C 1.0603(5) 0.55567(8) 0.9429(2)
H10 H 1.2063 0.5420 0.9960
C12 C 1.0107(5) 0.54316(7) 0.8270(2)
N4 N 0.3991(4) 0.62195(7) 0.71219(19)
N5 N 0.9370(5) 0.60035(8) 1.10213(19)
N6 N 1.2004(4) 0.50850(7) 0.79502(19)
O3 O 0.7262(4) 0.54803(7) 0.63542(15)
O4 O 0.3387(6) 0.61246(9) 0.6108(2)
O5 O 0.2717(6) 0.65136(10) 0.7518(2)
O6 O 0.7656(5) 0.62597(7) 1.13576(17)
O7 O 1.1385(5) 0.58370(8) 1.16900(17)
O8 O 1.3571(5) 0.48802(8) 0.87253(19)
O9 O 1.2022(4) 0.50150(8) 0.69233(18)
O10 O 0.2853(4) 0.54747(6) 0.43546(16)
H11 H 0.264(7) 0.5203(5) 0.413(2)
H12 H 0.362(7) 0.5483(10) 0.5049(12)
loop_
_geom_bond_atom_site_label_1
_geom_bond_atom_site_label_2
_geom_bond_site_symmetry_1
_geom_bond_site_symmetry_2
C1 C2 1_555 1_555
C2 H1 1_555 1_555
C3 C2 1_555 1_555
H2 C3 1_555 1_555
C4 C3 1_555 1_555
C5 C4 1_555 1_555
H3 C5 1_555 1_555
C6 C1 1_555 1_555
H4 C6 1_555 1_555
N1 H5 1_555 1_555
H6 N1 1_555 1_555
H7 N1 1_555 1_555
N2 C1 1_555 1_555
H8 N2 1_555 1_555
N3 C4 1_555 1_555
O1 N3 1_555 1_555
O2 N3 1_555 1_555
C7 C8 1_555 1_555
C8 C9 1_555 1_555
C9 H9 1_555 1_555
C10 C9 1_555 1_555
C11 C10 1_555 1_555
H10 C11 1_555 1_555
C12 C7 1_555 1_555
N4 C8 1_555 1_555
N5 C10 1_555 1_555
N6 C12 1_555 1_555
O3 C7 1_555 1_555
O4 N4 1_555 1_555
O5 N4 1_555 1_555
O6 N5 1_555 1_555
O7 N5 1_555 1_555
O8 N6 1_555 1_555
O9 N6 1_555 1_555
O10 H11 1_555 1_555
H12 O10 1_555 1_555
C5 C6 1_555 1_555
N1 N2 1_555 1_555
C11 C12 1_555 1_555

#END
