
#######################################################################
#
#                 Cambridge Crystallographic Data Centre
#                                CCDC 
#
#######################################################################
#
# If this CIF has been generated from an entry in the Cambridge 
# Structural Database, then it will include bibliographic, chemical, 
# crystal, experimental, refinement or atomic coordinate data resulting 
# from the CCDC's data processing and validation procedures.
#
#######################################################################

data_RITQET
_chemical_formula_moiety         'C21 H28 O5'
_chemical_name_systematic        
'methyl 2-(6,6,9a-trimethyl-1,4-dioxo-1,3,4,5,5a,6,7,8,9,9a-decahydronaphtho[1,2-c]furan-3-yl)pent-4-enoate'
_symmetry_cell_setting           monoclinic
_symmetry_space_group_name_H-M   'C 2'
_symmetry_Int_Tables_number      5
_space_group_name_Hall           'C 2y'
loop_
_symmetry_equiv_pos_site_id
_symmetry_equiv_pos_as_xyz
1 x,y,z
2 -x,y,-z
3 1/2+x,1/2+y,z
4 1/2-x,1/2+y,-z
_cell_length_a                   22.8985(13)
_cell_length_b                   7.7484(5)
_cell_length_c                   13.0240(7)
_cell_angle_alpha                90
_cell_angle_beta                 121.076(3)
_cell_angle_gamma                90
_cell_volume                     1979.17
_exptl_crystal_colour            colorless
_exptl_crystal_description       needle
_cell_formula_units_Z            4
loop_
_atom_site_label
_atom_site_type_symbol
_atom_site_fract_x
_atom_site_fract_y
_atom_site_fract_z
O1 O 0.34192(12) 0.4917(4) 0.5956(2)
O2 O 0.40948(12) 0.7023(4) 0.3653(2)
O3 O 0.23380(14) 0.4042(5) 0.5168(3)
O4 O 0.40718(19) 0.2782(5) 0.4371(3)
O5 O 0.4550(2) 0.1614(6) 0.6188(4)
C1 C 0.21176(16) 0.5296(5) 0.2656(3)
C2 C 0.33529(16) 0.5859(5) 0.4219(3)
C3 C 0.27353(16) 0.5300(5) 0.3918(3)
C4 C 0.27701(19) 0.4674(6) 0.5019(3)
C5 C 0.35238(16) 0.6510(5) 0.3348(3)
C6 C 0.22570(16) 0.6782(5) 0.2003(3)
H1 H 0.2332 0.7813 0.2505
C7 C 0.38340(16) 0.5719(6) 0.5541(3)
H2 H 0.3951 0.6900 0.5876
C8 C 0.16584(17) 0.7298(6) 0.0738(3)
C9 C 0.08651(17) 0.6117(6) 0.1405(3)
H3 H 0.0761 0.5089 0.0901
H4 H 0.0461 0.6402 0.1447
C10 C 0.29456(17) 0.6508(7) 0.2071(3)
H5 H 0.2937 0.5405 0.1695
H6 H 0.3014 0.7430 0.1629
C11 C 0.44979(16) 0.4719(6) 0.5986(3)
H7 H 0.4756 0.5298 0.5666
C12 C 0.14650(16) 0.5726(6) 0.2669(3)
H8 H 0.1347 0.4749 0.3005
H9 H 0.1550 0.6729 0.3187
C13 C 0.10283(18) 0.7608(6) 0.0842(3)
H10 H 0.1103 0.8648 0.1323
H11 H 0.0634 0.7821 0.0039
C14 C 0.4379(2) 0.2861(7) 0.5552(4)
C15 C 0.2068(2) 0.3460(6) 0.2177(4)
H12 H 0.2449 0.3250 0.2065
H13 H 0.1644 0.3335 0.1416
H14 H 0.2079 0.2635 0.2747
C16 C 0.49425(19) 0.4749(7) 0.7363(3)
H15 H 0.4695 0.4182 0.7698
H16 H 0.5360 0.4086 0.7614
C17 C 0.51316(19) 0.6524(7) 0.7862(3)
H17 H 0.5380 0.7211 0.7625
C18 C 0.1503(2) 0.5989(8) -0.0240(3)
H18 H 0.1915 0.5745 -0.0251
H19 H 0.1159 0.6453 -0.1011
H20 H 0.1335 0.4932 -0.0083
C19 C 0.1833(2) 0.9022(8) 0.0383(4)
H21 H 0.2037 0.9789 0.1070
H22 H 0.1420 0.9542 -0.0260
H23 H 0.2151 0.8825 0.0114
C20 C 0.4974(3) 0.7182(10) 0.8605(5)
H24 H 0.4726 0.6527 0.8858
H25 H 0.5108 0.8315 0.8890
C21 C 0.3914(4) 0.0988(10) 0.3924(8)
H26 H 0.3778 0.0963 0.3085
H27 H 0.3545 0.0551 0.4012
H28 H 0.4315 0.0273 0.4383
loop_
_geom_bond_atom_site_label_1
_geom_bond_atom_site_label_2
_geom_bond_site_symmetry_1
_geom_bond_site_symmetry_2
O1 C4 1_555 1_555
O2 C5 1_555 1_555
O3 C4 1_555 1_555
O4 C14 1_555 1_555
O5 C14 1_555 1_555
C1 C3 1_555 1_555
C2 C3 1_555 1_555
C3 C4 1_555 1_555
C5 C2 1_555 1_555
C6 C1 1_555 1_555
H1 C6 1_555 1_555
C7 O1 1_555 1_555
H2 C7 1_555 1_555
C8 C6 1_555 1_555
C9 H3 1_555 1_555
H4 C9 1_555 1_555
C10 C5 1_555 1_555
H5 C10 1_555 1_555
H6 C10 1_555 1_555
C11 C7 1_555 1_555
H7 C11 1_555 1_555
C12 C1 1_555 1_555
H8 C12 1_555 1_555
H9 C12 1_555 1_555
C13 C8 1_555 1_555
H10 C13 1_555 1_555
H11 C13 1_555 1_555
C14 C11 1_555 1_555
C15 C1 1_555 1_555
H12 C15 1_555 1_555
H13 C15 1_555 1_555
H14 C15 1_555 1_555
C16 C11 1_555 1_555
H15 C16 1_555 1_555
H16 C16 1_555 1_555
C17 C16 1_555 1_555
H17 C17 1_555 1_555
C18 C8 1_555 1_555
H18 C18 1_555 1_555
H19 C18 1_555 1_555
H20 C18 1_555 1_555
C19 C8 1_555 1_555
H21 C19 1_555 1_555
H22 C19 1_555 1_555
H23 C19 1_555 1_555
C20 C17 1_555 1_555
H24 C20 1_555 1_555
H25 C20 1_555 1_555
C21 O4 1_555 1_555
H26 C21 1_555 1_555
H27 C21 1_555 1_555
H28 C21 1_555 1_555
C2 C7 1_555 1_555
C6 C10 1_555 1_555
C9 C12 1_555 1_555
C9 C13 1_555 1_555

#END
