
#######################################################################
#
#                 Cambridge Crystallographic Data Centre
#                                CCDC 
#
#######################################################################
#
# If this CIF has been generated from an entry in the Cambridge 
# Structural Database, then it will include bibliographic, chemical, 
# crystal, experimental, refinement or atomic coordinate data resulting 
# from the CCDC's data processing and validation procedures.
#
#######################################################################

data_RIVGUZ
_chemical_formula_moiety         'C19 H18 O6'
_chemical_name_systematic        6,4'-Dimethoxy-7-ethoxy-5-hydroxylisoflavone
_symmetry_cell_setting           orthorhombic
_symmetry_space_group_name_H-M   'P n a 21'
_symmetry_Int_Tables_number      33
_space_group_name_Hall           'P 2c -2n'
loop_
_symmetry_equiv_pos_site_id
_symmetry_equiv_pos_as_xyz
1 x,y,z
2 -x,-y,1/2+z
3 1/2+x,1/2-y,z
4 1/2-x,1/2+y,1/2+z
_cell_length_a                   7.0244(6)
_cell_length_b                   15.0104(15)
_cell_length_c                   15.7538(15)
_cell_angle_alpha                90
_cell_angle_beta                 90
_cell_angle_gamma                90
_cell_volume                     1661.07
_exptl_crystal_colour            yellow
_exptl_crystal_description       prism
_chemical_melting_point          451-453K
_cell_formula_units_Z            4
_exptl_crystal_recrystallization_method ethanol
loop_
_atom_site_label
_atom_site_type_symbol
_atom_site_fract_x
_atom_site_fract_y
_atom_site_fract_z
O1 O 0.8302(4) 0.65560(18) -0.02155(15)
O2 O 1.1832(3) 0.67384(14) 0.44203(13)
O3 O 0.6406(3) 0.60769(17) 0.37331(15)
O4 O 1.0326(3) 0.63940(14) 0.73433(13)
O5 O 0.6759(3) 0.59220(15) 0.69651(15)
O6 O 0.5585(3) 0.58583(17) 0.53192(15)
H1 H 0.5424 0.5843 0.4804
C1 C 0.7536(7) 0.5824(3) -0.0657(3)
H2 H 0.8251 0.5298 -0.0523
H3 H 0.7604 0.5935 -0.1257
H4 H 0.6232 0.5742 -0.0494
C2 C 0.8557(5) 0.6484(2) 0.0645(2)
C3 C 0.9482(4) 0.7194(2) 0.1020(2)
H5 H 0.9911 0.7666 0.0690
C4 C 0.9768(4) 0.7199(2) 0.1890(2)
H6 H 1.0383 0.7680 0.2141
C5 C 0.9152(4) 0.64979(19) 0.23924(19)
C6 C 0.8214(4) 0.57948(19) 0.1998(2)
H7 H 0.7782 0.5320 0.2324
C7 C 0.7910(5) 0.57852(19) 0.1133(2)
H8 H 0.7273 0.5311 0.0882
C8 C 1.1292(5) 0.6695(2) 0.3604(2)
H9 H 1.2215 0.6820 0.3198
C9 C 0.9545(4) 0.64900(19) 0.33185(19)
C10 C 0.8083(4) 0.62668(18) 0.39384(19)
C11 C 0.8674(4) 0.62974(19) 0.48168(19)
C12 C 1.0515(4) 0.65458(18) 0.5040(2)
C13 C 1.1152(4) 0.6608(2) 0.58670(19)
H10 H 1.2385 0.6792 0.5990
C14 C 0.9877(4) 0.63837(18) 0.65104(19)
C15 C 0.8006(4) 0.61203(18) 0.63168(19)
C16 C 0.7404(4) 0.60838(19) 0.5488(2)
C17 C 1.2180(5) 0.6718(2) 0.7589(2)
H11 H 1.2290 0.7348 0.7460
H12 H 1.3165 0.6401 0.7281
C18 C 1.2404(5) 0.6569(3) 0.8523(3)
H13 H 1.1385 0.6859 0.8820
H14 H 1.3600 0.6810 0.8708
H15 H 1.2371 0.5941 0.8640
C19 C 0.6714(5) 0.5001(3) 0.7176(3)
H16 H 0.6387 0.4660 0.6681
H17 H 0.5780 0.4901 0.7611
H18 H 0.7943 0.4819 0.7378
loop_
_geom_bond_atom_site_label_1
_geom_bond_atom_site_label_2
_geom_bond_site_symmetry_1
_geom_bond_site_symmetry_2
O1 C1 1_555 1_555
O2 C8 1_555 1_555
O3 C10 1_555 1_555
O4 C14 1_555 1_555
O5 C15 1_555 1_555
O6 H1 1_555 1_555
C1 H2 1_555 1_555
H3 C1 1_555 1_555
H4 C1 1_555 1_555
C2 O1 1_555 1_555
C3 C2 1_555 1_555
H5 C3 1_555 1_555
C4 C3 1_555 1_555
H6 C4 1_555 1_555
C5 C4 1_555 1_555
C6 C5 1_555 1_555
H7 C6 1_555 1_555
C7 C2 1_555 1_555
H8 C7 1_555 1_555
C8 H9 1_555 1_555
C9 C5 1_555 1_555
C10 C9 1_555 1_555
C11 C10 1_555 1_555
C12 O2 1_555 1_555
C13 C12 1_555 1_555
H10 C13 1_555 1_555
C14 C13 1_555 1_555
C15 C14 1_555 1_555
C16 O6 1_555 1_555
C17 O4 1_555 1_555
H11 C17 1_555 1_555
H12 C17 1_555 1_555
C18 C17 1_555 1_555
H13 C18 1_555 1_555
H14 C18 1_555 1_555
H15 C18 1_555 1_555
C19 O5 1_555 1_555
H16 C19 1_555 1_555
H17 C19 1_555 1_555
H18 C19 1_555 1_555
C6 C7 1_555 1_555
C8 C9 1_555 1_555
C11 C12 1_555 1_555
C11 C16 1_555 1_555
C15 C16 1_555 1_555

#END
