
#######################################################################
#
#                 Cambridge Crystallographic Data Centre
#                                CCDC 
#
#######################################################################
#
# If this CIF has been generated from an entry in the Cambridge 
# Structural Database, then it will include bibliographic, chemical, 
# crystal, experimental, refinement or atomic coordinate data resulting 
# from the CCDC's data processing and validation procedures.
#
#######################################################################

data_RIVGUB
_chemical_formula_moiety         'C24 H21 N3 O6 S1'
_chemical_name_systematic        
'N-(4-(4-(4,7a-dimethyl-3-oxo-1,3,5,6,7,7a-hexahydro-2-benzofuran-1-yl)-2-furyl)-1,3-thiazol-2-yl)-4-nitrobenzamide unknown solvate'
_symmetry_cell_setting           orthorhombic
_symmetry_space_group_name_H-M   'P 21 21 2'
_symmetry_Int_Tables_number      18
_space_group_name_Hall           'P 2 2ab'
loop_
_symmetry_equiv_pos_site_id
_symmetry_equiv_pos_as_xyz
1 x,y,z
2 -x,-y,z
3 1/2+x,1/2-y,-z
4 1/2-x,1/2+y,-z
_cell_length_a                   7.7045(4)
_cell_length_b                   28.4179(18)
_cell_length_c                   11.9139(8)
_cell_angle_alpha                90
_cell_angle_beta                 90
_cell_angle_gamma                90
_cell_volume                     2608.5
_exptl_crystal_colour            'light yellow'
_exptl_crystal_description       plate
_cell_formula_units_Z            4
loop_
_atom_site_label
_atom_site_type_symbol
_atom_site_fract_x
_atom_site_fract_y
_atom_site_fract_z
S1 S -0.01686(16) -0.36618(4) -0.12689(9)
O1 O 0.4184(5) -0.40457(14) -0.7725(3)
O2 O 0.4244(4) -0.32902(14) -0.7184(3)
O3 O 0.1862(5) -0.26951(11) -0.4072(3)
O4 O -0.1672(5) -0.44684(12) -0.0548(3)
O5 O -0.5399(6) -0.66546(14) -0.0809(5)
O6 O -0.5772(6) -0.65839(14) -0.2592(5)
N1 N -0.0072(5) -0.38256(12) -0.3390(3)
N2 N -0.1361(4) -0.44354(13) -0.2413(3)
H1 H -0.1546 -0.4576 -0.3041
N3 N -0.5233(6) -0.64454(17) -0.1698(6)
C1 C 0.3428(6) -0.3673(2) -0.7644(4)
C2 C 0.1658(6) -0.35390(15) -0.7951(4)
C3 C 0.0292(6) -0.38224(14) -0.8069(4)
C4 C -0.1486(6) -0.36196(18) -0.8223(4)
H2 H -0.2173 -0.3693 -0.7564
H3 H -0.2028 -0.3773 -0.8860
C5 C -0.1547(7) -0.30914(17) -0.8412(4)
H4 H -0.1295 -0.3024 -0.9193
H5 H -0.2706 -0.2977 -0.8250
C6 C -0.0255(6) -0.28385(15) -0.7676(4)
H6 H -0.0516 -0.2900 -0.6893
H7 H -0.0342 -0.2502 -0.7800
C7 C 0.1601(6) -0.30054(15) -0.7944(4)
C8 C 0.2995(7) -0.29104(19) -0.7037(4)
H8 H 0.3563 -0.2609 -0.7195
C9 C 0.0365(7) -0.43481(15) -0.7970(4)
H9 H 0.1545 -0.4445 -0.7855
H10 H -0.0073 -0.4488 -0.8647
H11 H -0.0331 -0.4448 -0.7345
C10 C 0.2250(7) -0.28013(16) -0.9063(4)
H12 H 0.3362 -0.2934 -0.9241
H13 H 0.2356 -0.2466 -0.8999
H14 H 0.1439 -0.2876 -0.9648
C11 C 0.2441(6) -0.29210(17) -0.5839(4)
C12 C 0.2510(8) -0.2559(2) -0.5106(5)
H15 H 0.2933 -0.2260 -0.5272
C13 C 0.1398(6) -0.31560(15) -0.4192(4)
C14 C 0.1682(6) -0.32987(16) -0.5238(4)
H16 H 0.1428 -0.3595 -0.5525
C15 C 0.0692(6) -0.33915(15) -0.3219(4)
C16 C 0.0733(6) -0.32428(16) -0.2133(4)
H17 H 0.1183 -0.2956 -0.1893
C17 C -0.0552(5) -0.39986(15) -0.2434(4)
C18 C -0.1881(6) -0.46558(17) -0.1441(5)
C19 C -0.2761(5) -0.51196(16) -0.1575(4)
C20 C -0.3221(6) -0.53567(17) -0.0575(5)
H18 H -0.2984 -0.5219 0.0116
C21 C -0.4010(7) -0.57853(18) -0.0614(5)
H19 H -0.4297 -0.5945 0.0041
C22 C -0.4366(6) -0.59742(17) -0.1640(6)
C23 C -0.3950(6) -0.57594(17) -0.2631(5)
H20 H -0.4214 -0.5900 -0.3315
C24 C -0.3120(6) -0.53239(16) -0.2589(5)
H21 H -0.2810 -0.5172 -0.3251
loop_
_geom_bond_atom_site_label_1
_geom_bond_atom_site_label_2
_geom_bond_site_symmetry_1
_geom_bond_site_symmetry_2
S1 C16 1_555 1_555
O1 C1 1_555 1_555
O2 C1 1_555 1_555
O3 C12 1_555 1_555
O4 C18 1_555 1_555
O5 N3 1_555 1_555
O6 N3 1_555 1_555
N1 C15 1_555 1_555
N2 H1 1_555 1_555
N3 C22 1_555 1_555
C1 C2 1_555 1_555
C2 C3 1_555 1_555
C3 C4 1_555 1_555
C4 H2 1_555 1_555
H3 C4 1_555 1_555
C5 C4 1_555 1_555
H4 C5 1_555 1_555
H5 C5 1_555 1_555
C6 C5 1_555 1_555
H6 C6 1_555 1_555
H7 C6 1_555 1_555
C7 C2 1_555 1_555
C8 O2 1_555 1_555
H8 C8 1_555 1_555
C9 C3 1_555 1_555
H9 C9 1_555 1_555
H10 C9 1_555 1_555
H11 C9 1_555 1_555
C10 C7 1_555 1_555
H12 C10 1_555 1_555
H13 C10 1_555 1_555
H14 C10 1_555 1_555
C11 C8 1_555 1_555
C12 C11 1_555 1_555
H15 C12 1_555 1_555
C13 O3 1_555 1_555
C14 C11 1_555 1_555
H16 C14 1_555 1_555
C15 C13 1_555 1_555
C16 C15 1_555 1_555
H17 C16 1_555 1_555
C17 S1 1_555 1_555
C18 N2 1_555 1_555
C19 C18 1_555 1_555
C20 C19 1_555 1_555
H18 C20 1_555 1_555
C21 C20 1_555 1_555
H19 C21 1_555 1_555
C22 C21 1_555 1_555
C23 C22 1_555 1_555
H20 C23 1_555 1_555
C24 C19 1_555 1_555
H21 C24 1_555 1_555
N1 C17 1_555 1_555
N2 C17 1_555 1_555
C6 C7 1_555 1_555
C7 C8 1_555 1_555
C13 C14 1_555 1_555
C23 C24 1_555 1_555

#END
