
#######################################################################
#
#                 Cambridge Crystallographic Data Centre
#                                CCDC 
#
#######################################################################
#
# If this CIF has been generated from an entry in the Cambridge 
# Structural Database, then it will include bibliographic, chemical, 
# crystal, experimental, refinement or atomic coordinate data resulting 
# from the CCDC's data processing and validation procedures.
#
#######################################################################

data_RIVHIP
_chemical_formula_moiety         'C9 H11 N3 S1,H2 O1'
_chemical_name_systematic        
'2-(1-phenylethylidene)hydrazinecarbothioamide monohydrate'
_symmetry_cell_setting           monoclinic
_symmetry_space_group_name_H-M   'P 2/n'
_symmetry_Int_Tables_number      13
_space_group_name_Hall           '-P 2yac'
loop_
_symmetry_equiv_pos_site_id
_symmetry_equiv_pos_as_xyz
1 x,y,z
2 1/2-x,y,1/2-z
3 -x,-y,-z
4 1/2+x,-y,1/2+z
_cell_length_a                   15.2988(14)
_cell_length_b                   5.8431(4)
_cell_length_c                   25.917(2)
_cell_angle_alpha                90
_cell_angle_beta                 97.044(9)
_cell_angle_gamma                90
_cell_volume                     2299.3
_cell_formula_units_Z            8
loop_
_atom_site_label
_atom_site_type_symbol
_atom_site_fract_x
_atom_site_fract_y
_atom_site_fract_z
S1 S 0.86954(7) 1.44973(18) 0.51607(4)
N1 N 0.8152(3) 1.0597(7) 0.47233(17)
H1 H 0.821(4) 0.962(9) 0.453(2)
H2 H 0.762(4) 1.067(9) 0.491(2)
N2 N 0.9463(2) 1.1878(5) 0.45145(12)
H3 H 0.9911 1.2779 0.4554
N3 N 0.9421(2) 1.0053(5) 0.41739(12)
C1 C 0.8772(2) 1.2182(7) 0.47815(14)
C2 C 1.0060(2) 0.9659(6) 0.39077(14)
C3 C 1.0894(3) 1.0999(9) 0.39475(19)
H4 H 1.0762 1.2604 0.3954
H5 H 1.1198 1.0670 0.3653
H6 H 1.1261 1.0586 0.4261
C4 C 0.9920(2) 0.7694(6) 0.35452(13)
C5 C 0.9189(3) 0.6298(9) 0.35342(19)
H7 H 0.8779 0.6583 0.3763
C6 C 0.9055(4) 0.4502(9) 0.3193(2)
H8 H 0.8561 0.3578 0.3199
C7 C 0.9625(4) 0.4051(9) 0.28503(17)
H9 H 0.9524 0.2846 0.2616
C8 C 1.0347(4) 0.5379(9) 0.28520(19)
H10 H 1.0748 0.5067 0.2619
C9 C 1.0503(3) 0.7194(8) 0.31936(16)
H11 H 1.1004 0.8086 0.3186
S2 S 0.36922(8) 0.97246(19) 0.47416(5)
N4 N 0.3405(3) 0.5506(7) 0.4389(2)
H12 H 0.362(4) 0.443(11) 0.429(2)
H13 H 0.274(4) 0.556(10) 0.445(2)
N5 N 0.4806(2) 0.6846(5) 0.44054(13)
H14 H 0.5216 0.7787 0.4521
N6 N 0.4999(2) 0.4938(5) 0.41204(13)
C10 C 0.3978(3) 0.7201(7) 0.44969(16)
C11 C 0.5804(3) 0.4622(6) 0.40434(14)
C12 C 0.6561(3) 0.6086(9) 0.42606(18)
H15 H 0.6465 0.7628 0.4139
H16 H 0.7094 0.5508 0.4149
H17 H 0.6611 0.6063 0.4633
C13 C 0.5957(3) 0.2636(6) 0.37056(13)
C14 C 0.6763(3) 0.2255(8) 0.35404(18)
H18 H 0.7233 0.3215 0.3653
C15 C 0.6888(4) 0.0446(9) 0.3205(2)
H19 H 0.7439 0.0215 0.3098
C16 C 0.6213(4) -0.0978(9) 0.30355(18)
H20 H 0.6296 -0.2162 0.2807
C17 C 0.5408(4) -0.0657(8) 0.32039(17)
H21 H 0.4949 -0.1659 0.3097
C18 C 0.5271(3) 0.1143(8) 0.35305(15)
H22 H 0.4717 0.1362 0.3635
O1 O 0.7176(7) 0.749(3) 0.6908(5)
O2 O 0.2889(11) 0.937(3) 0.3170(9)
O3? O 0.2632(7) 0.749(3) 0.2692(4)
O4? O 0.7395(10) 0.778(4) 0.7290(6)
loop_
_geom_bond_atom_site_label_1
_geom_bond_atom_site_label_2
_geom_bond_site_symmetry_1
_geom_bond_site_symmetry_2
S1 C1 1_555 1_555
N1 H1 1_555 1_555
H2 N1 1_555 1_555
N2 H3 1_555 1_555
N3 N2 1_555 1_555
C1 N1 1_555 1_555
C2 N3 1_555 1_555
C3 C2 1_555 1_555
H4 C3 1_555 1_555
H5 C3 1_555 1_555
H6 C3 1_555 1_555
C4 C2 1_555 1_555
C5 C4 1_555 1_555
H7 C5 1_555 1_555
C6 C5 1_555 1_555
H8 C6 1_555 1_555
C7 C6 1_555 1_555
H9 C7 1_555 1_555
C8 C7 1_555 1_555
H10 C8 1_555 1_555
C9 C4 1_555 1_555
H11 C9 1_555 1_555
S2 C10 1_555 1_555
N4 H12 1_555 1_555
H13 N4 1_555 1_555
N5 H14 1_555 1_555
N6 N5 1_555 1_555
C10 N4 1_555 1_555
C11 N6 1_555 1_555
C12 C11 1_555 1_555
H15 C12 1_555 1_555
H16 C12 1_555 1_555
H17 C12 1_555 1_555
C13 C11 1_555 1_555
C14 C13 1_555 1_555
H18 C14 1_555 1_555
C15 C14 1_555 1_555
H19 C15 1_555 1_555
C16 C15 1_555 1_555
H20 C16 1_555 1_555
C17 C16 1_555 1_555
H21 C17 1_555 1_555
C18 C13 1_555 1_555
H22 C18 1_555 1_555
N2 C1 1_555 1_555
C8 C9 1_555 1_555
N5 C10 1_555 1_555
C17 C18 1_555 1_555

#END
