
#######################################################################
#
#                 Cambridge Crystallographic Data Centre
#                                CCDC 
#
#######################################################################
#
# If this CIF has been generated from an entry in the Cambridge 
# Structural Database, then it will include bibliographic, chemical, 
# crystal, experimental, refinement or atomic coordinate data resulting 
# from the CCDC's data processing and validation procedures.
#
#######################################################################

data_RIVHUZ
_chemical_formula_moiety         'C28 H28 Cl1 N3 O4'
_chemical_name_systematic        
'1-t-Butyl-4-(3(S)-butanoic acid)-7-(4-cyanophenyl)ethynyl-9-chloro-3,4-dihydro-1H-1,4-benzodiazepine-2,5-dione ethyl ester'
_symmetry_cell_setting           monoclinic
_symmetry_space_group_name_H-M   'P 21'
_symmetry_Int_Tables_number      4
_space_group_name_Hall           'P 2yb'
loop_
_symmetry_equiv_pos_site_id
_symmetry_equiv_pos_as_xyz
1 x,y,z
2 -x,1/2+y,-z
_cell_length_a                   9.2135(16)
_cell_length_b                   10.5830(20)
_cell_length_c                   13.7750(23)
_cell_angle_alpha                90
_cell_angle_beta                 94.122(14)
_cell_angle_gamma                90
_cell_volume                     1339.68
_cell_formula_units_Z            2
loop_
_atom_site_label
_atom_site_type_symbol
_atom_site_fract_x
_atom_site_fract_y
_atom_site_fract_z
Cl1 Cl -0.34625(1) 0.0000 0.16940(1)
O1 O 0.1247(2) 0.3002(2) -0.0394(1)
O2 O -0.3407(2) 0.0798(2) -0.1611(1)
O3 O 0.0661(2) 0.3028(2) -0.3976(1)
O4 O -0.1513(2) 0.2246(2) -0.4475(1)
N1 N 0.0064(2) 0.1364(2) -0.1172(1)
N2 N -0.2568(2) 0.1401(2) -0.0080(1)
N3 N 0.8467(2) -0.1314(2) 0.6739(2)
C1 C 0.0474(2) 0.2056(2) -0.0376(2)
C2 C -0.0008(2) 0.1553(2) 0.0570(2)
C3 C 0.1061(2) 0.1377(2) 0.1318(2)
C4 C 0.0734(2) 0.0801(2) 0.2188(2)
C5 C -0.0679(2) 0.0404(2) 0.2287(2)
C6 C -0.1745(2) 0.0591(2) 0.1546(1)
C7 C -0.1441(2) 0.1194(2) 0.0678(2)
C8 C -0.2433(2) 0.0804(2) -0.0961(2)
C9 C -0.0939(2) 0.0285(2) -0.1100(1)
C10 C 0.0528(2) 0.1738(2) -0.2134(2)
C11 C -0.0801(2) 0.2038(2) -0.2820(2)
C12 C -0.0439(2) 0.2494(2) -0.3807(2)
C13 C 0.1505(3) 0.0734(3) -0.2523(2)
C14 C -0.1327(3) 0.2696(3) -0.5457(2)
C15 C -0.2653(3) 0.2338(3) -0.6068(2)
C16 C -0.3623(2) 0.2496(2) -0.0016(2)
C17 C -0.5189(3) 0.2046(3) -0.0150(2)
C18 C -0.3295(3) 0.3439(2) -0.0804(2)
C19 C -0.3373(3) 0.3148(2) 0.0964(2)
C20 C 0.1847(2) 0.0550(2) 0.2949(2)
C21 C 0.2784(2) 0.0298(2) 0.3565(2)
C22 C 0.3951(2) -0.0032(2) 0.4265(1)
C23 C 0.4036(3) 0.0435(2) 0.5210(2)
C24 C 0.5193(3) 0.0128(2) 0.5859(2)
C25 C 0.6270(2) -0.0666(2) 0.5568(2)
C26 C 0.6202(2) -0.1144(2) 0.4624(2)
C27 C 0.5047(3) -0.0835(2) 0.3988(2)
C28 C 0.7492(3) -0.1020(2) 0.6230(2)
loop_
_geom_bond_atom_site_label_1
_geom_bond_atom_site_label_2
_geom_bond_site_symmetry_1
_geom_bond_site_symmetry_2
Cl1 C6 1_555 1_555
O1 C1 1_555 1_555
O2 C8 1_555 1_555
O3 C12 1_555 1_555
O4 C12 1_555 1_555
N1 C1 1_555 1_555
N2 C7 1_555 1_555
N3 C28 1_555 1_555
C1 C2 1_555 1_555
C2 C3 1_555 1_555
C3 C4 1_555 1_555
C4 C5 1_555 1_555
C5 C6 1_555 1_555
C6 C7 1_555 1_555
C7 C2 1_555 1_555
C8 N2 1_555 1_555
C9 N1 1_555 1_555
C10 N1 1_555 1_555
C11 C10 1_555 1_555
C12 C11 1_555 1_555
C13 C10 1_555 1_555
C14 O4 1_555 1_555
C15 C14 1_555 1_555
C16 N2 1_555 1_555
C17 C16 1_555 1_555
C18 C16 1_555 1_555
C19 C16 1_555 1_555
C20 C4 1_555 1_555
C21 C20 1_555 1_555
C22 C21 1_555 1_555
C23 C22 1_555 1_555
C24 C23 1_555 1_555
C25 C24 1_555 1_555
C26 C25 1_555 1_555
C27 C22 1_555 1_555
C28 C25 1_555 1_555
C8 C9 1_555 1_555
C26 C27 1_555 1_555

#END
