
#######################################################################
#
#                 Cambridge Crystallographic Data Centre
#                                CCDC 
#
#######################################################################
#
# If this CIF has been generated from an entry in the Cambridge 
# Structural Database, then it will include bibliographic, chemical, 
# crystal, experimental, refinement or atomic coordinate data resulting 
# from the CCDC's data processing and validation procedures.
#
#######################################################################

data_RIVJEM
_chemical_compound_source        'Dictamnus radicis Cortex root'
_chemical_name_common            '(2R,5S,7R,9S)-Dictamdiol monohydrate'
_chemical_formula_moiety         'C15 H18 O5,H2 O1'
_chemical_name_systematic        
'1-(3-Furyl)-4,6-dihydroxy-5,8a-dimethyl-1,4,6,7,8,8a-hexahydro-3H-isochromen-3-one monohydrate'
_symmetry_cell_setting           monoclinic
_symmetry_space_group_name_H-M   'P 21'
_symmetry_Int_Tables_number      4
_space_group_name_Hall           'P 2yb'
loop_
_symmetry_equiv_pos_site_id
_symmetry_equiv_pos_as_xyz
1 x,y,z
2 -x,1/2+y,-z
_cell_length_a                   11.0906(6)
_cell_length_b                   9.1801(5)
_cell_length_c                   15.5766(8)
_cell_angle_alpha                90
_cell_angle_beta                 109.752(2)
_cell_angle_gamma                90
_cell_volume                     1492.59
_cell_formula_units_Z            4
loop_
_atom_site_label
_atom_site_type_symbol
_atom_site_fract_x
_atom_site_fract_y
_atom_site_fract_z
O1 O 0.8782(3) 0.5329(3) 0.3730(2)
C1 C 0.7988(4) 0.0812(5) 0.3361(3)
C2 C 0.7827(4) 0.3146(5) 0.4180(3)
C3 C 0.8294(4) 0.2209(5) 0.3547(3)
C4 C 0.7594(4) 0.4718(5) 0.3779(3)
H1 H 0.6972 0.4664 0.3159
C5 C 0.9562(4) 0.4459(6) 0.3448(3)
C6 C 0.9058(4) 0.2992(5) 0.3040(3)
H2 H 0.9770 0.2376 0.3020
C7 C 0.6989(5) 0.0078(5) 0.3651(3)
H3 H 0.7292 -0.0897 0.3879
C8 C 0.6647(5) 0.0914(5) 0.4395(4)
H4 H 0.5831 0.0566 0.4415
H5 H 0.7291 0.0718 0.4984
C9 C 0.6565(5) 0.2540(5) 0.4230(4)
H6 H 0.6363 0.3021 0.4719
H7 H 0.5879 0.2746 0.3662
O4 O 0.5848(4) 0.7258(4) 0.4766(3)
C23 C 0.7122(4) 0.5794(5) 0.4304(3)
C24 C 0.7873(6) 0.6565(6) 0.5112(4)
H18 H 0.8752 0.6483 0.5408
C25 C 0.7068(7) 0.7423(7) 0.5360(4)
H19 H 0.7307 0.8040 0.5863
C26 C 0.5915(6) 0.6254(6) 0.4124(4)
H20 H 0.5218 0.5941 0.3633
O5 O 0.8169(3) 0.3206(4) 0.2134(2)
H21 H 0.8554 0.3505 0.1803
O6 O 1.0607(3) 0.4900(4) 0.3507(2)
O7 O 0.5856(3) -0.0063(4) 0.2845(2)
H22 H 0.5762 0.0680 0.2537
C27 C 0.8508(5) -0.0126(6) 0.2773(4)
H23 H 0.9069 0.0443 0.2553
H24 H 0.7811 -0.0489 0.2265
H25 H 0.8974 -0.0929 0.3126
C28 C 0.8884(5) 0.3174(6) 0.5138(3)
H27 H 0.9075 0.2196 0.5361
H28 H 0.8586 0.3723 0.5552
H29 H 0.9644 0.3620 0.5094
O2 O 0.1873(3) -0.0085(4) 0.0201(2)
C10 C 0.2381(4) 0.3014(5) 0.0531(3)
C11 C 0.1943(4) 0.2066(5) 0.1172(3)
C12 C 0.2461(4) 0.2255(5) -0.0311(3)
H8 H 0.2118 0.2892 -0.0843
C13 C 0.2437(4) 0.0495(5) 0.1129(3)
H9 H 0.3367 0.0545 0.1272
C14 C 0.1777(4) 0.0805(6) -0.0496(3)
O3 O 0.2370(4) -0.2034(4) 0.2936(3)
C15 C 0.2173(4) -0.0592(5) 0.1756(3)
C16 C 0.0971(5) -0.1347(6) 0.1622(4)
H10 H 0.0221 -0.1259 0.1123
C17 C 0.1150(5) -0.2189(6) 0.2350(4)
H11 H 0.0533 -0.2792 0.2445
C18 C 0.2965(5) -0.1066(6) 0.2543(4)
H12 H 0.3816 -0.0779 0.2798
C19 C 0.2774(4) 0.4391(5) 0.0691(3)
C20 C 0.2338(5) 0.4277(5) 0.2188(4)
H13 H 0.2694 0.4607 0.2815
H14 H 0.1431 0.4509 0.1967
C21 C 0.2996(4) 0.5072(5) 0.1611(3)
H15 H 0.2678 0.6077 0.1520
C22 C 0.2509(5) 0.2640(5) 0.2153(3)
H16 H 0.2089 0.2165 0.2532
H17 H 0.3414 0.2404 0.2395
O8 O 0.3789(3) 0.1926(4) -0.0168(2)
H26 H 0.4248 0.2391 0.0270
O9 O 0.1141(4) 0.0405(4) -0.1267(2)
C29 C 0.0466(4) 0.2072(6) 0.0863(4)
H30 H 0.0190 0.1456 0.1260
H31 H 0.0121 0.1715 0.0249
H32 H 0.0169 0.3047 0.0889
O10 O 0.4372(3) 0.5109(4) 0.2075(2)
H33 H 0.4691 0.4353 0.1969
C30 C 0.3169(6) 0.5319(6) 0.0034(4)
H34 H 0.4031 0.5082 0.0079
H35 H 0.3123 0.6329 0.0181
H36 H 0.2604 0.5139 -0.0576
O11 O 0.4244(7) 0.2444(8) 0.8284(5)
H37 H 0.445(6) 0.188(7) 0.798(5)
H38 H 0.501(7) 0.279(8) 0.856(5)
O12 O 0.5548(4) 0.2484(5) 0.1639(3)
loop_
_geom_bond_atom_site_label_1
_geom_bond_atom_site_label_2
_geom_bond_site_symmetry_1
_geom_bond_site_symmetry_2
O1 C4 1_555 1_555
C1 C3 1_555 1_555
C2 C3 1_555 1_555
C3 C6 1_555 1_555
C4 C2 1_555 1_555
H1 C4 1_555 1_555
C5 O1 1_555 1_555
C6 C5 1_555 1_555
H2 C6 1_555 1_555
C7 C1 1_555 1_555
H3 C7 1_555 1_555
C8 C7 1_555 1_555
H4 C8 1_555 1_555
H5 C8 1_555 1_555
C9 C2 1_555 1_555
H6 C9 1_555 1_555
H7 C9 1_555 1_555
O2 C13 1_555 1_555
C10 C11 1_555 1_555
C11 C13 1_555 1_555
C12 C10 1_555 1_555
H8 C12 1_555 1_555
C13 H9 1_555 1_555
C14 O2 1_555 1_555
O3 C17 1_555 1_555
C15 C13 1_555 1_555
C16 C15 1_555 1_555
H10 C16 1_555 1_555
C17 C16 1_555 1_555
H11 C17 1_555 1_555
C18 O3 1_555 1_555
H12 C18 1_555 1_555
C19 C10 1_555 1_555
C20 H13 1_555 1_555
H14 C20 1_555 1_555
C21 C19 1_555 1_555
H15 C21 1_555 1_555
C22 C11 1_555 1_555
H16 C22 1_555 1_555
H17 C22 1_555 1_555
O4 C25 1_555 1_555
C23 C4 1_555 1_555
C24 C23 1_555 1_555
H18 C24 1_555 1_555
C25 C24 1_555 1_555
H19 C25 1_555 1_555
C26 O4 1_555 1_555
H20 C26 1_555 1_555
O5 C6 1_555 1_555
H21 O5 1_555 1_555
O6 C5 1_555 1_555
O7 C7 1_555 1_555
H22 O7 1_555 1_555
C27 C1 1_555 1_555
H23 C27 1_555 1_555
H24 C27 1_555 1_555
H25 C27 1_555 1_555
O8 C12 1_555 1_555
H26 O8 1_555 1_555
O9 C14 1_555 1_555
C28 C2 1_555 1_555
H27 C28 1_555 1_555
H28 C28 1_555 1_555
H29 C28 1_555 1_555
C29 C11 1_555 1_555
H30 C29 1_555 1_555
H31 C29 1_555 1_555
H32 C29 1_555 1_555
O10 C21 1_555 1_555
H33 O10 1_555 1_555
C30 C19 1_555 1_555
H34 C30 1_555 1_555
H35 C30 1_555 1_555
H36 C30 1_555 1_555
O11 H37 1_555 1_555
H38 O11 1_555 1_555
C8 C9 1_555 1_555
C12 C14 1_555 1_555
C15 C18 1_555 1_555
C20 C21 1_555 1_555
C20 C22 1_555 1_555
C23 C26 1_555 1_555

#END
