
#######################################################################
#
#                 Cambridge Crystallographic Data Centre
#                                CCDC 
#
#######################################################################
#
# If this CIF has been generated from an entry in the Cambridge 
# Structural Database, then it will include bibliographic, chemical, 
# crystal, experimental, refinement or atomic coordinate data resulting 
# from the CCDC's data processing and validation procedures.
#
#######################################################################

data_RIVRIZ
_chemical_name_common            'Sumalarin A'
_chemical_formula_moiety         'C20 H26 O8 S1'
_chemical_name_systematic        
'Methyl 3-((11,13-dihydroxy-4-methyl-2,10-dioxo-1,4,5,6,7,8,9,10-octahydro-2H-3-benzoxacyclododecin-8-yl)sulfanyl)-2-hydroxypropanoate'
_symmetry_cell_setting           orthorhombic
_symmetry_space_group_name_H-M   'P 21 21 21'
_symmetry_Int_Tables_number      19
_space_group_name_Hall           'P 2ac 2ab'
loop_
_symmetry_equiv_pos_site_id
_symmetry_equiv_pos_as_xyz
1 x,y,z
2 1/2-x,-y,1/2+z
3 -x,1/2+y,1/2-z
4 1/2+x,1/2-y,-z
_cell_length_a                   9.2491(7)
_cell_length_b                   14.3509(13)
_cell_length_c                   15.8699(13)
_cell_angle_alpha                90
_cell_angle_beta                 90
_cell_angle_gamma                90
_cell_volume                     2106.46
_cell_formula_units_Z            4
loop_
_atom_site_label
_atom_site_type_symbol
_atom_site_fract_x
_atom_site_fract_y
_atom_site_fract_z
O1 O 0.5519(4) 0.6194(3) 0.6786(3)
O2 O 0.7462(4) 0.7047(3) 0.7096(3)
O3 O 0.3433(5) 0.8317(3) 0.5630(3)
O4 O 0.0076(4) 0.7167(4) 0.6466(3)
H1 H -0.0710 0.7098 0.6697
O5 O 0.1637(4) 0.7045(3) 0.9321(2)
H2 H 0.2381 0.6939 0.9585
O6 O 0.0783(5) 0.4638(3) 0.6866(2)
O7 O 0.2301(5) 0.3585(3) 0.6310(3)
O8 O 0.0438(5) 0.3316(3) 0.4994(2)
H3 H -0.0100 0.2880 0.5108
S1 S 0.19590(15) 0.51713(11) 0.45481(9)
C1 C 0.6180(7) 0.6963(5) 0.7017(4)
C2 C 0.5172(6) 0.7762(4) 0.7140(4)
H4 H 0.5157 0.8126 0.6625
H5 H 0.5560 0.8157 0.7582
C3 C 0.3617(6) 0.7515(4) 0.7369(4)
C4 C 0.2528(5) 0.7432(4) 0.6770(3)
C5 C 0.1128(6) 0.7226(4) 0.7060(4)
C6 C 0.0827(6) 0.7109(4) 0.7903(4)
H6 H -0.0112 0.6991 0.8083
C7 C 0.1965(7) 0.7172(4) 0.8484(3)
C8 C 0.3350(6) 0.7357(4) 0.8204(4)
H7 H 0.4109 0.7374 0.8588
C9 C 0.2784(6) 0.7626(4) 0.5849(3)
C10 C 0.2252(6) 0.6948(4) 0.5189(3)
H8 H 0.2473 0.7197 0.4636
H9 H 0.1209 0.6898 0.5234
C11 C 0.2902(6) 0.5976(4) 0.5258(3)
H10 H 0.2825 0.5752 0.5840
C12 C 0.4509(6) 0.5984(4) 0.4981(4)
H11 H 0.4542 0.6137 0.4386
H12 H 0.4992 0.6484 0.5281
C13 C 0.5374(7) 0.5099(5) 0.5114(4)
H13 H 0.4920 0.4606 0.4790
H14 H 0.6331 0.5196 0.4881
C14 C 0.5545(7) 0.4760(5) 0.6011(4)
H15 H 0.5982 0.4146 0.5996
H16 H 0.4590 0.4693 0.6255
C15 C 0.6440(7) 0.5371(5) 0.6590(5)
H17 H 0.7303 0.5581 0.6287
C16 C 0.6900(8) 0.4937(5) 0.7419(5)
H18 H 0.6058 0.4773 0.7740
H19 H 0.7471 0.5375 0.7731
H20 H 0.7462 0.4388 0.7310
C17 C 0.1225(7) 0.4047(4) 0.6279(4)
C18 C 0.0154(6) 0.4072(4) 0.5545(4)
H21 H -0.0827 0.4003 0.5770
C19 C 0.0239(6) 0.4979(4) 0.5058(3)
H22 H 0.0054 0.5491 0.5442
H23 H -0.0515 0.4984 0.4634
C20 C 0.1688(8) 0.4694(5) 0.7621(4)
H24 H 0.1884 0.4078 0.7825
H25 H 0.1192 0.5044 0.8049
H26 H 0.2582 0.4999 0.7485
loop_
_geom_bond_atom_site_label_1
_geom_bond_atom_site_label_2
_geom_bond_site_symmetry_1
_geom_bond_site_symmetry_2
O1 C1 1_555 1_555
O2 C1 1_555 1_555
O3 C9 1_555 1_555
O4 H1 1_555 1_555
O5 H2 1_555 1_555
O6 C17 1_555 1_555
O7 C17 1_555 1_555
O8 H3 1_555 1_555
S1 C11 1_555 1_555
C1 C2 1_555 1_555
C2 H4 1_555 1_555
H5 C2 1_555 1_555
C3 C2 1_555 1_555
C4 C3 1_555 1_555
C5 O4 1_555 1_555
C6 C5 1_555 1_555
H6 C6 1_555 1_555
C7 O5 1_555 1_555
C8 C3 1_555 1_555
H7 C8 1_555 1_555
C9 C4 1_555 1_555
C10 C9 1_555 1_555
H8 C10 1_555 1_555
H9 C10 1_555 1_555
C11 C10 1_555 1_555
H10 C11 1_555 1_555
C12 C11 1_555 1_555
H11 C12 1_555 1_555
H12 C12 1_555 1_555
C13 C12 1_555 1_555
H13 C13 1_555 1_555
H14 C13 1_555 1_555
C14 C13 1_555 1_555
H15 C14 1_555 1_555
H16 C14 1_555 1_555
C15 O1 1_555 1_555
H17 C15 1_555 1_555
C16 C15 1_555 1_555
H18 C16 1_555 1_555
H19 C16 1_555 1_555
H20 C16 1_555 1_555
C17 C18 1_555 1_555
C18 O8 1_555 1_555
H21 C18 1_555 1_555
C19 S1 1_555 1_555
H22 C19 1_555 1_555
H23 C19 1_555 1_555
C20 O6 1_555 1_555
H24 C20 1_555 1_555
H25 C20 1_555 1_555
H26 C20 1_555 1_555
C4 C5 1_555 1_555
C6 C7 1_555 1_555
C7 C8 1_555 1_555
C14 C15 1_555 1_555
C18 C19 1_555 1_555

#END
