
#######################################################################
#
#                 Cambridge Crystallographic Data Centre
#                                CCDC 
#
#######################################################################
#
# If this CIF has been generated from an entry in the Cambridge 
# Structural Database, then it will include bibliographic, chemical, 
# crystal, experimental, refinement or atomic coordinate data resulting 
# from the CCDC's data processing and validation procedures.
#
#######################################################################

data_RIVTIB
_chemical_name_common            'Sculponin O'
_chemical_formula_moiety         'C20 H26 O7'
_chemical_name_systematic        
3,5,7-Trihydroxy-14-methyl-6-methylene-10,16,18-trioxahexacyclo[12.5.1.1^5,8^.0^1,11^.0^2,8^.0^17,20^]henicosan-9-one
_symmetry_cell_setting           orthorhombic
_symmetry_space_group_name_H-M   'P 21 21 21'
_symmetry_Int_Tables_number      19
_space_group_name_Hall           'P 2ac 2ab'
loop_
_symmetry_equiv_pos_site_id
_symmetry_equiv_pos_as_xyz
1 x,y,z
2 1/2+x,1/2-y,-z
3 -x,1/2+y,1/2-z
4 1/2-x,-y,1/2+z
_cell_length_a                   7.6702(2)
_cell_length_b                   10.8110(2)
_cell_length_c                   22.0770(4)
_cell_angle_alpha                90
_cell_angle_beta                 90
_cell_angle_gamma                90
_cell_volume                     1830.68
_exptl_crystal_colour            colorless
_exptl_crystal_description       prism
_cell_formula_units_Z            4
loop_
_atom_site_label
_atom_site_type_symbol
_atom_site_fract_x
_atom_site_fract_y
_atom_site_fract_z
O1 O 0.2094(2) 0.51831(13) 0.98718(6)
O2 O 0.2023(2) 1.25602(13) 0.82891(7)
H1 H 0.2772 1.2842 0.8048
O3 O 0.5631(2) 0.86840(14) 0.75069(7)
O4 O 0.35322(19) 0.73942(13) 0.77237(6)
O5 O 0.40895(19) 0.67353(13) 0.95934(6)
O6 O -0.03323(18) 0.91110(14) 0.85034(6)
H2 H -0.1343 0.9262 0.8630
O7 O 0.63667(18) 0.95523(13) 0.89286(6)
H3 H 0.6295 0.9879 0.9273
C1 C 0.5012(3) 1.2083(2) 0.91647(11)
H4 H 0.6147 1.1944 0.9323
H5 H 0.4356 1.2780 0.9295
C2 C 0.4346(3) 1.13098(18) 0.87646(9)
C3 C 0.5239(3) 1.01767(18) 0.85211(9)
H6 H 0.5949 1.0436 0.8163
C4 C 0.3705(3) 0.93760(17) 0.82846(8)
C5 C 0.2637(3) 0.88164(17) 0.88269(8)
H7 H 0.3367 0.8945 0.9197
C6 C 0.2444(3) 0.73989(17) 0.87536(8)
C7 C 0.1165(3) 0.68194(17) 0.92184(8)
H8 H 0.0278 0.7444 0.9348
C8 C 0.2346(3) 0.64691(18) 0.97568(9)
H9 H 0.2012 0.6961 1.0122
C9 C 0.2530(3) 1.13714(18) 0.84813(9)
C10 C 0.2664(3) 1.04148(18) 0.79654(8)
H10 H 0.3303 1.0750 0.7612
H11 H 0.1499 1.0125 0.7834
C11 C 0.4364(3) 0.84521(19) 0.78167(9)
C12 C 0.1996(3) 0.71029(19) 0.80973(9)
H12 H 0.0996 0.7632 0.7966
C13 C 0.1558(3) 0.5763(2) 0.79806(9)
H13 H 0.2562 0.5233 0.8091
H14 H 0.1301 0.5638 0.7545
C14 C -0.0025(3) 0.5410(2) 0.83597(9)
H15 H -0.0319 0.4534 0.8280
H16 H -0.1030 0.5920 0.8231
C15 C 0.0255(3) 0.55835(18) 0.90433(9)
C16 C -0.1519(3) 0.55032(19) 0.93615(10)
H17 H -0.2102 0.4732 0.9246
H18 H -0.2242 0.6209 0.9241
H19 H -0.1347 0.5518 0.9801
C17 C 0.4192(3) 0.68046(19) 0.89448(9)
H20 H 0.4322 0.5970 0.8765
H21 H 0.5190 0.7324 0.8817
C18 C 0.0913(3) 0.95090(18) 0.89433(8)
H22 H 0.0476 0.9268 0.9353
C19 C 0.1146(3) 1.09246(18) 0.89325(9)
H23 H 0.0016 1.1312 0.8829
H24 H 0.1473 1.1208 0.9344
C20 C 0.1471(3) 0.46230(18) 0.93208(9)
H25 H 0.0835 0.3847 0.9409
H26 H 0.2451 0.4437 0.9044
loop_
_geom_bond_atom_site_label_1
_geom_bond_atom_site_label_2
_geom_bond_site_symmetry_1
_geom_bond_site_symmetry_2
O1 C8 1_555 1_555
O2 H1 1_555 1_555
O3 C11 1_555 1_555
O4 C11 1_555 1_555
O5 C8 1_555 1_555
O6 H2 1_555 1_555
O7 H3 1_555 1_555
C1 H4 1_555 1_555
H5 C1 1_555 1_555
C2 C1 1_555 1_555
C3 O7 1_555 1_555
H6 C3 1_555 1_555
C4 C3 1_555 1_555
C5 C4 1_555 1_555
H7 C5 1_555 1_555
C6 C5 1_555 1_555
C7 C6 1_555 1_555
H8 C7 1_555 1_555
C8 C7 1_555 1_555
H9 C8 1_555 1_555
C9 O2 1_555 1_555
C10 C4 1_555 1_555
H10 C10 1_555 1_555
H11 C10 1_555 1_555
C11 C4 1_555 1_555
C12 O4 1_555 1_555
H12 C12 1_555 1_555
C13 C12 1_555 1_555
H13 C13 1_555 1_555
H14 C13 1_555 1_555
C14 C13 1_555 1_555
H15 C14 1_555 1_555
H16 C14 1_555 1_555
C15 C7 1_555 1_555
C16 C15 1_555 1_555
H17 C16 1_555 1_555
H18 C16 1_555 1_555
H19 C16 1_555 1_555
C17 O5 1_555 1_555
H20 C17 1_555 1_555
H21 C17 1_555 1_555
C18 O6 1_555 1_555
H22 C18 1_555 1_555
C19 C9 1_555 1_555
H23 C19 1_555 1_555
H24 C19 1_555 1_555
C20 O1 1_555 1_555
H25 C20 1_555 1_555
H26 C20 1_555 1_555
C2 C3 1_555 1_555
C2 C9 1_555 1_555
C5 C18 1_555 1_555
C6 C12 1_555 1_555
C6 C17 1_555 1_555
C9 C10 1_555 1_555
C14 C15 1_555 1_555
C15 C20 1_555 1_555
C18 C19 1_555 1_555

#END
