
#######################################################################
#
#                 Cambridge Crystallographic Data Centre
#                                CCDC 
#
#######################################################################
#
# If this CIF has been generated from an entry in the Cambridge 
# Structural Database, then it will include bibliographic, chemical, 
# crystal, experimental, refinement or atomic coordinate data resulting 
# from the CCDC's data processing and validation procedures.
#
#######################################################################

data_RIWFUB
_chemical_formula_moiety         'C50 H46 B1 F2 N5,C1 H1 Cl3'
_chemical_name_systematic        
'24,24-difluoro-9,14,26-tris(2,4,6-trimethylphenyl)-23\l^5^,25,27,28,29-penta-aza-24\l^5^-boraheptacyclo[20.3.1.1^5,8^.1^10,13^.1^15,18^.0^4,25^.0^19,23^]nonacosa-1(26),2,4,6,8,10,12,14,16,18,20,22-dodecaene chloroform solvate'
_symmetry_cell_setting           monoclinic
_symmetry_space_group_name_H-M   'P 21/c'
_symmetry_Int_Tables_number      14
_space_group_name_Hall           '-P 2ybc'
loop_
_symmetry_equiv_pos_site_id
_symmetry_equiv_pos_as_xyz
1 x,y,z
2 -x,1/2+y,1/2-z
3 -x,-y,-z
4 x,1/2-y,1/2+z
_cell_length_a                   18.1823(4)
_cell_length_b                   15.6106(2)
_cell_length_c                   17.7090(4)
_cell_angle_alpha                90
_cell_angle_beta                 117.612(3)
_cell_angle_gamma                90
_cell_volume                     4453.98
_cell_formula_units_Z            4
loop_
_atom_site_label
_atom_site_type_symbol
_atom_site_fract_x
_atom_site_fract_y
_atom_site_fract_z
Cl1 Cl 0.36940(5) 0.67533(5) 0.29296(6)
Cl2 Cl 0.36599(5) 0.86072(6) 0.28722(7)
C1 C 0.3877(3) 0.7668(2) 0.2464(2)
H1 H 0.345593 0.764876 0.186457
Cl3 Cl 0.4737(13) 0.7703(5) 0.2444(14)
F1 F 0.93866(9) 0.27832(9) 0.46809(9)
F2 F 0.83606(9) 0.27568(9) 0.33122(9)
N1 N 0.95891(12) 0.35984(13) 0.36425(13)
N2 N 0.84004(13) 0.12875(13) 0.41893(13)
H3 H 0.830796 0.182570 0.408470
N3 N 0.75543(13) 0.26695(13) 0.46614(14)
H4 H 0.793406 0.268472 0.450102
C2 C 1.04753(15) 0.28430(17) 0.31757(15)
N4 N 0.96358(12) 0.20081(13) 0.36484(13)
N5 N 0.83423(13) 0.41807(14) 0.42157(14)
H5 H 0.827805 0.364321 0.409609
C3 C 0.95224(15) 0.11540(16) 0.37731(16)
C4 C 0.74085(15) 0.10703(17) 0.47592(16)
C5 C 1.18948(16) 0.26790(16) 0.32643(17)
C6 C 0.71845(15) 0.33847(16) 0.48307(16)
C7 C 1.01708(15) 0.36047(16) 0.33384(15)
C8 C 1.02153(15) 0.20561(17) 0.33451(15)
C9 C 1.10446(16) 0.28385(16) 0.27830(16)
C10 C 0.88704(15) 0.47067(16) 0.40712(16)
C11 C 0.82071(16) 0.54853(16) 0.46507(17)
H6 H 0.803527 0.593826 0.487220
C12 C 0.69837(15) 0.04166(16) 0.50398(17)
C13 C 0.89187(18) -0.00274(17) 0.42958(19)
H7 H 0.923012 -0.048862 0.427005
C14 C 0.71989(15) 0.19274(17) 0.47983(17)
C15 C 0.99182(16) 0.49772(16) 0.35370(16)
H8 H 0.993441 0.557239 0.356309
C16 C 0.83261(18) -0.00546(17) 0.45743(18)
H9 H 0.816961 -0.053907 0.477033
C17 C 1.12055(17) 0.28720(17) 0.15016(17)
H10 H 1.097356 0.293034 0.091305
C18 C 0.79304(15) 0.46232(16) 0.45755(16)
C19 C 0.72245(15) 0.47871(17) 0.60825(17)
C20 C 0.62910(16) 0.53549(17) 0.46801(17)
C21 C 0.69652(15) 0.48318(16) 0.52033(17)
C22 C 1.00453(16) 0.06633(17) 0.35452(17)
H11 H 1.009525 0.006982 0.357315
C23 C 0.79955(15) 0.07787(16) 0.45120(16)
C24 C 1.04651(16) 0.12129(17) 0.32765(16)
H12 H 1.084412 0.105980 0.308458
C25 C 0.73761(15) 0.42593(16) 0.48327(16)
C26 C 0.68207(17) -0.02955(18) 0.61630(19)
H13 H 0.700358 -0.038781 0.674141
C27 C 0.87733(16) 0.55346(16) 0.43393(16)
H14 H 0.904561 0.602801 0.431003
C28 C 0.65631(17) 0.21947(18) 0.5002(2)
H15 H 0.621195 0.183431 0.510422
C29 C 1.06937(16) 0.29384(17) 0.18866(17)
C30 C 0.72557(16) 0.02716(17) 0.59094(18)
C31 C 0.94277(15) 0.44409(16) 0.37688(15)
C32 C 1.23824(17) 0.26275(18) 0.28491(18)
H16 H 1.294849 0.252704 0.317029
C33 C 0.80024(18) 0.0734(2) 0.65761(18)
H17 H 0.846870 0.064499 0.646981
H18 H 0.812921 0.051696 0.713016
H19 H 0.788473 0.133619 0.655266
B1 B 0.92425(17) 0.27877(18) 0.38299(18)
C34 C 1.03648(16) 0.44684(17) 0.32674(16)
H20 H 1.073126 0.465789 0.307207
C35 C 0.61230(17) -0.07257(18) 0.5576(2)
C36 C 1.20515(18) 0.27214(17) 0.19665(19)
C37 C 0.61063(17) 0.57499(18) 0.59111(19)
C38 C 0.58679(16) 0.58021(18) 0.50447(19)
H21 H 0.541637 0.614235 0.469932
C39 C 0.89696(15) 0.08260(16) 0.40560(16)
C40 C 0.67924(16) 0.52539(17) 0.64202(17)
H22 H 0.696888 0.523246 0.700388
C41 C 0.60045(18) 0.5425(2) 0.37344(19)
H23 H 0.639460 0.576166 0.363787
H24 H 0.546912 0.569402 0.346417
H25 H 0.596745 0.486238 0.349966
C42 C 1.2597(2) 0.2664(2) 0.1538(2)
H26 H 1.228461 0.243095 0.097630
H27 H 1.306241 0.229934 0.186550
H28 H 1.279224 0.322579 0.149971
C43 C 0.62949(17) -0.00363(18) 0.44334(19)
C44 C 0.56192(18) 0.6198(2) 0.6290(2)
H29 H 0.544392 0.674957 0.602864
H30 H 0.596265 0.626767 0.689231
H31 H 0.514113 0.586075 0.619096
C45 C 1.22989(17) 0.2558(2) 0.42124(18)
H32 H 1.189073 0.262076 0.440915
H33 H 1.272643 0.297938 0.448182
H34 H 1.253797 0.199517 0.435273
C46 C 0.65552(16) 0.30656(18) 0.50203(19)
H35 H 0.619654 0.339869 0.513789
C47 C 0.58746(18) -0.05978(19) 0.4712(2)
H36 H 0.541667 -0.089498 0.431050
C48 C 0.79343(16) 0.42251(19) 0.66692(18)
H37 H 0.772672 0.366801 0.670102
H38 H 0.819988 0.447628 0.722734
H39 H 0.832847 0.417299 0.645278
C49 C 0.5985(2) 0.0103(2) 0.3493(2)
H40 H 0.580547 0.068558 0.335118
H41 H 0.552677 -0.027548 0.317810
H42 H 0.642343 -0.001397 0.334978
C50 C 0.97755(17) 0.3089(2) 0.13594(18)
H43 H 0.948050 0.256791 0.132133
H44 H 0.966157 0.327169 0.079787
H45 H 0.959922 0.352508 0.162292
C51 C 0.5626(2) -0.1298(2) 0.5853(3)
H46 H 0.593947 -0.141426 0.645126
H47 H 0.550684 -0.182670 0.554073
H48 H 0.511583 -0.101890 0.574203
Cl4? Cl 0.5024(3) 0.7655(3) 0.2789(6)
H2? H 0.354897 0.764866 0.184221
loop_
_geom_bond_atom_site_label_1
_geom_bond_atom_site_label_2
_geom_bond_site_symmetry_1
_geom_bond_site_symmetry_2
Cl1 C1 1_555 1_555
Cl2 C1 1_555 1_555
C1 H1 1_555 1_555
Cl3 C1 1_555 1_555
F1 B1 1_555 1_555
F2 B1 1_555 1_555
N1 C7 1_555 1_555
N2 H3 1_555 1_555
N3 H4 1_555 1_555
C2 C7 1_555 1_555
N4 C3 1_555 1_555
N5 H5 1_555 1_555
C3 C22 1_555 1_555
C4 C12 1_555 1_555
C5 C9 1_555 1_555
C6 N3 1_555 1_555
C7 C34 1_555 1_555
C8 C2 1_555 1_555
C9 C2 1_555 1_555
C10 N5 1_555 1_555
C11 H6 1_555 1_555
C12 C30 1_555 1_555
C13 H7 1_555 1_555
C14 N3 1_555 1_555
C15 H8 1_555 1_555
C16 C13 1_555 1_555
H9 C16 1_555 1_555
C17 H10 1_555 1_555
C18 N5 1_555 1_555
C19 C21 1_555 1_555
C20 C21 1_555 1_555
C21 C25 1_555 1_555
C22 H11 1_555 1_555
C23 N2 1_555 1_555
C24 C8 1_555 1_555
H12 C24 1_555 1_555
C25 C6 1_555 1_555
C26 H13 1_555 1_555
C27 C10 1_555 1_555
H14 C27 1_555 1_555
C28 C14 1_555 1_555
H15 C28 1_555 1_555
C29 C9 1_555 1_555
C30 C26 1_555 1_555
C31 N1 1_555 1_555
C32 C5 1_555 1_555
H16 C32 1_555 1_555
C33 C30 1_555 1_555
H17 C33 1_555 1_555
H18 C33 1_555 1_555
H19 C33 1_555 1_555
B1 N1 1_555 1_555
C34 C15 1_555 1_555
H20 C34 1_555 1_555
C35 C26 1_555 1_555
C36 C17 1_555 1_555
C37 C38 1_555 1_555
C38 C20 1_555 1_555
H21 C38 1_555 1_555
C39 N2 1_555 1_555
C40 C19 1_555 1_555
H22 C40 1_555 1_555
C41 C20 1_555 1_555
H23 C41 1_555 1_555
H24 C41 1_555 1_555
H25 C41 1_555 1_555
C42 C36 1_555 1_555
H26 C42 1_555 1_555
H27 C42 1_555 1_555
H28 C42 1_555 1_555
C43 C12 1_555 1_555
C44 C37 1_555 1_555
H29 C44 1_555 1_555
H30 C44 1_555 1_555
H31 C44 1_555 1_555
C45 C5 1_555 1_555
H32 C45 1_555 1_555
H33 C45 1_555 1_555
H34 C45 1_555 1_555
C46 C6 1_555 1_555
H35 C46 1_555 1_555
C47 C35 1_555 1_555
H36 C47 1_555 1_555
C48 C19 1_555 1_555
H37 C48 1_555 1_555
H38 C48 1_555 1_555
H39 C48 1_555 1_555
C49 C43 1_555 1_555
H40 C49 1_555 1_555
H41 C49 1_555 1_555
H42 C49 1_555 1_555
C50 C29 1_555 1_555
H43 C50 1_555 1_555
H44 C50 1_555 1_555
H45 C50 1_555 1_555
C51 C35 1_555 1_555
H46 C51 1_555 1_555
H47 C51 1_555 1_555
H48 C51 1_555 1_555
N4 C8 1_555 1_555
N4 B1 1_555 1_555
C3 C39 1_555 1_555
C4 C14 1_555 1_555
C4 C23 1_555 1_555
C10 C31 1_555 1_555
C11 C18 1_555 1_555
C11 C27 1_555 1_555
C13 C39 1_555 1_555
C15 C31 1_555 1_555
C16 C23 1_555 1_555
C17 C29 1_555 1_555
C18 C25 1_555 1_555
C22 C24 1_555 1_555
C28 C46 1_555 1_555
C32 C36 1_555 1_555
C37 C40 1_555 1_555
C43 C47 1_555 1_555

#END
