
#######################################################################
#
#                 Cambridge Crystallographic Data Centre
#                                CCDC 
#
#######################################################################
#
# If this CIF has been generated from an entry in the Cambridge 
# Structural Database, then it will include bibliographic, chemical, 
# crystal, experimental, refinement or atomic coordinate data resulting 
# from the CCDC's data processing and validation procedures.
#
#######################################################################

data_RIWGUA
_chemical_formula_moiety         'C34 H29 N2 1+,I1 1-,2(H2 O1)'
_chemical_name_systematic        
'trans,trans-4-(4-(4-(N,N-Diphenylamino)styryl)styryl)-N-methylpyridinium iodide dihydrate'
_symmetry_cell_setting           monoclinic
_symmetry_space_group_name_H-M   'P 21/c'
_symmetry_Int_Tables_number      14
_space_group_name_Hall           '-P 2ybc'
loop_
_symmetry_equiv_pos_site_id
_symmetry_equiv_pos_as_xyz
1 x,y,z
2 -x,1/2+y,1/2-z
3 -x,-y,-z
4 x,1/2-y,1/2+z
_cell_length_a                   8.3315(19)
_cell_length_b                   36.084(8)
_cell_length_c                   10.151(2)
_cell_angle_alpha                90
_cell_angle_beta                 93.604(4)
_cell_angle_gamma                90
_cell_volume                     3045.7
_exptl_crystal_colour            red
_exptl_crystal_description       plate
_chemical_melting_point          '259-260 deg.C'
_cell_formula_units_Z            4
_exptl_crystal_recrystallization_method acetonitrile
_exptl_crystal_preparation       'dye; fluorescent'
loop_
_atom_site_label
_atom_site_type_symbol
_atom_site_fract_x
_atom_site_fract_y
_atom_site_fract_z
C1 C -0.5743(12) 0.2689(4) -0.1416(12)
H1 H -0.6741 0.2733 -0.1851
C2 C -0.4920(13) 0.2365(4) -0.1623(11)
H2 H -0.5355 0.2191 -0.2221
C3 C -0.3465(10) 0.2296(3) -0.0957(10)
H3 H -0.2908 0.2079 -0.1118
C4 C -0.5058(12) 0.2947(3) -0.0550(14)
H4 H -0.5578 0.3171 -0.0422
C5 C -0.3612(10) 0.2874(2) 0.0123(10)
H5 H -0.3166 0.3051 0.0703
C6 C -0.2822(8) 0.2552(2) -0.0035(8)
C7 C -0.2271(12) 0.1904(2) 0.1710(10)
H6 H -0.3315 0.1996 0.1674
C8 C -0.1953(18) 0.1566(3) 0.2217(13)
H7 H -0.2804 0.1429 0.2517
C9 C -0.048(2) 0.1413(3) 0.2315(11)
H8 H -0.0319 0.1177 0.2666
C10 C 0.0807(17) 0.1623(3) 0.1871(10)
H9 H 0.1849 0.1529 0.1941
C11 C 0.0501(12) 0.1967(3) 0.1332(9)
H10 H 0.1347 0.2104 0.1024
C12 C -0.1028(11) 0.2115(2) 0.1237(8)
C13 C -0.0263(8) 0.2770(2) 0.1087(8)
C14 C 0.0340(9) 0.2797(2) 0.2376(8)
H11 H 0.0059 0.2621 0.2990
C15 C 0.1366(8) 0.3084(2) 0.2762(8)
H12 H 0.1773 0.3098 0.3635
C16 C 0.1802(9) 0.33551(19) 0.1858(8)
C17 C 0.1148(10) 0.3328(2) 0.0576(9)
H13 H 0.1394 0.3507 -0.0039
C18 C 0.0129(9) 0.3038(2) 0.0194(8)
H14 H -0.0295 0.3024 -0.0675
C19 C 0.2831(9) 0.3666(2) 0.2247(9)
H15 H 0.3088 0.3827 0.1579
C20 C 0.3449(9) 0.3745(2) 0.3459(10)
H16 H 0.3223 0.3577 0.4117
C21 C 0.4455(9) 0.4070(2) 0.3884(10)
C22 C 0.4922(12) 0.4102(3) 0.5184(12)
H17 H 0.4571 0.3928 0.5778
C23 C 0.5931(15) 0.4396(4) 0.5658(16)
H18 H 0.6265 0.4408 0.6548
C24 C 0.6418(12) 0.4664(3) 0.4794(18)
C25 C 0.5907(11) 0.4636(3) 0.3452(15)
H19 H 0.6211 0.4815 0.2857
C26 C 0.4940(11) 0.4339(2) 0.3014(12)
H20 H 0.4615 0.4320 0.2123
C27 C 0.744(3) 0.4921(7) 0.570(2)
H21 H 0.7579 0.4875 0.6601
C28 C 0.809(2) 0.5201(6) 0.519(3)
H22 H 0.7939 0.5251 0.4291
C29 C 0.9104(11) 0.5445(3) 0.6088(16)
C30 C 0.9558(13) 0.5475(3) 0.7393(17)
H23 H 0.9186 0.5298 0.7966
C31 C 1.0528(12) 0.5751(3) 0.7914(11)
H24 H 1.0800 0.5762 0.8816
C32 C 0.9688(11) 0.5725(3) 0.5314(11)
H25 H 0.9409 0.5726 0.4413
C33 C 1.0631(10) 0.5990(2) 0.5824(10)
H26 H 1.0991 0.6173 0.5269
C34 C 1.2117(11) 0.6305(2) 0.7630(13)
H27 H 1.2581 0.6434 0.6921
H28 H 1.2958 0.6202 0.8208
H29 H 1.1488 0.6474 0.8115
N1 N -0.1326(8) 0.24720(17) 0.0683(7)
N2 N 1.1076(7) 0.60036(17) 0.7085(8)
I1 I 0.20516(18) 0.44652(4) 0.88192(12)
O1 O 0.801(3) 0.4586(8) 0.910(2)
H32 H 0.9011 0.4584 0.8980
H33 H 0.7780 0.4782 0.9516
O2 O 0.4845(12) 0.4085(2) 0.9100(9)
H34 H 0.5776 0.4054 0.9479
H35 H 0.4269 0.4210 0.9602
C35? C 0.747(2) 0.5021(6) 0.484(3)
H30? H 0.7632 0.5162 0.4099
C36? C 0.813(3) 0.5113(7) 0.608(3)
H31? H 0.7976 0.4975 0.6833
loop_
_geom_bond_atom_site_label_1
_geom_bond_atom_site_label_2
_geom_bond_site_symmetry_1
_geom_bond_site_symmetry_2
C1 H1 1_555 1_555
C2 C1 1_555 1_555
H2 C2 1_555 1_555
C3 C2 1_555 1_555
H3 C3 1_555 1_555
C4 C1 1_555 1_555
H4 C4 1_555 1_555
C5 C4 1_555 1_555
H5 C5 1_555 1_555
C6 C3 1_555 1_555
C7 H6 1_555 1_555
C8 C7 1_555 1_555
H7 C8 1_555 1_555
C9 C8 1_555 1_555
H8 C9 1_555 1_555
C10 C9 1_555 1_555
H9 C10 1_555 1_555
C11 C10 1_555 1_555
H10 C11 1_555 1_555
C12 C7 1_555 1_555
C13 C14 1_555 1_555
C14 H11 1_555 1_555
C15 C14 1_555 1_555
H12 C15 1_555 1_555
C16 C15 1_555 1_555
C17 C16 1_555 1_555
H13 C17 1_555 1_555
C18 C13 1_555 1_555
H14 C18 1_555 1_555
C19 C16 1_555 1_555
H15 C19 1_555 1_555
C20 C19 1_555 1_555
H16 C20 1_555 1_555
C21 C20 1_555 1_555
C22 C21 1_555 1_555
H17 C22 1_555 1_555
C23 C22 1_555 1_555
H18 C23 1_555 1_555
C24 C23 1_555 1_555
C25 C24 1_555 1_555
H19 C25 1_555 1_555
C26 C21 1_555 1_555
H20 C26 1_555 1_555
C27 C24 1_555 1_555
H21 C27 1_555 1_555
C28 C27 1_555 1_555
H22 C28 1_555 1_555
C29 C28 1_555 1_555
C30 C29 1_555 1_555
H23 C30 1_555 1_555
C31 C30 1_555 1_555
H24 C31 1_555 1_555
C32 C29 1_555 1_555
H25 C32 1_555 1_555
C33 C32 1_555 1_555
H26 C33 1_555 1_555
C34 H27 1_555 1_555
H28 C34 1_555 1_555
H29 C34 1_555 1_555
N1 C6 1_555 1_555
N2 C31 1_555 1_555
O1 H32 1_555 1_555
H33 O1 1_555 1_555
O2 H34 1_555 1_555
H35 O2 1_555 1_555
C5 C6 1_555 1_555
C11 C12 1_555 1_555
C12 N1 1_555 1_555
C13 N1 1_555 1_555
C17 C18 1_555 1_555
C25 C26 1_555 1_555
C33 N2 1_555 1_555
C34 N2 1_555 1_555

#END
