
#######################################################################
#
#                 Cambridge Crystallographic Data Centre
#                                CCDC 
#
#######################################################################
#
# If this CIF has been generated from an entry in the Cambridge 
# Structural Database, then it will include bibliographic, chemical, 
# crystal, experimental, refinement or atomic coordinate data resulting 
# from the CCDC's data processing and validation procedures.
#
#######################################################################

data_RIWJEO
_chemical_compound_source        'seeds of Caesalpinia minax'
_chemical_name_common            'Caesalminaxin I unknown solvate'
_chemical_formula_moiety         'C29 H44 O11'
_chemical_name_systematic        
'4a-Hydroxy-7,9,10a-trimethoxy-4,4,7,11b-tetramethyl-1,2,3,4,4a,5,6,6a,7,9,10a,11,11a,11b-tetradecahydrophenanthro[3,2-b]furan-1,5,6-triyl triacetate unknown solvate'
_symmetry_cell_setting           monoclinic
_symmetry_space_group_name_H-M   'C 2'
_symmetry_Int_Tables_number      5
_space_group_name_Hall           'C 2y'
loop_
_symmetry_equiv_pos_site_id
_symmetry_equiv_pos_as_xyz
1 x,y,z
2 -x,y,-z
3 1/2+x,1/2+y,z
4 1/2-x,1/2+y,-z
_cell_length_a                   20.3979(7)
_cell_length_b                   9.6961(3)
_cell_length_c                   16.0481(6)
_cell_angle_alpha                90
_cell_angle_beta                 99.429(2)
_cell_angle_gamma                90
_cell_volume                     3131.11
_exptl_crystal_colour            colorless
_exptl_crystal_description       plate
_cell_formula_units_Z            4
loop_
_atom_site_label
_atom_site_type_symbol
_atom_site_fract_x
_atom_site_fract_y
_atom_site_fract_z
O1 O 0.79492(13) 0.6650(3) 0.91421(15)
O2 O 0.8219(3) 0.8588(4) 0.9872(2)
O3 O 0.73953(12) 0.4633(3) 0.80108(14)
H1 H 0.7512 0.4945 0.8501
O4 O 0.73016(12) 0.3529(3) 0.64346(14)
O5 O 0.75577(14) 0.3563(3) 0.51178(15)
O6 O 0.65106(11) 0.5607(3) 0.55644(13)
O7 O 0.57867(16) 0.3940(4) 0.5750(2)
O8 O 0.56403(11) 0.7693(3) 0.59129(14)
O9 O 0.64305(13) 0.8824(3) 0.86423(14)
O10 O 0.65274(13) 1.0935(3) 0.79733(16)
O11 O 0.54652(15) 1.1968(3) 0.77736(19)
C1 C 0.83456(17) 0.7041(5) 0.8498(2)
H2 H 0.8454 0.8046 0.8555
C2 C 0.89924(19) 0.6209(5) 0.8654(2)
H3 H 0.9287 0.6526 0.8260
H4 H 0.9223 0.6379 0.9237
C3 C 0.8868(2) 0.4690(5) 0.8533(3)
H5 H 0.8603 0.4368 0.8960
H6 H 0.9300 0.4202 0.8638
C4 C 0.85007(19) 0.4287(5) 0.7647(2)
C5 C 0.78355(16) 0.5145(4) 0.74697(19)
C6 C 0.74488(16) 0.4982(3) 0.65773(19)
H7 H 0.7714 0.5339 0.6152
C7 C 0.67690(15) 0.5674(3) 0.64640(18)
H8 H 0.6470 0.5139 0.6781
C8 C 0.67669(15) 0.7187(4) 0.67269(18)
H9 H 0.6952 0.7737 0.6292
C9 C 0.72234(15) 0.7431(4) 0.75865(19)
H10 H 0.7010 0.6964 0.8029
C10 C 0.79263(15) 0.6775(4) 0.76197(19)
C11 C 0.72444(17) 0.9000(4) 0.7788(2)
H11 H 0.7561 0.9177 0.8315
H12 H 0.7397 0.9516 0.7324
C12 C 0.65603(18) 0.9478(4) 0.7891(2)
C13 C 0.60654(16) 0.9135(4) 0.71071(19)
C14 C 0.60340(15) 0.7716(4) 0.67394(19)
C15 C 0.57380(18) 1.0277(4) 0.6822(2)
H13 H 0.5400 1.0324 0.6339
C16 C 0.59813(19) 1.1468(4) 0.7375(2)
H14 H 0.6142 1.2217 0.7030
C17 C 0.56507(16) 0.6764(4) 0.7251(2)
H15 H 0.5198 0.7117 0.7232
H16 H 0.5877 0.6733 0.7839
H17 H 0.5632 0.5833 0.7010
C18 C 0.8360(2) 0.2721(5) 0.7675(3)
H18 H 0.8292 0.2348 0.7099
H19 H 0.7960 0.2566 0.7926
H20 H 0.8739 0.2257 0.8016
C19 C 0.8970(2) 0.4482(6) 0.6990(3)
H21 H 0.9218 0.5345 0.7106
H22 H 0.8707 0.4517 0.6422
H23 H 0.9282 0.3707 0.7027
C20 C 0.82938(16) 0.7509(4) 0.6976(2)
H24 H 0.8390 0.8464 0.7156
H25 H 0.8013 0.7503 0.6418
H26 H 0.8711 0.7025 0.6946
C21 C 0.7921(3) 0.7518(5) 0.9786(2)
C22 C 0.7443(3) 0.7035(6) 1.0332(2)
H27 H 0.7623 0.7230 1.0924
H28 H 0.7373 0.6040 1.0257
H29 H 0.7019 0.7517 1.0174
C23 C 0.73506(17) 0.2961(4) 0.5682(2)
C24 C 0.7121(3) 0.1520(5) 0.5633(3)
H30 H 0.6666 0.1478 0.5322
H31 H 0.7130 0.1157 0.6205
H32 H 0.7414 0.0965 0.5339
C25 C 0.60167(18) 0.4725(5) 0.5300(2)
C26 C 0.5795(2) 0.4880(6) 0.4355(3)
H33 H 0.5621 0.3997 0.4117
H34 H 0.6174 0.5160 0.4090
H35 H 0.5446 0.5583 0.4248
C27 C 0.58762(17) 0.8421(4) 0.5253(2)
H36 H 0.6089 0.9281 0.5476
H37 H 0.5502 0.8634 0.4805
H38 H 0.6200 0.7850 0.5022
C28 C 0.5823(2) 0.9183(5) 0.8910(2)
H39 H 0.5846 1.0139 0.9112
H40 H 0.5746 0.8567 0.9369
H41 H 0.5456 0.9091 0.8435
C29 C 0.5640(3) 1.3211(5) 0.8243(3)
H42 H 0.6037 1.3048 0.8665
H43 H 0.5271 1.3492 0.8527
H44 H 0.5732 1.3944 0.7857
loop_
_geom_bond_atom_site_label_1
_geom_bond_atom_site_label_2
_geom_bond_site_symmetry_1
_geom_bond_site_symmetry_2
O1 C1 1_555 1_555
O2 C21 1_555 1_555
O3 H1 1_555 1_555
O4 C6 1_555 1_555
O5 C23 1_555 1_555
O6 C7 1_555 1_555
O7 C25 1_555 1_555
O8 C14 1_555 1_555
O9 C12 1_555 1_555
O10 C12 1_555 1_555
O11 C16 1_555 1_555
C1 H2 1_555 1_555
C2 C1 1_555 1_555
H3 C2 1_555 1_555
H4 C2 1_555 1_555
C3 C2 1_555 1_555
H5 C3 1_555 1_555
H6 C3 1_555 1_555
C4 C3 1_555 1_555
C5 O3 1_555 1_555
C6 C5 1_555 1_555
H7 C6 1_555 1_555
C7 C6 1_555 1_555
H8 C7 1_555 1_555
C8 C7 1_555 1_555
H9 C8 1_555 1_555
C9 C8 1_555 1_555
H10 C9 1_555 1_555
C10 C1 1_555 1_555
C11 C9 1_555 1_555
H11 C11 1_555 1_555
H12 C11 1_555 1_555
C12 C11 1_555 1_555
C13 C12 1_555 1_555
C14 C8 1_555 1_555
C15 C13 1_555 1_555
H13 C15 1_555 1_555
C16 O10 1_555 1_555
H14 C16 1_555 1_555
C17 C14 1_555 1_555
H15 C17 1_555 1_555
H16 C17 1_555 1_555
H17 C17 1_555 1_555
C18 C4 1_555 1_555
H18 C18 1_555 1_555
H19 C18 1_555 1_555
H20 C18 1_555 1_555
C19 C4 1_555 1_555
H21 C19 1_555 1_555
H22 C19 1_555 1_555
H23 C19 1_555 1_555
C20 C10 1_555 1_555
H24 C20 1_555 1_555
H25 C20 1_555 1_555
H26 C20 1_555 1_555
C21 O1 1_555 1_555
C22 C21 1_555 1_555
H27 C22 1_555 1_555
H28 C22 1_555 1_555
H29 C22 1_555 1_555
C23 O4 1_555 1_555
C24 C23 1_555 1_555
H30 C24 1_555 1_555
H31 C24 1_555 1_555
H32 C24 1_555 1_555
C25 O6 1_555 1_555
C26 C25 1_555 1_555
H33 C26 1_555 1_555
H34 C26 1_555 1_555
H35 C26 1_555 1_555
C27 O8 1_555 1_555
H36 C27 1_555 1_555
H37 C27 1_555 1_555
H38 C27 1_555 1_555
C28 O9 1_555 1_555
H39 C28 1_555 1_555
H40 C28 1_555 1_555
H41 C28 1_555 1_555
C29 O11 1_555 1_555
H42 C29 1_555 1_555
H43 C29 1_555 1_555
H44 C29 1_555 1_555
C4 C5 1_555 1_555
C5 C10 1_555 1_555
C9 C10 1_555 1_555
C13 C14 1_555 1_555
C15 C16 1_555 1_555

#END
