
#######################################################################
#
#                 Cambridge Crystallographic Data Centre
#                                CCDC 
#
#######################################################################
#
# If this CIF has been generated from an entry in the Cambridge 
# Structural Database, then it will include bibliographic, chemical, 
# crystal, experimental, refinement or atomic coordinate data resulting 
# from the CCDC's data processing and validation procedures.
#
#######################################################################

data_RIWKUD
_chemical_formula_moiety         '2(C3 H8 N1 O3 1+),O4 S1 2-,H2 O1'
_chemical_name_systematic        'bis(DL-Serinium) sulfate monohydrate'
_symmetry_cell_setting           orthorhombic
_symmetry_space_group_name_H-M   'P 21 21 21'
_symmetry_Int_Tables_number      19
_space_group_name_Hall           'P 2ac 2ab'
loop_
_symmetry_equiv_pos_site_id
_symmetry_equiv_pos_as_xyz
1 x,y,z
2 1/2-x,-y,1/2+z
3 1/2+x,1/2-y,-z
4 -x,1/2+y,1/2-z
_cell_length_a                   10.597(2)
_cell_length_b                   21.337(2)
_cell_length_c                   5.855(1)
_cell_angle_alpha                90
_cell_angle_beta                 90
_cell_angle_gamma                90
_cell_volume                     1323.86
_exptl_crystal_colour            colorless
_cell_formula_units_Z            4
loop_
_atom_site_label
_atom_site_type_symbol
_atom_site_fract_x
_atom_site_fract_y
_atom_site_fract_z
S1 S 0.43847(7) 0.50421(3) 0.0274(1)
O1 O 0.3262(2) 0.5433(1) 0.0477(4)
O2 O 0.4090(2) 0.43780(9) 0.0662(4)
O3 O 0.4927(2) 0.51031(10) -0.2054(3)
O4 O 0.5321(2) 0.52496(10) 0.1983(4)
O5 O 0.1458(2) 0.69730(10) -0.2158(4)
O6 O 0.0382(2) 0.76575(9) 0.0006(4)
O7 O -0.1604(2) 0.6515(1) -0.1625(4)
N1 N 0.0741(2) 0.5984(1) 0.0318(4)
C1 C 0.0765(3) 0.7089(1) -0.0576(5)
C2 C 0.0181(3) 0.6596(1) 0.0943(5)
C3 C -0.1255(3) 0.6585(2) 0.0692(6)
H1 H 0.0621 0.7985 -0.1035
H2 H 0.0409 0.6703 0.2434
H3 H 0.0598 0.5878 -0.1274
H4 H 0.0423 0.5605 0.1248
H5 H 0.1502 0.5946 0.0383
H6 H -0.1601 0.6984 0.1175
H7 H -0.1531 0.6183 0.1570
H8 H -0.2024 0.6160 -0.1880
O8 O 0.2281(2) 0.3106(1) -0.2391(4)
O9 O 0.1216(2) 0.23855(9) -0.0385(4)
O10 O -0.0793(2) 0.35469(9) -0.2031(4)
N2 N 0.1519(2) 0.4060(1) 0.0254(4)
C4 C 0.1581(3) 0.2962(1) -0.0880(5)
C5 C 0.0953(3) 0.3431(1) 0.0693(5)
C6 C -0.0470(3) 0.3444(1) 0.0314(6)
H9 H 0.1366 0.2065 -0.1393
H10 H 0.1096 0.3299 0.2450
H11 H 0.1415 0.4200 -0.1408
H12 H 0.2350 0.4082 0.0509
H13 H 0.0951 0.4339 0.1471
H14 H -0.0847 0.3808 0.1167
H15 H -0.0809 0.3017 0.0590
H16 H -0.0633 0.3894 -0.2345
O11 O 0.7461(5) 0.5439(3) -0.2801(10)
O12? O 0.7540(5) 0.5382(2) -0.1615(8)
H17? H 0.7993 0.5129 -0.2525
H18? H 0.6645 0.5236 -0.2137
loop_
_geom_bond_atom_site_label_1
_geom_bond_atom_site_label_2
_geom_bond_site_symmetry_1
_geom_bond_site_symmetry_2
S1 O1 1_555 1_555
O2 S1 1_555 1_555
O3 S1 1_555 1_555
O4 S1 1_555 1_555
O5 C1 1_555 1_555
O6 C1 1_555 1_555
O7 C3 1_555 1_555
O8 C4 1_555 1_555
O9 C4 1_555 1_555
O10 C6 1_555 1_555
N1 C2 1_555 1_555
N2 C5 1_555 1_555
C1 C2 1_555 1_555
C2 C3 1_555 1_555
C3 H6 1_555 1_555
C4 C5 1_555 1_555
C5 C6 1_555 1_555
C6 H14 1_555 1_555
H1 O6 1_555 1_555
H2 C2 1_555 1_555
H3 N1 1_555 1_555
H4 N1 1_555 1_555
H5 N1 1_555 1_555
H7 C3 1_555 1_555
H8 O7 1_555 1_555
H9 O9 1_555 1_555
H10 C5 1_555 1_555
H11 N2 1_555 1_555
H12 N2 1_555 1_555
H13 N2 1_555 1_555
H15 C6 1_555 1_555
H16 O10 1_555 1_555

#END
