
#######################################################################
#
#                 Cambridge Crystallographic Data Centre
#                                CCDC 
#
#######################################################################
#
# If this CIF has been generated from an entry in the Cambridge 
# Structural Database, then it will include bibliographic, chemical, 
# crystal, experimental, refinement or atomic coordinate data resulting 
# from the CCDC's data processing and validation procedures.
#
#######################################################################

data_RIWMAO
_chemical_formula_moiety         'C19 H21 N1 O2'
_chemical_name_systematic        
N-{4-[1-(4-methoxyphenyl)but-3-en-2-yl]phenyl}acetamide
_symmetry_cell_setting           orthorhombic
_symmetry_space_group_name_H-M   'P 21 21 21'
_symmetry_Int_Tables_number      19
_space_group_name_Hall           'P 2ac 2ab'
loop_
_symmetry_equiv_pos_site_id
_symmetry_equiv_pos_as_xyz
1 x,y,z
2 1/2-x,-y,1/2+z
3 -x,1/2+y,1/2-z
4 1/2+x,1/2-y,-z
_cell_length_a                   9.6036(5)
_cell_length_b                   47.197(2)
_cell_length_c                   7.3012(4)
_cell_angle_alpha                90
_cell_angle_beta                 90
_cell_angle_gamma                90
_cell_volume                     3309.35
_exptl_crystal_colour            colorless
_exptl_crystal_description       plate
_cell_formula_units_Z            8
loop_
_atom_site_label
_atom_site_type_symbol
_atom_site_fract_x
_atom_site_fract_y
_atom_site_fract_z
O1 O 0.1540(9) 0.97965(19) 1.3165(17)
O2 O 0.2540(6) 0.75110(14) 0.4418(11)
N1 N 0.4691(7) 0.76354(15) 0.5419(11)
H1 H 0.555523 0.757480 0.550400
C1 C 0.3777(10) 0.87565(19) 0.8322(14)
H2 H 0.443025 0.878095 0.937608
C2 C 0.4087(11) 0.8978(2) 0.6865(14)
H3 H 0.363148 0.895987 0.571610
C3 C 0.4957(15) 0.9197(3) 0.709(3)
H4 H 0.543046 0.922129 0.822078
H5 H 0.510165 0.932714 0.611751
C4 C 0.2296(13) 0.8782(2) 0.8984(19)
H6 H 0.207029 0.861474 0.974593
H7 H 0.166507 0.878045 0.791203
C5 C 0.2015(10) 0.9056(2) 1.0125(14)
C6 C 0.2217(13) 0.9062(2) 1.1938(18)
H8 H 0.249154 0.889271 1.253874
C7 C 0.2039(14) 0.9311(3) 1.300(2)
H9 H 0.214833 0.931284 1.429191
C8 C 0.1680(11) 0.9558(2) 1.1969(19)
C9 C 0.1455(13) 0.9555(2) 1.0202(19)
H10 H 0.116004 0.972204 0.959181
C10 C 0.1656(11) 0.9297(2) 0.9191(19)
H11 H 0.154333 0.929326 0.789810
C11 C 0.1174(17) 1.0058(3) 1.221(3)
H12 H 0.178236 1.008170 1.114346
H13 H 0.129260 1.021925 1.304048
H14 H 0.020240 1.004817 1.180561
C12 C 0.4010(9) 0.8464(2) 0.7433(14)
C13 C 0.3108(10) 0.83481(19) 0.6212(14)
H15 H 0.232565 0.845727 0.584348
C14 C 0.3270(10) 0.8073(2) 0.5456(15)
H16 H 0.262777 0.799750 0.459645
C15 C 0.4412(10) 0.79238(18) 0.6045(12)
C16 C 0.5364(9) 0.80348(19) 0.7291(13)
H17 H 0.614111 0.792558 0.767647
C17 C 0.5162(9) 0.83095(19) 0.7972(14)
H18 H 0.581556 0.838932 0.880121
C18 C 0.3764(9) 0.74568(18) 0.4735(14)
C19 C 0.4344(11) 0.7164(2) 0.4245(16)
H19 H 0.366083 0.706091 0.350444
H20 H 0.453406 0.705789 0.537117
H21 H 0.520882 0.718626 0.354692
O3 O 0.0883(6) 0.75202(14) -0.0597(11)
O4 O 0.0734(10) 0.48638(15) -0.2320(14)
N2 N 0.3075(8) 0.73497(14) -0.0542(11)
H22 H 0.393382 0.739594 -0.024579
C20 C 0.2487(11) 0.62054(18) -0.3191(15)
H23 H 0.152200 0.618336 -0.368455
C21 C 0.3446(19) 0.6142(3) -0.465(3)
H24 H 0.426679 0.605288 -0.420776
C22 C 0.347(2) 0.6174(6) -0.625(3)
H25 H 0.270797 0.626112 -0.685510
H26 H 0.425464 0.611163 -0.693541
C23 C 0.2646(17) 0.6001(2) -0.155(2)
H27 H 0.364016 0.599375 -0.119658
H28 H 0.211699 0.607747 -0.050242
C24 C 0.2150(13) 0.5701(2) -0.1928(18)
C25 C 0.0873(14) 0.5627(2) -0.215(3)
H29 H 0.019149 0.577307 -0.217793
C26 C 0.0412(13) 0.5344(2) -0.234(3)
H30 H -0.054447 0.530709 -0.257528
C27 C 0.1263(12) 0.5137(2) -0.2208(18)
C28 C 0.2639(10) 0.65126(18) -0.2478(14)
C29 C 0.1613(9) 0.67068(18) -0.2835(14)
H31 H 0.081821 0.665093 -0.351931
C30 C 0.1720(9) 0.69895(17) -0.2199(13)
H32 H 0.101065 0.712371 -0.246433
C31 C 0.2860(9) 0.70653(17) -0.1196(13)
C32 C 0.3909(9) 0.68684(18) -0.0823(13)
H33 H 0.469880 0.691839 -0.010883
C33 C 0.3753(11) 0.65914(19) -0.1547(16)
H34 H 0.447749 0.645753 -0.135523
C34 C 0.2101(8) 0.75521(17) -0.0335(15)
C35 C 0.2674(9) 0.78281(17) 0.0384(14)
H35 H 0.266999 0.796973 -0.059779
H36 H 0.362937 0.779928 0.081568
H37 H 0.209335 0.789467 0.140061
C36 C 0.234(2) 0.5205(4) -0.096(3)
H38 H 0.272694 0.506240 -0.019482
C37 C 0.282(3) 0.5486(4) -0.087(3)
H39 H 0.358065 0.553303 -0.009753
C38 C 0.129(3) 0.4645(4) -0.119(4)
H40 H 0.229866 0.466736 -0.109245
H41 H 0.107213 0.446008 -0.172986
H42 H 0.086992 0.465718 0.003373
C39? C 0.266(3) 0.5205(4) -0.298(3)
H43? H 0.321010 0.506609 -0.357691
C40? C 0.313(2) 0.5495(4) -0.277(3)
H44? H 0.403151 0.555085 -0.316437
C41? C 0.191(2) 0.4640(4) -0.288(3)
H45? H 0.229397 0.469029 -0.407489
H46? H 0.149573 0.444988 -0.294050
H47? H 0.264956 0.464145 -0.195691
loop_
_geom_bond_atom_site_label_1
_geom_bond_atom_site_label_2
_geom_bond_site_symmetry_1
_geom_bond_site_symmetry_2
O1 C8 1_555 1_555
O2 C18 1_555 1_555
N1 H1 1_555 1_555
C1 H2 1_555 1_555
C2 C1 1_555 1_555
H3 C2 1_555 1_555
C3 C2 1_555 1_555
H4 C3 1_555 1_555
H5 C3 1_555 1_555
C4 C1 1_555 1_555
H6 C4 1_555 1_555
H7 C4 1_555 1_555
C5 C4 1_555 1_555
C6 C5 1_555 1_555
H8 C6 1_555 1_555
C7 C6 1_555 1_555
H9 C7 1_555 1_555
C8 C7 1_555 1_555
C9 C8 1_555 1_555
H10 C9 1_555 1_555
C10 C5 1_555 1_555
H11 C10 1_555 1_555
C11 O1 1_555 1_555
H12 C11 1_555 1_555
H13 C11 1_555 1_555
H14 C11 1_555 1_555
C12 C1 1_555 1_555
C13 C12 1_555 1_555
H15 C13 1_555 1_555
C14 C13 1_555 1_555
H16 C14 1_555 1_555
C15 N1 1_555 1_555
C16 C15 1_555 1_555
H17 C16 1_555 1_555
C17 C12 1_555 1_555
H18 C17 1_555 1_555
C18 N1 1_555 1_555
C19 C18 1_555 1_555
H19 C19 1_555 1_555
H20 C19 1_555 1_555
H21 C19 1_555 1_555
O3 C34 1_555 1_555
O4 C27 1_555 1_555
N2 H22 1_555 1_555
C20 H23 1_555 1_555
C21 C20 1_555 1_555
H24 C21 1_555 1_555
C22 C21 1_555 1_555
H25 C22 1_555 1_555
H26 C22 1_555 1_555
C23 C20 1_555 1_555
H27 C23 1_555 1_555
H28 C23 1_555 1_555
C24 C23 1_555 1_555
C25 C24 1_555 1_555
H29 C25 1_555 1_555
C26 C25 1_555 1_555
H30 C26 1_555 1_555
C27 C26 1_555 1_555
C28 C20 1_555 1_555
C29 C28 1_555 1_555
H31 C29 1_555 1_555
C30 C29 1_555 1_555
H32 C30 1_555 1_555
C31 N2 1_555 1_555
C32 C31 1_555 1_555
H33 C32 1_555 1_555
C33 C28 1_555 1_555
H34 C33 1_555 1_555
C34 N2 1_555 1_555
C35 C34 1_555 1_555
H35 C35 1_555 1_555
H36 C35 1_555 1_555
H37 C35 1_555 1_555
C36 C27 1_555 1_555
H38 C36 1_555 1_555
C37 C24 1_555 1_555
H39 C37 1_555 1_555
C38 O4 1_555 1_555
H40 C38 1_555 1_555
H41 C38 1_555 1_555
H42 C38 1_555 1_555
C9 C10 1_555 1_555
C14 C15 1_555 1_555
C16 C17 1_555 1_555
C30 C31 1_555 1_555
C32 C33 1_555 1_555
C36 C37 1_555 1_555

#END
