
#######################################################################
#
#                 Cambridge Crystallographic Data Centre
#                                CCDC 
#
#######################################################################
#
# If this CIF has been generated from an entry in the Cambridge 
# Structural Database, then it will include bibliographic, chemical, 
# crystal, experimental, refinement or atomic coordinate data resulting 
# from the CCDC's data processing and validation procedures.
#
#######################################################################

data_RIWQET01
_chemical_formula_moiety         'C13 H12 N4 O4'
_chemical_name_systematic        2-(Methylbenzylamino)-3,5-dinitropyridine
_symmetry_cell_setting           monoclinic
_symmetry_space_group_name_H-M   'P 21'
_symmetry_Int_Tables_number      4
_space_group_name_Hall           'P 2yb'
loop_
_symmetry_equiv_pos_site_id
_symmetry_equiv_pos_as_xyz
1 x,y,z
2 -x,1/2+y,-z
_cell_length_a                   8.352(3)
_cell_length_b                   8.570(3)
_cell_length_c                   8.909(4)
_cell_angle_alpha                90
_cell_angle_beta                 93.98(2)
_cell_angle_gamma                90
_cell_volume                     636.138
_exptl_crystal_colour            yellow
_exptl_crystal_description       'hexagonal prism'
_cell_formula_units_Z            2
loop_
_atom_site_label
_atom_site_type_symbol
_atom_site_fract_x
_atom_site_fract_y
_atom_site_fract_z
O1 O -0.15593(12) 0.96547(13) 0.73206(12)
O2 O -0.01945(13) 1.06825(13) 0.55930(12)
O3 O 0.51576(12) 0.89189(13) 0.49365(12)
O4 O 0.61174(12) 0.69667(13) 0.62704(12)
N1 N -0.08104(7) 0.67472(7) 0.82438(7)
H1 H -0.1746(3) 0.7477(3) 0.7998(3)
N2 N 0.17873(7) 0.60357(7) 0.78741(7)
N3 N -0.03933(7) 0.96757(7) 0.65345(7)
N4 N 0.50107(7) 0.78427(7) 0.58286(7)
C1 C -0.24396(10) 0.55579(10) 1.00641(10)
C2 C -0.38679(10) 0.47043(11) 1.00011(10)
H2 H -0.4081(3) 0.3772(3) 0.9181(3)
C3 C -0.50539(10) 0.50292(11) 1.09938(10)
H3 H -0.6170(3) 0.4370(3) 1.0907(3)
C4 C -0.48078(10) 0.61863(11) 1.20866(10)
H4 H -0.5733(3) 0.6411(3) 1.2864(3)
C5 C -0.33708(11) 0.70326(11) 1.21700(10)
H5 H -0.3150(3) 0.7913(3) 1.3034(3)
C6 C -0.22085(10) 0.67300(11) 1.11570(10)
H6 H -0.1108(3) 0.7410(3) 1.1218(3)
C7 C -0.11286(10) 0.52602(10) 0.89968(9)
H7 H -0.0012(2) 0.4945(3) 0.9657(2)
C8 C -0.15256(11) 0.39796(10) 0.78310(10)
H8 H -0.1687(3) 0.2854(3) 0.8380(3)
H9 H -0.0542(3) 0.3866(3) 0.7081(3)
H10 H -0.2630(3) 0.4254(3) 0.7153(3)
C9 C 0.05708(10) 0.70823(10) 0.76388(9)
C10 C 0.08145(10) 0.84614(10) 0.67666(10)
C11 C 0.22537(10) 0.87061(10) 0.61283(10)
H11 H 0.2447(3) 0.9743(3) 0.5467(3)
C12 C 0.34521(10) 0.76013(10) 0.64042(10)
C13 C 0.31768(10) 0.63001(10) 0.72972(10)
H12 H 0.4132(3) 0.5450(3) 0.7533(3)
loop_
_geom_bond_atom_site_label_1
_geom_bond_atom_site_label_2
_geom_bond_site_symmetry_1
_geom_bond_site_symmetry_2
O1 N3 1_555 1_555
O2 N3 1_555 1_555
O3 N4 1_555 1_555
O4 N4 1_555 1_555
N1 H1 1_555 1_555
N2 C9 1_555 1_555
N3 C10 1_555 1_555
N4 C12 1_555 1_555
C1 C2 1_555 1_555
C2 H2 1_555 1_555
C3 C2 1_555 1_555
H3 C3 1_555 1_555
C4 C3 1_555 1_555
H4 C4 1_555 1_555
C5 C4 1_555 1_555
H5 C5 1_555 1_555
C6 C1 1_555 1_555
H6 C6 1_555 1_555
C7 N1 1_555 1_555
H7 C7 1_555 1_555
C8 C7 1_555 1_555
H8 C8 1_555 1_555
H9 C8 1_555 1_555
H10 C8 1_555 1_555
C9 N1 1_555 1_555
C10 C9 1_555 1_555
C11 C10 1_555 1_555
H11 C11 1_555 1_555
C12 C11 1_555 1_555
C13 N2 1_555 1_555
H12 C13 1_555 1_555
C1 C7 1_555 1_555
C5 C6 1_555 1_555
C12 C13 1_555 1_555

#END
