
#######################################################################
#
#                 Cambridge Crystallographic Data Centre
#                                CCDC 
#
#######################################################################
#
# If this CIF has been generated from an entry in the Cambridge 
# Structural Database, then it will include bibliographic, chemical, 
# crystal, experimental, refinement or atomic coordinate data resulting 
# from the CCDC's data processing and validation procedures.
#
#######################################################################

data_RIWRUN
_chemical_formula_moiety         'C23 H18 F3 N1 O5'
_chemical_name_systematic        
N-[4-benzyl-2,5-dioxo-6a-(trifluoromethyl)octahydrooxireno[g][1]benzofuran-4-yl]benzamide
_symmetry_cell_setting           orthorhombic
_symmetry_space_group_name_H-M   'P 21 21 21'
_symmetry_Int_Tables_number      19
_space_group_name_Hall           'P 2ac 2ab'
loop_
_symmetry_equiv_pos_site_id
_symmetry_equiv_pos_as_xyz
1 x,y,z
2 1/2-x,-y,1/2+z
3 -x,1/2+y,1/2-z
4 1/2+x,1/2-y,-z
_cell_length_a                   6.88270(10)
_cell_length_b                   7.78810(10)
_cell_length_c                   36.9400(5)
_cell_angle_alpha                90
_cell_angle_beta                 90
_cell_angle_gamma                90
_cell_volume                     1980.1
_exptl_crystal_colour            colorless
_exptl_crystal_description       BAR
_cell_formula_units_Z            4
loop_
_atom_site_label
_atom_site_type_symbol
_atom_site_fract_x
_atom_site_fract_y
_atom_site_fract_z
F1 F 0.29333(19) 0.79074(14) 0.45842(3)
H1 H 0.657(3) 0.655(3) 0.3395(6)
F2 F 0.4211(2) 0.59716(16) 0.49256(3)
F3 F 0.11559(19) 0.58969(16) 0.48035(3)
O1 O 0.18338(16) 0.53526(16) 0.40797(3)
O2 O 0.38749(17) 0.19667(15) 0.42244(3)
O3 O 0.40346(19) 0.34119(16) 0.34148(3)
O4 O 0.13946(18) 0.63386(17) 0.35204(4)
O5 O 0.82847(19) 0.30389(19) 0.46648(4)
N1 N 0.5697(2) 0.58884(19) 0.34744(4)
C1 C 0.5279(2) 0.4393(2) 0.33004(4)
C2 C 0.6695(2) 0.9273(2) 0.37566(5)
C3 C 0.3363(2) 0.5094(2) 0.43361(5)
C4 C 0.6912(3) 0.3181(2) 0.44637(4)
C5 C 0.5039(3) 0.2291(2) 0.45425(4)
H2 H 0.501974 0.141804 0.474102
C6 C 0.6376(3) 0.4078(2) 0.29571(4)
C7 C 0.2479(2) 0.6031(2) 0.37612(5)
C8 C 0.6872(2) 0.4248(2) 0.41239(5)
H3 H 0.658306 0.350489 0.391330
H4 H 0.816086 0.478172 0.408508
C9 C 0.4650(2) 0.6480(2) 0.37893(4)
C10 C 0.3243(2) 0.3252(2) 0.44691(4)
H5 H 0.209423 0.295762 0.462284
C11 C 0.7933(3) 0.9430(2) 0.40528(5)
H6 H 0.754963 0.897909 0.428080
C12 C 0.4699(2) 0.8478(2) 0.37890(5)
H7 H 0.389123 0.889412 0.358539
H8 H 0.409394 0.889187 0.401591
C13 C 0.5309(2) 0.5662(2) 0.41551(4)
H9 H 0.586717 0.660425 0.430687
C14 C 0.2904(3) 0.6233(2) 0.46644(5)
C15 C 0.5498(3) 0.3060(2) 0.26939(5)
H10 H 0.426428 0.255614 0.273889
C16 C 0.7293(3) 0.9957(2) 0.34264(5)
H11 H 0.647324 0.985801 0.322055
C17 C 0.9136(3) 0.4457(3) 0.25643(6)
H12 H 1.039036 0.492236 0.252092
C18 C 0.8213(3) 0.4759(3) 0.28922(5)
H13 H 0.883674 0.543082 0.307272
C19 C 1.0295(3) 1.0925(2) 0.36902(6)
H14 H 1.151354 1.148818 0.366820
C20 C 0.9075(3) 1.0783(2) 0.33947(5)
H15 H 0.945647 1.125232 0.316827
C21 C 0.9720(3) 1.0238(2) 0.40187(6)
H16 H 1.055615 1.032074 0.422256
C22 C 0.6424(4) 0.2786(3) 0.23670(5)
H17 H 0.580977 0.211051 0.218593
C23 C 0.8236(4) 0.3485(3) 0.23013(5)
H18 H 0.885960 0.329561 0.207544
loop_
_geom_bond_atom_site_label_1
_geom_bond_atom_site_label_2
_geom_bond_site_symmetry_1
_geom_bond_site_symmetry_2
F1 C14 1_555 1_555
H1 N1 1_555 1_555
F2 C14 1_555 1_555
F3 C14 1_555 1_555
O1 C3 1_555 1_555
O2 C5 1_555 1_555
O3 C1 1_555 1_555
O4 C7 1_555 1_555
O5 C4 1_555 1_555
N1 C1 1_555 1_555
C1 C6 1_555 1_555
C2 C11 1_555 1_555
C3 C10 1_555 1_555
C4 C5 1_555 1_555
C5 H2 1_555 1_555
C6 C15 1_555 1_555
C7 O1 1_555 1_555
C8 C4 1_555 1_555
H3 C8 1_555 1_555
H4 C8 1_555 1_555
C9 N1 1_555 1_555
C10 O2 1_555 1_555
H5 C10 1_555 1_555
C11 H6 1_555 1_555
C12 C2 1_555 1_555
H7 C12 1_555 1_555
H8 C12 1_555 1_555
C13 C3 1_555 1_555
H9 C13 1_555 1_555
C14 C3 1_555 1_555
C15 H10 1_555 1_555
C16 C2 1_555 1_555
H11 C16 1_555 1_555
C17 H12 1_555 1_555
C18 C6 1_555 1_555
H13 C18 1_555 1_555
C19 H14 1_555 1_555
C20 C16 1_555 1_555
H15 C20 1_555 1_555
C21 C11 1_555 1_555
H16 C21 1_555 1_555
C22 C15 1_555 1_555
H17 C22 1_555 1_555
C23 C17 1_555 1_555
H18 C23 1_555 1_555
C5 C10 1_555 1_555
C7 C9 1_555 1_555
C8 C13 1_555 1_555
C9 C12 1_555 1_555
C9 C13 1_555 1_555
C17 C18 1_555 1_555
C19 C20 1_555 1_555
C19 C21 1_555 1_555
C22 C23 1_555 1_555

#END
