
#######################################################################
#
#                 Cambridge Crystallographic Data Centre
#                                CCDC 
#
#######################################################################
#
# If this CIF has been generated from an entry in the Cambridge 
# Structural Database, then it will include bibliographic, chemical, 
# crystal, experimental, refinement or atomic coordinate data resulting 
# from the CCDC's data processing and validation procedures.
#
#######################################################################

data_RIWSAU
_chemical_formula_moiety         'C17 H14 F3 N1 O4'
_chemical_name_systematic        
N-[3-methyl-2,5-dioxo-7a-(trifluoromethyl)-2,3,3a,4,5,7a-hexahydro-1-benzofuran-3-yl]benzamide
_symmetry_cell_setting           orthorhombic
_symmetry_space_group_name_H-M   'P 21 21 21'
_symmetry_Int_Tables_number      19
_space_group_name_Hall           'P 2ac 2ab'
loop_
_symmetry_equiv_pos_site_id
_symmetry_equiv_pos_as_xyz
1 x,y,z
2 1/2-x,-y,1/2+z
3 -x,1/2+y,1/2-z
4 1/2+x,1/2-y,-z
_cell_length_a                   8.2742(16)
_cell_length_b                   10.476(2)
_cell_length_c                   18.592(4)
_cell_angle_alpha                90
_cell_angle_beta                 90
_cell_angle_gamma                90
_cell_volume                     1611.56
_exptl_crystal_colour            colorless
_exptl_crystal_description       BLOCK
_cell_formula_units_Z            4
loop_
_atom_site_label
_atom_site_type_symbol
_atom_site_fract_x
_atom_site_fract_y
_atom_site_fract_z
F1 F 0.22777(19) 0.51259(14) 0.57816(7)
O1 O 0.50523(16) 0.52282(13) 0.49801(7)
O2 O 0.66188(17) 0.68635(13) 0.37997(7)
F2 F 0.25213(19) 0.35557(12) 0.50498(7)
F3 F 0.07930(16) 0.50465(17) 0.48293(8)
O3 O 0.74683(18) 0.44851(15) 0.46650(8)
N1 N 0.6258(2) 0.50503(15) 0.31899(8)
H1 H 0.642416 0.460531 0.279530
O4 O 0.3537(2) 0.82428(16) 0.30126(9)
C1 C 0.6126(2) 0.47563(18) 0.44911(10)
C2 C 0.6895(2) 0.62332(17) 0.32543(9)
C3 C 0.5302(2) 0.45131(17) 0.37686(10)
C4 C 0.7920(2) 0.67446(18) 0.26573(9)
C5 C 0.3294(3) 0.6971(2) 0.47703(10)
H2 H 0.317134 0.726591 0.525040
C6 C 0.8737(3) 0.7880(2) 0.27808(11)
H3 H 0.863347 0.830017 0.323126
C7 C 0.8061(3) 0.6152(2) 0.19896(10)
H4 H 0.749440 0.538125 0.189634
C8 C 0.3253(3) 0.7824(2) 0.42470(11)
H5 H 0.316265 0.870326 0.436544
C9 C 0.3574(2) 0.50822(18) 0.38617(9)
H6 H 0.279814 0.435254 0.382829
C10 C 0.5225(3) 0.30631(19) 0.36639(11)
H7 H 0.467748 0.287008 0.320927
H8 H 0.462417 0.267771 0.406287
H9 H 0.632372 0.271440 0.365251
C11 C 0.3522(2) 0.55653(19) 0.46534(10)
C12 C 0.3026(3) 0.6079(2) 0.33102(10)
H10 H 0.356164 0.588487 0.284689
H11 H 0.184835 0.597520 0.323594
C13 C 0.9854(3) 0.7809(2) 0.15879(12)
H12 H 1.051918 0.817011 0.122447
C14 C 0.9030(3) 0.6689(2) 0.14605(11)
H13 H 0.912500 0.628073 0.100631
C15 C 0.9707(3) 0.8403(2) 0.22468(12)
H14 H 1.027297 0.917606 0.233617
C16 C 0.2264(3) 0.4816(2) 0.50852(11)
C17 C 0.3343(3) 0.7447(2) 0.34863(11)
loop_
_geom_bond_atom_site_label_1
_geom_bond_atom_site_label_2
_geom_bond_site_symmetry_1
_geom_bond_site_symmetry_2
F1 C16 1_555 1_555
O1 C1 1_555 1_555
O2 C2 1_555 1_555
F2 C16 1_555 1_555
F3 C16 1_555 1_555
O3 C1 1_555 1_555
N1 H1 1_555 1_555
O4 C17 1_555 1_555
C1 C3 1_555 1_555
C2 N1 1_555 1_555
C3 N1 1_555 1_555
C4 C2 1_555 1_555
C5 H2 1_555 1_555
C6 C4 1_555 1_555
H3 C6 1_555 1_555
C7 C4 1_555 1_555
H4 C7 1_555 1_555
C8 C5 1_555 1_555
H5 C8 1_555 1_555
C9 C3 1_555 1_555
H6 C9 1_555 1_555
C10 C3 1_555 1_555
H7 C10 1_555 1_555
H8 C10 1_555 1_555
H9 C10 1_555 1_555
C11 O1 1_555 1_555
C12 C9 1_555 1_555
H10 C12 1_555 1_555
H11 C12 1_555 1_555
C13 H12 1_555 1_555
C14 C7 1_555 1_555
H13 C14 1_555 1_555
C15 C6 1_555 1_555
H14 C15 1_555 1_555
C16 C11 1_555 1_555
C17 C8 1_555 1_555
C5 C11 1_555 1_555
C9 C11 1_555 1_555
C12 C17 1_555 1_555
C13 C14 1_555 1_555
C13 C15 1_555 1_555

#END
