
#######################################################################
#
#                 Cambridge Crystallographic Data Centre
#                                CCDC 
#
#######################################################################
#
# If this CIF has been generated from an entry in the Cambridge 
# Structural Database, then it will include bibliographic, chemical, 
# crystal, experimental, refinement or atomic coordinate data resulting 
# from the CCDC's data processing and validation procedures.
#
#######################################################################

data_RIWVUP
_chemical_formula_moiety         'C10 H12 O3'
_chemical_name_systematic        'rac-2-(2-Methylphenoxy)propionic acid'
_symmetry_cell_setting           triclinic
_symmetry_space_group_name_H-M   'P -1'
_symmetry_Int_Tables_number      2
_space_group_name_Hall           '-P 1'
loop_
_symmetry_equiv_pos_site_id
_symmetry_equiv_pos_as_xyz
1 x,y,z
2 -x,-y,-z
_cell_length_a                   11.0496(7)
_cell_length_b                   11.0870(7)
_cell_length_c                   15.7565(10)
_cell_angle_alpha                83.3080(10)
_cell_angle_beta                 82.9560(10)
_cell_angle_gamma                89.1500(10)
_cell_volume                     1902.66
_exptl_crystal_colour            colorless
_exptl_crystal_description       tablet
_chemical_melting_point          '91-92 deg.C'
_cell_formula_units_Z            8
_exptl_crystal_recrystallization_method methanol
loop_
_atom_site_label
_atom_site_type_symbol
_atom_site_fract_x
_atom_site_fract_y
_atom_site_fract_z
O1 O 0.88876(10) 0.59736(10) 0.04013(6)
O2 O 0.89420(10) 0.48458(9) -0.06822(6)
O3 O 0.65413(8) 0.65854(8) 0.02458(6)
C1 C 0.84401(11) 0.56084(10) -0.02195(7)
C2 C 0.72567(11) 0.61618(11) -0.04707(8)
H1 H 0.6786 0.5547 -0.0712
C3 C 0.75471(13) 0.72480(13) -0.11439(9)
H2 H 0.6786 0.7633 -0.1294
H3 H 0.8008 0.6977 -0.1660
H4 H 0.8034 0.7835 -0.0912
C4 C 0.60267(10) 0.57254(11) 0.08855(8)
C5 C 0.54194(10) 0.62018(12) 0.16047(8)
C6 C 0.48425(12) 0.53821(14) 0.22596(8)
H5 H 0.4404 0.5686 0.2747
C7 C 0.48844(13) 0.41417(14) 0.22269(9)
H6 H 0.4482 0.3604 0.2685
C8 C 0.55153(13) 0.36964(13) 0.15232(9)
H7 H 0.5565 0.2845 0.1500
C9 C 0.60810(12) 0.44840(12) 0.08468(9)
H8 H 0.6505 0.4172 0.0357
C10 C 0.54372(14) 0.75413(13) 0.16654(10)
H9 H 0.4930 0.7719 0.2191
H10 H 0.5117 0.7977 0.1163
H11 H 0.6277 0.7803 0.1682
H50 H 0.963(4) 0.469(4) -0.062(3)
O4 O 0.41017(9) 0.40295(10) 0.45738(6)
O5 O 0.51197(9) 0.37106(10) 0.57129(6)
O6 O 0.34567(7) 0.16617(8) 0.47394(5)
C11 C 0.44153(10) 0.33768(11) 0.52125(7)
C12 C 0.38768(11) 0.21133(11) 0.54542(7)
H12 H 0.4500 0.1549 0.5690
C13 C 0.27800(12) 0.21848(14) 0.61296(9)
H13 H 0.2187 0.2764 0.5903
H14 H 0.3044 0.2456 0.6648
H15 H 0.2402 0.1381 0.6274
C14 C 0.43187(11) 0.13285(10) 0.40977(7)
C15 C 0.38359(11) 0.09298(10) 0.34029(7)
C16 C 0.46479(14) 0.05510(12) 0.27422(8)
H16 H 0.4337 0.0258 0.2269
C17 C 0.58960(14) 0.05878(13) 0.27529(9)
H17 H 0.6433 0.0323 0.2293
C18 C 0.63514(12) 0.10109(13) 0.34344(9)
H18 H 0.7208 0.1054 0.3441
C19 C 0.55648(11) 0.13761(12) 0.41151(8)
H19 H 0.5882 0.1657 0.4590
C20 C 0.24802(13) 0.09423(14) 0.33747(9)
H20 H 0.2295 0.0563 0.2874
H21 H 0.2186 0.1783 0.3330
H22 H 0.2075 0.0489 0.3902
H48 H 0.529(3) 0.443(3) 0.564(2)
O7 O 0.09333(9) 0.88573(10) 0.54100(6)
O8 O -0.01024(8) 0.89855(9) 0.42754(6)
O9 O 0.15426(8) 0.65325(8) 0.52181(6)
C21 C 0.06051(10) 0.84490(11) 0.47621(7)
C22 C 0.11551(11) 0.72661(11) 0.45036(8)
H23 H 0.0544 0.6814 0.4244
C23 C 0.22728(13) 0.75506(14) 0.38504(9)
H24 H 0.2858 0.8014 0.4102
H25 H 0.2030 0.8031 0.3336
H26 H 0.2651 0.6791 0.3691
C24 C 0.06507(11) 0.60427(10) 0.58465(7)
C25 C 0.10873(12) 0.54372(11) 0.65771(8)
C26 C 0.02358(14) 0.49040(12) 0.72243(8)
H27 H 0.0514 0.4471 0.7720
C27 C -0.10060(14) 0.49779(13) 0.71753(9)
H28 H -0.1569 0.4608 0.7632
C28 C -0.14134(13) 0.55935(13) 0.64566(9)
H29 H -0.2263 0.5656 0.6417
C29 C -0.05878(12) 0.61231(12) 0.57897(8)
H30 H -0.0873 0.6543 0.5292
C30 C 0.24264(14) 0.54195(15) 0.66559(10)
H31 H 0.2577 0.4899 0.7179
H32 H 0.2705 0.6246 0.6688
H33 H 0.2872 0.5101 0.6153
H45 H 0.070(3) 0.954(3) 0.5512(18)
O10 O 0.40249(9) 0.90770(9) -0.04252(6)
O11 O 0.37322(9) 1.00901(8) 0.07240(6)
O12 O 0.16586(8) 0.84405(8) -0.02355(5)
C31 C 0.33834(10) 0.93960(10) 0.02320(7)
C32 C 0.21233(11) 0.88394(11) 0.04805(7)
H34 H 0.1553 0.9445 0.0737
C33 C 0.22195(13) 0.77312(13) 0.11334(9)
H35 H 0.1417 0.7346 0.1284
H36 H 0.2504 0.7980 0.1652
H37 H 0.2800 0.7152 0.0885
C34 C 0.13225(10) 0.93151(11) -0.08592(7)
C35 C 0.09293(10) 0.88600(12) -0.15684(8)
C36 C 0.05489(11) 0.96920(15) -0.22086(8)
H38 H 0.0261 0.9402 -0.2691
C37 C 0.05747(12) 1.09315(15) -0.21683(8)
H39 H 0.0306 1.1481 -0.2616
C38 C 0.09935(12) 1.13561(13) -0.14742(9)
H40 H 0.1031 1.2206 -0.1446
C39 C 0.13622(11) 1.05520(12) -0.08138(8)
H41 H 0.1642 1.0850 -0.0331
C40 C 0.09655(14) 0.75202(14) -0.16345(10)
H42 H 0.0582 0.7353 -0.2137
H43 H 0.0523 0.7088 -0.1113
H44 H 0.1815 0.7244 -0.1697
H47 H 0.475(3) 0.934(3) -0.052(2)
H46? H -0.035(3) 0.970(4) 0.437(2)
H49? H 0.429(3) 0.480(4) 0.448(2)
H51? H 0.448(4) 1.031(3) 0.067(2)
H52? H 0.961(4) 0.574(4) 0.050(2)
loop_
_geom_bond_atom_site_label_1
_geom_bond_atom_site_label_2
_geom_bond_site_symmetry_1
_geom_bond_site_symmetry_2
O1 C1 1_555 1_555
O2 C1 1_555 1_555
O3 C2 1_555 1_555
C1 C2 1_555 1_555
C2 H1 1_555 1_555
C3 C2 1_555 1_555
H2 C3 1_555 1_555
H3 C3 1_555 1_555
H4 C3 1_555 1_555
C4 O3 1_555 1_555
C5 C4 1_555 1_555
C6 C5 1_555 1_555
H5 C6 1_555 1_555
C7 C6 1_555 1_555
H6 C7 1_555 1_555
C8 C7 1_555 1_555
H7 C8 1_555 1_555
C9 C4 1_555 1_555
H8 C9 1_555 1_555
C10 C5 1_555 1_555
H9 C10 1_555 1_555
H10 C10 1_555 1_555
H11 C10 1_555 1_555
O4 C11 1_555 1_555
O5 C11 1_555 1_555
O6 C12 1_555 1_555
C11 C12 1_555 1_555
C12 H12 1_555 1_555
C13 C12 1_555 1_555
H13 C13 1_555 1_555
H14 C13 1_555 1_555
H15 C13 1_555 1_555
C14 O6 1_555 1_555
C15 C14 1_555 1_555
C16 C15 1_555 1_555
H16 C16 1_555 1_555
C17 C16 1_555 1_555
H17 C17 1_555 1_555
C18 C17 1_555 1_555
H18 C18 1_555 1_555
C19 C14 1_555 1_555
H19 C19 1_555 1_555
C20 C15 1_555 1_555
H20 C20 1_555 1_555
H21 C20 1_555 1_555
H22 C20 1_555 1_555
O7 C21 1_555 1_555
O8 C21 1_555 1_555
O9 C22 1_555 1_555
C21 C22 1_555 1_555
C22 H23 1_555 1_555
C23 C22 1_555 1_555
H24 C23 1_555 1_555
H25 C23 1_555 1_555
H26 C23 1_555 1_555
C24 O9 1_555 1_555
C25 C24 1_555 1_555
C26 C25 1_555 1_555
H27 C26 1_555 1_555
C27 C26 1_555 1_555
H28 C27 1_555 1_555
C28 C27 1_555 1_555
H29 C28 1_555 1_555
C29 C24 1_555 1_555
H30 C29 1_555 1_555
C30 C25 1_555 1_555
H31 C30 1_555 1_555
H32 C30 1_555 1_555
H33 C30 1_555 1_555
O10 C31 1_555 1_555
O11 C31 1_555 1_555
O12 C32 1_555 1_555
C31 C32 1_555 1_555
C32 H34 1_555 1_555
C33 C32 1_555 1_555
H35 C33 1_555 1_555
H36 C33 1_555 1_555
H37 C33 1_555 1_555
C34 O12 1_555 1_555
C35 C34 1_555 1_555
C36 C35 1_555 1_555
H38 C36 1_555 1_555
C37 C36 1_555 1_555
H39 C37 1_555 1_555
C38 C37 1_555 1_555
H40 C38 1_555 1_555
C39 C34 1_555 1_555
H41 C39 1_555 1_555
C40 C35 1_555 1_555
H42 C40 1_555 1_555
H43 C40 1_555 1_555
H44 C40 1_555 1_555
H45 O7 1_555 1_555
H47 O10 1_555 1_555
H48 O5 1_555 1_555
H50 O2 1_555 1_555
C8 C9 1_555 1_555
C18 C19 1_555 1_555
C28 C29 1_555 1_555
C38 C39 1_555 1_555

#END
