
#######################################################################
#
#                 Cambridge Crystallographic Data Centre
#                                CCDC 
#
#######################################################################
#
# If this CIF has been generated from an entry in the Cambridge 
# Structural Database, then it will include bibliographic, chemical, 
# crystal, experimental, refinement or atomic coordinate data resulting 
# from the CCDC's data processing and validation procedures.
#
#######################################################################

data_RIWWOM
_chemical_formula_moiety         'C30 H38 N20 O14 Sr1 2+,2(Cl1 1-),11(H2 O1)'
_chemical_name_systematic        
'tetra-aqua-(cucurbit(5)uril)-strontium dichloride undecahydrate'
_symmetry_cell_setting           monoclinic
_symmetry_space_group_name_H-M   'P 21/c'
_symmetry_Int_Tables_number      14
_space_group_name_Hall           '-P 2ybc'
loop_
_symmetry_equiv_pos_site_id
_symmetry_equiv_pos_as_xyz
1 x,y,z
2 -x,1/2+y,1/2-z
3 -x,-y,-z
4 x,1/2-y,1/2+z
_cell_length_a                   11.4652(7)
_cell_length_b                   14.6386(9)
_cell_length_c                   29.2842(18)
_cell_angle_alpha                90
_cell_angle_beta                 91.563(2)
_cell_angle_gamma                90
_cell_volume                     4913.07
_exptl_crystal_colour            colorless
_cell_formula_units_Z            4
loop_
_atom_site_label
_atom_site_type_symbol
_atom_site_fract_x
_atom_site_fract_y
_atom_site_fract_z
Cl1 Cl 0.13877(17) 0.26091(13) 0.10058(5)
Cl2 Cl 0.2441(3) 0.8597(2) 0.30845(12)
C1 C 0.9103(4) 0.9365(3) 0.25557(13)
C2 C 0.9363(4) 0.7749(3) 0.27484(14)
H1 H 0.920639 0.742460 0.302910
H2 H 1.018822 0.789559 0.275072
C3 C 0.9788(4) 0.7137(3) 0.19875(14)
C4 C 1.0002(4) 0.6206(3) 0.12998(15)
H3 H 0.998419 0.555230 0.124670
H4 H 1.081281 0.639454 0.131565
C5 C 0.9841(4) 0.7466(3) 0.07505(14)
C6 C 0.9437(4) 0.8473(3) 0.00965(15)
H5 H 1.025225 0.863985 0.013587
H6 H 0.929605 0.833236 -0.022389
C7 C 0.9120(4) 0.9912(3) 0.05023(14)
C8 C 0.8437(4) 1.1390(3) 0.07847(14)
H7 H 0.807708 1.190070 0.062374
H8 H 0.926501 1.151951 0.081881
C9 C 0.8598(4) 1.1043(3) 0.16049(14)
C10 C 0.8379(4) 1.0933(3) 0.24311(14)
H9 H 0.919956 1.109567 0.243087
H10 H 0.799105 1.135674 0.263138
C11 C 0.6751(3) 1.1409(3) 0.18623(15)
H11 H 0.662891 1.198874 0.202085
C12 C 0.6764(4) 1.1541(3) 0.13417(15)
H12 H 0.655417 1.216711 0.125403
C13 C 0.7296(4) 1.0388(3) 0.02149(14)
H13 H 0.716631 1.086717 -0.001446
C14 C 0.7618(4) 0.9458(3) -0.00074(14)
H14 H 0.768738 0.951415 -0.033901
C15 C 0.8357(4) 0.6994(3) 0.02446(15)
H15 H 0.847912 0.673049 -0.005800
C16 C 0.8523(4) 0.6276(3) 0.06295(15)
H16 H 0.875194 0.568144 0.050724
C17 C 0.8490(4) 0.5917(3) 0.19073(15)
H17 H 0.865335 0.526513 0.194998
C18 C 0.8288(4) 0.6397(3) 0.23635(14)
H18 H 0.844757 0.598793 0.262267
C19 C 0.7521(4) 0.8663(3) 0.28969(13)
H19 H 0.748018 0.851893 0.322285
C20 C 0.7209(4) 0.9674(3) 0.28010(14)
H20 H 0.700573 0.999904 0.308040
C21 C 0.6601(4) 0.6804(3) 0.06211(14)
C22 C 0.6564(4) 0.7913(3) -0.00155(15)
H21 H 0.687354 0.783221 -0.031792
H22 H 0.574397 0.775142 -0.003184
C23 C 0.5856(4) 0.9296(4) 0.03738(14)
C24 C 0.5549(4) 1.0818(3) 0.07002(15)
H23 H 0.561517 1.141254 0.055667
H24 H 0.473473 1.063917 0.068233
C25 C 0.5289(4) 1.0518(3) 0.15177(15)
C26 C 0.5502(4) 1.0380(3) 0.23534(15)
H25 H 0.469627 1.017837 0.233580
H26 H 0.556503 1.084245 0.259022
C27 C 0.5860(4) 0.8734(3) 0.24266(14)
C28 C 0.6467(4) 0.7199(3) 0.26656(15)
H27 H 0.563583 0.708250 0.263205
H28 H 0.671380 0.699963 0.296900
C29 C 0.6575(4) 0.6463(3) 0.19152(15)
C30 C 0.7107(4) 0.5671(3) 0.12143(14)
H29 H 0.751897 0.509583 0.118785
H30 H 0.627798 0.553955 0.120062
N1 N 0.7952(3) 1.1330(3) 0.12318(12)
N2 N 0.7889(3) 1.1034(2) 0.19700(12)
N3 N 0.5913(3) 1.0893(3) 0.11743(12)
N4 N 0.5790(3) 1.0788(2) 0.19241(11)
N5 N 0.6235(3) 0.9610(2) 0.24849(12)
N6 N 0.8267(3) 1.0029(2) 0.26088(12)
N7 N 0.8705(3) 0.8577(3) 0.27365(12)
N8 N 0.6660(3) 0.8163(2) 0.26311(12)
N9 N 0.9092(3) 0.7155(2) 0.23623(11)
N10 N 0.9482(3) 0.6394(2) 0.17332(12)
N11 N 0.7396(3) 0.6065(3) 0.16499(12)
N12 N 0.7067(3) 0.6653(2) 0.23327(12)
N13 N 0.9428(3) 0.6660(3) 0.09171(12)
N14 N 0.9222(3) 0.7661(3) 0.03630(12)
N15 N 0.7164(3) 0.7295(3) 0.02971(12)
N16 N 0.7383(3) 0.6233(3) 0.08340(13)
N17 N 0.6668(3) 0.8859(3) 0.01097(12)
N18 N 0.8733(3) 0.9243(3) 0.02146(12)
N19 N 0.6230(3) 1.0163(3) 0.04503(12)
N20 N 0.8288(3) 1.0581(3) 0.05098(12)
O1 O 1.0576(2) 0.7669(2) 0.19147(10)
O2 O 1.0621(3) 0.7925(2) 0.09175(10)
O3 O 0.8519(3) 0.8866(3) 0.14793(14)
O4 O 1.0058(3) 0.9922(2) 0.07097(10)
O5 O 1.2525(3) 0.9100(3) 0.21013(14)
O6 O 0.9627(2) 1.0832(2) 0.16085(10)
O7 O 1.2663(3) 0.8937(4) 0.10443(17)
O8 O 1.0049(2) 0.9485(2) 0.23823(10)
O9 O 1.2059(3) 1.0751(2) 0.14895(14)
O10 O 0.4960(3) 0.8495(2) 0.22250(10)
O11 O 0.5567(3) 0.6604(2) 0.17967(10)
O12 O 0.5558(3) 0.6879(2) 0.07059(11)
O13 O 0.4949(3) 0.8963(2) 0.04999(11)
O14 O 0.4430(2) 1.0028(2) 0.14739(10)
Sr1 Sr 1.08030(3) 0.92748(3) 0.15112(2)
loop_
_geom_bond_atom_site_label_1
_geom_bond_atom_site_label_2
_geom_bond_site_symmetry_1
_geom_bond_site_symmetry_2
C1 N6 1_555 1_555
C2 H1 1_555 1_555
H2 C2 1_555 1_555
C3 N9 1_555 1_555
C4 H3 1_555 1_555
H4 C4 1_555 1_555
C5 N13 1_555 1_555
C6 H5 1_555 1_555
H6 C6 1_555 1_555
C7 N18 1_555 1_555
C8 H7 1_555 1_555
H8 C8 1_555 1_555
C9 N1 1_555 1_555
C10 H9 1_555 1_555
H10 C10 1_555 1_555
C11 H11 1_555 1_555
C12 C11 1_555 1_555
H12 C12 1_555 1_555
C13 H13 1_555 1_555
C14 C13 1_555 1_555
H14 C14 1_555 1_555
C15 H15 1_555 1_555
C16 C15 1_555 1_555
H16 C16 1_555 1_555
C17 H17 1_555 1_555
C18 C17 1_555 1_555
H18 C18 1_555 1_555
C19 H19 1_555 1_555
C20 C19 1_555 1_555
H20 C20 1_555 1_555
C21 N15 1_555 1_555
C22 H21 1_555 1_555
H22 C22 1_555 1_555
C23 N17 1_555 1_555
C24 H23 1_555 1_555
H24 C24 1_555 1_555
C25 N3 1_555 1_555
C26 H25 1_555 1_555
H26 C26 1_555 1_555
C27 N5 1_555 1_555
C28 H27 1_555 1_555
H28 C28 1_555 1_555
C29 N11 1_555 1_555
C30 H29 1_555 1_555
H30 C30 1_555 1_555
N1 C8 1_555 1_555
N2 C9 1_555 1_555
N3 C12 1_555 1_555
N4 C11 1_555 1_555
N5 C20 1_555 1_555
N6 C10 1_555 1_555
N7 C1 1_555 1_555
N8 C19 1_555 1_555
N9 C2 1_555 1_555
N10 C3 1_555 1_555
N11 C17 1_555 1_555
N12 C18 1_555 1_555
N13 C4 1_555 1_555
N14 C5 1_555 1_555
N15 C15 1_555 1_555
N16 C16 1_555 1_555
N17 C14 1_555 1_555
N18 C6 1_555 1_555
N19 C13 1_555 1_555
N20 C7 1_555 1_555
O1 C3 1_555 1_555
O2 C5 1_555 1_555
O3 Sr1 1_555 1_555
O4 C7 1_555 1_555
O5 Sr1 1_555 1_555
O6 C9 1_555 1_555
O7 Sr1 1_555 1_555
O8 C1 1_555 1_555
O9 Sr1 1_555 1_555
O10 C27 1_555 1_555
O11 C29 1_555 1_555
O12 C21 1_555 1_555
O13 C23 1_555 1_555
O14 C25 1_555 1_555
Sr1 O1 1_555 1_555
C2 N7 1_555 1_555
C4 N10 1_555 1_555
C6 N14 1_555 1_555
C8 N20 1_555 1_555
C10 N2 1_555 1_555
C11 N2 1_555 1_555
C12 N1 1_555 1_555
C13 N20 1_555 1_555
C14 N18 1_555 1_555
C15 N14 1_555 1_555
C16 N13 1_555 1_555
C17 N10 1_555 1_555
C18 N9 1_555 1_555
C19 N7 1_555 1_555
C20 N6 1_555 1_555
C21 N16 1_555 1_555
C22 N15 1_555 1_555
C22 N17 1_555 1_555
C23 N19 1_555 1_555
C24 N3 1_555 1_555
C24 N19 1_555 1_555
C25 N4 1_555 1_555
C26 N4 1_555 1_555
C26 N5 1_555 1_555
C27 N8 1_555 1_555
C28 N8 1_555 1_555
C28 N12 1_555 1_555
C29 N12 1_555 1_555
C30 N11 1_555 1_555
C30 N16 1_555 1_555
O2 Sr1 1_555 1_555
O4 Sr1 1_555 1_555
O6 Sr1 1_555 1_555
O8 Sr1 1_555 1_555

#END
