
#######################################################################
#
#                 Cambridge Crystallographic Data Centre
#                                CCDC 
#
#######################################################################
#
# If this CIF has been generated from an entry in the Cambridge 
# Structural Database, then it will include bibliographic, chemical, 
# crystal, experimental, refinement or atomic coordinate data resulting 
# from the CCDC's data processing and validation procedures.
#
#######################################################################

data_RIWWUS
_chemical_formula_moiety         
'C30 H38 Cl1 N20 O14 Sr2 3+,2(C6 H5 N1 O3),3(Cl1 1-),2(H2 O1)'
_chemical_name_systematic        
'(\m-chloro)-(\m-cucurbit(5)uril)-tetra-aqua-di-strontium trichloride bis(4-nitrophenol) dihydrate'
_symmetry_cell_setting           monoclinic
_symmetry_space_group_name_H-M   'C 2/c'
_symmetry_Int_Tables_number      15
_space_group_name_Hall           '-C 2yn'
loop_
_symmetry_equiv_pos_site_id
_symmetry_equiv_pos_as_xyz
1 x,y,z
2 -x,y,1/2-z
3 1/2+x,1/2+y,z
4 1/2-x,1/2+y,1/2-z
5 -x,-y,-z
6 x,-y,1/2+z
7 1/2-x,1/2-y,-z
8 1/2+x,1/2-y,1/2+z
_cell_length_a                   21.3870(13)
_cell_length_b                   15.2616(10)
_cell_length_c                   19.7995(18)
_cell_angle_alpha                90
_cell_angle_beta                 115.670(2)
_cell_angle_gamma                90
_cell_volume                     5824.73
_exptl_crystal_colour            colorless
_cell_formula_units_Z            4
loop_
_atom_site_label
_atom_site_type_symbol
_atom_site_fract_x
_atom_site_fract_y
_atom_site_fract_z
C16 C 0.7238(2) 0.9200(3) 0.9521(2)
H16 H 0.741772 0.939166 1.001530
C17 C 0.7341(2) 0.9680(3) 0.8986(2)
H17 H 0.760316 1.019154 0.912380
C18 C 0.7057(2) 0.9407(3) 0.8247(2)
C19 C 0.6695(2) 0.8640(3) 0.8052(3)
H18 H 0.651075 0.844954 0.755739
C20 C 0.6601(2) 0.8149(3) 0.8580(3)
H19 H 0.635842 0.762303 0.844396
C21 C 0.6864(2) 0.8431(3) 0.9308(2)
N11 N 0.6723(2) 0.7913(3) 0.9844(2)
O8 O 0.71551(16) 0.99274(19) 0.77449(18)
H20 H 0.696485 0.970707 0.732668
O9 O 0.6918(2) 0.8210(3) 1.0475(2)
O10 O 0.6429(2) 0.7211(3) 0.9657(2)
Cl2 Cl 0.88299(6) 0.75513(7) 0.36518(5)
Cl3 Cl 0.64768(16) 0.94039(19) 0.62526(17)
C1 C 0.99140(18) -0.0677(2) 0.09533(17)
H1 H 1.016938 -0.118672 0.091753
H2 H 0.947362 -0.066990 0.051030
C2 C 0.91654(18) -0.0542(2) 0.16025(18)
C3 C 0.85792(18) -0.0659(2) 0.24268(18)
H3 H 0.852072 -0.114494 0.270979
H4 H 0.815520 -0.060677 0.196762
C4 C 0.83805(17) 0.0906(2) 0.25326(18)
C5 C 0.81683(17) 0.2374(2) 0.28946(19)
H5 H 0.803631 0.256458 0.328225
H6 H 0.775072 0.235475 0.242628
C6 C 0.86607(17) 0.3227(2) 0.21692(18)
C7 C 0.92443(17) 0.4274(2) 0.16933(18)
H7 H 0.881791 0.424805 0.123445
H8 H 0.935718 0.488721 0.181383
C8 C 0.94863(17) 0.4115(2) 0.30786(17)
H9 H 0.941878 0.473502 0.315934
C9 C 0.91476(17) 0.3501(2) 0.34530(18)
H10 H 0.893118 0.383414 0.371895
C10 C 0.88298(17) 0.1149(2) 0.38194(17)
H11 H 0.856322 0.119371 0.411474
C11 C 0.89523(17) 0.0177(2) 0.36668(17)
H12 H 0.871884 -0.023287 0.386319
C12 C 0.97868(19) -0.1284(2) 0.27335(18)
H13 H 0.970778 -0.187951 0.286517
C13 C 1.00161(19) 0.0873(2) 0.43256(17)
C14 C 0.96935(18) 0.2370(2) 0.44984(17)
H14 H 0.934816 0.257165 0.465754
H15 H 1.013822 0.236631 0.493563
C15 C 1.03294(18) 0.3219(2) 0.39435(18)
Cl1 Cl 1.000000 0.15362(10) 0.250000
N1 N 0.97779(15) -0.07786(18) 0.16087(14)
N2 N 0.91439(15) -0.08614(18) 0.22350(15)
N3 N 0.86726(14) 0.01366(18) 0.28591(14)
N4 N 0.84517(15) 0.15028(18) 0.30714(15)
N5 N 0.97033(15) 0.00954(18) 0.40522(15)
N6 N 0.95249(15) 0.14838(18) 0.42220(15)
N7 N 0.97262(14) 0.29864(18) 0.39609(15)
N8 N 0.86401(14) 0.30205(18) 0.28270(14)
N9 N 0.91256(14) 0.38737(18) 0.22882(15)
N10 N 1.02073(14) 0.38706(18) 0.34386(15)
O1 O 0.87047(12) -0.01408(15) 0.11037(12)
O2 O 0.80844(12) 0.10398(16) 0.18563(12)
O3 O 0.82931(11) 0.28952(15) 0.15517(12)
O4 O 1.06482(12) 0.09912(15) 0.46445(12)
O5 O 1.09033(12) 0.28944(15) 0.43367(12)
O6 O 0.72120(13) 0.11662(19) 0.03298(14)
O7 O 0.80244(14) 0.17525(19) -0.04751(14)
Sr1 Sr 0.85417(2) 0.15074(2) 0.09283(2)
C1A C 1.00860(18) -0.0677(2) 0.40467(17)
H1A H 0.983062 -0.118672 0.408247
H2A H 1.052638 -0.066990 0.448970
C2A C 1.08346(18) -0.0542(2) 0.33975(18)
C3A C 1.14208(18) -0.0659(2) 0.25732(18)
H3A H 1.147928 -0.114494 0.229021
H4A H 1.184480 -0.060677 0.303238
C4A C 1.16195(17) 0.0906(2) 0.24674(18)
C5A C 1.18317(17) 0.2374(2) 0.21054(19)
H5A H 1.196369 0.256458 0.171775
H6A H 1.224928 0.235475 0.257372
C6A C 1.13393(17) 0.3227(2) 0.28308(18)
C7A C 1.07557(17) 0.4274(2) 0.33067(18)
H7A H 1.118209 0.424805 0.376555
H8A H 1.064282 0.488721 0.318617
C8A C 1.05137(17) 0.4115(2) 0.19214(17)
H9A H 1.058122 0.473502 0.184066
C9A C 1.08524(17) 0.3501(2) 0.15470(18)
H10A H 1.106882 0.383414 0.128105
C10A C 1.11702(17) 0.1149(2) 0.11806(17)
H11A H 1.143678 0.119371 0.088526
C11A C 1.10477(17) 0.0177(2) 0.13332(17)
H12A H 1.128116 -0.023287 0.113681
C12A C 1.02132(19) -0.1284(2) 0.22665(18)
H13A H 1.029222 -0.187951 0.213483
C13A C 0.99839(19) 0.0873(2) 0.06744(17)
C14A C 1.03065(18) 0.2370(2) 0.05016(17)
H14A H 1.065184 0.257165 0.034246
H15A H 0.986178 0.236631 0.006437
C15A C 0.96706(18) 0.3219(2) 0.10565(18)
N1A N 1.02221(15) -0.07786(18) 0.33913(14)
N2A N 1.08561(15) -0.08614(18) 0.27650(15)
N3A N 1.13274(14) 0.01366(18) 0.21409(14)
N4A N 1.15483(15) 0.15028(18) 0.19286(15)
N5A N 1.02967(15) 0.00954(18) 0.09478(15)
N6A N 1.04751(15) 0.14838(18) 0.07780(15)
N7A N 1.02738(14) 0.29864(18) 0.10391(15)
N8A N 1.13599(14) 0.30205(18) 0.21730(14)
N9A N 1.08744(14) 0.38737(18) 0.27118(15)
N10A N 0.97927(14) 0.38706(18) 0.15614(15)
O1A O 1.12953(12) -0.01408(15) 0.38963(12)
O2A O 1.19156(12) 0.10398(16) 0.31437(12)
O3A O 1.17069(11) 0.28952(15) 0.34483(12)
O4A O 0.93518(12) 0.09912(15) 0.03555(12)
O5A O 0.90967(12) 0.28944(15) 0.06633(12)
O6A O 1.27880(13) 0.11662(19) 0.46702(14)
O7A O 1.19756(14) 0.17525(19) 0.54751(14)
Sr1A Sr 1.14583(2) 0.15074(2) 0.40717(2)
loop_
_geom_bond_atom_site_label_1
_geom_bond_atom_site_label_2
_geom_bond_site_symmetry_1
_geom_bond_site_symmetry_2
C1 H1 1_555 1_555
H2 C1 1_555 1_555
C2 N1 1_555 1_555
C3 H3 1_555 1_555
H4 C3 1_555 1_555
C4 N3 1_555 1_555
C5 H5 1_555 1_555
H6 C5 1_555 1_555
C6 N8 1_555 1_555
C7 H7 1_555 1_555
H8 C7 1_555 1_555
C8 H9 1_555 1_555
C9 C8 1_555 1_555
H10 C9 1_555 1_555
C10 H11 1_555 1_555
C11 C10 1_555 1_555
H12 C11 1_555 1_555
C12 H13 1_555 1_555
C13 N5 1_555 1_555
C14 H14 1_555 1_555
H15 C14 1_555 1_555
C15 N7 1_555 1_555
Cl1 Sr1 1_555 1_555
N1 C1 1_555 1_555
N2 C2 1_555 1_555
N3 C3 1_555 1_555
N4 C4 1_555 1_555
N5 C11 1_555 1_555
N6 C10 1_555 1_555
N7 C9 1_555 1_555
N8 C5 1_555 1_555
N9 C6 1_555 1_555
N10 C8 1_555 1_555
O1 C2 1_555 1_555
O2 C4 1_555 1_555
O3 C6 1_555 1_555
O4 C13 1_555 1_555
O5 C15 1_555 1_555
O6 Sr1 1_555 1_555
O7 Sr1 1_555 1_555
Sr1 O1 1_555 1_555
C16 H16 1_555 1_555
C17 C16 1_555 1_555
H17 C17 1_555 1_555
C18 C17 1_555 1_555
C19 C18 1_555 1_555
H18 C19 1_555 1_555
C20 C19 1_555 1_555
H19 C20 1_555 1_555
C21 C16 1_555 1_555
N11 C21 1_555 1_555
O8 C18 1_555 1_555
H20 O8 1_555 1_555
O9 N11 1_555 1_555
O10 N11 1_555 1_555
C1A N5 1_555 1_555
H1A C1A 1_555 1_555
H2A C1A 1_555 1_555
C2A N1A 1_555 1_555
C3A H3A 1_555 1_555
H4A C3A 1_555 1_555
C4A N3A 1_555 1_555
C5A H5A 1_555 1_555
H6A C5A 1_555 1_555
C6A N8A 1_555 1_555
C7A N10 1_555 1_555
H7A C7A 1_555 1_555
H8A C7A 1_555 1_555
C8A H9A 1_555 1_555
C9A C8A 1_555 1_555
H10A C9A 1_555 1_555
C10A H11A 1_555 1_555
C11A C10A 1_555 1_555
H12A C11A 1_555 1_555
C12A C12 1_555 1_555
H13A C12A 1_555 1_555
C13A N5A 1_555 1_555
C14A H14A 1_555 1_555
H15A C14A 1_555 1_555
C15A N7A 1_555 1_555
N1A C12 1_555 1_555
N2A C2A 1_555 1_555
N3A C3A 1_555 1_555
N4A C4A 1_555 1_555
N5A C1 1_555 1_555
N6A C10A 1_555 1_555
N7A C9A 1_555 1_555
N8A C5A 1_555 1_555
N9A C6A 1_555 1_555
N10A C7 1_555 1_555
O1A C2A 1_555 1_555
O2A C4A 1_555 1_555
O3A C6A 1_555 1_555
O4A Sr1 1_555 1_555
O5A Sr1 1_555 1_555
O6A Sr1A 1_555 1_555
O7A Sr1A 1_555 1_555
Sr1A Cl1 1_555 1_555
C3 N2 1_555 1_555
C5 N4 1_555 1_555
C7 N9 1_555 1_555
C8 N9 1_555 1_555
C9 N8 1_555 1_555
C10 N4 1_555 1_555
C11 N3 1_555 1_555
C12 N2 1_555 1_555
C13 N6 1_555 1_555
C14 N6 1_555 1_555
C14 N7 1_555 1_555
C15 N10 1_555 1_555
N1 C12A 1_555 1_555
O2 Sr1 1_555 1_555
O3 Sr1 1_555 1_555
O4 Sr1A 1_555 1_555
O5 Sr1A 1_555 1_555
C20 C21 1_555 1_555
C1A N1A 1_555 1_555
C3A N2A 1_555 1_555
C5A N4A 1_555 1_555
C7A N9A 1_555 1_555
C8A N9A 1_555 1_555
C8A N10A 1_555 1_555
C9A N8A 1_555 1_555
C10A N4A 1_555 1_555
C11A N3A 1_555 1_555
C11A N5A 1_555 1_555
C12A N2A 1_555 1_555
C13A N6A 1_555 1_555
C13A O4A 1_555 1_555
C14A N6A 1_555 1_555
C14A N7A 1_555 1_555
C15A N10A 1_555 1_555
C15A O5A 1_555 1_555
O1A Sr1A 1_555 1_555
O2A Sr1A 1_555 1_555
O3A Sr1A 1_555 1_555

#END
