
#######################################################################
#
#                 Cambridge Crystallographic Data Centre
#                                CCDC 
#
#######################################################################
#
# If this CIF has been generated from an entry in the Cambridge 
# Structural Database, then it will include bibliographic, chemical, 
# crystal, experimental, refinement or atomic coordinate data resulting 
# from the CCDC's data processing and validation procedures.
#
#######################################################################

data_RIXBIL
_chemical_formula_moiety         'C11 H9 Br1 O3'
_chemical_name_systematic        
6-Bromo-2a-methyl-2a,3-dihydro-2H,5H-furo[4,3,2-de]isochromen-5-one
_symmetry_cell_setting           orthorhombic
_symmetry_space_group_name_H-M   'P 21 21 21'
_symmetry_Int_Tables_number      19
_space_group_name_Hall           'P 2ac 2ab'
loop_
_symmetry_equiv_pos_site_id
_symmetry_equiv_pos_as_xyz
1 x,y,z
2 1/2-x,-y,1/2+z
3 -x,1/2+y,1/2-z
4 1/2+x,1/2-y,-z
_cell_length_a                   5.39720(8)
_cell_length_b                   7.13871(8)
_cell_length_c                   26.4615(3)
_cell_angle_alpha                90
_cell_angle_beta                 90
_cell_angle_gamma                90
_cell_volume                     1019.54
_exptl_crystal_colour            colorless
_exptl_crystal_description       prismatic
_cell_formula_units_Z            4
loop_
_atom_site_label
_atom_site_type_symbol
_atom_site_fract_x
_atom_site_fract_y
_atom_site_fract_z
Br1 Br 0.59458(14) 0.45200(8) 0.81986(2)
O1 O 1.2217(7) -0.2346(5) 0.84925(12)
O2 O 1.1554(6) 0.3017(4) 0.94779(11)
O3 O 0.8273(6) 0.4664(5) 0.92656(11)
C1 C 1.2093(8) -0.0208(6) 0.92004(15)
C2 C 1.0539(7) 0.0400(6) 0.87625(13)
C3 C 0.9308(8) 0.2077(5) 0.87268(14)
C4 C 0.7879(10) 0.2341(6) 0.82920(16)
C5 C 0.7859(12) 0.0986(7) 0.79207(18)
H1 H 0.6880 0.1196 0.7628
C6 C 0.9201(11) -0.0673(7) 0.79537(16)
H2 H 0.9140 -0.1596 0.7695
C7 C 1.0625(9) -0.0905(5) 0.83822(15)
C8 C 1.3704(9) -0.1700(7) 0.89282(19)
H3 H 1.5286 -0.1144 0.8812
H4 H 1.4076 -0.2757 0.9158
C9 C 1.3372(9) 0.1571(7) 0.93720(18)
H5 H 1.4355 0.1313 0.9680
H6 H 1.4518 0.2009 0.9105
C10 C 0.9631(8) 0.3380(6) 0.91644(15)
C11 C 1.0491(10) -0.1072(6) 0.96169(16)
H7 H 0.9234 -0.0165 0.9724
H8 H 1.1539 -0.1405 0.9906
H9 H 0.9675 -0.2201 0.9487
loop_
_geom_bond_atom_site_label_1
_geom_bond_atom_site_label_2
_geom_bond_site_symmetry_1
_geom_bond_site_symmetry_2
Br1 C4 1_555 1_555
O1 C7 1_555 1_555
O2 C9 1_555 1_555
O3 C10 1_555 1_555
C1 C2 1_555 1_555
C2 C3 1_555 1_555
C3 C4 1_555 1_555
C4 C5 1_555 1_555
C5 H1 1_555 1_555
C6 C5 1_555 1_555
H2 C6 1_555 1_555
C7 C2 1_555 1_555
C8 O1 1_555 1_555
H3 C8 1_555 1_555
H4 C8 1_555 1_555
C9 C1 1_555 1_555
H5 C9 1_555 1_555
H6 C9 1_555 1_555
C10 O2 1_555 1_555
C11 C1 1_555 1_555
H7 C11 1_555 1_555
H8 C11 1_555 1_555
H9 C11 1_555 1_555
C1 C8 1_555 1_555
C3 C10 1_555 1_555
C6 C7 1_555 1_555

#END
