
#######################################################################
#
#                 Cambridge Crystallographic Data Centre
#                                CCDC 
#
#######################################################################
#
# If this CIF has been generated from an entry in the Cambridge 
# Structural Database, then it will include bibliographic, chemical, 
# crystal, experimental, refinement or atomic coordinate data resulting 
# from the CCDC's data processing and validation procedures.
#
#######################################################################

data_RIXMES01
_chemical_formula_moiety         'C10 H8 B2 F4 N4'
_chemical_name_systematic        
5,5,12,12-Tetrafluoro-5H,12H-pyrrolo[1,2-d]pyrrolo[1',2':4,5][1,2,4,3]triazaborinino[2,1-a][1,2,4,3]triazaborinine-6,13-diium-5,12-diide
_symmetry_cell_setting           monoclinic
_symmetry_space_group_name_H-M   'C 2/m'
_symmetry_Int_Tables_number      12
_space_group_name_Hall           '-C 2y'
loop_
_symmetry_equiv_pos_site_id
_symmetry_equiv_pos_as_xyz
1 x,y,z
2 -x,y,-z
3 1/2+x,1/2+y,z
4 1/2-x,1/2+y,-z
5 -x,-y,-z
6 x,-y,z
7 1/2-x,1/2-y,-z
8 1/2+x,1/2-y,z
_cell_length_a                   12.2662(17)
_cell_length_b                   6.8136(9)
_cell_length_c                   7.0499(10)
_cell_angle_alpha                90
_cell_angle_beta                 105.8160(10)
_cell_angle_gamma                90
_cell_volume                     566.903
_exptl_crystal_colour            colorless
_exptl_crystal_description       block
_cell_formula_units_Z            2
loop_
_atom_site_label
_atom_site_type_symbol
_atom_site_fract_x
_atom_site_fract_y
_atom_site_fract_z
B1 B 0.61634(19) 1.0000 0.2767(3)
C1 C 0.29872(16) 1.0000 0.0153(3)
C2 C 0.19167(18) 1.0000 0.0497(3)
H1 H 0.1762 1.0000 0.1717
C3 C 0.11352(18) 1.0000 -0.1329(3)
H2 H 0.0351 1.0000 -0.1568
C4 C 0.17305(17) 1.0000 -0.2743(3)
H3 H 0.1405 1.0000 -0.4099
C5 C 0.40566(16) 1.0000 0.1469(3)
H4 H 0.4094 1.0000 0.2804
F1 F 0.61454(8) 0.8354(2) 0.38769(15)
N1 N 0.28523(13) 1.0000 -0.1854(2)
N2 N 0.50229(13) 1.0000 0.10019(19)
B1A B 0.38366(19) 1.0000 -0.2767(3)
C1A C 0.70128(16) 1.0000 -0.0153(3)
C2A C 0.80833(18) 1.0000 -0.0497(3)
H1A H 0.8238 1.0000 -0.1717
C3A C 0.88648(18) 1.0000 0.1329(3)
H2A H 0.9649 1.0000 0.1568
C4A C 0.82695(17) 1.0000 0.2743(3)
H3A H 0.8595 1.0000 0.4099
C5A C 0.59434(16) 1.0000 -0.1469(3)
H4A H 0.5906 1.0000 -0.2804
F1A F 0.38546(8) 0.8354(2) -0.38769(15)
N1A N 0.71477(13) 1.0000 0.1854(2)
N2A N 0.49771(13) 1.0000 -0.10019(19)
F1D F 0.38546(8) 1.1646(2) -0.38769(15)
F1E F 0.61454(8) 1.1646(2) 0.38769(15)
loop_
_geom_bond_atom_site_label_1
_geom_bond_atom_site_label_2
_geom_bond_site_symmetry_1
_geom_bond_site_symmetry_2
B1 F1 1_555 1_555
C1 C2 1_555 1_555
C2 H1 1_555 1_555
C3 C2 1_555 1_555
H2 C3 1_555 1_555
C4 C3 1_555 1_555
H3 C4 1_555 1_555
C5 C1 1_555 1_555
H4 C5 1_555 1_555
N1 C1 1_555 1_555
N2 B1 1_555 1_555
B1A N1 1_555 1_555
C1A C2A 1_555 1_555
C2A H1A 1_555 1_555
C3A C2A 1_555 1_555
H2A C3A 1_555 1_555
C4A C3A 1_555 1_555
H3A C4A 1_555 1_555
C5A C1A 1_555 1_555
H4A C5A 1_555 1_555
F1A B1A 1_555 1_555
N1A B1 1_555 1_555
N2A N2 1_555 1_555
F1D B1A 1_555 1_555
F1E B1 1_555 1_555
C4 N1 1_555 1_555
C5 N2 1_555 1_555
B1A N2A 1_555 1_555
C1A N1A 1_555 1_555
C4A N1A 1_555 1_555
C5A N2A 1_555 1_555

#END
