
#######################################################################
#
#                 Cambridge Crystallographic Data Centre
#                                CCDC 
#
#######################################################################
#
# If this CIF has been generated from an entry in the Cambridge 
# Structural Database, then it will include bibliographic, chemical, 
# crystal, experimental, refinement or atomic coordinate data resulting 
# from the CCDC's data processing and validation procedures.
#
#######################################################################

data_RIXQIZ
_chemical_formula_moiety         'C30 H30 B1 N3'
_chemical_name_systematic        N-(5-(Dimesitylboryl)-2-pyridyl)-7-azaindole
_symmetry_cell_setting           triclinic
_symmetry_space_group_name_H-M   'P -1'
_symmetry_Int_Tables_number      2
_space_group_name_Hall           '-P 1'
loop_
_symmetry_equiv_pos_site_id
_symmetry_equiv_pos_as_xyz
1 x,y,z
2 -x,-y,-z
_cell_length_a                   8.0448(8)
_cell_length_b                   8.2483(9)
_cell_length_c                   19.167(2)
_cell_angle_alpha                81.9810(10)
_cell_angle_beta                 86.4730(10)
_cell_angle_gamma                82.0900(10)
_cell_volume                     1246.26
_exptl_crystal_description       Plate
_cell_formula_units_Z            2
loop_
_atom_site_label
_atom_site_type_symbol
_atom_site_fract_x
_atom_site_fract_y
_atom_site_fract_z
N1 N 0.5692(2) 0.6803(2) 0.07444(8)
N2 N 0.29193(19) 0.63152(18) 0.04628(7)
N3 N 0.0787(2) 0.5055(2) 0.10867(8)
B1 B 0.0320(3) 0.2474(2) 0.29085(11)
C1 C 0.1962(3) 0.6781(3) -0.01318(10)
H1 H 0.0891 0.6507 -0.0171
C2 C 0.2797(3) 0.7676(3) -0.06383(10)
H2 H 0.2411 0.8126 -0.1080
C3 C 0.4387(3) 0.7814(2) -0.03748(9)
C4 C 0.5777(3) 0.8569(2) -0.06316(10)
H3 H 0.5813 0.9153 -0.1083
C5 C 0.7101(3) 0.8426(3) -0.01981(11)
H4 H 0.8055 0.8920 -0.0352
C6 C 0.7006(3) 0.7544(3) 0.04687(11)
H5 H 0.7929 0.7458 0.0747
C7 C 0.4435(2) 0.6958(2) 0.03100(9)
C8 C 0.2370(2) 0.5362(2) 0.10826(9)
C9 C 0.3410(2) 0.4798(2) 0.16391(9)
H6 H 0.4513 0.5028 0.1618
C10 C 0.2760(2) 0.3885(2) 0.22245(10)
H7 H 0.3430 0.3521 0.2609
C11 C 0.1113(2) 0.3491(2) 0.22545(9)
C12 C 0.0224(2) 0.4123(2) 0.16533(10)
H8 H -0.0867 0.3871 0.1647
C13 C -0.1038(2) 0.1346(2) 0.27946(9)
C14 C -0.2643(2) 0.1499(2) 0.31432(10)
C15 C -0.3793(2) 0.0437(2) 0.30512(11)
H9 H -0.4851 0.0581 0.3275
C16 C -0.3415(3) -0.0823(2) 0.26380(10)
C17 C -0.1856(3) -0.0961(2) 0.22931(9)
H10 H -0.1582 -0.1792 0.2008
C18 C -0.0682(2) 0.0087(2) 0.23546(9)
C19 C -0.3151(3) 0.2828(3) 0.36155(13)
H11 H -0.4304 0.2809 0.3775
H12 H -0.3019 0.3888 0.3356
H13 H -0.2452 0.2628 0.4015
C20 C -0.4628(3) -0.2029(3) 0.25697(13)
H14 H -0.4171 -0.3114 0.2777
H15 H -0.4806 -0.2043 0.2080
H16 H -0.5678 -0.1698 0.2808
C21 C 0.0990(3) -0.0223(3) 0.19589(12)
H17 H 0.1241 -0.1376 0.1914
H18 H 0.1854 0.0103 0.2213
H19 H 0.0939 0.0408 0.1499
C22 C 0.1014(2) 0.2614(2) 0.36461(9)
C23 C 0.1646(2) 0.1210(2) 0.41097(9)
C24 C 0.2502(3) 0.1394(2) 0.46978(9)
H20 H 0.2944 0.0452 0.4987
C25 C 0.2720(3) 0.2922(3) 0.48671(10)
C26 C 0.2002(3) 0.4285(2) 0.44455(10)
H21 H 0.2078 0.5324 0.4567
C27 C 0.1166(2) 0.4180(2) 0.38435(10)
C28 C 0.1432(3) -0.0519(2) 0.39934(11)
H22 H 0.2017 -0.1299 0.4344
H23 H 0.1883 -0.0715 0.3533
H24 H 0.0259 -0.0644 0.4030
C29 C 0.3731(3) 0.3070(3) 0.54895(12)
H25 H 0.3553 0.4190 0.5590
H26 H 0.4902 0.2761 0.5380
H27 H 0.3379 0.2353 0.5894
C30 C 0.0391(3) 0.5773(2) 0.34302(13)
H28 H -0.0084 0.6526 0.3751
H29 H -0.0474 0.5548 0.3148
H30 H 0.1241 0.6257 0.3129
loop_
_geom_bond_atom_site_label_1
_geom_bond_atom_site_label_2
_geom_bond_site_symmetry_1
_geom_bond_site_symmetry_2
N1 C6 1_555 1_555
N2 C1 1_555 1_555
N3 C8 1_555 1_555
B1 C11 1_555 1_555
C1 H1 1_555 1_555
C2 C1 1_555 1_555
H2 C2 1_555 1_555
C3 C2 1_555 1_555
C4 C3 1_555 1_555
H3 C4 1_555 1_555
C5 C4 1_555 1_555
H4 C5 1_555 1_555
C6 C5 1_555 1_555
H5 C6 1_555 1_555
C7 N1 1_555 1_555
C8 N2 1_555 1_555
C9 C8 1_555 1_555
H6 C9 1_555 1_555
C10 C9 1_555 1_555
H7 C10 1_555 1_555
C11 C10 1_555 1_555
C12 N3 1_555 1_555
H8 C12 1_555 1_555
C13 B1 1_555 1_555
C14 C13 1_555 1_555
C15 C14 1_555 1_555
H9 C15 1_555 1_555
C16 C15 1_555 1_555
C17 C16 1_555 1_555
H10 C17 1_555 1_555
C18 C13 1_555 1_555
C19 C14 1_555 1_555
H11 C19 1_555 1_555
H12 C19 1_555 1_555
H13 C19 1_555 1_555
C20 C16 1_555 1_555
H14 C20 1_555 1_555
H15 C20 1_555 1_555
H16 C20 1_555 1_555
C21 C18 1_555 1_555
H17 C21 1_555 1_555
H18 C21 1_555 1_555
H19 C21 1_555 1_555
C22 B1 1_555 1_555
C23 C22 1_555 1_555
C24 C23 1_555 1_555
H20 C24 1_555 1_555
C25 C24 1_555 1_555
C26 C25 1_555 1_555
H21 C26 1_555 1_555
C27 C22 1_555 1_555
C28 C23 1_555 1_555
H22 C28 1_555 1_555
H23 C28 1_555 1_555
H24 C28 1_555 1_555
C29 C25 1_555 1_555
H25 C29 1_555 1_555
H26 C29 1_555 1_555
H27 C29 1_555 1_555
C30 C27 1_555 1_555
H28 C30 1_555 1_555
H29 C30 1_555 1_555
H30 C30 1_555 1_555
N2 C7 1_555 1_555
C3 C7 1_555 1_555
C11 C12 1_555 1_555
C17 C18 1_555 1_555
C26 C27 1_555 1_555

#END
