
#######################################################################
#
#                 Cambridge Crystallographic Data Centre
#                                CCDC 
#
#######################################################################
#
# If this CIF has been generated from an entry in the Cambridge 
# Structural Database, then it will include bibliographic, chemical, 
# crystal, experimental, refinement or atomic coordinate data resulting 
# from the CCDC's data processing and validation procedures.
#
#######################################################################

data_RIXSOH
_chemical_formula_moiety         'C27 H24 N1 P1'
_chemical_name_systematic        
Triphenyl(2-(phenylimino)propanylidene)phosphine
_symmetry_cell_setting           monoclinic
_symmetry_space_group_name_H-M   'P 21/c'
_symmetry_Int_Tables_number      14
_space_group_name_Hall           '-P 2ybc'
loop_
_symmetry_equiv_pos_site_id
_symmetry_equiv_pos_as_xyz
1 x,y,z
2 -x,1/2+y,1/2-z
3 -x,-y,-z
4 x,1/2-y,1/2+z
_cell_length_a                   14.7550(3)
_cell_length_b                   17.6120(4)
_cell_length_c                   17.5880(4)
_cell_angle_alpha                90
_cell_angle_beta                 110.1680(10)
_cell_angle_gamma                90
_cell_volume                     4290.27
_exptl_crystal_colour            yellow
_exptl_crystal_description       prism
_cell_formula_units_Z            8
loop_
_atom_site_label
_atom_site_type_symbol
_atom_site_fract_x
_atom_site_fract_y
_atom_site_fract_z
P1 P 0.41864(6) 0.00778(4) 0.21904(4)
N1 N 0.61873(19) 0.01855(14) 0.30788(15)
C1 C 0.7085(2) 0.03591(17) 0.36476(17)
C2 C 0.7737(2) -0.01831(18) 0.41072(18)
H1 H 0.7611 -0.0713 0.3991
C3 C 0.8570(2) 0.0037(2) 0.47266(18)
H2 H 0.9006 -0.0343 0.5041
C4 C 0.8777(2) 0.07989(19) 0.48971(19)
H3 H 0.9359 0.0945 0.5324
C5 C 0.8134(2) 0.13406(19) 0.44424(19)
H4 H 0.8276 0.1869 0.4556
C6 C 0.7296(2) 0.11258(17) 0.38313(18)
H5 H 0.6851 0.1507 0.3531
C7 C 0.6041(2) -0.02697(16) 0.24533(18)
C8 C 0.6831(2) -0.06508(17) 0.22337(19)
H6 H 0.6550 -0.0956 0.1758
H7 H 0.7208 -0.0968 0.2674
H8 H 0.7238 -0.0270 0.2129
C9 C 0.5067(2) -0.03919(16) 0.19567(17)
H9 H 0.4897 -0.0724 0.1496
C10 C 0.3937(2) -0.02422(16) 0.30822(18)
C11 C 0.4658(3) -0.0548(2) 0.3747(2)
H10 H 0.5295 -0.0612 0.3726
C12 C 0.4453(3) -0.0764(2) 0.4426(2)
H11 H 0.4960 -0.0963 0.4888
C13 C 0.3535(3) -0.06941(18) 0.4450(2)
H12 H 0.3400 -0.0842 0.4926
C14 C 0.2813(3) -0.04128(17) 0.3790(2)
H13 H 0.2171 -0.0371 0.3806
C15 C 0.3015(2) -0.01854(17) 0.31073(19)
H14 H 0.2503 0.0006 0.2645
C16 C 0.4386(2) 0.10963(16) 0.23099(16)
C17 C 0.4154(2) 0.15181(16) 0.28883(18)
H15 H 0.3871 0.1272 0.3239
C18 C 0.4352(2) 0.22930(17) 0.29561(19)
H16 H 0.4171 0.2586 0.3341
C19 C 0.4791(2) 0.26419(18) 0.24714(19)
H17 H 0.4935 0.3175 0.2532
C20 C 0.5027(2) 0.22187(17) 0.19007(18)
H18 H 0.5332 0.2460 0.1562
C21 C 0.4821(2) 0.14499(17) 0.18209(18)
H19 H 0.4980 0.1158 0.1423
C22 C 0.3072(2) -0.00711(16) 0.13569(17)
C23 C 0.2474(2) 0.05255(18) 0.09627(19)
H20 H 0.2652 0.1037 0.1143
C24 C 0.1625(3) 0.0386(2) 0.0319(2)
H21 H 0.1226 0.0803 0.0045
C25 C 0.1368(2) -0.0351(2) 0.00697(19)
H22 H 0.0781 -0.0449 -0.0372
C26 C 0.1955(2) -0.09516(19) 0.04598(19)
H23 H 0.1782 -0.1463 0.0279
C27 C 0.2792(2) -0.08159(17) 0.10963(18)
H24 H 0.3187 -0.1235 0.1369
P2 P -0.04574(6) 0.69437(4) 0.23018(4)
N2 N 0.15793(19) 0.68895(14) 0.32284(15)
C28 C 0.2517(2) 0.67841(17) 0.37839(18)
C29 C 0.3008(3) 0.73601(19) 0.4304(2)
H25 H 0.2720 0.7854 0.4260
C30 C 0.3900(3) 0.7231(2) 0.4888(2)
H26 H 0.4235 0.7636 0.5238
C31 C 0.4322(3) 0.6521(2) 0.4975(2)
H27 H 0.4949 0.6429 0.5371
C32 C 0.3828(3) 0.5939(2) 0.4476(2)
H28 H 0.4103 0.5439 0.4532
C33 C 0.2933(2) 0.60642(18) 0.38918(19)
H29 H 0.2600 0.5647 0.3561
C34 C 0.1398(2) 0.73467(16) 0.26048(18)
C35 C 0.2164(2) 0.77542(18) 0.23817(19)
H30 H 0.1867 0.8055 0.1905
H31 H 0.2591 0.7390 0.2277
H32 H 0.2523 0.8078 0.2821
C36 C 0.0421(2) 0.74419(16) 0.21001(17)
H33 H 0.0253 0.7790 0.1652
C37 C -0.0761(2) 0.72102(16) 0.31862(17)
C38 C -0.0046(3) 0.7283(2) 0.39453(19)
H34 H 0.0613 0.7182 0.3999
C39 C -0.0293(3) 0.7512(2) 0.46036(19)
H35 H 0.0208 0.7555 0.5124
C40 C -0.1232(3) 0.76634(18) 0.45210(19)
H36 H -0.1389 0.7837 0.4978
C41 C -0.1944(3) 0.75810(18) 0.37778(19)
H37 H -0.2604 0.7676 0.3722
C42 C -0.1713(2) 0.73513(18) 0.31156(18)
H38 H -0.2217 0.7299 0.2599
C43 C -0.0244(2) 0.59300(16) 0.23818(16)
C44 C -0.0576(2) 0.54683(16) 0.28764(18)
H39 H -0.0897 0.5690 0.3213
C45 C -0.0445(2) 0.46893(17) 0.28784(19)
H40 H -0.0678 0.4376 0.3218
C46 C 0.0012(2) 0.43662(18) 0.23946(19)
H41 H 0.0086 0.3825 0.2391
C47 C 0.0368(2) 0.48194(17) 0.19154(18)
H42 H 0.0695 0.4598 0.1583
C48 C 0.0241(2) 0.55997(17) 0.19107(18)
H43 H 0.0491 0.5915 0.1583
C49 C -0.1573(2) 0.70985(17) 0.14649(17)
C50 C -0.2128(2) 0.64945(18) 0.10423(17)
H44 H -0.1921 0.5980 0.1187
C51 C -0.2983(2) 0.66199(19) 0.04109(18)
H45 H -0.3353 0.6198 0.0117
C52 C -0.3304(2) 0.7353(2) 0.01977(18)
H46 H -0.3904 0.7439 -0.0235
C53 C -0.2757(2) 0.79632(19) 0.06081(18)
H47 H -0.2977 0.8472 0.0455
C54 C -0.1899(2) 0.78397(17) 0.12396(18)
H48 H -0.1525 0.8264 0.1525
loop_
_geom_bond_atom_site_label_1
_geom_bond_atom_site_label_2
_geom_bond_site_symmetry_1
_geom_bond_site_symmetry_2
P1 C9 1_555 1_555
N1 C1 1_555 1_555
C1 C2 1_555 1_555
C2 H1 1_555 1_555
C3 C2 1_555 1_555
H2 C3 1_555 1_555
C4 C3 1_555 1_555
H3 C4 1_555 1_555
C5 C4 1_555 1_555
H4 C5 1_555 1_555
C6 C1 1_555 1_555
H5 C6 1_555 1_555
C7 N1 1_555 1_555
C8 C7 1_555 1_555
H6 C8 1_555 1_555
H7 C8 1_555 1_555
H8 C8 1_555 1_555
C9 C7 1_555 1_555
H9 C9 1_555 1_555
C10 P1 1_555 1_555
C11 C10 1_555 1_555
H10 C11 1_555 1_555
C12 C11 1_555 1_555
H11 C12 1_555 1_555
C13 C12 1_555 1_555
H12 C13 1_555 1_555
C14 C13 1_555 1_555
H13 C14 1_555 1_555
C15 C10 1_555 1_555
H14 C15 1_555 1_555
C16 P1 1_555 1_555
C17 C16 1_555 1_555
H15 C17 1_555 1_555
C18 C17 1_555 1_555
H16 C18 1_555 1_555
C19 C18 1_555 1_555
H17 C19 1_555 1_555
C20 C19 1_555 1_555
H18 C20 1_555 1_555
C21 C16 1_555 1_555
H19 C21 1_555 1_555
C22 P1 1_555 1_555
C23 C22 1_555 1_555
H20 C23 1_555 1_555
C24 C23 1_555 1_555
H21 C24 1_555 1_555
C25 C24 1_555 1_555
H22 C25 1_555 1_555
C26 C25 1_555 1_555
H23 C26 1_555 1_555
C27 C22 1_555 1_555
H24 C27 1_555 1_555
P2 C36 1_555 1_555
N2 C28 1_555 1_555
C28 C29 1_555 1_555
C29 H25 1_555 1_555
C30 C29 1_555 1_555
H26 C30 1_555 1_555
C31 C30 1_555 1_555
H27 C31 1_555 1_555
C32 C31 1_555 1_555
H28 C32 1_555 1_555
C33 C28 1_555 1_555
H29 C33 1_555 1_555
C34 N2 1_555 1_555
C35 C34 1_555 1_555
H30 C35 1_555 1_555
H31 C35 1_555 1_555
H32 C35 1_555 1_555
C36 C34 1_555 1_555
H33 C36 1_555 1_555
C37 P2 1_555 1_555
C38 C37 1_555 1_555
H34 C38 1_555 1_555
C39 C38 1_555 1_555
H35 C39 1_555 1_555
C40 C39 1_555 1_555
H36 C40 1_555 1_555
C41 C40 1_555 1_555
H37 C41 1_555 1_555
C42 C37 1_555 1_555
H38 C42 1_555 1_555
C43 P2 1_555 1_555
C44 C43 1_555 1_555
H39 C44 1_555 1_555
C45 C44 1_555 1_555
H40 C45 1_555 1_555
C46 C45 1_555 1_555
H41 C46 1_555 1_555
C47 C46 1_555 1_555
H42 C47 1_555 1_555
C48 C43 1_555 1_555
H43 C48 1_555 1_555
C49 P2 1_555 1_555
C50 C49 1_555 1_555
H44 C50 1_555 1_555
C51 C50 1_555 1_555
H45 C51 1_555 1_555
C52 C51 1_555 1_555
H46 C52 1_555 1_555
C53 C52 1_555 1_555
H47 C53 1_555 1_555
C54 C49 1_555 1_555
H48 C54 1_555 1_555
C5 C6 1_555 1_555
C14 C15 1_555 1_555
C20 C21 1_555 1_555
C26 C27 1_555 1_555
C32 C33 1_555 1_555
C41 C42 1_555 1_555
C47 C48 1_555 1_555
C53 C54 1_555 1_555

#END
