
#######################################################################
#
#                 Cambridge Crystallographic Data Centre
#                                CCDC 
#
#######################################################################
#
# If this CIF has been generated from an entry in the Cambridge 
# Structural Database, then it will include bibliographic, chemical, 
# crystal, experimental, refinement or atomic coordinate data resulting 
# from the CCDC's data processing and validation procedures.
#
#######################################################################

data_RIXSUN
_chemical_formula_moiety         'C19 H24 N1 O1 P1,0.5(C6 H6)'
_chemical_name_systematic        
'(2-(t-Butylamino)propanenyl)diphenylphosphine oxide benzene solvate'
_symmetry_cell_setting           monoclinic
_symmetry_space_group_name_H-M   'P 21/c'
_symmetry_Int_Tables_number      14
_space_group_name_Hall           '-P 2ybc'
loop_
_symmetry_equiv_pos_site_id
_symmetry_equiv_pos_as_xyz
1 x,y,z
2 -x,1/2+y,1/2-z
3 -x,-y,-z
4 x,1/2-y,1/2+z
_cell_length_a                   11.3747(3)
_cell_length_b                   16.4104(4)
_cell_length_c                   21.9760(7)
_cell_angle_alpha                90
_cell_angle_beta                 102.3792(11)
_cell_angle_gamma                90
_cell_volume                     4006.74
_exptl_crystal_colour            colorless
_exptl_crystal_description       Cube
_cell_formula_units_Z            8
loop_
_atom_site_label
_atom_site_type_symbol
_atom_site_fract_x
_atom_site_fract_y
_atom_site_fract_z
P1 P 0.59097(9) 0.21039(6) 0.31730(5)
O1 O 0.6110(2) 0.21864(18) 0.25273(13)
N1 N 0.2868(3) 0.3389(2) 0.31700(16)
C1 C 0.7260(3) 0.2323(2) 0.37546(19)
C2 C 0.7638(4) 0.3138(3) 0.3842(2)
C3 C 0.8710(4) 0.3334(3) 0.4239(2)
C4 C 0.9430(4) 0.2728(3) 0.4550(2)
C5 C 0.9077(4) 0.1926(3) 0.4472(2)
C6 C 0.7987(3) 0.1721(3) 0.40724(19)
C7 C 0.5540(3) 0.1047(2) 0.3296(2)
C8 C 0.5733(4) 0.0472(3) 0.2872(2)
C9 C 0.5449(5) -0.0347(3) 0.2951(3)
C10 C 0.4999(5) -0.0578(3) 0.3454(3)
C11 C 0.4804(4) -0.0005(3) 0.3879(3)
C12 C 0.5066(4) 0.0808(3) 0.3800(2)
C13 C 0.4828(3) 0.2740(2) 0.33885(19)
C14 C 0.3720(3) 0.2900(2) 0.30185(18)
C15 C 0.3342(4) 0.2531(3) 0.2376(2)
C16 C 0.2872(3) 0.3810(2) 0.37602(19)
C17 C 0.3866(4) 0.4448(3) 0.3906(2)
C18 C 0.1657(4) 0.4250(3) 0.3669(2)
C19 C 0.2958(4) 0.3191(3) 0.4292(2)
H1 H 0.2141 0.3497 0.2867
H2 H 0.7141 0.3566 0.3627
H3 H 0.8953 0.3894 0.4296
H4 H 1.0185 0.2868 0.4818
H5 H 0.9574 0.1505 0.4698
H6 H 0.7746 0.1160 0.4014
H7 H 0.6044 0.0642 0.2519
H8 H 0.5595 -0.0748 0.2658
H9 H 0.4794 -0.1140 0.3497
H10 H 0.4498 -0.0172 0.4234
H11 H 0.4922 0.1214 0.4090
H12 H 0.5003 0.3006 0.3787
H13 H 0.3973 0.2188 0.2293
H14 H 0.3185 0.2960 0.2073
H15 H 0.2626 0.2213 0.2354
H16 H 0.3834 0.4707 0.4293
H17 H 0.3753 0.4848 0.3580
H18 H 0.4636 0.4191 0.3940
H19 H 0.1615 0.4535 0.4045
H20 H 0.1017 0.3857 0.3577
H21 H 0.1577 0.4631 0.3332
H22 H 0.2956 0.3477 0.4673
H23 H 0.3690 0.2884 0.4335
H24 H 0.2282 0.2827 0.4201
P2 P 1.01311(9) 0.39729(6) 0.16229(5)
O2 O 1.0852(2) 0.36060(17) 0.22043(13)
N2 N 0.7000(3) 0.2761(2) 0.14857(15)
C20 C 0.9897(3) 0.5045(2) 0.17611(18)
C21 C 0.8774(4) 0.5431(3) 0.1575(2)
C22 C 0.8650(4) 0.6250(3) 0.1719(2)
C23 C 0.9614(4) 0.6685(3) 0.2039(2)
C24 C 1.0735(4) 0.6312(3) 0.2220(2)
C25 C 1.0866(4) 0.5497(3) 0.2083(2)
C26 C 1.0973(3) 0.3941(2) 0.10109(19)
C27 C 1.1119(4) 0.4611(3) 0.0645(2)
C28 C 1.1829(4) 0.4554(3) 0.0204(2)
C29 C 1.2392(4) 0.3837(3) 0.0124(2)
C30 C 1.2256(4) 0.3168(3) 0.0477(2)
C31 C 1.1547(4) 0.3213(3) 0.0917(2)
C32 C 0.8765(3) 0.3477(2) 0.13049(19)
C33 C 0.7974(3) 0.3243(2) 0.16608(18)
C34 C 0.8112(4) 0.3540(3) 0.23219(19)
C35 C 0.6602(3) 0.2314(2) 0.0899(2)
C36 C 0.6243(4) 0.2899(3) 0.0350(2)
C37 C 0.7572(4) 0.1698(3) 0.0802(2)
C38 C 0.5482(4) 0.1843(3) 0.0977(2)
H25 H 0.6466 0.2681 0.1765
H26 H 0.8096 0.5123 0.1359
H27 H 0.7880 0.6509 0.1588
H28 H 0.9518 0.7249 0.2135
H29 H 1.1414 0.6616 0.2441
H30 H 1.1638 0.5241 0.2209
H31 H 1.0725 0.5114 0.0700
H32 H 1.1912 0.5017 -0.0051
H33 H 1.2890 0.3792 -0.0176
H34 H 1.2658 0.2672 0.0410
H35 H 1.1446 0.2744 0.1162
H36 H 0.8554 0.3368 0.0865
H37 H 0.8815 0.3879 0.2423
H38 H 0.8200 0.3086 0.2603
H39 H 0.7416 0.3852 0.2359
H40 H 0.5988 0.2592 -0.0027
H41 H 0.6921 0.3231 0.0318
H42 H 0.5595 0.3240 0.0414
H43 H 0.7299 0.1413 0.0416
H44 H 0.7722 0.1314 0.1139
H45 H 0.8300 0.1987 0.0790
H46 H 0.5174 0.1536 0.0605
H47 H 0.4875 0.2214 0.1052
H48 H 0.5702 0.1478 0.1324
C39 C 0.2296(6) 0.0494(3) 0.1791(3)
C40 C 0.3074(5) 0.0389(3) 0.1402(3)
C41 C 0.2664(5) 0.0446(3) 0.0774(3)
C42 C 0.1491(4) 0.0624(3) 0.0533(3)
C43 C 0.0703(5) 0.0731(3) 0.0921(3)
C44 C 0.1109(5) 0.0660(4) 0.1547(3)
H49 H 0.2584 0.0453 0.2233
H50 H 0.3906 0.0271 0.1571
H51 H 0.3200 0.0352 0.0498
H52 H 0.1211 0.0687 0.0091
H53 H -0.0130 0.0849 0.0752
H54 H 0.0568 0.0733 0.1823
loop_
_geom_bond_atom_site_label_1
_geom_bond_atom_site_label_2
_geom_bond_site_symmetry_1
_geom_bond_site_symmetry_2
P1 O1 1_555 1_555
N1 C14 1_555 1_555
C1 P1 1_555 1_555
C2 C1 1_555 1_555
C3 C2 1_555 1_555
C4 C3 1_555 1_555
C5 C4 1_555 1_555
C6 C1 1_555 1_555
C7 P1 1_555 1_555
C8 C7 1_555 1_555
C9 C8 1_555 1_555
C10 C9 1_555 1_555
C11 C10 1_555 1_555
C12 C7 1_555 1_555
C13 P1 1_555 1_555
C14 C13 1_555 1_555
C15 C14 1_555 1_555
C16 N1 1_555 1_555
C17 C16 1_555 1_555
C18 C16 1_555 1_555
C19 C16 1_555 1_555
H1 N1 1_555 1_555
H2 C2 1_555 1_555
H3 C3 1_555 1_555
H4 C4 1_555 1_555
H5 C5 1_555 1_555
H6 C6 1_555 1_555
H7 C8 1_555 1_555
H8 C9 1_555 1_555
H9 C10 1_555 1_555
H10 C11 1_555 1_555
H11 C12 1_555 1_555
H12 C13 1_555 1_555
H13 C15 1_555 1_555
H14 C15 1_555 1_555
H15 C15 1_555 1_555
H16 C17 1_555 1_555
H17 C17 1_555 1_555
H18 C17 1_555 1_555
H19 C18 1_555 1_555
H20 C18 1_555 1_555
H21 C18 1_555 1_555
H22 C19 1_555 1_555
H23 C19 1_555 1_555
H24 C19 1_555 1_555
P2 O2 1_555 1_555
N2 C33 1_555 1_555
C20 P2 1_555 1_555
C21 C20 1_555 1_555
C22 C21 1_555 1_555
C23 C22 1_555 1_555
C24 C23 1_555 1_555
C25 C20 1_555 1_555
C26 P2 1_555 1_555
C27 C26 1_555 1_555
C28 C27 1_555 1_555
C29 C28 1_555 1_555
C30 C29 1_555 1_555
C31 C26 1_555 1_555
C32 P2 1_555 1_555
C33 C32 1_555 1_555
C34 C33 1_555 1_555
C35 N2 1_555 1_555
C36 C35 1_555 1_555
C37 C35 1_555 1_555
C38 C35 1_555 1_555
H25 N2 1_555 1_555
H26 C21 1_555 1_555
H27 C22 1_555 1_555
H28 C23 1_555 1_555
H29 C24 1_555 1_555
H30 C25 1_555 1_555
H31 C27 1_555 1_555
H32 C28 1_555 1_555
H33 C29 1_555 1_555
H34 C30 1_555 1_555
H35 C31 1_555 1_555
H36 C32 1_555 1_555
H37 C34 1_555 1_555
H38 C34 1_555 1_555
H39 C34 1_555 1_555
H40 C36 1_555 1_555
H41 C36 1_555 1_555
H42 C36 1_555 1_555
H43 C37 1_555 1_555
H44 C37 1_555 1_555
H45 C37 1_555 1_555
H46 C38 1_555 1_555
H47 C38 1_555 1_555
H48 C38 1_555 1_555
C39 C40 1_555 1_555
C40 C41 1_555 1_555
C41 C42 1_555 1_555
C42 C43 1_555 1_555
C43 C44 1_555 1_555
C44 C39 1_555 1_555
H49 C39 1_555 1_555
H50 C40 1_555 1_555
H51 C41 1_555 1_555
H52 C42 1_555 1_555
H53 C43 1_555 1_555
H54 C44 1_555 1_555
C5 C6 1_555 1_555
C11 C12 1_555 1_555
C24 C25 1_555 1_555
C30 C31 1_555 1_555

#END
