
#######################################################################
#
#                 Cambridge Crystallographic Data Centre
#                                CCDC 
#
#######################################################################
#
# If this CIF has been generated from an entry in the Cambridge 
# Structural Database, then it will include bibliographic, chemical, 
# crystal, experimental, refinement or atomic coordinate data resulting 
# from the CCDC's data processing and validation procedures.
#
#######################################################################

data_RIXSAT
_chemical_formula_moiety         'C25 H29 N1 P1 1+,Br1 1-,0.5(H2 O1)'
_chemical_name_systematic        
'Triphenyl(2-(t-butylamino)propenyl)phosphonium bromide hemihydrate'
_symmetry_cell_setting           orthorhombic
_symmetry_space_group_name_H-M   'P b c a'
_symmetry_Int_Tables_number      61
_space_group_name_Hall           '-P 2ac 2ab'
loop_
_symmetry_equiv_pos_site_id
_symmetry_equiv_pos_as_xyz
1 x,y,z
2 1/2-x,-y,1/2+z
3 1/2+x,1/2-y,-z
4 -x,1/2+y,1/2-z
5 -x,-y,-z
6 1/2+x,y,1/2-z
7 1/2-x,1/2+y,z
8 x,1/2-y,1/2+z
_cell_length_a                   19.127(4)
_cell_length_b                   13.562(3)
_cell_length_c                   37.528(7)
_cell_angle_alpha                90
_cell_angle_beta                 90
_cell_angle_gamma                90
_cell_volume                     9734.78
_cell_formula_units_Z            16
_exptl_crystal_recrystallization_method 'dichloromethane/diethyl ether'
loop_
_atom_site_label
_atom_site_type_symbol
_atom_site_fract_x
_atom_site_fract_y
_atom_site_fract_z
P1 P 0.18755(5) 0.02108(7) 0.24557(3)
N1 N 0.14522(16) 0.2052(3) 0.16458(9)
H1 H 0.1095 0.2408 0.1594
C1 C 0.19124(18) 0.0963(3) 0.20839(10)
H2 H 0.2346 0.1013 0.1973
C2 C 0.13808(19) 0.1493(3) 0.19334(10)
C3 C 0.2057(2) 0.2150(4) 0.14030(11)
C4 C 0.14367(18) -0.0949(3) 0.23825(10)
C5 C 0.10464(18) -0.1114(3) 0.20779(11)
H3 H 0.1012 -0.0623 0.1906
C6 C 0.0708(2) -0.2004(4) 0.20270(13)
H4 H 0.0438 -0.2105 0.1824
C7 C 0.0770(2) -0.2729(3) 0.22750(16)
H5 H 0.0547 -0.3331 0.2239
C8 C 0.1154(3) -0.2585(3) 0.25745(16)
H6 H 0.1185 -0.3085 0.2743
C9 C 0.1499(2) -0.1708(3) 0.26311(13)
H7 H 0.1771 -0.1621 0.2834
C10 C 0.14752(19) 0.0816(3) 0.28314(10)
C11 C 0.0998(2) 0.0365(3) 0.30516(11)
H8 H 0.0867 -0.0285 0.3010
C12 C 0.0715(2) 0.0881(4) 0.33351(12)
H9 H 0.0398 0.0574 0.3486
C13 C 0.0902(3) 0.1851(4) 0.33951(13)
H10 H 0.0707 0.2198 0.3584
C14 C 0.1368(3) 0.2292(3) 0.31783(13)
H11 H 0.1491 0.2945 0.3221
C15 C 0.1667(2) 0.1799(3) 0.28947(12)
H12 H 0.1990 0.2113 0.2748
C16 C 0.27720(19) -0.0069(3) 0.25690(12)
C17 C 0.3034(2) 0.0057(3) 0.29072(13)
H13 H 0.2739 0.0278 0.3088
C18 C 0.3726(3) -0.0140(3) 0.29835(18)
H14 H 0.3898 -0.0051 0.3213
C19 C 0.4160(3) -0.0472(4) 0.2714(2)
H15 H 0.4628 -0.0603 0.2762
C20 C 0.3907(2) -0.0609(3) 0.23748(18)
H16 H 0.4202 -0.0835 0.2196
C21 C 0.3211(2) -0.0410(3) 0.23002(14)
H17 H 0.3038 -0.0504 0.2071
C22 C 0.06517(19) 0.1503(3) 0.20910(12)
H18 H 0.0320 0.1311 0.1912
H19 H 0.0543 0.2154 0.2174
H20 H 0.0630 0.1048 0.2287
C23 C 0.1819(3) 0.2794(6) 0.10951(15)
H21 H 0.1419 0.2500 0.0983
H22 H 0.2191 0.2852 0.0925
H23 H 0.1698 0.3436 0.1183
C24 C 0.2255(3) 0.1152(4) 0.12581(14)
H24 H 0.2440 0.0752 0.1447
H25 H 0.2603 0.1229 0.1076
H26 H 0.1849 0.0839 0.1159
C25 C 0.2668(2) 0.2634(3) 0.15870(13)
H27 H 0.2862 0.2188 0.1760
H28 H 0.2514 0.3223 0.1705
H29 H 0.3019 0.2798 0.1414
P2 P 0.81777(5) 0.48066(7) 0.00501(3)
N2 N 0.86484(17) 0.2856(3) 0.08220(9)
H30 H 0.9003 0.2482 0.0861
C26 C 0.81664(19) 0.4001(3) 0.04069(10)
H31 H 0.7738 0.3930 0.0522
C27 C 0.87068(19) 0.3454(3) 0.05426(10)
C28 C 0.8067(2) 0.2743(4) 0.10752(11)
C29 C 0.85798(19) 0.5985(3) 0.01439(10)
C30 C 0.90004(19) 0.6108(3) 0.04389(11)
H32 H 0.9092 0.5577 0.0589
C31 C 0.9284(2) 0.7021(4) 0.05112(14)
H33 H 0.9567 0.7102 0.0711
C32 C 0.9155(2) 0.7802(4) 0.02948(16)
H34 H 0.9349 0.8413 0.0347
C33 C 0.8744(3) 0.7695(3) 0.00022(16)
H35 H 0.8663 0.8232 -0.0146
C34 C 0.8447(2) 0.6791(3) -0.00760(12)
H36 H 0.8159 0.6722 -0.0274
C35 C 0.85685(18) 0.4291(3) -0.03443(10)
C36 C 0.89150(19) 0.4866(3) -0.05926(11)
H37 H 0.8971 0.5538 -0.0552
C37 C 0.9179(2) 0.4446(4) -0.09015(12)
H38 H 0.9400 0.4839 -0.1070
C38 C 0.9115(2) 0.3452(4) -0.09584(13)
H39 H 0.9296 0.3170 -0.1164
C39 C 0.8788(2) 0.2884(3) -0.07152(13)
H40 H 0.8751 0.2209 -0.0755
C40 C 0.8507(2) 0.3282(3) -0.04081(11)
H41 H 0.8278 0.2879 -0.0245
C41 C 0.72757(19) 0.5086(3) -0.00494(11)
C42 C 0.7028(2) 0.5058(3) -0.03944(11)
H42 H 0.7328 0.4892 -0.0580
C43 C 0.6338(3) 0.5273(3) -0.04651(15)
H43 H 0.6171 0.5247 -0.0698
C44 C 0.5901(3) 0.5524(3) -0.01914(18)
H44 H 0.5436 0.5671 -0.0240
C45 C 0.6138(2) 0.5562(3) 0.01521(16)
H45 H 0.5835 0.5739 0.0335
C46 C 0.6824(2) 0.5337(3) 0.02281(12)
H46 H 0.6985 0.5353 0.0462
C47 C 0.9431(2) 0.3468(3) 0.03857(12)
H47 H 0.9762 0.3646 0.0567
H48 H 0.9449 0.3941 0.0196
H49 H 0.9543 0.2826 0.0295
C48 C 0.8318(3) 0.1964(5) 0.13431(15)
H50 H 0.8739 0.2189 0.1456
H51 H 0.8408 0.1356 0.1221
H52 H 0.7963 0.1861 0.1520
C49 C 0.7941(3) 0.3722(4) 0.12566(13)
H53 H 0.8379 0.3986 0.1338
H54 H 0.7634 0.3629 0.1456
H55 H 0.7732 0.4172 0.1091
C50 C 0.7411(2) 0.2346(4) 0.08935(12)
H56 H 0.7318 0.2724 0.0683
H57 H 0.7021 0.2398 0.1054
H58 H 0.7481 0.1668 0.0830
Br1 Br 0.00554(3) 0.34675(4) 0.146087(17)
Br2 Br 0.50332(4) 0.42055(5) 0.118590(17)
O1 O 0.5012(2) 0.6515(3) 0.08928(12)
H59 H 0.5007 0.5917 0.1015
H60 H 0.4916 0.6999 0.0992
loop_
_geom_bond_atom_site_label_1
_geom_bond_atom_site_label_2
_geom_bond_site_symmetry_1
_geom_bond_site_symmetry_2
P1 C1 1_555 1_555
N1 H1 1_555 1_555
C1 H2 1_555 1_555
C2 N1 1_555 1_555
C3 N1 1_555 1_555
C4 P1 1_555 1_555
C5 C4 1_555 1_555
H3 C5 1_555 1_555
C6 C5 1_555 1_555
H4 C6 1_555 1_555
C7 C6 1_555 1_555
H5 C7 1_555 1_555
C8 C7 1_555 1_555
H6 C8 1_555 1_555
C9 C4 1_555 1_555
H7 C9 1_555 1_555
C10 P1 1_555 1_555
C11 C10 1_555 1_555
H8 C11 1_555 1_555
C12 C11 1_555 1_555
H9 C12 1_555 1_555
C13 C12 1_555 1_555
H10 C13 1_555 1_555
C14 C13 1_555 1_555
H11 C14 1_555 1_555
C15 C10 1_555 1_555
H12 C15 1_555 1_555
C16 P1 1_555 1_555
C17 C16 1_555 1_555
H13 C17 1_555 1_555
C18 C17 1_555 1_555
H14 C18 1_555 1_555
C19 C18 1_555 1_555
H15 C19 1_555 1_555
C20 C19 1_555 1_555
H16 C20 1_555 1_555
C21 C16 1_555 1_555
H17 C21 1_555 1_555
C22 C2 1_555 1_555
H18 C22 1_555 1_555
H19 C22 1_555 1_555
H20 C22 1_555 1_555
C23 C3 1_555 1_555
H21 C23 1_555 1_555
H22 C23 1_555 1_555
H23 C23 1_555 1_555
C24 C3 1_555 1_555
H24 C24 1_555 1_555
H25 C24 1_555 1_555
H26 C24 1_555 1_555
C25 C3 1_555 1_555
H27 C25 1_555 1_555
H28 C25 1_555 1_555
H29 C25 1_555 1_555
P2 C26 1_555 1_555
N2 H30 1_555 1_555
C26 H31 1_555 1_555
C27 N2 1_555 1_555
C28 N2 1_555 1_555
C29 P2 1_555 1_555
C30 C29 1_555 1_555
H32 C30 1_555 1_555
C31 C30 1_555 1_555
H33 C31 1_555 1_555
C32 C31 1_555 1_555
H34 C32 1_555 1_555
C33 C32 1_555 1_555
H35 C33 1_555 1_555
C34 C29 1_555 1_555
H36 C34 1_555 1_555
C35 P2 1_555 1_555
C36 C35 1_555 1_555
H37 C36 1_555 1_555
C37 C36 1_555 1_555
H38 C37 1_555 1_555
C38 C37 1_555 1_555
H39 C38 1_555 1_555
C39 C38 1_555 1_555
H40 C39 1_555 1_555
C40 C35 1_555 1_555
H41 C40 1_555 1_555
C41 P2 1_555 1_555
C42 C41 1_555 1_555
H42 C42 1_555 1_555
C43 C42 1_555 1_555
H43 C43 1_555 1_555
C44 C43 1_555 1_555
H44 C44 1_555 1_555
C45 C44 1_555 1_555
H45 C45 1_555 1_555
C46 C41 1_555 1_555
H46 C46 1_555 1_555
C47 C27 1_555 1_555
H47 C47 1_555 1_555
H48 C47 1_555 1_555
H49 C47 1_555 1_555
C48 C28 1_555 1_555
H50 C48 1_555 1_555
H51 C48 1_555 1_555
H52 C48 1_555 1_555
C49 C28 1_555 1_555
H53 C49 1_555 1_555
H54 C49 1_555 1_555
H55 C49 1_555 1_555
C50 C28 1_555 1_555
H56 C50 1_555 1_555
H57 C50 1_555 1_555
H58 C50 1_555 1_555
O1 H59 1_555 1_555
H60 O1 1_555 1_555
C1 C2 1_555 1_555
C8 C9 1_555 1_555
C14 C15 1_555 1_555
C20 C21 1_555 1_555
C26 C27 1_555 1_555
C33 C34 1_555 1_555
C39 C40 1_555 1_555
C45 C46 1_555 1_555

#END
