
#######################################################################
#
#                 Cambridge Crystallographic Data Centre
#                                CCDC 
#
#######################################################################
#
# If this CIF has been generated from an entry in the Cambridge 
# Structural Database, then it will include bibliographic, chemical, 
# crystal, experimental, refinement or atomic coordinate data resulting 
# from the CCDC's data processing and validation procedures.
#
#######################################################################

data_RIXTOI
_chemical_formula_moiety         'C22 H19 N3 O3'
_chemical_name_systematic        
3-Methyl-1-phenyl-4-(4-methoxyphenyl)-4,8-dihydrofuro(3',4':5,6)pyrido(2,3-c)pyrazole
_symmetry_cell_setting           monoclinic
_symmetry_space_group_name_H-M   'P 21/n'
_symmetry_Int_Tables_number      14
_space_group_name_Hall           '-P 2yn'
loop_
_symmetry_equiv_pos_site_id
_symmetry_equiv_pos_as_xyz
1 x,y,z
2 1/2-x,1/2+y,1/2-z
3 -x,-y,-z
4 1/2+x,1/2-y,1/2+z
_cell_length_a                   11.5496(9)
_cell_length_b                   12.5051(10)
_cell_length_c                   13.3867(11)
_cell_angle_alpha                90
_cell_angle_beta                 107.2830(10)
_cell_angle_gamma                90
_cell_volume                     1846.13
_exptl_crystal_colour            colorless
_exptl_crystal_description       block
_chemical_melting_point          '503-505 K'
_cell_formula_units_Z            4
_exptl_crystal_recrystallization_method ethanol/dimethylformamide
loop_
_atom_site_label
_atom_site_type_symbol
_atom_site_fract_x
_atom_site_fract_y
_atom_site_fract_z
N1 N 0.30046(18) -0.16128(15) 0.41378(14)
H1 H 0.2934 -0.2294 0.4055
N2 N 0.38476(18) -0.16424(16) 0.60488(14)
N3 N 0.42084(19) -0.09028(18) 0.68414(15)
O1 O 0.21148(17) -0.02225(12) 0.16615(12)
O2 O 0.2304(2) 0.15130(13) 0.20823(14)
O3 O -0.09870(19) 0.29210(18) 0.50430(19)
C1 C 0.34369(19) -0.11322(18) 0.51101(16)
C2 C 0.4028(2) 0.0043(2) 0.63774(19)
C3 C 0.3536(2) -0.00581(18) 0.52801(17)
C4 C 0.3112(2) 0.07762(18) 0.44285(17)
H2 H 0.3781 0.1266 0.4447
C5 C 0.2775(2) 0.01550(17) 0.34161(17)
C6 C 0.2396(2) 0.05919(18) 0.23739(18)
C7 C 0.2261(2) -0.12265(18) 0.22047(17)
H3 H 0.2850 -0.1674 0.2016
H4 H 0.1497 -0.1607 0.2052
C8 C 0.2702(2) -0.09109(17) 0.33278(16)
C9 C 0.3868(2) -0.2746(2) 0.63075(18)
C10 C 0.4094(2) -0.3520(2) 0.56579(19)
H5 H 0.4252 -0.3329 0.5040
C11 C 0.4085(3) -0.4585(2) 0.5935(2)
H6 H 0.4214 -0.5112 0.5489
C12 C 0.3887(3) -0.4872(2) 0.6862(2)
H7 H 0.3889 -0.5590 0.7046
C13 C 0.3688(3) -0.4092(3) 0.7513(2)
H8 H 0.3564 -0.4284 0.8145
C14 C 0.3669(3) -0.3033(2) 0.7241(2)
H9 H 0.3523 -0.2510 0.7682
C15 C 0.4355(3) 0.1042(2) 0.7008(2)
H10 H 0.3629 0.1394 0.7042
H11 H 0.4798 0.1509 0.6685
H12 H 0.4848 0.0866 0.7702
C16 C 0.2030(2) 0.14123(17) 0.45572(17)
C17 C 0.0892(2) 0.0945(2) 0.4325(2)
H13 H 0.0790 0.0254 0.4055
C18 C -0.0090(3) 0.1464(2) 0.4479(2)
H14 H -0.0840 0.1127 0.4313
C19 C 0.0040(2) 0.2478(2) 0.4877(2)
C20 C 0.1137(3) 0.29815(19) 0.5105(2)
H15 H 0.1225 0.3676 0.5364
C21 C 0.2141(2) 0.24361(19) 0.49427(19)
H16 H 0.2889 0.2778 0.5100
C22 C -0.0910(3) 0.3928(3) 0.5449(3)
H17 H -0.0274 0.3953 0.6101
H18 H -0.1666 0.4114 0.5564
H19 H -0.0736 0.4426 0.4967
loop_
_geom_bond_atom_site_label_1
_geom_bond_atom_site_label_2
_geom_bond_site_symmetry_1
_geom_bond_site_symmetry_2
N1 H1 1_555 1_555
N2 N3 1_555 1_555
N3 C2 1_555 1_555
O1 C6 1_555 1_555
O2 C6 1_555 1_555
O3 C19 1_555 1_555
C1 N1 1_555 1_555
C2 C3 1_555 1_555
C3 C1 1_555 1_555
C4 C3 1_555 1_555
H2 C4 1_555 1_555
C5 C4 1_555 1_555
C6 C5 1_555 1_555
C7 O1 1_555 1_555
H3 C7 1_555 1_555
H4 C7 1_555 1_555
C8 N1 1_555 1_555
C9 N2 1_555 1_555
C10 C9 1_555 1_555
H5 C10 1_555 1_555
C11 C10 1_555 1_555
H6 C11 1_555 1_555
C12 C11 1_555 1_555
H7 C12 1_555 1_555
C13 C12 1_555 1_555
H8 C13 1_555 1_555
C14 C9 1_555 1_555
H9 C14 1_555 1_555
C15 C2 1_555 1_555
H10 C15 1_555 1_555
H11 C15 1_555 1_555
H12 C15 1_555 1_555
C16 C4 1_555 1_555
C17 C16 1_555 1_555
H13 C17 1_555 1_555
C18 C17 1_555 1_555
H14 C18 1_555 1_555
C19 C18 1_555 1_555
C20 C19 1_555 1_555
H15 C20 1_555 1_555
C21 C16 1_555 1_555
H16 C21 1_555 1_555
C22 O3 1_555 1_555
H17 C22 1_555 1_555
H18 C22 1_555 1_555
H19 C22 1_555 1_555
N2 C1 1_555 1_555
C5 C8 1_555 1_555
C7 C8 1_555 1_555
C13 C14 1_555 1_555
C20 C21 1_555 1_555

#END
