
#######################################################################
#
#                 Cambridge Crystallographic Data Centre
#                                CCDC 
#
#######################################################################
#
# If this CIF has been generated from an entry in the Cambridge 
# Structural Database, then it will include bibliographic, chemical, 
# crystal, experimental, refinement or atomic coordinate data resulting 
# from the CCDC's data processing and validation procedures.
#
#######################################################################

data_RIXWEB
_chemical_formula_moiety         'C17 H16 F2 N2 O1'
_chemical_name_systematic        
(S)-3,3-Difluoro-2-((S)-2-hydroxy-1-phenylethylamino)-3-phenylpropanenitrile
_symmetry_cell_setting           orthorhombic
_symmetry_space_group_name_H-M   'P 21 21 21'
_symmetry_Int_Tables_number      19
_space_group_name_Hall           'P 2ac 2ab'
loop_
_symmetry_equiv_pos_site_id
_symmetry_equiv_pos_as_xyz
1 x,y,z
2 1/2-x,-y,1/2+z
3 -x,1/2+y,1/2-z
4 1/2+x,1/2-y,-z
_cell_length_a                   6.4191(19)
_cell_length_b                   13.708(4)
_cell_length_c                   18.383(6)
_cell_angle_alpha                90
_cell_angle_beta                 90
_cell_angle_gamma                90
_cell_volume                     1617.58
_exptl_crystal_colour            colorless
_exptl_crystal_description       prismatic
_chemical_melting_point          136-137deg.C
_cell_formula_units_Z            4
loop_
_atom_site_label
_atom_site_type_symbol
_atom_site_fract_x
_atom_site_fract_y
_atom_site_fract_z
O1 O 1.3751(4) 0.42365(18) 0.06090(15)
N1 N 0.9936(4) 0.41992(17) 0.13394(13)
N2 N 0.7698(5) 0.2208(2) 0.05188(16)
F1 F 0.8937(4) 0.27599(12) 0.23841(9)
F2 F 0.5653(4) 0.29202(12) 0.21716(10)
C1 C 0.7486(6) 0.3428(2) 0.21760(17)
C2 C 0.7956(5) 0.37196(19) 0.13918(16)
C3 C 0.7757(5) 0.2857(2) 0.09002(17)
C4 C 1.0182(5) 0.48143(18) 0.06917(16)
C5 C 1.2449(5) 0.50796(19) 0.06112(17)
H1 H 1.2644 0.5436 0.0160
H2 H 1.2855 0.5503 0.1009
C6 C 0.8827(4) 0.57237(17) 0.07521(15)
C7 C 0.7732(5) 0.60649(19) 0.01586(16)
H3 H 0.7799 0.5728 -0.0280
C8 C 0.6532(5) 0.6905(2) 0.02079(19)
H4 H 0.5839 0.7142 -0.0200
C9 C 0.6373(6) 0.7384(2) 0.0864(2)
H5 H 0.5522 0.7930 0.0905
C10 C 0.7465(5) 0.7058(2) 0.14561(17)
H6 H 0.7388 0.7394 0.1895
C11 C 0.8684(5) 0.62290(18) 0.14013(16)
H7 H 0.9416 0.6009 0.1806
C12 C 0.7352(7) 0.4265(2) 0.26954(17)
C13 C 0.5575(7) 0.4796(3) 0.2735(2)
H8 H 0.4411 0.4608 0.2468
C14 C 0.5495(9) 0.5602(3) 0.3163(3)
H9 H 0.4277 0.5969 0.3175
C15 C 0.7129(12) 0.5884(3) 0.3573(2)
H10 H 0.7023 0.6428 0.3873
C16 C 0.8954(9) 0.5361(3) 0.3542(2)
H11 H 1.0107 0.5555 0.3812
C17 C 0.9058(7) 0.4539(3) 0.31026(19)
H12 H 1.0276 0.4173 0.3083
H13 H 1.097(4) 0.3797(17) 0.1308(14)
H14 H 0.683(3) 0.4176(14) 0.1209(11)
H15 H 1.334(5) 0.401(2) 0.0231(13)
H16 H 0.965(3) 0.4470(13) 0.0269(12)
loop_
_geom_bond_atom_site_label_1
_geom_bond_atom_site_label_2
_geom_bond_site_symmetry_1
_geom_bond_site_symmetry_2
O1 C5 1_555 1_555
N1 C2 1_555 1_555
N2 C3 1_555 1_555
F1 C1 1_555 1_555
F2 C1 1_555 1_555
C1 C2 1_555 1_555
C2 C3 1_555 1_555
C4 N1 1_555 1_555
C5 C4 1_555 1_555
H1 C5 1_555 1_555
H2 C5 1_555 1_555
C6 C4 1_555 1_555
C7 C6 1_555 1_555
H3 C7 1_555 1_555
C8 C7 1_555 1_555
H4 C8 1_555 1_555
C9 C8 1_555 1_555
H5 C9 1_555 1_555
C10 C9 1_555 1_555
H6 C10 1_555 1_555
C11 C6 1_555 1_555
H7 C11 1_555 1_555
C12 C1 1_555 1_555
C13 C12 1_555 1_555
H8 C13 1_555 1_555
C14 C13 1_555 1_555
H9 C14 1_555 1_555
C15 C14 1_555 1_555
H10 C15 1_555 1_555
C16 C15 1_555 1_555
H11 C16 1_555 1_555
C17 C12 1_555 1_555
H12 C17 1_555 1_555
H13 N1 1_555 1_555
H14 C2 1_555 1_555
H15 O1 1_555 1_555
H16 C4 1_555 1_555
C10 C11 1_555 1_555
C16 C17 1_555 1_555

#END
