
#######################################################################
#
#                 Cambridge Crystallographic Data Centre
#                                CCDC 
#
#######################################################################
#
# If this CIF has been generated from an entry in the Cambridge 
# Structural Database, then it will include bibliographic, chemical, 
# crystal, experimental, refinement or atomic coordinate data resulting 
# from the CCDC's data processing and validation procedures.
#
#######################################################################

data_RIYCAD
_chemical_formula_moiety         'C16 H10 N4 S10'
_chemical_name_systematic        
2,3-Dicyano-5,6-bis(4-(5-methylthio-2-thioxo-1,3-dithiolyl)thiomethyl)-1,4-pyrazine
_symmetry_cell_setting           triclinic
_symmetry_space_group_name_H-M   'P -1'
_symmetry_Int_Tables_number      2
_space_group_name_Hall           '-P 1'
loop_
_symmetry_equiv_pos_site_id
_symmetry_equiv_pos_as_xyz
1 x,y,z
2 -x,-y,-z
_cell_length_a                   9.054(1)
_cell_length_b                   9.248(1)
_cell_length_c                   15.283(2)
_cell_angle_alpha                96.32(1)
_cell_angle_beta                 100.22(1)
_cell_angle_gamma                107.73(1)
_cell_volume                     1181.02
_exptl_crystal_colour            brown
_chemical_melting_point          424-426K
_cell_formula_units_Z            2
loop_
_atom_site_label
_atom_site_type_symbol
_atom_site_fract_x
_atom_site_fract_y
_atom_site_fract_z
S1 S 0.34239(11) 0.86430(10) 0.04144(6)
S2 S 0.13753(10) 0.64320(9) 0.13650(6)
S3 S 0.28872(10) 0.52899(9) 0.00568(6)
S4 S -0.04256(10) 0.32301(10) 0.16477(6)
S5 S 0.13760(12) 0.19318(10) 0.02292(7)
S6 S 0.23679(12) -0.44573(10) 0.51617(7)
S7 S 0.05483(10) -0.27760(9) 0.40956(6)
S8 S 0.34177(10) -0.10383(9) 0.54232(6)
S9 S -0.02244(10) 0.00090(10) 0.36173(6)
S10 S 0.32250(12) 0.20662(10) 0.50663(9)
N1 N 0.3166(3) 0.0720(3) 0.2505(2)
N2 N 0.3516(3) 0.3870(3) 0.2645(2)
N3 N 0.6912(3) 0.0846(4) 0.2300(2)
N4 N 0.7249(4) 0.5443(4) 0.2334(2)
C1 C 0.2611(4) 0.6903(4) 0.0620(2)
C2 C 0.0948(4) 0.4424(4) 0.1138(2)
C3 C 0.1669(4) 0.3891(4) 0.0538(2)
C4 C 0.0833(4) 0.3457(4) 0.2773(2)
H1 H 0.1245(41) 0.4576(43) 0.3064(23)
H2 H 0.0159(41) 0.2935(40) 0.3079(23)
C5 C 0.2707(5) 0.1950(5) -0.0515(3)
H3 H 0.2574(44) 0.0927(48) -0.0703(26)
H4 H 0.3795(59) 0.2428(54) -0.0131(32)
H5 H 0.2525(47) 0.2457(46) -0.1011(28)
C6 C 0.2108(4) -0.2858(4) 0.4900(2)
C7 C 0.1084(4) -0.0767(4) 0.4223(2)
C8 C 0.2432(4) 0.0054(4) 0.4849(2)
C9 C 0.0385(4) 0.0036(4) 0.2541(2)
H6 H 0.0359(34) -0.0991(37) 0.2323(20)
H7 H -0.0442(42) 0.0260(39) 0.2149(24)
C10 C 0.4496(6) 0.2425(5) 0.6175(4)
H8 H 0.4937(56) 0.3478(58) 0.6293(32)
H9 H 0.5404(56) 0.1990(51) 0.6224(30)
H10 H 0.3873(58) 0.2008(54) 0.6648(33)
C11 C 0.2147(4) 0.2831(4) 0.2684(2)
C12 C 0.1960(4) 0.1239(4) 0.2589(2)
C13 C 0.4539(4) 0.1788(4) 0.2465(2)
C14 C 0.4702(4) 0.3339(4) 0.2516(2)
C15 C 0.5854(4) 0.1242(4) 0.2361(2)
C16 C 0.6147(4) 0.4500(4) 0.2421(2)
loop_
_geom_bond_atom_site_label_1
_geom_bond_atom_site_label_2
_geom_bond_site_symmetry_1
_geom_bond_site_symmetry_2
S1 C1 1_555 1_555
S2 C1 1_555 1_555
S3 C1 1_555 1_555
S4 C2 1_555 1_555
S5 C3 1_555 1_555
S6 C6 1_555 1_555
S7 C6 1_555 1_555
S8 C6 1_555 1_555
S9 C7 1_555 1_555
S10 C8 1_555 1_555
N1 C12 1_555 1_555
N2 C11 1_555 1_555
N3 C15 1_555 1_555
N4 C16 1_555 1_555
C2 S2 1_555 1_555
C3 S3 1_555 1_555
C4 S4 1_555 1_555
H1 C4 1_555 1_555
H2 C4 1_555 1_555
C5 S5 1_555 1_555
H3 C5 1_555 1_555
H4 C5 1_555 1_555
H5 C5 1_555 1_555
C7 S7 1_555 1_555
C8 S8 1_555 1_555
C9 S9 1_555 1_555
H6 C9 1_555 1_555
H7 C9 1_555 1_555
C10 S10 1_555 1_555
H8 C10 1_555 1_555
H9 C10 1_555 1_555
H10 C10 1_555 1_555
C11 C4 1_555 1_555
C12 C9 1_555 1_555
C13 N1 1_555 1_555
C14 N2 1_555 1_555
C15 C13 1_555 1_555
C16 C14 1_555 1_555
C2 C3 1_555 1_555
C7 C8 1_555 1_555
C11 C12 1_555 1_555
C13 C14 1_555 1_555

#END
