
#######################################################################
#
#                 Cambridge Crystallographic Data Centre
#                                CCDC 
#
#######################################################################
#
# If this CIF has been generated from an entry in the Cambridge 
# Structural Database, then it will include bibliographic, chemical, 
# crystal, experimental, refinement or atomic coordinate data resulting 
# from the CCDC's data processing and validation procedures.
#
#######################################################################

data_RIYCAF
_chemical_formula_moiety         'C24 H56 N4 P4'
_chemical_name_systematic        
N,N,N',N',N'',N'',N''',N'''-octaisopropyltetraphosphetane-1,2,3,4-tetramine
_symmetry_cell_setting           orthorhombic
_symmetry_space_group_name_H-M   'C m m a'
_symmetry_Int_Tables_number      67
_space_group_name_Hall           '-C 2a 2'
loop_
_symmetry_equiv_pos_site_id
_symmetry_equiv_pos_as_xyz
1 x,y,z
2 -x,1/2-y,z
3 -x,1/2+y,-z
4 x,-y,-z
5 1/2+x,1/2+y,z
6 1/2-x,-y,z
7 1/2-x,y,-z
8 1/2+x,1/2-y,-z
9 -x,-y,-z
10 x,1/2+y,-z
11 x,1/2-y,z
12 -x,y,z
13 1/2-x,1/2-y,-z
14 1/2+x,y,-z
15 1/2+x,-y,z
16 1/2-x,1/2+y,z
_cell_length_a                   34.601(6)
_cell_length_b                   24.181(4)
_cell_length_c                   7.6392(13)
_cell_angle_alpha                90
_cell_angle_beta                 90
_cell_angle_gamma                90
_cell_volume                     6391.62
_exptl_crystal_colour            colorless
_exptl_crystal_description       block
_cell_formula_units_Z            8
loop_
_atom_site_label
_atom_site_type_symbol
_atom_site_fract_x
_atom_site_fract_y
_atom_site_fract_z
C1 C 0.0000 0.42172(17) 0.3666(6)
H1 H 0.0000 0.4490 0.4576
C2 C 0.03584(13) 0.43285(19) 0.2579(7)
H2 H 0.0343 0.4694 0.2092
H3 H 0.0586 0.4299 0.3293
H4 H 0.0371 0.4062 0.1650
C3 C 0.0000 0.36296(19) 0.6374(6)
H5 H -0.0037 0.3248 0.6672
C4 C -0.0300(3) 0.3958(4) 0.7271(14)
H6 H -0.0551 0.3851 0.6854
H7 H -0.0282 0.3885 0.8503
H8 H -0.0261 0.4345 0.7062
C5 C 0.11913(15) 0.26132(19) 0.3617(8)
H9 H 0.1379 0.2578 0.2699
C6 C 0.12001(18) 0.3217(2) 0.4239(10)
H10 H 0.1124 0.3461 0.3310
H11 H 0.1026 0.3258 0.5207
H12 H 0.1458 0.3307 0.4609
C7 C 0.1309(2) 0.2234(3) 0.5095(9)
H13 H 0.1304 0.1857 0.4704
H14 H 0.1566 0.2328 0.5462
H15 H 0.1134 0.2279 0.6061
C8 C 0.0412(3) 0.3800(5) 0.7027(15)
H16 H 0.0604 0.3590 0.6410
H17 H 0.0452 0.4187 0.6818
H18 H 0.0432 0.3726 0.8258
N1 N 0.0000 0.36684(16) 0.4465(6)
N2 N 0.08137(10) 0.2500 0.2857(5)
P1 P 0.0000 0.31075(4) 0.31079(14)
P2 P 0.04222(3) 0.2500 0.41792(14)
H19 H 0.0539 0.2284 0.0668
H20 H 0.1001 0.1583 0.0985
H21 H 0.1022 0.3143 -0.0872
C9 C 0.0894(3) 0.2921(4) -0.0043(10)
H22 H 0.0724 0.3209 0.0351
H23 H 0.1157 0.3027 0.0173
H24 H 0.0857 0.2862 -0.1274
H25 H 0.1322 0.2021 0.0576
C10 C 0.07987(15) 0.2390(3) 0.0955(7)
C11 C 0.1059(3) 0.1917(3) 0.0360(10)
C1A C 0.0000 0.07828(17) 0.3666(6)
H1A H 0.0000 0.0510 0.4576
C2A C -0.03584(13) 0.06715(19) 0.2579(7)
H2A H -0.0343 0.0306 0.2092
H3A H -0.0586 0.0701 0.3293
H4A H -0.0371 0.0938 0.1650
C3A C 0.0000 0.13704(19) 0.6374(6)
H5A H 0.0037 0.1752 0.6672
C4A C 0.0300(3) 0.1042(4) 0.7271(14)
H6A H 0.0551 0.1149 0.6854
H7A H 0.0282 0.1115 0.8503
H8A H 0.0261 0.0655 0.7062
C5A C -0.11913(15) 0.23868(19) 0.3617(8)
H9A H -0.1379 0.2422 0.2699
C6A C -0.12001(18) 0.1783(2) 0.4239(10)
H10A H -0.1124 0.1539 0.3310
H11A H -0.1026 0.1742 0.5207
H12A H -0.1458 0.1693 0.4609
C7A C -0.1309(2) 0.2766(3) 0.5095(9)
H13A H -0.1304 0.3143 0.4704
H14A H -0.1566 0.2672 0.5462
H15A H -0.1134 0.2721 0.6061
C8A C -0.0412(3) 0.1200(5) 0.7027(15)
H16A H -0.0604 0.1410 0.6410
H17A H -0.0452 0.0813 0.6818
H18A H -0.0432 0.1274 0.8258
N1A N 0.0000 0.13316(16) 0.4465(6)
N2A N -0.08137(10) 0.2500 0.2857(5)
P1A P 0.0000 0.18925(4) 0.31079(14)
P2A P -0.04222(3) 0.2500 0.41792(14)
H19A H -0.0539 0.2716 0.0668
H20A H -0.1001 0.3417 0.0985
H21A H -0.1022 0.1857 -0.0872
C9A C -0.0894(3) 0.2079(4) -0.0043(10)
H22A H -0.0724 0.1791 0.0351
H23A H -0.1157 0.1973 0.0173
H24A H -0.0857 0.2138 -0.1274
H25A H -0.1322 0.2979 0.0576
C10A C -0.07987(15) 0.2610(3) 0.0955(7)
C11A C -0.1059(3) 0.3083(3) 0.0360(10)
C2J C 0.03584(13) 0.06715(19) 0.2579(7)
H2J H 0.0343 0.0306 0.2092
H3J H 0.0586 0.0701 0.3293
H4J H 0.0371 0.0938 0.1650
H5J H -0.0037 0.1752 0.6672
C4J C -0.0300(3) 0.1042(4) 0.7271(14)
H6J H -0.0551 0.1149 0.6854
H7J H -0.0282 0.1115 0.8503
H8J H -0.0261 0.0655 0.7062
C5J C 0.11913(15) 0.23868(19) 0.3617(8)
H9J H 0.1379 0.2422 0.2699
C6J C 0.12001(18) 0.1783(2) 0.4239(10)
H10J H 0.1124 0.1539 0.3310
H11J H 0.1026 0.1742 0.5207
H12J H 0.1458 0.1693 0.4609
C7J C 0.1309(2) 0.2766(3) 0.5095(9)
H13J H 0.1304 0.3143 0.4704
H14J H 0.1566 0.2672 0.5462
H15J H 0.1134 0.2721 0.6061
C8J C 0.0412(3) 0.1200(5) 0.7027(15)
H16J H 0.0604 0.1410 0.6410
H17J H 0.0452 0.0813 0.6818
H18J H 0.0432 0.1274 0.8258
H19J H 0.0539 0.2716 0.0668
H20J H 0.1001 0.3417 0.0985
H21J H 0.1022 0.1857 -0.0872
C9J C 0.0894(3) 0.2079(4) -0.0043(10)
H22J H 0.0724 0.1791 0.0351
H23J H 0.1157 0.1973 0.0173
H24J H 0.0857 0.2138 -0.1274
H25J H 0.1322 0.2979 0.0576
C10J C 0.07987(15) 0.2610(3) 0.0955(7)
C11J C 0.1059(3) 0.3083(3) 0.0360(10)
C2K C -0.03584(13) 0.43285(19) 0.2579(7)
H2K H -0.0343 0.4694 0.2092
H3K H -0.0586 0.4299 0.3293
H4K H -0.0371 0.4062 0.1650
H5K H 0.0037 0.3248 0.6672
C4K C 0.0300(3) 0.3958(4) 0.7271(14)
H6K H 0.0551 0.3851 0.6854
H7K H 0.0282 0.3885 0.8503
H8K H 0.0261 0.4345 0.7062
C5K C -0.11913(15) 0.26132(19) 0.3617(8)
H9K H -0.1379 0.2578 0.2699
C6K C -0.12001(18) 0.3217(2) 0.4239(10)
H10K H -0.1124 0.3461 0.3310
H11K H -0.1026 0.3258 0.5207
H12K H -0.1458 0.3307 0.4609
C7K C -0.1309(2) 0.2234(3) 0.5095(9)
H13K H -0.1304 0.1857 0.4704
H14K H -0.1566 0.2328 0.5462
H15K H -0.1134 0.2279 0.6061
C8K C -0.0412(3) 0.3800(5) 0.7027(15)
H16K H -0.0604 0.3590 0.6410
H17K H -0.0452 0.4187 0.6818
H18K H -0.0432 0.3726 0.8258
H19K H -0.0539 0.2284 0.0668
H20K H -0.1001 0.1583 0.0985
H21K H -0.1022 0.3143 -0.0872
C9K C -0.0894(3) 0.2921(4) -0.0043(10)
H22K H -0.0724 0.3209 0.0351
H23K H -0.1157 0.3027 0.0173
H24K H -0.0857 0.2862 -0.1274
H25K H -0.1322 0.2021 0.0576
C10K C -0.07987(15) 0.2390(3) 0.0955(7)
C11K C -0.1059(3) 0.1917(3) 0.0360(10)
H26? H 0.2229 0.3153 0.2081
H27? H 0.2216 0.3611 0.3534
H28? H 0.1949 0.3660 0.1880
C12? C 0.2483(3) 0.3872(4) -0.1393(9)
H29? H 0.2514 0.4254 -0.1702
H30? H 0.1962 0.4792 0.4339
C13? C 0.17029(15) 0.4895(2) 0.4033(7)
H31? H 0.1774 0.4281 0.5398
H32? H 0.1342 0.4470 0.5215
H33? H 0.1643 0.4625 0.3761
C14? C 0.1444(3) 0.4426(3) 0.4656(11)
H34? H 0.1502 0.4088 0.4052
H35? H 0.1481 0.4374 0.5891
H36? H 0.1180 0.4529 0.4437
C15? C 0.1606(3) 0.4571(4) 0.4995(13)
C16? C 0.13055(16) 0.5119(2) 0.1363(8)
H37? H 0.1116 0.5086 0.2274
C17? C 0.12963(18) 0.5724(2) 0.0765(11)
H38? H 0.1375 0.5966 0.1698
H39? H 0.1469 0.5767 -0.0207
H40? H 0.1038 0.5817 0.0404
C18? C 0.1189(2) 0.4744(3) -0.0087(10)
H41? H 0.1196 0.4368 0.0319
H42? H 0.0931 0.4835 -0.0448
H43? H 0.1362 0.4785 -0.1060
C19? C 0.24937(17) 0.3284(2) 0.1323(8)
H44? H 0.2458 0.3023 0.0390
C20? C 0.2155(2) 0.3225(3) 0.2558(11)
H45? H 0.1919 0.3324 0.1971
H46? H 0.2139 0.2848 0.2942
H47? H 0.2192 0.3462 0.3553
H48? H 0.2907 0.3357 0.3263
C21? C 0.2911(2) 0.3697(4) 0.2004(10)
H49? H 0.3104 0.3904 0.1387
H50? H 0.2933 0.3767 0.3237
H51? H 0.2946 0.3309 0.1784
N3? N 0.16868(12) 0.4954(2) 0.2127(6)
N4? N 0.2530(2) 0.3832(3) 0.0528(8)
P3? P 0.20774(4) 0.49852(6) 0.08105(18)
P4? P 0.25089(4) 0.43925(5) 0.18804(19)
H52? H 0.3091 0.3159 0.1496
H53? H 0.2855 0.2743 0.2652
C22? C 0.2198(2) 0.3542(4) 0.2299(10)
C23? C 0.2873(2) 0.3120(3) 0.2267(11)
loop_
_geom_bond_atom_site_label_1
_geom_bond_atom_site_label_2
_geom_bond_site_symmetry_1
_geom_bond_site_symmetry_2
C1 H1 1_555 1_555
C2 C1 1_555 1_555
H2 C2 1_555 1_555
H3 C2 1_555 1_555
H4 C2 1_555 1_555
C3 H5 1_555 1_555
C4 C3 1_555 1_555
H6 C4 1_555 1_555
H7 C4 1_555 1_555
H8 C4 1_555 1_555
C5 H9 1_555 1_555
H9 C5J 1_555 1_555
C6 C5 1_555 1_555
H10 C6 1_555 1_555
H11 C6 1_555 1_555
H12 C6 1_555 1_555
C7 C5 1_555 1_555
H13 C7 1_555 1_555
H14 C7 1_555 1_555
H15 C7 1_555 1_555
C8 C3 1_555 1_555
H16 C8 1_555 1_555
H17 C8 1_555 1_555
H18 C8 1_555 1_555
N1 C1 1_555 1_555
N2 C5 1_555 1_555
P1 N1 1_555 1_555
P2 N2 1_555 1_555
H19 C10 1_555 1_555
H20 C11 1_555 1_555
H21 C9 1_555 1_555
C9 H22 1_555 1_555
H22 C11J 1_555 1_555
H23 C9 1_555 1_555
H24 C9 1_555 1_555
H25 C11 1_555 1_555
C10 N2 1_555 1_555
C11 C10 1_555 1_555
C1A H1A 1_555 1_555
C2A C1A 1_555 1_555
H2A C2A 1_555 1_555
H3A C2A 1_555 1_555
H4A C2A 1_555 1_555
C3A H5A 1_555 1_555
C4A C3A 1_555 1_555
H6A C4A 1_555 1_555
H7A C4A 1_555 1_555
H8A C4A 1_555 1_555
C5A H9A 1_555 1_555
H9A C5K 1_555 1_555
C6A C5A 1_555 1_555
H10A C6A 1_555 1_555
H11A C6A 1_555 1_555
H12A C6A 1_555 1_555
C7A C5A 1_555 1_555
H13A C7A 1_555 1_555
H14A C7A 1_555 1_555
H15A C7A 1_555 1_555
C8A C3A 1_555 1_555
H16A C8A 1_555 1_555
H17A C8A 1_555 1_555
H18A C8A 1_555 1_555
N1A C1A 1_555 1_555
N2A C5A 1_555 1_555
P1A P2 1_555 1_555
P2A P1 1_555 1_555
H19A C10A 1_555 1_555
H20A C11A 1_555 1_555
H21A C9A 1_555 1_555
C9A H22A 1_555 1_555
H22A C11K 1_555 1_555
H23A C9A 1_555 1_555
H24A C9A 1_555 1_555
H25A C11A 1_555 1_555
C10A N2A 1_555 1_555
C11A C10A 1_555 1_555
C2J C1A 1_555 1_555
H2J C2J 1_555 1_555
H3J C2J 1_555 1_555
H4J C2J 1_555 1_555
H5J C3A 1_555 1_555
C4J C3A 1_555 1_555
H6J C4J 1_555 1_555
H7J C8A 1_555 1_555
H8J C4J 1_555 1_555
C5J C7 1_555 1_555
H9J C5 1_555 1_555
C6J C7 1_555 1_555
H10J C6J 1_555 1_555
H11J C6J 1_555 1_555
H12J C6J 1_555 1_555
C7J C5 1_555 1_555
H13J C7J 1_555 1_555
H14J C7J 1_555 1_555
H15J C7J 1_555 1_555
C8J C3A 1_555 1_555
H16J C8J 1_555 1_555
H17J C4A 1_555 1_555
H18J C4A 1_555 1_555
H19J C10 1_555 1_555
H20J C11J 1_555 1_555
H21J C11 1_555 1_555
C9J C10 1_555 1_555
H22J C11 1_555 1_555
H23J C9J 1_555 1_555
H24J C9J 1_555 1_555
H25J C11J 1_555 1_555
C10J N2 1_555 1_555
C11J H21 1_555 1_555
C2K C1 1_555 1_555
H2K C2K 1_555 1_555
H3K C2K 1_555 1_555
H4K C2K 1_555 1_555
H5K C3 1_555 1_555
C4K C3 1_555 1_555
H6K C4K 1_555 1_555
H7K C8 1_555 1_555
H8K C4K 1_555 1_555
C5K C7A 1_555 1_555
H9K C5A 1_555 1_555
C6K C7A 1_555 1_555
H10K C6K 1_555 1_555
H11K C6K 1_555 1_555
H12K C6K 1_555 1_555
C7K C5A 1_555 1_555
H13K C7K 1_555 1_555
H14K C7K 1_555 1_555
H15K C7K 1_555 1_555
C8K C3 1_555 1_555
H16K C8K 1_555 1_555
H17K C4 1_555 1_555
H18K C4 1_555 1_555
H19K C10A 1_555 1_555
H20K C11K 1_555 1_555
H21K C11A 1_555 1_555
C9K C10A 1_555 1_555
H22K C11A 1_555 1_555
H23K C9K 1_555 1_555
H24K C9K 1_555 1_555
H25K C11K 1_555 1_555
C10K N2A 1_555 1_555
C11K H21A 1_555 1_555
C3 N1 1_555 1_555
C4 C8K 1_555 1_555
H7 C8K 1_555 1_555
C6 C7J 1_555 1_555
C7 C7J 1_555 1_555
C8 C4K 1_555 1_555
H17 C4K 1_555 1_555
H18 C4K 1_555 1_555
N2 C5J 1_555 1_555
P1 P2 1_555 1_555
H19 C10J 1_555 1_555
C9 C10 1_555 1_555
C9 C10J 1_555 1_555
C9 C11J 1_555 1_555
C11 C9J 1_555 1_555
C3A N1A 1_555 1_555
C4A C8J 1_555 1_555
H7A C8J 1_555 1_555
C6A C7K 1_555 1_555
C7A C7K 1_555 1_555
C8A C4J 1_555 1_555
H17A C4J 1_555 1_555
H18A C4J 1_555 1_555
N1A P1A 1_555 1_555
N2A P2A 1_555 1_555
N2A C5K 1_555 1_555
P1A P2A 1_555 1_555
H19A C10K 1_555 1_555
C9A C10A 1_555 1_555
C9A C10K 1_555 1_555
C9A C11K 1_555 1_555
C11A C9K 1_555 1_555
C4J H7J 1_555 1_555
C5J H9J 1_555 1_555
C5J C6J 1_555 1_555
C5J C7J 1_555 1_555
C8J H17J 1_555 1_555
C8J H18J 1_555 1_555
H19J C10J 1_555 1_555
H21J C9J 1_555 1_555
C9J H22J 1_555 1_555
C9J C10J 1_555 1_555
C10J C11J 1_555 1_555
C4K H7K 1_555 1_555
C5K H9K 1_555 1_555
C5K C6K 1_555 1_555
C5K C7K 1_555 1_555
C8K H17K 1_555 1_555
C8K H18K 1_555 1_555
H19K C10K 1_555 1_555
H21K C9K 1_555 1_555
C9K H22K 1_555 1_555
C9K C10K 1_555 1_555
C10K C11K 1_555 1_555

#END
