
#######################################################################
#
#                 Cambridge Crystallographic Data Centre
#                                CCDC 
#
#######################################################################
#
# If this CIF has been generated from an entry in the Cambridge 
# Structural Database, then it will include bibliographic, chemical, 
# crystal, experimental, refinement or atomic coordinate data resulting 
# from the CCDC's data processing and validation procedures.
#
#######################################################################

data_RIYDUA
_chemical_formula_moiety         'C17 H18 O3'
_chemical_name_systematic        
'methyl (4-hydroxy-2,6-dimethylphenyl)(phenyl)acetate'
_symmetry_cell_setting           monoclinic
_symmetry_space_group_name_H-M   'P n'
_symmetry_Int_Tables_number      7
_space_group_name_Hall           'P -2yac'
loop_
_symmetry_equiv_pos_site_id
_symmetry_equiv_pos_as_xyz
1 x,y,z
2 1/2+x,-y,1/2+z
_cell_length_a                   8.9323(10)
_cell_length_b                   7.2047(8)
_cell_length_c                   11.5363(13)
_cell_angle_alpha                90
_cell_angle_beta                 98.516(4)
_cell_angle_gamma                90
_cell_volume                     734.228
_exptl_crystal_colour            colorless
_exptl_crystal_description       block
_cell_formula_units_Z            2
loop_
_atom_site_label
_atom_site_type_symbol
_atom_site_fract_x
_atom_site_fract_y
_atom_site_fract_z
C1 C 0.8857(3) 0.0403(4) 1.1258(2)
C2 C 0.8116(3) -0.1106(5) 1.1643(3)
H1 H 0.7870 -0.1095 1.2399
C3 C 0.7732(4) -0.2622(5) 1.0940(3)
C4 C 0.8150(3) -0.2660(5) 0.9837(3)
H2 H 0.7933 -0.3706 0.9369
C5 C 0.8889(3) -0.1169(5) 0.9408(3)
C6 C 0.9219(3) 0.0405(4) 1.0109(3)
C7 C 0.9967(3) 0.2105(4) 0.9673(3)
H3 H 0.9769 0.3099 1.0210
C8 C 1.1681(3) 0.2042(5) 0.9766(3)
C9 C 1.2473(4) 0.0408(6) 0.9967(3)
H4 H 1.1962 -0.0706 1.0021
C10 C 1.4055(4) 0.0435(8) 1.0088(3)
H5 H 1.4588 -0.0669 1.0238
C11 C 1.4821(5) 0.2024(10) 0.9992(4)
H6 H 1.5872 0.2015 1.0065
C12 C 1.4033(5) 0.3661(9) 0.9785(4)
H7 H 1.4555 0.4764 0.9719
C13 C 1.2484(5) 0.3679(6) 0.9675(3)
H8 H 1.1964 0.4795 0.9538
C14 C 0.9271(5) 0.2001(5) 1.2091(3)
H9 H 0.8930 0.1740 1.2826
H10 H 0.8795 0.3115 1.1762
H11 H 1.0349 0.2162 1.2216
C15 C 0.9270(5) -0.1313(6) 0.8167(3)
H12 H 0.8956 -0.2502 0.7843
H13 H 1.0343 -0.1177 0.8186
H14 H 0.8753 -0.0351 0.7691
C16 C 0.9209(4) 0.2756(5) 0.8476(3)
C17 C 0.6832(4) 0.3412(6) 0.7338(3)
H15 H 0.5774 0.3356 0.7404
H16 H 0.7035 0.2627 0.6707
H17 H 0.7104 0.4667 0.7184
O1 O 0.9836(3) 0.3295(4) 0.7683(2)
O2 O 0.7712(2) 0.2787(3) 0.8424(2)
O3 O 0.7005(3) -0.4133(3) 1.1284(2)
H18 H 0.6379 -0.3803 1.1695
loop_
_geom_bond_atom_site_label_1
_geom_bond_atom_site_label_2
_geom_bond_site_symmetry_1
_geom_bond_site_symmetry_2
C1 C2 1_555 1_555
C2 H1 1_555 1_555
C3 C2 1_555 1_555
C4 C3 1_555 1_555
H2 C4 1_555 1_555
C5 C4 1_555 1_555
C6 C1 1_555 1_555
C7 C6 1_555 1_555
H3 C7 1_555 1_555
C8 C7 1_555 1_555
C9 C8 1_555 1_555
H4 C9 1_555 1_555
C10 C9 1_555 1_555
H5 C10 1_555 1_555
C11 C10 1_555 1_555
H6 C11 1_555 1_555
C12 C11 1_555 1_555
H7 C12 1_555 1_555
C13 C8 1_555 1_555
H8 C13 1_555 1_555
C14 C1 1_555 1_555
H9 C14 1_555 1_555
H10 C14 1_555 1_555
H11 C14 1_555 1_555
C15 C5 1_555 1_555
H12 C15 1_555 1_555
H13 C15 1_555 1_555
H14 C15 1_555 1_555
C16 C7 1_555 1_555
C17 H15 1_555 1_555
H16 C17 1_555 1_555
H17 C17 1_555 1_555
O1 C16 1_555 1_555
O2 C16 1_555 1_555
O3 C3 1_555 1_555
H18 O3 1_555 1_555
C5 C6 1_555 1_555
C12 C13 1_555 1_555
C17 O2 1_555 1_555

#END
