
#######################################################################
#
#                 Cambridge Crystallographic Data Centre
#                                CCDC 
#
#######################################################################
#
# If this CIF has been generated from an entry in the Cambridge 
# Structural Database, then it will include bibliographic, chemical, 
# crystal, experimental, refinement or atomic coordinate data resulting 
# from the CCDC's data processing and validation procedures.
#
#######################################################################

data_RIYDIO
_chemical_formula_moiety         'C96 H100 K2 N2 O8 P4,2(C4 H8 O1)'
_chemical_name_systematic        
'bis(\m-4,6-bis(diphenylphosphino)-10H-phenoxazine)-hexakis(tetrahydrofuran)-di-potassium tetrahydrofuran solvate'
_symmetry_cell_setting           triclinic
_symmetry_space_group_name_H-M   'P -1'
_symmetry_Int_Tables_number      2
_space_group_name_Hall           '-P 1'
loop_
_symmetry_equiv_pos_site_id
_symmetry_equiv_pos_as_xyz
1 x,y,z
2 -x,-y,-z
_cell_length_a                   10.8873(6)
_cell_length_b                   14.8827(9)
_cell_length_c                   15.9049(9)
_cell_angle_alpha                74.193(3)
_cell_angle_beta                 72.570(3)
_cell_angle_gamma                74.146(2)
_cell_volume                     2313.7
_cell_formula_units_Z            1
loop_
_atom_site_label
_atom_site_type_symbol
_atom_site_fract_x
_atom_site_fract_y
_atom_site_fract_z
K1 K 0.57532(7) 0.58115(5) 0.55707(5)
P1 P 0.57845(8) 0.13422(6) 0.83614(6)
P2 P 0.17860(8) 0.26785(6) 0.92511(5)
O1 O 0.3921(2) 0.29231(15) 0.77391(14)
O2 O 0.7728(3) 0.6740(2) 0.4688(2)
O3 O 0.4366(2) 0.75355(18) 0.58531(16)
O4 O 0.6025(2) 0.53880(16) 0.73068(16)
N1 N 0.4180(3) 0.44002(18) 0.61443(17)
C1 C 0.6113(3) 0.2143(2) 0.7254(2)
C2 C 0.7312(3) 0.2077(2) 0.6609(2)
H1 H 0.8010 0.1569 0.6706
C3 C 0.7459(3) 0.2771(2) 0.5825(2)
H2 H 0.8258 0.2728 0.5396
C4 C 0.6421(3) 0.3532(2) 0.5674(2)
H3 H 0.6542 0.3989 0.5142
C5 C 0.5198(3) 0.3633(2) 0.6300(2)
C6 C 0.5088(3) 0.2904(2) 0.7088(2)
C7 C 0.1749(3) 0.3693(2) 0.8287(2)
C8 C 0.0665(3) 0.4459(2) 0.8198(2)
H4 H -0.0114 0.4483 0.8646
C9 C 0.0788(3) 0.5174(2) 0.7428(2)
H5 H 0.0077 0.5681 0.7363
C10 C 0.1931(3) 0.5154(2) 0.6758(2)
H6 H 0.1973 0.5650 0.6254
C11 C 0.3038(3) 0.4406(2) 0.6812(2)
C12 C 0.2878(3) 0.3697(2) 0.7601(2)
C13 C 0.7375(3) 0.0512(2) 0.8340(2)
C14 C 0.8316(3) 0.0796(3) 0.8588(3)
H7 H 0.8135 0.1402 0.8709
C15 C 0.9513(4) 0.0187(3) 0.8657(3)
H8 H 1.0135 0.0391 0.8812
C16 C 0.9784(3) -0.0717(3) 0.8498(2)
H9 H 1.0578 -0.1132 0.8562
C17 C 0.8871(4) -0.1006(3) 0.8241(3)
H10 H 0.9058 -0.1615 0.8123
C18 C 0.7680(3) -0.0397(2) 0.8159(2)
H11 H 0.7077 -0.0597 0.7980
C19 C 0.4802(3) 0.0620(2) 0.8179(2)
C20 C 0.4832(4) 0.0510(2) 0.7340(2)
H12 H 0.5371 0.0814 0.6831
C21 C 0.4067(4) -0.0050(3) 0.7242(3)
H13 H 0.4101 -0.0123 0.6672
C22 C 0.3263(4) -0.0494(3) 0.7991(3)
H14 H 0.2754 -0.0871 0.7928
C23 C 0.3207(4) -0.0383(3) 0.8831(3)
H15 H 0.2656 -0.0681 0.9335
C24 C 0.3970(3) 0.0174(2) 0.8931(3)
H16 H 0.3926 0.0248 0.9502
C25 C 0.2611(3) 0.3088(2) 0.9887(2)
C26 C 0.2430(3) 0.4035(2) 0.9919(2)
H17 H 0.1913 0.4504 0.9575
C27 C 0.3010(3) 0.4296(2) 1.0458(2)
H18 H 0.2880 0.4935 1.0476
C28 C 0.3780(3) 0.3602(3) 1.0969(2)
H19 H 0.4137 0.3773 1.1351
C29 C 0.4024(3) 0.2658(3) 1.0917(2)
H20 H 0.4577 0.2197 1.1240
C30 C 0.3436(3) 0.2395(2) 1.0373(2)
H21 H 0.3597 0.1758 1.0336
C31 C 0.0073(3) 0.2913(2) 0.9903(2)
C32 C -0.0397(3) 0.3339(2) 1.0640(2)
H22 H 0.0175 0.3573 1.0817
C33 C -0.1695(3) 0.3427(2) 1.1122(2)
H23 H -0.1987 0.3708 1.1622
C34 C -0.2566(3) 0.3092(2) 1.0855(2)
H24 H -0.3442 0.3149 1.1176
C35 C -0.2125(3) 0.2675(2) 1.0113(2)
H25 H -0.2707 0.2460 0.9928
C36 C -0.0828(3) 0.2579(2) 0.9647(2)
H26 H -0.0538 0.2288 0.9153
C37 C 0.9117(4) 0.6411(4) 0.4378(3)
H27 H 0.9320 0.5733 0.4383
H28 H 0.9581 0.6517 0.4765
C38 C 0.9520(4) 0.6964(4) 0.3441(3)
H29 H 0.9459 0.6649 0.3001
H30 H 1.0411 0.7060 0.3309
C39 C 0.8526(5) 0.7897(4) 0.3463(4)
H31 H 0.8787 0.8321 0.3714
H32 H 0.8406 0.8218 0.2865
C40 C 0.7303(4) 0.7580(3) 0.4063(3)
H33 H 0.6742 0.8074 0.4380
H34 H 0.6814 0.7439 0.3712
C41 C 0.3842(4) 0.8421(3) 0.5320(3)
H35 H 0.3882 0.8335 0.4729
H36 H 0.4344 0.8896 0.5247
C42 C 0.2422(4) 0.8739(3) 0.5815(3)
H37 H 0.2320 0.9290 0.6063
H38 H 0.1838 0.8898 0.5416
C43 C 0.2142(4) 0.7881(3) 0.6557(3)
H39 H 0.1535 0.8072 0.7095
H40 H 0.1787 0.7461 0.6364
C44 C 0.3496(4) 0.7414(3) 0.6710(3)
H41 H 0.3704 0.7717 0.7104
H42 H 0.3547 0.6741 0.6982
C45 C 0.5103(3) 0.4873(2) 0.7989(2)
H43 H 0.4596 0.4647 0.7711
H44 H 0.4500 0.5284 0.8383
C46 C 0.5903(3) 0.4039(2) 0.8517(2)
H45 H 0.5964 0.4192 0.9056
H46 H 0.5526 0.3477 0.8685
C47 C 0.7231(3) 0.3891(2) 0.7861(2)
H47 H 0.7929 0.3597 0.8174
H48 H 0.7261 0.3499 0.7456
C48 C 0.7340(3) 0.4891(3) 0.7364(2)
H49 H 0.7684 0.5192 0.7689
H50 H 0.7919 0.4890 0.6767
K1A K 0.42468(7) 0.41885(5) 0.44293(5)
P1A P 0.42155(8) 0.86578(6) 0.16386(6)
P2A P 0.82140(8) 0.73215(6) 0.07489(5)
O1A O 0.6079(2) 0.70769(15) 0.22609(14)
O2A O 0.2272(3) 0.3260(2) 0.5312(2)
O3A O 0.5634(2) 0.24645(18) 0.41469(16)
O4A O 0.3975(2) 0.46120(16) 0.26932(16)
N1A N 0.5820(3) 0.55998(18) 0.38557(17)
C1A C 0.3887(3) 0.7857(2) 0.2746(2)
C2A C 0.2688(3) 0.7923(2) 0.3391(2)
H1A H 0.1990 0.8431 0.3294
C3A C 0.2541(3) 0.7229(2) 0.4175(2)
H2A H 0.1742 0.7272 0.4604
C4A C 0.3579(3) 0.6468(2) 0.4326(2)
H3A H 0.3458 0.6011 0.4858
C5A C 0.4802(3) 0.6367(2) 0.3700(2)
C6A C 0.4912(3) 0.7096(2) 0.2912(2)
C7A C 0.8251(3) 0.6307(2) 0.1713(2)
C8A C 0.9335(3) 0.5541(2) 0.1802(2)
H4A H 1.0114 0.5517 0.1354
C9A C 0.9212(3) 0.4826(2) 0.2572(2)
H5A H 0.9923 0.4319 0.2637
C10A C 0.8069(3) 0.4846(2) 0.3242(2)
H6A H 0.8027 0.4350 0.3746
C11A C 0.6962(3) 0.5594(2) 0.3188(2)
C12A C 0.7122(3) 0.6303(2) 0.2399(2)
C13A C 0.2625(3) 0.9488(2) 0.1660(2)
C14A C 0.1684(3) 0.9204(3) 0.1412(3)
H7A H 0.1865 0.8598 0.1291
C15A C 0.0487(4) 0.9813(3) 0.1343(3)
H8A H -0.0135 0.9609 0.1188
C16A C 0.0216(3) 1.0717(3) 0.1502(2)
H9A H -0.0578 1.1132 0.1438
C17A C 0.1129(4) 1.1006(3) 0.1759(3)
H10A H 0.0942 1.1615 0.1877
C18A C 0.2320(3) 1.0397(2) 0.1841(2)
H11A H 0.2923 1.0597 0.2020
C19A C 0.5198(3) 0.9380(2) 0.1821(2)
C20A C 0.5168(4) 0.9490(2) 0.2660(2)
H12A H 0.4629 0.9186 0.3169
C21A C 0.5933(4) 1.0050(3) 0.2758(3)
H13A H 0.5899 1.0123 0.3328
C22A C 0.6737(4) 1.0494(3) 0.2009(3)
H14A H 0.7246 1.0871 0.2072
C23A C 0.6793(4) 1.0383(3) 0.1169(3)
H15A H 0.7344 1.0681 0.0665
C24A C 0.6030(3) 0.9826(2) 0.1069(3)
H16A H 0.6074 0.9752 0.0498
C25A C 0.7389(3) 0.6912(2) 0.0113(2)
C26A C 0.7570(3) 0.5965(2) 0.0081(2)
H17A H 0.8087 0.5496 0.0425
C27A C 0.6990(3) 0.5704(2) -0.0458(2)
H18A H 0.7120 0.5065 -0.0476
C28A C 0.6220(3) 0.6398(3) -0.0969(2)
H19A H 0.5863 0.6227 -0.1351
C29A C 0.5976(3) 0.7342(3) -0.0917(2)
H20A H 0.5423 0.7803 -0.1240
C30A C 0.6564(3) 0.7605(2) -0.0373(2)
H21A H 0.6403 0.8242 -0.0336
C31A C 0.9927(3) 0.7087(2) 0.0097(2)
C32A C 1.0397(3) 0.6661(2) -0.0640(2)
H22A H 0.9825 0.6427 -0.0817
C33A C 1.1695(3) 0.6573(2) -0.1122(2)
H23A H 1.1987 0.6292 -0.1622
C34A C 1.2566(3) 0.6908(2) -0.0855(2)
H24A H 1.3442 0.6851 -0.1176
C35A C 1.2125(3) 0.7325(2) -0.0113(2)
H25A H 1.2707 0.7540 0.0072
C36A C 1.0828(3) 0.7421(2) 0.0353(2)
H26A H 1.0538 0.7712 0.0847
C37A C 0.0883(4) 0.3589(4) 0.5622(3)
H27A H 0.0680 0.4267 0.5617
H28A H 0.0419 0.3483 0.5235
C38A C 0.0480(4) 0.3036(4) 0.6559(3)
H29A H 0.0541 0.3351 0.6999
H30A H -0.0411 0.2940 0.6691
C39A C 0.1474(5) 0.2103(4) 0.6537(4)
H31A H 0.1213 0.1679 0.6286
H32A H 0.1594 0.1782 0.7135
C40A C 0.2697(4) 0.2420(3) 0.5937(3)
H33A H 0.3258 0.1926 0.5620
H34A H 0.3186 0.2561 0.6288
C41A C 0.6158(4) 0.1579(3) 0.4680(3)
H35A H 0.6118 0.1665 0.5271
H36A H 0.5656 0.1104 0.4753
C42A C 0.7578(4) 0.1261(3) 0.4185(3)
H37A H 0.7680 0.0710 0.3937
H38A H 0.8162 0.1102 0.4584
C43A C 0.7858(4) 0.2119(3) 0.3443(3)
H39A H 0.8465 0.1928 0.2905
H40A H 0.8213 0.2539 0.3636
C44A C 0.6504(4) 0.2586(3) 0.3290(3)
H41A H 0.6296 0.2283 0.2896
H42A H 0.6453 0.3259 0.3018
C45A C 0.4897(3) 0.5127(2) 0.2011(2)
H43A H 0.5404 0.5353 0.2289
H44A H 0.5500 0.4716 0.1617
C46A C 0.4097(3) 0.5961(2) 0.1483(2)
H45A H 0.4036 0.5808 0.0944
H46A H 0.4474 0.6523 0.1315
C47A C 0.2769(3) 0.6109(2) 0.2139(2)
H47A H 0.2071 0.6403 0.1826
H48A H 0.2739 0.6501 0.2544
C48A C 0.2660(3) 0.5109(3) 0.2636(2)
H49A H 0.2316 0.4808 0.2311
H50A H 0.2081 0.5110 0.3233
O5 O 0.0655(3) 0.2209(2) 0.4173(3)
C49 C 0.1045(5) 0.1207(3) 0.4333(3)
H51 H 0.0845 0.0958 0.3897
H52 H 0.0598 0.0924 0.4933
C50 C 0.2504(4) 0.0999(3) 0.4238(3)
H53 H 0.2930 0.0418 0.4013
H54 H 0.2698 0.0931 0.4812
C51 C 0.2957(4) 0.1864(3) 0.3563(3)
H55 H 0.3509 0.2113 0.3784
H56 H 0.3443 0.1701 0.2986
C52 C 0.1684(5) 0.2578(3) 0.3485(3)
H57 H 0.1729 0.3191 0.3563
H58 H 0.1527 0.2662 0.2897
loop_
_geom_bond_atom_site_label_1
_geom_bond_atom_site_label_2
_geom_bond_site_symmetry_1
_geom_bond_site_symmetry_2
K1 O2 1_555 1_555
P1 C1 1_555 1_555
P2 C7 1_555 1_555
O1 C6 1_555 1_555
O2 C37 1_555 1_555
O3 K1 1_555 1_555
O4 K1 1_555 1_555
N1 K1 1_555 1_555
C1 C2 1_555 1_555
C2 H1 1_555 1_555
C3 C2 1_555 1_555
H2 C3 1_555 1_555
C4 C3 1_555 1_555
H3 C4 1_555 1_555
C5 N1 1_555 1_555
C6 C1 1_555 1_555
C7 C8 1_555 1_555
C8 H4 1_555 1_555
C9 C8 1_555 1_555
H5 C9 1_555 1_555
C10 C9 1_555 1_555
H6 C10 1_555 1_555
C11 N1 1_555 1_555
C12 O1 1_555 1_555
C13 P1 1_555 1_555
C14 C13 1_555 1_555
H7 C14 1_555 1_555
C15 C14 1_555 1_555
H8 C15 1_555 1_555
C16 C15 1_555 1_555
H9 C16 1_555 1_555
C17 C16 1_555 1_555
H10 C17 1_555 1_555
C18 C13 1_555 1_555
H11 C18 1_555 1_555
C19 P1 1_555 1_555
C20 C19 1_555 1_555
H12 C20 1_555 1_555
C21 C20 1_555 1_555
H13 C21 1_555 1_555
C22 C21 1_555 1_555
H14 C22 1_555 1_555
C23 C22 1_555 1_555
H15 C23 1_555 1_555
C24 C19 1_555 1_555
H16 C24 1_555 1_555
C25 P2 1_555 1_555
C26 C25 1_555 1_555
H17 C26 1_555 1_555
C27 C26 1_555 1_555
H18 C27 1_555 1_555
C28 C27 1_555 1_555
H19 C28 1_555 1_555
C29 C28 1_555 1_555
H20 C29 1_555 1_555
C30 C25 1_555 1_555
H21 C30 1_555 1_555
C31 P2 1_555 1_555
C32 C31 1_555 1_555
H22 C32 1_555 1_555
C33 C32 1_555 1_555
H23 C33 1_555 1_555
C34 C33 1_555 1_555
H24 C34 1_555 1_555
C35 C34 1_555 1_555
H25 C35 1_555 1_555
C36 C31 1_555 1_555
H26 C36 1_555 1_555
C37 H27 1_555 1_555
H28 C37 1_555 1_555
C38 C37 1_555 1_555
H29 C38 1_555 1_555
H30 C38 1_555 1_555
C39 C38 1_555 1_555
H31 C39 1_555 1_555
H32 C39 1_555 1_555
C40 O2 1_555 1_555
H33 C40 1_555 1_555
H34 C40 1_555 1_555
C41 O3 1_555 1_555
H35 C41 1_555 1_555
H36 C41 1_555 1_555
C42 C41 1_555 1_555
H37 C42 1_555 1_555
H38 C42 1_555 1_555
C43 C42 1_555 1_555
H39 C43 1_555 1_555
H40 C43 1_555 1_555
C44 O3 1_555 1_555
H41 C44 1_555 1_555
H42 C44 1_555 1_555
C45 O4 1_555 1_555
H43 C45 1_555 1_555
H44 C45 1_555 1_555
C46 C45 1_555 1_555
H45 C46 1_555 1_555
H46 C46 1_555 1_555
C47 C46 1_555 1_555
H47 C47 1_555 1_555
H48 C47 1_555 1_555
C48 O4 1_555 1_555
H49 C48 1_555 1_555
H50 C48 1_555 1_555
O5 C49 1_555 1_555
C49 H51 1_555 1_555
H52 C49 1_555 1_555
C50 C49 1_555 1_555
H53 C50 1_555 1_555
H54 C50 1_555 1_555
C51 C50 1_555 1_555
H55 C51 1_555 1_555
H56 C51 1_555 1_555
C52 O5 1_555 1_555
H57 C52 1_555 1_555
H58 C52 1_555 1_555
K1A N1 1_555 1_555
P1A C1A 1_555 1_555
P2A C7A 1_555 1_555
O1A C6A 1_555 1_555
O2A K1A 1_555 1_555
O3A K1A 1_555 1_555
O4A K1A 1_555 1_555
N1A K1 1_555 1_555
C1A C2A 1_555 1_555
C2A H1A 1_555 1_555
C3A C2A 1_555 1_555
H2A C3A 1_555 1_555
C4A C3A 1_555 1_555
H3A C4A 1_555 1_555
C5A N1A 1_555 1_555
C6A C1A 1_555 1_555
C7A C8A 1_555 1_555
C8A H4A 1_555 1_555
C9A C8A 1_555 1_555
H5A C9A 1_555 1_555
C10A C9A 1_555 1_555
H6A C10A 1_555 1_555
C11A N1A 1_555 1_555
C12A O1A 1_555 1_555
C13A P1A 1_555 1_555
C14A C13A 1_555 1_555
H7A C14A 1_555 1_555
C15A C14A 1_555 1_555
H8A C15A 1_555 1_555
C16A C15A 1_555 1_555
H9A C16A 1_555 1_555
C17A C16A 1_555 1_555
H10A C17A 1_555 1_555
C18A C13A 1_555 1_555
H11A C18A 1_555 1_555
C19A P1A 1_555 1_555
C20A C19A 1_555 1_555
H12A C20A 1_555 1_555
C21A C20A 1_555 1_555
H13A C21A 1_555 1_555
C22A C21A 1_555 1_555
H14A C22A 1_555 1_555
C23A C22A 1_555 1_555
H15A C23A 1_555 1_555
C24A C19A 1_555 1_555
H16A C24A 1_555 1_555
C25A P2A 1_555 1_555
C26A C25A 1_555 1_555
H17A C26A 1_555 1_555
C27A C26A 1_555 1_555
H18A C27A 1_555 1_555
C28A C27A 1_555 1_555
H19A C28A 1_555 1_555
C29A C28A 1_555 1_555
H20A C29A 1_555 1_555
C30A C25A 1_555 1_555
H21A C30A 1_555 1_555
C31A P2A 1_555 1_555
C32A C31A 1_555 1_555
H22A C32A 1_555 1_555
C33A C32A 1_555 1_555
H23A C33A 1_555 1_555
C34A C33A 1_555 1_555
H24A C34A 1_555 1_555
C35A C34A 1_555 1_555
H25A C35A 1_555 1_555
C36A C31A 1_555 1_555
H26A C36A 1_555 1_555
C37A O2A 1_555 1_555
H27A C37A 1_555 1_555
H28A C37A 1_555 1_555
C38A C37A 1_555 1_555
H29A C38A 1_555 1_555
H30A C38A 1_555 1_555
C39A C38A 1_555 1_555
H31A C39A 1_555 1_555
H32A C39A 1_555 1_555
C40A O2A 1_555 1_555
H33A C40A 1_555 1_555
H34A C40A 1_555 1_555
C41A O3A 1_555 1_555
H35A C41A 1_555 1_555
H36A C41A 1_555 1_555
C42A C41A 1_555 1_555
H37A C42A 1_555 1_555
H38A C42A 1_555 1_555
C43A C42A 1_555 1_555
H39A C43A 1_555 1_555
H40A C43A 1_555 1_555
C44A O3A 1_555 1_555
H41A C44A 1_555 1_555
H42A C44A 1_555 1_555
C45A O4A 1_555 1_555
H43A C45A 1_555 1_555
H44A C45A 1_555 1_555
C46A C45A 1_555 1_555
H45A C46A 1_555 1_555
H46A C46A 1_555 1_555
C47A C46A 1_555 1_555
H47A C47A 1_555 1_555
H48A C47A 1_555 1_555
C48A O4A 1_555 1_555
H49A C48A 1_555 1_555
H50A C48A 1_555 1_555
C4 C5 1_555 1_555
C5 C6 1_555 1_555
C7 C12 1_555 1_555
C10 C11 1_555 1_555
C11 C12 1_555 1_555
C17 C18 1_555 1_555
C23 C24 1_555 1_555
C29 C30 1_555 1_555
C35 C36 1_555 1_555
C39 C40 1_555 1_555
C43 C44 1_555 1_555
C47 C48 1_555 1_555
C51 C52 1_555 1_555
K1A N1A 1_555 1_555
C4A C5A 1_555 1_555
C5A C6A 1_555 1_555
C7A C12A 1_555 1_555
C10A C11A 1_555 1_555
C11A C12A 1_555 1_555
C17A C18A 1_555 1_555
C23A C24A 1_555 1_555
C29A C30A 1_555 1_555
C35A C36A 1_555 1_555
C39A C40A 1_555 1_555
C43A C44A 1_555 1_555
C47A C48A 1_555 1_555

#END
