
#######################################################################
#
#                 Cambridge Crystallographic Data Centre
#                                CCDC 
#
#######################################################################
#
# If this CIF has been generated from an entry in the Cambridge 
# Structural Database, then it will include bibliographic, chemical, 
# crystal, experimental, refinement or atomic coordinate data resulting 
# from the CCDC's data processing and validation procedures.
#
#######################################################################

data_RIYNOE
_chemical_formula_moiety         'C23 H23 N1 O1'
_chemical_name_systematic        
2-(5-(Biphenyl-4-yl)-3,4-dihydro-2H-pyran-6-yl)-1,5-dimethyl-1H-pyrrole
_symmetry_cell_setting           monoclinic
_symmetry_space_group_name_H-M   'P 21'
_symmetry_Int_Tables_number      4
_space_group_name_Hall           'P 2yb'
loop_
_symmetry_equiv_pos_site_id
_symmetry_equiv_pos_as_xyz
1 x,y,z
2 -x,1/2+y,-z
_cell_length_a                   9.814(2)
_cell_length_b                   5.6952(11)
_cell_length_c                   16.213(3)
_cell_angle_alpha                90
_cell_angle_beta                 101.13(3)
_cell_angle_gamma                90
_cell_volume                     889.144
_exptl_crystal_colour            colorless
_exptl_crystal_description       rod
_cell_formula_units_Z            2
loop_
_atom_site_label
_atom_site_type_symbol
_atom_site_fract_x
_atom_site_fract_y
_atom_site_fract_z
O1 O 0.5997(3) 0.9692(6) 0.40850(15)
N1 N 0.8497(3) 1.2280(6) 0.38601(18)
C1 C 0.7792(4) 1.4063(8) 0.4273(3)
H1 H 0.6796 1.4035 0.4035
H2 H 0.8170 1.5615 0.4183
H3 H 0.7940 1.3734 0.4877
C2 C 1.0860(4) 1.4083(9) 0.4298(3)
H4 H 1.0583 1.5641 0.4068
H5 H 1.1809 1.3743 0.4227
H6 H 1.0821 1.4052 0.4898
C3 C 0.9896(4) 1.2284(8) 0.3847(2)
C4 C 1.0144(4) 1.0362(8) 0.3388(2)
H7 H 1.1020 0.9914 0.3272
C5 C 0.8882(4) 0.9163(8) 0.3117(2)
H8 H 0.8755 0.7772 0.2787
C6 C 0.7874(4) 1.0367(8) 0.3414(2)
C7 C 0.6391(4) 0.9822(8) 0.3307(2)
C8 C 0.5554(4) 0.9293(8) 0.2580(2)
C9 C 0.4148(4) 0.8211(11) 0.2558(3)
H9 H 0.4049 0.6793 0.2198
H10 H 0.3416 0.9341 0.2310
C10 C 0.3961(4) 0.7546(10) 0.3438(3)
H11 H 0.2962 0.7320 0.3441
H12 H 0.4447 0.6048 0.3608
C11 C 0.4526(4) 0.9408(11) 0.4041(3)
H13 H 0.4047 1.0908 0.3866
H14 H 0.4350 0.9000 0.4605
C12 C 0.6011(4) 0.9636(7) 0.1762(2)
C13 C 0.5774(4) 0.7925(8) 0.1140(3)
H15 H 0.5227 0.6592 0.1211
C14 C 0.6326(4) 0.8134(8) 0.0416(3)
H16 H 0.6147 0.6934 0.0002
C15 C 0.7129(4) 1.0038(7) 0.0280(2)
C16 C 0.7277(4) 1.1822(8) 0.0879(3)
H17 H 0.7768 1.3207 0.0789
C17 C 0.6732(5) 1.1638(8) 0.1601(3)
H18 H 0.6852 1.2895 0.1994
C18 C 0.7843(4) 1.0122(7) -0.0453(2)
C19 C 0.7467(11) 0.8567(16) -0.1134(5)
H19 H 0.6724 0.7496 -0.1139
C20 C 0.8175(11) 0.8587(16) -0.1799(6)
H20 H 0.7914 0.7538 -0.2258
C21 C 0.9286(5) 1.0173(9) -0.1790(3)
H21 H 0.9516 1.0356 -0.2329
C22 C 0.9459(5) 1.1938(11) -0.1217(3)
H22 H 1.0073 1.3196 -0.1266
C23 C 0.8739(5) 1.1907(10) -0.0560(3)
H23 H 0.8870 1.3166 -0.0168
C24? C 0.8009(16) 0.8132(18) -0.0907(8)
H24? H 0.7588 0.6714 -0.0775
C25? C 0.8758(16) 0.8105(18) -0.1546(8)
H25? H 0.8906 0.6671 -0.1815
loop_
_geom_bond_atom_site_label_1
_geom_bond_atom_site_label_2
_geom_bond_site_symmetry_1
_geom_bond_site_symmetry_2
O1 C7 1_555 1_555
N1 C1 1_555 1_555
C1 H1 1_555 1_555
H2 C1 1_555 1_555
H3 C1 1_555 1_555
C2 H4 1_555 1_555
H5 C2 1_555 1_555
H6 C2 1_555 1_555
C3 N1 1_555 1_555
C4 C3 1_555 1_555
H7 C4 1_555 1_555
C5 C4 1_555 1_555
H8 C5 1_555 1_555
C6 N1 1_555 1_555
C7 C6 1_555 1_555
C8 C7 1_555 1_555
C9 C8 1_555 1_555
H9 C9 1_555 1_555
H10 C9 1_555 1_555
C10 C9 1_555 1_555
H11 C10 1_555 1_555
H12 C10 1_555 1_555
C11 O1 1_555 1_555
H13 C11 1_555 1_555
H14 C11 1_555 1_555
C12 C8 1_555 1_555
C13 C12 1_555 1_555
H15 C13 1_555 1_555
C14 C13 1_555 1_555
H16 C14 1_555 1_555
C15 C14 1_555 1_555
C16 C15 1_555 1_555
H17 C16 1_555 1_555
C17 C12 1_555 1_555
H18 C17 1_555 1_555
C18 C15 1_555 1_555
C19 C18 1_555 1_555
H19 C19 1_555 1_555
C20 C19 1_555 1_555
H20 C20 1_555 1_555
C21 C20 1_555 1_555
H21 C21 1_555 1_555
C22 C21 1_555 1_555
H22 C22 1_555 1_555
C23 C18 1_555 1_555
H23 C23 1_555 1_555
C2 C3 1_555 1_555
C5 C6 1_555 1_555
C10 C11 1_555 1_555
C16 C17 1_555 1_555
C22 C23 1_555 1_555

#END
