
#######################################################################
#
#                 Cambridge Crystallographic Data Centre
#                                CCDC 
#
#######################################################################
#
# If this CIF has been generated from an entry in the Cambridge 
# Structural Database, then it will include bibliographic, chemical, 
# crystal, experimental, refinement or atomic coordinate data resulting 
# from the CCDC's data processing and validation procedures.
#
#######################################################################

data_RIYNUJ
_chemical_formula_moiety         'C30 H19 N5 O1'
_chemical_name_systematic        
3,5-Dicyano-2,6-bis(1H-indol-3-yl)-4-(4-methoxyphenyl)pyridine
_symmetry_cell_setting           monoclinic
_symmetry_space_group_name_H-M   'P 21/c'
_symmetry_Int_Tables_number      14
_space_group_name_Hall           '-P 2ybc'
loop_
_symmetry_equiv_pos_site_id
_symmetry_equiv_pos_as_xyz
1 x,y,z
2 -x,1/2+y,1/2-z
3 -x,-y,-z
4 x,1/2-y,1/2+z
_cell_length_a                   10.0717(15)
_cell_length_b                   9.4090(13)
_cell_length_c                   24.558(4)
_cell_angle_alpha                90
_cell_angle_beta                 97.473(3)
_cell_angle_gamma                90
_cell_volume                     2307.46
_exptl_crystal_colour            yellow
_exptl_crystal_description       block
_cell_formula_units_Z            4
loop_
_atom_site_label
_atom_site_type_symbol
_atom_site_fract_x
_atom_site_fract_y
_atom_site_fract_z
O1 O 0.0460(2) 0.2387(3) 0.75015(8)
N1 N 0.2999(2) 0.5425(2) 0.45694(9)
N2 N 0.0650(2) 0.9505(2) 0.42496(9)
H1 H -0.0008 1.0126 0.4205
N3 N 0.0910(2) 0.7839(3) 0.59427(10)
N4 N 0.2742(2) 0.0932(2) 0.54599(10)
N5 N 0.5690(2) 0.1683(2) 0.42690(9)
H2 H 0.6256 0.0967 0.4308
C1 C 0.2262(2) 0.6304(3) 0.48389(11)
C2 C 0.1893(2) 0.5922(3) 0.53560(10)
C3 C 0.2108(2) 0.4531(3) 0.55596(10)
C4 C 0.2763(2) 0.3604(3) 0.52361(10)
C5 C 0.3296(2) 0.4107(3) 0.47624(10)
C6 C 0.1894(2) 0.7645(3) 0.45691(11)
C7 C 0.0746(3) 0.8411(3) 0.46105(11)
H3 H 0.0117 0.8203 0.4856
C8 C 0.1739(3) 0.9498(3) 0.39617(11)
C9 C 0.2063(3) 1.0432(3) 0.35600(12)
H4 H 0.1499 1.1212 0.3442
C10 C 0.3223(3) 1.0185(3) 0.33419(12)
H5 H 0.3466 1.0797 0.3063
C11 C 0.4062(3) 0.9040(3) 0.35241(12)
H6 H 0.4868 0.8899 0.3369
C12 C 0.3738(3) 0.8116(3) 0.39233(11)
H7 H 0.4314 0.7347 0.4044
C13 C 0.2542(3) 0.8335(3) 0.41481(10)
C14 C 0.1331(3) 0.6966(3) 0.56836(11)
C15 C 0.1672(3) 0.4065(3) 0.60815(11)
C16 C 0.0377(3) 0.4298(3) 0.61976(11)
H8 H -0.0223 0.4835 0.5947
C17 C -0.0064(3) 0.3771(3) 0.66661(12)
H9 H -0.0958 0.3941 0.6734
C18 C 0.0797(3) 0.2997(3) 0.70357(11)
C19 C 0.2112(3) 0.2797(3) 0.69381(12)
H10 H 0.2720 0.2297 0.7198
C20 C 0.2539(3) 0.3314(3) 0.64707(11)
H11 H 0.3440 0.3161 0.6409
C21 C -0.0896(3) 0.2509(5) 0.76042(15)
H12 H -0.1487 0.2078 0.7300
H13 H -0.1126 0.3515 0.7636
H14 H -0.1007 0.2017 0.7947
C22 C 0.2785(3) 0.2119(3) 0.53659(11)
C23 C 0.4154(2) 0.3273(3) 0.44560(10)
C24 C 0.4916(3) 0.2108(3) 0.46463(11)
H15 H 0.4895 0.1669 0.4994
C25 C 0.5462(3) 0.2543(3) 0.38121(11)
C26 C 0.6005(3) 0.2479(3) 0.33219(11)
H16 H 0.6655 0.1781 0.3265
C27 C 0.5578(3) 0.3452(3) 0.29223(12)
H17 H 0.5945 0.3442 0.2585
C28 C 0.4609(3) 0.4456(3) 0.30072(12)
H18 H 0.4319 0.5113 0.2722
C29 C 0.4058(3) 0.4527(3) 0.34927(11)
H19 H 0.3396 0.5219 0.3541
C30 C 0.4488(2) 0.3564(3) 0.39124(10)
loop_
_geom_bond_atom_site_label_1
_geom_bond_atom_site_label_2
_geom_bond_site_symmetry_1
_geom_bond_site_symmetry_2
O1 C18 1_555 1_555
N1 C1 1_555 1_555
N2 H1 1_555 1_555
N3 C14 1_555 1_555
N4 C22 1_555 1_555
N5 H2 1_555 1_555
C1 C2 1_555 1_555
C2 C3 1_555 1_555
C3 C4 1_555 1_555
C4 C5 1_555 1_555
C5 N1 1_555 1_555
C6 C1 1_555 1_555
C7 N2 1_555 1_555
H3 C7 1_555 1_555
C8 N2 1_555 1_555
C9 C8 1_555 1_555
H4 C9 1_555 1_555
C10 C9 1_555 1_555
H5 C10 1_555 1_555
C11 C10 1_555 1_555
H6 C11 1_555 1_555
C12 C11 1_555 1_555
H7 C12 1_555 1_555
C13 C6 1_555 1_555
C14 C2 1_555 1_555
C15 C3 1_555 1_555
C16 C15 1_555 1_555
H8 C16 1_555 1_555
C17 C16 1_555 1_555
H9 C17 1_555 1_555
C18 C17 1_555 1_555
C19 C18 1_555 1_555
H10 C19 1_555 1_555
C20 C15 1_555 1_555
H11 C20 1_555 1_555
C21 O1 1_555 1_555
H12 C21 1_555 1_555
H13 C21 1_555 1_555
H14 C21 1_555 1_555
C22 C4 1_555 1_555
C23 C5 1_555 1_555
C24 N5 1_555 1_555
H15 C24 1_555 1_555
C25 N5 1_555 1_555
C26 C25 1_555 1_555
H16 C26 1_555 1_555
C27 C26 1_555 1_555
H17 C27 1_555 1_555
C28 C27 1_555 1_555
H18 C28 1_555 1_555
C29 C28 1_555 1_555
H19 C29 1_555 1_555
C30 C23 1_555 1_555
C6 C7 1_555 1_555
C8 C13 1_555 1_555
C12 C13 1_555 1_555
C19 C20 1_555 1_555
C23 C24 1_555 1_555
C25 C30 1_555 1_555
C29 C30 1_555 1_555

#END
