
#######################################################################
#
#                 Cambridge Crystallographic Data Centre
#                                CCDC 
#
#######################################################################
#
# If this CIF has been generated from an entry in the Cambridge 
# Structural Database, then it will include bibliographic, chemical, 
# crystal, experimental, refinement or atomic coordinate data resulting 
# from the CCDC's data processing and validation procedures.
#
#######################################################################

data_RIYPEV
_chemical_formula_moiety         'C24 H18 F6 O4'
_chemical_name_systematic        
'Ethyl 3-(3,5-bis(trifluoromethyl)phenyl)-2-((2-oxo-5-phenyldihydrofuran-3(2H)-ylidene)methyl)acrylate'
_symmetry_cell_setting           monoclinic
_symmetry_space_group_name_H-M   'P 2/n'
_symmetry_Int_Tables_number      13
_space_group_name_Hall           '-P 2yac'
loop_
_symmetry_equiv_pos_site_id
_symmetry_equiv_pos_as_xyz
1 x,y,z
2 1/2-x,y,1/2-z
3 -x,-y,-z
4 1/2+x,-y,1/2+z
_cell_length_a                   14.591(2)
_cell_length_b                   8.9338(13)
_cell_length_c                   18.762(3)
_cell_angle_alpha                90
_cell_angle_beta                 108.732(3)
_cell_angle_gamma                90
_cell_volume                     2316.14
_cell_formula_units_Z            4
loop_
_atom_site_label
_atom_site_type_symbol
_atom_site_fract_x
_atom_site_fract_y
_atom_site_fract_z
F1 F -0.0931(6) 0.3044(12) 0.4387(6)
F2 F -0.0778(10) 0.2238(18) 0.3384(5)
F3 F -0.0679(8) 0.0764(15) 0.4349(9)
F7 F 0.1769(8) 0.3701(17) 0.6680(6)
F8 F 0.2741(8) 0.5021(11) 0.6349(5)
F9 F 0.3135(8) 0.2794(13) 0.6720(5)
O1 O 0.6473(3) 0.4293(6) 0.5261(2)
O2 O 0.5280(3) 0.4256(4) 0.41867(18)
O3 O 0.5149(2) 0.1067(4) 0.37279(18)
O4 O 0.3856(3) 0.1998(6) 0.2843(2)
C1 C 0.8313(6) 0.4360(8) 0.6904(4)
H1 H 0.8022 0.5137 0.7082
C2 C 0.9346(6) 0.4135(11) 0.7226(4)
H2 H 0.9741 0.4747 0.7600
C3 C 0.9692(5) 0.2935(11) 0.6930(5)
H3 H 1.0342 0.2672 0.7124
C4 C 0.9083(7) 0.2134(11) 0.6356(5)
H4 H 0.9339 0.1366 0.6143
C5 C 0.8146(6) 0.2403(11) 0.6087(5)
H5 H 0.7758 0.1808 0.5701
C6 C 0.7760(4) 0.3468(8) 0.6349(3)
C7 C 0.6664(5) 0.3794(8) 0.6060(3)
H6 H 0.6495 0.4582 0.6359
C8 C 0.6014(4) 0.2450(7) 0.5987(3)
H7 H 0.6385 0.1530 0.6050
H8 H 0.5684 0.2482 0.6360
C9 C 0.5300(3) 0.2552(5) 0.5204(2)
C10 C 0.5654(4) 0.3748(6) 0.4801(3)
C11 C 0.4486(3) 0.1780(5) 0.4900(2)
H9 H 0.4304 0.1125 0.5215
C12 C 0.3845(3) 0.1866(5) 0.4111(2)
C13 C 0.4266(3) 0.1668(6) 0.3487(3)
C14 C 0.5667(5) 0.0993(10) 0.3182(4)
H10 H 0.5485 0.0092 0.2881
H11 H 0.5500 0.1850 0.2847
C15 C 0.6700(6) 0.0985(13) 0.3579(5)
H12 H 0.6847 0.1704 0.3980
H13 H 0.7043 0.1240 0.3236
H14 H 0.6894 0.0006 0.3783
C16 C 0.2878(3) 0.2039(6) 0.3900(3)
H15 H 0.2555 0.1991 0.3386
C17 C 0.2265(3) 0.2294(6) 0.4375(3)
C18 C 0.1268(4) 0.2070(7) 0.4051(3)
H16 H 0.1022 0.1748 0.3555
C19 C 0.0640(4) 0.2320(7) 0.4456(3)
C20 C 0.0999(4) 0.2825(7) 0.5200(3)
H17 H 0.0583 0.2998 0.5477
C21 C 0.1977(4) 0.3059(7) 0.5514(3)
C22 C 0.2602(4) 0.2808(6) 0.5111(3)
H18 H 0.3260 0.2986 0.5336
C23 C -0.0398(5) 0.2078(10) 0.4110(4)
C24 C 0.2375(4) 0.3591(9) 0.6301(4)
F4? F -0.0950(8) 0.208(2) 0.4548(6)
F5? F -0.0749(9) 0.3045(11) 0.3510(6)
F6? F -0.0633(5) 0.0818(10) 0.3685(6)
F10? F 0.2267(12) 0.2420(13) 0.6749(6)
F11? F 0.1791(10) 0.4473(16) 0.6523(8)
F12? F 0.3301(6) 0.3756(19) 0.6587(6)
loop_
_geom_bond_atom_site_label_1
_geom_bond_atom_site_label_2
_geom_bond_site_symmetry_1
_geom_bond_site_symmetry_2
F1 C23 1_555 1_555
F2 C23 1_555 1_555
F3 C23 1_555 1_555
F7 C24 1_555 1_555
F8 C24 1_555 1_555
F9 C24 1_555 1_555
O1 C7 1_555 1_555
O2 C10 1_555 1_555
O3 C13 1_555 1_555
O4 C13 1_555 1_555
C1 H1 1_555 1_555
C2 C1 1_555 1_555
H2 C2 1_555 1_555
C3 C2 1_555 1_555
H3 C3 1_555 1_555
C4 C3 1_555 1_555
H4 C4 1_555 1_555
C5 C4 1_555 1_555
H5 C5 1_555 1_555
C6 C1 1_555 1_555
C7 C6 1_555 1_555
H6 C7 1_555 1_555
C8 C7 1_555 1_555
H7 C8 1_555 1_555
H8 C8 1_555 1_555
C9 C8 1_555 1_555
C10 O1 1_555 1_555
C11 C9 1_555 1_555
H9 C11 1_555 1_555
C12 C11 1_555 1_555
C13 C12 1_555 1_555
C14 O3 1_555 1_555
H10 C14 1_555 1_555
H11 C14 1_555 1_555
C15 C14 1_555 1_555
H12 C15 1_555 1_555
H13 C15 1_555 1_555
H14 C15 1_555 1_555
C16 C12 1_555 1_555
H15 C16 1_555 1_555
C17 C16 1_555 1_555
C18 C17 1_555 1_555
H16 C18 1_555 1_555
C19 C18 1_555 1_555
C20 C19 1_555 1_555
H17 C20 1_555 1_555
C21 C20 1_555 1_555
C22 C17 1_555 1_555
H18 C22 1_555 1_555
C23 C19 1_555 1_555
C24 C21 1_555 1_555
C5 C6 1_555 1_555
C9 C10 1_555 1_555
C21 C22 1_555 1_555

#END
