
#######################################################################
#
#                 Cambridge Crystallographic Data Centre
#                                CCDC 
#
#######################################################################
#
# If this CIF has been generated from an entry in the Cambridge 
# Structural Database, then it will include bibliographic, chemical, 
# crystal, experimental, refinement or atomic coordinate data resulting 
# from the CCDC's data processing and validation procedures.
#
#######################################################################

data_RIYQOG
_chemical_formula_moiety         'C14 H9 N5 O12'
_chemical_name_systematic        
6,6'-Dimethoxy-2,2',3,3',5-pentanitro-1,1'-biphenyl
_symmetry_cell_setting           triclinic
_symmetry_space_group_name_H-M   'P -1'
_symmetry_Int_Tables_number      2
_space_group_name_Hall           '-P 1'
loop_
_symmetry_equiv_pos_site_id
_symmetry_equiv_pos_as_xyz
1 x,y,z
2 -x,-y,-z
_cell_length_a                   10.3765(13)
_cell_length_b                   10.4423(13)
_cell_length_c                   10.4429(13)
_cell_angle_alpha                82.5650(10)
_cell_angle_beta                 62.2850(10)
_cell_angle_gamma                60.5200(10)
_cell_volume                     864.727
_exptl_crystal_colour            yellow
_exptl_crystal_description       block
_cell_formula_units_Z            2
_exptl_crystal_recrystallization_method 'ethyl acetate'
_exptl_crystal_preparation       'potential explosive'
loop_
_atom_site_label
_atom_site_type_symbol
_atom_site_fract_x
_atom_site_fract_y
_atom_site_fract_z
O1 O 0.36354(18) 0.70656(16) 0.19497(14)
O2 O 0.69388(15) 0.72440(14) 0.24022(14)
O3 O 0.4217(2) 0.40331(19) 0.2500(2)
O4 O 0.1905(2) 0.4489(2) 0.4428(3)
O5 O 0.2186(3) 0.6187(2) 0.84423(19)
O6 O 0.2172(2) 0.8273(2) 0.83302(16)
O7 O 0.5003(2) 0.8533(2) 0.57692(17)
O8 O 0.2549(2) 1.03379(17) 0.61824(19)
O9 O 0.2989(2) 1.33902(17) 0.06894(18)
O10 O 0.0962(2) 1.3106(2) 0.2303(2)
O11 O 0.0882(2) 1.0384(2) 0.2635(2)
O12 O 0.04620(19) 1.1239(2) 0.46358(18)
N1 N 0.3036(2) 0.4748(2) 0.3675(2)
N2 N 0.2378(2) 0.7181(2) 0.77767(18)
N3 N 0.3645(2) 0.90493(19) 0.58132(16)
N4 N 0.2444(2) 1.26902(17) 0.15879(17)
N5 N 0.1327(2) 1.06936(18) 0.3386(2)
C1 C 0.3442(2) 0.69672(19) 0.33107(19)
C2 C 0.3056(2) 0.59612(19) 0.4225(2)
C3 C 0.2736(2) 0.6019(2) 0.5661(2)
H1 H 0.2441 0.5362 0.6249
C4 C 0.2859(2) 0.7060(2) 0.62141(19)
C5 C 0.3359(2) 0.80022(19) 0.52985(19)
C6 C 0.3661(2) 0.79704(18) 0.38642(18)
C7 C 0.4211(2) 0.89880(18) 0.28967(17)
C8 C 0.5928(2) 0.85656(18) 0.21610(18)
C9 C 0.6454(2) 0.9505(2) 0.12600(18)
H2 H 0.7584 0.9224 0.0769
C10 C 0.5303(2) 1.08464(19) 0.10979(18)
H3 H 0.5660 1.1471 0.0507
C11 C 0.3623(2) 1.12714(18) 0.18047(18)
C12 C 0.3096(2) 1.03275(19) 0.26904(18)
C13 C 0.2548(4) 0.6888(3) 0.1570(3)
H4 H 0.3124 0.5908 0.1070
H5 H 0.2243 0.7609 0.0946
H6 H 0.1559 0.7028 0.2442
C14 C 0.8715(2) 0.6715(2) 0.1654(3)
H7 H 0.9102 0.6645 0.0619
H8 H 0.9285 0.5755 0.1910
H9 H 0.8939 0.7394 0.1934
loop_
_geom_bond_atom_site_label_1
_geom_bond_atom_site_label_2
_geom_bond_site_symmetry_1
_geom_bond_site_symmetry_2
O1 C1 1_555 1_555
O2 C8 1_555 1_555
O3 N1 1_555 1_555
O4 N1 1_555 1_555
O5 N2 1_555 1_555
O6 N2 1_555 1_555
O7 N3 1_555 1_555
O8 N3 1_555 1_555
O9 N4 1_555 1_555
O10 N4 1_555 1_555
O11 N5 1_555 1_555
O12 N5 1_555 1_555
N1 C2 1_555 1_555
N2 C4 1_555 1_555
N3 C5 1_555 1_555
N4 C11 1_555 1_555
N5 C12 1_555 1_555
C1 C2 1_555 1_555
C2 C3 1_555 1_555
C3 H1 1_555 1_555
C4 C3 1_555 1_555
C5 C4 1_555 1_555
C6 C1 1_555 1_555
C7 C6 1_555 1_555
C8 C7 1_555 1_555
C9 C8 1_555 1_555
H2 C9 1_555 1_555
C10 C9 1_555 1_555
H3 C10 1_555 1_555
C11 C10 1_555 1_555
C12 C7 1_555 1_555
C13 O1 1_555 1_555
H4 C13 1_555 1_555
H5 C13 1_555 1_555
H6 C13 1_555 1_555
C14 O2 1_555 1_555
H7 C14 1_555 1_555
H8 C14 1_555 1_555
H9 C14 1_555 1_555
C5 C6 1_555 1_555
C11 C12 1_555 1_555

#END
