
#######################################################################
#
#                 Cambridge Crystallographic Data Centre
#                                CCDC 
#
#######################################################################
#
# If this CIF has been generated from an entry in the Cambridge 
# Structural Database, then it will include bibliographic, chemical, 
# crystal, experimental, refinement or atomic coordinate data resulting 
# from the CCDC's data processing and validation procedures.
#
#######################################################################

data_RIYQUL01
_chemical_formula_moiety         'C18 H21 N1 O4 S1'
_chemical_name_systematic        
1-(10,10-Dimethyl-3,3-dioxo-3-thia-4-azatricyclo[5.2.1.0^1,5^]decan-4-yl)-2-phenylethane-1,2-dione
_symmetry_cell_setting           orthorhombic
_symmetry_space_group_name_H-M   'P 21 21 21'
_symmetry_Int_Tables_number      19
_space_group_name_Hall           'P 2ac 2ab'
loop_
_symmetry_equiv_pos_site_id
_symmetry_equiv_pos_as_xyz
1 x,y,z
2 1/2-x,-y,1/2+z
3 1/2+x,1/2-y,-z
4 -x,1/2+y,1/2-z
_cell_length_a                   7.6180(2)
_cell_length_b                   11.7220(3)
_cell_length_c                   18.8940(6)
_cell_angle_alpha                90
_cell_angle_beta                 90
_cell_angle_gamma                90
_cell_volume                     1687.2
_exptl_crystal_colour            colorless
_exptl_crystal_description       prism
_cell_formula_units_Z            4
_exptl_crystal_recrystallization_method 'hexanes/ethyl acetate'
loop_
_atom_site_label
_atom_site_type_symbol
_atom_site_fract_x
_atom_site_fract_y
_atom_site_fract_z
S1 S 0.85064(12) 0.39982(8) 0.43279(5)
O1 O 0.9502(4) 0.4995(2) 0.41622(15)
O2 O 0.7411(3) 0.4026(3) 0.49382(12)
O3 O 0.5342(4) 0.4371(3) 0.28026(14)
O4 O 0.3736(3) 0.4053(2) 0.43247(15)
N1 N 0.7284(4) 0.3672(3) 0.36088(15)
C1 C 0.9860(5) 0.2779(3) 0.4267(2)
H1 H 1.1058 0.3001 0.4344
H2 H 0.9516 0.2237 0.4622
C2 C 0.9636(4) 0.2297(3) 0.35193(18)
C3 C 0.8430(5) 0.3116(3) 0.30808(18)
H3 H 0.9159 0.3670 0.2848
C4 C 0.7538(6) 0.2309(3) 0.2543(2)
H4 H 0.6320 0.2233 0.2664
H5 H 0.7640 0.2619 0.2075
C5 C 0.8590(5) 0.1217(3) 0.2642(2)
H6 H 0.8022 0.0605 0.2394
C6 C 1.0508(6) 0.1452(4) 0.2417(2)
H7 H 1.0587 0.1888 0.1988
H8 H 1.1170 0.0760 0.2367
C7 C 1.1266(5) 0.2145(4) 0.3048(2)
H9 H 1.1683 0.2884 0.2910
H10 H 1.2165 0.1755 0.3310
C8 C 0.8717(5) 0.1110(3) 0.34484(18)
C9 C 0.9832(5) 0.0119(4) 0.3697(2)
H11 H 0.9182 -0.0576 0.3639
H12 H 1.0125 0.0218 0.4187
H13 H 1.0889 0.0083 0.3422
C10 C 0.6921(5) 0.1028(4) 0.3816(2)
H14 H 0.6447 0.0277 0.3747
H15 H 0.6134 0.1582 0.3617
H16 H 0.7060 0.1170 0.4313
C11 C 0.5814(5) 0.4276(3) 0.3411(2)
C12 C 0.4599(5) 0.4753(4) 0.4000(2)
C13 C 0.4452(4) 0.5996(3) 0.40747(18)
C14 C 0.3142(5) 0.6465(4) 0.4484(2)
H17 H 0.2324 0.5965 0.4715
C15 C 0.3010(5) 0.7628(4) 0.4562(2)
H18 H 0.2108 0.7956 0.4853
C16 C 0.4203(5) 0.8332(4) 0.4227(2)
H19 H 0.4110 0.9142 0.4289
C17 C 0.5497(5) 0.7877(3) 0.3810(2)
H20 H 0.6301 0.8372 0.3568
C18 C 0.5631(5) 0.6710(3) 0.3735(2)
H21 H 0.6556 0.6393 0.3451
loop_
_geom_bond_atom_site_label_1
_geom_bond_atom_site_label_2
_geom_bond_site_symmetry_1
_geom_bond_site_symmetry_2
S1 O1 1_555 1_555
O2 S1 1_555 1_555
O3 C11 1_555 1_555
O4 C12 1_555 1_555
N1 S1 1_555 1_555
C1 S1 1_555 1_555
H1 C1 1_555 1_555
H2 C1 1_555 1_555
C2 C1 1_555 1_555
C3 N1 1_555 1_555
H3 C3 1_555 1_555
C4 C3 1_555 1_555
H4 C4 1_555 1_555
H5 C4 1_555 1_555
C5 C4 1_555 1_555
H6 C5 1_555 1_555
C6 C5 1_555 1_555
H7 C6 1_555 1_555
H8 C6 1_555 1_555
C7 C2 1_555 1_555
H9 C7 1_555 1_555
H10 C7 1_555 1_555
C8 C2 1_555 1_555
C9 C8 1_555 1_555
H11 C9 1_555 1_555
H12 C9 1_555 1_555
H13 C9 1_555 1_555
C10 C8 1_555 1_555
H14 C10 1_555 1_555
H15 C10 1_555 1_555
H16 C10 1_555 1_555
C11 N1 1_555 1_555
C12 C11 1_555 1_555
C13 C12 1_555 1_555
C14 C13 1_555 1_555
H17 C14 1_555 1_555
C15 C14 1_555 1_555
H18 C15 1_555 1_555
C16 C15 1_555 1_555
H19 C16 1_555 1_555
C17 C16 1_555 1_555
H20 C17 1_555 1_555
C18 C13 1_555 1_555
H21 C18 1_555 1_555
C2 C3 1_555 1_555
C5 C8 1_555 1_555
C6 C7 1_555 1_555
C17 C18 1_555 1_555

#END
