
#######################################################################
#
#                 Cambridge Crystallographic Data Centre
#                                CCDC 
#
#######################################################################
#
# If this CIF has been generated from an entry in the Cambridge 
# Structural Database, then it will include bibliographic, chemical, 
# crystal, experimental, refinement or atomic coordinate data resulting 
# from the CCDC's data processing and validation procedures.
#
#######################################################################

data_RIYSUP
_chemical_formula_moiety         'C18 H20 O3'
_chemical_name_systematic        
'Ethyl (4-hydroxy-3,5-dimethylphenyl)(phenyl)acetate'
_symmetry_cell_setting           monoclinic
_symmetry_space_group_name_H-M   'P 21/n'
_symmetry_Int_Tables_number      14
_space_group_name_Hall           '-P 2yn'
loop_
_symmetry_equiv_pos_site_id
_symmetry_equiv_pos_as_xyz
1 x,y,z
2 1/2-x,1/2+y,1/2-z
3 -x,-y,-z
4 1/2+x,1/2-y,1/2+z
_cell_length_a                   13.7112(14)
_cell_length_b                   7.8902(8)
_cell_length_c                   14.7754(14)
_cell_angle_alpha                90
_cell_angle_beta                 105.614(3)
_cell_angle_gamma                90
_cell_volume                     1539.48
_exptl_crystal_colour            colorless
_exptl_crystal_description       block
_cell_formula_units_Z            4
loop_
_atom_site_label
_atom_site_type_symbol
_atom_site_fract_x
_atom_site_fract_y
_atom_site_fract_z
O1 O 0.21361(15) 1.3185(3) 0.00939(16)
O2 O 0.38171(14) 1.3343(2) 0.05460(15)
O3 O 0.00077(14) 0.6708(3) 0.07524(14)
H1 H -0.0547 0.6961 0.0404
C1 C 0.24169(19) 0.8776(3) 0.10012(19)
H2 H 0.3027 0.8909 0.1460
C2 C 0.1655(2) 0.7820(3) 0.12044(18)
C3 C 0.07521(18) 0.7627(3) 0.05070(19)
C4 C 0.06150(18) 0.8311(3) -0.03851(18)
C5 C 0.13953(19) 0.9274(3) -0.05502(18)
H3 H 0.1312 0.9759 -0.1140
C6 C 0.22960(18) 0.9536(3) 0.01370(18)
C7 C 0.31409(18) 1.0680(3) -0.00078(18)
H4 H 0.3766 1.0331 0.0453
C8 C 0.33402(18) 1.0570(3) -0.09690(19)
C9 C 0.2843(2) 1.1571(4) -0.1714(2)
H5 H 0.2358 1.2339 -0.1634
C10 C 0.3048(2) 1.1456(4) -0.2575(2)
H6 H 0.2702 1.2145 -0.3068
C11 C 0.3758(2) 1.0337(4) -0.2710(2)
H7 H 0.3906 1.0277 -0.3287
C12 C 0.4248(2) 0.9307(4) -0.1986(2)
H8 H 0.4723 0.8529 -0.2076
C13 C 0.4043(2) 0.9411(4) -0.1118(2)
H9 H 0.4379 0.8698 -0.0633
C14 C 0.1790(2) 0.7013(5) 0.2153(2)
H10 H 0.1189 0.6395 0.2160
H11 H 0.1911 0.7877 0.2628
H12 H 0.2357 0.6251 0.2277
C15 C -0.0351(2) 0.8022(4) -0.1141(2)
H13 H -0.0484 0.6828 -0.1211
H14 H -0.0285 0.8480 -0.1724
H15 H -0.0900 0.8574 -0.0971
C16 C 0.2949(2) 1.2519(4) 0.02081(19)
C17 C 0.3744(2) 1.5130(4) 0.0759(3)
H16 H 0.3307 1.5278 0.1172
H17 H 0.3459 1.5760 0.0185
C18 C 0.4767(3) 1.5757(5) 0.1220(3)
H18 H 0.4732 1.6933 0.1376
H19 H 0.5190 1.5629 0.0803
H20 H 0.5046 1.5119 0.1784
loop_
_geom_bond_atom_site_label_1
_geom_bond_atom_site_label_2
_geom_bond_site_symmetry_1
_geom_bond_site_symmetry_2
O1 C16 1_555 1_555
O2 C16 1_555 1_555
O3 H1 1_555 1_555
C1 H2 1_555 1_555
C2 C1 1_555 1_555
C3 O3 1_555 1_555
C4 C3 1_555 1_555
C5 C4 1_555 1_555
H3 C5 1_555 1_555
C6 C1 1_555 1_555
C7 C6 1_555 1_555
H4 C7 1_555 1_555
C8 C7 1_555 1_555
C9 C8 1_555 1_555
H5 C9 1_555 1_555
C10 C9 1_555 1_555
H6 C10 1_555 1_555
C11 C10 1_555 1_555
H7 C11 1_555 1_555
C12 C11 1_555 1_555
H8 C12 1_555 1_555
C13 C8 1_555 1_555
H9 C13 1_555 1_555
C14 C2 1_555 1_555
H10 C14 1_555 1_555
H11 C14 1_555 1_555
H12 C14 1_555 1_555
C15 C4 1_555 1_555
H13 C15 1_555 1_555
H14 C15 1_555 1_555
H15 C15 1_555 1_555
C16 C7 1_555 1_555
C17 O2 1_555 1_555
H16 C17 1_555 1_555
H17 C17 1_555 1_555
C18 C17 1_555 1_555
H18 C18 1_555 1_555
H19 C18 1_555 1_555
H20 C18 1_555 1_555
C2 C3 1_555 1_555
C5 C6 1_555 1_555
C12 C13 1_555 1_555

#END
