
#######################################################################
#
#                 Cambridge Crystallographic Data Centre
#                                CCDC 
#
#######################################################################
#
# If this CIF has been generated from an entry in the Cambridge 
# Structural Database, then it will include bibliographic, chemical, 
# crystal, experimental, refinement or atomic coordinate data resulting 
# from the CCDC's data processing and validation procedures.
#
#######################################################################

data_RIYTAV
_chemical_formula_moiety         'C7 H8 N2 O1 S2'
_chemical_name_systematic        'Methyl 3-((E)-furfurylidene)dithiocarbazate'
_symmetry_cell_setting           triclinic
_symmetry_space_group_name_H-M   'P -1'
_symmetry_Int_Tables_number      2
_space_group_name_Hall           '-P 1'
loop_
_symmetry_equiv_pos_site_id
_symmetry_equiv_pos_as_xyz
1 x,y,z
2 -x,-y,-z
_cell_length_a                   4.0866(8)
_cell_length_b                   8.8698(12)
_cell_length_c                   12.8453(15)
_cell_angle_alpha                93.970(14)
_cell_angle_beta                 91.856(12)
_cell_angle_gamma                98.293(12)
_cell_volume                     459.21
_exptl_crystal_colour            yellow
_exptl_crystal_description       prism
_cell_formula_units_Z            2
_exptl_crystal_recrystallization_method ethanol
loop_
_atom_site_label
_atom_site_type_symbol
_atom_site_fract_x
_atom_site_fract_y
_atom_site_fract_z
S1 S 0.20815(13) 0.27619(5) 0.50863(4)
S2 S 0.38692(13) 0.20142(5) 0.28541(4)
N1 N 0.1859(4) 0.45265(16) 0.35473(12)
H1 H 0.1098 0.5149 0.3988
N2 N 0.2353(4) 0.49265(16) 0.25394(11)
O1 O 0.3206(4) 0.60245(14) 0.05809(10)
C1 C 0.2537(4) 0.3197(2) 0.38518(14)
C2 C 0.4665(5) 0.0393(2) 0.35393(17)
H2 H 0.6311 0.0720 0.4090
H3 H 0.5448 -0.0343 0.3062
H4 H 0.2659 -0.0063 0.3831
C3 C 0.1483(5) 0.6216(2) 0.23454(16)
H5 H 0.0577 0.6772 0.2875
C4 C 0.1847(5) 0.6835(2) 0.13501(16)
C5 C 0.1076(7) 0.8131(3) 0.09881(19)
H6 H 0.0139 0.8886 0.1360
C6 C 0.1961(6) 0.8126(3) -0.00661(18)
H7 H 0.1705 0.8873 -0.0523
C7 C 0.3227(6) 0.6849(3) -0.02770(17)
H8 H 0.4018 0.6557 -0.0920
loop_
_geom_bond_atom_site_label_1
_geom_bond_atom_site_label_2
_geom_bond_site_symmetry_1
_geom_bond_site_symmetry_2
S1 C1 1_555 1_555
S2 C1 1_555 1_555
N1 H1 1_555 1_555
N2 N1 1_555 1_555
O1 C4 1_555 1_555
C1 N1 1_555 1_555
C2 S2 1_555 1_555
H2 C2 1_555 1_555
H3 C2 1_555 1_555
H4 C2 1_555 1_555
C3 N2 1_555 1_555
H5 C3 1_555 1_555
C4 C3 1_555 1_555
C5 C4 1_555 1_555
H6 C5 1_555 1_555
C6 C5 1_555 1_555
H7 C6 1_555 1_555
C7 O1 1_555 1_555
H8 C7 1_555 1_555
C6 C7 1_555 1_555

#END
