
#######################################################################
#
#                 Cambridge Crystallographic Data Centre
#                                CCDC 
#
#######################################################################
#
# If this CIF has been generated from an entry in the Cambridge 
# Structural Database, then it will include bibliographic, chemical, 
# crystal, experimental, refinement or atomic coordinate data resulting 
# from the CCDC's data processing and validation procedures.
#
#######################################################################

data_RIYTID
_chemical_formula_moiety         'C8 H6 N2 O2'
_chemical_name_systematic        2-Methyl-5-nitrobenzonitrile
_symmetry_cell_setting           monoclinic
_symmetry_space_group_name_H-M   'P 21/n'
_symmetry_Int_Tables_number      14
_space_group_name_Hall           '-P 2yn'
loop_
_symmetry_equiv_pos_site_id
_symmetry_equiv_pos_as_xyz
1 x,y,z
2 1/2-x,1/2+y,1/2-z
3 -x,-y,-z
4 1/2+x,1/2-y,1/2+z
_cell_length_a                   3.8946(8)
_cell_length_b                   7.6350(15)
_cell_length_c                   26.180(5)
_cell_angle_alpha                90
_cell_angle_beta                 91.65(3)
_cell_angle_gamma                90
_cell_volume                     778.147
_exptl_crystal_colour            colorless
_exptl_crystal_description       block
_cell_formula_units_Z            4
_exptl_crystal_recrystallization_method ethanol
loop_
_atom_site_label
_atom_site_type_symbol
_atom_site_fract_x
_atom_site_fract_y
_atom_site_fract_z
N1 N 0.8171(4) 0.3298(2) 0.18614(5)
C1 C 0.8617(4) 0.6612(2) 0.08273(6)
C2 C 0.7935(4) 0.5051(2) 0.10776(5)
H1 H 0.6877 0.4120 0.0907
C3 C 0.7618(5) 0.6787(2) 0.02938(6)
C4 C 1.0183(4) 0.8045(2) 0.10793(6)
C5 C 0.8882(4) 0.4929(2) 0.15883(6)
N2 N 0.6808(5) 0.6958(2) -0.01239(6)
C6 C 1.1068(4) 0.7835(2) 0.15941(7)
H2 H 1.2101 0.8762 0.1770
O1 O 0.9413(5) 0.3114(2) 0.22899(6)
O2 O 0.6345(4) 0.2205(2) 0.16517(6)
C7 C 1.0461(4) 0.6299(2) 0.18501(6)
H3 H 1.1100 0.6182 0.2193
C8 C 1.0878(5) 0.9721(2) 0.08010(7)
H4 H 1.1998 1.0535 0.1030
H5 H 0.8748 1.0213 0.0676
H6 H 1.2333 0.9487 0.0519
loop_
_geom_bond_atom_site_label_1
_geom_bond_atom_site_label_2
_geom_bond_site_symmetry_1
_geom_bond_site_symmetry_2
N1 C5 1_555 1_555
C1 C2 1_555 1_555
C2 H1 1_555 1_555
C3 C1 1_555 1_555
C4 C1 1_555 1_555
C5 C2 1_555 1_555
N2 C3 1_555 1_555
C6 C4 1_555 1_555
H2 C6 1_555 1_555
O1 N1 1_555 1_555
O2 N1 1_555 1_555
C7 C5 1_555 1_555
H3 C7 1_555 1_555
C8 C4 1_555 1_555
H4 C8 1_555 1_555
H5 C8 1_555 1_555
H6 C8 1_555 1_555
C6 C7 1_555 1_555

#END
