
#######################################################################
#
#                 Cambridge Crystallographic Data Centre
#                                CCDC 
#
#######################################################################
#
# If this CIF has been generated from an entry in the Cambridge 
# Structural Database, then it will include bibliographic, chemical, 
# crystal, experimental, refinement or atomic coordinate data resulting 
# from the CCDC's data processing and validation procedures.
#
#######################################################################

data_RIYVAX
_chemical_formula_moiety         'C14 H10 N4'
_chemical_name_systematic        4-((1H-Benzotriazol-1-yl)methyl)benzonitrile
_symmetry_cell_setting           monoclinic
_symmetry_space_group_name_H-M   'P 21/n'
_symmetry_Int_Tables_number      14
_space_group_name_Hall           '-P 2yn'
loop_
_symmetry_equiv_pos_site_id
_symmetry_equiv_pos_as_xyz
1 x,y,z
2 1/2-x,1/2+y,1/2-z
3 -x,-y,-z
4 1/2+x,1/2-y,1/2+z
_cell_length_a                   8.1912(13)
_cell_length_b                   19.0520(9)
_cell_length_c                   8.6610(6)
_cell_angle_alpha                90
_cell_angle_beta                 118.0390(10)
_cell_angle_gamma                90
_cell_volume                     1192.98
_exptl_crystal_colour            yellow
_exptl_crystal_description       Block
_cell_formula_units_Z            4
_exptl_crystal_recrystallization_method ethanol
loop_
_atom_site_label
_atom_site_type_symbol
_atom_site_fract_x
_atom_site_fract_y
_atom_site_fract_z
C1 C 0.7006(4) 0.10232(14) 0.9067(4)
H1 H 0.6891 0.1496 0.8769
C2 C 0.8443(4) 0.07658(15) 1.0621(4)
H2 H 0.9320 0.1081 1.1380
C3 C 0.8630(4) 0.00549(15) 1.1096(4)
C4 C 0.7387(4) -0.04391(14) 1.0033(4)
H3 H 0.7493 -0.0911 1.0344
C5 C 0.5915(3) -0.01855(12) 0.8418(3)
C6 C 0.5771(3) 0.05233(12) 0.8006(3)
C7 C 0.3403(4) 0.11817(13) 0.5272(3)
H4 H 0.2790 0.1033 0.4058
H5 H 0.4372 0.1510 0.5420
C8 C 0.2010(3) 0.15545(12) 0.5681(3)
C9 C 0.2298(3) 0.22412(12) 0.6302(3)
H6 H 0.3379 0.2474 0.6504
C10 C 0.0989(3) 0.25833(13) 0.6624(3)
H7 H 0.1182 0.3044 0.7026
C11 C -0.0614(3) 0.22289(11) 0.6339(3)
C12 C -0.0901(3) 0.15394(12) 0.5744(3)
H8 H -0.1967 0.1302 0.5566
C13 C 0.0408(3) 0.12081(12) 0.5417(3)
H9 H 0.0212 0.0747 0.5015
C14 C -0.2037(4) 0.25735(12) 0.6617(3)
N1 N 0.4254(3) 0.05596(10) 0.6402(3)
N2 N 0.3499(3) -0.00893(11) 0.5862(3)
N3 N 0.4492(3) -0.05515(11) 0.7082(3)
N4 N -0.3207(3) 0.28251(13) 0.6795(4)
H10 H 0.9617 -0.0085 1.2151
loop_
_geom_bond_atom_site_label_1
_geom_bond_atom_site_label_2
_geom_bond_site_symmetry_1
_geom_bond_site_symmetry_2
C1 H1 1_555 1_555
C2 C1 1_555 1_555
H2 C2 1_555 1_555
C3 C2 1_555 1_555
C4 C3 1_555 1_555
H3 C4 1_555 1_555
C5 C4 1_555 1_555
C6 C1 1_555 1_555
C7 H4 1_555 1_555
H5 C7 1_555 1_555
C8 C7 1_555 1_555
C9 C8 1_555 1_555
H6 C9 1_555 1_555
C10 C9 1_555 1_555
H7 C10 1_555 1_555
C11 C10 1_555 1_555
C12 C11 1_555 1_555
H8 C12 1_555 1_555
C13 C8 1_555 1_555
H9 C13 1_555 1_555
C14 C11 1_555 1_555
N1 C6 1_555 1_555
N2 N1 1_555 1_555
N3 C5 1_555 1_555
N4 C14 1_555 1_555
H10 C3 1_555 1_555
C5 C6 1_555 1_555
C7 N1 1_555 1_555
C12 C13 1_555 1_555
N2 N3 1_555 1_555

#END
