
#######################################################################
#
#                 Cambridge Crystallographic Data Centre
#                                CCDC 
#
#######################################################################
#
# If this CIF has been generated from an entry in the Cambridge 
# Structural Database, then it will include bibliographic, chemical, 
# crystal, experimental, refinement or atomic coordinate data resulting 
# from the CCDC's data processing and validation procedures.
#
#######################################################################

data_RIYXAA
_chemical_formula_moiety         'C21 H23 N1 O4 S1'
_chemical_name_systematic        
'Ethyl 3-((4-methylphenyl)sulfonyl)-2-phenyl-3-azabicyclo[3.1.0]hexane-1-carboxylate'
_symmetry_cell_setting           monoclinic
_symmetry_space_group_name_H-M   'P 21/n'
_symmetry_Int_Tables_number      14
_space_group_name_Hall           '-P 2yn'
loop_
_symmetry_equiv_pos_site_id
_symmetry_equiv_pos_as_xyz
1 x,y,z
2 1/2-x,1/2+y,1/2-z
3 -x,-y,-z
4 1/2+x,1/2-y,1/2+z
_cell_length_a                   9.0086(12)
_cell_length_b                   8.0000(9)
_cell_length_c                   26.351(4)
_cell_angle_alpha                90
_cell_angle_beta                 92.078(4)
_cell_angle_gamma                90
_cell_volume                     1897.84
_exptl_crystal_colour            colorless
_exptl_crystal_description       needle
_cell_formula_units_Z            4
loop_
_atom_site_label
_atom_site_type_symbol
_atom_site_fract_x
_atom_site_fract_y
_atom_site_fract_z
C1 C 0.2901(3) 0.1329(3) 0.20509(10)
H1 H 0.3447 0.1044 0.2372
H2 H 0.2396 0.2418 0.2092
C2 C 0.3935(3) 0.1379(3) 0.16126(10)
H3 H 0.4518 0.2421 0.1554
C3 C 0.4495(3) -0.0238(3) 0.14141(10)
H4 H 0.4355 -0.1251 0.1623
H5 H 0.5426 -0.0217 0.1226
C4 C 0.3126(3) 0.0545(3) 0.11619(10)
C5 C 0.1628(3) -0.0087(3) 0.13376(9)
H6 H 0.0837 0.0721 0.1224
C6 C 0.3154(3) 0.1241(3) 0.06439(10)
C7 C 0.4663(3) 0.2369(3) 0.00082(11)
H7 H 0.4048 0.3388 -0.0034
H8 H 0.4319 0.1538 -0.0248
C8 C 0.6271(3) 0.2779(4) -0.00589(12)
H9 H 0.6592 0.3621 0.0192
H10 H 0.6399 0.3217 -0.0402
H11 H 0.687 0.1765 -0.001
C9 C 0.1206(3) -0.1811(3) 0.11465(10)
C10 C 0.0227(3) -0.1970(3) 0.07273(10)
H12 H -0.0182 -0.0996 0.057
C11 C -0.0156(3) -0.3531(3) 0.05377(10)
H13 H -0.0838 -0.3625 0.0256
C12 C 0.0453(3) -0.4954(3) 0.07584(10)
H14 H 0.0198 -0.6025 0.0627
C13 C 0.1436(3) -0.4811(3) 0.11725(11)
H15 H 0.186 -0.5787 0.1323
C14 C 0.1806(3) -0.3256(3) 0.13679(10)
H16 H 0.2472 -0.3171 0.1655
C15 C -0.0787(3) 0.1656(3) 0.20298(10)
C16 C -0.1712(3) 0.1487(3) 0.15986(10)
H17 H -0.1815 0.0436 0.1433
C17 C -0.2480(3) 0.2869(3) 0.14137(11)
H18 H -0.3111 0.2758 0.1119
C18 C -0.2347(3) 0.4420(3) 0.16503(11)
C19 C -0.3159(3) 0.5915(3) 0.14354(12)
H19 H -0.3004 0.6871 0.1664
H20 H -0.4223 0.5664 0.1401
H21 H -0.278 0.6185 0.1101
C20 C -0.1443(3) 0.4551(3) 0.20863(11)
H22 H -0.1368 0.5592 0.2259
C21 C -0.0651(3) 0.3192(3) 0.22723(10)
H23 H -0.0015 0.3307 0.2566
N1 N 0.1817(2) -0.0003(2) 0.19038(8)
O1 O 0.2072(2) 0.1387(2) 0.03620(7)
O2 O 0.45338(19) 0.1691(2) 0.05177(7)
O3 O -0.0480(2) -0.15495(19) 0.20993(7)
O4 O 0.0799(2) 0.0219(2) 0.27536(7)
S1 S 0.03045(7) -0.00548(7) 0.22360(2)
loop_
_geom_bond_atom_site_label_1
_geom_bond_atom_site_label_2
_geom_bond_site_symmetry_1
_geom_bond_site_symmetry_2
C1 H1 1_555 1_555
H2 C1 1_555 1_555
C2 C1 1_555 1_555
H3 C2 1_555 1_555
C3 C2 1_555 1_555
H4 C3 1_555 1_555
H5 C3 1_555 1_555
C4 C2 1_555 1_555
C5 C4 1_555 1_555
H6 C5 1_555 1_555
C6 C4 1_555 1_555
C7 H7 1_555 1_555
H8 C7 1_555 1_555
C8 C7 1_555 1_555
H9 C8 1_555 1_555
H10 C8 1_555 1_555
H11 C8 1_555 1_555
C9 C5 1_555 1_555
C10 C9 1_555 1_555
H12 C10 1_555 1_555
C11 C10 1_555 1_555
H13 C11 1_555 1_555
C12 C11 1_555 1_555
H14 C12 1_555 1_555
C13 C12 1_555 1_555
H15 C13 1_555 1_555
C14 C9 1_555 1_555
H16 C14 1_555 1_555
C15 C16 1_555 1_555
C16 H17 1_555 1_555
C17 C16 1_555 1_555
H18 C17 1_555 1_555
C18 C17 1_555 1_555
C19 C18 1_555 1_555
H19 C19 1_555 1_555
H20 C19 1_555 1_555
H21 C19 1_555 1_555
C20 C18 1_555 1_555
H22 C20 1_555 1_555
C21 C15 1_555 1_555
H23 C21 1_555 1_555
N1 C1 1_555 1_555
O1 C6 1_555 1_555
O2 C6 1_555 1_555
O3 S1 1_555 1_555
O4 S1 1_555 1_555
S1 C15 1_555 1_555
C3 C4 1_555 1_555
C5 N1 1_555 1_555
C7 O2 1_555 1_555
C13 C14 1_555 1_555
C20 C21 1_555 1_555
N1 S1 1_555 1_555

#END
