
#######################################################################
#
#                 Cambridge Crystallographic Data Centre
#                                CCDC 
#
#######################################################################
#
# If this CIF has been generated from an entry in the Cambridge 
# Structural Database, then it will include bibliographic, chemical, 
# crystal, experimental, refinement or atomic coordinate data resulting 
# from the CCDC's data processing and validation procedures.
#
#######################################################################

data_RIYZOP
_chemical_formula_moiety         'C15 H14 N2 S2'
_chemical_name_systematic        'Benzyl 3-((E)-benzylidene)dithiocarbazate'
_symmetry_cell_setting           monoclinic
_symmetry_space_group_name_H-M   'P 21/n'
_symmetry_Int_Tables_number      14
_space_group_name_Hall           '-P 2yn'
loop_
_symmetry_equiv_pos_site_id
_symmetry_equiv_pos_as_xyz
1 x,y,z
2 1/2-x,1/2+y,1/2-z
3 -x,-y,-z
4 1/2+x,1/2-y,1/2+z
_cell_length_a                   5.0053(18)
_cell_length_b                   23.075(8)
_cell_length_c                   12.646(5)
_cell_angle_alpha                90
_cell_angle_beta                 97.652(12)
_cell_angle_gamma                90
_cell_volume                     1447.57
_exptl_crystal_colour            yellow
_exptl_crystal_description       prism
_cell_formula_units_Z            4
_exptl_crystal_recrystallization_method ethanol
loop_
_atom_site_label
_atom_site_type_symbol
_atom_site_fract_x
_atom_site_fract_y
_atom_site_fract_z
S1 S -0.16273(11) 0.58470(2) 0.94815(4)
S2 S 0.02011(10) 0.602875(18) 0.73176(4)
N1 N 0.3232(3) 0.50304(6) 0.78197(11)
N2 N 0.1740(3) 0.51871(6) 0.86146(11)
H1 H 0.1829 0.4979 0.9183
C1 C 0.6444(3) 0.43585(7) 0.72802(14)
C2 C 0.6602(4) 0.46157(8) 0.62992(16)
H2 H 0.5621 0.4951 0.6109
C3 C 0.8199(5) 0.43796(10) 0.56054(17)
H3 H 0.8285 0.4554 0.4948
C4 C 0.9663(4) 0.38875(10) 0.5882(2)
H4 H 1.0736 0.3728 0.5411
C5 C 0.9551(4) 0.36326(10) 0.68450(19)
H5 H 1.0555 0.3300 0.7029
C6 C 0.7955(4) 0.38637(8) 0.75514(17)
H6 H 0.7894 0.3687 0.8209
C7 C 0.4749(4) 0.45888(7) 0.80289(15)
H7 H 0.4769 0.4407 0.8687
C8 C 0.0160(3) 0.56550(7) 0.85190(13)
C9 C -0.2180(4) 0.66100(7) 0.74434(14)
H8 H -0.3989 0.6455 0.7419
H9 H -0.1716 0.6810 0.8117
C10 C -0.2041(4) 0.70207(7) 0.65275(14)
C11 C -0.3930(4) 0.69963(9) 0.56287(17)
H10 H -0.5313 0.6725 0.5594
C12 C -0.3804(5) 0.73660(11) 0.47831(19)
H11 H -0.5085 0.7340 0.4181
C13 C -0.1794(5) 0.77726(10) 0.4826(2)
H12 H -0.1727 0.8028 0.4261
C14 C 0.0112(5) 0.77991(9) 0.5708(2)
H13 H 0.1498 0.8069 0.5738
C15 C -0.0015(4) 0.74263(8) 0.65529(17)
H14 H 0.1288 0.7449 0.7149
loop_
_geom_bond_atom_site_label_1
_geom_bond_atom_site_label_2
_geom_bond_site_symmetry_1
_geom_bond_site_symmetry_2
S1 C8 1_555 1_555
S2 C8 1_555 1_555
N1 N2 1_555 1_555
N2 H1 1_555 1_555
C1 C2 1_555 1_555
C2 H2 1_555 1_555
C3 C2 1_555 1_555
H3 C3 1_555 1_555
C4 C3 1_555 1_555
H4 C4 1_555 1_555
C5 C4 1_555 1_555
H5 C5 1_555 1_555
C6 C1 1_555 1_555
H6 C6 1_555 1_555
C7 N1 1_555 1_555
H7 C7 1_555 1_555
C8 N2 1_555 1_555
C9 S2 1_555 1_555
H8 C9 1_555 1_555
H9 C9 1_555 1_555
C10 C9 1_555 1_555
C11 C10 1_555 1_555
H10 C11 1_555 1_555
C12 C11 1_555 1_555
H11 C12 1_555 1_555
C13 C12 1_555 1_555
H12 C13 1_555 1_555
C14 C13 1_555 1_555
H13 C14 1_555 1_555
C15 C10 1_555 1_555
H14 C15 1_555 1_555
C1 C7 1_555 1_555
C5 C6 1_555 1_555
C14 C15 1_555 1_555

#END
