
#######################################################################
#
#                 Cambridge Crystallographic Data Centre
#                                CCDC 
#
#######################################################################
#
# If this CIF has been generated from an entry in the Cambridge 
# Structural Database, then it will include bibliographic, chemical, 
# crystal, experimental, refinement or atomic coordinate data resulting 
# from the CCDC's data processing and validation procedures.
#
#######################################################################

data_RIZCIN
_chemical_compound_source        
'leaves of Dehaasia longipedicellata (Ridl.) Kosterm'
_chemical_formula_moiety         'C16 H14 O4'
_chemical_name_systematic        2,7-Dihydroxy-3,6-dimethoxyphenanthrene
_symmetry_cell_setting           monoclinic
_symmetry_space_group_name_H-M   'P 21/c'
_symmetry_Int_Tables_number      14
_space_group_name_Hall           '-P 2ybc'
loop_
_symmetry_equiv_pos_site_id
_symmetry_equiv_pos_as_xyz
1 x,y,z
2 -x,1/2+y,1/2-z
3 -x,-y,-z
4 x,1/2-y,1/2+z
_cell_length_a                   11.6268(2)
_cell_length_b                   7.2207(1)
_cell_length_c                   16.5351(2)
_cell_angle_alpha                90
_cell_angle_beta                 109.196(1)
_cell_angle_gamma                90
_cell_volume                     1311
_exptl_crystal_colour            'pale brown'
_exptl_crystal_description       prism
_cell_formula_units_Z            4
_exptl_crystal_recrystallization_method dichloromethane
loop_
_atom_site_label
_atom_site_type_symbol
_atom_site_fract_x
_atom_site_fract_y
_atom_site_fract_z
O1 O 0.71900(10) 0.23952(17) 0.51347(7)
O2 O 0.85160(11) 0.40262(19) 0.65922(8)
O3 O -0.02829(12) 0.2974(2) 0.54817(9)
O4 O 0.05316(11) 0.19182(19) 0.42576(8)
C1 C 0.47440(14) 0.3578(2) 0.60344(10)
C2 C 0.53118(14) 0.2890(2) 0.54541(10)
C3 C 0.65507(14) 0.3029(2) 0.56408(10)
C4 C 0.72887(14) 0.3887(2) 0.64087(10)
C5 C 0.67565(15) 0.4568(2) 0.69713(10)
C6 C 0.54872(14) 0.4405(2) 0.68039(10)
C7 C 0.49473(15) 0.5060(2) 0.74130(10)
C8 C 0.37442(15) 0.4861(2) 0.72813(10)
C9 C 0.29560(15) 0.4047(2) 0.65046(10)
C10 C 0.16910(16) 0.3874(2) 0.63624(11)
C11 C 0.09423(15) 0.3145(2) 0.56196(11)
C12 C 0.14106(15) 0.2572(2) 0.49676(11)
C13 C 0.26312(15) 0.2727(2) 0.50896(10)
C14 C 0.34417(14) 0.3444(2) 0.58698(10)
C15 C 0.64950(15) 0.1659(2) 0.43192(10)
C16 C 0.09098(17) 0.1296(3) 0.35617(11)
H1 H 0.870(2) 0.361(4) 0.6173(12)
H2 H -0.059(3) 0.257(4) 0.4974(10)
H3 H 0.4840(17) 0.236(3) 0.4925(9)
H4 H 0.7270(16) 0.513(3) 0.7485(9)
H5 H 0.5458(16) 0.571(3) 0.7897(10)
H6 H 0.3392(18) 0.525(3) 0.7698(11)
H7 H 0.1355(19) 0.429(3) 0.6789(11)
H8 H 0.2932(18) 0.230(3) 0.4656(10)
H9 H 0.7096(16) 0.132(3) 0.4069(14)
H10 H 0.5945(16) 0.259(2) 0.4015(12)
H11 H 0.6033(16) 0.058(2) 0.4361(13)
H12 H 0.0189(14) 0.090(3) 0.3123(11)
H13 H 0.1507(18) 0.034(3) 0.3737(15)
H14 H 0.128(2) 0.234(2) 0.3382(15)
loop_
_geom_bond_atom_site_label_1
_geom_bond_atom_site_label_2
_geom_bond_site_symmetry_1
_geom_bond_site_symmetry_2
O1 C3 1_555 1_555
O2 C4 1_555 1_555
O3 C11 1_555 1_555
O4 C12 1_555 1_555
C1 C2 1_555 1_555
C2 C3 1_555 1_555
C3 C4 1_555 1_555
C4 C5 1_555 1_555
C5 C6 1_555 1_555
C6 C1 1_555 1_555
C7 C6 1_555 1_555
C8 C7 1_555 1_555
C9 C8 1_555 1_555
C10 C9 1_555 1_555
C11 C10 1_555 1_555
C12 C11 1_555 1_555
C13 C12 1_555 1_555
C14 C1 1_555 1_555
C15 O1 1_555 1_555
C16 O4 1_555 1_555
H1 O2 1_555 1_555
H2 O3 1_555 1_555
H3 C2 1_555 1_555
H4 C5 1_555 1_555
H5 C7 1_555 1_555
H6 C8 1_555 1_555
H7 C10 1_555 1_555
H8 C13 1_555 1_555
H9 C15 1_555 1_555
H10 C15 1_555 1_555
H11 C15 1_555 1_555
H12 C16 1_555 1_555
H13 C16 1_555 1_555
H14 C16 1_555 1_555
C9 C14 1_555 1_555
C13 C14 1_555 1_555

#END
