
#######################################################################
#
#                 Cambridge Crystallographic Data Centre
#                                CCDC 
#
#######################################################################
#
# If this CIF has been generated from an entry in the Cambridge 
# Structural Database, then it will include bibliographic, chemical, 
# crystal, experimental, refinement or atomic coordinate data resulting 
# from the CCDC's data processing and validation procedures.
#
#######################################################################

data_RIZDOU
_chemical_formula_moiety         'C10 H16 N2 S1 2+,2(Br1 1-)'
_chemical_name_systematic        
'(S)-2-(Pyrrolidinium-2-ylmethylsulfanyl)pyridinium dibromide'
_symmetry_cell_setting           trigonal
_symmetry_space_group_name_H-M   'P 32'
_symmetry_Int_Tables_number      145
_space_group_name_Hall           'P 32'
loop_
_symmetry_equiv_pos_site_id
_symmetry_equiv_pos_as_xyz
1 x,y,z
2 -y,x-y,2/3+z
3 -x+y,-x,1/3+z
_cell_length_a                   8.9892(9)
_cell_length_b                   8.9892(9)
_cell_length_c                   15.4567(14)
_cell_angle_alpha                90
_cell_angle_beta                 90
_cell_angle_gamma                120
_cell_volume                     1081.66
_exptl_crystal_colour            colorless
_exptl_crystal_description       chunk
_cell_formula_units_Z            3
loop_
_atom_site_label
_atom_site_type_symbol
_atom_site_fract_x
_atom_site_fract_y
_atom_site_fract_z
Br1 Br 0.51453(17) 0.87503(13) 0.16904(9)
Br2 Br 0.10004(11) 0.14553(10) 0.04190(9)
S1 S 0.0678(3) 0.4733(3) 0.31433(12)
N1 N 0.4515(9) 0.5570(8) 0.2963(3)
N2 N 0.0359(7) 0.6865(8) 0.2110(3)
C1 C 0.3184(9) 0.4069(9) 0.2462(4)
C2 C 0.3905(11) 0.2858(11) 0.2388(5)
C3 C 0.5771(13) 0.4004(16) 0.2379(8)
C4 C 0.6121(14) 0.5513(18) 0.2933(7)
C5 C 0.1434(10) 0.3261(10) 0.2879(4)
C6 C 0.0388(9) 0.5412(9) 0.2143(4)
C7 C 0.0160(10) 0.4576(10) 0.1352(4)
C8 C -0.0040(10) 0.5283(11) 0.0612(4)
C9 C -0.0037(10) 0.6817(12) 0.0635(4)
C10 C 0.0138(10) 0.7576(11) 0.1396(4)
H1 H 0.3105 0.4460 0.1880
H2 H 0.4673 0.6511 0.2735
H3 H 0.4187 0.5509 0.3491
H4 H 0.0144 0.3534 0.1330
H5 H -0.0180 0.4724 0.0087
H6 H -0.0154 0.7310 0.0130
H7 H 0.0108 0.8593 0.1432
H8 H 0.3560 0.2085 0.2879
H9 H 0.3522 0.2195 0.1857
H10 H 0.6169 0.4377 0.1793
H11 H 0.6343 0.3421 0.2614
H12 H 0.6450 0.5369 0.3511
H13 H 0.7033 0.6564 0.2682
H14 H 0.1477 0.2708 0.3409
H15 H 0.0614 0.2403 0.2484
H16 H 0.0494 0.7403 0.2590
loop_
_geom_bond_atom_site_label_1
_geom_bond_atom_site_label_2
_geom_bond_site_symmetry_1
_geom_bond_site_symmetry_2
S1 C5 1_555 1_555
N1 C1 1_555 1_555
N2 C6 1_555 1_555
C1 C2 1_555 1_555
C2 C3 1_555 1_555
C3 C4 1_555 1_555
C4 N1 1_555 1_555
C5 C1 1_555 1_555
C6 S1 1_555 1_555
C7 C6 1_555 1_555
C8 C7 1_555 1_555
C9 C8 1_555 1_555
C10 N2 1_555 1_555
H1 C1 1_555 1_555
H2 N1 1_555 1_555
H3 N1 1_555 1_555
H4 C7 1_555 1_555
H5 C8 1_555 1_555
H6 C9 1_555 1_555
H7 C10 1_555 1_555
H8 C2 1_555 1_555
H9 C2 1_555 1_555
H10 C3 1_555 1_555
H11 C3 1_555 1_555
H12 C4 1_555 1_555
H13 C4 1_555 1_555
H14 C5 1_555 1_555
H15 C5 1_555 1_555
H16 N2 1_555 1_555
C9 C10 1_555 1_555

#END
