
#######################################################################
#
#                 Cambridge Crystallographic Data Centre
#                                CCDC 
#
#######################################################################
#
# If this CIF has been generated from an entry in the Cambridge 
# Structural Database, then it will include bibliographic, chemical, 
# crystal, experimental, refinement or atomic coordinate data resulting 
# from the CCDC's data processing and validation procedures.
#
#######################################################################

data_RIZDEJ
_chemical_formula_moiety         'C10 H10 N2 O1 S3'
_chemical_name_systematic        
3-(4-Methoxyphenyl)-6-methylthio-1,4,2,5-dithiadiazine
_symmetry_cell_setting           monoclinic
_symmetry_space_group_name_H-M   'P 21'
_symmetry_Int_Tables_number      4
_space_group_name_Hall           'P 2yb'
loop_
_symmetry_equiv_pos_site_id
_symmetry_equiv_pos_as_xyz
1 x,y,z
2 -x,1/2+y,-z
_cell_length_a                   4.0140(5)
_cell_length_b                   7.396(1)
_cell_length_c                   20.085(3)
_cell_angle_alpha                90
_cell_angle_beta                 94.571(2)
_cell_angle_gamma                90
_cell_volume                     594.378
_exptl_crystal_colour            yellow
_chemical_melting_point          356-358K
_cell_formula_units_Z            2
loop_
_atom_site_label
_atom_site_type_symbol
_atom_site_fract_x
_atom_site_fract_y
_atom_site_fract_z
S1 S 0.6676(4) 0.7419(2) 0.70045(8)
N1 N 0.5231(13) 0.5959(8) 0.7575(2)
C1 C 0.4983(14) 0.4277(9) 0.7424(3)
S2 S 0.5633(4) 0.3418(2) 0.66251(7)
N2 N 0.3931(13) 0.5048(8) 0.6099(2)
C2 C 0.4520(14) 0.6704(9) 0.6257(3)
S3 S 0.2904(4) 0.8495(2) 0.57660(7)
C3 C 0.1172(17) 0.7332(10) 0.5030(3)
H1 H 0.024(11) 0.8193(11) 0.4709(11)
H2 H -0.0549(91) 0.6518(52) 0.5149(5)
H3 H 0.2905(32) 0.6658(56) 0.4838(15)
C4 C 0.4113(13) 0.2947(8) 0.7932(3)
C5 C 0.4883(15) 0.3287(9) 0.8601(3)
H4 H 0.5897(15) 0.4375(9) 0.8732(3)
C6 C 0.4155(16) 0.2082(10) 0.9087(3)
H5 H 0.4744(16) 0.2326(10) 0.9535(3)
C7 C 0.2566(15) 0.0449(9) 0.8908(3)
C8 C 0.1763(16) 0.0091(9) 0.8239(3)
H6 H 0.0660(16) -0.0983(9) 0.8122(3)
C9 C 0.2541(17) 0.1318(8) 0.7758(3)
H7 H 0.1987(17) 0.1024(8) 0.7312(3)
O1 O 0.1916(12) -0.0674(7) 0.9420(2)
C10 C 0.0302(18) -0.2350(11) 0.9247(4)
H8 H 0.015(11) -0.3059(29) 0.9642(5)
H9 H 0.1571(64) -0.2996(30) 0.8940(19)
H10 H -0.1892(46) -0.2119(12) 0.9042(21)
loop_
_geom_bond_atom_site_label_1
_geom_bond_atom_site_label_2
_geom_bond_site_symmetry_1
_geom_bond_site_symmetry_2
S1 N1 1_555 1_555
N1 C1 1_555 1_555
C1 S2 1_555 1_555
S2 N2 1_555 1_555
N2 C2 1_555 1_555
C2 S1 1_555 1_555
S3 C2 1_555 1_555
C3 S3 1_555 1_555
H1 C3 1_555 1_555
H2 C3 1_555 1_555
H3 C3 1_555 1_555
C4 C1 1_555 1_555
C5 C4 1_555 1_555
H4 C5 1_555 1_555
C6 C5 1_555 1_555
H5 C6 1_555 1_555
C7 C6 1_555 1_555
C8 C7 1_555 1_555
H6 C8 1_555 1_555
C9 C4 1_555 1_555
H7 C9 1_555 1_555
O1 C7 1_555 1_555
C10 O1 1_555 1_555
H8 C10 1_555 1_555
H9 C10 1_555 1_555
H10 C10 1_555 1_555
C8 C9 1_555 1_555

#END
