
#######################################################################
#
#                 Cambridge Crystallographic Data Centre
#                                CCDC 
#
#######################################################################
#
# If this CIF has been generated from an entry in the Cambridge 
# Structural Database, then it will include bibliographic, chemical, 
# crystal, experimental, refinement or atomic coordinate data resulting 
# from the CCDC's data processing and validation procedures.
#
#######################################################################

data_RIZFEN
_chemical_formula_moiety         'C18 H21 N3 O1'
_chemical_name_systematic        
(5R*,6aR*,10aR*)-1-Phenyl-5-vinyl-6,6a,7,8,9,10-hexahydro[1,2,3]triazolo[5,1-a]isoquinolin-10a(5H)-ol
_symmetry_cell_setting           orthorhombic
_symmetry_space_group_name_H-M   'P b c a'
_symmetry_Int_Tables_number      61
_space_group_name_Hall           '-P 2ac 2ab'
loop_
_symmetry_equiv_pos_site_id
_symmetry_equiv_pos_as_xyz
1 x,y,z
2 1/2-x,-y,1/2+z
3 -x,1/2+y,1/2-z
4 1/2+x,1/2-y,-z
5 -x,-y,-z
6 1/2+x,y,1/2-z
7 x,1/2-y,1/2+z
8 1/2-x,1/2+y,z
_cell_length_a                   15.5492(8)
_cell_length_b                   10.0774(5)
_cell_length_c                   19.0625(10)
_cell_angle_alpha                90
_cell_angle_beta                 90
_cell_angle_gamma                90
_cell_volume                     2987.01
_exptl_crystal_colour            colorless
_exptl_crystal_description       Plate
_chemical_melting_point          '227-229 deg.C'
_cell_formula_units_Z            8
loop_
_atom_site_label
_atom_site_type_symbol
_atom_site_fract_x
_atom_site_fract_y
_atom_site_fract_z
O1 O 0.15921(5) 0.17681(8) 0.20745(4)
H1 H 0.1080(11) 0.1537(16) 0.2242(8)
N1 N 0.10468(5) 0.44259(9) 0.30587(5)
N2 N 0.03811(6) 0.52298(9) 0.31919(5)
N3 N -0.00803(6) 0.52879(9) 0.26144(5)
C1 C 0.15048(8) 0.43585(13) 0.49053(6)
H2 H 0.1991(11) 0.4981(17) 0.4936(8)
H3 H 0.1212(10) 0.4110(15) 0.5347(8)
C2 C 0.12625(7) 0.38833(11) 0.42926(6)
H4 H 0.0780(9) 0.3259(15) 0.4259(7)
C3 C 0.17024(7) 0.42046(11) 0.36097(6)
H5 H 0.2016(8) 0.5041(13) 0.3656(6)
C4 C 0.23175(7) 0.31237(11) 0.33482(6)
H6 H 0.2047(8) 0.2218(14) 0.3394(6)
H7 H 0.2828(9) 0.3127(14) 0.3659(7)
C5 C 0.25664(7) 0.33796(11) 0.25841(5)
H8 H 0.2730(8) 0.4330(13) 0.2541(6)
C6 C 0.33221(7) 0.25372(12) 0.23293(6)
H9 H 0.3155(8) 0.1571(14) 0.2360(7)
H10 H 0.3817(9) 0.2697(14) 0.2642(7)
C7 C 0.35606(7) 0.28932(12) 0.15721(6)
H11 H 0.3781(9) 0.3815(15) 0.1559(7)
H12 H 0.4037(9) 0.2288(14) 0.1400(7)
C8 C 0.27817(7) 0.27818(11) 0.10867(6)
H13 H 0.2594(8) 0.1838(13) 0.1057(6)
H14 H 0.2932(8) 0.3075(13) 0.0593(7)
C9 C 0.20233(7) 0.36062(11) 0.13567(6)
H15 H 0.1526(9) 0.3517(13) 0.1034(7)
H16 H 0.2186(8) 0.4574(14) 0.1375(7)
C10 C 0.17777(6) 0.31590(10) 0.21009(5)
C11 C 0.10328(6) 0.39586(10) 0.23870(5)
C12 C 0.02878(6) 0.45090(10) 0.21089(5)
C13 C -0.01446(6) 0.43624(11) 0.14238(5)
C14 C -0.01383(7) 0.31629(11) 0.10555(6)
H17 H 0.0151(8) 0.2400(14) 0.1248(7)
C15 C -0.05779(7) 0.30479(12) 0.04230(6)
H18 H -0.0576(9) 0.2201(14) 0.0180(7)
C16 C -0.10294(7) 0.41216(12) 0.01522(6)
H19 H -0.1333(9) 0.4045(13) -0.0299(7)
C17 C -0.10510(7) 0.53098(12) 0.05210(6)
H20 H -0.1369(9) 0.6082(14) 0.0335(7)
C18 C -0.06105(7) 0.54290(11) 0.11523(6)
H21 H -0.0610(8) 0.6274(14) 0.1411(7)
loop_
_geom_bond_atom_site_label_1
_geom_bond_atom_site_label_2
_geom_bond_site_symmetry_1
_geom_bond_site_symmetry_2
O1 H1 1_555 1_555
N1 N2 1_555 1_555
N2 N3 1_555 1_555
N3 C12 1_555 1_555
C1 H2 1_555 1_555
H3 C1 1_555 1_555
C2 C1 1_555 1_555
H4 C2 1_555 1_555
C3 N1 1_555 1_555
H5 C3 1_555 1_555
C4 C3 1_555 1_555
H6 C4 1_555 1_555
H7 C4 1_555 1_555
C5 C4 1_555 1_555
H8 C5 1_555 1_555
C6 C5 1_555 1_555
H9 C6 1_555 1_555
H10 C6 1_555 1_555
C7 C6 1_555 1_555
H11 C7 1_555 1_555
H12 C7 1_555 1_555
C8 C7 1_555 1_555
H13 C8 1_555 1_555
H14 C8 1_555 1_555
C9 C8 1_555 1_555
H15 C9 1_555 1_555
H16 C9 1_555 1_555
C10 O1 1_555 1_555
C11 N1 1_555 1_555
C12 C11 1_555 1_555
C13 C12 1_555 1_555
C14 C13 1_555 1_555
H17 C14 1_555 1_555
C15 C14 1_555 1_555
H18 C15 1_555 1_555
C16 C15 1_555 1_555
H19 C16 1_555 1_555
C17 C16 1_555 1_555
H20 C17 1_555 1_555
C18 C13 1_555 1_555
H21 C18 1_555 1_555
C2 C3 1_555 1_555
C5 C10 1_555 1_555
C9 C10 1_555 1_555
C10 C11 1_555 1_555
C17 C18 1_555 1_555

#END
