
#######################################################################
#
#                 Cambridge Crystallographic Data Centre
#                                CCDC 
#
#######################################################################
#
# If this CIF has been generated from an entry in the Cambridge 
# Structural Database, then it will include bibliographic, chemical, 
# crystal, experimental, refinement or atomic coordinate data resulting 
# from the CCDC's data processing and validation procedures.
#
#######################################################################

data_RIZGUD
_chemical_formula_moiety         'C12 H10 N4 O5'
_chemical_name_systematic        
'(E)-2-Furyl methyl ketone 2,4-dinitrophenylhydrazone'
_symmetry_cell_setting           monoclinic
_symmetry_space_group_name_H-M   'P 21/c'
_symmetry_Int_Tables_number      14
_space_group_name_Hall           '-P 2ybc'
loop_
_symmetry_equiv_pos_site_id
_symmetry_equiv_pos_as_xyz
1 x,y,z
2 -x,1/2+y,1/2-z
3 -x,-y,-z
4 x,1/2-y,1/2+z
_cell_length_a                   9.8917(8)
_cell_length_b                   12.8477(15)
_cell_length_c                   10.6549(12)
_cell_angle_alpha                90
_cell_angle_beta                 111.63(2)
_cell_angle_gamma                90
_cell_volume                     1258.73
_exptl_crystal_colour            brown
_exptl_crystal_description       prism
_cell_formula_units_Z            4
_exptl_crystal_recrystallization_method ethanol
loop_
_atom_site_label
_atom_site_type_symbol
_atom_site_fract_x
_atom_site_fract_y
_atom_site_fract_z
O1 O 0.13582(13) 0.43547(8) 0.14104(11)
O2 O 0.15573(13) 0.27996(8) 0.22020(12)
O3 O 0.44159(13) 0.19704(8) 0.66737(13)
O4 O 0.52296(15) 0.31707(10) 0.81753(13)
O5 O 0.09817(11) 0.93990(8) 0.18361(12)
N1 N 0.17859(13) 0.37357(9) 0.23615(12)
N2 N 0.45693(14) 0.28930(10) 0.70150(14)
N3 N 0.21841(13) 0.59367(8) 0.30483(12)
H1 H 0.1757 0.5753 0.2219
N4 N 0.22992(13) 0.69747(8) 0.33900(12)
C1 C 0.27421(13) 0.52042(9) 0.40146(14)
C2 C 0.25858(14) 0.41229(10) 0.37100(14)
C3 C 0.31897(14) 0.33809(10) 0.46968(15)
H2 H 0.3085 0.2677 0.4478
C4 C 0.39417(14) 0.36870(10) 0.59975(15)
C5 C 0.40955(15) 0.47424(11) 0.63469(15)
H3 H 0.4597 0.4940 0.7238
C6 C 0.35072(14) 0.54818(10) 0.53751(14)
H4 H 0.3613 0.6182 0.5615
C7 C 0.16518(14) 0.76093(10) 0.24031(14)
C8 C 0.18273(16) 0.87045(10) 0.27796(16)
C9 C 0.26625(19) 0.92158(12) 0.38905(18)
H5 H 0.3329 0.8926 0.4674
C10 C 0.2326(2) 1.02927(13) 0.3632(2)
H6 H 0.2734 1.0842 0.4218
C11 C 0.1335(2) 1.03623(12) 0.2414(2)
H7 H 0.0926 1.0983 0.1997
C12 C 0.07984(19) 0.73130(12) 0.09826(17)
H8 H 0.1447 0.7073 0.0560
H9 H 0.0268 0.7907 0.0502
H10 H 0.0130 0.6767 0.0968
loop_
_geom_bond_atom_site_label_1
_geom_bond_atom_site_label_2
_geom_bond_site_symmetry_1
_geom_bond_site_symmetry_2
O1 N1 1_555 1_555
O2 N1 1_555 1_555
O3 N2 1_555 1_555
O4 N2 1_555 1_555
O5 C8 1_555 1_555
N1 C2 1_555 1_555
N2 C4 1_555 1_555
N3 H1 1_555 1_555
N4 N3 1_555 1_555
C1 N3 1_555 1_555
C2 C1 1_555 1_555
C3 C2 1_555 1_555
H2 C3 1_555 1_555
C4 C3 1_555 1_555
C5 C4 1_555 1_555
H3 C5 1_555 1_555
C6 C1 1_555 1_555
H4 C6 1_555 1_555
C7 N4 1_555 1_555
C8 C7 1_555 1_555
C9 C8 1_555 1_555
H5 C9 1_555 1_555
C10 C9 1_555 1_555
H6 C10 1_555 1_555
C11 O5 1_555 1_555
H7 C11 1_555 1_555
C12 C7 1_555 1_555
H8 C12 1_555 1_555
H9 C12 1_555 1_555
H10 C12 1_555 1_555
C5 C6 1_555 1_555
C10 C11 1_555 1_555

#END
