
#######################################################################
#
#                 Cambridge Crystallographic Data Centre
#                                CCDC 
#
#######################################################################
#
# If this CIF has been generated from an entry in the Cambridge 
# Structural Database, then it will include bibliographic, chemical, 
# crystal, experimental, refinement or atomic coordinate data resulting 
# from the CCDC's data processing and validation procedures.
#
#######################################################################

data_RIZHUD
_chemical_formula_moiety         'C40 H62 Li2 N10 O2 P2'
_chemical_name_systematic        
bis((\m~2~-Hexamethylphosphoramide)-(N,N'-diphenylacetamidine)-lithium)
_symmetry_cell_setting           monoclinic
_symmetry_space_group_name_H-M   'P 21/n'
_symmetry_Int_Tables_number      14
_space_group_name_Hall           '-P 2yn'
loop_
_symmetry_equiv_pos_site_id
_symmetry_equiv_pos_as_xyz
1 x,y,z
2 1/2-x,1/2+y,1/2-z
3 -x,-y,-z
4 1/2+x,1/2-y,1/2+z
_cell_length_a                   11.610(2)
_cell_length_b                   11.428(2)
_cell_length_c                   34.893(7)
_cell_angle_alpha                90
_cell_angle_beta                 98.47(3)
_cell_angle_gamma                90
_cell_volume                     4579.08
_exptl_crystal_colour            'pale yellow'
_chemical_melting_point          134-137deg.C
_cell_formula_units_Z            4
_chemical_properties_physical    Air-sensitive
loop_
_atom_site_label
_atom_site_type_symbol
_atom_site_fract_x
_atom_site_fract_y
_atom_site_fract_z
Li1 Li 0.8294(11) 0.6974(10) 0.0810(3)
Li2 Li 0.9279(12) 0.5879(11) 0.1437(4)
N1 N 0.7030(5) 0.8219(5) 0.0721(2)
N2 N 0.7854(5) 0.7463(5) 0.0240(2)
C1 C 0.7181(6) 0.8294(6) 0.0354(2)
C2 C 0.6774(8) 0.9343(6) 0.0100(2)
C3 C 0.6359(7) 0.8990(6) 0.0904(2)
C4 C 0.5253(7) 0.9390(6) 0.0753(2)
C5 C 0.4618(7) 1.0100(7) 0.0965(2)
C6 C 0.5061(8) 1.0405(8) 0.1337(3)
C7 C 0.6134(9) 1.0009(8) 0.1493(2)
C8 C 0.6780(8) 0.9313(8) 0.1285(2)
C9 C 0.8090(7) 0.7330(6) -0.0138(2)
C10 C 0.9186(7) 0.6965(8) -0.0197(2)
C11 C 0.9473(9) 0.6745(9) -0.0556(3)
C12 C 0.8665(10) 0.6891(8) -0.0879(2)
C13 C 0.7579(9) 0.7233(8) -0.0834(2)
C14 C 0.7288(8) 0.7450(7) -0.0471(2)
N3 N 0.8829(6) 0.5740(6) 0.1975(2)
N4 N 1.0486(6) 0.4977(6) 0.1829(2)
C15 C 0.9833(7) 0.5203(7) 0.2097(2)
C16 C 1.0272(7) 0.4973(8) 0.2520(2)
C17 C 0.7920(7) 0.5866(8) 0.2194(2)
C18 C 0.7550(9) 0.4997(10) 0.2418(3)
C23 C 1.1557(8) 0.4392(8) 0.1915(2)
C24 C 1.1611(9) 0.3212(8) 0.1995(3)
C25 C 1.2672(10) 0.2629(10) 0.2051(3)
C26 C 1.3676(10) 0.3189(11) 0.2031(3)
C27 C 1.3640(9) 0.4344(11) 0.1950(3)
C28 C 1.2592(8) 0.4941(9) 0.1891(3)
C29 C 0.6712(33) 0.5035(32) 0.2647(12)
C30 C 0.6110(35) 0.6054(33) 0.2660(14)
C31 C 0.6511(39) 0.7011(29) 0.2492(15)
C32 C 0.7426(40) 0.6954(20) 0.2275(15)
O1 O 0.8144(4) 0.5387(4) 0.09982(13)
P1 P 0.7204(2) 0.4493(2) 0.09443(6)
N5 N 0.7331(7) 0.3489(7) 0.1282(2)
C33 C 0.8423(9) 0.2878(9) 0.1379(3)
C34 C 0.6463(13) 0.3294(12) 0.1536(4)
N6 N 0.5930(6) 0.5052(7) 0.0965(2)
C35 C 0.5762(10) 0.5998(10) 0.1230(4)
C36 C 0.5175(21) 0.5337(30) 0.0576(7)
N7 N 0.7193(8) 0.3826(7) 0.0542(2)
C37 C 0.7449(10) 0.4435(9) 0.0193(3)
C38 C 0.6779(13) 0.2588(10) 0.0483(4)
O2 O 0.9662(4) 0.7315(4) 0.11743(13)
P2 P 1.0724(2) 0.8036(2) 0.11634(6)
N8 N 1.0560(7) 0.9232(6) 0.0932(3)
C40 C 1.0535(29) 1.0280(14) 0.1275(7)
C41 C 0.9947(26) 0.9612(26) 0.0603(7)
N9 N 1.1501(10) 0.7393(10) 0.0851(3)
C42 C 1.2301(17) 0.8039(15) 0.0640(6)
C43 C 1.1634(10) 0.6149(7) 0.0872(3)
N10 N 1.1540(11) 0.8022(13) 0.1580(3)
C44 C 1.2781(13) 0.8336(22) 0.1639(6)
C45 C 1.0943(11) 0.8133(11) 0.1939(2)
H1 H 0.6013(21) 0.9180(19) -0.0045(12)
H2 H 0.7325(25) 0.9493(29) -0.0078(11)
H3 H 0.6725(45) 1.0025(12) 0.0263(2)
H4 H 0.4929(7) 0.9173(6) 0.0500(2)
H5 H 0.3880(7) 1.0374(7) 0.0854(2)
H6 H 0.4630(8) 1.0884(8) 0.1482(3)
H7 H 0.6438(9) 1.0215(8) 0.1749(2)
H8 H 0.7518(8) 0.9050(8) 0.1400(2)
H9 H 0.9760(7) 0.6862(8) 0.0021(2)
H10 H 1.0229(9) 0.6493(9) -0.0581(3)
H11 H 0.8860(10) 0.6756(8) -0.1128(2)
H12 H 0.7011(9) 0.7326(8) -0.1053(2)
H13 H 0.6525(8) 0.7686(7) -0.0450(2)
H14 H 1.0132(45) 0.4161(15) 0.2580(4)
H15 H 0.9865(36) 0.5476(36) 0.2679(2)
H16 H 1.1101(12) 0.5133(49) 0.2572(4)
H22 H 1.0922(9) 0.2796(8) 0.2011(3)
H23 H 1.2687(10) 0.1822(10) 0.2105(3)
H24 H 1.4390(10) 0.2786(11) 0.2073(3)
H25 H 1.4336(9) 0.4749(11) 0.1934(3)
H26 H 1.2591(8) 0.5745(9) 0.1833(3)
H27 H 0.7932(33) 0.4274(32) 0.2410(12)
H28 H 0.6550(33) 0.4381(32) 0.2794(12)
H29 H 0.5440(35) 0.6093(33) 0.2782(14)
H30 H 0.6158(39) 0.7739(29) 0.2522(15)
H31 H 0.7719(40) 0.7648(20) 0.2182(15)
H32 H 0.8931(9) 0.3072(9) 0.1191(3)
H33 H 0.8282(9) 0.2041(9) 0.1375(3)
H34 H 0.8788(9) 0.3111(9) 0.1636(3)
H35 H 0.5769(13) 0.3745(12) 0.1444(4)
H36 H 0.6773(13) 0.3539(12) 0.1797(4)
H37 H 0.6267(13) 0.2469(12) 0.1536(4)
H38 H 0.4944(10) 0.6208(10) 0.1198(4)
H39 H 0.6216(10) 0.6672(10) 0.1173(4)
H40 H 0.6013(10) 0.5746(10) 0.1494(4)
H41 H 0.5263(21) 0.4723(30) 0.0390(7)
H42 H 0.5421(21) 0.6078(30) 0.0479(7)
H43 H 0.4365(21) 0.5390(30) 0.0613(7)
H44 H 0.7709(10) 0.5225(9) 0.0261(3)
H45 H 0.6751(10) 0.4463(9) 0.0003(3)
H46 H 0.8056(10) 0.4018(9) 0.0086(3)
H47 H 0.6634(13) 0.2264(10) 0.0729(4)
H48 H 0.7370(13) 0.2126(10) 0.0383(4)
H53 H 1.0980(29) 1.0018(14) 0.1517(7)
H54 H 0.9736(29) 1.0427(14) 0.1313(7)
H55 H 1.0874(29) 1.0995(14) 0.1191(7)
H56 H 0.9951(26) 0.9021(26) 0.0404(7)
H57 H 1.0291(26) 1.0327(26) 0.0523(7)
H58 H 0.9151(26) 0.9763(26) 0.0643(7)
H59 H 1.2127(17) 0.8869(15) 0.0646(6)
H60 H 1.2207(17) 0.7771(15) 0.0373(6)
H61 H 1.3096(17) 0.7905(15) 0.0761(6)
H62 H 1.1062(10) 0.5822(7) 0.1018(3)
H63 H 1.2411(10) 0.5958(7) 0.1000(3)
H64 H 1.1521(10) 0.5825(7) 0.0613(3)
H65 H 1.3091(13) 0.8241(22) 0.1397(6)
H66 H 1.3201(13) 0.7831(22) 0.1835(6)
H67 H 1.2869(13) 0.9145(22) 0.1723(6)
H68 H 1.0131(11) 0.7910(11) 0.1874(2)
H69 H 1.0992(11) 0.8937(11) 0.2029(2)
H70 H 1.1324(11) 0.7624(11) 0.2141(2)
C19? C 0.6508(23) 0.5163(26) 0.2570(9)
C20? C 0.5903(23) 0.6165(26) 0.2502(11)
C21? C 0.6171(19) 0.6976(18) 0.2241(12)
C22? C 0.7184(18) 0.6801(15) 0.2083(10)
C39? C 0.4862(20) 0.4269(29) 0.0868(12)
C46? C 0.9517(21) 0.9878(26) 0.0802(9)
C47? C 1.1119(28) 0.9121(22) 0.0525(6)
N11? N 1.1799(11) 0.7308(12) 0.1125(5)
C48? C 1.2994(14) 0.7657(20) 0.1247(10)
N12? N 1.0917(14) 0.8827(12) 0.1578(4)
C49? C 1.1442(29) 0.9984(17) 0.1579(7)
H17? H 0.7983(9) 0.4305(10) 0.2468(3)
H18? H 0.6233(23) 0.4572(26) 0.2721(9)
H19? H 0.5276(23) 0.6311(26) 0.2638(11)
H20? H 0.5688(19) 0.7626(18) 0.2172(12)
H21? H 0.7377(18) 0.7328(15) 0.1896(10)
H49? H 0.6066(13) 0.2572(10) 0.0300(4)
H50? H 0.5027(20) 0.3657(29) 0.0691(12)
H51? H 0.4209(20) 0.4733(29) 0.0747(12)
H52? H 0.4672(20) 0.3918(29) 0.1104(12)
H71? H 0.9093(21) 1.0007(26) 0.1018(9)
H72? H 0.9034(21) 0.9438(26) 0.0601(9)
H73? H 0.9719(21) 1.0626(26) 0.0698(9)
H74? H 1.1846(28) 0.8691(22) 0.0572(6)
H75? H 1.1262(28) 0.9898(22) 0.0430(6)
H76? H 1.0576(28) 0.8711(22) 0.0333(6)
H77? H 1.3011(14) 0.8369(20) 0.1399(10)
H78? H 1.3369(14) 0.7795(20) 0.1020(10)
H79? H 1.3403(14) 0.7041(20) 0.1402(10)
H80? H 1.0810(14) 0.5983(12) 0.0804(4)
H81? H 1.2012(14) 0.5501(12) 0.1020(4)
H82? H 1.1980(14) 0.6256(12) 0.0638(4)
H83? H 1.1337(29) 1.0294(17) 0.1318(7)
H84? H 1.2267(29) 0.9929(17) 0.1676(7)
H85? H 1.1072(29) 1.0501(17) 0.0175(7)
H86? H 1.0550(11) 0.7392(11) 0.1878(2)
H87? H 1.0550(11) 0.8564(11) 0.2121(2)
H88? H 1.1745(11) 0.7990(11) 0.2052(2)
loop_
_geom_bond_atom_site_label_1
_geom_bond_atom_site_label_2
_geom_bond_site_symmetry_1
_geom_bond_site_symmetry_2
Li1 N1 1_555 1_555
Li2 N3 1_555 1_555
N1 C1 1_555 1_555
N2 Li1 1_555 1_555
C1 N2 1_555 1_555
C2 C1 1_555 1_555
C3 N1 1_555 1_555
C4 C3 1_555 1_555
C5 C4 1_555 1_555
C6 C5 1_555 1_555
C7 C6 1_555 1_555
C8 C3 1_555 1_555
C9 N2 1_555 1_555
C10 C9 1_555 1_555
C11 C10 1_555 1_555
C12 C11 1_555 1_555
C13 C12 1_555 1_555
C14 C9 1_555 1_555
N3 C15 1_555 1_555
N4 Li2 1_555 1_555
C15 N4 1_555 1_555
C16 C15 1_555 1_555
C17 N3 1_555 1_555
C18 C17 1_555 1_555
C23 N4 1_555 1_555
C24 C23 1_555 1_555
C25 C24 1_555 1_555
C26 C25 1_555 1_555
C27 C26 1_555 1_555
C28 C23 1_555 1_555
C29 C18 1_555 1_555
C30 C29 1_555 1_555
C31 C30 1_555 1_555
C32 C17 1_555 1_555
O1 Li1 1_555 1_555
P1 O1 1_555 1_555
N5 P1 1_555 1_555
C33 N5 1_555 1_555
C34 N5 1_555 1_555
N6 P1 1_555 1_555
C35 N6 1_555 1_555
C36 N6 1_555 1_555
N7 P1 1_555 1_555
C37 N7 1_555 1_555
C38 N7 1_555 1_555
O2 Li1 1_555 1_555
P2 O2 1_555 1_555
N8 P2 1_555 1_555
C40 N8 1_555 1_555
C41 N8 1_555 1_555
N9 P2 1_555 1_555
C42 N9 1_555 1_555
C43 N9 1_555 1_555
N10 P2 1_555 1_555
C44 N10 1_555 1_555
C45 N10 1_555 1_555
H1 C2 1_555 1_555
H2 C2 1_555 1_555
H3 C2 1_555 1_555
H4 C4 1_555 1_555
H5 C5 1_555 1_555
H6 C6 1_555 1_555
H7 C7 1_555 1_555
H8 C8 1_555 1_555
H9 C10 1_555 1_555
H10 C11 1_555 1_555
H11 C12 1_555 1_555
H12 C13 1_555 1_555
H13 C14 1_555 1_555
H14 C16 1_555 1_555
H15 C16 1_555 1_555
H16 C16 1_555 1_555
H22 C24 1_555 1_555
H23 C25 1_555 1_555
H24 C26 1_555 1_555
H25 C27 1_555 1_555
H26 C28 1_555 1_555
H27 C18 1_555 1_555
H28 C29 1_555 1_555
H29 C30 1_555 1_555
H30 C31 1_555 1_555
H31 C32 1_555 1_555
H32 C33 1_555 1_555
H33 C33 1_555 1_555
H34 C33 1_555 1_555
H35 C34 1_555 1_555
H36 C34 1_555 1_555
H37 C34 1_555 1_555
H38 C35 1_555 1_555
H39 C35 1_555 1_555
H40 C35 1_555 1_555
H41 C36 1_555 1_555
H42 C36 1_555 1_555
H43 C36 1_555 1_555
H44 C37 1_555 1_555
H45 C37 1_555 1_555
H46 C37 1_555 1_555
H47 C38 1_555 1_555
H48 C38 1_555 1_555
H53 C40 1_555 1_555
H54 C40 1_555 1_555
H55 C40 1_555 1_555
H56 C41 1_555 1_555
H57 C41 1_555 1_555
H58 C41 1_555 1_555
H59 C42 1_555 1_555
H60 C42 1_555 1_555
H61 C42 1_555 1_555
H62 C43 1_555 1_555
H63 C43 1_555 1_555
H64 C43 1_555 1_555
H65 C44 1_555 1_555
H66 C44 1_555 1_555
H67 C44 1_555 1_555
H68 C45 1_555 1_555
H69 C45 1_555 1_555
H70 C45 1_555 1_555
Li2 O1 1_555 1_555
Li2 O2 1_555 1_555
C7 C8 1_555 1_555
C13 C14 1_555 1_555
C27 C28 1_555 1_555
C31 C32 1_555 1_555

#END
