
#######################################################################
#
#                 Cambridge Crystallographic Data Centre
#                                CCDC 
#
#######################################################################
#
# If this CIF has been generated from an entry in the Cambridge 
# Structural Database, then it will include bibliographic, chemical, 
# crystal, experimental, refinement or atomic coordinate data resulting 
# from the CCDC's data processing and validation procedures.
#
#######################################################################

data_RIZHIS
_chemical_formula_moiety         'C11 H9 N5 O4 S1'
_chemical_name_systematic        
'(E)-Methyl 1,3-thiazol-2-yl ketone 2,4-dinitrophenylhydrazone'
_symmetry_cell_setting           monoclinic
_symmetry_space_group_name_H-M   'P 21/c'
_symmetry_Int_Tables_number      14
_space_group_name_Hall           '-P 2ybc'
loop_
_symmetry_equiv_pos_site_id
_symmetry_equiv_pos_as_xyz
1 x,y,z
2 -x,1/2+y,1/2-z
3 -x,-y,-z
4 x,1/2-y,1/2+z
_cell_length_a                   8.0126(5)
_cell_length_b                   7.3239(4)
_cell_length_c                   21.8683(12)
_cell_angle_alpha                90
_cell_angle_beta                 92.610(2)
_cell_angle_gamma                90
_cell_volume                     1281.98
_exptl_crystal_colour            orange
_exptl_crystal_description       prism
_cell_formula_units_Z            4
_exptl_crystal_recrystallization_method ethanol
loop_
_atom_site_label
_atom_site_type_symbol
_atom_site_fract_x
_atom_site_fract_y
_atom_site_fract_z
S1 S 0.18922(7) 0.17161(8) 0.69372(2)
N1 N 0.3851(2) 0.1710(2) 0.39844(7)
N2 N 0.9262(2) 0.3699(2) 0.33512(8)
N3 N 0.49462(19) 0.2538(2) 0.52598(6)
H1 H 0.3946 0.2130 0.5201
N4 N 0.5583(2) 0.2973(2) 0.58348(7)
N5 N 0.20975(19) 0.1562(2) 0.57733(7)
O1 O 0.28243(18) 0.1495(2) 0.43763(7)
O2 O 0.35547(19) 0.1322(2) 0.34454(7)
O3 O 0.8766(2) 0.3374(3) 0.28262(7)
O4 O 1.0639(2) 0.4328(2) 0.34849(8)
C1 C 0.5967(2) 0.2783(2) 0.47889(8)
C2 C 0.5482(2) 0.2422(2) 0.41680(8)
C3 C 0.6570(2) 0.2710(2) 0.37046(8)
H2 H 0.6232 0.2463 0.3301
C4 C 0.8131(2) 0.3355(2) 0.38400(8)
C5 C 0.8673(2) 0.3689(3) 0.44448(9)
H3 H 0.9754 0.4101 0.4534
C6 C 0.7610(2) 0.3408(3) 0.49027(8)
H4 H 0.7982 0.3638 0.5304
C7 C 0.4663(2) 0.2727(3) 0.62965(8)
C8 C 0.2965(2) 0.2023(2) 0.62794(8)
C9 C 0.0559(3) 0.0960(3) 0.59096(9)
H5 H -0.0221 0.0579 0.5608
C10 C 0.0226(3) 0.0947(3) 0.65099(10)
H6 H -0.0778 0.0568 0.6666
C11 C 0.5480(3) 0.3213(3) 0.69085(9)
H7 H 0.6545 0.3770 0.6849
H8 H 0.5635 0.2127 0.7150
H9 H 0.4781 0.4052 0.7116
loop_
_geom_bond_atom_site_label_1
_geom_bond_atom_site_label_2
_geom_bond_site_symmetry_1
_geom_bond_site_symmetry_2
S1 C8 1_555 1_555
N1 O1 1_555 1_555
N2 O3 1_555 1_555
N3 H1 1_555 1_555
N4 N3 1_555 1_555
N5 C8 1_555 1_555
O2 N1 1_555 1_555
O4 N2 1_555 1_555
C1 N3 1_555 1_555
C2 N1 1_555 1_555
C3 C2 1_555 1_555
H2 C3 1_555 1_555
C4 N2 1_555 1_555
C5 C4 1_555 1_555
H3 C5 1_555 1_555
C6 C1 1_555 1_555
H4 C6 1_555 1_555
C7 N4 1_555 1_555
C8 C7 1_555 1_555
C9 N5 1_555 1_555
H5 C9 1_555 1_555
C10 S1 1_555 1_555
H6 C10 1_555 1_555
C11 C7 1_555 1_555
H7 C11 1_555 1_555
H8 C11 1_555 1_555
H9 C11 1_555 1_555
C1 C2 1_555 1_555
C3 C4 1_555 1_555
C5 C6 1_555 1_555
C9 C10 1_555 1_555

#END
