
#######################################################################
#
#                 Cambridge Crystallographic Data Centre
#                                CCDC 
#
#######################################################################
#
# If this CIF has been generated from an entry in the Cambridge 
# Structural Database, then it will include bibliographic, chemical, 
# crystal, experimental, refinement or atomic coordinate data resulting 
# from the CCDC's data processing and validation procedures.
#
#######################################################################

data_RIZHIR
_chemical_formula_moiety         'C25 H31 Li1 N4'
_chemical_name_systematic        
bis(N,N'-Diphenylbenzamidine)-tetramethylethylenediamine-lithium
_symmetry_cell_setting           monoclinic
_symmetry_space_group_name_H-M   'C 2/c'
_symmetry_Int_Tables_number      15
_space_group_name_Hall           '-C 2yn'
loop_
_symmetry_equiv_pos_site_id
_symmetry_equiv_pos_as_xyz
1 x,y,z
2 -x,y,1/2-z
3 1/2+x,1/2+y,z
4 1/2-x,1/2+y,1/2-z
5 -x,-y,-z
6 x,-y,1/2+z
7 1/2-x,1/2-y,-z
8 1/2+x,1/2-y,1/2+z
_cell_length_a                   12.030(4)
_cell_length_b                   16.021(5)
_cell_length_c                   12.232(6)
_cell_angle_alpha                90
_cell_angle_beta                 93.83(4)
_cell_angle_gamma                90
_cell_volume                     2352.24
_exptl_crystal_colour            orange
_chemical_melting_point          128-131deg.C
_cell_formula_units_Z            4
_chemical_properties_physical    Air-sensitive
loop_
_atom_site_label
_atom_site_type_symbol
_atom_site_fract_x
_atom_site_fract_y
_atom_site_fract_z
Li1 Li 0.0000 0.3325(3) 0.2500
N1 N 0.0140(2) 0.2396(1) 0.3670(2)
N2 N 0.0865(1) 0.4374(1) 0.2202(1)
C1 C 0.0000 0.4821(2) 0.2500
C2 C 0.0309(4) 0.1624(2) 0.3056(3)
C3 C 0.0961(3) 0.2457(2) 0.4596(3)
C4 C -0.0977(3) 0.2430(3) 0.4086(3)
C5 C 0.1679(1) 0.4663(1) 0.1535(2)
C6 C 0.1467(2) 0.5186(1) 0.0626(2)
C7 C 0.2295(2) 0.5359(1) -0.0082(2)
C8 C 0.3350(2) 0.5031(1) 0.0102(2)
C9 C 0.3576(2) 0.4528(1) 0.1006(2)
C10 C 0.2760(2) 0.4345(1) 0.1711(2)
C11 C 0.0000 0.5766(2) 0.2500
C12 C -0.0922(2) 0.6204(1) 0.2062(2)
C13 C -0.0911(2) 0.7073(1) 0.2063(2)
C14 C 0.0000 0.7507(2) 0.2500
H1 H 0.0712(16) 0.5417(11) 0.0476(15)
H2 H 0.2095(17) 0.5701(13) -0.0719(17)
H3 H 0.3908(16) 0.5144(11) -0.0443(16)
H4 H 0.4355(18) 0.4295(13) 0.1129(17)
H5 H 0.2916(16) 0.3958(13) 0.2351(17)
H6 H -0.1587(16) 0.5898(13) 0.1717(16)
H7 H -0.1535(17) 0.7367(13) 0.1749(17)
H8 H 0.0000 0.8107(22) 0.2500
H9 H 0.0892(21) 0.1978(18) 0.5135(21)
H10 H 0.0844(21) 0.2987(18) 0.5019(20)
H11 H 0.1747(27) 0.2474(18) 0.4302(27)
H12 H 0.0093(29) 0.1160(23) 0.3509(29)
H13 H 0.1133(27) 0.1628(19) 0.2939(25)
H14 H -0.1561(29) 0.2439(19) 0.3476(28)
H15 H -0.1123(26) 0.1944(22) 0.4552(28)
H16 H -0.0992(29) 0.3004(24) 0.4647(30)
C2A C -0.0309(4) 0.1624(2) 0.1944(3)
N1A N -0.0140(2) 0.2396(1) 0.1330(2)
N2A N -0.0865(1) 0.4374(1) 0.2798(1)
C5A C -0.1679(1) 0.4663(1) 0.3465(2)
C6A C -0.1467(2) 0.5186(1) 0.4374(2)
C7A C -0.2295(2) 0.5359(1) 0.5082(2)
C8A C -0.3350(2) 0.5031(1) 0.4898(2)
C9A C -0.3576(2) 0.4528(1) 0.3994(2)
C10A C -0.2760(2) 0.4345(1) 0.3289(2)
H5A H -0.2916(16) 0.3958(13) 0.2649(17)
H4A H -0.4355(18) 0.4295(13) 0.3871(17)
H3A H -0.3908(16) 0.5144(11) 0.5443(16)
H2A H -0.2095(17) 0.5701(13) 0.5719(17)
H1A H -0.0712(16) 0.5417(11) 0.4524(15)
C13A C 0.0911(2) 0.7073(1) 0.2937(2)
C12A C 0.0922(2) 0.6204(1) 0.2938(2)
H6A H 0.1587(16) 0.5898(13) 0.3283(16)
H7A H 0.1535(17) 0.7367(13) 0.3251(17)
C3A C -0.0961(3) 0.2457(2) 0.0404(3)
H9A H -0.0892(21) 0.1978(18) -0.0135(21)
H10A H -0.0844(21) 0.2987(18) -0.0019(20)
H11A H -0.1747(27) 0.2474(18) 0.0698(27)
C4A C 0.0977(3) 0.2430(3) 0.0914(3)
H14A H 0.1561(29) 0.2439(19) 0.1524(28)
H15A H 0.1123(26) 0.1944(22) 0.0448(28)
H16A H 0.0992(29) 0.3004(24) 0.0353(30)
H12A H -0.0093(29) 0.1160(23) 0.1491(29)
H13A H -0.1133(27) 0.1628(19) 0.2061(25)
loop_
_geom_bond_atom_site_label_1
_geom_bond_atom_site_label_2
_geom_bond_site_symmetry_1
_geom_bond_site_symmetry_2
Li1 N1 1_555 1_555
N1 C2 1_555 1_555
N2 Li1 1_555 1_555
C1 N2 1_555 1_555
C2 H12 1_555 1_555
C3 N1 1_555 1_555
C4 N1 1_555 1_555
C5 N2 1_555 1_555
C6 C5 1_555 1_555
C7 C6 1_555 1_555
C8 C7 1_555 1_555
C9 C8 1_555 1_555
C10 C5 1_555 1_555
C11 C1 1_555 1_555
C12 C11 1_555 1_555
C13 C12 1_555 1_555
C14 C13 1_555 1_555
H1 C6 1_555 1_555
H2 C7 1_555 1_555
H3 C8 1_555 1_555
H4 C9 1_555 1_555
H5 C10 1_555 1_555
H6 C12 1_555 1_555
H7 C13 1_555 1_555
H8 C14 1_555 1_555
H9 C3 1_555 1_555
H10 C3 1_555 1_555
H11 C3 1_555 1_555
H13 C2 1_555 1_555
H14 C4 1_555 1_555
H15 C4 1_555 1_555
H16 C4 1_555 1_555
C2A C2 1_555 1_555
N1A Li1 1_555 1_555
N2A Li1 1_555 1_555
C5A N2A 1_555 1_555
C6A C5A 1_555 1_555
C7A C6A 1_555 1_555
C8A C7A 1_555 1_555
C9A C8A 1_555 1_555
C10A C5A 1_555 1_555
H5A C10A 1_555 1_555
H4A C9A 1_555 1_555
H3A C8A 1_555 1_555
H2A C7A 1_555 1_555
H1A C6A 1_555 1_555
C13A C14 1_555 1_555
C12A C11 1_555 1_555
H6A C12A 1_555 1_555
H7A C13A 1_555 1_555
C3A N1A 1_555 1_555
H9A C3A 1_555 1_555
H10A C3A 1_555 1_555
H11A C3A 1_555 1_555
C4A N1A 1_555 1_555
H14A C4A 1_555 1_555
H15A C4A 1_555 1_555
H16A C4A 1_555 1_555
H12A C2A 1_555 1_555
H13A C2A 1_555 1_555
C1 N2A 1_555 1_555
C9 C10 1_555 1_555
C2A N1A 1_555 1_555
C9A C10A 1_555 1_555
C13A C12A 1_555 1_555

#END
