
#######################################################################
#
#                 Cambridge Crystallographic Data Centre
#                                CCDC 
#
#######################################################################
#
# If this CIF has been generated from an entry in the Cambridge 
# Structural Database, then it will include bibliographic, chemical, 
# crystal, experimental, refinement or atomic coordinate data resulting 
# from the CCDC's data processing and validation procedures.
#
#######################################################################

data_RIZJEP
_chemical_formula_moiety         'C34 H54 Mg1 N4 O2'
_chemical_name_systematic        
bis(Tetrahydrofuran)-bis(di-isopropylbenzamidine)-magnesium
_symmetry_cell_setting           monoclinic
_symmetry_space_group_name_H-M   'C 2/c'
_symmetry_Int_Tables_number      15
_space_group_name_Hall           '-C 2yn'
loop_
_symmetry_equiv_pos_site_id
_symmetry_equiv_pos_as_xyz
1 x,y,z
2 -x,y,1/2-z
3 1/2+x,1/2+y,z
4 1/2-x,1/2+y,1/2-z
5 -x,-y,-z
6 x,-y,1/2+z
7 1/2-x,1/2-y,-z
8 1/2+x,1/2-y,1/2+z
_cell_length_a                   15.523(5)
_cell_length_b                   12.695(4)
_cell_length_c                   18.306(3)
_cell_angle_alpha                90
_cell_angle_beta                 103.12(3)
_cell_angle_gamma                90
_cell_volume                     3513.3
_chemical_melting_point          64-66deg.C
_cell_formula_units_Z            4
loop_
_atom_site_label
_atom_site_type_symbol
_atom_site_fract_x
_atom_site_fract_y
_atom_site_fract_z
Mg1 Mg 0.5000 0.1829(3) 0.2500
O1 O 0.5000 0.3583(6) 0.2500
O2 O 0.5000 -0.0007(6) 0.2500
N1 N 0.3600(4) 0.1745(5) 0.2482(3)
N2 N 0.4618(4) 0.1841(6) 0.3564(3)
C1 C 0.3762(5) 0.1752(6) 0.3224(4)
C2 C 0.3045(5) 0.1608(6) 0.3643(4)
C3 C 0.2510(6) 0.2410(9) 0.3750(5)
C4 C 0.1828(6) 0.2256(11) 0.4126(6)
C5 C 0.1711(7) 0.1311(11) 0.4420(6)
C6 C 0.2228(7) 0.0519(10) 0.4315(6)
C7 C 0.2913(6) 0.0661(8) 0.3948(5)
C8 C 0.2708(5) 0.1536(7) 0.2035(4)
C9 C 0.2430(7) 0.2352(10) 0.1459(6)
C10 C 0.2683(7) 0.0489(10) 0.1651(6)
C11 C 0.4885(6) 0.2054(8) 0.4366(5)
C12 C 0.5184(8) 0.3167(10) 0.4518(6)
C13 C 0.5616(8) 0.1305(11) 0.4739(6)
C14 C 0.5736(6) 0.4216(8) 0.2467(7)
C15 C 0.5412(7) 0.5315(8) 0.2332(7)
C16 C 0.5194(8) -0.0627(7) 0.1923(6)
C17 C 0.5290(8) -0.1735(8) 0.2215(7)
H1 H 0.261 0.311 0.354
H2 H 0.143 0.283 0.417
H3 H 0.126 0.122 0.470
H4 H 0.212 -0.017 0.451
H5 H 0.332 0.006 0.391
H6 H 0.229 0.152 0.235
H7 H 0.243 0.303 0.168
H8 H 0.284 0.237 0.113
H9 H 0.185 0.222 0.115
H10 H 0.286 -0.008 0.202
H11 H 0.211 0.031 0.136
H12 H 0.310 0.046 0.133
H13 H 0.439 0.194 0.460
H14 H 0.473 0.366 0.43
H15 H 0.537 0.332 0.504
H16 H 0.568 0.330 0.430
H17 H 0.545 0.059 0.466
H18 H 0.613 0.142 0.452
H19 H 0.581 0.143 0.527
H20 H 0.619 0.417 0.292
H21 H 0.601 0.398 0.206
H22 H 0.585 0.583 0.257
H23 H 0.526 0.548 0.180
H24 H 0.475 -0.057 0.146
H25 H 0.575 -0.038 0.179
H26 H 0.510 -0.225 0.182
H27 H 0.590 -0.191 0.244
C15A C 0.4588(7) 0.5315(8) 0.2668(7)
C14A C 0.4264(6) 0.4216(8) 0.2533(7)
H20A H 0.381 0.417 0.208
H21A H 0.399 0.398 0.294
H22A H 0.415 0.583 0.243
H23A H 0.474 0.548 0.320
C17A C 0.4710(8) -0.1735(8) 0.2785(7)
C16A C 0.4806(8) -0.0627(7) 0.3077(6)
H24A H 0.525 -0.057 0.354
H25A H 0.425 -0.038 0.321
H26A H 0.490 -0.225 0.318
H27A H 0.410 -0.191 0.256
N1A N 0.6400(4) 0.1745(5) 0.2518(3)
C1A C 0.6238(5) 0.1752(6) 0.1776(4)
N2A N 0.5382(4) 0.1841(6) 0.1436(3)
C11A C 0.5115(6) 0.2054(8) 0.0634(5)
C12A C 0.4816(8) 0.3167(10) 0.0482(6)
H14A H 0.527 0.366 0.07
H15A H 0.463 0.332 -0.004
H16A H 0.432 0.330 0.070
C13A C 0.4384(8) 0.1305(11) 0.0261(6)
H17A H 0.455 0.059 0.034
H18A H 0.387 0.142 0.048
H19A H 0.419 0.143 -0.027
H13A H 0.561 0.194 0.040
C2A C 0.6955(5) 0.1608(6) 0.1357(4)
C3A C 0.7490(6) 0.2410(9) 0.1250(5)
C4A C 0.8172(6) 0.2256(11) 0.0874(6)
C5A C 0.8289(7) 0.1311(11) 0.0580(6)
C6A C 0.7772(7) 0.0519(10) 0.0685(6)
C7A C 0.7087(6) 0.0661(8) 0.1052(5)
H5A H 0.668 0.006 0.109
H4A H 0.788 -0.017 0.049
H3A H 0.874 0.122 0.030
H2A H 0.857 0.283 0.083
H1A H 0.739 0.311 0.146
C8A C 0.7292(5) 0.1536(7) 0.2965(4)
C9A C 0.7570(7) 0.2352(10) 0.3541(6)
H7A H 0.757 0.303 0.332
H8A H 0.716 0.237 0.387
H9A H 0.815 0.222 0.385
C10A C 0.7317(7) 0.0489(10) 0.3349(6)
H10A H 0.714 -0.008 0.298
H11A H 0.789 0.031 0.364
H12A H 0.690 0.046 0.367
H6A H 0.771 0.152 0.265
loop_
_geom_bond_atom_site_label_1
_geom_bond_atom_site_label_2
_geom_bond_site_symmetry_1
_geom_bond_site_symmetry_2
Mg1 O1 1_555 1_555
O1 C14 1_555 1_555
O2 Mg1 1_555 1_555
N1 Mg1 1_555 1_555
N2 Mg1 1_555 1_555
C1 N1 1_555 1_555
C2 C1 1_555 1_555
C3 C2 1_555 1_555
C4 C3 1_555 1_555
C5 C4 1_555 1_555
C6 C5 1_555 1_555
C7 C2 1_555 1_555
C8 N1 1_555 1_555
C9 C8 1_555 1_555
C10 C8 1_555 1_555
C11 N2 1_555 1_555
C12 C11 1_555 1_555
C13 C11 1_555 1_555
C14 C15 1_555 1_555
C15 H22 1_555 1_555
C16 O2 1_555 1_555
C17 C16 1_555 1_555
H1 C3 1_555 1_555
H2 C4 1_555 1_555
H3 C5 1_555 1_555
H4 C6 1_555 1_555
H5 C7 1_555 1_555
H6 C8 1_555 1_555
H7 C9 1_555 1_555
H8 C9 1_555 1_555
H9 C9 1_555 1_555
H10 C10 1_555 1_555
H11 C10 1_555 1_555
H12 C10 1_555 1_555
H13 C11 1_555 1_555
H14 C12 1_555 1_555
H15 C12 1_555 1_555
H16 C12 1_555 1_555
H17 C13 1_555 1_555
H18 C13 1_555 1_555
H19 C13 1_555 1_555
H20 C14 1_555 1_555
H21 C14 1_555 1_555
H23 C15 1_555 1_555
H24 C16 1_555 1_555
H25 C16 1_555 1_555
H26 C17 1_555 1_555
H27 C17 1_555 1_555
C15A C15 1_555 1_555
C14A O1 1_555 1_555
H20A C14A 1_555 1_555
H21A C14A 1_555 1_555
H22A C15A 1_555 1_555
H23A C15A 1_555 1_555
C17A C17 1_555 1_555
C16A O2 1_555 1_555
H24A C16A 1_555 1_555
H25A C16A 1_555 1_555
H26A C17A 1_555 1_555
H27A C17A 1_555 1_555
N1A Mg1 1_555 1_555
C1A N1A 1_555 1_555
N2A Mg1 1_555 1_555
C11A N2A 1_555 1_555
C12A C11A 1_555 1_555
H14A C12A 1_555 1_555
H15A C12A 1_555 1_555
H16A C12A 1_555 1_555
C13A C11A 1_555 1_555
H17A C13A 1_555 1_555
H18A C13A 1_555 1_555
H19A C13A 1_555 1_555
H13A C11A 1_555 1_555
C2A C1A 1_555 1_555
C3A C2A 1_555 1_555
C4A C3A 1_555 1_555
C5A C4A 1_555 1_555
C6A C5A 1_555 1_555
C7A C2A 1_555 1_555
H5A C7A 1_555 1_555
H4A C6A 1_555 1_555
H3A C5A 1_555 1_555
H2A C4A 1_555 1_555
H1A C3A 1_555 1_555
C8A N1A 1_555 1_555
C9A C8A 1_555 1_555
H7A C9A 1_555 1_555
H8A C9A 1_555 1_555
H9A C9A 1_555 1_555
C10A C8A 1_555 1_555
H10A C10A 1_555 1_555
H11A C10A 1_555 1_555
H12A C10A 1_555 1_555
H6A C8A 1_555 1_555
N2 C1 1_555 1_555
C6 C7 1_555 1_555
C15A C14A 1_555 1_555
C17A C16A 1_555 1_555
C1A N2A 1_555 1_555
C6A C7A 1_555 1_555

#END
