
#######################################################################
#
#                 Cambridge Crystallographic Data Centre
#                                CCDC 
#
#######################################################################
#
# If this CIF has been generated from an entry in the Cambridge 
# Structural Database, then it will include bibliographic, chemical, 
# crystal, experimental, refinement or atomic coordinate data resulting 
# from the CCDC's data processing and validation procedures.
#
#######################################################################

data_RIZJUF
_chemical_formula_moiety         'C44 H60 Mg2 N4 O2 S4'
_chemical_name_systematic        
'bis((\m~2~-N-Phenylthiopropanamide)-(N-phenylthiopropanamide)-(diethyl ether)-magnesium)'
_symmetry_cell_setting           monoclinic
_symmetry_space_group_name_H-M   'P 21/n'
_symmetry_Int_Tables_number      14
_space_group_name_Hall           '-P 2yn'
loop_
_symmetry_equiv_pos_site_id
_symmetry_equiv_pos_as_xyz
1 x,y,z
2 1/2-x,1/2+y,1/2-z
3 -x,-y,-z
4 1/2+x,1/2-y,1/2+z
_cell_length_a                   12.210(3)
_cell_length_b                   10.815(4)
_cell_length_c                   18.505(6)
_cell_angle_alpha                90
_cell_angle_beta                 98.07(3)
_cell_angle_gamma                90
_cell_volume                     2419.41
_exptl_crystal_colour            colorless
_chemical_melting_point          205-206deg.C
_cell_formula_units_Z            2
loop_
_atom_site_label
_atom_site_type_symbol
_atom_site_fract_x
_atom_site_fract_y
_atom_site_fract_z
Mg1 Mg 0.57517(20) 0.33961(24) 0.01285(13)
S1 S 0.60710(17) 0.57100(19) 0.06487(10)
S2 S 0.48671(17) 0.24386(22) 0.11551(11)
O1 O 0.5878(4) 0.1879(5) -0.0562(3)
N1 N 0.6811(5) 0.4551(6) -0.0406(3)
N2 N 0.6930(5) 0.2663(6) 0.1024(3)
C1 C 0.6872(6) 0.5600(7) -0.0074(4)
C2 C 0.7577(6) 0.6667(8) -0.0220(5)
C3 C 0.8623(9) 0.6734(12) 0.0283(6)
C4 C 0.7368(6) 0.4345(8) -0.1038(4)
C5 C 0.6988(7) 0.4889(9) -0.1694(4)
C6 C 0.7479(8) 0.4586(11) -0.2305(4)
C7 C 0.8325(8) 0.3758(11) -0.2253(5)
C8 C 0.8696(7) 0.3220(10) -0.1593(6)
C9 C 0.8231(7) 0.3526(9) -0.0971(5)
C10 C 0.6238(6) 0.2402(7) 0.1483(4)
C11 C 0.6591(7) 0.2218(9) 0.2299(4)
C12 C 0.6426(9) 0.3387(12) 0.2699(5)
C13 C 0.8110(6) 0.2620(8) 0.1243(4)
C14 C 0.8734(7) 0.3675(8) 0.1261(5)
C15 C 0.9852(7) 0.3601(11) 0.1434(5)
C16 C 1.0371(7) 0.2516(12) 0.1580(6)
C17 C 0.9766(8) 0.1469(11) 0.1557(6)
C18 C 0.8644(7) 0.1501(9) 0.1368(6)
C19 C 0.5488(7) 0.1917(9) -0.1339(4)
C20 C 0.4442(9) 0.1268(10) -0.1545(5)
C21 C 0.6277(7) 0.0705(8) -0.0299(5)
C22 C 0.7374(9) 0.0387(11) -0.0485(7)
H1 H 0.718 0.743 -0.017
H2 H 0.773 0.664 -0.071
H3 H 0.907 0.741 0.018
H4 H 0.849 0.677 0.077
H5 H 0.904 0.597 0.023
H6 H 0.636 0.551 -0.172
H7 H 0.724 0.498 -0.279
H8 H 0.863 0.351 -0.267
H9 H 0.933 0.263 -0.156
H10 H 0.849 0.316 -0.048
H11 H 0.737 0.198 0.241
H12 H 0.618 0.156 0.250
H13 H 0.663 0.334 0.321
H14 H 0.685 0.405 0.251
H15 H 0.566 0.363 0.260
H16 H 0.836 0.447 0.114
H17 H 1.030 0.435 0.148
H18 H 1.118 0.248 0.170
H19 H 1.016 0.067 0.167
H20 H 0.819 0.072 0.132
H21 H 0.537 0.279 -0.149
H22 H 0.603 0.160 -0.161
H23 H 0.420 0.131 -0.205
H24 H 0.455 0.041 -0.140
H25 H 0.389 0.160 -0.128
H26 H 0.631 0.066 0.022
H27 H 0.577 0.006 -0.050
H28 H 0.764 -0.040 -0.030
H29 H 0.738 0.039 -0.100
H30 H 0.792 0.100 -0.027
Mg1B Mg 0.42483(20) 0.66039(24) -0.01285(13)
S1B S 0.39290(17) 0.42900(19) -0.06487(10)
C1B C 0.3128(6) 0.4400(7) 0.0074(4)
N1B N 0.3189(5) 0.5449(6) 0.0406(3)
S2B S 0.51329(17) 0.75614(22) -0.11551(11)
C10B C 0.3762(6) 0.7598(7) -0.1483(4)
N2B N 0.3070(5) 0.7337(6) -0.1024(3)
O1B O 0.4122(4) 0.8121(5) 0.0562(3)
C19B C 0.4512(7) 0.8083(9) 0.1339(4)
C20B C 0.5558(9) 0.8732(10) 0.1545(5)
H23B H 0.580 0.869 0.205
H24B H 0.545 0.959 0.140
H25B H 0.611 0.840 0.128
H21B H 0.463 0.721 0.149
H22B H 0.397 0.840 0.161
C21B C 0.3723(7) 0.9295(8) 0.0299(5)
C22B C 0.2626(9) 0.9613(11) 0.0485(7)
H28B H 0.236 1.040 0.030
H29B H 0.262 0.961 0.100
H30B H 0.208 0.900 0.027
H26B H 0.369 0.934 -0.022
H27B H 0.423 0.994 0.050
C13B C 0.1890(6) 0.7380(8) -0.1243(4)
C14B C 0.1266(7) 0.6325(8) -0.1261(5)
C15B C 0.0148(7) 0.6399(11) -0.1434(5)
C16B C -0.0371(7) 0.7484(12) -0.1580(6)
C17B C 0.0234(8) 0.8531(11) -0.1557(6)
C18B C 0.1356(7) 0.8499(9) -0.1368(6)
H20B H 0.181 0.928 -0.132
H19B H -0.016 0.933 -0.167
H18B H -0.118 0.752 -0.170
H17B H -0.030 0.565 -0.148
H16B H 0.164 0.553 -0.114
C11B C 0.3409(7) 0.7782(9) -0.2299(4)
C12B C 0.3574(9) 0.6613(12) -0.2699(5)
H13B H 0.337 0.666 -0.321
H14B H 0.315 0.595 -0.251
H15B H 0.434 0.637 -0.260
H11B H 0.263 0.802 -0.241
H12B H 0.382 0.844 -0.250
C4B C 0.2632(6) 0.5655(8) 0.1038(4)
C5B C 0.3012(7) 0.5111(9) 0.1694(4)
C6B C 0.2521(8) 0.5414(11) 0.2305(4)
C7B C 0.1675(8) 0.6242(11) 0.2253(5)
C8B C 0.1304(7) 0.6780(10) 0.1593(6)
C9B C 0.1769(7) 0.6474(9) 0.0971(5)
H10B H 0.151 0.684 0.048
H9B H 0.067 0.737 0.156
H8B H 0.137 0.649 0.267
H7B H 0.276 0.502 0.279
H6B H 0.364 0.449 0.172
C2B C 0.2423(6) 0.3333(8) 0.0220(5)
C3B C 0.1377(9) 0.3266(12) -0.0283(6)
H3B H 0.093 0.259 -0.018
H4B H 0.151 0.323 -0.077
H5B H 0.096 0.403 -0.023
H1B H 0.282 0.257 0.017
H2B H 0.227 0.336 0.071
loop_
_geom_bond_atom_site_label_1
_geom_bond_atom_site_label_2
_geom_bond_site_symmetry_1
_geom_bond_site_symmetry_2
Mg1 S1 1_555 1_555
S1 C1 1_555 1_555
S2 Mg1 1_555 1_555
O1 Mg1 1_555 1_555
N1 Mg1 1_555 1_555
N2 Mg1 1_555 1_555
C1 N1 1_555 1_555
C2 C1 1_555 1_555
C3 C2 1_555 1_555
C4 N1 1_555 1_555
C5 C4 1_555 1_555
C6 C5 1_555 1_555
C7 C6 1_555 1_555
C8 C7 1_555 1_555
C9 C4 1_555 1_555
C10 S2 1_555 1_555
C11 C10 1_555 1_555
C12 C11 1_555 1_555
C13 N2 1_555 1_555
C14 C13 1_555 1_555
C15 C14 1_555 1_555
C16 C15 1_555 1_555
C17 C16 1_555 1_555
C18 C13 1_555 1_555
C19 O1 1_555 1_555
C20 C19 1_555 1_555
C21 O1 1_555 1_555
C22 C21 1_555 1_555
H1 C2 1_555 1_555
H2 C2 1_555 1_555
H3 C3 1_555 1_555
H4 C3 1_555 1_555
H5 C3 1_555 1_555
H6 C5 1_555 1_555
H7 C6 1_555 1_555
H8 C7 1_555 1_555
H9 C8 1_555 1_555
H10 C9 1_555 1_555
H11 C11 1_555 1_555
H12 C11 1_555 1_555
H13 C12 1_555 1_555
H14 C12 1_555 1_555
H15 C12 1_555 1_555
H16 C14 1_555 1_555
H17 C15 1_555 1_555
H18 C16 1_555 1_555
H19 C17 1_555 1_555
H20 C18 1_555 1_555
H21 C19 1_555 1_555
H22 C19 1_555 1_555
H23 C20 1_555 1_555
H24 C20 1_555 1_555
H25 C20 1_555 1_555
H26 C21 1_555 1_555
H27 C21 1_555 1_555
H28 C22 1_555 1_555
H29 C22 1_555 1_555
H30 C22 1_555 1_555
Mg1B S1 1_555 1_555
S1B Mg1 1_555 1_555
C1B S1B 1_555 1_555
N1B Mg1B 1_555 1_555
S2B Mg1B 1_555 1_555
C10B S2B 1_555 1_555
N2B Mg1B 1_555 1_555
O1B Mg1B 1_555 1_555
C19B O1B 1_555 1_555
C20B C19B 1_555 1_555
H23B C20B 1_555 1_555
H24B C20B 1_555 1_555
H25B C20B 1_555 1_555
H21B C19B 1_555 1_555
H22B C19B 1_555 1_555
C21B O1B 1_555 1_555
C22B C21B 1_555 1_555
H28B C22B 1_555 1_555
H29B C22B 1_555 1_555
H30B C22B 1_555 1_555
H26B C21B 1_555 1_555
H27B C21B 1_555 1_555
C13B N2B 1_555 1_555
C14B C13B 1_555 1_555
C15B C14B 1_555 1_555
C16B C15B 1_555 1_555
C17B C16B 1_555 1_555
C18B C13B 1_555 1_555
H20B C18B 1_555 1_555
H19B C17B 1_555 1_555
H18B C16B 1_555 1_555
H17B C15B 1_555 1_555
H16B C14B 1_555 1_555
C11B C10B 1_555 1_555
C12B C11B 1_555 1_555
H13B C12B 1_555 1_555
H14B C12B 1_555 1_555
H15B C12B 1_555 1_555
H11B C11B 1_555 1_555
H12B C11B 1_555 1_555
C4B N1B 1_555 1_555
C5B C4B 1_555 1_555
C6B C5B 1_555 1_555
C7B C6B 1_555 1_555
C8B C7B 1_555 1_555
C9B C4B 1_555 1_555
H10B C9B 1_555 1_555
H9B C8B 1_555 1_555
H8B C7B 1_555 1_555
H7B C6B 1_555 1_555
H6B C5B 1_555 1_555
C2B C1B 1_555 1_555
C3B C2B 1_555 1_555
H3B C3B 1_555 1_555
H4B C3B 1_555 1_555
H5B C3B 1_555 1_555
H1B C2B 1_555 1_555
H2B C2B 1_555 1_555
N2 C10 1_555 1_555
C8 C9 1_555 1_555
C17 C18 1_555 1_555
Mg1B S1B 1_555 1_555
C1B N1B 1_555 1_555
C10B N2B 1_555 1_555
C17B C18B 1_555 1_555
C8B C9B 1_555 1_555

#END
