
#######################################################################
#
#                 Cambridge Crystallographic Data Centre
#                                CCDC 
#
#######################################################################
#
# If this CIF has been generated from an entry in the Cambridge 
# Structural Database, then it will include bibliographic, chemical, 
# crystal, experimental, refinement or atomic coordinate data resulting 
# from the CCDC's data processing and validation procedures.
#
#######################################################################

data_RIZJOZ
_chemical_formula_moiety         'C34 H54 Mg1 N4 O2 S2'
_chemical_name_systematic        
bis(N-Phenyl(di-isopropylamino)thioformamide)-bis(tetrahydrofuran)-magnesium
_symmetry_cell_setting           triclinic
_symmetry_space_group_name_H-M   'P -1'
_symmetry_Int_Tables_number      2
_space_group_name_Hall           '-P 1'
loop_
_symmetry_equiv_pos_site_id
_symmetry_equiv_pos_as_xyz
1 x,y,z
2 -x,-y,-z
_cell_length_a                   7.840(4)
_cell_length_b                   9.300(4)
_cell_length_c                   13.247(5)
_cell_angle_alpha                79.03(3)
_cell_angle_beta                 77.59(3)
_cell_angle_gamma                86.69(3)
_cell_volume                     925.918
_exptl_crystal_colour            white
_cell_formula_units_Z            1
loop_
_atom_site_label
_atom_site_type_symbol
_atom_site_fract_x
_atom_site_fract_y
_atom_site_fract_z
Mg1 Mg 0.00000 0.00000 0.00000
S1 S 0.19313(12) -0.16895(10) 0.10648(6)
O1 O 0.1602(3) 0.18871(25) -0.00766(18)
N1 N -0.0827(3) -0.0141(3) 0.16411(17)
N2 N 0.0028(3) -0.1826(3) 0.30453(17)
C1 C 0.0245(4) -0.1159(3) 0.20118(22)
C2 C -0.1744(4) -0.1980(3) 0.37177(23)
C3 C -0.1895(5) -0.1438(4) 0.4750(3)
C4 C -0.2360(5) -0.3556(4) 0.3940(3)
C5 C 0.1448(5) -0.2655(5) 0.3495(3)
C6 C 0.2986(6) -0.1668(7) 0.3386(3)
C7 C 0.1984(6) -0.4104(6) 0.3134(4)
C8 C -0.1831(4) 0.0854(3) 0.22236(22)
C9 C -0.3483(5) 0.1248(4) 0.2071(3)
C10 C -0.4453(5) 0.2315(5) 0.2579(3)
C11 C -0.3754(7) 0.2972(4) 0.3219(3)
C12 C -0.2116(7) 0.2611(4) 0.3369(3)
C13 C -0.1140(5) 0.1555(4) 0.2876(3)
C14 C 0.2296(23) 0.2962(17) -0.0982(8)
C15 C 0.322(3) 0.3971(17) -0.0707(12)
C16 C 0.317(3) 0.3629(20) 0.0355(12)
C17 C 0.2583(22) 0.2111(16) 0.0633(10)
H1 H -0.252 -0.140 0.334
H2 H -0.306 -0.157 0.514
H3 H -0.112 -0.199 0.514
H4 H -0.162 -0.043 0.460
H5 H -0.350 -0.362 0.437
H6 H -0.238 -0.385 0.329
H7 H -0.158 -0.418 0.429
H8 H 0.099 -0.291 0.423
H9 H 0.388 -0.223 0.368
H10 H 0.343 -0.130 0.266
H11 H 0.261 -0.089 0.375
H12 H 0.290 -0.455 0.347
H13 H 0.102 -0.473 0.332
H14 H 0.239 -0.393 0.240
H15 H -0.398 0.080 0.161
H16 H -0.560 0.258 0.247
H17 H -0.441 0.369 0.357
H18 H -0.163 0.309 0.382
H19 H 0.001 0.131 0.299
H20 H 0.142 0.336 -0.132
H21 H 0.320 0.253 -0.143
H22 H 0.222 0.487 -0.058
H23 H 0.407 0.440 -0.111
H24 H 0.458 0.342 0.025
H25 H 0.288 0.414 0.078
H26 H 0.181 0.208 0.132
H27 H 0.344 0.137 0.069
S1A S -0.19313(12) 0.16895(10) -0.10648(6)
C1A C -0.0245(4) 0.1159(3) -0.20118(22)
N1A N 0.0827(3) 0.0141(3) -0.16411(17)
O1A O -0.1602(3) -0.18871(25) 0.00766(18)
C14A C -0.2296(23) -0.2962(17) 0.0982(8)
C15A C -0.322(3) -0.3971(17) 0.0707(12)
C16A C -0.317(3) -0.3629(20) -0.0355(12)
C17A C -0.2583(22) -0.2111(16) -0.0633(10)
H26A H -0.181 -0.208 -0.132
H27A H -0.344 -0.137 -0.069
H24A H -0.458 -0.342 -0.025
H25A H -0.288 -0.414 -0.078
H22A H -0.222 -0.487 0.058
H23A H -0.407 -0.440 0.111
H20A H -0.142 -0.336 0.132
H21A H -0.320 -0.253 0.143
C8A C 0.1831(4) -0.0854(3) -0.22236(22)
C9A C 0.3483(5) -0.1248(4) -0.2071(3)
C10A C 0.4453(5) -0.2315(5) -0.2579(3)
C11A C 0.3754(7) -0.2972(4) -0.3219(3)
C12A C 0.2116(7) -0.2611(4) -0.3369(3)
C13A C 0.1140(5) -0.1555(4) -0.2876(3)
H19A H -0.001 -0.131 -0.299
H18A H 0.163 -0.309 -0.382
H17A H 0.441 -0.369 -0.357
H16A H 0.560 -0.258 -0.247
H15A H 0.398 -0.080 -0.161
N2A N -0.0028(3) 0.1826(3) -0.30453(17)
C2A C 0.1744(4) 0.1980(3) -0.37177(23)
C3A C 0.1895(5) 0.1438(4) -0.4750(3)
H2A H 0.306 0.157 -0.514
H3A H 0.112 0.199 -0.514
H4A H 0.162 0.043 -0.460
C4A C 0.2360(5) 0.3556(4) -0.3940(3)
H5A H 0.350 0.362 -0.437
H6A H 0.238 0.385 -0.329
H7A H 0.158 0.418 -0.429
H1A H 0.252 0.140 -0.334
C5A C -0.1448(5) 0.2655(5) -0.3495(3)
C6A C -0.2986(6) 0.1668(7) -0.3386(3)
H9A H -0.388 0.223 -0.368
H10A H -0.343 0.130 -0.266
H11A H -0.261 0.089 -0.375
C7A C -0.1984(6) 0.4104(6) -0.3134(4)
H12A H -0.290 0.455 -0.347
H13A H -0.102 0.473 -0.332
H14A H -0.239 0.393 -0.240
H8A H -0.099 0.291 -0.423
C18? C 0.3384(10) 0.1994(10) -0.0472(9)
C19? C 0.3923(17) 0.3441(20) -0.0352(22)
C20? C 0.2050(24) 0.4244(25) -0.006(3)
C21? C 0.0858(11) 0.3258(9) 0.0168(8)
H28? H 0.399 0.133 -0.002
H29? H 0.367 0.177 -0.115
H30? H 0.476 0.360 -0.011
H31? H 0.424 0.408 -0.119
H32? H 0.177 0.504 -0.034
H33? H 0.214 0.429 0.074
H34? H 0.020 0.310 0.087
H35? H 0.011 0.364 -0.030
loop_
_geom_bond_atom_site_label_1
_geom_bond_atom_site_label_2
_geom_bond_site_symmetry_1
_geom_bond_site_symmetry_2
Mg1 S1 1_555 1_555
S1 C1 1_555 1_555
O1 Mg1 1_555 1_555
N1 Mg1 1_555 1_555
N2 C1 1_555 1_555
C1 N1 1_555 1_555
C2 N2 1_555 1_555
C3 C2 1_555 1_555
C4 C2 1_555 1_555
C5 N2 1_555 1_555
C6 C5 1_555 1_555
C7 C5 1_555 1_555
C8 N1 1_555 1_555
C9 C8 1_555 1_555
C10 C9 1_555 1_555
C11 C10 1_555 1_555
C12 C11 1_555 1_555
C13 C8 1_555 1_555
C14 O1 1_555 1_555
C15 C14 1_555 1_555
C16 C15 1_555 1_555
C17 O1 1_555 1_555
H1 C2 1_555 1_555
H2 C3 1_555 1_555
H3 C3 1_555 1_555
H4 C3 1_555 1_555
H5 C4 1_555 1_555
H6 C4 1_555 1_555
H7 C4 1_555 1_555
H8 C5 1_555 1_555
H9 C6 1_555 1_555
H10 C6 1_555 1_555
H11 C6 1_555 1_555
H12 C7 1_555 1_555
H13 C7 1_555 1_555
H14 C7 1_555 1_555
H15 C9 1_555 1_555
H16 C10 1_555 1_555
H17 C11 1_555 1_555
H18 C12 1_555 1_555
H19 C13 1_555 1_555
H20 C14 1_555 1_555
H21 C14 1_555 1_555
H22 C15 1_555 1_555
H23 C15 1_555 1_555
H24 C16 1_555 1_555
H25 C16 1_555 1_555
H26 C17 1_555 1_555
H27 C17 1_555 1_555
S1A Mg1 1_555 1_555
C1A S1A 1_555 1_555
N1A Mg1 1_555 1_555
O1A Mg1 1_555 1_555
C14A O1A 1_555 1_555
C15A C14A 1_555 1_555
C16A C15A 1_555 1_555
C17A O1A 1_555 1_555
H26A C17A 1_555 1_555
H27A C17A 1_555 1_555
H24A C16A 1_555 1_555
H25A C16A 1_555 1_555
H22A C15A 1_555 1_555
H23A C15A 1_555 1_555
H20A C14A 1_555 1_555
H21A C14A 1_555 1_555
C8A N1A 1_555 1_555
C9A C8A 1_555 1_555
C10A C9A 1_555 1_555
C11A C10A 1_555 1_555
C12A C11A 1_555 1_555
C13A C8A 1_555 1_555
H19A C13A 1_555 1_555
H18A C12A 1_555 1_555
H17A C11A 1_555 1_555
H16A C10A 1_555 1_555
H15A C9A 1_555 1_555
N2A C1A 1_555 1_555
C2A N2A 1_555 1_555
C3A C2A 1_555 1_555
H2A C3A 1_555 1_555
H3A C3A 1_555 1_555
H4A C3A 1_555 1_555
C4A C2A 1_555 1_555
H5A C4A 1_555 1_555
H6A C4A 1_555 1_555
H7A C4A 1_555 1_555
H1A C2A 1_555 1_555
C5A N2A 1_555 1_555
C6A C5A 1_555 1_555
H9A C6A 1_555 1_555
H10A C6A 1_555 1_555
H11A C6A 1_555 1_555
C7A C5A 1_555 1_555
H12A C7A 1_555 1_555
H13A C7A 1_555 1_555
H14A C7A 1_555 1_555
H8A C5A 1_555 1_555
C12 C13 1_555 1_555
C16 C17 1_555 1_555
C1A N1A 1_555 1_555
C16A C17A 1_555 1_555
C12A C13A 1_555 1_555

#END
