
#######################################################################
#
#                 Cambridge Crystallographic Data Centre
#                                CCDC 
#
#######################################################################
#
# If this CIF has been generated from an entry in the Cambridge 
# Structural Database, then it will include bibliographic, chemical, 
# crystal, experimental, refinement or atomic coordinate data resulting 
# from the CCDC's data processing and validation procedures.
#
#######################################################################

data_RIZKUH
_chemical_name_common            
(S,S)-2,3-Dideoxy-2,3-dibenzoyloxytartaronitrile
_chemical_formula_moiety         'C18 H12 N2 O4'
_chemical_name_systematic        (S,S)-1,2-Dibenzoyloxy-1,2-dicyanoethane
_symmetry_cell_setting           orthorhombic
_symmetry_space_group_name_H-M   'P 21 21 21'
_symmetry_Int_Tables_number      19
_space_group_name_Hall           'P 2ac 2ab'
loop_
_symmetry_equiv_pos_site_id
_symmetry_equiv_pos_as_xyz
1 x,y,z
2 1/2-x,-y,1/2+z
3 -x,1/2+y,1/2-z
4 1/2+x,1/2-y,-z
_cell_length_a                   7.1563(14)
_cell_length_b                   11.470(2)
_cell_length_c                   18.536(4)
_cell_angle_alpha                90
_cell_angle_beta                 90
_cell_angle_gamma                90
_cell_volume                     1521.49
_exptl_crystal_colour            colorless
_exptl_crystal_description       prismatic
_chemical_melting_point          '192-194 deg.C'
_cell_formula_units_Z            4
loop_
_atom_site_label
_atom_site_type_symbol
_atom_site_fract_x
_atom_site_fract_y
_atom_site_fract_z
N1 N 0.9500(4) 0.68644(17) -0.00654(10)
C1 C 0.9325(3) 0.59075(17) 0.00620(9)
C2 C 0.9139(3) 0.46574(16) 0.02402(8)
H1 H 0.7870 0.4417 0.0164
C3 C 1.0457(3) 0.39127(16) -0.02209(8)
H2 H 1.0206 0.3102 -0.0138
C4 C 1.2435(3) 0.41654(16) -0.00667(9)
N2 N 1.3967(3) 0.43736(16) 0.00351(9)
O1 O 0.95976(18) 0.45585(11) 0.09890(5)
O2 O 0.7718(2) 0.29964(13) 0.10691(7)
C5 C 0.8676(3) 0.37057(15) 0.13630(8)
C6 C 0.9009(2) 0.38039(14) 0.21491(8)
C7 C 0.8309(3) 0.29295(17) 0.25920(9)
H3 H 0.7682 0.2270 0.2384
C8 C 0.8537(3) 0.30088(18) 0.33342(9)
H4 H 0.8048 0.2412 0.3644
C9 C 0.9455(3) 0.39499(18) 0.36274(8)
H5 H 0.9623 0.3998 0.4140
C10 C 1.0155(3) 0.48243(17) 0.31918(9)
H6 H 1.0782 0.5483 0.3401
C11 C 0.9936(3) 0.47523(15) 0.24478(9)
H7 H 1.0421 0.5356 0.2142
O3 O 1.01931(18) 0.41782(10) -0.09654(5)
O4 O 0.7919(2) 0.28309(14) -0.10383(7)
C12 C 0.8944(2) 0.34999(15) -0.13353(8)
C13 C 0.9096(2) 0.36998(14) -0.21221(8)
C14 C 0.8288(3) 0.28774(17) -0.25787(9)
H8 H 0.7589 0.2240 -0.2380
C15 C 0.8494(3) 0.29926(18) -0.33194(9)
H9 H 0.7979 0.2411 -0.3634
C16 C 0.9458(3) 0.39218(18) -0.36027(8)
H10 H 0.9591 0.3998 -0.4116
C17 C 1.0216(3) 0.47611(17) -0.31514(9)
H11 H 1.0863 0.5417 -0.3354
C18 C 1.0048(3) 0.46508(16) -0.24078(8)
H12 H 1.0581 0.5228 -0.2095
loop_
_geom_bond_atom_site_label_1
_geom_bond_atom_site_label_2
_geom_bond_site_symmetry_1
_geom_bond_site_symmetry_2
N1 C1 1_555 1_555
C1 C2 1_555 1_555
C2 H1 1_555 1_555
C3 C2 1_555 1_555
H2 C3 1_555 1_555
C4 C3 1_555 1_555
N2 C4 1_555 1_555
O1 C2 1_555 1_555
O2 C5 1_555 1_555
C5 O1 1_555 1_555
C6 C5 1_555 1_555
C7 C6 1_555 1_555
H3 C7 1_555 1_555
C8 C7 1_555 1_555
H4 C8 1_555 1_555
C9 C8 1_555 1_555
H5 C9 1_555 1_555
C10 C9 1_555 1_555
H6 C10 1_555 1_555
C11 C6 1_555 1_555
H7 C11 1_555 1_555
O3 C3 1_555 1_555
O4 C12 1_555 1_555
C12 O3 1_555 1_555
C13 C12 1_555 1_555
C14 C13 1_555 1_555
H8 C14 1_555 1_555
C15 C14 1_555 1_555
H9 C15 1_555 1_555
C16 C15 1_555 1_555
H10 C16 1_555 1_555
C17 C16 1_555 1_555
H11 C17 1_555 1_555
C18 C13 1_555 1_555
H12 C18 1_555 1_555
C10 C11 1_555 1_555
C17 C18 1_555 1_555

#END
