
#######################################################################
#
#                 Cambridge Crystallographic Data Centre
#                                CCDC 
#
#######################################################################
#
# If this CIF has been generated from an entry in the Cambridge 
# Structural Database, then it will include bibliographic, chemical, 
# crystal, experimental, refinement or atomic coordinate data resulting 
# from the CCDC's data processing and validation procedures.
#
#######################################################################

data_RIZPIB
_chemical_formula_moiety         'C34 H30 B1 F10 P1,0.5(C7 H8)'
_chemical_name_systematic        
'1,1-Dimesityl-2,2-bis(pentafluorophenyl)-1\l^5^,2\l^5^-phosphaborinane toluene solvate'
_symmetry_cell_setting           monoclinic
_symmetry_space_group_name_H-M   'P 21/c'
_symmetry_Int_Tables_number      14
_space_group_name_Hall           '-P 2ybc'
loop_
_symmetry_equiv_pos_site_id
_symmetry_equiv_pos_as_xyz
1 x,y,z
2 -x,1/2+y,1/2-z
3 -x,-y,-z
4 x,1/2-y,1/2+z
_cell_length_a                   8.5881(1)
_cell_length_b                   20.1695(2)
_cell_length_c                   19.1928(2)
_cell_angle_alpha                90
_cell_angle_beta                 92.380(1)
_cell_angle_gamma                90
_cell_volume                     3321.66
_exptl_crystal_colour            colorless
_exptl_crystal_description       plate
_cell_formula_units_Z            4
loop_
_atom_site_label
_atom_site_type_symbol
_atom_site_fract_x
_atom_site_fract_y
_atom_site_fract_z
P1 P 0.06901(6) 0.25371(3) 0.35132(3)
B1 B 0.2294(3) 0.20156(12) 0.29121(13)
C1 C 0.1985(3) 0.31168(12) 0.40152(13)
H1 H 0.2051 0.3522 0.3736
H2 H 0.1441 0.3237 0.4436
C2 C 0.3660(3) 0.29336(14) 0.42524(14)
H3 H 0.4250 0.3346 0.4324
H4 H 0.3625 0.2712 0.4706
C3 C 0.4553(3) 0.24944(13) 0.37714(14)
H5 H 0.5523 0.2351 0.4013
H6 H 0.4831 0.2751 0.3361
C4 C 0.3621(3) 0.18827(12) 0.35324(12)
H7 H 0.3111 0.1697 0.3936
H8 H 0.4351 0.1548 0.3370
C5 C -0.0910(3) 0.31281(11) 0.32730(12)
C6 C -0.1725(3) 0.34398(12) 0.38186(13)
C7 C -0.2801(3) 0.39345(12) 0.36447(14)
H9 H -0.3316 0.4145 0.4006
C8 C -0.3152(3) 0.41316(12) 0.29649(15)
C9 C -0.2417(3) 0.38005(12) 0.24424(14)
H10 H -0.2669 0.3913 0.1976
C10 C -0.1312(3) 0.33041(11) 0.25792(12)
C11 C -0.1574(3) 0.32703(15) 0.45832(13)
H11 H -0.0739 0.3530 0.4803
H12 H -0.1341 0.2802 0.4637
H13 H -0.2545 0.3370 0.4802
C12 C -0.4294(3) 0.46860(14) 0.28016(19)
H14 H -0.4368 0.4760 0.2302
H15 H -0.3936 0.5088 0.3034
H16 H -0.5311 0.4566 0.2964
C13 C -0.0673(3) 0.29809(13) 0.19449(12)
H17 H -0.1504 0.2748 0.1690
H18 H 0.0138 0.2669 0.2088
H19 H -0.0242 0.3318 0.1648
C14 C -0.0324(3) 0.18881(11) 0.40051(11)
C15 C 0.0071(3) 0.16755(12) 0.46956(12)
C16 C -0.0742(3) 0.11529(13) 0.49772(13)
H20 H -0.0470 0.1018 0.5435
C17 C -0.1934(3) 0.08197(13) 0.46196(14)
C18 C -0.2324(3) 0.10386(12) 0.39531(13)
H21 H -0.3142 0.0826 0.3701
C19 C -0.1558(2) 0.15617(11) 0.36370(11)
C20 C 0.1342(3) 0.19765(17) 0.51625(13)
H22 H 0.1214 0.1834 0.5639
H23 H 0.1277 0.2456 0.5138
H24 H 0.2350 0.1833 0.5010
C21 C -0.2772(4) 0.02481(16) 0.49430(18)
H25 H -0.3037 -0.0079 0.4587
H26 H -0.3717 0.0408 0.5146
H27 H -0.2101 0.0048 0.5304
C22 C -0.2151(3) 0.17389(12) 0.29103(12)
H28 H -0.2650 0.1355 0.2694
H29 H -0.1286 0.1878 0.2636
H30 H -0.2900 0.2097 0.2933
C23 C 0.3173(2) 0.24209(11) 0.22984(11)
C24 C 0.3116(3) 0.30897(11) 0.21307(13)
F1 F 0.22112(17) 0.35076(7) 0.24863(8)
C25 C 0.3942(3) 0.33788(13) 0.16082(13)
F2 F 0.3767(2) 0.40262(8) 0.14594(9)
C26 C 0.4947(3) 0.30020(15) 0.12351(13)
F3 F 0.5767(2) 0.32743(10) 0.07290(9)
C27 C 0.5103(3) 0.23442(14) 0.13935(13)
F4 F 0.61054(19) 0.19669(9) 0.10449(9)
C28 C 0.4230(3) 0.20721(12) 0.19067(12)
C29 C 0.1440(2) 0.13388(10) 0.26073(11)
C30 C 0.1162(3) 0.07804(11) 0.30121(12)
F5 F 0.16827(16) 0.07512(6) 0.36827(7)
C31 C 0.0333(3) 0.02288(11) 0.27837(14)
F6 F 0.0038(2) -0.02635(7) 0.32307(9)
C32 C -0.0189(3) 0.01885(12) 0.21026(15)
F7 F -0.0992(2) -0.03411(8) 0.18670(11)
C33 C 0.0121(3) 0.07057(12) 0.16653(13)
F8 F -0.0369(2) 0.06776(8) 0.09909(9)
C34 C 0.0898(3) 0.12566(11) 0.19163(12)
F9 F 0.11050(16) 0.17363(6) 0.14349(6)
F10 F 0.44441(16) 0.14149(7) 0.20189(7)
C35? C 0.6152(9) -0.0147(5) -0.0006(6)
C36? C 0.5127(14) -0.0469(6) -0.0472(7)
H31? H 0.5490 -0.0811 -0.0756
C37? C 0.3567(13) -0.0285(9) -0.0519(9)
H32? H 0.2874 -0.0503 -0.0835
C38? C 0.3031(9) 0.0221(9) -0.0100(9)
H33? H 0.1975 0.0346 -0.0132
C39? C 0.4055(13) 0.0543(8) 0.0366(9)
H34? H 0.3693 0.0886 0.0649
C40? C 0.5616(11) 0.0359(6) 0.0413(7)
H35? H 0.6309 0.0577 0.0728
C41? C 0.7837(12) -0.0344(6) 0.0044(8)
H36? H 0.8380 -0.0080 0.0399
H37? H 0.7919 -0.0810 0.0167
H38? H 0.8300 -0.0271 -0.0402
C42? C 0.5687(11) -0.0326(4) -0.0205(5)
C43? C 0.4161(12) -0.0253(6) -0.0463(7)
H39? H 0.3794 -0.0509 -0.0845
C44? C 0.3178(12) 0.0200(7) -0.0158(9)
H40? H 0.2146 0.0250 -0.0333
C45? C 0.3721(16) 0.0580(6) 0.0405(8)
H41? H 0.3056 0.0886 0.0612
C46? C 0.5247(18) 0.0507(6) 0.0664(6)
H42? H 0.5614 0.0763 0.1045
C47? C 0.6230(13) 0.0053(5) 0.0359(6)
H43? H 0.7262 0.0004 0.0534
C48? C 0.6758(13) -0.0812(5) -0.0533(6)
H44? H 0.7781 -0.0788 -0.0301
H45? H 0.6840 -0.0706 -0.1023
H46? H 0.6344 -0.1257 -0.0487
loop_
_geom_bond_atom_site_label_1
_geom_bond_atom_site_label_2
_geom_bond_site_symmetry_1
_geom_bond_site_symmetry_2
P1 B1 1_555 1_555
B1 C4 1_555 1_555
C1 P1 1_555 1_555
H1 C1 1_555 1_555
H2 C1 1_555 1_555
C2 C1 1_555 1_555
H3 C2 1_555 1_555
H4 C2 1_555 1_555
C3 C2 1_555 1_555
H5 C3 1_555 1_555
H6 C3 1_555 1_555
C4 C3 1_555 1_555
H7 C4 1_555 1_555
H8 C4 1_555 1_555
C5 P1 1_555 1_555
C6 C5 1_555 1_555
C7 C6 1_555 1_555
H9 C7 1_555 1_555
C8 C7 1_555 1_555
C9 C8 1_555 1_555
H10 C9 1_555 1_555
C10 C5 1_555 1_555
C11 C6 1_555 1_555
H11 C11 1_555 1_555
H12 C11 1_555 1_555
H13 C11 1_555 1_555
C12 C8 1_555 1_555
H14 C12 1_555 1_555
H15 C12 1_555 1_555
H16 C12 1_555 1_555
C13 C10 1_555 1_555
H17 C13 1_555 1_555
H18 C13 1_555 1_555
H19 C13 1_555 1_555
C14 P1 1_555 1_555
C15 C14 1_555 1_555
C16 C15 1_555 1_555
H20 C16 1_555 1_555
C17 C16 1_555 1_555
C18 C17 1_555 1_555
H21 C18 1_555 1_555
C19 C14 1_555 1_555
C20 C15 1_555 1_555
H22 C20 1_555 1_555
H23 C20 1_555 1_555
H24 C20 1_555 1_555
C21 C17 1_555 1_555
H25 C21 1_555 1_555
H26 C21 1_555 1_555
H27 C21 1_555 1_555
C22 C19 1_555 1_555
H28 C22 1_555 1_555
H29 C22 1_555 1_555
H30 C22 1_555 1_555
C23 B1 1_555 1_555
C24 C23 1_555 1_555
F1 C24 1_555 1_555
C25 C24 1_555 1_555
F2 C25 1_555 1_555
C26 C25 1_555 1_555
F3 C26 1_555 1_555
C27 C26 1_555 1_555
F4 C27 1_555 1_555
C28 C23 1_555 1_555
C29 B1 1_555 1_555
C30 C29 1_555 1_555
F5 C30 1_555 1_555
C31 C30 1_555 1_555
F6 C31 1_555 1_555
C32 C31 1_555 1_555
F7 C32 1_555 1_555
C33 C32 1_555 1_555
F8 C33 1_555 1_555
C34 C29 1_555 1_555
F9 C34 1_555 1_555
F10 C28 1_555 1_555
C9 C10 1_555 1_555
C18 C19 1_555 1_555
C27 C28 1_555 1_555
C33 C34 1_555 1_555

#END
