
#######################################################################
#
#                 Cambridge Crystallographic Data Centre
#                                CCDC 
#
#######################################################################
#
# If this CIF has been generated from an entry in the Cambridge 
# Structural Database, then it will include bibliographic, chemical, 
# crystal, experimental, refinement or atomic coordinate data resulting 
# from the CCDC's data processing and validation procedures.
#
#######################################################################

data_RIZPUN
_chemical_formula_moiety         'C34 H32 B1 F10 P1,1.5(C7 H8)'
_chemical_name_systematic        
'(4-(Dimesitylphosphonio)butyl)(hydrido)bis(pentafluorophenyl)borate toluene solvate'
_symmetry_cell_setting           monoclinic
_symmetry_space_group_name_H-M   'P 21/n'
_symmetry_Int_Tables_number      14
_space_group_name_Hall           '-P 2yn'
loop_
_symmetry_equiv_pos_site_id
_symmetry_equiv_pos_as_xyz
1 x,y,z
2 1/2-x,1/2+y,1/2-z
3 -x,-y,-z
4 1/2+x,1/2-y,1/2+z
_cell_length_a                   14.7877(6)
_cell_length_b                   14.8191(15)
_cell_length_c                   18.9752(16)
_cell_angle_alpha                90
_cell_angle_beta                 92.799(3)
_cell_angle_gamma                90
_cell_volume                     4153.27
_exptl_crystal_colour            colorless
_exptl_crystal_description       plate
_cell_formula_units_Z            4
loop_
_atom_site_label
_atom_site_type_symbol
_atom_site_fract_x
_atom_site_fract_y
_atom_site_fract_z
P1 P 0.73504(6) 0.81687(7) 0.53272(5)
H1 H 0.763(2) 0.897(2) 0.5054(19)
B1 B 0.2961(3) 0.9177(3) 0.4577(2)
H2 H 0.298(2) 0.973(3) 0.497(2)
C1 C 0.6179(2) 0.8368(3) 0.5510(2)
H3 H 0.5933 0.7829 0.5731
H4 H 0.6145 0.8869 0.5844
C2 C 0.5602(2) 0.8593(3) 0.4839(2)
H5 H 0.5849 0.9130 0.4615
H6 H 0.5630 0.8090 0.4505
C3 C 0.4625(2) 0.8764(3) 0.5004(2)
H7 H 0.4606 0.9266 0.5339
H8 H 0.4391 0.8228 0.5237
C4 C 0.3999(2) 0.8985(3) 0.4363(2)
H9 H 0.4003 0.8480 0.4030
H10 H 0.4231 0.9518 0.4125
C5 C 0.8130(2) 0.7932(3) 0.6061(2)
C6 C 0.9054(2) 0.7895(3) 0.5903(2)
C7 C 0.9692(3) 0.7708(3) 0.6447(2)
H11 H 1.0307 0.7682 0.6343
C8 C 0.9461(3) 0.7559(3) 0.7132(2)
C9 C 0.8568(3) 0.7614(3) 0.7274(2)
H12 H 0.8407 0.7526 0.7742
C10 C 0.7883(3) 0.7791(3) 0.6768(2)
C11 C 0.9385(3) 0.8054(4) 0.5174(2)
H13 H 1.0040 0.8007 0.5187
H14 H 0.9204 0.8652 0.5014
H15 H 0.9124 0.7606 0.4852
C12 C 1.0186(3) 0.7365(4) 0.7703(2)
H16 H 1.0773 0.7346 0.7497
H17 H 1.0065 0.6788 0.7921
H18 H 1.0184 0.7837 0.8057
C13 C 0.6926(3) 0.7828(4) 0.7011(2)
H19 H 0.6510 0.7944 0.6610
H20 H 0.6877 0.8307 0.7355
H21 H 0.6775 0.7256 0.7225
C14 C 0.7390(2) 0.7357(3) 0.46288(19)
C15 C 0.7276(3) 0.6441(3) 0.4780(2)
C16 C 0.7251(3) 0.5824(3) 0.4224(2)
H22 H 0.7170 0.5208 0.4322
C17 C 0.7343(3) 0.6095(3) 0.3528(2)
C18 C 0.7467(3) 0.6996(3) 0.3399(2)
H23 H 0.7541 0.7181 0.2931
C19 C 0.7489(2) 0.7650(3) 0.3924(2)
C20 C 0.7181(3) 0.6078(3) 0.5516(2)
H24 H 0.7105 0.5428 0.5496
H25 H 0.6657 0.6349 0.5720
H26 H 0.7720 0.6223 0.5805
C21 C 0.7288(4) 0.5414(4) 0.2932(3)
H27 H 0.7371 0.5720 0.2488
H28 H 0.6699 0.5124 0.2917
H29 H 0.7757 0.4963 0.3010
C22 C 0.7613(3) 0.8620(3) 0.3710(2)
H30 H 0.7659 0.8654 0.3202
H31 H 0.8163 0.8857 0.3941
H32 H 0.7099 0.8973 0.3848
C23 C 0.2555(2) 0.8275(3) 0.49481(19)
F1 F 0.24450(18) 0.74823(18) 0.38731(12)
C24 C 0.2336(3) 0.7510(3) 0.4583(2)
C25 C 0.1992(3) 0.6737(3) 0.4880(3)
F2 F 0.1784(2) 0.6013(2) 0.4476(2)
F3 F 0.1527(2) 0.5982(3) 0.5887(2)
C26 C 0.1877(3) 0.6735(4) 0.5588(3)
F4 F 0.1996(2) 0.7427(3) 0.66840(15)
C27 C 0.2104(3) 0.7470(5) 0.5984(2)
F5 F 0.2608(2) 0.8920(3) 0.60995(14)
C28 C 0.2422(3) 0.8212(4) 0.5665(2)
C29 C 0.2233(3) 0.9497(3) 0.3946(2)
F6 F 0.11041(15) 0.9610(2) 0.47820(14)
C30 C 0.1340(3) 0.9678(3) 0.4100(2)
F7 F -0.01837(16) 1.0085(2) 0.38215(17)
C31 C 0.0673(3) 0.9932(3) 0.3622(3)
F8 F 0.0212(2) 1.0284(2) 0.24486(17)
C32 C 0.0868(3) 1.0028(4) 0.2934(3)
F9 F 0.1936(3) 0.9976(3) 0.20618(16)
C33 C 0.1725(4) 0.9873(4) 0.2739(2)
F10 F 0.32160(19) 0.9470(2) 0.29980(14)
C34 C 0.2383(3) 0.9615(3) 0.3242(2)
C35 C -0.0117(5) 0.6104(6) 0.2863(6)
C36 C -0.0451(5) 0.6330(7) 0.2197(5)
H33 H -0.0573 0.5880 0.1857
C37 C -0.0600(5) 0.7194(8) 0.2042(5)
H34 H -0.0826 0.7345 0.1585
C38 C -0.0436(5) 0.7873(6) 0.2523(5)
H35 H -0.0548 0.8480 0.2403
C39 C -0.0106(5) 0.7637(6) 0.3179(4)
H36 H 0.0019 0.8088 0.3519
C40 C 0.0042(4) 0.6775(6) 0.3347(4)
H37 H 0.0260 0.6626 0.3806
C41 C 0.0058(7) 0.5149(8) 0.3044(6)
H38 H 0.0293 0.5107 0.3529
H39 H 0.0498 0.4903 0.2734
H40 H -0.0502 0.4810 0.2989
C42? C 0.4862(8) 0.5343(6) 0.4661(6)
C43? C 0.4837(8) 0.5280(6) 0.5390(6)
H41? H 0.4600 0.5757 0.5650
C44? C 0.5212(6) 0.4637(7) 0.4277(4)
H42? H 0.5230 0.4679 0.3783
C45? C 0.5537(5) 0.3867(5) 0.4622(5)
H43? H 0.5774 0.3389 0.4363
C46? C 0.5512(7) 0.3803(6) 0.5352(5)
H44? H 0.5732 0.3282 0.5586
C47? C 0.5162(8) 0.4510(8) 0.5736(4)
H45? H 0.5145 0.4467 0.6229
C48? C 0.452(2) 0.614(2) 0.4361(16)
H46? H 0.4317 0.6535 0.4729
H47? H 0.4022 0.6006 0.4030
H48? H 0.4998 0.6444 0.4115
loop_
_geom_bond_atom_site_label_1
_geom_bond_atom_site_label_2
_geom_bond_site_symmetry_1
_geom_bond_site_symmetry_2
P1 H1 1_555 1_555
B1 H2 1_555 1_555
C1 P1 1_555 1_555
H3 C1 1_555 1_555
H4 C1 1_555 1_555
C2 C1 1_555 1_555
H5 C2 1_555 1_555
H6 C2 1_555 1_555
C3 C2 1_555 1_555
H7 C3 1_555 1_555
H8 C3 1_555 1_555
C4 B1 1_555 1_555
H9 C4 1_555 1_555
H10 C4 1_555 1_555
C5 P1 1_555 1_555
C6 C5 1_555 1_555
C7 C6 1_555 1_555
H11 C7 1_555 1_555
C8 C7 1_555 1_555
C9 C8 1_555 1_555
H12 C9 1_555 1_555
C10 C5 1_555 1_555
C11 C6 1_555 1_555
H13 C11 1_555 1_555
H14 C11 1_555 1_555
H15 C11 1_555 1_555
C12 C8 1_555 1_555
H16 C12 1_555 1_555
H17 C12 1_555 1_555
H18 C12 1_555 1_555
C13 C10 1_555 1_555
H19 C13 1_555 1_555
H20 C13 1_555 1_555
H21 C13 1_555 1_555
C14 P1 1_555 1_555
C15 C14 1_555 1_555
C16 C15 1_555 1_555
H22 C16 1_555 1_555
C17 C16 1_555 1_555
C18 C17 1_555 1_555
H23 C18 1_555 1_555
C19 C14 1_555 1_555
C20 C15 1_555 1_555
H24 C20 1_555 1_555
H25 C20 1_555 1_555
H26 C20 1_555 1_555
C21 C17 1_555 1_555
H27 C21 1_555 1_555
H28 C21 1_555 1_555
H29 C21 1_555 1_555
C22 C19 1_555 1_555
H30 C22 1_555 1_555
H31 C22 1_555 1_555
H32 C22 1_555 1_555
C23 B1 1_555 1_555
F1 C24 1_555 1_555
C24 C23 1_555 1_555
C25 C24 1_555 1_555
F2 C25 1_555 1_555
F3 C26 1_555 1_555
C26 C25 1_555 1_555
F4 C27 1_555 1_555
C27 C26 1_555 1_555
F5 C28 1_555 1_555
C28 C23 1_555 1_555
C29 B1 1_555 1_555
F6 C30 1_555 1_555
C30 C29 1_555 1_555
F7 C31 1_555 1_555
C31 C30 1_555 1_555
F8 C32 1_555 1_555
C32 C31 1_555 1_555
F9 C33 1_555 1_555
C33 C32 1_555 1_555
F10 C34 1_555 1_555
C34 C29 1_555 1_555
C35 C36 1_555 1_555
C36 H33 1_555 1_555
C37 C36 1_555 1_555
H34 C37 1_555 1_555
C38 C37 1_555 1_555
H35 C38 1_555 1_555
C39 C38 1_555 1_555
H36 C39 1_555 1_555
C40 C35 1_555 1_555
H37 C40 1_555 1_555
C41 C35 1_555 1_555
H38 C41 1_555 1_555
H39 C41 1_555 1_555
H40 C41 1_555 1_555
C3 C4 1_555 1_555
C9 C10 1_555 1_555
C18 C19 1_555 1_555
C27 C28 1_555 1_555
C33 C34 1_555 1_555
C39 C40 1_555 1_555

#END
