
#######################################################################
#
#                 Cambridge Crystallographic Data Centre
#                                CCDC 
#
#######################################################################
#
# If this CIF has been generated from an entry in the Cambridge 
# Structural Database, then it will include bibliographic, chemical, 
# crystal, experimental, refinement or atomic coordinate data resulting 
# from the CCDC's data processing and validation procedures.
#
#######################################################################

data_RIZYUV
_chemical_compound_source        'Venom of social wasp Polistes jadwagae'
_chemical_name_common            'Mastoparan amide'
_chemical_formula_moiety         
'6(C77 H128 N21 O18 1+),2(C77 H127 N21 O18),3(O4 S1 2-),144(H2 O1)'
_chemical_name_systematic        
'octakis(Valyl-aspartyl-tryptophyl-lysyl-lysyl-isoleucyl-glycyl-glutaminyl-histidyl-isoleucyl-leucyl-seryl-valyl-leucine amide) tris(sulfate) hydrate'
_chemical_properties_biological  'induces histamine release from mast cells'
_symmetry_cell_setting           monoclinic
_symmetry_space_group_name_H-M   'P 21'
_symmetry_Int_Tables_number      4
_space_group_name_Hall           'P 2yb'
loop_
_symmetry_equiv_pos_site_id
_symmetry_equiv_pos_as_xyz
1 x,y,z
2 -x,1/2+y,-z
_cell_length_a                   22.1
_cell_length_b                   59.5
_cell_length_c                   37.2
_cell_angle_alpha                90
_cell_angle_beta                 101.4
_cell_angle_gamma                90
_cell_volume                     47951.1
_exptl_crystal_colour            colorless
_cell_formula_units_Z            2
_exptl_crystal_recrystallization_method water
loop_
_atom_site_label
_atom_site_type_symbol
_atom_site_fract_x
_atom_site_fract_y
_atom_site_fract_z
N1 N 0.64183 -0.16312 0.86814
C1 C 0.61238 -0.14312 0.84995
C2 C 0.66028 -0.12755 0.83750
C3 C 0.62893 -0.10659 0.81917
C4 C 0.71004 -0.12118 0.87028
C5 C 0.56370 -0.14970 0.81651
O1 O 0.57480 -0.16413 0.79500
N2 N 0.50988 -0.13909 0.81239
C6 C 0.45934 -0.14379 0.78161
C7 C 0.39811 -0.13675 0.79124
C8 C 0.34317 -0.14770 0.76679
O2 O 0.34747 -0.15339 0.73502
O3 O 0.29534 -0.15046 0.77933
C9 C 0.47023 -0.13027 0.74860
O4 O 0.43820 -0.11371 0.73777
N3 N 0.51517 -0.13746 0.73255
C10 C 0.53086 -0.12545 0.70161
C11 C 0.58612 -0.13645 0.68967
C12 C 0.64204 -0.13776 0.71977
C13 C 0.67906 -0.11934 0.73653
C14 C 0.72613 -0.12849 0.76380
C15 C 0.67700 -0.09603 0.73115
C16 C 0.66753 -0.15672 0.73705
N4 N 0.71800 -0.15129 0.76353
C17 C 0.77093 -0.11514 0.78575
C18 C 0.72159 -0.08271 0.75299
C19 C 0.76788 -0.09237 0.77996
C20 C 0.47833 -0.12306 0.66865
O5 O 0.47260 -0.10563 0.65060
N5 N 0.43985 -0.14031 0.66053
C21 C 0.38891 -0.13887 0.62912
C22 C 0.35751 -0.16166 0.62070
C23 C 0.30714 -0.16090 0.58648
C24 C 0.27797 -0.18361 0.57636
C25 C 0.22672 -0.18151 0.54261
N6 N 0.19639 -0.20337 0.53117
C26 C 0.34082 -0.12149 0.63450
O6 O 0.32149 -0.10753 0.61046
N7 N 0.32125 -0.12228 0.66599
C27 C 0.27528 -0.10642 0.67368
C28 C 0.26120 -0.11112 0.71162
C29 C 0.20912 -0.09719 0.72089
C30 C 0.19579 -0.10392 0.75796
C31 C 0.14119 -0.09104 0.76633
N8 N 0.08564 -0.09455 0.73705
C32 C 0.29952 -0.08256 0.67222
O7 O 0.26646 -0.06736 0.65666
N9 N 0.35775 -0.07938 0.68877
C33 C 0.38747 -0.05757 0.68956
C34 C 0.45117 -0.05826 0.71576
C35 C 0.48769 -0.03713 0.71159
C36 C 0.44251 -0.06120 0.75533
C37 C 0.50149 -0.06652 0.78230
C38 C 0.39561 -0.05052 0.65129
O8 O 0.37991 -0.03166 0.63913
N10 N 0.41992 -0.06587 0.63241
C39 C 0.43099 -0.06105 0.59600
C40 C 0.37348 -0.05607 0.56752
O9 O 0.37322 -0.04079 0.54514
N11 N 0.32436 -0.06889 0.56774
C41 C 0.26732 -0.06482 0.54135
C42 C 0.21830 -0.08219 0.54544
C43 C 0.22985 -0.10484 0.52988
C44 C 0.17653 -0.12073 0.52892
O10 O 0.15985 -0.12620 0.55729
N12 N 0.14917 -0.12820 0.49611
C45 C 0.24389 -0.04136 0.54670
O11 O 0.22115 -0.02961 0.52017
N13 N 0.24984 -0.03428 0.58102
C46 C 0.22872 -0.01194 0.58774
C47 C 0.22703 -0.00831 0.62805
C48 C 0.20038 0.01394 0.63499
C49 C 0.22587 0.03214 0.65389
N14 N 0.14092 0.01992 0.61921
C50 C 0.13098 0.04089 0.62805
N15 N 0.18175 0.04870 0.64906
C51 C 0.26931 0.00600 0.57556
O12 O 0.24627 0.02309 0.55984
N16 N 0.32973 0.00237 0.58294
C52 C 0.37128 0.01864 0.57175
C53 C 0.43890 0.01097 0.58338
C54 C 0.48084 0.02491 0.56401
C55 C 0.45831 0.01296 0.62517
C56 C 0.52102 0.00327 0.64078
C57 C 0.35429 0.02215 0.53032
O13 O 0.35545 0.04108 0.51712
N17 N 0.33748 0.00418 0.50955
C58 C 0.31985 0.00684 0.46985
C59 C 0.30770 -0.01592 0.45045
C60 C 0.36364 -0.03145 0.45276
C61 C 0.34449 -0.05230 0.42955
C62 C 0.41629 -0.01925 0.43992
C63 C 0.26258 0.02171 0.46027
O14 O 0.25867 0.03594 0.43588
N18 N 0.21831 0.01883 0.47945
C64 C 0.16272 0.03273 0.47166
C65 C 0.11618 0.02543 0.49501
O15 O 0.13167 0.03369 0.53139
C66 C 0.17927 0.05740 0.47877
O16 O 0.15315 0.07215 0.45808
N19 N 0.22265 0.06177 0.50812
C68 C 0.24301 0.08456 0.51811
C69 C 0.29006 0.08474 0.55496
C70 C 0.31545 0.10830 0.56352
C71 C 0.25929 0.07631 0.58566
C72 C 0.27197 0.09535 0.48837
O18 O 0.26280 0.11531 0.48036
N20 N 0.30665 0.08217 0.47188
C73 C 0.33667 0.09082 0.44313
C74 C 0.38483 0.07401 0.43498
C75 C 0.43934 0.06985 0.46680
C76 C 0.48233 0.05230 0.45602
C77 C 0.47373 0.09179 0.47742
C78 C 0.29003 0.09589 0.40817
O19 O 0.30125 0.11003 0.38622
N21 N 0.23724 0.08461 0.40269
N22 N -0.08939 0.21565 0.70663
C79 C -0.09701 0.19491 0.68536
C80 C -0.13628 0.17781 0.70191
C81 C -0.14292 0.15616 0.67977
C82 C -0.10676 0.17321 0.74174
C83 C -0.12848 0.19968 0.64577
O20 O -0.17680 0.21054 0.63891
N23 N -0.10095 0.19163 0.61974
C84 C -0.12705 0.19518 0.58091
C85 C -0.07672 0.19422 0.55811
C86 C -0.09771 0.20389 0.52000
O21 O -0.15219 0.20075 0.50412
O22 O -0.05977 0.21454 0.50582
C87 C -0.17453 0.17684 0.56832
O23 O -0.16057 0.15934 0.55405
N24 N -0.23091 0.18095 0.57375
C88 C -0.28014 0.16461 0.56376
C89 C -0.33592 0.17163 0.57971
C90 C -0.32372 0.16945 0.62059
C91 C -0.31983 0.14893 0.64097
C92 C -0.30401 0.15459 0.67850
C93 C -0.32809 0.12626 0.63109
C94 C -0.31076 0.18629 0.64583
N25 N -0.29879 0.17749 0.68073
C95 C -0.29626 0.13840 0.70627
C96 C -0.32039 0.11015 0.65872
C97 C -0.30461 0.11633 0.69584
C98 C -0.29900 0.16015 0.52283
O24 O -0.31858 0.14154 0.51164
N26 N -0.29295 0.17689 0.50028
C99 C -0.30933 0.17351 0.46080
C100 C -0.30456 0.19560 0.44049
C101 C -0.32490 0.19367 0.39906
C102 C -0.32329 0.21619 0.38000
C103 C -0.34759 0.21395 0.33887
N27 N -0.34518 0.23555 0.31906
C104 C -0.26628 0.15598 0.44949
O25 O -0.28630 0.14145 0.42666
N28 N -0.20714 0.15736 0.46565
C105 C -0.16171 0.14140 0.45731
C106 C -0.09642 0.14889 0.47512
C107 C -0.04549 0.13331 0.46779
C108 C 0.01804 0.14229 0.48535
C109 C 0.06887 0.12557 0.48250
N29 N 0.07159 0.12009 0.44381
C110 C -0.17477 0.11804 0.47089
O26 O -0.16817 0.10120 0.45284
N30 N -0.19271 0.11704 0.50294
C111 C -0.20851 0.09566 0.51778
C112 C -0.22499 0.09895 0.55597
C113 C -0.26689 0.08006 0.56407
C114 C -0.16553 0.10017 0.58503
C115 C -0.17475 0.10609 0.62305
C116 C -0.26355 0.08565 0.49098
O27 O -0.26504 0.06553 0.48283
N31 N -0.30844 0.09981 0.47679
C117 C -0.36222 0.09183 0.45108
C118 C -0.34570 0.08197 0.41665
O28 O -0.36915 0.06424 0.40362
N32 N -0.30518 0.09319 0.40156
C119 C -0.28764 0.08454 0.36844
C120 C -0.24944 0.10162 0.35182
C121 C -0.23234 0.09364 0.31588
C122 C -0.28815 0.08664 0.28666
O29 O -0.29975 0.06655 0.27933
N33 N -0.32295 0.10323 0.26989
C123 C -0.25208 0.06262 0.37607
O30 O -0.25971 0.04758 0.35300
N34 N -0.21321 0.06064 0.40814
C124 C -0.17884 0.03987 0.41709
C125 C -0.13407 0.04175 0.45388
C126 C -0.10055 0.02035 0.46554
C127 C -0.11767 0.00200 0.48253
N35 N -0.04304 0.01563 0.45846
C128 C -0.02625 -0.00472 0.47065
N36 N -0.07069 -0.01335 0.48535
C129 C -0.22371 0.02062 0.41895
O31 O -0.21963 0.00282 0.40285
N37 N -0.26651 0.02427 0.43876
C130 C -0.31183 0.00720 0.44255
C131 C -0.35560 0.01592 0.46716
C132 C -0.41199 0.00099 0.46362
C133 C -0.32058 0.01693 0.50697
C134 C -0.35386 0.02944 0.53284
C135 C -0.34833 0.00005 0.40507
O32 O -0.35691 -0.02002 0.39764
N38 N -0.36924 0.01629 0.38134
C136 C -0.40428 0.01098 0.34488
C137 C -0.43093 0.03241 0.32520
C138 C -0.48134 0.04427 0.34098
C139 C -0.50310 0.06509 0.31837
C140 C -0.53486 0.02825 0.34090
C141 C -0.36552 -0.00155 0.32164
O33 O -0.38846 -0.01679 0.30090
N39 N -0.30710 0.00475 0.32477
C142 C -0.26720 -0.00677 0.30386
C143 C -0.20420 0.00457 0.30948
O34 O -0.20600 0.02354 0.28641
C144 C -0.25901 -0.03135 0.31503
O35 O -0.26160 -0.04618 0.29176
N40 N -0.24910 -0.03569 0.35067
C145 C -0.24072 -0.05858 0.36430
C146 C -0.21550 -0.05868 0.40617
C147 C -0.21305 -0.08252 0.42101
C148 C -0.15131 -0.04823 0.41413
C149 C -0.30101 -0.07176 0.35462
O36 O -0.30095 -0.09161 0.34553
N41 N -0.35244 -0.06061 0.35621
C150 C -0.41296 -0.07126 0.34674
C151 C -0.46302 -0.05461 0.35220
C152 C -0.52984 -0.06232 0.33931
C153 C -0.54541 -0.08088 0.36433
C154 C -0.57261 -0.04234 0.33933
C155 C -0.42547 -0.07891 0.30671
O37 O -0.44781 -0.09757 0.29769
N42 N -0.41197 -0.06447 0.28224
S1 S 0.33750 -0.21143 0.44521
O38 O 0.35688 -0.19066 0.42891
O39 O 0.35226 -0.20935 0.48552
O40 O 0.27074 -0.21511 0.43265
O41 O 0.37122 -0.23070 0.43385
O42 O -0.08677 -0.05730 0.51144
O43 O 0.55117 -0.04989 -0.04415
O44 O 0.59356 0.04823 0.22388
O45 O -0.21897 -0.07562 0.19606
O46 O 0.57162 0.04214 0.11216
O47 O 0.18689 -0.14743 0.40603
O48 O -0.42055 -0.07577 0.65033
O49 O 0.34838 -0.04019 0.82781
O50 O -0.51506 -0.22020 0.50650
O51 O -0.21113 -0.03970 0.50420
C67? C 0.11768 0.02559 0.49583
O17? O 0.06765 0.04084 0.49240
loop_
_geom_bond_atom_site_label_1
_geom_bond_atom_site_label_2
_geom_bond_site_symmetry_1
_geom_bond_site_symmetry_2
N1 C1 1_555 1_555
C1 C2 1_555 1_555
C2 C3 1_555 1_555
C4 C2 1_555 1_555
C5 C1 1_555 1_555
O1 C5 1_555 1_555
N2 C5 1_555 1_555
C6 N2 1_555 1_555
C7 C6 1_555 1_555
C8 C7 1_555 1_555
O2 C8 1_555 1_555
O3 C8 1_555 1_555
C9 C6 1_555 1_555
O4 C9 1_555 1_555
N3 C9 1_555 1_555
C10 N3 1_555 1_555
C11 C10 1_555 1_555
C12 C11 1_555 1_555
C13 C12 1_555 1_555
C14 C13 1_555 1_555
C15 C13 1_555 1_555
C16 C12 1_555 1_555
N4 C14 1_555 1_555
C17 C14 1_555 1_555
C18 C15 1_555 1_555
C19 C17 1_555 1_555
C20 C10 1_555 1_555
O5 C20 1_555 1_555
N5 C20 1_555 1_555
C21 N5 1_555 1_555
C22 C21 1_555 1_555
C23 C22 1_555 1_555
C24 C23 1_555 1_555
C25 C24 1_555 1_555
N6 C25 1_555 1_555
C26 C21 1_555 1_555
O6 C26 1_555 1_555
N7 C26 1_555 1_555
C27 N7 1_555 1_555
C28 C27 1_555 1_555
C29 C28 1_555 1_555
C30 C29 1_555 1_555
C31 C30 1_555 1_555
N8 C31 1_555 1_555
C32 C27 1_555 1_555
O7 C32 1_555 1_555
N9 C32 1_555 1_555
C33 N9 1_555 1_555
C34 C33 1_555 1_555
C35 C34 1_555 1_555
C36 C34 1_555 1_555
C37 C36 1_555 1_555
C38 C33 1_555 1_555
O8 C38 1_555 1_555
N10 C38 1_555 1_555
C39 N10 1_555 1_555
C40 C39 1_555 1_555
O9 C40 1_555 1_555
N11 C40 1_555 1_555
C41 N11 1_555 1_555
C42 C41 1_555 1_555
C43 C42 1_555 1_555
C44 C43 1_555 1_555
O10 C44 1_555 1_555
N12 C44 1_555 1_555
C45 C41 1_555 1_555
O11 C45 1_555 1_555
N13 C45 1_555 1_555
C46 N13 1_555 1_555
C47 C46 1_555 1_555
C48 C47 1_555 1_555
C49 C48 1_555 1_555
N14 C48 1_555 1_555
C50 N14 1_555 1_555
N15 C49 1_555 1_555
C51 C46 1_555 1_555
O12 C51 1_555 1_555
N16 C51 1_555 1_555
C52 N16 1_555 1_555
C53 C52 1_555 1_555
C54 C53 1_555 1_555
C55 C53 1_555 1_555
C56 C55 1_555 1_555
C57 C52 1_555 1_555
O13 C57 1_555 1_555
N17 C57 1_555 1_555
C58 N17 1_555 1_555
C59 C58 1_555 1_555
C60 C59 1_555 1_555
C61 C60 1_555 1_555
C62 C60 1_555 1_555
C63 C58 1_555 1_555
O14 C63 1_555 1_555
N18 C63 1_555 1_555
C64 N18 1_555 1_555
C65 C64 1_555 1_555
O15 C65 1_555 1_555
C66 C64 1_555 1_555
O16 C66 1_555 1_555
N19 C66 1_555 1_555
C68 N19 1_555 1_555
C69 C68 1_555 1_555
C70 C69 1_555 1_555
C71 C69 1_555 1_555
C72 C68 1_555 1_555
O18 C72 1_555 1_555
N20 C72 1_555 1_555
C73 N20 1_555 1_555
C74 C73 1_555 1_555
C75 C74 1_555 1_555
C76 C75 1_555 1_555
C77 C75 1_555 1_555
C78 C73 1_555 1_555
O19 C78 1_555 1_555
N21 C78 1_555 1_555
N22 C79 1_555 1_555
C79 C80 1_555 1_555
C80 C81 1_555 1_555
C82 C80 1_555 1_555
C83 C79 1_555 1_555
O20 C83 1_555 1_555
N23 C83 1_555 1_555
C84 N23 1_555 1_555
C85 C84 1_555 1_555
C86 C85 1_555 1_555
O21 C86 1_555 1_555
O22 C86 1_555 1_555
C87 C84 1_555 1_555
O23 C87 1_555 1_555
N24 C87 1_555 1_555
C88 N24 1_555 1_555
C89 C88 1_555 1_555
C90 C89 1_555 1_555
C91 C90 1_555 1_555
C92 C91 1_555 1_555
C93 C91 1_555 1_555
C94 C90 1_555 1_555
N25 C92 1_555 1_555
C95 C92 1_555 1_555
C96 C93 1_555 1_555
C97 C95 1_555 1_555
C98 C88 1_555 1_555
O24 C98 1_555 1_555
N26 C98 1_555 1_555
C99 N26 1_555 1_555
C100 C99 1_555 1_555
C101 C100 1_555 1_555
C102 C101 1_555 1_555
C103 C102 1_555 1_555
N27 C103 1_555 1_555
C104 C99 1_555 1_555
O25 C104 1_555 1_555
N28 C104 1_555 1_555
C105 N28 1_555 1_555
C106 C105 1_555 1_555
C107 C106 1_555 1_555
C108 C107 1_555 1_555
C109 C108 1_555 1_555
N29 C109 1_555 1_555
C110 C105 1_555 1_555
O26 C110 1_555 1_555
N30 C110 1_555 1_555
C111 N30 1_555 1_555
C112 C111 1_555 1_555
C113 C112 1_555 1_555
C114 C112 1_555 1_555
C115 C114 1_555 1_555
C116 C111 1_555 1_555
O27 C116 1_555 1_555
N31 C116 1_555 1_555
C117 N31 1_555 1_555
C118 C117 1_555 1_555
O28 C118 1_555 1_555
N32 C118 1_555 1_555
C119 N32 1_555 1_555
C120 C119 1_555 1_555
C121 C120 1_555 1_555
C122 C121 1_555 1_555
O29 C122 1_555 1_555
N33 C122 1_555 1_555
C123 C119 1_555 1_555
O30 C123 1_555 1_555
N34 C123 1_555 1_555
C124 N34 1_555 1_555
C125 C124 1_555 1_555
C126 C125 1_555 1_555
C127 C126 1_555 1_555
N35 C126 1_555 1_555
C128 N35 1_555 1_555
N36 C127 1_555 1_555
C129 C124 1_555 1_555
O31 C129 1_555 1_555
N37 C129 1_555 1_555
C130 N37 1_555 1_555
C131 C130 1_555 1_555
C132 C131 1_555 1_555
C133 C131 1_555 1_555
C134 C133 1_555 1_555
C135 C130 1_555 1_555
O32 C135 1_555 1_555
N38 C135 1_555 1_555
C136 N38 1_555 1_555
C137 C136 1_555 1_555
C138 C137 1_555 1_555
C139 C138 1_555 1_555
C140 C138 1_555 1_555
C141 C136 1_555 1_555
O33 C141 1_555 1_555
N39 C141 1_555 1_555
C142 N39 1_555 1_555
C143 C142 1_555 1_555
O34 C143 1_555 1_555
C144 C142 1_555 1_555
O35 C144 1_555 1_555
N40 C144 1_555 1_555
C145 N40 1_555 1_555
C146 C145 1_555 1_555
C147 C146 1_555 1_555
C148 C146 1_555 1_555
C149 C145 1_555 1_555
O36 C149 1_555 1_555
N41 C149 1_555 1_555
C150 N41 1_555 1_555
C151 C150 1_555 1_555
C152 C151 1_555 1_555
C153 C152 1_555 1_555
C154 C152 1_555 1_555
C155 C150 1_555 1_555
O37 C155 1_555 1_555
N42 C155 1_555 1_555
S1 O38 1_555 1_555
O39 S1 1_555 1_555
O40 S1 1_555 1_555
O41 S1 1_555 1_555
C16 N4 1_555 1_555
C18 C19 1_555 1_555
C50 N15 1_555 1_555
C94 N25 1_555 1_555
C96 C97 1_555 1_555
C128 N36 1_555 1_555

#END
