
#######################################################################
#
#                 Cambridge Crystallographic Data Centre
#                                CCDC 
#
#######################################################################
#
# If this CIF has been generated from an entry in the Cambridge 
# Structural Database, then it will include bibliographic, chemical, 
# crystal, experimental, refinement or atomic coordinate data resulting 
# from the CCDC's data processing and validation procedures.
#
#######################################################################

data_RIZZOQ
_chemical_formula_moiety         'C28 H36 D16 Li4 N8 O2'
_chemical_name_systematic        
bis(\m~3~-N^1^-methyl-N^2^-((1E,2E)-1-methyl-2-(1-methylimidazolidin-2-ylidene)ethylidene)ethane-1,2-diamine)-bis(perdeuterotetrahydrofuran-O)-tetra-lithium
_symmetry_cell_setting           triclinic
_symmetry_space_group_name_H-M   'P -1'
_symmetry_Int_Tables_number      2
_space_group_name_Hall           '-P 1'
loop_
_symmetry_equiv_pos_site_id
_symmetry_equiv_pos_as_xyz
1 x,y,z
2 -x,-y,-z
_cell_length_a                   8.6775(10)
_cell_length_b                   9.8895(11)
_cell_length_c                   10.8199(13)
_cell_angle_alpha                97.506(2)
_cell_angle_beta                 90.229(2)
_cell_angle_gamma                110.682(2)
_cell_volume                     859.981
_exptl_crystal_colour            colorless
_exptl_crystal_description       block
_cell_formula_units_Z            1
loop_
_atom_site_label
_atom_site_type_symbol
_atom_site_fract_x
_atom_site_fract_y
_atom_site_fract_z
N1 N 0.7532(2) 0.33452(18) 0.77601(17)
N2 N 0.7601(2) 0.13016(17) 0.65993(15)
N3 N 0.9661(2) 0.00665(19) 0.75467(16)
N4 N 0.8767(2) -0.16144(17) 0.53606(16)
C1 C 0.8219(2) 0.2259(2) 0.76212(18)
C2 C 0.6775(5) 0.3325(3) 0.6565(3)
C3 C 0.6392(4) 0.1755(3) 0.5989(3)
C4 C 0.9429(3) 0.2257(3) 0.8481(2)
C5 C 0.8316(5) 0.4741(3) 0.8526(3)
C6 C 1.0194(3) 0.1223(2) 0.83801(19)
C7 C 1.1677(5) 0.1507(5) 0.9253(4)
C8 C 1.0498(4) -0.0967(3) 0.7290(3)
C9 C 0.9400(4) -0.2198(3) 0.6320(3)
C10 C 0.7767(4) -0.2816(3) 0.4449(3)
O1 O 0.5365(2) -0.19277(17) 0.73254(16)
C11 C 0.4395(4) -0.3426(3) 0.7141(3)
D1 D 0.5071 -0.4008 0.7236
D2 D 0.3854 -0.3713 0.6312
C12 C 0.3195(12) -0.3622(13) 0.8078(12)
D3 D 0.2159 -0.3634 0.7728
D4 D 0.3001 -0.4540 0.8392
C13 C 0.3840(4) -0.2426(4) 0.9066(3)
D5 D 0.4466 -0.2661 0.9696
D6 D 0.2963 -0.2163 0.9457
C14 C 0.4913(3) -0.1244(3) 0.8421(3)
D7 D 0.4327 -0.0625 0.8212
D8 D 0.5885 -0.0649 0.8949
Li1 Li 0.7387(4) -0.0821(4) 0.6668(3)
Li2 Li 0.9443(4) 0.0668(4) 0.5762(3)
H1 H 0.582(3) 0.356(3) 0.664(2)
H2 H 0.644(3) 0.162(2) 0.507(2)
H3 H 0.525(3) 0.116(3) 0.619(2)
H4 H 0.984(2) 0.298(2) 0.9109(18)
H5 H 0.865(3) 0.468(3) 0.941(3)
H6 H 1.260(4) 0.166(4) 0.878(3)
H7 H 1.187(4) 0.236(4) 0.979(3)
H8 H 1.073(3) -0.133(2) 0.802(2)
H9 H 1.165(3) -0.047(2) 0.6952(19)
H10 H 0.724(3) -0.252(3) 0.374(3)
H11 H 0.672(3) -0.357(3) 0.483(2)
H12 H 0.843(3) -0.339(3) 0.412(2)
H13 H 0.756(4) 0.399(4) 0.609(3)
H14 H 0.769(3) 0.532(3) 0.854(2)
H15 H 1.006(3) -0.282(3) 0.599(2)
H16 H 1.161(4) 0.073(4) 0.961(3)
H17 H 0.936(3) 0.526(2) 0.814(2)
H18 H 0.840(3) -0.289(2) 0.678(2)
N1A N 1.2468(2) -0.33452(18) 0.22399(17)
N2A N 1.2399(2) -0.13016(17) 0.34007(15)
N3A N 1.0339(2) -0.00665(19) 0.24533(16)
N4A N 1.1233(2) 0.16144(17) 0.46394(16)
C1A C 1.1781(2) -0.2259(2) 0.23788(18)
C2A C 1.3225(5) -0.3325(3) 0.3435(3)
C3A C 1.3608(4) -0.1755(3) 0.4011(3)
C4A C 1.0571(3) -0.2257(3) 0.1519(2)
C5A C 1.1684(5) -0.4741(3) 0.1474(3)
C6A C 0.9806(3) -0.1223(2) 0.16199(19)
C7A C 0.8323(5) -0.1507(5) 0.0747(4)
C8A C 0.9502(4) 0.0967(3) 0.2710(3)
C9A C 1.0600(4) 0.2198(3) 0.3680(3)
C10A C 1.2233(4) 0.2816(3) 0.5551(3)
O1A O 1.4635(2) 0.19277(17) 0.26746(16)
C11A C 1.5605(4) 0.3426(3) 0.2859(3)
D1A D 1.4929 0.4008 0.2764
D2A D 1.6146 0.3713 0.3688
C12A C 1.6805(12) 0.3622(13) 0.1922(12)
D3A D 1.7841 0.3634 0.2272
D4A D 1.6999 0.4540 0.1608
C13A C 1.6160(4) 0.2426(4) 0.0934(3)
D5A D 1.5534 0.2661 0.0304
D6A D 1.7037 0.2163 0.0543
C14A C 1.5087(3) 0.1244(3) 0.1579(3)
D7A D 1.5673 0.0625 0.1788
D8A D 1.4115 0.0649 0.1051
Li1A Li 1.2613(4) 0.0821(4) 0.3332(3)
Li2A Li 1.0557(4) -0.0668(4) 0.4238(3)
H1A H 1.418(3) -0.356(3) 0.336(2)
H2A H 1.356(3) -0.162(2) 0.493(2)
H3A H 1.475(3) -0.116(3) 0.381(2)
H4A H 1.016(2) -0.298(2) 0.0891(18)
H5A H 1.135(3) -0.468(3) 0.059(3)
H6A H 0.740(4) -0.166(4) 0.122(3)
H7A H 0.813(4) -0.236(4) 0.021(3)
H8A H 0.927(3) 0.133(2) 0.198(2)
H9A H 0.835(3) 0.047(2) 0.3048(19)
H10A H 1.276(3) 0.252(3) 0.626(3)
H11A H 1.328(3) 0.357(3) 0.517(2)
H12A H 1.157(3) 0.339(3) 0.588(2)
H13A H 1.244(4) -0.399(4) 0.391(3)
H14A H 1.231(3) -0.532(3) 0.146(2)
H15A H 0.994(3) 0.282(3) 0.401(2)
H16A H 0.839(4) -0.073(4) 0.039(3)
H17A H 1.064(3) -0.526(2) 0.186(2)
H18A H 1.160(3) 0.289(2) 0.322(2)
D9? D 0.3409 -0.3608 0.6621
D10? D 0.5012 -0.3995 0.6743
C15? C 0.3958(10) -0.3807(11) 0.8404(10)
D11? D 0.4808 -0.4057 0.8798
D12? D 0.2914 -0.4613 0.8377
D13? D 0.2711 -0.2460 0.9023
D14? D 0.4213 -0.2278 0.9936
D15? D 0.4327 -0.0624 0.8213
D16? D 0.5885 -0.0650 0.8949
loop_
_geom_bond_atom_site_label_1
_geom_bond_atom_site_label_2
_geom_bond_site_symmetry_1
_geom_bond_site_symmetry_2
N1 C1 1_555 1_555
N2 C1 1_555 1_555
N3 C6 1_555 1_555
N4 C9 1_555 1_555
C1 C4 1_555 1_555
C2 N1 1_555 1_555
C3 N2 1_555 1_555
C4 C6 1_555 1_555
C5 N1 1_555 1_555
C6 C7 1_555 1_555
C7 H6 1_555 1_555
C8 N3 1_555 1_555
C9 C8 1_555 1_555
C10 N4 1_555 1_555
O1 C11 1_555 1_555
C11 D1 1_555 1_555
D2 C11 1_555 1_555
C12 C11 1_555 1_555
D3 C12 1_555 1_555
D4 C12 1_555 1_555
C13 C12 1_555 1_555
D5 C13 1_555 1_555
D6 C13 1_555 1_555
C14 O1 1_555 1_555
D7 C14 1_555 1_555
D8 C14 1_555 1_555
Li1 N2 1_555 1_555
Li2 N2 1_555 1_555
H1 C2 1_555 1_555
H2 C3 1_555 1_555
H3 C3 1_555 1_555
H4 C4 1_555 1_555
H5 C5 1_555 1_555
H7 C7 1_555 1_555
H8 C8 1_555 1_555
H9 C8 1_555 1_555
H10 C10 1_555 1_555
H11 C10 1_555 1_555
H12 C10 1_555 1_555
H13 C2 1_555 1_555
H14 C5 1_555 1_555
H15 C9 1_555 1_555
H16 C7 1_555 1_555
H17 C5 1_555 1_555
H18 C9 1_555 1_555
N1A C1A 1_555 1_555
N2A C1A 1_555 1_555
N3A C6A 1_555 1_555
N4A Li2 1_555 1_555
C1A C4A 1_555 1_555
C2A N1A 1_555 1_555
C3A N2A 1_555 1_555
C4A C6A 1_555 1_555
C5A N1A 1_555 1_555
C6A C7A 1_555 1_555
C7A H6A 1_555 1_555
C8A N3A 1_555 1_555
C9A N4A 1_555 1_555
C10A N4A 1_555 1_555
O1A C11A 1_555 1_555
C11A D1A 1_555 1_555
D2A C11A 1_555 1_555
C12A C11A 1_555 1_555
D3A C12A 1_555 1_555
D4A C12A 1_555 1_555
C13A C12A 1_555 1_555
D5A C13A 1_555 1_555
D6A C13A 1_555 1_555
C14A O1A 1_555 1_555
D7A C14A 1_555 1_555
D8A C14A 1_555 1_555
Li1A N2A 1_555 1_555
Li2A N4 1_555 1_555
H1A C2A 1_555 1_555
H2A C3A 1_555 1_555
H3A C3A 1_555 1_555
H4A C4A 1_555 1_555
H5A C5A 1_555 1_555
H7A C7A 1_555 1_555
H8A C8A 1_555 1_555
H9A C8A 1_555 1_555
H10A C10A 1_555 1_555
H11A C10A 1_555 1_555
H12A C10A 1_555 1_555
H13A C2A 1_555 1_555
H14A C5A 1_555 1_555
H15A C9A 1_555 1_555
H16A C7A 1_555 1_555
H17A C5A 1_555 1_555
H18A C9A 1_555 1_555
N3 Li1 1_555 1_555
N3 Li2 1_555 1_555
N4 Li1 1_555 1_555
N4 Li2 1_555 1_555
C2 C3 1_555 1_555
O1 Li1 1_555 1_555
C13 C14 1_555 1_555
Li1 Li2 1_555 1_555
Li2 Li2A 1_555 1_555
N2A Li2A 1_555 1_555
N3A Li1A 1_555 1_555
N3A Li2A 1_555 1_555
N4A Li1A 1_555 1_555
N4A Li2A 1_555 1_555
C2A C3A 1_555 1_555
C8A C9A 1_555 1_555
O1A Li1A 1_555 1_555
C13A C14A 1_555 1_555
Li1A Li2A 1_555 1_555

#END
