
#######################################################################
#
#                 Cambridge Crystallographic Data Centre
#                                CCDC 
#
#######################################################################
#
# If this CIF has been generated from an entry in the Cambridge 
# Structural Database, then it will include bibliographic, chemical, 
# crystal, experimental, refinement or atomic coordinate data resulting 
# from the CCDC's data processing and validation procedures.
#
#######################################################################

data_ROBBOB
_chemical_formula_moiety         'C31 H27 N7'
_chemical_name_systematic        
2,2'-(Pyridine-2,6-diylbis(methylylidene(1-methylhydrazin-1-yl-2-ylidene)))bis(6-phenylpyridine)
_symmetry_cell_setting           monoclinic
_symmetry_space_group_name_H-M   'C 2/c'
_symmetry_Int_Tables_number      15
_space_group_name_Hall           '-C 2yn'
loop_
_symmetry_equiv_pos_site_id
_symmetry_equiv_pos_as_xyz
1 x,y,z
2 -x,y,1/2-z
3 1/2+x,1/2+y,z
4 1/2-x,1/2+y,1/2-z
5 -x,-y,-z
6 x,-y,1/2+z
7 1/2-x,1/2-y,-z
8 1/2+x,1/2-y,1/2+z
_cell_length_a                   16.7060(4)
_cell_length_b                   10.6702(4)
_cell_length_c                   14.0656(4)
_cell_angle_alpha                90
_cell_angle_beta                 97.273(5)
_cell_angle_gamma                90
_cell_volume                     2487.11
_exptl_crystal_colour            colorless
_exptl_crystal_description       prism
_cell_formula_units_Z            4
loop_
_atom_site_label
_atom_site_type_symbol
_atom_site_fract_x
_atom_site_fract_y
_atom_site_fract_z
C1 C 0.0000 -0.04337(18) 0.2500
H1 H 0.0000 -0.1324 0.2500
C2 C 0.06383(7) 0.02270(13) 0.22071(8)
H2 H 0.1084 -0.0204 0.2001
C3 C 0.06188(6) 0.15330(13) 0.22179(8)
C4 C 0.12743(7) 0.22862(13) 0.18988(9)
H3 H 0.1224 0.3169 0.1825
C5 C 0.25163(7) 0.36759(13) 0.12398(10)
H4 H 0.2040 0.3884 0.0786
H5 H 0.3005 0.3931 0.0972
H6 H 0.2489 0.4118 0.1846
C6 C 0.32142(6) 0.15925(12) 0.13017(8)
C7 C 0.31843(7) 0.02881(13) 0.14146(9)
H7 H 0.2707 -0.0113 0.1561
C8 C 0.38636(7) -0.03928(14) 0.13073(9)
H8 H 0.3859 -0.1280 0.1365
C9 C 0.45582(7) 0.02222(13) 0.11138(9)
H9 H 0.5038 -0.0233 0.1054
C10 C 0.45353(7) 0.15079(12) 0.10096(8)
C11 C 0.52583(7) 0.22062(12) 0.07756(9)
C12 C 0.51786(7) 0.31928(13) 0.01287(9)
H10 H 0.4656 0.3460 -0.0138
C13 C 0.58537(7) 0.37951(14) -0.01336(9)
H11 H 0.5793 0.4456 -0.0590
C14 C 0.66155(7) 0.34299(15) 0.02713(10)
H12 H 0.7079 0.3834 0.0089
C15 C 0.67021(7) 0.24765(15) 0.09413(10)
H13 H 0.7225 0.2246 0.1234
C16 C 0.60314(7) 0.18555(14) 0.11889(9)
H14 H 0.6096 0.1190 0.1640
N1 N 0.0000 0.21878(15) 0.2500
N2 N 0.19155(5) 0.17128(11) 0.17228(7)
N3 N 0.25381(6) 0.23364(11) 0.14110(8)
N4 N 0.38682(5) 0.21989(10) 0.10885(7)
C2A C -0.06383(7) 0.02270(13) 0.27929(8)
H2A H -0.1084 -0.0204 0.2999
C3A C -0.06188(6) 0.15330(13) 0.27821(8)
C4A C -0.12743(7) 0.22862(13) 0.31012(9)
H3A H -0.1224 0.3169 0.3175
C5A C -0.25163(7) 0.36759(13) 0.37602(10)
H4A H -0.2040 0.3884 0.4214
H5A H -0.3005 0.3931 0.4028
H6A H -0.2489 0.4118 0.3154
C6A C -0.32142(6) 0.15925(12) 0.36983(8)
C7A C -0.31843(7) 0.02881(13) 0.35854(9)
H7A H -0.2707 -0.0113 0.3439
C8A C -0.38636(7) -0.03928(14) 0.36927(9)
H8A H -0.3859 -0.1280 0.3635
C9A C -0.45582(7) 0.02222(13) 0.38862(9)
H9A H -0.5038 -0.0233 0.3946
C10A C -0.45353(7) 0.15079(12) 0.39904(8)
C11A C -0.52583(7) 0.22062(12) 0.42244(9)
C12A C -0.51786(7) 0.31928(13) 0.48713(9)
H10A H -0.4656 0.3460 0.5138
C13A C -0.58537(7) 0.37951(14) 0.51336(9)
H11A H -0.5793 0.4456 0.5590
C14A C -0.66155(7) 0.34299(15) 0.47287(10)
H12A H -0.7079 0.3834 0.4911
C15A C -0.67021(7) 0.24765(15) 0.40587(10)
H13A H -0.7225 0.2246 0.3766
C16A C -0.60314(7) 0.18555(14) 0.38111(9)
H14A H -0.6096 0.1190 0.3360
N2A N -0.19155(5) 0.17128(11) 0.32772(7)
N3A N -0.25381(6) 0.23364(11) 0.35890(8)
N4A N -0.38682(5) 0.21989(10) 0.39115(7)
loop_
_geom_bond_atom_site_label_1
_geom_bond_atom_site_label_2
_geom_bond_site_symmetry_1
_geom_bond_site_symmetry_2
C1 H1 1_555 1_555
C2 C1 1_555 1_555
H2 C2 1_555 1_555
C3 C2 1_555 1_555
C4 C3 1_555 1_555
H3 C4 1_555 1_555
C5 H4 1_555 1_555
H5 C5 1_555 1_555
H6 C5 1_555 1_555
C6 C7 1_555 1_555
C7 H7 1_555 1_555
C8 C7 1_555 1_555
H8 C8 1_555 1_555
C9 C8 1_555 1_555
H9 C9 1_555 1_555
C10 C9 1_555 1_555
C11 C10 1_555 1_555
C12 C11 1_555 1_555
H10 C12 1_555 1_555
C13 C12 1_555 1_555
H11 C13 1_555 1_555
C14 C13 1_555 1_555
H12 C14 1_555 1_555
C15 C14 1_555 1_555
H13 C15 1_555 1_555
C16 C11 1_555 1_555
H14 C16 1_555 1_555
N1 C3 1_555 1_555
N2 C4 1_555 1_555
N3 C5 1_555 1_555
N4 C6 1_555 1_555
C2A C1 1_555 1_555
H2A C2A 1_555 1_555
C3A N1 1_555 1_555
C4A C3A 1_555 1_555
H3A C4A 1_555 1_555
C5A H4A 1_555 1_555
H5A C5A 1_555 1_555
H6A C5A 1_555 1_555
C6A C7A 1_555 1_555
C7A H7A 1_555 1_555
C8A C7A 1_555 1_555
H8A C8A 1_555 1_555
C9A C8A 1_555 1_555
H9A C9A 1_555 1_555
C10A C9A 1_555 1_555
C11A C10A 1_555 1_555
C12A C11A 1_555 1_555
H10A C12A 1_555 1_555
C13A C12A 1_555 1_555
H11A C13A 1_555 1_555
C14A C13A 1_555 1_555
H12A C14A 1_555 1_555
C15A C14A 1_555 1_555
H13A C15A 1_555 1_555
C16A C11A 1_555 1_555
H14A C16A 1_555 1_555
N2A C4A 1_555 1_555
N3A C5A 1_555 1_555
N4A C6A 1_555 1_555
C6 N3 1_555 1_555
C10 N4 1_555 1_555
C15 C16 1_555 1_555
N2 N3 1_555 1_555
C2A C3A 1_555 1_555
C6A N3A 1_555 1_555
C10A N4A 1_555 1_555
C15A C16A 1_555 1_555
N2A N3A 1_555 1_555

#END
