
#######################################################################
#
#                 Cambridge Crystallographic Data Centre
#                                CCDC 
#
#######################################################################
#
# If this CIF has been generated from an entry in the Cambridge 
# Structural Database, then it will include bibliographic, chemical, 
# crystal, experimental, refinement or atomic coordinate data resulting 
# from the CCDC's data processing and validation procedures.
#
#######################################################################

data_ROBDAP
_chemical_formula_moiety         'C21 H22 O3'
_chemical_name_systematic        
'Benzyl 8a-hydroxy-8-methyl-1,2,3,3a,8,8a-hexahydrocyclopenta[a]indene-8-carboxylate'
_symmetry_cell_setting           monoclinic
_symmetry_space_group_name_H-M   'P 21/c'
_symmetry_Int_Tables_number      14
_space_group_name_Hall           '-P 2ybc'
loop_
_symmetry_equiv_pos_site_id
_symmetry_equiv_pos_as_xyz
1 x,y,z
2 -x,1/2+y,1/2-z
3 -x,-y,-z
4 x,1/2-y,1/2+z
_cell_length_a                   11.7262(5)
_cell_length_b                   10.4463(4)
_cell_length_c                   14.7106(7)
_cell_angle_alpha                90
_cell_angle_beta                 106.804(5)
_cell_angle_gamma                90
_cell_volume                     1725.04
_cell_formula_units_Z            4
loop_
_atom_site_label
_atom_site_type_symbol
_atom_site_fract_x
_atom_site_fract_y
_atom_site_fract_z
C1 C 0.00829(12) 0.23922(14) 0.90708(10)
C2 C -0.09122(14) 0.32326(16) 0.92251(12)
H1 H -0.1470 0.2723 0.9472
H2 H -0.0583 0.3936 0.9675
C3 C -0.15295(16) 0.37524(19) 0.82379(14)
H3 H -0.2105 0.3121 0.7862
H4 H -0.1958 0.4557 0.8279
C4 C -0.05369(17) 0.3992(2) 0.77917(16)
H5 H -0.0315 0.4909 0.7838
H6 H -0.0790 0.3743 0.7113
C5 C 0.05221(13) 0.31669(16) 0.83484(11)
H7 H 0.0778 0.2578 0.7908
C6 C 0.15786(14) 0.38796(15) 0.89657(12)
C7 C 0.21628(18) 0.49256(18) 0.87348(16)
H8 H 0.1888 0.5309 0.8125
C8 C 0.3152(2) 0.5403(2) 0.94054(19)
H9 H 0.3564 0.6116 0.9250
C9 C 0.35494(18) 0.4866(2) 1.02928(18)
H10 H 0.4236 0.5204 1.0742
C10 C 0.29551(15) 0.38301(17) 1.05382(14)
H11 H 0.3221 0.3464 1.1155
C11 C 0.19664(14) 0.33430(15) 0.98653(11)
C12 C 0.11950(13) 0.22109(15) 0.99625(10)
C13 C 0.08966(16) 0.21660(18) 1.09096(11)
H12 H 0.0289 0.1510 1.0879
H13 H 0.0593 0.3002 1.1034
H14 H 0.1617 0.1957 1.1422
C14 C 0.17811(13) 0.09484(15) 0.98361(11)
C15 C 0.31603(13) -0.00609(15) 0.91847(12)
H15 H 0.2619 -0.0679 0.8760
H16 H 0.3504 -0.0475 0.9809
C16 C 0.41375(13) 0.03180(15) 0.87686(11)
C17 C 0.45203(15) 0.15665(16) 0.87582(12)
H17 H 0.4129 0.2233 0.8990
C18 C 0.54714(17) 0.18539(18) 0.84118(14)
H18 H 0.5734 0.2715 0.8416
C19 C 0.60358(17) 0.0906(2) 0.80645(14)
H19 H 0.6687 0.1107 0.7827
C20 C 0.56539(16) -0.0335(2) 0.80618(15)
H20 H 0.6039 -0.0996 0.7818
C21 C 0.47132(15) -0.06276(18) 0.84119(14)
H21 H 0.4457 -0.1491 0.8408
O1 O -0.03917(10) 0.12118(10) 0.86448(8)
H22 H -0.0757 0.0846 0.8986
O2 O 0.16242(10) -0.00608(11) 1.01784(9)
O3 O 0.25091(9) 0.10658(10) 0.92941(8)
loop_
_geom_bond_atom_site_label_1
_geom_bond_atom_site_label_2
_geom_bond_site_symmetry_1
_geom_bond_site_symmetry_2
C1 C2 1_555 1_555
C2 H1 1_555 1_555
H2 C2 1_555 1_555
C3 C2 1_555 1_555
H3 C3 1_555 1_555
H4 C3 1_555 1_555
C4 C3 1_555 1_555
H5 C4 1_555 1_555
H6 C4 1_555 1_555
C5 C1 1_555 1_555
H7 C5 1_555 1_555
C6 C5 1_555 1_555
C7 C6 1_555 1_555
H8 C7 1_555 1_555
C8 C7 1_555 1_555
H9 C8 1_555 1_555
C9 C8 1_555 1_555
H10 C9 1_555 1_555
C10 C9 1_555 1_555
H11 C10 1_555 1_555
C11 C6 1_555 1_555
C12 C1 1_555 1_555
C13 C12 1_555 1_555
H12 C13 1_555 1_555
H13 C13 1_555 1_555
H14 C13 1_555 1_555
C14 C12 1_555 1_555
C15 H15 1_555 1_555
H16 C15 1_555 1_555
C16 C15 1_555 1_555
C17 C16 1_555 1_555
H17 C17 1_555 1_555
C18 C17 1_555 1_555
H18 C18 1_555 1_555
C19 C18 1_555 1_555
H19 C19 1_555 1_555
C20 C19 1_555 1_555
H20 C20 1_555 1_555
C21 C16 1_555 1_555
H21 C21 1_555 1_555
O1 C1 1_555 1_555
H22 O1 1_555 1_555
O2 C14 1_555 1_555
O3 C14 1_555 1_555
C4 C5 1_555 1_555
C10 C11 1_555 1_555
C11 C12 1_555 1_555
C15 O3 1_555 1_555
C20 C21 1_555 1_555

#END
