
#######################################################################
#
#                 Cambridge Crystallographic Data Centre
#                                CCDC 
#
#######################################################################
#
# If this CIF has been generated from an entry in the Cambridge 
# Structural Database, then it will include bibliographic, chemical, 
# crystal, experimental, refinement or atomic coordinate data resulting 
# from the CCDC's data processing and validation procedures.
#
#######################################################################

data_ROBYEM01
_chemical_formula_moiety         'C10 H16 D1 N2 O4 1+,3(D2 O1),Cl1 1-'
_chemical_name_systematic        
'(4-((^2^H)Carboxymethyl)-1,4-diazoniabicyclo[2.2.2]oct-1-yl)acetate chloride tris(deuterium oxide)'
_symmetry_cell_setting           monoclinic
_symmetry_space_group_name_H-M   'P 21/n'
_symmetry_Int_Tables_number      14
_space_group_name_Hall           '-P 2yn'
loop_
_symmetry_equiv_pos_site_id
_symmetry_equiv_pos_as_xyz
1 x,y,z
2 1/2-x,1/2+y,1/2-z
3 -x,-y,-z
4 1/2+x,1/2-y,1/2+z
_cell_length_a                   13.907(7)
_cell_length_b                   11.735(6)
_cell_length_c                   17.847(9)
_cell_angle_alpha                90
_cell_angle_beta                 103.967(8)
_cell_angle_gamma                90
_cell_volume                     2826.49
_exptl_crystal_colour            colorless
_exptl_crystal_description       block
_cell_formula_units_Z            8
loop_
_atom_site_label
_atom_site_type_symbol
_atom_site_fract_x
_atom_site_fract_y
_atom_site_fract_z
Cl1 Cl 0.67724(8) 0.37812(9) 0.13414(6)
Cl2 Cl 0.30892(7) 0.03211(9) 0.25212(6)
O1 O 0.6015(2) -0.1026(2) 0.46445(15)
O2 O 0.4887(2) 0.5020(2) 0.36681(18)
O3 O 0.6019(2) 0.6159(2) 0.44078(17)
N1 N 0.6194(2) 0.3071(2) 0.40686(16)
N2 N 0.5865(2) 0.0983(2) 0.36590(16)
O4 O 0.5504(2) -0.2120(2) 0.35887(16)
D1 D 0.5625 -0.2651 0.3888
C1 C 0.5653(3) -0.0211(3) 0.33518(19)
H1 H 0.6093(3) -0.0379(3) 0.30269(19)
H2 H 0.4990(3) -0.0228(3) 0.30321(19)
C2 C 0.5753(3) -0.1153(3) 0.3951(2)
C3 C 0.5856(3) 0.2994(3) 0.3208(2)
H3 H 0.6305(3) 0.3404(3) 0.2974(2)
H4 H 0.5210(3) 0.3328(3) 0.3035(2)
C4 C 0.5697(3) 0.5212(3) 0.4107(2)
C5 C 0.5387(3) 0.2578(3) 0.4412(2)
H5 H 0.4815(3) 0.3063(3) 0.4292(2)
H6 H 0.5617(3) 0.2533(3) 0.4963(2)
C6 C 0.7118(3) 0.2362(3) 0.4341(2)
H7 H 0.7394(3) 0.2493(3) 0.4881(2)
H8 H 0.7602(3) 0.2583(3) 0.4065(2)
C7 C 0.5108(3) 0.1385(3) 0.4082(2)
H9 H 0.5084(3) 0.0865(3) 0.4493(2)
H10 H 0.4464(3) 0.1406(3) 0.3733(2)
C8 C 0.5824(3) 0.1744(3) 0.2969(2)
H11 H 0.5224(3) 0.1599(3) 0.2583(2)
H12 H 0.6374(3) 0.1579(3) 0.2749(2)
C9 C 0.6878(3) 0.1107(3) 0.4203(3)
H13 H 0.7369(3) 0.0748(3) 0.3986(3)
H14 H 0.6883(3) 0.0741(3) 0.4685(3)
C10 C 0.6474(3) 0.4278(3) 0.4349(2)
H15 H 0.7049(3) 0.4494(3) 0.4174(2)
H16 H 0.6665(3) 0.4262(3) 0.4903(2)
O5 O 0.39779(19) 0.3904(2) 0.03304(15)
O6 O 0.3950(2) 1.1083(2) 0.05510(17)
O7 O 0.5089(2) 0.9942(2) 0.13002(18)
O8 O 0.4336(2) 0.2795(2) 0.13894(16)
D2 D 0.4290 0.2100 0.1344
N3 N 0.3782(2) 0.7998(2) 0.08794(16)
N4 N 0.4098(2) 0.5910(2) 0.13033(16)
C11 C 0.4181(3) 0.3757(3) 0.1022(2)
C12 C 0.4153(3) 0.7919(3) 0.1749(2)
H17 H 0.3743(3) 0.8369(3) 0.1998(2)
H18 H 0.4817(3) 0.8208(3) 0.1902(2)
C13 C 0.4272(3) 1.0139(3) 0.0848(2)
C14 C 0.4291(3) 0.4718(3) 0.16163(19)
H19 H 0.3849(3) 0.4566(3) 0.19422(19)
H20 H 0.4954(3) 0.4695(3) 0.19362(19)
C15 C 0.2847(3) 0.7285(3) 0.0631(2)
H21 H 0.2543(3) 0.7422(3) 0.0096(2)
H22 H 0.2386(3) 0.7500(3) 0.0928(2)
C16 C 0.3093(3) 0.6037(3) 0.0755(2)
H23 H 0.2600(3) 0.5663(3) 0.0963(2)
H24 H 0.3096(3) 0.5686(3) 0.0270(2)
C17 C 0.3497(3) 0.9191(3) 0.0598(2)
H25 H 0.2915(3) 0.9402(3) 0.0765(2)
H26 H 0.3316(3) 0.9172(3) 0.0044(2)
C18 C 0.4143(3) 0.6682(3) 0.1994(2)
H27 H 0.4727(3) 0.6517(3) 0.2391(2)
H28 H 0.3575(3) 0.6551(3) 0.2200(2)
C19 C 0.4565(3) 0.7491(3) 0.0523(2)
H29 H 0.5134(3) 0.7981(3) 0.0615(2)
H30 H 0.4314(3) 0.7412(3) -0.0025(2)
C20 C 0.4860(3) 0.6323(3) 0.0890(2)
H31 H 0.4913(3) 0.5786(3) 0.0496(2)
H32 H 0.5495(3) 0.6374(3) 0.1250(2)
O9 O 0.8232(2) 0.2837(3) 0.2901(2)
D3 D 0.8213 0.2157 0.2736
D4 D 0.7995 0.3284 0.2551
O10 O 0.6771(2) 1.1078(3) 0.12970(18)
D5 D 0.6740 1.1767 0.1287
D6 D 0.6269 1.0714 0.1291
O11 O 0.6616(3) 0.5570(3) 0.2575(2)
D7 D 0.6845 0.5351 0.2226
D8 D 0.7048 0.5681 0.2986
O12 O 0.3381(2) 0.6427(3) 0.38527(19)
D9 D 0.2944 0.6124 0.3531
D10 D 0.3946 0.6301 0.3832
O13 O 0.3286(2) 0.3007(2) 0.29840(17)
D11 D 0.3111 0.3683 0.2921
D12 D 0.3058 0.2609 0.2595
O14 O 0.3255(2) 0.8768(2) 0.39548(17)
D13 D 0.3253 0.8925 0.3542
D14 D 0.3017 0.8182 0.4067
loop_
_geom_bond_atom_site_label_1
_geom_bond_atom_site_label_2
_geom_bond_site_symmetry_1
_geom_bond_site_symmetry_2
O1 C2 1_555 1_555
O2 C4 1_555 1_555
O3 C4 1_555 1_555
N1 C3 1_555 1_555
N2 C1 1_555 1_555
O4 D1 1_555 1_555
C1 H1 1_555 1_555
H2 C1 1_555 1_555
C2 O4 1_555 1_555
C3 H3 1_555 1_555
H4 C3 1_555 1_555
C4 C10 1_555 1_555
C5 N1 1_555 1_555
H5 C5 1_555 1_555
H6 C5 1_555 1_555
C6 N1 1_555 1_555
H7 C6 1_555 1_555
H8 C6 1_555 1_555
C7 N2 1_555 1_555
H9 C7 1_555 1_555
H10 C7 1_555 1_555
C8 N2 1_555 1_555
H11 C8 1_555 1_555
H12 C8 1_555 1_555
C9 N2 1_555 1_555
H13 C9 1_555 1_555
H14 C9 1_555 1_555
C10 N1 1_555 1_555
H15 C10 1_555 1_555
H16 C10 1_555 1_555
O5 C11 1_555 1_555
O6 C13 1_555 1_555
O7 C13 1_555 1_555
O8 D2 1_555 1_555
N3 C12 1_555 1_555
N4 C14 1_555 1_555
C11 O8 1_555 1_555
C12 H17 1_555 1_555
H18 C12 1_555 1_555
C13 C17 1_555 1_555
C14 C11 1_555 1_555
H19 C14 1_555 1_555
H20 C14 1_555 1_555
C15 N3 1_555 1_555
H21 C15 1_555 1_555
H22 C15 1_555 1_555
C16 N4 1_555 1_555
H23 C16 1_555 1_555
H24 C16 1_555 1_555
C17 N3 1_555 1_555
H25 C17 1_555 1_555
H26 C17 1_555 1_555
C18 N4 1_555 1_555
H27 C18 1_555 1_555
H28 C18 1_555 1_555
C19 N3 1_555 1_555
H29 C19 1_555 1_555
H30 C19 1_555 1_555
C20 N4 1_555 1_555
H31 C20 1_555 1_555
H32 C20 1_555 1_555
O9 D3 1_555 1_555
D4 O9 1_555 1_555
O10 D5 1_555 1_555
D6 O10 1_555 1_555
O11 D7 1_555 1_555
D8 O11 1_555 1_555
O12 D9 1_555 1_555
D10 O12 1_555 1_555
O13 D11 1_555 1_555
D12 O13 1_555 1_555
O14 D13 1_555 1_555
D14 O14 1_555 1_555
C1 C2 1_555 1_555
C3 C8 1_555 1_555
C5 C7 1_555 1_555
C6 C9 1_555 1_555
C12 C18 1_555 1_555
C15 C16 1_555 1_555
C19 C20 1_555 1_555

#END
