
#######################################################################
#
#                 Cambridge Crystallographic Data Centre
#                                CCDC 
#
#######################################################################
#
# If this CIF has been generated from an entry in the Cambridge 
# Structural Database, then it will include bibliographic, chemical, 
# crystal, experimental, refinement or atomic coordinate data resulting 
# from the CCDC's data processing and validation procedures.
#
#######################################################################

data_ROBYEM03
_chemical_formula_moiety         'C10 H17 N2 O4 1+,3(H2 O1),Cl1 1-'
_chemical_name_systematic        
'(4-(Carboxymethyl)-1,4-diazoniabicyclo[2.2.2]oct-1-yl)acetate chloride trihydrate'
_symmetry_cell_setting           monoclinic
_symmetry_space_group_name_H-M   'P 21/n'
_symmetry_Int_Tables_number      14
_space_group_name_Hall           '-P 2yn'
loop_
_symmetry_equiv_pos_site_id
_symmetry_equiv_pos_as_xyz
1 x,y,z
2 1/2-x,1/2+y,1/2-z
3 -x,-y,-z
4 1/2+x,1/2-y,1/2+z
_cell_length_a                   13.900(7)
_cell_length_b                   11.729(6)
_cell_length_c                   17.806(9)
_cell_angle_alpha                90
_cell_angle_beta                 103.850(10)
_cell_angle_gamma                90
_cell_volume                     2818.57
_exptl_crystal_colour            colorless
_exptl_crystal_description       block
_cell_formula_units_Z            8
loop_
_atom_site_label
_atom_site_type_symbol
_atom_site_fract_x
_atom_site_fract_y
_atom_site_fract_z
H1 H 0.212(5) 0.460(3) 0.300(3)
O1 O 0.1620(2) 0.4427(3) 0.25758(19)
H2 H 0.1498 0.4908 0.2182
C1 C 0.5819(2) 1.1239(3) 0.39730(19)
C2 C 0.5709(2) 1.0282(3) 0.33830(18)
H3 H 0.5041 1.0308 0.3059
H4 H 0.6158 1.0434 0.3053
C3 C 0.5727(3) 0.4862(3) 0.4149(2)
C4 C 0.6500(2) 0.5810(3) 0.44022(19)
H5 H 0.6680 0.5826 0.4963
H6 H 0.7089 0.5599 0.4233
C5 C 0.5141(2) 0.8685(3) 0.41116(19)
H7 H 0.4499 0.8637 0.3749
H8 H 0.5092 0.9227 0.4512
C6 C 0.5432(2) 0.7512(3) 0.44741(19)
H9 H 0.5685 0.7589 0.5029
H10 H 0.4857 0.7018 0.4380
C7 C 0.5848(3) 0.7078(3) 0.32511(18)
H11 H 0.5179 0.6779 0.3094
H12 H 0.6269 0.6628 0.3003
C8 C 0.5861(3) 0.8318(3) 0.30054(18)
H13 H 0.6433 0.8455 0.2795
H14 H 0.5269 0.8484 0.2605
C9 C 0.7153(2) 0.7709(3) 0.4368(2)
H15 H 0.7457 0.7572 0.4910
H16 H 0.7622 0.7487 0.4069
C10 C 0.6910(2) 0.8961(3) 0.4243(2)
H17 H 0.6912 0.9322 0.4733
H18 H 0.7407 0.9332 0.4027
N1 N 0.5903(2) 0.9089(2) 0.36968(15)
N2 N 0.62170(19) 0.7002(2) 0.41213(15)
O2 O 0.5663(2) 1.2211(2) 0.36085(15)
H19 H 0.5935 1.2723 0.3895
O3 O 0.60216(18) 1.10962(19) 0.46712(13)
O4 O 0.6052(2) 0.3918(2) 0.44507(15)
O5 O 0.49150(19) 0.5061(2) 0.37014(17)
C11 C 0.4248(2) 0.6158(3) 0.10482(18)
C12 C 0.4347(2) 0.5210(3) 0.16491(18)
H20 H 0.5016 0.5227 0.1972
H21 H 0.3901 0.5379 0.1979
C13 C 0.4303(3) -0.0211(3) 0.08942(19)
C14 C 0.3526(2) 0.0724(3) 0.06503(19)
H22 H 0.3334 0.0739 0.0090
H23 H 0.2944 0.0507 0.0828
C15 C 0.4616(2) 0.2422(3) 0.05880(19)
H24 H 0.4385 0.2467 0.0030
H25 H 0.5194 0.1931 0.0709
C16 C 0.4892(3) 0.3610(3) 0.0919(2)
H26 H 0.5542 0.3589 0.1273
H27 H 0.4919 0.4134 0.0503
C17 C 0.4146(3) 0.2013(3) 0.17946(18)
H28 H 0.4799 0.1677 0.1968
H29 H 0.3693 0.1600 0.2034
C18 C 0.4178(3) 0.3258(3) 0.20314(19)
H30 H 0.3623 0.3425 0.2255
H31 H 0.4784 0.3407 0.2421
C19 C 0.2882(2) 0.2637(3) 0.0657(2)
H32 H 0.2390 0.2411 0.0932
H33 H 0.2609 0.2507 0.0109
C20 C 0.3122(2) 0.3897(3) 0.0797(2)
H34 H 0.3115 0.4273 0.0310
H35 H 0.2627 0.4256 0.1021
N3 N 0.41344(19) 0.4019(2) 0.13411(15)
N4 N 0.38072(19) 0.1926(2) 0.09299(15)
O6 O 0.4496(2) 0.7122(2) 0.14112(14)
H36 H 0.4349 0.7652 0.1105
O7 O 0.39809(18) 0.6026(2) 0.03539(13)
O8 O 0.3985(2) -0.1160(2) 0.05929(15)
O9 O 0.51169(19) -0.0018(2) 0.13333(17)
Cl1 Cl 0.17716(7) 0.62185(8) 0.13414(5)
Cl2 Cl 0.80895(7) 0.96766(8) 0.25208(5)
O10 O 0.1764(2) 0.2159(3) 0.20988(18)
H37 H 0.1816 0.2965 0.2375
H38 H 0.2088 0.1759 0.2536
O11 O 0.3231(2) 0.3923(3) 0.37049(16)
H39 H 0.3304 0.3207 0.3698
H40 H 0.3811 0.4240 0.3681
O12 O 0.6622(2) 0.8569(3) 0.11492(17)
H41 H 0.7103 0.8869 0.1461
H42 H 0.6187 0.8895 0.1221
O13 O 0.6753(3) 0.6234(3) 0.1037(2)
H43 H 0.6770 0.6085 0.1426
H44 H 0.6766 0.6867 0.1167
O14 O 0.6713(2) 0.1993(3) 0.2018(2)
H45 H 0.7129 0.1350 0.2227
H46 H 0.6874 0.2363 0.2571
loop_
_geom_bond_atom_site_label_1
_geom_bond_atom_site_label_2
_geom_bond_site_symmetry_1
_geom_bond_site_symmetry_2
H1 O1 1_555 1_555
O1 H2 1_555 1_555
C1 C2 1_555 1_555
C2 H3 1_555 1_555
H4 C2 1_555 1_555
C3 C4 1_555 1_555
C4 H5 1_555 1_555
H6 C4 1_555 1_555
C5 H7 1_555 1_555
H8 C5 1_555 1_555
C6 C5 1_555 1_555
H9 C6 1_555 1_555
H10 C6 1_555 1_555
C7 H11 1_555 1_555
H12 C7 1_555 1_555
C8 C7 1_555 1_555
H13 C8 1_555 1_555
H14 C8 1_555 1_555
C9 H15 1_555 1_555
H16 C9 1_555 1_555
C10 C9 1_555 1_555
H17 C10 1_555 1_555
H18 C10 1_555 1_555
N1 C2 1_555 1_555
N2 C4 1_555 1_555
O2 C1 1_555 1_555
H19 O2 1_555 1_555
O3 C1 1_555 1_555
O4 C3 1_555 1_555
O5 C3 1_555 1_555
C11 C12 1_555 1_555
C12 H20 1_555 1_555
H21 C12 1_555 1_555
C13 C14 1_555 1_555
C14 H22 1_555 1_555
H23 C14 1_555 1_555
C15 H24 1_555 1_555
H25 C15 1_555 1_555
C16 C15 1_555 1_555
H26 C16 1_555 1_555
H27 C16 1_555 1_555
C17 H28 1_555 1_555
H29 C17 1_555 1_555
C18 C17 1_555 1_555
H30 C18 1_555 1_555
H31 C18 1_555 1_555
C19 H32 1_555 1_555
H33 C19 1_555 1_555
C20 C19 1_555 1_555
H34 C20 1_555 1_555
H35 C20 1_555 1_555
N3 C12 1_555 1_555
N4 C14 1_555 1_555
O6 C11 1_555 1_555
H36 O6 1_555 1_555
O7 C11 1_555 1_555
O8 C13 1_555 1_555
O9 C13 1_555 1_555
O10 H37 1_555 1_555
H38 O10 1_555 1_555
O11 H39 1_555 1_555
H40 O11 1_555 1_555
O12 H41 1_555 1_555
H42 O12 1_555 1_555
O13 H43 1_555 1_555
H44 O13 1_555 1_555
O14 H45 1_555 1_555
H46 O14 1_555 1_555
C5 N1 1_555 1_555
C6 N2 1_555 1_555
C7 N2 1_555 1_555
C8 N1 1_555 1_555
C9 N2 1_555 1_555
C10 N1 1_555 1_555
C15 N4 1_555 1_555
C16 N3 1_555 1_555
C17 N4 1_555 1_555
C18 N3 1_555 1_555
C19 N4 1_555 1_555
C20 N3 1_555 1_555

#END
