
#######################################################################
#
#                 Cambridge Crystallographic Data Centre
#                                CCDC 
#
#######################################################################
#
# If this CIF has been generated from an entry in the Cambridge 
# Structural Database, then it will include bibliographic, chemical, 
# crystal, experimental, refinement or atomic coordinate data resulting 
# from the CCDC's data processing and validation procedures.
#
#######################################################################

data_ROCGEX
_chemical_formula_moiety         'C7 H5 Cl2 N3'
_chemical_name_systematic        
4,6-Dichloro-N-(prop-2-yn-1-yl)pyrimidin-2-amine
_symmetry_cell_setting           triclinic
_symmetry_space_group_name_H-M   'P -1'
_symmetry_Int_Tables_number      2
_space_group_name_Hall           '-P 1'
loop_
_symmetry_equiv_pos_site_id
_symmetry_equiv_pos_as_xyz
1 x,y,z
2 -x,-y,-z
_cell_length_a                   4.0955(3)
_cell_length_b                   9.3869(6)
_cell_length_c                   10.9006(6)
_cell_angle_alpha                92.236(3)
_cell_angle_beta                 98.986(3)
_cell_angle_gamma                97.468(4)
_cell_volume                     409.655
_exptl_crystal_colour            colorless
_exptl_crystal_description       needle
_cell_formula_units_Z            2
loop_
_atom_site_label
_atom_site_type_symbol
_atom_site_fract_x
_atom_site_fract_y
_atom_site_fract_z
Cl1 Cl 0.40015(10) 0.21908(4) 0.62938(3)
Cl2 Cl 0.20472(11) 0.02316(4) 0.15073(3)
N1 N 0.5984(3) 0.25495(13) 0.24210(11)
N2 N 0.9628(3) 0.46082(14) 0.31571(12)
H1 H 1.044(5) 0.520(2) 0.3798(17)
N3 N 0.6905(3) 0.34063(13) 0.45778(11)
C1 C 0.4779(4) 0.22991(16) 0.47806(13)
C2 C 0.3132(4) 0.12457(16) 0.38888(14)
H2 H 0.154(5) 0.0479(19) 0.4054(18)
C3 C 0.3916(4) 0.14669(15) 0.27120(13)
C4 C 0.7450(4) 0.34913(15) 0.33806(13)
C5 C 1.0493(4) 0.48719(17) 0.19306(14)
H3 H 1.288(4) 0.518(2) 0.2001(19)
H4 H 1.002(5) 0.3959(16) 0.1445(16)
C6 C 0.8706(4) 0.59596(16) 0.12830(13)
C7 C 0.7291(4) 0.68249(18) 0.07385(15)
H5 H 0.605(6) 0.748(2) 0.030(2)
loop_
_geom_bond_atom_site_label_1
_geom_bond_atom_site_label_2
_geom_bond_site_symmetry_1
_geom_bond_site_symmetry_2
Cl1 C1 1_555 1_555
Cl2 C3 1_555 1_555
N1 C3 1_555 1_555
N2 H1 1_555 1_555
N3 C1 1_555 1_555
C1 C2 1_555 1_555
C2 H2 1_555 1_555
C3 C2 1_555 1_555
C4 N1 1_555 1_555
C5 N2 1_555 1_555
H3 C5 1_555 1_555
H4 C5 1_555 1_555
C6 C5 1_555 1_555
C7 C6 1_555 1_555
H5 C7 1_555 1_555
N2 C4 1_555 1_555
N3 C4 1_555 1_555

#END
