
#######################################################################
#
#                 Cambridge Crystallographic Data Centre
#                                CCDC 
#
#######################################################################
#
# If this CIF has been generated from an entry in the Cambridge 
# Structural Database, then it will include bibliographic, chemical, 
# crystal, experimental, refinement or atomic coordinate data resulting 
# from the CCDC's data processing and validation procedures.
#
#######################################################################

data_ROCYUD
_chemical_formula_moiety         'C78 H72 N18 S6,4(C2 H3 N1)'
_chemical_name_systematic        
'4,6-bis(6-(6-(6-(6-(6-(2-Pyridyl)-4-n-propylthiopyridin-2-yl)pyrimidin-4-yl)-4-n-propylthiopyridin-2-yl)pyrimidin-4-yl)-4-n-propylthiopyridin-2-yl)-pyrimidine acetonitrile solvate'
_symmetry_cell_setting           monoclinic
_symmetry_space_group_name_H-M   'C 2/c'
_symmetry_Int_Tables_number      15
_space_group_name_Hall           '-C 2yn'
loop_
_symmetry_equiv_pos_site_id
_symmetry_equiv_pos_as_xyz
1 x,y,z
2 1/2+x,1/2+y,z
3 x,-y,1/2+z
4 1/2+x,1/2-y,1/2+z
5 -x,-y,-z
6 1/2-x,1/2-y,-z
7 -x,y,1/2-z
8 1/2-x,1/2+y,1/2-z
_cell_length_a                   33.748(8)
_cell_length_b                   16.836(9)
_cell_length_c                   14.665(4)
_cell_angle_alpha                90
_cell_angle_beta                 106.52(2)
_cell_angle_gamma                90
_cell_volume                     7988.42
_exptl_crystal_colour            colorless
_cell_formula_units_Z            4
loop_
_atom_site_label
_atom_site_type_symbol
_atom_site_fract_x
_atom_site_fract_y
_atom_site_fract_z
N1 N 0.4066(3) 0.9235(5) 0.0053(10)
C1 C 0.4357(4) 0.9589(5) -0.0323(11)
H1 H 0.4333(6) 1.0136(5) -0.0488(15)
C2 C 0.4682(4) 0.9143(6) -0.0457(10)
H2 H 0.4881(5) 0.9386(9) -0.0714(14)
C3 C 0.4717(3) 0.8343(6) -0.0215(9)
H3 H 0.4939(3) 0.8038(6) -0.0307(9)
C4 C 0.4426(3) 0.7988(4) 0.0161(8)
H4 H 0.4450(5) 0.7441(7) 0.0326(14)
C5 C 0.4100(3) 0.8434(5) 0.0295(8)
C6 C 0.3788(3) 0.8158(5) 0.0671(7)
C7 C 0.3444(3) 0.8589(5) 0.0727(8)
H5 H 0.3412(5) 0.9127(5) 0.0522(11)
C8 C 0.3147(3) 0.8233(6) 0.1081(8)
C9 C 0.3193(3) 0.7446(6) 0.1380(8)
H6 H 0.2990(4) 0.7203(9) 0.1622(11)
C10 C 0.3537(3) 0.7015(4) 0.1325(7)
N2 N 0.3834(2) 0.7371(5) 0.0970(6)
S1 S 0.2691(2) 0.8759(4) 0.1042(5)
C11 C 0.2343(7) 0.8069(14) 0.1404(16)
H7 H 0.2303(7) 0.7595(14) 0.0987(16)
H8 H 0.2479(7) 0.7889(14) 0.2061(16)
C12 C 0.1963(7) 0.8372(14) 0.1372(19)
H9 H 0.1815(7) 0.8515(14) 0.0707(19)
H10 H 0.1999(7) 0.8863(14) 0.1759(19)
C13 C 0.1703(7) 0.7783(12) 0.1743(15)
H11 H 0.1435(7) 0.8021(12) 0.1710(15)
H12 H 0.1846(7) 0.7647(12) 0.2405(15)
H13 H 0.1662(7) 0.7300(12) 0.1353(15)
C14 C 0.3600(3) 0.6207(4) 0.1575(7)
N3 N 0.3294(3) 0.5849(5) 0.1895(9)
C15 C 0.3315(3) 0.5041(5) 0.2102(9)
H14 H 0.3106(4) 0.4796(7) 0.2321(13)
N4 N 0.3643(3) 0.4592(4) 0.1987(8)
C16 C 0.3950(2) 0.4950(4) 0.1666(8)
C17 C 0.3928(3) 0.5757(5) 0.1460(7)
H15 H 0.4138(4) 0.6002(6) 0.1241(11)
C18 C 0.4250(2) 0.4404(4) 0.1565(7)
C19 C 0.4215(3) 0.3582(4) 0.1584(8)
H16 H 0.3975(3) 0.3347(6) 0.1690(12)
C20 C 0.4529(3) 0.3104(3) 0.1449(8)
C21 C 0.4878(2) 0.3448(4) 0.1294(8)
H17 H 0.5093(3) 0.3121(5) 0.1201(11)
C22 C 0.4914(2) 0.4270(4) 0.1274(7)
N5 N 0.4600(2) 0.4748(3) 0.1410(6)
S2 S 0.45121(15) 0.2050(2) 0.1458(4)
C23 C 0.4043(5) 0.1817(7) 0.1750(12)
H18 H 0.4052(5) 0.2027(7) 0.2387(12)
H19 H 0.3801(5) 0.2049(7) 0.1275(12)
C24 C 0.4016(6) 0.0908(10) 0.1740(18)
H20 H 0.3988(6) 0.0704(10) 0.1091(18)
H21 H 0.4269(6) 0.0679(10) 0.2178(18)
C25 C 0.3648(11) 0.0687(12) 0.2051(28)
H22 H 0.3622(11) 0.0108(12) 0.2052(28)
H23 H 0.3400(11) 0.0917(12) 0.1611(28)
H24 H 0.3680(11) 0.0892(12) 0.2693(28)
C26 C 0.5256(2) 0.4685(4) 0.1114(7)
N6 N 0.5553(2) 0.4214(3) 0.0888(7)
C27 C 0.5907(2) 0.4561(4) 0.0757(7)
H25 H 0.6110(3) 0.4239(5) 0.0602(11)
N7 N 0.5963(2) 0.5378(4) 0.0851(7)
C28 C 0.5666(2) 0.5848(3) 0.1077(6)
C29 C 0.5312(2) 0.5502(4) 0.1208(7)
H26 H 0.5109(3) 0.5823(5) 0.1362(11)
C30 C 0.5761(2) 0.6671(3) 0.1201(6)
C31 C 0.6100(2) 0.7029(4) 0.1007(6)
H27 H 0.6277(3) 0.6726(5) 0.0742(9)
C32 C 0.6179(2) 0.7831(4) 0.1202(6)
C33 C 0.5920(2) 0.8275(3) 0.1591(6)
H28 H 0.5974(3) 0.8823(3) 0.1724(9)
C34 C 0.5581(2) 0.7917(3) 0.1784(6)
N8 N 0.5502(2) 0.7115(3) 0.1589(6)
S3 S 0.66249(12) 0.8221(2) 0.0949(4)
C35 C 0.6658(5) 0.9251(7) 0.1335(12)
H29 H 0.6408(5) 0.9545(7) 0.0976(12)
H30 H 0.6678(5) 0.9280(7) 0.2021(12)
C36 C 0.7047(6) 0.9621(9) 0.1151(15)
H31 H 0.7291(6) 0.9293(9) 0.1463(15)
H32 H 0.7015(6) 0.9622(9) 0.0458(15)
C37 C 0.7116(7) 1.0461(10) 0.1525(17)
H33 H 0.7364(7) 1.0679(10) 0.1397(17)
H34 H 0.7153(7) 1.0460(10) 0.2212(17)
H35 H 0.6877(7) 1.0789(10) 0.1208(17)
C38 C 0.5279(4) 0.8315(6) 0.2164(9)
N9 N 0.5285(3) 0.9110(5) 0.2152(9)
C39 C 0.5000 0.9485(11) 0.2500
H36 H 0.5000 1.0049(11) 0.2500
C40 C 0.5000 0.7904(9) 0.2500
H37 H 0.5000 0.7340(9) 0.2500
N9F N 0.4715(3) 0.9110(5) 0.2848(9)
C38F C 0.4721(4) 0.8315(6) 0.2836(9)
C34F C 0.4419(2) 0.7917(3) 0.3216(6)
C33F C 0.4080(2) 0.8275(3) 0.3409(6)
C32F C 0.3821(2) 0.7831(4) 0.3798(6)
C31F C 0.3900(2) 0.7029(4) 0.3993(6)
C30F C 0.4239(2) 0.6671(3) 0.3799(6)
C28F C 0.4334(2) 0.5848(3) 0.3923(6)
N7F N 0.4037(2) 0.5378(4) 0.4149(7)
C27F C 0.4093(2) 0.4561(4) 0.4243(7)
N6F N 0.4447(2) 0.4214(3) 0.4112(7)
C26F C 0.4744(2) 0.4685(4) 0.3886(7)
C22F C 0.5086(2) 0.4270(4) 0.3726(7)
C21F C 0.5122(2) 0.3448(4) 0.3706(8)
C20F C 0.5471(3) 0.3104(3) 0.3551(8)
C19F C 0.5785(3) 0.3582(4) 0.3416(8)
C18F C 0.5750(2) 0.4404(4) 0.3435(7)
C16F C 0.6050(2) 0.4950(4) 0.3334(8)
N4F N 0.6357(3) 0.4592(4) 0.3013(8)
C15F C 0.6685(3) 0.5041(5) 0.2898(9)
N3F N 0.6706(3) 0.5849(5) 0.3105(9)
C14F C 0.6400(3) 0.6207(4) 0.3425(7)
C10F C 0.6463(3) 0.7015(4) 0.3675(7)
C9F C 0.6807(3) 0.7446(6) 0.3620(8)
C8F C 0.6853(3) 0.8233(6) 0.3919(8)
C7F C 0.6556(3) 0.8589(5) 0.4273(8)
C6F C 0.6212(3) 0.8158(5) 0.4329(7)
C5F C 0.5900(3) 0.8434(5) 0.4705(8)
N1F N 0.5934(3) 0.9235(5) 0.4947(10)
C1F C 0.5643(4) 0.9589(5) 0.5323(11)
H1F H 0.5667(6) 1.0136(5) 0.5488(15)
C2F C 0.5318(4) 0.9143(6) 0.5457(10)
H2F H 0.5119(5) 0.9386(9) 0.5714(14)
C3F C 0.5283(3) 0.8343(6) 0.5215(9)
H3F H 0.5061(3) 0.8038(6) 0.5307(9)
C4F C 0.5574(3) 0.7988(4) 0.4839(8)
H4F H 0.5550(5) 0.7441(7) 0.4674(14)
N2F N 0.6166(2) 0.7371(5) 0.4030(6)
H5F H 0.6588(5) 0.9127(5) 0.4478(11)
S1F S 0.7309(2) 0.8759(4) 0.3958(5)
C11F C 0.7657(7) 0.8069(14) 0.3596(16)
H7F H 0.7697(7) 0.7595(14) 0.4013(16)
H8F H 0.7521(7) 0.7889(14) 0.2939(16)
C12F C 0.8037(7) 0.8372(14) 0.3628(19)
H9F H 0.8185(7) 0.8515(14) 0.4293(19)
H10F H 0.8001(7) 0.8863(14) 0.3241(19)
C13F C 0.8297(7) 0.7783(12) 0.3257(15)
H11F H 0.8565(7) 0.8021(12) 0.3290(15)
H12F H 0.8154(7) 0.7647(12) 0.2595(15)
H13F H 0.8338(7) 0.7300(12) 0.3647(15)
H6F H 0.7010(4) 0.7203(9) 0.3378(11)
C17F C 0.6072(3) 0.5757(5) 0.3540(7)
H15F H 0.5862(4) 0.6002(6) 0.3759(11)
H14F H 0.6894(4) 0.4796(7) 0.2679(13)
N5F N 0.5400(2) 0.4748(3) 0.3590(6)
H16F H 0.6025(3) 0.3347(6) 0.3310(12)
S2F S 0.54879(15) 0.2050(2) 0.3542(4)
C23F C 0.5957(5) 0.1817(7) 0.3250(12)
H18F H 0.5948(5) 0.2027(7) 0.2613(12)
H19F H 0.6199(5) 0.2049(7) 0.3725(12)
C24F C 0.5984(6) 0.0908(10) 0.3260(18)
H20F H 0.6012(6) 0.0704(10) 0.3909(18)
H21F H 0.5731(6) 0.0679(10) 0.2822(18)
C25F C 0.6352(11) 0.0687(12) 0.2949(28)
H22F H 0.6378(11) 0.0108(12) 0.2948(28)
H23F H 0.6600(11) 0.0917(12) 0.3389(28)
H24F H 0.6320(11) 0.0892(12) 0.2307(28)
H17F H 0.4907(3) 0.3121(5) 0.3799(11)
C29F C 0.4688(2) 0.5502(4) 0.3792(7)
H26F H 0.4891(3) 0.5823(5) 0.3638(11)
H25F H 0.3890(3) 0.4239(5) 0.4398(11)
N8F N 0.4498(2) 0.7115(3) 0.3411(6)
H27F H 0.3723(3) 0.6726(5) 0.4258(9)
S3F S 0.33751(12) 0.8221(2) 0.4051(4)
C35F C 0.3342(5) 0.9251(7) 0.3665(12)
H29F H 0.3592(5) 0.9545(7) 0.4024(12)
H30F H 0.3322(5) 0.9280(7) 0.2979(12)
C36F C 0.2953(6) 0.9621(9) 0.3849(15)
H31F H 0.2709(6) 0.9293(9) 0.3537(15)
H32F H 0.2985(6) 0.9622(9) 0.4542(15)
C37F C 0.2884(7) 1.0461(10) 0.3475(17)
H33F H 0.2636(7) 1.0679(10) 0.3603(17)
H34F H 0.2847(7) 1.0460(10) 0.2788(17)
H35F H 0.3123(7) 1.0789(10) 0.3792(17)
H28F H 0.4026(3) 0.8823(3) 0.3276(9)
C41 C 0.7154(6) 0.6369(10) 0.1635(14)
H39 H 0.6975(26) 0.6824(25) 0.1651(87)
H40 H 0.7292(6) 0.6196(75) 0.2286(33)
C42 C 0.7464(7) 0.6600(13) 0.1167(18)
N10 N 0.7759(7) 0.6592(14) 0.0922(19)
C43 C 0.6909(7) 0.5504(11) 1.0529(15)
H41 H 0.7080(32) 0.5557(62) 1.1189(27)
H42 H 0.6946(48) 0.4973(11) 1.0292(72)
H43 H 0.6618(14) 0.5581(59) 1.0501(89)
C44 C 0.7032(11) 0.6102(14) 0.9943(20)
N11 N 0.6979(5) 0.6637(8) 0.9438(11)
H38? H 0.6987(27) 0.5932(54) 0.1282(54)
loop_
_geom_bond_atom_site_label_1
_geom_bond_atom_site_label_2
_geom_bond_site_symmetry_1
_geom_bond_site_symmetry_2
N1 C1 1_555 1_555
C1 H1 1_555 1_555
C2 C1 1_555 1_555
H2 C2 1_555 1_555
C3 C2 1_555 1_555
H3 C3 1_555 1_555
C4 C3 1_555 1_555
H4 C4 1_555 1_555
C5 N1 1_555 1_555
C6 C5 1_555 1_555
C7 C6 1_555 1_555
H5 C7 1_555 1_555
C8 C7 1_555 1_555
C9 C8 1_555 1_555
H6 C9 1_555 1_555
C10 C9 1_555 1_555
N2 C6 1_555 1_555
S1 C8 1_555 1_555
C11 S1 1_555 1_555
H7 C11 1_555 1_555
H8 C11 1_555 1_555
C12 C11 1_555 1_555
H9 C12 1_555 1_555
H10 C12 1_555 1_555
C13 C12 1_555 1_555
H11 C13 1_555 1_555
H12 C13 1_555 1_555
H13 C13 1_555 1_555
C14 C10 1_555 1_555
N3 C14 1_555 1_555
C15 N3 1_555 1_555
H14 C15 1_555 1_555
N4 C15 1_555 1_555
C16 N4 1_555 1_555
C17 C14 1_555 1_555
H15 C17 1_555 1_555
C18 C16 1_555 1_555
C19 C18 1_555 1_555
H16 C19 1_555 1_555
C20 C19 1_555 1_555
C21 C20 1_555 1_555
H17 C21 1_555 1_555
C22 C21 1_555 1_555
N5 C18 1_555 1_555
S2 C20 1_555 1_555
C23 S2 1_555 1_555
H18 C23 1_555 1_555
H19 C23 1_555 1_555
C24 C23 1_555 1_555
H20 C24 1_555 1_555
H21 C24 1_555 1_555
C25 C24 1_555 1_555
H22 C25 1_555 1_555
H23 C25 1_555 1_555
H24 C25 1_555 1_555
C26 C22 1_555 1_555
N6 C26 1_555 1_555
C27 N6 1_555 1_555
H25 C27 1_555 1_555
N7 C27 1_555 1_555
C28 N7 1_555 1_555
C29 C26 1_555 1_555
H26 C29 1_555 1_555
C30 C28 1_555 1_555
C31 C30 1_555 1_555
H27 C31 1_555 1_555
C32 C31 1_555 1_555
C33 C32 1_555 1_555
H28 C33 1_555 1_555
C34 C33 1_555 1_555
N8 C30 1_555 1_555
S3 C32 1_555 1_555
C35 S3 1_555 1_555
H29 C35 1_555 1_555
H30 C35 1_555 1_555
C36 C35 1_555 1_555
H31 C36 1_555 1_555
H32 C36 1_555 1_555
C37 C36 1_555 1_555
H33 C37 1_555 1_555
H34 C37 1_555 1_555
H35 C37 1_555 1_555
C38 C34 1_555 1_555
N9 C38 1_555 1_555
C39 N9 1_555 1_555
H36 C39 1_555 1_555
C40 C38 1_555 1_555
H37 C40 1_555 1_555
C41 H39 1_555 1_555
H40 C41 1_555 1_555
C42 C41 1_555 1_555
N10 C42 1_555 1_555
C43 H41 1_555 1_555
H42 C43 1_555 1_555
H43 C43 1_555 1_555
C44 C43 1_555 1_555
N11 C44 1_555 1_555
N9F C39 1_555 1_555
C38F C40 1_555 1_555
C34F C38F 1_555 1_555
C33F C34F 1_555 1_555
C32F C33F 1_555 1_555
C31F C32F 1_555 1_555
C30F C31F 1_555 1_555
C28F C30F 1_555 1_555
N7F C28F 1_555 1_555
C27F N7F 1_555 1_555
N6F C27F 1_555 1_555
C26F N6F 1_555 1_555
C22F C26F 1_555 1_555
C21F C22F 1_555 1_555
C20F C21F 1_555 1_555
C19F C20F 1_555 1_555
C18F C19F 1_555 1_555
C16F C18F 1_555 1_555
N4F C16F 1_555 1_555
C15F N4F 1_555 1_555
N3F C15F 1_555 1_555
C14F N3F 1_555 1_555
C10F C14F 1_555 1_555
C9F C10F 1_555 1_555
C8F C9F 1_555 1_555
C7F C8F 1_555 1_555
C6F C7F 1_555 1_555
C5F C6F 1_555 1_555
N1F C5F 1_555 1_555
C1F N1F 1_555 1_555
H1F C1F 1_555 1_555
C2F C1F 1_555 1_555
H2F C2F 1_555 1_555
C3F C2F 1_555 1_555
H3F C3F 1_555 1_555
C4F C5F 1_555 1_555
H4F C4F 1_555 1_555
N2F C10F 1_555 1_555
H5F C7F 1_555 1_555
S1F C8F 1_555 1_555
C11F S1F 1_555 1_555
H7F C11F 1_555 1_555
H8F C11F 1_555 1_555
C12F C11F 1_555 1_555
H9F C12F 1_555 1_555
H10F C12F 1_555 1_555
C13F C12F 1_555 1_555
H11F C13F 1_555 1_555
H12F C13F 1_555 1_555
H13F C13F 1_555 1_555
H6F C9F 1_555 1_555
C17F C16F 1_555 1_555
H15F C17F 1_555 1_555
H14F C15F 1_555 1_555
N5F C22F 1_555 1_555
H16F C19F 1_555 1_555
S2F C20F 1_555 1_555
C23F S2F 1_555 1_555
H18F C23F 1_555 1_555
H19F C23F 1_555 1_555
C24F C23F 1_555 1_555
H20F C24F 1_555 1_555
H21F C24F 1_555 1_555
C25F C24F 1_555 1_555
H22F C25F 1_555 1_555
H23F C25F 1_555 1_555
H24F C25F 1_555 1_555
H17F C21F 1_555 1_555
C29F C28F 1_555 1_555
H26F C29F 1_555 1_555
H25F C27F 1_555 1_555
N8F C34F 1_555 1_555
H27F C31F 1_555 1_555
S3F C32F 1_555 1_555
C35F S3F 1_555 1_555
H29F C35F 1_555 1_555
H30F C35F 1_555 1_555
C36F C35F 1_555 1_555
H31F C36F 1_555 1_555
H32F C36F 1_555 1_555
C37F C36F 1_555 1_555
H33F C37F 1_555 1_555
H34F C37F 1_555 1_555
H35F C37F 1_555 1_555
H28F C33F 1_555 1_555
C4 C5 1_555 1_555
C10 N2 1_555 1_555
C16 C17 1_555 1_555
C22 N5 1_555 1_555
C28 C29 1_555 1_555
C34 N8 1_555 1_555
N9F C38F 1_555 1_555
C30F N8F 1_555 1_555
C26F C29F 1_555 1_555
C18F N5F 1_555 1_555
C14F C17F 1_555 1_555
C6F N2F 1_555 1_555
C3F C4F 1_555 1_555

#END
