
#######################################################################
#
#                 Cambridge Crystallographic Data Centre
#                                CCDC 
#
#######################################################################
#
# If this CIF has been generated from an entry in the Cambridge 
# Structural Database, then it will include bibliographic, chemical, 
# crystal, experimental, refinement or atomic coordinate data resulting 
# from the CCDC's data processing and validation procedures.
#
#######################################################################

data_RODFAS
_chemical_formula_moiety         'C17 H20 N1 O2 1+,Cl1 O4 1-'
_chemical_name_systematic        
'4-((E)-2-(3,4-Dimethoxyphenyl)ethenyl)-1-ethylpyridinium perchlorate'
_symmetry_cell_setting           monoclinic
_symmetry_space_group_name_H-M   'P 21/c'
_symmetry_Int_Tables_number      14
_space_group_name_Hall           '-P 2ybc'
loop_
_symmetry_equiv_pos_site_id
_symmetry_equiv_pos_as_xyz
1 x,y,z
2 -x,1/2+y,1/2-z
3 -x,-y,-z
4 x,1/2-y,1/2+z
_cell_length_a                   6.9564(10)
_cell_length_b                   21.202(3)
_cell_length_c                   11.4501(16)
_cell_angle_alpha                90
_cell_angle_beta                 91.514(6)
_cell_angle_gamma                90
_cell_volume                     1688.18
_exptl_crystal_colour            yellow
_exptl_crystal_description       block
_chemical_melting_point          224-6deg.C
_cell_formula_units_Z            4
_chemical_properties_physical    light-sensitive
_exptl_crystal_recrystallization_method benzene/acetonitrile
loop_
_atom_site_label
_atom_site_type_symbol
_atom_site_fract_x
_atom_site_fract_y
_atom_site_fract_z
Cl1 Cl 0.23304(17) 0.60708(5) 0.29791(10)
O1 O 0.253(3) 0.6669(5) 0.3571(13)
O2 O 0.133(2) 0.6179(7) 0.1864(9)
O3 O 0.4143(17) 0.5815(6) 0.2781(10)
O4 O 0.115(2) 0.5669(6) 0.3684(12)
O9 O 0.2343(5) 0.25633(15) 0.2436(3)
O10 O 0.2645(5) 0.36105(15) 0.3633(3)
N1 N 0.1915(6) 0.66703(19) -0.3010(4)
C1 C 0.1871(7) 0.6114(2) -0.3568(5)
C2 C 0.2034(7) 0.5554(2) -0.2958(5)
C3 C 0.2259(7) 0.5555(2) -0.1743(4)
C4 C 0.2326(7) 0.6142(2) -0.1178(4)
C5 C 0.2159(7) 0.6691(2) -0.1832(4)
C6 C 0.2372(7) 0.4952(2) -0.1131(4)
C7 C 0.2586(7) 0.4877(2) 0.0017(4)
C8 C 0.2631(7) 0.4264(2) 0.0617(4)
C9 C 0.2558(8) 0.3696(2) 0.0008(4)
C10 C 0.2503(7) 0.3124(2) 0.0579(4)
C11 C 0.2502(6) 0.3105(2) 0.1798(4)
C12 C 0.2630(7) 0.3673(2) 0.2436(4)
C13 C 0.2689(6) 0.4242(2) 0.1856(4)
C14 C 0.2378(8) 0.1984(2) 0.1783(4)
C15 C 0.2952(8) 0.4176(2) 0.4298(4)
C16 C 0.1750(8) 0.7264(2) -0.3687(5)
C17 C 0.3669(8) 0.7492(3) -0.4044(5)
H1 H 0.173(10) 0.615(3) -0.439(8)
H2 H 0.207(8) 0.511(3) -0.335(5)
H3 H 0.232(10) 0.619(3) -0.024(7)
H4 H 0.220(10) 0.708(4) -0.158(7)
H5 H 0.231(6) 0.455(3) -0.161(4)
H6 H 0.260(10) 0.524(4) 0.065(7)
H7 H 0.255(7) 0.373(3) -0.078(6)
H8 H 0.245(8) 0.277(3) 0.011(6)
H9 H 0.274(8) 0.462(3) 0.226(6)
H10 H 0.240(10) 0.166(4) 0.244(7)
H11 H 0.357(12) 0.198(4) 0.138(9)
H12 H 0.130(8) 0.194(3) 0.123(6)
H13 H 0.299(11) 0.403(4) 0.501(9)
H14 H 0.191(12) 0.442(4) 0.427(8)
H15 H 0.429(9) 0.438(3) 0.406(6)
H16 H 0.099(8) 0.756(3) -0.319(6)
H17 H 0.094(9) 0.719(3) -0.449(6)
H18 H 0.350(9) 0.790(3) -0.442(6)
H19 H 0.444(9) 0.755(3) -0.350(7)
H20 H 0.439(8) 0.719(3) -0.443(6)
O5? O 0.083(3) 0.5729(13) 0.356(2)
O6? O 0.265(4) 0.6669(9) 0.355(3)
O7? O 0.181(3) 0.6163(14) 0.1774(14)
O8? O 0.409(2) 0.5697(8) 0.3074(15)
loop_
_geom_bond_atom_site_label_1
_geom_bond_atom_site_label_2
_geom_bond_site_symmetry_1
_geom_bond_site_symmetry_2
Cl1 O1 1_555 1_555
O2 Cl1 1_555 1_555
O3 Cl1 1_555 1_555
O4 Cl1 1_555 1_555
O9 C11 1_555 1_555
O10 C12 1_555 1_555
N1 C1 1_555 1_555
C1 C2 1_555 1_555
C2 C3 1_555 1_555
C3 C4 1_555 1_555
C4 C5 1_555 1_555
C5 N1 1_555 1_555
C6 C3 1_555 1_555
C7 C6 1_555 1_555
C8 C7 1_555 1_555
C9 C8 1_555 1_555
C10 C9 1_555 1_555
C11 C10 1_555 1_555
C12 C11 1_555 1_555
C13 C8 1_555 1_555
C14 O9 1_555 1_555
C15 O10 1_555 1_555
C16 N1 1_555 1_555
C17 C16 1_555 1_555
H1 C1 1_555 1_555
H2 C2 1_555 1_555
H3 C4 1_555 1_555
H4 C5 1_555 1_555
H5 C6 1_555 1_555
H6 C7 1_555 1_555
H7 C9 1_555 1_555
H8 C10 1_555 1_555
H9 C13 1_555 1_555
H10 C14 1_555 1_555
H11 C14 1_555 1_555
H12 C14 1_555 1_555
H13 C15 1_555 1_555
H14 C15 1_555 1_555
H15 C15 1_555 1_555
H16 C16 1_555 1_555
H17 C16 1_555 1_555
H18 C17 1_555 1_555
H19 C17 1_555 1_555
H20 C17 1_555 1_555
C12 C13 1_555 1_555

#END
