
#######################################################################
#
#                 Cambridge Crystallographic Data Centre
#                                CCDC 
#
#######################################################################
#
# If this CIF has been generated from an entry in the Cambridge 
# Structural Database, then it will include bibliographic, chemical, 
# crystal, experimental, refinement or atomic coordinate data resulting 
# from the CCDC's data processing and validation procedures.
#
#######################################################################

data_RODFIA
_chemical_formula_moiety         'C17 H21 N2 1+,Cl1 O4 1-,2(C6 H6)'
_chemical_name_systematic        
'4-((E)-2-(4-(Dimethylamino)phenyl)ethenyl)-1-ethylpyridinium perchlorate benzene solvate'
_symmetry_cell_setting           orthorhombic
_symmetry_space_group_name_H-M   'P 21 21 21'
_symmetry_Int_Tables_number      19
_space_group_name_Hall           'P 2ac 2ab'
loop_
_symmetry_equiv_pos_site_id
_symmetry_equiv_pos_as_xyz
1 x,y,z
2 1/2-x,-y,1/2+z
3 -x,1/2+y,1/2-z
4 1/2+x,1/2-y,-z
_cell_length_a                   6.4752(4)
_cell_length_b                   16.5448(11)
_cell_length_c                   25.7090(16)
_cell_angle_alpha                90
_cell_angle_beta                 90
_cell_angle_gamma                90
_cell_volume                     2754.23
_exptl_crystal_colour            'dark red'
_exptl_crystal_description       block
_cell_formula_units_Z            4
_chemical_properties_physical    light-sensitive
_exptl_crystal_recrystallization_method benzene/acetonitrile
loop_
_atom_site_label
_atom_site_type_symbol
_atom_site_fract_x
_atom_site_fract_y
_atom_site_fract_z
Cl1 Cl 0.4635(2) 0.45838(9) 0.73286(6)
O1 O 0.6776(11) 0.4635(5) 0.7203(3)
O2 O 0.4168(11) 0.5313(4) 0.7630(3)
O3 O 0.4282(14) 0.3922(5) 0.7642(3)
O4 O 0.3461(13) 0.4592(5) 0.6888(3)
N1 N -0.2061(10) 0.7110(4) 0.7803(3)
N2 N 1.1898(11) 0.6939(5) 0.5524(3)
C1 C -0.0924(15) 0.7768(6) 0.7773(4)
H1 H -0.1356 0.8243 0.7950
C2 C 0.0878(14) 0.7780(7) 0.7490(4)
H2 H 0.1682 0.8260 0.7478
C3 C 0.1536(15) 0.7103(8) 0.7221(4)
C4 C 0.0284(17) 0.6408(7) 0.7258(4)
H3 H 0.0683 0.5924 0.7087
C5 C -0.1546(15) 0.6433(6) 0.7547(3)
H4 H -0.2421 0.5973 0.7561
C6 C 0.3468(19) 0.7315(10) 0.6944(6)
H5 H 0.4077 0.7835 0.6972
C7 C 0.434(2) 0.6708(8) 0.6641(5)
H6 H 0.3692 0.6195 0.6614
C10 C 0.6269(17) 0.6867(9) 0.6364(4)
C11 C 0.7113(16) 0.6183(8) 0.6122(4)
H9 H 0.6429 0.5677 0.6152
C12 C 0.8904(15) 0.6233(7) 0.5843(4)
H10 H 0.9358 0.5760 0.5668
C13 C 1.0113(13) 0.6921(6) 0.5796(3)
C14 C 0.9298(16) 0.7637(7) 0.6031(3)
H11 H 1.0006 0.8137 0.5994
C15 C 0.7462(17) 0.7603(8) 0.6317(4)
H12 H 0.6982 0.8078 0.6485
C16 C 1.3036(16) 0.7678(6) 0.5456(4)
H13 H 1.2379 0.8110 0.5657
H14 H 1.3049 0.7825 0.5087
H15 H 1.4457 0.7601 0.5578
C17 C 1.2648(16) 0.6233(7) 0.5264(4)
H16 H 1.1729 0.5776 0.5337
H17 H 1.4042 0.6107 0.5388
H18 H 1.2685 0.6332 0.4888
C18 C -0.3972(17) 0.7121(7) 0.8117(4)
H19 H -0.4939 0.6705 0.7984
H20 H -0.4649 0.7655 0.8083
C19 C -0.3491(17) 0.6952(7) 0.8695(4)
H21 H -0.4776 0.6961 0.8896
H22 H -0.2552 0.7369 0.8827
H23 H -0.2838 0.6420 0.8728
C20 C 0.113(3) 0.8305(8) 0.9804(6)
H24 H 0.1386 0.8040 1.0126
C21 C 0.270(2) 0.8393(8) 0.9443(5)
H25 H 0.4017 0.8169 0.9518
C22 C 0.2414(19) 0.8790(7) 0.8985(4)
H26 H 0.3518 0.8857 0.8745
C23 C 0.045(2) 0.9097(6) 0.8879(5)
H27 H 0.0229 0.9382 0.8563
C24 C -0.1245(19) 0.8992(7) 0.9233(6)
H28 H -0.2595 0.9180 0.9152
C25 C -0.081(2) 0.8605(8) 0.9696(6)
H29 H -0.1879 0.8544 0.9947
C26 C 0.097(2) 0.5050(9) 0.8679(7)
H30 H 0.2179 0.5116 0.8476
C27 C -0.081(3) 0.4756(7) 0.8458(5)
H31 H -0.0838 0.4625 0.8098
C28 C -0.251(3) 0.4653(9) 0.8745(7)
H32 H -0.3730 0.4438 0.8593
C29 C -0.248(3) 0.4858(9) 0.9260(8)
H33 H -0.3699 0.4807 0.9464
C30 C -0.062(3) 0.5150(9) 0.9493(5)
H34 H -0.0528 0.5272 0.9853
C31 C 0.096(2) 0.5240(8) 0.9178(6)
H35 H 0.2195 0.5457 0.9320
C8? C 0.312(5) 0.681(2) 0.6891(12)
H7? H 0.3104 0.6251 0.6795
C9? C 0.458(4) 0.7254(15) 0.6719(9)
H8? H 0.4631 0.7811 0.6806
loop_
_geom_bond_atom_site_label_1
_geom_bond_atom_site_label_2
_geom_bond_site_symmetry_1
_geom_bond_site_symmetry_2
Cl1 O1 1_555 1_555
O2 Cl1 1_555 1_555
O3 Cl1 1_555 1_555
O4 Cl1 1_555 1_555
N1 C1 1_555 1_555
N2 C13 1_555 1_555
C1 H1 1_555 1_555
C2 C1 1_555 1_555
H2 C2 1_555 1_555
C3 C2 1_555 1_555
C4 C3 1_555 1_555
H3 C4 1_555 1_555
C5 N1 1_555 1_555
H4 C5 1_555 1_555
C6 C3 1_555 1_555
H5 C6 1_555 1_555
C7 C6 1_555 1_555
H6 C7 1_555 1_555
C10 C7 1_555 1_555
C11 C10 1_555 1_555
H9 C11 1_555 1_555
C12 C11 1_555 1_555
H10 C12 1_555 1_555
C13 C12 1_555 1_555
C14 C13 1_555 1_555
H11 C14 1_555 1_555
C15 C10 1_555 1_555
H12 C15 1_555 1_555
C16 N2 1_555 1_555
H13 C16 1_555 1_555
H14 C16 1_555 1_555
H15 C16 1_555 1_555
C17 N2 1_555 1_555
H16 C17 1_555 1_555
H17 C17 1_555 1_555
H18 C17 1_555 1_555
C18 N1 1_555 1_555
H19 C18 1_555 1_555
H20 C18 1_555 1_555
C19 C18 1_555 1_555
H21 C19 1_555 1_555
H22 C19 1_555 1_555
H23 C19 1_555 1_555
C20 H24 1_555 1_555
C21 C20 1_555 1_555
H25 C21 1_555 1_555
C22 C21 1_555 1_555
H26 C22 1_555 1_555
C23 C22 1_555 1_555
H27 C23 1_555 1_555
C24 C23 1_555 1_555
H28 C24 1_555 1_555
C25 C20 1_555 1_555
H29 C25 1_555 1_555
C26 H30 1_555 1_555
C27 C26 1_555 1_555
H31 C27 1_555 1_555
C28 C27 1_555 1_555
H32 C28 1_555 1_555
C29 C28 1_555 1_555
H33 C29 1_555 1_555
C30 C29 1_555 1_555
H34 C30 1_555 1_555
C31 C26 1_555 1_555
H35 C31 1_555 1_555
C4 C5 1_555 1_555
C14 C15 1_555 1_555
C24 C25 1_555 1_555
C30 C31 1_555 1_555

#END
