
#######################################################################
#
#                 Cambridge Crystallographic Data Centre
#                                CCDC 
#
#######################################################################
#
# If this CIF has been generated from an entry in the Cambridge 
# Structural Database, then it will include bibliographic, chemical, 
# crystal, experimental, refinement or atomic coordinate data resulting 
# from the CCDC's data processing and validation procedures.
#
#######################################################################

data_RODFOG
_chemical_formula_moiety         'C15 H16 N1 1+,Cl1 O4 1-,C6 H6'
_chemical_name_systematic        
'4-((E)-2-Phenylethenyl)-1-ethylpyridinium perchlorate benzene solvate'
_symmetry_cell_setting           orthorhombic
_symmetry_space_group_name_H-M   'P b c a'
_symmetry_Int_Tables_number      61
_space_group_name_Hall           '-P 2ac 2ab'
loop_
_symmetry_equiv_pos_site_id
_symmetry_equiv_pos_as_xyz
1 x,y,z
2 1/2-x,-y,1/2+z
3 -x,1/2+y,1/2-z
4 1/2+x,1/2-y,-z
5 -x,-y,-z
6 1/2+x,y,1/2-z
7 x,1/2-y,1/2+z
8 1/2-x,1/2+y,z
_cell_length_a                   12.7358(15)
_cell_length_b                   16.560(2)
_cell_length_c                   18.182(2)
_cell_angle_alpha                90
_cell_angle_beta                 90
_cell_angle_gamma                90
_cell_volume                     3834.67
_exptl_crystal_colour            colorless
_exptl_crystal_description       block
_cell_formula_units_Z            8
_chemical_properties_physical    'light- and air-sensitive'
_exptl_crystal_recrystallization_method benzene/acetonitrile
loop_
_atom_site_label
_atom_site_type_symbol
_atom_site_fract_x
_atom_site_fract_y
_atom_site_fract_z
Cl1 Cl 0.75778(8) 0.24820(7) 0.27828(6)
O1 O 0.7570(3) 0.3166(2) 0.3274(2)
O2 O 0.7680(3) 0.1750(2) 0.3197(2)
O3 O 0.6612(3) 0.2458(3) 0.2391(2)
O4 O 0.8438(3) 0.2564(3) 0.2286(2)
N1 N 0.4347(3) 0.0042(2) 0.7170(2)
C1 C 0.4723(4) 0.0741(3) 0.7418(3)
H1 H 0.4585 0.1194 0.7112
C2 C 0.4527(4) -0.0628(3) 0.7558(3)
H2 H 0.4286 -0.1145 0.7406
C3 C 0.5230(12) 0.0895(8) 0.7991(8)
H3 H 0.5431 0.1433 0.8105
C4 C 0.5497(9) 0.0251(9) 0.8465(7)
C5 C 0.5146(12) -0.0501(10) 0.8260(8)
H4 H 0.5296 -0.0951 0.8565
C6 C 0.6067(6) 0.0402(5) 0.9141(5)
H5 H 0.6290 0.0941 0.9230
C7 C 0.6310(7) -0.0152(6) 0.9654(6)
H6 H 0.6102 -0.0696 0.9574
C8 C 0.687(2) 0.0041(12) 1.0322(10)
C9 C 0.7065(17) -0.0653(12) 1.0702(10)
H7 H 0.6876 -0.1157 1.0491
C10 C 0.7519(19) -0.0637(13) 1.1377(11)
H8 H 0.7624 -0.1133 1.1629
C11 C 0.782(2) 0.0043(11) 1.1703(13)
H9 H 0.8178 0.0047 1.2162
C12 C 0.7590(19) 0.0730(14) 1.1329(11)
H10 H 0.7787 0.1228 1.1550
C13 C 0.7087(15) 0.0769(12) 1.0652(10)
H11 H 0.6901 0.1268 1.0430
C25 C 0.3717(4) 0.0014(4) 0.6491(3)
H21 H 0.3238 0.0484 0.6478
H22 H 0.3283 -0.0482 0.6491
C26 C 0.4410(4) 0.0022(3) 0.5811(3)
H23 H 0.3969 0.0003 0.5370
H24 H 0.4876 -0.0450 0.5819
H25 H 0.4833 0.0516 0.5807
C27 C 0.5374(11) 0.2249(7) 0.4310(7)
H26 H 0.5487 0.2218 0.3794
C28 C 0.4423(10) 0.2457(6) 0.4577(6)
H27 H 0.3857 0.2559 0.4249
C29 C 0.4271(7) 0.2521(7) 0.5334(5)
H28 H 0.3597 0.2660 0.5519
C30 C 0.5090(10) 0.2385(7) 0.5822(7)
H29 H 0.4994 0.2438 0.6338
C31 C 0.6045(8) 0.2170(7) 0.5531(6)
H30 H 0.6623 0.2081 0.5851
C32 C 0.6180(7) 0.2082(8) 0.4790(6)
H31 H 0.6837 0.1904 0.4604
C14? C 0.5359(14) 0.0637(11) 0.8117(10)
H12? H 0.5700 0.1095 0.8322
C15? C 0.5461(12) -0.0096(11) 0.8466(8)
C16? C 0.5001(17) -0.0754(12) 0.8099(11)
H13? H 0.5071 -0.1287 0.8286
C17? C 0.5993(8) -0.0232(7) 0.9156(7)
H14? H 0.6060 -0.0781 0.9299
C18? C 0.6382(9) 0.0276(10) 0.9598(7)
H15? H 0.6379 0.0822 0.9438
C19? C 0.684(3) 0.0128(13) 1.0334(14)
C20? C 0.6915(13) -0.0525(11) 1.0819(9)
H16? H 0.6607 -0.1028 1.0687
C21? C 0.7431(15) -0.0454(11) 1.1489(9)
H17? H 0.7486 -0.0911 1.1802
C22? C 0.786(2) 0.0261(10) 1.1701(12)
H18? H 0.8175 0.0310 1.2172
C23? C 0.7828(9) 0.0893(8) 1.1246(6)
H19? H 0.8120 0.1396 1.1393
C24? C 0.7375(10) 0.0816(10) 1.0563(7)
H20? H 0.7430 0.1256 1.0230
C33? C 0.504(2) 0.235(2) 0.423(2)
H32? H 0.5096 0.2387 0.3709
C34? C 0.413(2) 0.222(2) 0.4541(18)
H33? H 0.3524 0.2154 0.4240
C35? C 0.402(3) 0.219(3) 0.5263(18)
H34? H 0.3351 0.2076 0.5462
C36? C 0.479(2) 0.230(2) 0.5705(18)
H35? H 0.4658 0.2304 0.6219
C37? C 0.574(3) 0.240(2) 0.548(2)
H36? H 0.6298 0.2461 0.5822
C38? C 0.596(2) 0.243(2) 0.4684(15)
H37? H 0.6642 0.2503 0.4489
loop_
_geom_bond_atom_site_label_1
_geom_bond_atom_site_label_2
_geom_bond_site_symmetry_1
_geom_bond_site_symmetry_2
Cl1 O1 1_555 1_555
O2 Cl1 1_555 1_555
O3 Cl1 1_555 1_555
O4 Cl1 1_555 1_555
N1 C1 1_555 1_555
C1 H1 1_555 1_555
C2 N1 1_555 1_555
H2 C2 1_555 1_555
C3 C1 1_555 1_555
H3 C3 1_555 1_555
C4 C3 1_555 1_555
C5 C2 1_555 1_555
H4 C5 1_555 1_555
C6 C4 1_555 1_555
H5 C6 1_555 1_555
C7 C6 1_555 1_555
H6 C7 1_555 1_555
C8 C7 1_555 1_555
C9 C8 1_555 1_555
H7 C9 1_555 1_555
C10 C9 1_555 1_555
H8 C10 1_555 1_555
C11 C10 1_555 1_555
H9 C11 1_555 1_555
C12 C11 1_555 1_555
H10 C12 1_555 1_555
C13 C8 1_555 1_555
H11 C13 1_555 1_555
C25 N1 1_555 1_555
H21 C25 1_555 1_555
H22 C25 1_555 1_555
C26 C25 1_555 1_555
H23 C26 1_555 1_555
H24 C26 1_555 1_555
H25 C26 1_555 1_555
C27 H26 1_555 1_555
C28 C27 1_555 1_555
H27 C28 1_555 1_555
C29 C28 1_555 1_555
H28 C29 1_555 1_555
C30 C29 1_555 1_555
H29 C30 1_555 1_555
C31 C30 1_555 1_555
H30 C31 1_555 1_555
C32 C27 1_555 1_555
H31 C32 1_555 1_555
C4 C5 1_555 1_555
C12 C13 1_555 1_555
C31 C32 1_555 1_555

#END
