
#######################################################################
#
#                 Cambridge Crystallographic Data Centre
#                                CCDC 
#
#######################################################################
#
# If this CIF has been generated from an entry in the Cambridge 
# Structural Database, then it will include bibliographic, chemical, 
# crystal, experimental, refinement or atomic coordinate data resulting 
# from the CCDC's data processing and validation procedures.
#
#######################################################################

data_RODGUN
_chemical_formula_moiety         'C15 H15 N2 O2 1+,Cl1 O4 1-'
_chemical_name_systematic        
'4-((E)-2-(4-Nitrophenyl)ethenyl)-1-ethylpyridinium perchlorate'
_symmetry_cell_setting           monoclinic
_symmetry_space_group_name_H-M   'P 21/n'
_symmetry_Int_Tables_number      14
_space_group_name_Hall           '-P 2yn'
loop_
_symmetry_equiv_pos_site_id
_symmetry_equiv_pos_as_xyz
1 x,y,z
2 1/2-x,1/2+y,1/2-z
3 -x,-y,-z
4 1/2+x,1/2-y,1/2+z
_cell_length_a                   7.8098(5)
_cell_length_b                   18.2263(13)
_cell_length_c                   10.9959(8)
_cell_angle_alpha                90
_cell_angle_beta                 95.505(2)
_cell_angle_gamma                90
_cell_volume                     1557.98
_exptl_crystal_colour            yellow
_exptl_crystal_description       block
_chemical_melting_point          173-175deg.C
_cell_formula_units_Z            4
_chemical_properties_physical    light-sensitive
_exptl_crystal_recrystallization_method 'ethyl acetate/acetonitrile'
loop_
_atom_site_label
_atom_site_type_symbol
_atom_site_fract_x
_atom_site_fract_y
_atom_site_fract_z
Cl1 Cl 0.60074(5) 0.353601(19) 0.83137(3)
O1 O 0.64644(17) 0.38207(7) 0.71676(10)
O2 O 0.61262(19) 0.41168(7) 0.92084(11)
O3 O 0.71384(17) 0.29427(7) 0.87138(11)
O4 O 0.42645(16) 0.32714(7) 0.81673(14)
N1 N 0.53074(15) 0.32120(6) 0.23913(11)
N2 N -0.03451(16) 0.65021(7) 0.91285(12)
O5 O -0.07576(18) 0.62372(7) 1.00789(11)
O6 O -0.05850(18) 0.71456(6) 0.88444(11)
C1 C 0.46143(19) 0.38433(8) 0.19253(13)
C2 C 0.38263(19) 0.43261(8) 0.26573(13)
C3 C 0.37476(18) 0.41736(8) 0.39004(13)
C4 C 0.44849(19) 0.35132(8) 0.43531(13)
C5 C 0.5245(2) 0.30439(8) 0.35815(13)
C6 C 0.29208(19) 0.46985(8) 0.46656(13)
C7 C 0.27509(18) 0.45998(8) 0.58530(13)
C8 C 0.19407(17) 0.51073(8) 0.66625(13)
C9 C 0.18666(19) 0.48997(8) 0.78810(14)
C10 C 0.11322(19) 0.53577(8) 0.86954(14)
C11 C 0.04684(18) 0.60235(8) 0.82736(13)
C12 C 0.05249(19) 0.62573(8) 0.70762(14)
C13 C 0.12666(18) 0.57935(8) 0.62714(13)
C14 C 0.6143(2) 0.26913(8) 0.15862(14)
C15 C 0.4921(3) 0.20996(12) 0.1115(2)
H1 H 0.474(3) 0.3922(10) 0.1093(18)
H2 H 0.337(2) 0.4782(10) 0.2312(16)
H3 H 0.451(2) 0.3380(10) 0.5196(17)
H4 H 0.576(2) 0.2609(10) 0.3851(16)
H5 H 0.247(2) 0.5117(10) 0.4236(17)
H6 H 0.325(2) 0.4155(10) 0.6245(16)
H7 H 0.238(2) 0.4432(10) 0.8171(16)
H8 H 0.108(3) 0.5209(11) 0.9514(19)
H9 H 0.011(2) 0.6719(10) 0.6838(15)
H10 H 0.133(2) 0.5950(9) 0.5468(17)
H11 H 0.715(2) 0.2511(10) 0.2071(17)
H12 H 0.655(3) 0.2994(11) 0.0965(19)
H13 H 0.556(3) 0.1763(12) 0.064(2)
H14 H 0.395(3) 0.2302(13) 0.069(2)
H15 H 0.461(3) 0.1817(14) 0.177(2)
loop_
_geom_bond_atom_site_label_1
_geom_bond_atom_site_label_2
_geom_bond_site_symmetry_1
_geom_bond_site_symmetry_2
Cl1 O1 1_555 1_555
O2 Cl1 1_555 1_555
O3 Cl1 1_555 1_555
O4 Cl1 1_555 1_555
N1 C1 1_555 1_555
N2 O5 1_555 1_555
O6 N2 1_555 1_555
C1 C2 1_555 1_555
C2 C3 1_555 1_555
C3 C4 1_555 1_555
C4 C5 1_555 1_555
C5 N1 1_555 1_555
C6 C3 1_555 1_555
C7 C6 1_555 1_555
C8 C7 1_555 1_555
C9 C8 1_555 1_555
C10 C9 1_555 1_555
C11 N2 1_555 1_555
C12 C11 1_555 1_555
C13 C8 1_555 1_555
C14 N1 1_555 1_555
C15 C14 1_555 1_555
H1 C1 1_555 1_555
H2 C2 1_555 1_555
H3 C4 1_555 1_555
H4 C5 1_555 1_555
H5 C6 1_555 1_555
H6 C7 1_555 1_555
H7 C9 1_555 1_555
H8 C10 1_555 1_555
H9 C12 1_555 1_555
H10 C13 1_555 1_555
H11 C14 1_555 1_555
H12 C14 1_555 1_555
H13 C15 1_555 1_555
H14 C15 1_555 1_555
H15 C15 1_555 1_555
C10 C11 1_555 1_555
C12 C13 1_555 1_555

#END
