
#######################################################################
#
#                 Cambridge Crystallographic Data Centre
#                                CCDC 
#
#######################################################################
#
# If this CIF has been generated from an entry in the Cambridge 
# Structural Database, then it will include bibliographic, chemical, 
# crystal, experimental, refinement or atomic coordinate data resulting 
# from the CCDC's data processing and validation procedures.
#
#######################################################################

data_RODGOH
_chemical_formula_moiety         'C15 H14 Cl2 N1 1+,Cl1 O4 1-'
_chemical_name_systematic        
'4-((E)-2-(3,4-Dichlorophenyl)-1-ethenyl)-1-ethylpyridinium perchlorate'
_symmetry_cell_setting           monoclinic
_symmetry_space_group_name_H-M   'P 21/c'
_symmetry_Int_Tables_number      14
_space_group_name_Hall           '-P 2ybc'
loop_
_symmetry_equiv_pos_site_id
_symmetry_equiv_pos_as_xyz
1 x,y,z
2 -x,1/2+y,1/2-z
3 -x,-y,-z
4 x,1/2-y,1/2+z
_cell_length_a                   7.2511(6)
_cell_length_b                   20.8503(16)
_cell_length_c                   11.1782(8)
_cell_angle_alpha                90
_cell_angle_beta                 108.769(2)
_cell_angle_gamma                90
_cell_volume                     1600.14
_exptl_crystal_colour            yellowish
_exptl_crystal_description       block
_chemical_melting_point          133-135deg.C
_cell_formula_units_Z            4
_chemical_properties_physical    light-sensitive
_exptl_crystal_recrystallization_method 'hexane/acetonitrile/ethyl acetate'
loop_
_atom_site_label
_atom_site_type_symbol
_atom_site_fract_x
_atom_site_fract_y
_atom_site_fract_z
Cl1 Cl 0.79507(10) 0.64421(3) 0.21837(5)
O1 O 0.8322(3) 0.70285(9) 0.2890(2)
O2 O 0.6857(15) 0.6003(5) 0.2701(12)
O3 O 0.9760(14) 0.6135(5) 0.2237(13)
O4 O 0.684(2) 0.6566(4) 0.0904(8)
Cl2 Cl 0.09289(10) 0.71068(3) -0.36955(6)
Cl3 Cl 0.1615(4) 0.57089(12) -0.4377(3)
N1 N 0.3676(19) 0.3601(5) 0.4083(11)
C1 C 0.325(2) 0.4210(5) 0.4348(12)
H1 H 0.3262 0.4306 0.5182
C2 C 0.2827(10) 0.4671(3) 0.3506(6)
H2 H 0.2452 0.5081 0.3719
C3 C 0.2925(6) 0.4560(3) 0.2285(5)
C4 C 0.3384(8) 0.3939(4) 0.2013(5)
H3 H 0.3447 0.3839 0.1198
C5 C 0.3743(12) 0.3475(3) 0.2928(9)
H4 H 0.4047 0.3053 0.2734
C6 C 0.2527(6) 0.5096(2) 0.1388(5)
H5 H 0.2157 0.5495 0.1654
C7 C 0.2649(6) 0.5064(2) 0.0227(5)
H6 H 0.3052 0.4667 -0.0025
C8 C 0.2216(8) 0.5587(3) -0.0697(7)
C9 C 0.2172(10) 0.5448(3) -0.1918(6)
H7 H 0.2435 0.5025 -0.2134
C10 C 0.1736(17) 0.5934(5) -0.2834(8)
C11 C 0.1835(14) 0.6225(4) -0.0421(8)
H8 H 0.1888 0.6323 0.0420
C23 C 0.1395(4) 0.65450(11) -0.2497(2)
C24 C 0.1381(4) 0.67259(13) -0.1314(2)
C25 C 0.4203(5) 0.30900(13) 0.5139(3)
C26 C 0.6088(5) 0.32587(16) 0.6135(3)
H17 H 0.103(4) 0.7143(13) -0.117(3)
H18 H 0.428(4) 0.2645(14) 0.479(3)
H19 H 0.321(4) 0.3098(11) 0.547(2)
H20 H 0.630(4) 0.2931(13) 0.679(3)
H21 H 0.601(4) 0.3672(15) 0.650(3)
H22 H 0.714(5) 0.3254(12) 0.584(3)
O5? O 0.760(7) 0.5968(11) 0.294(2)
O6? O 0.945(3) 0.6294(14) 0.173(4)
O7? O 0.629(3) 0.6546(12) 0.114(2)
Cl4? Cl 0.1860(6) 0.5591(2) -0.3931(5)
N2? N 0.383(4) 0.3481(10) 0.410(2)
C12? C 0.316(4) 0.4078(9) 0.4196(18)
H9? H 0.2856 0.4205 0.4927
C13? C 0.2912(16) 0.4526(5) 0.3127(11)
H10? H 0.2632 0.4966 0.3209
C14? C 0.3095(12) 0.4296(6) 0.1995(8)
C15? C 0.3632(17) 0.3654(5) 0.1951(10)
H11? H 0.3768 0.3484 0.1196
C16? C 0.396(2) 0.3278(5) 0.2979(14)
H12? H 0.4299 0.2842 0.2913
C17? C 0.2815(10) 0.4698(3) 0.0879(6)
H13? H 0.2905 0.4493 0.0142
C18? C 0.2448(11) 0.5324(4) 0.0797(8)
H14? H 0.2388 0.5527 0.1544
C19? C 0.2125(15) 0.5735(5) -0.0312(10)
C20? C 0.2198(17) 0.5495(6) -0.1448(11)
H15? H 0.2518 0.5055 -0.1483
C21? C 0.184(3) 0.5851(8) -0.2522(14)
C22? C 0.165(3) 0.6365(8) -0.0215(14)
H16? H 0.1521 0.6542 0.0537
loop_
_geom_bond_atom_site_label_1
_geom_bond_atom_site_label_2
_geom_bond_site_symmetry_1
_geom_bond_site_symmetry_2
Cl1 O1 1_555 1_555
O2 Cl1 1_555 1_555
O3 Cl1 1_555 1_555
O4 Cl1 1_555 1_555
Cl2 C23 1_555 1_555
Cl3 C10 1_555 1_555
N1 C1 1_555 1_555
C1 H1 1_555 1_555
C2 C1 1_555 1_555
H2 C2 1_555 1_555
C3 C2 1_555 1_555
C4 C3 1_555 1_555
H3 C4 1_555 1_555
C5 N1 1_555 1_555
H4 C5 1_555 1_555
C6 C3 1_555 1_555
H5 C6 1_555 1_555
C7 C6 1_555 1_555
H6 C7 1_555 1_555
C8 C7 1_555 1_555
C9 C8 1_555 1_555
H7 C9 1_555 1_555
C10 C9 1_555 1_555
C11 C8 1_555 1_555
H8 C11 1_555 1_555
C23 C10 1_555 1_555
C24 C11 1_555 1_555
C25 N1 1_555 1_555
C26 C25 1_555 1_555
H17 C24 1_555 1_555
H18 C25 1_555 1_555
H19 C25 1_555 1_555
H20 C26 1_555 1_555
H21 C26 1_555 1_555
H22 C26 1_555 1_555
C4 C5 1_555 1_555
C23 C24 1_555 1_555

#END
