
#######################################################################
#
#                 Cambridge Crystallographic Data Centre
#                                CCDC 
#
#######################################################################
#
# If this CIF has been generated from an entry in the Cambridge 
# Structural Database, then it will include bibliographic, chemical, 
# crystal, experimental, refinement or atomic coordinate data resulting 
# from the CCDC's data processing and validation procedures.
#
#######################################################################

data_RODHAU
_chemical_formula_moiety         
'Cl1 O4 1-,C19 H20 N1 O2 S1 1+,0.5(C2 H3 N1),0.5(H2 O1)'
_chemical_name_systematic        
'2-((E)-2-(3,4-Dimethoxyphenyl)ethenyl)-3-ethyl-1,3-benzothiazol-3-ylium perchlorate acetonitrile solvate hemihydrate'
_symmetry_cell_setting           triclinic
_symmetry_space_group_name_H-M   'P -1'
_symmetry_Int_Tables_number      2
_space_group_name_Hall           '-P 1'
loop_
_symmetry_equiv_pos_site_id
_symmetry_equiv_pos_as_xyz
1 x,y,z
2 -x,-y,-z
_cell_length_a                   7.4197(15)
_cell_length_b                   11.398(2)
_cell_length_c                   14.333(3)
_cell_angle_alpha                108.40(3)
_cell_angle_beta                 100.66(3)
_cell_angle_gamma                92.56(3)
_cell_volume                     1123.4
_exptl_crystal_colour            yellow-orange
_exptl_crystal_description       plate
_cell_formula_units_Z            2
_chemical_properties_physical    light-sensitive
loop_
_atom_site_label
_atom_site_type_symbol
_atom_site_fract_x
_atom_site_fract_y
_atom_site_fract_z
S1 S 0.55176(11) 0.44306(7) 0.30790(6)
O8 O 1.0723(3) 0.3791(2) 0.88176(19)
O9 O 1.1177(3) 0.5968(2) 0.87086(17)
N1 N 0.6857(3) 0.6711(2) 0.3788(2)
C1 C 0.5060(4) 0.5351(3) 0.2321(3)
C2 C 0.4027(5) 0.5009(4) 0.1336(3)
H1 H 0.3455 0.4183 0.0997
C3 C 0.3859(5) 0.5889(4) 0.0875(3)
C4 C 0.4736(5) 0.7114(5) 0.1375(3)
C5 C 0.5745(5) 0.7465(4) 0.2348(3)
C6 C 0.5899(4) 0.6555(3) 0.2815(3)
C7 C 0.6785(4) 0.5681(3) 0.4041(2)
C8 C 0.7634(4) 0.5599(3) 0.4992(2)
C9 C 0.7640(4) 0.4514(3) 0.5193(3)
C10 C 0.8458(4) 0.4336(3) 0.6128(2)
C11 C 0.8261(4) 0.3147(3) 0.6202(3)
H2 H 0.7618 0.2478 0.5635
C12 C 0.8976(4) 0.2922(3) 0.7078(3)
C13 C 0.9940(4) 0.3889(3) 0.7917(2)
C14 C 1.0183(4) 0.5104(3) 0.7850(2)
C15 C 0.9456(4) 0.5319(3) 0.6976(2)
C16 C 1.0449(6) 0.2593(3) 0.8937(3)
C17 C 1.1452(6) 0.7202(3) 0.8689(3)
C18 C 0.7817(5) 0.7927(3) 0.4464(3)
C19 C 0.6503(6) 0.8718(4) 0.5016(3)
H3 H 0.7171 0.9520 0.5459
H4 H 0.5992 0.8287 0.5419
H5 H 0.5497 0.8858 0.4527
H6 H 0.315(5) 0.562(3) 0.021(3)
H7 H 0.509(9) 0.762(6) 0.109(5)
H8 H 0.640(6) 0.834(4) 0.263(3)
H9 H 0.802(6) 0.636(4) 0.543(3)
H10 H 0.715(6) 0.381(4) 0.469(3)
H11 H 0.872(7) 0.218(5) 0.706(4)
H12 H 0.962(5) 0.611(4) 0.702(3)
H13 H 1.101(7) 0.269(5) 0.964(4)
H14 H 1.094(6) 0.189(4) 0.837(3)
H15 H 0.922(7) 0.236(5) 0.885(4)
H16 H 1.239(6) 0.762(4) 0.935(3)
H17 H 1.027(5) 0.747(3) 0.857(3)
H18 H 1.224(5) 0.723(3) 0.824(3)
H19 H 0.826(6) 0.825(4) 0.399(3)
H20 H 0.885(5) 0.776(3) 0.489(3)
N2 N 0.3523(14) 0.2120(8) 0.1120(9)
C20 C 0.3207(13) 0.1297(9) 0.1483(10)
C21 C 0.2875(15) 0.0481(9) 0.1883(8)
H21 H 0.3384 -0.0285 0.1557
H22 H 0.1539 0.0307 0.1799
H23 H 0.3448 0.0793 0.2602
O10 O 0.114(2) 0.0214(13) 0.0091(14)
O10A O -0.114(2) -0.0214(13) -0.0091(14)
Cl1 Cl 0.82317(17) 0.09107(9) 0.31705(8)
O1 O 0.7582(7) 0.0320(4) 0.2123(3)
O2 O 0.6855(12) 0.0977(11) 0.3777(7)
O3 O 0.9425(12) -0.0001(6) 0.3443(7)
O4 O 0.9214(13) 0.2072(6) 0.3429(5)
O5? O 1.002(3) 0.1704(16) 0.3174(13)
O6? O 0.846(3) 0.0312(16) 0.3845(13)
O7? O 0.693(3) 0.1731(16) 0.3425(11)
O11? O 0.369(4) 0.139(3) 0.108(2)
loop_
_geom_bond_atom_site_label_1
_geom_bond_atom_site_label_2
_geom_bond_site_symmetry_1
_geom_bond_site_symmetry_2
Cl1 O1 1_555 1_555
O2 Cl1 1_555 1_555
O3 Cl1 1_555 1_555
O4 Cl1 1_555 1_555
S1 C1 1_555 1_555
O8 C13 1_555 1_555
O9 C14 1_555 1_555
N1 C6 1_555 1_555
C1 C2 1_555 1_555
C2 H1 1_555 1_555
C3 C2 1_555 1_555
C4 C3 1_555 1_555
C5 C4 1_555 1_555
C6 C1 1_555 1_555
C7 S1 1_555 1_555
C8 C7 1_555 1_555
C9 C8 1_555 1_555
C10 C9 1_555 1_555
C11 C10 1_555 1_555
H2 C11 1_555 1_555
C12 C11 1_555 1_555
C13 C12 1_555 1_555
C14 C13 1_555 1_555
C15 C10 1_555 1_555
C16 O8 1_555 1_555
C17 O9 1_555 1_555
C18 N1 1_555 1_555
C19 C18 1_555 1_555
H3 C19 1_555 1_555
H4 C19 1_555 1_555
H5 C19 1_555 1_555
H6 C3 1_555 1_555
H7 C4 1_555 1_555
H8 C5 1_555 1_555
H9 C8 1_555 1_555
H10 C9 1_555 1_555
H11 C12 1_555 1_555
H12 C15 1_555 1_555
H13 C16 1_555 1_555
H14 C16 1_555 1_555
H15 C16 1_555 1_555
H16 C17 1_555 1_555
H17 C17 1_555 1_555
H18 C17 1_555 1_555
H19 C18 1_555 1_555
H20 C18 1_555 1_555
N2 C20 1_555 1_555
C20 C21 1_555 1_555
C21 H21 1_555 1_555
H22 C21 1_555 1_555
H23 C21 1_555 1_555
O10 O10A 1_555 1_555
N1 C7 1_555 1_555
C5 C6 1_555 1_555
C14 C15 1_555 1_555

#END
