
#######################################################################
#
#                 Cambridge Crystallographic Data Centre
#                                CCDC 
#
#######################################################################
#
# If this CIF has been generated from an entry in the Cambridge 
# Structural Database, then it will include bibliographic, chemical, 
# crystal, experimental, refinement or atomic coordinate data resulting 
# from the CCDC's data processing and validation procedures.
#
#######################################################################

data_RODJEB
_chemical_formula_moiety         'C29 H31 N1 O5'
_chemical_name_systematic        
'dimethyl 1-(4-methoxybenzyl)-2,3-dimethyl-8-phenyl-4,6-dihydrocyclohepta[b]pyrrole-5,5(1H)-dicarboxylate'
_symmetry_cell_setting           triclinic
_symmetry_space_group_name_H-M   'P -1'
_symmetry_Int_Tables_number      2
_space_group_name_Hall           '-P 1'
loop_
_symmetry_equiv_pos_site_id
_symmetry_equiv_pos_as_xyz
1 x,y,z
2 -x,-y,-z
_cell_length_a                   10.8042(16)
_cell_length_b                   11.3229(18)
_cell_length_c                   12.0046(18)
_cell_angle_alpha                62.987(2)
_cell_angle_beta                 77.860(3)
_cell_angle_gamma                71.848(3)
_cell_volume                     1239.14
_exptl_crystal_colour            colorless
_exptl_crystal_description       prismatic
_cell_formula_units_Z            2
loop_
_atom_site_label
_atom_site_type_symbol
_atom_site_fract_x
_atom_site_fract_y
_atom_site_fract_z
N1 N 0.17495(12) 0.36951(13) 0.41129(12)
O1 O 0.34003(17) -0.02309(13) 0.13646(13)
O2 O 0.25998(13) 0.16453(13) -0.02987(12)
O3 O 0.35268(13) 0.42095(13) -0.03327(12)
O4 O 0.51869(12) 0.23480(13) 0.00172(12)
O5 O 0.76719(11) 0.34604(14) 0.44311(12)
C1 C 0.18288(16) 0.27678(17) 0.15401(15)
H1 H 0.1469 0.3463 0.0736
H2 H 0.1273 0.2109 0.1945
C2 C 0.32333(16) 0.19976(16) 0.12634(15)
C3 C 0.40309(16) 0.12516(17) 0.24318(15)
H3 H 0.4781 0.0547 0.2295
H4 H 0.4390 0.1924 0.2491
C4 C 0.33065(16) 0.05715(16) 0.36700(15)
H5 H 0.3467 -0.0398 0.4041
C5 C 0.24467(15) 0.12669(15) 0.42735(14)
C6 C 0.20057(14) 0.27531(15) 0.36059(14)
C7 C 0.17546(14) 0.34587(15) 0.23647(14)
C8 C 0.13336(15) 0.48735(15) 0.20956(15)
C9 C 0.13629(15) 0.49900(16) 0.31804(15)
C10 C 0.10734(17) 0.62409(17) 0.34136(17)
H6 H 0.0404 0.6180 0.4116
H7 H 0.0755 0.7052 0.2660
H8 H 0.1872 0.6311 0.3618
C11 C 0.08707(18) 0.60135(17) 0.08783(16)
H9 H -0.0022 0.6032 0.0803
H10 H 0.1450 0.5868 0.0181
H11 H 0.0881 0.6887 0.0855
C12 C 0.18468(16) 0.05568(15) 0.55517(14)
C13 C 0.05047(17) 0.09248(17) 0.58379(16)
H12 H -0.0035 0.1642 0.5209
C14 C -0.00534(19) 0.02578(18) 0.70302(18)
H13 H -0.0971 0.0512 0.7212
C15 C 0.0726(2) -0.07785(18) 0.79554(17)
H14 H 0.0345 -0.1231 0.8775
C16 C 0.2055(2) -0.11521(19) 0.76860(17)
H15 H 0.2589 -0.1865 0.8322
C17 C 0.26209(18) -0.04953(17) 0.64930(16)
H16 H 0.3539 -0.0762 0.6316
C18 C 0.23244(15) 0.34147(16) 0.52300(14)
H17 H 0.2214 0.2519 0.5895
H18 H 0.1851 0.4124 0.5540
C19 C 0.37631(15) 0.33924(15) 0.49854(15)
C20 C 0.43819(16) 0.37614(16) 0.37898(15)
H19 H 0.3902 0.4001 0.3108
C21 C 0.56926(16) 0.37915(16) 0.35593(15)
H20 H 0.6102 0.4048 0.2730
C22 C 0.63888(16) 0.34447(16) 0.45493(16)
C23 C 0.57910(17) 0.30456(17) 0.57601(16)
H21 H 0.6277 0.2787 0.6444
C24 C 0.44944(17) 0.30237(16) 0.59702(15)
H22 H 0.4092 0.2752 0.6802
C25 C 0.82837(19) 0.3966(2) 0.3191(2)
H23 H 0.8334 0.3354 0.2803
H24 H 0.9167 0.4009 0.3223
H25 H 0.7771 0.4885 0.2694
C26 C 0.31207(17) 0.09819(18) 0.08094(16)
C27 C 0.2397(2) 0.0790(2) -0.0806(2)
H26 H 0.3234 0.0176 -0.0917
H27 H 0.2027 0.1365 -0.1619
H28 H 0.1791 0.0246 -0.0227
C28 C 0.39590(17) 0.30047(17) 0.02186(15)
C29 C 0.5994(2) 0.3176(2) -0.0950(2)
H29 H 0.5611 0.3590 -0.1755
H30 H 0.6873 0.2602 -0.1013
H31 H 0.6047 0.3900 -0.0740
loop_
_geom_bond_atom_site_label_1
_geom_bond_atom_site_label_2
_geom_bond_site_symmetry_1
_geom_bond_site_symmetry_2
N1 C6 1_555 1_555
O1 C26 1_555 1_555
O2 C26 1_555 1_555
O3 C28 1_555 1_555
O4 C28 1_555 1_555
O5 C22 1_555 1_555
C1 H1 1_555 1_555
H2 C1 1_555 1_555
C2 C1 1_555 1_555
C3 C2 1_555 1_555
H3 C3 1_555 1_555
H4 C3 1_555 1_555
C4 C3 1_555 1_555
H5 C4 1_555 1_555
C5 C4 1_555 1_555
C6 C5 1_555 1_555
C7 C1 1_555 1_555
C8 C7 1_555 1_555
C9 N1 1_555 1_555
C10 C9 1_555 1_555
H6 C10 1_555 1_555
H7 C10 1_555 1_555
H8 C10 1_555 1_555
C11 C8 1_555 1_555
H9 C11 1_555 1_555
H10 C11 1_555 1_555
H11 C11 1_555 1_555
C12 C5 1_555 1_555
C13 C12 1_555 1_555
H12 C13 1_555 1_555
C14 C13 1_555 1_555
H13 C14 1_555 1_555
C15 C14 1_555 1_555
H14 C15 1_555 1_555
C16 C15 1_555 1_555
H15 C16 1_555 1_555
C17 C12 1_555 1_555
H16 C17 1_555 1_555
C18 N1 1_555 1_555
H17 C18 1_555 1_555
H18 C18 1_555 1_555
C19 C18 1_555 1_555
C20 C19 1_555 1_555
H19 C20 1_555 1_555
C21 C20 1_555 1_555
H20 C21 1_555 1_555
C22 C21 1_555 1_555
C23 C22 1_555 1_555
H21 C23 1_555 1_555
C24 C19 1_555 1_555
H22 C24 1_555 1_555
C25 O5 1_555 1_555
H23 C25 1_555 1_555
H24 C25 1_555 1_555
H25 C25 1_555 1_555
C26 C2 1_555 1_555
C27 O2 1_555 1_555
H26 C27 1_555 1_555
H27 C27 1_555 1_555
H28 C27 1_555 1_555
C28 C2 1_555 1_555
C29 O4 1_555 1_555
H29 C29 1_555 1_555
H30 C29 1_555 1_555
H31 C29 1_555 1_555
C6 C7 1_555 1_555
C8 C9 1_555 1_555
C16 C17 1_555 1_555
C23 C24 1_555 1_555

#END
