
#######################################################################
#
#                 Cambridge Crystallographic Data Centre
#                                CCDC 
#
#######################################################################
#
# If this CIF has been generated from an entry in the Cambridge 
# Structural Database, then it will include bibliographic, chemical, 
# crystal, experimental, refinement or atomic coordinate data resulting 
# from the CCDC's data processing and validation procedures.
#
#######################################################################

data_RODPIL
_chemical_formula_moiety         'C23 H17 Cl1 F1 N1 O2'
_chemical_name_systematic        
3-benzyl-6-chloro-3-(1-fluoro-2-oxo-2-phenylethyl)-1,3-dihydro-2H-indol-2-one
_symmetry_cell_setting           monoclinic
_symmetry_space_group_name_H-M   'P 21'
_symmetry_Int_Tables_number      4
_space_group_name_Hall           'P 2yb'
loop_
_symmetry_equiv_pos_site_id
_symmetry_equiv_pos_as_xyz
1 x,y,z
2 -x,1/2+y,-z
_cell_length_a                   8.2887(11)
_cell_length_b                   13.4909(19)
_cell_length_c                   17.422(2)
_cell_angle_alpha                90
_cell_angle_beta                 91.480(2)
_cell_angle_gamma                90
_cell_volume                     1947.51
_exptl_crystal_colour            colorless
_exptl_crystal_description       needle
_cell_formula_units_Z            4
_exptl_crystal_recrystallization_method 'Re-crystallisation from solvent'
loop_
_atom_site_label
_atom_site_type_symbol
_atom_site_fract_x
_atom_site_fract_y
_atom_site_fract_z
Cl1 Cl 0.48377(13) 1.20192(8) 0.35009(7)
O1 O -0.0255(2) 0.79111(13) 0.20157(11)
O2 O -0.0825(4) 1.12381(18) 0.13481(14)
N1 N 0.1759(3) 0.90125(15) 0.23108(12)
C1 C 0.1630(4) 1.1698(2) 0.34510(19)
H1 H 0.1553 1.2298 0.3711
C2 C 0.3114(4) 1.1344(2) 0.32455(17)
C3 C 0.3305(4) 1.0450(2) 0.28641(16)
H2 H 0.4315 1.0214 0.2732
C4 C 0.1916(3) 0.99359(18) 0.26946(14)
C5 C 0.0396(3) 1.02685(19) 0.28995(16)
C6 C 0.0253(4) 1.1157(2) 0.32695(18)
H3 H -0.0758 1.1395 0.3398
C7 C -0.0856(3) 0.95080(19) 0.26344(15)
C8 C 0.0211(3) 0.87069(19) 0.22737(15)
C9 C -0.1816(3) 0.9059(2) 0.33103(16)
H4 H -0.2335 0.9595 0.3581
H5 H -0.2659 0.8634 0.3098
C10 C -0.0824(4) 0.8474(3) 0.38750(17)
C11 C -0.0741(5) 0.7444(3) 0.3820(2)
H6 H -0.1315 0.7132 0.3423
C12 C 0.0036(5) 0.8917(4) 0.4463(2)
H7 H 0.0007 0.9602 0.4518
C13 C -0.2045(3) 0.9938(2) 0.20263(16)
H8 H -0.2789 0.9416 0.1851
C14 C -0.1203(4) 1.0374(2) 0.13346(18)
C15 C -0.0785(4) 0.9711(2) 0.06932(17)
C16 C 0.0508(5) 0.9981(3) 0.0239(2)
H9 H 0.1055 1.0572 0.0335
C17 C 0.0973(7) 0.9374(4) -0.0350(3)
H10 H 0.1841 0.9555 -0.0648
C18 C 0.0185(8) 0.8519(5) -0.0501(3)
H11 H 0.0525 0.8113 -0.0896
C19 C -0.1089(7) 0.8247(3) -0.0085(3)
H12 H -0.1637 0.7662 -0.0201
C20 C -0.1592(5) 0.8845(3) 0.0523(2)
H13 H -0.2470 0.8656 0.0811
C21 C 0.0149(7) 0.6873(4) 0.4324(3)
H14 H 0.0147 0.6186 0.4278
C22 C 0.1024(7) 0.7317(7) 0.4883(4)
H15 H 0.1681 0.6935 0.5207
C23 C 0.0969(7) 0.8335(7) 0.4989(3)
H16 H 0.1534 0.8631 0.5396
F1 F -0.2908(2) 1.06785(14) 0.23759(11)
Cl2 Cl 0.96510(14) 0.36698(7) 0.25868(7)
O3 O 0.4690(2) 0.81248(13) 0.17938(10)
O4 O 0.4755(3) 0.73232(18) 0.34847(13)
N2 N 0.6697(3) 0.69719(15) 0.19497(12)
C24 C 0.8183(4) 0.5400(2) 0.22323(17)
H17 H 0.9201 0.5691 0.2243
C25 C 0.7965(4) 0.4401(2) 0.23630(19)
C26 C 0.6488(4) 0.3956(2) 0.23287(19)
H18 H 0.6400 0.3275 0.2402
C27 C 0.5120(4) 0.4521(2) 0.21846(18)
H19 H 0.4106 0.4226 0.2161
C28 C 0.6800(3) 0.59401(18) 0.20855(15)
C29 C 0.5281(3) 0.55298(18) 0.20762(15)
C30 C 0.5135(3) 0.72692(18) 0.18962(14)
C31 C 0.4051(3) 0.6348(2) 0.19652(15)
C32 C 0.3015(3) 0.6443(2) 0.26908(16)
H20 H 0.2369 0.7049 0.2639
C33 C 0.4059(4) 0.6534(2) 0.34195(17)
C34 C 0.4311(4) 0.5727(2) 0.39918(17)
C35 C 0.3368(5) 0.4890(3) 0.40655(19)
H21 H 0.2489 0.4791 0.3732
C36 C 0.3720(6) 0.4199(3) 0.4631(2)
H22 H 0.3071 0.3640 0.4675
C37 C 0.4991(7) 0.4321(4) 0.5121(2)
H23 H 0.5210 0.3853 0.5501
C38 C 0.5953(7) 0.5135(4) 0.5056(2)
H24 H 0.6847 0.5213 0.5384
C39 C 0.5606(5) 0.5842(3) 0.4506(2)
H25 H 0.6248 0.6406 0.4479
C40 C 0.2931(3) 0.6253(2) 0.12411(16)
H26 H 0.2358 0.5627 0.1264
H27 H 0.2135 0.6780 0.1249
C41 C 0.4496(5) 0.5481(3) 0.0173(2)
H28 H 0.4439 0.4874 0.0425
C42 C 0.3928(6) 0.7186(3) 0.0102(2)
H29 H 0.3475 0.7758 0.0303
C43 C 0.3804(4) 0.6303(2) 0.04956(17)
C44 C 0.5282(5) 0.5538(4) -0.0524(3)
H30 H 0.5740 0.4974 -0.0733
C45 C 0.5377(6) 0.6417(5) -0.0895(2)
H31 H 0.5896 0.6456 -0.1361
C46 C 0.4722(7) 0.7232(4) -0.0590(2)
H32 H 0.4800 0.7835 -0.0845
F2 F 0.1967(2) 0.56480(14) 0.26959(11)
loop_
_geom_bond_atom_site_label_1
_geom_bond_atom_site_label_2
_geom_bond_site_symmetry_1
_geom_bond_site_symmetry_2
Cl1 C2 1_555 1_555
O1 C8 1_555 1_555
O2 C14 1_555 1_555
N1 C4 1_555 1_555
C1 H1 1_555 1_555
C2 C1 1_555 1_555
C3 C2 1_555 1_555
H2 C3 1_555 1_555
C4 C3 1_555 1_555
C5 C4 1_555 1_555
C6 C1 1_555 1_555
H3 C6 1_555 1_555
C7 C5 1_555 1_555
C8 N1 1_555 1_555
C9 C7 1_555 1_555
H4 C9 1_555 1_555
H5 C9 1_555 1_555
C10 C9 1_555 1_555
C11 C10 1_555 1_555
H6 C11 1_555 1_555
C12 C10 1_555 1_555
H7 C12 1_555 1_555
C13 C7 1_555 1_555
H8 C13 1_555 1_555
C14 C13 1_555 1_555
C15 C14 1_555 1_555
C16 C15 1_555 1_555
H9 C16 1_555 1_555
C17 C16 1_555 1_555
H10 C17 1_555 1_555
C18 C17 1_555 1_555
H11 C18 1_555 1_555
C19 C18 1_555 1_555
H12 C19 1_555 1_555
C20 C15 1_555 1_555
H13 C20 1_555 1_555
C21 C11 1_555 1_555
H14 C21 1_555 1_555
C22 C21 1_555 1_555
H15 C22 1_555 1_555
C23 C12 1_555 1_555
H16 C23 1_555 1_555
F1 C13 1_555 1_555
Cl2 C25 1_555 1_555
O3 C30 1_555 1_555
O4 C33 1_555 1_555
N2 C28 1_555 1_555
C24 H17 1_555 1_555
C25 C24 1_555 1_555
C26 C25 1_555 1_555
H18 C26 1_555 1_555
C27 C26 1_555 1_555
H19 C27 1_555 1_555
C28 C24 1_555 1_555
C29 C27 1_555 1_555
C30 N2 1_555 1_555
C31 C29 1_555 1_555
C32 C31 1_555 1_555
H20 C32 1_555 1_555
C33 C32 1_555 1_555
C34 C33 1_555 1_555
C35 C34 1_555 1_555
H21 C35 1_555 1_555
C36 C35 1_555 1_555
H22 C36 1_555 1_555
C37 C36 1_555 1_555
H23 C37 1_555 1_555
C38 C37 1_555 1_555
H24 C38 1_555 1_555
C39 C34 1_555 1_555
H25 C39 1_555 1_555
C40 C31 1_555 1_555
H26 C40 1_555 1_555
H27 C40 1_555 1_555
C41 H28 1_555 1_555
C42 H29 1_555 1_555
C43 C40 1_555 1_555
C44 C41 1_555 1_555
H30 C44 1_555 1_555
C45 C44 1_555 1_555
H31 C45 1_555 1_555
C46 C42 1_555 1_555
H32 C46 1_555 1_555
F2 C32 1_555 1_555
C5 C6 1_555 1_555
C7 C8 1_555 1_555
C19 C20 1_555 1_555
C22 C23 1_555 1_555
C28 C29 1_555 1_555
C30 C31 1_555 1_555
C38 C39 1_555 1_555
C41 C43 1_555 1_555
C42 C43 1_555 1_555
C45 C46 1_555 1_555

#END
