
#######################################################################
#
#                 Cambridge Crystallographic Data Centre
#                                CCDC 
#
#######################################################################
#
# If this CIF has been generated from an entry in the Cambridge 
# Structural Database, then it will include bibliographic, chemical, 
# crystal, experimental, refinement or atomic coordinate data resulting 
# from the CCDC's data processing and validation procedures.
#
#######################################################################

data_RODQUY
_chemical_formula_moiety         'C16 H20 Br1 N1 O3'
_chemical_name_systematic        
't-butyl 3a-bromo-8a-methyl-2,3,3a,8a-tetrahydro-8H-furo[2,3-b]indole-8-carboxylate'
_symmetry_cell_setting           orthorhombic
_symmetry_space_group_name_H-M   'P 21 21 21'
_symmetry_Int_Tables_number      19
_space_group_name_Hall           'P 2ac 2ab'
loop_
_symmetry_equiv_pos_site_id
_symmetry_equiv_pos_as_xyz
1 x,y,z
2 1/2-x,-y,1/2+z
3 -x,1/2+y,1/2-z
4 1/2+x,1/2-y,-z
_cell_length_a                   10.7108(16)
_cell_length_b                   11.1191(17)
_cell_length_c                   13.618(2)
_cell_angle_alpha                90
_cell_angle_beta                 90
_cell_angle_gamma                90
_cell_volume                     1621.83
_exptl_crystal_colour            colorless
_exptl_crystal_description       prismatic
_cell_formula_units_Z            4
loop_
_atom_site_label
_atom_site_type_symbol
_atom_site_fract_x
_atom_site_fract_y
_atom_site_fract_z
Br1 Br 1.07439(3) 0.83880(4) 0.08496(3)
N1 N 0.81549(19) 0.8904(2) 0.25536(16)
O1 O 0.7808(2) 1.0563(2) 0.14928(18)
O2 O 0.7144(2) 0.7754(3) 0.36811(17)
O3 O 0.61514(17) 0.8403(2) 0.23106(14)
C1 C 1.0145(3) 0.9662(3) 0.2587(2)
C2 C 1.1245(3) 1.0070(3) 0.3001(3)
H1 H 1.1882 1.0380 0.2611
C3 C 1.1375(4) 1.0005(4) 0.4013(3)
H2 H 1.2110 1.0263 0.4309
C4 C 1.0421(4) 0.9562(3) 0.4576(2)
H3 H 1.0520 0.9537 0.5255
C5 C 0.9315(3) 0.9150(3) 0.4172(2)
H4 H 0.8680 0.8844 0.4565
C6 C 0.9188(3) 0.9211(3) 0.31536(19)
C7 C 0.8346(3) 0.9406(3) 0.1556(2)
C8 C 0.9773(3) 0.9656(3) 0.1528(2)
C9 C 0.9875(3) 1.0828(3) 0.0986(3)
H5 H 0.9844 1.0711 0.0280
H6 H 1.0634 1.1256 0.1157
C10 C 0.8730(4) 1.1471(3) 0.1357(3)
H7 H 0.8906 1.1876 0.1973
H8 H 0.8448 1.2063 0.0884
C11 C 0.7815(3) 0.8646(3) 0.0738(2)
H9 H 0.6924 0.8735 0.0722
H10 H 0.8022 0.7817 0.0849
H11 H 0.8161 0.8902 0.0122
C12 C 0.7136(3) 0.8298(3) 0.2908(2)
C13 C 0.5011(3) 0.7675(3) 0.2479(2)
C14 C 0.4168(3) 0.8063(3) 0.1652(3)
H12 H 0.4021 0.8913 0.1696
H13 H 0.3389 0.7642 0.1697
H14 H 0.4559 0.7883 0.1035
C15 C 0.4428(3) 0.7996(3) 0.3460(3)
H15 H 0.4943 0.7695 0.3982
H16 H 0.3613 0.7641 0.3504
H17 H 0.4359 0.8854 0.3514
C16 C 0.5336(4) 0.6349(3) 0.2412(3)
H18 H 0.5727 0.6188 0.1792
H19 H 0.4587 0.5879 0.2469
H20 H 0.5898 0.6141 0.2934
loop_
_geom_bond_atom_site_label_1
_geom_bond_atom_site_label_2
_geom_bond_site_symmetry_1
_geom_bond_site_symmetry_2
Br1 C8 1_555 1_555
N1 C6 1_555 1_555
O1 C7 1_555 1_555
O2 C12 1_555 1_555
O3 C12 1_555 1_555
C1 C2 1_555 1_555
C2 H1 1_555 1_555
C3 C2 1_555 1_555
H2 C3 1_555 1_555
C4 C3 1_555 1_555
H3 C4 1_555 1_555
C5 C4 1_555 1_555
H4 C5 1_555 1_555
C6 C1 1_555 1_555
C7 N1 1_555 1_555
C8 C1 1_555 1_555
C9 C8 1_555 1_555
H5 C9 1_555 1_555
H6 C9 1_555 1_555
C10 O1 1_555 1_555
H7 C10 1_555 1_555
H8 C10 1_555 1_555
C11 C7 1_555 1_555
H9 C11 1_555 1_555
H10 C11 1_555 1_555
H11 C11 1_555 1_555
C12 N1 1_555 1_555
C13 O3 1_555 1_555
C14 C13 1_555 1_555
H12 C14 1_555 1_555
H13 C14 1_555 1_555
H14 C14 1_555 1_555
C15 C13 1_555 1_555
H15 C15 1_555 1_555
H16 C15 1_555 1_555
H17 C15 1_555 1_555
C16 C13 1_555 1_555
H18 C16 1_555 1_555
H19 C16 1_555 1_555
H20 C16 1_555 1_555
C5 C6 1_555 1_555
C7 C8 1_555 1_555
C9 C10 1_555 1_555

#END
