
#######################################################################
#
#                 Cambridge Crystallographic Data Centre
#                                CCDC 
#
#######################################################################
#
# If this CIF has been generated from an entry in the Cambridge 
# Structural Database, then it will include bibliographic, chemical, 
# crystal, experimental, refinement or atomic coordinate data resulting 
# from the CCDC's data processing and validation procedures.
#
#######################################################################

data_RODQEI
_chemical_formula_moiety         'C23 H15 B1 Cl2 F2 N4'
_chemical_name_systematic        
2,8-dichloro-5,5-difluoro-10-phenyl-3,7-bis(1H-pyrrol-2-yl)-5H-4,5-dipyrrolo[1,2-c:2',1'-f][1,3,2]diazaborinine
_symmetry_cell_setting           monoclinic
_symmetry_space_group_name_H-M   'P 21/c'
_symmetry_Int_Tables_number      14
_space_group_name_Hall           '-P 2ybc'
loop_
_symmetry_equiv_pos_site_id
_symmetry_equiv_pos_as_xyz
1 x,y,z
2 -x,1/2+y,1/2-z
3 -x,-y,-z
4 x,1/2-y,1/2+z
_cell_length_a                   10.4601(8)
_cell_length_b                   21.5168(17)
_cell_length_c                   9.1282(7)
_cell_angle_alpha                90
_cell_angle_beta                 91.5010(10)
_cell_angle_gamma                90
_cell_volume                     2053.76
_exptl_crystal_colour            green
_exptl_crystal_description       block
_cell_formula_units_Z            4
loop_
_atom_site_label
_atom_site_type_symbol
_atom_site_fract_x
_atom_site_fract_y
_atom_site_fract_z
B1 B 0.73128(16) 0.24846(8) 0.55150(18)
C1 C 0.8560(2) 0.43859(11) 0.6773(3)
H1 H 0.9067 0.4454 0.7610
Cl1 Cl 0.47018(5) 0.44120(2) 0.31855(6)
F1 F 0.84926(8) 0.26158(4) 0.49444(10)
N1 N 0.78164(16) 0.38794(8) 0.65070(19)
C2 C 0.8441(2) 0.47747(10) 0.5616(3)
H2 H 0.8859 0.5153 0.5512
Cl2 Cl 0.73725(5) -0.00061(2) 0.55050(7)
F2 F 0.73615(10) 0.26043(4) 0.70263(10)
N2 N 0.62546(12) 0.28959(6) 0.47820(14)
C3 C 0.7583(2) 0.45091(9) 0.4605(2)
H3 H 0.7320 0.4678 0.3709
N3 N 0.69574(12) 0.17949(6) 0.52607(14)
C4 C 0.71959(16) 0.39484(8) 0.51769(18)
N4 N 0.93286(15) 0.17062(7) 0.73414(17)
C5 C 0.62758(15) 0.35226(7) 0.45548(17)
C6 C 0.51786(16) 0.36741(8) 0.36695(19)
C7 C 0.44911(16) 0.31469(8) 0.33922(19)
H4 H 0.3729 0.3117 0.2849
C8 C 0.51602(14) 0.26549(8) 0.40893(17)
C9 C 0.49091(14) 0.20206(8) 0.40543(18)
C10 C 0.58015(14) 0.15959(8) 0.46275(18)
C11 C 0.57833(16) 0.09440(8) 0.4615(2)
H5 H 0.5123 0.0691 0.4264
C12 C 0.69274(17) 0.07549(8) 0.5221(2)
C13 C 0.76588(15) 0.12809(7) 0.56412(17)
C14 C 0.89123(15) 0.12802(7) 0.63332(18)
C15 C 0.99131(18) 0.08710(9) 0.6134(2)
H6 H 0.9905 0.0529 0.5510
C16 C 1.09392(19) 0.10633(10) 0.7038(2)
H7 H 1.1741 0.0878 0.7117
C17 C 1.05412(19) 0.15726(10) 0.7778(2)
H8 H 1.1025 0.1793 0.8471
C18 C 0.37024(16) 0.17979(8) 0.3335(2)
C19 C 0.25275(18) 0.19746(11) 0.3877(3)
H9 H 0.2490 0.2217 0.4718
C20 C 0.1402(2) 0.17841(13) 0.3146(4)
H10 H 0.0612 0.1894 0.3511
C21 C 0.1462(2) 0.14360(14) 0.1893(3)
H11 H 0.0711 0.1323 0.1394
C22 C 0.2610(2) 0.12543(13) 0.1369(3)
H12 H 0.2639 0.1014 0.0525
C23 C 0.3735(2) 0.14282(11) 0.2095(2)
H13 H 0.4517 0.1295 0.1747
H14 H 0.889(2) 0.1980(11) 0.770(2)
H15 H 0.772(2) 0.3526(12) 0.711(3)
loop_
_geom_bond_atom_site_label_1
_geom_bond_atom_site_label_2
_geom_bond_site_symmetry_1
_geom_bond_site_symmetry_2
B1 F1 1_555 1_555
C1 H1 1_555 1_555
Cl1 C6 1_555 1_555
N1 C1 1_555 1_555
C2 C1 1_555 1_555
H2 C2 1_555 1_555
Cl2 C12 1_555 1_555
F2 B1 1_555 1_555
N2 B1 1_555 1_555
C3 C2 1_555 1_555
H3 C3 1_555 1_555
N3 B1 1_555 1_555
C4 N1 1_555 1_555
N4 C14 1_555 1_555
C5 N2 1_555 1_555
C6 C5 1_555 1_555
C7 C6 1_555 1_555
H4 C7 1_555 1_555
C8 N2 1_555 1_555
C9 C8 1_555 1_555
C10 N3 1_555 1_555
C11 C10 1_555 1_555
H5 C11 1_555 1_555
C12 C11 1_555 1_555
C13 N3 1_555 1_555
C14 C13 1_555 1_555
C15 C14 1_555 1_555
H6 C15 1_555 1_555
C16 C15 1_555 1_555
H7 C16 1_555 1_555
C17 N4 1_555 1_555
H8 C17 1_555 1_555
C18 C9 1_555 1_555
C19 C18 1_555 1_555
H9 C19 1_555 1_555
C20 C19 1_555 1_555
H10 C20 1_555 1_555
C21 C20 1_555 1_555
H11 C21 1_555 1_555
C22 C21 1_555 1_555
H12 C22 1_555 1_555
C23 C18 1_555 1_555
H13 C23 1_555 1_555
H14 N4 1_555 1_555
H15 N1 1_555 1_555
C3 C4 1_555 1_555
C4 C5 1_555 1_555
C7 C8 1_555 1_555
C9 C10 1_555 1_555
C12 C13 1_555 1_555
C16 C17 1_555 1_555
C22 C23 1_555 1_555

#END
