
#######################################################################
#
#                 Cambridge Crystallographic Data Centre
#                                CCDC 
#
#######################################################################
#
# If this CIF has been generated from an entry in the Cambridge 
# Structural Database, then it will include bibliographic, chemical, 
# crystal, experimental, refinement or atomic coordinate data resulting 
# from the CCDC's data processing and validation procedures.
#
#######################################################################

data_RODZOZ
_chemical_formula_moiety         'C26 H52 O2 Si4'
_chemical_name_systematic        
'(E)-1,6-bis(Trimethylsilyl)-3,4-bis(((t-butyl)dimethyl siloxy)methyl)hex-3-ene-1,5-diyne'
_symmetry_cell_setting           monoclinic
_symmetry_space_group_name_H-M   'P 21/n'
_symmetry_Int_Tables_number      14
_space_group_name_Hall           '-P 2yn'
loop_
_symmetry_equiv_pos_site_id
_symmetry_equiv_pos_as_xyz
1 x,y,z
2 1/2-x,1/2+y,1/2-z
3 -x,-y,-z
4 1/2+x,1/2-y,1/2+z
_cell_length_a                   6.278(8)
_cell_length_b                   11.867(14)
_cell_length_c                   23.58(4)
_cell_angle_alpha                90
_cell_angle_beta                 91.40(12)
_cell_angle_gamma                90
_cell_volume                     1756.21
_exptl_crystal_colour            colorless
_chemical_melting_point          49deg.C
_cell_formula_units_Z            2
loop_
_atom_site_label
_atom_site_type_symbol
_atom_site_fract_x
_atom_site_fract_y
_atom_site_fract_z
Si1 Si 0.6658(3) 0.3255(2) 0.4106(1)
Si2 Si 0.5886(3) 0.1494(2) 0.6301(1)
O1 O 0.7973(7) 0.1000(5) 0.5980(2)
C1 C 0.7640(12) 0.2025(8) 0.4492(3)
C2 C 0.8410(12) 0.1245(8) 0.4755(3)
C3 C 0.9185(9) 0.0291(6) 0.5084(3)
C4 C 0.7970(11) 0.0063(7) 0.5614(3)
C5 C 0.7791(16) 0.3276(11) 0.3385(4)
C6 C 0.7577(14) 0.4522(8) 0.4498(4)
C7 C 0.3691(12) 0.3167(9) 0.4057(5)
C8 C 0.4661(19) 0.0395(9) 0.6727(5)
C9 C 0.3945(14) 0.2006(10) 0.5750(4)
C10 C 0.6917(12) 0.2706(8) 0.6724(3)
C11 C 0.8421(22) 0.2253(13) 0.7192(5)
C12 C 0.5062(17) 0.3343(9) 0.6999(5)
C13 C 0.8050(19) 0.3533(9) 0.6349(5)
H1 H 0.6526 -0.0120 0.5507
H2 H 0.8593 -0.0574 0.5807
H3 H 0.9320 0.3300 0.3401
H4 H 0.7329 0.2605 0.3191
H5 H 0.7256 0.3925 0.3185
H6 H 0.9104 0.4555 0.4521
H7 H 0.7045 0.5147 0.4279
H8 H 0.7017 0.4558 0.4873
H9 H 0.3203 0.3094 0.4437
H10 H 0.3279 0.3889 0.3907
H11 H 0.3068 0.2583 0.3825
H12 H 0.5827 0.0187 0.6976
H13 H 0.3455 0.0599 0.6947
H14 H 0.4292 -0.0231 0.6486
H15 H 0.4192 0.2660 0.5521
H16 H 0.3633 0.1373 0.5508
H17 H 0.2760 0.2143 0.5990
H18 H 0.8978 0.2913 0.7378
H19 H 0.7629 0.1815 0.7457
H20 H 0.9576 0.1810 0.7053
H21 H 0.5881 0.3883 0.7216
H22 H 0.4092 0.3732 0.6746
H23 H 0.4272 0.2877 0.7252
H24 H 0.8496 0.4200 0.6548
H25 H 0.9241 0.3216 0.6157
H26 H 0.6947 0.3722 0.6076
C3B C 1.0815(9) -0.0291(6) 0.4916(3)
C2B C 1.1590(12) -0.1245(8) 0.5245(3)
C1B C 1.2360(12) -0.2025(8) 0.5508(3)
Si1B Si 1.3342(3) -0.3255(2) 0.5894(1)
C5B C 1.2209(16) -0.3276(11) 0.6615(4)
H3B H 1.0680 -0.3300 0.6599
H4B H 1.2671 -0.2605 0.6809
H5B H 1.2744 -0.3925 0.6815
C6B C 1.2423(14) -0.4522(8) 0.5502(4)
H6B H 1.0896 -0.4555 0.5479
H7B H 1.2955 -0.5147 0.5721
H8B H 1.2983 -0.4558 0.5127
C7B C 1.6309(12) -0.3167(9) 0.5943(5)
H9B H 1.6797 -0.3094 0.5563
H10B H 1.6721 -0.3889 0.6093
H11B H 1.6932 -0.2583 0.6175
C4B C 1.2030(11) -0.0063(7) 0.4386(3)
O1B O 1.2027(7) -0.1000(5) 0.4020(2)
Si2B Si 1.4114(3) -0.1494(2) 0.3699(1)
C8B C 1.5339(19) -0.0395(9) 0.3273(5)
H12B H 1.4173 -0.0187 0.3024
H13B H 1.6545 -0.0599 0.3053
H14B H 1.5708 0.0231 0.3514
C9B C 1.6055(14) -0.2006(10) 0.4250(4)
H15B H 1.5808 -0.2660 0.4479
H16B H 1.6367 -0.1373 0.4492
H17B H 1.7240 -0.2143 0.4010
C10B C 1.3083(12) -0.2706(8) 0.3276(3)
C11B C 1.1579(22) -0.2253(13) 0.2808(5)
H18B H 1.1022 -0.2913 0.2622
H19B H 1.2371 -0.1815 0.2543
H20B H 1.0424 -0.1810 0.2947
C12B C 1.4938(17) -0.3343(9) 0.3001(5)
H21B H 1.4119 -0.3883 0.2784
H22B H 1.5908 -0.3732 0.3254
H23B H 1.5728 -0.2877 0.2748
C13B C 1.1950(19) -0.3533(9) 0.3651(5)
H24B H 1.1504 -0.4200 0.3452
H25B H 1.0759 -0.3216 0.3843
H26B H 1.3053 -0.3722 0.3924
H1B H 1.3474 0.0120 0.4493
H2B H 1.1407 0.0574 0.4193
loop_
_geom_bond_atom_site_label_1
_geom_bond_atom_site_label_2
_geom_bond_site_symmetry_1
_geom_bond_site_symmetry_2
Si1 C1 1_555 1_555
Si2 O1 1_555 1_555
O1 C4 1_555 1_555
C1 C2 1_555 1_555
C2 C3 1_555 1_555
C3 C4 1_555 1_555
C4 H1 1_555 1_555
C5 Si1 1_555 1_555
C6 Si1 1_555 1_555
C7 Si1 1_555 1_555
C8 Si2 1_555 1_555
C9 Si2 1_555 1_555
C10 Si2 1_555 1_555
C11 C10 1_555 1_555
C12 C10 1_555 1_555
C13 C10 1_555 1_555
H2 C4 1_555 1_555
H3 C5 1_555 1_555
H4 C5 1_555 1_555
H5 C5 1_555 1_555
H6 C6 1_555 1_555
H7 C6 1_555 1_555
H8 C6 1_555 1_555
H9 C7 1_555 1_555
H10 C7 1_555 1_555
H11 C7 1_555 1_555
H12 C8 1_555 1_555
H13 C8 1_555 1_555
H14 C8 1_555 1_555
H15 C9 1_555 1_555
H16 C9 1_555 1_555
H17 C9 1_555 1_555
H18 C11 1_555 1_555
H19 C11 1_555 1_555
H20 C11 1_555 1_555
H21 C12 1_555 1_555
H22 C12 1_555 1_555
H23 C12 1_555 1_555
H24 C13 1_555 1_555
H25 C13 1_555 1_555
H26 C13 1_555 1_555
C3B C3 1_555 1_555
C2B C3B 1_555 1_555
C1B C2B 1_555 1_555
Si1B C1B 1_555 1_555
C5B Si1B 1_555 1_555
H3B C5B 1_555 1_555
H4B C5B 1_555 1_555
H5B C5B 1_555 1_555
C6B Si1B 1_555 1_555
H6B C6B 1_555 1_555
H7B C6B 1_555 1_555
H8B C6B 1_555 1_555
C7B Si1B 1_555 1_555
H9B C7B 1_555 1_555
H10B C7B 1_555 1_555
H11B C7B 1_555 1_555
C4B C3B 1_555 1_555
O1B C4B 1_555 1_555
Si2B O1B 1_555 1_555
C8B Si2B 1_555 1_555
H12B C8B 1_555 1_555
H13B C8B 1_555 1_555
H14B C8B 1_555 1_555
C9B Si2B 1_555 1_555
H15B C9B 1_555 1_555
H16B C9B 1_555 1_555
H17B C9B 1_555 1_555
C10B Si2B 1_555 1_555
C11B C10B 1_555 1_555
H18B C11B 1_555 1_555
H19B C11B 1_555 1_555
H20B C11B 1_555 1_555
C12B C10B 1_555 1_555
H21B C12B 1_555 1_555
H22B C12B 1_555 1_555
H23B C12B 1_555 1_555
C13B C10B 1_555 1_555
H24B C13B 1_555 1_555
H25B C13B 1_555 1_555
H26B C13B 1_555 1_555
H1B C4B 1_555 1_555
H2B C4B 1_555 1_555

#END
