
#######################################################################
#
#                 Cambridge Crystallographic Data Centre
#                                CCDC 
#
#######################################################################
#
# If this CIF has been generated from an entry in the Cambridge 
# Structural Database, then it will include bibliographic, chemical, 
# crystal, experimental, refinement or atomic coordinate data resulting 
# from the CCDC's data processing and validation procedures.
#
#######################################################################

data_ROFBIZ
_chemical_formula_moiety         
'C44 H60 O14,C36 H31 N7 4+,4(C3 H7 N1 O1),4(F6 P1 1-)'
_chemical_name_systematic        
'8-azido-5,12,19,26-tetraazoniaheptacyclo[24.2.2.2^2,5^.2^7,10^.2^12,15^.2^16,19^.2^21,24^]tetraconta-1(28),2,4,7,9,12,14,16,18,21,23,26,29,31,33,35,37,39-octadecaene tetrakis(hexafluorophosphate) 6,9,12,15,18,21,24,35,38,41,44,47,50,53-tetradecaoxapentacyclo[52.4.0.0^5,58^.0^25,30^.0^29,34^]octapentaconta-1(58),2,4,25,27,29,31,33,54,56-decaene N,N-dimethylformamide solvate'
_symmetry_cell_setting           triclinic
_symmetry_space_group_name_H-M   'P -1'
_symmetry_Int_Tables_number      2
_space_group_name_Hall           '-P 1'
loop_
_symmetry_equiv_pos_site_id
_symmetry_equiv_pos_as_xyz
1 x,y,z
2 -x,-y,-z
_cell_length_a                   13.4315(5)
_cell_length_b                   17.0611(6)
_cell_length_c                   27.8286(10)
_cell_angle_alpha                73.839(2)
_cell_angle_beta                 77.641(2)
_cell_angle_gamma                77.667(2)
_cell_volume                     5901.98
_exptl_crystal_colour            violet
_exptl_crystal_description       plate
_cell_formula_units_Z            2
loop_
_atom_site_label
_atom_site_type_symbol
_atom_site_fract_x
_atom_site_fract_y
_atom_site_fract_z
C1 C 1.0102(4) 0.5400(3) 0.43467(18)
C2 C 0.9872(5) 0.4876(3) 0.4101(2)
H1 H 1.0402 0.4471 0.3986
C3 C 0.9301(4) 0.5956(3) 0.45401(18)
H2 H 0.9445 0.6296 0.4726
C4 C 0.8878(5) 0.4939(4) 0.4023(2)
H3 H 0.8726 0.4575 0.3855
C5 C 0.8304(4) 0.6017(3) 0.44643(18)
H4 H 0.7763 0.6391 0.4602
C6 C 0.8091(4) 0.5532(3) 0.41873(19)
C7 C 0.7039(5) 0.5706(4) 0.4026(2)
H5 H 0.6857 0.5187 0.4002
H6 H 0.6505 0.5935 0.4279
C8 C 0.7344(4) 0.6053(3) 0.3091(2)
H7 H 0.7422 0.5480 0.3107
C9 C 0.6933(4) 0.7143(4) 0.3502(2)
H8 H 0.6726 0.7322 0.3808
C10 C 0.7499(4) 0.6604(3) 0.2633(2)
H9 H 0.7681 0.6410 0.2332
C11 C 0.7076(4) 0.7707(3) 0.30548(19)
H10 H 0.6963 0.8279 0.3048
C12 C 0.7392(3) 0.7453(3) 0.25975(18)
C13 C 0.7626(3) 0.8049(3) 0.21045(18)
C14 C 0.8141(3) 0.7784(3) 0.16726(19)
H11 H 0.8297 0.7209 0.1686
C15 C 0.7375(4) 0.8906(3) 0.2060(2)
H12 H 0.7000 0.9115 0.2342
C16 C 0.8428(4) 0.8343(3) 0.12262(19)
H13 H 0.8791 0.8154 0.0936
C17 C 0.7676(4) 0.9438(3) 0.1607(2)
H14 H 0.7516 1.0017 0.1579
C18 C 0.8619(4) 0.9754(4) 0.0726(2)
H15 H 0.8195 1.0310 0.0699
H16 H 0.8600 0.9564 0.0423
C19 C 0.9724(4) 0.9790(3) 0.07517(18)
C20 C 1.0535(4) 0.9240(3) 0.05615(17)
H17 H 1.0407 0.8901 0.0370
C21 C 0.9940(4) 1.0324(3) 0.0992(2)
H18 H 0.9403 1.0735 0.1096
C22 C 1.1517(4) 0.9184(3) 0.06498(17)
H19 H 1.2061 0.8803 0.0520
C23 C 1.0933(4) 1.0270(3) 0.1084(2)
C24 C 1.1726(4) 0.9678(3) 0.09259(17)
C25 C 1.2767(4) 0.9520(3) 0.10854(18)
H20 H 1.3308 0.9303 0.0830
H21 H 1.2934 1.0041 0.1115
C26 C 1.2875(3) 0.8093(3) 0.16032(17)
H22 H 1.3073 0.7922 0.1294
C27 C 1.2454(3) 0.9159(3) 0.20209(17)
H23 H 1.2364 0.9732 0.2005
C28 C 1.2749(3) 0.7504(3) 0.20544(16)
H24 H 1.2872 0.6933 0.2058
C29 C 1.2304(3) 0.8606(3) 0.24830(17)
H25 H 1.2111 0.8798 0.2785
C30 C 1.2434(3) 0.7759(3) 0.25099(16)
C31 C 1.2208(3) 0.7152(3) 0.29957(16)
C32 C 1.2436(4) 0.6304(3) 0.30366(18)
H26 H 1.2805 0.6104 0.2752
C33 C 1.1693(4) 0.7408(3) 0.34377(18)
H27 H 1.1537 0.7981 0.3429
C34 C 1.2134(4) 0.5749(3) 0.34842(19)
H28 H 1.2284 0.5172 0.3504
C35 C 1.1418(4) 0.6848(3) 0.38762(19)
H29 H 1.1078 0.7036 0.4170
C36 C 1.1209(4) 0.5428(4) 0.43706(19)
H30 H 1.1238 0.5607 0.4676
H31 H 1.1632 0.4872 0.4390
N1 N 0.7083(3) 0.6313(3) 0.35213(17)
N2 N 0.8194(3) 0.9159(3) 0.12011(16)
N3 N 1.2727(3) 0.8898(2) 0.15892(14)
N4 N 1.1620(3) 0.6030(3) 0.39002(15)
N5 N 1.107(2) 1.0610(17) 0.1510(8)
N6 N 1.107(2) 1.0848(15) 0.1875(6)
N7 N 1.103(2) 1.0767(16) 0.2309(6)
C37 C 1.0631(3) 0.1801(3) 0.69511(18)
C38 C 1.0621(4) 0.1003(3) 0.72279(19)
H32 H 1.0867 0.0559 0.7066
C39 C 1.0245(4) 0.0838(3) 0.77533(19)
H33 H 1.0249 0.0280 0.7942
C40 C 0.9876(3) 0.1457(3) 0.79969(18)
H34 H 0.9616 0.1332 0.8350
C41 C 0.9883(3) 0.2293(3) 0.77189(16)
C42 C 1.0275(3) 0.2473(3) 0.71946(17)
C43 C 1.0288(3) 0.3309(3) 0.69141(18)
H35 H 1.0541 0.3434 0.6560
C44 C 0.9933(4) 0.3927(3) 0.71606(18)
H36 H 0.9953 0.4484 0.6973
C45 C 0.9538(4) 0.3769(3) 0.76856(18)
H37 H 0.9300 0.4213 0.7847
C46 C 0.9500(3) 0.2964(3) 0.79608(16)
C47 C 0.8687(4) 0.3414(3) 0.87064(19)
H38 H 0.8169 0.3808 0.8515
H39 H 0.9241 0.3713 0.8708
C48 C 0.8183(4) 0.3077(3) 0.92434(19)
H40 H 0.8662 0.2609 0.9415
H41 H 0.8028 0.3513 0.9433
C49 C 0.6535(4) 0.2832(3) 0.9697(2)
H42 H 0.6281 0.3414 0.9715
H43 H 0.6877 0.2542 0.9995
C50 C 0.5639(4) 0.2422(3) 0.9705(2)
H44 H 0.5080 0.2545 0.9983
H45 H 0.5369 0.2668 0.9382
C51 C 0.6067(4) 0.1135(3) 1.02744(18)
H46 H 0.5610 0.1437 1.0517
H47 H 0.6792 0.1129 1.0301
C52 C 0.5859(4) 0.0260(3) 1.04091(19)
H48 H 0.5926 0.0000 1.0769
H49 H 0.5143 0.0265 1.0369
C53 C 0.6480(4) -0.1062(3) 1.02833(19)
H50 H 0.5749 -0.1134 1.0340
H51 H 0.6734 -0.1279 1.0612
C54 C 0.7115(4) -0.1538(3) 0.9905(2)
H52 H 0.7798 -0.1358 0.9781
H53 H 0.7229 -0.2137 1.0070
C55 C 0.7110(5) -0.1873(3) 0.9153(2)
H54 H 0.7267 -0.2458 0.9340
H55 H 0.7772 -0.1679 0.8984
C56 C 0.6470(5) -0.1810(4) 0.8764(3)
H56 H 0.6794 -0.2221 0.8563
H57 H 0.5775 -0.1935 0.8934
C57 C 0.5624(7) -0.0927(5) 0.8132(4)
H58 H 0.4929 -0.0899 0.8343
H59 H 0.5753 -0.1419 0.7992
C58 C 0.5661(6) -0.0176(5) 0.7715(3)
H60 H 0.6379 -0.0157 0.7534
H61 H 0.5223 -0.0172 0.7469
C59 C 0.5273(4) 0.1288(4) 0.7597(2)
C60 C 0.5559(5) 0.1396(5) 0.7083(2)
H62 H 0.5746 0.0933 0.6937
C61 C 0.5571(4) 0.2209(5) 0.6773(2)
H63 H 0.5785 0.2283 0.6417
C62 C 0.5287(4) 0.2885(4) 0.6968(2)
H64 H 0.5298 0.3423 0.6750
C63 C 0.4977(3) 0.2784(4) 0.7496(2)
C64 C 0.4963(3) 0.1969(3) 0.7824(2)
C65 C 0.4630(4) 0.1880(3) 0.8351(2)
H65 H 0.4628 0.1342 0.8570
C66 C 0.4313(4) 0.2552(3) 0.8547(2)
H66 H 0.4089 0.2477 0.8902
C67 C 0.4309(4) 0.3375(4) 0.8228(2)
H67 H 0.4079 0.3844 0.8367
C68 C 0.4648(4) 0.3463(4) 0.7716(2)
C69 C 0.4173(6) 0.4935(4) 0.7562(3)
H68 H 0.4523 0.4982 0.7829
H69 H 0.3437 0.4905 0.7704
C70 C 0.4276(7) 0.5660(4) 0.7107(3)
H70 H 0.4065 0.6185 0.7215
H71 H 0.5003 0.5630 0.6933
C71 C 0.3679(6) 0.6258(4) 0.6329(3)
H72 H 0.3608 0.6792 0.6418
H73 H 0.3094 0.6289 0.6157
C72 C 0.4680(7) 0.6130(5) 0.5968(3)
H74 H 0.4673 0.6586 0.5657
H75 H 0.5266 0.6140 0.6128
C73 C 0.5796(7) 0.5139(7) 0.5613(4)
H76 H 0.6291 0.5134 0.5832
H77 H 0.5956 0.5536 0.5283
C74 C 0.5876(6) 0.4267(6) 0.5534(3)
H78 H 0.5748 0.3869 0.5867
H79 H 0.5347 0.4269 0.5335
C75 C 0.6933(8) 0.3217(7) 0.5207(3)
H80 H 0.6302 0.3181 0.5089
H81 H 0.6970 0.2807 0.5537
C76 C 0.7867(7) 0.2985(7) 0.4828(3)
H82 H 0.7816 0.2461 0.4755
H83 H 0.7870 0.3420 0.4507
C77 C 0.9579(8) 0.2377(7) 0.4779(3)
H84 H 0.9663 0.2603 0.4407
H85 H 0.9368 0.1828 0.4853
C78 C 1.0558(9) 0.2263(8) 0.4932(3)
H86 H 1.1030 0.1819 0.4793
H87 H 1.0854 0.2779 0.4785
C79 C 1.1506(6) 0.1758(5) 0.5626(3)
H88 H 1.1894 0.2223 0.5550
H89 H 1.1916 0.1340 0.5445
C80 C 1.1326(5) 0.1386(4) 0.6182(2)
H90 H 1.0807 0.1014 0.6266
H91 H 1.1977 0.1056 0.6291
O1 O 0.9118(2) 0.27386(19) 0.84635(12)
O2 O 0.7259(3) 0.2807(2) 0.92427(12)
O3 O 0.5890(2) 0.1549(2) 0.97713(12)
O4 O 0.6554(3) -0.0207(2) 1.00979(13)
O5 O 0.6588(3) -0.1395(2) 0.94933(15)
O6 O 0.6375(4) -0.1004(2) 0.84366(18)
O7 O 0.5280(3) 0.0534(3) 0.79383(18)
O8 O 0.4663(3) 0.4215(3) 0.73745(17)
O9 O 0.3627(4) 0.5626(3) 0.6774(2)
O10 O 0.4815(4) 0.5359(4) 0.5837(2)
O11 O 0.6841(5) 0.4029(5) 0.5283(2)
O12 O 0.8789(5) 0.2892(4) 0.5004(2)
O13 O 1.0506(5) 0.2056(4) 0.54613(18)
O14 O 1.0963(3) 0.2035(2) 0.64405(13)
P1 P 0.7685(6) 0.0918(4) 0.4176(3)
F1 F 0.7294(11) 0.0931(8) 0.4741(3)
F2 F 0.8106(9) 0.0793(7) 0.3628(3)
F3 F 0.6784(9) 0.1621(6) 0.4027(5)
F4 F 0.6963(9) 0.0268(6) 0.4230(5)
F5 F 0.8535(10) 0.0144(7) 0.4334(5)
F6 F 0.8412(10) 0.1548(7) 0.4086(5)
P2 P 0.72811(18) 0.68558(14) 0.63532(11)
F7 F 0.7039(5) 0.7216(4) 0.6828(3)
F8 F 0.7498(5) 0.6459(3) 0.5871(2)
F9 F 0.6827(6) 0.6037(4) 0.6661(3)
F10 F 0.8351(6) 0.6402(7) 0.6474(5)
F11 F 0.7582(9) 0.7670(5) 0.6007(4)
F12 F 0.6099(5) 0.7218(4) 0.6226(2)
P3 P 0.3004(5) 0.7981(4) 0.8677(2)
F13 F 0.3343(7) 0.8740(4) 0.8763(3)
F14 F 0.3843(8) 0.7403(6) 0.9029(4)
F15 F 0.2226(8) 0.8579(6) 0.8330(4)
F16 F 0.2707(10) 0.7207(6) 0.8623(6)
F17 F 0.2184(8) 0.8054(8) 0.9179(4)
F18 F 0.3911(8) 0.8021(6) 0.8185(3)
P4 P 0.8402(7) 0.5776(5) 0.8867(4)
F19 F 0.8054(15) 0.4955(8) 0.9141(7)
F20 F 0.8443(13) 0.5982(10) 0.9359(5)
F21 F 0.8314(15) 0.5635(11) 0.8366(6)
F22 F 0.8635(14) 0.6629(7) 0.8591(7)
F23 F 0.9524(11) 0.5398(9) 0.8789(7)
F24 F 0.7244(10) 0.6190(8) 0.8963(7)
C81 C 0.3548(7) 0.9575(5) 0.7039(3)
H92 H 0.2908 0.9413 0.7217
C82 C 0.4168(12) 0.8132(6) 0.7011(4)
H93 H 0.3455 0.8085 0.7178
H94 H 0.4646 0.7777 0.7234
H95 H 0.4300 0.7958 0.6693
C83 C 0.5309(9) 0.9159(7) 0.6627(4)
H96 H 0.5319 0.9752 0.6564
H97 H 0.5435 0.9003 0.6304
H98 H 0.5849 0.8844 0.6826
O15 O 0.3617(4) 1.0308(3) 0.69487(19)
N8 N 0.4317(7) 0.8978(4) 0.6905(3)
C84 C 0.9940(7) 0.7564(6) -0.0128(3)
H99 H 1.0367 0.7817 -0.0425
C85 C 0.9205(11) 0.6410(9) 0.0395(5)
H100 H 0.9260 0.6624 0.0679
H101 H 0.9412 0.5808 0.0477
H102 H 0.8489 0.6550 0.0334
C86 C 1.0508(12) 0.6295(9) -0.0358(6)
H103 H 1.1042 0.6608 -0.0573
H104 H 1.0105 0.6164 -0.0571
H105 H 1.0836 0.5781 -0.0149
O16 O 0.9452(4) 0.7987(3) 0.0187(2)
N9 N 0.9857(5) 0.6768(4) -0.0043(3)
C87 C 0.4071(5) 0.2379(4) 0.5093(2)
H106 H 0.3810 0.2647 0.4787
C88 C 0.4333(9) 0.1129(5) 0.4811(4)
H107 H 0.3806 0.1437 0.4602
H108 H 0.4155 0.0583 0.4991
H109 H 0.5007 0.1064 0.4593
C89 C 0.4776(10) 0.1095(7) 0.5608(4)
H110 H 0.5097 0.1436 0.5742
H111 H 0.5294 0.0635 0.5520
H112 H 0.4215 0.0876 0.5866
O17 O 0.4089(4) 0.2825(3) 0.53763(18)
N10 N 0.4376(5) 0.1577(4) 0.5175(2)
C90 C 0.6560(6) 0.5188(4) 0.7896(3)
H113 H 0.6868 0.5553 0.7604
C91 C 0.5674(16) 0.6388(8) 0.8178(8)
H114 H 0.5810 0.6638 0.7813
H115 H 0.6106 0.6579 0.8351
H116 H 0.4944 0.6551 0.8311
C92 C 0.5534(10) 0.4968(10) 0.8725(5)
H117 H 0.4862 0.4855 0.8702
H118 H 0.5454 0.5233 0.9004
H119 H 0.6020 0.4447 0.8786
O18 O 0.6749(4) 0.4456(3) 0.7931(2)
N11 N 0.5913(6) 0.5496(4) 0.8268(3)
H120? H 1.1069 1.0637 0.1254
N12? N 0.8562(10) 0.4470(8) 0.3736(6)
N13? N 0.9137(10) 0.3892(8) 0.3660(6)
N14? N 0.9590(10) 0.3288(8) 0.3554(6)
F25? F 0.8376(14) 0.0469(10) 0.3902(7)
P5? P 0.7572(10) 0.0977(8) 0.4231(5)
F26? F 0.7451(16) 0.0186(10) 0.4672(7)
F27? F 0.7576(17) 0.1757(9) 0.3798(7)
F28? F 0.6748(14) 0.1538(11) 0.4541(7)
F29? F 0.6679(14) 0.0720(12) 0.4055(7)
F30? F 0.8444(14) 0.1155(12) 0.4446(8)
P6? P 0.2827(8) 0.7926(5) 0.8613(4)
F31? F 0.2518(10) 0.8525(6) 0.8981(5)
F32? F 0.3934(11) 0.7692(10) 0.8784(6)
F33? F 0.1725(10) 0.8172(10) 0.8480(6)
F34? F 0.3141(11) 0.7320(8) 0.8252(5)
F35? F 0.2450(12) 0.7226(8) 0.9073(5)
F36? F 0.3182(13) 0.8666(8) 0.8181(5)
P7? P 0.8480(12) 0.5742(9) 0.8804(6)
F37? F 0.7666(16) 0.5160(12) 0.8915(9)
F38? F 0.792(2) 0.6202(13) 0.9205(9)
F39? F 0.911(2) 0.5326(14) 0.8392(9)
F40? F 0.9251(18) 0.6360(13) 0.8642(10)
F41? F 0.9014(19) 0.5083(12) 0.9195(9)
F42? F 0.7853(18) 0.6332(13) 0.8406(9)
N15? N 1.097(2) 1.0873(15) 0.1380(10)
N16? N 1.055(2) 1.1296(16) 0.1656(9)
N17? N 1.055(2) 1.1607(15) 0.1996(9)
loop_
_geom_bond_atom_site_label_1
_geom_bond_atom_site_label_2
_geom_bond_site_symmetry_1
_geom_bond_site_symmetry_2
C1 C2 1_555 1_555
C2 H1 1_555 1_555
C3 C1 1_555 1_555
H2 C3 1_555 1_555
C4 C2 1_555 1_555
H3 C4 1_555 1_555
C5 C3 1_555 1_555
H4 C5 1_555 1_555
C6 C4 1_555 1_555
C7 C6 1_555 1_555
H5 C7 1_555 1_555
H6 C7 1_555 1_555
C8 H7 1_555 1_555
C9 H8 1_555 1_555
C10 C8 1_555 1_555
H9 C10 1_555 1_555
C11 C9 1_555 1_555
H10 C11 1_555 1_555
C12 C10 1_555 1_555
C13 C12 1_555 1_555
C14 C13 1_555 1_555
H11 C14 1_555 1_555
C15 C13 1_555 1_555
H12 C15 1_555 1_555
C16 C14 1_555 1_555
H13 C16 1_555 1_555
C17 C15 1_555 1_555
H14 C17 1_555 1_555
C18 H15 1_555 1_555
H16 C18 1_555 1_555
C19 C18 1_555 1_555
C20 C19 1_555 1_555
H17 C20 1_555 1_555
C21 C19 1_555 1_555
H18 C21 1_555 1_555
C22 C20 1_555 1_555
H19 C22 1_555 1_555
C23 C21 1_555 1_555
C24 C22 1_555 1_555
C25 C24 1_555 1_555
H20 C25 1_555 1_555
H21 C25 1_555 1_555
C26 H22 1_555 1_555
C27 H23 1_555 1_555
C28 C26 1_555 1_555
H24 C28 1_555 1_555
C29 C27 1_555 1_555
H25 C29 1_555 1_555
C30 C28 1_555 1_555
C31 C30 1_555 1_555
C32 C31 1_555 1_555
H26 C32 1_555 1_555
C33 C31 1_555 1_555
H27 C33 1_555 1_555
C34 C32 1_555 1_555
H28 C34 1_555 1_555
C35 C33 1_555 1_555
H29 C35 1_555 1_555
C36 C1 1_555 1_555
H30 C36 1_555 1_555
H31 C36 1_555 1_555
N1 C7 1_555 1_555
N2 C16 1_555 1_555
N3 C25 1_555 1_555
N4 C34 1_555 1_555
N5 C23 1_555 1_555
N6 N5 1_555 1_555
N7 N6 1_555 1_555
C37 C38 1_555 1_555
C38 H32 1_555 1_555
C39 C38 1_555 1_555
H33 C39 1_555 1_555
C40 C39 1_555 1_555
H34 C40 1_555 1_555
C41 C40 1_555 1_555
C42 C37 1_555 1_555
C43 C42 1_555 1_555
H35 C43 1_555 1_555
C44 C43 1_555 1_555
H36 C44 1_555 1_555
C45 C44 1_555 1_555
H37 C45 1_555 1_555
C46 C41 1_555 1_555
C47 H38 1_555 1_555
H39 C47 1_555 1_555
C48 C47 1_555 1_555
H40 C48 1_555 1_555
H41 C48 1_555 1_555
C49 H42 1_555 1_555
H43 C49 1_555 1_555
C50 C49 1_555 1_555
H44 C50 1_555 1_555
H45 C50 1_555 1_555
C51 H46 1_555 1_555
H47 C51 1_555 1_555
C52 C51 1_555 1_555
H48 C52 1_555 1_555
H49 C52 1_555 1_555
C53 H50 1_555 1_555
H51 C53 1_555 1_555
C54 C53 1_555 1_555
H52 C54 1_555 1_555
H53 C54 1_555 1_555
C55 H54 1_555 1_555
H55 C55 1_555 1_555
C56 C55 1_555 1_555
H56 C56 1_555 1_555
H57 C56 1_555 1_555
C57 H58 1_555 1_555
H59 C57 1_555 1_555
C58 C57 1_555 1_555
H60 C58 1_555 1_555
H61 C58 1_555 1_555
C59 C60 1_555 1_555
C60 H62 1_555 1_555
C61 C60 1_555 1_555
H63 C61 1_555 1_555
C62 C61 1_555 1_555
H64 C62 1_555 1_555
C63 C62 1_555 1_555
C64 C59 1_555 1_555
C65 C64 1_555 1_555
H65 C65 1_555 1_555
C66 C65 1_555 1_555
H66 C66 1_555 1_555
C67 C66 1_555 1_555
H67 C67 1_555 1_555
C68 C63 1_555 1_555
C69 H68 1_555 1_555
H69 C69 1_555 1_555
C70 C69 1_555 1_555
H70 C70 1_555 1_555
H71 C70 1_555 1_555
C71 H72 1_555 1_555
H73 C71 1_555 1_555
C72 C71 1_555 1_555
H74 C72 1_555 1_555
H75 C72 1_555 1_555
C73 H76 1_555 1_555
H77 C73 1_555 1_555
C74 C73 1_555 1_555
H78 C74 1_555 1_555
H79 C74 1_555 1_555
C75 H80 1_555 1_555
H81 C75 1_555 1_555
C76 C75 1_555 1_555
H82 C76 1_555 1_555
H83 C76 1_555 1_555
C77 H84 1_555 1_555
H85 C77 1_555 1_555
C78 C77 1_555 1_555
H86 C78 1_555 1_555
H87 C78 1_555 1_555
C79 H88 1_555 1_555
H89 C79 1_555 1_555
C80 C79 1_555 1_555
H90 C80 1_555 1_555
H91 C80 1_555 1_555
O1 C46 1_555 1_555
O2 C48 1_555 1_555
O3 C50 1_555 1_555
O4 C52 1_555 1_555
O5 C54 1_555 1_555
O6 C56 1_555 1_555
O7 C58 1_555 1_555
O8 C68 1_555 1_555
O9 C70 1_555 1_555
O10 C72 1_555 1_555
O11 C74 1_555 1_555
O12 C76 1_555 1_555
O13 C78 1_555 1_555
O14 C37 1_555 1_555
P1 F1 1_555 1_555
F2 P1 1_555 1_555
F3 P1 1_555 1_555
F4 P1 1_555 1_555
F5 P1 1_555 1_555
F6 P1 1_555 1_555
P2 F7 1_555 1_555
F8 P2 1_555 1_555
F9 P2 1_555 1_555
F10 P2 1_555 1_555
F11 P2 1_555 1_555
F12 P2 1_555 1_555
P3 F13 1_555 1_555
F14 P3 1_555 1_555
F15 P3 1_555 1_555
F16 P3 1_555 1_555
F17 P3 1_555 1_555
F18 P3 1_555 1_555
P4 F19 1_555 1_555
F20 P4 1_555 1_555
F21 P4 1_555 1_555
F22 P4 1_555 1_555
F23 P4 1_555 1_555
F24 P4 1_555 1_555
C81 H92 1_555 1_555
C82 H93 1_555 1_555
H94 C82 1_555 1_555
H95 C82 1_555 1_555
C83 H96 1_555 1_555
H97 C83 1_555 1_555
H98 C83 1_555 1_555
O15 C81 1_555 1_555
N8 C81 1_555 1_555
C84 H99 1_555 1_555
C85 H100 1_555 1_555
H101 C85 1_555 1_555
H102 C85 1_555 1_555
C86 H103 1_555 1_555
H104 C86 1_555 1_555
H105 C86 1_555 1_555
O16 C84 1_555 1_555
N9 C84 1_555 1_555
C87 H106 1_555 1_555
C88 H107 1_555 1_555
H108 C88 1_555 1_555
H109 C88 1_555 1_555
C89 H110 1_555 1_555
H111 C89 1_555 1_555
H112 C89 1_555 1_555
O17 C87 1_555 1_555
N10 C87 1_555 1_555
C90 H113 1_555 1_555
C91 H114 1_555 1_555
H115 C91 1_555 1_555
H116 C91 1_555 1_555
C92 H117 1_555 1_555
H118 C92 1_555 1_555
H119 C92 1_555 1_555
O18 C90 1_555 1_555
N11 C90 1_555 1_555
C5 C6 1_555 1_555
C8 N1 1_555 1_555
C9 N1 1_555 1_555
C11 C12 1_555 1_555
C17 N2 1_555 1_555
C18 N2 1_555 1_555
C23 C24 1_555 1_555
C26 N3 1_555 1_555
C27 N3 1_555 1_555
C29 C30 1_555 1_555
C35 N4 1_555 1_555
C36 N4 1_555 1_555
C41 C42 1_555 1_555
C45 C46 1_555 1_555
C47 O1 1_555 1_555
C49 O2 1_555 1_555
C51 O3 1_555 1_555
C53 O4 1_555 1_555
C55 O5 1_555 1_555
C57 O6 1_555 1_555
C59 O7 1_555 1_555
C63 C64 1_555 1_555
C67 C68 1_555 1_555
C69 O8 1_555 1_555
C71 O9 1_555 1_555
C73 O10 1_555 1_555
C75 O11 1_555 1_555
C77 O12 1_555 1_555
C79 O13 1_555 1_555
C80 O14 1_555 1_555
C82 N8 1_555 1_555
C83 N8 1_555 1_555
C85 N9 1_555 1_555
C86 N9 1_555 1_555
C88 N10 1_555 1_555
C89 N10 1_555 1_555
C91 N11 1_555 1_555
C92 N11 1_555 1_555

#END
