
#######################################################################
#
#                 Cambridge Crystallographic Data Centre
#                                CCDC 
#
#######################################################################
#
# If this CIF has been generated from an entry in the Cambridge 
# Structural Database, then it will include bibliographic, chemical, 
# crystal, experimental, refinement or atomic coordinate data resulting 
# from the CCDC's data processing and validation procedures.
#
#######################################################################

data_ROFBIX
_chemical_formula_moiety         'C8 H22 B4 Si2'
_chemical_name_systematic        
closo-1,6-bis(Trimethylsilyl)-1,6-dicarbahexaborane
_symmetry_cell_setting           triclinic
_symmetry_space_group_name_H-M   'P -1'
_symmetry_Int_Tables_number      2
_space_group_name_Hall           '-P 1'
loop_
_symmetry_equiv_pos_site_id
_symmetry_equiv_pos_as_xyz
1 x,y,z
2 -x,-y,-z
_cell_length_a                   6.4049(13)
_cell_length_b                   6.5181(13)
_cell_length_c                   11.035(2)
_cell_angle_alpha                73.73(3)
_cell_angle_beta                 87.00(3)
_cell_angle_gamma                61.33(3)
_cell_volume                     386.171
_exptl_crystal_colour            colorless
_chemical_melting_point          '293.5 K'
_cell_formula_units_Z            1
loop_
_atom_site_label
_atom_site_type_symbol
_atom_site_fract_x
_atom_site_fract_y
_atom_site_fract_z
Si1 Si 0.20956(8) 0.85732(9) 0.76432(4)
C1 C 0.0787(3) 0.9453(3) 0.59899(15)
C2 C 0.2484(5) 1.1106(5) 0.7839(2)
H1 H 0.3566(32) 1.1375(28) 0.7249(15)
H2 H 0.3142(39) 1.0686(18) 0.8700(7)
H3 H 0.0946(8) 1.2584(11) 0.7671(21)
C3 C -0.0021(5) 0.8047(5) 0.8738(2)
H4 H -0.1585(11) 0.9491(16) 0.8527(14)
H5 H 0.0554(21) 0.7717(41) 0.9605(3)
H6 H -0.0134(31) 0.6661(25) 0.8655(16)
C4 C 0.5023(4) 0.5741(5) 0.7901(2)
H7 H 0.6129(13) 0.6080(11) 0.7358(16)
H8 H 0.4812(8) 0.4493(14) 0.7698(21)
H9 H 0.5658(20) 0.5170(23) 0.8781(6)
B1 B 0.1282(10) 1.0686(13) 0.4632(3)
B2 B 0.1334(10) 0.8171(8) 0.4907(4)
C1A C -0.0787(3) 1.0547(3) 0.40101(15)
Si1A Si -0.20956(8) 1.14268(9) 0.23568(4)
C2A C -0.2484(5) 0.8894(5) 0.2161(2)
H1A H -0.3566(32) 0.8625(28) 0.2751(15)
H2A H -0.3142(39) 0.9314(18) 0.1300(7)
H3A H -0.0946(8) 0.7416(11) 0.2329(21)
C3A C 0.0021(5) 1.1953(5) 0.1262(2)
H4A H 0.1585(11) 1.0509(16) 0.1473(14)
H5A H -0.0554(21) 1.2283(41) 0.0395(3)
H6A H 0.0134(31) 1.3339(25) 0.1345(16)
C4A C -0.5023(4) 1.4259(5) 0.2099(2)
H7A H -0.6129(13) 1.3920(11) 0.2642(16)
H8A H -0.4812(8) 1.5507(14) 0.2302(21)
H9A H -0.5658(20) 1.4830(23) 0.1219(6)
B1A B -0.1282(10) 0.9314(13) 0.5368(3)
B2A B -0.1334(10) 1.1829(8) 0.5093(4)
loop_
_geom_bond_atom_site_label_1
_geom_bond_atom_site_label_2
_geom_bond_site_symmetry_1
_geom_bond_site_symmetry_2
Si1 C1 1_555 1_555
C1 B1 1_555 1_555
C2 Si1 1_555 1_555
H1 C2 1_555 1_555
H2 C2 1_555 1_555
H3 C2 1_555 1_555
C3 Si1 1_555 1_555
H4 C3 1_555 1_555
H5 C3 1_555 1_555
H6 C3 1_555 1_555
C4 Si1 1_555 1_555
H7 C4 1_555 1_555
H8 C4 1_555 1_555
H9 C4 1_555 1_555
B1 B2 1_555 1_555
B2 C1 1_555 1_555
C1A B1 1_555 1_555
Si1A C1A 1_555 1_555
C2A Si1A 1_555 1_555
H1A C2A 1_555 1_555
H2A C2A 1_555 1_555
H3A C2A 1_555 1_555
C3A Si1A 1_555 1_555
H4A C3A 1_555 1_555
H5A C3A 1_555 1_555
H6A C3A 1_555 1_555
C4A Si1A 1_555 1_555
H7A C4A 1_555 1_555
H8A C4A 1_555 1_555
H9A C4A 1_555 1_555
B1A C1 1_555 1_555
B2A C1 1_555 1_555
B1 B2A 1_555 1_555
B2 C1A 1_555 1_555
B2 B1A 1_555 1_555
C1A B1A 1_555 1_555
C1A B2A 1_555 1_555
B1A B2A 1_555 1_555

#END
