
#######################################################################
#
#                 Cambridge Crystallographic Data Centre
#                                CCDC 
#
#######################################################################
#
# If this CIF has been generated from an entry in the Cambridge 
# Structural Database, then it will include bibliographic, chemical, 
# crystal, experimental, refinement or atomic coordinate data resulting 
# from the CCDC's data processing and validation procedures.
#
#######################################################################

data_ROFBEV
_chemical_formula_moiety         
'C44 H60 O14,2(C36 H31 N7 4+),C2 H3 N1,8(F6 P1 1-)'
_chemical_name_systematic        
'bis(8-azido-5,12,19,26-tetraazoniaheptacyclo[24.2.2.2^2,5^.2^7,10^.2^12,15^.2^16,19^.2^21,24^]tetraconta-1(28),2,4,7,9,12,14,16,18,21,23,26,29,31,33,35,37,39-octadecaene) octakis(hexafluorophosphate) 6,9,12,15,18,21,24,35,38,41,44,47,50,53-tetradecaoxapentacyclo[52.4.0.0^5,58^.0^25,30^.0^29,34^]octapentaconta-1(58),2,4,25,27,29,31,33,54,56-decaene acetonitrile solvate'
_symmetry_cell_setting           triclinic
_symmetry_space_group_name_H-M   'P -1'
_symmetry_Int_Tables_number      2
_space_group_name_Hall           '-P 1'
loop_
_symmetry_equiv_pos_site_id
_symmetry_equiv_pos_as_xyz
1 x,y,z
2 -x,-y,-z
_cell_length_a                   14.0648(5)
_cell_length_b                   14.0747(5)
_cell_length_c                   21.9768(9)
_cell_angle_alpha                106.804(2)
_cell_angle_beta                 104.655(2)
_cell_angle_gamma                90.978(2)
_cell_volume                     4010.06
_exptl_crystal_colour            'dark violet'
_exptl_crystal_description       plate
_cell_formula_units_Z            1
loop_
_atom_site_label
_atom_site_type_symbol
_atom_site_fract_x
_atom_site_fract_y
_atom_site_fract_z
C1 C 0.1819(6) 0.4058(5) 0.4484(4)
H1 H 0.2472 0.4361 0.4787
H2 H 0.1304 0.4425 0.4660
C2 C 0.2588(6) 0.4127(5) 0.2974(4)
H3 H 0.3183 0.4149 0.2847
C3 C 0.2623(5) 0.4175(5) 0.3617(4)
H4 H 0.3242 0.4226 0.3929
C4 C 0.1757(5) 0.4148(5) 0.3807(4)
C5 C 0.0853(6) 0.4140(5) 0.3360(5)
H5 H 0.0264 0.4164 0.3498
C6 C 0.0809(3) 0.4095(5) 0.2708(4)
H6 H 0.0193 0.4097 0.2405
C7 C 0.1677(6) 0.4047(5) 0.2510(4)
C8 C 0.1645(7) 0.3830(5) 0.1802(4)
H7 H 0.2253 0.4139 0.1760
H8 H 0.1072 0.4112 0.1574
C9 C 0.2367(6) 0.2230(6) 0.1566(4)
H9 H 0.2995 0.2605 0.1757
C10 C 0.0691(6) 0.2212(5) 0.1198(4)
H10 H 0.0125 0.2565 0.1123
C11 C 0.2318(6) 0.1207(5) 0.1375(4)
H11 H 0.2901 0.0877 0.1441
C12 C 0.0579(6) 0.1176(5) 0.0994(4)
H12 H -0.0060 0.0826 0.0796
C13 C 0.1396(5) 0.0661(5) 0.1082(3)
C14 C 0.1303(5) -0.0454(5) 0.0904(3)
C15 C 0.2125(6) -0.0980(5) 0.0944(4)
H13 H 0.2764 -0.0644 0.1048
C16 C 0.0366(6) -0.0994(5) 0.0726(3)
H14 H -0.0219 -0.0664 0.0683
C17 C 0.2012(7) -0.1994(6) 0.0832(4)
H15 H 0.2583 -0.2346 0.0870
C18 C 0.0320(6) -0.2013(5) 0.0617(4)
H16 H -0.0304 -0.2383 0.0499
C19 C 0.1076(9) -0.3595(6) 0.0612(5)
H17 H 0.1667 -0.3894 0.0501
H18 H 0.0482 -0.3951 0.0261
C20 C 0.1013(7) -0.3529(5) 0.2580(5)
C21 C 0.1895(3) -0.3560(5) 0.2424(4)
H19 H 0.2491 -0.3530 0.2753
C22 C 0.1918(3) -0.3639(5) 0.1763(4)
C23 C 0.1013(8) -0.3673(5) 0.1294(4)
C24 C 0.0161(8) -0.3714(6) 0.1436(5)
H20 H -0.0437 -0.3791 0.1099
C25 C 0.0130(7) -0.3644(6) 0.2084(5)
H21 H -0.0487 -0.3676 0.2183
C26 C 0.0982(7) -0.3321(5) 0.3282(4)
H22 H 0.1527 -0.3622 0.3522
H23 H 0.0349 -0.3619 0.3297
C27 C 0.1943(6) -0.1723(5) 0.3933(4)
H24 H 0.2492 -0.2098 0.4010
C28 C 0.0276(5) -0.1685(5) 0.3504(4)
H25 H -0.0360 -0.2034 0.3286
C29 C 0.2090(5) -0.0707(5) 0.4167(3)
H26 H 0.2730 -0.0383 0.4404
C30 C 0.0387(5) -0.0689(5) 0.3709(4)
H27 H -0.0174 -0.0337 0.3616
C31 C 0.1296(4) -0.0152(5) 0.4054(3)
C32 C 0.1441(4) 0.0951(5) 0.4240(3)
C33 C 0.2357(5) 0.1441(5) 0.4358(4)
H28 H 0.2919 0.1075 0.4368
C34 C 0.0662(5) 0.1535(5) 0.4256(4)
H29 H 0.0027 0.1235 0.4212
C35 C 0.2468(5) 0.2463(5) 0.4461(4)
H30 H 0.3103 0.2791 0.4538
C36 C 0.0784(5) 0.2540(5) 0.4336(4)
H31 H 0.0228 0.2915 0.4308
N1 N 0.1559(5) 0.2709(4) 0.1490(3)
N2 N 0.1144(6) -0.2491(4) 0.0673(3)
N3 N 0.1085(5) -0.2192(4) 0.3611(3)
N4 N 0.1680(4) 0.2986(4) 0.4452(3)
N5 N 0.2840(3) -0.355(3) 0.1567(8)
N6 N 0.3436(3) -0.336(3) 0.1328(12)
N7 N 0.409(2) -0.328(3) 0.111(2)
C37 C 0.1623(4) 0.0715(4) 0.2659(3)
C38 C 0.1177(5) 0.1639(5) 0.2714(3)
H33 H 0.1578 0.2256 0.2881
C39 C 0.0185(5) 0.1620(5) 0.2528(4)
H34 H -0.0099 0.2232 0.2548
C40 C -0.0445(5) 0.0735(5) 0.2306(4)
H35 H -0.1141 0.0748 0.2186
C41 C -0.0032(5) -0.0158(4) 0.2267(3)
C42 C 0.1007(4) -0.0185(4) 0.2428(3)
C43 C 0.1460(5) -0.1104(4) 0.2382(3)
H36 H 0.1057 -0.1719 0.2236
C44 C 0.2437(5) -0.1100(5) 0.2543(3)
H37 H 0.2721 -0.1715 0.2505
C45 C 0.3071(5) -0.0191(5) 0.2770(3)
H38 H 0.3768 -0.0203 0.2879
C46 C 0.2669(5) 0.0681(5) 0.2828(3)
C47 C -0.1608(5) -0.1060(6) 0.1881(4)
H39 H -0.1832 -0.0822 0.1491
H40 H -0.1812 -0.0608 0.2253
C48 C -0.2065(6) -0.2127(6) 0.1728(4)
H41 H -0.2773 -0.2197 0.1488
H42 H -0.1722 -0.2608 0.1452
C49 C -0.2566(8) -0.3140(8) 0.2283(5)
H43 H -0.330(8) -0.346(8) 0.180(5)
C50 C -0.2491(7) -0.3285(9) 0.2937(5)
H44 H -0.2627 -0.2668 0.3245
H45 H -0.2983 -0.3832 0.2890
C51 C -0.1338(8) -0.3675(8) 0.3816(5)
H46 H -0.1451 -0.3054 0.4132
H47 H -0.0639 -0.3795 0.3969
C52 C 0.4283(6) 0.1586(6) 0.3220(5)
H48 H 0.4490 0.1235 0.3556
H49 H 0.4491 0.1225 0.2823
C53 C 0.4732(7) 0.2587(7) 0.3473(5)
H50 H 0.5446 0.2580 0.3503
H51 H 0.4443 0.2953 0.3159
C54 C 0.5146(7) 0.2912(8) 0.4626(5)
H52 H 0.5792 0.2720 0.4553
H53 H 0.4809 0.2332 0.4682
C55 C 0.5320(6) 0.3720(7) 0.5225(5)
H54 H 0.5658 0.4305 0.5176
H55 H 0.5760 0.3525 0.5589
C56 C 0.4521(7) 0.4568(8) 0.6028(5)
H56 H 0.5030 0.5131 0.6137
H57 H 0.4757 0.4167 0.6329
C57 C 0.3599(7) 0.4959(7) 0.6128(5)
H58 H 0.3720 0.5414 0.6584
H59 H 0.3352 0.5344 0.5818
C58 C 0.1989(7) 0.4533(8) 0.6169(5)
H60 H 0.1636 0.4827 0.5827
H61 H 0.2151 0.5058 0.6602
O1 O -0.0569(3) -0.1071(3) 0.2049(2)
O2 O -0.1948(4) -0.2301(4) 0.2354(3)
O3 O -0.1499(4) -0.3531(4) 0.3194(3)
O4 O 0.3196(3) 0.1609(3) 0.3047(2)
O5 O 0.4615(4) 0.3097(5) 0.4095(3)
O6 O 0.4401(4) 0.3988(4) 0.5389(3)
O7 O 0.2874(4) 0.4168(4) 0.6024(3)
C37A C -0.1623(4) -0.0715(4) 0.7341(3)
C38A C -0.1177(5) -0.1639(5) 0.7286(3)
H33A H -0.1578 -0.2256 0.7119
C39A C -0.0185(5) -0.1620(5) 0.7472(4)
H34A H 0.0099 -0.2232 0.7452
C40A C 0.0445(5) -0.0735(5) 0.7694(4)
H35A H 0.1141 -0.0748 0.7814
C41A C 0.0032(5) 0.0158(4) 0.7733(3)
C42A C -0.1007(4) 0.0185(4) 0.7572(3)
C43A C -0.1460(5) 0.1104(4) 0.7618(3)
H36A H -0.1057 0.1719 0.7764
C44A C -0.2437(5) 0.1100(5) 0.7457(3)
H37A H -0.2721 0.1715 0.7495
C45A C -0.3071(5) 0.0191(5) 0.7230(3)
H38A H -0.3768 0.0203 0.7121
C46A C -0.2669(5) -0.0681(5) 0.7172(3)
C47A C 0.1608(5) 0.1060(6) 0.8119(4)
H39A H 0.1832 0.0822 0.8509
H40A H 0.1812 0.0608 0.7747
C48A C 0.2065(6) 0.2127(6) 0.8272(4)
H41A H 0.2773 0.2197 0.8512
H42A H 0.1722 0.2608 0.8548
C49A C 0.2566(8) 0.3140(8) 0.7717(5)
H43A H 0.330(8) 0.346(8) 0.820(5)
C50A C 0.2491(7) 0.3285(9) 0.7063(5)
H44A H 0.2627 0.2668 0.6755
H45A H 0.2983 0.3832 0.7110
C51A C 0.1338(8) 0.3675(8) 0.6184(5)
H46A H 0.1451 0.3054 0.5868
H47A H 0.0639 0.3795 0.6031
C52A C -0.4283(6) -0.1586(6) 0.6780(5)
H48A H -0.4490 -0.1235 0.6444
H49A H -0.4491 -0.1225 0.7177
C53A C -0.4732(7) -0.2587(7) 0.6527(5)
H50A H -0.5446 -0.2580 0.6497
H51A H -0.4443 -0.2953 0.6841
C54A C -0.5146(7) -0.2912(8) 0.5374(5)
H52A H -0.5792 -0.2720 0.5447
H53A H -0.4809 -0.2332 0.5318
C55A C -0.5320(6) -0.3720(7) 0.4775(5)
H54A H -0.5658 -0.4305 0.4824
H55A H -0.5760 -0.3525 0.4411
C56A C -0.4521(7) -0.4568(8) 0.3972(5)
H56A H -0.5030 -0.5131 0.3863
H57A H -0.4757 -0.4167 0.3671
C57A C -0.3599(7) -0.4959(7) 0.3872(5)
H58A H -0.3720 -0.5414 0.3416
H59A H -0.3352 -0.5344 0.4182
C58A C -0.1989(7) -0.4533(8) 0.3831(5)
H60A H -0.1636 -0.4827 0.4173
H61A H -0.2151 -0.5058 0.3398
O1A O 0.0569(3) 0.1071(3) 0.7951(2)
O2A O 0.1948(4) 0.2301(4) 0.7646(3)
O3A O 0.1499(4) 0.3531(4) 0.6806(3)
O4A O -0.3196(3) -0.1609(3) 0.6953(2)
O5A O -0.4615(4) -0.3097(5) 0.5905(3)
O6A O -0.4401(4) -0.3988(4) 0.4611(3)
O7A O -0.2874(4) -0.4168(4) 0.3976(3)
P1 P 0.5000 0.0000 0.5000
F1 F 0.4239(4) -0.0903(8) 0.4940(5)
F2 F 0.4453(4) 0.0010(7) 0.4308(5)
F3 F 0.4281(4) 0.0848(9) 0.5262(5)
F1A F 0.5761(4) 0.0903(8) 0.5060(5)
F2A F 0.5547(4) -0.0010(7) 0.5692(5)
F3A F 0.5719(4) -0.0848(9) 0.4738(5)
P2 P 0.82436(13) 0.28901(14) 0.46675(10)
F4 F 0.8533(3) 0.2149(4) 0.4063(2)
F5 F 0.7929(4) 0.3621(4) 0.5258(3)
F6 F 0.7352(4) 0.3164(5) 0.4166(3)
F7 F 0.8974(3) 0.3767(3) 0.4649(3)
F8 F 0.9140(3) 0.2575(3) 0.5145(2)
F9 F 0.7533(3) 0.2024(4) 0.4692(3)
P3 P 0.7616(3) 0.6228(3) 0.97873(19)
F10 F 0.8578(6) 0.6077(8) 0.9636(5)
F11 F 0.6664(7) 0.6238(10) 1.0018(5)
F12 F 0.8067(11) 0.5723(10) 1.0294(7)
F13 F 0.8055(9) 0.7273(8) 1.0296(5)
F14 F 0.7155(8) 0.6764(10) 0.9242(5)
F15 F 0.7184(7) 0.5221(9) 0.9269(7)
P4 P 0.5218(3) -0.0545(5) 0.1564(2)
F16 F 0.4343(7) -0.1053(13) 0.1749(5)
F17 F 0.5758(7) -0.1445(11) 0.1713(11)
F18 F 0.6110(8) -0.0149(12) 0.1452(8)
F19 F 0.4619(9) 0.0333(14) 0.1516(7)
F20 F 0.5581(11) 0.0014(12) 0.2296(5)
F21 F 0.4669(11) -0.1010(16) 0.0861(6)
P5 P 0.5099(3) 0.5826(4) 0.8194(2)
F22 F 0.5285(9) 0.6580(14) 0.7831(7)
F23 F 0.4842(7) 0.5201(10) 0.8574(6)
F24 F 0.3993(8) 0.5703(14) 0.7787(6)
F25 F 0.6176(8) 0.6082(14) 0.8628(6)
F26 F 0.4665(14) 0.6578(14) 0.8710(8)
F27 F 0.5554(14) 0.5093(17) 0.7739(9)
N14 N 0.1626(9) 0.0632(10) 0.5689(5)
C59 C 0.2233(13) 0.0366(10) 0.6013(6)
C60 C 0.3093(14) 0.0078(12) 0.6436(7)
H62 H 0.3463 -0.0350 0.6160
H63 H 0.2869 -0.0285 0.6701
H64 H 0.3520 0.0678 0.6729
H32? H 0.2523 -0.3667 0.1645
N8? N 0.2829(4) -0.3265(18) 0.2956(6)
N9? N 0.3567(3) -0.2950(17) 0.3356(8)
N10? N 0.4301(15) -0.247(2) 0.345(2)
N11? N -0.0131(3) 0.430(3) 0.230(2)
N12? N -0.0935(4) 0.433(3) 0.2006(17)
N13? N -0.164(3) 0.413(3) 0.157(2)
loop_
_geom_bond_atom_site_label_1
_geom_bond_atom_site_label_2
_geom_bond_site_symmetry_1
_geom_bond_site_symmetry_2
C1 H1 1_555 1_555
H2 C1 1_555 1_555
C2 H3 1_555 1_555
C3 C2 1_555 1_555
H4 C3 1_555 1_555
C4 C1 1_555 1_555
C5 C4 1_555 1_555
H5 C5 1_555 1_555
C6 C5 1_555 1_555
H6 C6 1_555 1_555
C7 C2 1_555 1_555
C8 C7 1_555 1_555
H7 C8 1_555 1_555
H8 C8 1_555 1_555
C9 H9 1_555 1_555
C10 H10 1_555 1_555
C11 C9 1_555 1_555
H11 C11 1_555 1_555
C12 C10 1_555 1_555
H12 C12 1_555 1_555
C13 C11 1_555 1_555
C14 C13 1_555 1_555
C15 C14 1_555 1_555
H13 C15 1_555 1_555
C16 C14 1_555 1_555
H14 C16 1_555 1_555
C17 C15 1_555 1_555
H15 C17 1_555 1_555
C18 C16 1_555 1_555
H16 C18 1_555 1_555
C19 H17 1_555 1_555
H18 C19 1_555 1_555
C20 C21 1_555 1_555
C21 H19 1_555 1_555
C22 C21 1_555 1_555
C23 C19 1_555 1_555
C24 C23 1_555 1_555
H20 C24 1_555 1_555
C25 C20 1_555 1_555
H21 C25 1_555 1_555
C26 C20 1_555 1_555
H22 C26 1_555 1_555
H23 C26 1_555 1_555
C27 H24 1_555 1_555
C28 H25 1_555 1_555
C29 C27 1_555 1_555
H26 C29 1_555 1_555
C30 C28 1_555 1_555
H27 C30 1_555 1_555
C31 C29 1_555 1_555
C32 C31 1_555 1_555
C33 C32 1_555 1_555
H28 C33 1_555 1_555
C34 C32 1_555 1_555
H29 C34 1_555 1_555
C35 C33 1_555 1_555
H30 C35 1_555 1_555
C36 C34 1_555 1_555
H31 C36 1_555 1_555
N1 C8 1_555 1_555
N2 C17 1_555 1_555
N3 C26 1_555 1_555
N4 C1 1_555 1_555
N5 C22 1_555 1_555
N6 N5 1_555 1_555
N7 N6 1_555 1_555
C37 C38 1_555 1_555
C38 H33 1_555 1_555
C39 C38 1_555 1_555
H34 C39 1_555 1_555
C40 C39 1_555 1_555
H35 C40 1_555 1_555
C41 C40 1_555 1_555
C42 C37 1_555 1_555
C43 C42 1_555 1_555
H36 C43 1_555 1_555
C44 C43 1_555 1_555
H37 C44 1_555 1_555
C45 C44 1_555 1_555
H38 C45 1_555 1_555
C46 C37 1_555 1_555
C47 H39 1_555 1_555
H40 C47 1_555 1_555
C48 C47 1_555 1_555
H41 C48 1_555 1_555
H42 C48 1_555 1_555
C49 H43 1_555 1_555
C50 C49 1_555 1_555
H44 C50 1_555 1_555
H45 C50 1_555 1_555
C51 H46 1_555 1_555
H47 C51 1_555 1_555
C52 H48 1_555 1_555
H49 C52 1_555 1_555
C53 C52 1_555 1_555
H50 C53 1_555 1_555
H51 C53 1_555 1_555
C54 H52 1_555 1_555
H53 C54 1_555 1_555
C55 C54 1_555 1_555
H54 C55 1_555 1_555
H55 C55 1_555 1_555
C56 H56 1_555 1_555
H57 C56 1_555 1_555
C57 C56 1_555 1_555
H58 C57 1_555 1_555
H59 C57 1_555 1_555
C58 H60 1_555 1_555
H61 C58 1_555 1_555
O1 C41 1_555 1_555
O2 C48 1_555 1_555
O3 C50 1_555 1_555
O4 C46 1_555 1_555
O5 C53 1_555 1_555
O6 C55 1_555 1_555
O7 C57 1_555 1_555
P1 F1 1_555 1_555
F2 P1 1_555 1_555
F3 P1 1_555 1_555
P2 F4 1_555 1_555
F5 P2 1_555 1_555
F6 P2 1_555 1_555
F7 P2 1_555 1_555
F8 P2 1_555 1_555
F9 P2 1_555 1_555
P3 F10 1_555 1_555
F11 P3 1_555 1_555
F12 P3 1_555 1_555
F13 P3 1_555 1_555
F14 P3 1_555 1_555
F15 P3 1_555 1_555
P4 F16 1_555 1_555
F17 P4 1_555 1_555
F18 P4 1_555 1_555
F19 P4 1_555 1_555
F20 P4 1_555 1_555
F21 P4 1_555 1_555
P5 F22 1_555 1_555
F23 P5 1_555 1_555
F24 P5 1_555 1_555
F25 P5 1_555 1_555
F26 P5 1_555 1_555
F27 P5 1_555 1_555
N14 C59 1_555 1_555
C59 C60 1_555 1_555
C60 H62 1_555 1_555
H63 C60 1_555 1_555
H64 C60 1_555 1_555
C37A C38A 1_555 1_555
C38A H33A 1_555 1_555
C39A C38A 1_555 1_555
H34A C39A 1_555 1_555
C40A C39A 1_555 1_555
H35A C40A 1_555 1_555
C41A C40A 1_555 1_555
C42A C37A 1_555 1_555
C43A C42A 1_555 1_555
H36A C43A 1_555 1_555
C44A C43A 1_555 1_555
H37A C44A 1_555 1_555
C45A C44A 1_555 1_555
H38A C45A 1_555 1_555
C46A C37A 1_555 1_555
C47A H39A 1_555 1_555
H40A C47A 1_555 1_555
C48A C47A 1_555 1_555
H41A C48A 1_555 1_555
H42A C48A 1_555 1_555
C49A H43A 1_555 1_555
C50A C49A 1_555 1_555
H44A C50A 1_555 1_555
H45A C50A 1_555 1_555
C51A C58 1_555 1_555
H46A C51A 1_555 1_555
H47A C51A 1_555 1_555
C52A H48A 1_555 1_555
H49A C52A 1_555 1_555
C53A C52A 1_555 1_555
H50A C53A 1_555 1_555
H51A C53A 1_555 1_555
C54A H52A 1_555 1_555
H53A C54A 1_555 1_555
C55A C54A 1_555 1_555
H54A C55A 1_555 1_555
H55A C55A 1_555 1_555
C56A H56A 1_555 1_555
H57A C56A 1_555 1_555
C57A C56A 1_555 1_555
H58A C57A 1_555 1_555
H59A C57A 1_555 1_555
C58A C51 1_555 1_555
H60A C58A 1_555 1_555
H61A C58A 1_555 1_555
O1A C41A 1_555 1_555
O2A C48A 1_555 1_555
O3A C50A 1_555 1_555
O4A C46A 1_555 1_555
O5A C53A 1_555 1_555
O6A C55A 1_555 1_555
O7A C57A 1_555 1_555
F1A P1 1_555 1_555
F2A P1 1_555 1_555
F3A P1 1_555 1_555
C3 C4 1_555 1_555
C6 C7 1_555 1_555
C9 N1 1_555 1_555
C10 N1 1_555 1_555
C12 C13 1_555 1_555
C18 N2 1_555 1_555
C19 N2 1_555 1_555
C22 C23 1_555 1_555
C24 C25 1_555 1_555
C27 N3 1_555 1_555
C28 N3 1_555 1_555
C30 C31 1_555 1_555
C35 N4 1_555 1_555
C36 N4 1_555 1_555
C41 C42 1_555 1_555
C45 C46 1_555 1_555
C47 O1 1_555 1_555
C49 O2 1_555 1_555
C51 O3 1_555 1_555
C52 O4 1_555 1_555
C54 O5 1_555 1_555
C56 O6 1_555 1_555
C58 O7 1_555 1_555
C41A C42A 1_555 1_555
C45A C46A 1_555 1_555
C47A O1A 1_555 1_555
C49A O2A 1_555 1_555
C51A O3A 1_555 1_555
C52A O4A 1_555 1_555
C54A O5A 1_555 1_555
C56A O6A 1_555 1_555
C58A O7A 1_555 1_555

#END
