
#######################################################################
#
#                 Cambridge Crystallographic Data Centre
#                                CCDC 
#
#######################################################################
#
# If this CIF has been generated from an entry in the Cambridge 
# Structural Database, then it will include bibliographic, chemical, 
# crystal, experimental, refinement or atomic coordinate data resulting 
# from the CCDC's data processing and validation procedures.
#
#######################################################################

data_ROFCAR
_chemical_formula_moiety         '2(C18 H14 N4),C8 H6 O4'
_chemical_name_systematic        
"Terephthalic acid 10,11,12,13-tetrahydrodipyrido[3,2-a:2',3'-c]phenazine"
_symmetry_cell_setting           triclinic
_symmetry_space_group_name_H-M   'P -1'
_symmetry_Int_Tables_number      2
_space_group_name_Hall           '-P 1'
loop_
_symmetry_equiv_pos_site_id
_symmetry_equiv_pos_as_xyz
1 x,y,z
2 -x,-y,-z
_cell_length_a                   7.266(4)
_cell_length_b                   9.917(5)
_cell_length_c                   13.564(9)
_cell_angle_alpha                101.469(9)
_cell_angle_beta                 97.429(9)
_cell_angle_gamma                109.697(6)
_cell_volume                     881.169
_exptl_crystal_colour            colorless
_exptl_crystal_description       block
_cell_formula_units_Z            1
loop_
_atom_site_label
_atom_site_type_symbol
_atom_site_fract_x
_atom_site_fract_y
_atom_site_fract_z
C1 C 0.7589(5) 0.5815(4) 1.2595(3)
H1 H 0.7594 0.6000 1.3295
C2 C 0.7631(5) 0.6947(4) 1.2121(3)
H2 H 0.7692 0.7861 1.2495
C3 C 0.7581(4) 0.6668(4) 1.1082(3)
H3 H 0.7589 0.7394 1.0739
C4 C 0.7517(4) 0.5297(3) 1.0542(2)
C5 C 0.7492(4) 0.4942(3) 0.9448(2)
C6 C 0.7476(4) 0.5624(4) 0.7934(3)
C7 C 0.7508(5) 0.6785(4) 0.7365(2)
H4 H 0.8810 0.7585 0.7590
H5 H 0.6518 0.7193 0.7543
C8 C 0.7086(6) 0.6201(4) 0.6202(3)
H6 H 0.5654 0.5694 0.5943
H7 H 0.7534 0.7030 0.5898
C9 C 0.8103(6) 0.5164(4) 0.5882(3)
H8 H 0.9537 0.5678 0.6125
H9 H 0.7826 0.4845 0.5137
C10 C 0.7414(6) 0.3822(4) 0.6306(2)
H10 H 0.6063 0.3186 0.5940
H11 H 0.8271 0.3265 0.6187
C11 C 0.7453(4) 0.4230(4) 0.7430(2)
C12 C 0.7473(4) 0.3561(3) 0.8947(2)
C13 C 0.7493(4) 0.2468(3) 0.9524(2)
C14 C 0.7547(4) 0.1100(4) 0.9065(3)
H12 H 0.7545 0.0847 0.8367
C15 C 0.7602(5) 0.0130(4) 0.9645(3)
H13 H 0.7664 -0.0782 0.9355
C16 C 0.7563(5) 0.0539(4) 1.0681(3)
H14 H 0.7582 -0.0131 1.1071
C17 C 0.7489(4) 0.2799(3) 1.0574(2)
C18 C 0.7504(4) 0.4245(3) 1.1102(2)
N1 N 0.7543(4) 0.4499(3) 1.2122(2)
N2 N 0.7502(4) 0.1824(3) 1.1147(2)
N3 N 0.7496(4) 0.5981(3) 0.89318(19)
N4 N 0.7442(4) 0.3203(3) 0.79299(19)
C19 C 0.7010(6) 0.0878(4) 1.3406(3)
C20 C 0.5949(5) 0.0433(3) 1.4226(2)
C21 C 0.4077(6) 0.0460(4) 1.4252(3)
H15 H 0.3439 0.0761 1.3747
C22 C 0.6860(5) -0.0042(4) 1.4971(3)
H16 H 0.8116 -0.0082 1.4950
O1 O 0.8422(4) 0.0570(3) 1.3217(2)
O2 O 0.6271(4) 0.1674(3) 1.29255(18)
H17 H 0.6112 0.1355 1.2302
C19A C 0.2990(6) -0.0878(4) 1.6594(3)
C20A C 0.4051(5) -0.0433(3) 1.5774(2)
C21A C 0.5923(6) -0.0460(4) 1.5748(3)
H15A H 0.6561 -0.0761 1.6253
C22A C 0.3140(5) 0.0042(4) 1.5029(3)
H16A H 0.1884 0.0082 1.5050
O1A O 0.1578(4) -0.0570(3) 1.6783(2)
O2A O 0.3729(4) -0.1674(3) 1.70745(18)
H17A H 0.3888 -0.1355 1.7698
loop_
_geom_bond_atom_site_label_1
_geom_bond_atom_site_label_2
_geom_bond_site_symmetry_1
_geom_bond_site_symmetry_2
C1 H1 1_555 1_555
C2 C1 1_555 1_555
H2 C2 1_555 1_555
C3 C2 1_555 1_555
H3 C3 1_555 1_555
C4 C3 1_555 1_555
C5 C4 1_555 1_555
C6 C7 1_555 1_555
C7 H4 1_555 1_555
H5 C7 1_555 1_555
C8 C7 1_555 1_555
H6 C8 1_555 1_555
H7 C8 1_555 1_555
C9 C8 1_555 1_555
H8 C9 1_555 1_555
H9 C9 1_555 1_555
C10 C9 1_555 1_555
H10 C10 1_555 1_555
H11 C10 1_555 1_555
C11 C6 1_555 1_555
C12 C5 1_555 1_555
C13 C12 1_555 1_555
C14 C13 1_555 1_555
H12 C14 1_555 1_555
C15 C14 1_555 1_555
H13 C15 1_555 1_555
C16 C15 1_555 1_555
H14 C16 1_555 1_555
C17 C13 1_555 1_555
C18 C4 1_555 1_555
N1 C1 1_555 1_555
N2 C16 1_555 1_555
N3 C5 1_555 1_555
N4 C11 1_555 1_555
C19 C20 1_555 1_555
C20 C21 1_555 1_555
C21 H15 1_555 1_555
C22 C20 1_555 1_555
H16 C22 1_555 1_555
O1 C19 1_555 1_555
O2 C19 1_555 1_555
H17 O2 1_555 1_555
C19A C20A 1_555 1_555
C20A C21A 1_555 1_555
C21A C22 1_555 1_555
H15A C21A 1_555 1_555
C22A C21 1_555 1_555
H16A C22A 1_555 1_555
O1A C19A 1_555 1_555
O2A C19A 1_555 1_555
H17A O2A 1_555 1_555
C6 N3 1_555 1_555
C10 C11 1_555 1_555
C12 N4 1_555 1_555
C17 C18 1_555 1_555
C17 N2 1_555 1_555
C18 N1 1_555 1_555
C20A C22A 1_555 1_555

#END
