
#######################################################################
#
#                 Cambridge Crystallographic Data Centre
#                                CCDC 
#
#######################################################################
#
# If this CIF has been generated from an entry in the Cambridge 
# Structural Database, then it will include bibliographic, chemical, 
# crystal, experimental, refinement or atomic coordinate data resulting 
# from the CCDC's data processing and validation procedures.
#
#######################################################################

data_ROFFAU
_chemical_formula_moiety         'C22 H12 Cl2 N4 O1'
_chemical_name_systematic        
4-(2,4-Dichlorophenyl)-2-(1H-indol-3-yl)-6-methoxy-3,5-pyridinedicarbonitrile
_symmetry_cell_setting           triclinic
_symmetry_space_group_name_H-M   'P -1'
_symmetry_Int_Tables_number      2
_space_group_name_Hall           '-P 1'
loop_
_symmetry_equiv_pos_site_id
_symmetry_equiv_pos_as_xyz
1 x,y,z
2 -x,-y,-z
_cell_length_a                   9.5394(2)
_cell_length_b                   10.0358(2)
_cell_length_c                   11.1739(3)
_cell_angle_alpha                111.9940(10)
_cell_angle_beta                 97.3030(10)
_cell_angle_gamma                93.7150(10)
_cell_volume                     976.465
_exptl_crystal_colour            yellow
_exptl_crystal_description       Block
_cell_formula_units_Z            2
_exptl_crystal_recrystallization_method ethanol
loop_
_atom_site_label
_atom_site_type_symbol
_atom_site_fract_x
_atom_site_fract_y
_atom_site_fract_z
Cl1 Cl -0.20213(5) 0.05813(6) 0.06721(6)
Cl2 Cl 0.18710(5) 0.43669(6) 0.01921(5)
O1 O 0.71041(12) 0.47517(13) 0.22771(11)
N1 N 0.60609(13) 0.63393(14) 0.38834(12)
C1 C 0.49048(16) 0.66990(16) 0.44682(14)
C2 C 0.36036(15) 0.57682(16) 0.39683(14)
C3 C 0.34811(16) 0.45252(16) 0.28224(14)
C4 C 0.46814(16) 0.42069(17) 0.22319(15)
C5 C 0.59570(16) 0.51473(17) 0.28335(15)
C6 C 0.51214(16) 0.80627(17) 0.55884(15)
C7 C 0.62593(17) 0.92294(16) 0.58897(15)
C8 C 0.73824(19) 0.94826(18) 0.52844(17)
H1 H 0.7519 0.8801 0.4486
C9 C 0.8286(2) 1.0759(2) 0.5888(2)
H2 H 0.9042 1.0927 0.5493
C10 C 0.8089(2) 1.18028(19) 0.7078(2)
H3 H 0.8719 1.2651 0.7464
C11 C 0.6985(2) 1.16004(19) 0.76875(18)
H4 H 0.6843 1.2300 0.8474
C12 C 0.60840(18) 1.03058(18) 0.70822(16)
N2 N 0.49146(17) 0.98300(16) 0.74801(15)
H5 H 0.462(2) 1.023(2) 0.818(2)
C13 C 0.43425(18) 0.85081(18) 0.66041(16)
H6 H 0.3544 0.7974 0.6671
C14 C 0.23671(17) 0.61040(17) 0.45772(15)
N3 N 0.13813(16) 0.63647(17) 0.50645(16)
C15 C 0.21094(15) 0.35534(16) 0.22670(14)
C16 C 0.15904(18) 0.27834(18) 0.29551(16)
H7 H 0.2100 0.2892 0.3759
C17 C 0.03299(19) 0.18576(19) 0.24684(18)
H8 H 0.0002 0.1335 0.2932
C18 C -0.04298(17) 0.17221(18) 0.12898(18)
C19 C 0.00404(17) 0.24803(19) 0.05835(17)
H9 H -0.0485 0.2383 -0.0211
C20 C 0.13088(17) 0.33881(17) 0.10799(15)
C21 C 0.46601(17) 0.29503(19) 0.10682(16)
N4 N 0.46376(18) 0.19450(19) 0.01436(16)
C22 C 0.84527(18) 0.5613(2) 0.29323(18)
H10 H 0.8435 0.6564 0.2920
H11 H 0.9201 0.5162 0.2491
H12 H 0.8619 0.5687 0.3822
loop_
_geom_bond_atom_site_label_1
_geom_bond_atom_site_label_2
_geom_bond_site_symmetry_1
_geom_bond_site_symmetry_2
Cl1 C18 1_555 1_555
Cl2 C20 1_555 1_555
O1 C5 1_555 1_555
N1 C1 1_555 1_555
C1 C2 1_555 1_555
C2 C3 1_555 1_555
C3 C4 1_555 1_555
C4 C5 1_555 1_555
C5 N1 1_555 1_555
C6 C1 1_555 1_555
C7 C6 1_555 1_555
C8 C7 1_555 1_555
H1 C8 1_555 1_555
C9 C8 1_555 1_555
H2 C9 1_555 1_555
C10 C9 1_555 1_555
H3 C10 1_555 1_555
C11 C10 1_555 1_555
H4 C11 1_555 1_555
C12 C7 1_555 1_555
N2 C12 1_555 1_555
H5 N2 1_555 1_555
C13 C6 1_555 1_555
H6 C13 1_555 1_555
C14 C2 1_555 1_555
N3 C14 1_555 1_555
C15 C3 1_555 1_555
C16 C15 1_555 1_555
H7 C16 1_555 1_555
C17 C16 1_555 1_555
H8 C17 1_555 1_555
C18 C17 1_555 1_555
C19 C18 1_555 1_555
H9 C19 1_555 1_555
C20 C15 1_555 1_555
C21 C4 1_555 1_555
N4 C21 1_555 1_555
C22 O1 1_555 1_555
H10 C22 1_555 1_555
H11 C22 1_555 1_555
H12 C22 1_555 1_555
C11 C12 1_555 1_555
N2 C13 1_555 1_555
C19 C20 1_555 1_555

#END
