
#######################################################################
#
#                 Cambridge Crystallographic Data Centre
#                                CCDC 
#
#######################################################################
#
# If this CIF has been generated from an entry in the Cambridge 
# Structural Database, then it will include bibliographic, chemical, 
# crystal, experimental, refinement or atomic coordinate data resulting 
# from the CCDC's data processing and validation procedures.
#
#######################################################################

data_ROFGOJ
_chemical_formula_moiety         'C27 H30 O14,H2 O1'
_chemical_name_systematic        
'5-(((2S,3R,4S,5S,6R)-4,5-Dihydroxy-6-(hydroxymethyl)-3-(((2S,3R,4R,5R,6S)-3,4,5-trihydroxy-6-methyltetrahydro-2H-pyran-2-yl)oxy)tetrahydro-2H-pyran-2-yl)oxy)-7-hydroxy-2-(4-hydroxyphenyl)-4H-chromen-4-one monohydrate'
_symmetry_cell_setting           orthorhombic
_symmetry_space_group_name_H-M   'P 21 21 21'
_symmetry_Int_Tables_number      19
_space_group_name_Hall           'P 2ac 2ab'
loop_
_symmetry_equiv_pos_site_id
_symmetry_equiv_pos_as_xyz
1 x,y,z
2 1/2-x,-y,1/2+z
3 -x,1/2+y,1/2-z
4 1/2+x,1/2-y,-z
_cell_length_a                   7.2392(14)
_cell_length_b                   9.832(2)
_cell_length_c                   36.782(7)
_cell_angle_alpha                90
_cell_angle_beta                 90
_cell_angle_gamma                90
_cell_volume                     2617.99
_exptl_crystal_colour            white
_exptl_crystal_description       block
_cell_formula_units_Z            4
loop_
_atom_site_label
_atom_site_type_symbol
_atom_site_fract_x
_atom_site_fract_y
_atom_site_fract_z
O1 O 0.4843(3) 0.7580(2) 0.00818(5)
O2 O 0.5796(3) 0.9238(2) 0.10827(5)
O3 O 0.4249(3) 0.3145(2) 0.05153(5)
H1 H 0.407(5) 0.268(4) 0.0720(8)
O4 O 0.5902(2) 0.6692(2) 0.13500(5)
O5 O 0.4557(2) 0.5220(2) 0.17460(5)
O6 O 0.8762(3) 0.5651(2) 0.24894(5)
H2 H 0.909(5) 0.502(3) 0.2620(8)
O7 O 0.6098(3) 0.3398(2) 0.25491(5)
H3 H 0.622(5) 0.364(4) 0.2769(7)
O8 O 0.2114(3) 0.2890(2) 0.17453(5)
H4 H 0.140(5) 0.342(4) 0.1646(9)
O9 O 0.9173(2) 0.6586(2) 0.17330(5)
O10 O 0.9519(2) 0.8722(2) 0.20277(5)
O11 O 1.3189(2) 0.8698(2) 0.17022(5)
H5 H 1.403(4) 0.862(4) 0.1536(7)
O12 O 1.1740(3) 0.8979(2) 0.09786(5)
H6 H 1.155(5) 0.981(3) 0.0934(9)
O13 O 0.8811(3) 1.0723(2) 0.11859(5)
H7 H 0.779(4) 1.029(4) 0.1135(9)
O14 O 0.4369(3) 1.1650(2) -0.12150(5)
H8 H 0.406(5) 1.250(3) -0.1214(9)
C1 C 0.5093(4) 0.8935(3) 0.01211(7)
C2 C 0.5473(4) 0.9489(3) 0.04519(7)
H11 H 0.5692 1.0439 0.0469
C3 C 0.5552(3) 0.8674(3) 0.07760(7)
C4 C 0.5377(3) 0.6235(3) 0.10095(7)
C5 C 0.4977(4) 0.4896(3) 0.09418(7)
H12 H 0.4939 0.4261 0.1136
C6 C 0.4621(4) 0.4463(3) 0.05842(7)
C7 C 0.4641(4) 0.5371(3) 0.02980(7)
H13 H 0.4449 0.5074 0.0055
C8 C 0.4948(4) 0.6725(3) 0.03761(7)
C9 C 0.5313(4) 0.7231(3) 0.07286(7)
C10 C 0.6285(4) 0.5673(3) 0.16087(7)
H14 H 0.6935 0.4899 0.1488
C11 C 0.7487(3) 0.6234(3) 0.19134(7)
H15 H 0.6905 0.7053 0.2027
C12 C 0.7742(4) 0.5101(3) 0.21932(7)
H16 H 0.8472 0.4347 0.2080
C13 C 0.5868(4) 0.4542(3) 0.23160(7)
H17 H 0.5165 0.5270 0.2446
C14 C 0.4779(4) 0.4074(3) 0.19843(7)
H18 H 0.5506 0.3357 0.1855
C15 C 0.2879(4) 0.3529(3) 0.20634(7)
H19 H 0.2948 0.2860 0.2264
H20 H 0.2064 0.4283 0.2142
C16 C 1.0404(3) 0.7556(3) 0.18874(7)
H21 H 1.1133 0.7111 0.2085
C17 C 1.1695(3) 0.7886(3) 0.15686(7)
H22 H 1.2187 0.7025 0.1461
C18 C 1.0581(4) 0.8670(3) 0.12806(7)
H23 H 0.9544 0.8080 0.1195
C19 C 0.9774(4) 0.9936(3) 0.14530(7)
H24 H 1.0803 1.0497 0.1555
C20 C 0.8485(3) 0.9518(3) 0.17625(7)
H25 H 0.7459 0.8949 0.1662
C21 C 0.7673(4) 1.0724(4) 0.19609(8)
H26 H 0.7005 1.0407 0.2177
H27 H 0.6819 1.1207 0.1800
H28 H 0.8668 1.1339 0.2035
C22 C 0.4910(4) 0.9672(3) -0.02252(7)
C23 C 0.5075(4) 0.8970(3) -0.05549(7)
H29 H 0.5297 0.8018 -0.0555
C24 C 0.4916(4) 0.9662(3) -0.08794(7)
H30 H 0.5052 0.9185 -0.1102
C25 C 0.4559(4) 1.1048(3) -0.08840(7)
C26 C 0.4378(4) 1.1761(3) -0.05556(7)
H31 H 0.4134 1.2710 -0.0556
C27 C 0.4557(4) 1.1065(3) -0.02315(7)
H32 H 0.4439 1.1545 -0.0009
O15 O 0.3844(4) 0.1713(3) 0.11315(6)
H9 H 0.358(6) 0.199(5) 0.1329(8)
H10 H 0.438(6) 0.096(3) 0.1150(12)
loop_
_geom_bond_atom_site_label_1
_geom_bond_atom_site_label_2
_geom_bond_site_symmetry_1
_geom_bond_site_symmetry_2
O1 C1 1_555 1_555
O2 C3 1_555 1_555
O3 H1 1_555 1_555
O4 C4 1_555 1_555
O5 C10 1_555 1_555
O6 H2 1_555 1_555
O7 H3 1_555 1_555
O8 H4 1_555 1_555
O9 C11 1_555 1_555
O10 C16 1_555 1_555
O11 H5 1_555 1_555
O12 H6 1_555 1_555
O13 H7 1_555 1_555
O14 H8 1_555 1_555
O15 H9 1_555 1_555
H10 O15 1_555 1_555
C1 C2 1_555 1_555
C2 H11 1_555 1_555
C3 C2 1_555 1_555
C4 C5 1_555 1_555
C5 H12 1_555 1_555
C6 O3 1_555 1_555
C7 C6 1_555 1_555
H13 C7 1_555 1_555
C8 O1 1_555 1_555
C9 C3 1_555 1_555
C10 O4 1_555 1_555
H14 C10 1_555 1_555
C11 C10 1_555 1_555
H15 C11 1_555 1_555
C12 O6 1_555 1_555
H16 C12 1_555 1_555
C13 O7 1_555 1_555
H17 C13 1_555 1_555
C14 O5 1_555 1_555
H18 C14 1_555 1_555
C15 O8 1_555 1_555
H19 C15 1_555 1_555
H20 C15 1_555 1_555
C16 O9 1_555 1_555
H21 C16 1_555 1_555
C17 O11 1_555 1_555
H22 C17 1_555 1_555
C18 O12 1_555 1_555
H23 C18 1_555 1_555
C19 O13 1_555 1_555
H24 C19 1_555 1_555
C20 O10 1_555 1_555
H25 C20 1_555 1_555
C21 C20 1_555 1_555
H26 C21 1_555 1_555
H27 C21 1_555 1_555
H28 C21 1_555 1_555
C22 C1 1_555 1_555
C23 C22 1_555 1_555
H29 C23 1_555 1_555
C24 C23 1_555 1_555
H30 C24 1_555 1_555
C25 O14 1_555 1_555
C26 C25 1_555 1_555
H31 C26 1_555 1_555
C27 C22 1_555 1_555
H32 C27 1_555 1_555
C4 C9 1_555 1_555
C5 C6 1_555 1_555
C7 C8 1_555 1_555
C8 C9 1_555 1_555
C11 C12 1_555 1_555
C12 C13 1_555 1_555
C13 C14 1_555 1_555
C14 C15 1_555 1_555
C16 C17 1_555 1_555
C17 C18 1_555 1_555
C18 C19 1_555 1_555
C19 C20 1_555 1_555
C24 C25 1_555 1_555
C26 C27 1_555 1_555

#END
