
#######################################################################
#
#                 Cambridge Crystallographic Data Centre
#                                CCDC 
#
#######################################################################
#
# If this CIF has been generated from an entry in the Cambridge 
# Structural Database, then it will include bibliographic, chemical, 
# crystal, experimental, refinement or atomic coordinate data resulting 
# from the CCDC's data processing and validation procedures.
#
#######################################################################

data_ROFJUT
_chemical_name_common            2,4-diiodoemodin
_chemical_formula_moiety         'C15 H8 I2 O5'
_chemical_name_systematic        
2,4,5-trihydroxy-1,3-diiodo-7-methyl-9,10-anthraquinone
_symmetry_cell_setting           orthorhombic
_symmetry_space_group_name_H-M   'P n a 21'
_symmetry_Int_Tables_number      33
_space_group_name_Hall           'P 2c -2n'
loop_
_symmetry_equiv_pos_site_id
_symmetry_equiv_pos_as_xyz
1 x,y,z
2 -x,-y,1/2+z
3 1/2-x,1/2+y,1/2+z
4 1/2+x,1/2-y,z
_cell_length_a                   19.1744(14)
_cell_length_b                   4.32402(19)
_cell_length_c                   17.2654(8)
_cell_angle_alpha                90
_cell_angle_beta                 90
_cell_angle_gamma                90
_cell_volume                     1431.48
_exptl_crystal_colour            colorless
_exptl_crystal_description       block
_cell_formula_units_Z            4
loop_
_atom_site_label
_atom_site_type_symbol
_atom_site_fract_x
_atom_site_fract_y
_atom_site_fract_z
I1 I -0.454799(15) 0.67438(8) 0.20306(2)
I2 I -0.151099(16) 0.74865(8) 0.13143(2)
O1 O -0.31460(19) 0.8240(8) 0.1240(2)
H1 H -0.2780 0.8911 0.1032
O2 O -0.39568(18) 0.2733(8) 0.3368(2)
H2 H -0.3817 0.1834 0.3771
O3 O -0.31273(18) -0.0174(8) 0.42092(19)
O4 O -0.09179(18) 0.4439(10) 0.2682(2)
O5 O -0.2331(2) -0.3058(9) 0.5131(2)
H3 H -0.2708 -0.2629 0.4908
C1 C -0.2283(2) 0.5766(9) 0.2071(4)
C2 C -0.2979(2) 0.6505(10) 0.1861(3)
C3 C -0.3530(2) 0.5487(12) 0.2308(3)
C4 C -0.3413(2) 0.3656(12) 0.2954(3)
C5 C -0.2718(3) 0.2849(10) 0.3165(3)
C6 C -0.2146(2) 0.4007(10) 0.2725(3)
C7 C -0.1429(3) 0.3285(11) 0.2992(3)
C8 C -0.1328(3) 0.1215(11) 0.3675(3)
C9 C -0.1911(3) 0.0052(10) 0.4080(3)
C10 C -0.2615(3) 0.0859(12) 0.3831(3)
C11 C -0.1796(3) -0.1852(13) 0.4726(3)
C12 C -0.1116(3) -0.2547(12) 0.4955(3)
H4 H -0.1039 -0.3819 0.5396
C13 C -0.0557(3) -0.1405(12) 0.4549(3)
C14 C -0.0659(2) 0.0483(12) 0.3904(3)
H5 H -0.0270 0.1259 0.3624
C15 C 0.0188(3) -0.2209(12) 0.4808(4)
H6 H 0.0200 -0.2432 0.5373
H7 H 0.0507 -0.0551 0.4651
H8 H 0.0333 -0.4155 0.4566
loop_
_geom_bond_atom_site_label_1
_geom_bond_atom_site_label_2
_geom_bond_site_symmetry_1
_geom_bond_site_symmetry_2
I1 C3 1_555 1_555
I2 C1 1_555 1_555
O1 H1 1_555 1_555
O2 H2 1_555 1_555
O3 C10 1_555 1_555
O4 C7 1_555 1_555
O5 H3 1_555 1_555
C1 C2 1_555 1_555
C2 O1 1_555 1_555
C3 C2 1_555 1_555
C4 O2 1_555 1_555
C5 C4 1_555 1_555
C6 C1 1_555 1_555
C7 C6 1_555 1_555
C8 C7 1_555 1_555
C9 C8 1_555 1_555
C10 C5 1_555 1_555
C11 O5 1_555 1_555
C12 C11 1_555 1_555
H4 C12 1_555 1_555
C13 C12 1_555 1_555
C14 C8 1_555 1_555
H5 C14 1_555 1_555
C15 C13 1_555 1_555
H6 C15 1_555 1_555
H7 C15 1_555 1_555
H8 C15 1_555 1_555
C3 C4 1_555 1_555
C5 C6 1_555 1_555
C9 C10 1_555 1_555
C9 C11 1_555 1_555
C13 C14 1_555 1_555

#END
