
#######################################################################
#
#                 Cambridge Crystallographic Data Centre
#                                CCDC 
#
#######################################################################
#
# If this CIF has been generated from an entry in the Cambridge 
# Structural Database, then it will include bibliographic, chemical, 
# crystal, experimental, refinement or atomic coordinate data resulting 
# from the CCDC's data processing and validation procedures.
#
#######################################################################

data_ROFLIJ
_chemical_formula_moiety         '2(C6 H14 N1 1+),C7 H2 N2 O7 2-'
_chemical_name_systematic        
'bis(icyclohexanaminium) 3,5-dinitro-2-oxidobenzoate'
_symmetry_cell_setting           monoclinic
_symmetry_space_group_name_H-M   'P 21/n'
_symmetry_Int_Tables_number      14
_space_group_name_Hall           '-P 2yn'
loop_
_symmetry_equiv_pos_site_id
_symmetry_equiv_pos_as_xyz
1 x,y,z
2 1/2-x,1/2+y,1/2-z
3 -x,-y,-z
4 1/2+x,1/2-y,1/2+z
_cell_length_a                   14.6439(11)
_cell_length_b                   6.9231(4)
_cell_length_c                   21.3012(18)
_cell_angle_alpha                90
_cell_angle_beta                 96.4800(10)
_cell_angle_gamma                90
_cell_volume                     2145.74
_exptl_crystal_colour            colorless
_exptl_crystal_description       BLOCK
_cell_formula_units_Z            4
loop_
_atom_site_label
_atom_site_type_symbol
_atom_site_fract_x
_atom_site_fract_y
_atom_site_fract_z
N1 N 0.90378(18) 1.1863(4) -0.02715(12)
N2 N 0.75501(18) 0.5659(4) -0.05164(11)
O1 O 0.86302(14) 0.6182(3) 0.18282(9)
O2 O 0.82117(15) 0.9169(3) 0.20026(8)
O3 O 0.89810(17) 1.1448(3) 0.10785(10)
O4 O 0.94252(19) 1.3160(4) 0.00397(11)
O5 O 0.8953(2) 1.1938(4) -0.08511(11)
O6 O 0.75129(18) 0.5863(4) -0.10914(10)
O7 O 0.72228(17) 0.4245(3) -0.02735(10)
C1 C 0.84283(19) 0.7874(4) 0.16429(12)
C2 C 0.84122(18) 0.8268(4) 0.09466(12)
C3 C 0.8718(2) 1.0099(4) 0.07132(13)
C4 C 0.86793(19) 1.0202(4) 0.00303(13)
C5 C 0.82968(19) 0.8780(4) -0.03647(13)
H1 H 0.8253 0.8940 -0.0801
C6 C 0.79801(19) 0.7128(4) -0.01120(12)
C7 C 0.80731(18) 0.6856(4) 0.05424(12)
H2 H 0.7899 0.5683 0.0705
N3 N 0.74931(16) 0.2863(3) 0.18930(10)
H3 H 0.7879 0.3836 0.1852
H4 H 0.7800 0.1752 0.1908
H5 H 0.7233 0.3013 0.2248
C8 C 0.6769(2) 0.2846(4) 0.13444(13)
H6 H 0.7071 0.2913 0.0957
C9 C 0.6155(2) 0.4585(5) 0.13637(14)
H7 H 0.6519 0.5753 0.1357
H8 H 0.5868 0.4575 0.1753
C10 C 0.5415(2) 0.4572(6) 0.08000(16)
H9 H 0.5006 0.5660 0.0831
H10 H 0.5702 0.4716 0.0414
C11 C 0.4870(2) 0.2731(6) 0.07706(17)
H11 H 0.4436 0.2727 0.0391
H12 H 0.4523 0.2661 0.1132
C12 C 0.5491(2) 0.0989(6) 0.07678(16)
H13 H 0.5784 0.0983 0.0381
H14 H 0.5126 -0.0178 0.0776
C13 C 0.6222(2) 0.0996(5) 0.13305(15)
H15 H 0.5935 0.0876 0.1717
H16 H 0.6630 -0.0099 0.1304
N4 N 0.01235(17) 0.4482(3) 0.13713(10)
H17 H -0.0101 0.3444 0.1161
H18 H 0.0423 0.5213 0.1118
H19 H -0.0336 0.5158 0.1502
C14 C 0.0771(2) 0.3862(5) 0.19310(13)
H20 H 0.1284 0.3179 0.1772
C15 C 0.0318(3) 0.2494(5) 0.23382(17)
H21 H 0.0112 0.1361 0.2094
H22 H -0.0215 0.3107 0.2483
C16 C 0.0987(3) 0.1887(6) 0.29064(17)
H23 H 0.0669 0.1069 0.3181
H24 H 0.1483 0.1140 0.2762
C17 C 0.1380(3) 0.3609(7) 0.32735(17)
H25 H 0.0895 0.4261 0.3465
H26 H 0.1837 0.3179 0.3609
C18 C 0.1810(3) 0.4985(7) 0.28580(18)
H27 H 0.2348 0.4385 0.2714
H28 H 0.2012 0.6123 0.3101
C19 C 0.1155(3) 0.5593(5) 0.22884(15)
H29 H 0.0658 0.6348 0.2427
H30 H 0.1479 0.6398 0.2013
loop_
_geom_bond_atom_site_label_1
_geom_bond_atom_site_label_2
_geom_bond_site_symmetry_1
_geom_bond_site_symmetry_2
N1 O4 1_555 1_555
N2 O6 1_555 1_555
O1 C1 1_555 1_555
O2 C1 1_555 1_555
O3 C3 1_555 1_555
O5 N1 1_555 1_555
O7 N2 1_555 1_555
C1 C2 1_555 1_555
C2 C3 1_555 1_555
C3 C4 1_555 1_555
C4 N1 1_555 1_555
C5 C4 1_555 1_555
H1 C5 1_555 1_555
C6 N2 1_555 1_555
C7 C2 1_555 1_555
H2 C7 1_555 1_555
N3 H3 1_555 1_555
H4 N3 1_555 1_555
H5 N3 1_555 1_555
C8 N3 1_555 1_555
H6 C8 1_555 1_555
C9 C8 1_555 1_555
H7 C9 1_555 1_555
H8 C9 1_555 1_555
C10 C9 1_555 1_555
H9 C10 1_555 1_555
H10 C10 1_555 1_555
C11 C10 1_555 1_555
H11 C11 1_555 1_555
H12 C11 1_555 1_555
C12 C11 1_555 1_555
H13 C12 1_555 1_555
H14 C12 1_555 1_555
C13 C8 1_555 1_555
H15 C13 1_555 1_555
H16 C13 1_555 1_555
N4 H17 1_555 1_555
H18 N4 1_555 1_555
H19 N4 1_555 1_555
C14 N4 1_555 1_555
H20 C14 1_555 1_555
C15 C14 1_555 1_555
H21 C15 1_555 1_555
H22 C15 1_555 1_555
C16 C15 1_555 1_555
H23 C16 1_555 1_555
H24 C16 1_555 1_555
C17 C16 1_555 1_555
H25 C17 1_555 1_555
H26 C17 1_555 1_555
C18 C17 1_555 1_555
H27 C18 1_555 1_555
H28 C18 1_555 1_555
C19 C14 1_555 1_555
H29 C19 1_555 1_555
H30 C19 1_555 1_555
C5 C6 1_555 1_555
C6 C7 1_555 1_555
C12 C13 1_555 1_555
C18 C19 1_555 1_555

#END
