
#######################################################################
#
#                 Cambridge Crystallographic Data Centre
#                                CCDC 
#
#######################################################################
#
# If this CIF has been generated from an entry in the Cambridge 
# Structural Database, then it will include bibliographic, chemical, 
# crystal, experimental, refinement or atomic coordinate data resulting 
# from the CCDC's data processing and validation procedures.
#
#######################################################################

data_ROFLOO01
_chemical_name_common            2,5-Dihexyloxy-1,4-dibromobenzene
_chemical_formula_moiety         'C18 H28 Br2 O2'
_chemical_name_systematic        1,4-Dibromo-2,5-bis(hexyloxy)benzene
_symmetry_cell_setting           triclinic
_symmetry_space_group_name_H-M   'P -1'
_symmetry_Int_Tables_number      2
_space_group_name_Hall           '-P 1'
loop_
_symmetry_equiv_pos_site_id
_symmetry_equiv_pos_as_xyz
1 x,y,z
2 -x,-y,-z
_cell_length_a                   6.8032(10)
_cell_length_b                   8.117(3)
_cell_length_c                   9.659(3)
_cell_angle_alpha                108.27(3)
_cell_angle_beta                 106.91(3)
_cell_angle_gamma                96.94(2)
_cell_volume                     471.218
_exptl_crystal_colour            colorless
_exptl_crystal_description       plate
_cell_formula_units_Z            1
loop_
_atom_site_label
_atom_site_type_symbol
_atom_site_fract_x
_atom_site_fract_y
_atom_site_fract_z
O1 O 0.12738(16) -0.18952(15) 0.99380(12)
Br1 Br 0.57107(2) 0.008756(19) 0.682833(15)
C1 C 0.5291(2) 0.00579(19) 0.86675(16)
C2 C 0.3384(2) -0.09089(19) 0.85650(17)
H1 H 0.2302 -0.1520 0.7579
C3 C 0.3065(2) -0.09791(19) 0.99041(17)
C4 C -0.0467(2) -0.2754(2) 0.84853(17)
H2 H -0.0033 -0.3627 0.7724
H3 H -0.0940 -0.1859 0.8048
C5 C -0.2242(2) -0.3696(2) 0.88215(18)
H4 H -0.2661 -0.2808 0.9582
H5 H -0.1733 -0.4558 0.9289
C6 C -0.4162(2) -0.4681(2) 0.73380(18)
H6 H -0.4631 -0.3823 0.6851
H7 H -0.3749 -0.5594 0.6593
C7 C -0.5999(2) -0.5584(2) 0.76539(18)
H8 H -0.5526 -0.6440 0.8142
H9 H -0.6407 -0.4669 0.8402
C8 C -0.7929(2) -0.6570(2) 0.61848(19)
H10 H -0.8494 -0.5696 0.5757
H11 H -0.7492 -0.7399 0.5395
C9 C -0.9673(3) -0.7625(2) 0.6482(2)
H12 H -0.9154 -0.8551 0.6835
H13 H -1.0899 -0.8183 0.5518
H14 H -1.0085 -0.6818 0.7284
O1A O 0.87262(16) 0.18952(15) 1.00620(12)
Br1A Br 0.42893(2) -0.008756(19) 1.317167(15)
C1A C 0.4709(2) -0.00579(19) 1.13325(16)
C2A C 0.6616(2) 0.09089(19) 1.14350(17)
H1A H 0.7698 0.1520 1.2421
C3A C 0.6935(2) 0.09791(19) 1.00959(17)
C4A C 1.0467(2) 0.2754(2) 1.15147(17)
H2A H 1.0033 0.3627 1.2276
H3A H 1.0940 0.1859 1.1952
C5A C 1.2242(2) 0.3696(2) 1.11785(18)
H4A H 1.2661 0.2808 1.0418
H5A H 1.1733 0.4558 1.0711
C6A C 1.4162(2) 0.4681(2) 1.26620(18)
H6A H 1.4631 0.3823 1.3149
H7A H 1.3749 0.5594 1.3407
C7A C 1.5999(2) 0.5584(2) 1.23461(18)
H8A H 1.5526 0.6440 1.1858
H9A H 1.6407 0.4669 1.1598
C8A C 1.7929(2) 0.6570(2) 1.38152(19)
H10A H 1.8494 0.5696 1.4243
H11A H 1.7492 0.7399 1.4605
C9A C 1.9673(3) 0.7625(2) 1.3518(2)
H12A H 1.9154 0.8551 1.3165
H13A H 2.0899 0.8183 1.4482
H14A H 2.0085 0.6818 1.2716
loop_
_geom_bond_atom_site_label_1
_geom_bond_atom_site_label_2
_geom_bond_site_symmetry_1
_geom_bond_site_symmetry_2
O1 C3 1_555 1_555
Br1 C1 1_555 1_555
C1 C2 1_555 1_555
C2 H1 1_555 1_555
C3 C2 1_555 1_555
C4 O1 1_555 1_555
H2 C4 1_555 1_555
H3 C4 1_555 1_555
C5 C4 1_555 1_555
H4 C5 1_555 1_555
H5 C5 1_555 1_555
C6 C5 1_555 1_555
H6 C6 1_555 1_555
H7 C6 1_555 1_555
C7 C6 1_555 1_555
H8 C7 1_555 1_555
H9 C7 1_555 1_555
C8 C7 1_555 1_555
H10 C8 1_555 1_555
H11 C8 1_555 1_555
C9 C8 1_555 1_555
H12 C9 1_555 1_555
H13 C9 1_555 1_555
H14 C9 1_555 1_555
O1A C3A 1_555 1_555
Br1A C1A 1_555 1_555
C1A C3 1_555 1_555
C2A C1A 1_555 1_555
H1A C2A 1_555 1_555
C3A C1 1_555 1_555
C4A O1A 1_555 1_555
H2A C4A 1_555 1_555
H3A C4A 1_555 1_555
C5A C4A 1_555 1_555
H4A C5A 1_555 1_555
H5A C5A 1_555 1_555
C6A C5A 1_555 1_555
H6A C6A 1_555 1_555
H7A C6A 1_555 1_555
C7A C6A 1_555 1_555
H8A C7A 1_555 1_555
H9A C7A 1_555 1_555
C8A C7A 1_555 1_555
H10A C8A 1_555 1_555
H11A C8A 1_555 1_555
C9A C8A 1_555 1_555
H12A C9A 1_555 1_555
H13A C9A 1_555 1_555
H14A C9A 1_555 1_555
C2A C3A 1_555 1_555

#END
