
#######################################################################
#
#                 Cambridge Crystallographic Data Centre
#                                CCDC 
#
#######################################################################
#
# If this CIF has been generated from an entry in the Cambridge 
# Structural Database, then it will include bibliographic, chemical, 
# crystal, experimental, refinement or atomic coordinate data resulting 
# from the CCDC's data processing and validation procedures.
#
#######################################################################

data_ROFMIJ
_chemical_formula_moiety         'C13 H19 N1 O2'
_chemical_name_systematic        1-Methyl-3-(3-oxocyclohex-1-enyl)azepan-2-one
_symmetry_cell_setting           monoclinic
_symmetry_space_group_name_H-M   'P 21/c'
_symmetry_Int_Tables_number      14
_space_group_name_Hall           '-P 2ybc'
loop_
_symmetry_equiv_pos_site_id
_symmetry_equiv_pos_as_xyz
1 x,y,z
2 -x,1/2+y,1/2-z
3 -x,-y,-z
4 x,1/2-y,1/2+z
_cell_length_a                   9.450(4)
_cell_length_b                   10.665(3)
_cell_length_c                   11.963(4)
_cell_angle_alpha                90
_cell_angle_beta                 95.33(3)
_cell_angle_gamma                90
_cell_volume                     1200.47
_exptl_crystal_colour            colorless
_exptl_crystal_description       block
_cell_formula_units_Z            4
_exptl_crystal_recrystallization_method 'ethyl acetate/hexane'
loop_
_atom_site_label
_atom_site_type_symbol
_atom_site_fract_x
_atom_site_fract_y
_atom_site_fract_z
O1 O 0.95711(19) 0.09365(17) 0.84861(15)
O2 O 0.5608(2) 0.4437(2) 0.8362(2)
N1 N 0.8874(2) -0.0883(2) 0.76476(17)
C1 C 0.8668(3) 0.0106(2) 0.83106(19)
C2 C 0.7256(2) 0.0187(2) 0.88309(18)
H1 H 0.6495 0.0047 0.8230
C3 C 0.7118(3) -0.0828(2) 0.9732(2)
H2 H 0.8030 -0.0930 1.0165
H3 H 0.6442 -0.0546 1.0240
C4 C 0.6637(3) -0.2092(3) 0.9246(2)
H4 H 0.6529 -0.2664 0.9862
H5 H 0.5709 -0.1989 0.8837
C5 C 0.7628(3) -0.2687(3) 0.8468(2)
H6 H 0.8541 -0.2834 0.8887
H7 H 0.7243 -0.3495 0.8224
C6 C 0.7860(3) -0.1915(3) 0.7444(2)
H8 H 0.8194 -0.2463 0.6877
H9 H 0.6954 -0.1571 0.7142
C7 C 1.0154(3) -0.0913(3) 0.7053(2)
H10 H 0.9931 -0.0626 0.6297
H11 H 1.0509 -0.1756 0.7043
H12 H 1.0863 -0.0377 0.7428
C8 C 0.7091(2) 0.1503(2) 0.9263(2)
C9 C 0.6343(3) 0.2358(2) 0.8651(2)
H13 H 0.5871 0.2107 0.7971
C10 C 0.6223(3) 0.3659(3) 0.8985(2)
C11 C 0.6880(3) 0.4006(3) 1.0140(3)
H14 H 0.7247 0.4854 1.0115
H15 H 0.6142 0.4004 1.0652
C12 C 0.8034(4) 0.3173(3) 1.0592(3)
H16 H 0.8193 0.3316 1.1395
H17 H 0.8895 0.3418 1.0266
C13 C 0.7821(3) 0.1819(3) 1.0404(2)
H18 H 0.7258 0.1490 1.0975
H19 H 0.8738 0.1404 1.0490
loop_
_geom_bond_atom_site_label_1
_geom_bond_atom_site_label_2
_geom_bond_site_symmetry_1
_geom_bond_site_symmetry_2
O1 C1 1_555 1_555
O2 C10 1_555 1_555
N1 C1 1_555 1_555
C1 C2 1_555 1_555
C2 H1 1_555 1_555
C3 C2 1_555 1_555
H2 C3 1_555 1_555
H3 C3 1_555 1_555
C4 C3 1_555 1_555
H4 C4 1_555 1_555
H5 C4 1_555 1_555
C5 C4 1_555 1_555
H6 C5 1_555 1_555
H7 C5 1_555 1_555
C6 N1 1_555 1_555
H8 C6 1_555 1_555
H9 C6 1_555 1_555
C7 N1 1_555 1_555
H10 C7 1_555 1_555
H11 C7 1_555 1_555
H12 C7 1_555 1_555
C8 C2 1_555 1_555
C9 C8 1_555 1_555
H13 C9 1_555 1_555
C10 C9 1_555 1_555
C11 C10 1_555 1_555
H14 C11 1_555 1_555
H15 C11 1_555 1_555
C12 C11 1_555 1_555
H16 C12 1_555 1_555
H17 C12 1_555 1_555
C13 C8 1_555 1_555
H18 C13 1_555 1_555
H19 C13 1_555 1_555
C5 C6 1_555 1_555
C12 C13 1_555 1_555

#END
