
#######################################################################
#
#                 Cambridge Crystallographic Data Centre
#                                CCDC 
#
#######################################################################
#
# If this CIF has been generated from an entry in the Cambridge 
# Structural Database, then it will include bibliographic, chemical, 
# crystal, experimental, refinement or atomic coordinate data resulting 
# from the CCDC's data processing and validation procedures.
#
#######################################################################

data_ROFNUW
_chemical_name_common            
"4,4'-Methylenedi(phenylammonium) bis(5-sulfonatosalicylate) monohydrate"
_chemical_formula_moiety         'C13 H16 N2 2+,2(C7 H5 O6 S1 1-),H2 O1'
_chemical_name_systematic        
"4,4'-Methylenedianilinium bis(3-carboxy-4-hydroxybenzenesulfonate) monohydrate"
_symmetry_cell_setting           monoclinic
_symmetry_space_group_name_H-M   'P 21'
_symmetry_Int_Tables_number      4
_space_group_name_Hall           'P 2yb'
loop_
_symmetry_equiv_pos_site_id
_symmetry_equiv_pos_as_xyz
1 x,y,z
2 -x,1/2+y,-z
_cell_length_a                   5.87690(10)
_cell_length_b                   18.8659(3)
_cell_length_c                   12.9864(2)
_cell_angle_alpha                90
_cell_angle_beta                 94.6680(10)
_cell_angle_gamma                90
_cell_volume                     1435.07
_exptl_crystal_colour            colorless
_exptl_crystal_description       plate
_cell_formula_units_Z            2
loop_
_atom_site_label
_atom_site_type_symbol
_atom_site_fract_x
_atom_site_fract_y
_atom_site_fract_z
C1 C 0.9685(4) 0.25024(11) 0.7833(2)
C2 C 1.1742(5) 0.28453(14) 0.8000(2)
H1 H 1.2839 0.2684 0.8502
C3 C 1.2157(5) 0.34335(14) 0.7412(3)
H2 H 1.3549 0.3667 0.7521
C4 C 1.0543(5) 0.36826(13) 0.6662(2)
C5 C 0.8515(5) 0.33235(15) 0.6504(2)
H3 H 0.7427 0.3477 0.5993
C6 C 0.8060(5) 0.27345(14) 0.7097(2)
H4 H 0.6667 0.2501 0.6993
C7 C 1.0939(6) 0.43468(15) 0.6053(2)
H5 H 1.0142 0.4309 0.5371
H6 H 1.2556 0.4397 0.5969
C8 C 1.0094(5) 0.49994(13) 0.6599(2)
C9 C 1.1433(5) 0.53092(14) 0.7404(2)
H7 H 1.2875 0.5125 0.7594
C10 C 1.0668(5) 0.58854(14) 0.7929(2)
H8 H 1.1597 0.6096 0.8456
C11 C 0.8526(4) 0.61432(12) 0.7664(2)
C12 C 0.7149(4) 0.58484(15) 0.6869(2)
H9 H 0.5702 0.6031 0.6689
C13 C 0.7954(5) 0.52752(15) 0.6342(2)
H10 H 0.7032 0.5073 0.5805
N1 N 0.9214(5) 0.18836(12) 0.8458(2)
H11 H 0.804(6) 0.1679(19) 0.824(3)
H12 H 0.928(5) 0.1973(18) 0.914(3)
H13 H 1.040(6) 0.1513(18) 0.845(3)
N2 N 0.7665(5) 0.67217(14) 0.8262(2)
H14 H 0.861(6) 0.703(2) 0.841(3)
H15 H 0.665(6) 0.696(2) 0.793(3)
H16 H 0.692(6) 0.6611(19) 0.888(3)
C14 C 0.5812(4) 0.96279(12) 0.95964(18)
C15 C 0.4353(4) 0.99410(13) 1.02603(19)
C16 C 0.2674(5) 0.95376(14) 1.0667(2)
H17 H 0.1755 0.9739 1.1138
C17 C 0.2356(5) 0.88431(13) 1.0379(2)
H18 H 0.1199 0.8579 1.0643
C18 C 0.3759(4) 0.85330(11) 0.96958(19)
C19 C 0.5485(4) 0.89143(12) 0.93132(19)
H19 H 0.6439 0.8701 0.8867
C20 C 0.7674(4) 1.00540(13) 0.91927(19)
O1 O 0.7991(3) 1.06703(9) 0.94503(16)
O2 O 0.8919(4) 0.97200(11) 0.85615(17)
H20 H 0.967(7) 1.001(2) 0.831(3)
O3 O 0.4490(4) 1.06391(9) 1.05113(16)
H21 H 0.565(7) 1.079(2) 1.021(3)
O4 O 0.0960(4) 0.74792(10) 0.94941(17)
O5 O 0.4898(4) 0.72016(10) 0.99028(16)
O6 O 0.3678(3) 0.76210(11) 0.82021(14)
S1 S 0.32980(11) 0.76440(3) 0.92902(5)
C21 C 0.0913(5) 0.20452(12) 0.48434(19)
C22 C -0.1231(5) 0.17470(14) 0.4583(2)
C23 C -0.1983(4) 0.11873(15) 0.5176(2)
H22 H -0.3442 0.1004 0.5028
C24 C -0.0591(4) 0.09056(13) 0.5976(2)
H23 H -0.1094 0.0527 0.6355
C25 C 0.1583(4) 0.11918(13) 0.62162(18)
C26 C 0.2297(4) 0.17632(13) 0.56590(19)
H24 H 0.3726 0.1962 0.5833
C27 C 0.1761(5) 0.26283(15) 0.4210(2)
O7 O 0.0906(5) 0.27667(13) 0.33542(18)
O8 O 0.3540(4) 0.29627(12) 0.46501(18)
H25 H 0.407(7) 0.328(3) 0.424(3)
O9 O -0.2667(4) 0.19688(13) 0.37804(16)
H26 H -0.206(7) 0.231(2) 0.348(3)
O10 O 0.4348(4) 0.01754(12) 0.6798(2)
O11 O 0.2003(3) 0.06836(11) 0.80492(16)
O12 O 0.5149(4) 0.13324(13) 0.74758(17)
S2 S 0.34239(10) 0.08090(3) 0.72033(5)
O13 O 0.4004(7) 0.87302(16) 0.6497(3)
H27 H 0.404(11) 0.917(4) 0.657(5)
H28 H 0.314(12) 0.857(4) 0.698(5)
loop_
_geom_bond_atom_site_label_1
_geom_bond_atom_site_label_2
_geom_bond_site_symmetry_1
_geom_bond_site_symmetry_2
C1 C2 1_555 1_555
C2 H1 1_555 1_555
C3 C2 1_555 1_555
H2 C3 1_555 1_555
C4 C3 1_555 1_555
C5 C4 1_555 1_555
H3 C5 1_555 1_555
C6 C1 1_555 1_555
H4 C6 1_555 1_555
C7 C4 1_555 1_555
H5 C7 1_555 1_555
H6 C7 1_555 1_555
C8 C7 1_555 1_555
C9 C8 1_555 1_555
H7 C9 1_555 1_555
C10 C9 1_555 1_555
H8 C10 1_555 1_555
C11 C10 1_555 1_555
C12 C11 1_555 1_555
H9 C12 1_555 1_555
C13 C8 1_555 1_555
H10 C13 1_555 1_555
N1 C1 1_555 1_555
H11 N1 1_555 1_555
H12 N1 1_555 1_555
H13 N1 1_555 1_555
N2 C11 1_555 1_555
H14 N2 1_555 1_555
H15 N2 1_555 1_555
H16 N2 1_555 1_555
C14 C15 1_555 1_555
C15 C16 1_555 1_555
C16 H17 1_555 1_555
C17 C16 1_555 1_555
H18 C17 1_555 1_555
C18 C17 1_555 1_555
C19 C14 1_555 1_555
H19 C19 1_555 1_555
C20 C14 1_555 1_555
O1 C20 1_555 1_555
O2 C20 1_555 1_555
H20 O2 1_555 1_555
O3 C15 1_555 1_555
H21 O3 1_555 1_555
O4 S1 1_555 1_555
O5 S1 1_555 1_555
O6 S1 1_555 1_555
S1 C18 1_555 1_555
C21 C22 1_555 1_555
C22 C23 1_555 1_555
C23 H22 1_555 1_555
C24 C23 1_555 1_555
H23 C24 1_555 1_555
C25 C24 1_555 1_555
C26 C21 1_555 1_555
H24 C26 1_555 1_555
C27 C21 1_555 1_555
O7 C27 1_555 1_555
O8 C27 1_555 1_555
H25 O8 1_555 1_555
O9 C22 1_555 1_555
H26 O9 1_555 1_555
O10 S2 1_555 1_555
O11 S2 1_555 1_555
O12 S2 1_555 1_555
S2 C25 1_555 1_555
O13 H27 1_555 1_555
H28 O13 1_555 1_555
C5 C6 1_555 1_555
C12 C13 1_555 1_555
C18 C19 1_555 1_555
C25 C26 1_555 1_555

#END
