
#######################################################################
#
#                 Cambridge Crystallographic Data Centre
#                                CCDC 
#
#######################################################################
#
# If this CIF has been generated from an entry in the Cambridge 
# Structural Database, then it will include bibliographic, chemical, 
# crystal, experimental, refinement or atomic coordinate data resulting 
# from the CCDC's data processing and validation procedures.
#
#######################################################################

data_ROFPIM
_chemical_name_common            
1-(p-Tolyl)-3-(5-methylfurfuryl)-2-propenyl-1-ketone
_chemical_formula_moiety         'C15 H14 O2'
_chemical_name_systematic        
3-(5-Methyl-2-furyl)-1-(p-tolyl)-2-propen-1-one
_symmetry_cell_setting           monoclinic
_symmetry_space_group_name_H-M   'P 21/c'
_symmetry_Int_Tables_number      14
_space_group_name_Hall           '-P 2ybc'
loop_
_symmetry_equiv_pos_site_id
_symmetry_equiv_pos_as_xyz
1 x,y,z
2 -x,1/2+y,1/2-z
3 -x,-y,-z
4 x,1/2-y,1/2+z
_cell_length_a                   8.0394(8)
_cell_length_b                   17.0278(17)
_cell_length_c                   10.6550(8)
_cell_angle_alpha                90
_cell_angle_beta                 121.347(6)
_cell_angle_gamma                90
_cell_volume                     1245.69
_exptl_crystal_colour            colorless
_exptl_crystal_description       bar
_cell_formula_units_Z            4
_exptl_crystal_recrystallization_method ethanol
loop_
_atom_site_label
_atom_site_type_symbol
_atom_site_fract_x
_atom_site_fract_y
_atom_site_fract_z
O1 O -0.32694(14) -0.22464(6) -0.56944(10)
O2 O 0.14482(19) -0.01503(7) -0.24561(13)
C1 C -0.5507(3) -0.33021(11) -0.7020(2)
H1 H -0.6226 -0.3521 -0.7991
H2 H -0.6395 -0.3140 -0.6722
H3 H -0.4632 -0.3691 -0.6347
C2 C -0.4379(2) -0.26168(9) -0.70182(17)
C3 C -0.4181(2) -0.22529(10) -0.80412(18)
H4 H -0.4779 -0.2393 -0.9026
C4 C -0.2899(3) -0.16169(10) -0.73553(18)
H5 H -0.2497 -0.1259 -0.7804
C5 C -0.2364(2) -0.16241(8) -0.59293(16)
C6 C -0.1121(2) -0.11417(9) -0.47132(18)
H6 H -0.0541 -0.0723 -0.4903
C7 C -0.0686(2) -0.12165(9) -0.33318(17)
H7 H -0.1275 -0.1613 -0.3099
C8 C 0.0699(2) -0.06898(9) -0.21687(17)
C9 C 0.1224(2) -0.08231(9) -0.06208(16)
C10 C 0.0379(2) -0.13889(10) -0.02027(18)
H8 H -0.0550 -0.1724 -0.0908
C11 C 0.0888(3) -0.14648(11) 0.1236(2)
H9 H 0.0287 -0.1850 0.1483
C12 C 0.2260(3) -0.09881(10) 0.23223(19)
C13 C 0.3126(3) -0.04334(11) 0.1911(2)
H10 H 0.4077 -0.0108 0.2624
C14 C 0.2624(3) -0.03474(10) 0.04727(19)
H11 H 0.3235 0.0036 0.0231
C15 C 0.2803(3) -0.10657(13) 0.3896(2)
H12 H 0.2064 -0.1483 0.3979
H13 H 0.2525 -0.0582 0.4215
H14 H 0.4168 -0.1181 0.4500
loop_
_geom_bond_atom_site_label_1
_geom_bond_atom_site_label_2
_geom_bond_site_symmetry_1
_geom_bond_site_symmetry_2
O1 C2 1_555 1_555
O2 C8 1_555 1_555
C1 H1 1_555 1_555
H2 C1 1_555 1_555
H3 C1 1_555 1_555
C2 C1 1_555 1_555
C3 C2 1_555 1_555
H4 C3 1_555 1_555
C4 C3 1_555 1_555
H5 C4 1_555 1_555
C5 O1 1_555 1_555
C6 C5 1_555 1_555
H6 C6 1_555 1_555
C7 C6 1_555 1_555
H7 C7 1_555 1_555
C8 C7 1_555 1_555
C9 C8 1_555 1_555
C10 C9 1_555 1_555
H8 C10 1_555 1_555
C11 C10 1_555 1_555
H9 C11 1_555 1_555
C12 C11 1_555 1_555
C13 C12 1_555 1_555
H10 C13 1_555 1_555
C14 C9 1_555 1_555
H11 C14 1_555 1_555
C15 C12 1_555 1_555
H12 C15 1_555 1_555
H13 C15 1_555 1_555
H14 C15 1_555 1_555
C4 C5 1_555 1_555
C13 C14 1_555 1_555

#END
