
#######################################################################
#
#                 Cambridge Crystallographic Data Centre
#                                CCDC 
#
#######################################################################
#
# If this CIF has been generated from an entry in the Cambridge 
# Structural Database, then it will include bibliographic, chemical, 
# crystal, experimental, refinement or atomic coordinate data resulting 
# from the CCDC's data processing and validation procedures.
#
#######################################################################

data_ROFREK
_chemical_formula_moiety         'C25 H28 O7'
_chemical_name_systematic        
(2E,5E)-2,5-bis(3,4,5-Trimethoxybenzylidene)cyclopentanone
_symmetry_cell_setting           monoclinic
_symmetry_space_group_name_H-M   'C 2/c'
_symmetry_Int_Tables_number      15
_space_group_name_Hall           '-C 2yn'
loop_
_symmetry_equiv_pos_site_id
_symmetry_equiv_pos_as_xyz
1 x,y,z
2 1/2+x,1/2+y,z
3 -x,y,1/2-z
4 1/2-x,1/2+y,1/2-z
5 -x,-y,-z
6 1/2-x,1/2-y,-z
7 x,-y,1/2+z
8 1/2+x,1/2-y,1/2+z
_cell_length_a                   18.573(4)
_cell_length_b                   15.231(3)
_cell_length_c                   8.8460(18)
_cell_angle_alpha                90
_cell_angle_beta                 113.99(3)
_cell_angle_gamma                90
_cell_volume                     2286.24
_exptl_crystal_colour            yellow
_exptl_crystal_description       block
_cell_formula_units_Z            4
_exptl_crystal_recrystallization_method ethanol
loop_
_atom_site_label
_atom_site_type_symbol
_atom_site_fract_x
_atom_site_fract_y
_atom_site_fract_z
O1 O 0.5000 0.43398(16) 0.2500
C1 C 0.5000 0.3537(2) 0.2500
C2 C 0.47174(14) 0.29645(15) 0.3510(3)
O2 O 0.36310(14) 0.07554(11) 0.6941(3)
O3 O 0.32676(10) 0.18198(11) 0.89316(19)
C3 C 0.47864(15) 0.20225(14) 0.3086(3)
H1 H 0.4268 0.1760 0.2546
H2 H 0.5085 0.1690 0.4080
O4 O 0.33734(12) 0.35568(11) 0.8758(2)
C4 C 0.44589(14) 0.33133(16) 0.4587(3)
H3 H 0.4489 0.3922 0.4665
C5 C 0.41371(14) 0.28904(15) 0.5662(3)
C6 C 0.39179(15) 0.34335(15) 0.6677(3)
H4 H 0.3979 0.4038 0.6648
C7 C 0.36086(14) 0.30734(16) 0.7728(3)
C8 C 0.35313(13) 0.21799(15) 0.7816(3)
C9 C 0.37410(15) 0.16327(15) 0.6797(3)
C10 C 0.40400(15) 0.19887(16) 0.5729(3)
H5 H 0.4177 0.1620 0.5050
C11 C 0.3772(3) 0.01797(19) 0.5835(5)
H6 H 0.3679 -0.0414 0.6071
H7 H 0.4309 0.0240 0.5965
H8 H 0.3425 0.0323 0.4718
C12 C 0.24333(17) 0.1766(2) 0.8306(4)
H9 H 0.2284 0.1507 0.9126
H10 H 0.2239 0.1410 0.7326
H11 H 0.2212 0.2345 0.8044
C13 C 0.3430(2) 0.44758(18) 0.8706(4)
H12 H 0.3249 0.4735 0.9478
H13 H 0.3111 0.4681 0.7611
H14 H 0.3969 0.4639 0.8995
C2B C 0.52826(14) 0.29645(15) 0.1490(3)
O2B O 0.63690(14) 0.07554(11) -0.1941(3)
O3B O 0.67324(10) 0.18198(11) -0.39316(19)
C3B C 0.52136(15) 0.20225(14) 0.1914(3)
H1B H 0.5732 0.1760 0.2454
H2B H 0.4915 0.1690 0.0920
O4B O 0.66266(12) 0.35568(11) -0.3758(2)
C4B C 0.55411(14) 0.33133(16) 0.0413(3)
H3B H 0.5511 0.3922 0.0335
C5B C 0.58629(14) 0.28904(15) -0.0662(3)
C6B C 0.60821(15) 0.34335(15) -0.1677(3)
H4B H 0.6021 0.4038 -0.1648
C7B C 0.63914(14) 0.30734(16) -0.2728(3)
C8B C 0.64687(13) 0.21799(15) -0.2816(3)
C9B C 0.62590(15) 0.16327(15) -0.1797(3)
C10B C 0.59600(15) 0.19887(16) -0.0729(3)
H5B H 0.5823 0.1620 -0.0050
C11B C 0.6228(3) 0.01797(19) -0.0835(5)
H6B H 0.6321 -0.0414 -0.1071
H7B H 0.5691 0.0240 -0.0965
H8B H 0.6575 0.0323 0.0282
C12B C 0.75667(17) 0.1766(2) -0.3306(4)
H9B H 0.7716 0.1507 -0.4126
H10B H 0.7761 0.1410 -0.2326
H11B H 0.7788 0.2345 -0.3044
C13B C 0.6570(2) 0.44758(18) -0.3706(4)
H12B H 0.6751 0.4735 -0.4478
H13B H 0.6889 0.4681 -0.2611
H14B H 0.6031 0.4639 -0.3995
loop_
_geom_bond_atom_site_label_1
_geom_bond_atom_site_label_2
_geom_bond_site_symmetry_1
_geom_bond_site_symmetry_2
O1 C1 1_555 1_555
C1 C2 1_555 1_555
C2 C3 1_555 1_555
O2 C9 1_555 1_555
O3 C8 1_555 1_555
C3 H1 1_555 1_555
H2 C3 1_555 1_555
O4 C7 1_555 1_555
C4 C2 1_555 1_555
H3 C4 1_555 1_555
C5 C4 1_555 1_555
C6 C5 1_555 1_555
H4 C6 1_555 1_555
C7 C6 1_555 1_555
C8 C7 1_555 1_555
C9 C8 1_555 1_555
C10 C5 1_555 1_555
H5 C10 1_555 1_555
C11 O2 1_555 1_555
H6 C11 1_555 1_555
H7 C11 1_555 1_555
H8 C11 1_555 1_555
C12 O3 1_555 1_555
H9 C12 1_555 1_555
H10 C12 1_555 1_555
H11 C12 1_555 1_555
C13 O4 1_555 1_555
H12 C13 1_555 1_555
H13 C13 1_555 1_555
H14 C13 1_555 1_555
C2B C1 1_555 1_555
O2B C9B 1_555 1_555
O3B C8B 1_555 1_555
C3B C3 1_555 1_555
H1B C3B 1_555 1_555
H2B C3B 1_555 1_555
O4B C7B 1_555 1_555
C4B C2B 1_555 1_555
H3B C4B 1_555 1_555
C5B C4B 1_555 1_555
C6B C5B 1_555 1_555
H4B C6B 1_555 1_555
C7B C6B 1_555 1_555
C8B C7B 1_555 1_555
C9B C8B 1_555 1_555
C10B C5B 1_555 1_555
H5B C10B 1_555 1_555
C11B O2B 1_555 1_555
H6B C11B 1_555 1_555
H7B C11B 1_555 1_555
H8B C11B 1_555 1_555
C12B O3B 1_555 1_555
H9B C12B 1_555 1_555
H10B C12B 1_555 1_555
H11B C12B 1_555 1_555
C13B O4B 1_555 1_555
H12B C13B 1_555 1_555
H13B C13B 1_555 1_555
H14B C13B 1_555 1_555
C9 C10 1_555 1_555
C2B C3B 1_555 1_555
C9B C10B 1_555 1_555

#END
