
#######################################################################
#
#                 Cambridge Crystallographic Data Centre
#                                CCDC 
#
#######################################################################
#
# If this CIF has been generated from an entry in the Cambridge 
# Structural Database, then it will include bibliographic, chemical, 
# crystal, experimental, refinement or atomic coordinate data resulting 
# from the CCDC's data processing and validation procedures.
#
#######################################################################

data_ROFRIP
_chemical_formula_moiety         'C20 H26 N2 O2 S1'
_chemical_name_systematic        
N-(2-butyl-1,2,3,4-tetrahydroquinolin-3-yl)-4-methylbenzenesulfonamide
_symmetry_cell_setting           orthorhombic
_symmetry_space_group_name_H-M   'P 21 21 21'
_symmetry_Int_Tables_number      19
_space_group_name_Hall           'P 2ac 2ab'
loop_
_symmetry_equiv_pos_site_id
_symmetry_equiv_pos_as_xyz
1 x,y,z
2 1/2-x,-y,1/2+z
3 -x,1/2+y,1/2-z
4 1/2+x,1/2-y,-z
_cell_length_a                   7.8525(7)
_cell_length_b                   10.9646(9)
_cell_length_c                   22.883(2)
_cell_angle_alpha                90
_cell_angle_beta                 90
_cell_angle_gamma                90
_cell_volume                     1970.22
_exptl_crystal_colour            colorless
_exptl_crystal_description       prismatic
_cell_formula_units_Z            4
loop_
_atom_site_label
_atom_site_type_symbol
_atom_site_fract_x
_atom_site_fract_y
_atom_site_fract_z
H1 H 0.215(4) 0.264(3) 0.1721(15)
S1 S 0.46721(10) 0.27304(8) 0.20447(4)
N1 N -0.0290(4) 0.1501(3) 0.15559(14)
N2 N 0.2974(4) 0.2164(3) 0.17602(12)
O1 O 0.6012(3) 0.1883(2) 0.19430(11)
O2 O 0.4794(3) 0.3948(2) 0.18331(11)
C1 C 0.0664(4) 0.0750(3) 0.19542(14)
H2 H 0.0317 -0.0100 0.1897
C2 C 0.2525(4) 0.0876(3) 0.17698(14)
H3 H 0.3255 0.0444 0.2048
C3 C 0.2724(5) 0.0324(3) 0.11707(14)
H4 H 0.3826 0.0550 0.1014
H5 H 0.2694 -0.0558 0.1204
C4 C 0.1355(5) 0.0729(3) 0.07534(15)
C5 C -0.0116(4) 0.1291(3) 0.09650(16)
C6 C -0.1340(6) 0.1685(4) 0.0569(2)
H6 H -0.2319 0.2067 0.0706
C7 C -0.1127(9) 0.1521(5) -0.0013(3)
H7 H -0.1956 0.1799 -0.0271
C8 C 0.0291(10) 0.0951(5) -0.0227(2)
H8 H 0.0419 0.0826 -0.0627
C9 C 0.1526(7) 0.0564(4) 0.01574(18)
H9 H 0.2497 0.0184 0.0013
C10 C 0.0246(6) 0.1112(4) 0.25773(17)
H10 H 0.0962 0.1800 0.2680
H11 H -0.0924 0.1396 0.2585
C11 C 0.043(2) 0.0203(16) 0.3028(5)
H12 H 0.1622 -0.0017 0.3071
H13 H -0.0202 -0.0525 0.2925
C12 C -0.0274(17) 0.0755(10) 0.3626(4)
H14 H 0.0330 0.1494 0.3732
H15 H -0.1482 0.0932 0.3599
C13 C 0.0052(16) -0.0213(10) 0.4041(4)
H16 H -0.0298 -0.0978 0.3877
H17 H -0.0576 -0.0061 0.4393
H18 H 0.1247 -0.0241 0.4128
C14 C 0.4367(4) 0.2817(3) 0.27986(15)
C15 C 0.3479(4) 0.3771(3) 0.30335(17)
H19 H 0.3073 0.4389 0.2793
C16 C 0.3191(5) 0.3817(3) 0.3618(2)
H20 H 0.2580 0.4471 0.3770
C17 C 0.3770(5) 0.2930(4) 0.39945(17)
C18 C 0.4700(6) 0.1978(3) 0.37541(19)
H21 H 0.5138 0.1373 0.3996
C19 C 0.4980(5) 0.1918(3) 0.31655(18)
H22 H 0.5588 0.1267 0.3010
C20 C 0.3451(8) 0.2986(5) 0.46457(19)
H23 H 0.2770 0.2300 0.4762
H24 H 0.2862 0.3728 0.4739
H25 H 0.4520 0.2964 0.4850
H26 H -0.128(3) 0.164(4) 0.1659(16)
H27? H -0.0960 0.1215 0.2622
H28? H 0.0834 0.1850 0.2676
C21? C 0.093(4) 0.012(2) 0.2969(8)
H29? H 0.2144 0.0054 0.2895
H30? H 0.0419 -0.0643 0.2845
C22? C 0.069(2) 0.0220(18) 0.3632(6)
H31? H 0.1276 -0.0454 0.3818
H32? H 0.1217 0.0968 0.3766
C23? C -0.105(2) 0.0213(18) 0.3821(7)
H33? H -0.1313 0.0973 0.4009
H34? H -0.1227 -0.0446 0.4091
H35? H -0.1785 0.0107 0.3488
loop_
_geom_bond_atom_site_label_1
_geom_bond_atom_site_label_2
_geom_bond_site_symmetry_1
_geom_bond_site_symmetry_2
H1 N2 1_555 1_555
S1 N2 1_555 1_555
N1 C1 1_555 1_555
N2 C2 1_555 1_555
O1 S1 1_555 1_555
O2 S1 1_555 1_555
C1 H2 1_555 1_555
C2 C1 1_555 1_555
H3 C2 1_555 1_555
C3 C2 1_555 1_555
H4 C3 1_555 1_555
H5 C3 1_555 1_555
C4 C3 1_555 1_555
C5 N1 1_555 1_555
C6 C5 1_555 1_555
H6 C6 1_555 1_555
C7 C6 1_555 1_555
H7 C7 1_555 1_555
C8 C7 1_555 1_555
H8 C8 1_555 1_555
C9 C4 1_555 1_555
H9 C9 1_555 1_555
C10 C1 1_555 1_555
H10 C10 1_555 1_555
H11 C10 1_555 1_555
C11 C10 1_555 1_555
H12 C11 1_555 1_555
H13 C11 1_555 1_555
C12 C11 1_555 1_555
H14 C12 1_555 1_555
H15 C12 1_555 1_555
C13 C12 1_555 1_555
H16 C13 1_555 1_555
H17 C13 1_555 1_555
H18 C13 1_555 1_555
C14 S1 1_555 1_555
C15 C14 1_555 1_555
H19 C15 1_555 1_555
C16 C15 1_555 1_555
H20 C16 1_555 1_555
C17 C16 1_555 1_555
C18 C17 1_555 1_555
H21 C18 1_555 1_555
C19 C14 1_555 1_555
H22 C19 1_555 1_555
C20 C17 1_555 1_555
H23 C20 1_555 1_555
H24 C20 1_555 1_555
H25 C20 1_555 1_555
H26 N1 1_555 1_555
C4 C5 1_555 1_555
C8 C9 1_555 1_555
C18 C19 1_555 1_555

#END
