
#######################################################################
#
#                 Cambridge Crystallographic Data Centre
#                                CCDC 
#
#######################################################################
#
# If this CIF has been generated from an entry in the Cambridge 
# Structural Database, then it will include bibliographic, chemical, 
# crystal, experimental, refinement or atomic coordinate data resulting 
# from the CCDC's data processing and validation procedures.
#
#######################################################################

data_ROFSIP
_chemical_formula_moiety         'C28 H27 N1 O1'
_chemical_name_systematic        
2-Butyl-1,3-diphenyl-2,3-dihydro-1H-naphtho(1,2-e)(1,3)oxazine
_symmetry_cell_setting           triclinic
_symmetry_space_group_name_H-M   'P -1'
_symmetry_Int_Tables_number      2
_space_group_name_Hall           '-P 1'
loop_
_symmetry_equiv_pos_site_id
_symmetry_equiv_pos_as_xyz
1 x,y,z
2 -x,-y,-z
_cell_length_a                   8.8959(15)
_cell_length_b                   10.7589(16)
_cell_length_c                   11.8401(18)
_cell_angle_alpha                96.2190(10)
_cell_angle_beta                 98.366(2)
_cell_angle_gamma                97.274(2)
_cell_volume                     1102.82
_exptl_crystal_colour            colorless
_exptl_crystal_description       prism
_cell_formula_units_Z            2
_exptl_crystal_recrystallization_method ethanol
loop_
_atom_site_label
_atom_site_type_symbol
_atom_site_fract_x
_atom_site_fract_y
_atom_site_fract_z
C1 C -0.0487(3) 0.6705(3) 0.1444(2)
C2 C -0.0728(3) 0.7223(3) 0.2512(2)
C3 C 0.3447(3) 0.8083(3) 0.1275(2)
C4 C -0.2156(3) 0.6833(3) 0.2883(3)
C5 C 0.0504(3) 0.8228(3) 0.3234(2)
H1 H -0.0016 0.8926 0.3505
C6 C -0.1621(3) 0.5819(3) 0.0713(3)
H2 H -0.1439 0.5486 -0.0004
C7 C 0.2099(3) 0.7704(3) 0.1862(2)
H3 H 0.2422 0.7124 0.2402
C8 C -0.3288(3) 0.5932(3) 0.2146(3)
C9 C 0.1350(3) 0.7789(3) 0.4296(2)
C10 C 0.1042(3) 0.9693(3) 0.1822(2)
H4 H -0.0048 0.9450 0.1546
H5 H 0.1561 0.9711 0.1156
C11 C 0.4792(3) 0.8709(3) 0.1948(3)
H6 H 0.4811 0.8926 0.2732
C12 C -0.2976(3) 0.5457(3) 0.1064(3)
H7 H -0.3719 0.4880 0.0575
C13 C -0.2484(4) 0.7299(3) 0.3967(3)
H8 H -0.1762 0.7890 0.4460
C14 C 0.1235(3) 0.6555(3) 0.4499(2)
H9 H 0.0583 0.5941 0.3977
C15 C 0.3449(4) 0.7784(3) 0.0112(3)
H10 H 0.2562 0.7370 -0.0362
C16 C -0.4699(3) 0.5539(4) 0.2525(4)
H11 H -0.5451 0.4959 0.2046
C17 C 0.1311(4) 1.1005(3) 0.2498(3)
H12 H 0.0864 1.0966 0.3196
H13 H 0.2408 1.1267 0.2724
C18 C 0.6094(4) 0.8710(3) 0.0332(3)
H14 H 0.6979 0.8914 0.0018
C19 C 0.4781(4) 0.8101(4) -0.0357(3)
H15 H 0.4773 0.7898 -0.1141
C20 C -0.3862(4) 0.6891(4) 0.4304(3)
H16 H -0.4062 0.7209 0.5021
C21 C 0.6101(4) 0.9016(3) 0.1482(3)
H17 H 0.6991 0.9434 0.1952
C22 C 0.0657(5) 1.1976(4) 0.1856(3)
H18 H -0.0446 1.1733 0.1661
H19 H 0.1067 1.1986 0.1141
C23 C 0.2064(4) 0.6200(4) 0.5459(3)
H20 H 0.1957 0.5354 0.5574
C24 C -0.4955(4) 0.6004(4) 0.3579(4)
H21 H -0.5874 0.5726 0.3821
C25 C 0.2381(4) 0.8682(3) 0.5083(3)
H22 H 0.2524 0.9524 0.4960
C26 C 0.3032(5) 0.7066(4) 0.6236(3)
H23 H 0.3579 0.6821 0.6885
C27 C 0.3192(5) 0.8298(4) 0.6054(3)
H24 H 0.3853 0.8896 0.6585
C28 C 0.0978(6) 1.3295(4) 0.2499(4)
H25 H 0.0502 1.3314 0.3177
H26 H 0.0570 1.3872 0.2013
H27 H 0.2067 1.3539 0.2716
N1 N 0.1605(2) 0.8740(2) 0.25219(18)
O1 O 0.0848(2) 0.69988(18) 0.10138(16)
loop_
_geom_bond_atom_site_label_1
_geom_bond_atom_site_label_2
_geom_bond_site_symmetry_1
_geom_bond_site_symmetry_2
C1 C2 1_555 1_555
C2 C4 1_555 1_555
C3 C7 1_555 1_555
C4 C8 1_555 1_555
C5 C2 1_555 1_555
H1 C5 1_555 1_555
C6 C1 1_555 1_555
H2 C6 1_555 1_555
C7 H3 1_555 1_555
C8 C12 1_555 1_555
C9 C5 1_555 1_555
C10 H4 1_555 1_555
H5 C10 1_555 1_555
C11 C3 1_555 1_555
H6 C11 1_555 1_555
C12 C6 1_555 1_555
H7 C12 1_555 1_555
C13 C4 1_555 1_555
H8 C13 1_555 1_555
C14 C9 1_555 1_555
H9 C14 1_555 1_555
C15 C3 1_555 1_555
H10 C15 1_555 1_555
C16 C8 1_555 1_555
H11 C16 1_555 1_555
C17 C10 1_555 1_555
H12 C17 1_555 1_555
H13 C17 1_555 1_555
C18 H14 1_555 1_555
C19 C15 1_555 1_555
H15 C19 1_555 1_555
C20 C13 1_555 1_555
H16 C20 1_555 1_555
C21 C11 1_555 1_555
H17 C21 1_555 1_555
C22 C17 1_555 1_555
H18 C22 1_555 1_555
H19 C22 1_555 1_555
C23 C14 1_555 1_555
H20 C23 1_555 1_555
C24 C16 1_555 1_555
H21 C24 1_555 1_555
C25 C9 1_555 1_555
H22 C25 1_555 1_555
C26 C23 1_555 1_555
H23 C26 1_555 1_555
C27 C25 1_555 1_555
H24 C27 1_555 1_555
C28 C22 1_555 1_555
H25 C28 1_555 1_555
H26 C28 1_555 1_555
H27 C28 1_555 1_555
N1 C5 1_555 1_555
O1 C1 1_555 1_555
C7 N1 1_555 1_555
C7 O1 1_555 1_555
C10 N1 1_555 1_555
C18 C19 1_555 1_555
C18 C21 1_555 1_555
C20 C24 1_555 1_555
C26 C27 1_555 1_555

#END
