
#######################################################################
#
#                 Cambridge Crystallographic Data Centre
#                                CCDC 
#
#######################################################################
#
# If this CIF has been generated from an entry in the Cambridge 
# Structural Database, then it will include bibliographic, chemical, 
# crystal, experimental, refinement or atomic coordinate data resulting 
# from the CCDC's data processing and validation procedures.
#
#######################################################################

data_ROFSUB
_chemical_formula_moiety         'C18 H12 N2 O1 S1'
_chemical_name_systematic        
2-((2-Hydroxy-1-naphthyl)methyleneamino)-1,3-benzothiazole
_symmetry_cell_setting           monoclinic
_symmetry_space_group_name_H-M   'P 21/n'
_symmetry_Int_Tables_number      14
_space_group_name_Hall           '-P 2yn'
loop_
_symmetry_equiv_pos_site_id
_symmetry_equiv_pos_as_xyz
1 x,y,z
2 1/2-x,1/2+y,1/2-z
3 -x,-y,-z
4 1/2+x,1/2-y,1/2+z
_cell_length_a                   9.7439(13)
_cell_length_b                   15.1506(16)
_cell_length_c                   9.8082(14)
_cell_angle_alpha                90
_cell_angle_beta                 101.788(2)
_cell_angle_gamma                90
_cell_volume                     1417.41
_exptl_crystal_colour            orange
_exptl_crystal_description       block
_cell_formula_units_Z            4
loop_
_atom_site_label
_atom_site_type_symbol
_atom_site_fract_x
_atom_site_fract_y
_atom_site_fract_z
N1 N 0.1366(2) 0.12262(16) 1.0288(2)
N2 N 0.2042(2) -0.00510(15) 0.9113(2)
O1 O 0.2722(2) -0.14394(13) 0.7886(2)
H1 H 0.2814 -0.1033 0.8450
S1 S 0.39272(8) 0.06918(6) 1.12063(8)
C1 C 0.0880(3) -0.00369(18) 0.8179(3)
H2 H 0.0245 0.0416 0.8218
C2 C 0.0532(3) -0.06771(18) 0.7105(3)
C3 C 0.1482(3) -0.13637(19) 0.6999(3)
C4 C 0.1156(3) -0.20068(19) 0.5945(3)
H3 H 0.1790 -0.2457 0.5887
C5 C -0.0075(3) -0.19716(19) 0.5022(3)
H4 H -0.0275 -0.2408 0.4343
C6 C -0.1079(3) -0.12922(18) 0.5045(3)
C7 C -0.0773(3) -0.06359(18) 0.6093(3)
C8 C -0.1789(3) 0.00355(18) 0.6076(3)
H5 H -0.1626 0.0479 0.6746
C9 C -0.3009(3) 0.0043(2) 0.5089(3)
H6 H -0.3657 0.0493 0.5100
C10 C -0.3298(3) -0.0610(2) 0.4072(3)
H7 H -0.4131 -0.0598 0.3409
C11 C -0.2348(3) -0.1267(2) 0.4058(3)
H8 H -0.2542 -0.1706 0.3384
C12 C 0.2275(3) 0.06286(19) 1.0103(3)
C13 C 0.1972(3) 0.18005(19) 1.1355(3)
C14 C 0.3359(3) 0.16080(19) 1.1995(3)
C15 C 0.4076(3) 0.2139(2) 1.3077(3)
H9 H 0.5000 0.2018 1.3502
C16 C 0.3372(4) 0.2847(2) 1.3493(3)
H10 H 0.3828 0.3205 1.4214
C17 C 0.1997(3) 0.3034(2) 1.2859(3)
H11 H 0.1551 0.3517 1.3162
C18 C 0.1283(3) 0.2523(2) 1.1798(3)
H12 H 0.0360 0.2654 1.1380
loop_
_geom_bond_atom_site_label_1
_geom_bond_atom_site_label_2
_geom_bond_site_symmetry_1
_geom_bond_site_symmetry_2
N1 C12 1_555 1_555
N2 C1 1_555 1_555
O1 H1 1_555 1_555
S1 C12 1_555 1_555
C1 H2 1_555 1_555
C2 C1 1_555 1_555
C3 O1 1_555 1_555
C4 C3 1_555 1_555
H3 C4 1_555 1_555
C5 C4 1_555 1_555
H4 C5 1_555 1_555
C6 C5 1_555 1_555
C7 C2 1_555 1_555
C8 C7 1_555 1_555
H5 C8 1_555 1_555
C9 C8 1_555 1_555
H6 C9 1_555 1_555
C10 C9 1_555 1_555
H7 C10 1_555 1_555
C11 C6 1_555 1_555
H8 C11 1_555 1_555
C12 N2 1_555 1_555
C13 N1 1_555 1_555
C14 S1 1_555 1_555
C15 C14 1_555 1_555
H9 C15 1_555 1_555
C16 C15 1_555 1_555
H10 C16 1_555 1_555
C17 C16 1_555 1_555
H11 C17 1_555 1_555
C18 C13 1_555 1_555
H12 C18 1_555 1_555
C2 C3 1_555 1_555
C6 C7 1_555 1_555
C10 C11 1_555 1_555
C13 C14 1_555 1_555
C17 C18 1_555 1_555

#END
