
#######################################################################
#
#                 Cambridge Crystallographic Data Centre
#                                CCDC 
#
#######################################################################
#
# If this CIF has been generated from an entry in the Cambridge 
# Structural Database, then it will include bibliographic, chemical, 
# crystal, experimental, refinement or atomic coordinate data resulting 
# from the CCDC's data processing and validation procedures.
#
#######################################################################

data_ROFVAK01
_chemical_name_common            
2-Phenyl-1H-imidazo[4,5-f][1,10]phenanthroline
_chemical_formula_moiety         'C19 H12 N4'
_chemical_name_systematic        
2-Phenyl-1H-1,3,7,8-tetraazacyclopenta[l]phenanthrene
_symmetry_cell_setting           triclinic
_symmetry_space_group_name_H-M   'P -1'
_symmetry_Int_Tables_number      2
_space_group_name_Hall           '-P 1'
loop_
_symmetry_equiv_pos_site_id
_symmetry_equiv_pos_as_xyz
1 x,y,z
2 -x,-y,-z
_cell_length_a                   10.016(2)
_cell_length_b                   12.210(2)
_cell_length_c                   12.415(3)
_cell_angle_alpha                89.90(3)
_cell_angle_beta                 78.44(3)
_cell_angle_gamma                77.96(3)
_cell_volume                     1453.51
_exptl_crystal_colour            'pale yellow'
_exptl_crystal_description       block
_cell_formula_units_Z            4
loop_
_atom_site_label
_atom_site_type_symbol
_atom_site_fract_x
_atom_site_fract_y
_atom_site_fract_z
C1 C -0.0622(2) 0.23344(19) 0.81330(18)
H1 H -0.1221 0.2801 0.8697
C2 C -0.0895(2) 0.12895(19) 0.79496(18)
H2 H -0.1658 0.1068 0.8380
C3 C -0.0027(2) 0.05936(18) 0.71295(17)
H3 H -0.0182 -0.0115 0.7001
C4 C 0.1104(2) 0.09578(17) 0.64798(15)
C5 C 0.2049(2) 0.03323(16) 0.55681(16)
C6 C 0.3066(2) 0.07524(17) 0.48872(16)
C7 C 0.3291(2) 0.18394(18) 0.51052(16)
C8 C 0.4316(2) 0.2316(2) 0.44514(19)
H4 H 0.4916 0.1918 0.3843
C9 C 0.4418(3) 0.3372(2) 0.4723(2)
H5 H 0.5088 0.3707 0.4300
C10 C 0.3510(3) 0.3944(2) 0.5639(2)
H6 H 0.3590 0.4665 0.5808
C11 C 0.2416(2) 0.24813(17) 0.60234(16)
C12 C 0.1303(2) 0.20394(17) 0.67106(15)
C13 C 0.3167(2) -0.08769(19) 0.42188(16)
C14 C 0.3576(2) -0.1902(2) 0.35036(18)
C15 C 0.3037(3) -0.2845(2) 0.3759(2)
H7 H 0.2408 -0.2852 0.4419
C16 C 0.3416(3) -0.3775(2) 0.3051(2)
H8 H 0.3036 -0.4401 0.3231
C17 C 0.4350(3) -0.3777(3) 0.2086(3)
H9 H 0.4613 -0.4406 0.1609
C18 C 0.4895(3) -0.2857(3) 0.1823(2)
H10 H 0.5529 -0.2861 0.1163
C19 C 0.4521(3) -0.1917(2) 0.2523(2)
H11 H 0.4904 -0.1295 0.2335
N1 N 0.04442(19) 0.27076(14) 0.75517(14)
N2 N 0.2540(2) 0.35239(16) 0.62830(15)
N3 N 0.21246(18) -0.07178(14) 0.51377(13)
H23 H 0.1617 -0.1184 0.5395
N4 N 0.37586(19) 0.00010(16) 0.40376(14)
C20 C -0.0061(2) 0.71983(19) 0.57979(18)
H12 H -0.0384 0.7605 0.5233
C21 C -0.0429(2) 0.61739(19) 0.60084(18)
H13 H -0.0989 0.5910 0.5600
C22 C 0.0046(2) 0.55589(18) 0.68273(17)
H14 H -0.0169 0.4862 0.6976
C23 C 0.0864(2) 0.59938(17) 0.74404(16)
C24 C 0.1393(2) 0.54495(17) 0.83266(16)
C25 C 0.2102(2) 0.59356(18) 0.89767(16)
C26 C 0.2425(2) 0.70078(18) 0.87370(16)
C27 C 0.3175(2) 0.7535(2) 0.93361(18)
H15 H 0.3498 0.7192 0.9931
C28 C 0.3424(3) 0.8564(2) 0.9033(2)
H16 H 0.3910 0.8936 0.9423
C29 C 0.2938(3) 0.9040(2) 0.8131(2)
H17 H 0.3119 0.9737 0.7931
C30 C 0.1977(2) 0.75555(17) 0.78341(16)
C31 C 0.1167(2) 0.70490(17) 0.71880(16)
C32 C 0.1928(2) 0.43446(18) 0.96433(16)
C33 C 0.2076(2) 0.33528(19) 1.03149(17)
C34 C 0.1535(3) 0.2436(2) 1.0129(2)
H18 H 0.1045 0.2443 0.9566
C35 C 0.1709(3) 0.1517(3) 1.0762(2)
H19 H 0.1332 0.0908 1.0627
C36 C 0.2433(3) 0.1487(3) 1.1591(2)
H20 H 0.2558 0.0859 1.2015
C37 C 0.2964(3) 0.2383(3) 1.1787(2)
H21 H 0.3447 0.2371 1.2355
C38 C 0.2797(3) 0.3312(2) 1.11548(19)
H22 H 0.3174 0.3918 1.1297
N5 N 0.0722(2) 0.76364(15) 0.63503(14)
N6 N 0.2236(2) 0.85701(16) 0.75407(15)
N7 N 0.12911(18) 0.44362(14) 0.87635(13)
H24 H 0.0899 0.3947 0.8529
N8 N 0.24317(19) 0.52409(15) 0.98030(14)
loop_
_geom_bond_atom_site_label_1
_geom_bond_atom_site_label_2
_geom_bond_site_symmetry_1
_geom_bond_site_symmetry_2
C1 H1 1_555 1_555
C2 C1 1_555 1_555
H2 C2 1_555 1_555
C3 C2 1_555 1_555
H3 C3 1_555 1_555
C4 C3 1_555 1_555
C5 C4 1_555 1_555
C6 C5 1_555 1_555
C7 C6 1_555 1_555
C8 C7 1_555 1_555
H4 C8 1_555 1_555
C9 C8 1_555 1_555
H5 C9 1_555 1_555
C10 C9 1_555 1_555
H6 C10 1_555 1_555
C11 C7 1_555 1_555
C12 C4 1_555 1_555
C13 C14 1_555 1_555
C14 C15 1_555 1_555
C15 H7 1_555 1_555
C16 C15 1_555 1_555
H8 C16 1_555 1_555
C17 C16 1_555 1_555
H9 C17 1_555 1_555
C18 C17 1_555 1_555
H10 C18 1_555 1_555
C19 C14 1_555 1_555
H11 C19 1_555 1_555
C20 H12 1_555 1_555
C21 C20 1_555 1_555
H13 C21 1_555 1_555
C22 C21 1_555 1_555
H14 C22 1_555 1_555
C23 C22 1_555 1_555
C24 C23 1_555 1_555
C25 C24 1_555 1_555
C26 C25 1_555 1_555
C27 C26 1_555 1_555
H15 C27 1_555 1_555
C28 C27 1_555 1_555
H16 C28 1_555 1_555
C29 C28 1_555 1_555
H17 C29 1_555 1_555
C30 C26 1_555 1_555
C31 C23 1_555 1_555
C32 C33 1_555 1_555
C33 C34 1_555 1_555
C34 H18 1_555 1_555
C35 C34 1_555 1_555
H19 C35 1_555 1_555
C36 C35 1_555 1_555
H20 C36 1_555 1_555
C37 C36 1_555 1_555
H21 C37 1_555 1_555
C38 C33 1_555 1_555
H22 C38 1_555 1_555
N1 C1 1_555 1_555
N2 C10 1_555 1_555
N3 C5 1_555 1_555
H23 N3 1_555 1_555
N4 C6 1_555 1_555
N5 C20 1_555 1_555
N6 C29 1_555 1_555
N7 C24 1_555 1_555
H24 N7 1_555 1_555
N8 C25 1_555 1_555
C11 C12 1_555 1_555
C11 N2 1_555 1_555
C12 N1 1_555 1_555
C13 N3 1_555 1_555
C13 N4 1_555 1_555
C18 C19 1_555 1_555
C30 C31 1_555 1_555
C30 N6 1_555 1_555
C31 N5 1_555 1_555
C32 N7 1_555 1_555
C32 N8 1_555 1_555
C37 C38 1_555 1_555

#END
