
#######################################################################
#
#                 Cambridge Crystallographic Data Centre
#                                CCDC 
#
#######################################################################
#
# If this CIF has been generated from an entry in the Cambridge 
# Structural Database, then it will include bibliographic, chemical, 
# crystal, experimental, refinement or atomic coordinate data resulting 
# from the CCDC's data processing and validation procedures.
#
#######################################################################

data_ROFWEP
_chemical_formula_moiety         'C18 H16 N4 O4'
_chemical_name_systematic        
(E)-4-(4-Hydroxy-3-nitrobenzylideneamino)-1,5-dimethyl-2-phenyl-1H-pyrazol-3(2H)-one
_symmetry_cell_setting           monoclinic
_symmetry_space_group_name_H-M   'P 21/c'
_symmetry_Int_Tables_number      14
_space_group_name_Hall           '-P 2ybc'
loop_
_symmetry_equiv_pos_site_id
_symmetry_equiv_pos_as_xyz
1 x,y,z
2 -x,1/2+y,1/2-z
3 -x,-y,-z
4 x,1/2-y,1/2+z
_cell_length_a                   7.5000(15)
_cell_length_b                   7.8000(16)
_cell_length_c                   28.900(6)
_cell_angle_alpha                90
_cell_angle_beta                 95.00(3)
_cell_angle_gamma                90
_cell_volume                     1684.22
_exptl_crystal_colour            colorless
_exptl_crystal_description       block
_cell_formula_units_Z            4
_exptl_crystal_recrystallization_method dichloromethane/ethanol
loop_
_atom_site_label
_atom_site_type_symbol
_atom_site_fract_x
_atom_site_fract_y
_atom_site_fract_z
N1 N 0.1353(3) 0.2354(3) 0.45196(7)
N2 N -0.0863(3) 0.4373(3) 0.35252(7)
N3 N -0.1349(3) 0.2664(3) 0.34216(7)
O1 O -0.0566(2) -0.0019(2) 0.37369(6)
O2 O 0.6074(3) -0.0082(3) 0.63167(6)
H1 H 0.6225 -0.1096 0.6384
O3 O 0.5569(3) -0.3329(3) 0.61887(8)
O4 O 0.3986(4) -0.4244(3) 0.55889(10)
N4 N 0.4606(3) -0.3063(3) 0.58221(9)
C1 C 0.2714(3) 0.0531(3) 0.51068(8)
C2 C 0.1594(3) 0.0821(3) 0.46713(8)
H2 H 0.1064 -0.0099 0.4507
C3 C 0.0330(3) 0.2717(3) 0.41051(8)
C4 C 0.0055(3) 0.4366(3) 0.39532(8)
C5 C 0.4212(3) -0.1337(3) 0.56753(8)
C6 C 0.3086(3) -0.1094(3) 0.52690(8)
H3 H 0.2588 -0.2037 0.5108
C7 C 0.4969(3) 0.0046(4) 0.59269(8)
C8 C -0.1830(3) 0.2178(3) 0.29503(8)
C9 C 0.3488(3) 0.1923(3) 0.53588(8)
H4 H 0.3255 0.3032 0.5252
C10 C 0.4577(3) 0.1682(4) 0.57589(9)
H5 H 0.5060 0.2629 0.5920
C11 C -0.3461(4) 0.0338(4) 0.24047(11)
H6 H -0.4215 -0.0597 0.2344
C12 C -0.2133(4) 0.5723(4) 0.33705(10)
H7 H -0.3240 0.5546 0.3507
H8 H -0.2346 0.5690 0.3038
H9 H -0.1646 0.6820 0.3465
C13 C -0.2976(3) 0.0829(4) 0.28630(9)
H10 H -0.3430 0.0243 0.3107
C14 C -0.0519(3) 0.1560(3) 0.37629(8)
C15 C -0.1161(3) 0.3056(4) 0.25858(9)
H11 H -0.0362 0.3958 0.2644
C16 C 0.0618(4) 0.5984(4) 0.41979(10)
H12 H 0.1012 0.6792 0.3978
H13 H 0.1580 0.5747 0.4430
H14 H -0.0376 0.6456 0.4343
C17 C -0.2831(4) 0.1223(5) 0.20437(10)
H15 H -0.3176 0.0907 0.1739
C18 C -0.1694(4) 0.2575(4) 0.21333(10)
H16 H -0.1273 0.3179 0.1888
loop_
_geom_bond_atom_site_label_1
_geom_bond_atom_site_label_2
_geom_bond_site_symmetry_1
_geom_bond_site_symmetry_2
N1 C2 1_555 1_555
N2 N3 1_555 1_555
N3 C8 1_555 1_555
O1 C14 1_555 1_555
O2 H1 1_555 1_555
O3 N4 1_555 1_555
O4 N4 1_555 1_555
N4 C5 1_555 1_555
C1 C2 1_555 1_555
C2 H2 1_555 1_555
C3 N1 1_555 1_555
C4 N2 1_555 1_555
C5 C6 1_555 1_555
C6 C1 1_555 1_555
H3 C6 1_555 1_555
C7 O2 1_555 1_555
C8 C13 1_555 1_555
C9 C1 1_555 1_555
H4 C9 1_555 1_555
C10 C7 1_555 1_555
H5 C10 1_555 1_555
C11 H6 1_555 1_555
C12 N2 1_555 1_555
H7 C12 1_555 1_555
H8 C12 1_555 1_555
H9 C12 1_555 1_555
C13 C11 1_555 1_555
H10 C13 1_555 1_555
C14 N3 1_555 1_555
C15 C8 1_555 1_555
H11 C15 1_555 1_555
C16 C4 1_555 1_555
H12 C16 1_555 1_555
H13 C16 1_555 1_555
H14 C16 1_555 1_555
C17 C11 1_555 1_555
H15 C17 1_555 1_555
C18 C15 1_555 1_555
H16 C18 1_555 1_555
C3 C4 1_555 1_555
C3 C14 1_555 1_555
C5 C7 1_555 1_555
C9 C10 1_555 1_555
C17 C18 1_555 1_555

#END
