
#######################################################################
#
#                 Cambridge Crystallographic Data Centre
#                                CCDC 
#
#######################################################################
#
# If this CIF has been generated from an entry in the Cambridge 
# Structural Database, then it will include bibliographic, chemical, 
# crystal, experimental, refinement or atomic coordinate data resulting 
# from the CCDC's data processing and validation procedures.
#
#######################################################################

data_ROFWIT01
_chemical_formula_moiety         'C9 H13 N1 O2'
_chemical_name_systematic        'ethyl 3,5-dimethyl-1H-pyrrole-2-carboxylate'
_symmetry_cell_setting           triclinic
_symmetry_space_group_name_H-M   'P -1'
_symmetry_Int_Tables_number      2
_space_group_name_Hall           '-P 1'
loop_
_symmetry_equiv_pos_site_id
_symmetry_equiv_pos_as_xyz
1 x,y,z
2 -x,-y,-z
_cell_length_a                   7.956(2)
_cell_length_b                   10.508(4)
_cell_length_c                   11.993(5)
_cell_angle_alpha                100.820(16)
_cell_angle_beta                 97.05(2)
_cell_angle_gamma                111.82(2)
_cell_volume                     893.647
_exptl_crystal_colour            colorless
_exptl_crystal_description       prism
_chemical_melting_point          '391-392 K'
_cell_formula_units_Z            4
_exptl_crystal_recrystallization_method dichloromethane/methanol
loop_
_atom_site_label
_atom_site_type_symbol
_atom_site_fract_x
_atom_site_fract_y
_atom_site_fract_z
O1 O 0.6940(3) 1.0363(3) 0.9412(2)
O2 O 0.5002(4) 0.9157(3) 0.7676(3)
N1 N 0.5298(4) 0.6669(3) 0.8009(3)
H1 H 0.4602 0.6528 0.7330
C1 C 0.5652(5) 0.5655(4) 0.8403(4)
C2 C 0.6765(5) 0.6288(4) 0.9497(4)
H2 H 0.7215 0.5818 0.9985
C3 C 0.7132(5) 0.7743(4) 0.9781(4)
C4 C 0.6181(5) 0.7959(4) 0.8820(4)
C5 C 0.5969(5) 0.9179(4) 0.8565(4)
C6 C 0.4897(6) 0.4147(4) 0.7695(4)
H3 H 0.3661 0.3896 0.7235
H4 H 0.4816 0.3518 0.8214
H5 H 0.5721 0.4043 0.7174
C7 C 0.8309(5) 0.8842(4) 1.0891(4)
H6 H 0.9531 0.9391 1.0757
H7 H 0.8450 0.8368 1.1504
H8 H 0.7706 0.9479 1.1130
C8 C 0.6814(5) 1.1634(4) 0.9183(4)
H9 H 0.5516 1.1541 0.9088
H10 H 0.7249 1.1803 0.8464
C9 C 0.8036(6) 1.2846(5) 1.0221(4)
H11 H 0.8003 1.3734 1.0101
H12 H 0.9312 1.2919 1.0309
H13 H 0.7583 1.2668 1.0924
O3 O 0.1486(3) 0.4505(3) 0.3918(2)
O4 O 0.3226(4) 0.5673(3) 0.5707(3)
N2 N 0.2865(4) 0.8162(3) 0.5383(3)
H14 H 0.3517 0.8303 0.6077
C10 C 0.2470(5) 0.9155(4) 0.4978(4)
C11 C 0.1435(5) 0.8521(4) 0.3857(4)
H15 H 0.0978 0.8974 0.3356
C12 C 0.1174(5) 0.7088(4) 0.3587(4)
C13 C 0.2096(5) 0.6902(4) 0.4550(4)
C14 C 0.2345(5) 0.5675(4) 0.4808(4)
C15 C 0.3124(6) 1.0627(4) 0.5692(4)
H16 H 0.2493 1.0636 0.6344
H17 H 0.2850 1.1215 0.5215
H18 H 0.4464 1.1004 0.5992
C16 C 0.0086(5) 0.6016(4) 0.2469(4)
H19 H 0.0883 0.5613 0.2115
H20 H -0.0376 0.6474 0.1939
H21 H -0.0963 0.5259 0.2621
C17 C 0.1677(5) 0.3221(4) 0.4080(4)
H22 H 0.1187 0.2958 0.4762
H23 H 0.2996 0.3368 0.4205
C18 C 0.0586(6) 0.2081(5) 0.2992(4)
H24 H 0.0665 0.1190 0.3063
H25 H 0.1092 0.2353 0.2326
H26 H -0.0713 0.1954 0.2876
loop_
_geom_bond_atom_site_label_1
_geom_bond_atom_site_label_2
_geom_bond_site_symmetry_1
_geom_bond_site_symmetry_2
O1 C5 1_555 1_555
O2 C5 1_555 1_555
N1 H1 1_555 1_555
C1 N1 1_555 1_555
C2 C1 1_555 1_555
H2 C2 1_555 1_555
C3 C2 1_555 1_555
C4 N1 1_555 1_555
C5 C4 1_555 1_555
C6 C1 1_555 1_555
H3 C6 1_555 1_555
H4 C6 1_555 1_555
H5 C6 1_555 1_555
C7 C3 1_555 1_555
H6 C7 1_555 1_555
H7 C7 1_555 1_555
H8 C7 1_555 1_555
C8 O1 1_555 1_555
H9 C8 1_555 1_555
H10 C8 1_555 1_555
C9 C8 1_555 1_555
H11 C9 1_555 1_555
H12 C9 1_555 1_555
H13 C9 1_555 1_555
O3 C14 1_555 1_555
O4 C14 1_555 1_555
N2 H14 1_555 1_555
C10 N2 1_555 1_555
C11 C10 1_555 1_555
H15 C11 1_555 1_555
C12 C11 1_555 1_555
C13 N2 1_555 1_555
C14 C13 1_555 1_555
C15 C10 1_555 1_555
H16 C15 1_555 1_555
H17 C15 1_555 1_555
H18 C15 1_555 1_555
C16 C12 1_555 1_555
H19 C16 1_555 1_555
H20 C16 1_555 1_555
H21 C16 1_555 1_555
C17 O3 1_555 1_555
H22 C17 1_555 1_555
H23 C17 1_555 1_555
C18 C17 1_555 1_555
H24 C18 1_555 1_555
H25 C18 1_555 1_555
H26 C18 1_555 1_555
C3 C4 1_555 1_555
C12 C13 1_555 1_555

#END
