
#######################################################################
#
#                 Cambridge Crystallographic Data Centre
#                                CCDC 
#
#######################################################################
#
# If this CIF has been generated from an entry in the Cambridge 
# Structural Database, then it will include bibliographic, chemical, 
# crystal, experimental, refinement or atomic coordinate data resulting 
# from the CCDC's data processing and validation procedures.
#
#######################################################################

data_ROFZUJ
_chemical_formula_moiety         'C15 H11 N1 O2'
_chemical_name_systematic        
(5-Methyl-1,3-benzoxazol-2-yl)(phenyl)methanone
_symmetry_cell_setting           monoclinic
_symmetry_space_group_name_H-M   'P 2/c'
_symmetry_Int_Tables_number      13
_space_group_name_Hall           '-P 2yc'
loop_
_symmetry_equiv_pos_site_id
_symmetry_equiv_pos_as_xyz
1 x,y,z
2 -x,y,1/2-z
3 -x,-y,-z
4 x,-y,1/2+z
_cell_length_a                   12.1035(4)
_cell_length_b                   14.2703(6)
_cell_length_c                   13.6727(6)
_cell_angle_alpha                90
_cell_angle_beta                 97.263(2)
_cell_angle_gamma                90
_cell_volume                     2342.61
_exptl_crystal_colour            yellow
_exptl_crystal_description       parallelepiped
_cell_formula_units_Z            8
loop_
_atom_site_label
_atom_site_type_symbol
_atom_site_fract_x
_atom_site_fract_y
_atom_site_fract_z
O1 O 0.10368(13) 0.14285(12) 0.39888(14)
O2 O 0.31274(16) 0.09580(15) 0.4299(2)
N1 N 0.04525(15) -0.00622(14) 0.37760(15)
C1 C -0.04680(18) 0.05412(16) 0.36835(17)
C2 C -0.16071(19) 0.03607(19) 0.34915(19)
H1 H -0.1869 -0.0250 0.3398
C3 C -0.2334(2) 0.11035(19) 0.34430(19)
C4 C -0.1921(2) 0.2017(2) 0.3576(2)
H2 H -0.2424 0.2512 0.3531
C5 C -0.0803(2) 0.22147(19) 0.3771(2)
H3 H -0.0536 0.2823 0.3869
C6 C -0.01052(19) 0.14506(17) 0.38108(18)
C7 C 0.12886(19) 0.05004(16) 0.39515(18)
C8 C 0.25075(19) 0.03008(18) 0.4106(2)
C9 C 0.29452(18) -0.06601(17) 0.40061(18)
C10 C 0.2334(2) -0.14650(19) 0.4024(2)
H4 H 0.1572 -0.1434 0.4055
C11 C 0.2855(3) -0.2326(2) 0.3994(3)
H5 H 0.2441 -0.2870 0.4036
C12 C 0.3962(2) -0.2394(2) 0.3904(3)
H6 H 0.4293 -0.2977 0.3857
C13 C 0.4576(2) -0.1597(2) 0.3884(3)
H7 H 0.5332 -0.1634 0.3827
C14 C 0.4080(2) -0.0739(2) 0.3949(3)
H8 H 0.4512 -0.0199 0.3955
C15 C -0.3578(2) 0.0962(2) 0.3255(3)
H9 H -0.3737 0.0311 0.3129
H10 H -0.3879 0.1327 0.2694
H11 H -0.3909 0.1159 0.3823
O3 O 0.39511(13) 0.38440(11) 0.09490(14)
O4 O 0.18601(15) 0.43251(14) 0.05952(19)
N2 N 0.45310(14) 0.53280(13) 0.12387(14)
C16 C 0.54529(18) 0.47310(16) 0.13073(16)
C17 C 0.65912(18) 0.49160(17) 0.15137(17)
H12 H 0.6850 0.5524 0.1637
C18 C 0.73186(19) 0.41756(18) 0.15304(18)
C19 C 0.6914(2) 0.32707(19) 0.1340(2)
H13 H 0.7421 0.2780 0.1351
C20 C 0.5795(2) 0.30717(19) 0.1136(2)
H14 H 0.5532 0.2466 0.1008
C21 C 0.50928(19) 0.38282(17) 0.11339(18)
C22 C 0.36911(18) 0.47710(16) 0.10267(17)
C23 C 0.24736(19) 0.49705(17) 0.08600(19)
C24 C 0.20313(18) 0.59171(17) 0.10370(18)
C25 C 0.2660(2) 0.6708(2) 0.1231(3)
H15 H 0.3431 0.6675 0.1263
C26 C 0.2157(3) 0.7552(2) 0.1378(3)
H16 H 0.2594 0.8084 0.1509
C27 C 0.1029(3) 0.7622(2) 0.1335(3)
H17 H 0.0697 0.8197 0.1427
C28 C 0.0400(2) 0.6844(2) 0.1157(3)
H18 H -0.0369 0.6882 0.1146
C29 C 0.0886(2) 0.5997(2) 0.0992(3)
H19 H 0.0440 0.5472 0.0848
C30 C 0.8561(2) 0.4329(2) 0.1739(2)
H20 H 0.8709 0.4981 0.1869
H21 H 0.8907 0.4137 0.1177
H22 H 0.8855 0.3965 0.2303
loop_
_geom_bond_atom_site_label_1
_geom_bond_atom_site_label_2
_geom_bond_site_symmetry_1
_geom_bond_site_symmetry_2
O1 C6 1_555 1_555
O2 C8 1_555 1_555
N1 C1 1_555 1_555
C1 C2 1_555 1_555
C2 H1 1_555 1_555
C3 C2 1_555 1_555
C4 C3 1_555 1_555
H2 C4 1_555 1_555
C5 C4 1_555 1_555
H3 C5 1_555 1_555
C6 C1 1_555 1_555
C7 O1 1_555 1_555
C8 C7 1_555 1_555
C9 C8 1_555 1_555
C10 C9 1_555 1_555
H4 C10 1_555 1_555
C11 C10 1_555 1_555
H5 C11 1_555 1_555
C12 C11 1_555 1_555
H6 C12 1_555 1_555
C13 C12 1_555 1_555
H7 C13 1_555 1_555
C14 C9 1_555 1_555
H8 C14 1_555 1_555
C15 C3 1_555 1_555
H9 C15 1_555 1_555
H10 C15 1_555 1_555
H11 C15 1_555 1_555
O3 C21 1_555 1_555
O4 C23 1_555 1_555
N2 C16 1_555 1_555
C16 C17 1_555 1_555
C17 H12 1_555 1_555
C18 C17 1_555 1_555
C19 C18 1_555 1_555
H13 C19 1_555 1_555
C20 C19 1_555 1_555
H14 C20 1_555 1_555
C21 C16 1_555 1_555
C22 O3 1_555 1_555
C23 C22 1_555 1_555
C24 C23 1_555 1_555
C25 C24 1_555 1_555
H15 C25 1_555 1_555
C26 C25 1_555 1_555
H16 C26 1_555 1_555
C27 C26 1_555 1_555
H17 C27 1_555 1_555
C28 C27 1_555 1_555
H18 C28 1_555 1_555
C29 C24 1_555 1_555
H19 C29 1_555 1_555
C30 C18 1_555 1_555
H20 C30 1_555 1_555
H21 C30 1_555 1_555
H22 C30 1_555 1_555
N1 C7 1_555 1_555
C5 C6 1_555 1_555
C13 C14 1_555 1_555
N2 C22 1_555 1_555
C20 C21 1_555 1_555
C28 C29 1_555 1_555

#END
