
#######################################################################
#
#                 Cambridge Crystallographic Data Centre
#                                CCDC 
#
#######################################################################
#
# If this CIF has been generated from an entry in the Cambridge 
# Structural Database, then it will include bibliographic, chemical, 
# crystal, experimental, refinement or atomic coordinate data resulting 
# from the CCDC's data processing and validation procedures.
#
#######################################################################

data_ROGDEW
_chemical_formula_moiety         'C14 H28 Li1 N2 O4 1+,Na1 1-'
_chemical_name_systematic        'Cryptand(2.1.1)-lithium sodide'
_symmetry_cell_setting           orthorhombic
_symmetry_space_group_name_H-M   'P n a 21'
_symmetry_Int_Tables_number      33
_space_group_name_Hall           'P 2c -2n'
loop_
_symmetry_equiv_pos_site_id
_symmetry_equiv_pos_as_xyz
1 x,y,z
2 -x,-y,1/2+z
3 1/2-x,1/2+y,1/2+z
4 1/2+x,1/2-y,z
_cell_length_a                   9.639(5)
_cell_length_b                   22.924(17)
_cell_length_c                   9.6182(4)
_cell_angle_alpha                90
_cell_angle_beta                 90
_cell_angle_gamma                90
_cell_volume                     2125.28
_cell_formula_units_Z            4
loop_
_atom_site_label
_atom_site_type_symbol
_atom_site_fract_x
_atom_site_fract_y
_atom_site_fract_z
Na1 Na 0.95240 0.61867 0.46197
O1 O 0.50330 0.30502 0.27135
O2 O 0.34830 0.43598 0.43537
O3 O 0.69238 0.41491 0.46576
O4 O 0.57431 0.33185 0.61320
N1 N 0.54857 0.42310 0.22458
N2 N 0.31762 0.31797 0.49361
C1 C 0.56996 0.37939 0.11566
C2 C 0.47862 0.32707 0.13378
C3 C 0.41337 0.25758 0.30654
C4 C 0.28320 0.28063 0.37575
C5 C 0.20881 0.36013 0.52697
C6 C 0.21090 0.41118 0.42851
C7 C 0.37066 0.48196 0.33989
C8 C 0.42273 0.45876 0.20204
C9 C 0.67238 0.46002 0.24717
C10 C 0.77016 0.42932 0.34621
C11 C 0.77364 0.38658 0.57052
C12 C 0.67530 0.36700 0.68016
C13 C 0.46260 0.31669 0.70430
C14 C 0.35868 0.28376 0.61877
Li1 Li 0.50400 0.37115 0.42304
H1 H 0.66399 0.36704 0.11825
H2 H 0.55073 0.39663 0.02793
H3 H 0.38405 0.33798 0.12399
H4 H 0.50096 0.29822 0.06649
H5 H 0.46003 0.23200 0.36861
H6 H 0.38891 0.23699 0.22440
H7 H 0.23096 0.30239 0.30994
H8 H 0.23053 0.24846 0.40872
H9 H 0.22262 0.37399 0.61901
H10 H 0.18163 0.34114 0.51839
H11 H 0.19178 0.39833 0.33657
H12 H 0.14383 0.43935 0.45553
H13 H 0.43737 0.50812 0.37724
H14 H 0.28572 0.50205 0.32521
H15 H 0.35283 0.43538 0.16030
H16 H 0.44439 0.49053 0.14244
H17 H 0.64496 0.49636 0.28588
H18 H 0.71792 0.46651 0.16095
H19 H 0.80591 0.39495 0.30427
H20 H 0.84466 0.45446 0.37049
H21 H 0.83927 0.41309 0.60846
H22 H 0.82089 0.35400 0.53200
H23 H 0.72304 0.34491 0.74867
H24 H 0.63227 0.39972 0.72275
H25 H 0.42151 0.35099 0.74143
H26 H 0.49555 0.29291 0.77815
H27 H 0.39842 0.24782 0.58987
H28 H 0.27871 0.27628 0.67367
loop_
_geom_bond_atom_site_label_1
_geom_bond_atom_site_label_2
_geom_bond_site_symmetry_1
_geom_bond_site_symmetry_2
O1 C2 1_555 1_555
O2 C6 1_555 1_555
O3 C10 1_555 1_555
O4 C12 1_555 1_555
N1 C1 1_555 1_555
N2 C4 1_555 1_555
C1 C2 1_555 1_555
C2 H3 1_555 1_555
C3 O1 1_555 1_555
C4 C3 1_555 1_555
C5 N2 1_555 1_555
C6 C5 1_555 1_555
C7 O2 1_555 1_555
C8 N1 1_555 1_555
C9 N1 1_555 1_555
C10 C9 1_555 1_555
C11 O3 1_555 1_555
C12 C11 1_555 1_555
C13 O4 1_555 1_555
C14 N2 1_555 1_555
Li1 O1 1_555 1_555
H1 C1 1_555 1_555
H2 C1 1_555 1_555
H4 C2 1_555 1_555
H5 C3 1_555 1_555
H6 C3 1_555 1_555
H7 C4 1_555 1_555
H8 C4 1_555 1_555
H9 C5 1_555 1_555
H10 C5 1_555 1_555
H11 C6 1_555 1_555
H12 C6 1_555 1_555
H13 C7 1_555 1_555
H14 C7 1_555 1_555
H15 C8 1_555 1_555
H16 C8 1_555 1_555
H17 C9 1_555 1_555
H18 C9 1_555 1_555
H19 C10 1_555 1_555
H20 C10 1_555 1_555
H21 C11 1_555 1_555
H22 C11 1_555 1_555
H23 C12 1_555 1_555
H24 C12 1_555 1_555
H25 C13 1_555 1_555
H26 C13 1_555 1_555
H27 C14 1_555 1_555
H28 C14 1_555 1_555
O2 Li1 1_555 1_555
O3 Li1 1_555 1_555
O4 Li1 1_555 1_555
N1 Li1 1_555 1_555
N2 Li1 1_555 1_555
C7 C8 1_555 1_555
C13 C14 1_555 1_555

#END
