
#######################################################################
#
#                 Cambridge Crystallographic Data Centre
#                                CCDC 
#
#######################################################################
#
# If this CIF has been generated from an entry in the Cambridge 
# Structural Database, then it will include bibliographic, chemical, 
# crystal, experimental, refinement or atomic coordinate data resulting 
# from the CCDC's data processing and validation procedures.
#
#######################################################################

data_ROGDUN
_chemical_formula_moiety         'C16 H15 Cl1 O4'
_chemical_name_systematic        
1-(5-Chloro-2,4-dihydroxyphenyl)-2-(4-ethoxyphenyl)ethanone
_symmetry_cell_setting           monoclinic
_symmetry_space_group_name_H-M   'I 2/a'
_symmetry_Int_Tables_number      15
_space_group_name_Hall           '-I 2ya'
loop_
_symmetry_equiv_pos_site_id
_symmetry_equiv_pos_as_xyz
1 x,y,z
2 1/2+x,1/2+y,1/2+z
3 1/2-x,y,-z
4 -x,1/2+y,1/2-z
5 -x,-y,-z
6 1/2-x,1/2-y,1/2-z
7 1/2+x,-y,z
8 x,1/2-y,1/2+z
_cell_length_a                   19.255(6)
_cell_length_b                   4.6454(15)
_cell_length_c                   31.109(11)
_cell_angle_alpha                90
_cell_angle_beta                 90.519(7)
_cell_angle_gamma                90
_cell_volume                     2782.5
_exptl_crystal_colour            colorless
_exptl_crystal_description       prism
_cell_formula_units_Z            8
loop_
_atom_site_label
_atom_site_type_symbol
_atom_site_fract_x
_atom_site_fract_y
_atom_site_fract_z
C1 C 0.33978(15) 0.7593(6) 0.18759(10)
C2 C 0.39148(16) 0.8676(6) 0.21571(10)
O1 O 0.37615(11) 1.0672(4) 0.24646(7)
H1 H 0.3277(6) 1.130(8) 0.2439(13)
C3 C 0.45909(15) 0.7723(6) 0.21336(10)
H2 H 0.4931 0.8474 0.2326
C4 C 0.47810(16) 0.5683(6) 0.18323(10)
O2 O 0.54308(11) 0.4628(5) 0.18053(7)
H3 H 0.5655(16) 0.516(8) 0.2078(6)
C5 C 0.42808(16) 0.4638(6) 0.15414(10)
Cl1 Cl 0.45154(4) 0.21806(16) 0.11487(3)
C6 C 0.36084(16) 0.5567(6) 0.15684(10)
H4 H 0.3273 0.4817 0.1373
C7 C 0.26827(16) 0.8586(6) 0.19047(10)
O3 O 0.25248(11) 1.0457(5) 0.21737(7)
C8 C 0.21213(15) 0.7476(6) 0.16079(10)
H5 H 0.2267 0.5604 0.1486
H6 H 0.1692 0.7156 0.1774
C9 C 0.19729(16) 0.9550(6) 0.12476(10)
C10 C 0.24738(17) 1.0299(7) 0.09503(11)
H7 H 0.2925 0.9486 0.0974
C11 C 0.23309(16) 1.2204(7) 0.06193(10)
H8 H 0.2681 1.2687 0.0419
C12 C 0.16775(17) 1.3401(7) 0.05814(11)
C13 C 0.11677(16) 1.2740(6) 0.08744(10)
H9 H 0.0719 1.3582 0.0851
C14 C 0.13229(16) 1.0809(6) 0.12065(10)
H10 H 0.0974 1.0349 0.1409
O4 O 0.15829(10) 1.5204(5) 0.02307(7)
C15 C 0.09030(16) 1.6385(7) 0.01654(11)
H11 H 0.0773 1.7614 0.0412
H12 H 0.0556 1.4824 0.0136
C16 C 0.09290(17) 1.8138(7) -0.02397(11)
H13 H 0.0472 1.8999 -0.0296
H14 H 0.1055 1.6894 -0.0481
H15 H 0.1276 1.9667 -0.0207
loop_
_geom_bond_atom_site_label_1
_geom_bond_atom_site_label_2
_geom_bond_site_symmetry_1
_geom_bond_site_symmetry_2
C1 C2 1_555 1_555
C2 O1 1_555 1_555
O1 H1 1_555 1_555
C3 C2 1_555 1_555
H2 C3 1_555 1_555
C4 C3 1_555 1_555
O2 C4 1_555 1_555
H3 O2 1_555 1_555
C5 C4 1_555 1_555
Cl1 C5 1_555 1_555
C6 C1 1_555 1_555
H4 C6 1_555 1_555
C7 C1 1_555 1_555
O3 C7 1_555 1_555
C8 C7 1_555 1_555
H5 C8 1_555 1_555
H6 C8 1_555 1_555
C9 C8 1_555 1_555
C10 C9 1_555 1_555
H7 C10 1_555 1_555
C11 C10 1_555 1_555
H8 C11 1_555 1_555
C12 C11 1_555 1_555
C13 C12 1_555 1_555
H9 C13 1_555 1_555
C14 C9 1_555 1_555
H10 C14 1_555 1_555
O4 C12 1_555 1_555
C15 O4 1_555 1_555
H11 C15 1_555 1_555
H12 C15 1_555 1_555
C16 C15 1_555 1_555
H13 C16 1_555 1_555
H14 C16 1_555 1_555
H15 C16 1_555 1_555
C5 C6 1_555 1_555
C13 C14 1_555 1_555

#END
