
#######################################################################
#
#                 Cambridge Crystallographic Data Centre
#                                CCDC 
#
#######################################################################
#
# If this CIF has been generated from an entry in the Cambridge 
# Structural Database, then it will include bibliographic, chemical, 
# crystal, experimental, refinement or atomic coordinate data resulting 
# from the CCDC's data processing and validation procedures.
#
#######################################################################

data_ROGDAS
_chemical_formula_moiety         'C14 H28 Li1 N2 O4'
_chemical_name_systematic        'Cryptand(2.1.1)-lithium electride'
_symmetry_cell_setting           orthorhombic
_symmetry_space_group_name_H-M   'P b c n'
_symmetry_Int_Tables_number      60
_space_group_name_Hall           '-P 2n 2ab'
loop_
_symmetry_equiv_pos_site_id
_symmetry_equiv_pos_as_xyz
1 x,y,z
2 1/2-x,1/2-y,1/2+z
3 1/2+x,1/2-y,-z
4 -x,y,1/2-z
5 -x,-y,-z
6 1/2+x,1/2+y,1/2-z
7 1/2-x,1/2+y,z
8 x,-y,1/2+z
_cell_length_a                   10.060(4)
_cell_length_b                   23.134(8)
_cell_length_c                   8.380(4)
_cell_angle_alpha                90
_cell_angle_beta                 90
_cell_angle_gamma                90
_cell_volume                     1950.26
_cell_formula_units_Z            4
loop_
_atom_site_label
_atom_site_type_symbol
_atom_site_fract_x
_atom_site_fract_y
_atom_site_fract_z
O1 O 0.4770(3) 0.35928(8) 0.0258(3)
O2 O 0.6290(2) 0.47566(9) 0.2590(3)
N1 N 0.7022(3) 0.3631(1) 0.2176(4)
C1 C 0.7040(4) 0.3386(2) 0.0535(5)
C2 C 0.5724(5) 0.3137(2) 0.0123(5)
C3 C 0.3416(5) 0.3401(2) 0.0032(5)
C4 C 0.7144(5) 0.3181(2) 0.3407(5)
C5 C 0.8028(4) 0.4088(2) 0.2378(6)
C6 C 0.7512(5) 0.4657(2) 0.1767(5)
C7 C 0.5664(4) 0.5283(1) 0.2135(5)
Li1 Li 0.5000 0.4034(3) 0.2500
H1 H 0.769(4) 0.309(2) 0.047(5)
H2 H 0.728(4) 0.374(2) -0.018(5)
H3 H 0.570(4) 0.298(2) -0.104(5)
H4 H 0.530(4) 0.279(2) 0.088(5)
H5 H 0.346(3) 0.307(1) -0.086(4)
H6 H 0.286(3) 0.376(1) -0.037(4)
H7 H 0.806(3) 0.308(1) 0.360(4)
H8 H 0.658(4) 0.281(2) 0.293(5)
H9 H 0.829(4) 0.415(2) 0.350(5)
H10 H 0.875(4) 0.398(2) 0.179(5)
H11 H 0.807(3) 0.500(2) 0.207(5)
H12 H 0.734(4) 0.465(2) 0.052(5)
H13 H 0.627(3) 0.561(1) 0.247(4)
H14 H 0.564(3) 0.529(1) 0.090(3)
C3C C 0.6584(5) 0.3401(2) 0.4968(5)
O1C O 0.5230(3) 0.35928(8) 0.4742(3)
C2C C 0.4276(5) 0.3137(2) 0.4877(5)
C1C C 0.2960(4) 0.3386(2) 0.4465(5)
N1C N 0.2978(3) 0.3631(1) 0.2824(4)
C4C C 0.2856(5) 0.3181(2) 0.1593(5)
O2C O 0.3710(2) 0.47566(9) 0.2410(3)
C6C C 0.2488(5) 0.4657(2) 0.3233(5)
C5C C 0.1972(4) 0.4088(2) 0.2622(6)
H9C H 0.171(4) 0.415(2) 0.150(5)
H10C H 0.125(4) 0.398(2) 0.321(5)
H11C H 0.193(3) 0.500(2) 0.293(5)
H12C H 0.266(4) 0.465(2) 0.448(5)
C7C C 0.4336(4) 0.5283(1) 0.2865(5)
H13C H 0.373(3) 0.561(1) 0.253(4)
H14C H 0.436(3) 0.529(1) 0.410(3)
H7C H 0.194(3) 0.308(1) 0.140(4)
H8C H 0.342(4) 0.281(2) 0.207(5)
H1C H 0.231(4) 0.309(2) 0.453(5)
H2C H 0.272(4) 0.374(2) 0.518(5)
H3C H 0.430(4) 0.298(2) 0.604(5)
H4C H 0.470(4) 0.279(2) 0.412(5)
H5C H 0.654(3) 0.307(1) 0.586(4)
H6C H 0.714(3) 0.376(1) 0.537(4)
loop_
_geom_bond_atom_site_label_1
_geom_bond_atom_site_label_2
_geom_bond_site_symmetry_1
_geom_bond_site_symmetry_2
O1 C2 1_555 1_555
O2 C6 1_555 1_555
N1 C1 1_555 1_555
C1 C2 1_555 1_555
C2 H3 1_555 1_555
C3 O1 1_555 1_555
C4 N1 1_555 1_555
C5 N1 1_555 1_555
C6 C5 1_555 1_555
C7 O2 1_555 1_555
Li1 O1 1_555 1_555
H1 C1 1_555 1_555
H2 C1 1_555 1_555
H4 C2 1_555 1_555
H5 C3 1_555 1_555
H6 C3 1_555 1_555
H7 C4 1_555 1_555
H8 C4 1_555 1_555
H9 C5 1_555 1_555
H10 C5 1_555 1_555
H11 C6 1_555 1_555
H12 C6 1_555 1_555
H13 C7 1_555 1_555
H14 C7 1_555 1_555
C3C C4 1_555 1_555
O1C Li1 1_555 1_555
C2C O1C 1_555 1_555
C1C C2C 1_555 1_555
N1C Li1 1_555 1_555
C4C C3 1_555 1_555
O2C Li1 1_555 1_555
C6C O2C 1_555 1_555
C5C N1C 1_555 1_555
H9C C5C 1_555 1_555
H10C C5C 1_555 1_555
H11C C6C 1_555 1_555
H12C C6C 1_555 1_555
C7C C7 1_555 1_555
H13C C7C 1_555 1_555
H14C C7C 1_555 1_555
H7C C4C 1_555 1_555
H8C C4C 1_555 1_555
H1C C1C 1_555 1_555
H2C C1C 1_555 1_555
H3C C2C 1_555 1_555
H4C C2C 1_555 1_555
H5C C3C 1_555 1_555
H6C C3C 1_555 1_555
O2 Li1 1_555 1_555
N1 Li1 1_555 1_555
C3C O1C 1_555 1_555
C1C N1C 1_555 1_555
N1C C4C 1_555 1_555
O2C C7C 1_555 1_555
C6C C5C 1_555 1_555

#END
