
#######################################################################
#
#                 Cambridge Crystallographic Data Centre
#                                CCDC 
#
#######################################################################
#
# If this CIF has been generated from an entry in the Cambridge 
# Structural Database, then it will include bibliographic, chemical, 
# crystal, experimental, refinement or atomic coordinate data resulting 
# from the CCDC's data processing and validation procedures.
#
#######################################################################

data_ROGTEN
_chemical_formula_moiety         'C30 H32 N2 O2 S1'
_chemical_name_systematic        
'Benzyl (2R,3R)-1-((2R,5R)-2,5-diphenylpyrrolidin-1-yl)-3-methyl-1-thioxopent-4-en-2-ylcarbamate'
_symmetry_cell_setting           orthorhombic
_symmetry_space_group_name_H-M   'P 21 21 21'
_symmetry_Int_Tables_number      19
_space_group_name_Hall           'P 2ac 2ab'
loop_
_symmetry_equiv_pos_site_id
_symmetry_equiv_pos_as_xyz
1 x,y,z
2 1/2-x,-y,1/2+z
3 -x,1/2+y,1/2-z
4 1/2+x,1/2-y,-z
_cell_length_a                   6.5061(15)
_cell_length_b                   19.4832(12)
_cell_length_c                   20.573(8)
_cell_angle_alpha                90
_cell_angle_beta                 90
_cell_angle_gamma                90
_cell_volume                     2607.83
_exptl_crystal_colour            colorless
_exptl_crystal_description       block
_cell_formula_units_Z            4
loop_
_atom_site_label
_atom_site_type_symbol
_atom_site_fract_x
_atom_site_fract_y
_atom_site_fract_z
S1 S 0.8594(2) 0.74235(7) 0.21563(8)
O1 O 0.7648(6) 0.95299(18) 0.3751(2)
O2 O 1.1070(6) 0.92716(19) 0.36172(18)
N1 N 0.5727(7) 0.8335(2) 0.1859(2)
N2 N 0.8721(8) 0.8569(2) 0.3197(2)
H1 H 0.968(9) 0.832(3) 0.313(3)
C1 C 0.6891(8) 0.8058(3) 0.2320(3)
C2 C 0.6720(8) 0.8307(3) 0.3018(2)
H2 H 0.5706 0.8692 0.3035
C3 C 0.8981(10) 0.9154(3) 0.3548(3)
C4 C 1.1633(11) 0.9843(3) 0.4038(3)
H3 H 1.0534 1.0195 0.4030
H4 H 1.2916 1.0058 0.3878
C5 C 1.1944(9) 0.9594(3) 0.4725(3)
C6 C 1.0296(10) 0.9439(3) 0.5141(3)
H5 H 0.8929 0.9512 0.4994
C7 C 1.0620(10) 0.9185(3) 0.5756(3)
H6 H 0.9482 0.9081 0.6028
C8 C 1.2586(11) 0.9083(3) 0.5978(3)
H7 H 1.2811 0.8907 0.6403
C9 C 1.4233(10) 0.9237(3) 0.5581(3)
H8 H 1.5595 0.9171 0.5736
C10 C 1.3914(10) 0.9486(3) 0.4961(3)
H9 H 1.5062 0.9584 0.4691
C11 C 0.5993(9) 0.7732(3) 0.3487(3)
H10 H 0.6965 0.7336 0.3451
C12 C 0.3828(11) 0.7486(3) 0.3287(3)
H11 H 0.3376 0.7122 0.3583
H12 H 0.3870 0.7309 0.2841
H13 H 0.2865 0.7872 0.3310
C13 C 0.5984(11) 0.7976(3) 0.4175(3)
H14 H 0.4972 0.8305 0.4293
C14 C 0.7223(16) 0.7780(4) 0.4614(5)
H15 H 0.8258 0.7452 0.4516
H16 H 0.7114 0.7961 0.5042
C15 C 0.4289(8) 0.8924(2) 0.1964(3)
H17 H 0.3261 0.8811 0.2308
C16 C 0.3238(9) 0.8982(3) 0.1298(3)
H18 H 0.2042 0.8669 0.1269
H19 H 0.2773 0.9457 0.1215
C17 C 0.4913(9) 0.8772(3) 0.0823(3)
H20 H 0.5882 0.9155 0.0747
H21 H 0.4313 0.8629 0.0402
C18 C 0.6002(9) 0.8165(3) 0.1157(3)
H22 H 0.7498 0.8173 0.1045
C19 C 0.5470(8) 0.9585(2) 0.2141(3)
C20 C 0.4363(9) 1.0098(3) 0.2470(3)
H23 H 0.2965 1.0026 0.2585
C21 C 0.5328(11) 1.0712(3) 0.2626(3)
H24 H 0.4586 1.1058 0.2851
C22 C 0.7348(11) 1.0826(3) 0.2458(3)
H25 H 0.7988 1.1251 0.2558
C23 C 0.8447(10) 1.0311(3) 0.2139(3)
H26 H 0.9849 1.0382 0.2030
C24 C 0.7502(9) 0.9702(3) 0.1984(3)
H27 H 0.8261 0.9355 0.1765
C25 C 0.5082(9) 0.7473(3) 0.0965(2)
C26 C 0.6060(10) 0.7079(3) 0.0504(3)
H28 H 0.7325 0.7230 0.0324
C27 C 0.5207(10) 0.6456(3) 0.0298(3)
H29 H 0.5895 0.6188 -0.0020
C28 C 0.3377(10) 0.6232(3) 0.0555(3)
H30 H 0.2808 0.5807 0.0420
C29 C 0.2381(10) 0.6626(3) 0.1006(3)
H31 H 0.1094 0.6479 0.1174
C30 C 0.3234(9) 0.7238(3) 0.1221(3)
H32 H 0.2550 0.7499 0.1546
loop_
_geom_bond_atom_site_label_1
_geom_bond_atom_site_label_2
_geom_bond_site_symmetry_1
_geom_bond_site_symmetry_2
S1 C1 1_555 1_555
O1 C3 1_555 1_555
O2 C3 1_555 1_555
N1 C1 1_555 1_555
N2 H1 1_555 1_555
C1 C2 1_555 1_555
C2 N2 1_555 1_555
H2 C2 1_555 1_555
C3 N2 1_555 1_555
C4 O2 1_555 1_555
H3 C4 1_555 1_555
H4 C4 1_555 1_555
C5 C4 1_555 1_555
C6 C5 1_555 1_555
H5 C6 1_555 1_555
C7 C6 1_555 1_555
H6 C7 1_555 1_555
C8 C7 1_555 1_555
H7 C8 1_555 1_555
C9 C8 1_555 1_555
H8 C9 1_555 1_555
C10 C5 1_555 1_555
H9 C10 1_555 1_555
C11 C2 1_555 1_555
H10 C11 1_555 1_555
C12 C11 1_555 1_555
H11 C12 1_555 1_555
H12 C12 1_555 1_555
H13 C12 1_555 1_555
C13 C11 1_555 1_555
H14 C13 1_555 1_555
C14 C13 1_555 1_555
H15 C14 1_555 1_555
H16 C14 1_555 1_555
C15 N1 1_555 1_555
H17 C15 1_555 1_555
C16 C15 1_555 1_555
H18 C16 1_555 1_555
H19 C16 1_555 1_555
C17 C16 1_555 1_555
H20 C17 1_555 1_555
H21 C17 1_555 1_555
C18 N1 1_555 1_555
H22 C18 1_555 1_555
C19 C15 1_555 1_555
C20 C19 1_555 1_555
H23 C20 1_555 1_555
C21 C20 1_555 1_555
H24 C21 1_555 1_555
C22 C21 1_555 1_555
H25 C22 1_555 1_555
C23 C22 1_555 1_555
H26 C23 1_555 1_555
C24 C19 1_555 1_555
H27 C24 1_555 1_555
C25 C18 1_555 1_555
C26 C25 1_555 1_555
H28 C26 1_555 1_555
C27 C26 1_555 1_555
H29 C27 1_555 1_555
C28 C27 1_555 1_555
H30 C28 1_555 1_555
C29 C28 1_555 1_555
H31 C29 1_555 1_555
C30 C25 1_555 1_555
H32 C30 1_555 1_555
C9 C10 1_555 1_555
C17 C18 1_555 1_555
C23 C24 1_555 1_555
C29 C30 1_555 1_555

#END
