
#######################################################################
#
#                 Cambridge Crystallographic Data Centre
#                                CCDC 
#
#######################################################################
#
# If this CIF has been generated from an entry in the Cambridge 
# Structural Database, then it will include bibliographic, chemical, 
# crystal, experimental, refinement or atomic coordinate data resulting 
# from the CCDC's data processing and validation procedures.
#
#######################################################################

data_ROGVAL
_chemical_formula_moiety         'C12 H12 N2 O6'
_chemical_name_systematic        
'(Z)-Ethyl 1-nitro-2-(3-nitrophenyl)cyclopropanecarboxylate'
_symmetry_cell_setting           monoclinic
_symmetry_space_group_name_H-M   'P 21'
_symmetry_Int_Tables_number      4
_space_group_name_Hall           'P 2yb'
loop_
_symmetry_equiv_pos_site_id
_symmetry_equiv_pos_as_xyz
1 x,y,z
2 -x,1/2+y,-z
_cell_length_a                   7.493(2)
_cell_length_b                   9.953(3)
_cell_length_c                   8.579(2)
_cell_angle_alpha                90
_cell_angle_beta                 105.544(18)
_cell_angle_gamma                90
_cell_volume                     616.402
_exptl_crystal_description       block
_cell_formula_units_Z            2
loop_
_atom_site_label
_atom_site_type_symbol
_atom_site_fract_x
_atom_site_fract_y
_atom_site_fract_z
N1 N 0.0093(2) -0.03806(17) 1.37464(19)
N2 N 0.5605(2) 0.04817(17) 1.09796(18)
O1 O -0.0275(2) -0.00232(18) 1.49884(18)
O2 O 0.00636(19) -0.15526(15) 1.33150(17)
O3 O 0.6095(2) -0.06182(16) 1.15701(19)
O4 O 0.5986(2) 0.15422(15) 1.16979(17)
O5 O 0.71510(18) 0.14419(18) 0.86824(18)
O6 O 0.45390(18) 0.11208(14) 0.66764(15)
C1 C 0.0631(2) 0.06581(19) 1.2733(2)
C2 C 0.1209(2) 0.02409(19) 1.1408(2)
H1 H 0.1234 -0.0666 1.1154
C3 C 0.1748(2) 0.12129(19) 1.0469(2)
C4 C 0.1674(2) 0.2562(2) 1.0880(2)
H2 H 0.2021 0.3217 1.0246
C5 C 0.1092(3) 0.2945(2) 1.2214(2)
H3 H 0.1058 0.3850 1.2473
C6 C 0.0561(2) 0.1988(2) 1.3161(2)
H4 H 0.0168 0.2231 1.4062
C7 C 0.2417(2) 0.08642(19) 0.9027(2)
H5 H 0.1845 0.1382 0.8049
C8 C 0.4462(2) 0.05397(19) 0.9266(2)
C9 C 0.3012(3) -0.05195(19) 0.8725(2)
H6 H 0.2746 -0.0820 0.7610
H7 H 0.2931 -0.1214 0.9495
C10 C 0.5558(3) 0.1094(2) 0.8199(2)
C11 C 0.5431(3) 0.1621(2) 0.5463(2)
H8 H 0.4820 0.1242 0.4414
H9 H 0.6717 0.1340 0.5747
C12 C 0.5328(3) 0.3117(2) 0.5374(2)
H10 H 0.4064 0.3397 0.5199
H11 H 0.5791 0.3424 0.4495
H12 H 0.6064 0.3492 0.6370
loop_
_geom_bond_atom_site_label_1
_geom_bond_atom_site_label_2
_geom_bond_site_symmetry_1
_geom_bond_site_symmetry_2
N1 O1 1_555 1_555
N2 O3 1_555 1_555
O2 N1 1_555 1_555
O4 N2 1_555 1_555
O5 C10 1_555 1_555
O6 C10 1_555 1_555
C1 N1 1_555 1_555
C2 C1 1_555 1_555
H1 C2 1_555 1_555
C3 C2 1_555 1_555
C4 C3 1_555 1_555
H2 C4 1_555 1_555
C5 C4 1_555 1_555
H3 C5 1_555 1_555
C6 C1 1_555 1_555
H4 C6 1_555 1_555
C7 C3 1_555 1_555
H5 C7 1_555 1_555
C8 N2 1_555 1_555
C9 C7 1_555 1_555
H6 C9 1_555 1_555
H7 C9 1_555 1_555
C10 C8 1_555 1_555
C11 O6 1_555 1_555
H8 C11 1_555 1_555
H9 C11 1_555 1_555
C12 C11 1_555 1_555
H10 C12 1_555 1_555
H11 C12 1_555 1_555
H12 C12 1_555 1_555
C5 C6 1_555 1_555
C7 C8 1_555 1_555
C8 C9 1_555 1_555

#END
