
#######################################################################
#
#                 Cambridge Crystallographic Data Centre
#                                CCDC 
#
#######################################################################
#
# If this CIF has been generated from an entry in the Cambridge 
# Structural Database, then it will include bibliographic, chemical, 
# crystal, experimental, refinement or atomic coordinate data resulting 
# from the CCDC's data processing and validation procedures.
#
#######################################################################

data_ROHHON
_chemical_formula_moiety         'C28 H20 N2 O2'
_chemical_name_systematic        
(4-methoxyphenyl)(2-(3-phenylquinoxalin-2-yl)phenyl)methanone
_symmetry_cell_setting           monoclinic
_symmetry_space_group_name_H-M   'C 2/c'
_symmetry_Int_Tables_number      15
_space_group_name_Hall           '-C 2yn'
loop_
_symmetry_equiv_pos_site_id
_symmetry_equiv_pos_as_xyz
1 x,y,z
2 -x,y,1/2-z
3 1/2+x,1/2+y,z
4 1/2-x,1/2+y,1/2-z
5 -x,-y,-z
6 x,-y,1/2+z
7 1/2-x,1/2-y,-z
8 1/2+x,1/2-y,1/2+z
_cell_length_a                   28.766(2)
_cell_length_b                   10.9176(8)
_cell_length_c                   14.9704(18)
_cell_angle_alpha                90
_cell_angle_beta                 113.435(9)
_cell_angle_gamma                90
_cell_volume                     4313.72
_exptl_crystal_colour            colorless
_exptl_crystal_description       needle
_cell_formula_units_Z            8
_exptl_crystal_recrystallization_method chloroform
loop_
_atom_site_label
_atom_site_type_symbol
_atom_site_fract_x
_atom_site_fract_y
_atom_site_fract_z
N1 N 0.08483(8) 0.6364(2) 0.40937(15)
N2 N 0.06570(8) 0.8431(2) 0.28710(15)
C1 C 0.07100(10) 0.6245(3) 0.3110(2)
C2 C 0.06056(10) 0.7271(3) 0.24964(19)
C3 C 0.21353(10) 0.9426(2) 0.62776(19)
C4 C 0.08872(9) 0.7478(3) 0.44458(18)
C5 C 0.20094(10) 0.9997(2) 0.69751(19)
H1 H 0.1711 1.0448 0.6775
C6 C 0.08060(9) 0.8533(3) 0.38215(18)
C7 C 0.08840(10) 0.9822(2) 0.41854(17)
C8 C 0.18019(10) 0.9419(3) 0.5225(2)
C9 C 0.23109(10) 0.9922(2) 0.79604(19)
H2 H 0.2217 1.0311 0.8415
C10 C 0.13980(11) 1.1489(3) 0.50939(18)
H3 H 0.1709 1.1788 0.5526
C11 C 0.04758(10) 1.0628(3) 0.38249(18)
H4 H 0.0161 1.0339 0.3402
C12 C 0.27532(11) 0.9258(3) 0.8250(2)
C13 C 0.28963(11) 0.8690(3) 0.7572(2)
H5 H 0.3200 0.8260 0.7775
C14 C 0.05322(12) 1.1846(3) 0.40857(19)
H6 H 0.0257 1.2374 0.3835
C15 C 0.04623(11) 0.7112(3) 0.14934(19)
H7 H 0.0391 0.7791 0.1085
C16 C 0.05243(11) 0.4937(3) 0.1717(2)
H8 H 0.0493 0.4158 0.1449
C17 C 0.09931(12) 1.2281(3) 0.47138(19)
H9 H 0.1033 1.3106 0.4883
C18 C 0.04268(11) 0.5968(3) 0.1117(2)
H10 H 0.0337 0.5869 0.0452
C19 C 0.25904(11) 0.8761(3) 0.6602(2)
H11 H 0.2685 0.8364 0.6151
C20 C 0.06654(11) 0.5071(3) 0.2697(2)
H12 H 0.0732 0.4382 0.3094
C21 C 0.10272(10) 0.7606(3) 0.55077(18)
C22 C 0.07849(10) 0.8423(3) 0.5888(2)
H13 H 0.0521 0.8904 0.5471
C23 C 0.14092(11) 0.6879(3) 0.61484(19)
H14 H 0.1569 0.6309 0.5906
C24 C 0.13176(13) 0.7817(3) 0.7508(2)
H15 H 0.1417 0.7893 0.8178
C25 C 0.15563(12) 0.6989(3) 0.7142(2)
H16 H 0.1817 0.6503 0.7564
C26 C 0.09340(12) 0.8527(3) 0.6887(2)
H17 H 0.0772 0.9084 0.7135
O1 O 0.30816(7) 0.91068(18) 0.92025(14)
C27 C 0.29356(12) 0.9572(3) 0.9947(2)
H18 H 0.2878 1.0439 0.9861
H19 H 0.3201 0.9417 1.0574
H20 H 0.2630 0.9174 0.9906
O2 O 0.18842(7) 0.87346(19) 0.46570(14)
C28 C 0.13524(10) 1.0259(3) 0.48476(17)
loop_
_geom_bond_atom_site_label_1
_geom_bond_atom_site_label_2
_geom_bond_site_symmetry_1
_geom_bond_site_symmetry_2
N1 C1 1_555 1_555
N2 C2 1_555 1_555
C1 C2 1_555 1_555
C2 C15 1_555 1_555
C3 C5 1_555 1_555
C4 N1 1_555 1_555
C5 H1 1_555 1_555
C6 N2 1_555 1_555
C7 C6 1_555 1_555
C8 C3 1_555 1_555
C9 C5 1_555 1_555
H2 C9 1_555 1_555
C10 H3 1_555 1_555
C11 C7 1_555 1_555
H4 C11 1_555 1_555
C12 C9 1_555 1_555
C13 C12 1_555 1_555
H5 C13 1_555 1_555
C14 C11 1_555 1_555
H6 C14 1_555 1_555
C15 H7 1_555 1_555
C16 H8 1_555 1_555
C17 C10 1_555 1_555
H9 C17 1_555 1_555
C18 C15 1_555 1_555
H10 C18 1_555 1_555
C19 C3 1_555 1_555
H11 C19 1_555 1_555
C20 C1 1_555 1_555
H12 C20 1_555 1_555
C21 C4 1_555 1_555
C22 C21 1_555 1_555
H13 C22 1_555 1_555
C23 C21 1_555 1_555
H14 C23 1_555 1_555
C24 H15 1_555 1_555
C25 C23 1_555 1_555
H16 C25 1_555 1_555
C26 C22 1_555 1_555
H17 C26 1_555 1_555
O1 C12 1_555 1_555
C27 O1 1_555 1_555
H18 C27 1_555 1_555
H19 C27 1_555 1_555
H20 C27 1_555 1_555
O2 C8 1_555 1_555
C28 C7 1_555 1_555
C4 C6 1_555 1_555
C8 C28 1_555 1_555
C10 C28 1_555 1_555
C13 C19 1_555 1_555
C14 C17 1_555 1_555
C16 C18 1_555 1_555
C16 C20 1_555 1_555
C24 C25 1_555 1_555
C24 C26 1_555 1_555

#END
