
#######################################################################
#
#                 Cambridge Crystallographic Data Centre
#                                CCDC 
#
#######################################################################
#
# If this CIF has been generated from an entry in the Cambridge 
# Structural Database, then it will include bibliographic, chemical, 
# crystal, experimental, refinement or atomic coordinate data resulting 
# from the CCDC's data processing and validation procedures.
#
#######################################################################

data_ROHJIH
_chemical_compound_source        
'Sophora alopecuroides L. and Leptorhabdos parviflor Benth'
_chemical_name_common            Aloperine
_chemical_formula_moiety         'C15 H24 N2'
_chemical_name_systematic        
(6R,7R,9R,11S)-16,17-Didehydro-9-de-2-piperidinylormosanine
_symmetry_cell_setting           monoclinic
_symmetry_space_group_name_H-M   'P 21'
_symmetry_Int_Tables_number      4
_space_group_name_Hall           'P 2yb'
loop_
_symmetry_equiv_pos_site_id
_symmetry_equiv_pos_as_xyz
1 x,y,z
2 -x,1/2+y,-z
_cell_length_a                   9.006(2)
_cell_length_b                   6.6905(13)
_cell_length_c                   10.963(2)
_cell_angle_alpha                90
_cell_angle_beta                 97.415(14)
_cell_angle_gamma                90
_cell_volume                     655.048
_exptl_crystal_colour            colorless
_exptl_crystal_description       plate
_chemical_melting_point          343.8-345.0K
_cell_formula_units_Z            2
loop_
_atom_site_label
_atom_site_type_symbol
_atom_site_fract_x
_atom_site_fract_y
_atom_site_fract_z
N1 N 0.2129(2) 0.0089(3) 0.2749(2)
C1 C 0.1091(3) -0.0265(5) 0.3652(2)
C2 C 0.1846(4) -0.0266(6) 0.4990(2)
C3 C 0.2677(4) 0.1695(7) 0.5275(3)
C4 C 0.3768(3) 0.2060(5) 0.4343(2)
C5 C 0.2975(3) 0.1962(4) 0.3019(2)
C6 C 0.4032(3) 0.2333(4) 0.2054(2)
C7 C 0.5061(3) 0.0522(4) 0.1951(2)
C8 C 0.4068(3) -0.1263(4) 0.1575(2)
C9 C 0.3070(3) -0.1635(4) 0.2578(2)
C10 C 0.3236(3) -0.0892(4) 0.0277(2)
N2 N 0.1953(2) -0.2257(3) 0.0020(2)
C11 C 0.1204(3) -0.2038(4) -0.1243(2)
C12 C 0.0665(3) 0.0081(4) -0.1531(2)
C13 C 0.1933(3) 0.1589(4) -0.1250(2)
C14 C 0.2791(2) 0.1264(4) 0.0015(2)
C15 C 0.3150(3) 0.2724(4) 0.0812(2)
H1 H 0.0355(33) 0.0756(50) 0.3532(27)
H2 H 0.0523(41) -0.1501(57) 0.3449(31)
H3 H 0.2566(40) -0.1412(54) 0.5099(30)
H4 H 0.1096(39) -0.0386(55) 0.5500(30)
H5 H 0.3243(43) 0.1713(73) 0.6148(38)
H6 H 0.1940(42) 0.2882(74) 0.5238(34)
H7 H 0.4622(32) 0.1023(51) 0.4450(26)
H8 H 0.4127(46) 0.3481(66) 0.4466(35)
H9 H 0.2214(32) 0.2870(50) 0.2959(24)
H10 H 0.4632(34) 0.3585(47) 0.2296(26)
H11 H 0.5665(30) 0.0284(45) 0.2687(25)
H12 H 0.5750(32) 0.0767(49) 0.1339(26)
H13 H 0.4673(30) -0.2562(52) 0.1559(26)
H14 H 0.3798(30) -0.1964(48) 0.3333(25)
H15 H 0.2408(27) -0.2721(45) 0.2380(23)
H16 H 0.3947(32) -0.1252(46) -0.0296(26)
H17 H 0.1303(34) -0.1813(54) 0.0523(28)
H18 H 0.1909(29) -0.2317(49) -0.1820(25)
H19 H 0.0344(32) -0.2938(50) -0.1319(26)
H20 H 0.0231(32) 0.0153(51) -0.2442(26)
H21 H -0.0142(31) 0.0349(49) -0.1024(25)
H22 H 0.2558(32) 0.1488(52) -0.1827(27)
H23 H 0.1474(33) 0.2946(55) -0.1328(27)
H24 H 0.2799(34) 0.4014(48) 0.0600(25)
loop_
_geom_bond_atom_site_label_1
_geom_bond_atom_site_label_2
_geom_bond_site_symmetry_1
_geom_bond_site_symmetry_2
N1 C1 1_555 1_555
C1 C2 1_555 1_555
C2 C3 1_555 1_555
C3 C4 1_555 1_555
C4 C5 1_555 1_555
C5 N1 1_555 1_555
C6 C5 1_555 1_555
C7 C6 1_555 1_555
C8 C7 1_555 1_555
C9 N1 1_555 1_555
C10 C8 1_555 1_555
N2 C10 1_555 1_555
C11 N2 1_555 1_555
C12 C11 1_555 1_555
C13 C12 1_555 1_555
C14 C10 1_555 1_555
C15 C6 1_555 1_555
H1 C1 1_555 1_555
H2 C1 1_555 1_555
H3 C2 1_555 1_555
H4 C2 1_555 1_555
H5 C3 1_555 1_555
H6 C3 1_555 1_555
H7 C4 1_555 1_555
H8 C4 1_555 1_555
H9 C5 1_555 1_555
H10 C6 1_555 1_555
H11 C7 1_555 1_555
H12 C7 1_555 1_555
H13 C8 1_555 1_555
H14 C9 1_555 1_555
H15 C9 1_555 1_555
H16 C10 1_555 1_555
H17 N2 1_555 1_555
H18 C11 1_555 1_555
H19 C11 1_555 1_555
H20 C12 1_555 1_555
H21 C12 1_555 1_555
H22 C13 1_555 1_555
H23 C13 1_555 1_555
H24 C15 1_555 1_555
C8 C9 1_555 1_555
C13 C14 1_555 1_555
C14 C15 1_555 1_555

#END
