
#######################################################################
#
#                 Cambridge Crystallographic Data Centre
#                                CCDC 
#
#######################################################################
#
# If this CIF has been generated from an entry in the Cambridge 
# Structural Database, then it will include bibliographic, chemical, 
# crystal, experimental, refinement or atomic coordinate data resulting 
# from the CCDC's data processing and validation procedures.
#
#######################################################################

data_ROHKUV
_chemical_formula_moiety         'C28 H36 O4 Si1'
_chemical_name_systematic        
4,4'-(Dimethylsilylene-bis(1,4-phenylene))-bis(3,5-heptanedione)
_symmetry_cell_setting           triclinic
_symmetry_space_group_name_H-M   'P -1'
_symmetry_Int_Tables_number      2
_space_group_name_Hall           '-P 1'
loop_
_symmetry_equiv_pos_site_id
_symmetry_equiv_pos_as_xyz
1 x,y,z
2 -x,-y,-z
_cell_length_a                   9.845(2)
_cell_length_b                   16.663(3)
_cell_length_c                   17.247(4)
_cell_angle_alpha                68.294(10)
_cell_angle_beta                 89.725(8)
_cell_angle_gamma                83.072(9)
_cell_volume                     2607.08
_exptl_crystal_colour            colorless
_chemical_melting_point          '98-99 deg.C'
_cell_formula_units_Z            4
_exptl_crystal_recrystallization_method methanol
loop_
_atom_site_label
_atom_site_type_symbol
_atom_site_fract_x
_atom_site_fract_y
_atom_site_fract_z
Si1 Si 0.79954(9) 0.17282(6) 0.30603(5)
O1 O 0.7385(3) 0.39436(16) -0.21494(14)
O2 O 0.4911(2) 0.41317(14) -0.18186(14)
H1 H 0.628(5) 0.405(3) -0.220(3)
O3 O 0.8482(2) 0.57132(14) 0.47965(14)
O4 O 0.7112(3) 0.48468(16) 0.59015(14)
H2 H 0.775(5) 0.532(3) 0.550(3)
C1 C 0.6643(3) 0.1011(2) 0.34913(19)
H5 H 0.6928 0.0604 0.4058
H6 H 0.6505 0.0683 0.3135
H7 H 0.5784 0.1368 0.3508
C2 C 0.9701(3) 0.1063(2) 0.3213(2)
H8 H 1.0403 0.1447 0.2982
H9 H 0.9693 0.0654 0.2926
H10 H 0.9906 0.0738 0.3811
C3 C 0.7614(3) 0.2314(2) 0.19078(18)
C4 C 0.7536(3) 0.1827(2) 0.14054(19)
H11 H 0.7687 0.1210 0.1654
C5 C 0.7243(3) 0.2224(2) 0.05497(19)
H12 H 0.7193 0.1872 0.0228
C6 C 0.7021(3) 0.3121(2) 0.01586(18)
C7 C 0.7122(3) 0.3617(2) 0.06520(19)
H13 H 0.6991 0.4234 0.0400
C8 C 0.7412(3) 0.3216(2) 0.15057(19)
H14 H 0.7475 0.3569 0.1826
C9 C 0.9697(4) 0.2562(2) -0.1340(2)
H15 H 0.9255 0.2055 -0.1007
H16 H 1.0690 0.2429 -0.1228
H17 H 0.9492 0.2702 -0.1935
C10 C 0.9161(4) 0.3336(2) -0.1111(2)
H18 H 0.9330 0.3182 -0.0504
H19 H 0.9667 0.3832 -0.1412
C11 C 0.7666(4) 0.3606(2) -0.1322(2)
C12 C 0.6668(3) 0.3537(2) -0.07618(19)
C13 C 0.5250(4) 0.3841(2) -0.1053(2)
C14 C 0.4166(3) 0.3834(2) -0.0433(2)
H20 H 0.4383 0.4215 -0.0139
H21 H 0.4208 0.3235 -0.0011
C15 C 0.2721(3) 0.4128(2) -0.0802(2)
H22 H 0.2676 0.4706 -0.1245
H23 H 0.2098 0.4153 -0.0365
H24 H 0.2451 0.3714 -0.1036
C16 C 0.7976(3) 0.25314(19) 0.35883(18)
C17 C 0.9141(3) 0.2637(2) 0.39796(18)
H25 H 0.9985 0.2297 0.3972
C18 C 0.9105(3) 0.3225(2) 0.43798(18)
H26 H 0.9918 0.3274 0.4645
C19 C 0.7899(3) 0.3743(2) 0.43975(18)
C20 C 0.6730(3) 0.3649(2) 0.40089(19)
H27 H 0.5894 0.3999 0.4010
C21 C 0.6760(3) 0.3051(2) 0.36175(18)
H28 H 0.5941 0.2994 0.3365
C22 C 0.8187(4) 0.5852(3) 0.2921(2)
H29 H 0.7485 0.5481 0.2924
H30 H 0.8656 0.6001 0.2393
H31 H 0.7755 0.6387 0.2980
C23 C 0.9211(4) 0.5371(2) 0.3638(2)
H32 H 0.9644 0.4828 0.3582
H33 H 0.9939 0.5737 0.3625
C24 C 0.8518(3) 0.5155(2) 0.4451(2)
C25 C 0.7864(3) 0.4389(2) 0.48159(19)
C26 C 0.7204(3) 0.4261(2) 0.5548(2)
C27 C 0.6560(4) 0.3463(2) 0.6036(2)
H34 H 0.6984 0.3201 0.6608
H35 H 0.6738 0.3030 0.5768
C28 C 0.5032(4) 0.3675(3) 0.6083(2)
H36 H 0.4855 0.4084 0.6370
H37 H 0.4639 0.3139 0.6391
H38 H 0.4612 0.3940 0.5516
Si2 Si 0.24254(9) 0.33217(6) 0.21224(5)
O5 O 0.2423(3) -0.06930(15) 0.03397(16)
O6 O 0.3665(2) 0.03074(15) -0.07705(14)
H3 H 0.296(4) -0.036(3) -0.019(3)
O7 O 0.2762(3) 0.07504(15) 0.73116(13)
H4 H 0.383(5) 0.060(3) 0.739(3)
O8 O 0.5266(2) 0.06449(14) 0.70267(14)
C29 C 0.3771(3) 0.4051(2) 0.1727(2)
H39 H 0.4646 0.3700 0.1728
H40 H 0.3866 0.4378 0.2089
H41 H 0.3511 0.4458 0.1157
C30 C 0.0718(3) 0.3990(2) 0.19483(19)
H42 H 0.0522 0.4302 0.1348
H43 H 0.0719 0.4410 0.2223
H44 H 0.0014 0.3609 0.2183
C31 C 0.2505(3) 0.2527(2) 0.15875(18)
C32 C 0.1377(3) 0.2416(2) 0.11636(18)
H45 H 0.0521 0.2755 0.1145
C33 C 0.1484(3) 0.1820(2) 0.07678(19)
H46 H 0.0705 0.1765 0.0478
C34 C 0.2716(3) 0.1304(2) 0.07915(19)
C35 C 0.3843(3) 0.1399(2) 0.12189(18)
H47 H 0.4692 0.1048 0.1250
C36 C 0.3732(3) 0.2003(2) 0.16003(18)
H48 H 0.4519 0.2064 0.1881
C37 C -0.0001(4) -0.0248(2) 0.1291(2)
H49 H -0.0299 0.0372 0.0978
H50 H -0.0490 -0.0444 0.1811
H51 H -0.0202 -0.0583 0.0952
C38 C 0.1530(4) -0.0386(2) 0.1493(2)
H52 H 0.1733 -0.0043 0.1830
H53 H 0.1823 -0.1009 0.1828
C39 C 0.2317(4) -0.0114(2) 0.0712(2)
C40 C 0.2837(3) 0.0660(2) 0.03652(19)
C41 C 0.3531(3) 0.0847(2) -0.0408(2)
C42 C 0.4108(4) 0.1695(2) -0.0805(2)
H54 H 0.4898 0.1695 -0.0452
H55 H 0.3402 0.2175 -0.0813
C43 C 0.4573(4) 0.1880(3) -0.1691(2)
H56 H 0.5243 0.1397 -0.1697
H57 H 0.4996 0.2420 -0.1887
H58 H 0.3781 0.1943 -0.2061
C44 C 0.2781(3) 0.2698(2) 0.32720(18)
C45 C 0.2842(3) 0.3142(2) 0.38201(19)
H59 H 0.2708 0.3761 0.3598
C46 C 0.3088(3) 0.2714(2) 0.46677(19)
H60 H 0.3131 0.3040 0.5015
C47 C 0.3277(3) 0.1806(2) 0.50224(18)
C48 C 0.3213(3) 0.1354(2) 0.44906(19)
H61 H 0.3342 0.0736 0.4716
C49 C 0.2964(3) 0.1791(2) 0.36376(18)
H62 H 0.2918 0.1463 0.3292
C50 C 0.0467(4) 0.2187(2) 0.6532(2)
H63 H 0.0654 0.2010 0.7134
H64 H -0.0524 0.2319 0.6411
H65 H 0.0905 0.2707 0.6231
C51 C 0.1038(3) 0.1448(2) 0.6252(2)
H66 H 0.0528 0.0944 0.6513
H67 H 0.0903 0.1642 0.5639
C52 C 0.2522(3) 0.1176(2) 0.6489(2)
C53 C 0.3567(3) 0.1331(2) 0.59448(19)
C54 C 0.4973(3) 0.1034(2) 0.6265(2)
C55 C 0.6109(3) 0.1206(2) 0.5656(2)
H68 H 0.5971 0.0923 0.5255
H69 H 0.6044 0.1841 0.5337
C56 C 0.7529(3) 0.0885(3) 0.6060(2)
H70 H 0.7696 0.1184 0.6437
H71 H 0.8207 0.1006 0.5626
H72 H 0.7607 0.0256 0.6377
loop_
_geom_bond_atom_site_label_1
_geom_bond_atom_site_label_2
_geom_bond_site_symmetry_1
_geom_bond_site_symmetry_2
Si1 C1 1_555 1_555
Si2 C29 1_555 1_555
O1 H1 1_555 1_555
O2 C13 1_555 1_555
O3 C24 1_555 1_555
O4 H2 1_555 1_555
O5 H3 1_555 1_555
O6 C41 1_555 1_555
O7 H4 1_555 1_555
O8 C54 1_555 1_555
C1 H5 1_555 1_555
H6 C1 1_555 1_555
H7 C1 1_555 1_555
C2 Si1 1_555 1_555
H8 C2 1_555 1_555
H9 C2 1_555 1_555
H10 C2 1_555 1_555
C3 Si1 1_555 1_555
C4 C3 1_555 1_555
H11 C4 1_555 1_555
C5 C4 1_555 1_555
H12 C5 1_555 1_555
C6 C5 1_555 1_555
C7 C6 1_555 1_555
H13 C7 1_555 1_555
C8 C3 1_555 1_555
H14 C8 1_555 1_555
C9 H15 1_555 1_555
H16 C9 1_555 1_555
H17 C9 1_555 1_555
C10 C9 1_555 1_555
H18 C10 1_555 1_555
H19 C10 1_555 1_555
C11 O1 1_555 1_555
C12 C6 1_555 1_555
C13 C12 1_555 1_555
C14 C13 1_555 1_555
H20 C14 1_555 1_555
H21 C14 1_555 1_555
C15 C14 1_555 1_555
H22 C15 1_555 1_555
H23 C15 1_555 1_555
H24 C15 1_555 1_555
C16 Si1 1_555 1_555
C17 C16 1_555 1_555
H25 C17 1_555 1_555
C18 C17 1_555 1_555
H26 C18 1_555 1_555
C19 C18 1_555 1_555
C20 C19 1_555 1_555
H27 C20 1_555 1_555
C21 C16 1_555 1_555
H28 C21 1_555 1_555
C22 H29 1_555 1_555
H30 C22 1_555 1_555
H31 C22 1_555 1_555
C23 C22 1_555 1_555
H32 C23 1_555 1_555
H33 C23 1_555 1_555
C24 C23 1_555 1_555
C25 C19 1_555 1_555
C26 O4 1_555 1_555
C27 C26 1_555 1_555
H34 C27 1_555 1_555
H35 C27 1_555 1_555
C28 C27 1_555 1_555
H36 C28 1_555 1_555
H37 C28 1_555 1_555
H38 C28 1_555 1_555
C29 H39 1_555 1_555
H40 C29 1_555 1_555
H41 C29 1_555 1_555
C30 Si2 1_555 1_555
H42 C30 1_555 1_555
H43 C30 1_555 1_555
H44 C30 1_555 1_555
C31 Si2 1_555 1_555
C32 C31 1_555 1_555
H45 C32 1_555 1_555
C33 C32 1_555 1_555
H46 C33 1_555 1_555
C34 C33 1_555 1_555
C35 C34 1_555 1_555
H47 C35 1_555 1_555
C36 C31 1_555 1_555
H48 C36 1_555 1_555
C37 H49 1_555 1_555
H50 C37 1_555 1_555
H51 C37 1_555 1_555
C38 C37 1_555 1_555
H52 C38 1_555 1_555
H53 C38 1_555 1_555
C39 O5 1_555 1_555
C40 C34 1_555 1_555
C41 C40 1_555 1_555
C42 C41 1_555 1_555
H54 C42 1_555 1_555
H55 C42 1_555 1_555
C43 C42 1_555 1_555
H56 C43 1_555 1_555
H57 C43 1_555 1_555
H58 C43 1_555 1_555
C44 Si2 1_555 1_555
C45 C44 1_555 1_555
H59 C45 1_555 1_555
C46 C45 1_555 1_555
H60 C46 1_555 1_555
C47 C46 1_555 1_555
C48 C47 1_555 1_555
H61 C48 1_555 1_555
C49 C44 1_555 1_555
H62 C49 1_555 1_555
C50 H63 1_555 1_555
H64 C50 1_555 1_555
H65 C50 1_555 1_555
C51 C50 1_555 1_555
H66 C51 1_555 1_555
H67 C51 1_555 1_555
C52 O7 1_555 1_555
C53 C47 1_555 1_555
C54 C53 1_555 1_555
C55 C54 1_555 1_555
H68 C55 1_555 1_555
H69 C55 1_555 1_555
C56 C55 1_555 1_555
H70 C56 1_555 1_555
H71 C56 1_555 1_555
H72 C56 1_555 1_555
C7 C8 1_555 1_555
C10 C11 1_555 1_555
C11 C12 1_555 1_555
C20 C21 1_555 1_555
C24 C25 1_555 1_555
C25 C26 1_555 1_555
C35 C36 1_555 1_555
C38 C39 1_555 1_555
C39 C40 1_555 1_555
C48 C49 1_555 1_555
C51 C52 1_555 1_555
C52 C53 1_555 1_555

#END
