
#######################################################################
#
#                 Cambridge Crystallographic Data Centre
#                                CCDC 
#
#######################################################################
#
# If this CIF has been generated from an entry in the Cambridge 
# Structural Database, then it will include bibliographic, chemical, 
# crystal, experimental, refinement or atomic coordinate data resulting 
# from the CCDC's data processing and validation procedures.
#
#######################################################################

data_ROHLEH
_chemical_formula_moiety         'C34 H31 N5'
_chemical_name_systematic        
8,9-Dibenzyl-3,14-dimethyl-8,8a-dihydro-9H-imidazo[1,2-a]imidazo[2',1':2,3]benzimidazo[2,1-c]quinoxaline
_symmetry_cell_setting           triclinic
_symmetry_space_group_name_H-M   'P -1'
_symmetry_Int_Tables_number      2
_space_group_name_Hall           '-P 1'
loop_
_symmetry_equiv_pos_site_id
_symmetry_equiv_pos_as_xyz
1 x,y,z
2 -x,-y,-z
_cell_length_a                   11.2251(15)
_cell_length_b                   11.6238(15)
_cell_length_c                   12.226(3)
_cell_angle_alpha                101.367(2)
_cell_angle_beta                 98.260(2)
_cell_angle_gamma                115.223(2)
_cell_volume                     1367.42
_exptl_crystal_colour            colorless
_exptl_crystal_description       block
_cell_formula_units_Z            2
loop_
_atom_site_label
_atom_site_type_symbol
_atom_site_fract_x
_atom_site_fract_y
_atom_site_fract_z
C1 C 0.51400(14) -0.28876(14) 0.39724(10)
C2 C 0.40311(11) -0.34475(14) 0.44267(12)
H1 H 0.3170 -0.3623 0.4036
C3 C 0.42090(15) -0.37453(14) 0.54655(12)
H2 H 0.3467 -0.4120 0.5770
C4 C 0.54957(19) -0.34831(16) 0.60501(10)
H3 H 0.5615 -0.3682 0.6745
C5 C 0.66045(14) -0.29231(17) 0.55958(13)
H4 H 0.7465 -0.2748 0.5987
C6 C 0.64267(12) -0.26254(16) 0.45569(13)
H5 H 0.7169 -0.2251 0.4253
C7 C 1.0381(3) 0.3910(3) 0.5619(2)
H6 H 1.0934 0.4370 0.5192
C8 C 1.0712(4) 0.4438(3) 0.6798(3)
H7 H 1.1477 0.5255 0.7158
C9 C 0.9930(3) 0.3776(3) 0.7438(2)
H8 H 1.0152 0.4141 0.8233
C10 C 0.8810(3) 0.2566(3) 0.6910(2)
H9 H 0.8278 0.2102 0.7348
C11 C 0.8471(2) 0.2035(2) 0.57226(18)
H10 H 0.7712 0.1211 0.5368
C12 C 0.9243(2) 0.2711(2) 0.50645(17)
C13 C 0.8842(2) 0.21822(19) 0.37651(17)
H11 H 0.8092 0.2330 0.3452
H12 H 0.9605 0.2664 0.3467
C14 C 0.9390(2) 0.0341(2) 0.36949(17)
H13 H 1.0111 0.0779 0.4355
C15 C 0.9148(2) -0.0752(2) 0.29448(17)
H14 H 0.9657 -0.1204 0.2998
C16 C 0.76120(18) -0.00645(17) 0.22304(14)
C17 C 0.81217(18) -0.13628(19) 0.08751(16)
C18 C 0.82839(19) -0.2383(2) 0.02450(17)
H15 H 0.8324 -0.3030 0.0569
C19 C 0.8387(2) -0.2434(2) -0.08821(18)
C20 C 0.8344(2) -0.1442(2) -0.13161(17)
H16 H 0.8433 -0.1463 -0.2063
C21 C 0.81742(19) -0.0413(2) -0.06912(16)
H17 H 0.8140 0.0237 -0.1014
C22 C 0.80569(17) -0.03801(18) 0.04208(15)
C23 C 0.8517(3) -0.3568(3) -0.1609(2)
H18 H 0.7690 -0.4128 -0.2206
H19 H 0.8680 -0.4076 -0.1131
H20 H 0.9264 -0.3219 -0.1952
C24 C 0.72922(18) 0.13342(18) 0.10142(14)
C25 C 0.7801(2) 0.22127(19) 0.03748(16)
H21 H 0.8503 0.2225 0.0047
C26 C 0.7280(2) 0.3072(2) 0.02183(17)
H22 H 0.7624 0.3639 -0.0227
C27 C 0.6259(2) 0.30977(19) 0.07128(17)
C28 C 0.57279(19) 0.22112(19) 0.13372(17)
H23 H 0.5030 0.2211 0.1665
C29 C 0.62183(18) 0.13171(17) 0.14850(15)
C30 C 0.5723(3) 0.4071(2) 0.0591(2)
H24 H 0.6097 0.4784 0.1294
H25 H 0.4747 0.3625 0.0437
H26 H 0.5983 0.4420 -0.0035
C31 C 0.4895(2) 0.0412(2) 0.28871(19)
H27 H 0.4481 0.0952 0.3019
C32 C 0.4819(2) -0.0505(2) 0.34005(18)
H28 H 0.4309 -0.0723 0.3933
C33 C 0.60750(18) -0.06134(18) 0.21058(15)
H29 H 0.5578 -0.1319 0.1375
C34 C 0.5005(2) -0.25486(19) 0.28529(17)
H30 H 0.5461 -0.2896 0.2371
H31 H 0.4050 -0.2966 0.2448
N1 N 0.84384(15) 0.07754(15) 0.33900(12)
N2 N 0.79762(16) -0.11508(16) 0.20252(13)
N3 N 0.79050(15) 0.05350(15) 0.12674(12)
N4 N 0.57000(16) 0.04368(16) 0.21129(14)
N5 N 0.55983(16) -0.11126(15) 0.30475(13)
loop_
_geom_bond_atom_site_label_1
_geom_bond_atom_site_label_2
_geom_bond_site_symmetry_1
_geom_bond_site_symmetry_2
C1 C2 1_555 1_555
C2 H1 1_555 1_555
C3 C2 1_555 1_555
H2 C3 1_555 1_555
C4 C3 1_555 1_555
H3 C4 1_555 1_555
C5 C4 1_555 1_555
H4 C5 1_555 1_555
C6 C1 1_555 1_555
H5 C6 1_555 1_555
C7 H6 1_555 1_555
C8 C7 1_555 1_555
H7 C8 1_555 1_555
C9 C8 1_555 1_555
H8 C9 1_555 1_555
C10 C9 1_555 1_555
H9 C10 1_555 1_555
C11 C10 1_555 1_555
H10 C11 1_555 1_555
C12 C7 1_555 1_555
C13 C12 1_555 1_555
H11 C13 1_555 1_555
H12 C13 1_555 1_555
C14 H13 1_555 1_555
C15 C14 1_555 1_555
H14 C15 1_555 1_555
C16 C33 1_555 1_555
C17 C18 1_555 1_555
C18 H15 1_555 1_555
C19 C18 1_555 1_555
C20 C19 1_555 1_555
H16 C20 1_555 1_555
C21 C20 1_555 1_555
H17 C21 1_555 1_555
C22 C17 1_555 1_555
C23 C19 1_555 1_555
H18 C23 1_555 1_555
H19 C23 1_555 1_555
H20 C23 1_555 1_555
C24 C25 1_555 1_555
C25 H21 1_555 1_555
C26 C25 1_555 1_555
H22 C26 1_555 1_555
C27 C26 1_555 1_555
C28 C27 1_555 1_555
H23 C28 1_555 1_555
C29 C24 1_555 1_555
C30 C27 1_555 1_555
H24 C30 1_555 1_555
H25 C30 1_555 1_555
H26 C30 1_555 1_555
C31 H27 1_555 1_555
C32 C31 1_555 1_555
H28 C32 1_555 1_555
C33 H29 1_555 1_555
C34 C1 1_555 1_555
H30 C34 1_555 1_555
H31 C34 1_555 1_555
N1 C13 1_555 1_555
N2 C15 1_555 1_555
N3 C16 1_555 1_555
N4 C29 1_555 1_555
N5 C32 1_555 1_555
C5 C6 1_555 1_555
C11 C12 1_555 1_555
C14 N1 1_555 1_555
C16 N1 1_555 1_555
C16 N2 1_555 1_555
C17 N2 1_555 1_555
C21 C22 1_555 1_555
C22 N3 1_555 1_555
C24 N3 1_555 1_555
C28 C29 1_555 1_555
C31 N4 1_555 1_555
C33 N4 1_555 1_555
C33 N5 1_555 1_555
C34 N5 1_555 1_555

#END
