
#######################################################################
#
#                 Cambridge Crystallographic Data Centre
#                                CCDC 
#
#######################################################################
#
# If this CIF has been generated from an entry in the Cambridge 
# Structural Database, then it will include bibliographic, chemical, 
# crystal, experimental, refinement or atomic coordinate data resulting 
# from the CCDC's data processing and validation procedures.
#
#######################################################################

data_ROHLEG
_chemical_formula_moiety         'C40 H48 O6 Si1'
_chemical_name_systematic        
4,4',4''-(Methylsilylidyne-tris(1,4-phenylene))-tris(3,5-heptanedione)
_symmetry_cell_setting           triclinic
_symmetry_space_group_name_H-M   'P -1'
_symmetry_Int_Tables_number      2
_space_group_name_Hall           '-P 1'
loop_
_symmetry_equiv_pos_site_id
_symmetry_equiv_pos_as_xyz
1 x,y,z
2 -x,-y,-z
_cell_length_a                   13.336(2)
_cell_length_b                   22.955(3)
_cell_length_c                   25.885(4)
_cell_angle_alpha                70.796(8)
_cell_angle_beta                 78.854(8)
_cell_angle_gamma                89.768(9)
_cell_volume                     7326.85
_exptl_crystal_colour            colorless
_exptl_crystal_description       plate
_chemical_melting_point          '130-132 deg.C'
_cell_formula_units_Z            8
_exptl_crystal_recrystallization_method methanol
loop_
_atom_site_label
_atom_site_type_symbol
_atom_site_fract_x
_atom_site_fract_y
_atom_site_fract_z
Si1 Si 0.42092(13) 0.29520(8) 0.25915(7)
O1 O 0.0090(3) 0.1648(2) 0.56329(17)
O2 O -0.0307(4) 0.0840(2) 0.52464(19)
H1 H -0.030 0.111 0.546
O3 O 0.0508(3) 0.4955(2) 0.04843(18)
H2 H 0.084 0.481 0.0192
O4 O 0.1408(3) 0.4359(2) -0.01132(17)
O5 O 0.8011(4) 0.5896(2) 0.2373(2)
O6 O 0.8543(4) 0.5168(2) 0.3163(2)
C1 C 0.4910(4) 0.2345(3) 0.2365(2)
H3 H 0.4418 0.2055 0.2325
H4 H 0.5301 0.2122 0.2646
H5 H 0.5380 0.2539 0.2006
C2 C 0.3273(4) 0.2578(3) 0.3262(2)
C3 C 0.3403(4) 0.2007(3) 0.3640(2)
H6 H 0.4018 0.1811 0.3568
C4 C 0.2672(5) 0.1709(3) 0.4121(2)
H7 H 0.2797 0.1319 0.4368
C5 C 0.1761(5) 0.1979(3) 0.4239(2)
C6 C 0.1621(5) 0.2556(3) 0.3868(2)
H8 H 0.1010 0.2754 0.3943
C7 C 0.2354(5) 0.2844(3) 0.3394(2)
H9 H 0.2231 0.3236 0.3150
C8 C 0.1423(5) 0.2431(3) 0.5185(2)
H10 H 0.1254 0.2804 0.4899
H11 H 0.2152 0.2361 0.5067
C9 C 0.0782(5) 0.1892(3) 0.5207(3)
C10 C 0.0965(5) 0.1650(3) 0.4747(2)
C11 C 0.0414(5) 0.1128(3) 0.4788(3)
C12 C 0.0554(5) 0.0807(3) 0.4370(3)
H12 H 0.0871 0.0412 0.4519
H13 H 0.1029 0.1066 0.4027
C13 C 0.3465(4) 0.3374(3) 0.2058(2)
C14 C 0.3711(4) 0.3992(3) 0.1702(2)
H14 H 0.4271 0.4217 0.1742
C15 C 0.3163(4) 0.4277(3) 0.1301(2)
H15 H 0.3347 0.4695 0.1072
C16 C 0.2328(4) 0.3959(3) 0.1223(2)
C17 C 0.2071(5) 0.3359(3) 0.1574(2)
H16 H 0.1509 0.3135 0.1536
C18 C 0.2618(4) 0.3079(3) 0.1980(2)
H17 H 0.2411 0.2667 0.2218
C19 C 0.0754(5) 0.4814(3) 0.1393(3)
H18 H 0.1299 0.5103 0.1396
H19 H 0.0765 0.4421 0.1700
C20 C 0.0983(4) 0.4694(3) 0.0855(3)
C21 C 0.1762(4) 0.4263(3) 0.0778(2)
C22 C 0.1925(5) 0.4110(3) 0.0299(3)
C23 C 0.2651(5) 0.3647(3) 0.0185(3)
H20 H 0.3084 0.3534 0.0470
H21 H 0.3107 0.3836 -0.0185
C24 C 0.5134(4) 0.3510(3) 0.2673(2)
C25 C 0.6063(4) 0.3706(3) 0.2296(2)
H22 H 0.6235 0.3538 0.2003
C26 C 0.6744(5) 0.4137(3) 0.2330(2)
H23 H 0.7370 0.4257 0.2065
C27 C 0.6518(5) 0.4398(3) 0.2753(3)
C28 C 0.5607(5) 0.4190(3) 0.3143(3)
H24 H 0.5445 0.4346 0.3445
C29 C 0.4933(5) 0.3761(3) 0.3100(3)
H25 H 0.4314 0.3633 0.3371
C30 C 0.6667(6) 0.5694(3) 0.1974(3)
H26 H 0.6175 0.5349 0.2020
H27 H 0.6268 0.6032 0.2049
C31 C 0.7330(5) 0.5477(3) 0.2391(3)
C32 C 0.7255(5) 0.4875(3) 0.2781(3)
C33 C 0.7860(5) 0.4758(3) 0.3186(3)
C34 C 0.7750(7) 0.4161(3) 0.3668(3)
H28 H 0.7090 0.3938 0.3709
H29 H 0.8307 0.3897 0.3590
C35 C 0.1284(5) 0.2548(3) 0.5736(3)
H30 H 0.1730 0.2906 0.5692
H31 H 0.1462 0.2184 0.6021
H32 H 0.0569 0.2631 0.5851
C36 C -0.0465(6) 0.0673(3) 0.4217(3)
H33 H -0.0334 0.0453 0.3947
H34 H -0.0768 0.1064 0.4053
H35 H -0.0939 0.0417 0.4555
C37 C -0.0274(5) 0.5085(3) 0.1500(3)
H36 H -0.0386 0.5143 0.1865
H37 H -0.0820 0.4802 0.1498
H38 H -0.0281 0.5485 0.1208
C38 C 0.2085(6) 0.3056(3) 0.0195(3)
H39 H 0.2586 0.2768 0.0116
H40 H 0.1661 0.3166 -0.0089
H41 H 0.1647 0.2861 0.0565
C39 C 0.7236(6) 0.5914(4) 0.1397(3)
H42 H 0.6757 0.6054 0.1144
H43 H 0.7614 0.5578 0.1314
H44 H 0.7719 0.6259 0.1345
C40 C 0.7790(6) 0.4271(4) 0.4199(3)
H45 H 0.7724 0.3874 0.4503
H46 H 0.7227 0.4522 0.4283
H47 H 0.8445 0.4489 0.4161
Si2 Si 0.44097(12) 0.79792(7) 0.24717(7)
O7 O 0.0474(3) 0.6854(2) 0.55799(18)
H48 H 0.012 0.651 0.556
O8 O -0.0056(4) 0.6060(2) 0.52301(19)
O9 O 0.0624(3) 0.99863(19) 0.04419(18)
O10 O 0.1677(4) 0.9594(3) -0.0261(2)
H49 H 0.118 0.974 -0.003
O11 O 0.8249(4) 1.09414(19) 0.21233(19)
O12 O 0.8671(4) 1.0254(2) 0.30031(19)
H50 H 0.868 1.053 0.2637
C41 C 0.5097(4) 0.7338(3) 0.2286(3)
H51 H 0.5587 0.7512 0.1930
H52 H 0.4599 0.7049 0.2249
H53 H 0.5463 0.7120 0.2580
C42 C 0.3468(4) 0.7650(3) 0.3150(2)
C43 C 0.3629(4) 0.7108(3) 0.3553(2)
H54 H 0.4240 0.6906 0.3488
C44 C 0.2924(4) 0.6851(3) 0.4051(2)
H55 H 0.3057 0.6478 0.4319
C45 C 0.2020(4) 0.7138(3) 0.4160(2)
C46 C 0.1866(5) 0.7688(3) 0.3765(2)
H56 H 0.1263 0.7895 0.3837
C47 C 0.2561(4) 0.7942(3) 0.3273(2)
H57 H 0.2431 0.8321 0.3010
C48 C 0.1797(5) 0.7628(3) 0.5094(3)
H58 H 0.1668 0.7992 0.4785
H59 H 0.2521 0.7534 0.5001
C49 C 0.1124(4) 0.7091(3) 0.5140(2)
C50 C 0.1238(5) 0.6850(3) 0.4687(2)
C51 C 0.0651(5) 0.6328(3) 0.4756(3)
C52 C 0.0700(7) 0.5994(4) 0.4352(3)
H60 H 0.1043 0.6266 0.3975
H61 H -0.0001 0.5873 0.4334
C53 C 0.3700(4) 0.8408(3) 0.1918(2)
C54 C 0.3909(4) 0.9033(3) 0.1610(2)
H62 H 0.4428 0.9257 0.1686
C55 C 0.3388(4) 0.9339(3) 0.1198(2)
H63 H 0.3571 0.9763 0.0988
C56 C 0.2590(4) 0.9033(3) 0.1085(2)
C57 C 0.2363(4) 0.8414(3) 0.1400(2)
H64 H 0.1826 0.8194 0.1335
C58 C 0.2894(4) 0.8111(3) 0.1803(2)
H65 H 0.2710 0.7688 0.2012
C59 C 0.0945(5) 0.9787(3) 0.1362(2)
H66 H 0.1480 1.0074 0.1379
H67 H 0.0986 0.9379 0.1645
C60 C 0.1155(5) 0.9724(3) 0.0796(3)
C61 C 0.2000(5) 0.9355(3) 0.0655(2)
C62 C 0.2224(5) 0.9323(4) 0.0127(3)
C63 C 0.3094(6) 0.8993(4) -0.0085(3)
H68 H 0.2882 0.8776 -0.0324
H69 H 0.3329 0.8686 0.0230
C64 C 0.5359(4) 0.8547(3) 0.2522(2)
C65 C 0.6362(4) 0.8636(3) 0.2229(2)
H70 H 0.6595 0.8383 0.2009
C66 C 0.7033(4) 0.9081(3) 0.2247(2)
H71 H 0.7708 0.9137 0.2029
C67 C 0.6753(4) 0.9445(3) 0.2570(2)
C68 C 0.5767(6) 0.9364(4) 0.2862(3)
H72 H 0.5542 0.9623 0.3076
C69 C 0.5076(5) 0.8912(3) 0.2853(3)
H73 H 0.4406 0.8854 0.3077
C70 C 0.7085(7) 1.0657(3) 0.1653(4)
H74 H 0.7613 1.0687 0.1317
H75 H 0.6590 1.0310 0.1711
C71 C 0.7598(5) 1.0497(3) 0.2146(3)
C72 C 0.7474(5) 0.9940(3) 0.2573(2)
C73 C 0.8004(5) 0.9845(3) 0.3010(3)
C74 C 0.7809(9) 0.9275(4) 0.3513(4)
H76 H 0.7088 0.9124 0.3574
H77 H 0.8243 0.8956 0.3424
C75 C 0.1623(5) 0.7784(4) 0.5628(3)
H78 H 0.2070 0.8145 0.5574
H79 H 0.1781 0.7431 0.5931
H80 H 0.0907 0.7875 0.5723
C76 C 0.1296(8) 0.5419(4) 0.4536(4)
H81 H 0.1325 0.5195 0.4271
H82 H 0.0953 0.5152 0.4909
H83 H 0.1993 0.5542 0.4546
C77 C -0.0109(5) 1.0029(3) 0.1504(3)
H84 H -0.0207 1.0065 0.1877
H85 H -0.0643 0.9741 0.1498
H86 H -0.0151 1.0435 0.1228
C78 C 0.4049(7) 0.9552(5) -0.0464(4)
H87 H 0.4642 0.9361 -0.0615
H88 H 0.4249 0.9762 -0.0222
H89 H 0.3803 0.9853 -0.0773
C79 C 0.6576(8) 1.1193(5) 0.1542(5)
H90 H 0.6283 1.1251 0.1210
H91 H 0.7056 1.1544 0.1474
H92 H 0.6026 1.1164 0.1862
C80 C 0.7975(6) 0.9311(3) 0.4020(3)
H93 H 0.7809 0.8905 0.4312
H94 H 0.7536 0.9614 0.4126
H95 H 0.8695 0.9439 0.3979
Si3 Si -0.10996(13) 0.25922(8) 0.25586(7)
O13 O -0.3610(4) 0.4219(3) -0.0262(2)
H96 H -0.303 0.418 -0.052
O14 O -0.2042(4) 0.3860(2) -0.06797(18)
O15 O -0.6100(4) 0.0291(2) 0.4667(2)
H97 H -0.588 0.045 0.492
O16 O -0.5645(4) 0.0739(2) 0.5317(2)
O17 O 0.3063(4) -0.0109(3) 0.2464(3)
H98 H 0.352 0.017 0.216
O18 O 0.3954(4) 0.0789(2) 0.1668(2)
C81 C -0.0618(5) 0.3232(3) 0.2764(3)
H99 H -0.1170 0.3505 0.2810
H100 H -0.0044 0.3469 0.2473
H101 H -0.0387 0.3057 0.3118
C82 C -0.1521(4) 0.2928(3) 0.1879(2)
C83 C -0.1116(5) 0.3503(3) 0.1493(2)
H102 H -0.0622 0.3730 0.1583
C84 C -0.1412(5) 0.3749(3) 0.0990(2)
H103 H -0.1116 0.4142 0.0742
C85 C -0.2132(5) 0.3441(3) 0.0831(2)
C86 C -0.2534(5) 0.2874(3) 0.1211(2)
H104 H -0.3026 0.2646 0.1121
C87 C -0.2240(4) 0.2630(3) 0.1720(2)
H105 H -0.2547 0.2241 0.1970
C88 C -0.4111(6) 0.4108(4) 0.0696(3)
H106 H -0.3985 0.3841 0.1062
H107 H -0.4812 0.4002 0.0668
C89 C -0.3327(6) 0.4006(4) 0.0222(3)
C90 C -0.2431(5) 0.3701(3) 0.0283(2)
C91 C -0.1803(5) 0.3662(3) -0.0199(3)
C92 C -0.0762(6) 0.3397(4) -0.0175(3)
H108 H -0.0825 0.3039 0.0173
H109 H -0.0282 0.3713 -0.0156
C93 C -0.2206(4) 0.2128(3) 0.3107(2)
C94 C -0.3071(4) 0.2400(3) 0.3307(2)
H110 H -0.3109 0.2835 0.3157
C95 C -0.3869(5) 0.2053(3) 0.3718(2)
H111 H -0.4441 0.2255 0.3842
C96 C -0.3855(5) 0.1419(3) 0.3951(2)
C97 C -0.3002(5) 0.1139(3) 0.3756(2)
H112 H -0.2972 0.0703 0.3909
C98 C -0.2200(5) 0.1481(3) 0.3345(2)
H113 H -0.1632 0.1275 0.3221
C99 C -0.5201(5) 0.0527(3) 0.3728(3)
H114 H -0.4728 0.0194 0.3727
H115 H -0.4876 0.0910 0.3432
C100 C -0.5332(5) 0.0625(3) 0.4278(3)
C101 C -0.4719(5) 0.1036(3) 0.4392(3)
C102 C -0.4907(5) 0.1072(3) 0.4937(3)
C103 C -0.4231(6) 0.1440(4) 0.5116(3)
H116 H -0.3564 0.1248 0.5116
H117 H -0.4105 0.1857 0.4830
C104 C -0.0053(4) 0.2070(3) 0.2469(2)
C105 C 0.0622(5) 0.1889(3) 0.2835(3)
H118 H 0.0546 0.2033 0.3144
C106 C 0.1404(5) 0.1502(3) 0.2761(3)
H119 H 0.1847 0.1385 0.3020
C107 C 0.1543(5) 0.1283(3) 0.2311(3)
C108 C 0.0855(5) 0.1456(3) 0.1951(3)
H120 H 0.0917 0.1303 0.1648
C109 C 0.0088(5) 0.1844(3) 0.2024(2)
H121 H -0.0354 0.1960 0.1765
C110 C 0.1470(7) -0.0078(5) 0.3076(5)
H122 H 0.1788 -0.0251 0.3406
H123 H 0.0959 0.0212 0.3156
C111 C 0.2321(6) 0.0275(4) 0.2541(3)
C112 C 0.2381(5) 0.0878(3) 0.2211(3)
C113 C 0.3236(5) 0.1128(4) 0.1760(3)
C114 C 0.3307(5) 0.1785(3) 0.1386(3)
H124 H 0.3178 0.2050 0.1623
H125 H 0.2751 0.1839 0.1173
C115 C -0.3992(7) 0.4821(4) 0.0642(4)
H126 H -0.4505 0.4902 0.0933
H127 H -0.4093 0.5081 0.0274
H128 H -0.3305 0.4916 0.0687
C116 C -0.0302(7) 0.3189(4) -0.0667(3)
H129 H 0.0372 0.3032 -0.0621
H130 H -0.0227 0.3540 -0.1015
H131 H -0.0753 0.2860 -0.0680
C117 C -0.6183(6) 0.0359(4) 0.3586(4)
H132 H -0.6032 0.0311 0.3217
H133 H -0.6657 0.0686 0.3583
H134 H -0.6496 -0.0031 0.3866
C118 C -0.4573(9) 0.1517(6) 0.5661(4)
H135 H -0.4061 0.1779 0.5722
H136 H -0.4658 0.1111 0.5955
H137 H -0.5228 0.1711 0.5670
C119 C 0.1018(9) -0.0529(6) 0.2971(5)
H138 H 0.0515 -0.0768 0.3304
H139 H 0.1535 -0.0801 0.2874
H140 H 0.0672 -0.0352 0.2659
C120 C 0.4302(5) 0.2014(4) 0.0978(3)
H141 H 0.4259 0.2446 0.0749
H142 H 0.4438 0.1761 0.0736
H143 H 0.4857 0.1987 0.1182
Si4 Si -0.07113(13) 0.75324(8) 0.25289(7)
O19 O -0.3281(4) 0.8960(2) -0.03173(19)
O20 O -0.1553(4) 0.8752(2) -0.07080(19)
H144 H -0.2243 0.886 -0.066
O21 O -0.5834(4) 0.5458(2) 0.4624(2)
H145 H -0.586 0.559 0.4940
O22 O -0.5344(4) 0.5836(2) 0.5329(2)
O23 O 0.3078(5) 0.4609(3) 0.2794(3)
H146 H 0.339 0.485 0.2422
O24 O 0.4134(4) 0.5374(3) 0.1947(3)
C121 C -0.0184(5) 0.8184(3) 0.2687(2)
H147 H 0.0058 0.8025 0.3039
H148 H -0.0718 0.8471 0.2722
H149 H 0.0390 0.8401 0.2385
C122 C -0.1176(4) 0.7837(3) 0.1859(2)
C123 C -0.0838(5) 0.8428(3) 0.1473(2)
H150 H -0.0376 0.8677 0.1562
C124 C -0.1148(5) 0.8663(3) 0.0967(3)
H151 H -0.0900 0.9065 0.0721
C125 C -0.1814(5) 0.8320(3) 0.0817(2)
C126 C -0.2170(4) 0.7732(3) 0.1194(2)
H152 H -0.2623 0.7483 0.1099
C127 C -0.1873(4) 0.7507(3) 0.1702(2)
H153 H -0.2151 0.7113 0.1954
C128 C -0.3921(6) 0.8717(4) 0.0643(3)
H154 H -0.4254 0.9115 0.0551
H155 H -0.3698 0.8638 0.1002
C129 C -0.3042(5) 0.8731(3) 0.0192(3)
C130 C -0.2083(5) 0.8555(3) 0.0255(2)
C131 C -0.1336(6) 0.8575(3) -0.0227(3)
C132 C -0.0273(5) 0.8399(3) -0.0181(3)
H156 H -0.0301 0.8049 0.0169
H157 H 0.0114 0.8752 -0.0155
C133 C -0.1795(5) 0.7102(3) 0.3105(2)
C134 C -0.2688(4) 0.7392(3) 0.3237(2)
H158 H -0.2737 0.7814 0.3029
C135 C -0.3514(5) 0.7077(3) 0.3668(2)
H159 H -0.4108 0.7287 0.3748
C136 C -0.3463(5) 0.6462(3) 0.3973(2)
C137 C -0.2573(5) 0.6166(3) 0.3852(3)
H160 H -0.2522 0.5745 0.4063
C138 C -0.1763(5) 0.6484(3) 0.3424(2)
H161 H -0.1168 0.6273 0.3348
C139 C -0.4849(5) 0.5665(3) 0.3715(3)
H162 H -0.4323 0.5361 0.3704
H163 H -0.4566 0.6065 0.3431
C140 C -0.5039(5) 0.5736(3) 0.4274(3)
C141 C -0.4351(5) 0.6112(3) 0.4415(3)
C142 C -0.4539(5) 0.6157(3) 0.4940(3)
C143 C -0.3866(6) 0.6485(4) 0.5162(3)
H164 H -0.3649 0.6186 0.5488
H165 H -0.3245 0.6667 0.4872
C144 C 0.0305(4) 0.6979(3) 0.2472(2)
C145 C 0.1061(5) 0.6872(3) 0.2782(2)
H166 H 0.1080 0.7101 0.3026
C146 C 0.1786(5) 0.6452(3) 0.2756(3)
H167 H 0.2289 0.6400 0.2979
C147 C 0.1795(5) 0.6106(3) 0.2413(3)
C148 C 0.1058(5) 0.6201(3) 0.2088(3)
H168 H 0.1046 0.5967 0.1847
C149 C 0.0333(5) 0.6634(3) 0.2113(3)
H169 H -0.0155 0.6698 0.1880
C150 C 0.1460(7) 0.4804(4) 0.3236(4)
H170 H 0.1078 0.5155 0.3294
H171 H 0.1664 0.4566 0.3591
C151 C 0.2390(6) 0.5040(4) 0.2788(4)
C152 C 0.2556(5) 0.5625(4) 0.2387(3)
C153 C 0.3439(6) 0.5769(4) 0.1961(4)
C154 C 0.3588(5) 0.6372(4) 0.1514(3)
H172 H 0.3560 0.6696 0.1690
H173 H 0.3001 0.6417 0.1324
C155 C -0.4689(8) 0.8164(5) 0.0677(4)
H174 H -0.5308 0.8138 0.0960
H175 H -0.4353 0.7773 0.0780
H176 H -0.4874 0.8241 0.0313
C156 C 0.0311(6) 0.8217(3) -0.0668(3)
H177 H 0.1005 0.8118 -0.0611
H178 H 0.0347 0.8561 -0.1018
H179 H -0.0045 0.7854 -0.0687
C157 C -0.5792(6) 0.5454(3) 0.3557(3)
H180 H -0.5603 0.5421 0.3183
H181 H -0.6313 0.5756 0.3558
H182 H -0.6065 0.5050 0.3827
C158 C -0.4385(11) 0.6968(7) 0.5327(6)
H183 H -0.3932 0.7166 0.5486
H184 H -0.5008 0.6790 0.5608
H185 H -0.4567 0.7277 0.5000
C159 C 0.0784(7) 0.4395(4) 0.3077(4)
H186 H 0.0191 0.4225 0.3383
H187 H 0.1172 0.4056 0.3006
H188 H 0.0548 0.4638 0.2739
C160 C 0.4579(6) 0.6505(5) 0.1062(4)
H189 H 0.4591 0.6925 0.0797
H190 H 0.4602 0.6207 0.0863
H191 H 0.5174 0.6467 0.1239
loop_
_geom_bond_atom_site_label_1
_geom_bond_atom_site_label_2
_geom_bond_site_symmetry_1
_geom_bond_site_symmetry_2
Si1 C1 1_555 1_555
O1 C9 1_555 1_555
O2 H1 1_555 1_555
O3 H2 1_555 1_555
O4 C22 1_555 1_555
O5 C31 1_555 1_555
O6 C33 1_555 1_555
C1 H3 1_555 1_555
H4 C1 1_555 1_555
H5 C1 1_555 1_555
C2 Si1 1_555 1_555
C3 C2 1_555 1_555
H6 C3 1_555 1_555
C4 C3 1_555 1_555
H7 C4 1_555 1_555
C5 C4 1_555 1_555
C6 C5 1_555 1_555
H8 C6 1_555 1_555
C7 C2 1_555 1_555
H9 C7 1_555 1_555
C8 H10 1_555 1_555
H11 C8 1_555 1_555
C9 C8 1_555 1_555
C10 C5 1_555 1_555
C11 O2 1_555 1_555
C12 C11 1_555 1_555
H12 C12 1_555 1_555
H13 C12 1_555 1_555
C13 Si1 1_555 1_555
C14 C13 1_555 1_555
H14 C14 1_555 1_555
C15 C14 1_555 1_555
H15 C15 1_555 1_555
C16 C15 1_555 1_555
C17 C16 1_555 1_555
H16 C17 1_555 1_555
C18 C13 1_555 1_555
H17 C18 1_555 1_555
C19 H18 1_555 1_555
H19 C19 1_555 1_555
C20 O3 1_555 1_555
C21 C16 1_555 1_555
C22 C21 1_555 1_555
C23 C22 1_555 1_555
H20 C23 1_555 1_555
H21 C23 1_555 1_555
C24 Si1 1_555 1_555
C25 C24 1_555 1_555
H22 C25 1_555 1_555
C26 C25 1_555 1_555
H23 C26 1_555 1_555
C27 C26 1_555 1_555
C28 C27 1_555 1_555
H24 C28 1_555 1_555
C29 C24 1_555 1_555
H25 C29 1_555 1_555
C30 H26 1_555 1_555
H27 C30 1_555 1_555
C31 C30 1_555 1_555
C32 C27 1_555 1_555
C33 C32 1_555 1_555
C34 C33 1_555 1_555
H28 C34 1_555 1_555
H29 C34 1_555 1_555
C35 C8 1_555 1_555
H30 C35 1_555 1_555
H31 C35 1_555 1_555
H32 C35 1_555 1_555
C36 C12 1_555 1_555
H33 C36 1_555 1_555
H34 C36 1_555 1_555
H35 C36 1_555 1_555
C37 C19 1_555 1_555
H36 C37 1_555 1_555
H37 C37 1_555 1_555
H38 C37 1_555 1_555
C38 C23 1_555 1_555
H39 C38 1_555 1_555
H40 C38 1_555 1_555
H41 C38 1_555 1_555
C39 C30 1_555 1_555
H42 C39 1_555 1_555
H43 C39 1_555 1_555
H44 C39 1_555 1_555
C40 C34 1_555 1_555
H45 C40 1_555 1_555
H46 C40 1_555 1_555
H47 C40 1_555 1_555
Si2 C41 1_555 1_555
O7 H48 1_555 1_555
O8 C51 1_555 1_555
O9 C60 1_555 1_555
O10 H49 1_555 1_555
O11 C71 1_555 1_555
O12 H50 1_555 1_555
C41 H51 1_555 1_555
H52 C41 1_555 1_555
H53 C41 1_555 1_555
C42 Si2 1_555 1_555
C43 C42 1_555 1_555
H54 C43 1_555 1_555
C44 C43 1_555 1_555
H55 C44 1_555 1_555
C45 C44 1_555 1_555
C46 C45 1_555 1_555
H56 C46 1_555 1_555
C47 C42 1_555 1_555
H57 C47 1_555 1_555
C48 H58 1_555 1_555
H59 C48 1_555 1_555
C49 O7 1_555 1_555
C50 C45 1_555 1_555
C51 C50 1_555 1_555
C52 C51 1_555 1_555
H60 C52 1_555 1_555
H61 C52 1_555 1_555
C53 Si2 1_555 1_555
C54 C53 1_555 1_555
H62 C54 1_555 1_555
C55 C54 1_555 1_555
H63 C55 1_555 1_555
C56 C55 1_555 1_555
C57 C56 1_555 1_555
H64 C57 1_555 1_555
C58 C53 1_555 1_555
H65 C58 1_555 1_555
C59 H66 1_555 1_555
H67 C59 1_555 1_555
C60 C59 1_555 1_555
C61 C56 1_555 1_555
C62 O10 1_555 1_555
C63 C62 1_555 1_555
H68 C63 1_555 1_555
H69 C63 1_555 1_555
C64 Si2 1_555 1_555
C65 C64 1_555 1_555
H70 C65 1_555 1_555
C66 C65 1_555 1_555
H71 C66 1_555 1_555
C67 C66 1_555 1_555
C68 C67 1_555 1_555
H72 C68 1_555 1_555
C69 C64 1_555 1_555
H73 C69 1_555 1_555
C70 H74 1_555 1_555
H75 C70 1_555 1_555
C71 C70 1_555 1_555
C72 C67 1_555 1_555
C73 O12 1_555 1_555
C74 C73 1_555 1_555
H76 C74 1_555 1_555
H77 C74 1_555 1_555
C75 C48 1_555 1_555
H78 C75 1_555 1_555
H79 C75 1_555 1_555
H80 C75 1_555 1_555
C76 C52 1_555 1_555
H81 C76 1_555 1_555
H82 C76 1_555 1_555
H83 C76 1_555 1_555
C77 C59 1_555 1_555
H84 C77 1_555 1_555
H85 C77 1_555 1_555
H86 C77 1_555 1_555
C78 C63 1_555 1_555
H87 C78 1_555 1_555
H88 C78 1_555 1_555
H89 C78 1_555 1_555
C79 C70 1_555 1_555
H90 C79 1_555 1_555
H91 C79 1_555 1_555
H92 C79 1_555 1_555
C80 C74 1_555 1_555
H93 C80 1_555 1_555
H94 C80 1_555 1_555
H95 C80 1_555 1_555
Si3 C81 1_555 1_555
O13 H96 1_555 1_555
O14 C91 1_555 1_555
O15 H97 1_555 1_555
O16 C102 1_555 1_555
O17 H98 1_555 1_555
O18 C113 1_555 1_555
C81 H99 1_555 1_555
H100 C81 1_555 1_555
H101 C81 1_555 1_555
C82 Si3 1_555 1_555
C83 C82 1_555 1_555
H102 C83 1_555 1_555
C84 C83 1_555 1_555
H103 C84 1_555 1_555
C85 C84 1_555 1_555
C86 C85 1_555 1_555
H104 C86 1_555 1_555
C87 C82 1_555 1_555
H105 C87 1_555 1_555
C88 H106 1_555 1_555
H107 C88 1_555 1_555
C89 O13 1_555 1_555
C90 C85 1_555 1_555
C91 C90 1_555 1_555
C92 C91 1_555 1_555
H108 C92 1_555 1_555
H109 C92 1_555 1_555
C93 Si3 1_555 1_555
C94 C93 1_555 1_555
H110 C94 1_555 1_555
C95 C94 1_555 1_555
H111 C95 1_555 1_555
C96 C95 1_555 1_555
C97 C96 1_555 1_555
H112 C97 1_555 1_555
C98 C93 1_555 1_555
H113 C98 1_555 1_555
C99 H114 1_555 1_555
H115 C99 1_555 1_555
C100 O15 1_555 1_555
C101 C96 1_555 1_555
C102 C101 1_555 1_555
C103 C102 1_555 1_555
H116 C103 1_555 1_555
H117 C103 1_555 1_555
C104 Si3 1_555 1_555
C105 C104 1_555 1_555
H118 C105 1_555 1_555
C106 C105 1_555 1_555
H119 C106 1_555 1_555
C107 C106 1_555 1_555
C108 C107 1_555 1_555
H120 C108 1_555 1_555
C109 C104 1_555 1_555
H121 C109 1_555 1_555
C110 H122 1_555 1_555
H123 C110 1_555 1_555
C111 O17 1_555 1_555
C112 C107 1_555 1_555
C113 C112 1_555 1_555
C114 C113 1_555 1_555
H124 C114 1_555 1_555
H125 C114 1_555 1_555
C115 C88 1_555 1_555
H126 C115 1_555 1_555
H127 C115 1_555 1_555
H128 C115 1_555 1_555
C116 C92 1_555 1_555
H129 C116 1_555 1_555
H130 C116 1_555 1_555
H131 C116 1_555 1_555
C117 C99 1_555 1_555
H132 C117 1_555 1_555
H133 C117 1_555 1_555
H134 C117 1_555 1_555
C118 C103 1_555 1_555
H135 C118 1_555 1_555
H136 C118 1_555 1_555
H137 C118 1_555 1_555
C119 C110 1_555 1_555
H138 C119 1_555 1_555
H139 C119 1_555 1_555
H140 C119 1_555 1_555
C120 C114 1_555 1_555
H141 C120 1_555 1_555
H142 C120 1_555 1_555
H143 C120 1_555 1_555
Si4 C121 1_555 1_555
O19 C129 1_555 1_555
O20 H144 1_555 1_555
O21 H145 1_555 1_555
O22 C142 1_555 1_555
O23 H146 1_555 1_555
O24 C153 1_555 1_555
C121 H147 1_555 1_555
H148 C121 1_555 1_555
H149 C121 1_555 1_555
C122 Si4 1_555 1_555
C123 C122 1_555 1_555
H150 C123 1_555 1_555
C124 C123 1_555 1_555
H151 C124 1_555 1_555
C125 C124 1_555 1_555
C126 C125 1_555 1_555
H152 C126 1_555 1_555
C127 C122 1_555 1_555
H153 C127 1_555 1_555
C128 H154 1_555 1_555
H155 C128 1_555 1_555
C129 C128 1_555 1_555
C130 C125 1_555 1_555
C131 O20 1_555 1_555
C132 C131 1_555 1_555
H156 C132 1_555 1_555
H157 C132 1_555 1_555
C133 Si4 1_555 1_555
C134 C133 1_555 1_555
H158 C134 1_555 1_555
C135 C134 1_555 1_555
H159 C135 1_555 1_555
C136 C135 1_555 1_555
C137 C136 1_555 1_555
H160 C137 1_555 1_555
C138 C133 1_555 1_555
H161 C138 1_555 1_555
C139 H162 1_555 1_555
H163 C139 1_555 1_555
C140 O21 1_555 1_555
C141 C136 1_555 1_555
C142 C141 1_555 1_555
C143 C142 1_555 1_555
H164 C143 1_555 1_555
H165 C143 1_555 1_555
C144 Si4 1_555 1_555
C145 C144 1_555 1_555
H166 C145 1_555 1_555
C146 C145 1_555 1_555
H167 C146 1_555 1_555
C147 C146 1_555 1_555
C148 C147 1_555 1_555
H168 C148 1_555 1_555
C149 C144 1_555 1_555
H169 C149 1_555 1_555
C150 H170 1_555 1_555
H171 C150 1_555 1_555
C151 O23 1_555 1_555
C152 C147 1_555 1_555
C153 C152 1_555 1_555
C154 C153 1_555 1_555
H172 C154 1_555 1_555
H173 C154 1_555 1_555
C155 C128 1_555 1_555
H174 C155 1_555 1_555
H175 C155 1_555 1_555
H176 C155 1_555 1_555
C156 C132 1_555 1_555
H177 C156 1_555 1_555
H178 C156 1_555 1_555
H179 C156 1_555 1_555
C157 C139 1_555 1_555
H180 C157 1_555 1_555
H181 C157 1_555 1_555
H182 C157 1_555 1_555
C158 C143 1_555 1_555
H183 C158 1_555 1_555
H184 C158 1_555 1_555
H185 C158 1_555 1_555
C159 C150 1_555 1_555
H186 C159 1_555 1_555
H187 C159 1_555 1_555
H188 C159 1_555 1_555
C160 C154 1_555 1_555
H189 C160 1_555 1_555
H190 C160 1_555 1_555
H191 C160 1_555 1_555
C6 C7 1_555 1_555
C9 C10 1_555 1_555
C10 C11 1_555 1_555
C17 C18 1_555 1_555
C19 C20 1_555 1_555
C20 C21 1_555 1_555
C28 C29 1_555 1_555
C31 C32 1_555 1_555
C46 C47 1_555 1_555
C48 C49 1_555 1_555
C49 C50 1_555 1_555
C57 C58 1_555 1_555
C60 C61 1_555 1_555
C61 C62 1_555 1_555
C68 C69 1_555 1_555
C71 C72 1_555 1_555
C72 C73 1_555 1_555
C86 C87 1_555 1_555
C88 C89 1_555 1_555
C89 C90 1_555 1_555
C97 C98 1_555 1_555
C99 C100 1_555 1_555
C100 C101 1_555 1_555
C108 C109 1_555 1_555
C110 C111 1_555 1_555
C111 C112 1_555 1_555
C126 C127 1_555 1_555
C129 C130 1_555 1_555
C130 C131 1_555 1_555
C137 C138 1_555 1_555
C139 C140 1_555 1_555
C140 C141 1_555 1_555
C148 C149 1_555 1_555
C150 C151 1_555 1_555
C151 C152 1_555 1_555

#END
