
#######################################################################
#
#                 Cambridge Crystallographic Data Centre
#                                CCDC 
#
#######################################################################
#
# If this CIF has been generated from an entry in the Cambridge 
# Structural Database, then it will include bibliographic, chemical, 
# crystal, experimental, refinement or atomic coordinate data resulting 
# from the CCDC's data processing and validation procedures.
#
#######################################################################

data_ROHLAC
_chemical_formula_moiety         'C34 H36 O6 Si1'
_chemical_name_systematic        
3,3',3''-(Methylsilylidyne-tris(1,4-phenylene))-tris(2,4-pentanedione)
_symmetry_cell_setting           monoclinic
_symmetry_space_group_name_H-M   'P 21/n'
_symmetry_Int_Tables_number      14
_space_group_name_Hall           '-P 2yn'
loop_
_symmetry_equiv_pos_site_id
_symmetry_equiv_pos_as_xyz
1 x,y,z
2 1/2-x,1/2+y,1/2-z
3 -x,-y,-z
4 1/2+x,1/2-y,1/2+z
_cell_length_a                   7.3493(10)
_cell_length_b                   22.774(5)
_cell_length_c                   18.640(5)
_cell_angle_alpha                90
_cell_angle_beta                 91.177(7)
_cell_angle_gamma                90
_cell_volume                     3119.17
_exptl_crystal_colour            colorless
_exptl_crystal_description       needle
_chemical_melting_point          '212-215 deg.C'
_cell_formula_units_Z            4
_exptl_crystal_recrystallization_method methanol
loop_
_atom_site_label
_atom_site_type_symbol
_atom_site_fract_x
_atom_site_fract_y
_atom_site_fract_z
Si1 Si 0.49051(8) 0.60497(3) 0.34519(3)
O1 O 0.0366(2) 0.57770(8) -0.06237(9)
O2 O -0.2512(2) 0.56788(8) 0.00164(9)
H1 H -0.134(4) 0.5717(11) -0.0446(15)
O3 O 1.1627(2) 0.90069(8) 0.33472(10)
H2 H 1.062(4) 0.9286(12) 0.3074(14)
O4 O 0.8798(2) 0.94127(8) 0.28481(9)
O5 O -0.3040(2) 0.60187(9) 0.65748(9)
H3 H -0.301(4) 0.6478(14) 0.6687(15)
O6 O -0.2171(3) 0.70773(9) 0.66305(11)
C1 C 0.6448(3) 0.54114(11) 0.36073(13)
H4 H 0.5734 0.5048 0.3601
H5 H 0.7071 0.5454 0.4074
H6 H 0.7350 0.5397 0.3228
C2 C 0.3532(3) 0.59627(10) 0.26003(11)
C3 C 0.2955(3) 0.54136(10) 0.23480(12)
H7 H 0.3296 0.5071 0.2608
C4 C 0.1894(3) 0.53575(10) 0.17262(12)
H8 H 0.1530 0.4978 0.1567
C5 C 0.1362(3) 0.58487(10) 0.13351(12)
C6 C 0.1892(3) 0.63983(11) 0.15852(12)
H9 H 0.1521 0.6740 0.1329
C7 C 0.2955(3) 0.64547(10) 0.22044(12)
H10 H 0.3301 0.6836 0.2364
C8 C 0.3249(3) 0.58264(12) -0.00369(14)
H11 H 0.3657 0.5807 -0.0534
H12 H 0.3756 0.5494 0.0235
H13 H 0.3667 0.6195 0.0182
C9 C 0.1225(3) 0.58008(11) -0.00284(13)
C10 C 0.0290(3) 0.57898(10) 0.06396(12)
C11 C -0.1570(3) 0.57230(11) 0.06340(13)
C12 C -0.2692(3) 0.56664(13) 0.12804(13)
H14 H -0.3608 0.5979 0.1282
H15 H -0.1911 0.5699 0.1711
H16 H -0.3301 0.5284 0.1276
C13 C 0.6238(3) 0.67521(10) 0.33994(12)
C14 C 0.7543(3) 0.68398(11) 0.28696(13)
H17 H 0.7808 0.6528 0.2550
C15 C 0.8455(3) 0.73705(11) 0.28018(13)
H18 H 0.9330 0.7414 0.2438
C16 C 0.8107(3) 0.78384(10) 0.32581(12)
C17 C 0.6847(3) 0.77489(10) 0.37958(13)
H19 H 0.6604 0.8057 0.4123
C18 C 0.5942(3) 0.72169(10) 0.38613(13)
H20 H 0.5092 0.7171 0.4235
C19 C 1.1974(3) 0.80204(12) 0.37056(16)
H21 H 1.2706 0.7846 0.3327
H22 H 1.1193 0.7719 0.3912
H23 H 1.2781 0.8182 0.4081
C20 C 1.0826(3) 0.84980(11) 0.33962(13)
C21 C 0.9010(3) 0.84184(11) 0.31780(13)
C22 C 0.8042(3) 0.89063(11) 0.29023(13)
C23 C 0.6087(3) 0.88738(12) 0.26695(13)
H24 H 0.5314 0.8914 0.3089
H25 H 0.5849 0.8494 0.2438
H26 H 0.5815 0.9191 0.2329
C24 C 0.3254(3) 0.61341(10) 0.41991(12)
C25 C 0.3721(3) 0.60540(11) 0.49253(13)
H27 H 0.4926 0.5936 0.5051
C26 C 0.2486(3) 0.61412(11) 0.54666(13)
H28 H 0.2853 0.6083 0.5953
C27 C 0.0697(3) 0.63140(10) 0.53001(12)
C28 C 0.0226(3) 0.64029(11) 0.45849(12)
H29 H -0.0971 0.6529 0.4461
C29 C 0.1464(3) 0.63117(10) 0.40501(13)
H30 H 0.1089 0.6371 0.3565
C30 C -0.1551(3) 0.53334(12) 0.58471(15)
H31 H -0.1080 0.5090 0.6243
H32 H -0.0703 0.5320 0.5448
H33 H -0.2740 0.5183 0.5686
C31 C -0.1748(3) 0.59515(11) 0.60968(13)
C32 C -0.0678(3) 0.64111(11) 0.58678(13)
C33 C -0.0964(3) 0.69806(12) 0.61614(15)
C34 C 0.0193(4) 0.74900(13) 0.59277(18)
H34 H 0.0023 0.7822 0.6254
H35 H -0.0168 0.7606 0.5439
H36 H 0.1476 0.7373 0.5938
loop_
_geom_bond_atom_site_label_1
_geom_bond_atom_site_label_2
_geom_bond_site_symmetry_1
_geom_bond_site_symmetry_2
Si1 C1 1_555 1_555
O1 C9 1_555 1_555
O2 H1 1_555 1_555
O3 H2 1_555 1_555
O4 C22 1_555 1_555
O5 H3 1_555 1_555
O6 C33 1_555 1_555
C1 H4 1_555 1_555
H5 C1 1_555 1_555
H6 C1 1_555 1_555
C2 Si1 1_555 1_555
C3 C2 1_555 1_555
H7 C3 1_555 1_555
C4 C3 1_555 1_555
H8 C4 1_555 1_555
C5 C4 1_555 1_555
C6 C5 1_555 1_555
H9 C6 1_555 1_555
C7 C2 1_555 1_555
H10 C7 1_555 1_555
C8 H11 1_555 1_555
H12 C8 1_555 1_555
H13 C8 1_555 1_555
C9 C8 1_555 1_555
C10 C5 1_555 1_555
C11 O2 1_555 1_555
C12 C11 1_555 1_555
H14 C12 1_555 1_555
H15 C12 1_555 1_555
H16 C12 1_555 1_555
C13 Si1 1_555 1_555
C14 C13 1_555 1_555
H17 C14 1_555 1_555
C15 C14 1_555 1_555
H18 C15 1_555 1_555
C16 C15 1_555 1_555
C17 C16 1_555 1_555
H19 C17 1_555 1_555
C18 C13 1_555 1_555
H20 C18 1_555 1_555
C19 H21 1_555 1_555
H22 C19 1_555 1_555
H23 C19 1_555 1_555
C20 O3 1_555 1_555
C21 C16 1_555 1_555
C22 C21 1_555 1_555
C23 C22 1_555 1_555
H24 C23 1_555 1_555
H25 C23 1_555 1_555
H26 C23 1_555 1_555
C24 Si1 1_555 1_555
C25 C24 1_555 1_555
H27 C25 1_555 1_555
C26 C25 1_555 1_555
H28 C26 1_555 1_555
C27 C26 1_555 1_555
C28 C27 1_555 1_555
H29 C28 1_555 1_555
C29 C24 1_555 1_555
H30 C29 1_555 1_555
C30 H31 1_555 1_555
H32 C30 1_555 1_555
H33 C30 1_555 1_555
C31 O5 1_555 1_555
C32 C27 1_555 1_555
C33 C32 1_555 1_555
C34 C33 1_555 1_555
H34 C34 1_555 1_555
H35 C34 1_555 1_555
H36 C34 1_555 1_555
C6 C7 1_555 1_555
C9 C10 1_555 1_555
C10 C11 1_555 1_555
C17 C18 1_555 1_555
C19 C20 1_555 1_555
C20 C21 1_555 1_555
C28 C29 1_555 1_555
C30 C31 1_555 1_555
C31 C32 1_555 1_555

#END
