
#######################################################################
#
#                 Cambridge Crystallographic Data Centre
#                                CCDC 
#
#######################################################################
#
# If this CIF has been generated from an entry in the Cambridge 
# Structural Database, then it will include bibliographic, chemical, 
# crystal, experimental, refinement or atomic coordinate data resulting 
# from the CCDC's data processing and validation procedures.
#
#######################################################################

data_ROHSAJ
_chemical_formula_moiety         'C28 H26 B1 F10 N1,0.5(C6 D6)'
_chemical_name_systematic        
'Hydrido-bis(pentafluorophenyl)-(2-((2,2,6,6-tetramethylpiperidinium-1-yl)methyl)phenyl)-borate hexadeuterobenzene solvate'
_symmetry_cell_setting           triclinic
_symmetry_space_group_name_H-M   'P -1'
_symmetry_Int_Tables_number      2
_space_group_name_Hall           '-P 1'
loop_
_symmetry_equiv_pos_site_id
_symmetry_equiv_pos_as_xyz
1 x,y,z
2 -x,-y,-z
_cell_length_a                   10.652(1)
_cell_length_b                   12.256(1)
_cell_length_c                   12.595(1)
_cell_angle_alpha                86.96(1)
_cell_angle_beta                 70.73(1)
_cell_angle_gamma                65.17(1)
_cell_volume                     1401.64
_exptl_crystal_colour            colorless
_exptl_crystal_description       plates
_cell_formula_units_Z            2
loop_
_atom_site_label
_atom_site_type_symbol
_atom_site_fract_x
_atom_site_fract_y
_atom_site_fract_z
B1 B 0.6588(3) 0.7092(2) 0.75476(18)
H1 H 0.773(2) 0.6291(19) 0.7034(17)
C1 C 0.6350(2) 0.70700(18) 0.88962(16)
C2 C 0.5906(2) 0.81364(19) 0.95595(17)
H2 H 0.5742 0.8864 0.9205
C3 C 0.5693(2) 0.8183(2) 1.07105(18)
H3 H 0.5394 0.8929 1.1121
C4 C 0.5913(2) 0.7153(2) 1.12535(17)
H4 H 0.5755 0.7178 1.2041
C5 C 0.6369(2) 0.60746(19) 1.06302(16)
H5 H 0.6531 0.5355 1.0997
C6 C 0.6598(2) 0.60220(18) 0.94715(16)
C7 C 0.6983(2) 0.48041(18) 0.89166(16)
H6 H 0.6178 0.4896 0.8640
H7 H 0.6986 0.4241 0.9510
N1 N 0.84337(18) 0.41964(15) 0.79349(13)
H8 H 0.844(2) 0.4802(19) 0.7440(17)
C8 C 0.9852(2) 0.38699(18) 0.82375(16)
C9 C 1.1192(2) 0.3173(2) 0.71945(18)
H9 H 1.1266 0.3737 0.6609
H10 H 1.2087 0.2894 0.7406
C10 C 1.1174(2) 0.2095(2) 0.66840(19)
H11 H 1.1119 0.1508 0.7249
H12 H 1.2083 0.1688 0.6027
C11 C 0.9840(2) 0.2545(2) 0.63140(17)
H13 H 0.9835 0.1850 0.5952
H14 H 0.9931 0.3114 0.5737
C12 C 0.8369(2) 0.31801(18) 0.72724(16)
C13 C 0.7192(3) 0.3789(2) 0.67227(18)
H15 H 0.7441 0.4358 0.6216
H16 H 0.6235 0.4225 0.7311
H17 H 0.7148 0.3173 0.6289
C14 C 0.8006(2) 0.22795(19) 0.80491(17)
H18 H 0.7061 0.2707 0.8653
H19 H 0.8779 0.1877 0.8381
H20 H 0.7946 0.1676 0.7613
C15 C 0.9855(2) 0.3146(2) 0.92597(17)
H21 H 0.8984 0.3613 0.9910
H22 H 1.0744 0.2978 0.9437
H23 H 0.9837 0.2383 0.9089
C16 C 0.9936(2) 0.50405(19) 0.84799(18)
H24 H 0.9936 0.5501 0.7820
H25 H 1.0841 0.4849 0.8641
H26 H 0.9083 0.5522 0.9135
C17 C 0.6734(2) 0.83148(18) 0.70527(16)
C18 C 0.8040(2) 0.84247(19) 0.68292(17)
F1 F 0.91636(14) 0.75497(12) 0.70937(12)
C19 C 0.8304(2) 0.9371(2) 0.63435(17)
F2 F 0.96037(14) 0.94124(12) 0.61525(12)
C20 C 0.7226(2) 1.02867(19) 0.60394(17)
F3 F 0.74640(15) 1.12145(11) 0.55402(11)
C21 C 0.5901(2) 1.02490(18) 0.62504(17)
F4 F 0.48267(15) 1.11472(12) 0.59682(12)
C22 C 0.5676(2) 0.92890(19) 0.67591(17)
F5 F 0.43174(13) 0.93440(11) 0.69634(12)
C23 C 0.5385(2) 0.68743(17) 0.71435(16)
C24 C 0.4092(2) 0.68256(18) 0.78085(15)
F6 F 0.36698(13) 0.69685(11) 0.89573(9)
C25 C 0.3152(2) 0.66287(19) 0.73877(17)
F7 F 0.19121(14) 0.65850(12) 0.80857(10)
C26 C 0.3490(2) 0.64689(19) 0.62375(17)
F8 F 0.25894(14) 0.62604(12) 0.58219(10)
C27 C 0.4765(2) 0.65044(19) 0.55296(16)
F9 F 0.51207(14) 0.63338(11) 0.43986(9)
C28 C 0.5661(2) 0.67035(18) 0.59893(16)
F10 F 0.69064(13) 0.67133(11) 0.52461(9)
C29? C 0.1150(5) 0.9751(5) 0.9324(5)
D1? D 0.2132(5) 0.9648(5) 0.8950(5)
C30? C 0.0446(6) 0.9391(5) 0.8756(4)
D2? D 0.0947(8) 0.9043(6) 0.7994(4)
C31? C -0.0991(6) 0.9541(4) 0.9303(4)
D3? D -0.1472(9) 0.9296(6) 0.8915(6)
C32? C -0.1724(5) 1.0051(4) 1.0418(4)
D4? D -0.2706(5) 1.0154(6) 1.0792(6)
C33? C -0.1020(6) 1.0410(5) 1.0986(4)
D5? D -0.1521(8) 1.0759(5) 1.1748(4)
C34? C 0.0417(6) 1.0260(5) 1.0439(5)
D6? D 0.0898(8) 1.0506(7) 1.0827(7)
loop_
_geom_bond_atom_site_label_1
_geom_bond_atom_site_label_2
_geom_bond_site_symmetry_1
_geom_bond_site_symmetry_2
B1 H1 1_555 1_555
C1 B1 1_555 1_555
C2 C1 1_555 1_555
H2 C2 1_555 1_555
C3 C2 1_555 1_555
H3 C3 1_555 1_555
C4 C3 1_555 1_555
H4 C4 1_555 1_555
C5 C4 1_555 1_555
H5 C5 1_555 1_555
C6 C1 1_555 1_555
C7 C6 1_555 1_555
H6 C7 1_555 1_555
H7 C7 1_555 1_555
N1 C7 1_555 1_555
H8 N1 1_555 1_555
C8 N1 1_555 1_555
C9 C8 1_555 1_555
H9 C9 1_555 1_555
H10 C9 1_555 1_555
C10 C9 1_555 1_555
H11 C10 1_555 1_555
H12 C10 1_555 1_555
C11 C10 1_555 1_555
H13 C11 1_555 1_555
H14 C11 1_555 1_555
C12 N1 1_555 1_555
C13 C12 1_555 1_555
H15 C13 1_555 1_555
H16 C13 1_555 1_555
H17 C13 1_555 1_555
C14 C12 1_555 1_555
H18 C14 1_555 1_555
H19 C14 1_555 1_555
H20 C14 1_555 1_555
C15 C8 1_555 1_555
H21 C15 1_555 1_555
H22 C15 1_555 1_555
H23 C15 1_555 1_555
C16 C8 1_555 1_555
H24 C16 1_555 1_555
H25 C16 1_555 1_555
H26 C16 1_555 1_555
C17 B1 1_555 1_555
C18 C17 1_555 1_555
F1 C18 1_555 1_555
C19 C18 1_555 1_555
F2 C19 1_555 1_555
C20 C19 1_555 1_555
F3 C20 1_555 1_555
C21 C20 1_555 1_555
F4 C21 1_555 1_555
C22 C17 1_555 1_555
F5 C22 1_555 1_555
C23 B1 1_555 1_555
C24 C23 1_555 1_555
F6 C24 1_555 1_555
C25 C24 1_555 1_555
F7 C25 1_555 1_555
C26 C25 1_555 1_555
F8 C26 1_555 1_555
C27 C26 1_555 1_555
F9 C27 1_555 1_555
C28 C23 1_555 1_555
F10 C28 1_555 1_555
C5 C6 1_555 1_555
C11 C12 1_555 1_555
C21 C22 1_555 1_555
C27 C28 1_555 1_555

#END
