
#######################################################################
#
#                 Cambridge Crystallographic Data Centre
#                                CCDC 
#
#######################################################################
#
# If this CIF has been generated from an entry in the Cambridge 
# Structural Database, then it will include bibliographic, chemical, 
# crystal, experimental, refinement or atomic coordinate data resulting 
# from the CCDC's data processing and validation procedures.
#
#######################################################################

data_ROHSAJ01
_chemical_formula_moiety         'C28 H26 B1 F10 N1,0.5(C6 D6)'
_chemical_name_systematic        
'Hydridobis(pentafluorophenyl)(2-((2,2,6,6-tetramethylpiperidinium-1-yl)methyl)phenyl)borate perdeuterobenzene solvate'
_symmetry_cell_setting           triclinic
_symmetry_space_group_name_H-M   'P -1'
_symmetry_Int_Tables_number      2
_space_group_name_Hall           '-P 1'
loop_
_symmetry_equiv_pos_site_id
_symmetry_equiv_pos_as_xyz
1 x,y,z
2 -x,-y,-z
_cell_length_a                   10.587(10)
_cell_length_b                   12.183(10)
_cell_length_c                   12.52(1)
_cell_angle_alpha                86.77(5)
_cell_angle_beta                 70.73(5)
_cell_angle_gamma                64.83(5)
_cell_volume                     1372.95
_exptl_crystal_colour            colorless
_exptl_crystal_description       prism
_cell_formula_units_Z            2
loop_
_atom_site_label
_atom_site_type_symbol
_atom_site_fract_x
_atom_site_fract_y
_atom_site_fract_z
F1 F 0.9138(3) 0.7588(3) 0.7121(2)
F2 F 0.9602(3) 0.9439(3) 0.6154(2)
F3 F 0.7465(3) 1.1235(3) 0.5500(2)
F4 F 0.4818(3) 1.1154(3) 0.5917(2)
F5 F 0.4295(3) 0.9363(3) 0.6945(2)
F6 F 0.3651(3) 0.6974(3) 0.8964(2)
F7 F 0.1896(3) 0.6584(3) 0.8081(2)
F8 F 0.2595(3) 0.6248(3) 0.5805(2)
F9 F 0.5133(3) 0.6335(3) 0.4389(2)
F10 F 0.6905(3) 0.6729(3) 0.5248(2)
N1 N 0.84169(18) 0.41953(16) 0.79382(13)
C1 C 0.6333(2) 0.7094(2) 0.89126(18)
C2 C 0.5894(3) 0.8164(2) 0.9579(2)
C3 C 0.5680(3) 0.8209(2) 1.0742(2)
C4 C 0.5905(3) 0.7158(2) 1.12842(19)
C5 C 0.6368(3) 0.6064(2) 1.06537(19)
C6 C 0.6588(2) 0.6026(2) 0.94903(18)
C7 C 0.6978(3) 0.4800(2) 0.89278(19)
C8 C 0.9854(2) 0.3859(2) 0.82417(18)
C9 C 1.1198(3) 0.3167(2) 0.71866(19)
C10 C 1.1173(3) 0.2072(2) 0.66764(19)
C11 C 0.9825(3) 0.2528(2) 0.63018(19)
C12 C 0.8352(2) 0.3175(2) 0.72819(18)
C13 C 0.7164(3) 0.3787(3) 0.6723(2)
C14 C 0.7989(3) 0.2268(3) 0.8065(2)
C15 C 0.9857(3) 0.3135(2) 0.9264(2)
C16 C 0.9939(3) 0.5041(2) 0.8473(2)
C17 C 0.6716(3) 0.8342(2) 0.70630(19)
C18 C 0.8041(3) 0.8444(2) 0.68418(19)
C19 C 0.8308(3) 0.9400(2) 0.63378(19)
C20 C 0.7219(3) 1.0321(2) 0.60055(19)
C21 C 0.5874(3) 1.0278(2) 0.62165(19)
C22 C 0.5650(3) 0.9306(2) 0.67511(19)
C23 C 0.5374(2) 0.6892(2) 0.71545(18)
C24 C 0.4071(3) 0.6840(2) 0.78201(18)
C25 C 0.3132(3) 0.6628(2) 0.73866(19)
C26 C 0.3474(3) 0.6469(2) 0.62287(19)
C27 C 0.4762(3) 0.6509(2) 0.55151(19)
C28 C 0.5666(3) 0.6715(2) 0.59836(18)
B1 B 0.6568(3) 0.7112(3) 0.7561(2)
H1 H 0.7783(6) 0.6288(5) 0.7019(4)
H2 H 0.5712(7) 0.8995(6) 0.9186(5)
H3 H 0.5320(7) 0.9077(7) 1.1211(5)
H4 H 0.5721(6) 0.7179(6) 1.2190(5)
H5 H 0.6555(6) 0.5244(6) 1.1058(5)
H6 H 0.6114(6) 0.4898(5) 0.8598(4)
H7 H 0.6972(5) 0.4169(5) 0.9554(4)
H8 H 0.8396(5) 0.4862(5) 0.7388(4)
H9 H 1.1276(6) 0.3782(6) 0.6545(4)
H10 H 1.2182(7) 0.2891(6) 0.7434(5)
H11 H 1.1172(6) 0.1387(6) 0.7287(5)
H12 H 1.2185(6) 0.1633(6) 0.5938(5)
H13 H 0.9746(6) 0.1787(6) 0.5908(5)
H14 H 0.9913(6) 0.3164(6) 0.5653(5)
H15 H 0.7326(7) 0.4519(6) 0.6241(5)
H16 H 0.6041(7) 0.4150(7) 0.7326(5)
H17 H 0.7270(7) 0.3114(7) 0.6135(5)
H18 H 0.6947(6) 0.2682(6) 0.8746(5)
H19 H 0.8841(7) 0.1732(7) 0.8435(5)
H20 H 0.7877(7) 0.1642(6) 0.7554(5)
H21 H 0.8948(7) 0.3616(6) 1.0017(5)
H22 H 1.0866(7) 0.2968(6) 0.9432(5)
H23 H 0.9908(7) 0.2249(6) 0.9150(5)
H24 H 0.9785(7) 0.5652(6) 0.7808(5)
H25 H 1.1040(7) 0.4791(6) 0.8498(5)
H26 H 0.9147(6) 0.5523(6) 0.9298(5)
C29? C 0.1050(6) 0.9640(4) 0.9190(4)
C30? C 0.0207(5) 0.9316(4) 0.8704(4)
C31? C -0.1227(6) 0.9519(4) 0.9339(4)
C32? C -0.1862(4) 1.0035(4) 1.0445(3)
C33? C -0.1023(5) 1.0366(4) 1.0945(5)
C34? C 0.0387(5) 1.0160(5) 1.0307(4)
D1? D 0.21944 0.94849 0.86962
D2? D 0.06961 0.89024 0.78201
D3? D -0.18719 0.92641 0.89540
D4? D -0.30066 1.01919 1.09411
D5? D -0.15087 1.07791 1.18289
D6? D 0.10306 1.04156 1.06927
loop_
_geom_bond_atom_site_label_1
_geom_bond_atom_site_label_2
_geom_bond_site_symmetry_1
_geom_bond_site_symmetry_2
F1 C18 1_555 1_555
F2 C19 1_555 1_555
F3 C20 1_555 1_555
F4 C21 1_555 1_555
F5 C22 1_555 1_555
F6 C24 1_555 1_555
F7 C25 1_555 1_555
F8 C26 1_555 1_555
F9 C27 1_555 1_555
F10 C28 1_555 1_555
N1 C7 1_555 1_555
C1 C2 1_555 1_555
C2 C3 1_555 1_555
C3 C4 1_555 1_555
C4 C5 1_555 1_555
C5 C6 1_555 1_555
C6 C1 1_555 1_555
C7 C6 1_555 1_555
C8 N1 1_555 1_555
C9 C8 1_555 1_555
C10 C9 1_555 1_555
C11 C10 1_555 1_555
C12 N1 1_555 1_555
C13 C12 1_555 1_555
C14 C12 1_555 1_555
C15 C8 1_555 1_555
C16 C8 1_555 1_555
C17 C18 1_555 1_555
C18 C19 1_555 1_555
C19 C20 1_555 1_555
C20 C21 1_555 1_555
C21 C22 1_555 1_555
C22 C17 1_555 1_555
C23 C24 1_555 1_555
C24 C25 1_555 1_555
C25 C26 1_555 1_555
C26 C27 1_555 1_555
C27 C28 1_555 1_555
C28 C23 1_555 1_555
B1 C1 1_555 1_555
H1 B1 1_555 1_555
H2 C2 1_555 1_555
H3 C3 1_555 1_555
H4 C4 1_555 1_555
H5 C5 1_555 1_555
H6 C7 1_555 1_555
H7 C7 1_555 1_555
H8 N1 1_555 1_555
H9 C9 1_555 1_555
H10 C9 1_555 1_555
H11 C10 1_555 1_555
H12 C10 1_555 1_555
H13 C11 1_555 1_555
H14 C11 1_555 1_555
H15 C13 1_555 1_555
H16 C13 1_555 1_555
H17 C13 1_555 1_555
H18 C14 1_555 1_555
H19 C14 1_555 1_555
H20 C14 1_555 1_555
H21 C15 1_555 1_555
H22 C15 1_555 1_555
H23 C15 1_555 1_555
H24 C16 1_555 1_555
H25 C16 1_555 1_555
H26 C16 1_555 1_555
C11 C12 1_555 1_555
C17 B1 1_555 1_555
C23 B1 1_555 1_555

#END
