
#######################################################################
#
#                 Cambridge Crystallographic Data Centre
#                                CCDC 
#
#######################################################################
#
# If this CIF has been generated from an entry in the Cambridge 
# Structural Database, then it will include bibliographic, chemical, 
# crystal, experimental, refinement or atomic coordinate data resulting 
# from the CCDC's data processing and validation procedures.
#
#######################################################################

data_ROHVEQ
_chemical_formula_moiety         
'C48 H72 N8 P2 2+,2(C1 F3 O3 S1 1-),2(C1 H2 Cl2)'
_chemical_name_systematic        
"1,1,1',1'-tetrakis(Diisopropylamino)-3,3'-diphenyl-5,5'-bi((1,3,2)diazaphospholo(1,5-a)pyridinium) bis(trifluoromethanesulfonate) dichloromethane solvate"
_symmetry_cell_setting           monoclinic
_symmetry_space_group_name_H-M   'P 21/c'
_symmetry_Int_Tables_number      14
_space_group_name_Hall           '-P 2ybc'
loop_
_symmetry_equiv_pos_site_id
_symmetry_equiv_pos_as_xyz
1 x,y,z
2 -x,1/2+y,1/2-z
3 -x,-y,-z
4 x,1/2-y,1/2+z
_cell_length_a                   9.6074(15)
_cell_length_b                   17.592(3)
_cell_length_c                   18.132(3)
_cell_angle_alpha                90
_cell_angle_beta                 90.94(2)
_cell_angle_gamma                90
_cell_volume                     3064.14
_exptl_crystal_colour            green-black
_exptl_crystal_description       prism
_cell_formula_units_Z            2
loop_
_atom_site_label
_atom_site_type_symbol
_atom_site_fract_x
_atom_site_fract_y
_atom_site_fract_z
P1 P 0.55919(7) 0.74562(4) 0.15653(4)
N1 N 0.5437(2) 0.65849(12) 0.11840(11)
N2 N 0.4451(2) 0.78737(13) 0.10026(12)
N3 N 0.7102(2) 0.78573(13) 0.15039(12)
N4 N 0.5169(2) 0.74062(13) 0.24207(12)
C1 C 0.3923(3) 0.73839(15) 0.05350(14)
C2 C 0.4513(3) 0.66150(15) 0.05741(14)
C3 C 0.4361(3) 0.60126(15) 0.01142(14)
H1 H 0.3743 0.6056 -0.0298
C4 C 0.5104(3) 0.53151(15) 0.02271(14)
C5 C 0.6090(3) 0.53265(15) 0.08462(14)
H2 H 0.6649 0.4890 0.0939
C6 C 0.6243(3) 0.59290(15) 0.12948(14)
H3 H 0.6901 0.5909 0.1691
C7 C 0.2821(3) 0.76210(15) 0.00054(14)
C8 C 0.2811(3) 0.83754(16) -0.02404(15)
H4 H 0.3518 0.8717 -0.0079
C9 C 0.1772(3) 0.86295(17) -0.07177(16)
H5 H 0.1776 0.9141 -0.0887
C10 C 0.0728(3) 0.81381(18) -0.09561(16)
H6 H 0.0020 0.8313 -0.1286
C11 C 0.0724(3) 0.73903(18) -0.07019(17)
H7 H 0.0005 0.7055 -0.0862
C12 C 0.1758(3) 0.71310(16) -0.02252(15)
H8 H 0.1738 0.6621 -0.0053
C13 C 0.8298(3) 0.74856(16) 0.19132(16)
H9 H 0.7896 0.7090 0.2244
C14 C 0.9091(3) 0.80544(18) 0.23969(16)
H10 H 0.9459 0.8464 0.2089
H11 H 0.9863 0.7792 0.2648
H12 H 0.8466 0.8270 0.2764
C15 C 0.9269(3) 0.70821(18) 0.13799(18)
H13 H 0.8705 0.6784 0.1030
H14 H 0.9904 0.6743 0.1651
H15 H 0.9810 0.7461 0.1111
C16 C 0.7467(3) 0.84621(16) 0.09565(15)
H16 H 0.8490 0.8554 0.1019
C17 C 0.6758(4) 0.92132(17) 0.11296(18)
H17 H 0.5744 0.9149 0.1103
H18 H 0.7040 0.9601 0.0774
H19 H 0.7033 0.9374 0.1628
C18 C 0.7248(3) 0.8222(2) 0.01595(16)
H20 H 0.7637 0.7713 0.0089
H21 H 0.7716 0.8582 -0.0166
H22 H 0.6249 0.8215 0.0041
C19 C 0.5494(3) 0.80706(15) 0.29113(15)
H23 H 0.6233 0.8375 0.2664
C20 C 0.6093(3) 0.78040(19) 0.36478(15)
H24 H 0.5374 0.7535 0.3923
H25 H 0.6421 0.8244 0.3934
H26 H 0.6875 0.7459 0.3560
C21 C 0.4237(3) 0.85896(18) 0.29898(17)
H27 H 0.3894 0.8746 0.2501
H28 H 0.4506 0.9041 0.3275
H29 H 0.3501 0.8315 0.3247
C22 C 0.4065(3) 0.68771(16) 0.27171(15)
H30 H 0.3776 0.7103 0.3197
C23 C 0.4644(3) 0.60966(17) 0.29062(17)
H31 H 0.3966 0.5812 0.3195
H32 H 0.5508 0.6156 0.3195
H33 H 0.4839 0.5819 0.2451
C24 C 0.2742(3) 0.68497(18) 0.22435(16)
H34 H 0.2426 0.7371 0.2148
H35 H 0.2013 0.6569 0.2499
H36 H 0.2941 0.6598 0.1775
P1B P 0.44081(7) 0.25438(4) -0.15653(4)
N1B N 0.4563(2) 0.34151(12) -0.11840(11)
N2B N 0.5549(2) 0.21263(13) -0.10026(12)
N3B N 0.2898(2) 0.21427(13) -0.15039(12)
N4B N 0.4831(2) 0.25938(13) -0.24207(12)
C1B C 0.6077(3) 0.26161(15) -0.05350(14)
C2B C 0.5487(3) 0.33850(15) -0.05741(14)
C3B C 0.5639(3) 0.39874(15) -0.01142(14)
H1B H 0.6257 0.3944 0.0298
C4B C 0.4896(3) 0.46849(15) -0.02271(14)
C5B C 0.3910(3) 0.46735(15) -0.08462(14)
H2B H 0.3351 0.5110 -0.0939
C6B C 0.3757(3) 0.40710(15) -0.12948(14)
H3B H 0.3099 0.4091 -0.1691
C7B C 0.7179(3) 0.23790(15) -0.00054(14)
C8B C 0.7189(3) 0.16246(16) 0.02404(15)
H4B H 0.6482 0.1283 0.0079
C9B C 0.8228(3) 0.13705(17) 0.07177(16)
H5B H 0.8224 0.0859 0.0887
C10B C 0.9272(3) 0.18619(18) 0.09561(16)
H6B H 0.9980 0.1687 0.1286
C11B C 0.9276(3) 0.26097(18) 0.07019(17)
H7B H 0.9995 0.2945 0.0862
C12B C 0.8242(3) 0.28690(16) 0.02252(15)
H8B H 0.8262 0.3379 0.0053
C13B C 0.1702(3) 0.25144(16) -0.19132(16)
H9B H 0.2104 0.2910 -0.2244
C14B C 0.0909(3) 0.19456(18) -0.23969(16)
H10B H 0.0541 0.1536 -0.2089
H11B H 0.0137 0.2208 -0.2648
H12B H 0.1534 0.1730 -0.2764
C15B C 0.0731(3) 0.29179(18) -0.13799(18)
H13B H 0.1295 0.3216 -0.1030
H14B H 0.0096 0.3257 -0.1651
H15B H 0.0190 0.2539 -0.1111
C16B C 0.2533(3) 0.15379(16) -0.09565(15)
H16B H 0.1510 0.1446 -0.1019
C17B C 0.3242(4) 0.07868(17) -0.11296(18)
H17B H 0.4256 0.0851 -0.1103
H18B H 0.2960 0.0399 -0.0774
H19B H 0.2967 0.0626 -0.1628
C18B C 0.2752(3) 0.1778(2) -0.01595(16)
H20B H 0.2363 0.2287 -0.0089
H21B H 0.2284 0.1418 0.0166
H22B H 0.3751 0.1785 -0.0041
C19B C 0.4506(3) 0.19294(15) -0.29113(15)
H23B H 0.3767 0.1625 -0.2664
C20B C 0.3907(3) 0.21960(19) -0.36478(15)
H24B H 0.4626 0.2465 -0.3923
H25B H 0.3579 0.1756 -0.3934
H26B H 0.3125 0.2541 -0.3560
C21B C 0.5763(3) 0.14104(18) -0.29898(17)
H27B H 0.6106 0.1254 -0.2501
H28B H 0.5494 0.0959 -0.3275
H29B H 0.6499 0.1685 -0.3247
C22B C 0.5935(3) 0.31229(16) -0.27171(15)
H30B H 0.6224 0.2897 -0.3197
C23B C 0.5356(3) 0.39034(17) -0.29062(17)
H31B H 0.6034 0.4188 -0.3195
H32B H 0.4492 0.3844 -0.3195
H33B H 0.5161 0.4181 -0.2451
C24B C 0.7258(3) 0.31503(18) -0.22435(16)
H34B H 0.7574 0.2629 -0.2148
H35B H 0.7987 0.3431 -0.2499
H36B H 0.7059 0.3402 -0.1775
S1 S 0.10946(7) 1.02347(4) 0.21343(4)
F1 F 0.3179(2) 0.97657(12) 0.13325(13)
F2 F 0.1428(2) 0.90112(11) 0.13246(12)
F3 F 0.1334(3) 1.00537(13) 0.07088(11)
O1 O 0.1620(2) 0.98061(14) 0.27537(12)
O2 O -0.0387(2) 1.01889(14) 0.20120(13)
O3 O 0.1679(2) 1.09851(13) 0.20683(13)
C25 C 0.1792(3) 0.97409(18) 0.13342(18)
Cl1 Cl 0.72911(10) 0.98548(5) 0.33634(5)
Cl2 Cl 0.87703(10) 0.93153(6) 0.46708(5)
C26 C 0.8917(4) 0.9798(2) 0.3811(2)
H37 H 0.9281 1.0317 0.3898
H38 H 0.9583 0.9524 0.3495
loop_
_geom_bond_atom_site_label_1
_geom_bond_atom_site_label_2
_geom_bond_site_symmetry_1
_geom_bond_site_symmetry_2
P1 N1 1_555 1_555
N1 C2 1_555 1_555
N2 P1 1_555 1_555
N3 P1 1_555 1_555
N4 P1 1_555 1_555
C1 N2 1_555 1_555
C2 C1 1_555 1_555
C3 C2 1_555 1_555
H1 C3 1_555 1_555
C4 C3 1_555 1_555
C5 C4 1_555 1_555
H2 C5 1_555 1_555
C6 N1 1_555 1_555
H3 C6 1_555 1_555
C7 C1 1_555 1_555
C8 C7 1_555 1_555
H4 C8 1_555 1_555
C9 C8 1_555 1_555
H5 C9 1_555 1_555
C10 C9 1_555 1_555
H6 C10 1_555 1_555
C11 C10 1_555 1_555
H7 C11 1_555 1_555
C12 C7 1_555 1_555
H8 C12 1_555 1_555
C13 N3 1_555 1_555
H9 C13 1_555 1_555
C14 C13 1_555 1_555
H10 C14 1_555 1_555
H11 C14 1_555 1_555
H12 C14 1_555 1_555
C15 C13 1_555 1_555
H13 C15 1_555 1_555
H14 C15 1_555 1_555
H15 C15 1_555 1_555
C16 N3 1_555 1_555
H16 C16 1_555 1_555
C17 C16 1_555 1_555
H17 C17 1_555 1_555
H18 C17 1_555 1_555
H19 C17 1_555 1_555
C18 C16 1_555 1_555
H20 C18 1_555 1_555
H21 C18 1_555 1_555
H22 C18 1_555 1_555
C19 N4 1_555 1_555
H23 C19 1_555 1_555
C20 C19 1_555 1_555
H24 C20 1_555 1_555
H25 C20 1_555 1_555
H26 C20 1_555 1_555
C21 C19 1_555 1_555
H27 C21 1_555 1_555
H28 C21 1_555 1_555
H29 C21 1_555 1_555
C22 N4 1_555 1_555
H30 C22 1_555 1_555
C23 C22 1_555 1_555
H31 C23 1_555 1_555
H32 C23 1_555 1_555
H33 C23 1_555 1_555
C24 C22 1_555 1_555
H34 C24 1_555 1_555
H35 C24 1_555 1_555
H36 C24 1_555 1_555
S1 O1 1_555 1_555
F1 C25 1_555 1_555
F2 C25 1_555 1_555
F3 C25 1_555 1_555
O2 S1 1_555 1_555
O3 S1 1_555 1_555
C25 S1 1_555 1_555
Cl1 C26 1_555 1_555
Cl2 C26 1_555 1_555
C26 H37 1_555 1_555
H38 C26 1_555 1_555
P1B N1B 1_555 1_555
N1B C2B 1_555 1_555
N2B P1B 1_555 1_555
N3B P1B 1_555 1_555
N4B P1B 1_555 1_555
C1B N2B 1_555 1_555
C2B C1B 1_555 1_555
C3B C2B 1_555 1_555
H1B C3B 1_555 1_555
C4B C4 1_555 1_555
C5B C4B 1_555 1_555
H2B C5B 1_555 1_555
C6B N1B 1_555 1_555
H3B C6B 1_555 1_555
C7B C1B 1_555 1_555
C8B C7B 1_555 1_555
H4B C8B 1_555 1_555
C9B C8B 1_555 1_555
H5B C9B 1_555 1_555
C10B C9B 1_555 1_555
H6B C10B 1_555 1_555
C11B C10B 1_555 1_555
H7B C11B 1_555 1_555
C12B C7B 1_555 1_555
H8B C12B 1_555 1_555
C13B N3B 1_555 1_555
H9B C13B 1_555 1_555
C14B C13B 1_555 1_555
H10B C14B 1_555 1_555
H11B C14B 1_555 1_555
H12B C14B 1_555 1_555
C15B C13B 1_555 1_555
H13B C15B 1_555 1_555
H14B C15B 1_555 1_555
H15B C15B 1_555 1_555
C16B N3B 1_555 1_555
H16B C16B 1_555 1_555
C17B C16B 1_555 1_555
H17B C17B 1_555 1_555
H18B C17B 1_555 1_555
H19B C17B 1_555 1_555
C18B C16B 1_555 1_555
H20B C18B 1_555 1_555
H21B C18B 1_555 1_555
H22B C18B 1_555 1_555
C19B N4B 1_555 1_555
H23B C19B 1_555 1_555
C20B C19B 1_555 1_555
H24B C20B 1_555 1_555
H25B C20B 1_555 1_555
H26B C20B 1_555 1_555
C21B C19B 1_555 1_555
H27B C21B 1_555 1_555
H28B C21B 1_555 1_555
H29B C21B 1_555 1_555
C22B N4B 1_555 1_555
H30B C22B 1_555 1_555
C23B C22B 1_555 1_555
H31B C23B 1_555 1_555
H32B C23B 1_555 1_555
H33B C23B 1_555 1_555
C24B C22B 1_555 1_555
H34B C24B 1_555 1_555
H35B C24B 1_555 1_555
H36B C24B 1_555 1_555
C5 C6 1_555 1_555
C11 C12 1_555 1_555
C3B C4B 1_555 1_555
C5B C6B 1_555 1_555
C11B C12B 1_555 1_555

#END
