
#######################################################################
#
#                 Cambridge Crystallographic Data Centre
#                                CCDC 
#
#######################################################################
#
# If this CIF has been generated from an entry in the Cambridge 
# Structural Database, then it will include bibliographic, chemical, 
# crystal, experimental, refinement or atomic coordinate data resulting 
# from the CCDC's data processing and validation procedures.
#
#######################################################################

data_ROHYEU
_chemical_formula_moiety         'C42 H62 N2 1+,C1 F3 O3 S1 1-'
_chemical_name_systematic        
'1-(2,6-diisopropylphenyl)-5-(2-(1-(2,6-diisopropylphenyl)-3,3,5,5-tetramethylpyrrolidin-2-ylidene)vinyl)-2,2,4,4-tetramethyl-3,4-dihydro-2H-pyrrolium trifluoromethanesulfonate'
_symmetry_cell_setting           triclinic
_symmetry_space_group_name_H-M   'P -1'
_symmetry_Int_Tables_number      2
_space_group_name_Hall           '-P 1'
loop_
_symmetry_equiv_pos_site_id
_symmetry_equiv_pos_as_xyz
1 x,y,z
2 -x,-y,-z
_cell_length_a                   9.152(7)
_cell_length_b                   11.654(5)
_cell_length_c                   19.484(7)
_cell_angle_alpha                81.942(12)
_cell_angle_beta                 87.120(12)
_cell_angle_gamma                79.45(6)
_cell_volume                     2022.17
_exptl_crystal_colour            red
_exptl_crystal_description       plate
_cell_formula_units_Z            2
loop_
_atom_site_label
_atom_site_type_symbol
_atom_site_fract_x
_atom_site_fract_y
_atom_site_fract_z
N1 N 0.5304(3) 0.4129(2) 0.34693(14)
C1 C 0.8456(4) 0.2199(4) 0.4819(2)
H1 H 0.8347 0.1483 0.5133
H2 H 0.8108 0.2890 0.5057
H3 H 0.9505 0.2171 0.4680
C2 C 0.8044(4) 0.1217(4) 0.3803(2)
H4 H 0.7913 0.0501 0.4112
H5 H 0.9095 0.1172 0.3666
H6 H 0.7450 0.1291 0.3389
C3 C 0.7537(4) 0.2280(3) 0.41788(19)
H7 H 0.7708 0.2994 0.3858
C4 C 0.1259(4) 0.3492(4) 0.3290(2)
H8 H 0.1962 0.3064 0.2978
H9 H 0.0511 0.4058 0.3016
H10 H 0.0768 0.2934 0.3600
C5 C 0.1005(4) 0.4837(4) 0.4188(2)
H11 H 0.1544 0.5238 0.4476
H12 H 0.0468 0.4296 0.4487
H13 H 0.0296 0.5423 0.3905
C6 C 0.2098(4) 0.4152(3) 0.37210(18)
H14 H 0.2576 0.4726 0.3396
C7 C 0.5902(4) 0.2421(3) 0.43524(18)
C8 C 0.5402(4) 0.1631(3) 0.48636(18)
H15 H 0.6108 0.1047 0.5118
C9 C 0.3912(4) 0.1661(4) 0.50180(19)
H16 H 0.3599 0.1111 0.5376
C10 C 0.2890(4) 0.2489(3) 0.46515(18)
H17 H 0.1863 0.2504 0.4758
C11 C 0.3307(4) 0.3312(3) 0.41262(17)
C12 C 0.4823(4) 0.3289(3) 0.40010(16)
C13 C 0.4654(6) 0.5643(4) 0.1911(2)
H18 H 0.3764 0.5812 0.2208
H19 H 0.4452 0.5177 0.1557
H20 H 0.4922 0.6385 0.1686
C14 C 0.7240(6) 0.4533(4) 0.1882(3)
H21 H 0.8029 0.4035 0.2166
H22 H 0.7617 0.5214 0.1631
H23 H 0.6921 0.4078 0.1549
C15 C 0.4253(5) 0.6147(4) 0.3708(3)
H24 H 0.4492 0.6919 0.3752
H25 H 0.3767 0.5846 0.4138
H26 H 0.3583 0.6224 0.3321
C16 C 0.6676(5) 0.5195(4) 0.4176(2)
H27 H 0.6213 0.4843 0.4599
H28 H 0.6855 0.5976 0.4240
H29 H 0.7623 0.4691 0.4078
C17 C 0.5654(4) 0.5309(3) 0.35755(18)
C18 C 0.6434(5) 0.5638(4) 0.2882(2)
H30 H 0.7526 0.5428 0.2929
H31 H 0.6172 0.6496 0.2733
C19 C 0.5924(5) 0.4959(3) 0.23485(19)
C20 C 0.5417(4) 0.3943(3) 0.28090(18)
N2 N 0.4640(3) 0.0888(2) 0.15200(14)
C21 C 0.4535(4) 0.1081(3) 0.21740(17)
C22 C 0.4067(4) 0.0062(3) 0.26421(17)
C23 C 0.4313(5) -0.0900(3) 0.21620(18)
H32 H 0.5278 -0.1430 0.2256
H33 H 0.3513 -0.1375 0.2240
C24 C 0.4301(4) -0.0289(3) 0.14175(18)
C25 C 0.2452(5) 0.0377(4) 0.2882(2)
H34 H 0.2367 0.0962 0.3205
H35 H 0.2115 -0.0332 0.3117
H36 H 0.1834 0.0704 0.2480
C26 C 0.5050(5) -0.0296(4) 0.3272(2)
H37 H 0.4787 -0.1006 0.3544
H38 H 0.4900 0.0345 0.3559
H39 H 0.6094 -0.0456 0.3118
C27 C 0.5465(4) -0.0934(4) 0.0968(2)
H40 H 0.6420 -0.1112 0.1202
H41 H 0.5564 -0.0441 0.0524
H42 H 0.5170 -0.1670 0.0887
C28 C 0.2798(4) -0.0136(3) 0.1085(2)
H43 H 0.2026 0.0260 0.1381
H44 H 0.2582 -0.0910 0.1029
H45 H 0.2819 0.0341 0.0629
C29 C 0.5112(4) 0.1736(3) 0.09793(17)
C30 C 0.6624(4) 0.1661(3) 0.08338(18)
C31 C 0.7062(4) 0.2463(4) 0.03092(19)
H46 H 0.8089 0.2415 0.0190
C32 C 0.6045(5) 0.3327(4) -0.00415(19)
H47 H 0.6367 0.3863 -0.0406
C33 C 0.4559(4) 0.3416(3) 0.01338(19)
H48 H 0.3867 0.4032 -0.0105
C34 C 0.4045(4) 0.2636(3) 0.06471(18)
C35 C 0.7803(4) 0.0791(3) 0.12407(18)
H49 H 0.7293 0.0222 0.1554
C36 C 0.8893(4) 0.0090(4) 0.0772(2)
H50 H 0.9525 -0.0554 0.1056
H51 H 0.9515 0.0609 0.0510
H52 H 0.8342 -0.0234 0.0450
C37 C 0.8645(4) 0.1407(4) 0.1696(2)
H53 H 0.9381 0.0820 0.1963
H54 H 0.7942 0.1821 0.2014
H55 H 0.9150 0.1975 0.1401
C38 C 0.2405(4) 0.2808(3) 0.0833(2)
H56 H 0.2224 0.2110 0.1165
C39 C 0.1463(5) 0.2885(4) 0.0205(2)
H57 H 0.0418 0.2921 0.0354
H58 H 0.1792 0.2189 -0.0030
H59 H 0.1568 0.3595 -0.0114
C40 C 0.1929(5) 0.3897(4) 0.1193(2)
H60 H 0.2573 0.3856 0.1587
H61 H 0.0896 0.3936 0.1361
H62 H 0.2012 0.4602 0.0865
C41 C 0.4822(4) 0.2075(3) 0.23864(17)
C42 C 0.5100(4) 0.2963(3) 0.25937(17)
S1 S -0.0139(2) 0.7349(2) 0.23218(12)
F1 F 0.0774(5) 0.7725(4) 0.3513(3)
F2 F -0.0850(6) 0.9109(3) 0.3040(4)
F3 F -0.1478(7) 0.7516(5) 0.3536(3)
O1 O 0.0275(8) 0.6142(5) 0.2549(3)
O2 O 0.1012(5) 0.7929(5) 0.2005(3)
O3 O -0.1553(10) 0.7737(8) 0.2026(4)
C43 C -0.0461(11) 0.7958(8) 0.3157(5)
S2? S -0.0202(9) 0.7785(8) 0.2726(7)
F4? F -0.142(3) 0.734(2) 0.1708(16)
F5? F 0.097(2) 0.740(2) 0.1486(14)
F6? F 0.028(3) 0.5948(16) 0.2127(16)
O4? O 0.128(3) 0.750(3) 0.2984(19)
O5? O -0.069(3) 0.9034(17) 0.2505(16)
O6? O -0.131(3) 0.736(3) 0.3181(16)
C44? C -0.005(3) 0.712(3) 0.193(3)
loop_
_geom_bond_atom_site_label_1
_geom_bond_atom_site_label_2
_geom_bond_site_symmetry_1
_geom_bond_site_symmetry_2
N1 C12 1_555 1_555
C1 H1 1_555 1_555
H2 C1 1_555 1_555
H3 C1 1_555 1_555
C2 H4 1_555 1_555
H5 C2 1_555 1_555
H6 C2 1_555 1_555
C3 C1 1_555 1_555
H7 C3 1_555 1_555
C4 H8 1_555 1_555
H9 C4 1_555 1_555
H10 C4 1_555 1_555
C5 H11 1_555 1_555
H12 C5 1_555 1_555
H13 C5 1_555 1_555
C6 C4 1_555 1_555
H14 C6 1_555 1_555
C7 C3 1_555 1_555
C8 C7 1_555 1_555
H15 C8 1_555 1_555
C9 C8 1_555 1_555
H16 C9 1_555 1_555
C10 C9 1_555 1_555
H17 C10 1_555 1_555
C11 C6 1_555 1_555
C12 C7 1_555 1_555
C13 H18 1_555 1_555
H19 C13 1_555 1_555
H20 C13 1_555 1_555
C14 H21 1_555 1_555
H22 C14 1_555 1_555
H23 C14 1_555 1_555
C15 H24 1_555 1_555
H25 C15 1_555 1_555
H26 C15 1_555 1_555
C16 H27 1_555 1_555
H28 C16 1_555 1_555
H29 C16 1_555 1_555
C17 N1 1_555 1_555
C18 C17 1_555 1_555
H30 C18 1_555 1_555
H31 C18 1_555 1_555
C19 C13 1_555 1_555
C20 N1 1_555 1_555
N2 C21 1_555 1_555
C21 C22 1_555 1_555
C22 C23 1_555 1_555
C23 H32 1_555 1_555
H33 C23 1_555 1_555
C24 N2 1_555 1_555
C25 C22 1_555 1_555
H34 C25 1_555 1_555
H35 C25 1_555 1_555
H36 C25 1_555 1_555
C26 C22 1_555 1_555
H37 C26 1_555 1_555
H38 C26 1_555 1_555
H39 C26 1_555 1_555
C27 C24 1_555 1_555
H40 C27 1_555 1_555
H41 C27 1_555 1_555
H42 C27 1_555 1_555
C28 C24 1_555 1_555
H43 C28 1_555 1_555
H44 C28 1_555 1_555
H45 C28 1_555 1_555
C29 N2 1_555 1_555
C30 C29 1_555 1_555
C31 C30 1_555 1_555
H46 C31 1_555 1_555
C32 C31 1_555 1_555
H47 C32 1_555 1_555
C33 C32 1_555 1_555
H48 C33 1_555 1_555
C34 C29 1_555 1_555
C35 C30 1_555 1_555
H49 C35 1_555 1_555
C36 C35 1_555 1_555
H50 C36 1_555 1_555
H51 C36 1_555 1_555
H52 C36 1_555 1_555
C37 C35 1_555 1_555
H53 C37 1_555 1_555
H54 C37 1_555 1_555
H55 C37 1_555 1_555
C38 C34 1_555 1_555
H56 C38 1_555 1_555
C39 C38 1_555 1_555
H57 C39 1_555 1_555
H58 C39 1_555 1_555
H59 C39 1_555 1_555
C40 C38 1_555 1_555
H60 C40 1_555 1_555
H61 C40 1_555 1_555
H62 C40 1_555 1_555
C41 C21 1_555 1_555
C42 C20 1_555 1_555
S1 O1 1_555 1_555
F1 C43 1_555 1_555
F2 C43 1_555 1_555
F3 C43 1_555 1_555
O2 S1 1_555 1_555
O3 S1 1_555 1_555
C43 S1 1_555 1_555
C2 C3 1_555 1_555
C5 C6 1_555 1_555
C10 C11 1_555 1_555
C11 C12 1_555 1_555
C14 C19 1_555 1_555
C15 C17 1_555 1_555
C16 C17 1_555 1_555
C18 C19 1_555 1_555
C19 C20 1_555 1_555
C23 C24 1_555 1_555
C33 C34 1_555 1_555
C41 C42 1_555 1_555

#END
