
#######################################################################
#
#                 Cambridge Crystallographic Data Centre
#                                CCDC 
#
#######################################################################
#
# If this CIF has been generated from an entry in the Cambridge 
# Structural Database, then it will include bibliographic, chemical, 
# crystal, experimental, refinement or atomic coordinate data resulting 
# from the CCDC's data processing and validation procedures.
#
#######################################################################

data_ROJHAB
_chemical_formula_moiety         'C20 H22 O7'
_chemical_name_systematic        
8b-(hydroxymethyl)-6a-isopropyl-3b,4,4a,7a,7b,8b,9,10-octahydrotrisoxireno[6,7:8a,9:4b,5]phenanthro[1,2-c]furan-1,6(3H,6aH)-dione
_symmetry_cell_setting           monoclinic
_symmetry_space_group_name_H-M   'P 21'
_symmetry_Int_Tables_number      4
_space_group_name_Hall           'P 2yb'
loop_
_symmetry_equiv_pos_site_id
_symmetry_equiv_pos_as_xyz
1 x,y,z
2 -x,1/2+y,-z
_cell_length_a                   11.2277(13)
_cell_length_b                   6.4677(7)
_cell_length_c                   12.6918(15)
_cell_angle_alpha                90
_cell_angle_beta                 105.105(2)
_cell_angle_gamma                90
_cell_volume                     889.803
_exptl_crystal_colour            colorless
_exptl_crystal_description       prismatic
_cell_formula_units_Z            2
loop_
_atom_site_label
_atom_site_type_symbol
_atom_site_fract_x
_atom_site_fract_y
_atom_site_fract_z
O1 O 0.13403(14) 0.5716(2) 0.48646(12)
O2 O 0.39720(14) 0.3620(3) 0.49493(13)
O3 O 0.25070(15) -0.0344(3) 0.60891(13)
O4 O 0.1804(2) 0.4356(4) 0.69267(14)
O5 O 0.06694(18) 0.1645(3) -0.09342(13)
O6 O -0.07946(16) 0.1593(3) -0.00333(12)
O7 O 0.3383(2) 0.6431(4) 0.3145(2)
H1 H 0.3596 0.6628 0.3806
C1 C 0.30130(19) 0.1960(4) 0.26011(17)
H2 H 0.3861 0.2435 0.2826
H3 H 0.3003 0.0517 0.2807
C2 C 0.2544(2) 0.2141(5) 0.13565(18)
H4 H 0.2777 0.3471 0.1119
H5 H 0.2910 0.1066 0.1010
C3 C 0.1180(2) 0.1929(4) 0.10385(17)
C4 C 0.04628(19) 0.1986(3) 0.17107(16)
C5 C 0.09094(17) 0.2297(3) 0.29205(15)
H6 H 0.0977 0.0920 0.3253
C6 C 0.00007(18) 0.3524(4) 0.33942(17)
H7 H -0.0199 0.4813 0.2997
H8 H -0.0756 0.2738 0.3295
C7 C 0.05109(19) 0.3985(3) 0.45822(17)
H9 H -0.0052 0.3767 0.5046
C8 C 0.18473(19) 0.3695(3) 0.51178(17)
C9 C 0.27048(18) 0.3008(3) 0.44487(17)
C10 C 0.22339(18) 0.3223(3) 0.32116(16)
C11 C 0.36368(19) 0.1468(5) 0.49531(18)
H10 H 0.3926 0.0577 0.4446
C12 C 0.3659(2) 0.0535(4) 0.60241(18)
H11 H 0.4402 -0.0250 0.6378
C13 C 0.29829(19) 0.1445(4) 0.67479(17)
C14 C 0.2192(2) 0.3279(4) 0.63278(18)
C15 C 0.3386(2) 0.1167(5) 0.79786(19)
H12 H 0.2667 0.1424 0.8262
C16 C 0.4350(4) 0.2758(8) 0.8472(3)
H13 H 0.4605 0.2577 0.9250
H14 H 0.4011 0.4118 0.8305
H15 H 0.5049 0.2593 0.8177
C17 C 0.3835(3) -0.1001(7) 0.8308(3)
H16 H 0.4610 -0.1223 0.8137
H17 H 0.3241 -0.1982 0.7917
H18 H 0.3941 -0.1174 0.9078
C18 C 0.0410(2) 0.1706(4) -0.00762(18)
C19 C -0.0849(2) 0.1738(4) 0.10891(16)
H19 H -0.1202 0.0495 0.1311
H20 H -0.1337 0.2921 0.1195
C20 C 0.2228(2) 0.5527(4) 0.28643(18)
H21 H 0.1894 0.5622 0.2080
H22 H 0.1686 0.6297 0.3204
loop_
_geom_bond_atom_site_label_1
_geom_bond_atom_site_label_2
_geom_bond_site_symmetry_1
_geom_bond_site_symmetry_2
O1 C7 1_555 1_555
O2 C9 1_555 1_555
O3 C12 1_555 1_555
O4 C14 1_555 1_555
O5 C18 1_555 1_555
O6 C18 1_555 1_555
O7 H1 1_555 1_555
C1 H2 1_555 1_555
H3 C1 1_555 1_555
C2 C1 1_555 1_555
H4 C2 1_555 1_555
H5 C2 1_555 1_555
C3 C2 1_555 1_555
C4 C3 1_555 1_555
C5 C4 1_555 1_555
H6 C5 1_555 1_555
C6 C5 1_555 1_555
H7 C6 1_555 1_555
H8 C6 1_555 1_555
C7 C6 1_555 1_555
H9 C7 1_555 1_555
C8 O1 1_555 1_555
C9 C8 1_555 1_555
C10 C1 1_555 1_555
C11 O2 1_555 1_555
H10 C11 1_555 1_555
C12 C11 1_555 1_555
H11 C12 1_555 1_555
C13 O3 1_555 1_555
C14 C8 1_555 1_555
C15 C13 1_555 1_555
H12 C15 1_555 1_555
C16 C15 1_555 1_555
H13 C16 1_555 1_555
H14 C16 1_555 1_555
H15 C16 1_555 1_555
C17 C15 1_555 1_555
H16 C17 1_555 1_555
H17 C17 1_555 1_555
H18 C17 1_555 1_555
C18 C3 1_555 1_555
C19 O6 1_555 1_555
H19 C19 1_555 1_555
H20 C19 1_555 1_555
C20 O7 1_555 1_555
H21 C20 1_555 1_555
H22 C20 1_555 1_555
C4 C19 1_555 1_555
C5 C10 1_555 1_555
C7 C8 1_555 1_555
C9 C10 1_555 1_555
C9 C11 1_555 1_555
C10 C20 1_555 1_555
C12 C13 1_555 1_555
C13 C14 1_555 1_555

#END
