
#######################################################################
#
#                 Cambridge Crystallographic Data Centre
#                                CCDC 
#
#######################################################################
#
# If this CIF has been generated from an entry in the Cambridge 
# Structural Database, then it will include bibliographic, chemical, 
# crystal, experimental, refinement or atomic coordinate data resulting 
# from the CCDC's data processing and validation procedures.
#
#######################################################################

data_ROJHOP
_chemical_formula_moiety         'C28 H34 O2'
_chemical_name_systematic        
9,10-bis(4-methoxyphenyl)tricyclo[8.3.1.0^2,8^]tetradec-2(8)-ene
_symmetry_cell_setting           triclinic
_symmetry_space_group_name_H-M   'P -1'
_symmetry_Int_Tables_number      2
_space_group_name_Hall           '-P 1'
loop_
_symmetry_equiv_pos_site_id
_symmetry_equiv_pos_as_xyz
1 x,y,z
2 -x,-y,-z
_cell_length_a                   6.07970(10)
_cell_length_b                   8.9554(2)
_cell_length_c                   21.1577(5)
_cell_angle_alpha                78.9600(10)
_cell_angle_beta                 81.7650(10)
_cell_angle_gamma                77.9970(10)
_cell_volume                     1099.48
_exptl_crystal_colour            colorless
_exptl_crystal_description       prism
_cell_formula_units_Z            2
loop_
_atom_site_label
_atom_site_type_symbol
_atom_site_fract_x
_atom_site_fract_y
_atom_site_fract_z
O1 O 0.3501(2) 0.97136(12) 0.11318(6)
O2 O 0.7084(2) 0.34986(14) 0.01386(5)
C1 C 0.1309(3) 1.0045(2) 0.09226(10)
H1 H 0.1209 1.0914 0.0576
H2 H 0.0199 1.0286 0.1277
H3 H 0.1038 0.9159 0.0773
C2 C 0.3958(3) 0.84956(17) 0.16290(8)
C3 C 0.5964(3) 0.83504(18) 0.18916(8)
H4 H 0.6890 0.9077 0.1739
C4 C 0.6601(3) 0.71385(18) 0.23779(8)
H5 H 0.7960 0.7067 0.2545
C5 C 0.5279(3) 0.60128(17) 0.26288(7)
C6 C 0.3258(3) 0.62127(18) 0.23635(8)
H6 H 0.2309 0.5502 0.2522
C7 C 0.2584(3) 0.74280(18) 0.18715(8)
H7 H 0.1213 0.7518 0.1708
C8 C 0.6070(3) 0.46143(17) 0.31362(7)
C9 C 0.7128(3) 0.51513(18) 0.36599(8)
H8 H 0.8451 0.5573 0.3456
H9 H 0.6046 0.5980 0.3828
C10 C 0.7823(3) 0.38830(19) 0.42274(8)
H10 H 0.9112 0.3149 0.4078
H11 H 0.8280 0.4342 0.4556
C11 C 0.5911(3) 0.3036(2) 0.45238(8)
H12 H 0.4726 0.3721 0.4743
H13 H 0.6467 0.2154 0.4842
C12 C 0.4937(3) 0.24756(18) 0.39955(7)
H14 H 0.3651 0.1987 0.4198
C13 C 0.4103(3) 0.38405(17) 0.34834(7)
H15 H 0.2972 0.4589 0.3687
H16 H 0.3402 0.3484 0.3170
C14 C 0.6700(3) 0.12916(17) 0.36897(7)
C15 C 0.6899(3) -0.03737(18) 0.40337(8)
H17 H 0.6667 -0.1000 0.3731
H18 H 0.5687 -0.0422 0.4385
C16 C 0.9131(3) -0.1098(2) 0.43114(8)
H19 H 0.9539 -0.0365 0.4537
H20 H 0.8908 -0.2007 0.4628
C17 C 1.1087(3) -0.15681(19) 0.38140(8)
H21 H 1.2395 -0.2070 0.4040
H22 H 1.0694 -0.2327 0.3599
C18 C 1.1748(3) -0.02588(19) 0.33013(8)
H23 H 1.3083 -0.0670 0.3033
H24 H 1.2153 0.0497 0.3515
C19 C 0.9919(3) 0.05643(18) 0.28642(8)
H25 H 1.0631 0.1106 0.2472
H26 H 0.9241 -0.0211 0.2740
C20 C 0.8054(3) 0.17118(17) 0.31611(7)
C21 C 0.7875(3) 0.33834(16) 0.28000(7)
H27 H 0.9348 0.3665 0.2800
C22 C 0.7590(3) 0.34176(17) 0.20940(7)
C23 C 0.8970(3) 0.41327(18) 0.15958(8)
H28 H 1.0068 0.4604 0.1698
C24 C 0.8749(3) 0.41604(19) 0.09535(8)
H29 H 0.9686 0.4652 0.0630
C25 C 0.7133(3) 0.34562(18) 0.07908(8)
C26 C 0.5739(3) 0.27426(18) 0.12751(8)
H30 H 0.4636 0.2278 0.1171
C27 C 0.5990(3) 0.27223(18) 0.19182(8)
H31 H 0.5055 0.2226 0.2241
C28 C 0.5354(4) 0.2861(2) -0.00413(9)
H32 H 0.5487 0.2955 -0.0504
H33 H 0.3900 0.3410 0.0108
H34 H 0.5506 0.1787 0.0151
loop_
_geom_bond_atom_site_label_1
_geom_bond_atom_site_label_2
_geom_bond_site_symmetry_1
_geom_bond_site_symmetry_2
O1 C1 1_555 1_555
O2 C25 1_555 1_555
C1 H1 1_555 1_555
H2 C1 1_555 1_555
H3 C1 1_555 1_555
C2 O1 1_555 1_555
C3 C2 1_555 1_555
H4 C3 1_555 1_555
C4 C3 1_555 1_555
H5 C4 1_555 1_555
C5 C4 1_555 1_555
C6 C5 1_555 1_555
H6 C6 1_555 1_555
C7 C2 1_555 1_555
H7 C7 1_555 1_555
C8 C5 1_555 1_555
C9 C8 1_555 1_555
H8 C9 1_555 1_555
H9 C9 1_555 1_555
C10 C9 1_555 1_555
H10 C10 1_555 1_555
H11 C10 1_555 1_555
C11 C10 1_555 1_555
H12 C11 1_555 1_555
H13 C11 1_555 1_555
C12 C11 1_555 1_555
H14 C12 1_555 1_555
C13 C8 1_555 1_555
H15 C13 1_555 1_555
H16 C13 1_555 1_555
C14 C12 1_555 1_555
C15 C14 1_555 1_555
H17 C15 1_555 1_555
H18 C15 1_555 1_555
C16 C15 1_555 1_555
H19 C16 1_555 1_555
H20 C16 1_555 1_555
C17 C16 1_555 1_555
H21 C17 1_555 1_555
H22 C17 1_555 1_555
C18 C17 1_555 1_555
H23 C18 1_555 1_555
H24 C18 1_555 1_555
C19 C18 1_555 1_555
H25 C19 1_555 1_555
H26 C19 1_555 1_555
C20 C14 1_555 1_555
C21 C8 1_555 1_555
H27 C21 1_555 1_555
C22 C21 1_555 1_555
C23 C22 1_555 1_555
H28 C23 1_555 1_555
C24 C23 1_555 1_555
H29 C24 1_555 1_555
C25 C24 1_555 1_555
C26 C25 1_555 1_555
H30 C26 1_555 1_555
C27 C22 1_555 1_555
H31 C27 1_555 1_555
C28 O2 1_555 1_555
H32 C28 1_555 1_555
H33 C28 1_555 1_555
H34 C28 1_555 1_555
C6 C7 1_555 1_555
C12 C13 1_555 1_555
C19 C20 1_555 1_555
C20 C21 1_555 1_555
C26 C27 1_555 1_555

#END
