
#######################################################################
#
#                 Cambridge Crystallographic Data Centre
#                                CCDC 
#
#######################################################################
#
# If this CIF has been generated from an entry in the Cambridge 
# Structural Database, then it will include bibliographic, chemical, 
# crystal, experimental, refinement or atomic coordinate data resulting 
# from the CCDC's data processing and validation procedures.
#
#######################################################################

data_ROJJAD
_chemical_formula_moiety         'C26 H28 Br2'
_chemical_name_systematic        
9,10-bis(4-bromophenyl)tricyclo[8.3.1.0^2,8^]tetradec-2(8)-ene
_symmetry_cell_setting           monoclinic
_symmetry_space_group_name_H-M   'P 21/c'
_symmetry_Int_Tables_number      14
_space_group_name_Hall           '-P 2ybc'
loop_
_symmetry_equiv_pos_site_id
_symmetry_equiv_pos_as_xyz
1 x,y,z
2 -x,1/2+y,1/2-z
3 -x,-y,-z
4 x,1/2-y,1/2+z
_cell_length_a                   6.0998(2)
_cell_length_b                   16.9713(4)
_cell_length_c                   42.3763(11)
_cell_angle_alpha                90
_cell_angle_beta                 90.9970(10)
_cell_angle_gamma                90
_cell_volume                     4386.2
_exptl_crystal_colour            colorless
_exptl_crystal_description       prism
_cell_formula_units_Z            8
loop_
_atom_site_label
_atom_site_type_symbol
_atom_site_fract_x
_atom_site_fract_y
_atom_site_fract_z
Br1 Br 0.38691(10) 0.38486(3) 0.659324(12)
Br2 Br 0.57527(12) 0.54625(4) 0.807776(17)
C1 C 0.3218(8) 0.3235(3) 0.69557(11)
C2 C 0.1128(8) 0.2985(3) 0.70001(11)
H1 H 0.0006 0.3134 0.6861
C3 C 0.0704(8) 0.2507(3) 0.72546(12)
H2 H -0.0723 0.2330 0.7281
C4 C 0.2293(7) 0.2279(3) 0.74721(10)
C5 C 0.4368(8) 0.2569(3) 0.74196(13)
H3 H 0.5495 0.2441 0.7561
C6 C 0.4830(8) 0.3045(3) 0.71645(14)
H4 H 0.6246 0.3232 0.7137
C7 C 0.1784(6) 0.1747(3) 0.77519(10)
C8 C 0.0072(7) 0.1124(3) 0.76420(11)
H5 H -0.1294 0.1394 0.7593
H6 H 0.0578 0.0890 0.7448
C9 C -0.0410(8) 0.0460(3) 0.78739(12)
H7 H -0.1273 0.0056 0.7768
H8 H -0.1264 0.0665 0.8046
C10 C 0.1706(8) 0.0099(3) 0.80047(13)
H9 H 0.1369 -0.0271 0.8172
H10 H 0.2442 -0.0187 0.7839
C11 C 0.3208(7) 0.0747(3) 0.81342(11)
H11 H 0.4549 0.0502 0.8219
C12 C 0.3825(7) 0.1303(3) 0.78718(11)
H12 H 0.4458 0.1007 0.7700
H13 H 0.4913 0.1676 0.7949
C13 C 0.2085(7) 0.1167(3) 0.83992(11)
C14 C 0.2118(8) 0.0750(3) 0.87143(11)
H14 H 0.2729 0.1104 0.8873
H15 H 0.3085 0.0298 0.8701
C15 C -0.0118(9) 0.0471(3) 0.88227(12)
H16 H -0.0899 0.0239 0.8644
H17 H 0.0094 0.0061 0.8980
C16 C -0.1539(10) 0.1122(4) 0.89624(14)
H18 H -0.0746 0.1358 0.9139
H19 H -0.2860 0.0885 0.9044
C17 C -0.2188(9) 0.1764(4) 0.87339(12)
H20 H -0.3182 0.2121 0.8839
H21 H -0.2986 0.1528 0.8558
C18 C -0.0291(8) 0.2241(3) 0.86048(11)
H22 H 0.0706 0.2370 0.8778
H23 H -0.0863 0.2732 0.8520
C19 C 0.0990(7) 0.1831(3) 0.83496(10)
C20 C 0.0896(7) 0.2253(3) 0.80339(10)
H24 H -0.0657 0.2354 0.7987
C21 C 0.2004(7) 0.3056(3) 0.80612(10)
C22 C 0.1111(8) 0.3715(3) 0.79214(11)
H25 H -0.0244 0.3677 0.7819
C23 C 0.2194(10) 0.4439(3) 0.79304(12)
H26 H 0.1566 0.4881 0.7836
C24 C 0.4209(9) 0.4488(3) 0.80812(12)
C25 C 0.5110(8) 0.3854(3) 0.82330(13)
H27 H 0.6448 0.3898 0.8340
C26 C 0.3994(7) 0.3141(3) 0.82246(12)
H28 H 0.4588 0.2709 0.8331
Br3 Br 0.34084(12) 1.07834(3) 0.971522(16)
Br4 Br 0.64680(9) 0.72235(3) 1.068168(12)
C27 C 0.2884(8) 0.9751(3) 0.95598(11)
C28 C 0.4529(8) 0.9368(3) 0.94076(13)
H29 H 0.5883 0.9611 0.9384
C29 C 0.4173(7) 0.8618(3) 0.92889(12)
H30 H 0.5305 0.8362 0.9186
C30 C 0.2173(7) 0.8237(2) 0.93193(10)
C31 C 0.0537(7) 0.8657(3) 0.94774(10)
H31 H -0.0828 0.8423 0.9503
C32 C 0.0886(8) 0.9400(3) 0.95960(11)
H32 H -0.0227 0.9663 0.9700
C33 C 0.1702(6) 0.7427(2) 0.91802(10)
C34 C -0.0170(7) 0.7545(3) 0.89298(10)
H33 H -0.1487 0.7698 0.9039
H34 H 0.0231 0.7981 0.8794
C35 C -0.0716(7) 0.6841(3) 0.87224(11)
H35 H -0.1702 0.7005 0.8553
H36 H -0.1461 0.6446 0.8846
C36 C 0.1349(8) 0.6481(3) 0.85825(11)
H37 H 0.1966 0.6841 0.8430
H38 H 0.0982 0.5993 0.8475
C37 C 0.3037(7) 0.6319(3) 0.88488(10)
H39 H 0.4349 0.6088 0.8756
C38 C 0.3673(7) 0.7086(3) 0.90067(10)
H40 H 0.4163 0.7458 0.8849
H41 H 0.4873 0.6995 0.9156
C39 C 0.2103(6) 0.5738(2) 0.90762(10)
C40 C 0.2143(8) 0.4886(3) 0.89759(13)
H42 H 0.2845 0.4580 0.9143
H43 H 0.3040 0.4841 0.8790
C41 C -0.0110(9) 0.4523(3) 0.89015(15)
H44 H -0.0957 0.4895 0.8775
H45 H 0.0095 0.4053 0.8775
C42 C -0.1413(9) 0.4307(3) 0.91878(16)
H46 H -0.0591 0.3915 0.9307
H47 H -0.2769 0.4061 0.9116
C43 C -0.1978(9) 0.4975(3) 0.94086(14)
H48 H -0.2853 0.5360 0.9293
H49 H -0.2871 0.4769 0.9577
C44 C 0.0025(8) 0.5394(3) 0.95560(12)
H50 H -0.0432 0.5676 0.9743
H51 H 0.1089 0.5000 0.9622
C45 C 0.1121(6) 0.5968(2) 0.93366(10)
C46 C 0.1026(6) 0.6827(2) 0.94424(9)
H52 H -0.0506 0.6939 0.9492
C47 C 0.2345(6) 0.6919(2) 0.97493(10)
C48 C 0.4380(7) 0.6570(3) 0.97884(11)
H53 H 0.4941 0.6270 0.9625
C49 C 0.5608(8) 0.6654(3) 1.00643(11)
H54 H 0.6971 0.6412 1.0086
C50 C 0.4787(7) 0.7096(3) 1.03046(11)
C51 C 0.2750(8) 0.7438(3) 1.02761(11)
H55 H 0.2189 0.7732 1.0441
C52 C 0.1544(7) 0.7342(3) 1.00006(11)
H56 H 0.0157 0.7567 0.9984
loop_
_geom_bond_atom_site_label_1
_geom_bond_atom_site_label_2
_geom_bond_site_symmetry_1
_geom_bond_site_symmetry_2
Br1 C1 1_555 1_555
Br2 C24 1_555 1_555
C1 C2 1_555 1_555
C2 H1 1_555 1_555
C3 C2 1_555 1_555
H2 C3 1_555 1_555
C4 C3 1_555 1_555
C5 C4 1_555 1_555
H3 C5 1_555 1_555
C6 C1 1_555 1_555
H4 C6 1_555 1_555
C7 C4 1_555 1_555
C8 C7 1_555 1_555
H5 C8 1_555 1_555
H6 C8 1_555 1_555
C9 C8 1_555 1_555
H7 C9 1_555 1_555
H8 C9 1_555 1_555
C10 C9 1_555 1_555
H9 C10 1_555 1_555
H10 C10 1_555 1_555
C11 C10 1_555 1_555
H11 C11 1_555 1_555
C12 C7 1_555 1_555
H12 C12 1_555 1_555
H13 C12 1_555 1_555
C13 C11 1_555 1_555
C14 C13 1_555 1_555
H14 C14 1_555 1_555
H15 C14 1_555 1_555
C15 C14 1_555 1_555
H16 C15 1_555 1_555
H17 C15 1_555 1_555
C16 C15 1_555 1_555
H18 C16 1_555 1_555
H19 C16 1_555 1_555
C17 C16 1_555 1_555
H20 C17 1_555 1_555
H21 C17 1_555 1_555
C18 C17 1_555 1_555
H22 C18 1_555 1_555
H23 C18 1_555 1_555
C19 C13 1_555 1_555
C20 C7 1_555 1_555
H24 C20 1_555 1_555
C21 C20 1_555 1_555
C22 C21 1_555 1_555
H25 C22 1_555 1_555
C23 C22 1_555 1_555
H26 C23 1_555 1_555
C24 C23 1_555 1_555
C25 C24 1_555 1_555
H27 C25 1_555 1_555
C26 C21 1_555 1_555
H28 C26 1_555 1_555
Br3 C27 1_555 1_555
Br4 C50 1_555 1_555
C27 C28 1_555 1_555
C28 H29 1_555 1_555
C29 C28 1_555 1_555
H30 C29 1_555 1_555
C30 C29 1_555 1_555
C31 C30 1_555 1_555
H31 C31 1_555 1_555
C32 C27 1_555 1_555
H32 C32 1_555 1_555
C33 C30 1_555 1_555
C34 C33 1_555 1_555
H33 C34 1_555 1_555
H34 C34 1_555 1_555
C35 C34 1_555 1_555
H35 C35 1_555 1_555
H36 C35 1_555 1_555
C36 C35 1_555 1_555
H37 C36 1_555 1_555
H38 C36 1_555 1_555
C37 C36 1_555 1_555
H39 C37 1_555 1_555
C38 C33 1_555 1_555
H40 C38 1_555 1_555
H41 C38 1_555 1_555
C39 C37 1_555 1_555
C40 C39 1_555 1_555
H42 C40 1_555 1_555
H43 C40 1_555 1_555
C41 C40 1_555 1_555
H44 C41 1_555 1_555
H45 C41 1_555 1_555
C42 C41 1_555 1_555
H46 C42 1_555 1_555
H47 C42 1_555 1_555
C43 C42 1_555 1_555
H48 C43 1_555 1_555
H49 C43 1_555 1_555
C44 C43 1_555 1_555
H50 C44 1_555 1_555
H51 C44 1_555 1_555
C45 C39 1_555 1_555
C46 C33 1_555 1_555
H52 C46 1_555 1_555
C47 C46 1_555 1_555
C48 C47 1_555 1_555
H53 C48 1_555 1_555
C49 C48 1_555 1_555
H54 C49 1_555 1_555
C50 C49 1_555 1_555
C51 C50 1_555 1_555
H55 C51 1_555 1_555
C52 C47 1_555 1_555
H56 C52 1_555 1_555
C5 C6 1_555 1_555
C11 C12 1_555 1_555
C18 C19 1_555 1_555
C19 C20 1_555 1_555
C25 C26 1_555 1_555
C31 C32 1_555 1_555
C37 C38 1_555 1_555
C44 C45 1_555 1_555
C45 C46 1_555 1_555
C51 C52 1_555 1_555

#END
