
#######################################################################
#
#                 Cambridge Crystallographic Data Centre
#                                CCDC 
#
#######################################################################
#
# If this CIF has been generated from an entry in the Cambridge 
# Structural Database, then it will include bibliographic, chemical, 
# crystal, experimental, refinement or atomic coordinate data resulting 
# from the CCDC's data processing and validation procedures.
#
#######################################################################

data_ROJROY
_chemical_name_common            
3-Hydroxy-3,3'-di(2-thienyl)-2,3-dihydro-1H,1'H-2,2'-biindene-1,1'-dione
_chemical_formula_moiety         'C26 H16 O3 S2'
_chemical_name_systematic        
2-(3'-hydroxy-3'-(2-thienyl)indanone-2'-yl)-3-(2-thienyl)indenone
_symmetry_cell_setting           monoclinic
_symmetry_space_group_name_H-M   'P 21/n'
_symmetry_Int_Tables_number      14
_space_group_name_Hall           '-P 2yn'
loop_
_symmetry_equiv_pos_site_id
_symmetry_equiv_pos_as_xyz
1 x,y,z
2 1/2-x,1/2+y,1/2-z
3 -x,-y,-z
4 1/2+x,1/2-y,1/2+z
_cell_length_a                   10.253(4)
_cell_length_b                   16.884(7)
_cell_length_c                   11.910(5)
_cell_angle_alpha                90
_cell_angle_beta                 97.435(7)
_cell_angle_gamma                90
_cell_volume                     2044.43
_exptl_crystal_colour            orange
_chemical_melting_point          '207-209 deg.C'
_cell_formula_units_Z            4
_exptl_crystal_recrystallization_method chloroform
loop_
_atom_site_label
_atom_site_type_symbol
_atom_site_fract_x
_atom_site_fract_y
_atom_site_fract_z
O1 O 0.24854(15) 0.07886(11) 0.19487(14)
O2 O 0.39956(16) -0.03296(9) 0.37930(13)
O3 O 0.54819(16) 0.19084(10) 0.53844(14)
H1 H 0.5673 0.1497 0.5734
C1 C 0.4774(2) 0.10905(13) 0.25083(19)
C2 C 0.3572(2) 0.09367(14) 0.1697(2)
C3 C 0.3986(2) 0.09747(13) 0.0547(2)
C4 C 0.3274(3) 0.08743(15) -0.0502(2)
H2 H 0.2374 0.0776 -0.0578
C5 C 0.3935(3) 0.09236(16) -0.1448(2)
H3 H 0.3477 0.0851 -0.2167
C6 C 0.5257(3) 0.10791(16) -0.1328(2)
H4 H 0.5684 0.1114 -0.1969
C7 C 0.5975(2) 0.11863(15) -0.0264(2)
H5 H 0.6871 0.1295 -0.0192
C8 C 0.5333(2) 0.11279(13) 0.06760(19)
C9 C 0.5804(2) 0.11917(13) 0.19155(19)
C10 C 0.7149(3) 0.1351(3) 0.2414(4)
C11 C 0.7546(9) 0.1817(4) 0.3339(6)
H6 H 0.6983 0.2084 0.3762
C12 C 0.8965(5) 0.1834(3) 0.3560(5)
H7 H 0.9425 0.2118 0.4153
C13 C 0.9559(4) 0.1395(3) 0.2821(5)
H8 H 1.0467 0.1347 0.2855
S1 S 0.84786(13) 0.09437(8) 0.18281(12)
C18 C 0.4799(2) 0.10206(13) 0.37622(19)
H12 H 0.5695 0.0863 0.4067
C19 C 0.3887(2) 0.03558(15) 0.40648(19)
C20 C 0.2949(2) 0.06843(14) 0.47802(19)
C21 C 0.1957(2) 0.02938(15) 0.5248(2)
H13 H 0.1794 -0.0242 0.5114
C22 C 0.1220(2) 0.07288(17) 0.5920(2)
H14 H 0.0534 0.0486 0.6228
C23 C 0.1488(2) 0.15191(17) 0.6141(2)
H15 H 0.0980 0.1799 0.6599
C24 C 0.2494(2) 0.19013(15) 0.5694(2)
H16 H 0.2678 0.2432 0.5854
C25 C 0.3225(2) 0.14740(14) 0.49996(18)
C26 C 0.4439(2) 0.17573(13) 0.44868(19)
C27 C 0.4246(6) 0.2549(3) 0.3912(5)
C28 C 0.4824(8) 0.3225(7) 0.4299(7)
H17 H 0.5444 0.3259 0.4939
C29 C 0.4366(7) 0.3900(4) 0.3597(6)
H18 H 0.4654 0.4417 0.3735
C30 C 0.3473(5) 0.3683(3) 0.2724(5)
H19 H 0.3075 0.4036 0.2184
S3 S 0.3145(2) 0.26896(14) 0.27114(19)
C14? C 0.7295(10) 0.1248(15) 0.2238(19)
C15? C 0.833(3) 0.0928(16) 0.183(2)
H9? H 0.8279 0.0596 0.1205
C16? C 0.9555(17) 0.1170(14) 0.250(2)
H10? H 1.0391 0.1015 0.2364
C17? C 0.9297(16) 0.1655(13) 0.336(2)
H11? H 0.9958 0.1870 0.3877
S2? S 0.7685(10) 0.1839(4) 0.3405(6)
C31? C 0.412(2) 0.2508(8) 0.3782(16)
C32? C 0.3258(19) 0.2658(14) 0.2840(17)
H20? H 0.2735 0.2269 0.2454
C33? C 0.3237(15) 0.3448(9) 0.2508(12)
H21? H 0.2700 0.3641 0.1879
C34? C 0.4075(16) 0.3906(10) 0.3193(13)
H22? H 0.4183 0.4447 0.3095
S4? S 0.4920(7) 0.3357(6) 0.4274(6)
loop_
_geom_bond_atom_site_label_1
_geom_bond_atom_site_label_2
_geom_bond_site_symmetry_1
_geom_bond_site_symmetry_2
O1 C2 1_555 1_555
O2 C19 1_555 1_555
O3 H1 1_555 1_555
C1 C2 1_555 1_555
C2 C3 1_555 1_555
C3 C4 1_555 1_555
C4 H2 1_555 1_555
C5 C4 1_555 1_555
H3 C5 1_555 1_555
C6 C5 1_555 1_555
H4 C6 1_555 1_555
C7 C6 1_555 1_555
H5 C7 1_555 1_555
C8 C3 1_555 1_555
C9 C1 1_555 1_555
C10 C9 1_555 1_555
C11 C10 1_555 1_555
H6 C11 1_555 1_555
C12 C11 1_555 1_555
H7 C12 1_555 1_555
C13 C12 1_555 1_555
H8 C13 1_555 1_555
S1 C10 1_555 1_555
C18 C1 1_555 1_555
H12 C18 1_555 1_555
C19 C18 1_555 1_555
C20 C19 1_555 1_555
C21 C20 1_555 1_555
H13 C21 1_555 1_555
C22 C21 1_555 1_555
H14 C22 1_555 1_555
C23 C22 1_555 1_555
H15 C23 1_555 1_555
C24 C23 1_555 1_555
H16 C24 1_555 1_555
C25 C20 1_555 1_555
C26 O3 1_555 1_555
C27 C26 1_555 1_555
C28 C27 1_555 1_555
H17 C28 1_555 1_555
C29 C28 1_555 1_555
H18 C29 1_555 1_555
C30 C29 1_555 1_555
H19 C30 1_555 1_555
S3 C27 1_555 1_555
C7 C8 1_555 1_555
C8 C9 1_555 1_555
C13 S1 1_555 1_555
C18 C26 1_555 1_555
C24 C25 1_555 1_555
C25 C26 1_555 1_555
C30 S3 1_555 1_555

#END
