
#######################################################################
#
#                 Cambridge Crystallographic Data Centre
#                                CCDC 
#
#######################################################################
#
# If this CIF has been generated from an entry in the Cambridge 
# Structural Database, then it will include bibliographic, chemical, 
# crystal, experimental, refinement or atomic coordinate data resulting 
# from the CCDC's data processing and validation procedures.
#
#######################################################################

data_ROJRIS
_chemical_name_common            
3-Hydroxy-2-(1-hydroxy-3-oxo-1-(2-thienyl)-1,3-dihydro-2H-inden-2-ylidene)-3-(2-thienyl)-1-indanone
_chemical_formula_moiety         'C26 H16 O4 S2'
_chemical_name_systematic        
trans-syn-3,3'-bis(2-thienyl)-3,3'-dihydroxy-(2,2'-bis(1H-indene))-1,1'-dione
_symmetry_cell_setting           monoclinic
_symmetry_space_group_name_H-M   'C 2/c'
_symmetry_Int_Tables_number      15
_space_group_name_Hall           '-C 2yn'
loop_
_symmetry_equiv_pos_site_id
_symmetry_equiv_pos_as_xyz
1 x,y,z
2 1/2+x,1/2+y,z
3 -x,y,1/2-z
4 1/2-x,1/2+y,1/2-z
5 -x,-y,-z
6 1/2-x,1/2-y,-z
7 x,-y,1/2+z
8 1/2+x,1/2-y,1/2+z
_cell_length_a                   19.680(16)
_cell_length_b                   8.020(7)
_cell_length_c                   13.765(11)
_cell_angle_alpha                90
_cell_angle_beta                 94.742(15)
_cell_angle_gamma                90
_cell_volume                     2165.14
_exptl_crystal_colour            yellow
_chemical_melting_point          '230-232 deg.C'
_cell_formula_units_Z            4
_exptl_crystal_recrystallization_method chloroform
loop_
_atom_site_label
_atom_site_type_symbol
_atom_site_fract_x
_atom_site_fract_y
_atom_site_fract_z
O1 O 0.46490(9) 0.4021(2) 0.42866(11)
O2 O 0.40499(9) 0.51660(19) 0.11257(11)
H1 H 0.4366 0.5165 0.0773
C1 C 0.46638(11) 0.3781(3) 0.25357(15)
C2 C 0.43428(13) 0.3862(3) 0.34889(16)
C3 C 0.36057(12) 0.3756(3) 0.32688(16)
C4 C 0.30987(14) 0.3750(3) 0.39146(19)
H2 H 0.3206 0.3816 0.4584
C5 C 0.24407(16) 0.3645(4) 0.3535(2)
H3 H 0.2091 0.3633 0.3950
C6 C 0.22848(15) 0.3556(5) 0.2535(2)
H4 H 0.1831 0.3467 0.2292
C7 C 0.27838(14) 0.3595(4) 0.1898(2)
H5 H 0.2673 0.3559 0.1228
C8 C 0.34522(13) 0.3689(3) 0.22730(17)
C9 C 0.40857(12) 0.3712(3) 0.17149(16)
S1 S 0.3809(2) 0.2187(5) -0.0101(3)
C10 C 0.4108(5) 0.2081(18) 0.1080(7)
C11 C 0.4326(6) 0.0562(18) 0.1448(9)
H6 H 0.4503 0.0295 0.2076
C12 C 0.4215(9) -0.048(2) 0.0632(10)
H7 H 0.4326 -0.1606 0.0691
C13 C 0.3949(9) 0.0115(14) -0.0242(15)
H8 H 0.3859 -0.0498 -0.0811
O1B O 0.53510(9) 0.4021(2) 0.07134(11)
O2B O 0.59501(9) 0.51660(19) 0.38743(11)
H1B H 0.5634 0.5165 0.4227
C1B C 0.53362(11) 0.3781(3) 0.24643(15)
C2B C 0.56572(13) 0.3862(3) 0.15111(16)
C3B C 0.63943(12) 0.3756(3) 0.17312(16)
C4B C 0.69013(14) 0.3750(3) 0.10854(19)
H2B H 0.6794 0.3816 0.0416
C5B C 0.75593(16) 0.3645(4) 0.1465(2)
H3B H 0.7909 0.3633 0.1050
C6B C 0.77152(15) 0.3556(5) 0.2465(2)
H4B H 0.8169 0.3467 0.2708
C7B C 0.72162(14) 0.3595(4) 0.3102(2)
H5B H 0.7327 0.3559 0.3772
C8B C 0.65478(13) 0.3689(3) 0.27270(17)
C9B C 0.59143(12) 0.3712(3) 0.32851(16)
S1B S 0.6191(2) 0.2187(5) 0.5101(3)
C10B C 0.5892(5) 0.2081(18) 0.3920(7)
C11B C 0.5674(6) 0.0562(18) 0.3552(9)
H6B H 0.5497 0.0295 0.2924
C12B C 0.5785(9) -0.048(2) 0.4368(10)
H7B H 0.5674 -0.1606 0.4309
C13B C 0.6051(9) 0.0115(14) 0.5242(15)
H8B H 0.6141 -0.0498 0.5811
S2? S 0.43724(15) 0.0326(5) 0.1513(2)
C14? C 0.4115(5) 0.2255(14) 0.1123(7)
C15? C 0.4216(10) -0.076(2) 0.0445(10)
H9? H 0.4288 -0.1894 0.0338
C16? C 0.3961(12) 0.040(2) -0.0210(17)
H10? H 0.3831 0.0137 -0.0858
C17? C 0.3912(7) 0.199(3) 0.0159(8)
H11? H 0.3744 0.2856 -0.0238
loop_
_geom_bond_atom_site_label_1
_geom_bond_atom_site_label_2
_geom_bond_site_symmetry_1
_geom_bond_site_symmetry_2
O1 C2 1_555 1_555
O2 H1 1_555 1_555
C1 C2 1_555 1_555
C2 C3 1_555 1_555
C3 C4 1_555 1_555
C4 H2 1_555 1_555
C5 C4 1_555 1_555
H3 C5 1_555 1_555
C6 C5 1_555 1_555
H4 C6 1_555 1_555
C7 C6 1_555 1_555
H5 C7 1_555 1_555
C8 C3 1_555 1_555
C9 O2 1_555 1_555
S1 C10 1_555 1_555
C10 C9 1_555 1_555
C11 C10 1_555 1_555
H6 C11 1_555 1_555
C12 C11 1_555 1_555
H7 C12 1_555 1_555
C13 S1 1_555 1_555
H8 C13 1_555 1_555
O1B C2B 1_555 1_555
O2B H1B 1_555 1_555
C1B C1 1_555 1_555
C2B C1B 1_555 1_555
C3B C2B 1_555 1_555
C4B C3B 1_555 1_555
H2B C4B 1_555 1_555
C5B C4B 1_555 1_555
H3B C5B 1_555 1_555
C6B C5B 1_555 1_555
H4B C6B 1_555 1_555
C7B C6B 1_555 1_555
H5B C7B 1_555 1_555
C8B C3B 1_555 1_555
C9B O2B 1_555 1_555
S1B C10B 1_555 1_555
C10B C9B 1_555 1_555
C11B C10B 1_555 1_555
H6B C11B 1_555 1_555
C12B C11B 1_555 1_555
H7B C12B 1_555 1_555
C13B S1B 1_555 1_555
H8B C13B 1_555 1_555
C1 C9 1_555 1_555
C7 C8 1_555 1_555
C8 C9 1_555 1_555
C12 C13 1_555 1_555
C1B C9B 1_555 1_555
C7B C8B 1_555 1_555
C8B C9B 1_555 1_555
C12B C13B 1_555 1_555

#END
