
#######################################################################
#
#                 Cambridge Crystallographic Data Centre
#                                CCDC 
#
#######################################################################
#
# If this CIF has been generated from an entry in the Cambridge 
# Structural Database, then it will include bibliographic, chemical, 
# crystal, experimental, refinement or atomic coordinate data resulting 
# from the CCDC's data processing and validation procedures.
#
#######################################################################

data_ROJRUE
_chemical_name_common            
'3-Hydroxy-2-(1-hydroxy-3-oxo-1-(2-thienyl)-1,3-dihydro-2H-inden-2-ylidene)-3-(2-thienyl)-1-indanone chloroform solvate'
_chemical_formula_moiety         'C26 H16 O4 S2,C1 H1 Cl3'
_chemical_name_systematic        
"trans-anti-3,3'-bis(2-thienyl)-3,3'-dihydroxy-(2,2'-bis(1H-indene))-1,1'-dione chloroform solvate"
_symmetry_cell_setting           triclinic
_symmetry_space_group_name_H-M   'P -1'
_symmetry_Int_Tables_number      2
_space_group_name_Hall           '-P 1'
loop_
_symmetry_equiv_pos_site_id
_symmetry_equiv_pos_as_xyz
1 x,y,z
2 -x,-y,-z
_cell_length_a                   8.779(4)
_cell_length_b                   9.198(4)
_cell_length_c                   9.467(4)
_cell_angle_alpha                105.529(7)
_cell_angle_beta                 99.934(7)
_cell_angle_gamma                113.484(6)
_cell_volume                     640.936
_exptl_crystal_colour            yellow
_chemical_melting_point          '301-303 deg.C'
_cell_formula_units_Z            1
_exptl_crystal_recrystallization_method chloroform
loop_
_atom_site_label
_atom_site_type_symbol
_atom_site_fract_x
_atom_site_fract_y
_atom_site_fract_z
S1 S 0.89230(16) 0.09680(13) 0.16092(14)
O1 O 0.7254(3) 0.1769(3) -0.0823(2)
H1 H 0.7954 0.1556 -0.1194
O2 O 0.9717(3) 0.7765(3) 0.1370(3)
C1 C 0.9332(4) 0.4873(4) 0.0291(4)
C2 C 0.8886(4) 0.6244(4) 0.1080(3)
C3 C 0.7288(4) 0.5398(4) 0.1437(3)
C4 C 0.6270(5) 0.6100(5) 0.2017(4)
H2 H 0.6593 0.7253 0.2259
C5 C 0.4776(5) 0.5023(6) 0.2216(5)
H3 H 0.4068 0.5447 0.2598
C6 C 0.4316(5) 0.3312(6) 0.1853(5)
H4 H 0.3289 0.2607 0.1983
C7 C 0.5329(4) 0.2614(5) 0.1303(4)
H5 H 0.5010 0.1464 0.1075
C8 C 0.6836(4) 0.3695(4) 0.1105(3)
C9 C 0.8176(4) 0.3252(4) 0.0546(3)
C10 C 0.9236(4) 0.2966(4) 0.1798(4)
C11 C 1.0481(4) 0.4213(4) 0.3228(4)
H6 H 1.0837 0.5379 0.3558
C12 C 1.1101(5) 0.3382(6) 0.4083(5)
H7 H 1.1934 0.3969 0.5059
C13 C 1.0380(6) 0.1690(6) 0.3360(5)
H8 H 1.0656 0.0987 0.3780
S1A S 1.10770(16) 0.90320(13) -0.16092(14)
O1A O 1.2746(3) 0.8231(3) 0.0823(2)
H1A H 1.2046 0.8444 0.1194
O2A O 1.0283(3) 0.2235(3) -0.1370(3)
C1A C 1.0668(4) 0.5127(4) -0.0291(4)
C2A C 1.1114(4) 0.3756(4) -0.1080(3)
C3A C 1.2712(4) 0.4602(4) -0.1437(3)
C4A C 1.3730(5) 0.3900(5) -0.2017(4)
H2A H 1.3407 0.2747 -0.2259
C5A C 1.5224(5) 0.4977(6) -0.2216(5)
H3A H 1.5932 0.4553 -0.2598
C6A C 1.5684(5) 0.6688(6) -0.1853(5)
H4A H 1.6711 0.7393 -0.1983
C7A C 1.4671(4) 0.7386(5) -0.1303(4)
H5A H 1.4990 0.8536 -0.1075
C8A C 1.3164(4) 0.6305(4) -0.1105(3)
C9A C 1.1824(4) 0.6748(4) -0.0546(3)
C10A C 1.0764(4) 0.7034(4) -0.1798(4)
C11A C 0.9519(4) 0.5787(4) -0.3228(4)
H6A H 0.9163 0.4621 -0.3558
C12A C 0.8899(5) 0.6618(6) -0.4083(5)
H7A H 0.8066 0.6031 -0.5059
C13A C 0.9620(6) 0.8310(6) -0.3360(5)
H8A H 0.9344 0.9013 -0.3780
C14? C 0.5185(10) 0.0342(10) 0.5586(8)
Cl1? Cl 0.608(4) 0.177(2) 0.473(2)
Cl2? Cl 0.523(3) 0.1599(15) 0.4456(14)
Cl3? Cl 0.424(3) 0.124(2) 0.4698(17)
Cl4? Cl 0.341(3) 0.044(4) 0.4609(13)
Cl5? Cl 0.2891(14) -0.066(2) 0.507(2)
Cl6? Cl 0.684(2) 0.096(3) 0.471(2)
loop_
_geom_bond_atom_site_label_1
_geom_bond_atom_site_label_2
_geom_bond_site_symmetry_1
_geom_bond_site_symmetry_2
S1 C10 1_555 1_555
O1 H1 1_555 1_555
O2 C2 1_555 1_555
C1 C2 1_555 1_555
C2 C3 1_555 1_555
C3 C4 1_555 1_555
C4 H2 1_555 1_555
C5 C4 1_555 1_555
H3 C5 1_555 1_555
C6 C5 1_555 1_555
H4 C6 1_555 1_555
C7 C6 1_555 1_555
H5 C7 1_555 1_555
C8 C3 1_555 1_555
C9 O1 1_555 1_555
C10 C9 1_555 1_555
C11 C10 1_555 1_555
H6 C11 1_555 1_555
C12 C11 1_555 1_555
H7 C12 1_555 1_555
C13 S1 1_555 1_555
H8 C13 1_555 1_555
S1A C10A 1_555 1_555
O1A H1A 1_555 1_555
O2A C2A 1_555 1_555
C1A C1 1_555 1_555
C2A C1A 1_555 1_555
C3A C2A 1_555 1_555
C4A C3A 1_555 1_555
H2A C4A 1_555 1_555
C5A C4A 1_555 1_555
H3A C5A 1_555 1_555
C6A C5A 1_555 1_555
H4A C6A 1_555 1_555
C7A C6A 1_555 1_555
H5A C7A 1_555 1_555
C8A C3A 1_555 1_555
C9A O1A 1_555 1_555
C10A C9A 1_555 1_555
C11A C10A 1_555 1_555
H6A C11A 1_555 1_555
C12A C11A 1_555 1_555
H7A C12A 1_555 1_555
C13A S1A 1_555 1_555
H8A C13A 1_555 1_555
C1 C9 1_555 1_555
C7 C8 1_555 1_555
C8 C9 1_555 1_555
C12 C13 1_555 1_555
C1A C9A 1_555 1_555
C7A C8A 1_555 1_555
C8A C9A 1_555 1_555
C12A C13A 1_555 1_555

#END
