
#######################################################################
#
#                 Cambridge Crystallographic Data Centre
#                                CCDC 
#
#######################################################################
#
# If this CIF has been generated from an entry in the Cambridge 
# Structural Database, then it will include bibliographic, chemical, 
# crystal, experimental, refinement or atomic coordinate data resulting 
# from the CCDC's data processing and validation procedures.
#
#######################################################################

data_ROKBEA
_chemical_name_common            
'Dibromo-6-chapl[3]arene[3]tetrazine acetone solvate'
_chemical_formula_moiety         'C24 H6 Br6 N12 O6,3(C3 H6 O1)'
_chemical_name_systematic        
'9,10,19,20,29,30-hexabromo-2,7,12,17,22,27-hexaoxa-4,5,14,15,24,25,33,34,37,38,41,42-dodecaazaheptacyclo[26.2.2.2^3,6^.2^8,11^.2^13,16^.2^18,21^.2^23,26^]dotetraconta-1(30),3,5,8,10,13,15,18,20,23,25,28,31,33,35,37,39,41-octadecaene acetone solvate'
_symmetry_cell_setting           orthorhombic
_symmetry_space_group_name_H-M   'P n a m'
_symmetry_Int_Tables_number      62
_space_group_name_Hall           '-P 2c 2n'
loop_
_symmetry_equiv_pos_site_id
_symmetry_equiv_pos_as_xyz
1 x,y,z
2 -x,-y,1/2+z
3 1/2+x,1/2-y,1/2-z
4 1/2-x,1/2+y,-z
5 -x,-y,-z
6 x,y,1/2-z
7 1/2-x,1/2+y,1/2+z
8 1/2+x,1/2-y,z
_cell_length_a                   22.441(4)
_cell_length_b                   7.5033(16)
_cell_length_c                   25.033(3)
_cell_angle_alpha                90
_cell_angle_beta                 90
_cell_angle_gamma                90
_cell_volume                     4215.1
_cell_formula_units_Z            4
loop_
_atom_site_label
_atom_site_type_symbol
_atom_site_fract_x
_atom_site_fract_y
_atom_site_fract_z
Br1 Br 0.35211(7) 0.08771(19) 0.18341(5)
Br2 Br 0.56083(6) 0.65791(19) 0.04737(6)
Br3 Br 0.65746(6) 0.9098(2) 0.11683(7)
O1 O 0.4425(4) 0.8432(11) 0.0343(3)
O2 O 0.3002(3) 0.4265(10) 0.1393(4)
N1 N 0.3438(4) 0.4965(13) 0.0622(4)
O3 O 0.6021(4) 1.2610(13) 0.1477(4)
N2 N 0.3800(5) 0.5988(14) 0.0354(4)
N3 N 0.5712(5) 1.1091(17) 0.2231(4)
N4 N 0.3831(5) 0.6075(13) 0.1429(4)
N5 N 0.6487(6) 1.338(2) 0.2227(5)
C1 C 0.4129(5) 0.7188(17) 0.0644(5)
C2 C 0.3437(5) 0.5190(15) 0.1147(5)
C3 C 0.4827(3) 0.9463(10) 0.0628(3)
C4 C 0.5395(4) 0.8836(9) 0.0743(3)
C5 C 0.5792(3) 0.9894(11) 0.1029(3)
C6 C 0.5619(3) 1.1580(10) 0.1199(3)
C7 C 0.5051(4) 1.2207(9) 0.1085(4)
H1 H 0.4933 1.3359 0.1201
C8 C 0.4655(3) 1.1149(11) 0.0799(4)
H2 H 0.4266 1.1577 0.0721
N6 N 0.4184(5) 0.7172(16) 0.1156(4)
C9 C 0.2778(5) 0.5761(15) 0.2229(5)
H3 H 0.2628 0.6756 0.2037
C10 C 0.6057(7) 1.239(2) 0.2002(6)
C11 C 0.3001(5) 0.4284(16) 0.1958(5)
C12 C 0.3203(5) 0.2848(15) 0.2231(5)
Br1E Br 0.35211(7) 0.08771(19) 0.31659(5)
Br2E Br 0.56083(6) 0.65791(19) 0.45263(6)
Br3E Br 0.65746(6) 0.9098(2) 0.38317(7)
O1E O 0.4425(4) 0.8432(11) 0.4657(3)
O2E O 0.3002(3) 0.4265(10) 0.3607(4)
N1E N 0.3438(4) 0.4965(13) 0.4378(4)
O3E O 0.6021(4) 1.2610(13) 0.3523(4)
N2E N 0.3800(5) 0.5988(14) 0.4646(4)
N3E N 0.5712(5) 1.1091(17) 0.2769(4)
N4E N 0.3831(5) 0.6075(13) 0.3571(4)
N5E N 0.6487(6) 1.338(2) 0.2773(5)
C1E C 0.4129(5) 0.7188(17) 0.4356(5)
C2E C 0.3437(5) 0.5190(15) 0.3853(5)
C3E C 0.4827(3) 0.9463(10) 0.4372(3)
C4E C 0.5395(4) 0.8836(9) 0.4257(3)
C5E C 0.5792(3) 0.9894(11) 0.3971(3)
C6E C 0.5619(3) 1.1580(10) 0.3801(3)
C7E C 0.5051(4) 1.2207(9) 0.3915(4)
H1E H 0.4933 1.3359 0.3799
C8E C 0.4655(3) 1.1149(11) 0.4201(4)
H2E H 0.4266 1.1577 0.4279
N6E N 0.4184(5) 0.7172(16) 0.3844(4)
C9E C 0.2778(5) 0.5761(15) 0.2771(5)
H3E H 0.2628 0.6756 0.2963
C10E C 0.6057(7) 1.239(2) 0.2998(6)
C11E C 0.3001(5) 0.4284(16) 0.3042(5)
C12E C 0.3203(5) 0.2848(15) 0.2769(5)
O4 O 0.2806(4) 0.8248(12) 0.0912(4)
C13 C 0.2129(5) 1.0686(17) 0.0892(6)
H4 H 0.1998 1.0208 0.1237
H5 H 0.1798 1.0639 0.0637
H6 H 0.2258 1.1925 0.0938
C14 C 0.2633(5) 0.9608(16) 0.0688(6)
C15 C 0.2924(6) 1.033(2) 0.0187(6)
H7 H 0.3118 1.1467 0.0267
H8 H 0.2620 1.0508 -0.0089
H9 H 0.3222 0.9475 0.0059
C16? C 0.4647(10) 0.756(3) 0.250(5)
H10? H 0.4317 0.7240 0.2260
H11? H 0.4801 0.8735 0.2400
H12? H 0.4504 0.7585 0.2868
C17? C 0.5135(11) 0.620(3) 0.2447(15)
O5? O 0.5114(11) 0.477(3) 0.2687(10)
C18? C 0.5560(16) 0.667(5) 0.2006(15)
H13? H 0.5336 0.7160 0.1703
H14? H 0.5774 0.5598 0.1892
H15? H 0.5845 0.7559 0.2135
loop_
_geom_bond_atom_site_label_1
_geom_bond_atom_site_label_2
_geom_bond_site_symmetry_1
_geom_bond_site_symmetry_2
Br1 C12 1_555 1_555
Br2 C4 1_555 1_555
Br3 C5 1_555 1_555
O1 C1 1_555 1_555
O2 C2 1_555 1_555
N1 N2 1_555 1_555
O3 C6 1_555 1_555
N2 C1 1_555 1_555
N3 C10 1_555 1_555
N4 C2 1_555 1_555
N5 C10 1_555 1_555
C1 N6 1_555 1_555
C2 N1 1_555 1_555
C3 O1 1_555 1_555
C4 C3 1_555 1_555
C5 C4 1_555 1_555
C6 C5 1_555 1_555
C7 C6 1_555 1_555
H1 C7 1_555 1_555
C8 C3 1_555 1_555
H2 C8 1_555 1_555
N6 N4 1_555 1_555
C9 H3 1_555 1_555
C10 O3 1_555 1_555
C11 O2 1_555 1_555
C12 C11 1_555 1_555
O4 C14 1_555 1_555
C13 H4 1_555 1_555
H5 C13 1_555 1_555
H6 C13 1_555 1_555
C14 C13 1_555 1_555
C15 C14 1_555 1_555
H7 C15 1_555 1_555
H8 C15 1_555 1_555
H9 C15 1_555 1_555
Br1E C12E 1_555 1_555
Br2E C4E 1_555 1_555
Br3E C5E 1_555 1_555
O1E C1E 1_555 1_555
O2E C2E 1_555 1_555
N1E N2E 1_555 1_555
O3E C6E 1_555 1_555
N2E C1E 1_555 1_555
N3E N3 1_555 1_555
N4E C2E 1_555 1_555
N5E N5 1_555 1_555
C1E N6E 1_555 1_555
C2E N1E 1_555 1_555
C3E O1E 1_555 1_555
C4E C3E 1_555 1_555
C5E C4E 1_555 1_555
C6E C5E 1_555 1_555
C7E C6E 1_555 1_555
H1E C7E 1_555 1_555
C8E C3E 1_555 1_555
H2E C8E 1_555 1_555
N6E N4E 1_555 1_555
C9E C9 1_555 1_555
H3E C9E 1_555 1_555
C10E O3E 1_555 1_555
C11E O2E 1_555 1_555
C12E C12 1_555 1_555
C7 C8 1_555 1_555
C9 C11 1_555 1_555
N3E C10E 1_555 1_555
N5E C10E 1_555 1_555
C7E C8E 1_555 1_555
C9E C11E 1_555 1_555
C11E C12E 1_555 1_555

#END
