
#######################################################################
#
#                 Cambridge Crystallographic Data Centre
#                                CCDC 
#
#######################################################################
#
# If this CIF has been generated from an entry in the Cambridge 
# Structural Database, then it will include bibliographic, chemical, 
# crystal, experimental, refinement or atomic coordinate data resulting 
# from the CCDC's data processing and validation procedures.
#
#######################################################################

data_ROKDAY
_chemical_formula_moiety         'C19 H26 O7'
_chemical_name_systematic        
'methyl 7-acetyl-3,8-dihydroxy-4,4,9,9-tetramethyl-5,11-dioxatetracyclo[8.2.1.0^1,6^.0^8,12^]tridec-6-ene-12-carboxylate'
_symmetry_cell_setting           trigonal
_symmetry_space_group_name_H-M   'P 32'
_symmetry_Int_Tables_number      145
_space_group_name_Hall           'P 32'
loop_
_symmetry_equiv_pos_site_id
_symmetry_equiv_pos_as_xyz
1 x,y,z
2 -y,x-y,2/3+z
3 -x+y,-x,1/3+z
_cell_length_a                   9.26830(10)
_cell_length_b                   9.26830(10)
_cell_length_c                   18.5901(3)
_cell_angle_alpha                90
_cell_angle_beta                 90
_cell_angle_gamma                120
_cell_volume                     1382.97
_exptl_crystal_colour            colorless
_exptl_crystal_description       block
_cell_formula_units_Z            3
loop_
_atom_site_label
_atom_site_type_symbol
_atom_site_fract_x
_atom_site_fract_y
_atom_site_fract_z
O1 O 0.66703(18) 0.87305(19) 0.08856(8)
O2 O 0.14411(16) 0.83557(17) 0.12648(9)
O3 O 0.78966(19) 0.9954(2) 0.21662(10)
O4 O 0.71400(18) 1.23170(19) 0.12570(9)
H1 H 0.7131 1.3114 0.1070
O5 O 0.0304(2) 0.41728(19) 0.19719(10)
H2 H -0.0705 0.3723 0.1910
O6 O 0.5030(2) 1.3417(2) 0.08758(13)
O7 O 0.5464(2) 0.9566(2) 0.25780(10)
C1 C 0.2986(3) 0.6421(3) 0.16670(13)
H3 H 0.3352 0.5632 0.1556
H4 H 0.3239 0.6746 0.2167
C2 C 0.3079(2) 0.9012(2) 0.11943(11)
C3 C 0.3877(2) 0.7945(2) 0.11839(11)
C4 C 0.4169(2) 1.0621(2) 0.10527(12)
C5 C 0.1122(3) 0.5627(2) 0.15372(13)
H5 H 0.0887 0.5304 0.1030
C6 C 0.6325(3) 0.9580(2) 0.20905(13)
C7 C 0.5754(2) 0.9243(2) 0.13230(12)
C8 C 0.4032(3) 0.7474(3) 0.03935(13)
H6 H 0.3791 0.6330 0.0361
H7 H 0.3289 0.7626 0.0075
C9 C 0.3862(3) 1.2016(3) 0.09942(13)
C10 C 0.6274(3) 1.0528(3) 0.01489(13)
C11 C 0.5878(2) 1.0819(2) 0.09433(12)
C12 C 0.0508(3) 0.6850(3) 0.17162(13)
C13 C 0.5861(3) 0.8700(3) 0.02144(13)
H8 H 0.6271 0.8339 -0.0194
C14 C -0.1273(3) 0.6207(3) 0.14813(16)
H9 H -0.1402 0.5846 0.0990
H10 H -0.1539 0.7081 0.1524
H11 H -0.2010 0.5287 0.1781
C15 C 0.2148(3) 1.1762(3) 0.10793(16)
H12 H 0.2181 1.2807 0.1017
H13 H 0.1736 1.1333 0.1551
H14 H 0.1425 1.0984 0.0724
C16 C 0.0781(4) 0.7397(3) 0.24933(16)
H15 H 0.0328 0.8113 0.2579
H16 H 0.1953 0.7989 0.2596
H17 H 0.0236 0.6436 0.2799
C17 C 0.8145(3) 1.1623(4) -0.00171(18)
H18 H 0.8432 1.2772 -0.0031
H19 H 0.8385 1.1310 -0.0474
H20 H 0.8782 1.1470 0.0351
C18 C 0.5283(4) 1.0819(4) -0.04281(15)
H21 H 0.4113 1.0119 -0.0337
H22 H 0.5550 1.0558 -0.0891
H23 H 0.5561 1.1966 -0.0420
C19 C 0.8571(4) 1.0440(4) 0.28819(17)
H24 H 0.7943 0.9538 0.3209
H25 H 0.8504 1.1398 0.3029
H26 H 0.9714 1.0708 0.2883
loop_
_geom_bond_atom_site_label_1
_geom_bond_atom_site_label_2
_geom_bond_site_symmetry_1
_geom_bond_site_symmetry_2
O1 C7 1_555 1_555
O2 C2 1_555 1_555
O3 C6 1_555 1_555
O4 H1 1_555 1_555
O5 H2 1_555 1_555
O6 C9 1_555 1_555
O7 C6 1_555 1_555
C1 H3 1_555 1_555
H4 C1 1_555 1_555
C2 C3 1_555 1_555
C3 C1 1_555 1_555
C4 C2 1_555 1_555
C5 O5 1_555 1_555
H5 C5 1_555 1_555
C6 C7 1_555 1_555
C7 C3 1_555 1_555
C8 C3 1_555 1_555
H6 C8 1_555 1_555
H7 C8 1_555 1_555
C9 C4 1_555 1_555
C10 C11 1_555 1_555
C11 O4 1_555 1_555
C12 O2 1_555 1_555
C13 O1 1_555 1_555
H8 C13 1_555 1_555
C14 C12 1_555 1_555
H9 C14 1_555 1_555
H10 C14 1_555 1_555
H11 C14 1_555 1_555
C15 C9 1_555 1_555
H12 C15 1_555 1_555
H13 C15 1_555 1_555
H14 C15 1_555 1_555
C16 C12 1_555 1_555
H15 C16 1_555 1_555
H16 C16 1_555 1_555
H17 C16 1_555 1_555
C17 C10 1_555 1_555
H18 C17 1_555 1_555
H19 C17 1_555 1_555
H20 C17 1_555 1_555
C18 C10 1_555 1_555
H21 C18 1_555 1_555
H22 C18 1_555 1_555
H23 C18 1_555 1_555
C19 O3 1_555 1_555
H24 C19 1_555 1_555
H25 C19 1_555 1_555
H26 C19 1_555 1_555
C1 C5 1_555 1_555
C4 C11 1_555 1_555
C5 C12 1_555 1_555
C7 C11 1_555 1_555
C8 C13 1_555 1_555
C10 C13 1_555 1_555

#END
