
#######################################################################
#
#                 Cambridge Crystallographic Data Centre
#                                CCDC 
#
#######################################################################
#
# If this CIF has been generated from an entry in the Cambridge 
# Structural Database, then it will include bibliographic, chemical, 
# crystal, experimental, refinement or atomic coordinate data resulting 
# from the CCDC's data processing and validation procedures.
#
#######################################################################

data_ROKGEE
_chemical_formula_moiety         
'C44 H48 N24 O12,C12 H13 N2 1+,Cl1 1-,16(H2 O1)'
_chemical_name_systematic        
"p-Dicyclohexana-cucurbit(6)uril 5,5'-dimethyl-2,2'-bipyridin-1-ium clathrate chloride hexadecahydrate"
_symmetry_cell_setting           monoclinic
_symmetry_space_group_name_H-M   'P 21/n'
_symmetry_Int_Tables_number      14
_space_group_name_Hall           '-P 2yn'
loop_
_symmetry_equiv_pos_site_id
_symmetry_equiv_pos_as_xyz
1 x,y,z
2 1/2-x,1/2+y,1/2-z
3 -x,-y,-z
4 1/2+x,1/2-y,1/2+z
_cell_length_a                   14.5849(10)
_cell_length_b                   16.4344(12)
_cell_length_c                   30.034(2)
_cell_angle_alpha                90.00
_cell_angle_beta                 99.047(3)
_cell_angle_gamma                90.00
_cell_volume                     7109.41
_exptl_crystal_colour            colorless
_cell_formula_units_Z            4
loop_
_atom_site_label
_atom_site_type_symbol
_atom_site_fract_x
_atom_site_fract_y
_atom_site_fract_z
O1 O 0.3483(3) 0.3926(3) -0.02560(17)
O2 O -0.2047(4) 0.1662(3) 0.00856(18)
O3 O 0.0706(5) 0.4719(4) -0.0233(2)
O4 O 0.4161(11) -0.1143(4) 0.0250(3)
O5 O 0.7649(8) 0.0206(5) 0.0509(2)
O8 O 0.5335(8) 0.6295(5) 0.1550(3)
O9 O 0.5043(11) 0.1442(6) 0.4139(4)
O10 O -0.0624(18) -0.0710(9) 0.0852(4)
O11 O 0.4501(11) -0.1726(6) 0.1376(5)
O12 O 0.6680(10) 0.6524(7) 0.1103(4)
O13 O 0.629(5) 0.269(2) 0.4052(11)
O15 O 0.0356(15) -0.060(2) 0.0420(7)
O16 O 0.239(5) 0.1700(9) 0.3715(7)
O17 O 0.354(2) 0.239(3) 0.4453(11)
O18 O 0.297(5) -0.198(3) 0.0971(15)
O20 O 0.708(4) -0.0868(15) 0.0947(13)
Cl1 Cl 0.6648(3) -0.1640(2) 0.16419(18)
C1 C 0.6430(3) 0.2947(3) 0.15112(16)
C2 C 0.6926(3) 0.2088(3) 0.21258(15)
C3 C 0.6708(3) 0.1570(3) 0.16849(15)
C4 C 0.5797(3) 0.1106(3) 0.22138(15)
C5 C 0.6073(3) 0.2014(3) 0.08652(16)
H1 H 0.6146 0.2510 0.0699
H2 H 0.6488 0.1609 0.0772
C6 C 0.5628(3) 0.0321(3) 0.15104(15)
H3 H 0.6102 0.0105 0.1350
H4 H 0.5455 -0.0107 0.1704
C7 C 0.4441(3) 0.2185(3) 0.05069(15)
C8 C 0.4895(3) 0.0876(3) 0.07503(15)
H5 H 0.5303 0.0547 0.0592
C9 C 0.3882(3) 0.0863(3) 0.05031(15)
H6 H 0.3818 0.0522 0.0232
C10 C 0.3947(3) 0.0277(3) 0.12151(16)
C11 C 0.2883(3) 0.1959(3) 0.00659(16)
H7 H 0.3027 0.2465 -0.0075
H8 H 0.2761 0.1549 -0.0168
C12 C 0.2423(3) 0.0245(3) 0.07361(17)
H9 H 0.2313 -0.0156 0.0959
H10 H 0.2329 -0.0018 0.0443
C13 C 0.1603(3) 0.2801(3) 0.02700(15)
C14 C 0.1448(3) 0.1395(3) 0.03348(16)
H11 H 0.1308 0.1060 0.0063
C15 C 0.0572(3) 0.1816(3) 0.04491(17)
H12 H 0.0018 0.1642 0.0243
C16 C 0.1175(3) 0.0957(3) 0.10473(16)
C17 C 0.0077(4) 0.3290(3) 0.04373(17)
H13 H -0.0535 0.3082 0.0317
H14 H 0.0194 0.3755 0.0256
C18 C -0.0278(3) 0.1679(3) 0.11217(18)
H15 H -0.0337 0.1222 0.1320
H16 H -0.0825 0.1685 0.0892
C19 C 0.0546(3) 0.4234(3) 0.10628(16)
C20 C -0.0520(3) 0.3232(3) 0.12014(17)
C21 C -0.0275(3) 0.3797(3) 0.16284(17)
C22 C 0.0071(3) 0.2428(3) 0.18360(18)
C23 C 0.0840(3) 0.5032(3) 0.17584(17)
H17 H 0.1029 0.5436 0.1556
H18 H 0.0379 0.5281 0.1915
C24 C 0.0351(3) 0.3411(3) 0.24572(16)
H19 H -0.0065 0.3826 0.2539
H20 H 0.0276 0.2930 0.2635
C25 C 0.2522(3) 0.5012(3) 0.20377(17)
C26 C 0.1552(3) 0.4548(3) 0.25344(16)
H21 H 0.1149 0.4911 0.2676
C27 C 0.2561(3) 0.4560(3) 0.27858(16)
H22 H 0.2635 0.4938 0.3041
C28 C 0.1971(3) 0.3254(3) 0.28297(15)
C29 C 0.4028(3) 0.5124(3) 0.25414(18)
H23 H 0.4093 0.5419 0.2825
H24 H 0.4144 0.5504 0.2309
C30 C 0.3528(3) 0.3500(3) 0.32563(17)
H25 H 0.3380 0.3008 0.3409
H26 H 0.3653 0.3926 0.3481
C31 C 0.5334(3) 0.4402(3) 0.22768(17)
C32 C 0.4991(3) 0.4001(3) 0.29821(16)
H27 H 0.5137 0.4350 0.3248
C33 C 0.5861(3) 0.3534(3) 0.28865(16)
H28 H 0.6405 0.3649 0.3114
C34 C 0.4735(3) 0.2599(3) 0.30275(16)
C35 C 0.6796(3) 0.3656(3) 0.22366(18)
H29 H 0.6910 0.4114 0.2050
H30 H 0.7327 0.3603 0.2473
C36 C 0.6209(3) 0.2018(3) 0.28663(15)
H31 H 0.6002 0.1555 0.3025
H32 H 0.6823 0.2167 0.3017
C37 C 0.7936(3) 0.1999(3) 0.23551(19)
H33 H 0.8341 0.2271 0.2176
H34 H 0.8013 0.2258 0.2649
C38 C 0.8209(4) 0.1104(3) 0.2410(2)
H35 H 0.8858 0.1068 0.2543
H36 H 0.7847 0.0850 0.2617
C39 C 0.8058(4) 0.0636(3) 0.19648(19)
H37 H 0.8654 0.0454 0.1898
H38 H 0.7685 0.0157 0.1997
C40 C 0.7582(3) 0.1141(3) 0.15759(18)
H39 H 0.7411 0.0793 0.1315
H40 H 0.8013 0.1547 0.1498
C41 C -0.1543(3) 0.3287(3) 0.0999(2)
H41 H -0.1650 0.2986 0.0718
H42 H -0.1914 0.3041 0.1204
C42 C -0.1843(4) 0.4165(4) 0.0911(2)
H43 H -0.2508 0.4180 0.0810
H44 H -0.1542 0.4380 0.0670
C43 C -0.1609(4) 0.4708(4) 0.1324(2)
H45 H -0.1214 0.5150 0.1254
H46 H -0.2177 0.4945 0.1395
C44 C -0.1122(4) 0.4259(3) 0.1735(2)
H47 H -0.1551 0.3879 0.1838
H48 H -0.0928 0.4645 0.1975
N1 N 0.6721(2) 0.2925(2) 0.19638(13)
N2 N 0.6347(2) 0.2174(2) 0.13428(12)
N3 N 0.6270(2) 0.1775(2) 0.24045(12)
N4 N 0.6016(2) 0.0999(2) 0.17896(12)
N5 N 0.5134(2) 0.1733(2) 0.07484(13)
N6 N 0.3683(3) 0.1710(2) 0.03898(13)
N7 N 0.4825(2) 0.0542(2) 0.11877(12)
N8 N 0.3380(2) 0.0524(2) 0.08383(12)
N9 N 0.2057(3) 0.2071(2) 0.02698(13)
N10 N 0.0755(3) 0.2669(3) 0.03927(13)
N11 N 0.1756(3) 0.0902(2) 0.07328(13)
N12 N 0.0531(3) 0.1555(2) 0.09071(13)
N13 N 0.0074(3) 0.3556(3) 0.08940(13)
N14 N 0.0413(2) 0.4348(2) 0.14925(13)
N15 N -0.0255(3) 0.2425(2) 0.13818(14)
N16 N 0.0087(3) 0.3217(2) 0.19845(14)
N17 N 0.1635(3) 0.4809(2) 0.20844(13)
N18 N 0.3089(3) 0.4826(2) 0.24339(14)
N19 N 0.1292(3) 0.3696(2) 0.25698(13)
N20 N 0.2733(3) 0.3731(2) 0.29317(13)
N21 N 0.4720(3) 0.4480(2) 0.25780(13)
N22 N 0.5979(3) 0.3830(2) 0.24423(13)
N23 N 0.4364(3) 0.3358(2) 0.30582(13)
N24 N 0.5584(3) 0.2691(2) 0.28941(13)
O21 O 0.6284(2) 0.35719(19) 0.12842(11)
O22 O 0.4507(2) 0.2910(2) 0.04091(11)
O23 O 0.1901(2) 0.3465(2) 0.01647(11)
O24 O 0.0992(2) 0.4678(2) 0.08494(11)
O25 O 0.2771(2) 0.5315(2) 0.17062(12)
O26 O 0.5318(2) 0.47908(19) 0.19268(11)
O27 O 0.5286(2) 0.06750(19) 0.23944(11)
O28 O 0.3724(2) -0.0123(2) 0.15261(11)
O29 O 0.1215(2) 0.0553(2) 0.13867(12)
O30 O 0.0283(2) 0.1831(2) 0.20704(12)
O31 O 0.1890(3) 0.2547(2) 0.29475(13)
O32 O 0.4375(2) 0.1957(2) 0.31098(12)
C45 C 0.2832(4) 0.1668(3) 0.20987(18)
H49 H 0.3396 0.1423 0.2246
H50 H 0.2472 0.1269 0.1914
H51 H 0.2481 0.1867 0.2321
C46 C 0.3062(3) 0.2369(3) 0.18060(15)
C47 C 0.2383(3) 0.2832(3) 0.15543(18)
H52 H 0.1769 0.2702 0.1571
C48 C 0.3956(3) 0.2566(3) 0.17676(19)
H53 H 0.4443 0.2270 0.1928
C49 C 0.4145(3) 0.3198(3) 0.14945(18)
H54 H 0.4755 0.3331 0.1471
C50 C 0.3422(3) 0.3628(3) 0.12577(15)
C51 C 0.3581(3) 0.4312(3) 0.09671(15)
C52 C 0.4429(3) 0.4567(3) 0.08725(17)
H55 H 0.4969 0.4295 0.0995
C53 C 0.4473(4) 0.5244(3) 0.05883(19)
H56 H 0.5045 0.5412 0.0520
C54 C 0.2857(4) 0.5384(3) 0.05112(17)
H57 H 0.2309 0.5650 0.0395
C55 C 0.3676(4) 0.5663(3) 0.04091(18)
C56 C 0.3724(5) 0.6391(4) 0.0108(2)
H58 H 0.4359 0.6491 0.0075
H59 H 0.3479 0.6860 0.0240
H60 H 0.3366 0.6287 -0.0183
N25 N 0.2536(3) 0.3456(2) 0.12878(14)
N26 N 0.2825(3) 0.4735(2) 0.07757(13)
H61 H 0.2290 0.4576 0.0828
O6? O 0.4863(15) 0.1264(8) -0.0500(4)
O7? O 0.1318(12) 0.1583(8) 0.3548(7)
O14? O 0.401(2) 0.0965(15) -0.0614(6)
O19? O 0.576(3) 0.276(3) 0.4323(11)
loop_
_geom_bond_atom_site_label_1
_geom_bond_atom_site_label_2
_geom_bond_site_symmetry_1
_geom_bond_site_symmetry_2
C1 N1 1_555 1_555
C2 C3 1_555 1_555
C3 C40 1_555 1_555
C4 N3 1_555 1_555
C5 H1 1_555 1_555
H2 C5 1_555 1_555
C6 H3 1_555 1_555
H4 C6 1_555 1_555
C7 N5 1_555 1_555
C8 H5 1_555 1_555
C9 C8 1_555 1_555
H6 C9 1_555 1_555
C10 N7 1_555 1_555
C11 H7 1_555 1_555
H8 C11 1_555 1_555
C12 H9 1_555 1_555
H10 C12 1_555 1_555
C13 N9 1_555 1_555
C14 H11 1_555 1_555
C15 C14 1_555 1_555
H12 C15 1_555 1_555
C16 N11 1_555 1_555
C17 H13 1_555 1_555
H14 C17 1_555 1_555
C18 H15 1_555 1_555
H16 C18 1_555 1_555
C19 N13 1_555 1_555
C20 C21 1_555 1_555
C21 C44 1_555 1_555
C22 N15 1_555 1_555
C23 H17 1_555 1_555
H18 C23 1_555 1_555
C24 H19 1_555 1_555
H20 C24 1_555 1_555
C25 N17 1_555 1_555
C26 H21 1_555 1_555
C27 C26 1_555 1_555
H22 C27 1_555 1_555
C28 N19 1_555 1_555
C29 H23 1_555 1_555
H24 C29 1_555 1_555
C30 H25 1_555 1_555
H26 C30 1_555 1_555
C31 N21 1_555 1_555
C32 H27 1_555 1_555
C33 C32 1_555 1_555
H28 C33 1_555 1_555
C34 N23 1_555 1_555
C35 H29 1_555 1_555
H30 C35 1_555 1_555
C36 H31 1_555 1_555
H32 C36 1_555 1_555
C37 C2 1_555 1_555
H33 C37 1_555 1_555
H34 C37 1_555 1_555
C38 C37 1_555 1_555
H35 C38 1_555 1_555
H36 C38 1_555 1_555
C39 C38 1_555 1_555
H37 C39 1_555 1_555
H38 C39 1_555 1_555
C40 C39 1_555 1_555
H39 C40 1_555 1_555
H40 C40 1_555 1_555
C41 C20 1_555 1_555
H41 C41 1_555 1_555
H42 C41 1_555 1_555
C42 C41 1_555 1_555
H43 C42 1_555 1_555
H44 C42 1_555 1_555
C43 C42 1_555 1_555
H45 C43 1_555 1_555
H46 C43 1_555 1_555
C44 C43 1_555 1_555
H47 C44 1_555 1_555
H48 C44 1_555 1_555
C45 H49 1_555 1_555
H50 C45 1_555 1_555
H51 C45 1_555 1_555
C46 C45 1_555 1_555
C47 C46 1_555 1_555
H52 C47 1_555 1_555
C48 C46 1_555 1_555
H53 C48 1_555 1_555
C49 C48 1_555 1_555
H54 C49 1_555 1_555
C50 C49 1_555 1_555
C51 C50 1_555 1_555
C52 C51 1_555 1_555
H55 C52 1_555 1_555
C53 C52 1_555 1_555
H56 C53 1_555 1_555
C54 H57 1_555 1_555
C55 C53 1_555 1_555
C56 C55 1_555 1_555
H58 C56 1_555 1_555
H59 C56 1_555 1_555
H60 C56 1_555 1_555
N1 C2 1_555 1_555
N2 C1 1_555 1_555
N3 C2 1_555 1_555
N4 C3 1_555 1_555
N5 C5 1_555 1_555
N6 C7 1_555 1_555
N7 C6 1_555 1_555
N8 C9 1_555 1_555
N9 C11 1_555 1_555
N10 C13 1_555 1_555
N11 C12 1_555 1_555
N12 C15 1_555 1_555
N13 C17 1_555 1_555
N14 C19 1_555 1_555
N15 C18 1_555 1_555
N16 C21 1_555 1_555
N17 C23 1_555 1_555
N18 C25 1_555 1_555
N19 C24 1_555 1_555
N20 C27 1_555 1_555
N21 C29 1_555 1_555
N22 C31 1_555 1_555
N23 C30 1_555 1_555
N24 C33 1_555 1_555
N25 C47 1_555 1_555
N26 C51 1_555 1_555
H61 N26 1_555 1_555
O21 C1 1_555 1_555
O22 C7 1_555 1_555
O23 C13 1_555 1_555
O24 C19 1_555 1_555
O25 C25 1_555 1_555
O26 C31 1_555 1_555
O27 C4 1_555 1_555
O28 C10 1_555 1_555
O29 C16 1_555 1_555
O30 C22 1_555 1_555
O31 C28 1_555 1_555
O32 C34 1_555 1_555
C3 N2 1_555 1_555
C4 N4 1_555 1_555
C5 N2 1_555 1_555
C6 N4 1_555 1_555
C8 N5 1_555 1_555
C8 N7 1_555 1_555
C9 N6 1_555 1_555
C10 N8 1_555 1_555
C11 N6 1_555 1_555
C12 N8 1_555 1_555
C14 N9 1_555 1_555
C14 N11 1_555 1_555
C15 N10 1_555 1_555
C16 N12 1_555 1_555
C17 N10 1_555 1_555
C18 N12 1_555 1_555
C20 N13 1_555 1_555
C20 N15 1_555 1_555
C21 N14 1_555 1_555
C22 N16 1_555 1_555
C23 N14 1_555 1_555
C24 N16 1_555 1_555
C26 N17 1_555 1_555
C26 N19 1_555 1_555
C27 N18 1_555 1_555
C28 N20 1_555 1_555
C29 N18 1_555 1_555
C30 N20 1_555 1_555
C32 N21 1_555 1_555
C32 N23 1_555 1_555
C33 N22 1_555 1_555
C34 N24 1_555 1_555
C35 N1 1_555 1_555
C35 N22 1_555 1_555
C36 N3 1_555 1_555
C36 N24 1_555 1_555
C50 N25 1_555 1_555
C54 C55 1_555 1_555
C54 N26 1_555 1_555

#END
