
#######################################################################
#
#                 Cambridge Crystallographic Data Centre
#                                CCDC 
#
#######################################################################
#
# If this CIF has been generated from an entry in the Cambridge 
# Structural Database, then it will include bibliographic, chemical, 
# crystal, experimental, refinement or atomic coordinate data resulting 
# from the CCDC's data processing and validation procedures.
#
#######################################################################

data_ROKGII
_chemical_formula_moiety         
'C42 H48 N24 O12,C12 H13 N2 1+,Cl1 1-,15(H2 O1)'
_chemical_name_systematic        
"m-Hexamethyl-cucurbit(6)uril 5,5'-dimethyl-2,2'-bipyridin-1-ium clathrate chloride pentadecahydrate"
_symmetry_cell_setting           triclinic
_symmetry_space_group_name_H-M   'P 1'
_symmetry_Int_Tables_number      1
_space_group_name_Hall           'P 1'
loop_
_symmetry_equiv_pos_site_id
_symmetry_equiv_pos_as_xyz
1 x,y,z
_cell_length_a                   11.7619(19)
_cell_length_b                   11.930(2)
_cell_length_c                   12.641(2)
_cell_angle_alpha                88.778(4)
_cell_angle_beta                 87.452(4)
_cell_angle_gamma                75.425(4)
_cell_volume                     1714.9
_cell_formula_units_Z            1
loop_
_atom_site_label
_atom_site_type_symbol
_atom_site_fract_x
_atom_site_fract_y
_atom_site_fract_z
O1 O -0.1671(7) 0.6210(7) -0.2565(5)
O2 O -0.2673(8) 0.5576(8) 0.2854(6)
O3 O 0.6185(8) 0.3164(7) -0.2152(7)
O4 O -0.0320(7) 0.4714(7) 0.5911(6)
O5 O 0.2128(7) 0.6661(8) 0.6584(6)
O6 O 0.6267(9) -0.4561(9) -0.1768(7)
O7 O -0.2046(7) 0.4099(8) 0.4685(8)
O8 O 0.0103(9) 0.6541(8) 0.4607(8)
O9 O -0.3306(8) 0.7775(9) -0.3907(7)
O10 O -0.4082(8) 0.6048(10) 0.5029(8)
O11 O 0.4525(10) -0.4318(11) -0.3263(10)
O12 O -0.173(2) 0.7454(18) 0.3141(19)
O13 O 0.8105(14) 0.1972(13) -0.3207(10)
O14 O -0.1660(12) 0.8496(13) 0.4902(13)
O15 O -0.1351(18) 0.9614(17) -0.3710(15)
Cl1 Cl -0.0071(3) 0.7906(3) -0.1984(2)
C1 C 0.4845(7) -0.0428(6) 0.4635(5)
C2 C 0.4386(7) 0.0809(6) 0.6083(5)
C3 C 0.3568(6) -0.0040(6) 0.6108(5)
C4 C 0.2444(7) 0.1859(7) 0.6077(4)
C5 C 0.3485(7) -0.1658(6) 0.4789(6)
H1 H 0.3285 -0.2066 0.5413
H2 H 0.4109 -0.2192 0.4393
C6 C 0.1280(7) 0.0430(7) 0.6053(5)
H3 H 0.1334 -0.0257 0.6491
H4 H 0.0661 0.1046 0.6361
C7 C 0.2552(7) -0.1330(6) 0.3032(5)
C8 C 0.1291(7) -0.0967(6) 0.4557(5)
H5 H 0.1097 -0.1541 0.5051
C9 C 0.0536(6) -0.0818(6) 0.3557(5)
H6 H 0.0100 -0.1415 0.3519
C10 C -0.0010(6) 0.0891(6) 0.4549(5)
C11 C 0.1161(8) -0.1149(6) 0.1609(5)
H7 H 0.1897 -0.1501 0.1233
H8 H 0.0686 -0.1708 0.1636
C12 C -0.1291(6) 0.0731(6) 0.3088(5)
H9 H -0.1826 0.1359 0.3469
H10 H -0.1675 0.0104 0.3047
C13 C 0.1065(7) 0.0208(6) 0.0144(5)
C14 C -0.0713(6) 0.0357(6) 0.1115(5)
C15 C -0.0906(6) 0.1252(6) 0.0148(5)
C16 C -0.1428(6) 0.2276(6) 0.1768(5)
C17 C 0.0548(7) 0.1581(7) -0.1339(5)
H11 H -0.0112 0.1700 -0.1797
H12 H 0.1212 0.1050 -0.1691
C18 C -0.1613(7) 0.3471(7) 0.0147(7)
H13 H -0.2172 0.4004 0.0603
H14 H -0.2015 0.3375 -0.0486
C19 C 0.1984(7) 0.2770(7) -0.1369(5)
C20 C 0.0010(6) 0.3786(6) -0.1148(5)
H15 H -0.0500 0.3927 -0.1754
C21 C 0.0787(6) 0.4652(6) -0.1131(5)
H16 H 0.0604 0.5239 -0.1695
C22 C -0.0378(7) 0.4806(7) 0.0444(6)
C23 C 0.3010(7) 0.4328(6) -0.1388(5)
H17 H 0.2825 0.5036 -0.1807
H18 H 0.3607 0.3764 -0.1784
C24 C 0.0902(7) 0.6118(6) 0.0282(6)
H19 H 0.0318 0.6546 0.0789
H20 H 0.0944 0.6629 -0.0318
C25 C 0.4371(6) 0.3720(6) 0.0062(5)
C26 C 0.3158(7) 0.5652(7) 0.0175(5)
C27 C 0.4076(7) 0.5395(6) 0.1092(5)
C28 C 0.2146(7) 0.5928(6) 0.1827(5)
C29 C 0.5628(6) 0.3524(7) 0.1588(5)
H21 H 0.6018 0.2835 0.1195
H22 H 0.6179 0.4003 0.1629
C30 C 0.3684(8) 0.5796(6) 0.3096(6)
H23 H 0.4331 0.6166 0.3038
H24 H 0.3049 0.6303 0.3504
C31 C 0.5753(6) 0.2033(6) 0.2981(5)
C32 C 0.5216(6) 0.3961(6) 0.3546(5)
H25 H 0.5828 0.4388 0.3512
C33 C 0.5343(6) 0.3142(6) 0.4506(5)
H26 H 0.5922 0.3278 0.4990
C34 C 0.3448(7) 0.4450(6) 0.4553(5)
C35 C 0.6058(7) 0.0952(6) 0.4687(6)
H27 H 0.6601 0.0373 0.4260
H28 H 0.6477 0.1110 0.5288
C36 C 0.3875(7) 0.3038(6) 0.6049(5)
H29 H 0.4557 0.2949 0.6476
H30 H 0.3235 0.3616 0.6381
C37 C 0.5217(6) 0.0699(7) 0.7004(5)
H31 H 0.5744 -0.0060 0.7004
H32 H 0.4765 0.0818 0.7661
H33 H 0.5662 0.1270 0.6922
C38 C 0.3656(7) -0.0867(7) 0.7074(5)
H34 H 0.4431 -0.1377 0.7078
H35 H 0.3086 -0.1314 0.7031
H36 H 0.3507 -0.0423 0.7712
C39 C -0.1405(8) -0.0536(7) 0.1063(6)
H37 H -0.1139 -0.1013 0.0454
H38 H -0.2224 -0.0158 0.1010
H39 H -0.1295 -0.1010 0.1692
C40 C -0.1850(8) 0.1111(8) -0.0620(6)
H40 H -0.2600 0.1247 -0.0247
H41 H -0.1642 0.0339 -0.0896
H42 H -0.1892 0.1659 -0.1194
C41 C 0.3222(8) 0.6670(7) -0.0547(6)
H43 H 0.3973 0.6511 -0.0920
H44 H 0.3122 0.7354 -0.0130
H45 H 0.2610 0.6790 -0.1047
C42 C 0.4988(7) 0.6099(7) 0.1018(6)
H46 H 0.4603 0.6907 0.1084
H47 H 0.5411 0.5967 0.0347
H48 H 0.5527 0.5868 0.1578
N1 N 0.5109(5) 0.0480(5) 0.5072(4)
N2 N 0.3926(5) -0.0710(5) 0.5124(4)
N3 N 0.3551(5) 0.1950(5) 0.6030(4)
N4 N 0.2390(5) 0.0762(6) 0.6073(4)
N5 N 0.2471(5) -0.1337(5) 0.4144(4)
N6 N 0.1409(5) -0.0899(5) 0.2694(4)
N7 N 0.0965(5) 0.0200(5) 0.5015(4)
N8 N -0.0240(5) 0.0334(5) 0.3681(4)
N9 N 0.0559(6) -0.0146(5) 0.1026(5)
N10 N 0.0255(6) 0.1050(5) -0.0362(4)
N11 N -0.1076(5) 0.1127(5) 0.2025(4)
N12 N -0.1286(6) 0.2386(6) 0.0674(5)
N13 N 0.0837(6) 0.2675(5) -0.1207(4)
N14 N 0.1976(6) 0.3905(5) -0.1265(4)
N15 N -0.0664(6) 0.3990(6) -0.0154(5)
N16 N 0.0515(5) 0.5155(5) -0.0072(4)
N17 N 0.3501(6) 0.4561(5) -0.0400(4)
N18 N 0.4609(5) 0.4164(5) 0.1006(4)
N19 N 0.2035(6) 0.5817(5) 0.0769(5)
N20 N 0.3290(6) 0.5694(5) 0.2053(4)
N21 N 0.5332(5) 0.3185(5) 0.2646(4)
N22 N 0.5700(6) 0.2012(5) 0.4058(4)
N23 N 0.4061(6) 0.4731(5) 0.3668(4)
N24 N 0.4143(5) 0.3451(5) 0.4990(4)
O16 O 0.5433(4) -0.0975(4) 0.3859(3)
O17 O 0.3434(5) -0.1669(4) 0.2487(4)
O18 O 0.2088(5) -0.0179(5) -0.0179(4)
O19 O 0.2853(5) 0.1981(5) -0.1585(4)
O20 O 0.4848(5) 0.2785(5) -0.0288(4)
O21 O 0.6142(4) 0.1218(4) 0.2388(4)
O22 O 0.1562(5) 0.2715(5) 0.6142(4)
O23 O -0.0581(5) 0.1843(5) 0.4857(4)
O24 O -0.1812(5) 0.3072(5) 0.2390(4)
O25 O -0.0829(5) 0.5156(5) 0.1296(4)
O26 O 0.1316(5) 0.6216(5) 0.2480(4)
O27 O 0.2498(5) 0.4990(5) 0.4886(4)
C43 C 0.4480(6) 0.0153(6) 0.1120(5)
C44 C 0.0922(8) 0.3508(8) 0.3374(6)
H49 H 0.0441 0.4049 0.2903
H50 H 0.1300 0.3916 0.3837
H51 H 0.0439 0.3108 0.3787
C45 C 0.1837(7) 0.2648(7) 0.2742(6)
C46 C 0.1950(8) 0.2706(8) 0.1641(6)
H52 H 0.1451 0.3301 0.1274
C47 C 0.2650(8) 0.1763(7) 0.3227(6)
H53 H 0.2609 0.1717 0.3963
C48 C 0.2799(8) 0.1884(8) 0.1089(6)
H54 H 0.2848 0.1897 0.0353
N25 N 0.3483(6) 0.0977(6) 0.2717(4)
C49 C 0.3568(6) 0.1050(6) 0.1655(5)
C50 C 0.4706(8) 0.0034(7) 0.0031(6)
H55 H 0.4247 0.0556 -0.0432
N26 N 0.5188(5) -0.0634(5) 0.1738(4)
H56 H 0.5064 -0.0575 0.2412
C51 C 0.5611(7) -0.0861(7) -0.0366(5)
H57 H 0.5748 -0.0941 -0.1094
C52 C 0.6065(7) -0.1495(6) 0.1380(5)
H58 H 0.6515 -0.2007 0.1856
C53 C 0.6309(7) -0.1632(7) 0.0312(6)
C54 C 0.7310(8) -0.2615(7) -0.0083(7)
H59 H 0.7363 -0.2592 -0.0843
H60 H 0.7169 -0.3340 0.0152
H61 H 0.8034 -0.2535 0.0191
loop_
_geom_bond_atom_site_label_1
_geom_bond_atom_site_label_2
_geom_bond_site_symmetry_1
_geom_bond_site_symmetry_2
C1 N1 1_555 1_555
C2 C3 1_555 1_555
C3 C38 1_555 1_555
C4 N3 1_555 1_555
C5 H1 1_555 1_555
H2 C5 1_555 1_555
C6 H3 1_555 1_555
H4 C6 1_555 1_555
C7 N5 1_555 1_555
C8 H5 1_555 1_555
C9 C8 1_555 1_555
H6 C9 1_555 1_555
C10 N7 1_555 1_555
C11 H7 1_555 1_555
H8 C11 1_555 1_555
C12 H9 1_555 1_555
H10 C12 1_555 1_555
C13 N9 1_555 1_555
C14 C15 1_555 1_555
C15 C40 1_555 1_555
C16 N11 1_555 1_555
C17 H11 1_555 1_555
H12 C17 1_555 1_555
C18 H13 1_555 1_555
H14 C18 1_555 1_555
C19 N13 1_555 1_555
C20 H15 1_555 1_555
C21 C20 1_555 1_555
H16 C21 1_555 1_555
C22 N15 1_555 1_555
C23 H17 1_555 1_555
H18 C23 1_555 1_555
C24 H19 1_555 1_555
H20 C24 1_555 1_555
C25 N17 1_555 1_555
C26 C27 1_555 1_555
C27 C42 1_555 1_555
C28 N19 1_555 1_555
C29 H21 1_555 1_555
H22 C29 1_555 1_555
C30 H23 1_555 1_555
H24 C30 1_555 1_555
C31 N21 1_555 1_555
C32 H25 1_555 1_555
C33 C32 1_555 1_555
H26 C33 1_555 1_555
C34 N23 1_555 1_555
C35 H27 1_555 1_555
H28 C35 1_555 1_555
C36 H29 1_555 1_555
H30 C36 1_555 1_555
C37 C2 1_555 1_555
H31 C37 1_555 1_555
H32 C37 1_555 1_555
H33 C37 1_555 1_555
C38 H34 1_555 1_555
H35 C38 1_555 1_555
H36 C38 1_555 1_555
C39 C14 1_555 1_555
H37 C39 1_555 1_555
H38 C39 1_555 1_555
H39 C39 1_555 1_555
C40 H40 1_555 1_555
H41 C40 1_555 1_555
H42 C40 1_555 1_555
C41 C26 1_555 1_555
H43 C41 1_555 1_555
H44 C41 1_555 1_555
H45 C41 1_555 1_555
C42 H46 1_555 1_555
H47 C42 1_555 1_555
H48 C42 1_555 1_555
C43 C49 1_555 1_555
N1 C2 1_555 1_555
N2 C1 1_555 1_555
N3 C2 1_555 1_555
N4 C3 1_555 1_555
N5 C5 1_555 1_555
N6 C7 1_555 1_555
N7 C6 1_555 1_555
N8 C9 1_555 1_555
N9 C11 1_555 1_555
N10 C13 1_555 1_555
N11 C12 1_555 1_555
N12 C15 1_555 1_555
N13 C17 1_555 1_555
N14 C19 1_555 1_555
N15 C18 1_555 1_555
N16 C21 1_555 1_555
N17 C23 1_555 1_555
N18 C25 1_555 1_555
N19 C24 1_555 1_555
N20 C27 1_555 1_555
N21 C29 1_555 1_555
N22 C31 1_555 1_555
N23 C30 1_555 1_555
N24 C33 1_555 1_555
O16 C1 1_555 1_555
O17 C7 1_555 1_555
O18 C13 1_555 1_555
O19 C19 1_555 1_555
O20 C25 1_555 1_555
O21 C31 1_555 1_555
O22 C4 1_555 1_555
O23 C10 1_555 1_555
O24 C16 1_555 1_555
O25 C22 1_555 1_555
O26 C28 1_555 1_555
O27 C34 1_555 1_555
C44 H49 1_555 1_555
H50 C44 1_555 1_555
H51 C44 1_555 1_555
C45 C44 1_555 1_555
C46 C45 1_555 1_555
H52 C46 1_555 1_555
C47 C45 1_555 1_555
H53 C47 1_555 1_555
C48 C46 1_555 1_555
H54 C48 1_555 1_555
N25 C47 1_555 1_555
C49 C48 1_555 1_555
C50 C43 1_555 1_555
H55 C50 1_555 1_555
N26 C43 1_555 1_555
H56 N26 1_555 1_555
C51 C50 1_555 1_555
H57 C51 1_555 1_555
C52 N26 1_555 1_555
H58 C52 1_555 1_555
C53 C51 1_555 1_555
C54 C53 1_555 1_555
H59 C54 1_555 1_555
H60 C54 1_555 1_555
H61 C54 1_555 1_555
C3 N2 1_555 1_555
C4 N4 1_555 1_555
C5 N2 1_555 1_555
C6 N4 1_555 1_555
C8 N5 1_555 1_555
C8 N7 1_555 1_555
C9 N6 1_555 1_555
C10 N8 1_555 1_555
C11 N6 1_555 1_555
C12 N8 1_555 1_555
C14 N9 1_555 1_555
C14 N11 1_555 1_555
C15 N10 1_555 1_555
C16 N12 1_555 1_555
C17 N10 1_555 1_555
C18 N12 1_555 1_555
C20 N13 1_555 1_555
C20 N15 1_555 1_555
C21 N14 1_555 1_555
C22 N16 1_555 1_555
C23 N14 1_555 1_555
C24 N16 1_555 1_555
C26 N17 1_555 1_555
C26 N19 1_555 1_555
C27 N18 1_555 1_555
C28 N20 1_555 1_555
C29 N18 1_555 1_555
C30 N20 1_555 1_555
C32 N21 1_555 1_555
C32 N23 1_555 1_555
C33 N22 1_555 1_555
C34 N24 1_555 1_555
C35 N1 1_555 1_555
C35 N22 1_555 1_555
C36 N3 1_555 1_555
C36 N24 1_555 1_555
N25 C49 1_555 1_555
C52 C53 1_555 1_555

#END
