
#######################################################################
#
#                 Cambridge Crystallographic Data Centre
#                                CCDC 
#
#######################################################################
#
# If this CIF has been generated from an entry in the Cambridge 
# Structural Database, then it will include bibliographic, chemical, 
# crystal, experimental, refinement or atomic coordinate data resulting 
# from the CCDC's data processing and validation procedures.
#
#######################################################################

data_ROKLEK
_chemical_formula_moiety         'C16 H18 Br1 N3 O5 S2'
_chemical_name_systematic        
'diethyl 1-(3-(4-bromophenyl)-5-methyl-4-oxo-2-thioxo-1,3-thiazolidin-5-yl)hydrazine-1,2-dicarboxylate'
_symmetry_cell_setting           monoclinic
_symmetry_space_group_name_H-M   'C 2'
_symmetry_Int_Tables_number      5
_space_group_name_Hall           'C 2y'
loop_
_symmetry_equiv_pos_site_id
_symmetry_equiv_pos_as_xyz
1 x,y,z
2 -x,y,-z
3 1/2+x,1/2+y,z
4 1/2-x,1/2+y,-z
_cell_length_a                   18.898(3)
_cell_length_b                   8.9379(15)
_cell_length_c                   13.094(2)
_cell_angle_alpha                90
_cell_angle_beta                 107.023(11)
_cell_angle_gamma                90
_cell_volume                     2114.79
_exptl_crystal_colour            yellow
_exptl_crystal_description       block
_cell_formula_units_Z            4
loop_
_atom_site_label
_atom_site_type_symbol
_atom_site_fract_x
_atom_site_fract_y
_atom_site_fract_z
Br1 Br 0.89417(3) 0.14908(11) 1.45184(4)
S1 S 0.80082(5) 0.12720(13) 0.91575(9)
S2 S 0.64841(5) 0.04561(12) 0.79940(7)
O1 O 0.59688(12) -0.0374(3) 1.05651(17)
O2 O 0.57697(12) 0.2694(3) 0.93721(18)
O3 O 0.46027(13) 0.2939(3) 0.8272(2)
C1 C 0.71918(17) 0.0675(4) 0.9153(3)
C2 C 0.58175(17) -0.0203(4) 0.8682(3)
C3 C 0.62358(16) -0.0047(4) 0.9865(3)
C4 C 0.5623(2) -0.1823(4) 0.8449(3)
H1 H 0.5278 -0.2129 0.8820
H2 H 0.6063 -0.2420 0.8683
H3 H 0.5404 -0.1954 0.7695
C5 C 0.52153(18) 0.2196(4) 0.8733(2)
C6 C 0.4605(2) 0.4552(5) 0.8448(3)
H4 H 0.5109 0.4927 0.8657
H5 H 0.4387 0.4777 0.9015
C7 C 0.4175(3) 0.5266(6) 0.7449(4)
H6 H 0.4169 0.6329 0.7550
H7 H 0.3677 0.4891 0.7250
H8 H 0.4397 0.5045 0.6895
O4 O 0.4984(10) 0.1593(17) 0.6412(13)
O5 O 0.3784(9) 0.0432(14) 0.6022(12)
C8 C 0.4453(11) 0.077(4) 0.6664(18)
C9 C 0.3615(6) 0.081(2) 0.4909(8)
H9 H 0.3688 -0.0073 0.4521
H10 H 0.3963 0.1563 0.4828
C10 C 0.2868(6) 0.137(2) 0.4423(7)
H11 H 0.2796 0.1550 0.3677
H12 H 0.2799 0.2282 0.4767
H13 H 0.2516 0.0637 0.4505
C11 C 0.74383(16) 0.0604(4) 1.1114(2)
C12 C 0.72573(18) 0.1735(5) 1.1706(3)
H14 H 0.6842 0.2325 1.1413
C13 C 0.7693(2) 0.1986(5) 1.2729(3)
H15 H 0.7577 0.2740 1.3142
C14 C 0.8308(2) 0.1099(5) 1.3134(3)
C15 C 0.8488(2) -0.0039(6) 1.2553(3)
H16 H 0.8902 -0.0633 1.2850
C16 C 0.80500(18) -0.0295(4) 1.1523(3)
H17 H 0.8164 -0.1056 1.1113
N1 N 0.69679(13) 0.0358(3) 1.0044(2)
N2 N 0.51535(13) 0.0727(3) 0.84259(19)
N3 N 0.45418(15) 0.0269(4) 0.7612(2)
H18 H 0.4286 -0.0548 0.7695
O6? O 0.4982(16) 0.100(2) 0.630(2)
O7? O 0.3797(15) 0.094(2) 0.6008(19)
C17? C 0.455(2) 0.085(8) 0.657(3)
C18? C 0.3665(11) 0.168(3) 0.4939(13)
H19? H 0.4070 0.2358 0.4969
H20? H 0.3662 0.0919 0.4408
C19? C 0.3198(13) 0.223(3) 0.4719(14)
H21? H 0.3131 0.2645 0.4020
H22? H 0.3210 0.3025 0.5217
H23? H 0.2796 0.1567 0.4702
loop_
_geom_bond_atom_site_label_1
_geom_bond_atom_site_label_2
_geom_bond_site_symmetry_1
_geom_bond_site_symmetry_2
Br1 C14 1_555 1_555
S1 C1 1_555 1_555
S2 C1 1_555 1_555
O1 C3 1_555 1_555
O2 C5 1_555 1_555
O3 C5 1_555 1_555
C1 N1 1_555 1_555
C2 S2 1_555 1_555
C3 C2 1_555 1_555
C4 C2 1_555 1_555
H1 C4 1_555 1_555
H2 C4 1_555 1_555
H3 C4 1_555 1_555
C5 N2 1_555 1_555
C6 O3 1_555 1_555
H4 C6 1_555 1_555
H5 C6 1_555 1_555
C7 C6 1_555 1_555
H6 C7 1_555 1_555
H7 C7 1_555 1_555
H8 C7 1_555 1_555
O4 C8 1_555 1_555
O5 C8 1_555 1_555
C8 N3 1_555 1_555
C9 O5 1_555 1_555
H9 C9 1_555 1_555
H10 C9 1_555 1_555
C10 C9 1_555 1_555
H11 C10 1_555 1_555
H12 C10 1_555 1_555
H13 C10 1_555 1_555
C11 C12 1_555 1_555
C12 H14 1_555 1_555
C13 C12 1_555 1_555
H15 C13 1_555 1_555
C14 C13 1_555 1_555
C15 C14 1_555 1_555
H16 C15 1_555 1_555
C16 C11 1_555 1_555
H17 C16 1_555 1_555
N1 C3 1_555 1_555
N2 C2 1_555 1_555
N3 N2 1_555 1_555
H18 N3 1_555 1_555
C11 N1 1_555 1_555
C15 C16 1_555 1_555

#END
