
#######################################################################
#
#                 Cambridge Crystallographic Data Centre
#                                CCDC 
#
#######################################################################
#
# If this CIF has been generated from an entry in the Cambridge 
# Structural Database, then it will include bibliographic, chemical, 
# crystal, experimental, refinement or atomic coordinate data resulting 
# from the CCDC's data processing and validation procedures.
#
#######################################################################

data_ROKMEK
_chemical_formula_moiety         'C14 H22 N1 O1 1+,Cl1 1-'
_chemical_name_systematic        
'1-(2-(2-Methoxyphenyl)ethyl)piperidinium chloride'
_chemical_properties_biological  
"The neutral compound was studied in the context of therapeutic agents for Alzheimer's disease"
_symmetry_cell_setting           triclinic
_symmetry_space_group_name_H-M   'P -1'
_symmetry_Int_Tables_number      2
_space_group_name_Hall           '-P 1'
loop_
_symmetry_equiv_pos_site_id
_symmetry_equiv_pos_as_xyz
1 x,y,z
2 -x,-y,-z
_cell_length_a                   7.3520(8)
_cell_length_b                   10.2123(11)
_cell_length_c                   10.2594(12)
_cell_angle_alpha                63.555(11)
_cell_angle_beta                 76.961(9)
_cell_angle_gamma                82.209(9)
_cell_volume                     671.357
_exptl_crystal_colour            colorless
_exptl_crystal_description       plate
_cell_formula_units_Z            2
_exptl_crystal_recrystallization_method acetonitrile
loop_
_atom_site_label
_atom_site_type_symbol
_atom_site_fract_x
_atom_site_fract_y
_atom_site_fract_z
C1 C 0.18313(16) 0.62228(13) 0.49177(13)
C2 C 0.16066(16) 0.76487(13) 0.37950(13)
C3 C 0.03182(18) 0.86266(14) 0.41451(15)
C4 C -0.07208(18) 0.82321(15) 0.55695(15)
C5 C -0.04211(18) 0.68449(15) 0.66758(14)
C6 C 0.08457(17) 0.58331(14) 0.63598(14)
C7 C 0.31521(19) 0.37896(14) 0.55619(15)
C8 C 0.27146(17) 0.81000(14) 0.22448(13)
C9 C 0.20723(17) 0.73061(14) 0.14853(13)
C10 C 0.29140(18) 0.65795(14) -0.05647(14)
C11 C 0.41427(18) 0.68809(14) -0.20589(14)
C12 C 0.37659(19) 0.84437(14) -0.31980(14)
C13 C 0.40088(19) 0.95436(14) -0.26321(13)
C14 C 0.27928(19) 0.92049(13) -0.11178(13)
O1 O 0.30646(12) 0.52951(9) 0.44948(9)
N1 N 0.32252(15) 0.76638(11) -0.00291(11)
H1 H 0.451(2) 0.7544(17) 0.0063(17)
H2 H 0.017(2) 0.9603(18) 0.3367(18)
H3 H -0.161(2) 0.8913(17) 0.5792(17)
H4 H -0.110(2) 0.6564(18) 0.7710(19)
H5 H 0.106(3) 0.490(2) 0.713(2)
H6 H 0.410(2) 0.3309(17) 0.5097(17)
H7 H 0.189(2) 0.3383(18) 0.5840(18)
H8 H 0.354(2) 0.3678(17) 0.6458(18)
H9 H 0.253(2) 0.9160(19) 0.1698(18)
H10 H 0.408(2) 0.7860(18) 0.2278(18)
H11 H 0.074(2) 0.7559(17) 0.1361(17)
H12 H 0.228(2) 0.6245(18) 0.2072(17)
H13 H 0.320(2) 0.5594(18) 0.0165(18)
H14 H 0.161(3) 0.6655(19) -0.0611(19)
H15 H 0.388(2) 0.6176(19) -0.2365(19)
H16 H 0.542(2) 0.6735(17) -0.1933(17)
H17 H 0.249(2) 0.8559(19) -0.3373(19)
H18 H 0.462(2) 0.8672(19) -0.416(2)
H19 H 0.369(3) 1.054(2) -0.329(2)
H20 H 0.535(2) 0.9529(15) -0.2566(15)
H21 H 0.142(2) 0.9284(18) -0.1122(18)
H22 H 0.296(2) 0.9902(17) -0.0739(18)
Cl1 Cl 0.74452(4) 0.75090(4) 0.01106(3)
loop_
_geom_bond_atom_site_label_1
_geom_bond_atom_site_label_2
_geom_bond_site_symmetry_1
_geom_bond_site_symmetry_2
C1 C2 1_555 1_555
C2 C3 1_555 1_555
C3 C4 1_555 1_555
C4 C5 1_555 1_555
C5 C6 1_555 1_555
C6 C1 1_555 1_555
C7 O1 1_555 1_555
C8 C2 1_555 1_555
C9 C8 1_555 1_555
C10 C11 1_555 1_555
C11 C12 1_555 1_555
C12 C13 1_555 1_555
C13 C14 1_555 1_555
C14 N1 1_555 1_555
O1 C1 1_555 1_555
N1 C9 1_555 1_555
H1 N1 1_555 1_555
H2 C3 1_555 1_555
H3 C4 1_555 1_555
H4 C5 1_555 1_555
H5 C6 1_555 1_555
H6 C7 1_555 1_555
H7 C7 1_555 1_555
H8 C7 1_555 1_555
H9 C8 1_555 1_555
H10 C8 1_555 1_555
H11 C9 1_555 1_555
H12 C9 1_555 1_555
H13 C10 1_555 1_555
H14 C10 1_555 1_555
H15 C11 1_555 1_555
H16 C11 1_555 1_555
H17 C12 1_555 1_555
H18 C12 1_555 1_555
H19 C13 1_555 1_555
H20 C13 1_555 1_555
H21 C14 1_555 1_555
H22 C14 1_555 1_555
C10 N1 1_555 1_555

#END
