
#######################################################################
#
#                 Cambridge Crystallographic Data Centre
#                                CCDC 
#
#######################################################################
#
# If this CIF has been generated from an entry in the Cambridge 
# Structural Database, then it will include bibliographic, chemical, 
# crystal, experimental, refinement or atomic coordinate data resulting 
# from the CCDC's data processing and validation procedures.
#
#######################################################################

data_ROKPAK
_chemical_formula_moiety         'C4 H4 N8 O2,C2 H6 O1 S1,H2 O1'
_chemical_name_systematic        
"3,3'-diazene-1,2-diylbis(1,2,4-oxadiazol-5-amine) dimethyl sulfoxide solvate monohydrate"
_symmetry_cell_setting           monoclinic
_symmetry_space_group_name_H-M   'P 21/n'
_symmetry_Int_Tables_number      14
_space_group_name_Hall           '-P 2yn'
loop_
_symmetry_equiv_pos_site_id
_symmetry_equiv_pos_as_xyz
1 x,y,z
2 1/2-x,1/2+y,1/2-z
3 -x,-y,-z
4 1/2+x,1/2-y,1/2+z
_cell_length_a                   7.4439(8)
_cell_length_b                   22.253(3)
_cell_length_c                   7.6787(9)
_cell_angle_alpha                90
_cell_angle_beta                 97.7710(10)
_cell_angle_gamma                90
_cell_volume                     1260.29
_exptl_crystal_colour            yellow
_exptl_crystal_description       prism
_cell_formula_units_Z            4
loop_
_atom_site_label
_atom_site_type_symbol
_atom_site_fract_x
_atom_site_fract_y
_atom_site_fract_z
O1 O 0.56832(12) -0.11579(4) 0.17227(11)
N1 N 0.58605(15) -0.09860(5) 0.35283(13)
C1 C 0.66634(15) -0.04640(5) 0.34983(15)
N2 N 0.70411(13) -0.02601(5) 0.19216(13)
C2 C 0.64140(15) -0.07029(5) 0.08637(16)
N3 N 0.70989(13) -0.01708(5) 0.51336(13)
N4 N 0.80070(13) 0.03005(5) 0.49832(13)
C3 C 0.84718(15) 0.05879(6) 0.66258(15)
N5 N 0.94357(14) 0.10800(5) 0.66236(13)
O2 O 0.96817(11) 0.12419(4) 0.84353(10)
C4 C 0.88185(16) 0.08115(5) 0.92746(15)
N6 N 0.80443(14) 0.03964(5) 0.81952(13)
N7 N 0.64307(15) -0.07532(5) -0.08371(13)
H1 H 0.6907 -0.0466 -0.1417
H2 H 0.5965 -0.1074 -0.1398
N8 N 0.88198(15) 0.08579(5) 1.09795(13)
H3 H 0.8250 0.0589 1.1542
H4 H 0.9391 0.1158 1.1560
S1 S 0.64090(4) 0.186655(13) 1.34282(4)
O3 O 0.44212(12) 0.18289(4) 1.26785(12)
C5 C 0.7296(2) 0.24430(7) 1.2177(2)
H5 H 0.7274 0.2308 1.0960
H6 H 0.8548 0.2532 1.2684
H7 H 0.6555 0.2806 1.2200
C6 C 0.64966(19) 0.22691(7) 1.54350(18)
H8 H 0.5797 0.2642 1.5234
H9 H 0.7760 0.2366 1.5878
H10 H 0.5981 0.2022 1.6300
O4 O 0.09053(13) 0.16407(5) 1.34697(12)
H11 H 0.200(3) 0.1683(8) 1.344(2)
H12 H 0.081(2) 0.1491(8) 1.444(2)
loop_
_geom_bond_atom_site_label_1
_geom_bond_atom_site_label_2
_geom_bond_site_symmetry_1
_geom_bond_site_symmetry_2
O1 N1 1_555 1_555
N1 C1 1_555 1_555
C1 N2 1_555 1_555
N2 C2 1_555 1_555
C2 O1 1_555 1_555
N3 C1 1_555 1_555
N4 N3 1_555 1_555
C3 N4 1_555 1_555
N5 C3 1_555 1_555
O2 N5 1_555 1_555
C4 O2 1_555 1_555
N6 C3 1_555 1_555
N7 C2 1_555 1_555
H1 N7 1_555 1_555
H2 N7 1_555 1_555
N8 C4 1_555 1_555
H3 N8 1_555 1_555
H4 N8 1_555 1_555
S1 O3 1_555 1_555
C5 S1 1_555 1_555
H5 C5 1_555 1_555
H6 C5 1_555 1_555
H7 C5 1_555 1_555
C6 S1 1_555 1_555
H8 C6 1_555 1_555
H9 C6 1_555 1_555
H10 C6 1_555 1_555
O4 H11 1_555 1_555
H12 O4 1_555 1_555
C4 N6 1_555 1_555

#END
