
#######################################################################
#
#                 Cambridge Crystallographic Data Centre
#                                CCDC 
#
#######################################################################
#
# If this CIF has been generated from an entry in the Cambridge 
# Structural Database, then it will include bibliographic, chemical, 
# crystal, experimental, refinement or atomic coordinate data resulting 
# from the CCDC's data processing and validation procedures.
#
#######################################################################

data_ROKRIS
_chemical_formula_moiety         'C28 H28 N2 O2 2+,2(C7 H7 O3 S1 1-),2(H2 O1)'
_chemical_name_systematic        
"4,4'-(2,4-bis(2-Hydroxyphenyl)cyclobutane-1,3-diyl)-bis(1-methylpyridinium) bis(p-toluenesulfonate) dihydrate"
_symmetry_cell_setting           triclinic
_symmetry_space_group_name_H-M   'P -1'
_symmetry_Int_Tables_number      2
_space_group_name_Hall           '-P 1'
loop_
_symmetry_equiv_pos_site_id
_symmetry_equiv_pos_as_xyz
1 x,y,z
2 -x,-y,-z
_cell_length_a                   8.704(1)
_cell_length_b                   9.116(1)
_cell_length_c                   12.968(2)
_cell_angle_alpha                84.69(1)
_cell_angle_beta                 76.63(1)
_cell_angle_gamma                80.35
_cell_volume                     985.349
_exptl_crystal_colour            'pale yellow'
_exptl_crystal_description       block
_cell_formula_units_Z            1
loop_
_atom_site_label
_atom_site_type_symbol
_atom_site_fract_x
_atom_site_fract_y
_atom_site_fract_z
S1 S 0.35226(6) 0.29517(6) 0.93054(4)
O1 O 0.2684(2) 0.1905(2) 0.89905(14)
O2 O 0.2441(2) 0.4311(2) 0.96810(12)
O3 O 0.4481(2) 0.2358(2) 1.00588(13)
C1 C 0.7658(4) 0.5600(5) 0.5386(3)
C2 C 0.6702(2) 0.4847(2) 0.6352(2)
C3 C 0.5663(3) 0.3901(3) 0.6266(2)
C4 C 0.4717(3) 0.3292(3) 0.7151(2)
C5 C 0.4809(2) 0.3613(2) 0.8154(2)
C6 C 0.5873(3) 0.4527(2) 0.8252(2)
C7 C 0.6804(3) 0.5133(3) 0.7359(2)
H4 H 0.7793(37) 0.5058(36) 0.4841(26)
H5 H 0.8467(52) 0.5907(47) 0.5529(34)
H6 H 0.7035(41) 0.6615(43) 0.5184(27)
H7 H 0.5616(29) 0.3711(27) 0.5581(21)
H8 H 0.4093(26) 0.2691(24) 0.7082(17)
H9 H 0.5880(24) 0.4717(22) 0.8909(17)
H10 H 0.7483(31) 0.5783(28) 0.7461(20)
O4 O 0.0568(2) -0.3151(2) 0.67967(11)
N1 N -0.1513(2) 0.1211(2) 0.88472(11)
C8 C 0.1776(2) -0.2350(2) 0.67447(13)
C9 C 0.2767(2) -0.2599(2) 0.74661(15)
C10 C 0.3927(2) -0.1722(2) 0.7396(2)
C11 C 0.4149(2) -0.0620(2) 0.6597(2)
C12 C 0.3172(2) -0.0394(2) 0.5869(2)
C13 C 0.1971(2) -0.1241(2) 0.59332(13)
C14 C 0.0791(2) -0.0998(2) 0.52247(13)
C15 C -0.0946(2) -0.0188(2) 0.57186(13)
C16 C -0.1194(2) 0.0354(2) 0.68094(13)
C17 C -0.2176(2) -0.0273(2) 0.76734(14)
C18 C -0.2336(2) 0.0171(2) 0.8677(2)
C19 C -0.0562(3) 0.1849(2) 0.8036(2)
C20 C -0.0397(2) 0.1452(2) 0.70210(15)
C21 C -0.1688(4) 0.1675(3) 0.9939(2)
H1 H 0.0481(30) -0.3643(28) 0.7354(21)
H11 H 0.2631(21) -0.3384(21) 0.7989(15)
H12 H 0.4578(24) -0.1918(22) 0.7887(16)
H13 H 0.4987(25) 0.0046(23) 0.6560(16)
H14 H 0.3315(22) 0.0352(21) 0.5340(15)
H15 H 0.0699(20) -0.1935(21) 0.5005(13)
H16 H -0.1697(20) -0.0821(18) 0.5737(13)
H17 H -0.2780(25) -0.1006(22) 0.7565(16)
H18 H -0.3030(26) -0.0217(23) 0.9270(18)
H19 H -0.0067(26) 0.2575(25) 0.8206(17)
H20 H 0.0249(24) 0.1925(22) 0.6505(16)
H21 H -0.2084(30) 0.0928(28) 1.0412(21)
H22 H -0.0773(33) 0.1828(30) 1.0023(21)
H23 H -0.2470(34) 0.2520(32) 1.0074(21)
C14A C -0.0791(2) 0.0998(2) 0.47753(13)
C13A C -0.1971(2) 0.1241(2) 0.40668(13)
C8A C -0.1776(2) 0.2350(2) 0.32553(13)
O4A O -0.0568(2) 0.3151(2) 0.32033(11)
H1A H -0.0481(30) 0.3643(28) 0.2646(21)
C9A C -0.2767(2) 0.2599(2) 0.25339(15)
C10A C -0.3927(2) 0.1722(2) 0.2604(2)
C11A C -0.4149(2) 0.0620(2) 0.3403(2)
C12A C -0.3172(2) 0.0394(2) 0.4131(2)
H14A H -0.3315(22) -0.0352(21) 0.4660(15)
H13A H -0.4987(25) -0.0046(23) 0.3440(16)
H12A H -0.4578(24) 0.1918(22) 0.2113(16)
H11A H -0.2631(21) 0.3384(21) 0.2011(15)
C15A C 0.0946(2) 0.0188(2) 0.42814(13)
C16A C 0.1194(2) -0.0354(2) 0.31906(13)
C17A C 0.2176(2) 0.0273(2) 0.23266(14)
C18A C 0.2336(2) -0.0171(2) 0.1323(2)
N1A N 0.1513(2) -0.1211(2) 0.11528(11)
C19A C 0.0562(3) -0.1849(2) 0.1964(2)
C20A C 0.0397(2) -0.1452(2) 0.29790(15)
H20A H -0.0249(24) -0.1925(22) 0.3495(16)
H19A H 0.0067(26) -0.2575(25) 0.1794(17)
C21A C 0.1688(4) -0.1675(3) 0.0061(2)
H21A H 0.2084(30) -0.0928(28) -0.0412(21)
H22A H 0.0773(33) -0.1828(30) -0.0023(21)
H23A H 0.2470(34) -0.2520(32) -0.0074(21)
H18A H 0.3030(26) 0.0217(23) 0.0730(18)
H17A H 0.2780(25) 0.1006(22) 0.2435(16)
H16A H 0.1697(20) 0.0821(18) 0.4263(13)
H15A H -0.0699(20) 0.1935(21) 0.4995(13)
O5 O -0.0010(2) 0.5152(2) 0.85767(13)
H2 H 0.0700(39) 0.4890(34) 0.8872(24)
H3 H -0.0800(40) 0.5426(35) 0.9114(27)
loop_
_geom_bond_atom_site_label_1
_geom_bond_atom_site_label_2
_geom_bond_site_symmetry_1
_geom_bond_site_symmetry_2
S1 O1 1_555 1_555
O2 S1 1_555 1_555
O3 S1 1_555 1_555
O4 C8 1_555 1_555
O5 H2 1_555 1_555
N1 C18 1_555 1_555
C1 C2 1_555 1_555
C2 C3 1_555 1_555
C3 C4 1_555 1_555
C4 C5 1_555 1_555
C5 S1 1_555 1_555
C6 C5 1_555 1_555
C7 C2 1_555 1_555
C8 C9 1_555 1_555
C9 C10 1_555 1_555
C10 C11 1_555 1_555
C11 C12 1_555 1_555
C12 C13 1_555 1_555
C13 C8 1_555 1_555
C14 C13 1_555 1_555
C15 C14 1_555 1_555
C16 C15 1_555 1_555
C17 C16 1_555 1_555
C18 C17 1_555 1_555
C19 N1 1_555 1_555
C20 C16 1_555 1_555
C21 N1 1_555 1_555
H1 O4 1_555 1_555
H3 O5 1_555 1_555
H4 C1 1_555 1_555
H5 C1 1_555 1_555
H6 C1 1_555 1_555
H7 C3 1_555 1_555
H8 C4 1_555 1_555
H9 C6 1_555 1_555
H10 C7 1_555 1_555
H11 C9 1_555 1_555
H12 C10 1_555 1_555
H13 C11 1_555 1_555
H14 C12 1_555 1_555
H15 C14 1_555 1_555
H16 C15 1_555 1_555
H17 C17 1_555 1_555
H18 C18 1_555 1_555
H19 C19 1_555 1_555
H20 C20 1_555 1_555
H21 C21 1_555 1_555
H22 C21 1_555 1_555
H23 C21 1_555 1_555
C14A C15 1_555 1_555
C13A C14A 1_555 1_555
C8A C13A 1_555 1_555
O4A C8A 1_555 1_555
H1A O4A 1_555 1_555
C9A C8A 1_555 1_555
C10A C9A 1_555 1_555
C11A C10A 1_555 1_555
C12A C13A 1_555 1_555
H14A C12A 1_555 1_555
H13A C11A 1_555 1_555
H12A C10A 1_555 1_555
H11A C9A 1_555 1_555
C15A C14 1_555 1_555
C16A C15A 1_555 1_555
C17A C16A 1_555 1_555
C18A C17A 1_555 1_555
N1A C18A 1_555 1_555
C19A N1A 1_555 1_555
C20A C16A 1_555 1_555
H20A C20A 1_555 1_555
H19A C19A 1_555 1_555
C21A N1A 1_555 1_555
H21A C21A 1_555 1_555
H22A C21A 1_555 1_555
H23A C21A 1_555 1_555
H18A C18A 1_555 1_555
H17A C17A 1_555 1_555
H16A C15A 1_555 1_555
H15A C14A 1_555 1_555
C6 C7 1_555 1_555
C19 C20 1_555 1_555
C14A C15A 1_555 1_555
C11A C12A 1_555 1_555
C19A C20A 1_555 1_555

#END
