
#######################################################################
#
#                 Cambridge Crystallographic Data Centre
#                                CCDC 
#
#######################################################################
#
# If this CIF has been generated from an entry in the Cambridge 
# Structural Database, then it will include bibliographic, chemical, 
# crystal, experimental, refinement or atomic coordinate data resulting 
# from the CCDC's data processing and validation procedures.
#
#######################################################################

data_ROKSAN
_chemical_formula_moiety         'C13 H13 N3 O3 S1'
_chemical_name_systematic        
4-(2-(2-hydroxybenzylidene)hydrazino)benzenesulfonamide
_symmetry_cell_setting           monoclinic
_symmetry_space_group_name_H-M   'C c'
_symmetry_Int_Tables_number      9
_space_group_name_Hall           'C -2yc'
loop_
_symmetry_equiv_pos_site_id
_symmetry_equiv_pos_as_xyz
1 x,y,z
2 x,-y,1/2+z
3 1/2+x,1/2+y,z
4 1/2+x,1/2-y,1/2+z
_cell_length_a                   28.720(3)
_cell_length_b                   6.1696(6)
_cell_length_c                   7.5796(8)
_cell_angle_alpha                90
_cell_angle_beta                 99.756(3)
_cell_angle_gamma                90
_cell_volume                     1323.61
_exptl_crystal_colour            colorless
_exptl_crystal_description       block
_cell_formula_units_Z            4
loop_
_atom_site_label
_atom_site_type_symbol
_atom_site_fract_x
_atom_site_fract_y
_atom_site_fract_z
S1 S 0.32469(3) 0.20238(17) 0.56103(10)
O1 O 0.56672(10) 0.8645(5) 0.8319(4)
H1 H 0.5506 0.7549 0.8319
O2 O 0.31647(10) -0.0245(5) 0.5268(4)
O3 O 0.31748(12) 0.3485(6) 0.4141(4)
N1 N 0.54849(11) 0.4660(5) 0.9256(4)
N2 N 0.52038(11) 0.2881(6) 0.9405(5)
H2 H 0.5313 0.1839 1.0107
C1 C 0.61307(13) 0.8172(7) 0.9025(6)
C2 C 0.64637(14) 0.9714(7) 0.8805(6)
H3 H 0.6374 1.0995 0.8194
C3 C 0.69287(16) 0.9329(8) 0.9500(7)
H4 H 0.7155 1.0365 0.9367
C4 C 0.70645(15) 0.7425(8) 1.0392(6)
H5 H 0.7379 0.7200 1.0892
C5 C 0.67337(13) 0.5867(7) 1.0541(6)
H6 H 0.6827 0.4564 1.1111
C6 C 0.62535(13) 0.6219(6) 0.9841(5)
C7 C 0.59189(13) 0.4491(6) 0.9946(5)
H7 H 0.6024 0.3217 1.0538
C8 C 0.47526(13) 0.2736(6) 0.8455(5)
C9 C 0.45061(13) 0.0815(7) 0.8558(6)
H8 H 0.4651 -0.0334 0.9232
C10 C 0.40537(13) 0.0604(6) 0.7678(6)
H9 H 0.3892 -0.0691 0.7747
C11 C 0.38348(13) 0.2304(6) 0.6688(5)
C12 C 0.40769(14) 0.4213(6) 0.6563(6)
H10 H 0.3929 0.5360 0.5894
C13 C 0.45326(14) 0.4424(6) 0.7416(6)
H11 H 0.4697 0.5701 0.7302
N3 N 0.29017(13) 0.2721(9) 0.6950(6)
H12 H 0.2906(12) 0.194(6) 0.765(5)
H13 H 0.2958(15) 0.417(8) 0.734(6)
loop_
_geom_bond_atom_site_label_1
_geom_bond_atom_site_label_2
_geom_bond_site_symmetry_1
_geom_bond_site_symmetry_2
S1 O2 1_555 1_555
O1 H1 1_555 1_555
O3 S1 1_555 1_555
N1 N2 1_555 1_555
N2 H2 1_555 1_555
C1 O1 1_555 1_555
C2 C1 1_555 1_555
H3 C2 1_555 1_555
C3 C2 1_555 1_555
H4 C3 1_555 1_555
C4 C3 1_555 1_555
H5 C4 1_555 1_555
C5 C4 1_555 1_555
H6 C5 1_555 1_555
C6 C1 1_555 1_555
C7 N1 1_555 1_555
H7 C7 1_555 1_555
C8 N2 1_555 1_555
C9 C8 1_555 1_555
H8 C9 1_555 1_555
C10 C9 1_555 1_555
H9 C10 1_555 1_555
C11 S1 1_555 1_555
C12 C11 1_555 1_555
H10 C12 1_555 1_555
C13 C8 1_555 1_555
H11 C13 1_555 1_555
N3 S1 1_555 1_555
H12 N3 1_555 1_555
H13 N3 1_555 1_555
C5 C6 1_555 1_555
C6 C7 1_555 1_555
C10 C11 1_555 1_555
C12 C13 1_555 1_555

#END
