
#######################################################################
#
#                 Cambridge Crystallographic Data Centre
#                                CCDC 
#
#######################################################################
#
# If this CIF has been generated from an entry in the Cambridge 
# Structural Database, then it will include bibliographic, chemical, 
# crystal, experimental, refinement or atomic coordinate data resulting 
# from the CCDC's data processing and validation procedures.
#
#######################################################################

data_ROKVIW
_chemical_formula_moiety         'C16 H28 N6 2+,2(Cl1 O4 1-)'
_chemical_name_systematic        
'1,5-bis(1-Methylimidazol-2-ylmethyl)-1,5-diazoniacyclo-octane perchlorate'
_symmetry_cell_setting           monoclinic
_symmetry_space_group_name_H-M   'P 21/c'
_symmetry_Int_Tables_number      14
_space_group_name_Hall           '-P 2ybc'
loop_
_symmetry_equiv_pos_site_id
_symmetry_equiv_pos_as_xyz
1 x,y,z
2 x,1/2-y,1/2+z
3 -x,-y,-z
4 -x,1/2+y,1/2-z
_cell_length_a                   11.964(2)
_cell_length_b                   13.251(3)
_cell_length_c                   14.741(3)
_cell_angle_alpha                90
_cell_angle_beta                 106.00(3)
_cell_angle_gamma                90
_cell_volume                     2246.43
_exptl_crystal_colour            colorless
_exptl_crystal_description       prismatic
_cell_formula_units_Z            4
loop_
_atom_site_label
_atom_site_type_symbol
_atom_site_fract_x
_atom_site_fract_y
_atom_site_fract_z
C1 C 0.4565(8) 0.3105(7) 1.3458(7)
C2 C 0.5275(7) 0.4056(7) 1.3363(7)
C3 C 0.4584(8) 0.5034(7) 1.3284(7)
C4 C 0.3741(7) 0.4850(8) 1.1501(6)
C5 C 0.3277(8) 0.3805(7) 1.1149(7)
C6 C 0.3685(8) 0.2921(7) 1.1709(6)
N1 N 0.3467(6) 0.3024(5) 1.2681(5)
N2 N 0.3518(5) 0.5040(5) 1.2481(4)
C7 C 0.2806(8) 0.2152(7) 1.2918(8)
C8 C 0.1593(7) 0.2172(6) 1.2284(6)
N3 N 0.0920(6) 0.2952(5) 1.2019(5)
N4 N 0.0920(7) 0.1357(5) 1.1981(5)
C9 C -0.0165(7) 0.2663(7) 1.1534(7)
C10 C -0.0170(7) 0.1662(6) 1.1495(6)
C11 C 0.1312(9) 0.0283(6) 1.2110(7)
C12 C 0.2835(7) 0.6018(6) 1.2467(7)
N5 N 0.1095(6) 0.6722(5) 1.1339(5)
N6 N 0.1014(6) 0.5123(5) 1.1672(5)
C13 C 0.1696(7) 0.5924(6) 1.1841(6)
C14 C -0.0030(7) 0.5396(6) 1.1062(5)
C15 C 0.0014(8) 0.6397(7) 1.0865(6)
C16 C 0.1539(9) 0.7777(6) 1.1270(7)
H1 H 0.4381 0.3125 1.4052
H2 H 0.5032 0.2517 1.3454
H3 H 0.5549 0.3987 1.2814
H4 H 0.5938 0.4098 1.3903
H5 H 0.5072 0.5586 1.3213
H6 H 0.4370 0.5138 1.3859
H7 H 0.3354 0.5357 1.1060
H8 H 0.4559 0.4887 1.1558
H9 H 0.3429 0.3704 1.0549
H10 H 0.2447 0.3825 1.1033
H11 H 0.4502 0.2835 1.1782
H12 H 0.3287 0.2336 1.1393
H13 H 0.2792 0.2197 1.3565
H14 H 0.3178 0.1531 1.2836
H15 H -0.0812 0.3101 1.1267
H16 H -0.0812 0.1237 1.1187
H17 H 0.2112 0.0258 1.2475
H18 H 0.0842 -0.0079 1.2433
H19 H 0.1235 -0.0020 1.1504
H20 H 0.3235 0.6566 1.2265
H21 H 0.2784 0.6166 1.3091
H22 H -0.0680 0.4956 1.0815
H23 H -0.0599 0.6795 1.0469
H24 H 0.0931 0.8178 1.0870
H25 H 0.1779 0.8073 1.1888
H26 H 0.2189 0.7751 1.1008
Cl1 Cl 0.6573(2) 0.1537(2) 0.5700(2)
O1 O 0.7489(8) 0.0931(8) 0.5523(8)
O2 O 0.6819(12) 0.2585(7) 0.5516(11)
O3 O 0.6667(11) 0.1570(10) 0.6685(6)
O4 O 0.5471(6) 0.1299(7) 0.5074(6)
Cl2 Cl 0.2079(2) 0.0778(2) 0.9695(2)
O8 O 0.1441(11) 0.1539(10) 1.0020(10)
O9 O 0.1823(10) -0.0176(7) 1.0070(9)
O10 O 0.3309(7) 0.0971(10) 1.0121(9)
O11 O 0.1987(7) 0.0553(6) 0.8729(5)
O5? O 0.7465(10) 0.1452(12) 0.5230(9)
O6? O 0.6908(15) 0.2283(12) 0.6435(11)
O7? O 0.6573(15) 0.0672(11) 0.6301(12)
O12? O 0.1882(13) 0.1850(7) 0.9653(12)
O13? O 0.1015(9) 0.0418(12) 0.9869(12)
O14? O 0.3058(11) 0.0539(13) 1.0476(10)
loop_
_geom_bond_atom_site_label_1
_geom_bond_atom_site_label_2
_geom_bond_site_symmetry_1
_geom_bond_site_symmetry_2
C1 C2 1_555 1_555
C2 C3 1_555 1_555
C3 N2 1_555 1_555
C4 C5 1_555 1_555
C5 C6 1_555 1_555
C6 N1 1_555 1_555
N1 C1 1_555 1_555
N2 C4 1_555 1_555
C7 N1 1_555 1_555
C8 C7 1_555 1_555
N3 C8 1_555 1_555
N4 C8 1_555 1_555
C9 N3 1_555 1_555
C10 N4 1_555 1_555
C11 N4 1_555 1_555
C12 N2 1_555 1_555
N5 C13 1_555 1_555
N6 C13 1_555 1_555
C13 C12 1_555 1_555
C14 N6 1_555 1_555
C15 N5 1_555 1_555
C16 N5 1_555 1_555
Cl1 O1 1_555 1_555
O2 Cl1 1_555 1_555
O3 Cl1 1_555 1_555
O4 Cl1 1_555 1_555
Cl2 O8 1_555 1_555
O9 Cl2 1_555 1_555
O10 Cl2 1_555 1_555
O11 Cl2 1_555 1_555
H1 C1 1_555 1_555
H2 C1 1_555 1_555
H3 C2 1_555 1_555
H4 C2 1_555 1_555
H5 C3 1_555 1_555
H6 C3 1_555 1_555
H7 C4 1_555 1_555
H8 C4 1_555 1_555
H9 C5 1_555 1_555
H10 C5 1_555 1_555
H11 C6 1_555 1_555
H12 C6 1_555 1_555
H13 C7 1_555 1_555
H14 C7 1_555 1_555
H15 C9 1_555 1_555
H16 C10 1_555 1_555
H17 C11 1_555 1_555
H18 C11 1_555 1_555
H19 C11 1_555 1_555
H20 C12 1_555 1_555
H21 C12 1_555 1_555
H22 C14 1_555 1_555
H23 C15 1_555 1_555
H24 C16 1_555 1_555
H25 C16 1_555 1_555
H26 C16 1_555 1_555
C9 C10 1_555 1_555
C14 C15 1_555 1_555

#END
