
#######################################################################
#
#                 Cambridge Crystallographic Data Centre
#                                CCDC 
#
#######################################################################
#
# If this CIF has been generated from an entry in the Cambridge 
# Structural Database, then it will include bibliographic, chemical, 
# crystal, experimental, refinement or atomic coordinate data resulting 
# from the CCDC's data processing and validation procedures.
#
#######################################################################

data_ROKWIZ
_chemical_formula_moiety         'C21 H12 N2 O9,2(C5 H5 N1)'
_chemical_name_systematic        
"2,2'-(carbonylbis(1,3-dioxo-1,3-dihydro-2H-isoindole-5,2-diyl))diacetic acid pyridine solvate"
_symmetry_cell_setting           triclinic
_symmetry_space_group_name_H-M   'P -1'
_symmetry_Int_Tables_number      2
_space_group_name_Hall           '-P 1'
loop_
_symmetry_equiv_pos_site_id
_symmetry_equiv_pos_as_xyz
1 x,y,z
2 -x,-y,-z
_cell_length_a                   8.2582(17)
_cell_length_b                   10.942(2)
_cell_length_c                   16.622(4)
_cell_angle_alpha                74.057(4)
_cell_angle_beta                 87.270(5)
_cell_angle_gamma                73.689(5)
_cell_volume                     1385.37
_exptl_crystal_colour            yellow
_exptl_crystal_description       block
_cell_formula_units_Z            2
loop_
_atom_site_label
_atom_site_type_symbol
_atom_site_fract_x
_atom_site_fract_y
_atom_site_fract_z
C1 C 0.2830(4) -0.2663(3) 0.60981(19)
C2 C 0.1977(4) -0.3222(3) 0.68828(17)
H1 H 0.0876 -0.3263 0.6733
H2 H 0.2644 -0.4116 0.7152
C3 C 0.2916(4) -0.2682(3) 0.81248(17)
C4 C 0.0595(4) -0.1196(3) 0.73491(19)
C5 C 0.0945(3) -0.0664(2) 0.80280(16)
C6 C 0.0080(4) 0.0481(3) 0.82352(17)
H3 H -0.0885 0.1056 0.7934
C7 C 0.0710(3) 0.0733(3) 0.89112(17)
H4 H 0.0156 0.1496 0.9066
C8 C 0.2154(3) -0.0126(2) 0.93650(16)
C9 C 0.2971(3) -0.1299(2) 0.91602(16)
H5 H 0.3910 -0.1900 0.9470
C10 C 0.2342(3) -0.1538(2) 0.84865(16)
C11 C 0.2823(3) 0.0130(3) 1.01032(17)
C12 C 0.2557(3) 0.1519(2) 1.01535(16)
C13 C 0.2450(3) 0.2568(3) 0.94437(17)
H6 H 0.2496 0.2415 0.8919
C14 C 0.2277(4) 0.3845(3) 0.94996(17)
H7 H 0.2203 0.4547 0.9023
C15 C 0.2221(3) 0.4030(2) 1.02852(16)
C16 C 0.2351(3) 0.2991(2) 1.09943(16)
C17 C 0.2522(3) 0.1728(2) 1.09394(16)
H8 H 0.2612 0.1030 1.1420
C18 C 0.2346(4) 0.3496(3) 1.17310(18)
C19 C 0.2068(4) 0.5248(3) 1.05529(18)
C20 C 0.2311(4) 0.5658(3) 1.19453(18)
H9 H 0.2480 0.6478 1.1593
H10 H 0.3307 0.5206 1.2309
C21 C 0.0804(4) 0.5981(3) 1.24765(17)
N1 N 0.1783(3) -0.2420(2) 0.74621(14)
N2 N 0.2149(3) 0.4841(2) 1.14191(14)
O1 O 0.3002(3) -0.3377(2) 0.55765(14)
H11 H 0.3290 -0.2980 0.5124
O2 O 0.3270(3) -0.1677(2) 0.59856(15)
O3 O 0.4097(3) -0.36626(19) 0.83354(13)
O4 O -0.0474(3) -0.0705(2) 0.67922(14)
O5 O 0.3582(3) -0.07909(19) 1.06716(12)
O6 O 0.2504(3) 0.2903(2) 1.24614(13)
O7 O 0.1884(3) 0.6372(2) 1.01344(13)
O8 O -0.0522(3) 0.5778(2) 1.23804(13)
O9 O 0.1166(3) 0.6506(2) 1.30260(14)
H12 H 0.0378 0.6619 1.3341
C22 C 0.4356(6) -0.2767(5) 0.3530(3)
H13 H 0.4119 -0.3573 0.3608
C23 C 0.4977(6) -0.2249(5) 0.2802(2)
H14 H 0.5149 -0.2685 0.2385
C24 C 0.5351(5) -0.1104(4) 0.2674(2)
H15 H 0.5796 -0.0745 0.2169
C25 C 0.5084(5) -0.0464(4) 0.3279(3)
H16 H 0.5334 0.0337 0.3202
C26 C 0.4411(5) -0.1060(4) 0.4030(2)
H17 H 0.4206 -0.0644 0.4458
N3 N 0.4065(4) -0.2204(3) 0.41369(17)
C27 C -0.0707(4) 0.7976(3) 1.4445(2)
H18 H -0.0091 0.8537 1.4146
C28 C -0.1432(6) 0.8200(6) 1.5150(3)
H19 H -0.1337 0.8908 1.5333
C29 C -0.2309(8) 0.7363(9) 1.5590(3)
H20 H -0.2811 0.7476 1.6087
C30 C -0.2434(7) 0.6371(6) 1.5289(4)
H21 H -0.3039 0.5794 1.5577
C31 C -0.1690(5) 0.6208(4) 1.4575(3)
H22 H -0.1789 0.5518 1.4374
N4 N -0.0830(3) 0.6999(3) 1.41591(16)
loop_
_geom_bond_atom_site_label_1
_geom_bond_atom_site_label_2
_geom_bond_site_symmetry_1
_geom_bond_site_symmetry_2
C1 C2 1_555 1_555
C2 H1 1_555 1_555
H2 C2 1_555 1_555
C3 C10 1_555 1_555
C4 C5 1_555 1_555
C5 C6 1_555 1_555
C6 H3 1_555 1_555
C7 C6 1_555 1_555
H4 C7 1_555 1_555
C8 C7 1_555 1_555
C9 C8 1_555 1_555
H5 C9 1_555 1_555
C10 C5 1_555 1_555
C11 C8 1_555 1_555
C12 C11 1_555 1_555
C13 C12 1_555 1_555
H6 C13 1_555 1_555
C14 C13 1_555 1_555
H7 C14 1_555 1_555
C15 C14 1_555 1_555
C16 C15 1_555 1_555
C17 C12 1_555 1_555
H8 C17 1_555 1_555
C18 C16 1_555 1_555
C19 C15 1_555 1_555
C20 H9 1_555 1_555
H10 C20 1_555 1_555
C21 C20 1_555 1_555
N1 C2 1_555 1_555
N2 C18 1_555 1_555
O1 C1 1_555 1_555
H11 O1 1_555 1_555
O2 C1 1_555 1_555
O3 C3 1_555 1_555
O4 C4 1_555 1_555
O5 C11 1_555 1_555
O6 C18 1_555 1_555
O7 C19 1_555 1_555
O8 C21 1_555 1_555
O9 C21 1_555 1_555
H12 O9 1_555 1_555
C22 H13 1_555 1_555
C23 C22 1_555 1_555
H14 C23 1_555 1_555
C24 C23 1_555 1_555
H15 C24 1_555 1_555
C25 C24 1_555 1_555
H16 C25 1_555 1_555
C26 C25 1_555 1_555
H17 C26 1_555 1_555
N3 C22 1_555 1_555
C27 H18 1_555 1_555
C28 C27 1_555 1_555
H19 C28 1_555 1_555
C29 C28 1_555 1_555
H20 C29 1_555 1_555
C30 C29 1_555 1_555
H21 C30 1_555 1_555
C31 C30 1_555 1_555
H22 C31 1_555 1_555
N4 C27 1_555 1_555
C3 N1 1_555 1_555
C4 N1 1_555 1_555
C9 C10 1_555 1_555
C16 C17 1_555 1_555
C19 N2 1_555 1_555
C20 N2 1_555 1_555
C26 N3 1_555 1_555
C31 N4 1_555 1_555

#END
