
#######################################################################
#
#                 Cambridge Crystallographic Data Centre
#                                CCDC 
#
#######################################################################
#
# If this CIF has been generated from an entry in the Cambridge 
# Structural Database, then it will include bibliographic, chemical, 
# crystal, experimental, refinement or atomic coordinate data resulting 
# from the CCDC's data processing and validation procedures.
#
#######################################################################

data_ROLDEB
_chemical_formula_moiety         'C22 H24 N4 O2,0.5(C1 H2 Cl2)'
_chemical_name_systematic        
'2-(4-(Cyano(N-2,2-diethoxyethyl-1,4,5,6-tetrahydro-3-pyridyl)methanylidene)-2,5-cyclohexadiene-1-ylidene)propanedinitrile dichloromethane solvate'
_symmetry_cell_setting           monoclinic
_symmetry_space_group_name_H-M   'C 2/c'
_symmetry_Int_Tables_number      15
_space_group_name_Hall           '-C 2yn'
loop_
_symmetry_equiv_pos_site_id
_symmetry_equiv_pos_as_xyz
1 x,y,z
2 -x,y,1/2-z
3 1/2+x,1/2+y,z
4 1/2-x,1/2+y,1/2-z
5 -x,-y,-z
6 x,-y,1/2+z
7 1/2-x,1/2-y,-z
8 1/2+x,1/2-y,1/2+z
_cell_length_a                   44.424(1)
_cell_length_b                   7.5523(2)
_cell_length_c                   13.3590(1)
_cell_angle_alpha                90
_cell_angle_beta                 106.386(1)
_cell_angle_gamma                90
_cell_volume                     4299.94
_exptl_crystal_colour            'emerald green'
_cell_formula_units_Z            8
loop_
_atom_site_label
_atom_site_type_symbol
_atom_site_fract_x
_atom_site_fract_y
_atom_site_fract_z
O1 O 0.0571(2) 0.9101(7) 0.4129(5)
O2 O 0.0691(2) 1.1770(7) 0.4955(5)
N1 N 0.3407(2) 1.8088(8) 0.7150(6)
N2 N 0.3783(2) 1.2850(8) 0.8149(5)
N3 N 0.2084(2) 0.8325(7) 0.5651(5)
N4 N 0.1248(2) 1.1975(6) 0.4353(5)
C1 C 0.3360(2) 1.6620(10) 0.7223(6)
C2 C 0.3564(2) 1.3688(10) 0.7771(6)
C3 C 0.3299(2) 1.4743(8) 0.7291(6)
C4 C 0.2998(2) 1.4028(8) 0.6918(5)
C5 C 0.2731(2) 1.5085(8) 0.6478(6)
C6 C 0.2437(2) 1.4411(8) 0.6094(6)
C7 C 0.2383(2) 1.2540(7) 0.6135(5)
C8 C 0.2649(2) 1.1478(8) 0.6557(5)
C9 C 0.2941(2) 1.2160(8) 0.6934(6)
C10 C 0.2082(2) 1.1763(7) 0.5719(5)
C11 C 0.2084(2) 0.9844(8) 0.5694(6)
C12 C 0.1784(2) 1.2514(7) 0.5320(6)
C13 C 0.1721(2) 1.4493(8) 0.5323(6)
C14 C 0.1376(2) 1.4866(8) 0.5138(6)
C15 C 0.1177(1) 1.3896(6) 0.4182(4)
C16 C 0.1525(1) 1.1410(6) 0.4857(4)
C17 C 0.0991(2) 1.0719(8) 0.3885(6)
C18 C 0.0817(2) 1.0232(9) 0.4650(6)
C19 C 0.0597(5) 0.7435(26) 0.4485(17)
C21 C 0.0283(3) 0.6442(13) 0.4036(8)
C22 C 0.0685(5) 1.1659(29) 0.6063(17)
C24 C 0.0675(3) 1.3266(15) 0.6503(9)
H1 H 0.2758(2) 1.6329(8) 0.6448(6)
H2 H 0.2266(2) 1.5182(8) 0.5797(6)
H3 H 0.2622(2) 1.0232(8) 0.6579(5)
H4 H 0.3112(2) 1.1384(8) 0.7215(6)
H5 H 0.1840(2) 1.5000(8) 0.6003(6)
H6 H 0.1796(2) 1.5072(8) 0.4771(6)
H7 H 0.1339(2) 1.6155(8) 0.5043(6)
H8 H 0.1312(2) 1.4496(8) 0.5759(6)
H9 H 0.0951(1) 1.4117(6) 0.4097(4)
H10 H 0.1228(1) 1.4309(6) 0.3546(4)
H11 H 0.1556(1) 1.0166(6) 0.4920(4)
H12 H 0.1080(2) 0.9638(8) 0.3658(6)
H13 H 0.0845(2) 1.1266(8) 0.3262(6)
H14 H 0.0959(2) 0.9624(9) 0.5269(6)
H15 H 0.0653(5) 0.7439(26) 0.5257(17)
H16 H 0.0766(5) 0.6819(26) 0.4273(17)
H19 H 0.0100 0.6625 0.4320
H20 H 0.0331 0.5214 0.4089
H21 H 0.0210 0.6777 0.3306
H25 H 0.0498(5) 1.0967(29) 0.6096(17)
H26 H 0.0874(5) 1.1016(29) 0.6472(17)
H29 H 0.0884 1.3652 0.6631
H30 H 0.0615 1.3171 0.7132
H31 H 0.0535 1.4153 0.6055
Cl1 Cl -0.0240(1) 0.2618(4) 0.3052(2)
C25 C 0.0000 0.1337(15) 0.2500
H35 H 0.0134 0.0565(15) 0.3046
H36 H -0.0134 0.0565(15) 0.1955
Cl1A Cl 0.0240(1) 0.2618(4) 0.1948(2)
C20? C 0.0458(7) 0.7861(31) 0.4697(19)
C23? C 0.0555(7) 1.1740(36) 0.5772(20)
H17? H 0.0319(7) 0.8460(31) 0.5056(19)
H18? H 0.0636(7) 0.7340(31) 0.5237(19)
H22? H 0.0081 0.7050 0.4001
H23? H 0.0278 0.5334 0.4389
H24? H 0.0286 0.6224 0.3337
H27? H 0.0606(7) 1.0608(36) 0.6157(20)
H28? H 0.0324(7) 1.1821(36) 0.5492(20)
H32? H 0.0616 1.3168 0.7136
H33? H 0.0533 1.4149 0.6058
H34? H 0.0883 1.3660 0.6626
loop_
_geom_bond_atom_site_label_1
_geom_bond_atom_site_label_2
_geom_bond_site_symmetry_1
_geom_bond_site_symmetry_2
O1 C18 1_555 1_555
O2 C18 1_555 1_555
N1 C1 1_555 1_555
N2 C2 1_555 1_555
N3 C11 1_555 1_555
N4 C15 1_555 1_555
C1 C3 1_555 1_555
C2 C3 1_555 1_555
C3 C4 1_555 1_555
C4 C5 1_555 1_555
C5 C6 1_555 1_555
C6 C7 1_555 1_555
C7 C8 1_555 1_555
C8 C9 1_555 1_555
C9 C4 1_555 1_555
C10 C7 1_555 1_555
C11 C10 1_555 1_555
C12 C10 1_555 1_555
C13 C12 1_555 1_555
C14 C13 1_555 1_555
C15 C14 1_555 1_555
C16 N4 1_555 1_555
C17 N4 1_555 1_555
C18 C17 1_555 1_555
C19 O1 1_555 1_555
C21 C19 1_555 1_555
C22 O2 1_555 1_555
C24 C22 1_555 1_555
Cl1 C25 1_555 1_555
C25 H35 1_555 1_555
H1 C5 1_555 1_555
H2 C6 1_555 1_555
H3 C8 1_555 1_555
H4 C9 1_555 1_555
H5 C13 1_555 1_555
H6 C13 1_555 1_555
H7 C14 1_555 1_555
H8 C14 1_555 1_555
H9 C15 1_555 1_555
H10 C15 1_555 1_555
H11 C16 1_555 1_555
H12 C17 1_555 1_555
H13 C17 1_555 1_555
H14 C18 1_555 1_555
H15 C19 1_555 1_555
H16 C19 1_555 1_555
H19 C21 1_555 1_555
H20 C21 1_555 1_555
H21 C21 1_555 1_555
H25 C22 1_555 1_555
H26 C22 1_555 1_555
H29 C24 1_555 1_555
H30 C24 1_555 1_555
H31 C24 1_555 1_555
H36 C25 1_555 1_555
Cl1A C25 1_555 1_555
C12 C16 1_555 1_555

#END
