
#######################################################################
#
#                 Cambridge Crystallographic Data Centre
#                                CCDC 
#
#######################################################################
#
# If this CIF has been generated from an entry in the Cambridge 
# Structural Database, then it will include bibliographic, chemical, 
# crystal, experimental, refinement or atomic coordinate data resulting 
# from the CCDC's data processing and validation procedures.
#
#######################################################################

data_ROLDAX
_chemical_formula_moiety         'C25 H28 N4'
_chemical_name_systematic        
4-(1-Cyano-3-(dicyclohexylamino)-2-propenylidene)-2,5-cyclohexadiene-1-ylidenepropanedinitrile
_symmetry_cell_setting           monoclinic
_symmetry_space_group_name_H-M   'P 21/n'
_symmetry_Int_Tables_number      14
_space_group_name_Hall           '-P 2yn'
loop_
_symmetry_equiv_pos_site_id
_symmetry_equiv_pos_as_xyz
1 x,y,z
2 1/2-x,1/2+y,1/2-z
3 -x,-y,-z
4 1/2+x,1/2-y,1/2+z
_cell_length_a                   6.620(1)
_cell_length_b                   22.050(4)
_cell_length_c                   14.845(3)
_cell_angle_alpha                90
_cell_angle_beta                 99.36(3)
_cell_angle_gamma                90
_cell_volume                     2138.09
_exptl_crystal_colour            turquoise
_cell_formula_units_Z            4
loop_
_atom_site_label
_atom_site_type_symbol
_atom_site_fract_x
_atom_site_fract_y
_atom_site_fract_z
N1 N 1.4463(4) 0.5818(1) 0.4903(2)
N2 N 1.4946(5) 0.7227(1) 0.7035(2)
N3 N 0.4723(4) 0.5825(1) 0.8835(2)
N4 N 0.2508(4) 0.4008(1) 0.7480(2)
C1 C 1.3865(5) 0.6032(1) 0.5526(2)
C2 C 1.4121(5) 0.6806(1) 0.6689(2)
C3 C 1.3098(5) 0.6287(1) 0.6273(2)
C4 C 1.1304(5) 0.6050(1) 0.6558(2)
C5 C 1.0282(4) 0.5530(1) 0.6130(2)
C6 C 0.8546(5) 0.5301(1) 0.6394(2)
C7 C 0.7706(4) 0.5568(1) 0.7119(2)
C8 C 0.8705(5) 0.6089(1) 0.7537(2)
C9 C 1.0441(5) 0.6318(1) 0.7270(2)
C10 C 0.5968(4) 0.5311(1) 0.7445(2)
C11 C 0.5317(5) 0.5608(1) 0.8224(2)
C12 C 0.4913(4) 0.4787(1) 0.7126(2)
C13 C 0.3504(4) 0.4523(1) 0.7629(2)
C14 C 0.2658(5) 0.3621(1) 0.6669(2)
C15 C 0.0559(5) 0.3412(1) 0.6186(2)
C16 C 0.0817(5) 0.3033(2) 0.5349(2)
C17 C 0.2234(5) 0.2490(2) 0.5616(2)
C18 C 0.4320(5) 0.2697(1) 0.6115(2)
C19 C 0.4090(5) 0.3082(1) 0.6950(2)
C20 C 0.1346(5) 0.3778(1) 0.8196(2)
C21 C 0.2773(5) 0.3657(2) 0.9093(2)
C22 C 0.1544(5) 0.3423(1) 0.9811(2)
C23 C -0.0122(5) 0.3877(2) 0.9951(2)
C24 C -0.1563(5) 0.3987(2) 0.9057(2)
C25 C -0.0386(5) 0.4213(2) 0.8313(2)
H1 H 1.0731(4) 0.5355(1) 0.5604(2)
H2 H 0.7959(5) 0.4931(1) 0.6129(2)
H3 H 0.8158(5) 0.6290(1) 0.8018(2)
H4 H 1.1081(5) 0.6670(1) 0.7572(2)
H5 H 0.5135(4) 0.4603(1) 0.6565(2)
H6 H 0.3236(4) 0.4760(1) 0.8139(2)
H7 H 0.3224(5) 0.3868(1) 0.6239(2)
H8 H -0.0293(5) 0.3758(1) 0.6008(2)
H9 H -0.0073(5) 0.3171(1) 0.6602(2)
H10 H 0.1385(5) 0.3286(2) 0.4926(2)
H11 H -0.0491(5) 0.2890(2) 0.5051(2)
H12 H 0.2389(5) 0.2264(2) 0.5078(2)
H13 H 0.1631(5) 0.2226(2) 0.6014(2)
H14 H 0.4988(5) 0.2926(1) 0.5698(2)
H15 H 0.5153(5) 0.2350(1) 0.6311(2)
H16 H 0.3573(5) 0.2837(1) 0.7396(2)
H17 H 0.5411(5) 0.3231(1) 0.7222(2)
H18 H 0.0745(5) 0.3397(1) 0.7984(2)
H19 H 0.3499(5) 0.4020(2) 0.9302(2)
H20 H 0.3760(5) 0.3355(2) 0.8994(2)
H21 H 0.2444(5) 0.3385(1) 1.0384(2)
H22 H 0.0979(5) 0.3031(1) 0.9643(2)
H23 H 0.0465(5) 0.4255(2) 1.0188(2)
H24 H -0.0901(5) 0.3716(2) 1.0387(2)
H25 H -0.2541(5) 0.4291(2) 0.9156(2)
H26 H -0.2300(5) 0.3623(2) 0.8860(2)
H27 H -0.1302(5) 0.4235(2) 0.7742(2)
H28 H 0.0145(5) 0.4612(2) 0.8459(2)
loop_
_geom_bond_atom_site_label_1
_geom_bond_atom_site_label_2
_geom_bond_site_symmetry_1
_geom_bond_site_symmetry_2
N1 C1 1_555 1_555
N2 C2 1_555 1_555
N3 C11 1_555 1_555
N4 C13 1_555 1_555
C1 C3 1_555 1_555
C2 C3 1_555 1_555
C3 C4 1_555 1_555
C4 C5 1_555 1_555
C5 C6 1_555 1_555
C6 C7 1_555 1_555
C7 C8 1_555 1_555
C8 C9 1_555 1_555
C9 C4 1_555 1_555
C10 C7 1_555 1_555
C11 C10 1_555 1_555
C12 C10 1_555 1_555
C13 C12 1_555 1_555
C14 N4 1_555 1_555
C15 C14 1_555 1_555
C16 C15 1_555 1_555
C17 C16 1_555 1_555
C18 C17 1_555 1_555
C19 C14 1_555 1_555
C20 N4 1_555 1_555
C21 C20 1_555 1_555
C22 C21 1_555 1_555
C23 C22 1_555 1_555
C24 C23 1_555 1_555
C25 C20 1_555 1_555
H1 C5 1_555 1_555
H2 C6 1_555 1_555
H3 C8 1_555 1_555
H4 C9 1_555 1_555
H5 C12 1_555 1_555
H6 C13 1_555 1_555
H7 C14 1_555 1_555
H8 C15 1_555 1_555
H9 C15 1_555 1_555
H10 C16 1_555 1_555
H11 C16 1_555 1_555
H12 C17 1_555 1_555
H13 C17 1_555 1_555
H14 C18 1_555 1_555
H15 C18 1_555 1_555
H16 C19 1_555 1_555
H17 C19 1_555 1_555
H18 C20 1_555 1_555
H19 C21 1_555 1_555
H20 C21 1_555 1_555
H21 C22 1_555 1_555
H22 C22 1_555 1_555
H23 C23 1_555 1_555
H24 C23 1_555 1_555
H25 C24 1_555 1_555
H26 C24 1_555 1_555
H27 C25 1_555 1_555
H28 C25 1_555 1_555
C18 C19 1_555 1_555
C24 C25 1_555 1_555

#END
