
#######################################################################
#
#                 Cambridge Crystallographic Data Centre
#                                CCDC 
#
#######################################################################
#
# If this CIF has been generated from an entry in the Cambridge 
# Structural Database, then it will include bibliographic, chemical, 
# crystal, experimental, refinement or atomic coordinate data resulting 
# from the CCDC's data processing and validation procedures.
#
#######################################################################

data_ROLQAM
_chemical_formula_moiety         'C9 H14 B1 N3'
_chemical_name_systematic        
1-(1H-[1,3,2]Diazaborolo[1,2-a][1,2]azaborinin-3-yl)-N,N-dimethylmethanamine
_symmetry_cell_setting           monoclinic
_symmetry_space_group_name_H-M   'P 21/c'
_symmetry_Int_Tables_number      14
_space_group_name_Hall           '-P 2ybc'
loop_
_symmetry_equiv_pos_site_id
_symmetry_equiv_pos_as_xyz
1 x,y,z
2 -x,1/2+y,1/2-z
3 -x,-y,-z
4 x,1/2-y,1/2+z
_cell_length_a                   10.0589(17)
_cell_length_b                   8.5755(14)
_cell_length_c                   11.8802(18)
_cell_angle_alpha                90
_cell_angle_beta                 102.345(4)
_cell_angle_gamma                90
_cell_volume                     1001.09
_exptl_crystal_colour            colorless
_exptl_crystal_description       plate
_cell_formula_units_Z            4
loop_
_atom_site_label
_atom_site_type_symbol
_atom_site_fract_x
_atom_site_fract_y
_atom_site_fract_z
N1 N 0.43999(9) -0.33399(11) 0.38072(7)
N2 N 0.38940(10) -0.52253(12) 0.24197(8)
H1 H 0.3497(13) -0.5829(16) 0.1845(11)
N3 N 0.76862(10) -0.27071(11) 0.42543(7)
C1 C 0.42369(12) -0.21084(13) 0.45051(9)
H2 H 0.4971 -0.1766 0.5095
C2 C 0.29973(13) -0.13834(15) 0.43351(10)
H3 H 0.2881 -0.0536 0.4820
C3 C 0.18737(13) -0.18615(15) 0.34522(10)
H4 H 0.1041 -0.1305 0.3363
C4 C 0.19452(12) -0.30938(14) 0.27247(10)
H5 H 0.1185 -0.3403 0.2146
C5 C 0.52338(12) -0.53808(13) 0.30195(9)
H6 H 0.5840 -0.6164 0.2867
C6 C 0.55698(11) -0.42729(13) 0.38518(9)
C7 C 0.69018(11) -0.39830(13) 0.46557(9)
H7 H 0.6739 -0.3711 0.5425
H8 H 0.7449 -0.4952 0.4737
C8 C 0.88457(13) -0.22767(15) 0.51762(10)
H9 H 0.9448 -0.3179 0.5375
H10 H 0.8515 -0.1943 0.5856
H11 H 0.9349 -0.1420 0.4914
C9 C 0.81894(13) -0.32179(16) 0.32366(10)
H12 H 0.8668 -0.2353 0.2956
H13 H 0.7419 -0.3543 0.2629
H14 H 0.8816 -0.4097 0.3448
B1 B 0.32952(13) -0.39268(15) 0.28951(10)
loop_
_geom_bond_atom_site_label_1
_geom_bond_atom_site_label_2
_geom_bond_site_symmetry_1
_geom_bond_site_symmetry_2
N1 C1 1_555 1_555
N2 H1 1_555 1_555
N3 C7 1_555 1_555
C1 H2 1_555 1_555
C2 C1 1_555 1_555
H3 C2 1_555 1_555
C3 C2 1_555 1_555
H4 C3 1_555 1_555
C4 C3 1_555 1_555
H5 C4 1_555 1_555
C5 N2 1_555 1_555
H6 C5 1_555 1_555
C6 N1 1_555 1_555
C7 C6 1_555 1_555
H7 C7 1_555 1_555
H8 C7 1_555 1_555
C8 N3 1_555 1_555
H9 C8 1_555 1_555
H10 C8 1_555 1_555
H11 C8 1_555 1_555
C9 N3 1_555 1_555
H12 C9 1_555 1_555
H13 C9 1_555 1_555
H14 C9 1_555 1_555
B1 N1 1_555 1_555
N2 B1 1_555 1_555
C4 B1 1_555 1_555
C5 C6 1_555 1_555

#END
