
#######################################################################
#
#                 Cambridge Crystallographic Data Centre
#                                CCDC 
#
#######################################################################
#
# If this CIF has been generated from an entry in the Cambridge 
# Structural Database, then it will include bibliographic, chemical, 
# crystal, experimental, refinement or atomic coordinate data resulting 
# from the CCDC's data processing and validation procedures.
#
#######################################################################

data_ROLRER
_chemical_formula_moiety         'C6 H6 N4 S1'
_chemical_name_systematic        2-Hydrazino[1,3]thiazolo[4,5-c]pyridine
_symmetry_cell_setting           monoclinic
_symmetry_space_group_name_H-M   'P 21/c'
_symmetry_Int_Tables_number      14
_space_group_name_Hall           '-P 2ybc'
loop_
_symmetry_equiv_pos_site_id
_symmetry_equiv_pos_as_xyz
1 x,y,z
2 -x,1/2+y,1/2-z
3 -x,-y,-z
4 x,1/2-y,1/2+z
_cell_length_a                   10.458(9)
_cell_length_b                   3.805(3)
_cell_length_c                   18.032(15)
_cell_angle_alpha                90
_cell_angle_beta                 99.273(9)
_cell_angle_gamma                90
_cell_volume                     708.165
_exptl_crystal_colour            colorless
_exptl_crystal_description       block
_cell_formula_units_Z            4
_exptl_crystal_recrystallization_method methanol
loop_
_atom_site_label
_atom_site_type_symbol
_atom_site_fract_x
_atom_site_fract_y
_atom_site_fract_z
C1 C 0.1914(3) -0.1467(9) 0.63473(17)
C2 C 0.3224(3) -0.0611(9) 0.65375(17)
C3 C 0.4054(3) -0.1107(10) 0.60186(19)
H1 H 0.4932 -0.0577 0.6132
C4 C 0.3510(4) -0.2428(10) 0.53256(19)
H2 H 0.4052 -0.2739 0.4970
C5 C 0.1477(4) -0.2800(11) 0.56363(19)
H3 H 0.0605 -0.3371 0.5508
C6 C 0.1879(3) 0.0382(9) 0.75005(17)
N1 N 0.2257(3) -0.3297(8) 0.51267(16)
N2 N 0.1156(3) -0.0912(8) 0.69046(15)
N3 N 0.1431(3) 0.1177(8) 0.81439(15)
H4 H 0.0658 0.0630 0.8206
N4 N 0.2280(3) 0.2926(8) 0.87036(15)
H5 H 0.3050 0.3449 0.8631
H6 H 0.2031 0.3476 0.9120
S1 S 0.35295(7) 0.1003(2) 0.74547(4)
loop_
_geom_bond_atom_site_label_1
_geom_bond_atom_site_label_2
_geom_bond_site_symmetry_1
_geom_bond_site_symmetry_2
C1 C2 1_555 1_555
C2 C3 1_555 1_555
C3 H1 1_555 1_555
C4 C3 1_555 1_555
H2 C4 1_555 1_555
C5 C1 1_555 1_555
H3 C5 1_555 1_555
C6 N2 1_555 1_555
N1 C4 1_555 1_555
N2 C1 1_555 1_555
N3 C6 1_555 1_555
H4 N3 1_555 1_555
N4 N3 1_555 1_555
H5 N4 1_555 1_555
H6 N4 1_555 1_555
S1 C2 1_555 1_555
C5 N1 1_555 1_555
C6 S1 1_555 1_555

#END
