
#######################################################################
#
#                 Cambridge Crystallographic Data Centre
#                                CCDC 
#
#######################################################################
#
# If this CIF has been generated from an entry in the Cambridge 
# Structural Database, then it will include bibliographic, chemical, 
# crystal, experimental, refinement or atomic coordinate data resulting 
# from the CCDC's data processing and validation procedures.
#
#######################################################################

data_ROLSUG
_chemical_formula_moiety         'C11 H24 N1 1+,As1 F4 1-'
_chemical_name_systematic        
'1,1,3,3,5,5-Hexamethylpiperidinium tetrafluoroarsenate'
_symmetry_cell_setting           monoclinic
_symmetry_space_group_name_H-M   'P 21/c'
_symmetry_Int_Tables_number      14
_space_group_name_Hall           '-P 2ybc'
loop_
_symmetry_equiv_pos_site_id
_symmetry_equiv_pos_as_xyz
1 x,y,z
2 -x,1/2+y,1/2-z
3 -x,-y,-z
4 x,1/2-y,1/2+z
_cell_length_a                   8.368(2)
_cell_length_b                   10.110(2)
_cell_length_c                   16.966(3)
_cell_angle_alpha                90
_cell_angle_beta                 92.8980(10)
_cell_angle_gamma                90
_cell_volume                     1433.5
_exptl_crystal_colour            colorless
_cell_formula_units_Z            4
loop_
_atom_site_label
_atom_site_type_symbol
_atom_site_fract_x
_atom_site_fract_y
_atom_site_fract_z
As1 As 0.2143(1) 0.2309(1) 0.3584(1)
F1 F 0.2247(3) 0.3291(2) 0.4525(2)
F2 F 0.1589(4) 0.1155(3) 0.2760(2)
F3 F 0.1788(3) 0.0986(2) 0.4192(2)
F4 F 0.0198(3) 0.2878(3) 0.3478(2)
N1 N 0.9419(3) 0.2545(3) 0.6025(2)
C1 C 0.8771(4) 0.2029(4) 0.5240(2)
C2 C 0.7007(4) 0.2306(4) 0.5009(2)
C3 C 0.8325(5) 0.2195(4) 0.6677(2)
C4 C 0.6543(4) 0.2516(4) 0.6525(2)
C5 C 0.5982(5) 0.1995(4) 0.5712(2)
C6 C 0.6719(5) 0.3691(4) 0.4663(3)
C7 C 0.6582(6) 0.1318(4) 0.4348(3)
C8 C 0.9795(5) 0.4000(4) 0.6000(3)
C9 C 1.1002(5) 0.1858(5) 0.6205(3)
C10 C 0.5700(6) 0.1725(5) 0.7152(3)
C11 C 0.6139(6) 0.3976(4) 0.6651(3)
loop_
_geom_bond_atom_site_label_1
_geom_bond_atom_site_label_2
_geom_bond_site_symmetry_1
_geom_bond_site_symmetry_2
As1 F1 1_555 1_555
F2 As1 1_555 1_555
F3 As1 1_555 1_555
F4 As1 1_555 1_555
N1 C1 1_555 1_555
C1 C2 1_555 1_555
C2 C5 1_555 1_555
C3 N1 1_555 1_555
C4 C3 1_555 1_555
C5 C4 1_555 1_555
C6 C2 1_555 1_555
C7 C2 1_555 1_555
C8 N1 1_555 1_555
C9 N1 1_555 1_555
C10 C4 1_555 1_555
C11 C4 1_555 1_555

#END
