
#######################################################################
#
#                 Cambridge Crystallographic Data Centre
#                                CCDC 
#
#######################################################################
#
# If this CIF has been generated from an entry in the Cambridge 
# Structural Database, then it will include bibliographic, chemical, 
# crystal, experimental, refinement or atomic coordinate data resulting 
# from the CCDC's data processing and validation procedures.
#
#######################################################################

data_ROLSAM
_chemical_formula_moiety         'C11 H24 N1 1+,F2 I1 1-'
_chemical_name_systematic        
'1,1,3,3,5,5-Hexamethylpiperidinium difluoroiodate'
_symmetry_cell_setting           monoclinic
_symmetry_space_group_name_H-M   'P 21/c'
_symmetry_Int_Tables_number      14
_space_group_name_Hall           '-P 2ybc'
loop_
_symmetry_equiv_pos_site_id
_symmetry_equiv_pos_as_xyz
1 x,y,z
2 -x,1/2+y,1/2-z
3 -x,-y,-z
4 x,1/2-y,1/2+z
_cell_length_a                   8.2777(10)
_cell_length_b                   9.928(2)
_cell_length_c                   17.206(4)
_cell_angle_alpha                90
_cell_angle_beta                 94.419(10)
_cell_angle_gamma                90
_cell_volume                     1409.8
_exptl_crystal_colour            colorless
_chemical_melting_point          'about 0deg.C'
_cell_formula_units_Z            4
_chemical_properties_physical    Hygroscopic
loop_
_atom_site_label
_atom_site_type_symbol
_atom_site_fract_x
_atom_site_fract_y
_atom_site_fract_z
I1 I 0.1796(1) 0.1947(1) 0.3751(1)
F1 F 0.2335(3) 0.3205(3) 0.4699(2)
F2 F 0.1205(4) 0.0640(3) 0.2826(2)
N1 N 0.9512(4) 0.2268(3) 0.1178(2)
C1 C 0.8389(4) 0.2463(4) 0.1823(2)
C2 C 0.6579(4) 0.2217(4) 0.1614(2)
C3 C 0.6047(4) 0.2961(4) 0.0854(2)
C4 C 0.7110(4) 0.2788(4) 0.0165(2)
C5 C 0.8880(4) 0.3005(4) 0.0451(2)
C6 C 0.9846(5) 0.0800(4) 0.1020(3)
C7 C 1.1121(5) 0.2888(5) 0.1444(3)
C8 C 0.5742(5) 0.2895(6) 0.2277(3)
C9 C 0.6102(5) 0.0727(5) 0.1600(3)
C10 C 0.6726(5) 0.3943(5) -0.0421(3)
C11 C 0.6785(5) 0.1480(5) -0.0294(3)
H1 H 0.8726(58) 0.1873(46) 0.2237(29)
H2 H 0.8476(57) 0.3356(49) 0.1956(28)
H3 H 0.5997(53) 0.3941(50) 0.0985(26)
H4 H 0.4969(59) 0.2721(48) 0.0704(28)
H5 H 0.8977(54) 0.3931(52) 0.0595(26)
H6 H 0.9634(57) 0.2880(45) 0.0045(28)
H7 H 0.8829(55) 0.0339(47) 0.0845(26)
H8 H 1.0254(55) 0.0466(48) 0.1455(28)
H9 H 1.0634(53) 0.0748(48) 0.0604(26)
H10 H 1.0942(54) 0.3855(49) 0.1557(26)
H11 H 1.1815(57) 0.2744(47) 0.1045(29)
H12 H 1.1552(57) 0.2406(50) 0.1885(29)
H13 H 0.4557(59) 0.2814(46) 0.2154(27)
H14 H 0.6033(54) 0.3852(50) 0.2298(26)
H15 H 0.5936(59) 0.2562(53) 0.2687(30)
H16 H 0.6564(55) 0.0175(47) 0.1238(27)
H17 H 0.4955(56) 0.0594(48) 0.1591(26)
H18 H 0.6388(55) 0.0364(47) 0.2080(29)
H19 H 0.5637(57) 0.3823(47) -0.0638(26)
H20 H 0.7445(53) 0.3905(46) -0.0883(27)
H21 H 0.6871(54) 0.4734(52) -0.0183(27)
H22 H 0.6926(54) 0.0781(53) -0.0014(28)
H23 H 0.7548(55) 0.1462(47) -0.0756(27)
H24 H 0.5725(60) 0.1463(49) -0.0502(26)
loop_
_geom_bond_atom_site_label_1
_geom_bond_atom_site_label_2
_geom_bond_site_symmetry_1
_geom_bond_site_symmetry_2
I1 F1 1_555 1_555
F2 I1 1_555 1_555
N1 C1 1_555 1_555
C1 C2 1_555 1_555
C2 C3 1_555 1_555
C3 C4 1_555 1_555
C4 C5 1_555 1_555
C5 N1 1_555 1_555
C6 N1 1_555 1_555
C7 N1 1_555 1_555
C8 C2 1_555 1_555
C9 C2 1_555 1_555
C10 C4 1_555 1_555
C11 C4 1_555 1_555
H1 C1 1_555 1_555
H2 C1 1_555 1_555
H3 C3 1_555 1_555
H4 C3 1_555 1_555
H5 C5 1_555 1_555
H6 C5 1_555 1_555
H7 C6 1_555 1_555
H8 C6 1_555 1_555
H9 C6 1_555 1_555
H10 C7 1_555 1_555
H11 C7 1_555 1_555
H12 C7 1_555 1_555
H13 C8 1_555 1_555
H14 C8 1_555 1_555
H15 C8 1_555 1_555
H16 C9 1_555 1_555
H17 C9 1_555 1_555
H18 C9 1_555 1_555
H19 C10 1_555 1_555
H20 C10 1_555 1_555
H21 C10 1_555 1_555
H22 C11 1_555 1_555
H23 C11 1_555 1_555
H24 C11 1_555 1_555

#END
