
#######################################################################
#
#                 Cambridge Crystallographic Data Centre
#                                CCDC 
#
#######################################################################
#
# If this CIF has been generated from an entry in the Cambridge 
# Structural Database, then it will include bibliographic, chemical, 
# crystal, experimental, refinement or atomic coordinate data resulting 
# from the CCDC's data processing and validation procedures.
#
#######################################################################

data_ROLXIB
_chemical_formula_moiety         'C36 H18 B1 F18 N1'
_chemical_name_systematic        
4-(bis(2,4,6-tris(trifluoromethyl)phenyl)boryl)-N,N-diphenylaniline
_symmetry_cell_setting           tetragonal
_symmetry_space_group_name_H-M   'I 41'
_symmetry_Int_Tables_number      80
_space_group_name_Hall           'I 4bw'
loop_
_symmetry_equiv_pos_site_id
_symmetry_equiv_pos_as_xyz
1 x,y,z
2 1/2-y,x,3/4+z
3 1/2+y,-x,3/4+z
4 -x,-y,z
5 1/2+x,1/2+y,1/2+z
6 -y,1/2+x,1/4+z
7 y,1/2-x,1/4+z
8 1/2-x,1/2-y,1/2+z
_cell_length_a                   23.5023(11)
_cell_length_b                   23.5023(11)
_cell_length_c                   25.1820(12)
_cell_angle_alpha                90
_cell_angle_beta                 90
_cell_angle_gamma                90
_cell_volume                     13909.5
_exptl_crystal_colour            orange
_exptl_crystal_description       prism
_cell_formula_units_Z            16
_exptl_crystal_preparation       'cut and soaked in perfluoro polyether oil'
loop_
_atom_site_label
_atom_site_type_symbol
_atom_site_fract_x
_atom_site_fract_y
_atom_site_fract_z
F1 F 0.14587(11) 0.28705(11) 0.59418(10)
F2 F 0.11178(13) 0.24171(12) 0.68589(12)
F3 F 0.17149(14) 0.32481(11) 0.52037(12)
F4 F 0.04924(13) 0.17689(15) 0.70126(14)
F5 F 0.07681(11) 0.19250(12) 0.62165(12)
F6 F 0.10519(13) 0.22493(14) 0.35127(11)
F7 F 0.08423(14) 0.13585(13) 0.35567(12)
C1 C 0.08145(19) 0.1853(2) 0.3817(2)
N1 N 0.38279(17) 0.34115(17) 0.59298(16)
F8 F 0.08313(13) 0.31087(13) 0.53747(14)
F9 F 0.12964(17) 0.06607(12) 0.58015(13)
C2 C 0.1827(2) 0.0770(2) 0.7372(2)
C3 C 0.41107(18) 0.35604(19) 0.64156(18)
F10 F 0.1656(4) 0.0698(2) 0.82808(19)
C4 C 0.4666(2) 0.3860(2) 0.7349(2)
H1 H 0.4854(2) 0.3964(2) 0.7669(2)
F11 F 0.02648(12) 0.19936(18) 0.38512(13)
C5 C 0.15700(17) 0.17950(18) 0.53927(18)
C6 C 0.31689(17) 0.28056(19) 0.54416(18)
H2 H 0.33383(17) 0.29143(19) 0.51144(18)
F12 F 0.30551(16) 0.04475(15) 0.62992(15)
C7 C 0.26899(18) 0.2455(2) 0.63929(18)
H3 H 0.25387(18) 0.2328(2) 0.67221(18)
C8 C 0.18845(18) 0.14349(19) 0.64392(18)
C9 C 0.43760(19) 0.3143(2) 0.6720(2)
H4 H 0.43730(19) 0.2757(2) 0.6608(2)
C10 C 0.12226(18) 0.13064(19) 0.45856(19)
H5 H 0.11657(18) 0.09636(19) 0.43929(19)
C11 C 0.33792(17) 0.30234(19) 0.59226(17)
C12 C 0.27124(19) 0.2431(2) 0.54466(18)
H6 H 0.25693(19) 0.2295(2) 0.51173(18)
C13 C 0.11321(18) 0.23184(19) 0.46511(19)
H7 H 0.10048(18) 0.26686(19) 0.45048(19)
C14 C 0.2320(2) 0.1058(2) 0.65821(19)
C15 C 0.31268(18) 0.2834(2) 0.63983(18)
H8 H 0.32645(18) 0.2973(2) 0.67284(18)
F13 F 0.1475(3) -0.0006(2) 0.7833(2)
C16 C 0.2288(2) 0.0720(2) 0.7043(2)
H9 H 0.2583(2) 0.0459(2) 0.7125(2)
C17 C 0.1541(2) 0.0703(2) 0.5327(2)
B1 B 0.1955(2) 0.1816(2) 0.5914(2)
C18 C 0.4761(3) 0.4032(3) 0.4898(2)
H10 H 0.5155(3) 0.4046(3) 0.4815(2)
C19 C 0.13716(17) 0.23063(18) 0.51525(18)
C20 C 0.46469(19) 0.3298(2) 0.7193(2)
H11 H 0.48188(19) 0.3015(2) 0.7409(2)
C21 C 0.24521(18) 0.22429(19) 0.59196(19)
C22 C 0.4409(2) 0.4276(2) 0.7035(2)
H12 H 0.4428(2) 0.4665(2) 0.7137(2)
F14 F 0.28619(14) 0.11408(15) 0.57759(12)
C23 C 0.13538(19) 0.28756(19) 0.54246(18)
F15 F 0.2279(2) 0.0197(4) 0.8009(3)
C24 C 0.14254(19) 0.14616(19) 0.67985(19)
C25 C 0.14542(18) 0.12871(19) 0.50977(19)
C26 C 0.1400(2) 0.1141(2) 0.7258(2)
H13 H 0.1086(2) 0.1180(2) 0.7493(2)
C27 C 0.2872(2) 0.0981(3) 0.6284(2)
F16 F 0.13155(16) 0.03064(12) 0.50341(13)
C28 C 0.4577(2) 0.3721(2) 0.5337(2)
H14 H 0.4844(2) 0.3518(2) 0.5547(2)
F17 F 0.20803(15) 0.05795(15) 0.54161(17)
C29 C 0.4004(2) 0.37077(18) 0.54644(18)
C30 C 0.41255(19) 0.4124(2) 0.6575(2)
H15 H 0.39403(19) 0.4407(2) 0.6369(2)
C31 C 0.10775(18) 0.1818(2) 0.43609(18)
F18 F 0.32869(13) 0.13054(17) 0.65102(15)
C32 C 0.1803(3) 0.0424(2) 0.7867(3)
C33 C 0.4380(3) 0.4315(2) 0.4585(2)
H16 H 0.4509(3) 0.4527(2) 0.4286(2)
C34 C 0.3616(2) 0.4004(2) 0.5155(2)
H17 H 0.3224(2) 0.4010(2) 0.5247(2)
C35 C 0.0950(2) 0.1891(2) 0.6716(2)
C36 C 0.3808(3) 0.4293(2) 0.4706(2)
H18 H 0.3542(3) 0.4477(2) 0.4480(2)
F19 F 0.34964(11) 0.71752(10) 0.46011(10)
F20 F 0.42392(11) 0.80664(13) 0.43233(12)
F21 F 0.32208(13) 0.68012(11) 0.53359(12)
F22 F 0.38672(13) 0.75893(12) 0.36773(12)
C37 C 0.16327(17) 0.70895(17) 0.46435(19)
F23 F 0.41595(13) 0.85451(12) 0.70501(11)
C38 C 0.39299(17) 0.81440(18) 0.62227(18)
F24 F 0.39109(13) 0.76704(14) 0.70448(12)
F25 F 0.47215(11) 0.79149(14) 0.67388(12)
C39 C 0.3614(2) 0.88489(19) 0.3268(2)
H19 H 0.3912(2) 0.87836(19) 0.3021(2)
C40 C 0.36006(18) 0.85488(18) 0.37489(18)
C41 C 0.10555(19) 0.63674(17) 0.51098(19)
C42 C 0.34684(17) 0.82498(17) 0.51811(17)
C43 C 0.4059(2) 0.8103(2) 0.3816(2)
F26 F 0.45152(12) 0.82116(14) 0.35214(14)
F27 F 0.41045(13) 0.68845(12) 0.51660(13)
C44 C 0.38227(19) 0.86702(19) 0.60088(19)
H20 H 0.38903(19) 0.90019(19) 0.62149(19)
N2 N 0.12056(15) 0.66781(15) 0.46434(15)
C45 C 0.0392(2) 0.6724(2) 0.3376(2)
H21 H 0.0215(2) 0.6997(2) 0.3152(2)
C46 C 0.06550(19) 0.6899(2) 0.3840(2)
H22 H 0.06474(19) 0.7289(2) 0.3938(2)
B2 B 0.3083(2) 0.8255(2) 0.4652(2)
C47 C 0.1467(2) 0.61232(19) 0.54327(19)
H23 H 0.1858(2) 0.61622(19) 0.53450(19)
C48 C 0.31730(18) 0.86253(18) 0.41271(18)
C49 C 0.3206(2) 0.9579(2) 0.2643(2)
C50 C 0.22770(18) 0.76921(19) 0.51264(18)
H24 H 0.24109(18) 0.78306(19) 0.54581(18)
C51 C 0.09210(19) 0.5938(2) 0.4028(2)
H25 H 0.11037(19) 0.5666(2) 0.4249(2)
C52 C 0.36244(17) 0.77171(18) 0.54074(18)
F28 F 0.34201(17) 1.00886(13) 0.27128(14)
C53 C 0.0755(3) 0.5756(2) 0.6003(2)
H26 H 0.0650(3) 0.5545(2) 0.6310(2)
C54 C 0.3600(2) 0.71492(19) 0.5118(2)
C55 C 0.0645(2) 0.5763(2) 0.3569(2)
H27 H 0.0634(2) 0.5370(2) 0.3479(2)
C56 C 0.38458(18) 0.76644(18) 0.59121(18)
H28 H 0.39408(18) 0.72991(18) 0.60470(18)
C57 C 0.1310(3) 0.5823(2) 0.5882(2)
H29 H 0.1594(3) 0.5664(2) 0.6105(2)
F29 F 0.26697(16) 0.9666(2) 0.24595(15)
C58 C 0.18819(18) 0.72749(19) 0.41730(18)
H30 H 0.17460(18) 0.71341(19) 0.38429(18)
C59 C 0.23257(19) 0.76622(19) 0.41807(18)
H31 H 0.24809(19) 0.77897(19) 0.38533(18)
C60 C 0.03837(19) 0.6163(2) 0.3239(2)
H32 H 0.02015(19) 0.6045(2) 0.2921(2)
C61 C 0.25541(18) 0.78730(17) 0.46586(17)
C62 C 0.0488(2) 0.63075(19) 0.5240(2)
H33 H 0.0204(2) 0.64819(19) 0.5027(2)
C63 C 0.27512(19) 0.90376(18) 0.39888(18)
F30 F 0.3490(2) 0.93170(16) 0.22715(14)
C64 C 0.36168(17) 0.87231(17) 0.54956(18)
C65 C 0.3194(2) 0.92387(18) 0.31564(19)
C66 C 0.2763(2) 0.93400(18) 0.35186(19)
H34 H 0.2478(2) 0.96154(18) 0.34446(19)
C67 C 0.09289(18) 0.65094(19) 0.41616(18)
C68 C 0.18304(18) 0.73313(18) 0.51238(18)
H35 H 0.16465(18) 0.72385(18) 0.54484(18)
C69 C 0.41803(19) 0.80729(19) 0.67647(19)
C70 C 0.0335(3) 0.5993(2) 0.5682(2)
H36 H -0.0056(3) 0.5940(2) 0.5766(2)
F31 F 0.30906(15) 0.95891(13) 0.54904(15)
F32 F 0.39899(14) 0.96481(12) 0.55176(12)
F33 F 0.35979(18) 0.93968(12) 0.47909(13)
F34 F 0.21190(14) 0.97257(13) 0.43194(14)
C71 C 0.3574(2) 0.93318(19) 0.5311(2)
C72 C 0.2259(2) 0.9179(2) 0.4348(2)
F35 F 0.23631(13) 0.90694(12) 0.48631(11)
F36 F 0.17951(12) 0.88868(14) 0.42186(14)
loop_
_geom_bond_atom_site_label_1
_geom_bond_atom_site_label_2
_geom_bond_site_symmetry_1
_geom_bond_site_symmetry_2
F1 C23 1_555 1_555
F2 C35 1_555 1_555
F3 C23 1_555 1_555
F4 C35 1_555 1_555
F5 C35 1_555 1_555
F6 C1 1_555 1_555
F7 C1 1_555 1_555
C1 F11 1_555 1_555
N1 C3 1_555 1_555
F8 C23 1_555 1_555
F9 C17 1_555 1_555
C2 C16 1_555 1_555
C3 C9 1_555 1_555
F10 C32 1_555 1_555
C4 H1 1_555 1_555
C5 B1 1_555 1_555
C6 H2 1_555 1_555
F12 C27 1_555 1_555
C7 H3 1_555 1_555
C8 C14 1_555 1_555
C9 H4 1_555 1_555
C10 H5 1_555 1_555
C11 N1 1_555 1_555
C12 C6 1_555 1_555
H6 C12 1_555 1_555
C13 H7 1_555 1_555
C14 C16 1_555 1_555
C15 C7 1_555 1_555
H8 C15 1_555 1_555
F13 C32 1_555 1_555
C16 H9 1_555 1_555
C17 C25 1_555 1_555
B1 C8 1_555 1_555
C18 H10 1_555 1_555
C19 C5 1_555 1_555
C20 C4 1_555 1_555
H11 C20 1_555 1_555
C21 C7 1_555 1_555
C22 C4 1_555 1_555
H12 C22 1_555 1_555
F14 C27 1_555 1_555
C23 C19 1_555 1_555
F15 C32 1_555 1_555
C24 C8 1_555 1_555
C25 C5 1_555 1_555
C26 C2 1_555 1_555
H13 C26 1_555 1_555
C27 C14 1_555 1_555
F16 C17 1_555 1_555
C28 C18 1_555 1_555
H14 C28 1_555 1_555
F17 C17 1_555 1_555
C29 N1 1_555 1_555
C30 C3 1_555 1_555
H15 C30 1_555 1_555
C31 C1 1_555 1_555
F18 C27 1_555 1_555
C32 C2 1_555 1_555
C33 C18 1_555 1_555
H16 C33 1_555 1_555
C34 C29 1_555 1_555
H17 C34 1_555 1_555
C35 C24 1_555 1_555
C36 C33 1_555 1_555
H18 C36 1_555 1_555
F19 C54 1_555 1_555
F20 C43 1_555 1_555
F21 C54 1_555 1_555
F22 C43 1_555 1_555
C37 N2 1_555 1_555
F23 C69 1_555 1_555
C38 C44 1_555 1_555
F24 C69 1_555 1_555
F25 C69 1_555 1_555
C39 H19 1_555 1_555
C40 C39 1_555 1_555
C41 N2 1_555 1_555
C42 B2 1_555 1_555
C43 C40 1_555 1_555
F26 C43 1_555 1_555
F27 C54 1_555 1_555
C44 H20 1_555 1_555
N2 C67 1_555 1_555
C45 H21 1_555 1_555
C46 C45 1_555 1_555
H22 C46 1_555 1_555
B2 C48 1_555 1_555
C47 C41 1_555 1_555
H23 C47 1_555 1_555
C48 C40 1_555 1_555
C49 F28 1_555 1_555
C50 H24 1_555 1_555
C51 H25 1_555 1_555
C52 C42 1_555 1_555
C53 H26 1_555 1_555
C54 C52 1_555 1_555
C55 C51 1_555 1_555
H27 C55 1_555 1_555
C56 C38 1_555 1_555
H28 C56 1_555 1_555
C57 C47 1_555 1_555
H29 C57 1_555 1_555
F29 C49 1_555 1_555
C58 C37 1_555 1_555
H30 C58 1_555 1_555
C59 C58 1_555 1_555
H31 C59 1_555 1_555
C60 C45 1_555 1_555
H32 C60 1_555 1_555
C61 B2 1_555 1_555
C62 C41 1_555 1_555
H33 C62 1_555 1_555
C63 C48 1_555 1_555
F30 C49 1_555 1_555
C64 C42 1_555 1_555
C65 C39 1_555 1_555
C66 C63 1_555 1_555
H34 C66 1_555 1_555
C67 C46 1_555 1_555
C68 C37 1_555 1_555
H35 C68 1_555 1_555
C69 C38 1_555 1_555
C70 C53 1_555 1_555
H36 C70 1_555 1_555
F31 C71 1_555 1_555
F32 C71 1_555 1_555
F33 C71 1_555 1_555
F34 C72 1_555 1_555
C71 C64 1_555 1_555
C72 C63 1_555 1_555
F35 C72 1_555 1_555
F36 C72 1_555 1_555
C6 C11 1_555 1_555
C9 C20 1_555 1_555
C10 C25 1_555 1_555
C10 C31 1_555 1_555
C11 C15 1_555 1_555
C12 C21 1_555 1_555
C13 C19 1_555 1_555
C13 C31 1_555 1_555
B1 C21 1_555 1_555
C22 C30 1_555 1_555
C24 C26 1_555 1_555
C28 C29 1_555 1_555
C34 C36 1_555 1_555
C44 C64 1_555 1_555
C49 C65 1_555 1_555
C50 C61 1_555 1_555
C50 C68 1_555 1_555
C51 C67 1_555 1_555
C52 C56 1_555 1_555
C53 C57 1_555 1_555
C55 C60 1_555 1_555
C59 C61 1_555 1_555
C62 C70 1_555 1_555
C65 C66 1_555 1_555

#END
