
#######################################################################
#
#                 Cambridge Crystallographic Data Centre
#                                CCDC 
#
#######################################################################
#
# If this CIF has been generated from an entry in the Cambridge 
# Structural Database, then it will include bibliographic, chemical, 
# crystal, experimental, refinement or atomic coordinate data resulting 
# from the CCDC's data processing and validation procedures.
#
#######################################################################

data_ROLXAT
_chemical_formula_moiety         'C14 H19 N1 O4'
_chemical_name_systematic        
'3-((t-butoxycarbonyl)amino)-3-phenylpropanoic acid'
_symmetry_cell_setting           monoclinic
_symmetry_space_group_name_H-M   'C 2/c'
_symmetry_Int_Tables_number      15
_space_group_name_Hall           '-C 2yn'
loop_
_symmetry_equiv_pos_site_id
_symmetry_equiv_pos_as_xyz
1 x,y,z
2 -x,y,1/2-z
3 1/2+x,1/2+y,z
4 1/2-x,1/2+y,1/2-z
5 -x,-y,-z
6 x,-y,1/2+z
7 1/2-x,1/2-y,-z
8 1/2+x,1/2-y,1/2+z
_cell_length_a                   30.095(12)
_cell_length_b                   5.308(2)
_cell_length_c                   20.369(8)
_cell_angle_alpha                90
_cell_angle_beta                 117.027(6)
_cell_angle_gamma                90
_cell_volume                     2898.49
_exptl_crystal_colour            colorless
_exptl_crystal_description       prism
_cell_formula_units_Z            8
loop_
_atom_site_label
_atom_site_type_symbol
_atom_site_fract_x
_atom_site_fract_y
_atom_site_fract_z
N1 N 0.12636(7) 0.4535(4) 0.44395(10)
C1 C 0.08925(8) 0.4554(4) 0.30807(12)
C2 C 0.11619(9) 0.6531(5) 0.29984(14)
H1 H 0.1291 0.7762 0.3362
C3 C 0.12426(11) 0.6707(6) 0.23844(17)
H2 H 0.1425 0.8049 0.2337
C4 C 0.10543(13) 0.4905(7) 0.18439(17)
H3 H 0.1110 0.5019 0.1431
C5 C 0.07841(13) 0.2936(7) 0.19135(16)
H4 H 0.0656 0.1713 0.1547
C6 C 0.07021(10) 0.2762(5) 0.25280(14)
H5 H 0.0517 0.1425 0.2570
C7 C 0.08033(8) 0.4355(4) 0.37528(12)
H6 H 0.0658 0.2693 0.3741
C8 C 0.04360(8) 0.6329(4) 0.37576(12)
H7 H 0.0593 0.7976 0.3846
H8 H 0.0147 0.6366 0.3277
C9 C 0.02679(9) 0.5811(5) 0.43360(13)
C10 C 0.15004(9) 0.2486(4) 0.48213(12)
C11 C 0.22051(10) 0.1293(5) 0.59963(13)
C12 C 0.25815(17) 0.2915(6) 0.65976(17)
H9 H 0.2415 0.3940 0.6806
H10 H 0.2747 0.3978 0.6396
H11 H 0.2823 0.1861 0.6974
C13 C 0.24549(10) -0.0376(5) 0.56697(16)
H12 H 0.2211 -0.1461 0.5308
H13 H 0.2705 -0.1378 0.6052
H14 H 0.2609 0.0643 0.5440
C14 C 0.18935(14) -0.0222(6) 0.62626(18)
H15 H 0.1722 0.0899 0.6441
H16 H 0.2106 -0.1322 0.6654
H17 H 0.1654 -0.1205 0.5863
O1 O 0.03372(7) 0.3812(3) 0.46529(10)
O2 O 0.00274(7) 0.7695(3) 0.44441(11)
H18 H -0.0087(14) 0.724(7) 0.4767(17)
O3 O 0.18888(6) 0.3181(3) 0.54566(8)
O4 O 0.13845(6) 0.0335(3) 0.46189(9)
H19 H 0.1383(8) 0.599(3) 0.4645(11)
loop_
_geom_bond_atom_site_label_1
_geom_bond_atom_site_label_2
_geom_bond_site_symmetry_1
_geom_bond_site_symmetry_2
N1 C7 1_555 1_555
C1 C2 1_555 1_555
C2 H1 1_555 1_555
C3 C2 1_555 1_555
H2 C3 1_555 1_555
C4 C3 1_555 1_555
H3 C4 1_555 1_555
C5 C4 1_555 1_555
H4 C5 1_555 1_555
C6 C1 1_555 1_555
H5 C6 1_555 1_555
C7 C1 1_555 1_555
H6 C7 1_555 1_555
C8 C7 1_555 1_555
H7 C8 1_555 1_555
H8 C8 1_555 1_555
C9 C8 1_555 1_555
C10 N1 1_555 1_555
C11 C12 1_555 1_555
C12 H9 1_555 1_555
H10 C12 1_555 1_555
H11 C12 1_555 1_555
C13 C11 1_555 1_555
H12 C13 1_555 1_555
H13 C13 1_555 1_555
H14 C13 1_555 1_555
C14 C11 1_555 1_555
H15 C14 1_555 1_555
H16 C14 1_555 1_555
H17 C14 1_555 1_555
O1 C9 1_555 1_555
O2 C9 1_555 1_555
H18 O2 1_555 1_555
O3 C10 1_555 1_555
O4 C10 1_555 1_555
H19 N1 1_555 1_555
C5 C6 1_555 1_555
C11 O3 1_555 1_555

#END
