
#######################################################################
#
#                 Cambridge Crystallographic Data Centre
#                                CCDC 
#
#######################################################################
#
# If this CIF has been generated from an entry in the Cambridge 
# Structural Database, then it will include bibliographic, chemical, 
# crystal, experimental, refinement or atomic coordinate data resulting 
# from the CCDC's data processing and validation procedures.
#
#######################################################################

data_ROLZUO
_chemical_formula_moiety         'C12 H18 N4 O2'
_chemical_name_systematic        
trans-3,3'-(2,2'-Bi-1H-imidazole-1,1'-diyl)-bis(propanol)
_symmetry_cell_setting           monoclinic
_symmetry_space_group_name_H-M   'C 2/c'
_symmetry_Int_Tables_number      15
_space_group_name_Hall           '-C 2yn'
loop_
_symmetry_equiv_pos_site_id
_symmetry_equiv_pos_as_xyz
1 x,y,z
2 1/2+x,1/2+y,z
3 -x,y,1/2-z
4 1/2-x,1/2+y,1/2-z
5 -x,-y,-z
6 1/2-x,1/2-y,-z
7 x,-y,1/2+z
8 1/2+x,1/2-y,1/2+z
_cell_length_a                   15.812(3)
_cell_length_b                   9.5961(19)
_cell_length_c                   9.3194(19)
_cell_angle_alpha                90
_cell_angle_beta                 119.44(3)
_cell_angle_gamma                90
_cell_volume                     1231.47
_exptl_crystal_colour            colorless
_exptl_crystal_description       block
_cell_formula_units_Z            4
_exptl_crystal_recrystallization_method 'petroleum ether/chloroform'
loop_
_atom_site_label
_atom_site_type_symbol
_atom_site_fract_x
_atom_site_fract_y
_atom_site_fract_z
C1 C 0.03257(9) 0.22372(12) 0.47224(14)
H1 H 0.0646 0.2434 0.4134
C2 C -0.05565(9) 0.16313(12) 0.41318(14)
H2 H -0.0946 0.1336 0.3050
C3 C -0.00459(7) 0.20468(10) 0.66867(13)
C4 C 0.15367(7) 0.32897(11) 0.74530(14)
H3 H 0.1970 0.3292 0.6993
H4 H 0.1869 0.2829 0.8516
C5 C 0.13141(8) 0.47728(12) 0.76898(17)
H5 H 0.0930 0.4771 0.8241
H6 H 0.0930 0.5207 0.6620
C6 C 0.22260(8) 0.56240(12) 0.86937(16)
H7 H 0.2635 0.5562 0.8189
H8 H 0.2048 0.6594 0.8674
N1 N 0.06543(6) 0.25027(9) 0.63558(11)
N2 N -0.07917(6) 0.15167(10) 0.53523(11)
O1 O 0.27596(7) 0.51756(11) 1.03437(12)
H9 H 0.3207(14) 0.460(2) 1.037(2)
C1B C -0.03257(9) 0.22372(12) 1.02776(14)
H1B H -0.0646 0.2434 1.0866
C2B C 0.05565(9) 0.16313(12) 1.08682(14)
H2B H 0.0946 0.1336 1.1950
C3B C 0.00459(7) 0.20468(10) 0.83133(13)
C4B C -0.15367(7) 0.32897(11) 0.75470(14)
H3B H -0.1970 0.3292 0.8007
H4B H -0.1869 0.2829 0.6484
C5B C -0.13141(8) 0.47728(12) 0.73102(17)
H5B H -0.0930 0.4771 0.6759
H6B H -0.0930 0.5207 0.8380
C6B C -0.22260(8) 0.56240(12) 0.63063(16)
H7B H -0.2635 0.5562 0.6811
H8B H -0.2048 0.6594 0.6326
N1B N -0.06543(6) 0.25027(9) 0.86442(11)
N2B N 0.07917(6) 0.15167(10) 0.96477(11)
O1B O -0.27596(7) 0.51756(11) 0.46563(12)
H9B H -0.3207(14) 0.460(2) 0.463(2)
loop_
_geom_bond_atom_site_label_1
_geom_bond_atom_site_label_2
_geom_bond_site_symmetry_1
_geom_bond_site_symmetry_2
C1 H1 1_555 1_555
C2 C1 1_555 1_555
H2 C2 1_555 1_555
C3 N1 1_555 1_555
C4 H3 1_555 1_555
H4 C4 1_555 1_555
C5 C4 1_555 1_555
H5 C5 1_555 1_555
H6 C5 1_555 1_555
C6 C5 1_555 1_555
H7 C6 1_555 1_555
H8 C6 1_555 1_555
N1 C1 1_555 1_555
N2 C2 1_555 1_555
O1 C6 1_555 1_555
H9 O1 1_555 1_555
C1B H1B 1_555 1_555
C2B C1B 1_555 1_555
H2B C2B 1_555 1_555
C3B C3 1_555 1_555
C4B H3B 1_555 1_555
H4B C4B 1_555 1_555
C5B C4B 1_555 1_555
H5B C5B 1_555 1_555
H6B C5B 1_555 1_555
C6B C5B 1_555 1_555
H7B C6B 1_555 1_555
H8B C6B 1_555 1_555
N1B C1B 1_555 1_555
N2B C2B 1_555 1_555
O1B C6B 1_555 1_555
H9B O1B 1_555 1_555
C3 N2 1_555 1_555
C4 N1 1_555 1_555
C3B N1B 1_555 1_555
C3B N2B 1_555 1_555
C4B N1B 1_555 1_555

#END
