
#######################################################################
#
#                 Cambridge Crystallographic Data Centre
#                                CCDC 
#
#######################################################################
#
# If this CIF has been generated from an entry in the Cambridge 
# Structural Database, then it will include bibliographic, chemical, 
# crystal, experimental, refinement or atomic coordinate data resulting 
# from the CCDC's data processing and validation procedures.
#
#######################################################################

data_ROLZOI
_chemical_formula_moiety         'C22 H22 O4 S1,2(H2 O1)'
_chemical_name_systematic        
"2,2'-Dimethyl-4,4'-(sulfonyldi-p-phenylene)-bis(but-3-yn-2-ol) dihydrate"
_symmetry_cell_setting           orthorhombic
_symmetry_space_group_name_H-M   'A m m 2'
_symmetry_Int_Tables_number      38
_space_group_name_Hall           'A 2 -2'
loop_
_symmetry_equiv_pos_site_id
_symmetry_equiv_pos_as_xyz
1 x,y,z
2 -x,-y,z
3 -x,y,z
4 x,-y,z
5 x,1/2+y,1/2+z
6 -x,1/2-y,1/2+z
7 -x,1/2+y,1/2+z
8 x,1/2-y,1/2+z
_cell_length_a                   19.751(3)
_cell_length_b                   10.904(3)
_cell_length_c                   5.092(2)
_cell_angle_alpha                90
_cell_angle_beta                 90
_cell_angle_gamma                90
_cell_volume                     1096.64
_exptl_crystal_colour            colorless
_exptl_crystal_description       block
_chemical_melting_point          '435-437 K'
_cell_formula_units_Z            2
_exptl_crystal_recrystallization_method ethanol/water
loop_
_atom_site_label
_atom_site_type_symbol
_atom_site_fract_x
_atom_site_fract_y
_atom_site_fract_z
S1 S 0.5000 0.5000 0.5447(4)
O1 O 0.5000 0.6154(4) 0.6856(9)
O2 O 0.0928(2) 0.5000 -0.3050(9)
H1 H 0.0592(5) 0.5000 -0.398(4)
C1 C 0.4296(2) 0.5000 0.3319(11)
C2 C 0.40288(19) 0.3902(3) 0.2490(10)
H2 H 0.4218 0.3167 0.3052
C3 C 0.34760(18) 0.3895(4) 0.0814(10)
H3 H 0.3290 0.3156 0.0255
C4 C 0.3202(2) 0.5000 -0.0022(12)
C5 C 0.2615(3) 0.5000 -0.1766(12)
C6 C 0.2125(2) 0.5000 -0.3109(12)
C7 C 0.1511(2) 0.5000 -0.4712(13)
C8 C 0.1503(2) 0.3873(3) -0.6405(8)
H4 H 0.1344 0.3188 -0.5396
H5 H 0.1953 0.3708 -0.7024
H6 H 0.1208 0.4003 -0.7877
O1A O 0.5000 0.3846(4) 0.6856(9)
O2A O 0.9072(2) 0.5000 -0.3050(9)
H1A H 0.9408(5) 0.5000 -0.398(4)
C1A C 0.5704(2) 0.5000 0.3319(11)
C2C C 0.40288(19) 0.6098(3) 0.2490(10)
C2A C 0.59712(19) 0.6098(3) 0.2490(10)
C2B C 0.59712(19) 0.3902(3) 0.2490(10)
H2C H 0.4218 0.6833 0.3052
H2A H 0.5782 0.6833 0.3052
H2B H 0.5782 0.3167 0.3052
C3C C 0.34760(18) 0.6105(4) 0.0814(10)
C3A C 0.65240(18) 0.6105(4) 0.0814(10)
C3B C 0.65240(18) 0.3895(4) 0.0814(10)
H3C H 0.3290 0.6844 0.0255
H3A H 0.6710 0.6844 0.0255
H3B H 0.6710 0.3156 0.0255
C4A C 0.6798(2) 0.5000 -0.0022(12)
C5A C 0.7385(3) 0.5000 -0.1766(12)
C6A C 0.7875(2) 0.5000 -0.3109(12)
C7A C 0.8489(2) 0.5000 -0.4712(13)
C8C C 0.1503(2) 0.6127(3) -0.6405(8)
C8A C 0.8497(2) 0.6127(3) -0.6405(8)
C8B C 0.8497(2) 0.3873(3) -0.6405(8)
H4C H 0.1344 0.6812 -0.5396
H4A H 0.8656 0.6812 -0.5396
H4B H 0.8656 0.3188 -0.5396
H5C H 0.1953 0.6292 -0.7024
H5A H 0.8047 0.6292 -0.7024
H5B H 0.8047 0.3708 -0.7024
H6C H 0.1208 0.5997 -0.7877
H6A H 0.8792 0.5997 -0.7877
H6B H 0.8792 0.4003 -0.7877
O3 O 0.0000(3) 0.3082(3) -0.2418(8)
H7 H -0.0332 0.3467 -0.2448
H7B H 0.0332 0.3467 -0.2448
loop_
_geom_bond_atom_site_label_1
_geom_bond_atom_site_label_2
_geom_bond_site_symmetry_1
_geom_bond_site_symmetry_2
S1 O1 1_555 1_555
O2 H1 1_555 1_555
C1 S1 1_555 1_555
C2 C1 1_555 1_555
H2 C2 1_555 1_555
C3 C2 1_555 1_555
H3 C3 1_555 1_555
C4 C3 1_555 1_555
C5 C4 1_555 1_555
C6 C5 1_555 1_555
C7 O2 1_555 1_555
C8 C7 1_555 1_555
H4 C8 1_555 1_555
H5 C8 1_555 1_555
H6 C8 1_555 1_555
O3 H7 1_555 1_555
O1A S1 1_555 1_555
O2A H1A 1_555 1_555
C1A S1 1_555 1_555
C2C C1 1_555 1_555
C2A C1A 1_555 1_555
C2B C1A 1_555 1_555
H2C C2C 1_555 1_555
H2A C2A 1_555 1_555
H2B C2B 1_555 1_555
C3C C4 1_555 1_555
C3A C2A 1_555 1_555
C3B C2B 1_555 1_555
H3C C3C 1_555 1_555
H3A C3A 1_555 1_555
H3B C3B 1_555 1_555
C4A C3A 1_555 1_555
C5A C4A 1_555 1_555
C6A C5A 1_555 1_555
C7A O2A 1_555 1_555
C8C C7 1_555 1_555
C8A C7A 1_555 1_555
C8B C7A 1_555 1_555
H4C C8C 1_555 1_555
H4A C8A 1_555 1_555
H4B C8B 1_555 1_555
H5C C8C 1_555 1_555
H5A C8A 1_555 1_555
H5B C8B 1_555 1_555
H6C C8C 1_555 1_555
H6A C8A 1_555 1_555
H6B C8B 1_555 1_555
H7B O3 1_555 1_555
C6 C7 1_555 1_555
C2C C3C 1_555 1_555
C3B C4A 1_555 1_555
C6A C7A 1_555 1_555

#END
