
#######################################################################
#
#                 Cambridge Crystallographic Data Centre
#                                CCDC 
#
#######################################################################
#
# If this CIF has been generated from an entry in the Cambridge 
# Structural Database, then it will include bibliographic, chemical, 
# crystal, experimental, refinement or atomic coordinate data resulting 
# from the CCDC's data processing and validation procedures.
#
#######################################################################

data_ROMDUT
_chemical_name_common            'norfloxacin hydrate'
_chemical_formula_moiety         'C16 H18 F1 N3 O3,1.42(H2 O1)'
_chemical_name_systematic        
'1-ethyl-6-fluoro-4-oxo-7-(piperazin-4-ium-1-yl)-1,4-dihydroquinoline-3-carboxylate hydrate'
_symmetry_cell_setting           monoclinic
_symmetry_space_group_name_H-M   'P 21/c'
_symmetry_Int_Tables_number      14
_space_group_name_Hall           '-P 2ybc'
loop_
_symmetry_equiv_pos_site_id
_symmetry_equiv_pos_as_xyz
1 x,y,z
2 -x,1/2+y,1/2-z
3 -x,-y,-z
4 x,1/2-y,1/2+z
_cell_length_a                   8.8434(18)
_cell_length_b                   22.312(5)
_cell_length_c                   8.7564(18)
_cell_angle_alpha                90
_cell_angle_beta                 109.35(3)
_cell_angle_gamma                90
_cell_volume                     1630.16
_exptl_crystal_colour            'pale yellow'
_exptl_crystal_description       block
_chemical_melting_point          '492.5 K'
_cell_formula_units_Z            4
_exptl_crystal_recrystallization_method acetonitrile/water
loop_
_atom_site_label
_atom_site_type_symbol
_atom_site_fract_x
_atom_site_fract_y
_atom_site_fract_z
F1 F 0.2851(2) 0.73405(8) 0.1027(2)
C1 C 0.5896(4) 0.69034(13) 0.4775(4)
H1 H 0.6340 0.6563 0.5365
N1 N 0.7787(3) 0.75248(11) 0.6815(3)
C2 C 0.4641(3) 0.68388(13) 0.3326(4)
C3 C 0.6513(4) 0.74655(12) 0.5373(4)
N2 N 0.4098(3) 0.62818(11) 0.2644(3)
C4 C 0.4554(4) 0.79261(13) 0.3075(4)
H2 H 0.4079 0.8265 0.2498
C5 C 0.4011(4) 0.73759(13) 0.2506(4)
C6 C 0.6462(4) 0.85899(13) 0.5062(4)
C7 C 0.8307(4) 0.80766(13) 0.7354(4)
H3 H 0.9128 0.8101 0.8344
C8 C 0.7747(4) 0.86019(13) 0.6590(4)
O1 O 0.9214(3) 0.91437(11) 0.8908(3)
O2 O 0.5884(3) 0.90336(10) 0.4227(3)
O3 O 0.8443(3) 0.96306(11) 0.6594(3)
C9 C 0.5828(3) 0.79879(12) 0.4528(3)
C10 C 0.8524(4) 0.91709(13) 0.7418(4)
C11 C 0.4966(4) 0.57470(13) 0.3422(4)
H4 H 0.4622 0.5633 0.4325
H5 H 0.6105 0.5832 0.3838
N3 N 0.2914(3) 0.51183(11) 0.1476(3)
H6 H 0.2528 0.4972 0.2232
H7 H 0.2762 0.4840 0.0697
C12 C 0.8690(4) 0.70072(14) 0.7748(4)
H8 H 0.9077 0.7109 0.8890
H9 H 0.7972 0.6667 0.7607
C13 C 0.2026(4) 0.56722(14) 0.0767(4)
H10 H 0.0884 0.5589 0.0367
H11 H 0.2344 0.5803 -0.0138
C14 C 0.2368(4) 0.61614(14) 0.2023(4)
H12 H 0.1796 0.6523 0.1545
H13 H 0.2002 0.6039 0.2904
C15 C 0.4652(4) 0.52396(14) 0.2223(4)
H14 H 0.5099 0.5339 0.1381
H15 H 0.5186 0.4881 0.2767
C16 C 1.0069(5) 0.6835(2) 0.7236(5)
H16 H 0.9684 0.6701 0.6132
H17 H 1.0656 0.6517 0.7916
H18 H 1.0758 0.7175 0.7327
O4 O 0.1091(6) 0.4638(2) 0.3166(6)
H19 H 0.134(8) 0.463(3) 0.440(8)
H20 H 0.020(11) 0.489(4) 0.282(10)
O5 O 0.2349(14) 0.5705(7) 0.6166(16)
O6? O 0.1742(14) 0.4991(6) 0.4249(17)
loop_
_geom_bond_atom_site_label_1
_geom_bond_atom_site_label_2
_geom_bond_site_symmetry_1
_geom_bond_site_symmetry_2
F1 C5 1_555 1_555
C1 H1 1_555 1_555
N1 C3 1_555 1_555
C2 C1 1_555 1_555
C3 C1 1_555 1_555
N2 C2 1_555 1_555
C4 H2 1_555 1_555
C5 C2 1_555 1_555
C6 C8 1_555 1_555
C7 N1 1_555 1_555
H3 C7 1_555 1_555
C8 C7 1_555 1_555
O1 C10 1_555 1_555
O2 C6 1_555 1_555
O3 C10 1_555 1_555
C9 C3 1_555 1_555
C10 C8 1_555 1_555
C11 N2 1_555 1_555
H4 C11 1_555 1_555
H5 C11 1_555 1_555
N3 H6 1_555 1_555
H7 N3 1_555 1_555
C12 N1 1_555 1_555
H8 C12 1_555 1_555
H9 C12 1_555 1_555
C13 N3 1_555 1_555
H10 C13 1_555 1_555
H11 C13 1_555 1_555
C14 N2 1_555 1_555
H12 C14 1_555 1_555
H13 C14 1_555 1_555
C15 C11 1_555 1_555
H14 C15 1_555 1_555
H15 C15 1_555 1_555
C16 C12 1_555 1_555
H16 C16 1_555 1_555
H17 C16 1_555 1_555
H18 C16 1_555 1_555
O4 H19 1_555 1_555
H20 O4 1_555 1_555
C4 C5 1_555 1_555
C4 C9 1_555 1_555
C6 C9 1_555 1_555
N3 C15 1_555 1_555
C13 C14 1_555 1_555

#END
