
#######################################################################
#
#                 Cambridge Crystallographic Data Centre
#                                CCDC 
#
#######################################################################
#
# If this CIF has been generated from an entry in the Cambridge 
# Structural Database, then it will include bibliographic, chemical, 
# crystal, experimental, refinement or atomic coordinate data resulting 
# from the CCDC's data processing and validation procedures.
#
#######################################################################

data_ROMFOQ
_chemical_formula_moiety         'C28 H31 B1 N2,0.5(C7 H8)'
_chemical_name_systematic        
'9-Mesityl-5,9a,11,13-tetramethyl-9,9a-dihydro-5H-9\l^5^-[1]benzoborireno[1,5a-c]imidazo[2,1-a][2,3]benzazaborinine-8-ium-9-ide toluene solvate'
_symmetry_cell_setting           triclinic
_symmetry_space_group_name_H-M   'P -1'
_symmetry_Int_Tables_number      2
_space_group_name_Hall           '-P 1'
loop_
_symmetry_equiv_pos_site_id
_symmetry_equiv_pos_as_xyz
1 x,y,z
2 -x,-y,-z
_cell_length_a                   8.5500(9)
_cell_length_b                   17.1384(19)
_cell_length_c                   17.7313(19)
_cell_angle_alpha                72.725(2)
_cell_angle_beta                 87.988(2)
_cell_angle_gamma                84.600(2)
_cell_volume                     2469.94
_cell_formula_units_Z            4
_chemical_properties_physical    Air-sensitive
loop_
_atom_site_label
_atom_site_type_symbol
_atom_site_fract_x
_atom_site_fract_y
_atom_site_fract_z
N3 N 0.2734(4) 0.24517(19) 0.19593(18)
N4 N 0.4153(4) 0.2461(2) 0.0906(2)
C29 C -0.0563(6) 0.5258(3) 0.3607(3)
H32 H 0.0295 0.5573 0.3673
H33 H -0.1144 0.5081 0.4106
H34 H -0.1273 0.5603 0.3194
C30 C 0.0108(5) 0.4515(2) 0.3372(2)
C31 C -0.0862(5) 0.3979(3) 0.3207(2)
H35 H -0.1969 0.4099 0.3221
C32 C -0.0269(5) 0.3275(2) 0.3023(2)
C33 C 0.1369(4) 0.3064(2) 0.3004(2)
C34 C 0.2123(5) 0.2258(3) 0.2818(3)
C35 C 0.3321(4) 0.1551(2) 0.3400(2)
C36 C 0.4656(4) 0.1166(2) 0.3031(2)
C37 C 0.4958(4) 0.1392(2) 0.2208(2)
C38 C 0.6188(5) 0.0965(3) 0.1910(3)
H36 H 0.6374 0.1110 0.1357
C39 C 0.7129(5) 0.0344(3) 0.2403(3)
H37 H 0.7967 0.0068 0.2190
C40 C 0.2125(5) 0.3089(3) 0.1345(2)
H38 H 0.1239 0.3457 0.1374
C41 C 0.2990(5) 0.3105(3) 0.0697(3)
H39 H 0.2834 0.3487 0.0188
C42 C 0.3980(5) 0.2070(3) 0.1692(2)
C43 C 0.1608(4) 0.1351(2) 0.3205(2)
C44 C 0.0542(5) 0.1177(2) 0.3887(2)
H40 H -0.0430 0.0980 0.3822
C45 C 0.0805(5) 0.1269(2) 0.4588(2)
C46 C -0.0423(5) 0.1120(3) 0.5241(2)
H41 H -0.0879 0.1647 0.5296
H42 H 0.0068 0.0792 0.5739
H43 H -0.1252 0.0825 0.5110
C47 C 0.2350(5) 0.1484(2) 0.4740(2)
H44 H 0.2516 0.1571 0.5235
C48 C 0.3542(5) 0.1566(2) 0.4226(2)
C49 C 0.5118(5) 0.1729(3) 0.4477(3)
H45 H 0.4973 0.2163 0.4736
H46 H 0.5798 0.1904 0.4012
H47 H 0.5607 0.1227 0.4846
C50 C 0.1525(5) 0.0742(2) 0.2735(2)
H48 H 0.1921 0.0193 0.3057
H49 H 0.2167 0.0908 0.2255
H50 H 0.0432 0.0734 0.2590
C51 C -0.1440(5) 0.2766(3) 0.2814(3)
H51 H -0.1770 0.2359 0.3294
H52 H -0.0951 0.2485 0.2446
H53 H -0.2357 0.3125 0.2564
C52 C 0.1718(5) 0.4338(2) 0.3303(2)
H54 H 0.2411 0.4706 0.3386
C53 C 0.2342(5) 0.3647(2) 0.3117(2)
C54 C 0.4116(5) 0.3548(3) 0.2982(3)
H55 H 0.4327 0.3434 0.2476
H56 H 0.4588 0.3092 0.3410
H57 H 0.4570 0.4055 0.2972
C55 C 0.5645(5) 0.0518(2) 0.3510(3)
H58 H 0.5462 0.0352 0.4064
C56 C 0.6856(5) 0.0118(3) 0.3211(3)
H59 H 0.7506 -0.0312 0.3555
B2 B 0.5360(7) 0.2331(4) 0.0342(3)
H60 H 0.5211 0.2767 -0.0160
H61 H 0.5279 0.1798 0.0255
H62 H 0.6400 0.2342 0.0552
N1 N 0.1230(3) 0.77553(19) 0.29438(18)
N2 N -0.0261(4) 0.72652(19) 0.39817(18)
C1 C 0.4135(4) 0.7252(2) 0.2766(2)
C2 C 0.4038(4) 0.6790(2) 0.3619(2)
C3 C 0.5389(5) 0.6348(2) 0.4008(2)
H1 H 0.6322 0.6313 0.3708
C4 C 0.5411(5) 0.5960(2) 0.4816(2)
H2 H 0.6341 0.5656 0.5058
C5 C 0.4087(5) 0.6017(2) 0.5261(2)
H3 H 0.4104 0.5759 0.5815
C6 C -0.0306(5) 0.8050(3) 0.2757(2)
H4 H -0.0661 0.8407 0.2261
C7 C -0.1218(5) 0.7752(3) 0.3388(2)
H5 H -0.2325 0.7858 0.3418
C8 C -0.0864(5) 0.6819(3) 0.4757(2)
H6 H -0.2016 0.6872 0.4749
H7 H -0.0502 0.7048 0.5158
H8 H -0.0480 0.6238 0.4883
C9 C 0.1246(4) 0.7275(2) 0.3699(2)
C10 C 0.2669(4) 0.6828(2) 0.4086(2)
C11 C 0.5229(5) 0.6876(3) 0.2277(2)
C12 C 0.6091(5) 0.7343(3) 0.1699(2)
H9 H 0.6695 0.7087 0.1364
C13 C 0.6149(5) 0.8225(3) 0.1559(2)
C14 C 0.5286(4) 0.8590(3) 0.2006(2)
H10 H 0.5431 0.9150 0.1936
C15 C 0.4116(4) 0.8220(2) 0.2605(2)
C16 C 0.4069(5) 0.8551(2) 0.3308(2)
H11 H 0.5021 0.8339 0.3622
H12 H 0.3143 0.8377 0.3635
H13 H 0.4013 0.9152 0.3123
C17 C 0.7240(5) 0.8681(3) 0.0913(3)
H14 H 0.6796 0.8742 0.0395
H15 H 0.8272 0.8370 0.0960
H16 H 0.7354 0.9224 0.0970
C18 C 0.5295(6) 0.5968(3) 0.2390(3)
H17 H 0.4288 0.5831 0.2239
H18 H 0.5504 0.5670 0.2946
H19 H 0.6136 0.5812 0.2060
C19 C 0.2730(5) 0.6449(2) 0.4906(2)
H20 H 0.1823 0.6492 0.5221
B1 B 0.2631(5) 0.7870(3) 0.2354(3)
C20 C 0.0181(5) 0.8350(3) -0.0862(2)
H21 H 0.0431 0.8883 -0.1215
H22 H -0.0962 0.8330 -0.0824
H23 H 0.0647 0.7912 -0.1073
C21 C 0.0829(5) 0.8233(3) -0.0060(2)
C22 C 0.0892(5) 0.7473(3) 0.0516(2)
H24 H 0.0539 0.7018 0.0388
C23 C 0.1450(5) 0.7360(3) 0.1264(2)
C24 C 0.2032(4) 0.8012(2) 0.1479(2)
C25 C 0.1308(7) 0.6530(3) 0.1864(3)
H25 H 0.0201 0.6464 0.2008
H26 H 0.1907 0.6493 0.2337
H27 H 0.1726 0.6097 0.1637
C26 C 0.1921(5) 0.8783(2) 0.0904(2)
C27 C 0.1337(5) 0.8872(3) 0.0152(2)
H28 H 0.1291 0.9399 -0.0227
C28 C 0.2310(6) 0.9551(3) 0.1088(3)
H29 H 0.2077 0.9498 0.1645
H30 H 0.1677 1.0027 0.0755
H31 H 0.3428 0.9625 0.0983
C57? C -0.0671(13) 0.4939(7) 0.0975(7)
C58? C 0.0415(13) 0.5099(7) 0.0339(6)
C59? C -0.2283(19) 0.4655(10) 0.1048(9)
C60? C 0.1930(19) 0.5365(9) 0.0241(9)
C61? C -0.342(2) 0.4437(12) 0.0510(12)
loop_
_geom_bond_atom_site_label_1
_geom_bond_atom_site_label_2
_geom_bond_site_symmetry_1
_geom_bond_site_symmetry_2
N1 C6 1_555 1_555
N2 C7 1_555 1_555
C1 C2 1_555 1_555
C2 C3 1_555 1_555
C3 H1 1_555 1_555
C4 C3 1_555 1_555
H2 C4 1_555 1_555
C5 C4 1_555 1_555
H3 C5 1_555 1_555
C6 H4 1_555 1_555
C7 C6 1_555 1_555
H5 C7 1_555 1_555
C8 N2 1_555 1_555
H6 C8 1_555 1_555
H7 C8 1_555 1_555
H8 C8 1_555 1_555
C9 N1 1_555 1_555
C10 C2 1_555 1_555
C11 C1 1_555 1_555
C12 C11 1_555 1_555
H9 C12 1_555 1_555
C13 C12 1_555 1_555
C14 C13 1_555 1_555
H10 C14 1_555 1_555
C15 C1 1_555 1_555
C16 C15 1_555 1_555
H11 C16 1_555 1_555
H12 C16 1_555 1_555
H13 C16 1_555 1_555
C17 C13 1_555 1_555
H14 C17 1_555 1_555
H15 C17 1_555 1_555
H16 C17 1_555 1_555
C18 C11 1_555 1_555
H17 C18 1_555 1_555
H18 C18 1_555 1_555
H19 C18 1_555 1_555
C19 C5 1_555 1_555
H20 C19 1_555 1_555
B1 N1 1_555 1_555
C20 H21 1_555 1_555
H22 C20 1_555 1_555
H23 C20 1_555 1_555
C21 C20 1_555 1_555
C22 C21 1_555 1_555
H24 C22 1_555 1_555
C23 C22 1_555 1_555
C24 B1 1_555 1_555
C25 C23 1_555 1_555
H25 C25 1_555 1_555
H26 C25 1_555 1_555
H27 C25 1_555 1_555
C26 C24 1_555 1_555
C27 C21 1_555 1_555
H28 C27 1_555 1_555
C28 C26 1_555 1_555
H29 C28 1_555 1_555
H30 C28 1_555 1_555
H31 C28 1_555 1_555
N3 C34 1_555 1_555
N4 C41 1_555 1_555
C29 H32 1_555 1_555
H33 C29 1_555 1_555
H34 C29 1_555 1_555
C30 C29 1_555 1_555
C31 C30 1_555 1_555
H35 C31 1_555 1_555
C32 C31 1_555 1_555
C33 C32 1_555 1_555
C34 C33 1_555 1_555
C35 C34 1_555 1_555
C36 C35 1_555 1_555
C37 C36 1_555 1_555
C38 C37 1_555 1_555
H36 C38 1_555 1_555
C39 C38 1_555 1_555
H37 C39 1_555 1_555
C40 N3 1_555 1_555
H38 C40 1_555 1_555
C41 C40 1_555 1_555
H39 C41 1_555 1_555
C42 N3 1_555 1_555
C43 C34 1_555 1_555
C44 C43 1_555 1_555
H40 C44 1_555 1_555
C45 C44 1_555 1_555
C46 C45 1_555 1_555
H41 C46 1_555 1_555
H42 C46 1_555 1_555
H43 C46 1_555 1_555
C47 C45 1_555 1_555
H44 C47 1_555 1_555
C48 C35 1_555 1_555
C49 C48 1_555 1_555
H45 C49 1_555 1_555
H46 C49 1_555 1_555
H47 C49 1_555 1_555
C50 C43 1_555 1_555
H48 C50 1_555 1_555
H49 C50 1_555 1_555
H50 C50 1_555 1_555
C51 C32 1_555 1_555
H51 C51 1_555 1_555
H52 C51 1_555 1_555
H53 C51 1_555 1_555
C52 C30 1_555 1_555
H54 C52 1_555 1_555
C53 C33 1_555 1_555
C54 C53 1_555 1_555
H55 C54 1_555 1_555
H56 C54 1_555 1_555
H57 C54 1_555 1_555
C55 C36 1_555 1_555
H58 C55 1_555 1_555
C56 C39 1_555 1_555
H59 C56 1_555 1_555
B2 N4 1_555 1_555
H60 B2 1_555 1_555
H61 B2 1_555 1_555
H62 B2 1_555 1_555
N2 C9 1_555 1_555
C1 B1 1_555 1_555
C9 C10 1_555 1_555
C10 C19 1_555 1_555
C14 C15 1_555 1_555
C15 B1 1_555 1_555
C23 C24 1_555 1_555
C26 C27 1_555 1_555
N4 C42 1_555 1_555
C35 C43 1_555 1_555
C37 C42 1_555 1_555
C47 C48 1_555 1_555
C52 C53 1_555 1_555
C55 C56 1_555 1_555

#END
