
#######################################################################
#
#                 Cambridge Crystallographic Data Centre
#                                CCDC 
#
#######################################################################
#
# If this CIF has been generated from an entry in the Cambridge 
# Structural Database, then it will include bibliographic, chemical, 
# crystal, experimental, refinement or atomic coordinate data resulting 
# from the CCDC's data processing and validation procedures.
#
#######################################################################

data_ROMLIQ
_chemical_formula_moiety         'C21 H15 N7 O6,C2 H6 O1 S1'
_chemical_name_systematic        
"N',N''-(Pyridine-2,6-diyldimethylylidene)bis(4-nitrobenzohydrazide) dimethylsulfoxide solvate"
_symmetry_cell_setting           triclinic
_symmetry_space_group_name_H-M   'P -1'
_symmetry_Int_Tables_number      2
_space_group_name_Hall           '-P 1'
loop_
_symmetry_equiv_pos_site_id
_symmetry_equiv_pos_as_xyz
1 x,y,z
2 -x,-y,-z
_cell_length_a                   9.4719(4)
_cell_length_b                   11.4442(5)
_cell_length_c                   11.8275(6)
_cell_angle_alpha                98.6890(10)
_cell_angle_beta                 101.9750(10)
_cell_angle_gamma                105.6570(10)
_cell_volume                     1178.1
_exptl_crystal_colour            colorless
_exptl_crystal_description       prism
_cell_formula_units_Z            2
loop_
_atom_site_label
_atom_site_type_symbol
_atom_site_fract_x
_atom_site_fract_y
_atom_site_fract_z
C1 C 0.13399(19) -0.07662(15) 0.55274(15)
C2 C 0.0156(2) -0.11976(16) 0.60343(16)
H1 H -0.0514 -0.2024 0.5751
C3 C -0.0033(2) -0.04050(16) 0.69592(16)
H2 H -0.0841 -0.0680 0.7313
C4 C 0.0966(2) 0.07895(16) 0.73618(16)
H3 H 0.0853 0.1349 0.7992
C5 C 0.21434(19) 0.11577(15) 0.68245(14)
C6 C 0.1509(2) -0.16184(16) 0.45318(15)
H4 H 0.0880 -0.2455 0.4392
C7 C 0.41053(19) 0.00859(16) 0.31960(15)
C8 C 0.50350(19) 0.14330(16) 0.34866(15)
C9 C 0.4763(2) 0.23366(16) 0.42647(16)
H5 H 0.3935 0.2112 0.4609
C10 C 0.5691(2) 0.35631(17) 0.45413(16)
H6 H 0.5514 0.4184 0.5073
C11 C 0.6875(2) 0.38513(16) 0.40202(16)
C12 C 0.7160(2) 0.29844(16) 0.32234(15)
H7 H 0.7977 0.3219 0.2870
C13 C 0.62216(19) 0.17662(16) 0.29552(15)
H8 H 0.6388 0.1154 0.2406
C14 C 0.3261(2) 0.24097(16) 0.72141(15)
H9 H 0.4181 0.2589 0.6977
C15 C 0.37706(19) 0.53406(15) 0.89008(15)
C16 C 0.49608(18) 0.65942(15) 0.92108(14)
C17 C 0.4734(2) 0.75473(16) 0.99612(15)
H10 H 0.3887 0.7373 1.0291
C18 C 0.5726(2) 0.87460(16) 1.02331(15)
H11 H 0.5572 0.9395 1.0748
C19 C 0.69424(19) 0.89778(15) 0.97420(15)
C20 C 0.7231(2) 0.80507(16) 0.90211(17)
H12 H 0.8098 0.8229 0.8714
C21 C 0.6224(2) 0.68506(16) 0.87553(16)
H13 H 0.6401 0.6200 0.8259
N1 N 0.23400(16) 0.04023(12) 0.59233(12)
N2 N 0.23629(17) -0.14209(13) 0.38222(13)
N3 N 0.33129(17) -0.02315(14) 0.40013(14)
N4 N 0.78813(19) 0.51442(14) 0.43329(15)
N5 N 0.29647(16) 0.32501(13) 0.78790(13)
N6 N 0.40573(17) 0.43979(13) 0.82295(13)
N7 N 0.79775(17) 1.02644(14) 0.99761(14)
O1 O 0.40903(15) -0.06358(12) 0.23193(12)
O2 O 0.89985(17) 0.53847(14) 0.39457(16)
O3 O 0.75632(19) 0.59198(13) 0.49704(15)
O4 O 0.25957(15) 0.51985(12) 0.92161(12)
O5 O 0.78761(17) 1.10417(12) 1.07578(13)
O6 O 0.88770(16) 1.04872(12) 0.93671(14)
H14 H 0.334(2) 0.0283(19) 0.4617(18)
H15 H 0.493(3) 0.450(2) 0.8077(19)
C22 C 0.1248(2) 0.64253(19) 0.14303(18)
H16 H 0.1856 0.7306 0.1642
H17 H 0.0171 0.6355 0.1318
H18 H 0.1402 0.6022 0.0694
C23 C 0.0658(2) 0.41354(18) 0.1853(2)
H19 H 0.0933 0.3891 0.1119
H20 H -0.0413 0.4099 0.1666
H21 H 0.0817 0.3566 0.2373
O7 O 0.34292(14) 0.57139(13) 0.26358(12)
S1 S 0.18173(5) 0.56870(4) 0.25862(4)
loop_
_geom_bond_atom_site_label_1
_geom_bond_atom_site_label_2
_geom_bond_site_symmetry_1
_geom_bond_site_symmetry_2
C1 C2 1_555 1_555
C2 H1 1_555 1_555
C3 C2 1_555 1_555
H2 C3 1_555 1_555
C4 C3 1_555 1_555
H3 C4 1_555 1_555
C5 C4 1_555 1_555
C6 C1 1_555 1_555
H4 C6 1_555 1_555
C7 C8 1_555 1_555
C8 C9 1_555 1_555
C9 H5 1_555 1_555
C10 C9 1_555 1_555
H6 C10 1_555 1_555
C11 C10 1_555 1_555
C12 C11 1_555 1_555
H7 C12 1_555 1_555
C13 C8 1_555 1_555
H8 C13 1_555 1_555
C14 C5 1_555 1_555
H9 C14 1_555 1_555
C15 C16 1_555 1_555
C16 C17 1_555 1_555
C17 H10 1_555 1_555
C18 C17 1_555 1_555
H11 C18 1_555 1_555
C19 C18 1_555 1_555
C20 C19 1_555 1_555
H12 C20 1_555 1_555
C21 C16 1_555 1_555
H13 C21 1_555 1_555
N1 C1 1_555 1_555
N2 C6 1_555 1_555
N3 C7 1_555 1_555
N4 C11 1_555 1_555
N5 C14 1_555 1_555
N6 C15 1_555 1_555
N7 C19 1_555 1_555
O1 C7 1_555 1_555
O2 N4 1_555 1_555
O3 N4 1_555 1_555
O4 C15 1_555 1_555
O5 N7 1_555 1_555
O6 N7 1_555 1_555
H14 N3 1_555 1_555
H15 N6 1_555 1_555
C22 H16 1_555 1_555
H17 C22 1_555 1_555
H18 C22 1_555 1_555
C23 H19 1_555 1_555
H20 C23 1_555 1_555
H21 C23 1_555 1_555
O7 S1 1_555 1_555
S1 C22 1_555 1_555
C5 N1 1_555 1_555
C12 C13 1_555 1_555
C20 C21 1_555 1_555
N2 N3 1_555 1_555
N5 N6 1_555 1_555
C23 S1 1_555 1_555

#END
