
#######################################################################
#
#                 Cambridge Crystallographic Data Centre
#                                CCDC 
#
#######################################################################
#
# If this CIF has been generated from an entry in the Cambridge 
# Structural Database, then it will include bibliographic, chemical, 
# crystal, experimental, refinement or atomic coordinate data resulting 
# from the CCDC's data processing and validation procedures.
#
#######################################################################

data_ROMMIQ
_chemical_formula_moiety         'C22 H18 N4 O4'
_chemical_name_systematic        
'2-(1H-Benzotriazol-1-yl)-1-(3-methoxybenzoyl)ethyl isonicotinate'
_symmetry_cell_setting           triclinic
_symmetry_space_group_name_H-M   'P -1'
_symmetry_Int_Tables_number      2
_space_group_name_Hall           '-P 1'
loop_
_symmetry_equiv_pos_site_id
_symmetry_equiv_pos_as_xyz
1 x,y,z
2 -x,-y,-z
_cell_length_a                   9.4839(18)
_cell_length_b                   10.3611(19)
_cell_length_c                   11.276(2)
_cell_angle_alpha                109.342(3)
_cell_angle_beta                 102.664(3)
_cell_angle_gamma                97.985(3)
_cell_volume                     992.757
_exptl_crystal_colour            colorless
_exptl_crystal_description       plate
_cell_formula_units_Z            2
_exptl_crystal_recrystallization_method 'ethyl acetate'
loop_
_atom_site_label
_atom_site_type_symbol
_atom_site_fract_x
_atom_site_fract_y
_atom_site_fract_z
O1 O 0.21549(13) 0.94145(12) 0.45684(11)
O2 O 0.40290(15) 1.11047(14) 0.47141(13)
N1 N 0.22089(16) 0.73861(15) 0.58935(14)
C1 C 0.23974(18) 1.12532(18) 0.66726(18)
C2 C 0.31816(18) 1.19911(18) 0.80934(17)
C3 C 0.23003(19) 0.97219(18) 0.26265(17)
C4 C 0.2728(2) 1.31472(19) 0.88006(18)
H1 H 0.1952 1.3441 0.8379
C5 C 0.29418(19) 1.01773(19) 0.40669(18)
O3 O 0.15281(15) 1.17332(14) 0.60783(13)
C6 C 0.26559(19) 0.98062(18) 0.59616(17)
H2 H 0.3712 0.9811 0.6233
N2 N 0.34386(18) 0.72584(18) 0.66902(16)
C7 C 0.16172(19) 0.61663(18) 0.48299(17)
C8 C 0.2851(2) 1.0500(2) 0.19695(19)
H3 H 0.3604 1.1310 0.2422
C9 C 0.1742(2) 0.86971(18) 0.62674(18)
H4 H 0.1837 0.9040 0.7199
H5 H 0.0704 0.8535 0.5805
C10 C 0.0363(2) 0.57215(19) 0.37579(18)
H6 H -0.0264 0.6310 0.3634
N3 N 0.36612(19) 0.60040(18) 0.61744(17)
O4 O 0.28449(18) 1.49647(15) 1.07256(15)
C11 C 0.2550(2) 0.52895(19) 0.50226(18)
C12 C 0.4361(2) 1.1570(2) 0.87303(19)
H7 H 0.4675 1.0791 0.8273
C13 C 0.3411(2) 1.38696(19) 1.01200(19)
N4 N 0.1207(2) 0.8890(2) -0.00867(17)
C14 C 0.4587(2) 1.3456(2) 1.0743(2)
H8 H 0.5059 1.3944 1.1632
C15 C 0.2266(2) 0.3910(2) 0.4131(2)
H9 H 0.2887 0.3316 0.4253
C16 C 0.0107(2) 0.4364(2) 0.28959(19)
H10 H -0.0717 0.4024 0.2164
C17 C 0.5054(2) 1.2319(2) 1.0041(2)
H11 H 0.5854 1.2052 1.0460
C18 C 0.1044(2) 0.3469(2) 0.3078(2)
H12 H 0.0826 0.2555 0.2466
C19 C 0.2260(2) 1.0049(2) 0.0634(2)
H13 H 0.2622 1.0593 0.0207
C20 C 0.0693(3) 0.8157(3) 0.0559(2)
H14 H -0.0042 0.7339 0.0076
C21 C 0.3532(3) 1.5758(2) 1.2089(2)
H15 H 0.3031 1.6493 1.2391
H16 H 0.4555 1.6163 1.2223
H17 H 0.3471 1.5151 1.2570
C22 C 0.1180(2) 0.8531(2) 0.1897(2)
H18 H 0.0762 0.7991 0.2302
loop_
_geom_bond_atom_site_label_1
_geom_bond_atom_site_label_2
_geom_bond_site_symmetry_1
_geom_bond_site_symmetry_2
O1 C5 1_555 1_555
O2 C5 1_555 1_555
N1 N2 1_555 1_555
C1 C2 1_555 1_555
C2 C4 1_555 1_555
C3 C5 1_555 1_555
C4 H1 1_555 1_555
O3 C1 1_555 1_555
C6 O1 1_555 1_555
H2 C6 1_555 1_555
N2 N3 1_555 1_555
C7 N1 1_555 1_555
C8 C3 1_555 1_555
H3 C8 1_555 1_555
C9 N1 1_555 1_555
H4 C9 1_555 1_555
H5 C9 1_555 1_555
C10 C7 1_555 1_555
H6 C10 1_555 1_555
N3 C11 1_555 1_555
O4 C13 1_555 1_555
C11 C7 1_555 1_555
C12 C2 1_555 1_555
H7 C12 1_555 1_555
C13 C4 1_555 1_555
N4 C19 1_555 1_555
C14 C13 1_555 1_555
H8 C14 1_555 1_555
C15 C11 1_555 1_555
H9 C15 1_555 1_555
C16 C10 1_555 1_555
H10 C16 1_555 1_555
C17 C12 1_555 1_555
H11 C17 1_555 1_555
C18 C15 1_555 1_555
H12 C18 1_555 1_555
C19 C8 1_555 1_555
H13 C19 1_555 1_555
C20 N4 1_555 1_555
H14 C20 1_555 1_555
C21 O4 1_555 1_555
H15 C21 1_555 1_555
H16 C21 1_555 1_555
H17 C21 1_555 1_555
C22 C3 1_555 1_555
H18 C22 1_555 1_555
C1 C6 1_555 1_555
C6 C9 1_555 1_555
C14 C17 1_555 1_555
C16 C18 1_555 1_555
C20 C22 1_555 1_555

#END
