
#######################################################################
#
#                 Cambridge Crystallographic Data Centre
#                                CCDC 
#
#######################################################################
#
# If this CIF has been generated from an entry in the Cambridge 
# Structural Database, then it will include bibliographic, chemical, 
# crystal, experimental, refinement or atomic coordinate data resulting 
# from the CCDC's data processing and validation procedures.
#
#######################################################################

data_ROMNIR
_chemical_formula_moiety         'C18 H18 N4 O2'
_chemical_name_systematic        
4-(4-(4-Nitrophenyldiazenyl)phenyl)hexanenitrile
_symmetry_cell_setting           monoclinic
_symmetry_space_group_name_H-M   'P 21/c'
_symmetry_Int_Tables_number      14
_space_group_name_Hall           '-P 2ybc'
loop_
_symmetry_equiv_pos_site_id
_symmetry_equiv_pos_as_xyz
1 x,y,z
2 -x,1/2+y,1/2-z
3 -x,-y,-z
4 x,1/2-y,1/2+z
_cell_length_a                   20.113(4)
_cell_length_b                   10.590(2)
_cell_length_c                   7.6820(15)
_cell_angle_alpha                90
_cell_angle_beta                 94.78(3)
_cell_angle_gamma                90
_cell_volume                     1630.55
_exptl_crystal_colour            red
_exptl_crystal_description       block
_cell_formula_units_Z            4
_exptl_crystal_recrystallization_method ethanol
loop_
_atom_site_label
_atom_site_type_symbol
_atom_site_fract_x
_atom_site_fract_y
_atom_site_fract_z
N1 N 0.4653(3) -0.1899(5) 0.4255(7)
C1 C 0.4327(3) -0.1281(7) 0.4966(8)
O1 O -0.27421(18) 0.0779(4) 0.7659(5)
O2 O -0.25317(17) 0.2141(3) 0.9614(5)
N2 N 0.07709(17) 0.1393(3) 0.8661(4)
N3 N 0.03734(18) 0.0691(3) 0.7775(4)
N4 N -0.2356(2) 0.1355(4) 0.8566(6)
C2 C 0.3903(2) -0.0199(5) 0.5602(7)
H1 H 0.4142 0.0597 0.5607
H2 H 0.3493 -0.0113 0.4853
C3 C 0.3747(2) -0.0512(5) 0.7350(7)
H3 H 0.4143 -0.0822 0.8022
H4 H 0.3411 -0.1171 0.7309
C4 C 0.4104(3) 0.0772(6) 1.1039(8)
H5 H 0.4447 0.1228 1.1719
H6 H 0.4239 -0.0091 1.0920
H7 H 0.3698 0.0801 1.1613
C5 C 0.3989(2) 0.1368(5) 0.9246(7)
H8 H 0.3851 0.2240 0.9360
H9 H 0.4400 0.1358 0.8671
C6 C 0.3485(2) 0.0682(5) 0.8228(7)
H10 H 0.3520 0.1208 0.7190
C7 C 0.2832(2) 0.0858(4) 0.8230(6)
C8 C 0.2566(2) 0.1767(4) 0.9332(5)
H11 H 0.2857 0.2281 1.0017
C9 C 0.1910(2) 0.1910(4) 0.9421(5)
H12 H 0.1763 0.2521 1.0169
C10 C 0.1431(2) 0.1179(4) 0.8435(5)
C11 C 0.1685(2) 0.0266(4) 0.7336(5)
H13 H 0.1390 -0.0263 0.6687
C12 C 0.2337(2) 0.0142(4) 0.7206(5)
H14 H 0.2479 -0.0439 0.6408
C13 C -0.0292(2) 0.0918(4) 0.8074(5)
C14 C -0.0524(2) 0.1820(4) 0.9173(5)
H15 H -0.0223 0.2352 0.9798
C15 C -0.1198(2) 0.1937(4) 0.9352(6)
H16 H -0.1348 0.2540 1.0108
C16 C -0.1639(2) 0.1184(4) 0.8440(5)
C17 C -0.1442(2) 0.0243(4) 0.7373(6)
H17 H -0.1753 -0.0289 0.6783
C18 C -0.0770(2) 0.0112(4) 0.7203(5)
H18 H -0.0627 -0.0528 0.6493
loop_
_geom_bond_atom_site_label_1
_geom_bond_atom_site_label_2
_geom_bond_site_symmetry_1
_geom_bond_site_symmetry_2
N1 C1 1_555 1_555
C1 C2 1_555 1_555
O1 N4 1_555 1_555
O2 N4 1_555 1_555
N2 N3 1_555 1_555
N3 C13 1_555 1_555
N4 C16 1_555 1_555
C2 H1 1_555 1_555
H2 C2 1_555 1_555
C3 C2 1_555 1_555
H3 C3 1_555 1_555
H4 C3 1_555 1_555
C4 H5 1_555 1_555
H6 C4 1_555 1_555
H7 C4 1_555 1_555
C5 C4 1_555 1_555
H8 C5 1_555 1_555
H9 C5 1_555 1_555
C6 C3 1_555 1_555
H10 C6 1_555 1_555
C7 C6 1_555 1_555
C8 C7 1_555 1_555
H11 C8 1_555 1_555
C9 C8 1_555 1_555
H12 C9 1_555 1_555
C10 N2 1_555 1_555
C11 C10 1_555 1_555
H13 C11 1_555 1_555
C12 C7 1_555 1_555
H14 C12 1_555 1_555
C13 C14 1_555 1_555
C14 H15 1_555 1_555
C15 C14 1_555 1_555
H16 C15 1_555 1_555
C16 C15 1_555 1_555
C17 C16 1_555 1_555
H17 C17 1_555 1_555
C18 C13 1_555 1_555
H18 C18 1_555 1_555
C5 C6 1_555 1_555
C9 C10 1_555 1_555
C11 C12 1_555 1_555
C17 C18 1_555 1_555

#END
