
#######################################################################
#
#                 Cambridge Crystallographic Data Centre
#                                CCDC 
#
#######################################################################
#
# If this CIF has been generated from an entry in the Cambridge 
# Structural Database, then it will include bibliographic, chemical, 
# crystal, experimental, refinement or atomic coordinate data resulting 
# from the CCDC's data processing and validation procedures.
#
#######################################################################

data_ROMYOI
_chemical_formula_moiety         'C41 H26 N2 O8'
_chemical_name_systematic        
'Propane-1,2-diyl bis(2-(1,8-naphthalimido)benzoate)'
_symmetry_cell_setting           monoclinic
_symmetry_space_group_name_H-M   'C 2'
_symmetry_Int_Tables_number      5
_space_group_name_Hall           'C 2y'
loop_
_symmetry_equiv_pos_site_id
_symmetry_equiv_pos_as_xyz
1 x,y,z
2 -x,y,-z
3 1/2+x,1/2+y,z
4 1/2-x,1/2+y,-z
_cell_length_a                   16.9672(9)
_cell_length_b                   8.0833(3)
_cell_length_c                   25.0204(5)
_cell_angle_alpha                90
_cell_angle_beta                 116.312(3)
_cell_angle_gamma                90
_cell_volume                     3076.04
_exptl_crystal_colour            colorless
_exptl_crystal_description       plate
_cell_formula_units_Z            4
loop_
_atom_site_label
_atom_site_type_symbol
_atom_site_fract_x
_atom_site_fract_y
_atom_site_fract_z
N1 N 0.6699(4) 1.1290(9) 0.3575(3)
C1 C 0.7596(5) 0.9247(12) 0.3403(3)
C2 C 0.8429(5) 0.8609(12) 0.3548(4)
H1 H 0.8929 0.9007 0.3869
C3 C 0.8517(7) 0.7275(14) 0.3185(4)
H2 H 0.9059 0.6795 0.3274
C4 C 0.7797(7) 0.6719(11) 0.2709(4)
H3 H 0.7849 0.5869 0.2476
C5 C 0.6185(7) 0.6825(13) 0.2045(4)
H4 H 0.6246 0.6006 0.1805
C6 C 0.5396(5) 0.7458(11) 0.1913(4)
H5 H 0.4906 0.7077 0.1581
C7 C 0.5291(6) 0.8726(13) 0.2264(4)
H6 H 0.4740 0.9174 0.2172
C8 C 0.6003(5) 0.9300(11) 0.2759(3)
C9 C 0.6867(5) 0.8667(10) 0.2910(3)
C10 C 0.6958(6) 0.7340(11) 0.2561(3)
C11 C 0.7553(5) 1.0684(10) 0.3743(3)
C12 C 0.5901(5) 1.0638(12) 0.3127(4)
O1 O 0.8175(4) 1.1293(10) 0.4153(2)
O2 O 0.5208(4) 1.1129(10) 0.3072(3)
C13 C 0.6625(5) 1.2696(10) 0.3908(3)
C14 C 0.6350(7) 1.2558(13) 0.4354(5)
C15 C 0.6304(9) 1.3994(16) 0.4656(5)
H7 H 0.6108 1.3894 0.4947
C16 C 0.6541(7) 1.5513(12) 0.4520(4)
H8 H 0.6522 1.6448 0.4731
C17 C 0.6808(7) 1.5645(13) 0.4089(4)
H9 H 0.6962 1.6673 0.3997
C18 C 0.6858(6) 1.4236(11) 0.3769(4)
H10 H 0.7049 1.4331 0.3474
C19 C 0.6096(9) 1.0919(16) 0.4497(6)
O3 O 0.6288(4) 0.9599(8) 0.4391(3)
O7 O 0.6042(7) 1.1285(13) 0.5074(4)
C39 C 0.5945(8) 0.9758(16) 0.5374(6)
C40 C 0.5004(8) 0.9548(18) 0.4806(6)
N1A N 0.3301(4) 1.1290(9) 0.6425(3)
C1A C 0.2404(5) 0.9247(12) 0.6597(3)
C2A C 0.1571(5) 0.8609(12) 0.6452(4)
H1A H 0.1071 0.9007 0.6131
C3A C 0.1483(7) 0.7275(14) 0.6815(4)
H2A H 0.0941 0.6795 0.6726
C4A C 0.2203(7) 0.6719(11) 0.7291(4)
H3A H 0.2151 0.5869 0.7524
C5A C 0.3815(7) 0.6825(13) 0.7955(4)
H4A H 0.3754 0.6006 0.8195
C6A C 0.4604(5) 0.7458(11) 0.8087(4)
H5A H 0.5094 0.7077 0.8419
C7A C 0.4709(6) 0.8726(13) 0.7736(4)
H6A H 0.5260 0.9174 0.7828
C8A C 0.3997(5) 0.9300(11) 0.7241(3)
C9A C 0.3133(5) 0.8667(10) 0.7090(3)
C10A C 0.3042(6) 0.7340(11) 0.7439(3)
C11A C 0.2447(5) 1.0684(10) 0.6257(3)
C12A C 0.4099(5) 1.0638(12) 0.6873(4)
O1A O 0.1825(4) 1.1293(10) 0.5847(2)
O2A O 0.4792(4) 1.1129(10) 0.6928(3)
C13A C 0.3375(5) 1.2696(10) 0.6092(3)
C14A C 0.3650(7) 1.2558(13) 0.5646(5)
C15A C 0.3696(9) 1.3994(16) 0.5344(5)
H7A H 0.3892 1.3894 0.5053
C16A C 0.3459(7) 1.5513(12) 0.5480(4)
H8A H 0.3478 1.6448 0.5269
C17A C 0.3192(7) 1.5645(13) 0.5911(4)
H9A H 0.3038 1.6673 0.6003
C18A C 0.3142(6) 1.4236(11) 0.6231(4)
H10A H 0.2951 1.4331 0.6526
C19A C 0.3904(9) 1.0919(16) 0.5503(6)
O3A O 0.3712(4) 0.9599(8) 0.5609(3)
O7A O 0.3958(7) 1.1285(13) 0.4926(4)
C39A C 0.4055(8) 0.9758(16) 0.4626(6)
C40A C 0.4996(8) 0.9548(18) 0.5194(6)
N2 N 0.3229(5) 0.2931(10) 0.1435(3)
C20 C 0.3891(5) 0.4913(10) 0.2252(3)
C21 C 0.4615(6) 0.5475(14) 0.2752(4)
H11 H 0.5168 0.5033 0.2849
C22 C 0.4551(6) 0.6672(15) 0.3108(4)
H12 H 0.5037 0.6976 0.3456
C23 C 0.3727(6) 0.7409(14) 0.2959(4)
H13 H 0.3698 0.8301 0.3184
C24 C 0.2103(6) 0.7475(17) 0.2302(4)
H14 H 0.2017 0.8306 0.2528
C25 C 0.1413(6) 0.6886(13) 0.1821(4)
H15 H 0.0851 0.7281 0.1724
C26 C 0.1497(6) 0.5629(15) 0.1474(4)
H16 H 0.1015 0.5232 0.1140
C27 C 0.2307(5) 0.5005(12) 0.1614(3)
C28 C 0.3062(6) 0.5606(13) 0.2110(4)
C29 C 0.2975(6) 0.6854(12) 0.2471(4)
C30 C 0.4000(5) 0.3579(12) 0.1887(3)
C31 C 0.2408(5) 0.3601(16) 0.1272(4)
O4 O 0.4710(4) 0.3039(9) 0.1955(2)
O5 O 0.1765(4) 0.2985(12) 0.0839(2)
C32 C 0.3318(5) 0.1532(13) 0.1098(4)
C33 C 0.3655(7) 0.1701(12) 0.0688(4)
C34 C 0.3706(7) 0.0307(11) 0.0381(4)
H17 H 0.3972 0.0360 0.0126
C35 C 0.3395(7) -0.1224(15) 0.0456(4)
H18 H 0.3406 -0.2138 0.0233
C36 C 0.3039(5) -0.1346(12) 0.0867(4)
H19 H 0.2836 -0.2363 0.0928
C37 C 0.3004(5) 0.0026(12) 0.1169(4)
H20 H 0.2767 -0.0056 0.1439
C38 C 0.4008(9) 0.3321(13) 0.0594(5)
O6 O 0.3830(5) 0.4663(9) 0.0717(3)
O9 O 0.4232(7) 0.3115(12) 0.0144(4)
C42 C 0.4647(9) 0.4620(15) 0.0044(6)
C44 C 0.5578(12) 0.466(3) 0.0563(9)
N2A N 0.6771(5) 0.2931(10) -0.1435(3)
C20A C 0.6109(5) 0.4913(10) -0.2252(3)
C21A C 0.5385(6) 0.5475(14) -0.2752(4)
H11A H 0.4832 0.5033 -0.2849
C22A C 0.5449(6) 0.6672(15) -0.3108(4)
H12A H 0.4963 0.6976 -0.3456
C23A C 0.6273(6) 0.7409(14) -0.2959(4)
H13A H 0.6302 0.8301 -0.3184
C24A C 0.7897(6) 0.7475(17) -0.2302(4)
H14A H 0.7983 0.8306 -0.2528
C25A C 0.8587(6) 0.6886(13) -0.1821(4)
H15A H 0.9149 0.7281 -0.1724
C26A C 0.8503(6) 0.5629(15) -0.1474(4)
H16A H 0.8985 0.5232 -0.1140
C27A C 0.7693(5) 0.5005(12) -0.1614(3)
C28A C 0.6938(6) 0.5606(13) -0.2110(4)
C29A C 0.7025(6) 0.6854(12) -0.2471(4)
C30A C 0.6000(5) 0.3579(12) -0.1887(3)
C31A C 0.7592(5) 0.3601(16) -0.1272(4)
O4A O 0.5290(4) 0.3039(9) -0.1955(2)
O5A O 0.8235(4) 0.2985(12) -0.0839(2)
C32A C 0.6682(5) 0.1532(13) -0.1098(4)
C33A C 0.6345(7) 0.1701(12) -0.0688(4)
C34A C 0.6294(7) 0.0307(11) -0.0381(4)
H17A H 0.6028 0.0360 -0.0126
C35A C 0.6605(7) -0.1224(15) -0.0456(4)
H18A H 0.6594 -0.2138 -0.0233
C36A C 0.6961(5) -0.1346(12) -0.0867(4)
H19A H 0.7164 -0.2363 -0.0928
C37A C 0.6996(5) 0.0026(12) -0.1169(4)
H20A H 0.7233 -0.0056 -0.1439
C38A C 0.5992(9) 0.3321(13) -0.0594(5)
O6A O 0.6170(5) 0.4663(9) -0.0717(3)
O9A O 0.5768(7) 0.3115(12) -0.0144(4)
C42A C 0.5353(9) 0.4620(15) -0.0044(6)
C44A C 0.4422(12) 0.466(3) -0.0563(9)
O8? O 0.5336(7) 1.1012(15) 0.4615(5)
O10? O 0.4828(7) 0.3108(13) 0.0573(4)
H21? H 0.6257 0.9912 0.5798
H22? H 0.6178 0.8796 0.5270
H23? H 0.5066 0.8626 0.4586
C41? C 0.5573(12) 0.919(3) 0.5469(7)
H24? H 0.5227 0.9436 0.5675
H25? H 0.6092 0.9863 0.5632
H26? H 0.5728 0.8035 0.5527
H27? H 0.4320 0.5581 0.0051
C43? C 0.5312(17) 0.459(3) 0.0532(8)
H28? H 0.5911 0.4443 0.0823
H29? H 0.5095 0.5588 0.0629
H30? H 0.5895 0.3671 0.0568
H31? H 0.5550 0.4759 0.0936
H32? H 0.5888 0.5598 0.0515
loop_
_geom_bond_atom_site_label_1
_geom_bond_atom_site_label_2
_geom_bond_site_symmetry_1
_geom_bond_site_symmetry_2
N1 C11 1_555 1_555
C1 C2 1_555 1_555
C2 H1 1_555 1_555
C3 C2 1_555 1_555
H2 C3 1_555 1_555
C4 C3 1_555 1_555
H3 C4 1_555 1_555
C5 H4 1_555 1_555
C6 C5 1_555 1_555
H5 C6 1_555 1_555
C7 C6 1_555 1_555
H6 C7 1_555 1_555
C8 C7 1_555 1_555
C9 C1 1_555 1_555
C10 C4 1_555 1_555
C11 C1 1_555 1_555
C12 N1 1_555 1_555
O1 C11 1_555 1_555
O2 C12 1_555 1_555
C13 N1 1_555 1_555
C14 C13 1_555 1_555
C15 C14 1_555 1_555
H7 C15 1_555 1_555
C16 C15 1_555 1_555
H8 C16 1_555 1_555
C17 C16 1_555 1_555
H9 C17 1_555 1_555
C18 C13 1_555 1_555
H10 C18 1_555 1_555
C19 C14 1_555 1_555
O3 C19 1_555 1_555
N2 C30 1_555 1_555
C20 C21 1_555 1_555
C21 H11 1_555 1_555
C22 C21 1_555 1_555
H12 C22 1_555 1_555
C23 C22 1_555 1_555
H13 C23 1_555 1_555
C24 H14 1_555 1_555
C25 C24 1_555 1_555
H15 C25 1_555 1_555
C26 C25 1_555 1_555
H16 C26 1_555 1_555
C27 C26 1_555 1_555
C28 C20 1_555 1_555
C29 C23 1_555 1_555
C30 C20 1_555 1_555
C31 N2 1_555 1_555
O4 C30 1_555 1_555
O5 C31 1_555 1_555
C32 N2 1_555 1_555
C33 C32 1_555 1_555
C34 C33 1_555 1_555
H17 C34 1_555 1_555
C35 C34 1_555 1_555
H18 C35 1_555 1_555
C36 C35 1_555 1_555
H19 C36 1_555 1_555
C37 C32 1_555 1_555
H20 C37 1_555 1_555
C38 C33 1_555 1_555
O6 C38 1_555 1_555
O7 C19 1_555 1_555
O9 C38 1_555 1_555
C39 O7 1_555 1_555
C40 C39 1_555 1_555
C42 O9 1_555 1_555
C44 C42 1_555 1_555
N1A C11A 1_555 1_555
C1A C2A 1_555 1_555
C2A H1A 1_555 1_555
C3A C2A 1_555 1_555
H2A C3A 1_555 1_555
C4A C3A 1_555 1_555
H3A C4A 1_555 1_555
C5A H4A 1_555 1_555
C6A C5A 1_555 1_555
H5A C6A 1_555 1_555
C7A C6A 1_555 1_555
H6A C7A 1_555 1_555
C8A C7A 1_555 1_555
C9A C1A 1_555 1_555
C10A C4A 1_555 1_555
C11A C1A 1_555 1_555
C12A N1A 1_555 1_555
O1A C11A 1_555 1_555
O2A C12A 1_555 1_555
C13A N1A 1_555 1_555
C14A C13A 1_555 1_555
C15A C14A 1_555 1_555
H7A C15A 1_555 1_555
C16A C15A 1_555 1_555
H8A C16A 1_555 1_555
C17A C16A 1_555 1_555
H9A C17A 1_555 1_555
C18A C13A 1_555 1_555
H10A C18A 1_555 1_555
C19A C14A 1_555 1_555
O3A C19A 1_555 1_555
N2A C30A 1_555 1_555
C20A C21A 1_555 1_555
C21A H11A 1_555 1_555
C22A C21A 1_555 1_555
H12A C22A 1_555 1_555
C23A C22A 1_555 1_555
H13A C23A 1_555 1_555
C24A H14A 1_555 1_555
C25A C24A 1_555 1_555
H15A C25A 1_555 1_555
C26A C25A 1_555 1_555
H16A C26A 1_555 1_555
C27A C26A 1_555 1_555
C28A C20A 1_555 1_555
C29A C23A 1_555 1_555
C30A C20A 1_555 1_555
C31A N2A 1_555 1_555
O4A C30A 1_555 1_555
O5A C31A 1_555 1_555
C32A N2A 1_555 1_555
C33A C32A 1_555 1_555
C34A C33A 1_555 1_555
H17A C34A 1_555 1_555
C35A C34A 1_555 1_555
H18A C35A 1_555 1_555
C36A C35A 1_555 1_555
H19A C36A 1_555 1_555
C37A C32A 1_555 1_555
H20A C37A 1_555 1_555
C38A C33A 1_555 1_555
O6A C38A 1_555 1_555
O7A C19A 1_555 1_555
O9A C38A 1_555 1_555
C39A C40 1_555 1_555
C40A C39 1_555 1_555
C42A C42 1_555 1_555
C44A C42 1_555 1_555
C5 C10 1_555 1_555
C8 C9 1_555 1_555
C8 C12 1_555 1_555
C9 C10 1_555 1_555
C17 C18 1_555 1_555
C24 C29 1_555 1_555
C27 C28 1_555 1_555
C27 C31 1_555 1_555
C28 C29 1_555 1_555
C36 C37 1_555 1_555
C40 C40A 1_555 1_555
C44 C42A 1_555 1_555
C5A C10A 1_555 1_555
C8A C9A 1_555 1_555
C8A C12A 1_555 1_555
C9A C10A 1_555 1_555
C17A C18A 1_555 1_555
C24A C29A 1_555 1_555
C27A C28A 1_555 1_555
C27A C31A 1_555 1_555
C28A C29A 1_555 1_555
C36A C37A 1_555 1_555
O7A C39A 1_555 1_555
O9A C42A 1_555 1_555
C39A C40A 1_555 1_555
C42A C44A 1_555 1_555

#END
