
#######################################################################
#
#                 Cambridge Crystallographic Data Centre
#                                CCDC 
#
#######################################################################
#
# If this CIF has been generated from an entry in the Cambridge 
# Structural Database, then it will include bibliographic, chemical, 
# crystal, experimental, refinement or atomic coordinate data resulting 
# from the CCDC's data processing and validation procedures.
#
#######################################################################

data_ROMYOJ
_chemical_formula_moiety         'C40 H33 N5 O5'
_chemical_name_systematic        
"Diethyl 1,5'-dibenzyl-4',4'-dicyano-2-oxo-1,2,4a',5'-tetrahydro-4'H-spiro[indole-3,3'-pyrido[1,2-a]benzimidazole]-1',2'-dicarboxylate"
_symmetry_cell_setting           triclinic
_symmetry_space_group_name_H-M   'P -1'
_symmetry_Int_Tables_number      2
_space_group_name_Hall           '-P 1'
loop_
_symmetry_equiv_pos_site_id
_symmetry_equiv_pos_as_xyz
1 x,y,z
2 -x,-y,-z
_cell_length_a                   12.5511(14)
_cell_length_b                   12.7332(15)
_cell_length_c                   13.1450(16)
_cell_angle_alpha                67.466(3)
_cell_angle_beta                 68.269(3)
_cell_angle_gamma                68.708(3)
_cell_volume                     1741.54
_exptl_crystal_colour            yellow
_exptl_crystal_description       block
_cell_formula_units_Z            2
loop_
_atom_site_label
_atom_site_type_symbol
_atom_site_fract_x
_atom_site_fract_y
_atom_site_fract_z
C1 C 0.2362(3) -0.0745(3) 0.4472(2)
H1 H 0.2021 0.0024 0.4101
C2 C 0.1809(4) -0.1262(4) 0.5599(3)
H2 H 0.1098 -0.0837 0.5978
C3 C 0.2299(5) -0.2382(5) 0.6149(3)
H3 H 0.1921 -0.2725 0.6900
C4 C 0.3340(5) -0.3000(4) 0.5604(3)
H4 H 0.3677 -0.3766 0.5985
C5 C 0.3906(3) -0.2500(3) 0.4488(3)
H5 H 0.4626 -0.2929 0.4124
C6 C 0.3409(2) -0.1366(2) 0.3907(2)
C7 C 0.4022(2) -0.08815(18) 0.26724(19)
H6 H 0.4873 -0.1186 0.2566
H7 H 0.3804 -0.1164 0.2207
C8 C 0.35617(17) 0.09713(17) 0.11297(16)
H8 H 0.4010 0.0445 0.0645
C9 C 0.45699(17) 0.19750(17) 0.14744(17)
C10 C 0.5196(2) 0.2689(2) 0.1423(2)
H9 H 0.5293 0.3355 0.0807
C11 C 0.5681(2) 0.2381(2) 0.2325(2)
H10 H 0.6116 0.2846 0.2307
C12 C 0.5531(2) 0.1407(2) 0.3240(2)
H11 H 0.5870 0.1218 0.3829
C13 C 0.4880(2) 0.0700(2) 0.32973(18)
H12 H 0.4766 0.0046 0.3923
C14 C 0.44063(18) 0.09922(17) 0.24034(17)
C15 C 0.37065(18) 0.28857(17) -0.02346(17)
C16 C 0.4381(2) 0.3825(2) -0.07574(19)
C17 C 0.6122(2) 0.4328(3) -0.2082(3)
H13 H 0.5657 0.5043 -0.2501
H14 H 0.6345 0.4521 -0.1556
C18 C 0.7187(3) 0.3825(4) -0.2877(3)
H15 H 0.7594 0.3074 -0.2467
H16 H 0.7701 0.4344 -0.3233
H17 H 0.6962 0.3729 -0.3453
C19 C 0.28569(18) 0.29347(17) -0.06666(17)
C20 C 0.2733(2) 0.38213(19) -0.17663(19)
C21 C 0.1627(3) 0.4683(2) -0.3151(2)
H18 H 0.2275 0.4567 -0.3821
H19 H 0.1513 0.5455 -0.3092
C22 C 0.0527(3) 0.4598(3) -0.3254(3)
H20 H 0.0654 0.3839 -0.3332
H21 H 0.0320 0.5200 -0.3915
H22 H -0.0106 0.4701 -0.2582
C23 C 0.22258(17) 0.13897(17) 0.11451(16)
C24 C 0.1588(2) 0.2151(2) 0.19057(19)
C25 C 0.1740(2) 0.0358(2) 0.15936(19)
C26 C 0.25256(19) 0.11426(18) -0.07691(17)
C27 C 0.20913(17) 0.20690(17) -0.01009(16)
C28 C 0.07856(18) 0.25391(18) -0.00797(17)
C29 C -0.0106(2) 0.3385(2) 0.0372(2)
H23 H 0.0051 0.3803 0.0721
C30 C -0.1244(2) 0.3603(3) 0.0297(2)
H24 H -0.1857 0.4172 0.0600
C31 C -0.1472(2) 0.2987(3) -0.0220(3)
H25 H -0.2244 0.3135 -0.0248
C32 C -0.0583(2) 0.2152(3) -0.0701(2)
H26 H -0.0740 0.1744 -0.1062
C33 C 0.05424(19) 0.1947(2) -0.06268(18)
C34 C 0.1711(3) 0.0500(2) -0.1816(2)
H27 H 0.1022 0.0194 -0.1555
H28 H 0.2406 -0.0163 -0.1784
C35 C 0.1827(2) 0.1269(2) -0.3045(2)
C36 C 0.2765(2) 0.1772(2) -0.3627(2)
H29 H 0.3317 0.1661 -0.3255
C37 C 0.2900(3) 0.2439(3) -0.4753(2)
H30 H 0.3546 0.2766 -0.5137
C38 C 0.2091(3) 0.2623(3) -0.5307(3)
H31 H 0.2185 0.3072 -0.6068
C39 C 0.1153(3) 0.2150(3) -0.4748(3)
H32 H 0.0598 0.2279 -0.5124
C40 C 0.1015(3) 0.1474(3) -0.3617(2)
H33 H 0.0365 0.1154 -0.3239
N1 N 0.37382(15) 0.04067(14) 0.22640(14)
N2 N 0.40141(14) 0.20095(14) 0.06918(14)
N3 N 0.1122(2) 0.2745(2) 0.2486(2)
N4 N 0.1415(2) -0.0458(2) 0.1885(2)
N5 N 0.15909(16) 0.11467(16) -0.10482(15)
O1 O 0.40286(15) 0.47294(14) -0.05149(15)
O2 O 0.54239(14) 0.34580(14) -0.14498(14)
O3 O 0.33118(19) 0.45297(18) -0.22800(16)
O4 O 0.19039(16) 0.37741(14) -0.21254(14)
O5 O 0.35341(14) 0.05270(14) -0.09837(13)
loop_
_geom_bond_atom_site_label_1
_geom_bond_atom_site_label_2
_geom_bond_site_symmetry_1
_geom_bond_site_symmetry_2
C1 H1 1_555 1_555
C2 C1 1_555 1_555
H2 C2 1_555 1_555
C3 C2 1_555 1_555
H3 C3 1_555 1_555
C4 C3 1_555 1_555
H4 C4 1_555 1_555
C5 C4 1_555 1_555
H5 C5 1_555 1_555
C6 C1 1_555 1_555
C7 C6 1_555 1_555
H6 C7 1_555 1_555
H7 C7 1_555 1_555
C8 H8 1_555 1_555
C9 C10 1_555 1_555
C10 H9 1_555 1_555
C11 C10 1_555 1_555
H10 C11 1_555 1_555
C12 C11 1_555 1_555
H11 C12 1_555 1_555
C13 C12 1_555 1_555
H12 C13 1_555 1_555
C14 C9 1_555 1_555
C15 C16 1_555 1_555
C16 O1 1_555 1_555
C17 H13 1_555 1_555
H14 C17 1_555 1_555
C18 C17 1_555 1_555
H15 C18 1_555 1_555
H16 C18 1_555 1_555
H17 C18 1_555 1_555
C19 C15 1_555 1_555
C20 C19 1_555 1_555
C21 H18 1_555 1_555
H19 C21 1_555 1_555
C22 C21 1_555 1_555
H20 C22 1_555 1_555
H21 C22 1_555 1_555
H22 C22 1_555 1_555
C23 C8 1_555 1_555
C24 C23 1_555 1_555
C25 C23 1_555 1_555
C26 C27 1_555 1_555
C27 C19 1_555 1_555
C28 C27 1_555 1_555
C29 C28 1_555 1_555
H23 C29 1_555 1_555
C30 C29 1_555 1_555
H24 C30 1_555 1_555
C31 C30 1_555 1_555
H25 C31 1_555 1_555
C32 C31 1_555 1_555
H26 C32 1_555 1_555
C33 C28 1_555 1_555
C34 H27 1_555 1_555
H28 C34 1_555 1_555
C35 C34 1_555 1_555
C36 C35 1_555 1_555
H29 C36 1_555 1_555
C37 C36 1_555 1_555
H30 C37 1_555 1_555
C38 C37 1_555 1_555
H31 C38 1_555 1_555
C39 C38 1_555 1_555
H32 C39 1_555 1_555
C40 C35 1_555 1_555
H33 C40 1_555 1_555
N1 C7 1_555 1_555
N2 C8 1_555 1_555
N3 C24 1_555 1_555
N4 C25 1_555 1_555
N5 C26 1_555 1_555
O2 C16 1_555 1_555
O3 C20 1_555 1_555
O4 C20 1_555 1_555
O5 C26 1_555 1_555
C5 C6 1_555 1_555
C8 N1 1_555 1_555
C9 N2 1_555 1_555
C13 C14 1_555 1_555
C14 N1 1_555 1_555
C15 N2 1_555 1_555
C17 O2 1_555 1_555
C21 O4 1_555 1_555
C23 C27 1_555 1_555
C32 C33 1_555 1_555
C33 N5 1_555 1_555
C34 N5 1_555 1_555
C39 C40 1_555 1_555

#END
