
#######################################################################
#
#                 Cambridge Crystallographic Data Centre
#                                CCDC 
#
#######################################################################
#
# If this CIF has been generated from an entry in the Cambridge 
# Structural Database, then it will include bibliographic, chemical, 
# crystal, experimental, refinement or atomic coordinate data resulting 
# from the CCDC's data processing and validation procedures.
#
#######################################################################

data_ROMYAU
_chemical_formula_moiety         'C15 H11 F1 O2'
_chemical_name_systematic        
1-(4-Fluorophenyl)-3-hydroxy-3-phenylprop-2-en-1-one
_symmetry_cell_setting           monoclinic
_symmetry_space_group_name_H-M   'P 21/c'
_symmetry_Int_Tables_number      14
_space_group_name_Hall           '-P 2ybc'
loop_
_symmetry_equiv_pos_site_id
_symmetry_equiv_pos_as_xyz
1 x,y,z
2 -x,1/2+y,1/2-z
3 -x,-y,-z
4 x,1/2-y,1/2+z
_cell_length_a                   11.8526(5)
_cell_length_b                   11.7192(5)
_cell_length_c                   9.4164(4)
_cell_angle_alpha                90
_cell_angle_beta                 113.4050(10)
_cell_angle_gamma                90
_cell_volume                     1200.35
_exptl_crystal_colour            colorless
_exptl_crystal_description       plate
_chemical_melting_point          '351 K'
_cell_formula_units_Z            4
_exptl_crystal_recrystallization_method dichloromethane/ethanol
loop_
_atom_site_label
_atom_site_type_symbol
_atom_site_fract_x
_atom_site_fract_y
_atom_site_fract_z
C1 C 0.27135(19) 0.29172(18) 0.4883(2)
C2 C 0.29882(19) 0.17926(17) 0.4841(2)
H1 H 0.2565 0.1236 0.5136
C3 C 0.38951(19) 0.14902(16) 0.4358(2)
H2 H 0.4082 0.0722 0.4329
C4 C 0.45487(16) 0.23125(14) 0.39078(19)
C5 C 0.42305(18) 0.34513(15) 0.3965(2)
H3 H 0.4645 0.4018 0.3673
C6 C 0.33131(19) 0.37574(17) 0.4446(2)
H4 H 0.3106 0.4520 0.4473
C7 C 0.55320(17) 0.19568(14) 0.3396(2)
C8 C 0.63154(16) 0.27122(14) 0.3102(2)
H5 H 0.6220 0.3491 0.3208
C9 C 0.72513(17) 0.23318(15) 0.2648(2)
C10 C 0.81581(16) 0.30949(15) 0.2408(2)
C11 C 0.8874(2) 0.26895(18) 0.1647(2)
H6 H 0.8778 0.1941 0.1291
C12 C 0.9732(2) 0.3393(2) 0.1414(3)
H7 H 1.0190 0.3116 0.0883
C13 C 0.99055(19) 0.4487(2) 0.1958(3)
H8 H 1.0486 0.4952 0.1811
C14 C 0.92093(19) 0.48972(18) 0.2731(2)
H9 H 0.9329 0.5639 0.3112
C15 C 0.83398(19) 0.42134(17) 0.2941(2)
H10 H 0.7869 0.4505 0.3445
F1 F 0.18286(12) 0.32154(11) 0.53824(16)
O1 O 0.56461(14) 0.08669(11) 0.32400(18)
O2 O 0.73642(15) 0.12538(11) 0.24314(19)
H11 H 0.650(2) 0.087(2) 0.270(3)
loop_
_geom_bond_atom_site_label_1
_geom_bond_atom_site_label_2
_geom_bond_site_symmetry_1
_geom_bond_site_symmetry_2
C1 C2 1_555 1_555
C2 H1 1_555 1_555
C3 C2 1_555 1_555
H2 C3 1_555 1_555
C4 C3 1_555 1_555
C5 C4 1_555 1_555
H3 C5 1_555 1_555
C6 C1 1_555 1_555
H4 C6 1_555 1_555
C7 C4 1_555 1_555
C8 C7 1_555 1_555
H5 C8 1_555 1_555
C9 C8 1_555 1_555
C10 C9 1_555 1_555
C11 C10 1_555 1_555
H6 C11 1_555 1_555
C12 C11 1_555 1_555
H7 C12 1_555 1_555
C13 C12 1_555 1_555
H8 C13 1_555 1_555
C14 C13 1_555 1_555
H9 C14 1_555 1_555
C15 C10 1_555 1_555
H10 C15 1_555 1_555
F1 C1 1_555 1_555
O1 C7 1_555 1_555
O2 C9 1_555 1_555
H11 O2 1_555 1_555
C5 C6 1_555 1_555
C14 C15 1_555 1_555

#END
