
#######################################################################
#
#                 Cambridge Crystallographic Data Centre
#                                CCDC 
#
#######################################################################
#
# If this CIF has been generated from an entry in the Cambridge 
# Structural Database, then it will include bibliographic, chemical, 
# crystal, experimental, refinement or atomic coordinate data resulting 
# from the CCDC's data processing and validation procedures.
#
#######################################################################

data_ROMYID
_chemical_formula_moiety         'C35 H31 N5 O5'
_chemical_name_systematic        
"Dimethyl 5'-benzyl-1-butyl-3',3'-dicyano-2-oxo-1,2,4a',5'-tetrahydro-3'H-spiro[indole-3,4'-pyrido[1,2-a]benzimidazole]-1',2'-dicarboxylate"
_symmetry_cell_setting           triclinic
_symmetry_space_group_name_H-M   'P -1'
_symmetry_Int_Tables_number      2
_space_group_name_Hall           '-P 1'
loop_
_symmetry_equiv_pos_site_id
_symmetry_equiv_pos_as_xyz
1 x,y,z
2 -x,-y,-z
_cell_length_a                   9.8164(8)
_cell_length_b                   11.7401(10)
_cell_length_c                   14.2385(13)
_cell_angle_alpha                80.988(4)
_cell_angle_beta                 87.927(4)
_cell_angle_gamma                73.376(4)
_cell_volume                     1552.86
_exptl_crystal_colour            yellow
_exptl_crystal_description       block
_cell_formula_units_Z            2
loop_
_atom_site_label
_atom_site_type_symbol
_atom_site_fract_x
_atom_site_fract_y
_atom_site_fract_z
C1 C 0.1845(3) 0.1593(3) 0.4525(2)
H1 H 0.1307 0.1873 0.5036
C2 C 0.1803(4) 0.0528(3) 0.4251(3)
H2 H 0.1233 0.0090 0.4579
C3 C 0.2590(4) 0.0112(3) 0.3504(3)
H3 H 0.2555 -0.0607 0.3324
C4 C 0.3426(4) 0.0742(3) 0.3023(2)
H4 H 0.3965 0.0453 0.2515
C5 C 0.3477(3) 0.1810(3) 0.3287(2)
H5 H 0.4049 0.2241 0.2953
C6 C 0.2693(3) 0.2243(2) 0.40357(19)
C7 C 0.2724(3) 0.3404(2) 0.43591(19)
H6 H 0.1763 0.3937 0.4339
H7 H 0.3051 0.3227 0.5015
C8 C 0.3067(3) 0.5277(2) 0.33681(18)
H8 H 0.2470 0.5725 0.3831
N1 N 0.4363(2) 0.56804(18) 0.31935(14)
C9 C 0.5524(3) 0.4810(2) 0.36994(17)
C10 C 0.6899(3) 0.4815(2) 0.38572(18)
H9 H 0.7218 0.5474 0.3615
C11 C 0.7791(3) 0.3800(3) 0.43912(19)
H10 H 0.8726 0.3778 0.4504
C12 C 0.7315(3) 0.2834(3) 0.4753(2)
H11 H 0.7934 0.2167 0.5110
C13 C 0.5922(3) 0.2828(3) 0.4599(2)
H12 H 0.5600 0.2172 0.4848
C14 C 0.5045(3) 0.3824(2) 0.40654(18)
C15 C 0.4343(3) 0.6656(2) 0.25422(18)
C16 C 0.5717(3) 0.6998(3) 0.2426(2)
C17 C 0.6983(4) 0.8242(3) 0.2891(3)
H13 H 0.7832 0.7596 0.3056
H14 H 0.6892 0.8836 0.3299
H15 H 0.7036 0.8601 0.2241
C18 C 0.3201(3) 0.7288(2) 0.19884(18)
C19 C 0.3240(3) 0.8411(3) 0.1380(2)
C20 C 0.1925(5) 1.0154(3) 0.0413(3)
H16 H 0.2361 1.0629 0.0725
H17 H 0.0958 1.0599 0.0251
H18 H 0.2439 0.9963 -0.0156
C21 C 0.1849(3) 0.6882(2) 0.20674(19)
C22 C 0.0884(3) 0.7597(3) 0.2737(2)
C23 C 0.1095(3) 0.7089(2) 0.1145(2)
C24 C 0.0805(3) 0.5170(2) 0.2598(2)
C25 C 0.2233(3) 0.5483(2) 0.24438(18)
C26 C 0.2942(3) 0.4735(2) 0.17059(17)
C27 C 0.4290(3) 0.4497(2) 0.13198(18)
H19 H 0.4948 0.4858 0.1500
C28 C 0.4642(3) 0.3709(3) 0.0659(2)
H20 H 0.5548 0.3537 0.0400
C29 C 0.3669(4) 0.3177(3) 0.0381(2)
H21 H 0.3927 0.2659 -0.0067
C30 C 0.2318(3) 0.3403(3) 0.0759(2)
H22 H 0.1658 0.3052 0.0568
C31 C 0.1985(3) 0.4167(2) 0.14267(19)
C32 C -0.0555(3) 0.4099(3) 0.1793(2)
H23 H -0.0732 0.4209 0.1115
H24 H -0.1363 0.4626 0.2071
C33 C -0.0454(3) 0.2814(3) 0.2208(2)
H25 H -0.0262 0.2691 0.2885
H26 H 0.0329 0.2278 0.1917
C34 C -0.1825(3) 0.2512(3) 0.2043(3)
H27 H -0.2598 0.3040 0.2349
H28 H -0.2030 0.2670 0.1366
C35 C -0.1779(5) 0.1225(4) 0.2413(4)
H29 H -0.1019 0.0695 0.2113
H30 H -0.2666 0.1092 0.2274
H31 H -0.1621 0.1070 0.3089
N2 N 0.3634(2) 0.40286(18) 0.37891(15)
N3 N 0.0255(3) 0.8184(2) 0.3260(2)
N4 N 0.0491(3) 0.7183(2) 0.0464(2)
N5 N 0.0719(2) 0.44619(19) 0.19493(16)
O1 O 0.6638(2) 0.65712(19) 0.19020(14)
O2 O 0.5755(2) 0.77766(17) 0.30035(14)
O3 O 0.4294(2) 0.87397(18) 0.12124(15)
O4 O 0.1952(2) 0.90415(18) 0.10484(16)
O5 O -0.0080(2) 0.55252(18) 0.31885(14)
loop_
_geom_bond_atom_site_label_1
_geom_bond_atom_site_label_2
_geom_bond_site_symmetry_1
_geom_bond_site_symmetry_2
C1 H1 1_555 1_555
C2 C1 1_555 1_555
H2 C2 1_555 1_555
C3 C2 1_555 1_555
H3 C3 1_555 1_555
C4 C3 1_555 1_555
H4 C4 1_555 1_555
C5 C4 1_555 1_555
H5 C5 1_555 1_555
C6 C1 1_555 1_555
C7 C6 1_555 1_555
H6 C7 1_555 1_555
H7 C7 1_555 1_555
C8 H8 1_555 1_555
N1 C8 1_555 1_555
C9 N1 1_555 1_555
C10 C9 1_555 1_555
H9 C10 1_555 1_555
C11 C10 1_555 1_555
H10 C11 1_555 1_555
C12 C11 1_555 1_555
H11 C12 1_555 1_555
C13 C12 1_555 1_555
H12 C13 1_555 1_555
C14 C9 1_555 1_555
C15 N1 1_555 1_555
C16 C15 1_555 1_555
C17 H13 1_555 1_555
H14 C17 1_555 1_555
H15 C17 1_555 1_555
C18 C15 1_555 1_555
C19 C18 1_555 1_555
C20 H16 1_555 1_555
H17 C20 1_555 1_555
H18 C20 1_555 1_555
C21 C18 1_555 1_555
C22 C21 1_555 1_555
C23 C21 1_555 1_555
C24 C25 1_555 1_555
C25 C8 1_555 1_555
C26 C25 1_555 1_555
C27 C26 1_555 1_555
H19 C27 1_555 1_555
C28 C27 1_555 1_555
H20 C28 1_555 1_555
C29 C28 1_555 1_555
H21 C29 1_555 1_555
C30 C29 1_555 1_555
H22 C30 1_555 1_555
C31 C26 1_555 1_555
C32 H23 1_555 1_555
H24 C32 1_555 1_555
C33 C32 1_555 1_555
H25 C33 1_555 1_555
H26 C33 1_555 1_555
C34 C33 1_555 1_555
H27 C34 1_555 1_555
H28 C34 1_555 1_555
C35 C34 1_555 1_555
H29 C35 1_555 1_555
H30 C35 1_555 1_555
H31 C35 1_555 1_555
N2 C7 1_555 1_555
N3 C22 1_555 1_555
N4 C23 1_555 1_555
N5 C24 1_555 1_555
O1 C16 1_555 1_555
O2 C16 1_555 1_555
O3 C19 1_555 1_555
O4 C19 1_555 1_555
O5 C24 1_555 1_555
C5 C6 1_555 1_555
C8 N2 1_555 1_555
C13 C14 1_555 1_555
C14 N2 1_555 1_555
C17 O2 1_555 1_555
C20 O4 1_555 1_555
C21 C25 1_555 1_555
C30 C31 1_555 1_555
C31 N5 1_555 1_555
C32 N5 1_555 1_555

#END
