
#######################################################################
#
#                 Cambridge Crystallographic Data Centre
#                                CCDC 
#
#######################################################################
#
# If this CIF has been generated from an entry in the Cambridge 
# Structural Database, then it will include bibliographic, chemical, 
# crystal, experimental, refinement or atomic coordinate data resulting 
# from the CCDC's data processing and validation procedures.
#
#######################################################################

data_RONHIL
_chemical_name_common            'PDB Chemical Component code: CLE'
_chemical_formula_moiety         'C6 H14 N2 O1'
_chemical_name_systematic        L-Leucinamide
_symmetry_cell_setting           monoclinic
_symmetry_space_group_name_H-M   'I 2'
_symmetry_Int_Tables_number      5
_space_group_name_Hall           'I 2y'
loop_
_symmetry_equiv_pos_site_id
_symmetry_equiv_pos_as_xyz
1 x,y,z
2 -x,y,-z
3 1/2+x,1/2+y,1/2+z
4 1/2-x,1/2+y,1/2-z
_cell_length_a                   9.6649(10)
_cell_length_b                   5.9003(6)
_cell_length_c                   28.716(4)
_cell_angle_alpha                90
_cell_angle_beta                 92.744(10)
_cell_angle_gamma                90
_cell_volume                     1635.68
_exptl_crystal_colour            colorless
_exptl_crystal_description       'rectangular plates'
_cell_formula_units_Z            8
loop_
_atom_site_label
_atom_site_type_symbol
_atom_site_fract_x
_atom_site_fract_y
_atom_site_fract_z
C1 C 0.2046(4) 0.3900(9) 0.4393(2)
N1 N 0.1008(4) 0.2500(8) 0.4456(2)
O1 O 0.3273(3) 0.3322(6) 0.4452(1)
C2 C 0.1661(5) 0.6338(8) 0.4274(2)
N2 N 0.1898(6) 0.7779(8) 0.4687(2)
C3 C 0.2478(5) 0.7269(10) 0.3878(2)
C4 C 0.2334(10) 0.5995(27) 0.3419(2)
C5 C 0.3353(19) 0.7111(42) 0.3082(4)
C6 C 0.1077(13) 0.5634(40) 0.3211(4)
H1 H 0.0114(56) 0.308(12) 0.4412(18)
H2 H 0.1248(38) 0.1286(75) 0.4544(13)
H3 H 0.0673 0.6391 0.4180
H4 H 0.2849(57) 0.792(14) 0.4822(20)
H5 H 0.1602(51) 0.689(11) 0.4953(17)
H6 H 0.2195 0.8826 0.3822
H7 H 0.3451 0.7291 0.3978
H8 H 0.2714 0.4483 0.3486
H9 H 0.4235 0.7341 0.3243
H10 H 0.2986 0.8544 0.2976
H11 H 0.3464 0.6135 0.2819
H12 H 0.1178 0.4809 0.2926
H13 H 0.0638 0.7063 0.3142
H14 H 0.0520 0.4774 0.3415
C7 C 0.7152(4) 0.4133(10) 0.4328(2)
O2 O 0.8338(3) 0.4963(6) 0.4348(1)
N3 N 0.6044(4) 0.5445(8) 0.4378(2)
C8 C 0.6931(5) 0.1635(9) 0.4234(2)
N4 N 0.6011(4) 0.0563(8) 0.4560(2)
C9 C 0.6324(6) 0.1235(12) 0.3738(2)
C10 C 0.7129(8) 0.1950(16) 0.3343(2)
C11 C 0.6320(11) 0.1648(31) 0.2884(2)
C12 C 0.8519(9) 0.0632(37) 0.3332(3)
H15 H 0.6094(72) 0.709(14) 0.4362(25)
H16 H 0.5262(59) 0.498(12) 0.4374(19)
H17 H 0.7833 0.0878 0.4264
H18 H 0.5205(65) 0.136(14) 0.4487(21)
H19 H 0.6197(58) 0.088(15) 0.4881(20)
H20 H 0.6144 -0.0376 0.3704
H21 H 0.5435 0.1998 0.3710
H22 H 0.7344 0.3564 0.3382
H23 H 0.6875 0.2131 0.2634
H24 H 0.5490 0.2543 0.2884
H25 H 0.6080 0.0080 0.2842
H26 H 0.9022 0.1135 0.3070
H27 H 0.8333 -0.0961 0.3302
H28 H 0.9060 0.0909 0.3615
loop_
_geom_bond_atom_site_label_1
_geom_bond_atom_site_label_2
_geom_bond_site_symmetry_1
_geom_bond_site_symmetry_2
C1 N1 1_555 1_555
N1 H1 1_555 1_555
O1 C1 1_555 1_555
C2 C1 1_555 1_555
N2 C2 1_555 1_555
C3 C2 1_555 1_555
C4 C3 1_555 1_555
C5 C4 1_555 1_555
C6 C4 1_555 1_555
H2 N1 1_555 1_555
H3 C2 1_555 1_555
H4 N2 1_555 1_555
H5 N2 1_555 1_555
H6 C3 1_555 1_555
H7 C3 1_555 1_555
H8 C4 1_555 1_555
H9 C5 1_555 1_555
H10 C5 1_555 1_555
H11 C5 1_555 1_555
H12 C6 1_555 1_555
H13 C6 1_555 1_555
H14 C6 1_555 1_555
C7 O2 1_555 1_555
N3 C7 1_555 1_555
C8 C7 1_555 1_555
N4 C8 1_555 1_555
C9 C8 1_555 1_555
C10 C9 1_555 1_555
C11 C10 1_555 1_555
C12 C10 1_555 1_555
H15 N3 1_555 1_555
H16 N3 1_555 1_555
H17 C8 1_555 1_555
H18 N4 1_555 1_555
H19 N4 1_555 1_555
H20 C9 1_555 1_555
H21 C9 1_555 1_555
H22 C10 1_555 1_555
H23 C11 1_555 1_555
H24 C11 1_555 1_555
H25 C11 1_555 1_555
H26 C12 1_555 1_555
H27 C12 1_555 1_555
H28 C12 1_555 1_555

#END
