
#######################################################################
#
#                 Cambridge Crystallographic Data Centre
#                                CCDC 
#
#######################################################################
#
# If this CIF has been generated from an entry in the Cambridge 
# Structural Database, then it will include bibliographic, chemical, 
# crystal, experimental, refinement or atomic coordinate data resulting 
# from the CCDC's data processing and validation procedures.
#
#######################################################################

data_RONHUX
_chemical_formula_moiety         'C22 H34 N1 1+,C1 F3 O3 S1 1-'
_chemical_name_systematic        
"N-Benzyl-2-(2'-isobutyl)-3,5-di-isopropyl-2,3-dihdyropyridinium trifluoromethanesulfonate"
_symmetry_cell_setting           monoclinic
_symmetry_space_group_name_H-M   'P 21/n'
_symmetry_Int_Tables_number      14
_space_group_name_Hall           '-P 2yn'
loop_
_symmetry_equiv_pos_site_id
_symmetry_equiv_pos_as_xyz
1 x,y,z
2 1/2-x,1/2+y,1/2-z
3 -x,-y,-z
4 1/2+x,1/2-y,1/2+z
_cell_length_a                   12.500(1)
_cell_length_b                   13.261(1)
_cell_length_c                   16.220(2)
_cell_angle_alpha                90
_cell_angle_beta                 111.439(8)
_cell_angle_gamma                90
_cell_volume                     2502.63
_exptl_crystal_colour            colorless
_chemical_melting_point          '88-89 deg.C'
_cell_formula_units_Z            4
loop_
_atom_site_label
_atom_site_type_symbol
_atom_site_fract_x
_atom_site_fract_y
_atom_site_fract_z
S1 S 0.1723(1) 0.1081(1) 0.81065(9)
F1 F -0.0320(3) 0.1825(4) 0.7665(3)
F2 F 0.0133(3) 0.0952(4) 0.8762(3)
F3 F 0.0819(3) 0.2380(3) 0.8867(3)
O1 O 0.2531(3) 0.0810(4) 0.8938(3)
O2 O 0.2053(4) 0.1885(4) 0.7705(3)
O3 O 0.1247(4) 0.0262(4) 0.7549(3)
C1 C 0.0581(5) 0.1592(5) 0.8383(4)
N1 N 0.3340(3) -0.2271(3) 0.9593(2)
C2 C 0.3471(4) -0.1886(4) 1.0485(3)
C3 C 0.3926(4) -0.2723(4) 1.1169(3)
C4 C 0.4915(4) -0.3235(4) 1.1033(3)
C5 C 0.5003(4) -0.3298(3) 1.0250(3)
C6 C 0.4061(4) -0.2888(4) 0.9498(3)
C7 C 0.2317(4) -0.1922(4) 0.8817(3)
C8 C 0.1253(4) -0.2385(4) 0.8844(3)
C9 C 0.1085(4) -0.3405(4) 0.8695(3)
C10 C 0.0149(5) -0.3900(5) 0.8767(4)
C11 C -0.0628(5) -0.3312(5) 0.8967(4)
C12 C -0.0520(5) -0.2327(5) 0.9084(4)
C13 C 0.0453(5) -0.1801(5) 0.9051(4)
C14 C 0.4223(4) -0.0929(4) 1.0660(3)
C15 C 0.4232(4) -0.0309(4) 1.1441(3)
C16 C 0.5147(6) 0.0515(5) 1.1646(5)
C17 C 0.3066(5) 0.0148(5) 1.1281(4)
C18 C 0.2986(4) -0.3501(4) 1.1162(3)
C19 C 0.2039(4) -0.3007(5) 1.1396(4)
C20 C 0.3479(4) -0.4366(4) 1.1780(4)
C21 C 0.5952(4) -0.3795(4) 1.0033(3)
C22 C 0.6871(4) -0.4270(4) 1.0828(4)
C23 C 0.6478(4) -0.3065(4) 0.9580(4)
H1 H 0.2758 -0.1694 1.0523
H2 H 0.4175 -0.2417 1.1738
H3 H 0.5501 -0.3524 1.1529
H4 H 0.3984 -0.3089 0.8916
H5 H 0.2412 -0.2112 0.8283
H6 H 0.2258 -0.1208 0.8836
H7 H 0.1628 -0.3780 0.8537
H8 H 0.0048 -0.4607 0.8682
H9 H -0.1277 -0.3631 0.9024
H10 H -0.1108 -0.1961 0.9193
H11 H 0.0553 -0.1096 0.9161
H12 H 0.3947 -0.0516 1.0146
H13 H 0.4990 -0.1129 1.0760
H14 H 0.4412 -0.0745 1.1937
H15 H 0.5143 0.0899 1.2139
H16 H 0.5881 0.0213 1.1781
H17 H 0.4986 0.0942 1.1146
H18 H 0.3097 0.0533 1.1782
H19 H 0.2854 0.0572 1.0774
H20 H 0.2513 -0.0373 1.1184
H21 H 0.2671 -0.3755 1.0574
H22 H 0.1482 -0.3499 1.1386
H23 H 0.2357 -0.2719 1.1971
H24 H 0.1684 -0.2493 1.0976
H25 H 0.2880 -0.4820 1.1756
H26 H 0.4033 -0.4706 1.1608
H27 H 0.3834 -0.4118 1.2367
H28 H 0.5601 -0.4332 0.9638
H29 H 0.7441 -0.4569 1.0648
H30 H 0.7214 -0.3766 1.1260
H31 H 0.6533 -0.4772 1.1073
H32 H 0.7073 -0.3392 0.9448
H33 H 0.5905 -0.2834 0.9046
H34 H 0.6788 -0.2506 0.9959
loop_
_geom_bond_atom_site_label_1
_geom_bond_atom_site_label_2
_geom_bond_site_symmetry_1
_geom_bond_site_symmetry_2
S1 O1 1_555 1_555
F1 C1 1_555 1_555
F2 C1 1_555 1_555
F3 C1 1_555 1_555
O2 S1 1_555 1_555
O3 S1 1_555 1_555
N1 C2 1_555 1_555
C1 S1 1_555 1_555
C2 C3 1_555 1_555
C3 C4 1_555 1_555
C4 C5 1_555 1_555
C5 C6 1_555 1_555
C6 N1 1_555 1_555
C7 N1 1_555 1_555
C8 C7 1_555 1_555
C9 C8 1_555 1_555
C10 C9 1_555 1_555
C11 C10 1_555 1_555
C12 C11 1_555 1_555
C13 C8 1_555 1_555
C14 C2 1_555 1_555
C15 C14 1_555 1_555
C16 C15 1_555 1_555
C17 C15 1_555 1_555
C18 C3 1_555 1_555
C19 C18 1_555 1_555
C20 C18 1_555 1_555
C21 C5 1_555 1_555
C22 C21 1_555 1_555
C23 C21 1_555 1_555
H1 C2 1_555 1_555
H2 C3 1_555 1_555
H3 C4 1_555 1_555
H4 C6 1_555 1_555
H5 C7 1_555 1_555
H6 C7 1_555 1_555
H7 C9 1_555 1_555
H8 C10 1_555 1_555
H9 C11 1_555 1_555
H10 C12 1_555 1_555
H11 C13 1_555 1_555
H12 C14 1_555 1_555
H13 C14 1_555 1_555
H14 C15 1_555 1_555
H15 C16 1_555 1_555
H16 C16 1_555 1_555
H17 C16 1_555 1_555
H18 C17 1_555 1_555
H19 C17 1_555 1_555
H20 C17 1_555 1_555
H21 C18 1_555 1_555
H22 C19 1_555 1_555
H23 C19 1_555 1_555
H24 C19 1_555 1_555
H25 C20 1_555 1_555
H26 C20 1_555 1_555
H27 C20 1_555 1_555
H28 C21 1_555 1_555
H29 C22 1_555 1_555
H30 C22 1_555 1_555
H31 C22 1_555 1_555
H32 C23 1_555 1_555
H33 C23 1_555 1_555
H34 C23 1_555 1_555
C12 C13 1_555 1_555

#END
