
#######################################################################
#
#                 Cambridge Crystallographic Data Centre
#                                CCDC 
#
#######################################################################
#
# If this CIF has been generated from an entry in the Cambridge 
# Structural Database, then it will include bibliographic, chemical, 
# crystal, experimental, refinement or atomic coordinate data resulting 
# from the CCDC's data processing and validation procedures.
#
#######################################################################

data_RONJAH
_chemical_formula_moiety         'C25 H54 Li2 N2 O3'
_chemical_name_systematic        
"(\m-1,1'-(pentane-1,5-diylbis(oxy))bis(N-isopropyl-3-methylbutan-2-amido))-(diethyl ether)-di-lithium"
_symmetry_cell_setting           monoclinic
_symmetry_space_group_name_H-M   'P 21'
_symmetry_Int_Tables_number      4
_space_group_name_Hall           'P 2yb'
loop_
_symmetry_equiv_pos_site_id
_symmetry_equiv_pos_as_xyz
1 x,y,z
2 -x,1/2+y,-z
_cell_length_a                   9.5393(9)
_cell_length_b                   15.8463(14)
_cell_length_c                   10.6314(10)
_cell_angle_alpha                90
_cell_angle_beta                 116.505(3)
_cell_angle_gamma                90
_cell_volume                     1438.16
_exptl_crystal_colour            colorless
_exptl_crystal_description       chunk
_cell_formula_units_Z            2
loop_
_atom_site_label
_atom_site_type_symbol
_atom_site_fract_x
_atom_site_fract_y
_atom_site_fract_z
C1 C -0.1959(3) 0.25693(16) -0.0124(3)
H1 H -0.2685 0.2925 -0.091
H2 H -0.0927 0.2854 0.032
C2 C -0.2588(3) 0.24496(15) 0.0946(3)
H3 H -0.3646 0.2185 0.0437
C3 C -0.2838(3) 0.33237(17) 0.1493(3)
H4 H -0.3079 0.3206 0.23
C4 C -0.1389(4) 0.3876(2) 0.2059(4)
H5 H -0.1262 0.4125 0.1273
H6 H -0.0468 0.3533 0.263
H7 H -0.1502 0.4326 0.2639
C5 C -0.4253(4) 0.3794(2) 0.0393(4)
H8 H -0.442 0.4315 0.0803
H9 H -0.5185 0.3435 0.0085
H10 H -0.4061 0.3932 -0.0416
C6 C -0.2622(3) 0.14260(17) 0.2572(3)
H11 H -0.3365 0.1847 0.264
C7 C -0.3577(3) 0.07099(18) 0.1617(3)
H12 H -0.4202 0.0927 0.0665
H13 H -0.4275 0.0473 0.1979
H14 H -0.2868 0.0269 0.1594
C8 C -0.1646(4) 0.1060(2) 0.4028(3)
H15 H -0.0825 0.0696 0.4007
H16 H -0.232 0.0727 0.4316
H17 H -0.1162 0.152 0.47
C9 C 0.0729(3) -0.03133(16) 0.1936(3)
H18 H 0.1014 -0.09 0.1824
H19 H 0.0243 -0.0319 0.2587
C10 C 0.2183(3) 0.02401(15) 0.2526(3)
H20 H 0.2663 0.02 0.1862
C11 C 0.3408(3) -0.01116(17) 0.3967(3)
H21 H 0.4229 0.0334 0.4389
C12 C 0.4246(4) -0.0898(2) 0.3812(4)
H22 H 0.5121 -0.1037 0.4721
H23 H 0.4644 -0.079 0.3122
H24 H 0.3509 -0.1372 0.3493
C13 C 0.2744(4) -0.0264(2) 0.5005(3)
H25 H 0.2134 -0.0788 0.4761
H26 H 0.2065 0.0209 0.4969
H27 H 0.3604 -0.0312 0.5956
C14 C 0.2951(3) 0.16623(17) 0.2416(3)
H28 H 0.4009 0.1414 0.3
C15 C 0.2718(3) 0.1733(2) 0.0902(3)
H29 H 0.2674 0.1167 0.0516
H30 H 0.3594 0.2047 0.0885
H31 H 0.1736 0.2031 0.0335
C16 C 0.2920(4) 0.2547(2) 0.2949(4)
H32 H 0.1866 0.2784 0.2438
H33 H 0.3672 0.2903 0.2798
H34 H 0.3204 0.2526 0.3955
C17 C -0.1614(3) 0.1779(2) -0.1897(3)
H35 H -0.0822 0.221 -0.1803
H36 H -0.2618 0.1938 -0.2699
C18 C -0.1097(3) 0.0927(2) -0.2172(3)
H37 H -0.0163 0.075 -0.1313
H38 H -0.0769 0.0993 -0.2928
C19 C -0.2307(3) 0.0220(2) -0.2590(3)
H39 H -0.3261 0.0415 -0.3415
H40 H -0.1891 -0.0267 -0.2901
C20 C -0.2800(3) -0.00960(19) -0.1497(3)
H41 H -0.3165 0.0394 -0.1144
H42 H -0.3705 -0.048 -0.1969
C21 C -0.1560(3) -0.05554(17) -0.0244(3)
H43 H -0.2041 -0.0806 0.0325
H44 H -0.1107 -0.1018 -0.0572
C22 C 0.1740(6) 0.3678(3) 0.6064(6)
H45 H 0.2692 0.365 0.6959
H46 H 0.1064 0.4132 0.6106
H47 H 0.2024 0.3792 0.5301
C23 C 0.0895(5) 0.2866(2) 0.5803(4)
H48 H 0.0816 0.2695 0.6664
H49 H -0.0182 0.2944 0.5047
C24 C 0.3212(5) 0.1923(3) 0.6404(4)
H50 H 0.3645 0.155 0.5916
H51 H 0.391 0.2419 0.6763
C25 C 0.3170(8) 0.1472(4) 0.7570(5)
H52 H 0.2858 0.1859 0.8119
H53 H 0.4211 0.1243 0.817
H54 H 0.2412 0.1009 0.7211
Li1 Li -0.0531(5) 0.1180(3) 0.1108(4)
Li2 Li 0.0634(5) 0.1765(3) 0.3432(4)
N1 N -0.1623(2) 0.18614(13) 0.2055(2)
N2 N 0.1773(2) 0.11238(13) 0.2562(2)
O1 O -0.1804(2) 0.17542(12) -0.06407(17)
O2 O -0.03545(19) 0.00206(10) 0.05971(17)
O3 O 0.1641(2) 0.22035(14) 0.5406(2)
loop_
_geom_bond_atom_site_label_1
_geom_bond_atom_site_label_2
_geom_bond_site_symmetry_1
_geom_bond_site_symmetry_2
C1 H1 1_555 1_555
H2 C1 1_555 1_555
C2 C1 1_555 1_555
H3 C2 1_555 1_555
C3 C2 1_555 1_555
H4 C3 1_555 1_555
C4 C3 1_555 1_555
H5 C4 1_555 1_555
H6 C4 1_555 1_555
H7 C4 1_555 1_555
C5 C3 1_555 1_555
H8 C5 1_555 1_555
H9 C5 1_555 1_555
H10 C5 1_555 1_555
C6 H11 1_555 1_555
C7 C6 1_555 1_555
H12 C7 1_555 1_555
H13 C7 1_555 1_555
H14 C7 1_555 1_555
C8 C6 1_555 1_555
H15 C8 1_555 1_555
H16 C8 1_555 1_555
H17 C8 1_555 1_555
C9 H18 1_555 1_555
H19 C9 1_555 1_555
C10 C9 1_555 1_555
H20 C10 1_555 1_555
C11 C10 1_555 1_555
H21 C11 1_555 1_555
C12 C11 1_555 1_555
H22 C12 1_555 1_555
H23 C12 1_555 1_555
H24 C12 1_555 1_555
C13 C11 1_555 1_555
H25 C13 1_555 1_555
H26 C13 1_555 1_555
H27 C13 1_555 1_555
C14 H28 1_555 1_555
C15 C14 1_555 1_555
H29 C15 1_555 1_555
H30 C15 1_555 1_555
H31 C15 1_555 1_555
C16 C14 1_555 1_555
H32 C16 1_555 1_555
H33 C16 1_555 1_555
H34 C16 1_555 1_555
C17 H35 1_555 1_555
H36 C17 1_555 1_555
C18 C17 1_555 1_555
H37 C18 1_555 1_555
H38 C18 1_555 1_555
C19 C18 1_555 1_555
H39 C19 1_555 1_555
H40 C19 1_555 1_555
C20 C19 1_555 1_555
H41 C20 1_555 1_555
H42 C20 1_555 1_555
C21 C20 1_555 1_555
H43 C21 1_555 1_555
H44 C21 1_555 1_555
C22 H45 1_555 1_555
H46 C22 1_555 1_555
H47 C22 1_555 1_555
C23 C22 1_555 1_555
H48 C23 1_555 1_555
H49 C23 1_555 1_555
C24 H50 1_555 1_555
H51 C24 1_555 1_555
C25 C24 1_555 1_555
H52 C25 1_555 1_555
H53 C25 1_555 1_555
H54 C25 1_555 1_555
Li1 N1 1_555 1_555
Li2 N1 1_555 1_555
N1 C2 1_555 1_555
N2 C10 1_555 1_555
O1 C1 1_555 1_555
O2 C9 1_555 1_555
O3 C23 1_555 1_555
C6 N1 1_555 1_555
C14 N2 1_555 1_555
C17 O1 1_555 1_555
C21 O2 1_555 1_555
C24 O3 1_555 1_555
Li1 N2 1_555 1_555
Li1 O1 1_555 1_555
Li1 O2 1_555 1_555
Li2 N2 1_555 1_555
Li2 O3 1_555 1_555

#END
