
#######################################################################
#
#                 Cambridge Crystallographic Data Centre
#                                CCDC 
#
#######################################################################
#
# If this CIF has been generated from an entry in the Cambridge 
# Structural Database, then it will include bibliographic, chemical, 
# crystal, experimental, refinement or atomic coordinate data resulting 
# from the CCDC's data processing and validation procedures.
#
#######################################################################

data_RONJEL
_chemical_formula_moiety         'C54 H112 Li4 N4 O6,C4 H10 O1'
_chemical_name_systematic        
"bis(\m-1,1'-(heptane-1,7-diylbis(oxy))bis(N-isopropyl-3-methylbutan-2-amido))-bis(tetrahydrofuran)-tetra-lithium diethyl ether solvate"
_symmetry_cell_setting           monoclinic
_symmetry_space_group_name_H-M   'P 21'
_symmetry_Int_Tables_number      4
_space_group_name_Hall           'P 2yb'
loop_
_symmetry_equiv_pos_site_id
_symmetry_equiv_pos_as_xyz
1 x,y,z
2 -x,1/2+y,-z
_cell_length_a                   8.9946(6)
_cell_length_b                   37.481(2)
_cell_length_c                   9.9308(7)
_cell_angle_alpha                90
_cell_angle_beta                 105.613(4)
_cell_angle_gamma                90
_cell_volume                     3224.4
_exptl_crystal_colour            colorless
_exptl_crystal_description       plate
_cell_formula_units_Z            2
loop_
_atom_site_label
_atom_site_type_symbol
_atom_site_fract_x
_atom_site_fract_y
_atom_site_fract_z
C1 C 0.6079(8) 0.1260(2) 0.1705(7)
H1 H 0.5311 0.1426 0.191
H2 H 0.5591 0.1023 0.1496
C2 C 0.6583(8) 0.13930(19) 0.0471(7)
H3 H 0.7025 0.1637 0.0718
C3 C 0.5147(9) 0.1438(2) -0.0775(8)
H4 H 0.5521 0.1516 -0.159
C4 C 0.4035(10) 0.1731(3) -0.0538(10)
H5 H 0.3259 0.178 -0.142
H6 H 0.462 0.1949 -0.0203
H7 H 0.3521 0.1649 0.016
C5 C 0.4251(11) 0.1095(3) -0.1202(10)
H8 H 0.4957 0.0906 -0.1328
H9 H 0.3454 0.1132 -0.2083
H10 H 0.3763 0.1024 -0.0472
C6 C 0.8595(8) 0.13588(19) -0.0672(8)
H11 H 0.7811 0.1423 -0.1562
C7 C 0.9784(11) 0.1126(2) -0.1044(12)
H12 H 1.0582 0.1062 -0.0192
H13 H 1.0257 0.1254 -0.1682
H14 H 0.9289 0.0908 -0.1501
C8 C 0.9428(13) 0.1700(3) -0.0071(13)
H15 H 1.015 0.1649 0.084
H16 H 0.8672 0.1877 0.0043
H17 H 0.9998 0.1792 -0.0709
C9 C 0.8463(8) 0.29289(19) 0.9962(7)
H18 H 0.7497 0.2788 0.9728
H19 H 0.8207 0.3177 1.0162
C10 C 0.9590(7) 0.27724(18) 1.1230(7)
H20 H 0.9797 0.2522 1.0983
C11 C 0.8846(8) 0.27481(19) 1.2474(7)
H21 H 0.9689 0.2672 1.3304
C12 C 0.8274(12) 0.3103(2) 1.2857(10)
H22 H 0.7362 0.3177 1.212
H23 H 0.9088 0.3283 1.2955
H24 H 0.8 0.308 1.3743
C13 C 0.7598(10) 0.2464(2) 1.2267(9)
H25 H 0.7206 0.2454 1.3097
H26 H 0.8032 0.2231 1.2126
H27 H 0.6751 0.2523 1.1446
C14 C 1.2299(8) 0.27300(19) 1.2314(7)
H28 H 1.1954 0.2616 1.3089
C15 C 1.2748(10) 0.2434(3) 1.1446(10)
H29 H 1.1831 0.2294 1.099
H30 H 1.3517 0.2278 1.2056
H31 H 1.3184 0.2539 1.0733
C16 C 1.3768(10) 0.2937(3) 1.2958(10)
H32 H 1.4086 0.3066 1.2223
H33 H 1.4587 0.2772 1.3427
H34 H 1.358 0.3108 1.3641
C17 C 1.3713(8) 0.34376(19) 0.9372(8)
H35 H 1.4557 0.3487 0.8932
H36 H 1.4171 0.3334 1.0309
C18 C 1.2886(8) 0.37781(17) 0.9509(8)
H37 H 1.2421 0.3868 0.8539
C19 C 1.4042(9) 0.40664(19) 1.0271(8)
H38 H 1.342 0.4259 1.0554
C20 C 1.4937(10) 0.4238(2) 0.9354(9)
H39 H 1.5567 0.4058 0.9055
H40 H 1.5608 0.4425 0.9883
H41 H 1.4215 0.4344 0.8531
C21 C 1.5161(10) 0.3927(2) 1.1613(9)
H42 H 1.4584 0.3796 1.2163
H43 H 1.5703 0.4128 1.2162
H44 H 1.5914 0.3767 1.1374
C22 C 1.0443(9) 0.39873(19) 0.9707(9)
H45 H 1.0993 0.4222 0.9798
C23 C 0.9407(11) 0.3995(3) 1.0676(11)
H46 H 0.8968 0.3757 1.0717
H47 H 0.8571 0.4167 1.0326
H48 H 1.0009 0.4066 1.1614
C24 C 0.9458(10) 0.3955(2) 0.8194(10)
H49 H 1.0132 0.3947 0.7566
H50 H 0.8767 0.4161 0.7959
H51 H 0.8845 0.3736 0.8087
C25 C 1.1610(8) 0.0655(2) 0.2551(9)
H52 H 1.268 0.0602 0.3098
H53 H 1.1628 0.0723 0.1591
C26 C 1.0596(8) 0.03306(18) 0.2504(9)
H54 H 1.0641 0.0269 0.3494
C27 C 1.1270(9) 0.0008(2) 0.1887(10)
H55 H 1.0522 -0.0193 0.1828
C28 C 1.2791(9) -0.0120(2) 0.2817(10)
H56 H 1.3054 -0.0351 0.2479
H57 H 1.2707 -0.0146 0.3776
H58 H 1.3599 0.0054 0.2802
C29 C 1.1377(11) 0.0073(3) 0.0416(11)
H59 H 1.2198 0.0246 0.0434
H60 H 1.0391 0.0166 -0.0155
H61 H 1.1613 -0.0152 0.0014
C30 C 0.7928(8) 0.0142(2) 0.1983(8)
H62 H 0.814 -0.0076 0.1481
C31 C 0.8044(11) 0.0037(3) 0.3463(11)
H63 H 0.9077 -0.0059 0.3896
H64 H 0.7268 -0.0146 0.3474
H65 H 0.7862 0.0246 0.3988
C32 C 0.6277(8) 0.0251(2) 0.1324(10)
H66 H 0.6003 0.045 0.1855
H67 H 0.5591 0.0049 0.1333
H68 H 0.6165 0.0327 0.0357
C33 C 0.7048(9) 0.11418(19) 0.4177(8)
H69 H 0.7989 0.105 0.4853
H70 H 0.6272 0.0948 0.3983
C34 C 0.6427(8) 0.14530(19) 0.4824(8)
H71 H 0.5505 0.1547 0.4129
H72 H 0.6085 0.1364 0.5631
C35 C 0.7534(8) 0.1755(2) 0.5315(7)
H73 H 0.7925 0.1838 0.4527
H74 H 0.8426 0.1668 0.606
C36 C 0.6812(8) 0.20671(19) 0.5869(8)
H75 H 0.6361 0.1978 0.6613
H76 H 0.5953 0.216 0.5103
C37 C 0.7894(8) 0.23756(19) 0.6460(8)
H77 H 0.8704 0.2292 0.7286
H78 H 0.8406 0.2457 0.5748
C38 C 0.7035(8) 0.26869(19) 0.6883(7)
H79 H 0.6226 0.2768 0.6051
H80 H 0.6511 0.2601 0.7581
C39 C 0.8029(8) 0.30018(19) 0.7489(7)
H81 H 0.8595 0.3081 0.6814
H82 H 0.7355 0.3201 0.7618
C40 C 1.3368(8) 0.29072(19) 0.7992(8)
H83 H 1.4082 0.2778 0.8772
H84 H 1.3975 0.3005 0.7381
C41 C 1.2155(8) 0.26543(18) 0.7169(8)
H85 H 1.1363 0.2792 0.6477
H86 H 1.164 0.2535 0.7811
C42 C 1.2844(8) 0.23735(18) 0.6412(8)
H87 H 1.3258 0.2493 0.57
H88 H 1.372 0.2257 0.7093
C43 C 1.1706(8) 0.20889(18) 0.5702(7)
H89 H 1.0852 0.2203 0.4989
H90 H 1.1259 0.1975 0.6404
C44 C 1.2440(8) 0.18024(19) 0.5003(8)
H91 H 1.284 0.1915 0.4269
H92 H 1.3329 0.1698 0.5707
C45 C 1.1332(8) 0.15045(19) 0.4349(8)
H93 H 1.0935 0.1391 0.5082
H94 H 1.0443 0.1608 0.3644
C46 C 1.2065(8) 0.12261(19) 0.3666(9)
H95 H 1.2372 0.1331 0.2866
H96 H 1.3004 0.1133 0.4342
C47 C 1.2661(12) 0.4072(3) 1.3922(11)
H97 H 1.1936 0.4247 1.4139
H98 H 1.294 0.4151 1.3071
C48 C 1.4079(16) 0.4038(3) 1.5128(11)
H99 H 1.502 0.4043 1.4792
H100 H 1.4134 0.4237 1.5796
C49 C 1.3943(19) 0.3696(4) 1.5797(13)
H101 H 1.4086 0.3726 1.6814
H102 H 1.4715 0.3523 1.5646
C50 C 1.2288(18) 0.3571(3) 1.5066(12)
H103 H 1.2232 0.3308 1.5013
H104 H 1.155 0.3658 1.5573
C51 C 0.6730(15) 0.0534(3) -0.3082(10)
H105 H 0.7536 0.0558 -0.3587
H106 H 0.6319 0.0774 -0.2973
C52 C 0.5517(15) 0.0304(4) -0.3836(13)
H107 H 0.5487 0.0297 -0.484
H108 H 0.4504 0.0387 -0.3746
C53 C 0.5895(17) -0.0052(3) -0.3186(17)
H109 H 0.4988 -0.0156 -0.2945
H110 H 0.6224 -0.0216 -0.3832
C54 C 0.7101(13) 0.0005(2) -0.1978(10)
H111 H 0.8056 -0.0111 -0.2074
H112 H 0.6834 -0.0099 -0.1157
Li1 Li 1.1519(14) 0.3478(3) 1.1877(13)
Li2 Li 1.1081(13) 0.3178(3) 0.9638(12)
Li3 Li 0.8014(15) 0.0653(3) -0.0048(13)
Li4 Li 0.8864(13) 0.0960(3) 0.2160(14)
N1 N 0.7799(7) 0.11757(15) 0.0206(6)
N2 N 1.1058(6) 0.29605(15) 1.1536(6)
N3 N 1.1615(6) 0.37089(14) 1.0114(6)
N4 N 0.8993(6) 0.04192(15) 0.1810(6)
O1 O 0.7414(5) 0.12370(12) 0.2899(5)
O2 O 0.9126(5) 0.29259(12) 0.8809(4)
O3 O 1.2641(5) 0.31916(12) 0.8533(5)
O4 O 1.1000(5) 0.09431(12) 0.3190(5)
O5 O 1.1970(7) 0.37229(15) 1.3718(6)
O6 O 0.7335(7) 0.03785(14) -0.1796(6)
C55 C 0.122(2) 1.0595(5) 0.6196(18)
H113 H 0.2177 1.0642 0.5924
H114 H 0.1012 1.0797 0.6746
H115 H 0.0365 1.0566 0.5355
C56 C 0.141(2) 1.0261(4) 0.7057(17)
H116 H 0.2344 1.0276 0.7857
H117 H 0.0501 1.0224 0.7424
O7 O 0.1552(11) 0.9972(3) 0.6140(10)
C57 C 0.1434(17) 0.9629(4) 0.6721(16)
H118 H 0.0463 0.9617 0.7008
H119 H 0.2305 0.9597 0.7567
C58 C 0.145(2) 0.9326(5) 0.5681(15)
H120 H 0.0715 0.9379 0.4781
H121 H 0.1167 0.9101 0.6049
H122 H 0.2493 0.9304 0.5551
loop_
_geom_bond_atom_site_label_1
_geom_bond_atom_site_label_2
_geom_bond_site_symmetry_1
_geom_bond_site_symmetry_2
C1 H1 1_555 1_555
H2 C1 1_555 1_555
C2 C1 1_555 1_555
H3 C2 1_555 1_555
C3 C2 1_555 1_555
H4 C3 1_555 1_555
C4 C3 1_555 1_555
H5 C4 1_555 1_555
H6 C4 1_555 1_555
H7 C4 1_555 1_555
C5 C3 1_555 1_555
H8 C5 1_555 1_555
H9 C5 1_555 1_555
H10 C5 1_555 1_555
C6 H11 1_555 1_555
C7 C6 1_555 1_555
H12 C7 1_555 1_555
H13 C7 1_555 1_555
H14 C7 1_555 1_555
C8 C6 1_555 1_555
H15 C8 1_555 1_555
H16 C8 1_555 1_555
H17 C8 1_555 1_555
C9 H18 1_555 1_555
H19 C9 1_555 1_555
C10 C9 1_555 1_555
H20 C10 1_555 1_555
C11 C10 1_555 1_555
H21 C11 1_555 1_555
C12 C11 1_555 1_555
H22 C12 1_555 1_555
H23 C12 1_555 1_555
H24 C12 1_555 1_555
C13 C11 1_555 1_555
H25 C13 1_555 1_555
H26 C13 1_555 1_555
H27 C13 1_555 1_555
C14 H28 1_555 1_555
C15 C14 1_555 1_555
H29 C15 1_555 1_555
H30 C15 1_555 1_555
H31 C15 1_555 1_555
C16 C14 1_555 1_555
H32 C16 1_555 1_555
H33 C16 1_555 1_555
H34 C16 1_555 1_555
C17 H35 1_555 1_555
H36 C17 1_555 1_555
C18 C17 1_555 1_555
H37 C18 1_555 1_555
C19 C18 1_555 1_555
H38 C19 1_555 1_555
C20 C19 1_555 1_555
H39 C20 1_555 1_555
H40 C20 1_555 1_555
H41 C20 1_555 1_555
C21 C19 1_555 1_555
H42 C21 1_555 1_555
H43 C21 1_555 1_555
H44 C21 1_555 1_555
C22 H45 1_555 1_555
C23 C22 1_555 1_555
H46 C23 1_555 1_555
H47 C23 1_555 1_555
H48 C23 1_555 1_555
C24 C22 1_555 1_555
H49 C24 1_555 1_555
H50 C24 1_555 1_555
H51 C24 1_555 1_555
C25 H52 1_555 1_555
H53 C25 1_555 1_555
C26 C25 1_555 1_555
H54 C26 1_555 1_555
C27 C26 1_555 1_555
H55 C27 1_555 1_555
C28 C27 1_555 1_555
H56 C28 1_555 1_555
H57 C28 1_555 1_555
H58 C28 1_555 1_555
C29 C27 1_555 1_555
H59 C29 1_555 1_555
H60 C29 1_555 1_555
H61 C29 1_555 1_555
C30 H62 1_555 1_555
C31 C30 1_555 1_555
H63 C31 1_555 1_555
H64 C31 1_555 1_555
H65 C31 1_555 1_555
C32 C30 1_555 1_555
H66 C32 1_555 1_555
H67 C32 1_555 1_555
H68 C32 1_555 1_555
C33 H69 1_555 1_555
H70 C33 1_555 1_555
C34 C33 1_555 1_555
H71 C34 1_555 1_555
H72 C34 1_555 1_555
C35 C34 1_555 1_555
H73 C35 1_555 1_555
H74 C35 1_555 1_555
C36 C35 1_555 1_555
H75 C36 1_555 1_555
H76 C36 1_555 1_555
C37 C36 1_555 1_555
H77 C37 1_555 1_555
H78 C37 1_555 1_555
C38 C37 1_555 1_555
H79 C38 1_555 1_555
H80 C38 1_555 1_555
C39 C38 1_555 1_555
H81 C39 1_555 1_555
H82 C39 1_555 1_555
C40 H83 1_555 1_555
H84 C40 1_555 1_555
C41 C40 1_555 1_555
H85 C41 1_555 1_555
H86 C41 1_555 1_555
C42 C41 1_555 1_555
H87 C42 1_555 1_555
H88 C42 1_555 1_555
C43 C42 1_555 1_555
H89 C43 1_555 1_555
H90 C43 1_555 1_555
C44 C43 1_555 1_555
H91 C44 1_555 1_555
H92 C44 1_555 1_555
C45 C44 1_555 1_555
H93 C45 1_555 1_555
H94 C45 1_555 1_555
C46 C45 1_555 1_555
H95 C46 1_555 1_555
H96 C46 1_555 1_555
C47 H97 1_555 1_555
H98 C47 1_555 1_555
C48 C47 1_555 1_555
H99 C48 1_555 1_555
H100 C48 1_555 1_555
C49 C48 1_555 1_555
H101 C49 1_555 1_555
H102 C49 1_555 1_555
C50 C49 1_555 1_555
H103 C50 1_555 1_555
H104 C50 1_555 1_555
C51 H105 1_555 1_555
H106 C51 1_555 1_555
C52 C51 1_555 1_555
H107 C52 1_555 1_555
H108 C52 1_555 1_555
C53 C52 1_555 1_555
H109 C53 1_555 1_555
H110 C53 1_555 1_555
C54 C53 1_555 1_555
H111 C54 1_555 1_555
H112 C54 1_555 1_555
Li1 N2 1_555 1_555
Li2 N2 1_555 1_555
Li3 N1 1_555 1_555
Li4 N1 1_555 1_555
N1 C2 1_555 1_555
N2 C10 1_555 1_555
N3 C18 1_555 1_555
N4 C26 1_555 1_555
O1 C1 1_555 1_555
O2 C9 1_555 1_555
O3 C17 1_555 1_555
O4 C25 1_555 1_555
O5 C47 1_555 1_555
O6 C51 1_555 1_555
C55 H113 1_555 1_555
H114 C55 1_555 1_555
H115 C55 1_555 1_555
C56 C55 1_555 1_555
H116 C56 1_555 1_555
H117 C56 1_555 1_555
O7 C56 1_555 1_555
C57 O7 1_555 1_555
H118 C57 1_555 1_555
H119 C57 1_555 1_555
C58 C57 1_555 1_555
H120 C58 1_555 1_555
H121 C58 1_555 1_555
H122 C58 1_555 1_555
C6 N1 1_555 1_555
C14 N2 1_555 1_555
C22 N3 1_555 1_555
C30 N4 1_555 1_555
C33 O1 1_555 1_555
C39 O2 1_555 1_555
C40 O3 1_555 1_555
C46 O4 1_555 1_555
C50 O5 1_555 1_555
C54 O6 1_555 1_555
Li1 N3 1_555 1_555
Li1 O5 1_555 1_555
Li2 N3 1_555 1_555
Li2 O2 1_555 1_555
Li2 O3 1_555 1_555
Li3 N4 1_555 1_555
Li3 O6 1_555 1_555
Li4 N4 1_555 1_555
Li4 O1 1_555 1_555
Li4 O4 1_555 1_555

#END
