
#######################################################################
#
#                 Cambridge Crystallographic Data Centre
#                                CCDC 
#
#######################################################################
#
# If this CIF has been generated from an entry in the Cambridge 
# Structural Database, then it will include bibliographic, chemical, 
# crystal, experimental, refinement or atomic coordinate data resulting 
# from the CCDC's data processing and validation procedures.
#
#######################################################################

data_RONJOV
_chemical_formula_moiety         'C42 H88 Li4 N4 O6'
_chemical_name_systematic        
bis(\m-1,1'-(pentane-1,5-diylbis(oxy))bis(N-isopropylpropan-2-amido))-bis(tetrahydrofuran)-tetra-lithium
_symmetry_cell_setting           triclinic
_symmetry_space_group_name_H-M   'P 1'
_symmetry_Int_Tables_number      1
_space_group_name_Hall           'P 1'
loop_
_symmetry_equiv_pos_site_id
_symmetry_equiv_pos_as_xyz
1 x,y,z
_cell_length_a                   9.1291(13)
_cell_length_b                   10.2451(15)
_cell_length_c                   13.7745(17)
_cell_angle_alpha                101.548(4)
_cell_angle_beta                 93.004(4)
_cell_angle_gamma                100.111(4)
_cell_volume                     1237.5
_exptl_crystal_colour            colorless
_exptl_crystal_description       chunk
_cell_formula_units_Z            1
loop_
_atom_site_label
_atom_site_type_symbol
_atom_site_fract_x
_atom_site_fract_y
_atom_site_fract_z
C1 C 1.2607(7) 0.9942(7) 0.7286(5)
H1 H 1.3079 0.9971 0.7956
H2 H 1.2711 1.0885 0.7191
C2 C 1.3390(7) 0.9149(6) 0.6516(5)
H3 H 1.3409 0.8247 0.6685
C3 C 1.4996(7) 0.9919(9) 0.6596(6)
H4 H 1.557 0.9396 0.6136
H5 H 1.5448 1.0051 0.7278
H6 H 1.5002 1.0804 0.6426
C4 C 1.3158(7) 0.7884(7) 0.4847(5)
H7 H 1.4275 0.8109 0.4937
C5 C 1.2672(10) 0.6454(7) 0.5023(7)
H8 H 1.3033 0.6425 0.5699
H9 H 1.3091 0.5811 0.4542
H10 H 1.1579 0.6208 0.4941
C6 C 1.2679(10) 0.7925(8) 0.3786(6)
H11 H 1.1586 0.7744 0.3684
H12 H 1.3068 0.7233 0.3326
H13 H 1.3075 0.8823 0.3661
C7 C 0.8472(6) 0.8270(6) 0.4075(4)
H14 H 0.7511 0.7847 0.3677
H15 H 0.9289 0.8049 0.3664
C8 C 0.8587(6) 0.9776(6) 0.4332(4)
H16 H 0.7696 0.9972 0.4687
C9 C 0.8485(8) 1.0234(8) 0.3343(5)
H17 H 0.8629 1.1226 0.3471
H18 H 0.7499 0.984 0.2986
H19 H 0.926 0.9929 0.2937
C10 C 0.9788(6) 1.1837(6) 0.5442(4)
H20 H 0.9427 1.2259 0.4903
C11 C 0.8709(7) 1.1936(7) 0.6233(5)
H21 H 0.7717 1.1429 0.5948
H22 H 0.8656 1.289 0.6483
H23 H 0.9052 1.1553 0.6782
C12 C 1.1290(8) 1.2676(7) 0.5894(7)
H24 H 1.173 1.2223 0.6367
H25 H 1.1159 1.3575 0.6241
H26 H 1.1955 1.2772 0.5366
C13 C 0.3618(6) 0.8569(5) 1.0614(4)
H27 H 0.3672 0.9564 1.0764
H28 H 0.3893 0.8295 1.1239
C14 C 0.2038(6) 0.7852(6) 1.0207(4)
H29 H 0.1756 0.8214 0.9616
C15 C 0.0977(7) 0.8224(7) 1.1011(5)
H30 H -0.005 0.777 1.0764
H31 H 0.1035 0.9209 1.1165
H32 H 0.1272 0.7929 1.1614
C16 C 0.0714(6) 0.5849(6) 0.9115(4)
H33 H -0.0121 0.634 0.9297
C17 C 0.1117(7) 0.6052(7) 0.8083(5)
H34 H 0.1513 0.7015 0.8117
H35 H 0.0222 0.5754 0.7612
H36 H 0.1875 0.5517 0.7861
C18 C 0.0148(7) 0.4362(6) 0.9066(5)
H37 H 0.0947 0.3856 0.889
H38 H -0.0704 0.4028 0.8561
H39 H -0.0167 0.4234 0.9715
C19 C 0.4590(6) 0.3889(5) 0.8499(4)
H40 H 0.5077 0.3313 0.8
H41 H 0.3498 0.3541 0.8393
C20 C 0.5160(6) 0.3822(5) 0.9536(4)
H42 H 0.6275 0.4071 0.9594
C21 C 0.4736(9) 0.2360(6) 0.9652(5)
H43 H 0.506 0.2301 1.0329
H44 H 0.5225 0.1776 0.9172
H45 H 0.365 0.2062 0.9531
C22 C 0.5585(5) 0.5119(5) 1.1195(4)
H46 H 0.5843 0.4256 1.1323
C23 C 0.7046(6) 0.6101(7) 1.1163(5)
H47 H 0.7535 0.576 1.0573
H48 H 0.7709 0.6176 1.1763
H49 H 0.6829 0.6996 1.1132
C24 C 0.4795(6) 0.5729(6) 1.2062(4)
H50 H 0.4464 0.6541 1.193
H51 H 0.5482 0.5976 1.2669
H52 H 0.3926 0.5064 1.215
C25 C 1.0381(8) 0.9887(6) 0.8078(4)
H53 H 1.0313 1.0843 0.8087
H54 H 1.0993 0.9861 0.8687
C26 C 0.8881(8) 0.9072(7) 0.8052(5)
H55 H 0.895 0.8105 0.7981
H56 H 0.8254 0.9158 0.7468
C27 C 0.8150(9) 0.9543(7) 0.9007(6)
H57 H 0.8886 0.9659 0.9586
H58 H 0.7893 1.0441 0.8999
C28 C 0.6843(9) 0.8642(7) 0.9135(6)
H59 H 0.7118 0.776 0.9171
H60 H 0.6137 0.8489 0.8535
C29 C 0.6029(7) 0.9085(6) 1.0038(5)
H61 H 0.6594 0.901 1.0651
H62 H 0.5907 1.0038 1.0097
C30 C 0.8293(7) 0.6256(6) 0.4691(4)
H63 H 0.9139 0.5946 0.4352
H64 H 0.7373 0.591 0.4233
C31 C 0.8126(7) 0.5726(6) 0.5616(4)
H65 H 0.8945 0.6231 0.6124
H66 H 0.8222 0.476 0.5473
C32 C 0.6640(6) 0.5845(7) 0.6036(4)
H67 H 0.5821 0.5347 0.5526
H68 H 0.6548 0.6812 0.6184
C33 C 0.6452(6) 0.5285(6) 0.6989(4)
H69 H 0.6538 0.4317 0.6846
H70 H 0.7262 0.5785 0.7505
C34 C 0.4951(6) 0.5422(6) 0.7381(4)
H71 H 0.4746 0.633 0.7347
H72 H 0.4158 0.4735 0.6951
C35 C 1.2959(11) 1.1853(13) 0.3266(8)
H73 H 1.2497 1.2664 0.3443
H74 H 1.2239 1.1124 0.2809
C36 C 1.437(2) 1.2176(16) 0.2815(9)
H75 H 1.455 1.1367 0.2341
H76 H 1.4338 1.2913 0.2453
C37 C 1.5476(13) 1.2570(17) 0.3568(12)
H77 H 1.5635 1.3562 0.3831
H78 H 1.6424 1.2332 0.3341
C38 C 1.4957(9) 1.1837(11) 0.4320(8)
H79 H 1.5446 1.1043 0.4295
H80 H 1.5206 1.2433 0.499
C39 C 0.0518(8) 0.2509(6) 1.1077(5)
H81 H 0.1048 0.1952 1.1431
H82 H 0.049 0.2156 1.0351
C40 C -0.1057(8) 0.2502(8) 1.1400(6)
H83 H -0.1725 0.2689 1.0876
H84 H -0.1487 0.1619 1.1556
C41 C -0.0832(8) 0.3607(7) 1.2303(6)
H85 H -0.0547 0.3282 1.2903
H86 H -0.1743 0.4 1.2407
C42 C 0.0410(8) 0.4604(7) 1.2062(6)
H87 H 0.0005 0.5308 1.1793
H88 H 0.1077 0.5055 1.2671
Li1 Li 1.0399(10) 0.9004(9) 0.5760(7)
Li2 Li 1.2057(11) 1.0316(10) 0.4848(7)
Li3 Li 0.4112(10) 0.6249(9) 0.9537(6)
Li4 Li 0.2523(9) 0.4983(9) 1.0549(6)
N1 N 1.2600(5) 0.8919(4) 0.5534(3)
N2 N 0.9912(5) 1.0444(4) 0.4987(3)
N3 N 0.1959(5) 0.6406(4) 0.9882(3)
N4 N 0.4615(4) 0.4794(4) 1.0283(3)
O1 O 1.1053(4) 0.9347(4) 0.7224(3)
O2 O 0.8563(4) 0.7721(3) 0.4945(3)
O3 O 0.4633(4) 0.8217(4) 0.9894(3)
O4 O 0.4905(4) 0.5251(3) 0.8381(3)
O5 O 1.3418(4) 1.1413(5) 0.4132(3)
O6 O 0.1224(4) 0.3901(4) 1.1342(3)
loop_
_geom_bond_atom_site_label_1
_geom_bond_atom_site_label_2
_geom_bond_site_symmetry_1
_geom_bond_site_symmetry_2
C1 H1 1_555 1_555
H2 C1 1_555 1_555
C2 C1 1_555 1_555
H3 C2 1_555 1_555
C3 C2 1_555 1_555
H4 C3 1_555 1_555
H5 C3 1_555 1_555
H6 C3 1_555 1_555
C4 H7 1_555 1_555
C5 C4 1_555 1_555
H8 C5 1_555 1_555
H9 C5 1_555 1_555
H10 C5 1_555 1_555
C6 C4 1_555 1_555
H11 C6 1_555 1_555
H12 C6 1_555 1_555
H13 C6 1_555 1_555
C7 H14 1_555 1_555
H15 C7 1_555 1_555
C8 C7 1_555 1_555
H16 C8 1_555 1_555
C9 C8 1_555 1_555
H17 C9 1_555 1_555
H18 C9 1_555 1_555
H19 C9 1_555 1_555
C10 H20 1_555 1_555
C11 C10 1_555 1_555
H21 C11 1_555 1_555
H22 C11 1_555 1_555
H23 C11 1_555 1_555
C12 C10 1_555 1_555
H24 C12 1_555 1_555
H25 C12 1_555 1_555
H26 C12 1_555 1_555
C13 H27 1_555 1_555
H28 C13 1_555 1_555
C14 C13 1_555 1_555
H29 C14 1_555 1_555
C15 C14 1_555 1_555
H30 C15 1_555 1_555
H31 C15 1_555 1_555
H32 C15 1_555 1_555
C16 H33 1_555 1_555
C17 C16 1_555 1_555
H34 C17 1_555 1_555
H35 C17 1_555 1_555
H36 C17 1_555 1_555
C18 C16 1_555 1_555
H37 C18 1_555 1_555
H38 C18 1_555 1_555
H39 C18 1_555 1_555
C19 H40 1_555 1_555
H41 C19 1_555 1_555
C20 C19 1_555 1_555
H42 C20 1_555 1_555
C21 C20 1_555 1_555
H43 C21 1_555 1_555
H44 C21 1_555 1_555
H45 C21 1_555 1_555
C22 H46 1_555 1_555
C23 C22 1_555 1_555
H47 C23 1_555 1_555
H48 C23 1_555 1_555
H49 C23 1_555 1_555
C24 C22 1_555 1_555
H50 C24 1_555 1_555
H51 C24 1_555 1_555
H52 C24 1_555 1_555
C25 H53 1_555 1_555
H54 C25 1_555 1_555
C26 C25 1_555 1_555
H55 C26 1_555 1_555
H56 C26 1_555 1_555
C27 C26 1_555 1_555
H57 C27 1_555 1_555
H58 C27 1_555 1_555
C28 C27 1_555 1_555
H59 C28 1_555 1_555
H60 C28 1_555 1_555
C29 C28 1_555 1_555
H61 C29 1_555 1_555
H62 C29 1_555 1_555
C30 H63 1_555 1_555
H64 C30 1_555 1_555
C31 C30 1_555 1_555
H65 C31 1_555 1_555
H66 C31 1_555 1_555
C32 C31 1_555 1_555
H67 C32 1_555 1_555
H68 C32 1_555 1_555
C33 C32 1_555 1_555
H69 C33 1_555 1_555
H70 C33 1_555 1_555
C34 C33 1_555 1_555
H71 C34 1_555 1_555
H72 C34 1_555 1_555
C35 H73 1_555 1_555
H74 C35 1_555 1_555
C36 C35 1_555 1_555
H75 C36 1_555 1_555
H76 C36 1_555 1_555
C37 C36 1_555 1_555
H77 C37 1_555 1_555
H78 C37 1_555 1_555
C38 C37 1_555 1_555
H79 C38 1_555 1_555
H80 C38 1_555 1_555
C39 H81 1_555 1_555
H82 C39 1_555 1_555
C40 C39 1_555 1_555
H83 C40 1_555 1_555
H84 C40 1_555 1_555
C41 C40 1_555 1_555
H85 C41 1_555 1_555
H86 C41 1_555 1_555
C42 C41 1_555 1_555
H87 C42 1_555 1_555
H88 C42 1_555 1_555
Li1 N1 1_555 1_555
Li2 N1 1_555 1_555
Li3 N3 1_555 1_555
Li4 N3 1_555 1_555
N1 C2 1_555 1_555
N2 C8 1_555 1_555
N3 C14 1_555 1_555
N4 C20 1_555 1_555
O1 C1 1_555 1_555
O2 C7 1_555 1_555
O3 C13 1_555 1_555
O4 C19 1_555 1_555
O5 C35 1_555 1_555
O6 C39 1_555 1_555
C4 N1 1_555 1_555
C10 N2 1_555 1_555
C16 N3 1_555 1_555
C22 N4 1_555 1_555
C25 O1 1_555 1_555
C29 O3 1_555 1_555
C30 O2 1_555 1_555
C34 O4 1_555 1_555
C38 O5 1_555 1_555
C42 O6 1_555 1_555
Li1 N2 1_555 1_555
Li1 O1 1_555 1_555
Li1 O2 1_555 1_555
Li2 N2 1_555 1_555
Li2 O5 1_555 1_555
Li3 N4 1_555 1_555
Li3 O3 1_555 1_555
Li3 O4 1_555 1_555
Li4 N4 1_555 1_555
Li4 O6 1_555 1_555

#END
