
#######################################################################
#
#                 Cambridge Crystallographic Data Centre
#                                CCDC 
#
#######################################################################
#
# If this CIF has been generated from an entry in the Cambridge 
# Structural Database, then it will include bibliographic, chemical, 
# crystal, experimental, refinement or atomic coordinate data resulting 
# from the CCDC's data processing and validation procedures.
#
#######################################################################

data_RONPUH
_chemical_formula_moiety         'C33 H27 N15'
_chemical_name_systematic        
'1,3,5-tris(4-(2,4-Diamino-1,3,5-triazin-6-yl)phenyl)benzene unknown solvate'
_symmetry_cell_setting           rhombohedral
_symmetry_space_group_name_H-M   'R 3'
_symmetry_Int_Tables_number      146
_space_group_name_Hall           'R 3'
loop_
_symmetry_equiv_pos_site_id
_symmetry_equiv_pos_as_xyz
1 x,y,z
2 -y,x-y,z
3 -x+y,-x,z
4 2/3+x,1/3+y,1/3+z
5 2/3-y,1/3+x-y,1/3+z
6 2/3-x+y,1/3-x,1/3+z
7 1/3+x,2/3+y,2/3+z
8 1/3-y,2/3+x-y,2/3+z
9 1/3-x+y,2/3-x,2/3+z
_cell_length_a                   22.5819(7)
_cell_length_b                   22.5819(7)
_cell_length_c                   16.6210(8)
_cell_angle_alpha                90
_cell_angle_beta                 90
_cell_angle_gamma                120
_cell_volume                     7340.21
_exptl_crystal_colour            colorless
_exptl_crystal_description       block
_cell_formula_units_Z            3
loop_
_atom_site_label
_atom_site_type_symbol
_atom_site_fract_x
_atom_site_fract_y
_atom_site_fract_z
C1 C -0.06151(15) 0.00162(11) -0.00269(7)
H1 H -0.1021 -0.0027 -0.0098
C2 C -0.06313(11) -0.06151(11) 0.00269(15)
C3 C -0.12962(12) -0.12529(12) 0.0073(2)
C4 C -0.15393(15) -0.15064(16) 0.0804(2)
H2 H -0.1292 -0.1272 0.1252
C5 C -0.21530(15) -0.21119(15) 0.0871(2)
H3 H -0.2320 -0.2284 0.1373
C6 C -0.25285(12) -0.24726(12) 0.0233(2)
C7 C -0.22667(15) -0.22037(15) -0.0483(2)
H4 H -0.2512 -0.2442 -0.0930
C8 C -0.16622(17) -0.16017(17) -0.0580(2)
H5 H -0.1500 -0.1430 -0.1083
C9 C -0.31581(13) -0.30730(13) 0.0365(2)
C10 C -0.40554(17) -0.38212(16) 0.1140(3)
C11 C -0.40779(15) -0.40383(16) -0.0230(3)
N1 N -0.34546(11) -0.34515(11) -0.02895(16)
N2 N -0.34265(14) -0.32291(13) 0.1101(2)
N3 N -0.43749(12) -0.42211(11) 0.0497(2)
N4 N -0.43294(14) -0.39925(13) 0.1811(2)
H6 H -0.4723 -0.4366 0.1867
H7 H -0.4124 -0.3737 0.2215
N5 N -0.43640(12) -0.43909(12) -0.08097(18)
H8 H -0.4170 -0.4268 -0.1267
H9 H -0.4760 -0.4762 -0.0762
C1A C -0.00162(11) -0.06313(19) -0.00269(7)
H1A H 0.0027 -0.0994 -0.0098
C2A C 0.06151(11) -0.00162(16) 0.00269(15)
C3A C 0.12529(12) -0.00433(17) 0.0073(2)
C4A C 0.15064(16) -0.00329(22) 0.0804(2)
H2A H 0.1272 -0.0020 0.1252
C5A C 0.21119(15) -0.00411(21) 0.0871(2)
H3A H 0.2284 -0.0036 0.1373
C6A C 0.24726(12) -0.00559(17) 0.0233(2)
C7A C 0.22037(15) -0.00630(21) -0.0483(2)
H4A H 0.2442 -0.0070 -0.0930
C8A C 0.16017(17) -0.00605(24) -0.0580(2)
H5A H 0.1430 -0.0070 -0.1083
C9A C 0.30730(13) -0.00851(18) 0.0365(2)
C10A C 0.38212(16) -0.02342(23) 0.1140(3)
C11A C 0.40383(16) -0.00396(22) -0.0230(3)
N1A N 0.34515(11) -0.00031(16) -0.02895(16)
N2A N 0.32291(13) -0.01974(19) 0.1101(2)
N3A N 0.42211(11) -0.01538(16) 0.0497(2)
N4A N 0.39925(13) -0.03369(19) 0.1811(2)
H6A H 0.4366 -0.0357 0.1867
H7A H 0.3737 -0.0387 0.2215
N5A N 0.43909(12) 0.00269(17) -0.08097(18)
H8A H 0.4268 0.0098 -0.1267
H9A H 0.4762 0.0002 -0.0762
C1B C 0.06313(19) 0.06151(15) -0.00269(7)
H1B H 0.0994 0.1021 -0.0098
C2B C 0.00162(16) 0.06313(11) 0.00269(15)
C3B C 0.00433(17) 0.12962(12) 0.0073(2)
C4B C 0.00329(22) 0.15393(15) 0.0804(2)
H2B H 0.0020 0.1292 0.1252
C5B C 0.00411(21) 0.21530(15) 0.0871(2)
H3B H 0.0036 0.2320 0.1373
C6B C 0.00559(17) 0.25285(12) 0.0233(2)
C7B C 0.00630(21) 0.22667(15) -0.0483(2)
H4B H 0.0070 0.2512 -0.0930
C8B C 0.00605(24) 0.16622(17) -0.0580(2)
H5B H 0.0070 0.1500 -0.1083
C9B C 0.00851(18) 0.31581(13) 0.0365(2)
C10B C 0.02342(23) 0.40554(17) 0.1140(3)
C11B C 0.00396(22) 0.40779(15) -0.0230(3)
N1B N 0.00031(16) 0.34546(11) -0.02895(16)
N2B N 0.01974(19) 0.34265(14) 0.1101(2)
N3B N 0.01538(16) 0.43749(12) 0.0497(2)
N4B N 0.03369(19) 0.43294(14) 0.1811(2)
H6B H 0.0357 0.4723 0.1867
H7B H 0.0387 0.4124 0.2215
N5B N -0.00269(17) 0.43640(12) -0.08097(18)
H8B H -0.0098 0.4170 -0.1267
H9B H -0.0002 0.4760 -0.0762
loop_
_geom_bond_atom_site_label_1
_geom_bond_atom_site_label_2
_geom_bond_site_symmetry_1
_geom_bond_site_symmetry_2
C1 H1 1_555 1_555
C2 C1 1_555 1_555
C3 C2 1_555 1_555
C4 C3 1_555 1_555
H2 C4 1_555 1_555
C5 C4 1_555 1_555
H3 C5 1_555 1_555
C6 C5 1_555 1_555
C7 C6 1_555 1_555
H4 C7 1_555 1_555
C8 C3 1_555 1_555
H5 C8 1_555 1_555
C9 C6 1_555 1_555
C10 N2 1_555 1_555
C11 N1 1_555 1_555
N1 C9 1_555 1_555
N2 C9 1_555 1_555
N3 C10 1_555 1_555
N4 C10 1_555 1_555
H6 N4 1_555 1_555
H7 N4 1_555 1_555
N5 C11 1_555 1_555
H8 N5 1_555 1_555
H9 N5 1_555 1_555
C1A C2 1_555 1_555
H1A C1A 1_555 1_555
C2A C1A 1_555 1_555
C3A C2A 1_555 1_555
C4A C3A 1_555 1_555
H2A C4A 1_555 1_555
C5A C4A 1_555 1_555
H3A C5A 1_555 1_555
C6A C5A 1_555 1_555
C7A C6A 1_555 1_555
H4A C7A 1_555 1_555
C8A C3A 1_555 1_555
H5A C8A 1_555 1_555
C9A C6A 1_555 1_555
C10A N2A 1_555 1_555
C11A N1A 1_555 1_555
N1A C9A 1_555 1_555
N2A C9A 1_555 1_555
N3A C10A 1_555 1_555
N4A C10A 1_555 1_555
H6A N4A 1_555 1_555
H7A N4A 1_555 1_555
N5A C11A 1_555 1_555
H8A N5A 1_555 1_555
H9A N5A 1_555 1_555
C1B C2A 1_555 1_555
H1B C1B 1_555 1_555
C2B C1 1_555 1_555
C3B C2B 1_555 1_555
C4B C3B 1_555 1_555
H2B C4B 1_555 1_555
C5B C4B 1_555 1_555
H3B C5B 1_555 1_555
C6B C5B 1_555 1_555
C7B C6B 1_555 1_555
H4B C7B 1_555 1_555
C8B C3B 1_555 1_555
H5B C8B 1_555 1_555
C9B C6B 1_555 1_555
C10B N2B 1_555 1_555
C11B N1B 1_555 1_555
N1B C9B 1_555 1_555
N2B C9B 1_555 1_555
N3B C10B 1_555 1_555
N4B C10B 1_555 1_555
H6B N4B 1_555 1_555
H7B N4B 1_555 1_555
N5B C11B 1_555 1_555
H8B N5B 1_555 1_555
H9B N5B 1_555 1_555
C7 C8 1_555 1_555
C11 N3 1_555 1_555
C7A C8A 1_555 1_555
C11A N3A 1_555 1_555
C1B C2B 1_555 1_555
C7B C8B 1_555 1_555
C11B N3B 1_555 1_555

#END
