
#######################################################################
#
#                 Cambridge Crystallographic Data Centre
#                                CCDC 
#
#######################################################################
#
# If this CIF has been generated from an entry in the Cambridge 
# Structural Database, then it will include bibliographic, chemical, 
# crystal, experimental, refinement or atomic coordinate data resulting 
# from the CCDC's data processing and validation procedures.
#
#######################################################################

data_RONWIC
_chemical_formula_moiety         'C15 H9 F3 N2 O1'
_chemical_name_systematic        
'2-phenyl-3-(trifluoromethyl)quinoxaline 1-oxide'
_symmetry_cell_setting           tetragonal
_symmetry_space_group_name_H-M   'I 41/a'
_symmetry_Int_Tables_number      88
_space_group_name_Hall           '-I 4ad'
loop_
_symmetry_equiv_pos_site_id
_symmetry_equiv_pos_as_xyz
1 x,y,z
2 1/2-x,-y,1/2+z
3 3/4-y,1/4+x,1/4+z
4 3/4+y,3/4-x,3/4+z
5 1/2+x,1/2+y,1/2+z
6 -x,1/2-y,z
7 1/4-y,3/4+x,3/4+z
8 1/4+y,1/4-x,1/4+z
9 -x,-y,-z
10 1/2+x,y,1/2-z
11 1/4+y,3/4-x,3/4-z
12 1/4-y,1/4+x,1/4-z
13 1/2-x,1/2-y,1/2-z
14 x,1/2+y,-z
15 3/4+y,1/4-x,1/4-z
16 3/4-y,3/4+x,3/4-z
_cell_length_a                   20.088(4)
_cell_length_b                   20.088(4)
_cell_length_c                   13.191(3)
_cell_angle_alpha                90
_cell_angle_beta                 90
_cell_angle_gamma                90
_cell_volume                     5322.93
_exptl_crystal_colour            colorless
_exptl_crystal_description       prism
_cell_formula_units_Z            16
loop_
_atom_site_label
_atom_site_type_symbol
_atom_site_fract_x
_atom_site_fract_y
_atom_site_fract_z
F1 F 0.35549(11) 0.73411(9) -0.07920(15)
F2 F 0.32295(11) 0.75123(8) 0.07082(16)
F3 F 0.41589(10) 0.70443(9) 0.0441(2)
N1 N 0.22326(8) 0.57361(8) 0.02178(10)
N2 N 0.36187(9) 0.58978(8) 0.02458(12)
O1 O 0.16039(7) 0.56518(7) 0.02285(11)
C1 C 0.26482(10) 0.51804(8) 0.03151(11)
C2 C 0.23724(11) 0.45430(9) 0.03983(13)
H1 H 0.1913 0.4484 0.0416
C3 C 0.27902(13) 0.40110(10) 0.04533(15)
H2 H 0.2613 0.3584 0.0503
C4 C 0.34768(14) 0.40943(11) 0.04361(17)
H3 H 0.3752 0.3723 0.0471
C5 C 0.37539(12) 0.47163(11) 0.03682(15)
H4 H 0.4214 0.4766 0.0365
C6 C 0.33411(10) 0.52786(9) 0.03029(12)
C7 C 0.32062(11) 0.63966(10) 0.01467(14)
C8 C 0.25068(10) 0.63503(9) 0.00807(13)
C9 C 0.20463(11) 0.69024(10) -0.01672(17)
C10 C 0.20677(13) 0.71683(12) -0.11444(19)
H5 H 0.2368 0.7002 -0.1618
C11 C 0.16435(17) 0.76756(15) -0.1403(3)
H6 H 0.1661 0.7856 -0.2052
C12 C 0.12049(19) 0.79123(14) -0.0731(4)
H7 H 0.0923 0.8259 -0.0919
C13 C 0.11626(16) 0.76516(17) 0.0237(3)
H8 H 0.0849 0.7816 0.0691
C14 C 0.15957(14) 0.71383(13) 0.0532(2)
H9 H 0.1578 0.6962 0.1183
C15 C 0.35413(14) 0.70748(12) 0.0131(2)
loop_
_geom_bond_atom_site_label_1
_geom_bond_atom_site_label_2
_geom_bond_site_symmetry_1
_geom_bond_site_symmetry_2
F1 C15 1_555 1_555
F2 C15 1_555 1_555
F3 C15 1_555 1_555
N1 O1 1_555 1_555
N2 C6 1_555 1_555
C1 N1 1_555 1_555
C2 C1 1_555 1_555
H1 C2 1_555 1_555
C3 C2 1_555 1_555
H2 C3 1_555 1_555
C4 C3 1_555 1_555
H3 C4 1_555 1_555
C5 C4 1_555 1_555
H4 C5 1_555 1_555
C6 C1 1_555 1_555
C7 N2 1_555 1_555
C8 N1 1_555 1_555
C9 C8 1_555 1_555
C10 C9 1_555 1_555
H5 C10 1_555 1_555
C11 C10 1_555 1_555
H6 C11 1_555 1_555
C12 C11 1_555 1_555
H7 C12 1_555 1_555
C13 C12 1_555 1_555
H8 C13 1_555 1_555
C14 C9 1_555 1_555
H9 C14 1_555 1_555
C15 C7 1_555 1_555
C5 C6 1_555 1_555
C7 C8 1_555 1_555
C13 C14 1_555 1_555

#END
