
#######################################################################
#
#                 Cambridge Crystallographic Data Centre
#                                CCDC 
#
#######################################################################
#
# If this CIF has been generated from an entry in the Cambridge 
# Structural Database, then it will include bibliographic, chemical, 
# crystal, experimental, refinement or atomic coordinate data resulting 
# from the CCDC's data processing and validation procedures.
#
#######################################################################

data_RONXUN
_chemical_formula_moiety         
'C66 H78 O6,0.5(C2 H3 N1),0.25(C1 H2 Cl2),0.25(H2 O1)'
_chemical_name_systematic        
'5,11,17,23,29,35-Hexa-t-butyl-3,37:21,39:33,41-triepoxy-38,40,42-trioxocalix(6)arene acetonitrile dichloromethane solvate hydrate'
_symmetry_cell_setting           monoclinic
_symmetry_space_group_name_H-M   'P 21/n'
_symmetry_Int_Tables_number      14
_space_group_name_Hall           '-P 2yn'
loop_
_symmetry_equiv_pos_site_id
_symmetry_equiv_pos_as_xyz
1 x,y,z
2 1/2-x,1/2+y,1/2-z
3 -x,-y,-z
4 1/2+x,1/2-y,1/2+z
_cell_length_a                   18.916(3)
_cell_length_b                   20.010(6)
_cell_length_c                   17.604(3)
_cell_angle_alpha                90
_cell_angle_beta                 90.37(2)
_cell_angle_gamma                90
_cell_volume                     6663.14
_exptl_crystal_colour            yellow
_chemical_melting_point          '200-215 deg.C'
_cell_formula_units_Z            4
loop_
_atom_site_label
_atom_site_type_symbol
_atom_site_fract_x
_atom_site_fract_y
_atom_site_fract_z
O1 O 0.4881(3) 0.4198(3) 0.4700(3)
O2 O 0.6167(2) 0.3721(2) 0.5330(3)
O3 O 0.6042(3) 0.2143(2) 0.7193(3)
O4 O 0.4555(2) 0.2190(2) 0.7163(2)
O5 O 0.3187(3) 0.1499(3) 0.4839(3)
O6 O 0.4267(2) 0.2248(2) 0.4056(2)
C1 C 0.5345(3) 0.3949(3) 0.4315(4)
C2 C 0.5161(3) 0.3601(3) 0.3625(3)
C3 C 0.5688(3) 0.3314(3) 0.3228(3)
C4 C 0.6444(3) 0.3322(3) 0.3450(4)
C5 C 0.6621(3) 0.3638(3) 0.4079(4)
C6 C 0.6120(4) 0.3991(3) 0.4560(4)
C7 C 0.6322(3) 0.4754(3) 0.4622(4)
C8 C 0.6555(3) 0.4165(3) 0.5744(4)
C9 C 0.6691(3) 0.4751(3) 0.5395(3)
C10 C 0.7087(3) 0.5240(3) 0.5754(4)
C11 C 0.7365(3) 0.5141(3) 0.6464(3)
C12 C 0.7223(3) 0.4515(3) 0.6814(3)
C13 C 0.6823(3) 0.4017(3) 0.6479(4)
C14 C 0.6678(3) 0.3350(3) 0.6841(4)
C15 C 0.5704(3) 0.2634(3) 0.7364(3)
C16 C 0.5956(3) 0.3308(3) 0.7203(3)
C17 C 0.5549(4) 0.3823(3) 0.7397(4)
C18 C 0.4867(4) 0.3771(3) 0.7777(4)
C19 C 0.4605(3) 0.3174(3) 0.7929(4)
C20 C 0.4983(3) 0.2549(3) 0.7739(3)
C21 C 0.5040(4) 0.2075(3) 0.8432(3)
C22 C 0.4401(3) 0.1565(3) 0.7446(3)
C23 C 0.4644(3) 0.1464(3) 0.8165(3)
C24 C 0.4505(3) 0.0872(3) 0.8530(3)
C25 C 0.4117(4) 0.0377(3) 0.8171(4)
C26 C 0.3864(3) 0.0516(3) 0.7426(4)
C27 C 0.4001(3) 0.1111(3) 0.7057(3)
C28 C 0.3673(3) 0.1264(3) 0.6284(4)
C29 C 0.3828(4) 0.1426(4) 0.4890(4)
C30 C 0.4158(3) 0.1285(3) 0.5614(3)
C31 C 0.4855(3) 0.1172(3) 0.5632(3)
C32 C 0.5310(3) 0.1160(3) 0.4955(3)
C33 C 0.5027(4) 0.1320(4) 0.4291(4)
C34 C 0.4279(4) 0.1524(3) 0.4180(3)
C35 C 0.3952(4) 0.1202(3) 0.3466(4)
C36 C 0.4155(3) 0.2334(3) 0.3280(3)
C37 C 0.3988(3) 0.1768(3) 0.2899(3)
C38 C 0.3878(3) 0.1781(3) 0.2126(3)
C39 C 0.3935(3) 0.2381(3) 0.1742(3)
C40 C 0.4104(3) 0.2954(3) 0.2156(4)
C41 C 0.4216(3) 0.2959(3) 0.2926(4)
C42 C 0.4403(3) 0.3559(3) 0.3396(4)
C43 C 0.6950(3) 0.2982(3) 0.2916(4)
C44 C 0.6728(5) 0.2268(4) 0.2765(6)
C45 C 0.6933(5) 0.3361(5) 0.2151(5)
C46 C 0.7702(5) 0.2981(4) 0.3207(5)
C47 C 0.7814(3) 0.5647(3) 0.6864(4)
C48 C 0.7797(5) 0.6335(5) 0.6469(6)
C49 C 0.8540(5) 0.5420(5) 0.6958(6)
C50 C 0.7523(6) 0.5795(5) 0.7654(6)
C51 C 0.4473(4) 0.4418(4) 0.7947(5)
C52 C 0.4295(6) 0.4764(5) 0.7202(7)
C53 C 0.4943(7) 0.4862(5) 0.8448(8)
C54 C 0.3762(6) 0.4301(5) 0.8330(7)
C55 C 0.3935(5) -0.0280(4) 0.8553(4)
C56 C 0.420(1) -0.0341(7) 0.9340(8)
C57 C 0.3192(8) -0.043(1) 0.852(1)
C58 C 0.429(1) -0.0833(5) 0.816(1)
C59 C 0.6077(3) 0.0959(3) 0.5059(3)
C60 C 0.6129(4) 0.0369(4) 0.5588(5)
C61 C 0.6459(5) 0.1540(5) 0.5420(6)
C62 C 0.6435(5) 0.0746(5) 0.4337(5)
C63 C 0.3818(4) 0.2405(4) 0.0881(4)
C64 C 0.3644 0.1764 0.0553
C66 C 0.3201 0.2854 0.0724
C68 C 0.4554 0.2633 0.0548
H1 H 0.5564 0.3090 0.2771
H2 H 0.7105 0.3636 0.4229
H3 H 0.6632 0.4887 0.4228
H4 H 0.5916 0.5033 0.4619
H5 H 0.7168 0.5653 0.5502
H6 H 0.7414 0.4434 0.7306
H7 H 0.6710 0.3014 0.6462
H8 H 0.7027 0.3272 0.7222
H9 H 0.5716 0.4258 0.7279
H10 H 0.4157 0.3144 0.8168
H11 H 0.5519 0.1972 0.8546
H12 H 0.4823 0.2265 0.8867
H13 H 0.4676 0.0802 0.9032
H14 H 0.3590 0.0186 0.7172
H15 H 0.3326 0.0930 0.6185
H16 H 0.3450 0.1688 0.6320
H17 H 0.5071 0.1095 0.6113
H18 H 0.5321 0.1304 0.3856
H19 H 0.4221 0.0828 0.3303
H20 H 0.3478 0.1068 0.3552
H21 H 0.3764 0.1383 0.1859
H22 H 0.4144 0.3364 0.1889
H23 H 0.4126 0.3549 0.3844
H24 H 0.4289 0.3948 0.3110
H25 H 0.6257 0.2262 0.2575
H26 H 0.7035 0.2075 0.2400
H27 H 0.6753 0.2019 0.3224
H28 H 0.7074 0.3812 0.2230
H29 H 0.7247 0.3153 0.1805
H30 H 0.6467 0.3352 0.1947
H31 H 0.7727 0.2737 0.3670
H32 H 0.8000 0.2778 0.2842
H33 H 0.7852 0.3428 0.3293
H34 H 0.8080 0.6642 0.6748
H35 H 0.7975 0.6294 0.5968
H36 H 0.7323 0.6494 0.6448
H37 H 0.8547 0.5023 0.7253
H38 H 0.8739 0.5334 0.6473
H39 H 0.8809 0.5756 0.7209
H40 H 0.7808 0.6124 0.7895
H41 H 0.7052 0.5955 0.7610
H42 H 0.7529 0.5397 0.7949
H43 H 0.4719 0.4852 0.6933
H44 H 0.3998 0.4484 0.6904
H45 H 0.4059 0.5173 0.7302
H46 H 0.5048 0.4635 0.8909
H47 H 0.5370 0.4958 0.8189
H48 H 0.4702 0.5267 0.8557
H49 H 0.3533 0.4717 0.8409
H50 H 0.3475 0.4026 0.8014
H51 H 0.3836 0.4086 0.8805
H52 H 0.4073 -0.0768 0.9535
H53 H 0.4697 -0.0294 0.9347
H54 H 0.3991 -0.0003 0.9644
H55 H 0.2936 -0.0098 0.8785
H56 H 0.3041 -0.0437 0.8001
H57 H 0.3109 -0.0855 0.8740
H58 H 0.4178 -0.1243 0.8408
H59 H 0.4141 -0.0850 0.7649
H60 H 0.4789 -0.0766 0.8185
H61 H 0.5918 0.0479 0.6060
H62 H 0.5889 -0.0002 0.5370
H63 H 0.6612 0.0258 0.5668
H64 H 0.6943 0.1429 0.5490
H65 H 0.6421 0.1920 0.5099
H66 H 0.6253 0.1638 0.5898
H67 H 0.6198 0.0368 0.4131
H68 H 0.6419 0.1102 0.3980
H69 H 0.6914 0.0634 0.4443
N1 N 0.916(1) 0.1842(8) 0.0714(8)
C70 C 0.856(2) 0.182(1) 0.082(2)
C71 C 0.798(2) 0.188(1) 0.074(2)
Cl1 Cl 0.1629(6) 0.1774(7) 0.3966(5)
Cl2 Cl 0.0959(6) 0.1284(8) 0.5207(8)
C72 C 0.166(1) 0.134(1) 0.475(1)
O7 O 0.1823(7) 0.074(1) 0.390(1)
C65? C 0.3032 0.2254 0.0712
C67? C 0.3874 0.3117 0.0526
C69? C 0.4200 0.1902 0.0443
loop_
_geom_bond_atom_site_label_1
_geom_bond_atom_site_label_2
_geom_bond_site_symmetry_1
_geom_bond_site_symmetry_2
O1 C1 1_555 1_555
O2 C6 1_555 1_555
O3 C15 1_555 1_555
O4 C20 1_555 1_555
O5 C29 1_555 1_555
O6 C34 1_555 1_555
C1 C2 1_555 1_555
C2 C3 1_555 1_555
C3 C4 1_555 1_555
C4 C5 1_555 1_555
C5 C6 1_555 1_555
C6 C1 1_555 1_555
C7 C6 1_555 1_555
C8 O2 1_555 1_555
C9 C7 1_555 1_555
C10 C9 1_555 1_555
C11 C10 1_555 1_555
C12 C11 1_555 1_555
C13 C8 1_555 1_555
C14 C13 1_555 1_555
C15 C16 1_555 1_555
C16 C14 1_555 1_555
C17 C16 1_555 1_555
C18 C17 1_555 1_555
C19 C18 1_555 1_555
C20 C15 1_555 1_555
C21 C20 1_555 1_555
C22 O4 1_555 1_555
C23 C21 1_555 1_555
C24 C23 1_555 1_555
C25 C24 1_555 1_555
C26 C25 1_555 1_555
C27 C22 1_555 1_555
C28 C27 1_555 1_555
C29 C30 1_555 1_555
C30 C28 1_555 1_555
C31 C30 1_555 1_555
C32 C31 1_555 1_555
C33 C32 1_555 1_555
C34 C29 1_555 1_555
C35 C34 1_555 1_555
C36 O6 1_555 1_555
C37 C35 1_555 1_555
C38 C37 1_555 1_555
C39 C38 1_555 1_555
C40 C39 1_555 1_555
C41 C36 1_555 1_555
C42 C2 1_555 1_555
C43 C4 1_555 1_555
C44 C43 1_555 1_555
C45 C43 1_555 1_555
C46 C43 1_555 1_555
C47 C11 1_555 1_555
C48 C47 1_555 1_555
C49 C47 1_555 1_555
C50 C47 1_555 1_555
C51 C18 1_555 1_555
C52 C51 1_555 1_555
C53 C51 1_555 1_555
C54 C51 1_555 1_555
C55 C25 1_555 1_555
C56 C55 1_555 1_555
C57 C55 1_555 1_555
C58 C55 1_555 1_555
C59 C32 1_555 1_555
C60 C59 1_555 1_555
C61 C59 1_555 1_555
C62 C59 1_555 1_555
C63 C39 1_555 1_555
C64 C63 1_555 1_555
C66 C63 1_555 1_555
C68 C63 1_555 1_555
H1 C3 1_555 1_555
H2 C5 1_555 1_555
H3 C7 1_555 1_555
H4 C7 1_555 1_555
H5 C10 1_555 1_555
H6 C12 1_555 1_555
H7 C14 1_555 1_555
H8 C14 1_555 1_555
H9 C17 1_555 1_555
H10 C19 1_555 1_555
H11 C21 1_555 1_555
H12 C21 1_555 1_555
H13 C24 1_555 1_555
H14 C26 1_555 1_555
H15 C28 1_555 1_555
H16 C28 1_555 1_555
H17 C31 1_555 1_555
H18 C33 1_555 1_555
H19 C35 1_555 1_555
H20 C35 1_555 1_555
H21 C38 1_555 1_555
H22 C40 1_555 1_555
H23 C42 1_555 1_555
H24 C42 1_555 1_555
H25 C44 1_555 1_555
H26 C44 1_555 1_555
H27 C44 1_555 1_555
H28 C45 1_555 1_555
H29 C45 1_555 1_555
H30 C45 1_555 1_555
H31 C46 1_555 1_555
H32 C46 1_555 1_555
H33 C46 1_555 1_555
H34 C48 1_555 1_555
H35 C48 1_555 1_555
H36 C48 1_555 1_555
H37 C49 1_555 1_555
H38 C49 1_555 1_555
H39 C49 1_555 1_555
H40 C50 1_555 1_555
H41 C50 1_555 1_555
H42 C50 1_555 1_555
H43 C52 1_555 1_555
H44 C52 1_555 1_555
H45 C52 1_555 1_555
H46 C53 1_555 1_555
H47 C53 1_555 1_555
H48 C53 1_555 1_555
H49 C54 1_555 1_555
H50 C54 1_555 1_555
H51 C54 1_555 1_555
H52 C56 1_555 1_555
H53 C56 1_555 1_555
H54 C56 1_555 1_555
H55 C57 1_555 1_555
H56 C57 1_555 1_555
H57 C57 1_555 1_555
H58 C58 1_555 1_555
H59 C58 1_555 1_555
H60 C58 1_555 1_555
H61 C60 1_555 1_555
H62 C60 1_555 1_555
H63 C60 1_555 1_555
H64 C61 1_555 1_555
H65 C61 1_555 1_555
H66 C61 1_555 1_555
H67 C62 1_555 1_555
H68 C62 1_555 1_555
H69 C62 1_555 1_555
N1 C70 1_555 1_555
C70 C71 1_555 1_555
Cl1 C72 1_555 1_555
Cl2 C72 1_555 1_555
C8 C9 1_555 1_555
C12 C13 1_555 1_555
C19 C20 1_555 1_555
C22 C23 1_555 1_555
C26 C27 1_555 1_555
C33 C34 1_555 1_555
C36 C37 1_555 1_555
C40 C41 1_555 1_555
C41 C42 1_555 1_555

#END
