
#######################################################################
#
#                 Cambridge Crystallographic Data Centre
#                                CCDC 
#
#######################################################################
#
# If this CIF has been generated from an entry in the Cambridge 
# Structural Database, then it will include bibliographic, chemical, 
# crystal, experimental, refinement or atomic coordinate data resulting 
# from the CCDC's data processing and validation procedures.
#
#######################################################################

data_RONZEB
_chemical_formula_moiety         'C21 H15 N3 O2'
_chemical_name_systematic        
1-(1-phenyl-11H-6-oxa-2,11,11b-triazadibenzo[cd,g]azulen-11-yl)ethanone
_symmetry_cell_setting           orthorhombic
_symmetry_space_group_name_H-M   'P b c a'
_symmetry_Int_Tables_number      61
_space_group_name_Hall           '-P 2ac 2ab'
loop_
_symmetry_equiv_pos_site_id
_symmetry_equiv_pos_as_xyz
1 x,y,z
2 1/2+x,1/2-y,-z
3 -x,1/2+y,1/2-z
4 1/2-x,-y,1/2+z
5 -x,-y,-z
6 1/2-x,1/2+y,z
7 x,1/2-y,1/2+z
8 1/2+x,y,1/2-z
_cell_length_a                   8.4445(6)
_cell_length_b                   19.2694(14)
_cell_length_c                   20.5785(16)
_cell_angle_alpha                90
_cell_angle_beta                 90
_cell_angle_gamma                90
_cell_volume                     3348.54
_cell_formula_units_Z            8
loop_
_atom_site_label
_atom_site_type_symbol
_atom_site_fract_x
_atom_site_fract_y
_atom_site_fract_z
O1 O 0.08738(15) 0.09371(6) 0.97500(6)
O2 O 0.07908(12) 0.23079(6) 0.83056(6)
N1 N 0.23541(14) 0.11899(7) 0.88737(6)
N2 N 0.22748(13) 0.14812(7) 0.77283(6)
N3 N 0.38539(15) 0.06747(8) 0.72833(7)
C1 C 0.3096(2) 0.32231(10) 0.95362(11)
H1 H 0.3265 0.3675 0.9679
C2 C 0.3813(2) 0.26797(10) 0.98521(9)
H2 H 0.4462 0.2766 1.0208
C3 C 0.3578(2) 0.20066(9) 0.96449(8)
H3 H 0.4067 0.1640 0.9860
C4 C 0.26122(17) 0.18788(8) 0.91153(8)
C5 C 0.28338(17) 0.10670(8) 0.82304(7)
C6 C 0.38304(17) 0.05902(8) 0.79448(8)
C7 C 0.48255(17) 0.00563(8) 0.82528(9)
C8 C 0.5340(2) -0.05097(9) 0.78922(10)
H4 H 0.4997 -0.0565 0.7466
C9 C 0.6360(2) -0.09922(10) 0.81636(13)
H5 H 0.6690 -0.1372 0.7920
C10 C 0.6887(2) -0.09128(11) 0.87902(13)
H6 H 0.7587 -0.1234 0.8968
C11 C 0.13730(16) 0.07453(8) 0.92287(8)
C12 C 0.1020(2) 0.00526(8) 0.89475(8)
H7 H 0.0391 -0.0210 0.9248
H8 H 0.1994 -0.0189 0.8865
H9 H 0.0448 0.0109 0.8548
C13 C 0.29272(19) 0.12123(9) 0.71570(8)
C14 C 0.6383(2) -0.03627(12) 0.91516(11)
H10 H 0.6727 -0.0312 0.9578
C15 C 0.5357(2) 0.01220(10) 0.88854(9)
H11 H 0.5022 0.0496 0.9136
C16 C 0.2546(2) 0.15421(11) 0.65651(9)
H12 H 0.2951 0.1374 0.6175
C17 C 0.1590(2) 0.21037(11) 0.65684(10)
H13 H 0.1314 0.2313 0.6177
C18 C 0.1004(2) 0.23782(10) 0.71561(10)
H14 H 0.0372 0.2773 0.7151
C19 C 0.13574(17) 0.20696(9) 0.77255(9)
C20 C 0.18862(18) 0.24321(8) 0.88060(8)
C21 C 0.2127(2) 0.31029(9) 0.90093(10)
H15 H 0.1642 0.3471 0.8794
loop_
_geom_bond_atom_site_label_1
_geom_bond_atom_site_label_2
_geom_bond_site_symmetry_1
_geom_bond_site_symmetry_2
O1 C11 1_555 1_555
O2 C19 1_555 1_555
N1 C4 1_555 1_555
N2 C5 1_555 1_555
N3 C6 1_555 1_555
C1 H1 1_555 1_555
C2 C1 1_555 1_555
H2 C2 1_555 1_555
C3 C2 1_555 1_555
H3 C3 1_555 1_555
C4 C3 1_555 1_555
C5 N1 1_555 1_555
C6 C5 1_555 1_555
C7 C6 1_555 1_555
C8 C7 1_555 1_555
H4 C8 1_555 1_555
C9 C8 1_555 1_555
H5 C9 1_555 1_555
C10 C9 1_555 1_555
H6 C10 1_555 1_555
C11 N1 1_555 1_555
C12 C11 1_555 1_555
H7 C12 1_555 1_555
H8 C12 1_555 1_555
H9 C12 1_555 1_555
C13 N2 1_555 1_555
C14 C10 1_555 1_555
H10 C14 1_555 1_555
C15 C7 1_555 1_555
H11 C15 1_555 1_555
C16 C13 1_555 1_555
H12 C16 1_555 1_555
C17 C16 1_555 1_555
H13 C17 1_555 1_555
C18 C17 1_555 1_555
H14 C18 1_555 1_555
C19 N2 1_555 1_555
C20 O2 1_555 1_555
C21 C1 1_555 1_555
H15 C21 1_555 1_555
N3 C13 1_555 1_555
C4 C20 1_555 1_555
C14 C15 1_555 1_555
C18 C19 1_555 1_555
C20 C21 1_555 1_555

#END
