
#######################################################################
#
#                 Cambridge Crystallographic Data Centre
#                                CCDC 
#
#######################################################################
#
# If this CIF has been generated from an entry in the Cambridge 
# Structural Database, then it will include bibliographic, chemical, 
# crystal, experimental, refinement or atomic coordinate data resulting 
# from the CCDC's data processing and validation procedures.
#
#######################################################################

data_ROPBOP
_chemical_formula_moiety         'C25 H17 B1 F2 N2 O1'
_chemical_name_systematic        
9-(4-(1,1-difluoro-1H-9,1-pyrido[1,2-c][1,3,2]oxazaborinin-3-yl)phenyl)-9H-carbazole
_symmetry_cell_setting           orthorhombic
_symmetry_space_group_name_H-M   'P n a 21'
_symmetry_Int_Tables_number      33
_space_group_name_Hall           'P 2c -2n'
loop_
_symmetry_equiv_pos_site_id
_symmetry_equiv_pos_as_xyz
1 x,y,z
2 -x,-y,1/2+z
3 1/2+x,1/2-y,z
4 1/2-x,1/2+y,1/2+z
_cell_length_a                   14.306(3)
_cell_length_b                   10.163(2)
_cell_length_c                   13.511(3)
_cell_angle_alpha                90
_cell_angle_beta                 90
_cell_angle_gamma                90
_cell_volume                     1964.39
_exptl_crystal_colour            orange
_exptl_crystal_description       block
_cell_formula_units_Z            4
_exptl_crystal_recrystallization_method 'Vapour Deposition'
loop_
_atom_site_label
_atom_site_type_symbol
_atom_site_fract_x
_atom_site_fract_y
_atom_site_fract_z
B1 B 0.05071(12) 0.1795(2) 0.37649(15)
C1 C 0.53049(12) 0.13092(15) -0.02260(11)
C2 C 0.48862(14) 0.23860(17) -0.06910(14)
H1 H 0.4275 0.2635 -0.0551
C3 C 0.54322(17) 0.3068(2) -0.13755(14)
H2 H 0.5169 0.3776 -0.1711
C4 C 0.63655(18) 0.2725(2) -0.15777(14)
H3 H 0.6704 0.3210 -0.2039
C5 C 0.67888(15) 0.16721(19) -0.10988(14)
H4 H 0.7409 0.1456 -0.1226
C6 C 0.62559(12) 0.09379(17) -0.04144(12)
C7 C 0.64577(10) -0.01900(17) 0.01952(12)
C8 C 0.72501(11) -0.10105(19) 0.03001(14)
H5 H 0.7787 -0.0861 -0.0072
C9 C 0.72096(13) -0.2038(2) 0.09668(14)
H6 H 0.7728 -0.2578 0.1055
C10 C 0.63876(13) -0.22766(19) 0.15156(14)
H7 H 0.6379 -0.2977 0.1959
C11 C 0.55789(11) -0.14930(17) 0.14178(13)
H8 H 0.5040 -0.1667 0.1779
C12 C 0.56268(11) -0.04487(15) 0.07552(12)
C13 C 0.40083(11) 0.05754(15) 0.09190(11)
C14 C 0.32101(11) 0.06913(15) 0.03115(12)
H9 H 0.3278 0.0668 -0.0373
C15 C 0.23126(11) 0.08418(16) 0.07233(12)
H10 H 0.1795 0.0920 0.0311
C16 C 0.21959(11) 0.08743(14) 0.17553(12)
C17 C 0.30030(10) 0.07425(14) 0.23524(11)
H11 H 0.2937 0.0756 0.3037
C18 C 0.39020(11) 0.05923(15) 0.19447(11)
H12 H 0.4420 0.0505 0.2355
C19 C 0.12500(10) 0.10647(15) 0.22200(11)
C20 C 0.04067(11) 0.10703(16) 0.17350(12)
H13 H 0.0405 0.1011 0.1048
C21 C -0.04845(10) 0.11652(15) 0.22490(12)
C22 C -0.13660(11) 0.09181(16) 0.17914(13)
H14 H -0.1389 0.0717 0.1120
C23 C -0.21930(11) 0.09733(16) 0.23351(14)
H15 H -0.2765 0.0810 0.2031
C24 C -0.21524(11) 0.12754(16) 0.33384(14)
H16 H -0.2695 0.1319 0.3716
C25 C -0.12849(11) 0.15101(16) 0.37629(13)
H17 H -0.1255 0.1711 0.4434
N1 N 0.49306(9) 0.04664(13) 0.04936(9)
N2 N -0.04688(9) 0.14573(13) 0.32304(11)
O1 O 0.12840(7) 0.11951(13) 0.32097(8)
F1 F 0.04887(7) 0.12875(17) 0.46993(8)
F2 F 0.05923(7) 0.31478(13) 0.37685(11)
loop_
_geom_bond_atom_site_label_1
_geom_bond_atom_site_label_2
_geom_bond_site_symmetry_1
_geom_bond_site_symmetry_2
B1 N2 1_555 1_555
C1 C2 1_555 1_555
C2 H1 1_555 1_555
C3 C2 1_555 1_555
H2 C3 1_555 1_555
C4 C3 1_555 1_555
H3 C4 1_555 1_555
C5 C4 1_555 1_555
H4 C5 1_555 1_555
C6 C1 1_555 1_555
C7 C6 1_555 1_555
C8 C7 1_555 1_555
H5 C8 1_555 1_555
C9 C8 1_555 1_555
H6 C9 1_555 1_555
C10 C9 1_555 1_555
H7 C10 1_555 1_555
C11 C10 1_555 1_555
H8 C11 1_555 1_555
C12 C7 1_555 1_555
C13 C14 1_555 1_555
C14 H9 1_555 1_555
C15 C14 1_555 1_555
H10 C15 1_555 1_555
C16 C15 1_555 1_555
C17 C16 1_555 1_555
H11 C17 1_555 1_555
C18 C13 1_555 1_555
H12 C18 1_555 1_555
C19 C16 1_555 1_555
C20 C19 1_555 1_555
H13 C20 1_555 1_555
C21 C20 1_555 1_555
C22 C21 1_555 1_555
H14 C22 1_555 1_555
C23 C22 1_555 1_555
H15 C23 1_555 1_555
C24 C23 1_555 1_555
H16 C24 1_555 1_555
C25 C24 1_555 1_555
H17 C25 1_555 1_555
N1 C1 1_555 1_555
N2 C21 1_555 1_555
O1 B1 1_555 1_555
F1 B1 1_555 1_555
F2 B1 1_555 1_555
C5 C6 1_555 1_555
C11 C12 1_555 1_555
C12 N1 1_555 1_555
C13 N1 1_555 1_555
C17 C18 1_555 1_555
C19 O1 1_555 1_555
C25 N2 1_555 1_555

#END
