
#######################################################################
#
#                 Cambridge Crystallographic Data Centre
#                                CCDC 
#
#######################################################################
#
# If this CIF has been generated from an entry in the Cambridge 
# Structural Database, then it will include bibliographic, chemical, 
# crystal, experimental, refinement or atomic coordinate data resulting 
# from the CCDC's data processing and validation procedures.
#
#######################################################################

data_ROPFUZ
_chemical_formula_moiety         'C51 H44 Br2 N9 O7 P1,C2 H1 F3 O2'
_chemical_name_systematic        
'2-azido-2-(8-(azidomethyl)-3-((benzyloxy)methyl)-7-(((4-bromobenzoyl)oxy)methyl)-9-hydroxy-4-oxo-2-((triphenylphosphoranylidene)amino)-1,3-diazaspiro[4.4]non-1-en-6-yl)ethyl 4-bromobenzoate trifluoroacetic acid'
_symmetry_cell_setting           monoclinic
_symmetry_space_group_name_H-M   'P 21'
_symmetry_Int_Tables_number      4
_space_group_name_Hall           'P 2yb'
loop_
_symmetry_equiv_pos_site_id
_symmetry_equiv_pos_as_xyz
1 x,y,z
2 -x,1/2+y,-z
_cell_length_a                   22.6286(12)
_cell_length_b                   16.6992(9)
_cell_length_c                   28.3648(15)
_cell_angle_alpha                90
_cell_angle_beta                 97.512(3)
_cell_angle_gamma                90
_cell_volume                     10626.5
_exptl_crystal_colour            colorless
_exptl_crystal_description       block
_cell_formula_units_Z            8
loop_
_atom_site_label
_atom_site_type_symbol
_atom_site_fract_x
_atom_site_fract_y
_atom_site_fract_z
Br2 Br 1.31923(6) 0.42137(9) 0.04805(4)
Br3 Br 0.74114(6) 0.50272(8) 0.39279(4)
P1 P 0.85629(11) 0.72480(16) 0.11971(10)
O1 O 0.9631(3) 0.8906(5) 0.2746(3)
H1 H 0.9278 0.8916 0.2806
O2 O 1.0865(3) 0.8557(5) 0.2243(3)
O3 O 1.1161(3) 0.5991(5) 0.1710(2)
O4 O 1.0547(3) 0.5678(5) 0.1054(3)
O5 O 1.0117(3) 0.6523(5) 0.3597(3)
O6 O 1.0458(4) 0.5653(6) 0.4164(3)
O7 O 1.0581(3) 0.8228(5) 0.1035(3)
N1 N 0.9535(4) 0.7456(6) 0.2115(3)
N2 N 1.0042(4) 0.8278(5) 0.1696(3)
N3 N 0.9134(3) 0.7841(5) 0.1316(3)
N4 N 1.1169(4) 0.5938(6) 0.2706(3)
N5 N 1.1668(4) 0.5685(6) 0.2637(3)
N6 N 1.2118(5) 0.5421(7) 0.2617(4)
N7 N 1.0930(5) 0.8537(7) 0.4010(4)
N8 N 1.0941(6) 0.9041(8) 0.4319(4)
N9 N 1.0998(8) 0.9498(9) 0.4610(5)
C1 C 1.0066(4) 0.7687(7) 0.2442(4)
C2 C 1.0449(4) 0.6996(7) 0.2680(4)
H2 H 1.0171 0.6564 0.2755
C3 C 1.0758(5) 0.7349(8) 0.3170(4)
H3 H 1.1187 0.7447 0.3138
C4 C 1.0456(5) 0.8179(8) 0.3215(4)
H4 H 1.0722 0.8588 0.3095
C5 C 0.9881(5) 0.8174(7) 0.2872(4)
H5 H 0.9580 0.7852 0.3019
C6 C 1.0384(5) 0.8235(7) 0.2137(4)
C7 C 0.9532(5) 0.7844(6) 0.1698(4)
C8 C 1.0910(5) 0.6615(7) 0.2403(4)
H6 H 1.1229 0.7014 0.2363
C9 C 1.0654(5) 0.6288(8) 0.1917(4)
H7 H 1.0366 0.5852 0.1950
H8 H 1.0449 0.6717 0.1717
C10 C 1.1035(5) 0.5680(6) 0.1259(4)
C11 C 1.1578(4) 0.5376(6) 0.1089(4)
C12 C 1.1550(5) 0.5258(7) 0.0585(4)
H9 H 1.1198 0.5387 0.0378
C13 C 1.2041(5) 0.4956(8) 0.0411(4)
H10 H 1.2043 0.4924 0.0076
C14 C 1.2544(5) 0.4691(7) 0.0717(4)
C15 C 1.2568(5) 0.4814(7) 0.1202(4)
H11 H 1.2917 0.4671 0.1408
C16 C 1.2090(5) 0.5142(6) 0.1387(4)
H12 H 1.2108 0.5210 0.1721
C17 C 1.0736(5) 0.6779(8) 0.3570(4)
H13 H 1.0985 0.6305 0.3523
H14 H 1.0901 0.7039 0.3873
C18 C 1.0052(5) 0.5945(9) 0.3900(4)
C19 C 0.9408(5) 0.5689(8) 0.3887(4)
C20 C 0.9236(7) 0.5246(10) 0.4263(5)
H15 H 0.9528 0.5080 0.4515
C21 C 0.8642(6) 0.5044(9) 0.4271(4)
H16 H 0.8523 0.4749 0.4529
C22 C 0.8230(6) 0.5280(8) 0.3898(4)
C23 C 0.8388(6) 0.5694(7) 0.3521(4)
H17 H 0.8097 0.5834 0.3262
C24 C 0.8978(5) 0.5906(7) 0.3520(4)
H18 H 0.9089 0.6207 0.3261
C25 C 1.0350(5) 0.8443(8) 0.3704(4)
H19 H 1.0132 0.8959 0.3683
H20 H 1.0103 0.8040 0.3844
C26 C 1.0228(5) 0.8709(8) 0.1297(4)
H21 H 0.9871 0.8891 0.1085
H22 H 1.0458 0.9189 0.1415
C27 C 1.0270(6) 0.7699(8) 0.0698(4)
H23 H 0.9926 0.7984 0.0522
H24 H 1.0114 0.7243 0.0868
C28 C 1.0661(5) 0.7389(7) 0.0353(4)
C29 C 1.1232(6) 0.7672(8) 0.0349(4)
H25 H 1.1387 0.8074 0.0568
C30 C 1.1576(7) 0.7366(9) 0.0025(6)
H26 H 1.1964 0.7579 0.0021
C31 C 1.1391(8) 0.6776(10) -0.0291(5)
H27 H 1.1646 0.6563 -0.0501
C32 C 1.0791(6) 0.6490(9) -0.0292(5)
H28 H 1.0639 0.6098 -0.0519
C33 C 1.0424(7) 0.6776(9) 0.0034(5)
H29 H 1.0034 0.6569 0.0041
C34 C 0.8395(4) 0.7248(7) 0.0560(4)
C35 C 0.8087(5) 0.6623(7) 0.0327(5)
H30 H 0.8002 0.6158 0.0499
C36 C 0.7899(6) 0.6668(9) -0.0160(5)
H31 H 0.7681 0.6237 -0.0317
C37 C 0.8023(6) 0.7318(9) -0.0409(4)
H32 H 0.7889 0.7345 -0.0741
C38 C 0.8346(6) 0.7948(8) -0.0187(4)
H33 H 0.8440 0.8402 -0.0364
C39 C 0.8532(5) 0.7907(6) 0.0308(4)
H34 H 0.8752 0.8336 0.0465
C40 C 0.8723(5) 0.6268(6) 0.1410(4)
C41 C 0.9109(5) 0.5765(7) 0.1177(5)
H35 H 0.9230 0.5925 0.0883
C42 C 0.9299(5) 0.5066(8) 0.1378(5)
H36 H 0.9529 0.4715 0.1211
C43 C 0.9168(6) 0.4852(8) 0.1814(6)
H37 H 0.9342 0.4381 0.1960
C44 C 0.8774(6) 0.5321(9) 0.2061(5)
H38 H 0.8663 0.5152 0.2357
C45 C 0.8563(6) 0.6024(8) 0.1851(4)
H39 H 0.8305 0.6351 0.2006
C46 C 0.7921(5) 0.7636(6) 0.1434(4)
C47 C 0.8000(5) 0.8275(7) 0.1750(4)
H40 H 0.8383 0.8499 0.1846
C48 C 0.7487(6) 0.8575(8) 0.1923(4)
H41 H 0.7520 0.9024 0.2131
C49 C 0.6956(6) 0.8234(10) 0.1797(5)
H42 H 0.6619 0.8447 0.1922
C50 C 0.6872(6) 0.7568(9) 0.1485(6)
H43 H 0.6494 0.7321 0.1406
C51 C 0.7371(5) 0.7305(8) 0.1306(5)
H44 H 0.7333 0.6876 0.1084
Br5 Br 0.79980(6) 0.42471(9) 0.04373(4)
P2 P 0.36247(11) 0.73324(17) 0.13723(10)
O8 O 0.4699(3) 0.8830(4) 0.3009(3)
H45 H 0.4332 0.8810 0.2914
O9 O 0.5929(3) 0.8493(5) 0.2505(3)
O10 O 0.6121(3) 0.5935(5) 0.1853(3)
O11 O 0.5458(4) 0.5637(7) 0.1241(3)
O12 O 0.5035(3) 0.6369(5) 0.3741(3)
O13 O 0.5247(4) 0.5484(7) 0.4328(3)
O14 O 0.5527(4) 0.8182(7) 0.1239(4)
N10 N 0.4575(4) 0.7438(5) 0.2311(3)
N11 N 0.5104(4) 0.8293(6) 0.1935(4)
N12 N 0.4224(3) 0.7872(5) 0.1501(3)
N13 N 0.6195(4) 0.5863(6) 0.2882(4)
N14 N 0.6666(4) 0.5579(6) 0.2748(4)
N15 N 0.7095(5) 0.5271(7) 0.2687(4)
N16 N 0.5909(5) 0.8270(8) 0.4292(5)
C52 C 0.5094(5) 0.7627(7) 0.2654(4)
C53 C 0.5467(4) 0.6884(7) 0.2878(4)
H46 H 0.5179 0.6445 0.2921
C54 C 0.5746(5) 0.7173(7) 0.3387(4)
H47 H 0.6184 0.7241 0.3380
C55 C 0.5481(5) 0.8030(8) 0.3463(4)
H48 H 0.5764 0.8440 0.3365
C56 C 0.4914(5) 0.8057(7) 0.3113(4)
H49 H 0.4599 0.7736 0.3242
C57 C 0.5448(4) 0.8200(6) 0.2380(4)
C58 C 0.4595(4) 0.7847(6) 0.1901(4)
C59 C 0.5935(5) 0.6545(7) 0.2589(4)
H50 H 0.6247 0.6955 0.2548
C60 C 0.5631(5) 0.6238(8) 0.2100(4)
H51 H 0.5345 0.5804 0.2143
H52 H 0.5416 0.6678 0.1917
C61 C 0.5968(5) 0.5652(7) 0.1419(5)
C62 C 0.6480(5) 0.5356(7) 0.1193(4)
C63 C 0.6404(5) 0.5250(7) 0.0705(4)
H53 H 0.6036 0.5393 0.0524
C64 C 0.6856(5) 0.4939(8) 0.0479(4)
H54 H 0.6797 0.4879 0.0143
C65 C 0.7381(5) 0.4717(7) 0.0727(4)
C66 C 0.7468(5) 0.4804(7) 0.1226(4)
H55 H 0.7832 0.4643 0.1407
C67 C 0.7012(5) 0.5128(7) 0.1449(4)
H56 H 0.7068 0.5194 0.1785
C68 C 0.5671(5) 0.6554(8) 0.3755(5)
H57 H 0.5893 0.6063 0.3692
H58 H 0.5832 0.6757 0.4074
C69 C 0.4895(7) 0.5791(9) 0.4042(5)
C70 C 0.4229(5) 0.5625(7) 0.3989(4)
C71 C 0.3988(6) 0.5157(8) 0.4340(4)
H59 H 0.4244 0.4933 0.4599
C72 C 0.3235(5) 0.5782(8) 0.3572(4)
H60 H 0.2969 0.5981 0.3312
C73 C 0.3856(5) 0.5924(7) 0.3597(4)
H61 H 0.4014 0.6214 0.3354
C74 C 0.5348(5) 0.8235(9) 0.3960(5)
H62 H 0.5143 0.8759 0.3955
H63 H 0.5081 0.7824 0.4069
C75 C 0.5299(5) 0.8729(8) 0.1531(5)
H64 H 0.4957 0.9016 0.1353
H65 H 0.5608 0.9128 0.1647
C76 C 0.3502(5) 0.7253(7) 0.0732(4)
C77 C 0.3254(7) 0.6598(8) 0.0504(5)
H66 H 0.3161 0.6152 0.0688
C78 C 0.3136(7) 0.6553(10) 0.0030(6)
H67 H 0.2960 0.6085 -0.0118
C79 C 0.3273(7) 0.7199(10) -0.0242(5)
H68 H 0.3195 0.7167 -0.0579
C80 C 0.3520(8) 0.7883(10) -0.0035(6)
H69 H 0.3611 0.8323 -0.0225
C81 C 0.3636(7) 0.7925(8) 0.0463(5)
H70 H 0.3800 0.8396 0.0616
C82 C 0.3695(5) 0.6355(7) 0.1623(4)
C83 C 0.4134(5) 0.5851(7) 0.1487(5)
H71 H 0.4334 0.5990 0.1224
C84 C 0.4278(4) 0.5144(7) 0.1737(5)
H72 H 0.4566 0.4789 0.1639
C85 C 0.3989(6) 0.4959(9) 0.2140(5)
H73 H 0.4100 0.4493 0.2324
C86 C 0.3552(6) 0.5455(7) 0.2263(4)
H74 H 0.3348 0.5322 0.2525
C87 C 0.3406(5) 0.6142(7) 0.2010(4)
H75 H 0.3102 0.6480 0.2099
C88 C 0.3007(5) 0.7844(6) 0.1577(4)
C89 C 0.3133(5) 0.8501(7) 0.1889(4)
H76 H 0.3531 0.8664 0.1992
C90 C 0.2652(5) 0.8898(7) 0.2038(4)
H77 H 0.2723 0.9342 0.2247
C91 C 0.2093(5) 0.8674(8) 0.1896(4)
H78 H 0.1776 0.8966 0.2004
C92 C 0.1959(5) 0.8036(9) 0.1600(5)
H79 H 0.1555 0.7882 0.1512
C93 C 0.2428(5) 0.7601(8) 0.1421(4)
H80 H 0.2346 0.7167 0.1207
Br6 Br 0.21691(14) 0.52068(19) 0.38890(9)
N17 N 0.6129(7) 0.8922(10) 0.4397(6)
N18 N 0.6376(8) 0.9482(11) 0.4489(6)
C94 C 0.3394(6) 0.5037(8) 0.4302(5)
H81 H 0.3233 0.4729 0.4536
C95 C 0.3019(6) 0.5353(8) 0.3929(4)
C96 C 0.5619(19) 0.8403(17) 0.0797(9)
H82 H 0.6010 0.8674 0.0812
H83 H 0.5307 0.8791 0.0669
C97 C 0.5605(13) 0.7695(15) 0.0465(10)
C98 C 0.5178(9) 0.7098(14) 0.0370(8)
H84 H 0.4838 0.7093 0.0534
C99 C 0.5248(9) 0.6509(11) 0.0035(7)
H85 H 0.4956 0.6102 -0.0029
C100 C 0.5746(11) 0.6517(12) -0.0204(7)
H86 H 0.5794 0.6114 -0.0433
C101 C 0.6174(9) 0.7113(15) -0.0110(8)
H87 H 0.6514 0.7119 -0.0273
C102 C 0.6103(11) 0.7702(15) 0.0225(9)
H88 H 0.6395 0.8110 0.0290
Br8 Br 0.27349(6) 0.00004(9) 0.46995(4)
Br9 Br 0.85044(7) -0.00914(9) 0.10974(5)
P3 P 0.73399(12) 0.22537(17) 0.36779(10)
O15 O 0.6203(3) 0.3885(4) 0.2122(3)
H96 H 0.6576 0.3862 0.2187
O16 O 0.5009(3) 0.3529(5) 0.2658(3)
O17 O 0.4783(3) 0.0945(5) 0.3240(3)
O18 O 0.5436(4) 0.0625(6) 0.3870(3)
O19 O 0.5778(3) 0.1452(5) 0.1327(3)
O20 O 0.5455(4) 0.0371(5) 0.0894(3)
O21 O 0.5271(4) 0.3139(7) 0.3789(3)
N21 N 0.6339(4) 0.2431(5) 0.2781(3)
N22 N 0.5846(4) 0.3279(6) 0.3192(3)
N23 N 0.6748(4) 0.2796(5) 0.3584(3)
N24 N 0.4693(4) 0.0921(6) 0.2227(3)
N25 N 0.4217(4) 0.0644(6) 0.2331(3)
N26 N 0.3785(5) 0.0358(7) 0.2385(3)
N27 N 0.4888(5) 0.3476(8) 0.0893(4)
N28 N 0.4889(6) 0.3989(8) 0.0554(5)
N29 N 0.4818(7) 0.4398(10) 0.0242(5)
C110 C 0.5805(4) 0.2668(7) 0.2450(4)
C111 C 0.5416(5) 0.1954(7) 0.2232(4)
H97 H 0.5697 0.1520 0.2164
C112 C 0.5115(5) 0.2275(7) 0.1740(4)
H98 H 0.4681 0.2354 0.1762
C113 C 0.5394(4) 0.3117(6) 0.1673(4)
H99 H 0.5126 0.3522 0.1795
C114 C 0.5978(5) 0.3116(7) 0.2016(4)
H100 H 0.6283 0.2795 0.1873
C115 C 0.5492(5) 0.3217(7) 0.2758(4)
C116 C 0.6356(4) 0.2827(7) 0.3199(4)
C117 C 0.4979(5) 0.1584(7) 0.2526(4)
H101 H 0.4671 0.1988 0.2584
C118 C 0.5261(5) 0.1235(8) 0.2995(4)
H102 H 0.5533 0.0790 0.2939
H103 H 0.5493 0.1650 0.3187
C119 C 0.4929(5) 0.0685(7) 0.3683(4)
C120 C 0.4411(5) 0.0482(7) 0.3919(4)
C121 C 0.4430(6) 0.0613(7) 0.4404(4)
H104 H 0.4790 0.0792 0.4583
C122 C 0.3934(5) 0.0487(7) 0.4633(4)
H105 H 0.3952 0.0600 0.4963
C123 C 0.3380(5) 0.0032(7) 0.3893(4)
H106 H 0.3031 -0.0192 0.3721
C124 C 0.3871(4) 0.0203(6) 0.3666(4)
H107 H 0.3845 0.0130 0.3332
C125 C 0.5167(5) 0.1687(8) 0.1336(4)
H108 H 0.4922 0.1207 0.1377
H109 H 0.5011 0.1940 0.1029
C126 C 0.5866(6) 0.0758(7) 0.1104(4)
C127 C 0.6524(7) 0.0526(7) 0.1112(4)
C128 C 0.6665(7) -0.0055(10) 0.0837(6)
H110 H 0.6359 -0.0356 0.0656
C129 C 0.7253(7) -0.0230(8) 0.0811(4)
H111 H 0.7361 -0.0604 0.0585
C130 C 0.7683(6) 0.0151(8) 0.1121(4)
C131 C 0.7541(7) 0.0694(7) 0.1454(5)
H112 H 0.7837 0.0919 0.1685
C132 C 0.6949(5) 0.0896(7) 0.1436(5)
H113 H 0.6831 0.1290 0.1646
C133 C 0.5489(5) 0.3373(8) 0.1178(4)
H114 H 0.5713 0.3884 0.1191
H115 H 0.5720 0.2962 0.1030
C134 C 0.5651(5) 0.3655(8) 0.3607(5)
H116 H 0.5998 0.3770 0.3847
H117 H 0.5445 0.4166 0.3516
C135 C 0.5117(8) 0.3347(12) 0.4250(5)
H118 H 0.4711 0.3149 0.4277
H119 H 0.5114 0.3938 0.4281
C136 C 0.5554(6) 0.2995(8) 0.4652(5)
C137 C 0.5680(7) 0.3404(9) 0.5075(5)
H120 H 0.5522 0.3925 0.5108
C138 C 0.6046(7) 0.3043(14) 0.5458(5)
H121 H 0.6127 0.3307 0.5756
C139 C 0.6295(7) 0.2268(13) 0.5386(6)
H122 H 0.6550 0.2027 0.5639
C140 C 0.6172(7) 0.1858(12) 0.4953(6)
H123 H 0.6337 0.1347 0.4903
C141 C 0.5780(5) 0.2260(9) 0.4592(5)
H124 H 0.5675 0.1997 0.4296
C142 C 0.7515(5) 0.2162(7) 0.4313(4)
C143 C 0.7763(5) 0.1457(7) 0.4512(5)
H125 H 0.7814 0.1010 0.4314
C144 C 0.7934(6) 0.1405(8) 0.4997(5)
H126 H 0.8104 0.0926 0.5135
C145 C 0.7854(6) 0.2074(9) 0.5283(5)
H127 H 0.7953 0.2037 0.5618
C146 C 0.7631(6) 0.2786(8) 0.5081(4)
H128 H 0.7601 0.3243 0.5275
C147 C 0.7453(5) 0.2832(7) 0.4603(4)
H129 H 0.7288 0.3315 0.4466
C148 C 0.7230(5) 0.1282(7) 0.3416(5)
C149 C 0.6780(5) 0.0815(7) 0.3554(5)
H130 H 0.6570 0.0970 0.3807
C150 C 0.6649(6) 0.0104(8) 0.3304(6)
H131 H 0.6339 -0.0229 0.3390
C151 C 0.6954(6) -0.0133(9) 0.2934(6)
H132 H 0.6846 -0.0616 0.2768
C152 C 0.7404(6) 0.0317(8) 0.2809(5)
H133 H 0.7611 0.0148 0.2556
C153 C 0.7565(6) 0.1027(8) 0.3047(5)
H134 H 0.7889 0.1337 0.2967
C154 C 0.7942(5) 0.2742(7) 0.3442(4)
C155 C 0.7830(5) 0.3437(7) 0.3174(4)
H135 H 0.7437 0.3643 0.3111
C156 C 0.8298(5) 0.3823(8) 0.3001(4)
H136 H 0.8222 0.4307 0.2828
C157 C 0.8862(6) 0.3533(9) 0.3071(5)
H137 H 0.9174 0.3796 0.2938
C158 C 0.8971(5) 0.2856(9) 0.3336(5)
H138 H 0.9367 0.2655 0.3392
C159 C 0.8522(4) 0.2449(8) 0.3528(4)
H139 H 0.8609 0.1981 0.3714
C160 C 0.3403(5) 0.0192(7) 0.4378(4)
Br10 Br -0.18912(6) -0.08313(9) 0.46481(5)
Br11 Br 0.35563(7) -0.00307(9) 0.10942(5)
P4 P 0.22178(12) 0.23218(17) 0.37330(10)
O22 O 0.1288(3) 0.3989(4) 0.2074(3)
H140 H 0.1662 0.3961 0.2115
O23 O 0.0046(3) 0.3747(5) 0.2557(3)
O24 O -0.0162(3) 0.1094(5) 0.3212(3)
O25 O 0.0427(4) 0.1264(7) 0.3901(3)
O26 O 0.0834(4) 0.1519(5) 0.1322(3)
O27 O 0.0501(4) 0.0471(6) 0.0874(3)
O28 O 0.0347(3) 0.3597(6) 0.3801(3)
N30 N 0.1337(4) 0.2584(6) 0.2765(3)
N31 N 0.0836(4) 0.3489(6) 0.3128(3)
N32 N 0.1666(4) 0.2946(5) 0.3590(3)
N33 N -0.0234(4) 0.1034(7) 0.2213(3)
N34 N -0.0719(5) 0.0762(7) 0.2313(3)
N35 N -0.1146(5) 0.0458(6) 0.2368(4)
N36 N 0.0094(5) 0.3547(8) 0.0787(4)
N37 N 0.0172(6) 0.3903(7) 0.0432(4)
N38 N 0.0174(8) 0.4200(10) 0.0072(5)
C161 C 0.0843(5) 0.2817(7) 0.2418(4)
C162 C 0.0456(5) 0.2113(7) 0.2188(3)
H141 H 0.0741 0.1676 0.2133
C163 C 0.0182(5) 0.2403(7) 0.1692(4)
H142 H -0.0249 0.2518 0.1706
C164 C 0.0499(5) 0.3225(7) 0.1616(4)
H143 H 0.0230 0.3662 0.1701
C165 C 0.1053(5) 0.3237(7) 0.1981(4)
H144 H 0.1364 0.2895 0.1862
C166 C 0.0511(5) 0.3421(7) 0.2690(4)
C167 C 0.1325(4) 0.2988(7) 0.3179(4)
C168 C 0.0011(5) 0.1743(7) 0.2490(4)
H145 H -0.0318 0.2134 0.2517
C169 C 0.0290(5) 0.1490(7) 0.2986(4)
H146 H 0.0628 0.1122 0.2964
H147 H 0.0441 0.1965 0.3173
C170 C -0.0019(5) 0.0990(7) 0.3678(4)
C171 C -0.0484(5) 0.0552(7) 0.3908(4)
C172 C -0.0434(6) 0.0537(8) 0.4393(4)
H148 H -0.0107 0.0794 0.4577
C173 C -0.0861(5) 0.0147(8) 0.4619(4)
H149 H -0.0841 0.0160 0.4955
C174 C -0.1316(5) -0.0262(7) 0.4344(4)
C175 C -0.1355(6) -0.0279(7) 0.3863(5)
H150 H -0.1664 -0.0576 0.3683
C176 C -0.0940(5) 0.0141(7) 0.3634(4)
H151 H -0.0970 0.0145 0.3297
C177 C 0.0217(5) 0.1788(7) 0.1313(4)
H152 H -0.0040 0.1326 0.1367
H153 H 0.0072 0.2021 0.0998
C178 C 0.0907(6) 0.0844(7) 0.1101(4)
C179 C 0.1547(7) 0.0590(7) 0.1129(4)
C180 C 0.1694(5) -0.0041(7) 0.0855(4)
H154 H 0.1389 -0.0349 0.0678
C181 C 0.2297(7) -0.0231(7) 0.0837(4)
H155 H 0.2408 -0.0637 0.0630
C182 C 0.2716(6) 0.0190(7) 0.1127(4)
C183 C 0.2588(6) 0.0780(7) 0.1435(4)
H156 H 0.2892 0.1045 0.1640
C184 C 0.1973(5) 0.0972(7) 0.1430(4)
H157 H 0.1860 0.1372 0.1638
C185 C 0.0651(6) 0.3400(8) 0.1121(4)
H158 H 0.0912 0.3877 0.1130
H159 H 0.0869 0.2940 0.1007
C186 C 0.0669(5) 0.4009(7) 0.3500(4)
H160 H 0.1032 0.4234 0.3684
H161 H 0.0427 0.4460 0.3353
C187 C 0.0565(8) 0.3661(10) 0.4268(5)
H162 H 0.0577 0.4232 0.4361
H163 H 0.0979 0.3452 0.4318
C188 C 0.0193(6) 0.3205(8) 0.4576(5)
C189 C -0.0412(6) 0.3166(9) 0.4463(5)
H164 H -0.0597 0.3451 0.4194
C190 C -0.0779(6) 0.2700(9) 0.4745(5)
H165 H -0.1200 0.2668 0.4669
C191 C -0.0480(6) 0.2311(9) 0.5126(5)
H166 H -0.0696 0.1969 0.5310
C192 C 0.0129(6) 0.2398(10) 0.5253(5)
H167 H 0.0319 0.2144 0.5532
C193 C 0.0456(6) 0.2845(8) 0.4982(5)
H168 H 0.0872 0.2908 0.5076
C194 C 0.2289(4) 0.2232(6) 0.4367(4)
C195 C 0.2820(6) 0.2339(8) 0.4652(5)
H169 H 0.3165 0.2479 0.4513
C196 C 0.2861(7) 0.2247(9) 0.5130(5)
H170 H 0.3227 0.2364 0.5323
C197 C 0.2391(7) 0.1994(9) 0.5334(6)
H171 H 0.2439 0.1890 0.5666
C198 C 0.1842(7) 0.1882(8) 0.5072(5)
H172 H 0.1513 0.1717 0.5226
C199 C 0.1763(6) 0.2010(7) 0.4578(5)
H173 H 0.1385 0.1954 0.4392
C200 C 0.2089(5) 0.1352(7) 0.3461(4)
C201 C 0.1720(5) 0.0795(7) 0.3638(4)
H174 H 0.1579 0.0887 0.3935
C202 C 0.1557(6) 0.0102(8) 0.3382(5)
H175 H 0.1299 -0.0279 0.3499
C203 C 0.1773(6) -0.0022(9) 0.2963(5)
H176 H 0.1666 -0.0496 0.2787
C204 C 0.2130(7) 0.0505(8) 0.2794(5)
H177 H 0.2254 0.0411 0.2492
C205 C 0.2329(7) 0.1190(8) 0.3042(5)
H178 H 0.2616 0.1534 0.2932
C206 C 0.2888(5) 0.2710(6) 0.3557(4)
C207 C 0.2879(5) 0.3465(7) 0.3329(4)
H179 H 0.2522 0.3771 0.3282
C208 C 0.3390(5) 0.3749(7) 0.3177(4)
H180 H 0.3378 0.4238 0.3005
C209 C 0.3907(6) 0.3349(8) 0.3267(5)
H181 H 0.4264 0.3572 0.3181
C210 C 0.3914(6) 0.2611(9) 0.3485(6)
H182 H 0.4277 0.2319 0.3534
C211 C 0.3422(5) 0.2291(8) 0.3631(5)
H183 H 0.3441 0.1783 0.3782
F1 F 0.3567(3) 0.3359(4) 0.1922(3)
F2 F 0.3052(3) 0.2562(5) 0.1445(3)
F3 F 0.3476(3) 0.2123(4) 0.2127(3)
O29 O 0.2468(3) 0.3681(5) 0.2116(3)
O30 O 0.2341(3) 0.2364(4) 0.2263(3)
C212 C 0.2610(4) 0.2960(8) 0.2119(4)
C213 C 0.3194(5) 0.2743(8) 0.1904(4)
F4 F 0.7438(4) 0.8274(5) 0.3126(4)
F5 F 0.7996(4) 0.7445(5) 0.3558(3)
F6 F 0.7492(3) 0.7051(5) 0.2911(3)
O31 O 0.8509(3) 0.8565(5) 0.2885(3)
O32 O 0.8585(3) 0.7267(5) 0.2670(3)
C214 C 0.8359(5) 0.7861(8) 0.2855(4)
C215 C 0.7828(6) 0.7668(8) 0.3119(5)
F7 F 0.8448(3) 0.3362(4) 0.1856(3)
F8 F 0.7965(4) 0.2504(5) 0.1400(3)
F9 F 0.8438(3) 0.2130(4) 0.2070(3)
O33 O 0.7342(3) 0.3574(5) 0.2047(3)
O34 O 0.7306(3) 0.2275(5) 0.2256(3)
C216 C 0.7522(5) 0.2873(7) 0.2079(4)
C217 C 0.8104(5) 0.2725(8) 0.1849(5)
F10 F 0.2388(3) 0.8457(5) 0.3133(3)
F11 F 0.2756(3) 0.7511(5) 0.3597(3)
F12 F 0.2382(3) 0.7250(5) 0.2874(3)
O35 O 0.3543(3) 0.8594(5) 0.3088(3)
O36 O 0.3566(3) 0.7323(5) 0.2815(3)
C218 C 0.3345(5) 0.7930(7) 0.2993(4)
C219 C 0.2719(5) 0.7792(8) 0.3142(4)
Br1? Br 1.3289(7) 0.5001(12) 0.0353(6)
Br4? Br 0.2354(8) 0.4921(12) 0.3987(6)
C103? C 0.5231(15) 0.816(2) 0.0747(9)
H89? H 0.5236 0.8705 0.0609
H90? H 0.4809 0.8004 0.0748
C104? C 0.5530(11) 0.7565(16) 0.0424(10)
C105? C 0.5267(9) 0.6912(14) 0.0175(9)
H91? H 0.4877 0.6747 0.0222
C106? C 0.5574(10) 0.6500(11) -0.0143(8)
H92? H 0.5394 0.6054 -0.0313
C107? C 0.6144(10) 0.6741(14) -0.0212(7)
H93? H 0.6354 0.6459 -0.0429
C108? C 0.6408(9) 0.7394(15) 0.0037(8)
H94? H 0.6798 0.7558 -0.0010
C109? C 0.6101(12) 0.7806(15) 0.0355(10)
H95? H 0.6281 0.8252 0.0525
N19? N 0.586(2) 0.848(3) 0.4693(10)
N20? N 0.593(3) 0.845(4) 0.5089(10)
Br7? Br 0.3076(12) -0.0445(16) 0.4765(9)
loop_
_geom_bond_atom_site_label_1
_geom_bond_atom_site_label_2
_geom_bond_site_symmetry_1
_geom_bond_site_symmetry_2
Br2 C14 1_555 1_555
Br3 C22 1_555 1_555
P1 N3 1_555 1_555
O1 H1 1_555 1_555
O2 C6 1_555 1_555
O3 C9 1_555 1_555
O4 C10 1_555 1_555
O5 C17 1_555 1_555
O6 C18 1_555 1_555
O7 C26 1_555 1_555
N1 C1 1_555 1_555
N2 C6 1_555 1_555
N3 C7 1_555 1_555
N4 N5 1_555 1_555
N5 N6 1_555 1_555
N7 N8 1_555 1_555
N8 N9 1_555 1_555
C1 C2 1_555 1_555
C2 H2 1_555 1_555
C3 C2 1_555 1_555
H3 C3 1_555 1_555
C4 C3 1_555 1_555
H4 C4 1_555 1_555
C5 O1 1_555 1_555
H5 C5 1_555 1_555
C6 C1 1_555 1_555
C7 N1 1_555 1_555
C8 N4 1_555 1_555
H6 C8 1_555 1_555
C9 C8 1_555 1_555
H7 C9 1_555 1_555
H8 C9 1_555 1_555
C10 O3 1_555 1_555
C11 C10 1_555 1_555
C12 C11 1_555 1_555
H9 C12 1_555 1_555
C13 C12 1_555 1_555
H10 C13 1_555 1_555
C14 C13 1_555 1_555
C15 C14 1_555 1_555
H11 C15 1_555 1_555
C16 C11 1_555 1_555
H12 C16 1_555 1_555
C17 C3 1_555 1_555
H13 C17 1_555 1_555
H14 C17 1_555 1_555
C18 O5 1_555 1_555
C19 C18 1_555 1_555
C20 C19 1_555 1_555
H15 C20 1_555 1_555
C21 C20 1_555 1_555
H16 C21 1_555 1_555
C22 C21 1_555 1_555
C23 C22 1_555 1_555
H17 C23 1_555 1_555
C24 C19 1_555 1_555
H18 C24 1_555 1_555
C25 N7 1_555 1_555
H19 C25 1_555 1_555
H20 C25 1_555 1_555
C26 N2 1_555 1_555
H21 C26 1_555 1_555
H22 C26 1_555 1_555
C27 O7 1_555 1_555
H23 C27 1_555 1_555
H24 C27 1_555 1_555
C28 C27 1_555 1_555
C29 C28 1_555 1_555
H25 C29 1_555 1_555
C30 C29 1_555 1_555
H26 C30 1_555 1_555
C31 C30 1_555 1_555
H27 C31 1_555 1_555
C32 C31 1_555 1_555
H28 C32 1_555 1_555
C33 C28 1_555 1_555
H29 C33 1_555 1_555
C34 P1 1_555 1_555
C35 C34 1_555 1_555
H30 C35 1_555 1_555
C36 C35 1_555 1_555
H31 C36 1_555 1_555
C37 C36 1_555 1_555
H32 C37 1_555 1_555
C38 C37 1_555 1_555
H33 C38 1_555 1_555
C39 C34 1_555 1_555
H34 C39 1_555 1_555
C40 P1 1_555 1_555
C41 C40 1_555 1_555
H35 C41 1_555 1_555
C42 C41 1_555 1_555
H36 C42 1_555 1_555
C43 C42 1_555 1_555
H37 C43 1_555 1_555
C44 C43 1_555 1_555
H38 C44 1_555 1_555
C45 C40 1_555 1_555
H39 C45 1_555 1_555
C46 P1 1_555 1_555
C47 C46 1_555 1_555
H40 C47 1_555 1_555
C48 C47 1_555 1_555
H41 C48 1_555 1_555
C49 C48 1_555 1_555
H42 C49 1_555 1_555
C50 C49 1_555 1_555
H43 C50 1_555 1_555
C51 C46 1_555 1_555
H44 C51 1_555 1_555
Br5 C65 1_555 1_555
P2 N12 1_555 1_555
O8 H45 1_555 1_555
O9 C57 1_555 1_555
O10 C60 1_555 1_555
O11 C61 1_555 1_555
O12 C68 1_555 1_555
O13 C69 1_555 1_555
O14 C75 1_555 1_555
N10 C52 1_555 1_555
N11 C57 1_555 1_555
N12 C58 1_555 1_555
N13 N14 1_555 1_555
N14 N15 1_555 1_555
N16 C74 1_555 1_555
C52 C53 1_555 1_555
C53 H46 1_555 1_555
C54 C53 1_555 1_555
H47 C54 1_555 1_555
C55 C54 1_555 1_555
H48 C55 1_555 1_555
C56 O8 1_555 1_555
H49 C56 1_555 1_555
C57 C52 1_555 1_555
C58 N10 1_555 1_555
C59 N13 1_555 1_555
H50 C59 1_555 1_555
C60 C59 1_555 1_555
H51 C60 1_555 1_555
H52 C60 1_555 1_555
C61 O10 1_555 1_555
C62 C61 1_555 1_555
C63 C62 1_555 1_555
H53 C63 1_555 1_555
C64 C63 1_555 1_555
H54 C64 1_555 1_555
C65 C64 1_555 1_555
C66 C65 1_555 1_555
H55 C66 1_555 1_555
C67 C62 1_555 1_555
H56 C67 1_555 1_555
C68 C54 1_555 1_555
H57 C68 1_555 1_555
H58 C68 1_555 1_555
C69 O12 1_555 1_555
C70 C69 1_555 1_555
C71 C70 1_555 1_555
H59 C71 1_555 1_555
C72 H60 1_555 1_555
C73 C70 1_555 1_555
H61 C73 1_555 1_555
C74 C55 1_555 1_555
H62 C74 1_555 1_555
H63 C74 1_555 1_555
C75 N11 1_555 1_555
H64 C75 1_555 1_555
H65 C75 1_555 1_555
C76 P2 1_555 1_555
C77 C76 1_555 1_555
H66 C77 1_555 1_555
C78 C77 1_555 1_555
H67 C78 1_555 1_555
C79 C78 1_555 1_555
H68 C79 1_555 1_555
C80 C79 1_555 1_555
H69 C80 1_555 1_555
C81 C76 1_555 1_555
H70 C81 1_555 1_555
C82 P2 1_555 1_555
C83 C82 1_555 1_555
H71 C83 1_555 1_555
C84 C83 1_555 1_555
H72 C84 1_555 1_555
C85 C84 1_555 1_555
H73 C85 1_555 1_555
C86 C85 1_555 1_555
H74 C86 1_555 1_555
C87 C82 1_555 1_555
H75 C87 1_555 1_555
C88 P2 1_555 1_555
C89 C88 1_555 1_555
H76 C89 1_555 1_555
C90 C89 1_555 1_555
H77 C90 1_555 1_555
C91 C90 1_555 1_555
H78 C91 1_555 1_555
C92 C91 1_555 1_555
H79 C92 1_555 1_555
C93 C88 1_555 1_555
H80 C93 1_555 1_555
Br6 C95 1_555 1_555
N17 N16 1_555 1_555
N18 N17 1_555 1_555
C94 C71 1_555 1_555
H81 C94 1_555 1_555
C95 C72 1_555 1_555
C96 O14 1_555 1_555
H82 C96 1_555 1_555
H83 C96 1_555 1_555
C97 C96 1_555 1_555
C98 C97 1_555 1_555
H84 C98 1_555 1_555
C99 C98 1_555 1_555
H85 C99 1_555 1_555
C100 C99 1_555 1_555
H86 C100 1_555 1_555
C101 C100 1_555 1_555
H87 C101 1_555 1_555
C102 C97 1_555 1_555
H88 C102 1_555 1_555
Br8 C160 1_555 1_555
Br9 C130 1_555 1_555
P3 N23 1_555 1_555
O15 H96 1_555 1_555
O16 C115 1_555 1_555
O17 C118 1_555 1_555
O18 C119 1_555 1_555
O19 C125 1_555 1_555
O20 C126 1_555 1_555
O21 C134 1_555 1_555
N21 C110 1_555 1_555
N22 C115 1_555 1_555
N23 C116 1_555 1_555
N24 N25 1_555 1_555
N25 N26 1_555 1_555
N27 N28 1_555 1_555
N28 N29 1_555 1_555
C110 C111 1_555 1_555
C111 H97 1_555 1_555
C112 C111 1_555 1_555
H98 C112 1_555 1_555
C113 C112 1_555 1_555
H99 C113 1_555 1_555
C114 O15 1_555 1_555
H100 C114 1_555 1_555
C115 C110 1_555 1_555
C116 N21 1_555 1_555
C117 N24 1_555 1_555
H101 C117 1_555 1_555
C118 C117 1_555 1_555
H102 C118 1_555 1_555
H103 C118 1_555 1_555
C119 O17 1_555 1_555
C120 C119 1_555 1_555
C121 C120 1_555 1_555
H104 C121 1_555 1_555
C122 C121 1_555 1_555
H105 C122 1_555 1_555
C123 H106 1_555 1_555
C124 C120 1_555 1_555
H107 C124 1_555 1_555
C125 C112 1_555 1_555
H108 C125 1_555 1_555
H109 C125 1_555 1_555
C126 O19 1_555 1_555
C127 C126 1_555 1_555
C128 C127 1_555 1_555
H110 C128 1_555 1_555
C129 C128 1_555 1_555
H111 C129 1_555 1_555
C130 C129 1_555 1_555
C131 C130 1_555 1_555
H112 C131 1_555 1_555
C132 C127 1_555 1_555
H113 C132 1_555 1_555
C133 N27 1_555 1_555
H114 C133 1_555 1_555
H115 C133 1_555 1_555
C134 N22 1_555 1_555
H116 C134 1_555 1_555
H117 C134 1_555 1_555
C135 O21 1_555 1_555
H118 C135 1_555 1_555
H119 C135 1_555 1_555
C136 C135 1_555 1_555
C137 C136 1_555 1_555
H120 C137 1_555 1_555
C138 C137 1_555 1_555
H121 C138 1_555 1_555
C139 C138 1_555 1_555
H122 C139 1_555 1_555
C140 C139 1_555 1_555
H123 C140 1_555 1_555
C141 C136 1_555 1_555
H124 C141 1_555 1_555
C142 P3 1_555 1_555
C143 C142 1_555 1_555
H125 C143 1_555 1_555
C144 C143 1_555 1_555
H126 C144 1_555 1_555
C145 C144 1_555 1_555
H127 C145 1_555 1_555
C146 C145 1_555 1_555
H128 C146 1_555 1_555
C147 C142 1_555 1_555
H129 C147 1_555 1_555
C148 P3 1_555 1_555
C149 C148 1_555 1_555
H130 C149 1_555 1_555
C150 C149 1_555 1_555
H131 C150 1_555 1_555
C151 C150 1_555 1_555
H132 C151 1_555 1_555
C152 C151 1_555 1_555
H133 C152 1_555 1_555
C153 C148 1_555 1_555
H134 C153 1_555 1_555
C154 P3 1_555 1_555
C155 C154 1_555 1_555
H135 C155 1_555 1_555
C156 C155 1_555 1_555
H136 C156 1_555 1_555
C157 C156 1_555 1_555
H137 C157 1_555 1_555
C158 C157 1_555 1_555
H138 C158 1_555 1_555
C159 C154 1_555 1_555
H139 C159 1_555 1_555
C160 C122 1_555 1_555
Br10 C174 1_555 1_555
Br11 C182 1_555 1_555
P4 N32 1_555 1_555
O22 H140 1_555 1_555
O23 C166 1_555 1_555
O24 C169 1_555 1_555
O25 C170 1_555 1_555
O26 C177 1_555 1_555
O27 C178 1_555 1_555
O28 C186 1_555 1_555
N30 C161 1_555 1_555
N31 C166 1_555 1_555
N32 C167 1_555 1_555
N33 N34 1_555 1_555
N34 N35 1_555 1_555
N36 N37 1_555 1_555
N37 N38 1_555 1_555
C161 C162 1_555 1_555
C162 H141 1_555 1_555
C163 C162 1_555 1_555
H142 C163 1_555 1_555
C164 C163 1_555 1_555
H143 C164 1_555 1_555
C165 O22 1_555 1_555
H144 C165 1_555 1_555
C166 C161 1_555 1_555
C167 N30 1_555 1_555
C168 N33 1_555 1_555
H145 C168 1_555 1_555
C169 C168 1_555 1_555
H146 C169 1_555 1_555
H147 C169 1_555 1_555
C170 O24 1_555 1_555
C171 C170 1_555 1_555
C172 C171 1_555 1_555
H148 C172 1_555 1_555
C173 C172 1_555 1_555
H149 C173 1_555 1_555
C174 C173 1_555 1_555
C175 C174 1_555 1_555
H150 C175 1_555 1_555
C176 C171 1_555 1_555
H151 C176 1_555 1_555
C177 C163 1_555 1_555
H152 C177 1_555 1_555
H153 C177 1_555 1_555
C178 O26 1_555 1_555
C179 C178 1_555 1_555
C180 C179 1_555 1_555
H154 C180 1_555 1_555
C181 C180 1_555 1_555
H155 C181 1_555 1_555
C182 C181 1_555 1_555
C183 C182 1_555 1_555
H156 C183 1_555 1_555
C184 C179 1_555 1_555
H157 C184 1_555 1_555
C185 N36 1_555 1_555
H158 C185 1_555 1_555
H159 C185 1_555 1_555
C186 N31 1_555 1_555
H160 C186 1_555 1_555
H161 C186 1_555 1_555
C187 O28 1_555 1_555
H162 C187 1_555 1_555
H163 C187 1_555 1_555
C188 C187 1_555 1_555
C189 C188 1_555 1_555
H164 C189 1_555 1_555
C190 C189 1_555 1_555
H165 C190 1_555 1_555
C191 C190 1_555 1_555
H166 C191 1_555 1_555
C192 C191 1_555 1_555
H167 C192 1_555 1_555
C193 C188 1_555 1_555
H168 C193 1_555 1_555
C194 P4 1_555 1_555
C195 C194 1_555 1_555
H169 C195 1_555 1_555
C196 C195 1_555 1_555
H170 C196 1_555 1_555
C197 C196 1_555 1_555
H171 C197 1_555 1_555
C198 C197 1_555 1_555
H172 C198 1_555 1_555
C199 C194 1_555 1_555
H173 C199 1_555 1_555
C200 P4 1_555 1_555
C201 C200 1_555 1_555
H174 C201 1_555 1_555
C202 C201 1_555 1_555
H175 C202 1_555 1_555
C203 C202 1_555 1_555
H176 C203 1_555 1_555
C204 C203 1_555 1_555
H177 C204 1_555 1_555
C205 C200 1_555 1_555
H178 C205 1_555 1_555
C206 P4 1_555 1_555
C207 C206 1_555 1_555
H179 C207 1_555 1_555
C208 C207 1_555 1_555
H180 C208 1_555 1_555
C209 C208 1_555 1_555
H181 C209 1_555 1_555
C210 C209 1_555 1_555
H182 C210 1_555 1_555
C211 C206 1_555 1_555
H183 C211 1_555 1_555
F1 C213 1_555 1_555
F2 C213 1_555 1_555
F3 C213 1_555 1_555
O29 C212 1_555 1_555
O30 C212 1_555 1_555
C212 C213 1_555 1_555
F4 C215 1_555 1_555
F5 C215 1_555 1_555
F6 C215 1_555 1_555
O31 C214 1_555 1_555
O32 C214 1_555 1_555
C214 C215 1_555 1_555
F7 C217 1_555 1_555
F8 C217 1_555 1_555
F9 C217 1_555 1_555
O33 C216 1_555 1_555
O34 C216 1_555 1_555
C216 C217 1_555 1_555
F10 C219 1_555 1_555
F11 C219 1_555 1_555
F12 C219 1_555 1_555
O35 C218 1_555 1_555
O36 C218 1_555 1_555
C218 C219 1_555 1_555
N2 C7 1_555 1_555
C1 C5 1_555 1_555
C2 C8 1_555 1_555
C4 C5 1_555 1_555
C4 C25 1_555 1_555
C15 C16 1_555 1_555
C23 C24 1_555 1_555
C32 C33 1_555 1_555
C38 C39 1_555 1_555
C44 C45 1_555 1_555
C50 C51 1_555 1_555
N11 C58 1_555 1_555
C52 C56 1_555 1_555
C53 C59 1_555 1_555
C55 C56 1_555 1_555
C66 C67 1_555 1_555
C72 C73 1_555 1_555
C80 C81 1_555 1_555
C86 C87 1_555 1_555
C92 C93 1_555 1_555
C94 C95 1_555 1_555
C101 C102 1_555 1_555
N22 C116 1_555 1_555
C110 C114 1_555 1_555
C111 C117 1_555 1_555
C113 C114 1_555 1_555
C113 C133 1_555 1_555
C123 C124 1_555 1_555
C123 C160 1_555 1_555
C131 C132 1_555 1_555
C140 C141 1_555 1_555
C146 C147 1_555 1_555
C152 C153 1_555 1_555
C158 C159 1_555 1_555
N31 C167 1_555 1_555
C161 C165 1_555 1_555
C162 C168 1_555 1_555
C164 C165 1_555 1_555
C164 C185 1_555 1_555
C175 C176 1_555 1_555
C183 C184 1_555 1_555
C192 C193 1_555 1_555
C198 C199 1_555 1_555
C204 C205 1_555 1_555
C210 C211 1_555 1_555

#END
