
#######################################################################
#
#                 Cambridge Crystallographic Data Centre
#                                CCDC 
#
#######################################################################
#
# If this CIF has been generated from an entry in the Cambridge 
# Structural Database, then it will include bibliographic, chemical, 
# crystal, experimental, refinement or atomic coordinate data resulting 
# from the CCDC's data processing and validation procedures.
#
#######################################################################

data_ROPLAL
_chemical_compound_source        
'Leaves and twigs of Daphniphyllum longeracemosum'
_chemical_name_common            'Logeracemin A unknown solvate'
_chemical_formula_moiety         'C42 H54 N2 O2'
_chemical_name_systematic        
"2,2',6,6'-Tetramethyl-8,8'-diazaspiro[hexacyclo[11.6.1.1^1,5^.0^2,10^.0^3,8^.0^17,20^]henicosane-14,15'-hexacyclo[11.5.1.1^1,5^.0^2,10^.0^3,8^.0^16,19^]icosane]-13(20),16'(19'),17-triene-20',21-dione unknown solvate"
_chemical_properties_biological  'anti-HIV and cytotoxic activity'
_symmetry_cell_setting           orthorhombic
_symmetry_space_group_name_H-M   'P 21 21 21'
_symmetry_Int_Tables_number      19
_space_group_name_Hall           'P 2ac 2ab'
loop_
_symmetry_equiv_pos_site_id
_symmetry_equiv_pos_as_xyz
1 x,y,z
2 1/2+x,1/2-y,-z
3 -x,1/2+y,1/2-z
4 1/2-x,-y,1/2+z
_cell_length_a                   7.0536(3)
_cell_length_b                   16.9061(6)
_cell_length_c                   30.9575(12)
_cell_angle_alpha                90
_cell_angle_beta                 90
_cell_angle_gamma                90
_cell_volume                     3691.65
_exptl_crystal_colour            colorless
_exptl_crystal_description       prism
_cell_formula_units_Z            4
_exptl_crystal_recrystallization_method methanol
loop_
_atom_site_label
_atom_site_type_symbol
_atom_site_fract_x
_atom_site_fract_y
_atom_site_fract_z
N1 N -0.1383(6) 0.88295(17) 0.05683(8)
N2 N -0.1082(5) 0.21667(19) 0.14358(12)
O1 O 0.3220(3) 0.74884(12) 0.07145(7)
O2 O 0.3075(3) 0.33085(11) 0.20602(7)
C1 C 0.2564(5) 0.80885(17) 0.08645(11)
C2 C 0.2583(7) 0.88571(19) 0.05994(12)
H1 H 0.3927 0.9032 0.0562
C3 C 0.1473(7) 0.95199(18) 0.08245(12)
H2 H 0.2174 0.9709 0.1081
H3 H 0.1289 0.9971 0.0625
C4 C -0.0421(6) 0.91800(18) 0.09571(10)
H4 H -0.1230 0.9615 0.1075
C5 C -0.0274(4) 0.84999(17) 0.13056(8)
C6 C -0.1825(4) 0.79319(18) 0.11334(9)
H5 H -0.3051 0.8191 0.1212
C7 C -0.1724(6) 0.7988(2) 0.06509(10)
H6 H -0.0675 0.7661 0.0536
H7 H -0.2929 0.7814 0.0517
C8 C 0.1821(4) 0.81616(15) 0.13267(9)
C9 C 0.2068(3) 0.73803(15) 0.15837(9)
C10 C 0.1280(3) 0.66726(16) 0.15175(8)
C11 C -0.0330(4) 0.65448(16) 0.12066(9)
H8 H -0.0754 0.5987 0.1225
H9 H 0.0123 0.6641 0.0909
C12 C -0.2008(4) 0.70884(18) 0.13005(10)
H10 H -0.3160 0.6850 0.1172
H11 H -0.2198 0.7109 0.1617
C13 C 0.3236(4) 0.87397(17) 0.15693(11)
H12 H 0.4238 0.8928 0.1370
H13 H 0.2549 0.9204 0.1685
C14 C 0.4077(4) 0.82650(18) 0.19272(11)
H14 H 0.4966 0.8466 0.2130
C15 C 0.3426(4) 0.75186(17) 0.19287(10)
C16 C 0.3923(4) 0.68630(19) 0.22330(10)
H15 H 0.3015 0.6856 0.2477
H16 H 0.5210 0.6950 0.2351
C17 C 0.3855(4) 0.60796(18) 0.19958(10)
H17 H 0.4089 0.5644 0.2202
H18 H 0.4868 0.6066 0.1775
C18 C 0.1701(11) 0.8730(2) 0.01498(12)
H19 H 0.1784 0.8154 0.0077
C19 C -0.0424(11) 0.8971(2) 0.01568(12)
H20 H -0.0522 0.9540 0.0086
H21 H -0.1097 0.8673 -0.0072
C20 C 0.2764(14) 0.9197(3) -0.01980(17)
H22 H 0.2732 0.9761 -0.0127
H23 H 0.2156 0.9111 -0.0479
H24 H 0.4083 0.9016 -0.0211
C21 C -0.0870(4) 0.88005(19) 0.17527(9)
H25 H -0.2170 0.9004 0.1739
H26 H -0.0013 0.9225 0.1844
H27 H -0.0809 0.8365 0.1961
C22 C 0.2508(4) 0.31863(17) 0.16942(10)
C23 C 0.2813(6) 0.23817(18) 0.14838(12)
H28 H 0.4207 0.2288 0.1455
C24 C 0.1919(6) 0.23534(19) 0.10350(12)
H29 H 0.2615 0.2705 0.0835
H30 H 0.1961 0.1808 0.0919
C25 C -0.0100(5) 0.26246(19) 0.10819(12)
H31 H -0.0784 0.2535 0.0803
C26 C -0.0300(4) 0.35172(17) 0.12140(10)
C27 C -0.2017(5) 0.3491(2) 0.15341(12)
H32 H -0.3134 0.3384 0.1344
C28 C -0.1718(6) 0.2718(3) 0.17753(15)
H33 H -0.0741 0.2778 0.2003
H34 H -0.2912 0.2534 0.1910
C29 C 0.1582(4) 0.38327(16) 0.14237(9)
C30 C 0.1314(3) 0.45790(16) 0.16851(9)
C31 C 0.0447(4) 0.47560(19) 0.21181(9)
H35 H 0.1349 0.4594 0.2351
C32 C -0.1493(5) 0.4376(2) 0.22025(11)
H36 H -0.1300 0.3874 0.2361
H37 H -0.2239 0.4733 0.2391
C33 C -0.2621(4) 0.4208(2) 0.18011(12)
H38 H -0.2560 0.4681 0.1613
H39 H -0.3963 0.4135 0.1886
C34 C 0.3072(5) 0.41269(16) 0.10790(10)
H40 H 0.4348 0.3920 0.1149
H41 H 0.2716 0.3937 0.0788
C35 C 0.3084(4) 0.50399(16) 0.10893(9)
H42 H 0.4394 0.5250 0.1092
H43 H 0.2394 0.5263 0.0839
C36 C 0.2081(4) 0.52171(16) 0.15034(8)
C37 C 0.1906(4) 0.59548(16) 0.17748(8)
C38 C 0.0349(4) 0.56736(18) 0.20981(10)
H44 H 0.0581 0.5902 0.2388
H45 H -0.0919 0.5846 0.1998
C39 C 0.1961(7) 0.17252(19) 0.17783(14)
H46 H 0.1839 0.1934 0.2079
C40 C -0.0009(7) 0.1501(2) 0.16086(15)
H47 H 0.0137 0.1098 0.1379
H48 H -0.0744 0.1258 0.1847
C41 C 0.3220(9) 0.0994(2) 0.17828(16)
H49 H 0.2558 0.0561 0.1929
H50 H 0.4400 0.1113 0.1937
H51 H 0.3511 0.0838 0.1485
C42 C -0.0863(5) 0.4022(2) 0.08236(10)
H52 H -0.2131 0.3867 0.0725
H53 H 0.0052 0.3940 0.0590
H54 H -0.0872 0.4582 0.0906
loop_
_geom_bond_atom_site_label_1
_geom_bond_atom_site_label_2
_geom_bond_site_symmetry_1
_geom_bond_site_symmetry_2
N1 C4 1_555 1_555
N2 C25 1_555 1_555
O1 C1 1_555 1_555
O2 C22 1_555 1_555
C1 C2 1_555 1_555
C2 H1 1_555 1_555
C3 C2 1_555 1_555
H2 C3 1_555 1_555
H3 C3 1_555 1_555
C4 C3 1_555 1_555
H4 C4 1_555 1_555
C5 C4 1_555 1_555
C6 C5 1_555 1_555
H5 C6 1_555 1_555
C7 N1 1_555 1_555
H6 C7 1_555 1_555
H7 C7 1_555 1_555
C8 C1 1_555 1_555
C9 C8 1_555 1_555
C10 C9 1_555 1_555
C11 C10 1_555 1_555
H8 C11 1_555 1_555
H9 C11 1_555 1_555
C12 C6 1_555 1_555
H10 C12 1_555 1_555
H11 C12 1_555 1_555
C13 C8 1_555 1_555
H12 C13 1_555 1_555
H13 C13 1_555 1_555
C14 C13 1_555 1_555
H14 C14 1_555 1_555
C15 C9 1_555 1_555
C16 C15 1_555 1_555
H15 C16 1_555 1_555
H16 C16 1_555 1_555
C17 C16 1_555 1_555
H17 C17 1_555 1_555
H18 C17 1_555 1_555
C18 C2 1_555 1_555
H19 C18 1_555 1_555
C19 N1 1_555 1_555
H20 C19 1_555 1_555
H21 C19 1_555 1_555
C20 C18 1_555 1_555
H22 C20 1_555 1_555
H23 C20 1_555 1_555
H24 C20 1_555 1_555
C21 C5 1_555 1_555
H25 C21 1_555 1_555
H26 C21 1_555 1_555
H27 C21 1_555 1_555
C22 C23 1_555 1_555
C23 H28 1_555 1_555
C24 C23 1_555 1_555
H29 C24 1_555 1_555
H30 C24 1_555 1_555
C25 C24 1_555 1_555
H31 C25 1_555 1_555
C26 C25 1_555 1_555
C27 C26 1_555 1_555
H32 C27 1_555 1_555
C28 N2 1_555 1_555
H33 C28 1_555 1_555
H34 C28 1_555 1_555
C29 C22 1_555 1_555
C30 C29 1_555 1_555
C31 C30 1_555 1_555
H35 C31 1_555 1_555
C32 C31 1_555 1_555
H36 C32 1_555 1_555
H37 C32 1_555 1_555
C33 C27 1_555 1_555
H38 C33 1_555 1_555
H39 C33 1_555 1_555
C34 C29 1_555 1_555
H40 C34 1_555 1_555
H41 C34 1_555 1_555
C35 C34 1_555 1_555
H42 C35 1_555 1_555
H43 C35 1_555 1_555
C36 C30 1_555 1_555
C37 C10 1_555 1_555
C38 C31 1_555 1_555
H44 C38 1_555 1_555
H45 C38 1_555 1_555
C39 C23 1_555 1_555
H46 C39 1_555 1_555
C40 N2 1_555 1_555
H47 C40 1_555 1_555
H48 C40 1_555 1_555
C41 C39 1_555 1_555
H49 C41 1_555 1_555
H50 C41 1_555 1_555
H51 C41 1_555 1_555
C42 C26 1_555 1_555
H52 C42 1_555 1_555
H53 C42 1_555 1_555
H54 C42 1_555 1_555
C5 C8 1_555 1_555
C6 C7 1_555 1_555
C11 C12 1_555 1_555
C14 C15 1_555 1_555
C17 C37 1_555 1_555
C18 C19 1_555 1_555
C26 C29 1_555 1_555
C27 C28 1_555 1_555
C32 C33 1_555 1_555
C35 C36 1_555 1_555
C36 C37 1_555 1_555
C37 C38 1_555 1_555
C39 C40 1_555 1_555

#END
