
#######################################################################
#
#                 Cambridge Crystallographic Data Centre
#                                CCDC 
#
#######################################################################
#
# If this CIF has been generated from an entry in the Cambridge 
# Structural Database, then it will include bibliographic, chemical, 
# crystal, experimental, refinement or atomic coordinate data resulting 
# from the CCDC's data processing and validation procedures.
#
#######################################################################

data_ROPPOB
_chemical_formula_moiety         'C17 H16 N4'
_chemical_name_systematic        
(4-(Cyano(4-methylpiperidyl)methylium)phenyl)dicyanomethanide
_symmetry_cell_setting           monoclinic
_symmetry_space_group_name_H-M   'P n'
_symmetry_Int_Tables_number      7
_space_group_name_Hall           'P -2yac'
loop_
_symmetry_equiv_pos_site_id
_symmetry_equiv_pos_as_xyz
1 x,y,z
2 1/2+x,-y,1/2+z
_cell_length_a                   6.970(1)
_cell_length_b                   14.233(3)
_cell_length_c                   7.633(2)
_cell_angle_alpha                90
_cell_angle_beta                 107.91(3)
_cell_angle_gamma                90
_cell_volume                     720.53
_exptl_crystal_colour            purple
_exptl_crystal_description       needle
_cell_formula_units_Z            2
loop_
_atom_site_label
_atom_site_type_symbol
_atom_site_fract_x
_atom_site_fract_y
_atom_site_fract_z
N1 N 0.2839(5) 0.2220(2) 0.4240(5)
N2 N 0.3554(5) 0.3441(2) -0.0842(4)
N3 N 0.2779(5) -0.1703(2) -0.5357(4)
N4 N 0.3309(4) -0.2524(2) -0.1035(3)
C1 C 0.2908(5) 0.2131(2) 0.2760(5)
C2 C 0.3320(5) 0.2785(2) -0.0042(4)
C3 C 0.3044(5) 0.1983(2) 0.0966(4)
C4 C 0.2883(5) 0.1061(2) 0.0201(4)
C5 C 0.2506(5) 0.0272(2) 0.1184(4)
H1 H 0.2129(64) 0.0359(23) 0.2319(53)
C6 C 0.2450(5) -0.0617(2) 0.0512(4)
H2 H 0.2067(60) -0.1145(24) 0.1156(45)
C7 C 0.2820(5) -0.0789(2) -0.1185(4)
C8 C 0.3057(5) 0.0012(2) -0.2231(4)
H3 H 0.3203(63) -0.0048(24) -0.3475(52)
C9 C 0.3099(5) 0.0902(2) -0.1558(4)
H4 H 0.3260(61) 0.1441(24) -0.2243(49)
C10 C 0.2983(5) -0.1705(2) -0.1889(4)
C11 C 0.2831(5) -0.1733(2) -0.3843(4)
C12 C 0.4167(5) -0.2657(2) 0.0978(4)
H5 H 0.4452(60) -0.2043(28) 0.1636(47)
H6 H 0.5490(66) -0.2956(25) 0.1193(50)
C13 C 0.2802(5) -0.3285(2) 0.1687(4)
H7 H 0.1445(66) -0.2969(25) 0.1473(49)
H8 H 0.3504(63) -0.3385(24) 0.3021(52)
C14 C 0.2518(6) -0.4242(2) 0.0720(4)
H9 H 0.3901(68) -0.4604(27) 0.1085(50)
C15 C 0.1820(5) -0.4101(2) -0.1374(4)
H10 H 0.0375(68) -0.3843(28) -0.1718(51)
H11 H 0.1821(68) -0.4707(26) -0.1988(52)
C16 C 0.3167(6) -0.3434(2) -0.2006(4)
H12 H 0.2623(64) -0.3305(23) -0.3396(53)
H13 H 0.4599(64) -0.3680(26) -0.1641(49)
C17 C 0.1063(7) -0.4859(2) 0.1341(5)
H14 H -0.0316(86) -0.4589(31) 0.1073(63)
H15 H 0.0957(78) -0.5539(30) 0.0721(58)
H16 H 0.1539(79) -0.4970(30) 0.2720(64)
loop_
_geom_bond_atom_site_label_1
_geom_bond_atom_site_label_2
_geom_bond_site_symmetry_1
_geom_bond_site_symmetry_2
N1 C1 1_555 1_555
N2 C2 1_555 1_555
N3 C11 1_555 1_555
N4 C10 1_555 1_555
C1 C3 1_555 1_555
C2 C3 1_555 1_555
C3 C4 1_555 1_555
C4 C5 1_555 1_555
C5 H1 1_555 1_555
C6 C5 1_555 1_555
H2 C6 1_555 1_555
C7 C6 1_555 1_555
C8 C7 1_555 1_555
H3 C8 1_555 1_555
C9 C4 1_555 1_555
H4 C9 1_555 1_555
C10 C7 1_555 1_555
C11 C10 1_555 1_555
C12 N4 1_555 1_555
H5 C12 1_555 1_555
H6 C12 1_555 1_555
C13 C12 1_555 1_555
H7 C13 1_555 1_555
H8 C13 1_555 1_555
C14 C13 1_555 1_555
H9 C14 1_555 1_555
C15 C14 1_555 1_555
H10 C15 1_555 1_555
H11 C15 1_555 1_555
C16 N4 1_555 1_555
H12 C16 1_555 1_555
H13 C16 1_555 1_555
C17 C14 1_555 1_555
H14 C17 1_555 1_555
H15 C17 1_555 1_555
H16 C17 1_555 1_555
C8 C9 1_555 1_555
C15 C16 1_555 1_555

#END
