
#######################################################################
#
#                 Cambridge Crystallographic Data Centre
#                                CCDC 
#
#######################################################################
#
# If this CIF has been generated from an entry in the Cambridge 
# Structural Database, then it will include bibliographic, chemical, 
# crystal, experimental, refinement or atomic coordinate data resulting 
# from the CCDC's data processing and validation procedures.
#
#######################################################################

data_ROQQUJ
_chemical_formula_moiety         'C34 H58 O4'
_chemical_name_systematic        
12\a,12'\a-Peroxy-bis(8\a,12-epoxy-11-homodrimane)
_symmetry_cell_setting           monoclinic
_symmetry_space_group_name_H-M   'C 2'
_symmetry_Int_Tables_number      5
_space_group_name_Hall           'C 2y'
loop_
_symmetry_equiv_pos_site_id
_symmetry_equiv_pos_as_xyz
1 x,y,z
2 -x,y,-z
3 1/2+x,1/2+y,z
4 1/2-x,1/2+y,-z
_cell_length_a                   26.907(2)
_cell_length_b                   7.410(1)
_cell_length_c                   8.289(1)
_cell_angle_alpha                90
_cell_angle_beta                 100.56
_cell_angle_gamma                90
_cell_volume                     1624.68
_exptl_crystal_colour            colorless
_chemical_melting_point          127-129deg.C
_cell_formula_units_Z            2
loop_
_atom_site_label
_atom_site_type_symbol
_atom_site_fract_x
_atom_site_fract_y
_atom_site_fract_z
O1 O 0.4162(1) 0.4802(4) 0.4029(3)
O2 O 0.4930(1) 0.3235(5) 0.4093(3)
C1 C 0.3511(1) 0.3275(7) -0.1546(4)
C2 C 0.3230(2) 0.3798(7) -0.3263(5)
C3 C 0.2818(2) 0.5179(7) -0.3177(5)
C4 C 0.2997(2) 0.6902(7) -0.2216(4)
C5 C 0.3297(1) 0.6309(5) -0.0504(4)
C6 C 0.3454(2) 0.7838(6) 0.0735(4)
C7 C 0.3631(1) 0.7140(6) 0.2492(4)
C8 C 0.4070(1) 0.5845(6) 0.2525(4)
C9 C 0.3899(1) 0.4352(5) 0.1265(4)
C10 C 0.3734(1) 0.4932(6) -0.0540(4)
C11 C 0.4294(1) 0.2900(6) 0.1819(4)
C12 C 0.4393(1) 0.3139(7) 0.3706(4)
C13 C 0.4182(2) 0.1668(6) 0.4642(5)
C14 C 0.4556(1) 0.6879(7) 0.2434(5)
C15 C 0.2524(2) 0.7969(9) -0.1972(5)
C16 C 0.3297(2) 0.8099(8) -0.3198(5)
C17 C 0.4186(1) 0.5648(7) -0.1259(5)
H1 H 0.3782(1) 0.2444(7) -0.1650(4)
H2 H 0.3279(1) 0.2657(7) -0.0964(4)
H3 H 0.3469(2) 0.4293(7) -0.3890(5)
H4 H 0.3080(2) 0.2728(7) -0.3827(5)
H5 H 0.2559(2) 0.4615(7) -0.2674(5)
H6 H 0.2664(2) 0.5515(7) -0.4286(5)
H7 H 0.3049(1) 0.5620(5) -0.0025(4)
H8 H 0.3726(2) 0.8523(6) 0.0403(4)
H9 H 0.3170(2) 0.8648(6) 0.0719(4)
H10 H 0.3735(1) 0.8146(6) 0.3224(4)
H11 H 0.3354(1) 0.6525(6) 0.2864(4)
H12 H 0.3589(1) 0.3877(5) 0.1573(4)
H13 H 0.4598(1) 0.3106(6) 0.1374(4)
H14 H 0.4163(1) 0.1706(6) 0.1502(4)
H15 H 0.4367(6) 0.0572(10) 0.4575(23)
H16 H 0.3832(3) 0.1478(22) 0.4177(18)
H17 H 0.4212(8) 0.2019(14) 0.5771(8)
H18 H 0.4493(3) 0.7714(24) 0.1534(20)
H19 H 0.4815(3) 0.6044(7) 0.2271(29)
H20 H 0.4663(5) 0.7528(27) 0.3439(14)
H21 H 0.2352(7) 0.7323(22) -0.1233(31)
H22 H 0.2301(6) 0.8112(39) -0.3011(8)
H23 H 0.2624(2) 0.9135(17) -0.1522(36)
H24 H 0.3554(7) 0.7393(11) -0.3565(28)
H25 H 0.3452(9) 0.9066(22) -0.2515(11)
H26 H 0.3073(2) 0.8588(31) -0.4131(19)
H27 H 0.4238(6) 0.6901(11) -0.0985(26)
H28 H 0.4116(4) 0.5512(32) -0.2431(6)
H29 H 0.4484(3) 0.4976(24) -0.0808(24)
O2A O 0.5070(1) 0.3235(5) 0.5907(3)
C12A C 0.5607(1) 0.3139(7) 0.6294(4)
O1A O 0.5838(1) 0.4802(4) 0.5971(3)
C8A C 0.5930(1) 0.5845(6) 0.7475(4)
C7A C 0.6369(1) 0.7140(6) 0.7508(4)
C6A C 0.6546(2) 0.7838(6) 0.9265(4)
C5A C 0.6703(1) 0.6309(5) 1.0504(4)
C4A C 0.7003(2) 0.6902(7) 1.2216(4)
C3A C 0.7182(2) 0.5179(7) 1.3177(5)
C2A C 0.6770(2) 0.3798(7) 1.3263(5)
C1A C 0.6489(1) 0.3275(7) 1.1546(4)
C10A C 0.6266(1) 0.4932(6) 1.0540(4)
H7A H 0.6951(1) 0.5620(5) 1.0025(4)
C9A C 0.6101(1) 0.4352(5) 0.8735(4)
C14A C 0.5444(1) 0.6879(7) 0.7566(5)
H18A H 0.5507(3) 0.7714(24) 0.8466(20)
H19A H 0.5185(3) 0.6044(7) 0.7729(29)
H20A H 0.5337(5) 0.7528(27) 0.6561(14)
C11A C 0.5706(1) 0.2900(6) 0.8181(4)
C13A C 0.5818(2) 0.1668(6) 0.5358(5)
H15A H 0.5633(6) 0.0572(10) 0.5425(23)
H16A H 0.6168(3) 0.1478(22) 0.5823(18)
H17A H 0.5788(8) 0.2019(14) 0.4229(8)
H13A H 0.5402(1) 0.3106(6) 0.8626(4)
H14A H 0.5837(1) 0.1706(6) 0.8498(4)
H12A H 0.6411(1) 0.3877(5) 0.8427(4)
C17A C 0.5814(1) 0.5648(7) 1.1259(5)
H27A H 0.5762(6) 0.6901(11) 1.0985(26)
H28A H 0.5884(4) 0.5512(32) 1.2431(6)
H29A H 0.5516(3) 0.4976(24) 1.0808(24)
H1A H 0.6218(1) 0.2444(7) 1.1650(4)
H2A H 0.6721(1) 0.2657(7) 1.0964(4)
H3A H 0.6531(2) 0.4293(7) 1.3890(5)
H4A H 0.6920(2) 0.2728(7) 1.3827(5)
H5A H 0.7441(2) 0.4615(7) 1.2674(5)
H6A H 0.7336(2) 0.5515(7) 1.4286(5)
C15A C 0.7476(2) 0.7969(9) 1.1972(5)
H21A H 0.7648(7) 0.7323(22) 1.1233(31)
H22A H 0.7699(6) 0.8112(39) 1.3011(8)
H23A H 0.7376(2) 0.9135(17) 1.1522(36)
C16A C 0.6703(2) 0.8099(8) 1.3198(5)
H24A H 0.6446(7) 0.7393(11) 1.3565(28)
H25A H 0.6548(9) 0.9066(22) 1.2515(11)
H26A H 0.6927(2) 0.8588(31) 1.4131(19)
H8A H 0.6274(2) 0.8523(6) 0.9597(4)
H9A H 0.6830(2) 0.8648(6) 0.9281(4)
H10A H 0.6265(1) 0.8146(6) 0.6776(4)
H11A H 0.6646(1) 0.6525(6) 0.7136(4)
loop_
_geom_bond_atom_site_label_1
_geom_bond_atom_site_label_2
_geom_bond_site_symmetry_1
_geom_bond_site_symmetry_2
O1 C8 1_555 1_555
O2 C12 1_555 1_555
C1 C2 1_555 1_555
C2 C3 1_555 1_555
C3 C4 1_555 1_555
C4 C5 1_555 1_555
C5 C6 1_555 1_555
C6 C7 1_555 1_555
C7 C8 1_555 1_555
C8 C9 1_555 1_555
C9 C10 1_555 1_555
C10 C1 1_555 1_555
C11 C9 1_555 1_555
C12 O1 1_555 1_555
C13 C12 1_555 1_555
C14 C8 1_555 1_555
C15 C4 1_555 1_555
C16 C4 1_555 1_555
C17 C10 1_555 1_555
H1 C1 1_555 1_555
H2 C1 1_555 1_555
H3 C2 1_555 1_555
H4 C2 1_555 1_555
H5 C3 1_555 1_555
H6 C3 1_555 1_555
H7 C5 1_555 1_555
H8 C6 1_555 1_555
H9 C6 1_555 1_555
H10 C7 1_555 1_555
H11 C7 1_555 1_555
H12 C9 1_555 1_555
H13 C11 1_555 1_555
H14 C11 1_555 1_555
H15 C13 1_555 1_555
H16 C13 1_555 1_555
H17 C13 1_555 1_555
H18 C14 1_555 1_555
H19 C14 1_555 1_555
H20 C14 1_555 1_555
H21 C15 1_555 1_555
H22 C15 1_555 1_555
H23 C15 1_555 1_555
H24 C16 1_555 1_555
H25 C16 1_555 1_555
H26 C16 1_555 1_555
H27 C17 1_555 1_555
H28 C17 1_555 1_555
H29 C17 1_555 1_555
O2A O2 1_555 1_555
C12A O2A 1_555 1_555
O1A C12A 1_555 1_555
C8A O1A 1_555 1_555
C7A C8A 1_555 1_555
C6A C7A 1_555 1_555
C5A C6A 1_555 1_555
C4A C5A 1_555 1_555
C3A C4A 1_555 1_555
C2A C3A 1_555 1_555
C1A C2A 1_555 1_555
C10A C5A 1_555 1_555
H7A C5A 1_555 1_555
C9A C8A 1_555 1_555
C14A C8A 1_555 1_555
H18A C14A 1_555 1_555
H19A C14A 1_555 1_555
H20A C14A 1_555 1_555
C11A C12A 1_555 1_555
C13A C12A 1_555 1_555
H15A C13A 1_555 1_555
H16A C13A 1_555 1_555
H17A C13A 1_555 1_555
H13A C11A 1_555 1_555
H14A C11A 1_555 1_555
H12A C9A 1_555 1_555
C17A C10A 1_555 1_555
H27A C17A 1_555 1_555
H28A C17A 1_555 1_555
H29A C17A 1_555 1_555
H1A C1A 1_555 1_555
H2A C1A 1_555 1_555
H3A C2A 1_555 1_555
H4A C2A 1_555 1_555
H5A C3A 1_555 1_555
H6A C3A 1_555 1_555
C15A C4A 1_555 1_555
H21A C15A 1_555 1_555
H22A C15A 1_555 1_555
H23A C15A 1_555 1_555
C16A C4A 1_555 1_555
H24A C16A 1_555 1_555
H25A C16A 1_555 1_555
H26A C16A 1_555 1_555
H8A C6A 1_555 1_555
H9A C6A 1_555 1_555
H10A C7A 1_555 1_555
H11A C7A 1_555 1_555
C5 C10 1_555 1_555
C11 C12 1_555 1_555
C1A C10A 1_555 1_555
C10A C9A 1_555 1_555
C9A C11A 1_555 1_555

#END
