
#######################################################################
#
#                 Cambridge Crystallographic Data Centre
#                                CCDC 
#
#######################################################################
#
# If this CIF has been generated from an entry in the Cambridge 
# Structural Database, then it will include bibliographic, chemical, 
# crystal, experimental, refinement or atomic coordinate data resulting 
# from the CCDC's data processing and validation procedures.
#
#######################################################################

data_ROQQOD
_chemical_formula_moiety         'C17 H30 O3'
_chemical_name_systematic        12-Hydroperoxy-8\a,12-epoxy-11-homodrimane
_symmetry_cell_setting           orthorhombic
_symmetry_space_group_name_H-M   'P 21 21 21'
_symmetry_Int_Tables_number      19
_space_group_name_Hall           'P 2ac 2ab'
loop_
_symmetry_equiv_pos_site_id
_symmetry_equiv_pos_as_xyz
1 x,y,z
2 1/2-x,-y,1/2+z
3 1/2+x,1/2-y,-z
4 -x,1/2+y,1/2-z
_cell_length_a                   19.876(2)
_cell_length_b                   13.241(1)
_cell_length_c                   6.175(1)
_cell_angle_alpha                90
_cell_angle_beta                 90
_cell_angle_gamma                90
_cell_volume                     1625.12
_chemical_melting_point          149-151deg.C
_cell_formula_units_Z            4
loop_
_atom_site_label
_atom_site_type_symbol
_atom_site_fract_x
_atom_site_fract_y
_atom_site_fract_z
O1 O 0.1684(2) 0.9741(3) 0.9143(5)
O2 O 0.2140(2) 0.8436(3) 0.7037(7)
O3 O 0.2826(2) 0.8815(4) 0.7134(7)
C1 C -0.0409(3) 0.8044(4) 1.0361(9)
C2 C -0.1170(3) 0.8048(4) 1.0525(10)
C3 C -0.1418(2) 0.9029(5) 1.1535(9)
C4 C -0.1180(2) 1.0003(4) 1.0438(8)
C5 C -0.0401(2) 0.9928(4) 1.0175(7)
C6 C -0.0064(2) 1.0884(4) 0.9294(10)
C7 C 0.0709(2) 1.0878(4) 0.9535(9)
C8 C 0.0992(2) 0.9941(4) 0.8451(7)
C9 C 0.0637(2) 0.9014(4) 0.9391(8)
C10 C -0.0126(2) 0.8946(4) 0.9089(8)
C11 C 0.1117(2) 0.8171(4) 0.8742(9)
C12 C 0.1797(2) 0.8678(4) 0.9004(9)
C13 C 0.2197(3) 0.8366(5) 1.0966(11)
C14 C 0.1000(3) 1.0062(5) 0.5982(7)
C15 C -0.1564(3) 1.0175(5) 0.8302(10)
C16 C -0.1355(3) 1.0881(5) 1.1932(10)
C17 C -0.0319(3) 0.8822(4) 0.6697(8)
H1 H -0.0266(3) 0.7424(4) 0.9661(9)
H2 H -0.0220(3) 0.8049(4) 1.1809(9)
H3 H -0.1317(3) 0.7481(4) 1.1403(10)
H4 H -0.1364(3) 0.7972(4) 0.9092(10)
H5 H -0.1274(2) 0.9044(5) 1.3036(9)
H6 H -0.1906(2) 0.9023(5) 1.1527(9)
H7 H -0.0237(2) 0.9884(4) 1.1668(7)
H8 H -0.0243(2) 1.1466(4) 1.0053(10)
H9 H -0.0176(2) 1.0956(4) 0.7774(10)
H10 H 0.0898(2) 1.1477(4) 0.8868(9)
H11 H 0.0830(2) 1.0880(4) 1.1057(9)
H12 H 0.0698(2) 0.9079(4) 1.0960(8)
H13 H 0.1073(2) 0.7592(4) 0.9693(9)
H14 H 0.1042(2) 0.7959(4) 0.7258(9)
H15 H 0.2573(10) 0.8813(16) 1.1144(34)
H16 H 0.2357(15) 0.7687(10) 1.0775(27)
H17 H 0.1916(6) 0.8397(26) 1.2228(14)
H18 H 0.0577(6) 1.0331(22) 0.5506(9)
H19 H 0.1074(15) 0.9417(6) 0.5317(7)
H20 H 0.1356(10) 1.0516(19) 0.5577(8)
H21 H -0.1363(11) 1.0724(18) 0.7522(28)
H22 H -0.2025(5) 1.0334(27) 0.8616(10)
H23 H -0.1545(15) 0.9573(10) 0.7438(27)
H24 H -0.1061(11) 1.0873(15) 1.3167(27)
H25 H -0.1813(6) 1.0817(14) 1.2405(41)
H26 H -0.1300(15) 1.1506(6) 1.1164(19)
H27 H -0.0752(8) 0.8506(23) 0.6597(8)
H28 H 0.0010(9) 0.8409(21) 0.5983(14)
H29 H -0.0335(16) 0.9473(5) 0.6017(15)
H30 H 0.2842 0.9388 0.6003
loop_
_geom_bond_atom_site_label_1
_geom_bond_atom_site_label_2
_geom_bond_site_symmetry_1
_geom_bond_site_symmetry_2
O1 C8 1_555 1_555
O2 O3 1_555 1_555
O3 H30 1_555 1_555
C1 C2 1_555 1_555
C2 C3 1_555 1_555
C3 C4 1_555 1_555
C4 C5 1_555 1_555
C5 C6 1_555 1_555
C6 C7 1_555 1_555
C7 C8 1_555 1_555
C8 C9 1_555 1_555
C9 C10 1_555 1_555
C10 C1 1_555 1_555
C11 C9 1_555 1_555
C12 O1 1_555 1_555
C13 C12 1_555 1_555
C14 C8 1_555 1_555
C15 C4 1_555 1_555
C16 C4 1_555 1_555
C17 C10 1_555 1_555
H1 C1 1_555 1_555
H2 C1 1_555 1_555
H3 C2 1_555 1_555
H4 C2 1_555 1_555
H5 C3 1_555 1_555
H6 C3 1_555 1_555
H7 C5 1_555 1_555
H8 C6 1_555 1_555
H9 C6 1_555 1_555
H10 C7 1_555 1_555
H11 C7 1_555 1_555
H12 C9 1_555 1_555
H13 C11 1_555 1_555
H14 C11 1_555 1_555
H15 C13 1_555 1_555
H16 C13 1_555 1_555
H17 C13 1_555 1_555
H18 C14 1_555 1_555
H19 C14 1_555 1_555
H20 C14 1_555 1_555
H21 C15 1_555 1_555
H22 C15 1_555 1_555
H23 C15 1_555 1_555
H24 C16 1_555 1_555
H25 C16 1_555 1_555
H26 C16 1_555 1_555
H27 C17 1_555 1_555
H28 C17 1_555 1_555
H29 C17 1_555 1_555
O2 C12 1_555 1_555
C5 C10 1_555 1_555
C11 C12 1_555 1_555

#END
