
#######################################################################
#
#                 Cambridge Crystallographic Data Centre
#                                CCDC 
#
#######################################################################
#
# If this CIF has been generated from an entry in the Cambridge 
# Structural Database, then it will include bibliographic, chemical, 
# crystal, experimental, refinement or atomic coordinate data resulting 
# from the CCDC's data processing and validation procedures.
#
#######################################################################

data_ROQRIA
_chemical_formula_moiety         
'2(C1 H6 N3 1+),2(H2 O1),C16 H1 N2 O7 S2 2-,C4 H8 O1'
_chemical_name_systematic        
'bis(guanidinium) 6-hydroxy-5-((4-sulfonatophenyl)diazenyl)naphthalene-2-sulfonate tetrahydrofuran solvate dihydrate'
_symmetry_cell_setting           orthorhombic
_symmetry_space_group_name_H-M   'P n n a'
_symmetry_Int_Tables_number      52
_space_group_name_Hall           '-P 2a 2bc'
loop_
_symmetry_equiv_pos_site_id
_symmetry_equiv_pos_as_xyz
1 x,y,z
2 1/2-x,-y,z
3 1/2-x,1/2+y,1/2-z
4 x,1/2-y,1/2-z
5 -x,-y,-z
6 1/2+x,y,-z
7 1/2+x,1/2-y,1/2+z
8 -x,1/2+y,1/2+z
_cell_length_a                   6.8426(5)
_cell_length_b                   20.0479(14)
_cell_length_c                   21.4663(15)
_cell_angle_alpha                90
_cell_angle_beta                 90
_cell_angle_gamma                90
_cell_volume                     2944.74
_exptl_crystal_colour            yellow
_exptl_crystal_description       plank-like
_cell_formula_units_Z            4
_chemical_properties_physical    Efflorescent
_exptl_crystal_recrystallization_method 'vapor diffusion'
loop_
_atom_site_label
_atom_site_type_symbol
_atom_site_fract_x
_atom_site_fract_y
_atom_site_fract_z
C17 C 0.2500 0.5000 0.48715(16)
N3 N 0.3036(3) 0.44593(10) 0.51747(11)
H11 H 0.3038 0.4457 0.5585
H12 H 0.3391 0.4101 0.4967
N4 N 0.2500 0.5000 0.42527(15)
H13 H 0.2143 0.5360 0.4048
N3A N 0.1964(3) 0.55407(10) 0.51747(11)
H11A H 0.1962 0.5543 0.5585
H12A H 0.1609 0.5899 0.4967
H13A H 0.2857 0.4640 0.4048
O5 O 0.2500 0.5000 0.64425(17)
H14 H 0.151(3) 0.491(3) 0.6657(9)
H14A H 0.349(3) 0.509(3) 0.6657(9)
S1 S 0.18924(9) 0.31217(3) 0.39229(3)
O1 O 0.3600(3) 0.35161(8) 0.40989(9)
O2 O 0.1910(3) 0.29490(9) 0.32634(9)
O3 O 0.0083(2) 0.34358(9) 0.41197(9)
O4 O 0.2243(5) 0.0020(3) 0.63562(14)
N1 N 0.2328(9) 0.0589(4) 0.5320(4)
H1 H 0.2259 0.0595 0.5729
N2 N 0.2438(15) 0.0009(7) 0.50342(16)
C1 C 0.2128(8) 0.2375(3) 0.4315(3)
C2 C 0.2053(11) 0.2396(2) 0.4962(3)
H2 H 0.1937 0.2812 0.5171
C3 C 0.2146(11) 0.1807(3) 0.5303(2)
H3 H 0.2094 0.1821 0.5745
C4 C 0.2314(9) 0.1199(2) 0.4998(3)
C5 C 0.2390(7) 0.1178(3) 0.4351(3)
H4 H 0.2506 0.0762 0.4142
C6 C 0.2297(7) 0.1767(3) 0.4010(2)
H5 H 0.2349 0.1753 0.3568
C7 C 0.2531(8) -0.0547(5) 0.5366(4)
C8 C 0.2604(7) -0.0530(3) 0.6041(2)
C9 C 0.2723(7) -0.1180(3) 0.6341(3)
H6 H 0.2732 -0.1209 0.6783
C10 C 0.2822(7) -0.1743(3) 0.5998(2)
H7 H 0.2895 -0.2161 0.6205
C11 C 0.2819(13) -0.1728(3) 0.5318(3)
C12 C 0.2763(11) -0.1135(3) 0.4981(3)
C13 C 0.2842(9) -0.1150(4) 0.4334(3)
H8 H 0.2804 -0.0746 0.4104
C14 C 0.2976(8) -0.1757(4) 0.4024(3)
H9 H 0.3029 -0.1767 0.3582
C15 C 0.3031(10) -0.2349(4) 0.4360(3)
C16 C 0.2953(12) -0.2334(3) 0.5007(3)
H10 H 0.2991 -0.2739 0.5237
S1A S 0.31076(9) -0.31217(3) 0.39229(3)
O1A O 0.1400(3) -0.35161(8) 0.40989(9)
O2A O 0.3090(3) -0.29490(9) 0.32634(9)
O3A O 0.4917(2) -0.34358(9) 0.41197(9)
O4A O 0.2757(5) -0.0020(3) 0.63562(14)
N1A N 0.2672(9) -0.0589(4) 0.5320(4)
H1A H 0.2741 -0.0595 0.5729
N2A N 0.2562(15) -0.0009(7) 0.50342(16)
C1A C 0.2872(8) -0.2375(3) 0.4315(3)
C2A C 0.2947(11) -0.2396(2) 0.4962(3)
H2A H 0.3063 -0.2812 0.5171
C3A C 0.2854(11) -0.1807(3) 0.5303(2)
H3A H 0.2906 -0.1821 0.5745
C4A C 0.2686(9) -0.1199(2) 0.4998(3)
C5A C 0.2610(7) -0.1178(3) 0.4351(3)
H4A H 0.2494 -0.0762 0.4142
C6A C 0.2703(7) -0.1767(3) 0.4010(2)
H5A H 0.2651 -0.1753 0.3568
C7A C 0.2469(8) 0.0547(5) 0.5366(4)
C8A C 0.2396(7) 0.0530(3) 0.6041(2)
C9A C 0.2277(7) 0.1180(3) 0.6341(3)
H6A H 0.2268 0.1209 0.6783
C10A C 0.2178(7) 0.1743(3) 0.5998(2)
H7A H 0.2105 0.2161 0.6205
C11A C 0.2181(13) 0.1728(3) 0.5318(3)
C12A C 0.2237(11) 0.1135(3) 0.4981(3)
C13A C 0.2158(9) 0.1150(4) 0.4334(3)
H8A H 0.2196 0.0746 0.4104
C14A C 0.2024(8) 0.1757(4) 0.4024(3)
H9A H 0.1971 0.1767 0.3582
C15A C 0.1969(10) 0.2349(4) 0.4360(3)
C16A C 0.2047(12) 0.2334(3) 0.5007(3)
H10A H 0.2009 0.2739 0.5237
C18? C 0.6913(7) 0.2780(3) 0.2838(3)
N5? N 0.6884(11) 0.3150(3) 0.3360(3)
H15? H 0.7986 0.3254 0.3547
H16? H 0.5763 0.3288 0.3514
N6? N 0.5257(6) 0.2575(4) 0.2578(3)
H17? H 0.5288 0.2304 0.2256
H18? H 0.4129 0.2710 0.2729
N7? N 0.8587(6) 0.2571(4) 0.2604(3)
H19? H 0.8595 0.2300 0.2282
H20? H 0.9697 0.2703 0.2771
O6? O 0.6864(7) 0.3456(3) 0.3294(2)
H21? H 0.583(4) 0.355(4) 0.348(2)
H22? H 0.788(4) 0.352(4) 0.350(2)
loop_
_geom_bond_atom_site_label_1
_geom_bond_atom_site_label_2
_geom_bond_site_symmetry_1
_geom_bond_site_symmetry_2
S1 O1 1_555 1_555
O2 S1 1_555 1_555
O3 S1 1_555 1_555
O4 C8 1_555 1_555
N1 H1 1_555 1_555
H1 C7A 1_555 1_555
N2 N1 1_555 1_555
C1 S1 1_555 1_555
C2 C1 1_555 1_555
H2 C2 1_555 1_555
C3 C2 1_555 1_555
H3 C3 1_555 1_555
C4 N1 1_555 1_555
C5 C4 1_555 1_555
H4 C5 1_555 1_555
C6 C1 1_555 1_555
H5 C6 1_555 1_555
C7 N2 1_555 1_555
C8 C7 1_555 1_555
C9 C8 1_555 1_555
H6 C9 1_555 1_555
C10 C9 1_555 1_555
H7 C10 1_555 1_555
C11 C10 1_555 1_555
C12 C7 1_555 1_555
C13 C12 1_555 1_555
H8 C13 1_555 1_555
C14 C13 1_555 1_555
H9 C14 1_555 1_555
C15 C14 1_555 1_555
C16 C11 1_555 1_555
H10 C16 1_555 1_555
C17 N3 1_555 1_555
N3 H11 1_555 1_555
H12 N3 1_555 1_555
N4 C17 1_555 1_555
H13 N4 1_555 1_555
O5 H14 1_555 1_555
S1A C15 1_555 1_555
O1A S1A 1_555 1_555
O2A S1A 1_555 1_555
O3A S1A 1_555 1_555
O4A C8 1_555 1_555
N1A N2 1_555 1_555
H1A C7 1_555 1_555
N2A N1 1_555 1_555
C1A C14 1_555 1_555
C2A C11 1_555 1_555
H2A C16 1_555 1_555
C3A C10 1_555 1_555
H3A C10 1_555 1_555
C4A C7 1_555 1_555
C5A C12 1_555 1_555
H4A C13 1_555 1_555
C6A C13 1_555 1_555
H5A C14 1_555 1_555
C7A N2 1_555 1_555
C8A O4 1_555 1_555
C9A C8A 1_555 1_555
H6A C9A 1_555 1_555
C10A C3 1_555 1_555
H7A C10A 1_555 1_555
C11A C2 1_555 1_555
C12A N1 1_555 1_555
C13A C4 1_555 1_555
H8A C5 1_555 1_555
C14A C1 1_555 1_555
H9A C6 1_555 1_555
C15A S1 1_555 1_555
C16A C1 1_555 1_555
H10A C2 1_555 1_555
N3A C17 1_555 1_555
H11A N3A 1_555 1_555
H12A N3A 1_555 1_555
H13A N4 1_555 1_555
H14A O5 1_555 1_555
N1 C8A 1_555 1_555
H1 C8A 1_555 1_555
C2 C15A 1_555 1_555
H2 C16A 1_555 1_555
C3 C4 1_555 1_555
C3 C12A 1_555 1_555
C3 C16A 1_555 1_555
H3 C10A 1_555 1_555
H3 C11A 1_555 1_555
C4 C7A 1_555 1_555
C4 C11A 1_555 1_555
C5 C6 1_555 1_555
C5 C12A 1_555 1_555
C5 C14A 1_555 1_555
H4 C13A 1_555 1_555
C6 C13A 1_555 1_555
C6 C15A 1_555 1_555
H5 C14A 1_555 1_555
C7 N2A 1_555 1_555
C8 N1A 1_555 1_555
C8 H1A 1_555 1_555
C11 C12 1_555 1_555
C11 H3A 1_555 1_555
C11 C4A 1_555 1_555
C12 N1A 1_555 1_555
C12 C3A 1_555 1_555
C13 C4A 1_555 1_555
H8 C5A 1_555 1_555
C14 C5A 1_555 1_555
H9 C6A 1_555 1_555
C15 C16 1_555 1_555
C15 C2A 1_555 1_555
C15 C6A 1_555 1_555
C16 C1A 1_555 1_555
C16 C3A 1_555 1_555
H10 C2A 1_555 1_555
S1A C1A 1_555 1_555
O4A C8A 1_555 1_555
N1A H1A 1_555 1_555
N1A N2A 1_555 1_555
N1A C4A 1_555 1_555
N2A C7A 1_555 1_555
C1A C2A 1_555 1_555
C1A C6A 1_555 1_555
C2A H2A 1_555 1_555
C2A C3A 1_555 1_555
C3A H3A 1_555 1_555
C3A C4A 1_555 1_555
C4A C5A 1_555 1_555
C5A H4A 1_555 1_555
C5A C6A 1_555 1_555
C6A H5A 1_555 1_555
C7A C8A 1_555 1_555
C7A C12A 1_555 1_555
C9A C10A 1_555 1_555
C10A C11A 1_555 1_555
C11A C12A 1_555 1_555
C11A C16A 1_555 1_555
C12A C13A 1_555 1_555
C13A H8A 1_555 1_555
C13A C14A 1_555 1_555
C14A H9A 1_555 1_555
C14A C15A 1_555 1_555
C15A C16A 1_555 1_555
C16A H10A 1_555 1_555

#END
