
#######################################################################
#
#                 Cambridge Crystallographic Data Centre
#                                CCDC 
#
#######################################################################
#
# If this CIF has been generated from an entry in the Cambridge 
# Structural Database, then it will include bibliographic, chemical, 
# crystal, experimental, refinement or atomic coordinate data resulting 
# from the CCDC's data processing and validation procedures.
#
#######################################################################

data_RORJAL
_chemical_formula_moiety         'C38 H33 Cl1 N2 O6'
_chemical_name_systematic        
't-Butyl 3-(2-(1-benzyl-5-chloro-2-oxo-1,2-dihydro-3H-indol-3-ylidene)-3-methoxy-3-oxopropyl)-2-oxo-3-phenylindoline-1-carboxylate'
_symmetry_cell_setting           monoclinic
_symmetry_space_group_name_H-M   'P 21/n'
_symmetry_Int_Tables_number      14
_space_group_name_Hall           '-P 2yn'
loop_
_symmetry_equiv_pos_site_id
_symmetry_equiv_pos_as_xyz
1 x,y,z
2 1/2-x,1/2+y,1/2-z
3 -x,-y,-z
4 1/2+x,1/2-y,1/2+z
_cell_length_a                   10.5400(18)
_cell_length_b                   18.518(3)
_cell_length_c                   16.641(3)
_cell_angle_alpha                90
_cell_angle_beta                 98.845(3)
_cell_angle_gamma                90
_cell_volume                     3209.36
_exptl_crystal_colour            yellow
_exptl_crystal_description       prism
_cell_formula_units_Z            4
loop_
_atom_site_label
_atom_site_type_symbol
_atom_site_fract_x
_atom_site_fract_y
_atom_site_fract_z
Cl1 Cl 0.48776(8) 1.10330(5) 0.39307(5)
O1 O 0.3066(2) 0.66997(12) 0.38273(13)
O2 O 0.4183(2) 0.62674(13) 0.49991(14)
O3 O 0.0699(2) 0.71711(12) 0.39973(13)
O4 O 0.1183(2) 0.88905(14) 0.35089(14)
O5 O 0.2930(2) 0.84815(14) 0.43060(16)
O6 O 0.0226(2) 0.94428(12) 0.64695(14)
N1 N 0.2471(2) 0.70133(13) 0.50243(15)
N2 N 0.1733(3) 1.03281(15) 0.64353(15)
C1 C 0.5190(3) 0.6415(2) 0.3457(2)
H1 H 0.5348 0.6936 0.3458
H2 H 0.5614 0.6185 0.3039
H3 H 0.5532 0.6214 0.3991
C2 C 0.3760(3) 0.62751(19) 0.3275(2)
C3 C 0.3330(3) 0.66119(17) 0.4627(2)
C4 C 0.1236(3) 0.72609(17) 0.46849(19)
C5 C 0.0659(3) 0.76538(17) 0.53673(18)
C6 C 0.0164(3) 0.84112(17) 0.50659(19)
H4 H -0.0444 0.8350 0.4555
H5 H -0.0320 0.8621 0.5474
C7 C 0.1186(3) 0.89402(17) 0.49151(18)
C8 C 0.1512(3) 0.95444(17) 0.53489(19)
C9 C 0.1035(3) 0.97328(17) 0.61316(19)
C10 C 0.1665(3) 1.06135(19) 0.72453(19)
H6 H 0.0769 1.0576 0.7353
H7 H 0.1900 1.1131 0.7260
C11 C 0.2539(3) 1.02216(17) 0.79095(19)
C12 C 0.3560(3) 0.97886(18) 0.7758(2)
H8 H 0.3738 0.9738 0.7218
C13 C 0.4309(3) 0.94340(19) 0.8386(2)
H9 H 0.4992 0.9134 0.8274
C14 C 0.4078(4) 0.9511(2) 0.9175(2)
H10 H 0.4605 0.9267 0.9606
C15 C 0.3213(4) 0.6585(3) 0.2448(2)
H11 H 0.2274 0.6587 0.2386
H12 H 0.3489 0.6287 0.2020
H13 H 0.3526 0.7080 0.2406
C16 C 0.1867(4) 0.87523(19) 0.4223(2)
C17 C 0.1852(5) 0.8643(3) 0.2846(3)
H14 H 0.2596 0.8955 0.2817
H15 H 0.1265 0.8667 0.2329
H16 H 0.2142 0.8144 0.2949
C18 C 0.2449(3) 1.01083(17) 0.52303(18)
C19 C 0.2572(3) 1.05578(18) 0.59096(19)
C20 C 0.2305(4) 1.02987(19) 0.8709(2)
H17 H 0.1617 1.0594 0.8822
C21 C 0.3078(4) 0.9943(2) 0.9339(2)
H18 H 0.2920 0.9998 0.9883
C22 C 0.3412(3) 1.11371(18) 0.6004(2)
H19 H 0.3499 1.1431 0.6477
C23 C 0.4125(3) 1.12755(18) 0.5383(2)
H20 H 0.4707 1.1670 0.5427
C24 C 0.3984(3) 1.08396(18) 0.4703(2)
C25 C 0.3153(3) 1.02512(18) 0.46113(19)
H21 H 0.3072 0.9957 0.4139
C26 C -0.0463(3) 0.71891(17) 0.55719(19)
C27 C -0.1729(3) 0.73428(19) 0.5254(2)
H22 H -0.1917 0.7747 0.4904
C28 C -0.2725(3) 0.6915(2) 0.5440(2)
H23 H -0.3587 0.7033 0.5225
C29 C -0.2471(3) 0.63192(19) 0.5933(2)
H24 H -0.3152 0.6023 0.6054
C30 C -0.1208(3) 0.61564(18) 0.6253(2)
H25 H -0.1024 0.5746 0.6594
C31 C -0.0224(3) 0.65873(18) 0.60790(19)
H26 H 0.0635 0.6474 0.6308
C32 C 0.1776(3) 0.76548(16) 0.60515(18)
C33 C 0.1847(3) 0.79533(17) 0.68184(19)
H27 H 0.1144 0.8216 0.6966
C34 C 0.2973(3) 0.78599(18) 0.73706(19)
H28 H 0.3038 0.8057 0.7903
C35 C 0.3990(3) 0.74846(18) 0.7148(2)
H29 H 0.4757 0.7437 0.7527
C36 C 0.3924(3) 0.71727(18) 0.63802(19)
H30 H 0.4624 0.6907 0.6233
C37 C 0.2796(3) 0.72649(16) 0.58410(18)
C38 C 0.3447(4) 0.5490(2) 0.3350(3)
H31 H 0.3812 0.5317 0.3894
H32 H 0.3811 0.5213 0.2939
H33 H 0.2513 0.5427 0.3268
loop_
_geom_bond_atom_site_label_1
_geom_bond_atom_site_label_2
_geom_bond_site_symmetry_1
_geom_bond_site_symmetry_2
Cl1 C24 1_555 1_555
O1 C2 1_555 1_555
O2 C3 1_555 1_555
O3 C4 1_555 1_555
O4 C16 1_555 1_555
O5 C16 1_555 1_555
O6 C9 1_555 1_555
N1 C3 1_555 1_555
N2 C9 1_555 1_555
C1 H1 1_555 1_555
H2 C1 1_555 1_555
H3 C1 1_555 1_555
C2 C1 1_555 1_555
C3 O1 1_555 1_555
C4 N1 1_555 1_555
C5 C4 1_555 1_555
C6 C5 1_555 1_555
H4 C6 1_555 1_555
H5 C6 1_555 1_555
C7 C6 1_555 1_555
C8 C7 1_555 1_555
C9 C8 1_555 1_555
C10 N2 1_555 1_555
H6 C10 1_555 1_555
H7 C10 1_555 1_555
C11 C10 1_555 1_555
C12 C11 1_555 1_555
H8 C12 1_555 1_555
C13 C12 1_555 1_555
H9 C13 1_555 1_555
C14 C13 1_555 1_555
H10 C14 1_555 1_555
C15 C2 1_555 1_555
H11 C15 1_555 1_555
H12 C15 1_555 1_555
H13 C15 1_555 1_555
C16 C7 1_555 1_555
C17 O4 1_555 1_555
H14 C17 1_555 1_555
H15 C17 1_555 1_555
H16 C17 1_555 1_555
C18 C8 1_555 1_555
C19 N2 1_555 1_555
C20 C11 1_555 1_555
H17 C20 1_555 1_555
C21 C14 1_555 1_555
H18 C21 1_555 1_555
C22 C19 1_555 1_555
H19 C22 1_555 1_555
C23 C22 1_555 1_555
H20 C23 1_555 1_555
C24 C23 1_555 1_555
C25 C18 1_555 1_555
H21 C25 1_555 1_555
C26 C5 1_555 1_555
C27 C26 1_555 1_555
H22 C27 1_555 1_555
C28 C27 1_555 1_555
H23 C28 1_555 1_555
C29 C28 1_555 1_555
H24 C29 1_555 1_555
C30 C29 1_555 1_555
H25 C30 1_555 1_555
C31 C26 1_555 1_555
H26 C31 1_555 1_555
C32 C5 1_555 1_555
C33 C32 1_555 1_555
H27 C33 1_555 1_555
C34 C33 1_555 1_555
H28 C34 1_555 1_555
C35 C34 1_555 1_555
H29 C35 1_555 1_555
C36 C35 1_555 1_555
H30 C36 1_555 1_555
C37 N1 1_555 1_555
C38 C2 1_555 1_555
H31 C38 1_555 1_555
H32 C38 1_555 1_555
H33 C38 1_555 1_555
C18 C19 1_555 1_555
C20 C21 1_555 1_555
C24 C25 1_555 1_555
C30 C31 1_555 1_555
C32 C37 1_555 1_555
C36 C37 1_555 1_555

#END
