
#######################################################################
#
#                 Cambridge Crystallographic Data Centre
#                                CCDC 
#
#######################################################################
#
# If this CIF has been generated from an entry in the Cambridge 
# Structural Database, then it will include bibliographic, chemical, 
# crystal, experimental, refinement or atomic coordinate data resulting 
# from the CCDC's data processing and validation procedures.
#
#######################################################################

data_RORKIU
_chemical_formula_moiety         'C18 H13 N1 O1'
_chemical_name_systematic        10-Phenyl-10H-phenoxazine
_symmetry_cell_setting           monoclinic
_symmetry_space_group_name_H-M   'C 2/c'
_symmetry_Int_Tables_number      15
_space_group_name_Hall           '-C 2yn'
loop_
_symmetry_equiv_pos_site_id
_symmetry_equiv_pos_as_xyz
1 x,y,z
2 -x,y,1/2-z
3 1/2+x,1/2+y,z
4 1/2-x,1/2+y,1/2-z
5 -x,-y,-z
6 x,-y,1/2+z
7 1/2-x,1/2-y,-z
8 1/2+x,1/2-y,1/2+z
_cell_length_a                   14.852(6)
_cell_length_b                   10.517(4)
_cell_length_c                   10.225(4)
_cell_angle_alpha                90
_cell_angle_beta                 125.15(2)
_cell_angle_gamma                90
_cell_volume                     1305.89
_exptl_crystal_colour            colorless
_exptl_crystal_description       Block
_cell_formula_units_Z            4
loop_
_atom_site_label
_atom_site_type_symbol
_atom_site_fract_x
_atom_site_fract_y
_atom_site_fract_z
O1 O 0.5000 0.58050(16) 0.2500
N1 N 0.5000 0.3142(2) 0.2500
C1 C 0.36750(16) 0.32137(19) 0.3185(2)
H1 H 0.3646 0.2330 0.3190
C2 C 0.30575(15) 0.3912(2) 0.3533(2)
H2 H 0.2618 0.3498 0.3778
C3 C 0.30836(17) 0.5212(2) 0.3523(3)
H3 H 0.2663 0.5681 0.3759
C4 C 0.37307(17) 0.58197(19) 0.3165(2)
H4 H 0.3748 0.6703 0.3155
C5 C 0.43508(14) 0.51352(19) 0.2821(2)
C6 C 0.43377(13) 0.38040(18) 0.28269(19)
C7 C 0.5000 0.1778(2) 0.2500
C8 C 0.57110(18) 0.1141(2) 0.3894(3)
H5 H 0.6194 0.1584 0.4836
C9 C 0.5703(2) -0.0170(2) 0.3884(4)
H6 H 0.6179 -0.0615 0.4828
C10 C 0.5000 -0.0817(3) 0.2500
H7 H 0.5000 -0.1701 0.2500
C1A C 0.63250(16) 0.32137(19) 0.1815(2)
H1A H 0.6354 0.2330 0.1810
C2A C 0.69425(15) 0.3912(2) 0.1467(2)
H2A H 0.7382 0.3498 0.1222
C3A C 0.69164(17) 0.5212(2) 0.1477(3)
H3A H 0.7337 0.5681 0.1241
C4A C 0.62693(17) 0.58197(19) 0.1835(2)
H4A H 0.6252 0.6703 0.1845
C5A C 0.56492(14) 0.51352(19) 0.2179(2)
C6A C 0.56623(13) 0.38040(18) 0.21731(19)
C8A C 0.42890(18) 0.1141(2) 0.1106(3)
H5A H 0.3806 0.1584 0.0164
C9A C 0.4297(2) -0.0170(2) 0.1116(4)
H6A H 0.3821 -0.0615 0.0172
loop_
_geom_bond_atom_site_label_1
_geom_bond_atom_site_label_2
_geom_bond_site_symmetry_1
_geom_bond_site_symmetry_2
O1 C5 1_555 1_555
N1 C6 1_555 1_555
C1 H1 1_555 1_555
C2 C1 1_555 1_555
H2 C2 1_555 1_555
C3 C2 1_555 1_555
H3 C3 1_555 1_555
C4 C3 1_555 1_555
H4 C4 1_555 1_555
C5 C4 1_555 1_555
C6 C1 1_555 1_555
C7 N1 1_555 1_555
C8 C7 1_555 1_555
H5 C8 1_555 1_555
C9 C8 1_555 1_555
H6 C9 1_555 1_555
C10 C9 1_555 1_555
H7 C10 1_555 1_555
C1A H1A 1_555 1_555
C2A C1A 1_555 1_555
H2A C2A 1_555 1_555
C3A C2A 1_555 1_555
H3A C3A 1_555 1_555
C4A C3A 1_555 1_555
H4A C4A 1_555 1_555
C5A O1 1_555 1_555
C6A N1 1_555 1_555
C8A C7 1_555 1_555
H5A C8A 1_555 1_555
C9A C10 1_555 1_555
H6A C9A 1_555 1_555
C5 C6 1_555 1_555
C1A C6A 1_555 1_555
C4A C5A 1_555 1_555
C5A C6A 1_555 1_555
C8A C9A 1_555 1_555

#END
