
#######################################################################
#
#                 Cambridge Crystallographic Data Centre
#                                CCDC 
#
#######################################################################
#
# If this CIF has been generated from an entry in the Cambridge 
# Structural Database, then it will include bibliographic, chemical, 
# crystal, experimental, refinement or atomic coordinate data resulting 
# from the CCDC's data processing and validation procedures.
#
#######################################################################

data_RORVUR
_chemical_formula_moiety         'C17 H24 N2 O1'
_chemical_name_systematic        
5-heptyl-5-methyl-2-phenyl-3,5-dihydro-4H-imidazol-4-one
_symmetry_cell_setting           monoclinic
_symmetry_space_group_name_H-M   'C 2/c'
_symmetry_Int_Tables_number      15
_space_group_name_Hall           '-C 2yn'
loop_
_symmetry_equiv_pos_site_id
_symmetry_equiv_pos_as_xyz
1 x,y,z
2 -x,y,1/2-z
3 1/2+x,1/2+y,z
4 1/2-x,1/2+y,1/2-z
5 -x,-y,-z
6 x,-y,1/2+z
7 1/2-x,1/2-y,-z
8 1/2+x,1/2-y,1/2+z
_cell_length_a                   29.745(11)
_cell_length_b                   5.802(2)
_cell_length_c                   19.967(8)
_cell_angle_alpha                90
_cell_angle_beta                 112.103(4)
_cell_angle_gamma                90
_cell_volume                     3192.67
_exptl_crystal_colour            colorless
_exptl_crystal_description       block
_cell_formula_units_Z            8
loop_
_atom_site_label
_atom_site_type_symbol
_atom_site_fract_x
_atom_site_fract_y
_atom_site_fract_z
O1 O 0.28587(3) 0.20552(17) 0.59924(5)
N1 N 0.29291(4) 0.0384(2) 0.49832(6)
N2 N 0.35509(4) -0.21087(19) 0.54759(6)
C1 C 0.31930(5) -0.2011(2) 0.41543(7)
C2 C 0.29455(5) -0.0668(2) 0.35492(7)
H1 H 0.2785 0.0659 0.3598
C3 C 0.29373(5) -0.1301(3) 0.28726(7)
H2 H 0.2773 -0.0394 0.2471
C4 C 0.31734(5) -0.3277(3) 0.27978(7)
H3 H 0.3171 -0.3689 0.2347
C5 C 0.34132(5) -0.4644(3) 0.33950(8)
H4 H 0.3568 -0.5984 0.3342
C6 C 0.34237(5) -0.4026(2) 0.40713(8)
H5 H 0.3584 -0.4953 0.4470
C7 C 0.32367(5) -0.1316(2) 0.48873(7)
C8 C 0.34849(5) -0.0867(2) 0.60768(7)
C9 C 0.30549(5) 0.0729(2) 0.57058(7)
C10 C 0.33663(5) -0.2554(3) 0.65743(8)
H6 H 0.3084 -0.3436 0.6298
H7 H 0.3304 -0.1713 0.6944
H8 H 0.3636 -0.3574 0.6793
C11 C 0.39405(5) 0.0551(2) 0.64997(7)
H9 H 0.3876 0.1454 0.6863
H10 H 0.4203 -0.0502 0.6750
C12 C 0.41068(5) 0.2172(3) 0.60388(7)
H11 H 0.3841 0.3189 0.5772
H12 H 0.4188 0.1270 0.5691
C13 C 0.45454(5) 0.3628(3) 0.64809(8)
H13 H 0.4459 0.4607 0.6808
H14 H 0.4806 0.2617 0.6771
C14 C 0.47257(5) 0.5125(3) 0.60078(8)
H15 H 0.4837 0.4129 0.5712
H16 H 0.4455 0.6017 0.5685
C15 C 0.51336(5) 0.6772(3) 0.64213(8)
H17 H 0.5025 0.7766 0.6722
H18 H 0.5408 0.5889 0.6737
C16 C 0.52949(6) 0.8247(3) 0.59278(10)
H19 H 0.5012 0.9007 0.5582
H20 H 0.5429 0.7250 0.5659
C17 C 0.56701(6) 1.0068(3) 0.63141(11)
H21 H 0.5755 1.0918 0.5966
H22 H 0.5954 0.9336 0.6652
H23 H 0.5538 1.1102 0.6568
H24 H 0.2687(6) 0.107(3) 0.4647(9)
loop_
_geom_bond_atom_site_label_1
_geom_bond_atom_site_label_2
_geom_bond_site_symmetry_1
_geom_bond_site_symmetry_2
O1 C9 1_555 1_555
N1 C7 1_555 1_555
N2 C7 1_555 1_555
C1 C2 1_555 1_555
C2 H1 1_555 1_555
C3 C2 1_555 1_555
H2 C3 1_555 1_555
C4 C3 1_555 1_555
H3 C4 1_555 1_555
C5 C4 1_555 1_555
H4 C5 1_555 1_555
C6 C1 1_555 1_555
H5 C6 1_555 1_555
C7 C1 1_555 1_555
C8 N2 1_555 1_555
C9 N1 1_555 1_555
C10 C8 1_555 1_555
H6 C10 1_555 1_555
H7 C10 1_555 1_555
H8 C10 1_555 1_555
C11 C8 1_555 1_555
H9 C11 1_555 1_555
H10 C11 1_555 1_555
C12 C11 1_555 1_555
H11 C12 1_555 1_555
H12 C12 1_555 1_555
C13 C12 1_555 1_555
H13 C13 1_555 1_555
H14 C13 1_555 1_555
C14 C13 1_555 1_555
H15 C14 1_555 1_555
H16 C14 1_555 1_555
C15 C14 1_555 1_555
H17 C15 1_555 1_555
H18 C15 1_555 1_555
C16 C15 1_555 1_555
H19 C16 1_555 1_555
H20 C16 1_555 1_555
C17 C16 1_555 1_555
H21 C17 1_555 1_555
H22 C17 1_555 1_555
H23 C17 1_555 1_555
H24 N1 1_555 1_555
C5 C6 1_555 1_555
C8 C9 1_555 1_555

#END
