
#######################################################################
#
#                 Cambridge Crystallographic Data Centre
#                                CCDC 
#
#######################################################################
#
# If this CIF has been generated from an entry in the Cambridge 
# Structural Database, then it will include bibliographic, chemical, 
# crystal, experimental, refinement or atomic coordinate data resulting 
# from the CCDC's data processing and validation procedures.
#
#######################################################################

data_ROSMET
_chemical_formula_moiety         'C17 H18 N2 O1'
_chemical_name_systematic        
3-(N-(1-(3-Methylphenyl)ethylidene)ethanehydrazonoyl)phenol
_symmetry_cell_setting           monoclinic
_symmetry_space_group_name_H-M   'P 21/c'
_symmetry_Int_Tables_number      14
_space_group_name_Hall           '-P 2ybc'
loop_
_symmetry_equiv_pos_site_id
_symmetry_equiv_pos_as_xyz
1 x,y,z
2 -x,1/2+y,1/2-z
3 -x,-y,-z
4 x,1/2-y,1/2+z
_cell_length_a                   5.2805(10)
_cell_length_b                   15.426(3)
_cell_length_c                   17.669(3)
_cell_angle_alpha                90
_cell_angle_beta                 92.418(12)
_cell_angle_gamma                90
_cell_volume                     1437.98
_cell_formula_units_Z            4
loop_
_atom_site_label
_atom_site_type_symbol
_atom_site_fract_x
_atom_site_fract_y
_atom_site_fract_z
N1 N 0.2872(5) 0.92142(16) 0.35029(14)
N2 N 0.1471(5) 0.86017(15) 0.38894(14)
C1 C 0.2934(6) 1.14923(18) 0.29956(16)
H1 H 0.1751 1.1706 0.3324
C2 C 0.2031(5) 0.99975(17) 0.34643(15)
C3 C 0.1715(5) 0.72610(18) 0.55669(17)
H2 H 0.2904 0.7568 0.5863
C4 C 0.3390(5) 1.05995(18) 0.29699(15)
C5 C 0.2474(5) 0.82811(17) 0.45008(16)
C6 C 0.1172(5) 0.75303(17) 0.48330(16)
C7 C 0.4215(6) 1.20675(18) 0.25401(16)
C8 C 0.0545(6) 0.6547(2) 0.58764(18)
C9 C 0.6001(7) 1.1746(2) 0.20696(18)
H3 H 0.6908 1.2125 0.1774
O1 O 0.3734(6) 1.29604(16) 0.25862(16)
H4 H 0.3949 1.3186 0.2174
C10 C 0.1062(6) 0.63161(19) 0.66333(17)
H5 H 0.2746 0.6498 0.6785
H6 H 0.0931 0.5698 0.6686
H7 H -0.0137 0.6593 0.6948
C11 C 0.4883(6) 0.8619(2) 0.4869(2)
H8 H 0.6040 0.8772 0.4487
H9 H 0.5632 0.8180 0.5192
H10 H 0.4520 0.9122 0.5166
C12 C 0.6459(7) 1.0870(2) 0.20332(18)
H11 H 0.7658 1.0663 0.1708
C13 C -0.0155(6) 1.0303(2) 0.3900(2)
H12 H -0.1198 0.9818 0.4023
H13 H -0.1137 1.0711 0.3600
H14 H 0.0463 1.0579 0.4359
C14 C 0.5163(6) 1.02939(19) 0.24738(17)
H15 H 0.5475 0.9702 0.2439
C15 C -0.0632(6) 0.7063(2) 0.43925(18)
H16 H -0.1034 0.7229 0.3896
C16 C -0.1248(7) 0.6096(2) 0.5423(2)
H17 H -0.2063 0.5615 0.5619
C17 C -0.1806(7) 0.6354(2) 0.4701(2)
H18 H -0.3004 0.6047 0.4408
loop_
_geom_bond_atom_site_label_1
_geom_bond_atom_site_label_2
_geom_bond_site_symmetry_1
_geom_bond_site_symmetry_2
N1 N2 1_555 1_555
N2 C5 1_555 1_555
C1 H1 1_555 1_555
C2 N1 1_555 1_555
C3 H2 1_555 1_555
C4 C1 1_555 1_555
C5 C6 1_555 1_555
C6 C3 1_555 1_555
C7 C1 1_555 1_555
C8 C3 1_555 1_555
C9 C7 1_555 1_555
H3 C9 1_555 1_555
O1 C7 1_555 1_555
H4 O1 1_555 1_555
C10 C8 1_555 1_555
H5 C10 1_555 1_555
H6 C10 1_555 1_555
H7 C10 1_555 1_555
C11 C5 1_555 1_555
H8 C11 1_555 1_555
H9 C11 1_555 1_555
H10 C11 1_555 1_555
C12 C9 1_555 1_555
H11 C12 1_555 1_555
C13 C2 1_555 1_555
H12 C13 1_555 1_555
H13 C13 1_555 1_555
H14 C13 1_555 1_555
C14 C4 1_555 1_555
H15 C14 1_555 1_555
C15 C6 1_555 1_555
H16 C15 1_555 1_555
C16 C8 1_555 1_555
H17 C16 1_555 1_555
C17 C15 1_555 1_555
H18 C17 1_555 1_555
C2 C4 1_555 1_555
C12 C14 1_555 1_555
C16 C17 1_555 1_555

#END
