
#######################################################################
#
#                 Cambridge Crystallographic Data Centre
#                                CCDC 
#
#######################################################################
#
# If this CIF has been generated from an entry in the Cambridge 
# Structural Database, then it will include bibliographic, chemical, 
# crystal, experimental, refinement or atomic coordinate data resulting 
# from the CCDC's data processing and validation procedures.
#
#######################################################################

data_ROSMIX
_chemical_formula_moiety         'C6 H6 N12 O12,C10 H6 O2'
_chemical_name_systematic        
'1,4-Naphthoquinone 2,4,6,8,10,12-hexanitro-2,4,6,8,10,12-hexaazatetracyclo[5.5.0.0^3,11^.0^5,9^]dodecane'
_symmetry_cell_setting           monoclinic
_symmetry_space_group_name_H-M   'P 21/n'
_symmetry_Int_Tables_number      14
_space_group_name_Hall           '-P 2yn'
loop_
_symmetry_equiv_pos_site_id
_symmetry_equiv_pos_as_xyz
1 x,y,z
2 1/2-x,1/2+y,1/2-z
3 -x,-y,-z
4 1/2+x,1/2-y,1/2+z
_cell_length_a                   13.405(2)
_cell_length_b                   7.9724(14)
_cell_length_c                   20.951(4)
_cell_angle_alpha                90
_cell_angle_beta                 94.158(4)
_cell_angle_gamma                90
_cell_volume                     2233.14
_exptl_crystal_colour            colorless
_exptl_crystal_description       prismatic
_cell_formula_units_Z            4
loop_
_atom_site_label
_atom_site_type_symbol
_atom_site_fract_x
_atom_site_fract_y
_atom_site_fract_z
O1 O 0.91559(14) 0.6074(2) -0.00574(8)
O2 O 0.89070(15) 0.8735(3) -0.01622(9)
O3 O 0.94839(12) 1.0463(2) 0.11787(9)
O4 O 0.97641(12) 0.9131(2) 0.20683(9)
O5 O 0.62847(14) 0.8329(2) -0.03275(7)
O6 O 0.59970(13) 0.5675(2) -0.01992(7)
O7 O 0.50600(11) 1.0420(2) 0.13213(8)
O8 O 0.51892(12) 0.9209(2) 0.22444(8)
O9 O 0.79439(14) 0.2925(2) 0.05094(9)
O10 O 0.63508(14) 0.2800(2) 0.06312(9)
O11 O 0.84122(12) 0.7426(2) 0.28961(7)
O12 O 0.68174(13) 0.7321(2) 0.29706(7)
N1 N 0.80548(11) 0.7302(2) 0.05388(7)
N2 N 0.87885(14) 0.7387(3) 0.00778(9)
N3 N 0.83040(10) 0.8703(2) 0.15019(8)
N4 N 0.92790(12) 0.9479(2) 0.15800(9)
N5 N 0.61436(11) 0.7352(2) 0.06441(7)
N6 N 0.61494(13) 0.7095(2) -0.00077(8)
N7 N 0.63862(11) 0.8717(2) 0.15751(7)
N8 N 0.54482(12) 0.9498(2) 0.17159(9)
N9 N 0.72232(12) 0.50180(19) 0.10033(8)
N10 N 0.71624(15) 0.3483(2) 0.06804(8)
N11 N 0.74361(11) 0.6554(2) 0.20484(7)
N12 N 0.75587(13) 0.7165(2) 0.26839(8)
C1 C 0.78006(13) 0.8842(2) 0.08600(9)
H1 H 0.8026 0.9833 0.0634
C2 C 0.81410(13) 0.5967(2) 0.10136(9)
H2 H 0.8713 0.5238 0.0948
C3 C 0.82843(14) 0.6919(2) 0.16715(9)
H3 H 0.8914 0.6587 0.1905
C4 C 0.66222(13) 0.8865(2) 0.09118(9)
H4 H 0.6321 0.9875 0.0714
C5 C 0.63187(13) 0.5942(2) 0.10909(9)
H5 H 0.5738 0.5194 0.1081
C6 C 0.64487(13) 0.6923(2) 0.17402(9)
H6 H 0.5923 0.6614 0.2020
O13 O 0.42863(11) 0.6477(2) 0.14558(9)
O14 O 0.03073(11) 0.6351(3) 0.12252(9)
C7 C 0.28357(14) 0.4853(3) 0.15553(9)
C8 C 0.33735(15) 0.6384(3) 0.13769(11)
C9 C 0.27834(19) 0.7789(3) 0.11056(14)
H7 H 0.3113 0.8738 0.0972
C10 C 0.1790(2) 0.7749(3) 0.10447(13)
H8 H 0.1445 0.8669 0.0866
C11 C 0.12198(16) 0.6302(3) 0.12505(11)
C12 C 0.17894(14) 0.4804(3) 0.14893(9)
C13 C 0.12916(16) 0.3360(3) 0.16594(11)
H9 H 0.0597 0.3321 0.1617
C14 C 0.1823(2) 0.2000(3) 0.18892(13)
H10 H 0.1485 0.1039 0.2003
C15 C 0.2857(2) 0.2033(4) 0.19549(12)
H11 H 0.3211 0.1099 0.2111
C16 C 0.33613(17) 0.3452(3) 0.17881(11)
H12 H 0.4057 0.3473 0.1831
loop_
_geom_bond_atom_site_label_1
_geom_bond_atom_site_label_2
_geom_bond_site_symmetry_1
_geom_bond_site_symmetry_2
O1 N2 1_555 1_555
O2 N2 1_555 1_555
O3 N4 1_555 1_555
O4 N4 1_555 1_555
O5 N6 1_555 1_555
O6 N6 1_555 1_555
O7 N8 1_555 1_555
O8 N8 1_555 1_555
O9 N10 1_555 1_555
O10 N10 1_555 1_555
O11 N12 1_555 1_555
O12 N12 1_555 1_555
N1 N2 1_555 1_555
N3 N4 1_555 1_555
N5 N6 1_555 1_555
N7 N8 1_555 1_555
N9 N10 1_555 1_555
N11 N12 1_555 1_555
C1 N1 1_555 1_555
H1 C1 1_555 1_555
C2 N1 1_555 1_555
H2 C2 1_555 1_555
C3 N3 1_555 1_555
H3 C3 1_555 1_555
C4 N5 1_555 1_555
H4 C4 1_555 1_555
C5 N5 1_555 1_555
H5 C5 1_555 1_555
C6 N7 1_555 1_555
H6 C6 1_555 1_555
O13 C8 1_555 1_555
O14 C11 1_555 1_555
C7 C8 1_555 1_555
C8 C9 1_555 1_555
C9 H7 1_555 1_555
C10 C9 1_555 1_555
H8 C10 1_555 1_555
C11 C10 1_555 1_555
C12 C7 1_555 1_555
C13 C12 1_555 1_555
H9 C13 1_555 1_555
C14 C13 1_555 1_555
H10 C14 1_555 1_555
C15 C14 1_555 1_555
H11 C15 1_555 1_555
C16 C7 1_555 1_555
H12 C16 1_555 1_555
N3 C1 1_555 1_555
N7 C4 1_555 1_555
N9 C2 1_555 1_555
N9 C5 1_555 1_555
N11 C3 1_555 1_555
N11 C6 1_555 1_555
C1 C4 1_555 1_555
C2 C3 1_555 1_555
C5 C6 1_555 1_555
C11 C12 1_555 1_555
C15 C16 1_555 1_555

#END
