
#######################################################################
#
#                 Cambridge Crystallographic Data Centre
#                                CCDC 
#
#######################################################################
#
# If this CIF has been generated from an entry in the Cambridge 
# Structural Database, then it will include bibliographic, chemical, 
# crystal, experimental, refinement or atomic coordinate data resulting 
# from the CCDC's data processing and validation procedures.
#
#######################################################################

data_ROSQUN
_chemical_formula_moiety         'C25 H18 Br1 N3 O4 S1'
_chemical_name_systematic        
(RSSS)-4-(3-Bromophenyl)-1'-methyl-3a-nitro-3-thioxo-2,3,3a,9b-tetrahydro-4H-spiro[chromeno[3,4-c]pyrrole-1,3'-indol]-2'(1'H)-one
_symmetry_cell_setting           triclinic
_symmetry_space_group_name_H-M   'P -1'
_symmetry_Int_Tables_number      2
_space_group_name_Hall           '-P 1'
loop_
_symmetry_equiv_pos_site_id
_symmetry_equiv_pos_as_xyz
1 x,y,z
2 -x,-y,-z
_cell_length_a                   9.0285(3)
_cell_length_b                   9.3506(3)
_cell_length_c                   14.1171(5)
_cell_angle_alpha                107.993(2)
_cell_angle_beta                 99.488(2)
_cell_angle_gamma                93.745(2)
_cell_volume                     1109.39
_exptl_crystal_colour            colorless
_exptl_crystal_description       block
_cell_formula_units_Z            2
loop_
_atom_site_label
_atom_site_type_symbol
_atom_site_fract_x
_atom_site_fract_y
_atom_site_fract_z
Br1 Br 0.84232(4) 0.85789(4) 0.03140(3)
O1 O 1.13601(17) 0.45800(17) -0.33458(11)
S1 S 1.39383(8) 0.77018(8) 0.00693(4)
N1 N 1.3945(2) 0.4910(2) -0.19094(14)
C1 C 1.1575(2) 0.5910(2) -0.24641(15)
H1 H 1.1242 0.6731 -0.2709
N2 N 1.4186(2) 0.8843(2) -0.14123(14)
H2 H 1.4461 0.9740 -0.0986
O2 O 1.5024(3) 0.4495(3) -0.2273(2)
C2 C 1.3307(2) 0.6308(2) -0.20711(15)
N3 N 1.3260(2) 1.0118(2) -0.34386(16)
C3 C 1.3986(2) 0.6772(2) -0.28787(15)
H3 H 1.5023 0.6509 -0.2829
O3 O 1.3303(2) 0.4253(2) -0.14535(17)
O4 O 1.14230(19) 0.8975(2) -0.28857(16)
C4 C 1.4099(2) 0.8538(2) -0.24975(16)
C5 C 1.5412(3) 0.9329(2) -0.27566(17)
C6 C 1.6940(3) 0.9264(3) -0.2532(2)
H4 H 1.7324 0.8677 -0.2147
C7 C 1.7901(3) 1.0108(3) -0.2899(2)
H5 H 1.8940 1.0079 -0.2761
C8 C 1.7322(4) 1.0979(3) -0.3463(2)
H6 H 1.7982 1.1530 -0.3701
C9 C 1.5792(4) 1.1058(3) -0.3687(2)
H7 H 1.5408 1.1651 -0.4068
C10 C 1.4854(3) 1.0225(3) -0.33213(17)
C11 C 1.2733(3) 0.9202(2) -0.29575(18)
C12 C 1.3823(2) 0.7681(3) -0.11083(16)
C13 C 1.3157(2) 0.5940(2) -0.39487(15)
C14 C 1.3654(3) 0.6170(3) -0.47865(17)
H8 H 1.4444 0.6925 -0.4684
C15 C 1.2977(3) 0.5282(3) -0.57676(18)
H9 H 1.3285 0.5467 -0.6320
C16 C 1.1841(3) 0.4121(3) -0.59193(18)
H10 H 1.1418 0.3499 -0.6576
C17 C 1.1330(3) 0.3876(3) -0.51095(17)
H11 H 1.0569 0.3091 -0.5215
C18 C 1.1966(2) 0.4819(2) -0.41291(16)
C19 C 1.0515(2) 0.5695(2) -0.17813(16)
C20 C 0.9862(3) 0.4274(3) -0.18439(18)
H12 H 1.0162 0.3405 -0.2260
C21 C 0.8760(3) 0.4155(3) -0.1283(2)
H13 H 0.8315 0.3202 -0.1336
C22 C 0.8315(3) 0.5425(3) -0.0651(2)
H14 H 0.7578 0.5339 -0.0277
C23 C 0.8984(3) 0.6821(3) -0.05865(19)
C24 C 1.0063(3) 0.6981(3) -0.11510(18)
H15 H 1.0481 0.7940 -0.1108
C25 C 1.2307(4) 1.1004(3) -0.3901(3)
H16 H 1.1268 1.0722 -0.3895
H17 H 1.2434 1.0818 -0.4589
H18 H 1.2588 1.2062 -0.3525
loop_
_geom_bond_atom_site_label_1
_geom_bond_atom_site_label_2
_geom_bond_site_symmetry_1
_geom_bond_site_symmetry_2
Br1 C23 1_555 1_555
O1 C1 1_555 1_555
S1 C12 1_555 1_555
N1 O2 1_555 1_555
C1 H1 1_555 1_555
N2 H2 1_555 1_555
C2 N1 1_555 1_555
N3 C10 1_555 1_555
C3 C2 1_555 1_555
H3 C3 1_555 1_555
O3 N1 1_555 1_555
O4 C11 1_555 1_555
C4 N2 1_555 1_555
C5 C4 1_555 1_555
C6 C5 1_555 1_555
H4 C6 1_555 1_555
C7 C6 1_555 1_555
H5 C7 1_555 1_555
C8 C7 1_555 1_555
H6 C8 1_555 1_555
C9 C8 1_555 1_555
H7 C9 1_555 1_555
C10 C5 1_555 1_555
C11 N3 1_555 1_555
C12 N2 1_555 1_555
C13 C3 1_555 1_555
C14 C13 1_555 1_555
H8 C14 1_555 1_555
C15 C14 1_555 1_555
H9 C15 1_555 1_555
C16 C15 1_555 1_555
H10 C16 1_555 1_555
C17 C16 1_555 1_555
H11 C17 1_555 1_555
C18 O1 1_555 1_555
C19 C1 1_555 1_555
C20 C19 1_555 1_555
H12 C20 1_555 1_555
C21 C20 1_555 1_555
H13 C21 1_555 1_555
C22 C21 1_555 1_555
H14 C22 1_555 1_555
C23 C22 1_555 1_555
C24 C19 1_555 1_555
H15 C24 1_555 1_555
C25 N3 1_555 1_555
H16 C25 1_555 1_555
H17 C25 1_555 1_555
H18 C25 1_555 1_555
C1 C2 1_555 1_555
C2 C12 1_555 1_555
C3 C4 1_555 1_555
C4 C11 1_555 1_555
C9 C10 1_555 1_555
C13 C18 1_555 1_555
C17 C18 1_555 1_555
C23 C24 1_555 1_555

#END
