
#######################################################################
#
#                 Cambridge Crystallographic Data Centre
#                                CCDC 
#
#######################################################################
#
# If this CIF has been generated from an entry in the Cambridge 
# Structural Database, then it will include bibliographic, chemical, 
# crystal, experimental, refinement or atomic coordinate data resulting 
# from the CCDC's data processing and validation procedures.
#
#######################################################################

data_ROSTUQ
_chemical_formula_moiety         '2(C13 H13 N3 O2 S1),C4 H6 O4'
_chemical_name_systematic        
"bis(N-ethyl-N'-(1,3-thiazol-2-yl)isophthalamide) succinic acid"
_symmetry_cell_setting           triclinic
_symmetry_space_group_name_H-M   'P -1'
_symmetry_Int_Tables_number      2
_space_group_name_Hall           '-P 1'
loop_
_symmetry_equiv_pos_site_id
_symmetry_equiv_pos_as_xyz
1 x,y,z
2 -x,-y,-z
_cell_length_a                   8.085(3)
_cell_length_b                   9.738(3)
_cell_length_c                   10.671(4)
_cell_angle_alpha                78.516(9)
_cell_angle_beta                 83.189(9)
_cell_angle_gamma                68.866(9)
_cell_volume                     766.942
_exptl_crystal_colour            colorless
_exptl_crystal_description       block
_cell_formula_units_Z            1
loop_
_atom_site_label
_atom_site_type_symbol
_atom_site_fract_x
_atom_site_fract_y
_atom_site_fract_z
C1 C 0.2878(4) 0.9782(3) 0.0932(3)
H1 H 0.2986 1.0738 0.0589
H2 H 0.1678 0.9920 0.1251
H3 H 0.3180 0.9182 0.0269
C2 C 0.4107(3) 0.9018(3) 0.1996(2)
H4 H 0.5313 0.8907 0.1673
H5 H 0.3806 0.9635 0.2657
C3 C 0.4952(3) 0.6431(3) 0.1927(2)
C4 C 0.4847(3) 0.4956(2) 0.2579(2)
C5 C 0.5800(4) 0.3738(3) 0.1981(3)
H6 H 0.6441 0.3875 0.1213
C6 C 0.5800(5) 0.2331(3) 0.2517(3)
H7 H 0.6447 0.1520 0.2114
C7 C 0.4838(4) 0.2121(3) 0.3657(3)
H8 H 0.4845 0.1168 0.4019
C8 C 0.3857(3) 0.3331(2) 0.4264(2)
C9 C 0.3871(3) 0.4750(2) 0.3722(2)
H9 H 0.3228 0.5562 0.4123
C10 C 0.0821(3) 0.3860(2) 0.7223(2)
C11 C -0.0959(3) 0.4463(3) 0.8921(2)
H10 H -0.1682 0.5100 0.9464
C12 C -0.0661(3) 0.2984(3) 0.9150(3)
H11 H -0.1130 0.2487 0.9855
C13 C 0.2834(3) 0.2962(2) 0.5476(2)
N1 N 0.4019(2) 0.75527(17) 0.25536(15)
H12 H 0.3399 0.7416 0.3249
N2 N 0.1789(2) 0.4099(2) 0.60964(18)
N3 N -0.0118(3) 0.4960(2) 0.78276(19)
O1 O 0.5812(3) 0.6591(2) 0.09519(18)
O2 O 0.2932(2) 0.16761(17) 0.59036(17)
S1 S 0.07116(9) 0.21465(6) 0.79506(6)
H13 H 0.171(4) 0.503(3) 0.575(3)
C14 C 0.0107(4) 0.8144(3) 0.6074(3)
C15 C -0.0329(5) 0.9792(3) 0.5634(3)
H14 H -0.1610 1.0272 0.5678
H15 H 0.0148 1.0175 0.6224
O3 O 0.0991(3) 0.72168(17) 0.54209(17)
O4 O -0.0583(3) 0.7817(2) 0.7205(2)
H16 H -0.025(6) 0.678(5) 0.746(4)
C14A C -0.0107(4) 1.1856(3) 0.3926(3)
C15A C 0.0329(5) 1.0208(3) 0.4366(3)
H14A H 0.1610 0.9728 0.4322
H15A H -0.0148 0.9825 0.3776
O3A O -0.0991(3) 1.27832(17) 0.45791(17)
O4A O 0.0583(3) 1.2183(2) 0.2795(2)
H16A H 0.025(6) 1.322(5) 0.254(4)
loop_
_geom_bond_atom_site_label_1
_geom_bond_atom_site_label_2
_geom_bond_site_symmetry_1
_geom_bond_site_symmetry_2
C1 H1 1_555 1_555
H2 C1 1_555 1_555
H3 C1 1_555 1_555
C2 C1 1_555 1_555
H4 C2 1_555 1_555
H5 C2 1_555 1_555
C3 C4 1_555 1_555
C4 C5 1_555 1_555
C5 H6 1_555 1_555
C6 C5 1_555 1_555
H7 C6 1_555 1_555
C7 C6 1_555 1_555
H8 C7 1_555 1_555
C8 C7 1_555 1_555
C9 C4 1_555 1_555
H9 C9 1_555 1_555
C10 N2 1_555 1_555
C11 H10 1_555 1_555
C12 C11 1_555 1_555
H11 C12 1_555 1_555
C13 C8 1_555 1_555
N1 C2 1_555 1_555
H12 N1 1_555 1_555
N2 C13 1_555 1_555
N3 C10 1_555 1_555
O1 C3 1_555 1_555
O2 C13 1_555 1_555
S1 C10 1_555 1_555
H13 N2 1_555 1_555
C14 C15 1_555 1_555
C15 H14 1_555 1_555
H15 C15 1_555 1_555
O3 C14 1_555 1_555
O4 C14 1_555 1_555
H16 O4 1_555 1_555
C14A C15A 1_555 1_555
C15A C15 1_555 1_555
H14A C15A 1_555 1_555
H15A C15A 1_555 1_555
O3A C14A 1_555 1_555
O4A C14A 1_555 1_555
H16A O4A 1_555 1_555
C3 N1 1_555 1_555
C8 C9 1_555 1_555
C11 N3 1_555 1_555
C12 S1 1_555 1_555

#END
