
#######################################################################
#
#                 Cambridge Crystallographic Data Centre
#                                CCDC 
#
#######################################################################
#
# If this CIF has been generated from an entry in the Cambridge 
# Structural Database, then it will include bibliographic, chemical, 
# crystal, experimental, refinement or atomic coordinate data resulting 
# from the CCDC's data processing and validation procedures.
#
#######################################################################

data_ROTCAG01
_chemical_formula_moiety         'C31 H30 N6 O3'
_chemical_name_systematic        
4,4'-((2-hydroxy-5-methyl-1,3-phenylene)bis(methylylideneazanylylidene))bis(1,5-dimethyl-2-phenyl-1,2-dihydro-3H-pyrazol-3-one)
_symmetry_cell_setting           monoclinic
_symmetry_space_group_name_H-M   'P 21/c'
_symmetry_Int_Tables_number      14
_space_group_name_Hall           '-P 2ybc'
loop_
_symmetry_equiv_pos_site_id
_symmetry_equiv_pos_as_xyz
1 x,y,z
2 -x,1/2+y,1/2-z
3 -x,-y,-z
4 x,1/2-y,1/2+z
_cell_length_a                   7.6668(4)
_cell_length_b                   25.7408(11)
_cell_length_c                   14.5202(6)
_cell_angle_alpha                90
_cell_angle_beta                 96.378(3)
_cell_angle_gamma                90
_cell_volume                     2847.82
_cell_formula_units_Z            4
loop_
_atom_site_label
_atom_site_type_symbol
_atom_site_fract_x
_atom_site_fract_y
_atom_site_fract_z
O1 O 0.7820(4) 0.99769(11) 0.2926(3)
H1 H 0.6912 0.9825 0.3012
N1 N 1.4686(8) 1.1433(2) 0.3906(4)
O2 O 1.2000(5) 1.10562(12) 0.4155(3)
O3 O 0.3035(4) 0.83811(14) 0.1702(3)
N2 N 0.1605(8) 0.8854(2) 0.3725(4)
N3 N 1.5712(6) 1.14550(19) 0.3161(5)
N4 N 0.1400(7) 0.8536(2) 0.2929(4)
N5 N 0.5233(9) 0.93067(15) 0.2608(4)
N6 N 1.2503(9) 1.0529(2) 0.2247(3)
C1 C 1.4718(6) 1.1845(3) 0.4554(6)
C2 C 0.8496(12) 0.9764(3) 0.2179(4)
C3 C 1.3490(10) 1.0888(3) 0.2798(6)
C4 C 0.2948(10) 0.9190(2) 0.3615(5)
C5 C 0.7586(10) 0.9369(3) 0.1652(6)
C6 C 1.4995(12) 1.1092(3) 0.2531(4)
C7 C 0.3716(10) 0.9069(3) 0.2836(6)
C8 C 1.3215(9) 1.1111(2) 0.3685(5)
C9 C 1.4257(5) 1.1746(2) 0.5434(7)
H2 H 1.3954 1.1411 0.5594
C10 C 1.0111(11) 0.9942(2) 0.1942(5)
C11 C 0.9944(12) 0.9328(3) 0.0654(4)
C12 C 1.1092(11) 1.0341(3) 0.2498(3)
H3 H 1.0684 1.0458 0.3041
C13 C 0.2759(10) 0.8636(3) 0.2380(5)
C14 C 1.0798(6) 0.9717(3) 0.1184(6)
H4 H 1.1876 0.9834 0.1030
C15 C 0.8344(12) 0.91678(19) 0.0902(6)
H5 H 0.7739 0.8910 0.0549
C16 C 0.5959(11) 0.91626(19) 0.1885(5)
H6 H 0.5394 0.8912 0.1497
C17 C 0.0593(8) 0.8038(3) 0.2962(7)
C18 C 1.5171(6) 1.2342(4) 0.4323(4)
H7 H 1.5467 1.2411 0.3731
C19 C 1.4246(6) 1.2140(4) 0.6071(4)
H8 H 1.3921 1.2074 0.6658
C20 C 1.5188(7) 1.2735(3) 0.4964(8)
H9 H 1.5514 1.3070 0.4810
C21 C 0.0782(6) 0.7759(4) 0.3765(5)
H10 H 0.1417 0.7895 0.4293
C22 C 0.3427(6) 0.96086(18) 0.4314(3)
H11 H 0.4431 0.9795 0.4149
H12 H 0.3699 0.9455 0.4915
H13 H 0.2457 0.9844 0.4325
C23 C 0.0030(6) 0.89756(17) 0.4157(3)
H14 H 0.0342 0.9178 0.4706
H15 H -0.0524 0.8659 0.4318
H16 H -0.0765 0.9170 0.3731
C24 C 1.0776(6) 0.90882(19) -0.0127(3)
H17 H 1.1563 0.9333 -0.0359
H18 H 0.9882 0.8993 -0.0613
H19 H 1.1418 0.8784 0.0092
C25 C 1.5890(6) 1.09707(18) 0.1694(4)
H20 H 1.6953 1.0782 0.1877
H21 H 1.6165 1.1288 0.1395
H22 H 1.5128 1.0764 0.1272
C26 C 1.4720(7) 1.2634(4) 0.5835(7)
H23 H 1.4724 1.2902 0.6266
C27 C -0.0313(10) 0.7835(4) 0.2171(5)
H24 H -0.0436 0.8026 0.1625
C28 C 0.0028(11) 0.7271(4) 0.3793(6)
H25 H 0.0121 0.7083 0.4343
C29 C -0.1038(8) 0.7342(5) 0.2196(7)
H26 H -0.1646 0.7199 0.1667
C30 C -0.0846(9) 0.7070(3) 0.3012(10)
H27 H -0.1328 0.6739 0.3030
C31 C 1.7606(7) 1.1492(2) 0.3426(4)
H28 H 1.8037 1.1166 0.3679
H29 H 1.7842 1.1760 0.3882
H30 H 1.8181 1.1574 0.2890
loop_
_geom_bond_atom_site_label_1
_geom_bond_atom_site_label_2
_geom_bond_site_symmetry_1
_geom_bond_site_symmetry_2
O1 H1 1_555 1_555
N1 N3 1_555 1_555
O2 C8 1_555 1_555
O3 C13 1_555 1_555
N2 N4 1_555 1_555
N3 C6 1_555 1_555
N4 C13 1_555 1_555
N5 C7 1_555 1_555
N6 C3 1_555 1_555
C1 N1 1_555 1_555
C2 O1 1_555 1_555
C3 C6 1_555 1_555
C4 N2 1_555 1_555
C5 C2 1_555 1_555
C6 C25 1_555 1_555
C7 C4 1_555 1_555
C8 N1 1_555 1_555
C9 C1 1_555 1_555
H2 C9 1_555 1_555
C10 C2 1_555 1_555
C11 C14 1_555 1_555
C12 N6 1_555 1_555
H3 C12 1_555 1_555
C13 C7 1_555 1_555
C14 C10 1_555 1_555
H4 C14 1_555 1_555
C15 C5 1_555 1_555
H5 C15 1_555 1_555
C16 N5 1_555 1_555
H6 C16 1_555 1_555
C17 N4 1_555 1_555
C18 C1 1_555 1_555
H7 C18 1_555 1_555
C19 C9 1_555 1_555
H8 C19 1_555 1_555
C20 C18 1_555 1_555
H9 C20 1_555 1_555
C21 C17 1_555 1_555
H10 C21 1_555 1_555
C22 C4 1_555 1_555
H11 C22 1_555 1_555
H12 C22 1_555 1_555
H13 C22 1_555 1_555
C23 N2 1_555 1_555
H14 C23 1_555 1_555
H15 C23 1_555 1_555
H16 C23 1_555 1_555
C24 C11 1_555 1_555
H17 C24 1_555 1_555
H18 C24 1_555 1_555
H19 C24 1_555 1_555
C25 H20 1_555 1_555
H21 C25 1_555 1_555
H22 C25 1_555 1_555
C26 C19 1_555 1_555
H23 C26 1_555 1_555
C27 C17 1_555 1_555
H24 C27 1_555 1_555
C28 C21 1_555 1_555
H25 C28 1_555 1_555
C29 C27 1_555 1_555
H26 C29 1_555 1_555
C30 C28 1_555 1_555
H27 C30 1_555 1_555
C31 N3 1_555 1_555
H28 C31 1_555 1_555
H29 C31 1_555 1_555
H30 C31 1_555 1_555
C3 C8 1_555 1_555
C5 C16 1_555 1_555
C10 C12 1_555 1_555
C11 C15 1_555 1_555
C20 C26 1_555 1_555
C29 C30 1_555 1_555

#END
