
#######################################################################
#
#                 Cambridge Crystallographic Data Centre
#                                CCDC 
#
#######################################################################
#
# If this CIF has been generated from an entry in the Cambridge 
# Structural Database, then it will include bibliographic, chemical, 
# crystal, experimental, refinement or atomic coordinate data resulting 
# from the CCDC's data processing and validation procedures.
#
#######################################################################

data_ROTHOZ
_chemical_formula_moiety         'C18 H16 O4 S4'
_chemical_name_systematic        
2-(5,6-Dimethoxy-1,3-benzodithiol-2-ylidene)-5,6-dimethoxy-1,3-benzodithiole
_symmetry_cell_setting           monoclinic
_symmetry_space_group_name_H-M   'P 21/c'
_symmetry_Int_Tables_number      14
_space_group_name_Hall           '-P 2ybc'
loop_
_symmetry_equiv_pos_site_id
_symmetry_equiv_pos_as_xyz
1 x,y,z
2 -x,1/2+y,1/2-z
3 -x,-y,-z
4 x,1/2-y,1/2+z
_cell_length_a                   13.0360(4)
_cell_length_b                   8.4340(2)
_cell_length_c                   8.7959(2)
_cell_angle_alpha                90
_cell_angle_beta                 106.642(3)
_cell_angle_gamma                90
_cell_volume                     926.563
_exptl_crystal_colour            yellow
_exptl_crystal_description       plate
_cell_formula_units_Z            2
loop_
_atom_site_label
_atom_site_type_symbol
_atom_site_fract_x
_atom_site_fract_y
_atom_site_fract_z
C1 C 0.96452(17) 0.4924(2) 0.5415(2)
S1 S 0.97971(4) 0.59071(7) 0.72370(6)
C2 C 0.86048(16) 0.5154(2) 0.7525(2)
C3 C 0.80032(17) 0.4149(2) 0.6365(2)
S2 S 0.85067(4) 0.37152(7) 0.47613(6)
C4 C 0.70333(16) 0.3539(2) 0.6471(2)
H1 H 0.6621 0.2856 0.5668
C5 C 0.66775(16) 0.3935(2) 0.7754(2)
C6 C 0.72879(17) 0.4966(2) 0.8940(2)
C7 C 0.82470(17) 0.5577(2) 0.8819(2)
H2 H 0.8657 0.6276 0.9608
O1 O 0.57578(12) 0.33746(17) 0.80101(17)
C8 C 0.5152(2) 0.2267(3) 0.6876(3)
H3 H 0.4895 0.2783 0.5838
H4 H 0.4539 0.1896 0.7214
H5 H 0.5606 0.1362 0.68
O2 O 0.68525(12) 0.52658(17) 1.01467(16)
C9 C 0.73598(19) 0.6458(3) 1.1261(2)
H6 H 0.8101 0.6145 1.1784
H7 H 0.6972 0.658 1.2059
H8 H 0.7354 0.7467 1.0706
C1B C 1.03548(17) 0.5076(2) 0.4585(2)
S1B S 1.02029(4) 0.40929(7) 0.27630(6)
C2B C 1.13952(16) 0.4846(2) 0.2475(2)
C3B C 1.19968(17) 0.5851(2) 0.3635(2)
S2B S 1.14933(4) 0.62848(7) 0.52387(6)
C4B C 1.29667(16) 0.6461(2) 0.3529(2)
H1B H 1.3379 0.7144 0.4332
C5B C 1.33225(16) 0.6065(2) 0.2246(2)
C6B C 1.27121(17) 0.5034(2) 0.1060(2)
C7B C 1.17530(17) 0.4423(2) 0.1181(2)
H2B H 1.1343 0.3724 0.0392
O1B O 1.42422(12) 0.66254(17) 0.19899(17)
C8B C 1.4848(2) 0.7733(3) 0.3124(3)
H3B H 1.5105 0.7217 0.4162
H4B H 1.5461 0.8104 0.2786
H5B H 1.4394 0.8638 0.32
O2B O 1.31475(12) 0.47342(17) -0.01467(16)
C9B C 1.26402(19) 0.3542(3) -0.1261(2)
H6B H 1.1899 0.3855 -0.1784
H7B H 1.3028 0.342 -0.2059
H8B H 1.2646 0.2533 -0.0706
loop_
_geom_bond_atom_site_label_1
_geom_bond_atom_site_label_2
_geom_bond_site_symmetry_1
_geom_bond_site_symmetry_2
C1 S1 1_555 1_555
S1 C2 1_555 1_555
C2 C3 1_555 1_555
C3 S2 1_555 1_555
S2 C1 1_555 1_555
C4 C3 1_555 1_555
H1 C4 1_555 1_555
C5 C4 1_555 1_555
C6 C5 1_555 1_555
C7 C2 1_555 1_555
H2 C7 1_555 1_555
O1 C5 1_555 1_555
C8 O1 1_555 1_555
H3 C8 1_555 1_555
H4 C8 1_555 1_555
H5 C8 1_555 1_555
O2 C6 1_555 1_555
C9 O2 1_555 1_555
H6 C9 1_555 1_555
H7 C9 1_555 1_555
H8 C9 1_555 1_555
C1B C1 1_555 1_555
S1B C1B 1_555 1_555
C2B S1B 1_555 1_555
C3B C2B 1_555 1_555
S2B C1B 1_555 1_555
C4B C3B 1_555 1_555
H1B C4B 1_555 1_555
C5B C4B 1_555 1_555
C6B C5B 1_555 1_555
C7B C2B 1_555 1_555
H2B C7B 1_555 1_555
O1B C5B 1_555 1_555
C8B O1B 1_555 1_555
H3B C8B 1_555 1_555
H4B C8B 1_555 1_555
H5B C8B 1_555 1_555
O2B C6B 1_555 1_555
C9B O2B 1_555 1_555
H6B C9B 1_555 1_555
H7B C9B 1_555 1_555
H8B C9B 1_555 1_555
C6 C7 1_555 1_555
C3B S2B 1_555 1_555
C6B C7B 1_555 1_555

#END
