
#######################################################################
#
#                 Cambridge Crystallographic Data Centre
#                                CCDC 
#
#######################################################################
#
# If this CIF has been generated from an entry in the Cambridge 
# Structural Database, then it will include bibliographic, chemical, 
# crystal, experimental, refinement or atomic coordinate data resulting 
# from the CCDC's data processing and validation procedures.
#
#######################################################################

data_ROTWEE
_chemical_formula_moiety         'C33 H24 O1'
_chemical_name_systematic        Phenyl(4-(triphenylvinyl)phenyl)methanone
_symmetry_cell_setting           monoclinic
_symmetry_space_group_name_H-M   'P 21/c'
_symmetry_Int_Tables_number      14
_space_group_name_Hall           '-P 2ybc'
loop_
_symmetry_equiv_pos_site_id
_symmetry_equiv_pos_as_xyz
1 x,y,z
2 -x,1/2+y,1/2-z
3 -x,-y,-z
4 x,1/2-y,1/2+z
_cell_length_a                   9.348(3)
_cell_length_b                   23.740(7)
_cell_length_c                   11.388(4)
_cell_angle_alpha                90
_cell_angle_beta                 104.510(6)
_cell_angle_gamma                90
_cell_volume                     2446.63
_exptl_crystal_description       block
_cell_formula_units_Z            4
loop_
_atom_site_label
_atom_site_type_symbol
_atom_site_fract_x
_atom_site_fract_y
_atom_site_fract_z
O1 O -0.2115(3) 0.96850(8) 0.57393(18)
C1 C 0.1845(2) 0.63454(9) 0.72402(18)
H1 H 0.1061 0.6534 0.7431
C2 C 0.2273(2) 0.58265(10) 0.7750(2)
H2 H 0.1776 0.5669 0.8283
C3 C 0.3410(3) 0.55446(10) 0.7481(2)
H3 H 0.3680 0.5191 0.7816
C4 C 0.4154(2) 0.57792(10) 0.6720(2)
H4 H 0.4942 0.5588 0.6541
C5 C 0.3739(2) 0.63023(9) 0.6210(2)
H5 H 0.4260 0.6463 0.5698
C6 C 0.25649(18) 0.65879(7) 0.64529(16)
C7 C 0.21448(19) 0.71609(7) 0.59308(16)
C8 C 0.33939(19) 0.75648(8) 0.60305(17)
C9 C 0.4535(2) 0.75908(8) 0.70807(19)
H6 H 0.4494 0.7369 0.7745
C10 C 0.5732(2) 0.79436(9) 0.7146(2)
H7 H 0.6485 0.7960 0.7856
C11 C 0.5812(2) 0.82663(10) 0.6175(2)
H8 H 0.6620 0.8501 0.6219
C12 C 0.4702(3) 0.82432(10) 0.5138(2)
H9 H 0.4755 0.8463 0.4473
C13 C 0.3507(2) 0.78972(9) 0.50718(19)
H10 H 0.2756 0.7888 0.4360
C14 C 0.07238(19) 0.72877(7) 0.54085(16)
C15 C -0.04292(19) 0.68392(8) 0.50790(17)
C16 C -0.0278(2) 0.64057(9) 0.4312(2)
H11 H 0.0552 0.6396 0.4002
C17 C -0.1314(3) 0.59905(11) 0.3996(3)
H12 H -0.1192 0.5708 0.3463
C18 C -0.2492(4) 0.59876(14) 0.4444(3)
H13 H -0.3180 0.5698 0.4241
C19 C -0.2703(3) 0.64102(17) 0.5206(3)
H14 H -0.3530 0.6406 0.5520
C20 C -0.1663(2) 0.68500(11) 0.5512(2)
H15 H -0.1817 0.7145 0.6004
C21 C 0.01602(19) 0.78748(7) 0.51754(17)
C22 C 0.0565(2) 0.82861(8) 0.60632(18)
H16 H 0.1282 0.8205 0.6771
C23 C -0.0076(2) 0.88100(8) 0.59127(19)
H17 H 0.0197 0.9076 0.6527
C24 C -0.1122(2) 0.89472(8) 0.48625(18)
C25 C -0.1514(2) 0.85439(8) 0.39601(18)
H18 H -0.2196 0.8631 0.3237
C26 C -0.0897(2) 0.80133(7) 0.41298(17)
H19 H -0.1199 0.7743 0.3528
C27 C -0.1853(3) 0.95050(9) 0.4815(2)
C28 C -0.2259(2) 0.98442(8) 0.3689(2)
C29 C -0.1648(2) 0.97553(9) 0.2730(2)
H20 H -0.0989 0.9460 0.2752
C30 C -0.2015(3) 1.01068(11) 0.1724(2)
H21 H -0.1603 1.0049 0.1070
C31 C -0.2996(4) 1.05410(11) 0.1707(3)
H22 H -0.3250 1.0776 0.1033
C32 C -0.3593(3) 1.06315(11) 0.2652(3)
H23 H -0.4252 1.0927 0.2628
C33 C -0.3229(2) 1.02892(9) 0.3643(2)
H24 H -0.3637 1.0355 0.4296
loop_
_geom_bond_atom_site_label_1
_geom_bond_atom_site_label_2
_geom_bond_site_symmetry_1
_geom_bond_site_symmetry_2
O1 C27 1_555 1_555
C1 H1 1_555 1_555
C2 C1 1_555 1_555
H2 C2 1_555 1_555
C3 C2 1_555 1_555
H3 C3 1_555 1_555
C4 C3 1_555 1_555
H4 C4 1_555 1_555
C5 C4 1_555 1_555
H5 C5 1_555 1_555
C6 C1 1_555 1_555
C7 C6 1_555 1_555
C8 C7 1_555 1_555
C9 C8 1_555 1_555
H6 C9 1_555 1_555
C10 C9 1_555 1_555
H7 C10 1_555 1_555
C11 C10 1_555 1_555
H8 C11 1_555 1_555
C12 C11 1_555 1_555
H9 C12 1_555 1_555
C13 C8 1_555 1_555
H10 C13 1_555 1_555
C14 C7 1_555 1_555
C15 C14 1_555 1_555
C16 C15 1_555 1_555
H11 C16 1_555 1_555
C17 C16 1_555 1_555
H12 C17 1_555 1_555
C18 C17 1_555 1_555
H13 C18 1_555 1_555
C19 C18 1_555 1_555
H14 C19 1_555 1_555
C20 C15 1_555 1_555
H15 C20 1_555 1_555
C21 C14 1_555 1_555
C22 C21 1_555 1_555
H16 C22 1_555 1_555
C23 C22 1_555 1_555
H17 C23 1_555 1_555
C24 C23 1_555 1_555
C25 C24 1_555 1_555
H18 C25 1_555 1_555
C26 C21 1_555 1_555
H19 C26 1_555 1_555
C27 C24 1_555 1_555
C28 C27 1_555 1_555
C29 C28 1_555 1_555
H20 C29 1_555 1_555
C30 C29 1_555 1_555
H21 C30 1_555 1_555
C31 C30 1_555 1_555
H22 C31 1_555 1_555
C32 C31 1_555 1_555
H23 C32 1_555 1_555
C33 C28 1_555 1_555
H24 C33 1_555 1_555
C5 C6 1_555 1_555
C12 C13 1_555 1_555
C19 C20 1_555 1_555
C25 C26 1_555 1_555
C32 C33 1_555 1_555

#END
