
#######################################################################
#
#                 Cambridge Crystallographic Data Centre
#                                CCDC 
#
#######################################################################
#
# If this CIF has been generated from an entry in the Cambridge 
# Structural Database, then it will include bibliographic, chemical, 
# crystal, experimental, refinement or atomic coordinate data resulting 
# from the CCDC's data processing and validation procedures.
#
#######################################################################

data_ROTWII
_chemical_formula_moiety         'C66 H48'
_chemical_name_systematic        
1,1'-(1,2-Diphenylethene-1,2-diyl)bis(4-(triphenylvinyl)benzene)
_symmetry_cell_setting           monoclinic
_symmetry_space_group_name_H-M   'C 2/c'
_symmetry_Int_Tables_number      15
_space_group_name_Hall           '-C 2yn'
loop_
_symmetry_equiv_pos_site_id
_symmetry_equiv_pos_as_xyz
1 x,y,z
2 -x,y,1/2-z
3 1/2+x,1/2+y,z
4 1/2-x,1/2+y,1/2-z
5 -x,-y,-z
6 x,-y,1/2+z
7 1/2-x,1/2-y,-z
8 1/2+x,1/2-y,1/2+z
_cell_length_a                   42.75(2)
_cell_length_b                   5.584(3)
_cell_length_c                   24.009(13)
_cell_angle_alpha                90
_cell_angle_beta                 107.239(10)
_cell_angle_gamma                90
_cell_volume                     5473.86
_exptl_crystal_colour            'light green'
_exptl_crystal_description       rod
_cell_formula_units_Z            4
loop_
_atom_site_label
_atom_site_type_symbol
_atom_site_fract_x
_atom_site_fract_y
_atom_site_fract_z
C1 C 0.00919(7) 0.3626(7) 0.37446(16)
H1 H 0.0235 0.4848 0.3718
C2 C -0.00137(12) 0.3451(11) 0.42376(19)
H2 H 0.0053 0.4581 0.4534
C3 C -0.02156(13) 0.1624(14) 0.4287(2)
H3 H -0.0287 0.1518 0.4617
C4 C -0.03123(10) -0.0029(10) 0.3861(2)
H4 H -0.0445 -0.1301 0.3901
C5 C -0.02120(7) 0.0188(7) 0.33622(15)
H5 H -0.0283 -0.0935 0.3065
C6 C -0.00117(6) 0.2019(6) 0.32978(12)
C7 C 0.01042(5) 0.2224(4) 0.27706(9)
C8 C 0.04681(5) 0.2411(5) 0.29001(10)
C9 C 0.06747(6) 0.0928(5) 0.33093(11)
H6 H 0.0586 -0.0251 0.3491
C10 C 0.10110(6) 0.1174(5) 0.34517(11)
H7 H 0.1143 0.0174 0.3735
C11 C 0.11573(5) 0.2854(5) 0.31880(10)
C12 C 0.09509(6) 0.4353(4) 0.27829(10)
H8 H 0.1040 0.5528 0.2601
C13 C 0.06130(6) 0.4131(4) 0.26435(10)
H9 H 0.0481 0.5167 0.2370
C14 C 0.15231(5) 0.3122(4) 0.33663(11)
C15 C 0.16821(6) 0.3374(5) 0.40073(11)
C16 C 0.15805(7) 0.5132(6) 0.43159(14)
H10 H 0.1413 0.6164 0.4120
C17 C 0.17201(11) 0.5403(7) 0.49072(18)
H11 H 0.1653 0.6640 0.5105
C18 C 0.19571(11) 0.3851(9) 0.52024(16)
H12 H 0.2050 0.4011 0.5603
C19 C 0.20581(7) 0.2070(7) 0.49113(16)
H13 H 0.2219 0.1008 0.5114
C20 C 0.19231(6) 0.1825(5) 0.43164(13)
H14 H 0.1995 0.0603 0.4121
C21 C 0.16935(6) 0.3138(4) 0.29804(11)
C22 C 0.15414(6) 0.2591(5) 0.23480(12)
C23 C 0.13666(7) 0.0511(6) 0.21620(14)
H15 H 0.1339 -0.0582 0.2436
C24 C 0.12333(8) 0.0032(7) 0.1578(2)
H16 H 0.1115 -0.1374 0.1462
C25 C 0.12719(10) 0.1594(10) 0.11661(18)
H17 H 0.1179 0.1262 0.0772
C26 C 0.14496(9) 0.3668(9) 0.13377(16)
H18 H 0.1478 0.4742 0.1060
C27 C 0.15863(6) 0.4139(6) 0.19287(14)
H19 H 0.1710 0.5521 0.2044
C28 C 0.20550(6) 0.3672(5) 0.31499(10)
C29 C 0.22627(6) 0.2156(5) 0.29692(10)
H20 H 0.2177 0.0804 0.2751
C30 C 0.25947(7) 0.2619(7) 0.31081(14)
H21 H 0.2731 0.1576 0.2988
C31 C 0.27209(8) 0.4620(8) 0.34237(16)
H22 H 0.2944 0.4933 0.3519
C32 C 0.25200(10) 0.6162(6) 0.35998(13)
H23 H 0.2606 0.7522 0.3814
C33 C 0.21874(7) 0.5691(5) 0.34587(12)
H24 H 0.2052 0.6757 0.3575
C1A C -0.00919(7) 0.3626(7) 0.12554(16)
H1A H -0.0235 0.4848 0.1282
C2A C 0.00137(12) 0.3451(11) 0.07624(19)
H2A H -0.0053 0.4581 0.0466
C3A C 0.02156(13) 0.1624(14) 0.0713(2)
H3A H 0.0287 0.1518 0.0383
C4A C 0.03123(10) -0.0029(10) 0.1139(2)
H4A H 0.0445 -0.1301 0.1099
C5A C 0.02120(7) 0.0188(7) 0.16378(15)
H5A H 0.0283 -0.0935 0.1935
C6A C 0.00117(6) 0.2019(6) 0.17022(12)
C7A C -0.01042(5) 0.2224(4) 0.22294(9)
C8A C -0.04681(5) 0.2411(5) 0.20999(10)
C9A C -0.06747(6) 0.0928(5) 0.16907(11)
H6A H -0.0586 -0.0251 0.1509
C10A C -0.10110(6) 0.1174(5) 0.15483(11)
H7A H -0.1143 0.0174 0.1265
C11A C -0.11573(5) 0.2854(5) 0.18120(10)
C12A C -0.09509(6) 0.4353(4) 0.22171(10)
H8A H -0.1040 0.5528 0.2399
C13A C -0.06130(6) 0.4131(4) 0.23565(10)
H9A H -0.0481 0.5167 0.2630
C14A C -0.15231(5) 0.3122(4) 0.16337(11)
C15A C -0.16821(6) 0.3374(5) 0.09927(11)
C16A C -0.15805(7) 0.5132(6) 0.06841(14)
H10A H -0.1413 0.6164 0.0880
C17A C -0.17201(11) 0.5403(7) 0.00928(18)
H11A H -0.1653 0.6640 -0.0105
C18A C -0.19571(11) 0.3851(9) -0.02024(16)
H12A H -0.2050 0.4011 -0.0603
C19A C -0.20581(7) 0.2070(7) 0.00887(16)
H13A H -0.2219 0.1008 -0.0114
C20A C -0.19231(6) 0.1825(5) 0.06836(13)
H14A H -0.1995 0.0603 0.0879
C21A C -0.16935(6) 0.3138(4) 0.20196(11)
C22A C -0.15414(6) 0.2591(5) 0.26520(12)
C23A C -0.13666(7) 0.0511(6) 0.28380(14)
H15A H -0.1339 -0.0582 0.2564
C24A C -0.12333(8) 0.0032(7) 0.3422(2)
H16A H -0.1115 -0.1374 0.3538
C25A C -0.12719(10) 0.1594(10) 0.38339(18)
H17A H -0.1179 0.1262 0.4228
C26A C -0.14496(9) 0.3668(9) 0.36623(16)
H18A H -0.1478 0.4742 0.3940
C27A C -0.15863(6) 0.4139(6) 0.30713(14)
H19A H -0.1710 0.5521 0.2956
C28A C -0.20550(6) 0.3672(5) 0.18501(10)
C29A C -0.22627(6) 0.2156(5) 0.20308(10)
H20A H -0.2177 0.0804 0.2249
C30A C -0.25947(7) 0.2619(7) 0.18919(14)
H21A H -0.2731 0.1576 0.2012
C31A C -0.27209(8) 0.4620(8) 0.15763(16)
H22A H -0.2944 0.4933 0.1481
C32A C -0.25200(10) 0.6162(6) 0.14002(13)
H23A H -0.2606 0.7522 0.1186
C33A C -0.21874(7) 0.5691(5) 0.15413(12)
H24A H -0.2052 0.6757 0.1425
loop_
_geom_bond_atom_site_label_1
_geom_bond_atom_site_label_2
_geom_bond_site_symmetry_1
_geom_bond_site_symmetry_2
C1 H1 1_555 1_555
C2 C1 1_555 1_555
H2 C2 1_555 1_555
C3 C2 1_555 1_555
H3 C3 1_555 1_555
C4 C3 1_555 1_555
H4 C4 1_555 1_555
C5 C4 1_555 1_555
H5 C5 1_555 1_555
C6 C1 1_555 1_555
C7 C6 1_555 1_555
C8 C7 1_555 1_555
C9 C8 1_555 1_555
H6 C9 1_555 1_555
C10 C9 1_555 1_555
H7 C10 1_555 1_555
C11 C10 1_555 1_555
C12 C11 1_555 1_555
H8 C12 1_555 1_555
C13 C8 1_555 1_555
H9 C13 1_555 1_555
C14 C11 1_555 1_555
C15 C14 1_555 1_555
C16 C15 1_555 1_555
H10 C16 1_555 1_555
C17 C16 1_555 1_555
H11 C17 1_555 1_555
C18 C17 1_555 1_555
H12 C18 1_555 1_555
C19 C18 1_555 1_555
H13 C19 1_555 1_555
C20 C15 1_555 1_555
H14 C20 1_555 1_555
C21 C14 1_555 1_555
C22 C21 1_555 1_555
C23 C22 1_555 1_555
H15 C23 1_555 1_555
C24 C23 1_555 1_555
H16 C24 1_555 1_555
C25 C24 1_555 1_555
H17 C25 1_555 1_555
C26 C25 1_555 1_555
H18 C26 1_555 1_555
C27 C22 1_555 1_555
H19 C27 1_555 1_555
C28 C21 1_555 1_555
C29 C28 1_555 1_555
H20 C29 1_555 1_555
C30 C29 1_555 1_555
H21 C30 1_555 1_555
C31 C30 1_555 1_555
H22 C31 1_555 1_555
C32 C31 1_555 1_555
H23 C32 1_555 1_555
C33 C28 1_555 1_555
H24 C33 1_555 1_555
C1A H1A 1_555 1_555
C2A C1A 1_555 1_555
H2A C2A 1_555 1_555
C3A C2A 1_555 1_555
H3A C3A 1_555 1_555
C4A C3A 1_555 1_555
H4A C4A 1_555 1_555
C5A C4A 1_555 1_555
H5A C5A 1_555 1_555
C6A C1A 1_555 1_555
C7A C7 1_555 1_555
C8A C7A 1_555 1_555
C9A C8A 1_555 1_555
H6A C9A 1_555 1_555
C10A C9A 1_555 1_555
H7A C10A 1_555 1_555
C11A C10A 1_555 1_555
C12A C11A 1_555 1_555
H8A C12A 1_555 1_555
C13A C8A 1_555 1_555
H9A C13A 1_555 1_555
C14A C11A 1_555 1_555
C15A C14A 1_555 1_555
C16A C15A 1_555 1_555
H10A C16A 1_555 1_555
C17A C16A 1_555 1_555
H11A C17A 1_555 1_555
C18A C17A 1_555 1_555
H12A C18A 1_555 1_555
C19A C18A 1_555 1_555
H13A C19A 1_555 1_555
C20A C15A 1_555 1_555
H14A C20A 1_555 1_555
C21A C14A 1_555 1_555
C22A C21A 1_555 1_555
C23A C22A 1_555 1_555
H15A C23A 1_555 1_555
C24A C23A 1_555 1_555
H16A C24A 1_555 1_555
C25A C24A 1_555 1_555
H17A C25A 1_555 1_555
C26A C25A 1_555 1_555
H18A C26A 1_555 1_555
C27A C22A 1_555 1_555
H19A C27A 1_555 1_555
C28A C21A 1_555 1_555
C29A C28A 1_555 1_555
H20A C29A 1_555 1_555
C30A C29A 1_555 1_555
H21A C30A 1_555 1_555
C31A C30A 1_555 1_555
H22A C31A 1_555 1_555
C32A C31A 1_555 1_555
H23A C32A 1_555 1_555
C33A C28A 1_555 1_555
H24A C33A 1_555 1_555
C5 C6 1_555 1_555
C12 C13 1_555 1_555
C19 C20 1_555 1_555
C26 C27 1_555 1_555
C32 C33 1_555 1_555
C5A C6A 1_555 1_555
C6A C7A 1_555 1_555
C12A C13A 1_555 1_555
C19A C20A 1_555 1_555
C26A C27A 1_555 1_555
C32A C33A 1_555 1_555

#END
