
#######################################################################
#
#                 Cambridge Crystallographic Data Centre
#                                CCDC 
#
#######################################################################
#
# If this CIF has been generated from an entry in the Cambridge 
# Structural Database, then it will include bibliographic, chemical, 
# crystal, experimental, refinement or atomic coordinate data resulting 
# from the CCDC's data processing and validation procedures.
#
#######################################################################

data_ROTZOR
_chemical_formula_moiety         'C16 H11 Cl3 N2'
_chemical_name_systematic        
2-(4-chlorophenyl)-4-(dichloromethyl)-3H-1,5-benzodiazepine
_symmetry_cell_setting           triclinic
_symmetry_space_group_name_H-M   'P -1'
_symmetry_Int_Tables_number      2
_space_group_name_Hall           '-P 1'
loop_
_symmetry_equiv_pos_site_id
_symmetry_equiv_pos_as_xyz
1 x,y,z
2 -x,-y,-z
_cell_length_a                   5.765(2)
_cell_length_b                   10.186(4)
_cell_length_c                   14.062(5)
_cell_angle_alpha                70.612(5)
_cell_angle_beta                 89.333(5)
_cell_angle_gamma                81.074(5)
_cell_volume                     768.789
_exptl_crystal_colour            colorless
_exptl_crystal_description       needle
_cell_formula_units_Z            2
loop_
_atom_site_label
_atom_site_type_symbol
_atom_site_fract_x
_atom_site_fract_y
_atom_site_fract_z
Cl1 Cl 1.0352(2) 0.27698(16) 1.07863(9)
Cl2 Cl 0.60313(19) 0.29645(17) 0.97139(10)
Cl3 Cl 0.0189(3) 0.83010(15) 0.60361(11)
N1 N 1.1325(6) 0.1280(3) 0.8833(2)
C1 C 0.8940(7) 0.4027(4) 0.7355(3)
C2 C 1.0304(6) 0.2390(4) 0.8992(3)
C3 C 1.0374(7) 0.3848(4) 0.8292(3)
H1 H 1.1981 0.3975 0.8127
H2 H 0.9713 0.4536 0.8601
N2 N 0.9589(6) 0.3322(4) 0.6767(3)
C4 C 1.1651(7) 0.2320(4) 0.6984(3)
C5 C 1.4577(8) 0.0429(5) 0.8027(4)
H3 H 1.5113 -0.0198 0.8661
C6 C 1.5817(9) 0.0394(5) 0.7202(4)
H4 H 1.7242 -0.0208 0.7277
C7 C 1.4941(10) 0.1263(5) 0.6248(4)
H5 H 1.5754 0.1220 0.5681
C8 C 1.2876(9) 0.2184(5) 0.6140(4)
H6 H 1.2271 0.2731 0.5495
C9 C 1.2509(7) 0.1394(4) 0.7933(3)
C10 C 0.8965(6) 0.2125(4) 0.9952(3)
H7 H 0.9000 0.1107 1.0271
C11 C 0.6717(7) 0.5058(4) 0.7075(3)
C12 C 0.2678(8) 0.7029(4) 0.6448(3)
C13 C 0.5241(8) 0.5038(4) 0.6320(3)
H8 H 0.5616 0.4352 0.6017
C14 C 0.4055(8) 0.7054(5) 0.7223(4)
H9 H 0.3647 0.7727 0.7536
C15 C 0.3214(8) 0.6013(5) 0.6002(3)
H10 H 0.2228 0.5982 0.5493
C16 C 0.6062(8) 0.6066(5) 0.7534(4)
H11 H 0.7000 0.6075 0.8065
loop_
_geom_bond_atom_site_label_1
_geom_bond_atom_site_label_2
_geom_bond_site_symmetry_1
_geom_bond_site_symmetry_2
Cl1 C10 1_555 1_555
Cl2 C10 1_555 1_555
Cl3 C12 1_555 1_555
N1 C2 1_555 1_555
C1 C3 1_555 1_555
C2 C3 1_555 1_555
C3 H1 1_555 1_555
H2 C3 1_555 1_555
N2 C1 1_555 1_555
C4 N2 1_555 1_555
C5 H3 1_555 1_555
C6 C5 1_555 1_555
H4 C6 1_555 1_555
C7 C6 1_555 1_555
H5 C7 1_555 1_555
C8 C4 1_555 1_555
H6 C8 1_555 1_555
C9 N1 1_555 1_555
C10 C2 1_555 1_555
H7 C10 1_555 1_555
C11 C1 1_555 1_555
C12 C14 1_555 1_555
C13 C11 1_555 1_555
H8 C13 1_555 1_555
C14 H9 1_555 1_555
C15 C12 1_555 1_555
H10 C15 1_555 1_555
C16 C11 1_555 1_555
H11 C16 1_555 1_555
C4 C9 1_555 1_555
C5 C9 1_555 1_555
C7 C8 1_555 1_555
C13 C15 1_555 1_555
C14 C16 1_555 1_555

#END
