
#######################################################################
#
#                 Cambridge Crystallographic Data Centre
#                                CCDC 
#
#######################################################################
#
# If this CIF has been generated from an entry in the Cambridge 
# Structural Database, then it will include bibliographic, chemical, 
# crystal, experimental, refinement or atomic coordinate data resulting 
# from the CCDC's data processing and validation procedures.
#
#######################################################################

data_ROVXUX
_chemical_formula_moiety         'C19 H20 N8 S2,C1 H1 Cl3'
_chemical_name_systematic        
"2,2'-(Pentane-3,3-diylbis(1H-pyrrole-5,2-diyldiazene-2,1-diyl))bis(1,3-thiazole) chloroform solvate"
_symmetry_cell_setting           orthorhombic
_symmetry_space_group_name_H-M   'A b a 2'
_symmetry_Int_Tables_number      41
_space_group_name_Hall           'A 2 -2ab'
loop_
_symmetry_equiv_pos_site_id
_symmetry_equiv_pos_as_xyz
1 x,y,z
2 -x,-y,z
3 1/2+x,1/2-y,z
4 1/2-x,1/2+y,z
5 x,1/2+y,1/2+z
6 -x,1/2-y,1/2+z
7 1/2+x,-y,1/2+z
8 1/2-x,y,1/2+z
_cell_length_a                   16.2587(18)
_cell_length_b                   16.0556(17)
_cell_length_c                   19.963(2)
_cell_angle_alpha                90
_cell_angle_beta                 90
_cell_angle_gamma                90
_cell_volume                     5211.21
_exptl_crystal_colour            red
_exptl_crystal_description       block
_cell_formula_units_Z            8
loop_
_atom_site_label
_atom_site_type_symbol
_atom_site_fract_x
_atom_site_fract_y
_atom_site_fract_z
S1 S 1.24566(10) 0.55375(9) 1.14850(9)
S2 S 0.92010(9) 0.26608(9) 0.71814(8)
N1 N 0.9851(2) 0.6118(2) 1.00259(17)
H1 H 0.9631 0.5679 1.0195
N2 N 1.1209(2) 0.6045(2) 1.05840(18)
N3 N 1.1002(2) 0.5317(2) 1.08122(18)
N4 N 1.1529(3) 0.4254(3) 1.1484(3)
N5 N 0.8915(2) 0.52693(19) 0.87120(16)
H2 H 0.9369 0.5459 0.8552
N6 N 0.8872(3) 0.3916(2) 0.81427(18)
N7 N 0.9605(3) 0.4041(2) 0.79387(18)
N8 N 1.0583(3) 0.3401(3) 0.7243(2)
C1 C 0.8603(3) 0.6565(3) 0.9372(2)
C2 C 0.8458(4) 0.7152(3) 0.8777(2)
H3 H 0.8851 0.7024 0.8426
H4 H 0.8553 0.7722 0.8920
C3 C 0.7584(4) 0.7077(4) 0.8495(3)
H5 H 0.7402 0.6510 0.8529
H6 H 0.7582 0.7246 0.8034
H7 H 0.7220 0.7429 0.8747
C4 C 0.8039(3) 0.6756(3) 0.9977(2)
H8 H 0.7470 0.6706 0.9836
H9 H 0.8135 0.6342 1.0322
C5 C 0.8172(3) 0.7620(3) 1.0274(3)
H10 H 0.8740 0.7773 1.0231
H11 H 0.8022 0.7616 1.0740
H12 H 0.7837 0.8017 1.0040
C6 C 0.9486(3) 0.6646(3) 0.9586(2)
C7 C 1.0058(4) 0.7251(3) 0.9433(3)
H13 H 0.9978 0.7687 0.9134
C8 C 1.0756(3) 0.7108(3) 0.9790(3)
H14 H 1.1230 0.7433 0.9783
C9 C 1.0637(3) 0.6405(3) 1.0157(2)
C10 C 1.1586(3) 0.5005(3) 1.1234(2)
C11 C 1.2198(4) 0.4096(4) 1.1893(3)
H15 H 1.2269 0.3589 1.2111
C12 C 1.2716(4) 0.4696(4) 1.1952(3)
H16 H 1.3182 0.4671 1.2221
C13 C 0.8437(3) 0.5672(3) 0.9150(2)
C14 C 0.7753(3) 0.5155(3) 0.9305(2)
H17 H 0.7332 0.5263 0.9607
C15 C 0.7852(3) 0.4441(3) 0.8900(3)
H18 H 0.7483 0.3999 0.8875
C16 C 0.8572(3) 0.4497(3) 0.8552(2)
C17 C 0.9841(3) 0.3426(3) 0.7464(2)
C18 C 1.0663(4) 0.2764(4) 0.6826(4)
H19 H 1.1162 0.2635 0.6624
C19 C 0.9987(5) 0.2320(4) 0.6716(3)
H20 H 0.9954 0.1876 0.6418
loop_
_geom_bond_atom_site_label_1
_geom_bond_atom_site_label_2
_geom_bond_site_symmetry_1
_geom_bond_site_symmetry_2
S1 C10 1_555 1_555
S2 C17 1_555 1_555
N1 H1 1_555 1_555
N2 N3 1_555 1_555
N3 C10 1_555 1_555
N4 C10 1_555 1_555
N5 H2 1_555 1_555
N6 N7 1_555 1_555
N7 C17 1_555 1_555
N8 C17 1_555 1_555
C1 C2 1_555 1_555
C2 H3 1_555 1_555
H4 C2 1_555 1_555
C3 C2 1_555 1_555
H5 C3 1_555 1_555
H6 C3 1_555 1_555
H7 C3 1_555 1_555
C4 C1 1_555 1_555
H8 C4 1_555 1_555
H9 C4 1_555 1_555
C5 C4 1_555 1_555
H10 C5 1_555 1_555
H11 C5 1_555 1_555
H12 C5 1_555 1_555
C6 N1 1_555 1_555
C7 C6 1_555 1_555
H13 C7 1_555 1_555
C8 C7 1_555 1_555
H14 C8 1_555 1_555
C9 N1 1_555 1_555
C11 N4 1_555 1_555
H15 C11 1_555 1_555
C12 S1 1_555 1_555
H16 C12 1_555 1_555
C13 N5 1_555 1_555
C14 C13 1_555 1_555
H17 C14 1_555 1_555
C15 C14 1_555 1_555
H18 C15 1_555 1_555
C16 N5 1_555 1_555
C18 N8 1_555 1_555
H19 C18 1_555 1_555
C19 S2 1_555 1_555
H20 C19 1_555 1_555
N2 C9 1_555 1_555
N6 C16 1_555 1_555
C1 C6 1_555 1_555
C1 C13 1_555 1_555
C8 C9 1_555 1_555
C11 C12 1_555 1_555
C15 C16 1_555 1_555
C18 C19 1_555 1_555

#END
