
#######################################################################
#
#                 Cambridge Crystallographic Data Centre
#                                CCDC 
#
#######################################################################
#
# If this CIF has been generated from an entry in the Cambridge 
# Structural Database, then it will include bibliographic, chemical, 
# crystal, experimental, refinement or atomic coordinate data resulting 
# from the CCDC's data processing and validation procedures.
#
#######################################################################

data_ROWDIS
_chemical_formula_moiety         'C14 H10 O2'
_chemical_name_systematic        Dibenzo[c,e]oxepin-5(7H)-one
_symmetry_cell_setting           monoclinic
_symmetry_space_group_name_H-M   'P 21/c'
_symmetry_Int_Tables_number      14
_space_group_name_Hall           '-P 2ybc'
loop_
_symmetry_equiv_pos_site_id
_symmetry_equiv_pos_as_xyz
1 x,y,z
2 -x,1/2+y,1/2-z
3 -x,-y,-z
4 x,1/2-y,1/2+z
_cell_length_a                   6.5586(6)
_cell_length_b                   12.3832(13)
_cell_length_c                   12.8622(14)
_cell_angle_alpha                90
_cell_angle_beta                 98.875(9)
_cell_angle_gamma                90
_cell_volume                     1032.12
_cell_formula_units_Z            4
loop_
_atom_site_label
_atom_site_type_symbol
_atom_site_fract_x
_atom_site_fract_y
_atom_site_fract_z
C1 C 0.0651(2) 0.57271(13) 0.10863(11)
C2 C 0.0554(2) 0.50209(13) 0.20191(11)
C3 C -0.1031(2) 0.42523(14) 0.18929(12)
H1 H -0.1887 0.4180 0.1230
C4 C -0.1363(2) 0.35987(14) 0.27201(13)
H2 H -0.2423 0.3069 0.2623
C5 C -0.0146(2) 0.37210(14) 0.36888(14)
H3 H -0.0371 0.3275 0.4261
C6 C 0.1395(2) 0.44877(14) 0.38296(12)
H4 H 0.2199 0.4571 0.4505
C7 C 0.1807(2) 0.51460(13) 0.30044(12)
C8 C 0.3527(2) 0.59353(13) 0.32075(11)
C9 C 0.3921(2) 0.64984(15) 0.41535(12)
H5 H 0.3040 0.6399 0.4667
C10 C 0.5573(3) 0.71995(15) 0.43574(13)
H6 H 0.5811 0.7583 0.5005
C11 C 0.6883(2) 0.73454(14) 0.36226(13)
H7 H 0.8037 0.7815 0.3769
C12 C 0.6500(2) 0.68030(14) 0.26742(13)
H8 H 0.7385 0.6912 0.2164
C13 C 0.4838(2) 0.60997(13) 0.24556(12)
C14 C 0.4352(2) 0.55492(14) 0.14182(11)
H9 H 0.5515 0.5639 0.1018
H10 H 0.4150 0.4767 0.1525
O1 O 0.24803(15) 0.60139(9) 0.08271(8)
O2 O -0.08934(15) 0.60513(10) 0.05392(8)
loop_
_geom_bond_atom_site_label_1
_geom_bond_atom_site_label_2
_geom_bond_site_symmetry_1
_geom_bond_site_symmetry_2
C1 C2 1_555 1_555
C2 C3 1_555 1_555
C3 H1 1_555 1_555
C4 C3 1_555 1_555
H2 C4 1_555 1_555
C5 C4 1_555 1_555
H3 C5 1_555 1_555
C6 C5 1_555 1_555
H4 C6 1_555 1_555
C7 C2 1_555 1_555
C8 C7 1_555 1_555
C9 C8 1_555 1_555
H5 C9 1_555 1_555
C10 C9 1_555 1_555
H6 C10 1_555 1_555
C11 C10 1_555 1_555
H7 C11 1_555 1_555
C12 C11 1_555 1_555
H8 C12 1_555 1_555
C13 C8 1_555 1_555
C14 C13 1_555 1_555
H9 C14 1_555 1_555
H10 C14 1_555 1_555
O1 C1 1_555 1_555
O2 C1 1_555 1_555
C6 C7 1_555 1_555
C12 C13 1_555 1_555
C14 O1 1_555 1_555

#END
