
#######################################################################
#
#                 Cambridge Crystallographic Data Centre
#                                CCDC 
#
#######################################################################
#
# If this CIF has been generated from an entry in the Cambridge 
# Structural Database, then it will include bibliographic, chemical, 
# crystal, experimental, refinement or atomic coordinate data resulting 
# from the CCDC's data processing and validation procedures.
#
#######################################################################

data_ROWDOY
_chemical_formula_moiety         'C26 H21 N3 O1'
_chemical_name_systematic        
1',3-Dimethyl-1H,1''H-2,3':3',3''-terindol-2'(1'H)-one
_symmetry_cell_setting           orthorhombic
_symmetry_space_group_name_H-M   'P 21 21 21'
_symmetry_Int_Tables_number      19
_space_group_name_Hall           'P 2ac 2ab'
loop_
_symmetry_equiv_pos_site_id
_symmetry_equiv_pos_as_xyz
1 x,y,z
2 1/2+x,1/2-y,-z
3 -x,1/2+y,1/2-z
4 1/2-x,-y,1/2+z
_cell_length_a                   9.12630(10)
_cell_length_b                   11.3079(2)
_cell_length_c                   20.4631(4)
_cell_angle_alpha                90
_cell_angle_beta                 90
_cell_angle_gamma                90
_cell_volume                     2111.78
_exptl_crystal_colour            colorless
_exptl_crystal_description       block
_cell_formula_units_Z            4
loop_
_atom_site_label
_atom_site_type_symbol
_atom_site_fract_x
_atom_site_fract_y
_atom_site_fract_z
O1 O 0.09716(19) -0.11065(17) 0.12078(9)
N1 N 0.2776(3) -0.1415(2) 0.19743(10)
N2 N 0.3853(2) 0.15206(17) 0.04145(9)
H1 H 0.4563 0.1217 0.0176
N3 N 0.4693(2) -0.23793(17) -0.02729(9)
H2 H 0.5238 -0.2956 -0.0428
C1 C 0.3491(2) -0.0339(2) 0.10437(11)
C2 C 0.4731(3) -0.0448(2) 0.15340(11)
C3 C 0.6146(3) -0.0020(2) 0.15196(13)
H3 H 0.6488 0.0435 0.1161
C4 C 0.7057(3) -0.0277(3) 0.20464(14)
H4 H 0.8036 0.0008 0.2046
C5 C 0.6567(4) -0.0933(3) 0.25673(14)
H5 H 0.7216 -0.1096 0.2919
C6 C 0.5148(4) -0.1362(3) 0.25910(13)
H6 H 0.4808 -0.1814 0.2952
C7 C 0.4243(3) -0.1104(2) 0.20664(12)
C8 C 0.2236(3) -0.0983(2) 0.14048(11)
C9 C 0.1918(5) -0.2100(3) 0.24371(17)
H7 H 0.0957 -0.2278 0.2247
H8 H 0.1788 -0.1644 0.2840
H9 H 0.2430 -0.2840 0.2536
C10 C 0.3096(3) 0.0930(2) 0.09042(10)
C11 C 0.2103(3) 0.1686(2) 0.11886(12)
C12 C 0.2225(3) 0.2786(2) 0.08385(11)
C13 C 0.1487(3) 0.3878(2) 0.08923(13)
H10 H 0.0725 0.3983 0.1203
C14 C 0.1897(3) 0.4788(2) 0.04841(14)
H11 H 0.1424 0.5533 0.0523
C15 C 0.2993(3) 0.4640(2) 0.00146(14)
H12 H 0.3252 0.5286 -0.0259
C16 C 0.3708(3) 0.3570(2) -0.00596(13)
H13 H 0.4438 0.3464 -0.0385
C17 C 0.3318(3) 0.2658(2) 0.03597(11)
C18 C 0.3777(2) -0.10345(19) 0.04198(11)
C19 C 0.2981(3) -0.0949(2) -0.01861(10)
C20 C 0.1825(3) -0.0252(2) -0.04180(12)
H14 H 0.1380 0.0321 -0.0142
C21 C 0.1340(3) -0.0404(2) -0.10483(12)
H15 H 0.0550 0.0063 -0.1205
C22 C 0.1994(3) -0.1240(2) -0.14649(12)
H16 H 0.1650 -0.1318 -0.1901
C23 C 0.3132(3) -0.1953(2) -0.12508(12)
H17 H 0.3572 -0.2522 -0.1530
C24 C 0.3603(3) -0.1802(2) -0.06104(11)
C25 C 0.4794(3) -0.1912(2) 0.03464(11)
H18 H 0.5468 -0.2161 0.0673
C26 C 0.1106(3) 0.1483(3) 0.17541(12)
H19 H 0.0147 0.1220 0.1594
H20 H 0.0991 0.2220 0.2000
H21 H 0.1524 0.0874 0.2039
loop_
_geom_bond_atom_site_label_1
_geom_bond_atom_site_label_2
_geom_bond_site_symmetry_1
_geom_bond_site_symmetry_2
O1 C8 1_555 1_555
N1 C7 1_555 1_555
N2 H1 1_555 1_555
N3 H2 1_555 1_555
C1 C2 1_555 1_555
C2 C3 1_555 1_555
C3 H3 1_555 1_555
C4 C3 1_555 1_555
H4 C4 1_555 1_555
C5 C4 1_555 1_555
H5 C5 1_555 1_555
C6 C5 1_555 1_555
H6 C6 1_555 1_555
C7 C2 1_555 1_555
C8 N1 1_555 1_555
C9 N1 1_555 1_555
H7 C9 1_555 1_555
H8 C9 1_555 1_555
H9 C9 1_555 1_555
C10 N2 1_555 1_555
C11 C10 1_555 1_555
C12 C11 1_555 1_555
C13 C12 1_555 1_555
H10 C13 1_555 1_555
C14 C13 1_555 1_555
H11 C14 1_555 1_555
C15 C14 1_555 1_555
H12 C15 1_555 1_555
C16 C15 1_555 1_555
H13 C16 1_555 1_555
C17 N2 1_555 1_555
C18 C1 1_555 1_555
C19 C18 1_555 1_555
C20 C19 1_555 1_555
H14 C20 1_555 1_555
C21 C20 1_555 1_555
H15 C21 1_555 1_555
C22 C21 1_555 1_555
H16 C22 1_555 1_555
C23 C22 1_555 1_555
H17 C23 1_555 1_555
C24 N3 1_555 1_555
C25 N3 1_555 1_555
H18 C25 1_555 1_555
C26 C11 1_555 1_555
H19 C26 1_555 1_555
H20 C26 1_555 1_555
H21 C26 1_555 1_555
C1 C8 1_555 1_555
C1 C10 1_555 1_555
C6 C7 1_555 1_555
C12 C17 1_555 1_555
C16 C17 1_555 1_555
C18 C25 1_555 1_555
C19 C24 1_555 1_555
C23 C24 1_555 1_555

#END
