
#######################################################################
#
#                 Cambridge Crystallographic Data Centre
#                                CCDC 
#
#######################################################################
#
# If this CIF has been generated from an entry in the Cambridge 
# Structural Database, then it will include bibliographic, chemical, 
# crystal, experimental, refinement or atomic coordinate data resulting 
# from the CCDC's data processing and validation procedures.
#
#######################################################################

data_ROWFUG
_chemical_formula_moiety         'C32 H27 N1 O7'
_chemical_name_systematic        
"dimethyl 3'-(4-methoxyphenyl)-4-oxo-2'-(2-phenylvinyl)-2',3'-dihydro-4H-spiro[naphthalene-1,6'-[1,3]oxazine]-4',5'-dicarboxylate"
_symmetry_cell_setting           triclinic
_symmetry_space_group_name_H-M   'P -1'
_symmetry_Int_Tables_number      2
_space_group_name_Hall           '-P 1'
loop_
_symmetry_equiv_pos_site_id
_symmetry_equiv_pos_as_xyz
1 x,y,z
2 -x,-y,-z
_cell_length_a                   10.8014(11)
_cell_length_b                   12.1280(15)
_cell_length_c                   12.9050(13)
_cell_angle_alpha                63.549(3)
_cell_angle_beta                 67.921(3)
_cell_angle_gamma                83.138(4)
_cell_volume                     1400.23
_exptl_crystal_colour            colorless
_exptl_crystal_description       block
_cell_formula_units_Z            2
loop_
_atom_site_label
_atom_site_type_symbol
_atom_site_fract_x
_atom_site_fract_y
_atom_site_fract_z
C1 C 0.5199(3) 0.3116(2) -0.0859(2)
H1 H 0.5662 0.3878 -0.1243
C2 C 0.4655(3) 0.2785(3) -0.1503(3)
H2 H 0.4750 0.3325 -0.2317
C3 C 0.3976(3) 0.1661(3) -0.0941(3)
C4 C 0.3531(5) 0.2032(5) -0.2741(4)
H3 H 0.3088 0.2776 -0.2776
H4 H 0.3125 0.1621 -0.3031
H5 H 0.4460 0.2231 -0.3257
C5 C 0.3826(3) 0.0869(3) 0.0267(3)
H6 H 0.3346 0.0115 0.0658
C6 C 0.4386(3) 0.1191(3) 0.0896(3)
H7 H 0.4311 0.0640 0.1702
C7 C 0.5058(2) 0.2324(2) 0.0343(2)
C8 C 0.7071(3) 0.2804(3) 0.0633(2)
H8 H 0.7364 0.3665 0.0042
C9 C 0.7787(2) 0.2003(2) 0.0034(2)
H9 H 0.7636 0.1154 0.0506
C10 C 0.8616(3) 0.2407(3) -0.1112(2)
H10 H 0.8751 0.3260 -0.1564
C11 C 0.9368(3) 0.1671(3) -0.1778(3)
C12 C 0.9423(3) 0.0407(3) -0.1217(3)
H11 H 0.8976 -0.0028 -0.0365
C13 C 1.0134(4) -0.0226(4) -0.1904(4)
H12 H 1.0157 -0.1080 -0.1516
C14 C 1.0796(4) 0.0402(5) -0.3145(5)
H13 H 1.1272 -0.0024 -0.3605
C15 C 1.0772(4) 0.1652(5) -0.3722(4)
H14 H 1.1234 0.2076 -0.4572
C16 C 1.0071(3) 0.2284(4) -0.3054(3)
H15 H 1.0061 0.3138 -0.3457
C17 C 0.4852(2) 0.3092(2) 0.1857(2)
C18 C 0.3418(3) 0.3232(2) 0.1944(2)
C19 C 0.1280(3) 0.2252(4) 0.2941(4)
H16 H 0.0882 0.2949 0.3080
H17 H 0.0800 0.1507 0.3623
H18 H 0.1242 0.2316 0.2185
C20 C 0.5361(3) 0.3425(2) 0.2503(2)
C21 C 0.4559(3) 0.3953(3) 0.3345(2)
C22 C 0.2534(5) 0.4713(4) 0.4200(4)
H19 H 0.2487 0.4227 0.5040
H20 H 0.1646 0.4812 0.4181
H21 H 0.2960 0.5508 0.3881
C23 C 0.6852(3) 0.3309(2) 0.2318(2)
C24 C 0.7061(3) 0.2594(2) 0.3529(2)
C25 C 0.6463(3) 0.1419(3) 0.4290(3)
H22 H 0.5934 0.1094 0.4054
C26 C 0.6651(4) 0.0731(3) 0.5397(3)
H23 H 0.6259 -0.0064 0.5901
C27 C 0.7424(4) 0.1215(4) 0.5771(3)
H24 H 0.7548 0.0743 0.6519
C28 C 0.7999(3) 0.2390(4) 0.5030(3)
H25 H 0.8500 0.2725 0.5281
C29 C 0.7830(3) 0.3070(3) 0.3910(2)
C30 C 0.8496(3) 0.4335(3) 0.3100(3)
C31 C 0.8334(3) 0.5013(3) 0.1916(3)
H26 H 0.8761 0.5793 0.1391
C32 C 0.7602(3) 0.4568(3) 0.1549(3)
H27 H 0.7544 0.5054 0.0774
N1 N 0.5614(2) 0.26605(19) 0.10203(18)
O1 O 0.3411(3) 0.1245(3) -0.1497(2)
O2 O 0.3051(2) 0.41145(19) 0.12358(18)
O3 O 0.26622(18) 0.22308(18) 0.28417(18)
O4 O 0.5034(3) 0.4294(2) 0.3887(2)
O5 O 0.3304(2) 0.40947(19) 0.34395(18)
O6 O 0.74009(18) 0.25206(17) 0.16690(16)
O7 O 0.9181(3) 0.4763(3) 0.3417(3)
C33? C 0.391(2) 0.4680(16) 0.4753(15)
H28? H 0.3684 0.5496 0.4294
H29? H 0.4191 0.4674 0.5380
H30? H 0.3148 0.4116 0.5139
loop_
_geom_bond_atom_site_label_1
_geom_bond_atom_site_label_2
_geom_bond_site_symmetry_1
_geom_bond_site_symmetry_2
C1 H1 1_555 1_555
C2 C1 1_555 1_555
H2 C2 1_555 1_555
C3 C2 1_555 1_555
C4 H3 1_555 1_555
H4 C4 1_555 1_555
H5 C4 1_555 1_555
C5 C3 1_555 1_555
H6 C5 1_555 1_555
C6 C5 1_555 1_555
H7 C6 1_555 1_555
C7 C1 1_555 1_555
C8 H8 1_555 1_555
C9 C8 1_555 1_555
H9 C9 1_555 1_555
C10 C9 1_555 1_555
H10 C10 1_555 1_555
C11 C10 1_555 1_555
C12 C11 1_555 1_555
H11 C12 1_555 1_555
C13 C12 1_555 1_555
H12 C13 1_555 1_555
C14 C13 1_555 1_555
H13 C14 1_555 1_555
C15 C14 1_555 1_555
H14 C15 1_555 1_555
C16 C11 1_555 1_555
H15 C16 1_555 1_555
C17 C18 1_555 1_555
C18 O2 1_555 1_555
C19 H16 1_555 1_555
H17 C19 1_555 1_555
H18 C19 1_555 1_555
C20 C17 1_555 1_555
C21 C20 1_555 1_555
C22 H19 1_555 1_555
H20 C22 1_555 1_555
H21 C22 1_555 1_555
C23 C20 1_555 1_555
C24 C23 1_555 1_555
C25 C24 1_555 1_555
H22 C25 1_555 1_555
C26 C25 1_555 1_555
H23 C26 1_555 1_555
C27 C26 1_555 1_555
H24 C27 1_555 1_555
C28 C27 1_555 1_555
H25 C28 1_555 1_555
C29 C24 1_555 1_555
C30 C29 1_555 1_555
C31 C30 1_555 1_555
H26 C31 1_555 1_555
C32 C23 1_555 1_555
H27 C32 1_555 1_555
N1 C7 1_555 1_555
O1 C3 1_555 1_555
O3 C18 1_555 1_555
O4 C21 1_555 1_555
O5 C21 1_555 1_555
O6 C8 1_555 1_555
O7 C30 1_555 1_555
C4 O1 1_555 1_555
C6 C7 1_555 1_555
C8 N1 1_555 1_555
C15 C16 1_555 1_555
C17 N1 1_555 1_555
C19 O3 1_555 1_555
C22 O5 1_555 1_555
C23 O6 1_555 1_555
C28 C29 1_555 1_555
C31 C32 1_555 1_555

#END
