
#######################################################################
#
#                 Cambridge Crystallographic Data Centre
#                                CCDC 
#
#######################################################################
#
# If this CIF has been generated from an entry in the Cambridge 
# Structural Database, then it will include bibliographic, chemical, 
# crystal, experimental, refinement or atomic coordinate data resulting 
# from the CCDC's data processing and validation procedures.
#
#######################################################################

data_ROWZEK
_chemical_formula_moiety         'C24 H27 N1 O4 S1'
_chemical_name_systematic        
't-Butyl 2-(5-((4-methylphenyl)sulfonyl)-1H-pyrrol-3-yl)-3-phenylpropanoate'
_symmetry_cell_setting           monoclinic
_symmetry_space_group_name_H-M   'P 21/c'
_symmetry_Int_Tables_number      14
_space_group_name_Hall           '-P 2ybc'
loop_
_symmetry_equiv_pos_site_id
_symmetry_equiv_pos_as_xyz
1 x,y,z
2 -x,1/2+y,1/2-z
3 -x,-y,-z
4 x,1/2-y,1/2+z
_cell_length_a                   24.358(3)
_cell_length_b                   8.0579(9)
_cell_length_c                   11.2629(13)
_cell_angle_alpha                90
_cell_angle_beta                 100.201(3)
_cell_angle_gamma                90
_cell_volume                     2175.67
_exptl_crystal_colour            colorless
_exptl_crystal_description       Block
_cell_formula_units_Z            4
loop_
_atom_site_label
_atom_site_type_symbol
_atom_site_fract_x
_atom_site_fract_y
_atom_site_fract_z
S1 S 0.35647(2) 0.30062(6) 0.23124(5)
O1 O 0.12327(6) 0.75645(18) 0.28255(13)
O2 O 0.18363(6) 0.7634(2) 0.15193(14)
O3 O 0.35240(6) 0.3712(2) 0.11171(13)
O4 O 0.34090(6) 0.13043(19) 0.24225(15)
N1 N 0.30597(7) 0.3817(2) 0.42027(17)
H1 H 0.3189(12) 0.290(4) 0.466(3)
C1 C 0.17883(9) 1.0899(3) 0.4658(2)
H2 H 0.1839 1.0139 0.5313
C2 C 0.14141(10) 1.2205(3) 0.4640(2)
H3 H 0.1206 1.2319 0.5273
C3 C 0.13442(9) 1.3341(3) 0.3701(2)
H4 H 0.1093 1.4244 0.3693
C4 C 0.16443(9) 1.3149(3) 0.2777(2)
H5 H 0.1601 1.3931 0.2136
C5 C 0.20092(9) 1.1818(3) 0.2778(2)
H6 H 0.2204 1.1680 0.2125
C6 C 0.20897(9) 1.0689(3) 0.37274(19)
C7 C 0.24876(9) 0.9244(3) 0.3735(2)
H7 H 0.2771 0.9287 0.4483
H8 H 0.2684 0.9351 0.3041
C8 C 0.21885(9) 0.7553(3) 0.36657(19)
H9 H 0.2004 0.7432 0.4387
C9 C 0.17391(9) 0.7573(3) 0.2535(2)
C10 C 0.07276(9) 0.7803(3) 0.1905(2)
C11 C 0.02700(10) 0.7831(3) 0.2658(2)
H10 H 0.0274 0.6787 0.3106
H11 H -0.0092 0.7962 0.2127
H12 H 0.0332 0.8761 0.3226
C12 C 0.07573(9) 0.9457(3) 0.1272(2)
H13 H 0.0835 1.0343 0.1874
H14 H 0.0400 0.9675 0.0741
H15 H 0.1056 0.9418 0.0792
C13 C 0.06461(10) 0.6354(3) 0.1027(2)
H16 H 0.0935 0.6385 0.0523
H17 H 0.0278 0.6435 0.0514
H18 H 0.0673 0.5309 0.1479
C14 C 0.27096(8) 0.4962(3) 0.4537(2)
H19 H 0.2573 0.4962 0.5276
C15 C 0.25847(8) 0.6119(3) 0.36415(19)
C16 C 0.28778(8) 0.5671(3) 0.2711(2)
H20 H 0.2878 0.6248 0.1976
C17 C 0.31631(8) 0.4229(3) 0.30837(19)
C18 C 0.42623(9) 0.3185(3) 0.3063(2)
C19 C 0.44376(9) 0.2257(3) 0.4098(2)
H21 H 0.4179 0.1599 0.4433
C20 C 0.49933(10) 0.2304(3) 0.4635(2)
H22 H 0.5113 0.1688 0.5353
C21 C 0.53797(9) 0.3225(3) 0.4151(2)
C22 C 0.51921(10) 0.4175(3) 0.3131(2)
H23 H 0.5450 0.4838 0.2798
C23 C 0.46341(9) 0.4170(3) 0.2590(2)
H24 H 0.4509 0.4839 0.1900
C24 C 0.59894(10) 0.3159(3) 0.4698(3)
H25 H 0.6130 0.2029 0.4631
H26 H 0.6039 0.3475 0.5551
H27 H 0.6197 0.3930 0.4270
loop_
_geom_bond_atom_site_label_1
_geom_bond_atom_site_label_2
_geom_bond_site_symmetry_1
_geom_bond_site_symmetry_2
S1 O3 1_555 1_555
O1 C9 1_555 1_555
O2 C9 1_555 1_555
O4 S1 1_555 1_555
N1 H1 1_555 1_555
C1 H2 1_555 1_555
C2 C1 1_555 1_555
H3 C2 1_555 1_555
C3 C2 1_555 1_555
H4 C3 1_555 1_555
C4 C3 1_555 1_555
H5 C4 1_555 1_555
C5 C4 1_555 1_555
H6 C5 1_555 1_555
C6 C1 1_555 1_555
C7 C6 1_555 1_555
H7 C7 1_555 1_555
H8 C7 1_555 1_555
C8 C7 1_555 1_555
H9 C8 1_555 1_555
C9 C8 1_555 1_555
C10 O1 1_555 1_555
C11 C10 1_555 1_555
H10 C11 1_555 1_555
H11 C11 1_555 1_555
H12 C11 1_555 1_555
C12 C10 1_555 1_555
H13 C12 1_555 1_555
H14 C12 1_555 1_555
H15 C12 1_555 1_555
C13 C10 1_555 1_555
H16 C13 1_555 1_555
H17 C13 1_555 1_555
H18 C13 1_555 1_555
C14 N1 1_555 1_555
H19 C14 1_555 1_555
C15 C8 1_555 1_555
C16 C15 1_555 1_555
H20 C16 1_555 1_555
C17 S1 1_555 1_555
C18 S1 1_555 1_555
C19 C18 1_555 1_555
H21 C19 1_555 1_555
C20 C19 1_555 1_555
H22 C20 1_555 1_555
C21 C20 1_555 1_555
C22 C21 1_555 1_555
H23 C22 1_555 1_555
C23 C18 1_555 1_555
H24 C23 1_555 1_555
C24 C21 1_555 1_555
H25 C24 1_555 1_555
H26 C24 1_555 1_555
H27 C24 1_555 1_555
N1 C17 1_555 1_555
C5 C6 1_555 1_555
C14 C15 1_555 1_555
C16 C17 1_555 1_555
C22 C23 1_555 1_555

#END
