
#######################################################################
#
#                 Cambridge Crystallographic Data Centre
#                                CCDC 
#
#######################################################################
#
# If this CIF has been generated from an entry in the Cambridge 
# Structural Database, then it will include bibliographic, chemical, 
# crystal, experimental, refinement or atomic coordinate data resulting 
# from the CCDC's data processing and validation procedures.
#
#######################################################################

data_ROWZAG
_chemical_formula_moiety         'C23 H23 N1 O4'
_chemical_name_systematic        
'Dimethyl 2,4-dibenzyl-3-methylene-3,4-dihydro-2H-pyrrole-2,4-dicarboxylate'
_symmetry_cell_setting           monoclinic
_symmetry_space_group_name_H-M   'P 21'
_symmetry_Int_Tables_number      4
_space_group_name_Hall           'P 2yb'
loop_
_symmetry_equiv_pos_site_id
_symmetry_equiv_pos_as_xyz
1 x,y,z
2 -x,1/2+y,-z
_cell_length_a                   9.2073(5)
_cell_length_b                   8.4035(4)
_cell_length_c                   12.6305(7)
_cell_angle_alpha                90
_cell_angle_beta                 90.524(2)
_cell_angle_gamma                90
_cell_volume                     977.226
_exptl_crystal_colour            colorless
_exptl_crystal_description       plate
_cell_formula_units_Z            2
loop_
_atom_site_label
_atom_site_type_symbol
_atom_site_fract_x
_atom_site_fract_y
_atom_site_fract_z
N1 N 0.1162(3) 0.7960(3) 0.6536(2)
O1 O -0.1257(3) 1.1209(3) 0.6341(2)
O2 O -0.2060(3) 1.1390(4) 0.7988(2)
O3 O 0.0785(3) 0.4980(4) 0.8580(3)
O4 O 0.2650(2) 0.6003(3) 0.77051(19)
C1 C 0.0297(3) 0.7027(4) 0.7302(3)
C2 C -0.0382(3) 0.8263(3) 0.8037(2)
C3 C 0.0113(3) 0.9883(4) 0.7669(3)
C4 C 0.1038(3) 0.9438(4) 0.6732(3)
C5 C -0.1231(3) 0.7964(4) 0.8853(3)
C6 C -0.1188(3) 1.0909(4) 0.7367(3)
C7 C -0.2523(4) 1.2105(5) 0.5991(3)
C8 C 0.0971(3) 1.0816(4) 0.8540(3)
C9 C 0.2335(3) 0.9980(4) 0.8900(3)
C10 C 0.3630(4) 1.0163(4) 0.8343(3)
C11 C 0.4876(4) 0.9354(5) 0.8659(3)
C12 C 0.4847(4) 0.8361(5) 0.9525(3)
C13 C 0.3573(4) 0.8183(5) 1.0101(3)
C14 C 0.2333(4) 0.8994(4) 0.9784(3)
C15 C 0.1262(3) 0.5893(4) 0.7936(3)
C16 C 0.3592(4) 0.4937(5) 0.8300(4)
C17 C -0.0829(4) 0.5991(4) 0.6706(3)
C18 C -0.2007(4) 0.6893(4) 0.6127(3)
C19 C -0.3386(4) 0.7013(4) 0.6552(3)
C20 C -0.4494(4) 0.7819(5) 0.6031(3)
C21 C -0.4225(4) 0.8539(5) 0.5066(3)
C22 C -0.2850(5) 0.8467(6) 0.4640(3)
C23 C -0.1752(4) 0.7631(6) 0.5162(3)
H1 H 0.154(5) 1.016(6) 0.629(4)
H2 H -0.156(5) 0.887(6) 0.925(4)
H3 H -0.149(5) 0.684(6) 0.899(4)
H4 H -0.345(5) 1.147(6) 0.617(4)
H5 H -0.248(5) 1.226(6) 0.524(4)
H6 H -0.263(5) 1.311(6) 0.648(4)
H7 H 0.113(5) 1.185(7) 0.814(4)
H8 H 0.021(5) 1.105(6) 0.909(4)
H9 H 0.375(5) 1.084(6) 0.775(4)
H10 H 0.570(5) 0.946(6) 0.829(4)
H11 H 0.578(5) 0.783(6) 0.976(4)
H12 H 0.355(5) 0.747(6) 1.079(4)
H13 H 0.147(5) 0.905(6) 1.021(4)
H14 H 0.355(5) 0.514(6) 0.899(4)
H15 H 0.452(6) 0.516(6) 0.827(4)
H16 H 0.327(5) 0.380(6) 0.822(3)
H17 H -0.033(6) 0.534(6) 0.626(4)
H18 H -0.133(5) 0.523(6) 0.716(4)
H19 H -0.355(5) 0.651(6) 0.720(4)
H20 H -0.546(5) 0.783(6) 0.634(4)
H21 H -0.496(6) 0.916(6) 0.470(3)
H22 H -0.264(5) 0.888(6) 0.400(4)
H23 H -0.083(6) 0.755(6) 0.488(4)
loop_
_geom_bond_atom_site_label_1
_geom_bond_atom_site_label_2
_geom_bond_site_symmetry_1
_geom_bond_site_symmetry_2
N1 C1 1_555 1_555
O1 C6 1_555 1_555
O2 C6 1_555 1_555
O3 C15 1_555 1_555
O4 C15 1_555 1_555
C1 C2 1_555 1_555
C2 C3 1_555 1_555
C3 C4 1_555 1_555
C4 N1 1_555 1_555
C5 C2 1_555 1_555
C6 C3 1_555 1_555
C7 O1 1_555 1_555
C8 C3 1_555 1_555
C9 C8 1_555 1_555
C10 C9 1_555 1_555
C11 C10 1_555 1_555
C12 C11 1_555 1_555
C13 C12 1_555 1_555
C14 C9 1_555 1_555
C15 C1 1_555 1_555
C16 O4 1_555 1_555
C17 C1 1_555 1_555
C18 C17 1_555 1_555
C19 C18 1_555 1_555
C20 C19 1_555 1_555
C21 C20 1_555 1_555
C22 C21 1_555 1_555
C23 C18 1_555 1_555
H1 C4 1_555 1_555
H2 C5 1_555 1_555
H3 C5 1_555 1_555
H4 C7 1_555 1_555
H5 C7 1_555 1_555
H6 C7 1_555 1_555
H7 C8 1_555 1_555
H8 C8 1_555 1_555
H9 C10 1_555 1_555
H10 C11 1_555 1_555
H11 C12 1_555 1_555
H12 C13 1_555 1_555
H13 C14 1_555 1_555
H14 C16 1_555 1_555
H15 C16 1_555 1_555
H16 C16 1_555 1_555
H17 C17 1_555 1_555
H18 C17 1_555 1_555
H19 C19 1_555 1_555
H20 C20 1_555 1_555
H21 C21 1_555 1_555
H22 C22 1_555 1_555
H23 C23 1_555 1_555
C13 C14 1_555 1_555
C22 C23 1_555 1_555

#END
