
#######################################################################
#
#                 Cambridge Crystallographic Data Centre
#                                CCDC 
#
#######################################################################
#
# If this CIF has been generated from an entry in the Cambridge 
# Structural Database, then it will include bibliographic, chemical, 
# crystal, experimental, refinement or atomic coordinate data resulting 
# from the CCDC's data processing and validation procedures.
#
#######################################################################

data_ROXBUD
_chemical_formula_moiety         'C16 H12 N2 O1'
_chemical_name_systematic        
6,11-Dihydro-13H-isoindolo[2,1-b][2,4]benzodiazepin-13-one
_symmetry_cell_setting           monoclinic
_symmetry_space_group_name_H-M   'P 21/c'
_symmetry_Int_Tables_number      14
_space_group_name_Hall           '-P 2ybc'
loop_
_symmetry_equiv_pos_site_id
_symmetry_equiv_pos_as_xyz
1 x,y,z
2 -x,1/2+y,1/2-z
3 -x,-y,-z
4 x,1/2-y,1/2+z
_cell_length_a                   6.9378(7)
_cell_length_b                   18.7153(19)
_cell_length_c                   9.6500(10)
_cell_angle_alpha                90
_cell_angle_beta                 107.286(2)
_cell_angle_gamma                90
_cell_volume                     1196.39
_exptl_crystal_colour            colorless
_exptl_crystal_description       Block
_cell_formula_units_Z            4
loop_
_atom_site_label
_atom_site_type_symbol
_atom_site_fract_x
_atom_site_fract_y
_atom_site_fract_z
O1 O 0.26073(13) 0.67534(5) 0.39572(9)
N1 N 0.30096(14) 0.62576(5) 0.62220(10)
N2 N 0.33704(14) 0.53621(5) 0.81210(11)
C1 C 0.26719(16) 0.62364(6) 0.47315(12)
C2 C 0.24185(15) 0.54713(6) 0.43244(12)
C3 C 0.19983(17) 0.51533(6) 0.29699(12)
H1 H 0.1823 0.5430 0.2116
C4 C 0.18444(17) 0.44129(6) 0.29108(13)
H2 H 0.1547 0.4178 0.1999
C5 C 0.21191(17) 0.40103(6) 0.41674(13)
H3 H 0.2018 0.3505 0.4098
C6 C 0.25376(17) 0.43333(6) 0.55213(13)
H4 H 0.2727 0.4058 0.6379
C7 C 0.26681(15) 0.50717(6) 0.55723(12)
C8 C 0.30626(16) 0.55677(6) 0.68211(12)
C9 C 0.34026(18) 0.69282(6) 0.70474(13)
H5 H 0.2272 0.7029 0.7448
H6 H 0.3486 0.7326 0.6392
C10 C 0.37675(18) 0.58867(7) 0.93116(13)
H7 H 0.4054 0.5628 1.0246
H8 H 0.2540 0.6179 0.9197
C11 C 0.55198(17) 0.63772(6) 0.93623(12)
C12 C 0.53460(17) 0.68838(6) 0.82699(12)
C13 C 0.69841(19) 0.73136(6) 0.82909(13)
H9 H 0.6868 0.7657 0.7546
C14 C 0.87960(18) 0.72447(6) 0.93948(13)
H10 H 0.9910 0.7542 0.9405
C15 C 0.89732(18) 0.67425(6) 1.04774(13)
H11 H 1.0206 0.6697 1.1236
C16 C 0.73437(18) 0.63048(6) 1.04544(12)
H12 H 0.7476 0.5954 1.1189
loop_
_geom_bond_atom_site_label_1
_geom_bond_atom_site_label_2
_geom_bond_site_symmetry_1
_geom_bond_site_symmetry_2
O1 C1 1_555 1_555
N1 C1 1_555 1_555
N2 C8 1_555 1_555
C1 C2 1_555 1_555
C2 C3 1_555 1_555
C3 H1 1_555 1_555
C4 C3 1_555 1_555
H2 C4 1_555 1_555
C5 C4 1_555 1_555
H3 C5 1_555 1_555
C6 C5 1_555 1_555
H4 C6 1_555 1_555
C7 C2 1_555 1_555
C8 N1 1_555 1_555
C9 N1 1_555 1_555
H5 C9 1_555 1_555
H6 C9 1_555 1_555
C10 N2 1_555 1_555
H7 C10 1_555 1_555
H8 C10 1_555 1_555
C11 C10 1_555 1_555
C12 C9 1_555 1_555
C13 C12 1_555 1_555
H9 C13 1_555 1_555
C14 C13 1_555 1_555
H10 C14 1_555 1_555
C15 C14 1_555 1_555
H11 C15 1_555 1_555
C16 C11 1_555 1_555
H12 C16 1_555 1_555
C6 C7 1_555 1_555
C7 C8 1_555 1_555
C11 C12 1_555 1_555
C15 C16 1_555 1_555

#END
