
#######################################################################
#
#                 Cambridge Crystallographic Data Centre
#                                CCDC 
#
#######################################################################
#
# If this CIF has been generated from an entry in the Cambridge 
# Structural Database, then it will include bibliographic, chemical, 
# crystal, experimental, refinement or atomic coordinate data resulting 
# from the CCDC's data processing and validation procedures.
#
#######################################################################

data_ROXQOM
_chemical_formula_moiety         'C48 H46 N6 3+,3(F6 P1 1-)'
_chemical_name_systematic        
'1-methyl-4-(1-(4-((4-(1-(4-((4-(1-methyl-1-pyridin-4-yl)pyridinium-1-yl)methyl)benzyl)-1-pyridin-4-yl)pyridinium-1-yl)methyl)benzyl)-1-pyridin-4-yl)pyridinium trihexafluorophosphate unknown solvate'
_symmetry_cell_setting           orthorhombic
_symmetry_space_group_name_H-M   'P n m a'
_symmetry_Int_Tables_number      62
_space_group_name_Hall           '-P 2ac 2n'
loop_
_symmetry_equiv_pos_site_id
_symmetry_equiv_pos_as_xyz
1 x,y,z
2 1/2-x,-y,1/2+z
3 1/2+x,1/2-y,1/2-z
4 -x,1/2+y,-z
5 -x,-y,-z
6 1/2+x,y,1/2-z
7 1/2-x,1/2+y,1/2+z
8 x,1/2-y,z
_cell_length_a                   25.5439(8)
_cell_length_b                   26.3802(8)
_cell_length_c                   38.3250(13)
_cell_angle_alpha                90
_cell_angle_beta                 90
_cell_angle_gamma                90
_cell_volume                     25825.4
_exptl_crystal_colour            violet
_exptl_crystal_description       block
_cell_formula_units_Z            16
_chemical_properties_physical    'Heat-sensitive, Oxygen-sensitive'
loop_
_atom_site_label
_atom_site_type_symbol
_atom_site_fract_x
_atom_site_fract_y
_atom_site_fract_z
N1 N 0.84108(19) 0.5998(2) 0.50005(12)
N2 N 0.65812(17) 0.40036(17) 0.50197(11)
N3 N 0.66451(17) 0.39359(17) 0.66777(10)
N4 N 0.84385(17) 0.59659(17) 0.66705(10)
N5 N 0.83709(18) 0.60192(17) 0.83374(10)
N6 N 0.66217(17) 0.39577(17) 0.83438(10)
C1 C 0.8798(3) 0.6433(3) 0.5008(2)
H1 H 0.8928 0.6480 0.5246
H2 H 0.8624 0.6744 0.4930
H3 H 0.9091 0.6357 0.4852
C2 C 0.7900(2) 0.6090(2) 0.50061(13)
H4 H 0.7784 0.6432 0.5009
C3 C 0.7541(2) 0.5716(2) 0.50073(12)
H5 H 0.7179 0.5798 0.5015
C4 C 0.7699(2) 0.5201(2) 0.49971(12)
C5 C 0.8242(2) 0.5118(2) 0.49974(13)
H6 H 0.8374 0.4782 0.4999
C6 C 0.8581(2) 0.5518(2) 0.49948(13)
H7 H 0.8947 0.5454 0.4989
C7 C 0.7316(2) 0.4794(2) 0.50020(12)
C8 C 0.6774(2) 0.4883(2) 0.50065(12)
H8 H 0.6648 0.5221 0.5005
C9 C 0.6423(2) 0.4489(2) 0.50128(13)
H9 H 0.6059 0.4562 0.5012
C10 C 0.7104(2) 0.3901(2) 0.50014(13)
H10 H 0.7216 0.3558 0.4997
C11 C 0.7467(2) 0.4271(2) 0.49896(12)
H11 H 0.7827 0.4185 0.4973
C12 C 0.6201(2) 0.3594(3) 0.50880(14)
H12 H 0.6320 0.3275 0.4978
H13 H 0.5855 0.3684 0.4991
C13 C 0.6166(2) 0.3531(2) 0.54856(14)
C14 C 0.5826(2) 0.3831(3) 0.56862(15)
H14 H 0.5583 0.4050 0.5575
C15 C 0.5846(2) 0.3808(2) 0.60391(17)
H15 H 0.5611 0.4008 0.6173
C16 C 0.6199(2) 0.3500(2) 0.62088(14)
C17 C 0.6524(2) 0.3179(2) 0.60194(14)
H16 H 0.6753 0.2949 0.6134
C18 C 0.6504(2) 0.3205(2) 0.56513(16)
H17 H 0.6728 0.2995 0.5516
C19 C 0.6260(2) 0.3525(3) 0.66129(15)
H18 H 0.5921 0.3604 0.6725
H19 H 0.6390 0.3198 0.6706
C20 C 0.6467(2) 0.4429(2) 0.66893(12)
H20 H 0.6101 0.4494 0.6697
C21 C 0.6812(2) 0.4830(2) 0.66895(12)
H21 H 0.6683 0.5167 0.6698
C22 C 0.7358(2) 0.47431(19) 0.66773(12)
C23 C 0.7521(2) 0.4232(2) 0.66791(12)
H22 H 0.7883 0.4154 0.6687
C24 C 0.7163(2) 0.3851(2) 0.66699(12)
H23 H 0.7285 0.3511 0.6657
C25 C 0.7730(2) 0.51599(19) 0.66662(12)
C26 C 0.7565(2) 0.56736(19) 0.66639(12)
H24 H 0.7201 0.5750 0.6661
C27 C 0.7916(2) 0.6056(2) 0.66656(12)
H25 H 0.7794 0.6396 0.6663
C28 C 0.8614(2) 0.5475(2) 0.66560(13)
H26 H 0.8980 0.5412 0.6644
C29 C 0.8272(2) 0.5075(2) 0.66587(12)
H27 H 0.8403 0.4738 0.6655
C30 C 0.8818(2) 0.6379(2) 0.67415(16)
H28 H 0.8703 0.6698 0.6628
H29 H 0.9169 0.6288 0.6651
C31 C 0.8836(2) 0.6444(2) 0.71400(14)
C32 C 0.8503(3) 0.6773(2) 0.73120(15)
H30 H 0.8284 0.6993 0.7181
C33 C 0.8484(3) 0.6787(2) 0.76777(15)
H31 H 0.8254 0.7016 0.7792
C34 C 0.8799(2) 0.6469(2) 0.78708(14)
C35 C 0.9153(2) 0.6149(3) 0.76968(16)
H32 H 0.9381 0.5938 0.7828
C36 C 0.9171(2) 0.6139(2) 0.73384(16)
H33 H 0.9414 0.5922 0.7224
C37 C 0.8735(3) 0.6445(2) 0.82665(14)
H34 H 0.9077 0.6385 0.8380
H35 H 0.8588 0.6768 0.8356
C38 C 0.7845(2) 0.6107(2) 0.83361(12)
H36 H 0.7719 0.6446 0.8332
C39 C 0.7495(2) 0.5712(2) 0.83408(12)
H37 H 0.7130 0.5781 0.8338
C40 C 0.76722(19) 0.51948(19) 0.83496(12)
C41 C 0.8225(2) 0.5128(2) 0.83626(12)
H38 H 0.8367 0.4796 0.8375
C42 C 0.8553(2) 0.5537(2) 0.83578(13)
H39 H 0.8920 0.5483 0.8369
C43 C 0.73221(19) 0.4773(2) 0.83497(12)
C44 C 0.6766(2) 0.4845(2) 0.83508(12)
H40 H 0.6624 0.5178 0.8351
C45 C 0.6439(2) 0.4435(2) 0.83513(12)
H41 H 0.6071 0.4489 0.8357
C46 C 0.7150(2) 0.3875(2) 0.83332(13)
H42 H 0.7279 0.3538 0.8321
C47 C 0.74885(19) 0.42612(18) 0.83401(11)
H43 H 0.7853 0.4190 0.8339
C48 C 0.6263(2) 0.3507(3) 0.83176(17)
H44 H 0.5934 0.3581 0.8440
H45 H 0.6431 0.3212 0.8424
H46 H 0.6189 0.3436 0.8072
N7 N 0.8291(2) 0.3819(2) 0.57971(11)
N8 N 0.67035(19) 0.59967(18) 0.58516(11)
N9 N 0.6722(2) 0.60575(17) 0.75126(11)
N10 N 0.83946(19) 0.39368(17) 0.75252(11)
N11 N 0.8266(2) 0.39680(19) 0.91798(11)
N12 N 0.67043(19) 0.61652(19) 0.91623(12)
C49 C 0.8613(3) 0.3355(3) 0.5783(2)
H47 H 0.8465 0.3100 0.5941
H48 H 0.8972 0.3435 0.5856
H49 H 0.8617 0.3223 0.5544
C50 C 0.8507(2) 0.4283(2) 0.57979(14)
H50 H 0.8878 0.4311 0.5790
C51 C 0.8215(2) 0.4715(2) 0.58098(12)
H51 H 0.8382 0.5036 0.5810
C52 C 0.7662(2) 0.4683(2) 0.58224(13)
C53 C 0.7455(2) 0.4190(2) 0.58337(12)
H52 H 0.7086 0.4149 0.5853
C54 C 0.7764(2) 0.3765(2) 0.58184(13)
H53 H 0.7611 0.3437 0.5823
C55 C 0.7332(2) 0.5132(2) 0.58314(12)
C56 C 0.7553(2) 0.5627(2) 0.58306(12)
H54 H 0.7923 0.5663 0.5823
C57 C 0.7255(2) 0.6043(2) 0.58403(13)
H55 H 0.7413 0.6369 0.5840
C58 C 0.6487(2) 0.5535(2) 0.58527(13)
H56 H 0.6117 0.5504 0.5861
C59 C 0.6788(2) 0.5107(2) 0.58417(12)
H57 H 0.6622 0.4785 0.5841
C60 C 0.6391(2) 0.6452(2) 0.59266(15)
H58 H 0.6039 0.6417 0.5821
H59 H 0.6563 0.6753 0.5822
C61 C 0.6340(2) 0.6525(2) 0.63165(14)
C62 C 0.6702(2) 0.6809(2) 0.64921(14)
H60 H 0.6957 0.6997 0.6366
C63 C 0.6700(2) 0.6825(2) 0.68546(15)
H61 H 0.6951 0.7027 0.6974
C64 C 0.6340(2) 0.6553(2) 0.70406(13)
C65 C 0.5962(2) 0.6264(2) 0.68568(15)
H62 H 0.5706 0.6075 0.6981
C66 C 0.5969(2) 0.6260(2) 0.65016(16)
H63 H 0.5711 0.6070 0.6379
C67 C 0.6391(3) 0.6513(2) 0.74366(15)
H64 H 0.6559 0.6822 0.7532
H65 H 0.6042 0.6475 0.7545
C68 C 0.7253(2) 0.6125(2) 0.75127(13)
H66 H 0.7390 0.6460 0.7515
C69 C 0.7593(2) 0.57212(19) 0.75103(13)
H67 H 0.7960 0.5780 0.7506
C70 C 0.7398(2) 0.5215(2) 0.75146(13)
C71 C 0.6841(2) 0.5167(2) 0.75128(12)
H68 H 0.6688 0.4838 0.7510
C72 C 0.6520(2) 0.5586(2) 0.75151(14)
H69 H 0.6151 0.5542 0.7518
C73 C 0.7741(2) 0.47878(19) 0.75064(13)
C74 C 0.8294(2) 0.4835(2) 0.75111(13)
H70 H 0.8450 0.5162 0.7507
C75 C 0.8600(2) 0.4417(2) 0.75209(13)
H71 H 0.8970 0.4458 0.7525
C76 C 0.7861(2) 0.3877(2) 0.75082(12)
H72 H 0.7716 0.3545 0.7504
C77 C 0.7541(2) 0.42825(18) 0.74971(12)
H73 H 0.7174 0.4231 0.7483
C78 C 0.8727(2) 0.3499(2) 0.76103(14)
H74 H 0.9085 0.3551 0.7518
H75 H 0.8580 0.3187 0.7506
C79 C 0.8742(2) 0.3452(2) 0.80129(14)
C80 C 0.8359(2) 0.31683(19) 0.81811(13)
H76 H 0.8121 0.2969 0.8049
C81 C 0.8326(2) 0.3177(2) 0.85365(15)
H77 H 0.8059 0.2987 0.8649
C82 C 0.8679(2) 0.3460(2) 0.87394(13)
C83 C 0.9061(2) 0.3722(2) 0.85633(17)
H78 H 0.9312 0.3907 0.8694
C84 C 0.9094(2) 0.3728(2) 0.82047(16)
H79 H 0.9358 0.3921 0.8091
C85 C 0.8589(3) 0.3516(2) 0.91242(16)
H80 H 0.8407 0.3212 0.9216
H81 H 0.8927 0.3552 0.9247
C86 C 0.8488(2) 0.4438(2) 0.91908(13)
H82 H 0.8858 0.4465 0.9198
C87 C 0.8195(2) 0.4871(2) 0.91913(12)
H83 H 0.8363 0.5191 0.9201
C88 C 0.7635(2) 0.4845(2) 0.91773(12)
C89 C 0.7413(2) 0.4345(2) 0.91805(12)
H84 H 0.7044 0.4305 0.9180
C90 C 0.7724(3) 0.3932(2) 0.91833(13)
H85 H 0.7567 0.3606 0.9188
C91 C 0.7314(2) 0.5289(2) 0.91748(12)
C92 C 0.7535(2) 0.5791(2) 0.91713(13)
H86 H 0.7904 0.5831 0.9178
C93 C 0.7228(2) 0.6205(2) 0.91591(12)
H87 H 0.7384 0.6531 0.9148
C94 C 0.6489(2) 0.5698(3) 0.91634(14)
H88 H 0.6118 0.5675 0.9163
C95 C 0.6761(2) 0.5262(2) 0.91653(13)
H89 H 0.6586 0.4944 0.9160
C96 C 0.6381(3) 0.6640(3) 0.9159(2)
H90 H 0.6282 0.6729 0.9399
H91 H 0.6065 0.6585 0.9020
H92 H 0.6586 0.6917 0.9057
P1 P 0.77520(13) 0.2500 0.49571(9)
F1 F 0.7758(3) 0.2106(3) 0.5228(2)
F2 F 0.7149(3) 0.2500 0.49797(16)
F3 F 0.7708(3) 0.2932(3) 0.4689(2)
F4 F 0.8363(4) 0.2500 0.4957(4)
F1G F 0.7758(3) 0.2894(3) 0.5228(2)
F3G F 0.7708(3) 0.2068(3) 0.4689(2)
P2 P 0.70806(12) 0.2500 0.74963(8)
F5 F 0.7701(3) 0.2500 0.74771(18)
F6 F 0.7095(3) 0.2072(2) 0.72056(15)
F7 F 0.6476(4) 0.2500 0.7522(3)
F8 F 0.7117(2) 0.2926(2) 0.77868(14)
F6G F 0.7095(3) 0.2928(2) 0.72056(15)
F8G F 0.7117(2) 0.2074(2) 0.77868(14)
P3 P 0.70177(13) 0.2500 0.91782(9)
F9 F 0.7609(3) 0.2500 0.92049(16)
F10 F 0.7029(3) 0.2917(2) 0.94830(16)
F11 F 0.6432(4) 0.2500 0.9174(3)
F12 F 0.7057(2) 0.2072(2) 0.88967(14)
F10G F 0.7029(3) 0.2083(2) 0.94830(16)
F12G F 0.7057(2) 0.2928(2) 0.88967(14)
P4 P 1.04782(8) 0.59151(10) 0.66976(5)
F13 F 1.1064(2) 0.6100(3) 0.67474(13)
F14 F 1.0430(2) 0.5789(4) 0.70986(16)
F15 F 0.98968(16) 0.5694(2) 0.66542(13)
F16 F 1.0489(2) 0.6090(3) 0.63089(14)
F17 F 1.0684(2) 0.5392(3) 0.6599(2)
F18 F 1.0242(3) 0.6446(3) 0.6783(2)
P5 P 0.50176(7) 0.49989(8) 0.66662(6)
F19 F 0.54713(16) 0.51294(18) 0.69414(12)
F20 F 0.45990(15) 0.49487(17) 0.69768(12)
F21 F 0.45654(17) 0.48627(19) 0.63935(13)
F22 F 0.54320(16) 0.50570(18) 0.63568(12)
F23 F 0.51651(15) 0.44145(16) 0.67045(13)
F24 F 0.48733(16) 0.55796(17) 0.66321(12)
P6 P 0.95313(8) 0.41034(10) 0.49684(5)
F25 F 0.9620(5) 0.3681(6) 0.5237(4)
F26 F 0.89195(18) 0.39490(19) 0.49698(11)
F27 F 0.9378(3) 0.4573(3) 0.4714(2)
F28 F 1.0116(2) 0.4298(3) 0.49784(18)
F29 F 0.9637(6) 0.3748(5) 0.4664(3)
F30 F 0.9373(4) 0.4535(4) 0.5256(2)
P7 P 0.94915(10) 0.39288(12) 0.66663(6)
F35 F 0.9576(4) 0.3830(5) 0.7048(2)
F36 F 0.8880(3) 0.3821(3) 0.6714(2)
F37 F 0.9427(3) 0.3960(3) 0.62660(18)
F38 F 1.0084(2) 0.4060(3) 0.66109(14)
F39 F 0.9614(4) 0.3352(4) 0.6609(3)
F40 F 0.9380(2) 0.4485(3) 0.6731(2)
P8 P 0.55130(8) 0.59403(12) 0.49706(5)
F41 F 0.61219(19) 0.6057(2) 0.49198(13)
F42 F 0.5652(3) 0.5478(3) 0.5194(2)
F43 F 0.49146(17) 0.5814(3) 0.50203(14)
F44 F 0.5387(3) 0.6344(4) 0.4710(3)
F45 F 0.5530(3) 0.5576(5) 0.4663(2)
F46 F 0.5532(3) 0.6220(4) 0.53118(19)
F31? F 0.9739(5) 0.3533(4) 0.4969(4)
F32? F 0.9373(6) 0.4644(4) 0.4963(5)
F33? F 0.9575(6) 0.3981(6) 0.4561(2)
F34? F 0.9544(4) 0.4041(6) 0.5371(2)
loop_
_geom_bond_atom_site_label_1
_geom_bond_atom_site_label_2
_geom_bond_site_symmetry_1
_geom_bond_site_symmetry_2
N1 C1 1_555 1_555
N2 C9 1_555 1_555
N3 C19 1_555 1_555
N4 C27 1_555 1_555
N5 C37 1_555 1_555
N6 C45 1_555 1_555
C1 H1 1_555 1_555
H2 C1 1_555 1_555
H3 C1 1_555 1_555
C2 N1 1_555 1_555
H4 C2 1_555 1_555
C3 C2 1_555 1_555
H5 C3 1_555 1_555
C4 C3 1_555 1_555
C5 C4 1_555 1_555
H6 C5 1_555 1_555
C6 N1 1_555 1_555
H7 C6 1_555 1_555
C7 C4 1_555 1_555
C8 C7 1_555 1_555
H8 C8 1_555 1_555
C9 C8 1_555 1_555
H9 C9 1_555 1_555
C10 N2 1_555 1_555
H10 C10 1_555 1_555
C11 C7 1_555 1_555
H11 C11 1_555 1_555
C12 N2 1_555 1_555
H12 C12 1_555 1_555
H13 C12 1_555 1_555
C13 C12 1_555 1_555
C14 C13 1_555 1_555
H14 C14 1_555 1_555
C15 C14 1_555 1_555
H15 C15 1_555 1_555
C16 C15 1_555 1_555
C17 C16 1_555 1_555
H16 C17 1_555 1_555
C18 C13 1_555 1_555
H17 C18 1_555 1_555
C19 C16 1_555 1_555
H18 C19 1_555 1_555
H19 C19 1_555 1_555
C20 N3 1_555 1_555
H20 C20 1_555 1_555
C21 C20 1_555 1_555
H21 C21 1_555 1_555
C22 C21 1_555 1_555
C23 C22 1_555 1_555
H22 C23 1_555 1_555
C24 N3 1_555 1_555
H23 C24 1_555 1_555
C25 C22 1_555 1_555
C26 C25 1_555 1_555
H24 C26 1_555 1_555
C27 C26 1_555 1_555
H25 C27 1_555 1_555
C28 N4 1_555 1_555
H26 C28 1_555 1_555
C29 C25 1_555 1_555
H27 C29 1_555 1_555
C30 N4 1_555 1_555
H28 C30 1_555 1_555
H29 C30 1_555 1_555
C31 C30 1_555 1_555
C32 C31 1_555 1_555
H30 C32 1_555 1_555
C33 C32 1_555 1_555
H31 C33 1_555 1_555
C34 C33 1_555 1_555
C35 C34 1_555 1_555
H32 C35 1_555 1_555
C36 C31 1_555 1_555
H33 C36 1_555 1_555
C37 C34 1_555 1_555
H34 C37 1_555 1_555
H35 C37 1_555 1_555
C38 N5 1_555 1_555
H36 C38 1_555 1_555
C39 C38 1_555 1_555
H37 C39 1_555 1_555
C40 C39 1_555 1_555
C41 C40 1_555 1_555
H38 C41 1_555 1_555
C42 N5 1_555 1_555
H39 C42 1_555 1_555
C43 C40 1_555 1_555
C44 C43 1_555 1_555
H40 C44 1_555 1_555
C45 C44 1_555 1_555
H41 C45 1_555 1_555
C46 N6 1_555 1_555
H42 C46 1_555 1_555
C47 C43 1_555 1_555
H43 C47 1_555 1_555
C48 N6 1_555 1_555
H44 C48 1_555 1_555
H45 C48 1_555 1_555
H46 C48 1_555 1_555
N7 C49 1_555 1_555
N8 C57 1_555 1_555
N9 C67 1_555 1_555
N10 C75 1_555 1_555
N11 C85 1_555 1_555
N12 C93 1_555 1_555
C49 H47 1_555 1_555
H48 C49 1_555 1_555
H49 C49 1_555 1_555
C50 N7 1_555 1_555
H50 C50 1_555 1_555
C51 C50 1_555 1_555
H51 C51 1_555 1_555
C52 C51 1_555 1_555
C53 C52 1_555 1_555
H52 C53 1_555 1_555
C54 N7 1_555 1_555
H53 C54 1_555 1_555
C55 C52 1_555 1_555
C56 C55 1_555 1_555
H54 C56 1_555 1_555
C57 C56 1_555 1_555
H55 C57 1_555 1_555
C58 N8 1_555 1_555
H56 C58 1_555 1_555
C59 C55 1_555 1_555
H57 C59 1_555 1_555
C60 N8 1_555 1_555
H58 C60 1_555 1_555
H59 C60 1_555 1_555
C61 C60 1_555 1_555
C62 C61 1_555 1_555
H60 C62 1_555 1_555
C63 C62 1_555 1_555
H61 C63 1_555 1_555
C64 C63 1_555 1_555
C65 C64 1_555 1_555
H62 C65 1_555 1_555
C66 C61 1_555 1_555
H63 C66 1_555 1_555
C67 C64 1_555 1_555
H64 C67 1_555 1_555
H65 C67 1_555 1_555
C68 N9 1_555 1_555
H66 C68 1_555 1_555
C69 C68 1_555 1_555
H67 C69 1_555 1_555
C70 C69 1_555 1_555
C71 C70 1_555 1_555
H68 C71 1_555 1_555
C72 N9 1_555 1_555
H69 C72 1_555 1_555
C73 C70 1_555 1_555
C74 C73 1_555 1_555
H70 C74 1_555 1_555
C75 C74 1_555 1_555
H71 C75 1_555 1_555
C76 N10 1_555 1_555
H72 C76 1_555 1_555
C77 C73 1_555 1_555
H73 C77 1_555 1_555
C78 N10 1_555 1_555
H74 C78 1_555 1_555
H75 C78 1_555 1_555
C79 C78 1_555 1_555
C80 C79 1_555 1_555
H76 C80 1_555 1_555
C81 C80 1_555 1_555
H77 C81 1_555 1_555
C82 C81 1_555 1_555
C83 C82 1_555 1_555
H78 C83 1_555 1_555
C84 C79 1_555 1_555
H79 C84 1_555 1_555
C85 C82 1_555 1_555
H80 C85 1_555 1_555
H81 C85 1_555 1_555
C86 N11 1_555 1_555
H82 C86 1_555 1_555
C87 C86 1_555 1_555
H83 C87 1_555 1_555
C88 C87 1_555 1_555
C89 C88 1_555 1_555
H84 C89 1_555 1_555
C90 N11 1_555 1_555
H85 C90 1_555 1_555
C91 C88 1_555 1_555
C92 C91 1_555 1_555
H86 C92 1_555 1_555
C93 C92 1_555 1_555
H87 C93 1_555 1_555
C94 N12 1_555 1_555
H88 C94 1_555 1_555
C95 C91 1_555 1_555
H89 C95 1_555 1_555
C96 N12 1_555 1_555
H90 C96 1_555 1_555
H91 C96 1_555 1_555
H92 C96 1_555 1_555
P1 F1 1_555 1_555
F2 P1 1_555 1_555
F3 P1 1_555 1_555
F4 P1 1_555 1_555
P2 F5 1_555 1_555
F6 P2 1_555 1_555
F7 P2 1_555 1_555
F8 P2 1_555 1_555
P3 F9 1_555 1_555
F10 P3 1_555 1_555
F11 P3 1_555 1_555
F12 P3 1_555 1_555
P4 F13 1_555 1_555
F14 P4 1_555 1_555
F15 P4 1_555 1_555
F16 P4 1_555 1_555
F17 P4 1_555 1_555
F18 P4 1_555 1_555
P5 F19 1_555 1_555
F20 P5 1_555 1_555
F21 P5 1_555 1_555
F22 P5 1_555 1_555
F23 P5 1_555 1_555
F24 P5 1_555 1_555
P6 F25 1_555 1_555
F26 P6 1_555 1_555
F27 P6 1_555 1_555
F28 P6 1_555 1_555
F29 P6 1_555 1_555
F30 P6 1_555 1_555
P7 F35 1_555 1_555
F36 P7 1_555 1_555
F37 P7 1_555 1_555
F38 P7 1_555 1_555
F39 P7 1_555 1_555
F40 P7 1_555 1_555
P8 F41 1_555 1_555
F42 P8 1_555 1_555
F43 P8 1_555 1_555
F44 P8 1_555 1_555
F45 P8 1_555 1_555
F46 P8 1_555 1_555
F1G P1 1_555 1_555
F3G P1 1_555 1_555
F6G P2 1_555 1_555
F8G P2 1_555 1_555
F10G P3 1_555 1_555
F12G P3 1_555 1_555
C5 C6 1_555 1_555
C10 C11 1_555 1_555
C17 C18 1_555 1_555
C23 C24 1_555 1_555
C28 C29 1_555 1_555
C35 C36 1_555 1_555
C41 C42 1_555 1_555
C46 C47 1_555 1_555
C53 C54 1_555 1_555
C58 C59 1_555 1_555
C65 C66 1_555 1_555
C71 C72 1_555 1_555
C76 C77 1_555 1_555
C83 C84 1_555 1_555
C89 C90 1_555 1_555
C94 C95 1_555 1_555

#END
