
#######################################################################
#
#                 Cambridge Crystallographic Data Centre
#                                CCDC 
#
#######################################################################
#
# If this CIF has been generated from an entry in the Cambridge 
# Structural Database, then it will include bibliographic, chemical, 
# crystal, experimental, refinement or atomic coordinate data resulting 
# from the CCDC's data processing and validation procedures.
#
#######################################################################

data_ROXTOP
_chemical_formula_moiety         
'C37 H45 N1 O14,C12 H14 N2 2+,2(F6 P1 1-),2(C2 H3 N1)'
_chemical_name_systematic        
"[2]-(1,1'-Dimethyl-4,4'-bipyridinium)-(5,8,11,14,17,25,33,37,40,43,46,49-dodecaoxa-29-azapentacyclo[19.15.13.1^27,31^.0^4,35^.0^18,23^]pentaconta-1,3,18,20,22,27(50),28,30,35-nonaene-26,32-dione) pseudorotaxane bis(hexafluorophosphate) acetonitrile solvate"
_symmetry_cell_setting           triclinic
_symmetry_space_group_name_H-M   'P -1'
_symmetry_Int_Tables_number      2
_space_group_name_Hall           '-P 1'
loop_
_symmetry_equiv_pos_site_id
_symmetry_equiv_pos_as_xyz
1 x,y,z
2 -x,-y,-z
_cell_length_a                   11.3472(12)
_cell_length_b                   14.2616(11)
_cell_length_c                   19.9432(13)
_cell_angle_alpha                107.080(6)
_cell_angle_beta                 100.648(7)
_cell_angle_gamma                100.236(8)
_cell_volume                     2938.04
_exptl_crystal_colour            yellow
_exptl_crystal_description       block
_cell_formula_units_Z            2
loop_
_atom_site_label
_atom_site_type_symbol
_atom_site_fract_x
_atom_site_fract_y
_atom_site_fract_z
P1 P 0.73123(10) 1.36591(7) 0.37067(5)
F1 F 0.7263(3) 1.48061(19) 0.39999(16)
F2 F 0.8779(2) 1.4009(2) 0.38643(16)
F3 F 0.7373(3) 1.25074(17) 0.33955(14)
F4 F 0.5860(3) 1.3296(3) 0.35232(18)
F5 F 0.7201(3) 1.3730(2) 0.29125(14)
F6 F 0.7458(3) 1.3584(2) 0.44898(13)
P2 P 0.24165(10) 0.53939(7) -0.04748(5)
F7 F 0.2471(3) 0.65649(18) -0.01316(15)
F8 F 0.3823(3) 0.5690(3) -0.0452(2)
F9 F 0.2352(3) 0.42238(18) -0.08239(13)
F10 F 0.1031(3) 0.5119(3) -0.0473(3)
F11 F 0.2058(5) 0.5473(2) -0.12494(16)
F12 F 0.2814(4) 0.5330(2) 0.03040(14)
O1 O 0.1827(3) 0.8680(2) 0.52208(16)
O2 O 0.1937(2) 0.90830(19) 0.42188(13)
O3 O -0.0214(3) 0.73603(18) 0.31824(13)
O4 O 0.1101(2) 0.58596(18) 0.32665(14)
O5 O 0.3437(2) 0.53701(18) 0.33155(13)
O6 O 0.4983(2) 0.60830(19) 0.25017(15)
O7 O 0.5711(2) 0.77779(18) 0.20860(13)
O8 O 0.5893(2) 0.93552(18) 0.34895(13)
O9 O 0.7409(3) 0.8797(3) 0.40441(18)
O10 O 0.4966(3) 1.09049(19) 0.10927(13)
O11 O 0.3787(2) 1.24702(19) 0.09741(15)
O12 O 0.1502(2) 1.30094(19) 0.09883(14)
O13 O -0.0119(2) 1.21893(18) 0.17292(14)
O14 O -0.0860(3) 1.04970(18) 0.21737(14)
N1 N 0.5372(3) 0.8249(3) 0.54711(17)
C1 C 0.6015(4) 0.8439(3) 0.4996(2)
H1 H 0.6843 0.8371 0.5066
C2 C 0.5544(3) 0.8722(3) 0.44203(19)
C3 C 0.4344(3) 0.8856(3) 0.43337(18)
H2 H 0.4002 0.9087 0.3958
C4 C 0.3654(3) 0.8647(3) 0.48046(18)
C5 C 0.4216(4) 0.8363(3) 0.5359(2)
H3 H 0.3749 0.8239 0.5687
C6 C 0.2380(4) 0.8789(3) 0.47748(19)
C7 C 0.0707(3) 0.9281(3) 0.41639(19)
H4 H 0.0780 0.9990 0.4460
H5 H 0.0195 0.8830 0.4351
C8 C 0.0103(3) 0.9102(3) 0.33894(18)
C9 C -0.0387(3) 0.8111(3) 0.29050(19)
C10 C -0.1020(3) 0.7946(3) 0.21993(19)
H6 H -0.1362 0.7275 0.1871
C11 C -0.1154(4) 0.8762(3) 0.19727(19)
H7 H -0.1596 0.8642 0.1490
C12 C -0.0652(3) 0.9751(3) 0.24429(19)
C13 C -0.0024(3) 0.9912(2) 0.31562(18)
H8 H 0.0319 1.0584 0.3484
C14 C -0.0596(4) 0.6346(3) 0.2682(2)
H9 H -0.0203 0.6295 0.2273
H10 H -0.1505 0.6151 0.2485
C15 C -0.0214(3) 0.5659(3) 0.3074(2)
H11 H -0.0762 0.5166 0.3179
C16 C 0.1513(4) 0.5230(3) 0.3650(2)
H12 H 0.1255 0.4515 0.3326
H13 H 0.1137 0.5286 0.4066
C17 C 0.2888(4) 0.5555(3) 0.3914(2)
H14 H 0.3146 0.6285 0.4204
H15 H 0.3174 0.5176 0.4230
C18 C 0.4752(4) 0.5681(3) 0.3556(2)
H16 H 0.5047 0.5309 0.3875
H17 H 0.5013 0.6413 0.3841
C19 C 0.5315(4) 0.5478(3) 0.2927(3)
H18 H 0.6227 0.5639 0.3101
H19 H 0.5020 0.4753 0.2626
C20 C 0.5740(4) 0.6107(3) 0.2010(3)
H20 H 0.5633 0.5413 0.1675
H21 H 0.6621 0.6371 0.2281
C21 C 0.5396(4) 0.6761(3) 0.1590(2)
H22 H 0.5851 0.6718 0.1208
H23 H 0.4498 0.6543 0.1356
C22 C 0.5519(3) 0.8525(3) 0.18154(18)
C23 C 0.4898(4) 0.8358(3) 0.11018(19)
H24 H 0.4587 0.7688 0.0767
C24 C 0.4736(4) 0.9175(3) 0.08846(19)
H25 H 0.4322 0.9061 0.0397
C25 C 0.5170(3) 1.0152(3) 0.13688(19)
C26 C 0.5792(3) 1.0318(3) 0.20813(18)
H26 H 0.6093 1.0991 0.2414
C27 C 0.5974(3) 0.9515(3) 0.23094(17)
C28 C 0.6716(3) 0.9682(3) 0.30587(18)
H27 H 0.7356 0.9292 0.3029
H28 H 0.7138 1.0409 0.3300
C29 C 0.6390(4) 0.8947(3) 0.3969(2)
C30 C -0.0420(4) 1.1516(3) 0.2666(2)
H29 H 0.0491 1.1682 0.2847
H30 H -0.0788 1.1595 0.3086
C31 C -0.0777(4) 1.2213(3) 0.2276(2)
H31 H -0.1353 1.2610 0.2377
C32 C -0.0350(4) 1.2919(3) 0.1395(2)
H32 H 0.0029 1.3610 0.1747
H33 H -0.1252 1.2843 0.1241
C33 C 0.0187(4) 1.2769(3) 0.0754(2)
H34 H -0.0277 1.2548 0.0264
C34 C 0.2069(4) 1.2942(4) 0.0402(2)
H35 H 0.1829 1.3413 0.0153
H36 H 0.1782 1.2246 0.0046
C35 C 0.3440(4) 1.3204(3) 0.0676(3)
H37 H 0.3834 1.3217 0.0274
H38 H 0.3725 1.3884 0.1052
C36 C 0.5096(4) 1.2613(3) 0.1168(2)
H39 H 0.5678 1.3075 0.1058
C37 C 0.5411(3) 1.1923(3) 0.1572(2)
H40 H 0.6319 1.2079 0.1764
H41 H 0.5025 1.2020 0.1986
N2 N 0.1980(3) 0.6600(2) 0.17596(15)
N3 N 0.2772(3) 1.1807(2) 0.24063(15)
C38 C 0.2866(4) 0.7274(3) 0.2304(2)
H42 H 0.3383 0.7051 0.2625
C39 C 0.3051(4) 0.8291(3) 0.2411(2)
H43 H 0.3713 0.8759 0.2793
C40 C 0.2287(3) 0.8642(2) 0.19702(17)
C41 C 0.1393(4) 0.7923(3) 0.1396(2)
H44 H 0.0865 0.8127 0.1068
C42 C 0.1264(4) 0.6916(3) 0.1297(2)
H45 H 0.0656 0.6429 0.0894
C43 C 0.1825(4) 0.5511(3) 0.1668(2)
H46 H 0.1038 0.5120 0.1317
H47 H 0.1827 0.5416 0.2135
H48 H 0.2508 0.5278 0.1490
C44 C 0.2454(3) 0.9752(2) 0.21140(17)
C45 C 0.3069(4) 1.0450(3) 0.27966(19)
H49 H 0.3388 1.0215 0.3175
C46 C 0.3221(3) 1.1463(3) 0.29330(19)
H50 H 0.3646 1.1928 0.3402
C47 C 0.2161(4) 1.1168(3) 0.17412(19)
H51 H 0.1835 1.1425 0.1378
C48 C 0.2004(4) 1.0141(3) 0.15832(19)
H52 H 0.1585 0.9694 0.1108
C49 C 0.2934(4) 1.2916(3) 0.2574(2)
H53 H 0.2665 1.3056 0.2125
H54 H 0.3808 1.3263 0.2798
H55 H 0.2435 1.3160 0.2908
N4 N 0.1988(5) 1.2798(4) 0.4125(2)
C50 C 0.0588(5) 1.3226(4) 0.4989(3)
H56 H -0.0274 1.2876 0.4731
H57 H 0.0671 1.3959 0.5159
H58 H 0.0831 1.3008 0.5406
C51 C 0.1379(5) 1.2984(4) 0.4506(2)
N5 N 0.0460(7) 1.0451(9) -0.0398(6)
C52 C 0.2403(6) 0.9879(5) -0.0454(3)
H59 H 0.3103 1.0425 -0.0121
H60 H 0.2512 0.9719 -0.0948
H61 H 0.2366 0.9276 -0.0310
C53 C 0.1330(7) 1.0179(6) -0.0433(4)
loop_
_geom_bond_atom_site_label_1
_geom_bond_atom_site_label_2
_geom_bond_site_symmetry_1
_geom_bond_site_symmetry_2
P1 F1 1_555 1_555
F2 P1 1_555 1_555
F3 P1 1_555 1_555
F4 P1 1_555 1_555
F5 P1 1_555 1_555
F6 P1 1_555 1_555
P2 F7 1_555 1_555
F8 P2 1_555 1_555
F9 P2 1_555 1_555
F10 P2 1_555 1_555
F11 P2 1_555 1_555
F12 P2 1_555 1_555
O1 C6 1_555 1_555
O2 C6 1_555 1_555
O3 C9 1_555 1_555
O4 C15 1_555 1_555
O5 C17 1_555 1_555
O6 C19 1_555 1_555
O7 C21 1_555 1_555
O8 C28 1_555 1_555
O9 C29 1_555 1_555
O10 C25 1_555 1_555
O11 C35 1_555 1_555
O12 C33 1_555 1_555
O13 C31 1_555 1_555
O14 C12 1_555 1_555
N1 C1 1_555 1_555
C1 H1 1_555 1_555
C2 C1 1_555 1_555
C3 C2 1_555 1_555
H2 C3 1_555 1_555
C4 C3 1_555 1_555
C5 N1 1_555 1_555
H3 C5 1_555 1_555
C6 C4 1_555 1_555
C7 O2 1_555 1_555
H4 C7 1_555 1_555
H5 C7 1_555 1_555
C8 C7 1_555 1_555
C9 C8 1_555 1_555
C10 C9 1_555 1_555
H6 C10 1_555 1_555
C11 C10 1_555 1_555
H7 C11 1_555 1_555
C12 C11 1_555 1_555
C13 C8 1_555 1_555
H8 C13 1_555 1_555
C14 O3 1_555 1_555
H9 C14 1_555 1_555
H10 C14 1_555 1_555
C15 C14 1_555 1_555
H11 C15 1_555 1_555
C16 O4 1_555 1_555
H12 C16 1_555 1_555
H13 C16 1_555 1_555
C17 C16 1_555 1_555
H14 C17 1_555 1_555
H15 C17 1_555 1_555
C18 O5 1_555 1_555
H16 C18 1_555 1_555
H17 C18 1_555 1_555
C19 C18 1_555 1_555
H18 C19 1_555 1_555
H19 C19 1_555 1_555
C20 O6 1_555 1_555
H20 C20 1_555 1_555
H21 C20 1_555 1_555
C21 C20 1_555 1_555
H22 C21 1_555 1_555
H23 C21 1_555 1_555
C22 O7 1_555 1_555
C23 C22 1_555 1_555
H24 C23 1_555 1_555
C24 C23 1_555 1_555
H25 C24 1_555 1_555
C25 C24 1_555 1_555
C26 C25 1_555 1_555
H26 C26 1_555 1_555
C27 C22 1_555 1_555
C28 C27 1_555 1_555
H27 C28 1_555 1_555
H28 C28 1_555 1_555
C29 O8 1_555 1_555
C30 O14 1_555 1_555
H29 C30 1_555 1_555
H30 C30 1_555 1_555
C31 C30 1_555 1_555
H31 C31 1_555 1_555
C32 O13 1_555 1_555
H32 C32 1_555 1_555
H33 C32 1_555 1_555
C33 C32 1_555 1_555
H34 C33 1_555 1_555
C34 O12 1_555 1_555
H35 C34 1_555 1_555
H36 C34 1_555 1_555
C35 C34 1_555 1_555
H37 C35 1_555 1_555
H38 C35 1_555 1_555
C36 O11 1_555 1_555
H39 C36 1_555 1_555
C37 O10 1_555 1_555
H40 C37 1_555 1_555
H41 C37 1_555 1_555
N2 C38 1_555 1_555
N3 C46 1_555 1_555
C38 H42 1_555 1_555
C39 C38 1_555 1_555
H43 C39 1_555 1_555
C40 C39 1_555 1_555
C41 C40 1_555 1_555
H44 C41 1_555 1_555
C42 N2 1_555 1_555
H45 C42 1_555 1_555
C43 N2 1_555 1_555
H46 C43 1_555 1_555
H47 C43 1_555 1_555
H48 C43 1_555 1_555
C44 C40 1_555 1_555
C45 C44 1_555 1_555
H49 C45 1_555 1_555
C46 C45 1_555 1_555
H50 C46 1_555 1_555
C47 N3 1_555 1_555
H51 C47 1_555 1_555
C48 C44 1_555 1_555
H52 C48 1_555 1_555
C49 N3 1_555 1_555
H53 C49 1_555 1_555
H54 C49 1_555 1_555
H55 C49 1_555 1_555
N4 C51 1_555 1_555
C50 H56 1_555 1_555
H57 C50 1_555 1_555
H58 C50 1_555 1_555
C51 C50 1_555 1_555
N5 C53 1_555 1_555
C52 H59 1_555 1_555
H60 C52 1_555 1_555
H61 C52 1_555 1_555
C53 C52 1_555 1_555
C2 C29 1_555 1_555
C4 C5 1_555 1_555
C12 C13 1_555 1_555
C26 C27 1_555 1_555
C36 C37 1_555 1_555
C41 C42 1_555 1_555
C47 C48 1_555 1_555

#END
