
#######################################################################
#
#                 Cambridge Crystallographic Data Centre
#                                CCDC 
#
#######################################################################
#
# If this CIF has been generated from an entry in the Cambridge 
# Structural Database, then it will include bibliographic, chemical, 
# crystal, experimental, refinement or atomic coordinate data resulting 
# from the CCDC's data processing and validation procedures.
#
#######################################################################

data_ROXTIJ
_chemical_formula_moiety         
'C37 H45 N1 O14,C12 H14 N2 2+,1.5(C2 H3 N1),2(F6 P1 1-)'
_chemical_name_systematic        
"[2]-(1,1'-Dimethyl-4,4'-bipyridinium)-(5,8,11,14,17,25,33,37,40,43,46,49-dodecaoxa-50-azapentacyclo[19.15.13.1^27,31^.0^4,35^.0^18,23^]pentaconta-1,3,18,20,22,27(50),28,30,35-nonaene-26,32-dione) pseudorotaxane hexafluorophosphate acetonitrile solvate"
_symmetry_cell_setting           triclinic
_symmetry_space_group_name_H-M   'P -1'
_symmetry_Int_Tables_number      2
_space_group_name_Hall           '-P 1'
loop_
_symmetry_equiv_pos_site_id
_symmetry_equiv_pos_as_xyz
1 x,y,z
2 -x,-y,-z
_cell_length_a                   11.1143(6)
_cell_length_b                   14.3607(9)
_cell_length_c                   20.1825(11)
_cell_angle_alpha                108.268(5)
_cell_angle_beta                 98.444(4)
_cell_angle_gamma                101.238(5)
_cell_volume                     2924.58
_exptl_crystal_colour            yellow
_exptl_crystal_description       block
_cell_formula_units_Z            2
loop_
_atom_site_label
_atom_site_type_symbol
_atom_site_fract_x
_atom_site_fract_y
_atom_site_fract_z
O1 O 0.3574(3) 0.6447(3) 0.50140(18)
O2 O 0.3196(2) 0.57447(16) 0.58347(11)
O3 O 0.5254(2) 0.75018(16) 0.68587(12)
O4 O 0.4142(2) 0.90797(17) 0.67518(12)
O5 O 0.1851(2) 0.96453(16) 0.67756(11)
O6 O 0.02351(19) 0.88118(16) 0.75492(12)
O7 O -0.0487(2) 0.71017(16) 0.79597(12)
O8 O -0.06199(19) 0.55146(16) 0.65905(11)
O9 O -0.2208(3) 0.5925(3) 0.60292(19)
O10 O 0.5935(2) 0.44319(17) 0.78626(13)
O11 O 0.5303(2) 0.27640(18) 0.83009(14)
O12 O 0.3669(2) 0.20013(17) 0.90728(12)
O13 O 0.1357(2) 0.25434(17) 0.91058(13)
O14 O 0.0051(3) 0.40165(18) 0.89801(13)
N1 N 0.0878(2) 0.60584(18) 0.57528(13)
C1 C -0.0286(3) 0.6196(2) 0.56760(17)
C2 C -0.0773(4) 0.6608(3) 0.51931(18)
H1 H -0.1609 0.6681 0.5152
C3 C -0.0023(4) 0.6908(3) 0.47765(18)
H2 H -0.0325 0.7211 0.4452
C4 C 0.1169(4) 0.6767(3) 0.48344(17)
H3 H 0.1699 0.6956 0.4544
C5 C 0.1582(3) 0.6343(2) 0.53255(16)
C6 C 0.2887(4) 0.6190(3) 0.53750(18)
C7 C 0.4447(3) 0.5559(3) 0.58913(17)
H4 H 0.4988 0.6005 0.5706
H5 H 0.4384 0.4845 0.5603
C8 C 0.5011(3) 0.5769(2) 0.66611(17)
C9 C 0.5155(3) 0.4983(2) 0.68963(18)
H6 H 0.4851 0.4302 0.6573
C10 C 0.5740(3) 0.5179(2) 0.75988(18)
C11 C 0.6171(3) 0.6176(2) 0.80700(18)
H7 H 0.6569 0.6315 0.8553
C12 C 0.6026(3) 0.6968(2) 0.78418(17)
H8 H 0.6325 0.7648 0.8168
C13 C 0.5445(3) 0.6772(2) 0.71374(17)
C14 C 0.5750(3) 0.8533(2) 0.73204(18)
H9 H 0.6671 0.8673 0.7492
H10 H 0.5365 0.8666 0.7742
C15 C 0.5470(3) 0.9205(3) 0.6919(2)
H11 H 0.5898 0.9922 0.7213
H12 H 0.5782 0.9027 0.6472
C16 C 0.3808(3) 0.9767(3) 0.64217(19)
H13 H 0.4205 0.9722 0.6008
H14 H 0.4111 1.0471 0.6768
C17 C 0.2417(3) 0.9498(3) 0.61778(17)
H15 H 0.2177 0.9928 0.5908
H16 H 0.2113 0.8781 0.5854
C18 C 0.0519(3) 0.9328(3) 0.65563(19)
H17 H 0.0256 0.8603 0.6246
H18 H 0.0222 0.9725 0.6274
C19 C -0.0062(3) 0.9472(3) 0.7186(2)
H19 H 0.0255 1.0185 0.7517
H20 H -0.0986 0.9327 0.7028
C20 C -0.0522(4) 0.8774(3) 0.8052(2)
H21 H -0.1419 0.8499 0.7800
H22 H -0.0416 0.9468 0.8392
C21 C -0.0163(3) 0.8123(2) 0.84520(18)
H23 H 0.0752 0.8350 0.8665
H24 H -0.0618 0.8168 0.8843
C22 C -0.0326(3) 0.6366(2) 0.82322(17)
C23 C 0.0234(3) 0.6549(2) 0.89386(18)
H25 H 0.0539 0.7226 0.9267
C24 C 0.0351(4) 0.5754(3) 0.91670(18)
H26 H 0.0732 0.5888 0.9652
C25 C -0.0082(3) 0.4761(2) 0.86953(18)
C26 C -0.0634(3) 0.4568(2) 0.79858(17)
H27 H -0.0923 0.3888 0.7660
C27 C -0.0769(3) 0.5364(2) 0.77466(16)
C28 C -0.1468(3) 0.5162(3) 0.70027(17)
H28 H -0.1855 0.4425 0.6762
H29 H -0.2151 0.5514 0.7023
C29 C -0.1135(3) 0.5874(3) 0.61217(19)
C30 C -0.0300(3) 0.3000(2) 0.84990(19)
H30 H 0.0153 0.2935 0.8106
H31 H -0.1216 0.2793 0.8287
C31 C 0.0025(3) 0.2339(3) 0.8905(2)
H32 H -0.0331 0.2477 0.9337
H33 H -0.0335 0.1616 0.8602
C32 C 0.1732(4) 0.1885(3) 0.9449(2)
H34 H 0.1438 0.1173 0.9113
H35 H 0.1350 0.1938 0.9869
C33 C 0.3121(3) 0.2173(3) 0.9682(2)
H36 H 0.3417 0.2898 0.9990
H37 H 0.3385 0.1766 0.9965
C34 C 0.4996(3) 0.2212(3) 0.9276(2)
H38 H 0.5228 0.1758 0.9526
H39 H 0.5343 0.2922 0.9608
C35 C 0.5536(4) 0.2055(3) 0.8628(2)
H40 H 0.6454 0.2141 0.8765
H41 H 0.5153 0.1357 0.8283
C36 C 0.6018(4) 0.2760(3) 0.7761(2)
H42 H 0.5875 0.2057 0.7425
H43 H 0.6927 0.3024 0.7988
C37 C 0.5621(4) 0.3410(3) 0.7361(2)
H44 H 0.6066 0.3377 0.6967
H45 H 0.4704 0.3172 0.7153
N2 N 0.3092(2) 0.84165(18) 0.81866(13)
N3 N 0.2366(2) 0.32345(19) 0.76298(14)
C38 C 0.2547(3) 0.7720(2) 0.75359(16)
H46 H 0.2266 0.7932 0.7152
C39 C 0.3487(3) 0.8129(2) 0.87373(16)
H47 H 0.3875 0.8629 0.9196
C40 C 0.3335(3) 0.7125(2) 0.86424(16)
H48 H 0.3605 0.6932 0.9037
C41 C 0.2784(3) 0.6378(2) 0.79694(15)
C42 C 0.2392(3) 0.6703(2) 0.74174(16)
H49 H 0.2012 0.6219 0.6952
C43 C 0.3258(3) 0.9513(2) 0.83069(17)
H50 H 0.3077 0.9605 0.7845
H51 H 0.4126 0.9884 0.8559
H52 H 0.2679 0.9773 0.8596
C44 C 0.2631(3) 0.5283(2) 0.78553(15)
C45 C 0.3192(3) 0.4951(2) 0.83679(17)
H53 H 0.3685 0.5435 0.8811
C46 C 0.3050(3) 0.3933(2) 0.82481(17)
H54 H 0.3442 0.3726 0.8609
C47 C 0.1795(3) 0.3526(3) 0.71200(18)
H55 H 0.1301 0.3025 0.6683
C48 C 0.1913(3) 0.4529(2) 0.72200(17)
H56 H 0.1501 0.4714 0.6852
C49 C 0.2229(3) 0.2142(2) 0.74951(19)
H57 H 0.2712 0.1878 0.7143
H58 H 0.1339 0.1775 0.7311
H59 H 0.2546 0.2048 0.7943
P1 P 0.24990(8) -0.02941(6) 1.05106(4)
F1 F 0.2306(2) -0.02140(16) 0.97360(11)
F2 F 0.2518(2) 0.08709(14) 1.08447(11)
F3 F 0.2675(3) -0.03846(18) 1.12813(11)
F4 F 0.2482(2) -0.14670(14) 1.01703(11)
F5 F 0.1028(2) -0.06112(18) 1.04148(15)
F6 F 0.3967(2) 0.0004(2) 1.05951(18)
P2 P -0.19508(9) 0.12406(7) 0.62670(5)
F7 F -0.2416(3) 0.11807(19) 0.54785(12)
F8 F -0.1852(3) 0.24229(17) 0.65280(14)
F9 F -0.1513(5) 0.1306(2) 0.70550(15)
F10 F -0.2058(2) 0.00633(15) 0.60169(13)
F11 F -0.3357(3) 0.1021(2) 0.6332(2)
F12 F -0.0560(3) 0.1457(3) 0.6193(3)
N4 N 0.2864(4) 0.2335(4) 0.5831(2)
C50 C 0.3581(4) 0.2021(3) 0.5550(2)
C51 C 0.4508(4) 0.1608(4) 0.5208(3)
H60 H 0.4120 0.0908 0.4884
H61 H 0.5202 0.1618 0.5574
H62 H 0.4833 0.2018 0.4935
N5? N 0.5000 0.5000 1.0000
C52? C 0.6284(10) 0.5017(6) 0.9726(4)
C53? C 0.7414(5) 0.5011(6) 0.9558(4)
H63? H 0.7339 0.4927 0.9051
H64? H 0.7700 0.4448 0.9646
H65? H 0.8025 0.5653 0.9853
loop_
_geom_bond_atom_site_label_1
_geom_bond_atom_site_label_2
_geom_bond_site_symmetry_1
_geom_bond_site_symmetry_2
O1 C6 1_555 1_555
O2 C6 1_555 1_555
O3 C13 1_555 1_555
O4 C15 1_555 1_555
O5 C17 1_555 1_555
O6 C19 1_555 1_555
O7 C21 1_555 1_555
O8 C28 1_555 1_555
O9 C29 1_555 1_555
O10 C10 1_555 1_555
O11 C35 1_555 1_555
O12 C33 1_555 1_555
O13 C31 1_555 1_555
O14 C25 1_555 1_555
N1 C1 1_555 1_555
C1 C2 1_555 1_555
C2 H1 1_555 1_555
C3 C2 1_555 1_555
H2 C3 1_555 1_555
C4 C3 1_555 1_555
H3 C4 1_555 1_555
C5 N1 1_555 1_555
C6 C5 1_555 1_555
C7 O2 1_555 1_555
H4 C7 1_555 1_555
H5 C7 1_555 1_555
C8 C7 1_555 1_555
C9 C8 1_555 1_555
H6 C9 1_555 1_555
C10 C9 1_555 1_555
C11 C10 1_555 1_555
H7 C11 1_555 1_555
C12 C11 1_555 1_555
H8 C12 1_555 1_555
C13 C8 1_555 1_555
C14 O3 1_555 1_555
H9 C14 1_555 1_555
H10 C14 1_555 1_555
C15 C14 1_555 1_555
H11 C15 1_555 1_555
H12 C15 1_555 1_555
C16 O4 1_555 1_555
H13 C16 1_555 1_555
H14 C16 1_555 1_555
C17 C16 1_555 1_555
H15 C17 1_555 1_555
H16 C17 1_555 1_555
C18 O5 1_555 1_555
H17 C18 1_555 1_555
H18 C18 1_555 1_555
C19 C18 1_555 1_555
H19 C19 1_555 1_555
H20 C19 1_555 1_555
C20 O6 1_555 1_555
H21 C20 1_555 1_555
H22 C20 1_555 1_555
C21 C20 1_555 1_555
H23 C21 1_555 1_555
H24 C21 1_555 1_555
C22 O7 1_555 1_555
C23 C22 1_555 1_555
H25 C23 1_555 1_555
C24 C23 1_555 1_555
H26 C24 1_555 1_555
C25 C24 1_555 1_555
C26 C25 1_555 1_555
H27 C26 1_555 1_555
C27 C22 1_555 1_555
C28 C27 1_555 1_555
H28 C28 1_555 1_555
H29 C28 1_555 1_555
C29 O8 1_555 1_555
C30 O14 1_555 1_555
H30 C30 1_555 1_555
H31 C30 1_555 1_555
C31 C30 1_555 1_555
H32 C31 1_555 1_555
H33 C31 1_555 1_555
C32 O13 1_555 1_555
H34 C32 1_555 1_555
H35 C32 1_555 1_555
C33 C32 1_555 1_555
H36 C33 1_555 1_555
H37 C33 1_555 1_555
C34 O12 1_555 1_555
H38 C34 1_555 1_555
H39 C34 1_555 1_555
C35 C34 1_555 1_555
H40 C35 1_555 1_555
H41 C35 1_555 1_555
C36 O11 1_555 1_555
H42 C36 1_555 1_555
H43 C36 1_555 1_555
C37 O10 1_555 1_555
H44 C37 1_555 1_555
H45 C37 1_555 1_555
N2 C38 1_555 1_555
N3 C46 1_555 1_555
C38 H46 1_555 1_555
C39 N2 1_555 1_555
H47 C39 1_555 1_555
C40 C39 1_555 1_555
H48 C40 1_555 1_555
C41 C40 1_555 1_555
C42 C38 1_555 1_555
H49 C42 1_555 1_555
C43 N2 1_555 1_555
H50 C43 1_555 1_555
H51 C43 1_555 1_555
H52 C43 1_555 1_555
C44 C41 1_555 1_555
C45 C44 1_555 1_555
H53 C45 1_555 1_555
C46 C45 1_555 1_555
H54 C46 1_555 1_555
C47 N3 1_555 1_555
H55 C47 1_555 1_555
C48 C44 1_555 1_555
H56 C48 1_555 1_555
C49 N3 1_555 1_555
H57 C49 1_555 1_555
H58 C49 1_555 1_555
H59 C49 1_555 1_555
P1 F1 1_555 1_555
F2 P1 1_555 1_555
F3 P1 1_555 1_555
F4 P1 1_555 1_555
F5 P1 1_555 1_555
F6 P1 1_555 1_555
P2 F7 1_555 1_555
F8 P2 1_555 1_555
F9 P2 1_555 1_555
F10 P2 1_555 1_555
F11 P2 1_555 1_555
F12 P2 1_555 1_555
N4 C50 1_555 1_555
C50 C51 1_555 1_555
C51 H60 1_555 1_555
H61 C51 1_555 1_555
H62 C51 1_555 1_555
C1 C29 1_555 1_555
C4 C5 1_555 1_555
C12 C13 1_555 1_555
C26 C27 1_555 1_555
C36 C37 1_555 1_555
C41 C42 1_555 1_555
C47 C48 1_555 1_555

#END
