
#######################################################################
#
#                 Cambridge Crystallographic Data Centre
#                                CCDC 
#
#######################################################################
#
# If this CIF has been generated from an entry in the Cambridge 
# Structural Database, then it will include bibliographic, chemical, 
# crystal, experimental, refinement or atomic coordinate data resulting 
# from the CCDC's data processing and validation procedures.
#
#######################################################################

data_ROYDUG
_chemical_formula_moiety         '2(C33 H22 B1 N3),C1 H2 Cl2'
_chemical_name_systematic        
'3,6,9-triphenyl-9cH-8b,9b,9d-triaza-9c-boratricyclopenta[cd,gh,kl]phenalene dichloromethane solvate'
_symmetry_cell_setting           monoclinic
_symmetry_space_group_name_H-M   'P 21/c'
_symmetry_Int_Tables_number      14
_space_group_name_Hall           '-P 2ybc'
loop_
_symmetry_equiv_pos_site_id
_symmetry_equiv_pos_as_xyz
1 x,y,z
2 -x,1/2+y,1/2-z
3 -x,-y,-z
4 x,1/2-y,1/2+z
_cell_length_a                   9.698(2)
_cell_length_b                   25.028(7)
_cell_length_c                   21.752(5)
_cell_angle_alpha                90
_cell_angle_beta                 98.422(5)
_cell_angle_gamma                90
_cell_volume                     5222.74
_exptl_crystal_colour            orange
_exptl_crystal_description       Prism
_cell_formula_units_Z            4
loop_
_atom_site_label
_atom_site_type_symbol
_atom_site_fract_x
_atom_site_fract_y
_atom_site_fract_z
C1 C 0.5313(2) 0.48001(8) 0.27263(9)
C2 C 0.5697(2) 0.42827(9) 0.25236(9)
H1 H 0.6482 0.4079 0.2702
C3 C 0.4731(2) 0.41328(8) 0.20263(9)
H2 H 0.4728 0.3807 0.1802
C4 C 0.3726(2) 0.45571(8) 0.19069(9)
C5 C 0.2736(2) 0.46944(8) 0.13770(9)
C6 C 0.2358(2) 0.52446(8) 0.12923(9)
C7 C 0.1776(2) 0.55730(9) 0.07754(10)
H3 H 0.1354 0.5448 0.0380
C8 C 0.1937(2) 0.60977(9) 0.09513(10)
H4 H 0.1657 0.6398 0.0697
C9 C 0.2602(2) 0.61153(8) 0.15885(10)
C10 C 0.3242(2) 0.65271(8) 0.19803(9)
C11 C 0.4239(2) 0.63740(8) 0.25006(9)
C12 C 0.5380(2) 0.66355(9) 0.28846(9)
H5 H 0.5541 0.7010 0.2910
C13 C 0.6193(2) 0.62501(8) 0.32078(9)
H6 H 0.7017 0.6311 0.3493
C14 C 0.5577(2) 0.57363(8) 0.30387(9)
C15 C 0.6037(2) 0.51968(8) 0.31132(9)
C16 C 0.2243(2) 0.42755(9) 0.09180(9)
C17 C 0.1854(2) 0.37769(9) 0.11325(10)
H7 H 0.1927 0.3714 0.1567
C18 C 0.1363(2) 0.33726(9) 0.07183(10)
H8 H 0.1113 0.3036 0.0870
C19 C 0.1239(2) 0.34621(10) 0.00818(10)
H9 H 0.0888 0.3189 -0.0202
C20 C 0.1629(2) 0.39533(10) -0.01367(10)
H10 H 0.1548 0.4015 -0.0572
C21 C 0.2137(2) 0.43549(9) 0.02753(10)
H11 H 0.2415 0.4687 0.0120
C22 C 0.2932(2) 0.70930(8) 0.18174(9)
C23 C 0.1543(2) 0.72472(9) 0.16285(10)
H12 H 0.0826 0.6986 0.1595
C24 C 0.1205(2) 0.77756(9) 0.14900(10)
H13 H 0.0260 0.7874 0.1363
C25 C 0.2243(2) 0.81618(9) 0.15363(10)
H14 H 0.2009 0.8525 0.1450
C26 C 0.3628(2) 0.80131(9) 0.17106(10)
H15 H 0.4342 0.8275 0.1736
C27 C 0.3972(2) 0.74839(8) 0.18476(10)
H16 H 0.4921 0.7386 0.1963
C28 C 0.7344(2) 0.50488(8) 0.35161(9)
C29 C 0.8579(2) 0.53400(9) 0.35040(10)
H17 H 0.8580 0.5639 0.3235
C30 C 0.9795(2) 0.51925(9) 0.38827(10)
H18 H 1.0623 0.5393 0.3873
C31 C 0.9818(2) 0.47570(9) 0.42741(10)
H19 H 1.0658 0.4658 0.4531
C32 C 0.8606(2) 0.44640(9) 0.42905(10)
H20 H 0.8618 0.4165 0.4560
C33 C 0.7377(2) 0.46066(9) 0.39145(9)
H21 H 0.6554 0.4403 0.3927
N1 N 0.40909(17) 0.49271(7) 0.23635(8)
N2 N 0.27623(17) 0.55943(7) 0.17677(8)
N3 N 0.43758(17) 0.58426(7) 0.26465(8)
B1 B 0.3289(2) 0.54327(10) 0.24250(11)
H22 H 0.241(2) 0.5391(9) 0.2765(10)
C34 C 0.2433(2) 0.19899(8) 0.32974(9)
C35 C 0.3147(2) 0.20281(9) 0.39252(10)
H23 H 0.3451 0.1736 0.4190
C36 C 0.3313(2) 0.25597(9) 0.40753(10)
H24 H 0.3755 0.2698 0.4461
C37 C 0.2701(2) 0.28712(8) 0.35480(9)
C38 C 0.2297(2) 0.34121(8) 0.34505(9)
C39 C 0.1308(2) 0.35437(8) 0.29200(9)
C40 C 0.0326(2) 0.39724(8) 0.27862(9)
H25 H 0.0348 0.4305 0.2998
C41 C -0.0656(2) 0.38146(8) 0.22962(9)
H26 H -0.1428 0.4021 0.2110
C42 C -0.0309(2) 0.32861(8) 0.21172(9)
C43 C -0.1077(2) 0.28782(8) 0.17655(9)
C44 C -0.0654(2) 0.23371(8) 0.18731(9)
C45 C -0.1302(2) 0.18257(9) 0.17435(9)
H27 H -0.2144 0.1761 0.1471
C46 C -0.0495(2) 0.14446(8) 0.20826(9)
H28 H -0.0685 0.1072 0.2085
C47 C 0.0689(2) 0.17089(8) 0.24328(9)
C48 C 0.1720(2) 0.15687(8) 0.29430(9)
C49 C 0.2714(2) 0.38309(9) 0.39259(10)
C50 C 0.2679(2) 0.37410(10) 0.45581(10)
H29 H 0.2377 0.3405 0.4692
C51 C 0.3082(2) 0.41401(10) 0.49907(11)
H30 H 0.3064 0.4074 0.5420
C52 C 0.3510(2) 0.46332(10) 0.48007(11)
H31 H 0.3789 0.4904 0.5099
C53 C 0.3531(2) 0.47301(10) 0.41746(11)
H32 H 0.3814 0.5070 0.4043
C54 C 0.3139(2) 0.43315(9) 0.37399(10)
H33 H 0.3160 0.4400 0.3312
C55 C -0.2393(2) 0.30202(8) 0.13619(9)
C56 C -0.2412(2) 0.34293(9) 0.09218(9)
H34 H -0.1576 0.3615 0.0882
C57 C -0.3645(2) 0.35665(9) 0.05424(10)
H35 H -0.3645 0.3845 0.0246
C58 C -0.4878(2) 0.32960(9) 0.05963(10)
H36 H -0.5718 0.3388 0.0336
C59 C -0.4868(2) 0.28908(9) 0.10342(10)
H37 H -0.5707 0.2706 0.1073
C60 C -0.3645(2) 0.27543(9) 0.14135(10)
H38 H -0.3654 0.2478 0.1712
C61 C 0.1980(2) 0.10116(8) 0.31635(9)
C62 C 0.0909(2) 0.06396(8) 0.31838(9)
H39 H -0.0027 0.0740 0.3038
C63 C 0.1190(2) 0.01280(9) 0.34130(10)
H40 H 0.0450 -0.0120 0.3417
C64 C 0.2554(2) -0.00227(9) 0.36369(10)
H41 H 0.2747 -0.0372 0.3799
C65 C 0.3629(2) 0.03420(9) 0.36213(10)
H42 H 0.4562 0.0241 0.3773
C66 C 0.3348(2) 0.08524(9) 0.33859(9)
H43 H 0.4093 0.1097 0.3375
N4 N 0.22761(17) 0.25058(7) 0.30891(8)
N5 N 0.09238(17) 0.31601(7) 0.24785(7)
N6 N 0.05675(17) 0.22358(7) 0.22553(8)
B2 B 0.1691(2) 0.26466(9) 0.24315(11)
H44 H 0.255(2) 0.2658(8) 0.2051(9)
C67 C 0.2587(3) 0.78115(12) 0.00350(13)
H45 H 0.2783 0.7680 0.0468
H46 H 0.2843 0.7525 -0.0241
Cl1 Cl 0.07836(8) 0.79483(4) -0.01518(3)
Cl2 Cl 0.36111(7) 0.83741(3) -0.00427(3)
loop_
_geom_bond_atom_site_label_1
_geom_bond_atom_site_label_2
_geom_bond_site_symmetry_1
_geom_bond_site_symmetry_2
C1 C2 1_555 1_555
C2 H1 1_555 1_555
C3 C2 1_555 1_555
H2 C3 1_555 1_555
C4 C3 1_555 1_555
C5 C4 1_555 1_555
C6 C5 1_555 1_555
C7 C6 1_555 1_555
H3 C7 1_555 1_555
C8 C7 1_555 1_555
H4 C8 1_555 1_555
C9 C8 1_555 1_555
C10 C9 1_555 1_555
C11 C10 1_555 1_555
C12 C11 1_555 1_555
H5 C12 1_555 1_555
C13 C12 1_555 1_555
H6 C13 1_555 1_555
C14 C13 1_555 1_555
C15 C1 1_555 1_555
C16 C5 1_555 1_555
C17 C16 1_555 1_555
H7 C17 1_555 1_555
C18 C17 1_555 1_555
H8 C18 1_555 1_555
C19 C18 1_555 1_555
H9 C19 1_555 1_555
C20 C19 1_555 1_555
H10 C20 1_555 1_555
C21 C16 1_555 1_555
H11 C21 1_555 1_555
C22 C10 1_555 1_555
C23 C22 1_555 1_555
H12 C23 1_555 1_555
C24 C23 1_555 1_555
H13 C24 1_555 1_555
C25 C24 1_555 1_555
H14 C25 1_555 1_555
C26 C25 1_555 1_555
H15 C26 1_555 1_555
C27 C22 1_555 1_555
H16 C27 1_555 1_555
C28 C15 1_555 1_555
C29 C28 1_555 1_555
H17 C29 1_555 1_555
C30 C29 1_555 1_555
H18 C30 1_555 1_555
C31 C30 1_555 1_555
H19 C31 1_555 1_555
C32 C31 1_555 1_555
H20 C32 1_555 1_555
C33 C28 1_555 1_555
H21 C33 1_555 1_555
N1 C1 1_555 1_555
N2 C6 1_555 1_555
N3 C11 1_555 1_555
B1 N1 1_555 1_555
H22 B1 1_555 1_555
C34 C35 1_555 1_555
C35 H23 1_555 1_555
C36 C35 1_555 1_555
H24 C36 1_555 1_555
C37 C36 1_555 1_555
C38 C37 1_555 1_555
C39 C38 1_555 1_555
C40 C39 1_555 1_555
H25 C40 1_555 1_555
C41 C40 1_555 1_555
H26 C41 1_555 1_555
C42 C41 1_555 1_555
C43 C42 1_555 1_555
C44 C43 1_555 1_555
C45 C44 1_555 1_555
H27 C45 1_555 1_555
C46 C45 1_555 1_555
H28 C46 1_555 1_555
C47 C46 1_555 1_555
C48 C34 1_555 1_555
C49 C38 1_555 1_555
C50 C49 1_555 1_555
H29 C50 1_555 1_555
C51 C50 1_555 1_555
H30 C51 1_555 1_555
C52 C51 1_555 1_555
H31 C52 1_555 1_555
C53 C52 1_555 1_555
H32 C53 1_555 1_555
C54 C49 1_555 1_555
H33 C54 1_555 1_555
C55 C43 1_555 1_555
C56 C55 1_555 1_555
H34 C56 1_555 1_555
C57 C56 1_555 1_555
H35 C57 1_555 1_555
C58 C57 1_555 1_555
H36 C58 1_555 1_555
C59 C58 1_555 1_555
H37 C59 1_555 1_555
C60 C55 1_555 1_555
H38 C60 1_555 1_555
C61 C48 1_555 1_555
C62 C61 1_555 1_555
H39 C62 1_555 1_555
C63 C62 1_555 1_555
H40 C63 1_555 1_555
C64 C63 1_555 1_555
H41 C64 1_555 1_555
C65 C64 1_555 1_555
H42 C65 1_555 1_555
C66 C61 1_555 1_555
H43 C66 1_555 1_555
N4 C34 1_555 1_555
N5 C39 1_555 1_555
N6 C44 1_555 1_555
B2 N4 1_555 1_555
H44 B2 1_555 1_555
C67 H45 1_555 1_555
H46 C67 1_555 1_555
Cl1 C67 1_555 1_555
Cl2 C67 1_555 1_555
C4 N1 1_555 1_555
C9 N2 1_555 1_555
C14 C15 1_555 1_555
C14 N3 1_555 1_555
C20 C21 1_555 1_555
C26 C27 1_555 1_555
C32 C33 1_555 1_555
N2 B1 1_555 1_555
N3 B1 1_555 1_555
C37 N4 1_555 1_555
C42 N5 1_555 1_555
C47 C48 1_555 1_555
C47 N6 1_555 1_555
C53 C54 1_555 1_555
C59 C60 1_555 1_555
C65 C66 1_555 1_555
N5 B2 1_555 1_555
N6 B2 1_555 1_555

#END
