
#######################################################################
#
#                 Cambridge Crystallographic Data Centre
#                                CCDC 
#
#######################################################################
#
# If this CIF has been generated from an entry in the Cambridge 
# Structural Database, then it will include bibliographic, chemical, 
# crystal, experimental, refinement or atomic coordinate data resulting 
# from the CCDC's data processing and validation procedures.
#
#######################################################################

data_ROYFOC
_chemical_formula_moiety         'C33 H19 B1 Br3 N3'
_chemical_name_systematic        
3,6,9-tris(4-bromophenyl)-9cH-8b,9b,9d-triaza-9c-boratricyclopenta[cd,gh,kl]phenalene
_symmetry_cell_setting           monoclinic
_symmetry_space_group_name_H-M   'C 2/c'
_symmetry_Int_Tables_number      15
_space_group_name_Hall           '-C 2yn'
loop_
_symmetry_equiv_pos_site_id
_symmetry_equiv_pos_as_xyz
1 x,y,z
2 -x,y,1/2-z
3 1/2+x,1/2+y,z
4 1/2-x,1/2+y,1/2-z
5 -x,-y,-z
6 x,-y,1/2+z
7 1/2-x,1/2-y,-z
8 1/2+x,1/2-y,1/2+z
_cell_length_a                   32.250(12)
_cell_length_b                   7.178(4)
_cell_length_c                   23.146(8)
_cell_angle_alpha                90
_cell_angle_beta                 94.880(11)
_cell_angle_gamma                90
_cell_volume                     5338.66
_exptl_crystal_colour            red
_exptl_crystal_description       Prism
_cell_formula_units_Z            8
loop_
_atom_site_label
_atom_site_type_symbol
_atom_site_fract_x
_atom_site_fract_y
_atom_site_fract_z
Br1 Br 0.01456(2) 0.10387(10) 0.08442(3)
Br2 Br 0.34408(2) -1.32401(10) -0.00692(3)
Br3 Br 0.05528(2) -1.56385(11) 0.49818(3)
N1 N 0.17167(16) -0.7784(7) 0.1780(2)
C1 C 0.0865(2) -0.1081(9) 0.1220(3)
H1 H 0.1014 -0.0025 0.1132
C2 C 0.10889(19) -0.5927(9) 0.1784(3)
C3 C 0.0791(2) -1.4291(10) 0.4397(3)
C4 C 0.30543(19) -1.0462(9) 0.0573(3)
H2 H 0.3244 -0.9654 0.0425
C5 C 0.0206(2) -0.2648(9) 0.1290(3)
H3 H -0.0083 -0.2621 0.1253
C6 C 0.14510(19) -0.6483(9) 0.1521(3)
C7 C 0.2125(2) -1.3123(9) 0.2270(3)
H4 H 0.2308 -1.4008 0.2146
N2 N 0.12426(17) -0.8314(8) 0.2493(2)
C8 C 0.0432(2) -0.1102(9) 0.1151(3)
C9 C 0.21814(19) -1.0256(9) 0.1551(3)
C10 C 0.2770(2) -0.9815(9) 0.0936(3)
H5 H 0.2769 -0.8556 0.1031
C11 C 0.1018(2) -1.1420(10) 0.4016(3)
H6 H 0.1061 -1.0144 0.4056
C12 C 0.0643(2) -0.8881(10) 0.2878(3)
H7 H 0.0443 -0.9401 0.3097
C13 C 0.0969(2) -0.7045(9) 0.2250(3)
N3 N 0.17864(16) -1.0466(7) 0.2381(2)
C14 C 0.1119(2) -1.2268(10) 0.3511(3)
C15 C 0.0888(2) -1.5198(10) 0.3899(3)
H8 H 0.0842 -1.6472 0.3858
C16 C 0.0416(2) -0.4237(9) 0.1485(3)
H9 H 0.0265 -0.5294 0.1565
C17 C 0.2486(2) -1.2859(9) 0.1013(3)
H10 H 0.2296 -1.3667 0.1160
C18 C 0.1889(2) -0.7532(9) 0.0876(3)
H11 H 0.2028 -0.7680 0.0542
C19 C 0.3053(2) -1.2338(10) 0.0432(3)
C20 C 0.1289(2) -1.1148(10) 0.3051(3)
C21 C 0.1068(2) -0.9512(10) 0.2861(3)
C22 C 0.1865(2) -1.3355(10) 0.2696(3)
H12 H 0.1837 -1.4441 0.2909
C23 C 0.20665(19) -1.1258(9) 0.2044(3)
C24 C 0.1067(2) -0.2691(9) 0.1427(3)
H13 H 0.1357 -0.2705 0.1474
C25 C 0.24823(19) -1.1004(9) 0.1165(3)
C26 C 0.19693(19) -0.8554(9) 0.1401(3)
C27 C 0.15742(19) -0.6301(9) 0.0943(3)
H14 H 0.1459 -0.5483 0.0661
C28 C 0.2769(2) -1.3555(10) 0.0642(3)
H15 H 0.2766 -1.4807 0.0539
C29 C 0.08469(19) -0.4296(9) 0.1565(3)
C30 C 0.0586(2) -0.7374(10) 0.2512(3)
H16 H 0.0343 -0.6685 0.2446
C31 C 0.1642(2) -1.1668(10) 0.2766(3)
C32 C 0.0856(2) -1.2376(9) 0.4468(3)
H17 H 0.0794 -1.1766 0.4804
C33 C 0.1055(2) -1.4190(10) 0.3461(3)
H18 H 0.1126 -1.4805 0.3129
B1 B 0.1695(2) -0.8411(10) 0.2393(3)
H19 H 0.1877 -0.7711 0.2676
loop_
_geom_bond_atom_site_label_1
_geom_bond_atom_site_label_2
_geom_bond_site_symmetry_1
_geom_bond_site_symmetry_2
Br1 C8 1_555 1_555
Br2 C19 1_555 1_555
Br3 C3 1_555 1_555
N1 C6 1_555 1_555
C1 H1 1_555 1_555
C2 C6 1_555 1_555
C3 C15 1_555 1_555
C4 H2 1_555 1_555
C5 H3 1_555 1_555
C6 C27 1_555 1_555
C7 H4 1_555 1_555
N2 C13 1_555 1_555
C8 C1 1_555 1_555
C9 C23 1_555 1_555
C10 C4 1_555 1_555
H5 C10 1_555 1_555
C11 H6 1_555 1_555
C12 H7 1_555 1_555
C13 C2 1_555 1_555
N3 C23 1_555 1_555
C14 C11 1_555 1_555
C15 H8 1_555 1_555
C16 C5 1_555 1_555
H9 C16 1_555 1_555
C17 H10 1_555 1_555
C18 H11 1_555 1_555
C19 C4 1_555 1_555
C20 C14 1_555 1_555
C21 N2 1_555 1_555
C22 C7 1_555 1_555
H12 C22 1_555 1_555
C23 C7 1_555 1_555
C24 C1 1_555 1_555
H13 C24 1_555 1_555
C25 C9 1_555 1_555
C26 N1 1_555 1_555
C27 C18 1_555 1_555
H14 C27 1_555 1_555
C28 C17 1_555 1_555
H15 C28 1_555 1_555
C29 C2 1_555 1_555
C30 C12 1_555 1_555
H16 C30 1_555 1_555
C31 N3 1_555 1_555
C32 C3 1_555 1_555
H17 C32 1_555 1_555
C33 C14 1_555 1_555
H18 C33 1_555 1_555
B1 N1 1_555 1_555
H19 B1 1_555 1_555
C5 C8 1_555 1_555
N2 B1 1_555 1_555
C9 C26 1_555 1_555
C10 C25 1_555 1_555
C11 C32 1_555 1_555
C12 C21 1_555 1_555
C13 C30 1_555 1_555
N3 B1 1_555 1_555
C15 C33 1_555 1_555
C16 C29 1_555 1_555
C17 C25 1_555 1_555
C18 C26 1_555 1_555
C19 C28 1_555 1_555
C20 C21 1_555 1_555
C20 C31 1_555 1_555
C22 C31 1_555 1_555
C24 C29 1_555 1_555

#END
