
#######################################################################
#
#                 Cambridge Crystallographic Data Centre
#                                CCDC 
#
#######################################################################
#
# If this CIF has been generated from an entry in the Cambridge 
# Structural Database, then it will include bibliographic, chemical, 
# crystal, experimental, refinement or atomic coordinate data resulting 
# from the CCDC's data processing and validation procedures.
#
#######################################################################

data_ROYPIG
_chemical_name_common            
2,3-bis(4-Chlorophenyl)-1,1-diphenyl-1H-benzo[b]silole
_chemical_formula_moiety         'C32 H22 Cl2 Si1'
_chemical_name_systematic        
2,3-bis(4-Chlorophenyl)-1,1-diphenyl-1H-1-benzosilole
_symmetry_cell_setting           monoclinic
_symmetry_space_group_name_H-M   'P 21/c'
_symmetry_Int_Tables_number      14
_space_group_name_Hall           '-P 2ybc'
loop_
_symmetry_equiv_pos_site_id
_symmetry_equiv_pos_as_xyz
1 x,y,z
2 -x,1/2+y,1/2-z
3 -x,-y,-z
4 x,1/2-y,1/2+z
_cell_length_a                   9.9590(11)
_cell_length_b                   24.396(3)
_cell_length_c                   11.0384(12)
_cell_angle_alpha                90
_cell_angle_beta                 108.6020(10)
_cell_angle_gamma                90
_cell_volume                     2541.78
_exptl_crystal_colour            white
_exptl_crystal_description       block
_cell_formula_units_Z            4
_exptl_crystal_recrystallization_method acetone
loop_
_atom_site_label
_atom_site_type_symbol
_atom_site_fract_x
_atom_site_fract_y
_atom_site_fract_z
Cl1 Cl 0.38570(4) 0.456797(16) 0.11826(4)
Cl2 Cl 1.19812(5) 0.33634(2) 0.34587(5)
Si1 Si 0.66519(4) 0.123651(17) 0.27645(4)
C1 C 0.42714(16) 0.38824(6) 0.15788(16)
C2 C 0.50831(17) 0.37415(7) 0.28099(16)
H1 H 0.5391 0.4013 0.3456
C3 C 0.54383(16) 0.31928(7) 0.30818(15)
H2 H 0.5995 0.3090 0.3922
C4 C 0.49902(16) 0.27925(6) 0.21412(15)
C5 C 0.41603(17) 0.29480(7) 0.09136(16)
H3 H 0.3840 0.2677 0.0267
C6 C 0.37971(17) 0.34927(7) 0.06245(16)
H4 H 0.3233 0.3597 -0.0213
C7 C 0.53922(16) 0.22049(6) 0.23933(14)
C8 C 0.42549(16) 0.17968(6) 0.23277(14)
C9 C 0.28499(16) 0.19338(7) 0.21794(15)
H5 H 0.2559 0.2307 0.2095
C10 C 0.18810(17) 0.15214(7) 0.21556(16)
H6 H 0.0922 0.1613 0.2043
C11 C 0.22986(17) 0.09779(7) 0.22939(16)
H7 H 0.1625 0.0699 0.2271
C12 C 0.37072(17) 0.08374(7) 0.24677(15)
H8 H 0.3990 0.0464 0.2575
C13 C 0.47013(16) 0.12435(6) 0.24839(14)
C14 C 0.76711(16) 0.09251(6) 0.43362(14)
C15 C 0.70303(17) 0.08209(7) 0.52712(15)
H9 H 0.6060 0.0911 0.5102
C16 C 0.77783(18) 0.05891(7) 0.64386(16)
H10 H 0.7314 0.0515 0.7051
C17 C 0.92052(19) 0.04653(7) 0.67126(16)
H11 H 0.9723 0.0312 0.7517
C18 C 0.98741(18) 0.05665(7) 0.58064(17)
H12 H 1.0851 0.0484 0.5992
C19 C 0.91136(17) 0.07890(7) 0.46278(16)
H13 H 0.9575 0.0850 0.4008
C20 C 0.72402(17) 0.08966(7) 0.14989(15)
C21 C 0.80636(17) 0.11598(8) 0.08597(16)
H14 H 0.8271 0.1539 0.1006
C22 C 0.85875(19) 0.08745(9) 0.00081(17)
H15 H 0.9157 0.1058 -0.0410
C23 C 0.8276(2) 0.03256(9) -0.02240(16)
H16 H 0.8639 0.0131 -0.0797
C24 C 0.7440(3) 0.00586(8) 0.03732(19)
H17 H 0.7216 -0.0318 0.0202
C25 C 0.6925(3) 0.03413(8) 0.12259(19)
H18 H 0.6349 0.0154 0.1632
C26 C 0.67269(16) 0.20047(6) 0.26685(14)
C27 C 0.80075(16) 0.23434(6) 0.28166(15)
C28 C 0.80643(17) 0.27606(7) 0.19624(16)
H19 H 0.7257 0.2831 0.1240
C29 C 0.92831(18) 0.30728(7) 0.21542(16)
H20 H 0.9311 0.3354 0.1566
C30 C 1.04537(17) 0.29708(7) 0.32087(17)
C31 C 1.04398(18) 0.25582(7) 0.40643(17)
H21 H 1.1251 0.2490 0.4784
C32 C 0.92230(17) 0.22457(7) 0.38545(16)
H22 H 0.9216 0.1958 0.4432
loop_
_geom_bond_atom_site_label_1
_geom_bond_atom_site_label_2
_geom_bond_site_symmetry_1
_geom_bond_site_symmetry_2
Cl1 C1 1_555 1_555
Cl2 C30 1_555 1_555
Si1 C13 1_555 1_555
C1 C2 1_555 1_555
C2 H1 1_555 1_555
C3 C2 1_555 1_555
H2 C3 1_555 1_555
C4 C3 1_555 1_555
C5 C4 1_555 1_555
H3 C5 1_555 1_555
C6 C1 1_555 1_555
H4 C6 1_555 1_555
C7 C4 1_555 1_555
C8 C7 1_555 1_555
C9 C8 1_555 1_555
H5 C9 1_555 1_555
C10 C9 1_555 1_555
H6 C10 1_555 1_555
C11 C10 1_555 1_555
H7 C11 1_555 1_555
C12 C11 1_555 1_555
H8 C12 1_555 1_555
C13 C8 1_555 1_555
C14 Si1 1_555 1_555
C15 C14 1_555 1_555
H9 C15 1_555 1_555
C16 C15 1_555 1_555
H10 C16 1_555 1_555
C17 C16 1_555 1_555
H11 C17 1_555 1_555
C18 C17 1_555 1_555
H12 C18 1_555 1_555
C19 C14 1_555 1_555
H13 C19 1_555 1_555
C20 Si1 1_555 1_555
C21 C20 1_555 1_555
H14 C21 1_555 1_555
C22 C21 1_555 1_555
H15 C22 1_555 1_555
C23 C22 1_555 1_555
H16 C23 1_555 1_555
C24 C23 1_555 1_555
H17 C24 1_555 1_555
C25 C20 1_555 1_555
H18 C25 1_555 1_555
C26 Si1 1_555 1_555
C27 C26 1_555 1_555
C28 C27 1_555 1_555
H19 C28 1_555 1_555
C29 C28 1_555 1_555
H20 C29 1_555 1_555
C30 C29 1_555 1_555
C31 C30 1_555 1_555
H21 C31 1_555 1_555
C32 C27 1_555 1_555
H22 C32 1_555 1_555
C5 C6 1_555 1_555
C7 C26 1_555 1_555
C12 C13 1_555 1_555
C18 C19 1_555 1_555
C24 C25 1_555 1_555
C31 C32 1_555 1_555

#END
