
#######################################################################
#
#                 Cambridge Crystallographic Data Centre
#                                CCDC 
#
#######################################################################
#
# If this CIF has been generated from an entry in the Cambridge 
# Structural Database, then it will include bibliographic, chemical, 
# crystal, experimental, refinement or atomic coordinate data resulting 
# from the CCDC's data processing and validation procedures.
#
#######################################################################

data_ROYWUZ
_chemical_formula_moiety         'C20 H19 Cl1 N2 O4'
_chemical_name_systematic        
(2R,3R,4R,5R)-2-(4-Chlorophenyl)-4-(4-methylphenyl)-3-nitro-7-oxa-1-azaspiro[4.4]nonan-6-one
_symmetry_cell_setting           orthorhombic
_symmetry_space_group_name_H-M   'P 21 21 21'
_symmetry_Int_Tables_number      19
_space_group_name_Hall           'P 2ac 2ab'
loop_
_symmetry_equiv_pos_site_id
_symmetry_equiv_pos_as_xyz
1 x,y,z
2 1/2-x,-y,1/2+z
3 -x,1/2+y,1/2-z
4 1/2+x,1/2-y,-z
_cell_length_a                   7.2763(10)
_cell_length_b                   11.8519(16)
_cell_length_c                   21.548(3)
_cell_angle_alpha                90
_cell_angle_beta                 90
_cell_angle_gamma                90
_cell_volume                     1858.26
_exptl_crystal_description       block
_cell_formula_units_Z            4
loop_
_atom_site_label
_atom_site_type_symbol
_atom_site_fract_x
_atom_site_fract_y
_atom_site_fract_z
C1 C 0.2583(3) 0.62470(16) 0.65864(8)
H1 H 0.2626 0.5864 0.6963
C2 C 0.2139(3) 0.73841(15) 0.65770(8)
C3 C 0.2880(3) 0.62036(19) 0.54740(9)
C4 C 0.2961(3) 0.56795(17) 0.60426(9)
H2 H 0.3281 0.4921 0.6061
C5 C 0.2457(4) 0.7336(2) 0.54659(10)
H3 H 0.2403 0.7714 0.5088
C6 C 0.2113(4) 0.79199(18) 0.60070(10)
H4 H 0.1860 0.8688 0.5988
C7 C 0.1645(2) 0.80509(16) 0.71495(9)
H5 H 0.1937 0.8842 0.7061
N1 N -0.0275(2) 0.83951(14) 0.79871(8)
H6 H -0.0915 0.8912 0.8166
C8 C 0.1185(3) 0.77120(17) 0.82600(9)
H7 H 0.0730 0.6935 0.8289
C9 C 0.2665(3) 0.77398(16) 0.77479(8)
H8 H 0.3228 0.6993 0.7705
C10 C -0.0415(2) 0.80129(16) 0.73478(9)
C11 C -0.1558(3) 0.88438(18) 0.69624(9)
O1 O -0.1502(2) 0.98484(13) 0.69773(8)
O2 O -0.2688(2) 0.82822(13) 0.65848(7)
C12 C -0.1417(3) 0.68887(17) 0.72387(10)
H9 H -0.0553 0.6268 0.7210
H10 H -0.2285 0.6734 0.7570
C13 C -0.2397(3) 0.70742(19) 0.66282(11)
H11 H -0.1651 0.6809 0.6285
H12 H -0.3562 0.6676 0.6622
C14 C 0.2508(3) 0.73117(17) 0.93030(9)
H13 H 0.2811 0.6597 0.9158
C15 C 0.1318(3) 0.91544(17) 0.91258(10)
H14 H 0.0821 0.9691 0.8859
C16 C 0.1705(3) 0.80819(17) 0.89035(9)
C17 C 0.1661(3) 0.94390(19) 0.97375(10)
H15 H 0.1392 1.0159 0.9883
C18 C 0.2406(3) 0.86414(17) 1.01268(9)
C19 C 0.2865(3) 0.7588(2) 0.99140(10)
H16 H 0.3411 0.7065 1.0178
Cl1 Cl 0.27091(11) 0.89401(5) 1.09090(2)
C20 C 0.3242(5) 0.5557(2) 0.48825(12)
H17 H 0.4122 0.5959 0.4635
H18 H 0.2116 0.5478 0.4654
H19 H 0.3717 0.4824 0.4982
N2 N 0.4119(2) 0.86036(19) 0.79014(9)
O3 O 0.5507(2) 0.8237(2) 0.81476(10)
O4 O 0.3839(3) 0.95927(16) 0.78068(10)
loop_
_geom_bond_atom_site_label_1
_geom_bond_atom_site_label_2
_geom_bond_site_symmetry_1
_geom_bond_site_symmetry_2
C1 H1 1_555 1_555
C2 C1 1_555 1_555
C3 C4 1_555 1_555
C4 C1 1_555 1_555
H2 C4 1_555 1_555
C5 C3 1_555 1_555
H3 C5 1_555 1_555
C6 C2 1_555 1_555
H4 C6 1_555 1_555
C7 C2 1_555 1_555
H5 C7 1_555 1_555
N1 H6 1_555 1_555
C8 N1 1_555 1_555
H7 C8 1_555 1_555
C9 C7 1_555 1_555
H8 C9 1_555 1_555
C10 C7 1_555 1_555
C11 C10 1_555 1_555
O1 C11 1_555 1_555
O2 C11 1_555 1_555
C12 C10 1_555 1_555
H9 C12 1_555 1_555
H10 C12 1_555 1_555
C13 O2 1_555 1_555
H11 C13 1_555 1_555
H12 C13 1_555 1_555
C14 H13 1_555 1_555
C15 H14 1_555 1_555
C16 C8 1_555 1_555
C17 C15 1_555 1_555
H15 C17 1_555 1_555
C18 C17 1_555 1_555
C19 C14 1_555 1_555
H16 C19 1_555 1_555
Cl1 C18 1_555 1_555
C20 C3 1_555 1_555
H17 C20 1_555 1_555
H18 C20 1_555 1_555
H19 C20 1_555 1_555
N2 C9 1_555 1_555
O3 N2 1_555 1_555
O4 N2 1_555 1_555
C5 C6 1_555 1_555
N1 C10 1_555 1_555
C8 C9 1_555 1_555
C12 C13 1_555 1_555
C14 C16 1_555 1_555
C15 C16 1_555 1_555
C18 C19 1_555 1_555

#END
