
#######################################################################
#
#                 Cambridge Crystallographic Data Centre
#                                CCDC 
#
#######################################################################
#
# If this CIF has been generated from an entry in the Cambridge 
# Structural Database, then it will include bibliographic, chemical, 
# crystal, experimental, refinement or atomic coordinate data resulting 
# from the CCDC's data processing and validation procedures.
#
#######################################################################

data_ROYYIP
_chemical_formula_moiety         'C25 H32 Cl1 O2 P1'
_chemical_name_systematic        
'2-isopropyl-5-methylcyclohexyl (3-chloro-3-phenylprop-1-en-1-yl)phenylphosphinate'
_symmetry_cell_setting           orthorhombic
_symmetry_space_group_name_H-M   'P 21 21 21'
_symmetry_Int_Tables_number      19
_space_group_name_Hall           'P 2ac 2ab'
loop_
_symmetry_equiv_pos_site_id
_symmetry_equiv_pos_as_xyz
1 x,y,z
2 1/2-x,-y,1/2+z
3 -x,1/2+y,1/2-z
4 1/2+x,1/2-y,-z
_cell_length_a                   6.0485(5)
_cell_length_b                   17.4083(16)
_cell_length_c                   23.4165(18)
_cell_angle_alpha                90
_cell_angle_beta                 90
_cell_angle_gamma                90
_cell_volume                     2465.62
_cell_formula_units_Z            4
loop_
_atom_site_label
_atom_site_type_symbol
_atom_site_fract_x
_atom_site_fract_y
_atom_site_fract_z
P1 P 0.9754(3) 0.21636(7) 0.22221(5)
Cl1 Cl 0.5391(3) 0.10041(7) 0.39385(6)
O1 O 1.1818(6) 0.1974(2) 0.25089(14)
O2 O 0.8967(6) 0.16169(17) 0.17188(12)
C1 C 1.0660(9) 0.0550(2) 0.12127(19)
H1 H 0.9190 0.0313 0.1219
C2 C 0.5112(11) 0.2565(2) 0.39885(18)
C3 C 0.5370(11) 0.1926(2) 0.35606(18)
H2 H 0.4089 0.1935 0.3305
C4 C 1.0322(10) 0.1414(2) 0.12117(18)
H3 H 1.1748 0.1681 0.1223
C5 C 0.9835(11) 0.3125(3) 0.19371(19)
C6 C 0.9949(14) 0.1420(3) 0.01211(19)
H4 H 1.1379 0.1674 0.0066
C7 C 0.7407(9) 0.1980(3) 0.3208(2)
H5 H 0.8777 0.1937 0.3385
C8 C 0.6685(10) 0.2720(3) 0.4404(2)
H6 H 0.7943 0.2414 0.4424
C9 C 0.7325(9) 0.2088(3) 0.2646(2)
H7 H 0.5953 0.2125 0.2469
C10 C 0.3268(11) 0.3031(3) 0.3967(2)
H8 H 0.2199 0.2945 0.3689
C11 C 1.0304(14) 0.0563(3) 0.0138(2)
H9 H 1.0994 0.0398 -0.0215
H10 H 0.8884 0.0307 0.0169
C12 C 0.8963(11) 0.1681(3) 0.0698(2)
H11 H 0.8871 0.2237 0.0702
H12 H 0.7473 0.1480 0.0732
C13 C 0.8060(12) 0.3434(3) 0.1650(2)
H13 H 0.6824 0.3134 0.1572
C14 C 1.1915(11) 0.0253(3) 0.1740(2)
H14 H 1.1190 0.0470 0.2077
C15 C 0.4607(15) 0.3755(3) 0.4759(3)
H15 H 0.4436 0.4156 0.5018
C16 C 1.1702(13) -0.0630(3) 0.1780(2)
H16 H 1.0170 -0.0767 0.1811
H17 H 1.2482 -0.0810 0.2112
H18 H 1.2322 -0.0860 0.1444
C17 C 0.8360(17) 0.1665(4) -0.0370(2)
H19 H 0.8902 0.1468 -0.0726
H20 H 0.8286 0.2215 -0.0387
H21 H 0.6911 0.1461 -0.0298
C18 C 0.9930(18) 0.4642(4) 0.1588(3)
H22 H 0.9958 0.5153 0.1473
C19 C 0.6433(13) 0.3318(3) 0.4788(2)
H23 H 0.7510 0.3415 0.5063
C20 C 1.1674(12) 0.3579(4) 0.2051(2)
H24 H 1.2878 0.3376 0.2246
C21 C 1.1754(11) 0.0327(3) 0.0639(2)
H25 H 1.3181 0.0578 0.0608
H26 H 1.1993 -0.0224 0.0629
C22 C 0.8130(15) 0.4206(4) 0.1474(3)
H27 H 0.6938 0.4417 0.1278
C23 C 1.1699(15) 0.4344(4) 0.1871(3)
H28 H 1.2927 0.4650 0.1943
C24 C 0.2984(13) 0.3630(3) 0.4359(3)
H29 H 0.1726 0.3937 0.4349
C25 C 1.4349(11) 0.0485(4) 0.1765(3)
H30 H 1.5132 0.0249 0.1455
H31 H 1.4974 0.0317 0.2121
H32 H 1.4470 0.1033 0.1737
loop_
_geom_bond_atom_site_label_1
_geom_bond_atom_site_label_2
_geom_bond_site_symmetry_1
_geom_bond_site_symmetry_2
P1 O1 1_555 1_555
Cl1 C3 1_555 1_555
O2 P1 1_555 1_555
C1 H1 1_555 1_555
C2 C3 1_555 1_555
C3 H2 1_555 1_555
C4 O2 1_555 1_555
H3 C4 1_555 1_555
C5 P1 1_555 1_555
C6 H4 1_555 1_555
C7 C3 1_555 1_555
H5 C7 1_555 1_555
C8 C2 1_555 1_555
H6 C8 1_555 1_555
C9 P1 1_555 1_555
H7 C9 1_555 1_555
C10 C2 1_555 1_555
H8 C10 1_555 1_555
C11 C6 1_555 1_555
H9 C11 1_555 1_555
H10 C11 1_555 1_555
C12 C4 1_555 1_555
H11 C12 1_555 1_555
H12 C12 1_555 1_555
C13 C5 1_555 1_555
H13 C13 1_555 1_555
C14 C1 1_555 1_555
H14 C14 1_555 1_555
C15 H15 1_555 1_555
C16 C14 1_555 1_555
H16 C16 1_555 1_555
H17 C16 1_555 1_555
H18 C16 1_555 1_555
C17 C6 1_555 1_555
H19 C17 1_555 1_555
H20 C17 1_555 1_555
H21 C17 1_555 1_555
C18 H22 1_555 1_555
C19 C8 1_555 1_555
H23 C19 1_555 1_555
C20 C5 1_555 1_555
H24 C20 1_555 1_555
C21 C1 1_555 1_555
H25 C21 1_555 1_555
H26 C21 1_555 1_555
C22 C13 1_555 1_555
H27 C22 1_555 1_555
C23 C18 1_555 1_555
H28 C23 1_555 1_555
C24 C10 1_555 1_555
H29 C24 1_555 1_555
C25 C14 1_555 1_555
H30 C25 1_555 1_555
H31 C25 1_555 1_555
H32 C25 1_555 1_555
C1 C4 1_555 1_555
C6 C12 1_555 1_555
C7 C9 1_555 1_555
C11 C21 1_555 1_555
C15 C19 1_555 1_555
C15 C24 1_555 1_555
C18 C22 1_555 1_555
C20 C23 1_555 1_555

#END
