
#######################################################################
#
#                 Cambridge Crystallographic Data Centre
#                                CCDC 
#
#######################################################################
#
# If this CIF has been generated from an entry in the Cambridge 
# Structural Database, then it will include bibliographic, chemical, 
# crystal, experimental, refinement or atomic coordinate data resulting 
# from the CCDC's data processing and validation procedures.
#
#######################################################################

data_ROYZAI
_chemical_formula_moiety         'C24 H21 N3 O3'
_chemical_name_systematic        
1-Methyl-4'-nitro-3',5'-diphenylspiro[indole-3,2'-pyrrolidin]-2(1H)-one
_symmetry_cell_setting           triclinic
_symmetry_space_group_name_H-M   'P -1'
_symmetry_Int_Tables_number      2
_space_group_name_Hall           '-P 1'
loop_
_symmetry_equiv_pos_site_id
_symmetry_equiv_pos_as_xyz
1 x,y,z
2 -x,-y,-z
_cell_length_a                   9.1813(7)
_cell_length_b                   10.8619(9)
_cell_length_c                   11.6038(7)
_cell_angle_alpha                99.115(6)
_cell_angle_beta                 110.362(6)
_cell_angle_gamma                104.356(7)
_cell_volume                     1012.16
_cell_formula_units_Z            2
loop_
_atom_site_label
_atom_site_type_symbol
_atom_site_fract_x
_atom_site_fract_y
_atom_site_fract_z
C1 C 0.74322(19) 0.28173(15) 0.33518(15)
C2 C 0.62460(17) 0.34756(14) 0.25788(14)
C3 C 0.48765(18) 0.22979(15) 0.16018(14)
C4 C 0.52376(19) 0.11611(15) 0.18056(15)
C5 C 0.4172(2) -0.00714(17) 0.10723(18)
H1 H 0.4419 -0.0829 0.1213
C6 C 0.2716(2) -0.01422(19) 0.01170(19)
H2 H 0.1968 -0.0966 -0.0387
C7 C 0.2343(2) 0.0973(2) -0.01090(18)
H3 H 0.1359 0.0895 -0.0763
C8 C 0.34393(19) 0.22158(17) 0.06416(16)
H4 H 0.3201 0.2975 0.0495
C9 C 0.7501(2) 0.05502(18) 0.3347(2)
H5 H 0.7816 0.0104 0.2738
H6 H 0.6717 -0.0083 0.3513
H7 H 0.8455 0.1006 0.4126
C10 C 0.70947(17) 0.45172(14) 0.20441(13)
H8 H 0.6216 0.4730 0.1427
C11 C 0.79987(18) 0.57303(14) 0.31994(14)
H9 H 0.9145 0.5775 0.3630
C12 C 0.70956(19) 0.55071(14) 0.41082(14)
H10 H 0.7822 0.5305 0.4845
C13 C 0.80929(17) 0.41182(14) 0.13504(14)
C14 C 0.96777(19) 0.40950(17) 0.19773(16)
H11 H 1.0173 0.4356 0.2864
C15 C 1.0524(2) 0.36890(18) 0.12990(18)
H12 H 1.1579 0.3671 0.1731
C16 C 0.9816(2) 0.33114(17) -0.00100(18)
H13 H 1.0389 0.3040 -0.0465
C17 C 0.8255(2) 0.33364(17) -0.06455(17)
H14 H 0.7776 0.3087 -0.1533
C18 C 0.7396(2) 0.37297(15) 0.00262(15)
H15 H 0.6337 0.3735 -0.0414
C19 C 0.6586(2) 0.66232(15) 0.46039(15)
C20 C 0.7718(3) 0.76076(18) 0.56842(18)
H16 H 0.8769 0.7568 0.6086
C21 C 0.7303(3) 0.8650(2) 0.6173(2)
H17 H 0.8076 0.9309 0.6897
C22 C 0.5759(3) 0.8712(2) 0.5592(2)
H18 H 0.5483 0.9417 0.5918
C23 C 0.4617(3) 0.7737(2) 0.4532(2)
H19 H 0.3563 0.7777 0.4146
C24 C 0.5022(2) 0.66897(18) 0.40312(18)
H20 H 0.4241 0.6032 0.3309
N1 N 0.67680(16) 0.14955(12) 0.28373(13)
N2 N 0.57023(16) 0.42991(12) 0.33481(13)
H21 H 0.534(2) 0.3900(19) 0.3837(18)
N3 N 0.79448(19) 0.69679(13) 0.27815(14)
O1 O 0.87241(14) 0.33894(11) 0.42774(11)
O2 O 0.66599(18) 0.70185(13) 0.20597(14)
O3 O 0.9209(2) 0.78804(15) 0.32170(18)
loop_
_geom_bond_atom_site_label_1
_geom_bond_atom_site_label_2
_geom_bond_site_symmetry_1
_geom_bond_site_symmetry_2
C1 C2 1_555 1_555
C2 C3 1_555 1_555
C3 C4 1_555 1_555
C4 C5 1_555 1_555
C5 H1 1_555 1_555
C6 C5 1_555 1_555
H2 C6 1_555 1_555
C7 C6 1_555 1_555
H3 C7 1_555 1_555
C8 C3 1_555 1_555
H4 C8 1_555 1_555
C9 H5 1_555 1_555
H6 C9 1_555 1_555
H7 C9 1_555 1_555
C10 C2 1_555 1_555
H8 C10 1_555 1_555
C11 C10 1_555 1_555
H9 C11 1_555 1_555
C12 C11 1_555 1_555
H10 C12 1_555 1_555
C13 C10 1_555 1_555
C14 C13 1_555 1_555
H11 C14 1_555 1_555
C15 C14 1_555 1_555
H12 C15 1_555 1_555
C16 C15 1_555 1_555
H13 C16 1_555 1_555
C17 C16 1_555 1_555
H14 C17 1_555 1_555
C18 C13 1_555 1_555
H15 C18 1_555 1_555
C19 C12 1_555 1_555
C20 C19 1_555 1_555
H16 C20 1_555 1_555
C21 C20 1_555 1_555
H17 C21 1_555 1_555
C22 C21 1_555 1_555
H18 C22 1_555 1_555
C23 C22 1_555 1_555
H19 C23 1_555 1_555
C24 C19 1_555 1_555
H20 C24 1_555 1_555
N1 C1 1_555 1_555
N2 C2 1_555 1_555
H21 N2 1_555 1_555
N3 C11 1_555 1_555
O1 C1 1_555 1_555
O2 N3 1_555 1_555
O3 N3 1_555 1_555
C4 N1 1_555 1_555
C7 C8 1_555 1_555
C9 N1 1_555 1_555
C12 N2 1_555 1_555
C17 C18 1_555 1_555
C23 C24 1_555 1_555

#END
