
#######################################################################
#
#                 Cambridge Crystallographic Data Centre
#                                CCDC 
#
#######################################################################
#
# If this CIF has been generated from an entry in the Cambridge 
# Structural Database, then it will include bibliographic, chemical, 
# crystal, experimental, refinement or atomic coordinate data resulting 
# from the CCDC's data processing and validation procedures.
#
#######################################################################

data_ROZCAM
_chemical_formula_moiety         'C17 H12 Br1 Cl1 O2'
_chemical_name_systematic        
5-(4-bromophenyl)-3-(chloro(phenyl)methylene)dihydrofuran-2(3H)-one
_symmetry_cell_setting           orthorhombic
_symmetry_space_group_name_H-M   'P 21 21 21'
_symmetry_Int_Tables_number      19
_space_group_name_Hall           'P 2ac 2ab'
loop_
_symmetry_equiv_pos_site_id
_symmetry_equiv_pos_as_xyz
1 x,y,z
2 1/2-x,-y,1/2+z
3 -x,1/2+y,1/2-z
4 1/2+x,1/2-y,-z
_cell_length_a                   6.3931(13)
_cell_length_b                   10.163(2)
_cell_length_c                   23.120(5)
_cell_angle_alpha                90
_cell_angle_beta                 90
_cell_angle_gamma                90
_cell_volume                     1502.18
_cell_formula_units_Z            4
loop_
_atom_site_label
_atom_site_type_symbol
_atom_site_fract_x
_atom_site_fract_y
_atom_site_fract_z
Br1 Br 0.87668(10) 0.90004(6) 0.06846(2)
C1 C 0.6379(7) 0.3162(4) 0.06986(16)
H1 H 0.7236 0.2667 0.0423
C2 C 0.6857(7) 0.4589(5) 0.06543(18)
C3 C 0.9339(8) 0.6307(5) 0.04450(17)
H2 H 1.0643 0.6567 0.0308
C4 C 0.6670(7) 0.2599(5) 0.13116(16)
H3 H 0.7979 0.2121 0.1342
H4 H 0.6655 0.3296 0.1598
C5 C 0.4717(6) 0.0740(4) 0.17649(16)
C6 C 0.4860(6) 0.1704(4) 0.13892(16)
C7 C 0.5527(7) 0.5535(5) 0.08664(18)
H5 H 0.4233 0.5282 0.1012
C8 C 0.6054(8) 0.6842(5) 0.08690(17)
H6 H 0.5121 0.7462 0.1014
C9 C 0.3297(8) 0.2078(4) 0.09431(17)
C10 C 0.7939(8) 0.7230(5) 0.06593(18)
C11 C 0.8769(8) 0.4996(5) 0.04377(16)
H7 H 0.9686 0.4376 0.0285
Cl1 Cl 0.2536(2) -0.02650(16) 0.17798(6)
O1 O 0.1482(5) 0.1771(3) 0.08924(12)
C12 C 0.6282(7) 0.0414(4) 0.22169(15)
C13 C 0.8559(8) 0.1105(6) 0.29831(17)
H8 H 0.9137 0.1774 0.3206
C14 C 0.6880(7) -0.0883(5) 0.23175(18)
H9 H 0.6316 -0.1559 0.2096
C15 C 0.7136(7) 0.1402(5) 0.25512(16)
H10 H 0.6753 0.2272 0.2486
C16 C 0.8320(7) -0.1165(6) 0.27501(19)
H11 H 0.8741 -0.2029 0.2813
C17 C 0.9114(8) -0.0180(6) 0.30808(18)
H12 H 1.0046 -0.0379 0.3377
O2 O 0.4155(5) 0.2946(3) 0.05767(11)
loop_
_geom_bond_atom_site_label_1
_geom_bond_atom_site_label_2
_geom_bond_site_symmetry_1
_geom_bond_site_symmetry_2
Br1 C10 1_555 1_555
C1 H1 1_555 1_555
C2 C1 1_555 1_555
C3 H2 1_555 1_555
C4 C1 1_555 1_555
H3 C4 1_555 1_555
H4 C4 1_555 1_555
C5 C6 1_555 1_555
C6 C4 1_555 1_555
C7 C2 1_555 1_555
H5 C7 1_555 1_555
C8 C7 1_555 1_555
H6 C8 1_555 1_555
C9 C6 1_555 1_555
C10 C3 1_555 1_555
C11 C2 1_555 1_555
H7 C11 1_555 1_555
Cl1 C5 1_555 1_555
O1 C9 1_555 1_555
C12 C5 1_555 1_555
C13 H8 1_555 1_555
C14 C12 1_555 1_555
H9 C14 1_555 1_555
C15 C12 1_555 1_555
H10 C15 1_555 1_555
C16 C14 1_555 1_555
H11 C16 1_555 1_555
C17 C13 1_555 1_555
H12 C17 1_555 1_555
O2 C1 1_555 1_555
C3 C11 1_555 1_555
C8 C10 1_555 1_555
C9 O2 1_555 1_555
C13 C15 1_555 1_555
C16 C17 1_555 1_555

#END
