
#######################################################################
#
#                 Cambridge Crystallographic Data Centre
#                                CCDC 
#
#######################################################################
#
# If this CIF has been generated from an entry in the Cambridge 
# Structural Database, then it will include bibliographic, chemical, 
# crystal, experimental, refinement or atomic coordinate data resulting 
# from the CCDC's data processing and validation procedures.
#
#######################################################################

data_ROZLUO
_chemical_formula_moiety         'C40 H44 N24 O12,C9 H9 N3,H1 Cl1,18(H2 O1)'
_chemical_name_systematic        
"\a,\a',\f,\f'-Tetramethylcucurbit(6)uril N-(2-aminophenyl)imidazole clathrate hydrogen chloride octadecahydrate"
_symmetry_cell_setting           monoclinic
_symmetry_space_group_name_H-M   'C 2/m'
_symmetry_Int_Tables_number      12
_space_group_name_Hall           '-C 2y'
loop_
_symmetry_equiv_pos_site_id
_symmetry_equiv_pos_as_xyz
1 x,y,z
2 -x,y,-z
3 1/2+x,1/2+y,z
4 1/2-x,1/2+y,-z
5 -x,-y,-z
6 x,-y,z
7 1/2-x,1/2-y,-z
8 1/2+x,1/2-y,z
_cell_length_a                   14.678(3)
_cell_length_b                   18.795(3)
_cell_length_c                   12.977(2)
_cell_angle_alpha                90
_cell_angle_beta                 95.846(3)
_cell_angle_gamma                90
_cell_volume                     3561.39
_cell_formula_units_Z            2
_exptl_crystal_recrystallization_method ethanol
loop_
_atom_site_label
_atom_site_type_symbol
_atom_site_fract_x
_atom_site_fract_y
_atom_site_fract_z
O1 O 0.9522(10) 0.3188(10) 0.1658(13)
O3 O 0.9408(8) 0.5000 0.1572(15)
O4 O 0.9841(9) 0.4111(8) 0.324(3)
O5 O 0.6093(15) 0.207(2) 0.017(2)
O6 O 0.5778(19) 0.0000 0.067(2)
C1 C 0.8919(4) -0.2358(3) 0.4230(4)
H1 H 0.8994 -0.2869 0.4286
H2 H 0.8343 -0.2265 0.3817
C2 C 0.9510(4) -0.1666(3) 0.2821(4)
C3 C 1.0588(4) -0.2334(2) 0.3859(4)
H3 H 1.0601 -0.2856 0.3845
C4 C 1.1031(3) -0.2018(2) 0.2943(4)
H4 H 1.1225 -0.2391 0.2484
C5 C 0.8124(3) -0.1699(2) 0.5522(4)
C6 C 1.0379(4) -0.1298(3) 0.1388(4)
H5 H 0.9770 -0.1283 0.1021
H6 H 1.0748 -0.1616 0.1013
C7 C 1.2489(3) -0.1291(2) 0.2869(3)
H7 H 1.2605 -0.1589 0.2286
H8 H 1.3056 -0.1254 0.3320
C8 C 1.1749(3) -0.0421(2) 0.1472(3)
C9 C 1.2536(4) 0.0000 0.3014(5)
C10 C 1.0226(4) 0.0000 0.1318(5)
C11 C 1.2205(4) -0.0766(3) 0.0607(4)
H9 H 1.2844 -0.0646 0.0676
H10 H 1.2138 -0.1273 0.0644
H11 H 1.1924 -0.0598 -0.0048
N1 N 0.9662(3) -0.2067(2) 0.3697(3)
N2 N 1.0322(3) -0.1579(2) 0.2425(3)
N3 N 0.8876(3) -0.2064(2) 0.5261(3)
N4 N 1.1799(3) -0.16348(19) 0.3436(3)
N5 N 1.0777(3) -0.0588(2) 0.1401(3)
N6 N 1.2225(2) -0.05893(18) 0.2491(3)
O7 O 0.8773(3) -0.1433(3) 0.2458(3)
O8 O 0.7488(2) -0.1493(2) 0.4921(3)
O9 O 1.3028(3) 0.0000 0.3825(4)
O10 O 0.9401(3) 0.0000 0.1195(5)
C1A C 1.1081(4) -0.2358(3) 0.5770(4)
C1D C 1.1081(4) 0.2358(3) 0.5770(4)
C1E C 0.8919(4) 0.2358(3) 0.4230(4)
H1A H 1.1006 -0.2869 0.5714
H1D H 1.1006 0.2869 0.5714
H1E H 0.8994 0.2869 0.4286
H2A H 1.1657 -0.2265 0.6183
H2D H 1.1657 0.2265 0.6183
H2E H 0.8343 0.2265 0.3817
C2A C 1.0490(4) -0.1666(3) 0.7179(4)
C2D C 1.0490(4) 0.1666(3) 0.7179(4)
C2E C 0.9510(4) 0.1666(3) 0.2821(4)
C3A C 0.9412(4) -0.2334(2) 0.6141(4)
C3E C 1.0588(4) 0.2334(2) 0.3859(4)
C3D C 0.9412(4) 0.2334(2) 0.6141(4)
H3A H 0.9399 -0.2856 0.6155
H3E H 1.0601 0.2856 0.3845
H3D H 0.9399 0.2856 0.6155
C4A C 0.8969(3) -0.2018(2) 0.7057(4)
C4E C 1.1031(3) 0.2018(2) 0.2943(4)
C4D C 0.8969(3) 0.2018(2) 0.7057(4)
H4A H 0.8775 -0.2391 0.7516
H4E H 1.1225 0.2391 0.2484
H4D H 0.8775 0.2391 0.7516
C5E C 0.8124(3) 0.1699(2) 0.5522(4)
C5A C 1.1876(3) -0.1699(2) 0.4478(4)
C5D C 1.1876(3) 0.1699(2) 0.4478(4)
C6D C 0.9621(4) 0.1298(3) 0.8612(4)
C6E C 1.0379(4) 0.1298(3) 0.1388(4)
C6A C 0.9621(4) -0.1298(3) 0.8612(4)
H5D H 1.0230 0.1283 0.8979
H5E H 0.9770 0.1283 0.1021
H5A H 1.0230 -0.1283 0.8979
H6D H 0.9252 0.1616 0.8987
H6E H 1.0748 0.1616 0.1013
H6A H 0.9252 -0.1616 0.8987
C7A C 0.7511(3) -0.1291(2) 0.7131(3)
C7D C 0.7511(3) 0.1291(2) 0.7131(3)
C7E C 1.2489(3) 0.1291(2) 0.2869(3)
H7A H 0.7395 -0.1589 0.7714
H7D H 0.7395 0.1589 0.7714
H7E H 1.2605 0.1589 0.2286
H8A H 0.6944 -0.1254 0.6680
H8D H 0.6944 0.1254 0.6680
H8E H 1.3056 0.1254 0.3320
C8A C 0.8251(3) -0.0421(2) 0.8528(3)
C8D C 0.8251(3) 0.0421(2) 0.8528(3)
C8E C 1.1749(3) 0.0421(2) 0.1472(3)
C9A C 0.7464(4) 0.0000 0.6986(5)
C10A C 0.9774(4) 0.0000 0.8682(5)
C11D C 0.7795(4) 0.0766(3) 0.9393(4)
C11E C 1.2205(4) 0.0766(3) 0.0607(4)
C11A C 0.7795(4) -0.0766(3) 0.9393(4)
H9D H 0.7156 0.0646 0.9324
H9E H 1.2844 0.0646 0.0676
H9A H 0.7156 -0.0646 0.9324
H10D H 0.7862 0.1273 0.9356
H10E H 1.2138 0.1273 0.0644
H10A H 0.7862 -0.1273 0.9356
H11D H 0.8076 0.0598 1.0048
H11E H 1.1924 0.0598 -0.0048
H11A H 0.8076 -0.0598 1.0048
N1A N 1.0338(3) -0.2067(2) 0.6303(3)
N1D N 1.0338(3) 0.2067(2) 0.6303(3)
N1E N 0.9662(3) 0.2067(2) 0.3697(3)
N2A N 0.9678(3) -0.1579(2) 0.7575(3)
N2D N 0.9678(3) 0.1579(2) 0.7575(3)
N2E N 1.0322(3) 0.1579(2) 0.2425(3)
N3A N 1.1124(3) -0.2064(2) 0.4739(3)
N3D N 1.1124(3) 0.2064(2) 0.4739(3)
N3E N 0.8876(3) 0.2064(2) 0.5261(3)
N4A N 0.8201(3) -0.16348(19) 0.6564(3)
N4D N 0.8201(3) 0.16348(19) 0.6564(3)
N4E N 1.1799(3) 0.16348(19) 0.3436(3)
N5D N 0.9223(3) 0.0588(2) 0.8599(3)
N5E N 1.0777(3) 0.0588(2) 0.1401(3)
N5A N 0.9223(3) -0.0588(2) 0.8599(3)
N6A N 0.7775(2) -0.05893(18) 0.7509(3)
N6D N 0.7775(2) 0.05893(18) 0.7509(3)
N6E N 1.2225(2) 0.05893(18) 0.2491(3)
O7E O 0.8773(3) 0.1433(3) 0.2458(3)
O7D O 1.1227(3) 0.1433(3) 0.7542(3)
O7A O 1.1227(3) -0.1433(3) 0.7542(3)
O8E O 0.7488(2) 0.1493(2) 0.4921(3)
O8A O 1.2512(2) -0.1493(2) 0.5079(3)
O8D O 1.2512(2) 0.1493(2) 0.5079(3)
O9A O 0.6972(3) 0.0000 0.6175(4)
O10A O 1.0599(3) 0.0000 0.8805(5)
C12 C 1.1285(5) 0.0000 0.5861(5)
C13 C 0.9656(5) 0.0000 0.5764(6)
C14 C 1.0484(9) 0.0000 0.5237(10)
C15 C 1.1136(11) 0.0000 0.4816(10)
C16 C 1.0469(8) 0.0000 0.6402(12)
N7 N 1.2114(9) 0.0000 0.6534(12)
C17 C 1.2308(10) 0.0000 0.7698(14)
C18 C 1.3126(12) -0.0332(9) 0.7736(17)
N8 N 1.3430(10) -0.0567(17) 0.6803(14)
C19 C 1.2872(10) -0.0251(7) 0.6047(15)
C12A C 0.8715(5) 0.0000 0.4139(5)
C13A C 1.0344(5) 0.0000 0.4236(6)
C14A C 0.9516(9) 0.0000 0.4763(10)
C15A C 0.8864(11) 0.0000 0.5184(10)
C16A C 0.9531(8) 0.0000 0.3598(12)
N7A N 0.7886(9) 0.0000 0.3466(12)
C17A C 0.7692(10) 0.0000 0.2302(14)
C18A C 0.6874(12) -0.0332(9) 0.2264(17)
C18D C 0.6874(12) 0.0332(9) 0.2264(17)
C18E C 1.3126(12) 0.0332(9) 0.7736(17)
N8D N 0.6570(10) 0.0567(17) 0.3197(14)
N8A N 0.6570(10) -0.0567(17) 0.3197(14)
N8E N 1.3430(10) 0.0567(17) 0.6803(14)
C19D C 0.7128(10) 0.0251(7) 0.3953(15)
C19A C 0.7128(10) -0.0251(7) 0.3953(15)
C19E C 1.2872(10) 0.0251(7) 0.6047(15)
Cl1 Cl 0.7493(8) 0.2283(6) 0.1181(8)
O2? O 0.5453(11) 0.9073(7) 0.503(4)
loop_
_geom_bond_atom_site_label_1
_geom_bond_atom_site_label_2
_geom_bond_site_symmetry_1
_geom_bond_site_symmetry_2
C1 H1 1_555 1_555
H2 C1 1_555 1_555
C2 N1 1_555 1_555
C3 H3 1_555 1_555
C4 C3 1_555 1_555
H4 C4 1_555 1_555
C5 N3 1_555 1_555
C6 H5 1_555 1_555
H6 C6 1_555 1_555
C7 H7 1_555 1_555
H8 C7 1_555 1_555
C8 C11 1_555 1_555
C9 N6 1_555 1_555
C10 N5 1_555 1_555
C11 H9 1_555 1_555
H10 C11 1_555 1_555
H11 C11 1_555 1_555
N1 C1 1_555 1_555
N2 C2 1_555 1_555
N3 C1 1_555 1_555
N4 C4 1_555 1_555
N5 C6 1_555 1_555
N6 C7 1_555 1_555
O7 C2 1_555 1_555
O8 C5 1_555 1_555
O9 C9 1_555 1_555
O10 C10 1_555 1_555
C12 C14 1_555 1_555
C13 C14 1_555 1_555
C14 C15 1_555 1_555
C15 C12 1_555 1_555
C16 C12 1_555 1_555
N7 C12 1_555 1_555
C17 N7 1_555 1_555
C18 C17 1_555 1_555
N8 C18 1_555 1_555
C19 N7 1_555 1_555
C1A H1A 1_555 1_555
C1D H1D 1_555 1_555
C1E H1E 1_555 1_555
H2A C1A 1_555 1_555
H2D C1D 1_555 1_555
H2E C1E 1_555 1_555
C2A N1A 1_555 1_555
C2D N1D 1_555 1_555
C2E N1E 1_555 1_555
C3A N3 1_555 1_555
C3E H3E 1_555 1_555
C3D H3D 1_555 1_555
H3A C3A 1_555 1_555
C4A C3A 1_555 1_555
C4E C3E 1_555 1_555
C4D C3D 1_555 1_555
H4A C4A 1_555 1_555
H4E C4E 1_555 1_555
H4D C4D 1_555 1_555
C5E N3E 1_555 1_555
C5A N4 1_555 1_555
C5D N3D 1_555 1_555
C6D H5D 1_555 1_555
C6E H5E 1_555 1_555
C6A H5A 1_555 1_555
H6D C6D 1_555 1_555
H6E C6E 1_555 1_555
H6A C6A 1_555 1_555
C7A H7A 1_555 1_555
C7D H7D 1_555 1_555
C7E H7E 1_555 1_555
H8A C7A 1_555 1_555
H8D C7D 1_555 1_555
H8E C7E 1_555 1_555
C8A C8D 1_555 1_555
C8D C11D 1_555 1_555
C8E C8 1_555 1_555
C9A N6A 1_555 1_555
C10A N5D 1_555 1_555
C11D H9D 1_555 1_555
C11E C8E 1_555 1_555
C11A C8A 1_555 1_555
H9E C11E 1_555 1_555
H9A C11A 1_555 1_555
H10D C11D 1_555 1_555
H10E C11E 1_555 1_555
H10A C11A 1_555 1_555
H11D C11D 1_555 1_555
H11E C11E 1_555 1_555
H11A C11A 1_555 1_555
N1A C1A 1_555 1_555
N1D C1D 1_555 1_555
N1E C1E 1_555 1_555
N2A C2A 1_555 1_555
N2D C2D 1_555 1_555
N2E C2E 1_555 1_555
N3A C3 1_555 1_555
N3D C1D 1_555 1_555
N3E C1E 1_555 1_555
N4A C5 1_555 1_555
N4D C4D 1_555 1_555
N4E C4E 1_555 1_555
N5D C6D 1_555 1_555
N5E C10 1_555 1_555
N5A C6A 1_555 1_555
N6A C7A 1_555 1_555
N6D C7D 1_555 1_555
N6E C9 1_555 1_555
O7E C2E 1_555 1_555
O7D C2D 1_555 1_555
O7A C2A 1_555 1_555
O8E C5E 1_555 1_555
O8A C5A 1_555 1_555
O8D C5D 1_555 1_555
O9A C9A 1_555 1_555
O10A C10A 1_555 1_555
C12A C14A 1_555 1_555
C13A C14 1_555 1_555
C14A C13 1_555 1_555
C15A C13 1_555 1_555
C16A C12A 1_555 1_555
N7A C12A 1_555 1_555
C17A N7A 1_555 1_555
C18A C17A 1_555 1_555
C18D C17A 1_555 1_555
C18E C17 1_555 1_555
N8D C18D 1_555 1_555
N8A C18A 1_555 1_555
N8E C18E 1_555 1_555
C19D N7A 1_555 1_555
C19A N7A 1_555 1_555
C19E N7 1_555 1_555
C3 N1 1_555 1_555
C4 N2 1_555 1_555
C6 N2 1_555 1_555
C7 N4 1_555 1_555
C8 N5 1_555 1_555
C8 N6 1_555 1_555
C13 C16 1_555 1_555
C14 C16 1_555 1_555
C14 C14A 1_555 1_555
C15 C13A 1_555 1_555
C18 C18E 1_555 1_555
N8 C19 1_555 1_555
C19 C19E 1_555 1_555
C1A N3A 1_555 1_555
C3A N1A 1_555 1_555
C3E N1E 1_555 1_555
C3E N3D 1_555 1_555
C3D N1D 1_555 1_555
C3D N3E 1_555 1_555
C4A N2A 1_555 1_555
C4A N4A 1_555 1_555
C4E N2E 1_555 1_555
C4D N2D 1_555 1_555
C5E N4D 1_555 1_555
C5A N3A 1_555 1_555
C5D N4E 1_555 1_555
C6D N2D 1_555 1_555
C6E N2E 1_555 1_555
C6E N5E 1_555 1_555
C6A N2A 1_555 1_555
C7A N4A 1_555 1_555
C7D N4D 1_555 1_555
C7E N4E 1_555 1_555
C7E N6E 1_555 1_555
C8A N5A 1_555 1_555
C8A N6A 1_555 1_555
C8D N5D 1_555 1_555
C8D N6D 1_555 1_555
C8E N5E 1_555 1_555
C8E N6E 1_555 1_555
C9A N6D 1_555 1_555
C10A N5A 1_555 1_555
C12A C15A 1_555 1_555
C13A C14A 1_555 1_555
C13A C16A 1_555 1_555
C14A C15A 1_555 1_555
C14A C16A 1_555 1_555
C18A C18D 1_555 1_555
N8D C19D 1_555 1_555
N8A C19A 1_555 1_555
N8E C19E 1_555 1_555
C19D C19A 1_555 1_555

#END
