
#######################################################################
#
#                 Cambridge Crystallographic Data Centre
#                                CCDC 
#
#######################################################################
#
# If this CIF has been generated from an entry in the Cambridge 
# Structural Database, then it will include bibliographic, chemical, 
# crystal, experimental, refinement or atomic coordinate data resulting 
# from the CCDC's data processing and validation procedures.
#
#######################################################################

data_ROZRUU
_chemical_formula_moiety         
'C36 H50 Cl1 N20 O14 Sr2 3+,3(Cl1 1-),13(H2 O1)'
_chemical_name_systematic        
'(\m~2~-Chloro)-(\m~2~-\a,\b,\f-hexamethylcucurbit(5)uril)-tetra-aqua-di-strontium(ii) trichloride tridecahydrate'
_symmetry_cell_setting           monoclinic
_symmetry_space_group_name_H-M   'P 21/c'
_symmetry_Int_Tables_number      14
_space_group_name_Hall           '-P 2ybc'
loop_
_symmetry_equiv_pos_site_id
_symmetry_equiv_pos_as_xyz
1 x,y,z
2 -x,1/2+y,1/2-z
3 -x,-y,-z
4 x,1/2-y,1/2+z
_cell_length_a                   14.804(2)
_cell_length_b                   27.991(4)
_cell_length_c                   15.425(2)
_cell_angle_alpha                90
_cell_angle_beta                 111.104(2)
_cell_angle_gamma                90
_cell_volume                     5963.08
_cell_formula_units_Z            4
loop_
_atom_site_label
_atom_site_type_symbol
_atom_site_fract_x
_atom_site_fract_y
_atom_site_fract_z
O1 O 0.2516(2) -0.07202(11) 0.6892(2)
H1 H 0.2280 -0.1038 0.7012
H2 H 0.3022 -0.0789 0.6703
O2 O 0.1299(3) -0.06040(11) 0.7951(3)
H3 H 0.1291 -0.0950 0.7815
H4 H 0.1218 -0.0591 0.8561
O3 O 0.2101(3) 0.32854(14) 0.7413(3)
H5 H 0.1583 0.3298 0.7257
H6 H 0.2536 0.3643 0.7565
O4 O 0.4075(3) 0.31133(13) 0.8060(3)
H7 H 0.3996 0.3437 0.7915
H8 H 0.4925 0.3051 0.8391
Cl1 Cl 0.25213(10) 0.12318(5) 0.75532(9)
C1 C 0.4162(3) 0.04683(16) 0.9386(3)
C2 C 0.5353(3) 0.10661(16) 0.9852(3)
C3 C 0.4677(3) 0.11035(15) 1.0445(3)
C4 C 0.4506(3) 0.17893(16) 0.9521(3)
C5 C 0.3189(3) 0.05905(16) 1.0366(3)
H23 H 0.3060 0.0251 1.0276
H24 H 0.3379 0.0655 1.1026
C6 C 0.3544(3) 0.17957(16) 1.0522(3)
H25 H 0.3690 0.1689 1.1156
H26 H 0.3648 0.2138 1.0539
C7 C 0.1576(3) 0.06504(16) 0.9145(3)
C8 C 0.2021(3) 0.12971(15) 1.0170(3)
H27 H 0.2053 0.1288 1.0816
C9 C 0.0971(3) 0.13738(15) 0.9478(3)
H28 H 0.0509 0.1397 0.9799
C10 C 0.1958(3) 0.19945(17) 0.9315(3)
C11 C -0.0112(3) 0.08192(16) 0.8173(3)
H29 H -0.0637 0.0935 0.8352
H30 H -0.0157 0.0474 0.8138
C12 C 0.0231(3) 0.20451(15) 0.8304(3)
H31 H 0.0363 0.2385 0.8311
H32 H -0.0344 0.2005 0.8459
C13 C -0.0001(3) 0.07474(16) 0.6625(3)
C14 C -0.0641(3) 0.14803(15) 0.6907(3)
C15 C -0.0605(3) 0.14815(15) 0.5893(3)
C16 C 0.0436(3) 0.20712(16) 0.6800(3)
C17 C -0.0038(3) 0.08179(15) 0.5027(3)
H33 H -0.0523 0.0942 0.4465
H34 H -0.0109 0.0473 0.5018
C18 C 0.0353(3) 0.20301(15) 0.5186(3)
H35 H -0.0203 0.1994 0.4615
H36 H 0.0493 0.2369 0.5278
C19 C 0.1669(3) 0.06211(16) 0.5288(3)
C20 C 0.1119(3) 0.13542(15) 0.4562(3)
H37 H 0.0681 0.1381 0.3913
C21 C 0.2183(3) 0.12705(15) 0.4645(3)
H38 H 0.2250 0.1272 0.4036
C22 C 0.2092(3) 0.19666(16) 0.5470(3)
C23 C 0.3350(3) 0.05823(16) 0.5309(3)
H39 H 0.3590 0.0654 0.4816
H40 H 0.3259 0.0239 0.5312
C24 C 0.3693(3) 0.17846(16) 0.5396(3)
H41 H 0.3768 0.2129 0.5430
H42 H 0.3853 0.1675 0.4872
C25 C 0.4214(3) 0.04674(17) 0.6985(3)
C26 C 0.4811(3) 0.11006(16) 0.6323(3)
C27 C 0.5429(3) 0.10609(16) 0.7391(3)
C28 C 0.4596(3) 0.17930(17) 0.7086(3)
C29 C 0.5338(3) 0.04348(17) 0.8607(3)
H43 H 0.5164 0.0099 0.8546
H44 H 0.6039 0.0454 0.8865
C30 C 0.5632(3) 0.16785(16) 0.8717(3)
H45 H 0.6303 0.1576 0.8968
H46 H 0.5628 0.2025 0.8715
C31 C 0.6437(3) 0.10119(18) 1.0422(4)
H47 H 0.6547 0.0715 1.0756
H48 H 0.6647 0.1272 1.0855
H49 H 0.6795 0.1015 1.0013
C32 C 0.5182(4) 0.10641(18) 1.1496(3)
H50 H 0.5625 0.1326 1.1716
H51 H 0.5532 0.0768 1.1645
H52 H 0.4708 0.1074 1.1787
C33 C -0.1629(3) 0.15466(17) 0.6966(3)
H53 H -0.2040 0.1285 0.6661
H54 H -0.1906 0.1841 0.6669
H55 H -0.1569 0.1556 0.7607
C34 C -0.1568(3) 0.15804(16) 0.5115(3)
H56 H -0.2016 0.1329 0.5094
H57 H -0.1472 0.1595 0.4533
H58 H -0.1823 0.1880 0.5229
C35 C 0.5357(4) 0.1038(2) 0.5665(4)
H59 H 0.5622 0.0722 0.5729
H60 H 0.5873 0.1268 0.5813
H61 H 0.4922 0.1086 0.5037
C36 C 0.6504(4) 0.10061(19) 0.7630(4)
H62 H 0.6755 0.1287 0.7438
H63 H 0.6626 0.0732 0.7315
H64 H 0.6815 0.0965 0.8289
N1 N 0.4958(2) 0.06508(13) 0.9260(3)
N2 N 0.3997(3) 0.07051(13) 1.0083(3)
N3 N 0.5158(3) 0.15154(13) 0.9329(3)
N4 N 0.4216(3) 0.15695(13) 1.0160(3)
N5 N 0.2298(3) 0.08465(12) 0.9883(2)
N6 N 0.0800(3) 0.09492(13) 0.8892(2)
N7 N 0.2535(3) 0.17014(12) 0.9997(3)
N8 N 0.1035(3) 0.18166(13) 0.9018(2)
N9 N -0.0244(3) 0.10044(13) 0.7252(3)
N10 N -0.0230(2) 0.10042(12) 0.5818(2)
N11 N 0.0022(3) 0.18669(13) 0.7362(2)
N12 N 0.0094(2) 0.18556(12) 0.5948(2)
N13 N 0.0913(2) 0.09313(12) 0.5013(2)
N14 N 0.2417(3) 0.08105(12) 0.5093(3)
N15 N 0.1170(3) 0.17962(12) 0.5070(2)
N16 N 0.2696(3) 0.16716(13) 0.5224(2)
N17 N 0.4084(3) 0.07212(13) 0.6193(3)
N18 N 0.5000(3) 0.06489(13) 0.7683(3)
N19 N 0.4386(3) 0.15757(13) 0.6249(3)
N20 N 0.5207(3) 0.15116(13) 0.7762(3)
O18 O 0.3692(2) 0.01166(10) 0.8968(2)
O19 O 0.1611(2) 0.02671(10) 0.8784(2)
O20 O 0.0351(2) 0.03416(10) 0.6750(2)
O21 O 0.1660(2) 0.02231(10) 0.5639(2)
O22 O 0.3733(2) 0.01225(11) 0.7049(2)
O23 O 0.4231(2) 0.21860(11) 0.9179(2)
O24 O 0.2213(2) 0.23587(11) 0.9027(2)
O25 O 0.1010(2) 0.24089(10) 0.7012(2)
O26 O 0.2333(2) 0.23314(10) 0.5935(2)
O27 O 0.4310(2) 0.21923(11) 0.7210(2)
Sr1 Sr 0.21627(3) 0.009612(15) 0.74350(3)
Sr2 Sr 0.28565(3) 0.243824(15) 0.76886(3)
O5 O 0.6102(3) 0.09509(13) 0.3882(3)
H9 H 0.6478 0.0792 0.4312
H10 H 0.5371 0.0882 0.3541
O6 O 0.2443(3) -0.04856(13) 0.4658(3)
O7 O 0.2294(3) -0.00512(16) 0.3031(3)
O8 O -0.2715(3) 0.25937(16) 0.8230(4)
H11 H -0.3192 0.2535 0.7716
H12 H -0.2311 0.2331 0.8498
O9 O -0.3932(3) 0.19289(15) 0.3942(4)
H13 H -0.3896 0.2002 0.4501
H14 H -0.4408 0.1834 0.3663
O10 O 0.0819(4) 0.05912(18) 0.2950(4)
H15 H 0.1124 0.0263 0.3187
H16 H 0.0201 0.0436 0.2804
O11 O -0.4335(4) 0.2720(2) 0.6719(4)
O12 O -0.1828(5) 0.22968(16) 1.0998(3)
H17 H -0.1243 0.2124 1.1235
H18 H -0.2363 0.2111 1.0908
O13 O 0.1104(3) -0.06810(14) 0.9736(3)
H19 H 0.1158 -0.0986 1.0053
H20 H 0.0347 -0.0510 0.9290
O14 O 0.0184(3) 0.34873(14) 0.6660(3)
O15 O -0.3637(3) 0.23261(14) 0.5580(3)
H21 H -0.3919 0.2471 0.6041
H22 H -0.3329 0.2529 0.5401
O16 O 0.0810(6) 0.0669(4) 1.1088(8)
O17 O 0.1882(6) -0.0105(3) 0.1121(5)
Cl2 Cl -0.13422(11) 0.16592(5) 0.27893(9)
Cl3 Cl 0.3733(3) 0.07860(19) 0.3058(3)
Cl4 Cl -0.15281(12) 0.17134(6) 0.94191(11)
Cl5? Cl 0.353(3) 0.0817(4) 0.2936(19)
O28? O 0.1147(19) 0.0132(6) 0.0870(16)
loop_
_geom_bond_atom_site_label_1
_geom_bond_atom_site_label_2
_geom_bond_site_symmetry_1
_geom_bond_site_symmetry_2
O1 H1 1_555 1_555
H2 O1 1_555 1_555
O2 H3 1_555 1_555
H4 O2 1_555 1_555
O3 H5 1_555 1_555
H6 O3 1_555 1_555
O4 H7 1_555 1_555
H8 O4 1_555 1_555
O5 H9 1_555 1_555
H10 O5 1_555 1_555
O8 H11 1_555 1_555
H12 O8 1_555 1_555
O9 H13 1_555 1_555
H14 O9 1_555 1_555
O10 H15 1_555 1_555
H16 O10 1_555 1_555
O12 H17 1_555 1_555
H18 O12 1_555 1_555
O13 H19 1_555 1_555
H20 O13 1_555 1_555
O15 H21 1_555 1_555
H22 O15 1_555 1_555
Cl1 Sr1 1_555 1_555
C1 N1 1_555 1_555
C2 C3 1_555 1_555
C3 C32 1_555 1_555
C4 N3 1_555 1_555
C5 H23 1_555 1_555
H24 C5 1_555 1_555
C6 H25 1_555 1_555
H26 C6 1_555 1_555
C7 N5 1_555 1_555
C8 H27 1_555 1_555
C9 C8 1_555 1_555
H28 C9 1_555 1_555
C10 N7 1_555 1_555
C11 H29 1_555 1_555
H30 C11 1_555 1_555
C12 H31 1_555 1_555
H32 C12 1_555 1_555
C13 N9 1_555 1_555
C14 C15 1_555 1_555
C15 C34 1_555 1_555
C16 N11 1_555 1_555
C17 H33 1_555 1_555
H34 C17 1_555 1_555
C18 H35 1_555 1_555
H36 C18 1_555 1_555
C19 N13 1_555 1_555
C20 H37 1_555 1_555
C21 C20 1_555 1_555
H38 C21 1_555 1_555
C22 N15 1_555 1_555
C23 H39 1_555 1_555
H40 C23 1_555 1_555
C24 H41 1_555 1_555
H42 C24 1_555 1_555
C25 N17 1_555 1_555
C26 C27 1_555 1_555
C27 C36 1_555 1_555
C28 N19 1_555 1_555
C29 H43 1_555 1_555
H44 C29 1_555 1_555
C30 H45 1_555 1_555
H46 C30 1_555 1_555
C31 C2 1_555 1_555
H47 C31 1_555 1_555
H48 C31 1_555 1_555
H49 C31 1_555 1_555
C32 H50 1_555 1_555
H51 C32 1_555 1_555
H52 C32 1_555 1_555
C33 C14 1_555 1_555
H53 C33 1_555 1_555
H54 C33 1_555 1_555
H55 C33 1_555 1_555
C34 H56 1_555 1_555
H57 C34 1_555 1_555
H58 C34 1_555 1_555
C35 C26 1_555 1_555
H59 C35 1_555 1_555
H60 C35 1_555 1_555
H61 C35 1_555 1_555
C36 H62 1_555 1_555
H63 C36 1_555 1_555
H64 C36 1_555 1_555
N1 C2 1_555 1_555
N2 C1 1_555 1_555
N3 C2 1_555 1_555
N4 C3 1_555 1_555
N5 C5 1_555 1_555
N6 C7 1_555 1_555
N7 C6 1_555 1_555
N8 C9 1_555 1_555
N9 C11 1_555 1_555
N10 C13 1_555 1_555
N11 C12 1_555 1_555
N12 C15 1_555 1_555
N13 C17 1_555 1_555
N14 C19 1_555 1_555
N15 C18 1_555 1_555
N16 C21 1_555 1_555
N17 C23 1_555 1_555
N18 C25 1_555 1_555
N19 C24 1_555 1_555
N20 C27 1_555 1_555
O18 C1 1_555 1_555
O19 C7 1_555 1_555
O20 C13 1_555 1_555
O21 C19 1_555 1_555
O22 C25 1_555 1_555
O23 C4 1_555 1_555
O24 C10 1_555 1_555
O25 C16 1_555 1_555
O26 C22 1_555 1_555
O27 C28 1_555 1_555
Sr1 O1 1_555 1_555
Sr2 O3 1_555 1_555
O2 Sr1 1_555 1_555
O4 Sr2 1_555 1_555
Cl1 Sr2 1_555 1_555
C3 N2 1_555 1_555
C4 N4 1_555 1_555
C5 N2 1_555 1_555
C6 N4 1_555 1_555
C8 N5 1_555 1_555
C8 N7 1_555 1_555
C9 N6 1_555 1_555
C10 N8 1_555 1_555
C11 N6 1_555 1_555
C12 N8 1_555 1_555
C14 N9 1_555 1_555
C14 N11 1_555 1_555
C15 N10 1_555 1_555
C16 N12 1_555 1_555
C17 N10 1_555 1_555
C18 N12 1_555 1_555
C20 N13 1_555 1_555
C20 N15 1_555 1_555
C21 N14 1_555 1_555
C22 N16 1_555 1_555
C23 N14 1_555 1_555
C24 N16 1_555 1_555
C26 N17 1_555 1_555
C26 N19 1_555 1_555
C27 N18 1_555 1_555
C28 N20 1_555 1_555
C29 N1 1_555 1_555
C29 N18 1_555 1_555
C30 N3 1_555 1_555
C30 N20 1_555 1_555
O18 Sr1 1_555 1_555
O19 Sr1 1_555 1_555
O20 Sr1 1_555 1_555
O21 Sr1 1_555 1_555
O22 Sr1 1_555 1_555
O23 Sr2 1_555 1_555
O24 Sr2 1_555 1_555
O25 Sr2 1_555 1_555
O26 Sr2 1_555 1_555
O27 Sr2 1_555 1_555

#END
