
#######################################################################
#
#                 Cambridge Crystallographic Data Centre
#                                CCDC 
#
#######################################################################
#
# If this CIF has been generated from an entry in the Cambridge 
# Structural Database, then it will include bibliographic, chemical, 
# crystal, experimental, refinement or atomic coordinate data resulting 
# from the CCDC's data processing and validation procedures.
#
#######################################################################

data_ROZSIJ
_chemical_formula_moiety         
'C35 H48 Cl1 N20 O14 Sr2 3+,3(Cl1 1-),22(H2 O1)'
_chemical_name_systematic        
'(\m~2~-Chloro)-(\m~2~-pentamethylcucurbit(5)uril)-tetra-aqua-di-strontium(ii) trichloride docosahydrate'
_symmetry_cell_setting           monoclinic
_symmetry_space_group_name_H-M   'C 2/c'
_symmetry_Int_Tables_number      15
_space_group_name_Hall           '-C 2yn'
loop_
_symmetry_equiv_pos_site_id
_symmetry_equiv_pos_as_xyz
1 x,y,z
2 -x,y,1/2-z
3 1/2+x,1/2+y,z
4 1/2-x,1/2+y,1/2-z
5 -x,-y,-z
6 x,-y,1/2+z
7 1/2-x,1/2-y,-z
8 1/2+x,1/2-y,1/2+z
_cell_length_a                   24.1650(16)
_cell_length_b                   20.9390(15)
_cell_length_c                   16.3369(11)
_cell_angle_alpha                90
_cell_angle_beta                 122.062(2)
_cell_angle_gamma                90
_cell_volume                     7005.5
_exptl_crystal_colour            laurel-green
_cell_formula_units_Z            4
loop_
_atom_site_label
_atom_site_type_symbol
_atom_site_fract_x
_atom_site_fract_y
_atom_site_fract_z
O3 O 0.7097(5) 0.0230(4) 0.7199(7)
O4 O 0.6805(4) 0.4379(4) 0.5832(5)
O5 O 0.5585(4) -0.2586(4) 0.3942(6)
O6 O 0.6609(5) 0.3573(5) 0.1026(8)
O7 O 0.5651(6) -0.3911(5) 0.4051(8)
O8 O 0.7133(5) 0.1110(7) 0.8653(11)
O9 O 0.7656(7) -0.0242(6) 0.4956(10)
O10 O 0.7516(8) 0.1849(10) 0.0614(19)
O11 O 0.8393(16) 0.1749(6) 0.227(3)
O12 O 0.5700(11) 0.4940(13) 0.596(2)
O13 O 0.610(2) 0.5759(19) 0.314(4)
Cl1 Cl 0.58871(19) -0.2055(2) 0.2413(3)
Cl2 Cl 0.6584(3) 0.4565(3) 0.2540(5)
O1 O 0.3525(3) 0.2206(3) 0.4185(5)
O2 O 0.2732(4) 0.1320(4) 0.2608(6)
C1 C 0.4363(3) 0.3245(3) 0.2831(5)
C2 C 0.4732(3) 0.3790(3) 0.1961(5)
C3 C 0.3550(3) 0.3321(3) 0.1088(5)
H1 H 0.3246 0.3292 0.1304
H2 H 0.3427 0.3690 0.0667
C4 C 0.5288(3) 0.3338(3) 0.4523(5)
H3 H 0.4953 0.3313 0.4677
H4 H 0.5567 0.3697 0.4876
C5 C 0.3270(3) 0.2209(3) 0.0688(5)
C6 C 0.3633(3) 0.2723(3) -0.0207(4)
H5 H 0.3377 0.3029 -0.0729
C7 C 0.3456(3) 0.2012(3) -0.0567(4)
C8 C 0.4570(3) 0.2192(3) 0.0085(4)
C9 C 0.3035(3) 0.1104(3) 0.0023(5)
H6 H 0.2730 0.1089 0.0237
H7 H 0.2810 0.0948 -0.0636
C10 C 0.4195(3) 0.1117(3) -0.0569(4)
H8 H 0.3797 0.0985 -0.1154
H9 H 0.4535 0.1145 -0.0714
C11 C 0.3733(3) 0.0514(3) 0.1520(4)
C12 C 0.3891(3) 0.0278(3) 0.0266(4)
H10 H 0.3577 0.0044 -0.0321
C13 C 0.4334(3) -0.0182(3) 0.1149(4)
C14 C 0.4408(3) -0.0267(3) 0.2784(4)
H11 H 0.4478 -0.0718 0.2737
H12 H 0.4068 -0.0230 0.2926
C15 C 0.4996(3) 0.0487(3) 0.0847(4)
C16 C 0.4561(6) 0.4484(6) 0.1630(9)
H13 H 0.4370 0.4682 0.1954
H14 H 0.4255 0.4497 0.0945
H15 H 0.4950 0.4710 0.1784
C17 C 0.2927(4) 0.1934(4) -0.1651(6)
H16 H 0.3088 0.2099 -0.2034
H17 H 0.2542 0.2164 -0.1797
H18 H 0.2823 0.1489 -0.1795
C18 C 0.4214(4) -0.0867(4) 0.0914(6)
H19 H 0.4324 -0.0972 0.0445
H20 H 0.3762 -0.0960 0.0655
H21 H 0.4479 -0.1114 0.1489
N1 N 0.4206(3) 0.3425(3) 0.1930(4)
N2 N 0.3481(3) 0.2760(3) 0.0540(4)
N3 N 0.4976(3) 0.3463(3) 0.3495(4)
N4 N 0.4323(3) 0.2757(3) 0.0142(4)
N5 N 0.3225(3) 0.1765(3) 0.0035(4)
N6 N 0.3574(2) 0.0685(2) 0.0623(4)
N7 N 0.4093(3) 0.1750(2) -0.0298(4)
N8 N 0.4375(2) 0.0635(2) 0.0155(4)
N9 N 0.4181(2) 0.0027(2) 0.1856(4)
N10 N 0.4990(2) 0.0003(2) 0.1411(4)
O14 O 0.3996(2) 0.2939(2) 0.3014(3)
O15 O 0.3124(2) 0.2101(2) 0.1298(3)
O16 O 0.3501(2) 0.0748(2) 0.1968(3)
O17 O 0.4509(2) 0.0728(2) 0.4070(3)
O18 O 0.4858(2) 0.2097(2) 0.4668(3)
Sr1 Sr 0.38671(3) 0.17261(3) 0.30663(4)
Cl3 Cl 0.5000 0.17253(12) 0.2500
O1A O 0.6475(3) 0.2206(3) 0.0815(5)
O2A O 0.7268(4) 0.1320(4) 0.2392(6)
C1A C 0.5637(3) 0.3245(3) 0.2169(5)
C2A C 0.5268(3) 0.3790(3) 0.3039(5)
C3A C 0.6450(3) 0.3321(3) 0.3912(5)
H1A H 0.6754 0.3292 0.3696
H2A H 0.6573 0.3690 0.4333
C4A C 0.4712(3) 0.3338(3) 0.0477(5)
H3A H 0.5047 0.3313 0.0323
H4A H 0.4433 0.3697 0.0124
C5A C 0.6730(3) 0.2209(3) 0.4312(5)
C6A C 0.6367(3) 0.2723(3) 0.5207(4)
H5A H 0.6623 0.3029 0.5729
C7A C 0.6544(3) 0.2012(3) 0.5567(4)
C8A C 0.5430(3) 0.2192(3) 0.4915(4)
C9A C 0.6965(3) 0.1104(3) 0.4977(5)
H6A H 0.7270 0.1089 0.4763
H7A H 0.7190 0.0948 0.5636
C10A C 0.5805(3) 0.1117(3) 0.5569(4)
H8A H 0.6203 0.0985 0.6154
H9A H 0.5465 0.1145 0.5714
C11A C 0.6267(3) 0.0514(3) 0.3480(4)
C12A C 0.6109(3) 0.0278(3) 0.4734(4)
H10A H 0.6423 0.0044 0.5321
C13A C 0.5666(3) -0.0182(3) 0.3851(4)
C14A C 0.5592(3) -0.0267(3) 0.2216(4)
H11A H 0.5522 -0.0718 0.2263
H12A H 0.5932 -0.0230 0.2074
C15A C 0.5004(3) 0.0487(3) 0.4153(4)
C16A C 0.5439(6) 0.4484(6) 0.3370(9)
H13A H 0.5630 0.4682 0.3046
H14A H 0.5745 0.4497 0.4055
H15A H 0.5050 0.4710 0.3216
C17A C 0.7073(4) 0.1934(4) 0.6651(6)
H16A H 0.6912 0.2099 0.7034
H17A H 0.7458 0.2164 0.6797
H18A H 0.7177 0.1489 0.6795
C18A C 0.5786(4) -0.0867(4) 0.4086(6)
H19A H 0.5676 -0.0972 0.4555
H20A H 0.6238 -0.0960 0.4345
H21A H 0.5521 -0.1114 0.3511
N1A N 0.5794(3) 0.3425(3) 0.3070(4)
N2A N 0.6519(3) 0.2760(3) 0.4460(4)
N3A N 0.5024(3) 0.3463(3) 0.1505(4)
N4A N 0.5677(3) 0.2757(3) 0.4858(4)
N5A N 0.6775(3) 0.1765(3) 0.4965(4)
N6A N 0.6426(2) 0.0685(2) 0.4377(4)
N7A N 0.5907(3) 0.1750(2) 0.5298(4)
N8A N 0.5625(2) 0.0635(2) 0.4845(4)
N9A N 0.5819(2) 0.0027(2) 0.3144(4)
N10A N 0.5010(2) 0.0003(2) 0.3589(4)
O14A O 0.6004(2) 0.2939(2) 0.1986(3)
O15A O 0.6876(2) 0.2101(2) 0.3702(3)
O16A O 0.6499(2) 0.0748(2) 0.3032(3)
O17A O 0.5491(2) 0.0728(2) 0.0930(3)
O18A O 0.5142(2) 0.2097(2) 0.0332(3)
Sr1A Sr 0.61329(3) 0.17261(3) 0.19337(4)
loop_
_geom_bond_atom_site_label_1
_geom_bond_atom_site_label_2
_geom_bond_site_symmetry_1
_geom_bond_site_symmetry_2
O1 Sr1 1_555 1_555
O2 Sr1 1_555 1_555
C1 N1 1_555 1_555
C2 C16 1_555 1_555
C3 H1 1_555 1_555
H2 C3 1_555 1_555
C4 H3 1_555 1_555
H4 C4 1_555 1_555
C5 N2 1_555 1_555
C6 H5 1_555 1_555
C7 C6 1_555 1_555
C8 N4 1_555 1_555
C9 H6 1_555 1_555
H7 C9 1_555 1_555
C10 H8 1_555 1_555
H9 C10 1_555 1_555
C11 N6 1_555 1_555
C12 H10 1_555 1_555
C13 C12 1_555 1_555
C14 H11 1_555 1_555
H12 C14 1_555 1_555
C15 N8 1_555 1_555
C16 H13 1_555 1_555
H14 C16 1_555 1_555
H15 C16 1_555 1_555
C17 C7 1_555 1_555
H16 C17 1_555 1_555
H17 C17 1_555 1_555
H18 C17 1_555 1_555
C18 C13 1_555 1_555
H19 C18 1_555 1_555
H20 C18 1_555 1_555
H21 C18 1_555 1_555
N1 C2 1_555 1_555
N2 C3 1_555 1_555
N3 C1 1_555 1_555
N4 C6 1_555 1_555
N5 C5 1_555 1_555
N6 C9 1_555 1_555
N7 C7 1_555 1_555
N8 C10 1_555 1_555
N9 C11 1_555 1_555
N10 C13 1_555 1_555
O14 C1 1_555 1_555
O15 C5 1_555 1_555
O16 C11 1_555 1_555
O17 Sr1 1_555 1_555
O18 Sr1 1_555 1_555
Sr1 O14 1_555 1_555
Cl3 Sr1 1_555 1_555
O1A Sr1A 1_555 1_555
O2A Sr1A 1_555 1_555
C1A N1A 1_555 1_555
C2A C2 1_555 1_555
C3A H1A 1_555 1_555
H2A C3A 1_555 1_555
C4A N4 1_555 1_555
H3A C4A 1_555 1_555
H4A C4A 1_555 1_555
C5A N2A 1_555 1_555
C6A H5A 1_555 1_555
C7A C6A 1_555 1_555
C8A O18 1_555 1_555
C9A H6A 1_555 1_555
H7A C9A 1_555 1_555
C10A H8A 1_555 1_555
H9A C10A 1_555 1_555
C11A N6A 1_555 1_555
C12A H10A 1_555 1_555
C13A C12A 1_555 1_555
C14A N10 1_555 1_555
H11A C14A 1_555 1_555
H12A C14A 1_555 1_555
C15A O17 1_555 1_555
C16A C2A 1_555 1_555
H13A C16A 1_555 1_555
H14A C16A 1_555 1_555
H15A C16A 1_555 1_555
C17A C7A 1_555 1_555
H16A C17A 1_555 1_555
H17A C17A 1_555 1_555
H18A C17A 1_555 1_555
C18A C13A 1_555 1_555
H19A C18A 1_555 1_555
H20A C18A 1_555 1_555
H21A C18A 1_555 1_555
N1A C2A 1_555 1_555
N2A C3A 1_555 1_555
N3A C2 1_555 1_555
N4A C4 1_555 1_555
N5A C5A 1_555 1_555
N6A C9A 1_555 1_555
N7A C7A 1_555 1_555
N8A C10A 1_555 1_555
N9A C11A 1_555 1_555
N10A C14 1_555 1_555
O14A C1A 1_555 1_555
O15A C5A 1_555 1_555
O16A C11A 1_555 1_555
O17A C15 1_555 1_555
O18A C8 1_555 1_555
Sr1A Cl3 1_555 1_555
C3 N1 1_555 1_555
C4 N3 1_555 1_555
C6 N2 1_555 1_555
C7 N5 1_555 1_555
C8 N7 1_555 1_555
C9 N5 1_555 1_555
C10 N7 1_555 1_555
C12 N6 1_555 1_555
C12 N8 1_555 1_555
C13 N9 1_555 1_555
C14 N9 1_555 1_555
C15 N10 1_555 1_555
N3 C2A 1_555 1_555
O15 Sr1 1_555 1_555
O16 Sr1 1_555 1_555
C1A N3A 1_555 1_555
C3A N1A 1_555 1_555
C4A N3A 1_555 1_555
C6A N2A 1_555 1_555
C6A N4A 1_555 1_555
C7A N5A 1_555 1_555
C8A N4A 1_555 1_555
C8A N7A 1_555 1_555
C9A N5A 1_555 1_555
C10A N7A 1_555 1_555
C12A N6A 1_555 1_555
C12A N8A 1_555 1_555
C13A N9A 1_555 1_555
C13A N10A 1_555 1_555
C14A N9A 1_555 1_555
C15A N8A 1_555 1_555
C15A N10A 1_555 1_555
O14A Sr1A 1_555 1_555
O15A Sr1A 1_555 1_555
O16A Sr1A 1_555 1_555
O17A Sr1A 1_555 1_555
O18A Sr1A 1_555 1_555

#END
