
#######################################################################
#
#                 Cambridge Crystallographic Data Centre
#                                CCDC 
#
#######################################################################
#
# If this CIF has been generated from an entry in the Cambridge 
# Structural Database, then it will include bibliographic, chemical, 
# crystal, experimental, refinement or atomic coordinate data resulting 
# from the CCDC's data processing and validation procedures.
#
#######################################################################

data_ROZYOW
_chemical_formula_moiety         'C34 H37 Cl1 N2 O4'
_chemical_name_systematic        
'methyl 3-anilino-2-(4-(bis(2-methoxyethyl)amino)phenyl)-3-(4-chlorophenyl)-2-phenylpropanoate'
_symmetry_cell_setting           monoclinic
_symmetry_space_group_name_H-M   'P 21'
_symmetry_Int_Tables_number      4
_space_group_name_Hall           'P 2yb'
loop_
_symmetry_equiv_pos_site_id
_symmetry_equiv_pos_as_xyz
1 x,y,z
2 -x,1/2+y,-z
_cell_length_a                   9.3898(15)
_cell_length_b                   17.429(3)
_cell_length_c                   9.4310(15)
_cell_angle_alpha                90
_cell_angle_beta                 97.325(5)
_cell_angle_gamma                90
_cell_volume                     1530.83
_exptl_crystal_colour            colorless
_exptl_crystal_description       block
_cell_formula_units_Z            2
loop_
_atom_site_label
_atom_site_type_symbol
_atom_site_fract_x
_atom_site_fract_y
_atom_site_fract_z
Cl1 Cl 0.2879(2) 0.27285(13) 0.5738(3)
O1 O 0.0909(5) 0.0112(3) 0.0222(5)
O2 O -0.1151(5) 0.0705(3) 0.0329(5)
O3 O -0.7974(8) -0.1701(4) -0.2085(8)
O4 O -0.5050(7) -0.3901(4) -0.1425(10)
N1 N -0.4979(5) -0.2238(4) -0.0879(6)
N2 N -0.1573(5) -0.0212(3) 0.4318(5)
H1 H -0.1218 -0.0664 0.4476
C1 C -0.0101(6) 0.0863(4) 0.3756(7)
C2 C -0.0092(7) 0.1589(5) 0.3167(7)
H2 H -0.0717 0.1694 0.2343
C3 C 0.0793(10) 0.2154(5) 0.3742(10)
H3 H 0.0768 0.2633 0.3305
C4 C 0.1728(8) 0.2025(5) 0.4965(11)
C5 C 0.1737(8) 0.1322(5) 0.5590(9)
H4 H 0.2360 0.1224 0.6418
C6 C 0.0818(7) 0.0748(4) 0.4997(8)
H5 H 0.0825 0.0274 0.5451
C7 C 0.0718(6) -0.0769(5) 0.2699(6)
C8 C 0.2080(7) -0.0442(5) 0.3004(7)
H6 H 0.2220 0.0069 0.2770
C9 C 0.3221(8) -0.0869(8) 0.3650(9)
H7 H 0.4120 -0.0640 0.3834
C10 C 0.3063(10) -0.1614(8) 0.4024(9)
H8 H 0.3843 -0.1888 0.4474
C11 C 0.1734(9) -0.1962(5) 0.3730(8)
H9 H 0.1616 -0.2475 0.3956
C12 C 0.0557(7) -0.1526(5) 0.3081(7)
H10 H -0.0343 -0.1754 0.2908
C13 C -0.1770(6) -0.0816(4) 0.1302(6)
C14 C -0.1490(7) -0.1300(4) 0.0209(7)
H11 H -0.0567 -0.1309 -0.0051
C15 C -0.2509(6) -0.1765(4) -0.0503(7)
H12 H -0.2263 -0.2078 -0.1233
C16 C -0.3922(6) -0.1782(4) -0.0160(7)
C17 C -0.4200(7) -0.1294(5) 0.0935(8)
H13 H -0.5119 -0.1282 0.1205
C18 C -0.3160(7) -0.0829(5) 0.1630(7)
H14 H -0.3400 -0.0509 0.2353
C19 C -0.2534(6) 0.0057(4) 0.5164(6)
C20 C -0.2918(7) -0.0399(5) 0.6268(7)
H15 H -0.2480 -0.0874 0.6437
C21 C -0.3910(9) -0.0169(6) 0.7104(8)
H16 H -0.4174 -0.0495 0.7807
C22 C -0.4523(9) 0.0544(7) 0.6913(9)
H17 H -0.5210 0.0702 0.7478
C23 C -0.4124(9) 0.1011(5) 0.5900(9)
H18 H -0.4502 0.1504 0.5797
C24 C -0.3163(7) 0.0765(5) 0.5019(8)
H19 H -0.2932 0.1089 0.4299
C25 C -0.0561(5) -0.0290(4) 0.2027(6)
C26 C -0.1131(6) 0.0241(4) 0.3157(6)
H20 H -0.1991 0.0498 0.2682
C27 C -0.0132(7) 0.0194(4) 0.0777(7)
C28 C -0.0903(9) 0.1138(5) -0.0907(8)
H21 H -0.1680 0.1492 -0.1147
H22 H -0.0843 0.0796 -0.1694
H23 H -0.0019 0.1418 -0.0706
C29 C -0.4759(8) -0.2628(4) -0.2187(9)
H24 H -0.4136 -0.2314 -0.2693
H25 H -0.5677 -0.2666 -0.2785
C30 C -0.4125(8) -0.3412(5) -0.2009(10)
H26 H -0.3939 -0.3607 -0.2931
H27 H -0.3218 -0.3388 -0.1390
C31 C -0.4521(14) -0.4308(10) -0.0385(13)
H28 H -0.5268 -0.4607 -0.0046
H29 H -0.4084 -0.3983 0.0369
H30 H -0.3810 -0.4645 -0.0688
C32 C -0.6364(7) -0.2294(5) -0.0355(9)
H31 H -0.6195 -0.2340 0.0678
H32 H -0.6820 -0.2765 -0.0722
C33 C -0.7379(9) -0.1665(7) -0.0708(12)
H33 H -0.8130 -0.1690 -0.0092
H34 H -0.6884 -0.1179 -0.0537
C34 C -0.8486(13) -0.1023(6) -0.2736(11)
H35 H -0.8853 -0.1122 -0.3716
H36 H -0.7720 -0.0656 -0.2696
H37 H -0.9241 -0.0821 -0.2246
loop_
_geom_bond_atom_site_label_1
_geom_bond_atom_site_label_2
_geom_bond_site_symmetry_1
_geom_bond_site_symmetry_2
Cl1 C4 1_555 1_555
O1 C27 1_555 1_555
O2 C27 1_555 1_555
O3 C33 1_555 1_555
O4 C30 1_555 1_555
N1 C16 1_555 1_555
N2 H1 1_555 1_555
C1 C2 1_555 1_555
C2 H2 1_555 1_555
C3 C2 1_555 1_555
H3 C3 1_555 1_555
C4 C3 1_555 1_555
C5 C4 1_555 1_555
H4 C5 1_555 1_555
C6 C1 1_555 1_555
H5 C6 1_555 1_555
C7 C8 1_555 1_555
C8 H6 1_555 1_555
C9 C8 1_555 1_555
H7 C9 1_555 1_555
C10 C9 1_555 1_555
H8 C10 1_555 1_555
C11 C10 1_555 1_555
H9 C11 1_555 1_555
C12 C7 1_555 1_555
H10 C12 1_555 1_555
C13 C14 1_555 1_555
C14 H11 1_555 1_555
C15 C14 1_555 1_555
H12 C15 1_555 1_555
C16 C15 1_555 1_555
C17 C16 1_555 1_555
H13 C17 1_555 1_555
C18 C13 1_555 1_555
H14 C18 1_555 1_555
C19 N2 1_555 1_555
C20 C19 1_555 1_555
H15 C20 1_555 1_555
C21 C20 1_555 1_555
H16 C21 1_555 1_555
C22 C21 1_555 1_555
H17 C22 1_555 1_555
C23 C22 1_555 1_555
H18 C23 1_555 1_555
C24 C19 1_555 1_555
H19 C24 1_555 1_555
C25 C7 1_555 1_555
C26 N2 1_555 1_555
H20 C26 1_555 1_555
C27 C25 1_555 1_555
C28 O2 1_555 1_555
H21 C28 1_555 1_555
H22 C28 1_555 1_555
H23 C28 1_555 1_555
C29 N1 1_555 1_555
H24 C29 1_555 1_555
H25 C29 1_555 1_555
C30 C29 1_555 1_555
H26 C30 1_555 1_555
H27 C30 1_555 1_555
C31 O4 1_555 1_555
H28 C31 1_555 1_555
H29 C31 1_555 1_555
H30 C31 1_555 1_555
C32 N1 1_555 1_555
H31 C32 1_555 1_555
H32 C32 1_555 1_555
C33 C32 1_555 1_555
H33 C33 1_555 1_555
H34 C33 1_555 1_555
C34 O3 1_555 1_555
H35 C34 1_555 1_555
H36 C34 1_555 1_555
H37 C34 1_555 1_555
C1 C26 1_555 1_555
C5 C6 1_555 1_555
C11 C12 1_555 1_555
C13 C25 1_555 1_555
C17 C18 1_555 1_555
C23 C24 1_555 1_555
C25 C26 1_555 1_555

#END
