
#######################################################################
#
#                 Cambridge Crystallographic Data Centre
#                                CCDC 
#
#######################################################################
#
# If this CIF has been generated from an entry in the Cambridge 
# Structural Database, then it will include bibliographic, chemical, 
# crystal, experimental, refinement or atomic coordinate data resulting 
# from the CCDC's data processing and validation procedures.
#
#######################################################################

data_RUBGAY
_chemical_formula_moiety         'C29 H23 Br1 N2 S1'
_chemical_name_systematic        
2-(5-Bromo-2-thienyl)-1-(4-t-butylphenyl)-1H-phenanthro[9,10-d]imidazole
_symmetry_cell_setting           triclinic
_symmetry_space_group_name_H-M   'P -1'
_symmetry_Int_Tables_number      2
_space_group_name_Hall           '-P 1'
loop_
_symmetry_equiv_pos_site_id
_symmetry_equiv_pos_as_xyz
1 x,y,z
2 -x,-y,-z
_cell_length_a                   9.2263(7)
_cell_length_b                   11.3952(5)
_cell_length_c                   12.1843(9)
_cell_angle_alpha                99.988(5)
_cell_angle_beta                 101.997(6)
_cell_angle_gamma                95.944(5)
_cell_volume                     1221.01
_cell_formula_units_Z            2
loop_
_atom_site_label
_atom_site_type_symbol
_atom_site_fract_x
_atom_site_fract_y
_atom_site_fract_z
Br1 Br -0.01231(7) 0.82014(5) 0.02886(5)
S1 S 0.09154(14) 0.96901(10) 0.27575(10)
N1 N 0.1859(4) 1.1100(3) 0.5087(3)
N2 N -0.0009(4) 1.2200(3) 0.5151(3)
C1 C -0.1407(4) 1.2625(3) 0.4747(4)
C2 C -0.1423(5) 1.3522(4) 0.4136(4)
H1 H -0.0531 1.3918 0.4052
C3 C 0.1020(5) 1.2566(3) 0.6199(4)
C4 C 0.0564(5) 1.1318(4) 0.4518(4)
C5 C 0.1048(5) 1.3459(3) 0.7197(4)
C6 C 0.3395(5) 1.1957(4) 0.7073(4)
C7 C 0.2302(5) 1.3590(4) 0.8127(4)
C8 C -0.0111(5) 1.0704(4) 0.3355(4)
C9 C -0.4060(5) 1.2399(4) 0.4423(4)
H2 H -0.4943 1.2019 0.4537
C10 C 0.2398(6) 1.4491(4) 0.9089(4)
H3 H 0.3223 1.4599 0.9702
C11 C -0.4131(5) 1.3276(4) 0.3763(4)
C12 C 0.2141(5) 1.1867(3) 0.6130(4)
C13 C -0.0073(5) 1.4199(4) 0.7296(4)
H4 H -0.0918 1.4102 0.6701
C14 C 0.1322(6) 1.5213(5) 0.9154(5)
H5 H 0.1423 1.5813 0.9800
C15 C -0.1421(6) 1.0718(4) 0.2585(4)
H6 H -0.2131 1.1205 0.2742
C16 C -0.1582(6) 0.9919(5) 0.1527(4)
H7 H -0.2406 0.9822 0.0915
C17 C 0.3465(5) 1.2808(4) 0.8077(4)
C18 C -0.2708(5) 1.2071(4) 0.4916(4)
H8 H -0.2684 1.1482 0.5357
C19 C -0.2782(5) 1.3836(4) 0.3642(4)
H9 H -0.2790 1.4440 0.3217
C20 C 0.5630(6) 1.1259(6) 0.7979(6)
H10 H 0.6355 1.0751 0.7953
C21 C 0.4492(5) 1.1192(5) 0.7035(5)
H11 H 0.4447 1.0639 0.6366
C22 C 0.0079(6) 1.5055(4) 0.8261(5)
H12 H -0.0666 1.5538 0.8317
C23 C -0.5638(5) 1.3540(5) 0.3126(5)
C24 C -0.0412(6) 0.9316(4) 0.1506(4)
C25 C 0.4656(6) 1.2845(5) 0.9021(5)
H13 H 0.4736 1.3402 0.9693
C26 C 0.5693(7) 1.2083(6) 0.8970(6)
H14 H 0.6456 1.2117 0.9613
C27 C -0.5517(7) 1.4701(8) 0.2711(9)
H15 H -0.5061 1.5349 0.3345
H16 H -0.6498 1.4848 0.2366
H17 H -0.4914 1.4652 0.2155
C28 C -0.6776(7) 1.3551(9) 0.3837(8)
H18 H -0.6901 1.2793 0.4072
H19 H -0.7714 1.3681 0.3394
H20 H -0.6444 1.4187 0.4501
C29 C -0.6219(12) 1.2505(10) 0.2115(9)
H21 H -0.5698 1.2601 0.1524
H22 H -0.7271 1.2497 0.1826
H23 H -0.6056 1.1760 0.2354
loop_
_geom_bond_atom_site_label_1
_geom_bond_atom_site_label_2
_geom_bond_site_symmetry_1
_geom_bond_site_symmetry_2
Br1 C24 1_555 1_555
S1 C8 1_555 1_555
N1 C4 1_555 1_555
N2 C1 1_555 1_555
C1 C2 1_555 1_555
C2 H1 1_555 1_555
C3 N2 1_555 1_555
C4 N2 1_555 1_555
C5 C3 1_555 1_555
C6 C12 1_555 1_555
C7 C5 1_555 1_555
C8 C4 1_555 1_555
C9 H2 1_555 1_555
C10 C7 1_555 1_555
H3 C10 1_555 1_555
C11 C9 1_555 1_555
C12 N1 1_555 1_555
C13 C5 1_555 1_555
H4 C13 1_555 1_555
C14 C10 1_555 1_555
H5 C14 1_555 1_555
C15 C8 1_555 1_555
H6 C15 1_555 1_555
C16 C15 1_555 1_555
H7 C16 1_555 1_555
C17 C6 1_555 1_555
C18 C1 1_555 1_555
H8 C18 1_555 1_555
C19 C2 1_555 1_555
H9 C19 1_555 1_555
C20 H10 1_555 1_555
C21 C6 1_555 1_555
H11 C21 1_555 1_555
C22 C13 1_555 1_555
H12 C22 1_555 1_555
C23 C11 1_555 1_555
C24 S1 1_555 1_555
C25 C17 1_555 1_555
H13 C25 1_555 1_555
C26 C20 1_555 1_555
H14 C26 1_555 1_555
C27 C23 1_555 1_555
H15 C27 1_555 1_555
H16 C27 1_555 1_555
H17 C27 1_555 1_555
C28 C23 1_555 1_555
H18 C28 1_555 1_555
H19 C28 1_555 1_555
H20 C28 1_555 1_555
C29 C23 1_555 1_555
H21 C29 1_555 1_555
H22 C29 1_555 1_555
H23 C29 1_555 1_555
C3 C12 1_555 1_555
C7 C17 1_555 1_555
C9 C18 1_555 1_555
C11 C19 1_555 1_555
C14 C22 1_555 1_555
C16 C24 1_555 1_555
C20 C21 1_555 1_555
C25 C26 1_555 1_555

#END
