
#######################################################################
#
#                 Cambridge Crystallographic Data Centre
#                                CCDC 
#
#######################################################################
#
# If this CIF has been generated from an entry in the Cambridge 
# Structural Database, then it will include bibliographic, chemical, 
# crystal, experimental, refinement or atomic coordinate data resulting 
# from the CCDC's data processing and validation procedures.
#
#######################################################################

data_RUBQAI
_chemical_formula_moiety         'C10 H10 O12 S4 4-,4(C1 H6 N3 1+)'
_chemical_name_systematic        
'tetrakis(Guanidinium) benzene-1,2,4,5-tetrayltetramethanesulfonate'
_symmetry_cell_setting           triclinic
_symmetry_space_group_name_H-M   'P -1'
_symmetry_Int_Tables_number      2
_space_group_name_Hall           '-P 1'
loop_
_symmetry_equiv_pos_site_id
_symmetry_equiv_pos_as_xyz
1 x,y,z
2 -x,-y,-z
_cell_length_a                   7.4352(2)
_cell_length_b                   9.8700(3)
_cell_length_c                   10.2119(3)
_cell_angle_alpha                74.4080(10)
_cell_angle_beta                 82.6280(10)
_cell_angle_gamma                87.0200(10)
_cell_volume                     715.74
_exptl_crystal_colour            colorless
_exptl_crystal_description       block
_cell_formula_units_Z            1
loop_
_atom_site_label
_atom_site_type_symbol
_atom_site_fract_x
_atom_site_fract_y
_atom_site_fract_z
S1 S 0.47394(4) 0.40440(3) 0.30167(3)
S2 S 0.06509(4) -0.03200(3) 0.77809(3)
O1 O 0.30179(13) 0.40782(11) 0.38752(10)
O2 O 0.62972(14) 0.40544(10) 0.37627(10)
O3 O 0.48551(14) 0.51215(10) 0.17112(10)
O4 O -0.11117(13) -0.09666(11) 0.83285(10)
O5 O 0.19524(13) -0.06169(11) 0.87865(10)
O6 O 0.04911(14) 0.11822(11) 0.71168(11)
C1 C 0.15629(18) -0.11561(14) 0.64794(14)
H1 H 0.1711 -0.2177 0.6903
H2 H 0.0685 -0.1038 0.5804
C2 C 0.33655(17) -0.05806(14) 0.57408(13)
C3 C 0.33795(17) 0.05620(14) 0.45848(13)
H3 H 0.2253 0.0952 0.4301
C4 C 0.49782(18) 0.11549(13) 0.38297(13)
C5 C 0.48521(18) 0.23917(14) 0.25950(13)
H4 H 0.3758 0.2299 0.2168
H5 H 0.5924 0.2375 0.1915
S1A S 0.52606(4) -0.40440(3) 0.69833(3)
S2A S 0.93491(4) 0.03200(3) 0.22191(3)
O1A O 0.69821(13) -0.40782(11) 0.61248(10)
O2A O 0.37028(14) -0.40544(10) 0.62373(10)
O3A O 0.51449(14) -0.51215(10) 0.82888(10)
O4A O 1.11117(13) 0.09666(11) 0.16715(10)
O5A O 0.80476(13) 0.06169(11) 0.12135(10)
O6A O 0.95089(14) -0.11822(11) 0.28832(11)
C1A C 0.84371(18) 0.11561(14) 0.35206(14)
H1A H 0.8289 0.2177 0.3097
H2A H 0.9315 0.1038 0.4196
C2A C 0.66345(17) 0.05806(14) 0.42592(13)
C3A C 0.66205(17) -0.05620(14) 0.54152(13)
H3A H 0.7747 -0.0952 0.5699
C4A C 0.50218(18) -0.11549(13) 0.61703(13)
C5A C 0.51479(18) -0.23917(14) 0.74050(13)
H4A H 0.6242 -0.2299 0.7832
H5A H 0.4076 -0.2375 0.8085
N1 N 0.54762(17) 0.09117(13) 0.82968(12)
H6 H 0.4432 0.0567 0.8734
H7 H 0.6498 0.0550 0.8602
N2 N 0.70785(16) 0.25445(13) 0.65370(13)
H8 H 0.7100 0.3275 0.5816
H9 H 0.8100 0.2182 0.6843
N3 N 0.39689(16) 0.25318(12) 0.67075(12)
H10 H 0.3984 0.3262 0.5987
H11 H 0.2930 0.2161 0.7126
C6 C 0.55100(19) 0.19917(14) 0.71617(14)
N4 N -0.01704(18) 0.49902(14) 0.24078(13)
H12 H -0.1232 0.4616 0.2759
H13 H 0.0811 0.4640 0.2785
N5 N 0.15618(17) 0.66377(13) 0.07641(13)
H14 H 0.1647 0.7353 0.0028
H15 H 0.2542 0.6286 0.1142
N6 N -0.15309(17) 0.66132(13) 0.07380(13)
H16 H -0.1451 0.7329 0.0002
H17 H -0.2594 0.6247 0.1098
C7 C -0.0049(2) 0.60872(15) 0.13047(15)
loop_
_geom_bond_atom_site_label_1
_geom_bond_atom_site_label_2
_geom_bond_site_symmetry_1
_geom_bond_site_symmetry_2
S1 O1 1_555 1_555
S2 O4 1_555 1_555
O2 S1 1_555 1_555
O3 S1 1_555 1_555
O5 S2 1_555 1_555
O6 S2 1_555 1_555
C1 S2 1_555 1_555
H1 C1 1_555 1_555
H2 C1 1_555 1_555
C2 C1 1_555 1_555
C3 C2 1_555 1_555
H3 C3 1_555 1_555
C4 C3 1_555 1_555
C5 S1 1_555 1_555
H4 C5 1_555 1_555
H5 C5 1_555 1_555
N1 H6 1_555 1_555
H7 N1 1_555 1_555
N2 H8 1_555 1_555
H9 N2 1_555 1_555
N3 H10 1_555 1_555
H11 N3 1_555 1_555
C6 N1 1_555 1_555
N4 H12 1_555 1_555
H13 N4 1_555 1_555
N5 H14 1_555 1_555
H15 N5 1_555 1_555
N6 H16 1_555 1_555
H17 N6 1_555 1_555
C7 N4 1_555 1_555
S1A O1A 1_555 1_555
S2A O4A 1_555 1_555
O2A S1A 1_555 1_555
O3A S1A 1_555 1_555
O5A S2A 1_555 1_555
O6A S2A 1_555 1_555
C1A S2A 1_555 1_555
H1A C1A 1_555 1_555
H2A C1A 1_555 1_555
C2A C4 1_555 1_555
C3A C2A 1_555 1_555
H3A C3A 1_555 1_555
C4A C2 1_555 1_555
C5A S1A 1_555 1_555
H4A C5A 1_555 1_555
H5A C5A 1_555 1_555
C4 C5 1_555 1_555
N2 C6 1_555 1_555
N3 C6 1_555 1_555
N5 C7 1_555 1_555
N6 C7 1_555 1_555
C1A C2A 1_555 1_555
C3A C4A 1_555 1_555
C4A C5A 1_555 1_555

#END
