
#######################################################################
#
#                 Cambridge Crystallographic Data Centre
#                                CCDC 
#
#######################################################################
#
# If this CIF has been generated from an entry in the Cambridge 
# Structural Database, then it will include bibliographic, chemical, 
# crystal, experimental, refinement or atomic coordinate data resulting 
# from the CCDC's data processing and validation procedures.
#
#######################################################################

data_RUBREN
_chemical_formula_moiety         'C9 H9 O9 S3 3-,3(C1 H6 N3 1+)'
_chemical_name_systematic        
'tris(Guanidinium) benzene-1,3,5-triyltrimethanesulfonate'
_symmetry_cell_setting           rhombohedral
_symmetry_space_group_name_H-M   'R 3 c'
_symmetry_Int_Tables_number      161
_space_group_name_Hall           'R 3 -2"c'
loop_
_symmetry_equiv_pos_site_id
_symmetry_equiv_pos_as_xyz
1 x,y,z
2 -y,x-y,z
3 -x+y,-x,z
4 -y,-x,1/2+z
5 -x+y,y,1/2+z
6 x,x-y,1/2+z
7 2/3+x,1/3+y,1/3+z
8 2/3-y,1/3+x-y,1/3+z
9 2/3-x+y,1/3-x,1/3+z
10 2/3-y,1/3-x,5/6+z
11 2/3-x+y,1/3+y,5/6+z
12 2/3+x,1/3+x-y,5/6+z
13 1/3+x,2/3+y,2/3+z
14 1/3-y,2/3+x-y,2/3+z
15 1/3-x+y,2/3-x,2/3+z
16 1/3-y,2/3-x,1/6+z
17 1/3-x+y,2/3+y,1/6+z
18 1/3+x,2/3+x-y,1/6+z
_cell_length_a                   12.3237(3)
_cell_length_b                   12.3237(3)
_cell_length_c                   27.4631(17)
_cell_angle_alpha                90
_cell_angle_beta                 90
_cell_angle_gamma                120
_cell_volume                     3612.12
_exptl_crystal_colour            colorless
_exptl_crystal_description       block
_cell_formula_units_Z            6
loop_
_atom_site_label
_atom_site_type_symbol
_atom_site_fract_x
_atom_site_fract_y
_atom_site_fract_z
S1 S 0.00053(4) 0.30288(3) 0.09316(2)
O1 O -0.00284(13) 0.41769(11) 0.08236(5)
O2 O 0.11718(11) 0.32896(12) 0.11704(5)
O3 O -0.11029(12) 0.21073(11) 0.11954(5)
C1 C 0.00133(17) 0.23652(16) 0.03530(6)
H1 H -0.0732 0.2227 0.0166
H2 H 0.0766 0.2973 0.0170
C2 C 0.00099(16) 0.11399(15) 0.03881(6)
C3 C 0.11317(16) 0.11254(16) 0.03887(6)
H3 H 0.1905 0.1893 0.0390
S1A S -0.30288(3) -0.30235(5) 0.09316(2)
O1A O -0.41769(11) -0.42053(17) 0.08236(5)
O2A O -0.32896(12) -0.21178(16) 0.11704(5)
O3A O -0.21073(11) -0.32102(16) 0.11954(5)
C1A C -0.23652(16) -0.23519(23) 0.03530(6)
H1A H -0.2227 -0.2959 0.0166
H2A H -0.2973 -0.2207 0.0170
C2A C -0.11399(15) -0.11300(22) 0.03881(6)
C3A C -0.11254(16) 0.00063(23) 0.03887(6)
H3A H -0.1893 0.0012 0.0390
S1B S 0.30235(5) -0.00053(4) 0.09316(2)
O1B O 0.42053(17) 0.00284(13) 0.08236(5)
O2B O 0.21178(16) -0.11718(11) 0.11704(5)
O3B O 0.32102(16) 0.11029(12) 0.11954(5)
C1B C 0.23519(23) -0.00133(17) 0.03530(6)
H1B H 0.2959 0.0732 0.0166
H2B H 0.2207 -0.0766 0.0170
C2B C 0.11300(22) -0.00099(16) 0.03881(6)
C3B C -0.00063(23) -0.11317(16) 0.03887(6)
H3B H -0.0012 -0.1905 0.0390
N1 N 0.10494(13) 0.11044(13) 0.16330(5)
H4 H 0.1780 0.1141 0.1645
H5 H 0.1013 0.1800 0.1627
C4 C 0.0000 0.0000 0.16242(9)
N1A N -0.11044(13) -0.00550(18) 0.16330(5)
H4A H -0.1141 0.0639 0.1645
H5A H -0.1800 -0.0787 0.1627
N1B N 0.00550(18) -0.10494(13) 0.16330(5)
H4B H -0.0639 -0.1780 0.1645
H5B H 0.0787 -0.1013 0.1627
N2 N 0.33774(14) 0.56105(14) 0.08037(5)
H6 H 0.2679 0.4883 0.0794
H7 H 0.4105 0.5639 0.0808
C5 C 0.3333 0.6667 0.08110(10)
N2A N 0.43895(14) 0.77669(20) 0.08037(5)
H6A H 0.5117 0.7796 0.0794
H7A H 0.4361 0.8466 0.0808
N2B N 0.22331(20) 0.66226(14) 0.08037(5)
H6B H 0.2204 0.7321 0.0794
H7B H 0.1534 0.5895 0.0808
N3 N 0.56398(13) 0.34345(14) 0.11750(6)
H8 H 0.4895 0.2756 0.1181
H9 H 0.5706 0.4180 0.1172
C6 C 0.6667 0.3333 0.11705(10)
N3A N 0.65655(14) 0.22053(19) 0.11750(6)
H8A H 0.7244 0.2139 0.1181
H9A H 0.5820 0.1526 0.1172
N3B N 0.77947(19) 0.43602(13) 0.11750(6)
H8B H 0.7861 0.5105 0.1181
H9B H 0.8474 0.4294 0.1172
loop_
_geom_bond_atom_site_label_1
_geom_bond_atom_site_label_2
_geom_bond_site_symmetry_1
_geom_bond_site_symmetry_2
S1 O1 1_555 1_555
O2 S1 1_555 1_555
O3 S1 1_555 1_555
C1 S1 1_555 1_555
H1 C1 1_555 1_555
H2 C1 1_555 1_555
C2 C1 1_555 1_555
C3 C2 1_555 1_555
H3 C3 1_555 1_555
N1 H4 1_555 1_555
H5 N1 1_555 1_555
C4 N1 1_555 1_555
N2 H6 1_555 1_555
H7 N2 1_555 1_555
C5 N2 1_555 1_555
N3 H8 1_555 1_555
H9 N3 1_555 1_555
C6 N3 1_555 1_555
S1A O1A 1_555 1_555
O2A S1A 1_555 1_555
O3A S1A 1_555 1_555
C1A S1A 1_555 1_555
H1A C1A 1_555 1_555
H2A C1A 1_555 1_555
C2A C1A 1_555 1_555
C3A C2 1_555 1_555
H3A C3A 1_555 1_555
S1B O1B 1_555 1_555
O2B S1B 1_555 1_555
O3B S1B 1_555 1_555
C1B S1B 1_555 1_555
H1B C1B 1_555 1_555
H2B C1B 1_555 1_555
C2B C3 1_555 1_555
C3B C2A 1_555 1_555
H3B C3B 1_555 1_555
N1A C4 1_555 1_555
H4A N1A 1_555 1_555
H5A N1A 1_555 1_555
N1B C4 1_555 1_555
H4B N1B 1_555 1_555
H5B N1B 1_555 1_555
N2A C5 1_555 1_555
H6A N2A 1_555 1_555
H7A N2A 1_555 1_555
N2B C5 1_555 1_555
H6B N2B 1_555 1_555
H7B N2B 1_555 1_555
N3A C6 1_555 1_555
H8A N3A 1_555 1_555
H9A N3A 1_555 1_555
N3B C6 1_555 1_555
H8B N3B 1_555 1_555
H9B N3B 1_555 1_555
C2A C3A 1_555 1_555
C1B C2B 1_555 1_555
C2B C3B 1_555 1_555

#END
