
#######################################################################
#
#                 Cambridge Crystallographic Data Centre
#                                CCDC 
#
#######################################################################
#
# If this CIF has been generated from an entry in the Cambridge 
# Structural Database, then it will include bibliographic, chemical, 
# crystal, experimental, refinement or atomic coordinate data resulting 
# from the CCDC's data processing and validation procedures.
#
#######################################################################

data_RUBRAJ
_chemical_formula_moiety         'C6 H3 O9 S3 3-,3(C1 H6 N3 1+)'
_chemical_name_systematic        'tris(Guanidinium) benzene-1,3,5-trisulfonate'
_symmetry_cell_setting           hexagonal
_symmetry_space_group_name_H-M   'P 63/m'
_symmetry_Int_Tables_number      176
_space_group_name_Hall           '-P 6c'
loop_
_symmetry_equiv_pos_site_id
_symmetry_equiv_pos_as_xyz
1 x,y,z
2 -y,x-y,z
3 -x+y,-x,z
4 -x,-y,1/2+z
5 y,-x+y,1/2+z
6 x-y,x,1/2+z
7 -x,-y,-z
8 y,-x+y,-z
9 x-y,x,-z
10 x,y,1/2-z
11 -y,x-y,1/2-z
12 -x+y,-x,1/2-z
_cell_length_a                   16.9130(10)
_cell_length_b                   16.9130(10)
_cell_length_c                   7.4131(4)
_cell_angle_alpha                90
_cell_angle_beta                 90
_cell_angle_gamma                120
_cell_volume                     1836.42
_exptl_crystal_colour            colorless
_exptl_crystal_description       needle
_cell_formula_units_Z            2
loop_
_atom_site_label
_atom_site_type_symbol
_atom_site_fract_x
_atom_site_fract_y
_atom_site_fract_z
S1 S 0.75875(13) 0.21021(13) 0.7500
O1 O 0.8577(3) 0.2719(3) 0.7500
O2 O 0.7248(2) 0.1544(2) 0.5877(4)
C1 C 0.7078(4) 0.2797(4) 0.7500
C2 C 0.6126(4) 0.2383(4) 0.7500
H1 H 0.5759 0.1736 0.7500
S1A S 0.78979(13) 0.54854(18) 0.7500
O1A O 0.7281(3) 0.5858(4) 0.7500
O2A O 0.8456(2) 0.5704(3) 0.5877(4)
C1A C 0.7203(4) 0.4281(6) 0.7500
C2A C 0.7617(4) 0.3743(6) 0.7500
H1A H 0.8264 0.4023 0.7500
S1B S 0.45146(18) 0.24125(13) 0.7500
O1B O 0.4142(4) 0.1423(3) 0.7500
O2B O 0.4296(3) 0.2752(2) 0.5877(4)
C1B C 0.5719(6) 0.2922(4) 0.7500
C2B C 0.6257(6) 0.3874(4) 0.7500
H1B H 0.5977 0.4241 0.7500
O2I O 0.7248(2) 0.1544(2) 0.9123(4)
O2J O 0.8456(2) 0.5704(3) 0.9123(4)
O2K O 0.4296(3) 0.2752(2) 0.9123(4)
C3 C 0.9124(5) 0.2730(4) 0.2500
N1 N 0.8231(4) 0.2154(4) 0.2500
H2 H 0.7936 0.1959 0.1472
N2 N 0.9569(3) 0.3009(3) 0.4043(5)
H3 H 1.0164 0.3381 0.4045
H4 H 0.9271 0.2822 0.5070
H2I H 0.7936 0.1959 0.3528
N2I N 0.9569(3) 0.3009(3) 0.0957(5)
H3I H 1.0164 0.3381 0.0955
H4I H 0.9271 0.2822 -0.0070
H5? H 0.7934 0.1968 0.1472
loop_
_geom_bond_atom_site_label_1
_geom_bond_atom_site_label_2
_geom_bond_site_symmetry_1
_geom_bond_site_symmetry_2
S1 O1 1_555 1_555
O2 S1 1_555 1_555
C1 S1 1_555 1_555
C2 C1 1_555 1_555
H1 C2 1_555 1_555
C3 N1 1_555 1_555
N1 H2 1_555 1_555
N2 C3 1_555 1_555
H3 N2 1_555 1_555
H4 N2 1_555 1_555
S1A O1A 1_555 1_555
O2A S1A 1_555 1_555
C1A S1A 1_555 1_555
C2A C1 1_555 1_555
H1A C2A 1_555 1_555
S1B O1B 1_555 1_555
O2B S1B 1_555 1_555
C1B C2 1_555 1_555
C2B C1A 1_555 1_555
H1B C2B 1_555 1_555
O2I S1 1_555 1_555
O2J S1A 1_555 1_555
O2K S1B 1_555 1_555
H2I N1 1_555 1_555
N2I C3 1_555 1_555
H3I N2I 1_555 1_555
H4I N2I 1_555 1_555
C1A C2A 1_555 1_555
S1B C1B 1_555 1_555
C1B C2B 1_555 1_555

#END
