
#######################################################################
#
#                 Cambridge Crystallographic Data Centre
#                                CCDC 
#
#######################################################################
#
# If this CIF has been generated from an entry in the Cambridge 
# Structural Database, then it will include bibliographic, chemical, 
# crystal, experimental, refinement or atomic coordinate data resulting 
# from the CCDC's data processing and validation procedures.
#
#######################################################################

data_RUBRIR
_chemical_formula_moiety         'C24 H15 O9 S3 3-,3(C1 H6 N3 1+)'
_chemical_name_systematic        
'tris(Guanidinium) 1,3,5-tris(4-sulfonatophenyl)benzene'
_symmetry_cell_setting           hexagonal
_symmetry_space_group_name_H-M   'P 63/m'
_symmetry_Int_Tables_number      176
_space_group_name_Hall           '-P 6c'
loop_
_symmetry_equiv_pos_site_id
_symmetry_equiv_pos_as_xyz
1 x,y,z
2 x-y,x,1/2+z
3 -y,x-y,z
4 -x,-y,1/2+z
5 -x+y,-x,z
6 y,-x+y,1/2+z
7 -x,-y,-z
8 -x+y,-x,1/2-z
9 y,-x+y,-z
10 x,y,1/2-z
11 x-y,x,-z
12 -y,x-y,1/2-z
_cell_length_a                   23.864(6)
_cell_length_b                   23.864(6)
_cell_length_c                   7.5242(18)
_cell_angle_alpha                90
_cell_angle_beta                 90
_cell_angle_gamma                120
_cell_volume                     3710.88
_exptl_crystal_colour            colorless
_exptl_crystal_description       needle
_cell_formula_units_Z            2
loop_
_atom_site_label
_atom_site_type_symbol
_atom_site_fract_x
_atom_site_fract_y
_atom_site_fract_z
N1 N 0.2476(2) 0.0523(2) 0.0976(6)
H6 H 0.2560 0.0730 -0.0044
H7 H 0.2336 0.0105 0.0994
N2 N 0.2775(3) 0.1477(3) 0.2500
H8 H 0.2830 0.1683 0.1488
C9 C 0.2563(4) 0.0845(4) 0.2500
N1I N 0.2476(2) 0.0523(2) 0.4024(6)
H6I H 0.2560 0.0730 0.5044
H7I H 0.2336 0.0105 0.4006
H8I H 0.2830 0.1683 0.3512
S1 S 0.12291(9) 0.30863(10) 0.2500
O1 O 0.1646(2) 0.2806(3) 0.2500
O2 O 0.08295(16) 0.29209(18) 0.0896(4)
C1 C 0.2933(4) 0.5972(4) 0.2500
C2 C 0.3606(4) 0.6274(6) 0.2500
H1 H 0.3797 0.6007 0.2500
C3 C 0.2497(4) 0.5259(4) 0.2500
C4 C 0.2627(6) 0.4867(5) 0.1379(14)
H2 H 0.2987 0.5069 0.0598
C5 C 0.2251(5) 0.4198(5) 0.1363(15)
H3 H 0.2354 0.3945 0.0602
C6 C 0.1715(4) 0.3905(4) 0.2500
C7 C 0.1511(5) 0.4300(5) 0.3344(12)
H4 H 0.1118 0.4111 0.3999
C8 C 0.1885(5) 0.4961(5) 0.3213(13)
H5 H 0.1715 0.5221 0.3629
S1B S 0.69137(10) 0.81428(13) 0.2500
O1B O 0.7194(3) 0.8840(4) 0.2500
O2B O 0.70791(18) 0.79086(24) 0.0896(4)
C1B C 0.4028(4) 0.6961(6) 0.2500
C2B C 0.3726(6) 0.7332(7) 0.2500
H1B H 0.3993 0.7790 0.2500
C3B C 0.4741(4) 0.7238(6) 0.2500
C4B C 0.5133(5) 0.7760(8) 0.1379(14)
H2B H 0.4931 0.7918 0.0598
C5B C 0.5802(5) 0.8053(7) 0.1363(15)
H3B H 0.6055 0.8409 0.0602
C6B C 0.6095(4) 0.7810(6) 0.2500
C7B C 0.5700(5) 0.7211(7) 0.3344(12)
H4B H 0.5889 0.7007 0.3999
C8B C 0.5039(5) 0.6924(7) 0.3213(13)
H5B H 0.4779 0.6494 0.3629
S1D S 0.18572(13) 0.87709(9) 0.2500
O1D O 0.1160(4) 0.8354(2) 0.2500
O2D O 0.20914(24) 0.91705(16) 0.0896(4)
C1D C 0.3039(6) 0.7067(4) 0.2500
C2D C 0.2668(7) 0.6394(4) 0.2500
H1D H 0.2210 0.6203 0.2500
C3D C 0.2762(6) 0.7503(4) 0.2500
C4D C 0.2240(8) 0.7373(6) 0.1379(14)
H2D H 0.2082 0.7013 0.0598
C5D C 0.1947(7) 0.7749(5) 0.1363(15)
H3D H 0.1591 0.7646 0.0602
C6D C 0.2190(6) 0.8285(4) 0.2500
C7D C 0.2789(7) 0.8489(5) 0.3344(12)
H4D H 0.2993 0.8882 0.3999
C8D C 0.3076(7) 0.8115(5) 0.3213(13)
H5D H 0.3506 0.8285 0.3629
O2G O 0.20914(24) 0.91705(16) 0.4104(4)
C4G C 0.2240(8) 0.7373(6) 0.3621(14)
H2G H 0.2082 0.7013 0.4402
C5G C 0.1947(7) 0.7749(5) 0.3637(15)
H3G H 0.1591 0.7646 0.4398
C7G C 0.2789(7) 0.8489(5) 0.1656(12)
H4G H 0.2993 0.8882 0.1001
C8G C 0.3076(7) 0.8115(5) 0.1787(13)
H5G H 0.3506 0.8285 0.1371
O2I O 0.08295(16) 0.29209(18) 0.4104(4)
C4I C 0.2627(6) 0.4867(5) 0.3621(14)
H2I H 0.2987 0.5069 0.4402
C5I C 0.2251(5) 0.4198(5) 0.3637(15)
H3I H 0.2354 0.3945 0.4398
C7I C 0.1511(5) 0.4300(5) 0.1656(12)
H4I H 0.1118 0.4111 0.1001
C8I C 0.1885(5) 0.4961(5) 0.1787(13)
H5I H 0.1715 0.5221 0.1371
O2K O 0.70791(18) 0.79086(24) 0.4104(4)
C4K C 0.5133(5) 0.7760(8) 0.3621(14)
H2K H 0.4931 0.7918 0.4402
C5K C 0.5802(5) 0.8053(7) 0.3637(15)
H3K H 0.6055 0.8409 0.4398
C7K C 0.5700(5) 0.7211(7) 0.1656(12)
H4K H 0.5889 0.7007 0.1001
C8K C 0.5039(5) 0.6924(7) 0.1787(13)
H5K H 0.4779 0.6494 0.1371
H9? H 0.2861 0.1689 0.3512
loop_
_geom_bond_atom_site_label_1
_geom_bond_atom_site_label_2
_geom_bond_site_symmetry_1
_geom_bond_site_symmetry_2
S1 O1 1_555 1_555
O2 S1 1_555 1_555
C1 C2 1_555 1_555
C2 H1 1_555 1_555
C3 C1 1_555 1_555
C4 C3 1_555 1_555
H2 C4 1_555 1_555
C5 C4 1_555 1_555
H3 C5 1_555 1_555
C6 S1 1_555 1_555
C7 C6 1_555 1_555
H4 C7 1_555 1_555
C8 C3 1_555 1_555
H5 C8 1_555 1_555
N1 H6 1_555 1_555
H7 N1 1_555 1_555
N2 H8 1_555 1_555
C9 N1 1_555 1_555
S1B O1B 1_555 1_555
O2B S1B 1_555 1_555
C1B C2 1_555 1_555
C2B C1B 1_555 1_555
H1B C2B 1_555 1_555
C3B C1B 1_555 1_555
C4B C3B 1_555 1_555
H2B C4B 1_555 1_555
C5B C4B 1_555 1_555
H3B C5B 1_555 1_555
C6B S1B 1_555 1_555
C7B C6B 1_555 1_555
H4B C7B 1_555 1_555
C8B C3B 1_555 1_555
H5B C8B 1_555 1_555
S1D O1D 1_555 1_555
O2D S1D 1_555 1_555
C1D C2B 1_555 1_555
C2D C1 1_555 1_555
H1D C2D 1_555 1_555
C3D C1D 1_555 1_555
C4D C3D 1_555 1_555
H2D C4D 1_555 1_555
C5D C4D 1_555 1_555
H3D C5D 1_555 1_555
C6D S1D 1_555 1_555
C7D C6D 1_555 1_555
H4D C7D 1_555 1_555
C8D C3D 1_555 1_555
H5D C8D 1_555 1_555
O2G S1D 1_555 1_555
C4G C3D 1_555 1_555
H2G C4G 1_555 1_555
C5G C5D 1_555 1_555
H3G C5G 1_555 1_555
C7G C5D 1_555 1_555
H4G C7G 1_555 1_555
C8G C3D 1_555 1_555
H5G C8G 1_555 1_555
O2I S1 1_555 1_555
C4I C3 1_555 1_555
H2I C4I 1_555 1_555
C5I C5 1_555 1_555
H3I C5I 1_555 1_555
C7I C5 1_555 1_555
H4I C7I 1_555 1_555
C8I C3 1_555 1_555
H5I C8I 1_555 1_555
O2K S1B 1_555 1_555
C4K C3B 1_555 1_555
H2K C4K 1_555 1_555
C5K C5B 1_555 1_555
H3K C5K 1_555 1_555
C7K C5B 1_555 1_555
H4K C7K 1_555 1_555
C8K C3B 1_555 1_555
H5K C8K 1_555 1_555
N1I C9 1_555 1_555
H6I N1I 1_555 1_555
H7I N1I 1_555 1_555
H8I N2 1_555 1_555
C4 C4I 1_555 1_555
C4 C8I 1_555 1_555
C5 C6 1_555 1_555
C6 C5I 1_555 1_555
C6 C7I 1_555 1_555
C7 C8 1_555 1_555
C7 C5I 1_555 1_555
C7 C7I 1_555 1_555
C7 C8I 1_555 1_555
C8 C4I 1_555 1_555
C8 C7I 1_555 1_555
C8 C8I 1_555 1_555
N2 C9 1_555 1_555
C4B C4K 1_555 1_555
C4B C8K 1_555 1_555
C5B C6B 1_555 1_555
C6B C5K 1_555 1_555
C6B C7K 1_555 1_555
C7B C8B 1_555 1_555
C7B C5K 1_555 1_555
C7B C7K 1_555 1_555
C7B C8K 1_555 1_555
C8B C4K 1_555 1_555
C8B C7K 1_555 1_555
C8B C8K 1_555 1_555
C1D C2D 1_555 1_555
C4D C4G 1_555 1_555
C4D C8G 1_555 1_555
C5D C6D 1_555 1_555
C6D C5G 1_555 1_555
C6D C7G 1_555 1_555
C7D C8D 1_555 1_555
C7D C5G 1_555 1_555
C7D C7G 1_555 1_555
C7D C8G 1_555 1_555
C8D C4G 1_555 1_555
C8D C7G 1_555 1_555
C8D C8G 1_555 1_555
C4G C5G 1_555 1_555
C7G C8G 1_555 1_555
C4I C5I 1_555 1_555
C7I C8I 1_555 1_555
C4K C5K 1_555 1_555
C7K C8K 1_555 1_555

#END
