
#######################################################################
#
#                 Cambridge Crystallographic Data Centre
#                                CCDC 
#
#######################################################################
#
# If this CIF has been generated from an entry in the Cambridge 
# Structural Database, then it will include bibliographic, chemical, 
# crystal, experimental, refinement or atomic coordinate data resulting 
# from the CCDC's data processing and validation procedures.
#
#######################################################################

data_RUBXAP
_chemical_formula_moiety         'C20 H23 F1 O2 S1'
_chemical_name_systematic        
'4-t-Butylphenyl 1-fluoro-1,2,3,4-tetrahydronaphthalen-2-yl sulfone'
_symmetry_cell_setting           triclinic
_symmetry_space_group_name_H-M   'P -1'
_symmetry_Int_Tables_number      2
_space_group_name_Hall           '-P 1'
loop_
_symmetry_equiv_pos_site_id
_symmetry_equiv_pos_as_xyz
1 x,y,z
2 -x,-y,-z
_cell_length_a                   9.8742(16)
_cell_length_b                   10.1722(16)
_cell_length_c                   10.8410(17)
_cell_angle_alpha                70.213(3)
_cell_angle_beta                 63.296(3)
_cell_angle_gamma                69.150(3)
_cell_volume                     888.012
_exptl_crystal_colour            colorless
_exptl_crystal_description       prismatic
_cell_formula_units_Z            2
loop_
_atom_site_label
_atom_site_type_symbol
_atom_site_fract_x
_atom_site_fract_y
_atom_site_fract_z
S1 S -0.14822(7) 0.76731(7) 0.74524(6)
F1 F -0.3039(3) 1.0309(2) 0.8995(2)
O1 O -0.2214(2) 0.6521(3) 0.8315(2)
O2 O -0.2328(2) 0.8927(2) 0.6750(2)
C1 C -0.2224(3) 0.9002(2) 1.0889(2)
C2 C -0.3499(3) 0.9734(3) 1.1873(3)
H1 H -0.4428 1.0174 1.1718
C3 C -0.3401(4) 0.9813(3) 1.3067(3)
H2 H -0.4256 1.0311 1.3713
C4 C -0.2028(5) 0.9151(3) 1.3309(3)
H3 H -0.1961 0.9191 1.4124
C5 C -0.0759(4) 0.8430(3) 1.2337(3)
H4 H 0.0165 0.7996 1.2500
C6 C -0.0831(3) 0.8339(3) 1.1122(2)
C7 C 0.0559(3) 0.7543(3) 1.0072(3)
H5 H 0.1134 0.6728 1.0571
H6 H 0.1247 0.8176 0.9438
C8 C 0.0080(3) 0.7016(3) 0.9218(3)
H7 H -0.0478 0.6274 0.9828
H8 H 0.1004 0.6596 0.8490
C9 C -0.0953(3) 0.8241(3) 0.8539(2)
H9 H -0.0368 0.8977 0.7935
C10 C -0.2432(3) 0.8927(3) 0.9627(2)
H10 H -0.3199 0.8360 0.9962
C11 C 0.0296(3) 0.6982(3) 0.6157(2)
C12 C 0.0689(3) 0.5565(3) 0.6074(3)
H11 H 0.0054 0.4954 0.6736
C13 C 0.2026(3) 0.5055(3) 0.5006(3)
H12 H 0.2279 0.4097 0.4956
C14 C 0.3005(3) 0.5930(2) 0.4003(2)
C15 C 0.2569(3) 0.7361(3) 0.4121(2)
H13 H 0.3199 0.7977 0.3463
C16 C 0.1241(3) 0.7886(3) 0.5175(2)
H14 H 0.0978 0.8844 0.5228
C17 C 0.4482(3) 0.5394(3) 0.2790(2)
C18 C 0.5852(3) 0.5864(4) 0.2669(3)
H15 H 0.5578 0.6889 0.2568
H16 H 0.6750 0.5598 0.1859
H17 H 0.6088 0.5400 0.3506
C19 C 0.4935(4) 0.3761(3) 0.2995(4)
H18 H 0.5196 0.3331 0.3820
H19 H 0.5821 0.3483 0.2182
H20 H 0.4073 0.3439 0.3111
C20 C 0.4154(4) 0.6052(4) 0.1434(3)
H21 H 0.3356 0.5682 0.1487
H22 H 0.5092 0.5808 0.0643
H23 H 0.3808 0.7080 0.1319
loop_
_geom_bond_atom_site_label_1
_geom_bond_atom_site_label_2
_geom_bond_site_symmetry_1
_geom_bond_site_symmetry_2
S1 O1 1_555 1_555
F1 C10 1_555 1_555
O2 S1 1_555 1_555
C1 C2 1_555 1_555
C2 H1 1_555 1_555
C3 C2 1_555 1_555
H2 C3 1_555 1_555
C4 C3 1_555 1_555
H3 C4 1_555 1_555
C5 C4 1_555 1_555
H4 C5 1_555 1_555
C6 C1 1_555 1_555
C7 C6 1_555 1_555
H5 C7 1_555 1_555
H6 C7 1_555 1_555
C8 C7 1_555 1_555
H7 C8 1_555 1_555
H8 C8 1_555 1_555
C9 S1 1_555 1_555
H9 C9 1_555 1_555
C10 C1 1_555 1_555
H10 C10 1_555 1_555
C11 S1 1_555 1_555
C12 C11 1_555 1_555
H11 C12 1_555 1_555
C13 C12 1_555 1_555
H12 C13 1_555 1_555
C14 C13 1_555 1_555
C15 C14 1_555 1_555
H13 C15 1_555 1_555
C16 C11 1_555 1_555
H14 C16 1_555 1_555
C17 C14 1_555 1_555
C18 C17 1_555 1_555
H15 C18 1_555 1_555
H16 C18 1_555 1_555
H17 C18 1_555 1_555
C19 C17 1_555 1_555
H18 C19 1_555 1_555
H19 C19 1_555 1_555
H20 C19 1_555 1_555
C20 C17 1_555 1_555
H21 C20 1_555 1_555
H22 C20 1_555 1_555
H23 C20 1_555 1_555
C5 C6 1_555 1_555
C8 C9 1_555 1_555
C9 C10 1_555 1_555
C15 C16 1_555 1_555

#END
