
#######################################################################
#
#                 Cambridge Crystallographic Data Centre
#                                CCDC 
#
#######################################################################
#
# If this CIF has been generated from an entry in the Cambridge 
# Structural Database, then it will include bibliographic, chemical, 
# crystal, experimental, refinement or atomic coordinate data resulting 
# from the CCDC's data processing and validation procedures.
#
#######################################################################

data_RUCDUQ
_chemical_formula_moiety         'C24 H24 B3 N3 O9,3(C1 H4 O1)'
_chemical_name_systematic        
"3,4,7,8,11,12-Hexamethoxybis[1,2]azaborinino[6',5',4',3':4,5;6'',5'',4'',3'':8,9]triphenyleno[1,12-cde][1,2]azaborinine-2,6,10(1H,5H,9H)-triol methanol"
_symmetry_cell_setting           rhombohedral
_symmetry_space_group_name_H-M   'R -3'
_symmetry_Int_Tables_number      148
_space_group_name_Hall           '-R 3'
loop_
_symmetry_equiv_pos_site_id
_symmetry_equiv_pos_as_xyz
1 x,y,z
2 -y,x-y,z
3 -x+y,-x,z
4 2/3+x,1/3+y,1/3+z
5 2/3-y,1/3+x-y,1/3+z
6 2/3-x+y,1/3-x,1/3+z
7 1/3+x,2/3+y,2/3+z
8 1/3-y,2/3+x-y,2/3+z
9 1/3-x+y,2/3-x,2/3+z
10 -x,-y,-z
11 y,-x+y,-z
12 x-y,x,-z
13 1/3-x,2/3-y,2/3-z
14 1/3+y,2/3-x+y,2/3-z
15 1/3+x-y,2/3+x,2/3-z
16 2/3-x,1/3-y,1/3-z
17 2/3+y,1/3-x+y,1/3-z
18 2/3+x-y,1/3+x,1/3-z
_cell_length_a                   19.9798(3)
_cell_length_b                   19.9798(3)
_cell_length_c                   12.6217(3)
_cell_angle_alpha                90
_cell_angle_beta                 90
_cell_angle_gamma                120
_cell_volume                     4363.46
_exptl_crystal_colour            colorless
_exptl_crystal_description       block
_cell_formula_units_Z            6
loop_
_atom_site_label
_atom_site_type_symbol
_atom_site_fract_x
_atom_site_fract_y
_atom_site_fract_z
C1 C 0.07445(9) 0.06781(9) 0.14422(15)
C2 C 0.06784(9) -0.00788(9) 0.14444(15)
C3 C 0.13522(10) -0.01431(11) 0.14657(16)
C4 C 0.15406(11) 0.20852(10) 0.15559(19)
N1 N 0.21446(9) 0.13106(9) 0.15342(17)
H1 H 0.2581 0.1734 0.1576
B1 B 0.21451(12) 0.06025(13) 0.1506(2)
C5 C 0.14773(10) 0.13530(10) 0.14982(17)
O1 O 0.19263(8) -0.09417(9) 0.15807(14)
C6 C 0.12643(10) -0.08820(11) 0.15130(17)
O2 O 0.28509(8) 0.06431(9) 0.15514(17)
H2 H 0.2788 0.0205 0.1573
O3 O 0.22701(8) 0.27209(8) 0.16634(15)
C7 C 0.20276(19) -0.1381(2) 0.0768(3)
H3 H 0.2500 -0.1384 0.0888
H4 H 0.2049 -0.1153 0.0091
H5 H 0.1601 -0.1902 0.0780
C8 C 0.24409(17) 0.3016(2) 0.2715(3)
H6 H 0.2953 0.3455 0.2739
H7 H 0.2409 0.2623 0.3185
H8 H 0.2076 0.3168 0.2932
C1A C -0.06781(9) 0.00664(13) 0.14422(15)
C2A C 0.00788(9) 0.07572(13) 0.14444(15)
C3A C 0.01431(11) 0.14953(15) 0.14657(16)
C4A C -0.20852(10) -0.05446(15) 0.15559(19)
N1A N -0.13106(9) 0.08340(13) 0.15342(17)
H1A H -0.1734 0.0847 0.1576
B1A B -0.06025(13) 0.15426(18) 0.1506(2)
C5A C -0.13530(10) 0.01243(14) 0.14982(17)
O1A O 0.09417(9) 0.28680(12) 0.15807(14)
C6A C 0.08820(11) 0.21463(15) 0.15130(17)
O2A O -0.06431(9) 0.22078(12) 0.15514(17)
H2A H -0.0205 0.2583 0.1573
O3A O -0.27209(8) -0.04508(11) 0.16634(15)
C7A C 0.1381(2) 0.34086(28) 0.0768(3)
H3A H 0.1384 0.3884 0.0888
H4A H 0.1153 0.3202 0.0091
H5A H 0.1902 0.3503 0.0780
C8A C -0.3016(2) -0.05751(26) 0.2715(3)
H6A H -0.3455 -0.0502 0.2739
H7A H -0.2623 -0.0214 0.3185
H8A H -0.3168 -0.1092 0.2932
C1B C -0.00664(13) -0.07445(9) 0.14422(15)
C2B C -0.07572(13) -0.06784(9) 0.14444(15)
C3B C -0.14953(15) -0.13522(10) 0.14657(16)
C4B C 0.05446(15) -0.15406(11) 0.15559(19)
N1B N -0.08340(13) -0.21446(9) 0.15342(17)
H1B H -0.0847 -0.2581 0.1576
B1B B -0.15426(18) -0.21451(12) 0.1506(2)
C5B C -0.01243(14) -0.14773(10) 0.14982(17)
O1B O -0.28680(12) -0.19263(8) 0.15807(14)
C6B C -0.21463(15) -0.12643(10) 0.15130(17)
O2B O -0.22078(12) -0.28509(8) 0.15514(17)
H2B H -0.2583 -0.2788 0.1573
O3B O 0.04508(11) -0.22701(8) 0.16634(15)
C7B C -0.34086(28) -0.20276(19) 0.0768(3)
H3B H -0.3884 -0.2500 0.0888
H4B H -0.3202 -0.2049 0.0091
H5B H -0.3503 -0.1601 0.0780
C8B C 0.05751(26) -0.24409(17) 0.2715(3)
H6B H 0.0502 -0.2953 0.2739
H7B H 0.0214 -0.2409 0.3185
H8B H 0.1092 -0.2076 0.2932
C9 C 0.3668(14) -0.2027(13) 0.0986(16)
O4 O 0.3555(13) -0.2120(13) 0.2284(15)
loop_
_geom_bond_atom_site_label_1
_geom_bond_atom_site_label_2
_geom_bond_site_symmetry_1
_geom_bond_site_symmetry_2
C1 C2 1_555 1_555
C2 C3 1_555 1_555
C3 B1 1_555 1_555
C4 C5 1_555 1_555
N1 H1 1_555 1_555
B1 N1 1_555 1_555
C5 C1 1_555 1_555
O1 C6 1_555 1_555
C6 C3 1_555 1_555
O2 B1 1_555 1_555
H2 O2 1_555 1_555
O3 C4 1_555 1_555
C7 O1 1_555 1_555
H3 C7 1_555 1_555
H4 C7 1_555 1_555
H5 C7 1_555 1_555
C8 O3 1_555 1_555
H6 C8 1_555 1_555
H7 C8 1_555 1_555
H8 C8 1_555 1_555
C9 O4 1_555 1_555
C1A C2A 1_555 1_555
C2A C1 1_555 1_555
C3A C2A 1_555 1_555
C4A C5A 1_555 1_555
N1A H1A 1_555 1_555
B1A C3A 1_555 1_555
C5A C1A 1_555 1_555
O1A C6A 1_555 1_555
C6A C4 1_555 1_555
O2A B1A 1_555 1_555
H2A O2A 1_555 1_555
O3A C4A 1_555 1_555
C7A O1A 1_555 1_555
H3A C7A 1_555 1_555
H4A C7A 1_555 1_555
H5A C7A 1_555 1_555
C8A O3A 1_555 1_555
H6A C8A 1_555 1_555
H7A C8A 1_555 1_555
H8A C8A 1_555 1_555
C1B C2 1_555 1_555
C2B C1A 1_555 1_555
C3B C2B 1_555 1_555
C4B C6 1_555 1_555
N1B H1B 1_555 1_555
B1B C3B 1_555 1_555
C5B C1B 1_555 1_555
O1B C6B 1_555 1_555
C6B C4A 1_555 1_555
O2B B1B 1_555 1_555
H2B O2B 1_555 1_555
O3B C4B 1_555 1_555
C7B O1B 1_555 1_555
H3B C7B 1_555 1_555
H4B C7B 1_555 1_555
H5B C7B 1_555 1_555
C8B O3B 1_555 1_555
H6B C8B 1_555 1_555
H7B C8B 1_555 1_555
H8B C8B 1_555 1_555
N1 C5 1_555 1_555
C3A C6A 1_555 1_555
N1A B1A 1_555 1_555
N1A C5A 1_555 1_555
C1B C2B 1_555 1_555
C3B C6B 1_555 1_555
C4B C5B 1_555 1_555
N1B B1B 1_555 1_555
N1B C5B 1_555 1_555

#END
