
#######################################################################
#
#                 Cambridge Crystallographic Data Centre
#                                CCDC 
#
#######################################################################
#
# If this CIF has been generated from an entry in the Cambridge 
# Structural Database, then it will include bibliographic, chemical, 
# crystal, experimental, refinement or atomic coordinate data resulting 
# from the CCDC's data processing and validation procedures.
#
#######################################################################

data_RUCFAY
_chemical_formula_moiety         'C42 H36 B3 N3 O6,C4 H8 O1'
_chemical_name_systematic        
"3,4,7,8,11,12-Hexamethoxy-2,6,10-triphenyl-1,2,5,6,9,10-hexahydrobis[1,2]azaborinino[6',5',4',3':4,5;6'',5'',4'',3'':8,9]triphenyleno[1,12-cde][1,2]azaborinine tetrahydrofuran solvate"
_symmetry_cell_setting           monoclinic
_symmetry_space_group_name_H-M   'P 21/c'
_symmetry_Int_Tables_number      14
_space_group_name_Hall           '-P 2ybc'
loop_
_symmetry_equiv_pos_site_id
_symmetry_equiv_pos_as_xyz
1 x,y,z
2 -x,1/2+y,1/2-z
3 -x,-y,-z
4 x,1/2-y,1/2+z
_cell_length_a                   16.559(3)
_cell_length_b                   16.774(3)
_cell_length_c                   15.989(3)
_cell_angle_alpha                90
_cell_angle_beta                 115.658(8)
_cell_angle_gamma                90
_cell_volume                     4003.2
_exptl_crystal_colour            yellow
_exptl_crystal_description       block
_cell_formula_units_Z            4
loop_
_atom_site_label
_atom_site_type_symbol
_atom_site_fract_x
_atom_site_fract_y
_atom_site_fract_z
B1 B 0.8504(5) 1.0199(5) 0.3495(5)
B2 B 0.5800(5) 0.7355(4) 0.3780(5)
B3 B 0.6976(5) 1.0430(4) 0.6726(5)
C1 C 0.7910(4) 0.9468(4) 0.3408(4)
C2 C 0.7739(4) 0.8857(4) 0.2758(4)
C3 C 0.7244(4) 0.8191(4) 0.2736(4)
C4 C 0.6811(4) 0.8145(4) 0.3317(4)
C5 C 0.6932(4) 0.8736(4) 0.3973(4)
C6 C 0.6493(4) 0.8671(4) 0.4578(4)
C7 C 0.5897(4) 0.8022(4) 0.4486(4)
C8 C 0.5480(4) 0.8012(4) 0.5078(4)
C9 C 0.5662(4) 0.8577(4) 0.5757(4)
C10 C 0.6242(4) 0.9205(4) 0.5857(4)
C11 C 0.6674(4) 0.9266(4) 0.5272(4)
C12 C 0.7266(4) 0.9933(4) 0.5371(4)
C13 C 0.7431(4) 1.0515(4) 0.6080(4)
C14 C 0.7992(4) 1.1151(4) 0.6111(4)
C15 C 0.8380(4) 1.1227(4) 0.5501(4)
C16 C 0.8213(4) 1.0647(4) 0.4818(4)
C17 C 0.7655(4) 0.9993(4) 0.4743(4)
C18 C 0.7502(4) 0.9400(4) 0.4034(4)
C19 C 0.7519(5) 0.8946(5) 0.1184(5)
H1 H 0.7242 0.8423 0.0974
H2 H 0.7842 0.9104 0.0822
H3 H 0.7052 0.934 0.1098
C20 C 0.7901(5) 0.7089(4) 0.2321(5)
H4 H 0.8352 0.741 0.2231
H5 H 0.7741 0.6628 0.1904
H6 H 0.8145 0.6905 0.2965
C21 C 0.5300(4) 0.6544(4) 0.3596(4)
C22 C 0.4392(5) 0.6435(4) 0.3341(4)
H7 H 0.4035 0.6887 0.3312
C23 C 0.3984(5) 0.5686(5) 0.3124(5)
H8 H 0.3358 0.5641 0.294
C24 C 0.4467(6) 0.5025(5) 0.3173(5)
H9 H 0.4184 0.4518 0.3026
C25 C 0.5371(6) 0.5092(4) 0.3436(5)
H10 H 0.5716 0.4628 0.3482
C26 C 0.5784(5) 0.5831(4) 0.3633(4)
H11 H 0.6407 0.5865 0.3798
C27 C 0.5090(5) 0.6793(4) 0.5568(4)
H12 H 0.5568 0.65 0.5497
H13 H 0.4576 0.644 0.5426
H14 H 0.531 0.6985 0.6208
C28 C 0.4415(4) 0.8886(4) 0.6043(4)
H15 H 0.4457 0.9451 0.5912
H16 H 0.4183 0.8837 0.6511
H17 H 0.4008 0.8615 0.5473
C29 C 0.7023(4) 1.1005(4) 0.7511(4)
C30 C 0.6251(5) 1.1399(4) 0.7437(5)
H18 H 0.5702 1.1298 0.6909
C31 C 0.6251(6) 1.1928(4) 0.8095(5)
H19 H 0.5713 1.219 0.8012
C32 C 0.7037(6) 1.2076(5) 0.8875(5)
H20 H 0.7037 1.2432 0.9338
C33 C 0.7816(6) 1.1710(5) 0.8985(5)
H21 H 0.8359 1.1819 0.9516
C34 C 0.7810(5) 1.1175(5) 0.8312(5)
H22 H 0.8353 1.092 0.8398
C35 C 0.7693(5) 1.2443(4) 0.6512(5)
H23 H 0.7885 1.2739 0.61
H24 H 0.7794 1.2769 0.7057
H25 H 0.7055 1.2315 0.618
C36 C 0.9782(5) 1.1868(5) 0.6293(5)
H26 H 0.9724 1.1947 0.6872
H27 H 1.0138 1.2302 0.6213
H28 H 1.0079 1.1358 0.6318
C37 C 0.9008(4) 1.0401(4) 0.2924(4)
C38 C 0.9968(6) 1.0410(6) 0.3341(7)
H29 H 1.0279 1.0281 0.3981
C39 C 1.0473(7) 1.0601(6) 0.2853(9)
H30 H 1.1108 1.0605 0.3175
C40 C 1.0071(7) 1.0780(6) 0.1922(8)
H31 H 1.0419 1.0913 0.1601
C41 C 0.9150(7) 1.0762(6) 0.1468(7)
H32 H 0.8848 1.087 0.0822
C42 C 0.8656(6) 1.0579(6) 0.1987(7)
H33 H 0.8021 1.0579 0.1656
N1 N 0.8605(3) 1.0732(3) 0.4220(3)
H34 H 0.8947 1.1153 0.4294
N2 N 0.6287(3) 0.7487(3) 0.3250(3)
H35 H 0.6252 0.7118 0.2844
N3 N 0.6409(3) 0.9766(3) 0.6551(3)
H36 H 0.6136 0.97 0.6912
O1 O 0.8141(3) 0.8904(3) 0.2160(3)
O2 O 0.7110(3) 0.7569(3) 0.2116(3)
O3 O 0.4820(3) 0.7461(2) 0.4942(3)
O4 O 0.5288(3) 0.8527(2) 0.6387(3)
O5 O 0.8199(3) 1.1722(2) 0.6803(3)
O6 O 0.8913(3) 1.1864(3) 0.5530(3)
O7 O 0.0533(11) 0.1154(9) 0.9725(9)
C43 C 0.0977(16) 0.1772(11) 1.0300(12)
H37 H 0.1602 0.1608 1.0697
H38 H 0.0685 0.1897 1.0709
C44 C 0.0984(17) 0.2493(11) 0.9774(15)
H39 H 0.0967 0.2988 1.0103
H40 H 0.1507 0.2505 0.9627
C45 C 0.0192(17) 0.2364(12) 0.8995(14)
H41 H 0.0163 0.2685 0.8463
H42 H -0.0332 0.249 0.9115
C46 C 0.0238(15) 0.1489(11) 0.8824(12)
H43 H -0.0357 0.1278 0.8396
H44 H 0.0671 0.138 0.8563
O8? O -0.0038(11) 0.2933(11) 0.9434(11)
C47? C -0.0175(17) 0.2489(18) 0.8654(15)
H45? H -0.0201 0.2839 0.8144
H46? H -0.0741 0.2183 0.8438
C48? C 0.0599(19) 0.1947(17) 0.8950(19)
H47? H 0.0403 0.1391 0.896
H48? H 0.0871 0.1977 0.8508
C49? C 0.1217(18) 0.2167(19) 0.9823(19)
H49? H 0.1835 0.216 0.9876
H50? H 0.1183 0.1825 1.0311
C50? C 0.0900(15) 0.2999(15) 0.986(2)
H51? H 0.1121 0.3188 1.0504
H52? H 0.1106 0.3372 0.9507
loop_
_geom_bond_atom_site_label_1
_geom_bond_atom_site_label_2
_geom_bond_site_symmetry_1
_geom_bond_site_symmetry_2
B1 C1 1_555 1_555
B2 C7 1_555 1_555
B3 C13 1_555 1_555
C1 C2 1_555 1_555
C2 C3 1_555 1_555
C3 C4 1_555 1_555
C4 C5 1_555 1_555
C5 C6 1_555 1_555
C6 C7 1_555 1_555
C7 C8 1_555 1_555
C8 C9 1_555 1_555
C9 C10 1_555 1_555
C10 C11 1_555 1_555
C11 C6 1_555 1_555
C12 C11 1_555 1_555
C13 C12 1_555 1_555
C14 C13 1_555 1_555
C15 C14 1_555 1_555
C16 C15 1_555 1_555
C17 C12 1_555 1_555
C18 C1 1_555 1_555
C19 H1 1_555 1_555
H2 C19 1_555 1_555
H3 C19 1_555 1_555
C20 H4 1_555 1_555
H5 C20 1_555 1_555
H6 C20 1_555 1_555
C21 B2 1_555 1_555
C22 C21 1_555 1_555
H7 C22 1_555 1_555
C23 C22 1_555 1_555
H8 C23 1_555 1_555
C24 C23 1_555 1_555
H9 C24 1_555 1_555
C25 C24 1_555 1_555
H10 C25 1_555 1_555
C26 C21 1_555 1_555
H11 C26 1_555 1_555
C27 H12 1_555 1_555
H13 C27 1_555 1_555
H14 C27 1_555 1_555
C28 H15 1_555 1_555
H16 C28 1_555 1_555
H17 C28 1_555 1_555
C29 B3 1_555 1_555
C30 C29 1_555 1_555
H18 C30 1_555 1_555
C31 C30 1_555 1_555
H19 C31 1_555 1_555
C32 C31 1_555 1_555
H20 C32 1_555 1_555
C33 C32 1_555 1_555
H21 C33 1_555 1_555
C34 C29 1_555 1_555
H22 C34 1_555 1_555
C35 H23 1_555 1_555
H24 C35 1_555 1_555
H25 C35 1_555 1_555
C36 H26 1_555 1_555
H27 C36 1_555 1_555
H28 C36 1_555 1_555
C37 B1 1_555 1_555
C38 C37 1_555 1_555
H29 C38 1_555 1_555
C39 C38 1_555 1_555
H30 C39 1_555 1_555
C40 C39 1_555 1_555
H31 C40 1_555 1_555
C41 C40 1_555 1_555
H32 C41 1_555 1_555
C42 C37 1_555 1_555
H33 C42 1_555 1_555
N1 B1 1_555 1_555
H34 N1 1_555 1_555
N2 B2 1_555 1_555
H35 N2 1_555 1_555
N3 B3 1_555 1_555
H36 N3 1_555 1_555
O1 C2 1_555 1_555
O2 C3 1_555 1_555
O3 C8 1_555 1_555
O4 C9 1_555 1_555
O5 C14 1_555 1_555
O6 C15 1_555 1_555
O7 C43 1_555 1_555
C43 H37 1_555 1_555
H38 C43 1_555 1_555
C44 C43 1_555 1_555
H39 C44 1_555 1_555
H40 C44 1_555 1_555
C45 C44 1_555 1_555
H41 C45 1_555 1_555
H42 C45 1_555 1_555
C46 O7 1_555 1_555
H43 C46 1_555 1_555
H44 C46 1_555 1_555
C4 N2 1_555 1_555
C5 C18 1_555 1_555
C10 N3 1_555 1_555
C16 C17 1_555 1_555
C16 N1 1_555 1_555
C17 C18 1_555 1_555
C19 O1 1_555 1_555
C20 O2 1_555 1_555
C25 C26 1_555 1_555
C27 O3 1_555 1_555
C28 O4 1_555 1_555
C33 C34 1_555 1_555
C35 O5 1_555 1_555
C36 O6 1_555 1_555
C41 C42 1_555 1_555
C45 C46 1_555 1_555

#END
