
#######################################################################
#
#                 Cambridge Crystallographic Data Centre
#                                CCDC 
#
#######################################################################
#
# If this CIF has been generated from an entry in the Cambridge 
# Structural Database, then it will include bibliographic, chemical, 
# crystal, experimental, refinement or atomic coordinate data resulting 
# from the CCDC's data processing and validation procedures.
#
#######################################################################

data_RUCJUV03
_chemical_name_common            Indiplon
_chemical_formula_moiety         'C20 H16 N4 O2 S1'
_chemical_name_systematic        
N-Methyl-N-(3-(3-(2-thienylcarbonyl)pyrazolo[1,5-a]pyrimidin-7-yl)phenyl)acetamide
_symmetry_cell_setting           triclinic
_symmetry_space_group_name_H-M   'P -1'
_symmetry_Int_Tables_number      2
_space_group_name_Hall           '-P 1'
loop_
_symmetry_equiv_pos_site_id
_symmetry_equiv_pos_as_xyz
1 x,y,z
2 -x,-y,-z
_cell_length_a                   9.071(2)
_cell_length_b                   9.2691(17)
_cell_length_c                   12.141(4)
_cell_angle_alpha                95.242(15)
_cell_angle_beta                 97.445(15)
_cell_angle_gamma                117.523(10)
_cell_volume                     884.277
_exptl_crystal_colour            'light yellow'
_exptl_crystal_description       plate
_cell_formula_units_Z            2
loop_
_atom_site_label
_atom_site_type_symbol
_atom_site_fract_x
_atom_site_fract_y
_atom_site_fract_z
S1 S 0.98536(7) 0.59404(7) 0.34107(6)
O1 O 1.0366(2) 0.7622(2) 0.56586(15)
N1 N 1.3248(2) 1.2486(2) 0.71068(14)
N2 N 1.43097(19) 1.29221(19) 0.63459(13)
N3 N 1.4727(2) 1.1799(2) 0.46274(15)
C1 C 1.1069(2) 0.8036(2) 0.38917(19)
C2 C 1.1652(3) 0.8883(3) 0.30143(18)
H1 H 1.2329 1.0047 0.3100
C3 C 1.1102(3) 0.7779(3) 0.1976(2)
H2 H 1.1373 0.8122 0.1282
C4 C 1.0142(3) 0.6173(3) 0.2083(2)
H3 H 0.9683 0.5277 0.1471
C5 C 1.1220(2) 0.8609(2) 0.50840(19)
C6 C 1.2318(2) 1.0334(2) 0.56353(17)
C7 C 1.2091(2) 1.0949(3) 0.66645(18)
H4 H 1.1177 1.0311 0.7016
C8 C 1.5755(2) 1.4413(2) 0.64594(16)
C9 C 1.6672(2) 1.4561(2) 0.56314(17)
H5 H 1.7679 1.5562 0.5650
C10 C 1.6122(3) 1.3221(3) 0.47469(18)
H6 H 1.6808 1.3354 0.4196
C11 C 1.3802(2) 1.1648(2) 0.54370(16)
C12 C 1.6240(2) 1.5728(2) 0.74343(17)
C13 C 1.5041(3) 1.5987(3) 0.79023(19)
H7 H 1.3869 1.5304 0.7594
C14 C 1.5546(3) 1.7232(3) 0.8811(2)
C15 C 1.7247(3) 1.8251(3) 0.9264(2)
H8 H 1.7590 1.9113 0.9884
C16 C 1.8444(3) 1.8001(3) 0.8801(2)
H9 H 1.9614 1.8692 0.9110
C17 C 1.7954(2) 1.6759(2) 0.78949(19)
H10 H 1.8789 1.6603 0.7583
O2 O 1.2262(8) 1.8111(8) 0.9405(6)
N4 N 1.4256(3) 1.7312(3) 0.93860(19)
C18 C 1.3745(14) 1.6324(12) 1.0263(9)
H11 H 1.3019 1.6619 1.0655
H12 H 1.4754 1.6533 1.0802
H13 H 1.3118 1.5151 0.9925
C19 C 1.3464(4) 1.8154(4) 0.9011(2)
C20 C 1.4001(9) 1.9107(10) 0.8087(8)
H14 H 1.3075 1.8622 0.7427
H15 H 1.4997 1.9070 0.7887
H16 H 1.4285 2.0256 0.8336
C21? C 1.443(3) 1.932(3) 0.814(2)
C22? C 1.3315(12) 1.7404(12) 0.9473(7)
C23? C 1.342(5) 1.619(4) 1.016(3)
H17? H 1.4395 1.8989 0.7348
H18? H 1.5471 2.0363 0.8448
H19? H 1.3444 1.9480 0.8212
H20? H 1.2359 1.5613 1.0434
H21? H 1.4363 1.6777 1.0809
H22? H 1.3608 1.5393 0.9700
N5? N 1.4391(9) 1.8065(8) 0.8767(6)
O3? O 1.215(3) 1.773(3) 0.957(2)
loop_
_geom_bond_atom_site_label_1
_geom_bond_atom_site_label_2
_geom_bond_site_symmetry_1
_geom_bond_site_symmetry_2
S1 C1 1_555 1_555
O1 C5 1_555 1_555
N1 N2 1_555 1_555
N2 C8 1_555 1_555
N3 C10 1_555 1_555
C1 C2 1_555 1_555
C2 H1 1_555 1_555
C3 C2 1_555 1_555
H2 C3 1_555 1_555
C4 S1 1_555 1_555
H3 C4 1_555 1_555
C5 C1 1_555 1_555
C6 C5 1_555 1_555
C7 N1 1_555 1_555
H4 C7 1_555 1_555
C8 C9 1_555 1_555
C9 H5 1_555 1_555
C10 C9 1_555 1_555
H6 C10 1_555 1_555
C11 N2 1_555 1_555
C12 C8 1_555 1_555
C13 C12 1_555 1_555
H7 C13 1_555 1_555
C14 C13 1_555 1_555
C15 C14 1_555 1_555
H8 C15 1_555 1_555
C16 C15 1_555 1_555
H9 C16 1_555 1_555
C17 C12 1_555 1_555
H10 C17 1_555 1_555
O2 C19 1_555 1_555
N4 C14 1_555 1_555
C18 N4 1_555 1_555
H11 C18 1_555 1_555
H12 C18 1_555 1_555
H13 C18 1_555 1_555
C19 N4 1_555 1_555
C20 C19 1_555 1_555
H14 C20 1_555 1_555
H15 C20 1_555 1_555
H16 C20 1_555 1_555
N3 C11 1_555 1_555
C3 C4 1_555 1_555
C6 C7 1_555 1_555
C6 C11 1_555 1_555
C16 C17 1_555 1_555

#END
