
#######################################################################
#
#                 Cambridge Crystallographic Data Centre
#                                CCDC 
#
#######################################################################
#
# If this CIF has been generated from an entry in the Cambridge 
# Structural Database, then it will include bibliographic, chemical, 
# crystal, experimental, refinement or atomic coordinate data resulting 
# from the CCDC's data processing and validation procedures.
#
#######################################################################

data_RUCMUZ01
_chemical_formula_moiety         'C16 H20 N2 O2'
_chemical_name_systematic        
5-methoxy-1,8-dimethyl-3a-(prop-1-en-1-yl)-3,3a,8,8a-tetrahydropyrrolo[2,3-b]indol-2(1H)-one
_symmetry_cell_setting           orthorhombic
_symmetry_space_group_name_H-M   'P 21 21 21'
_symmetry_Int_Tables_number      19
_space_group_name_Hall           'P 2ac 2ab'
loop_
_symmetry_equiv_pos_site_id
_symmetry_equiv_pos_as_xyz
1 x,y,z
2 1/2+x,1/2-y,-z
3 -x,1/2+y,1/2-z
4 1/2-x,-y,1/2+z
_cell_length_a                   5.8539(3)
_cell_length_b                   14.8148(6)
_cell_length_c                   16.7584(7)
_cell_angle_alpha                90
_cell_angle_beta                 90
_cell_angle_gamma                90
_cell_volume                     1453.36
_exptl_crystal_colour            colorless
_exptl_crystal_description       plate
_cell_formula_units_Z            4
loop_
_atom_site_label
_atom_site_type_symbol
_atom_site_fract_x
_atom_site_fract_y
_atom_site_fract_z
O1 O 0.37140(18) 0.74894(7) 0.40370(7)
O2 O 0.3105(2) 0.27833(7) 0.37336(7)
N1 N 0.7222(2) 0.68441(8) 0.38439(7)
N2 N 0.9600(2) 0.54884(8) 0.36428(7)
C1 C 0.8718(2) 0.61522(9) 0.41937(8)
H1 H 0.9978 0.6434 0.4510
C2 C 0.7057(2) 0.56060(9) 0.47471(8)
C3 C 0.5032(3) 0.62468(9) 0.48772(8)
H2 H 0.3570 0.5912 0.4854
H3 H 0.5150 0.6550 0.5402
C4 C 0.5178(2) 0.69281(9) 0.42070(9)
C5 C 0.8022(2) 0.47883(9) 0.35778(8)
C6 C 0.6480(2) 0.48121(9) 0.42083(8)
C7 C 0.4786(3) 0.41652(9) 0.42896(8)
H4 H 0.3731 0.4189 0.4720
C8 C 0.4674(3) 0.34737(10) 0.37185(9)
C9 C 0.6220(3) 0.34527(10) 0.30866(9)
H5 H 0.6128 0.2979 0.2706
C10 C 0.7897(3) 0.41117(10) 0.30025(9)
H6 H 0.8927 0.4100 0.2565
C11 C 0.8242(2) 0.53438(10) 0.55154(8)
H7 H 0.8666 0.5822 0.5862
C12 C 0.8747(3) 0.45193(10) 0.57524(9)
H8 H 0.8291 0.4029 0.5424
C13 C 1.0002(4) 0.43113(12) 0.65120(10)
H9 H 1.0387 0.4876 0.6785
H10 H 1.1407 0.3980 0.6388
H11 H 0.9031 0.3942 0.6859
C14 C 0.8070(3) 0.75015(10) 0.32702(9)
H12 H 0.7874 0.7265 0.2728
H13 H 0.9693 0.7616 0.3370
H14 H 0.7211 0.8066 0.3326
C15 C 1.1159(3) 0.56933(11) 0.29987(10)
H15 H 1.2145 0.5171 0.2899
H16 H 1.2103 0.6214 0.3146
H17 H 1.0288 0.5834 0.2515
C16 C 0.1351(3) 0.28229(11) 0.43175(10)
H18 H 0.2026 0.2768 0.4850
H19 H 0.0270 0.2328 0.4230
H20 H 0.0546 0.3401 0.4275
loop_
_geom_bond_atom_site_label_1
_geom_bond_atom_site_label_2
_geom_bond_site_symmetry_1
_geom_bond_site_symmetry_2
O1 C4 1_555 1_555
O2 C8 1_555 1_555
N1 C1 1_555 1_555
N2 C1 1_555 1_555
C1 H1 1_555 1_555
C2 C1 1_555 1_555
C3 C2 1_555 1_555
H2 C3 1_555 1_555
H3 C3 1_555 1_555
C4 N1 1_555 1_555
C5 N2 1_555 1_555
C6 C2 1_555 1_555
C7 C6 1_555 1_555
H4 C7 1_555 1_555
C8 C7 1_555 1_555
C9 C8 1_555 1_555
H5 C9 1_555 1_555
C10 C5 1_555 1_555
H6 C10 1_555 1_555
C11 C2 1_555 1_555
H7 C11 1_555 1_555
C12 C11 1_555 1_555
H8 C12 1_555 1_555
C13 C12 1_555 1_555
H9 C13 1_555 1_555
H10 C13 1_555 1_555
H11 C13 1_555 1_555
C14 N1 1_555 1_555
H12 C14 1_555 1_555
H13 C14 1_555 1_555
H14 C14 1_555 1_555
C15 N2 1_555 1_555
H15 C15 1_555 1_555
H16 C15 1_555 1_555
H17 C15 1_555 1_555
C16 O2 1_555 1_555
H18 C16 1_555 1_555
H19 C16 1_555 1_555
H20 C16 1_555 1_555
C3 C4 1_555 1_555
C5 C6 1_555 1_555
C9 C10 1_555 1_555

#END
