
#######################################################################
#
#                 Cambridge Crystallographic Data Centre
#                                CCDC 
#
#######################################################################
#
# If this CIF has been generated from an entry in the Cambridge 
# Structural Database, then it will include bibliographic, chemical, 
# crystal, experimental, refinement or atomic coordinate data resulting 
# from the CCDC's data processing and validation procedures.
#
#######################################################################

data_RUCPIQ
_chemical_formula_moiety         'C27 H20 N2 O7'
_chemical_name_systematic        
'dimethyl 3-(4-methoxyphenyl)-4-(4-nitrophenyl)pyrrolo[2,1,5-cd]indolizine-1,2-dicarboxylate'
_symmetry_cell_setting           triclinic
_symmetry_space_group_name_H-M   'P -1'
_symmetry_Int_Tables_number      2
_space_group_name_Hall           '-P 1'
loop_
_symmetry_equiv_pos_site_id
_symmetry_equiv_pos_as_xyz
1 x,y,z
2 -x,-y,-z
_cell_length_a                   8.331(11)
_cell_length_b                   11.659(14)
_cell_length_c                   12.623(16)
_cell_angle_alpha                66.52(2)
_cell_angle_beta                 85.56(3)
_cell_angle_gamma                88.99(2)
_cell_volume                     1121.07
_exptl_crystal_colour            yellow
_cell_formula_units_Z            2
_exptl_crystal_recrystallization_method 'chloroform/petroleum ether'
_exptl_crystal_preparation       Luminescent
loop_
_atom_site_label
_atom_site_type_symbol
_atom_site_fract_x
_atom_site_fract_y
_atom_site_fract_z
O1 O 0.5617(3) 1.0304(2) 0.20585(18)
O2 O 0.7779(3) 0.8857(2) 0.09128(18)
O3 O 0.5218(3) 0.8294(2) 0.09696(19)
O4 O 0.7976(3) 0.4064(2) -0.04504(19)
O5 O 0.5880(3) 1.0182(2) 0.3842(2)
C1 C 0.9019(5) 0.3102(4) -0.0505(3)
H1 H 1.0119 0.3367 -0.0562
H2 H 0.8825 0.2939 -0.1171
H3 H 0.8817 0.2355 0.0183
O6 O 1.0546(4) -0.0702(2) 0.7636(2)
O7 O 0.8896(4) -0.1330(3) 0.6781(3)
N1 N 0.9518(4) -0.0512(3) 0.6960(3)
N2 N 0.6806(3) 0.6406(2) 0.4492(2)
C2 C 0.6836(4) 0.6472(3) 0.3396(3)
C3 C 0.9049(4) 0.0792(3) 0.6322(3)
C4 C 0.8121(4) 0.3224(3) 0.5177(3)
C5 C 0.7597(4) 0.4530(3) 0.4621(3)
C6 C 0.6385(4) 0.8323(3) 0.1446(3)
C7 C 0.9159(4) 0.2915(3) 0.6047(3)
H4 H 0.9559 0.3541 0.6240
C8 C 0.7575(4) 0.4933(3) 0.2442(2)
C9 C 0.7344(4) 0.5263(3) 0.3457(3)
C10 C 0.6471(4) 0.7726(3) 0.2715(2)
C11 C 0.9612(4) 0.1695(3) 0.6634(3)
H5 H 1.0290 0.1491 0.7234
C12 C 0.8783(4) 0.4136(3) 0.2335(3)
H6 H 0.9488 0.3805 0.2916
C13 C 0.7243(4) 0.5277(3) 0.5282(3)
C14 C 0.6240(4) 0.8371(3) 0.3458(3)
C15 C 0.6802(4) 0.5180(3) 0.0572(3)
H7 H 0.6154 0.5558 -0.0039
C16 C 0.6460(4) 0.7497(3) 0.4609(3)
C17 C 0.6610(4) 0.5461(3) 0.1531(3)
H8 H 0.5815 0.6017 0.1568
C18 C 0.7957(4) 0.4335(3) 0.0509(3)
C19 C 0.6463(4) 0.7430(3) 0.5726(3)
H9 H 0.6236 0.8129 0.5890
C20 C 0.7582(4) 0.2272(3) 0.4885(3)
H10 H 0.6900 0.2465 0.4289
C21 C 0.5898(4) 0.9690(3) 0.3164(3)
C22 C 0.8035(4) 0.1051(3) 0.5459(3)
H11 H 0.7659 0.0419 0.5264
C23 C 0.7200(4) 0.5225(3) 0.6398(3)
H12 H 0.7427 0.4484 0.7011
C24 C 0.8958(4) 0.3828(3) 0.1387(3)
H13 H 0.9755 0.3277 0.1343
C25 C 0.6812(4) 0.6301(3) 0.6592(3)
H14 H 0.6787 0.6252 0.7346
C26 C 0.5378(5) 1.1629(3) 0.1697(3)
H15 H 0.4371 1.1770 0.2047
H16 H 0.5364 1.2013 0.0869
H17 H 0.6239 1.1987 0.1934
C27 C 0.7788(5) 0.9521(4) -0.0327(3)
H18 H 0.7578 0.8944 -0.0671
H19 H 0.8822 0.9915 -0.0629
H20 H 0.6971 1.0147 -0.0506
loop_
_geom_bond_atom_site_label_1
_geom_bond_atom_site_label_2
_geom_bond_site_symmetry_1
_geom_bond_site_symmetry_2
O1 C21 1_555 1_555
O2 C6 1_555 1_555
O3 C6 1_555 1_555
O4 C1 1_555 1_555
O5 C21 1_555 1_555
C1 H1 1_555 1_555
H2 C1 1_555 1_555
H3 C1 1_555 1_555
O6 N1 1_555 1_555
O7 N1 1_555 1_555
N1 C3 1_555 1_555
N2 C2 1_555 1_555
C2 C9 1_555 1_555
C3 C11 1_555 1_555
C4 C5 1_555 1_555
C5 C9 1_555 1_555
C6 C10 1_555 1_555
C7 C4 1_555 1_555
H4 C7 1_555 1_555
C8 C9 1_555 1_555
C10 C2 1_555 1_555
C11 C7 1_555 1_555
H5 C11 1_555 1_555
C12 C8 1_555 1_555
H6 C12 1_555 1_555
C13 N2 1_555 1_555
C14 C10 1_555 1_555
C15 H7 1_555 1_555
C16 N2 1_555 1_555
C17 C8 1_555 1_555
H8 C17 1_555 1_555
C18 O4 1_555 1_555
C19 C16 1_555 1_555
H9 C19 1_555 1_555
C20 C4 1_555 1_555
H10 C20 1_555 1_555
C21 C14 1_555 1_555
C22 C3 1_555 1_555
H11 C22 1_555 1_555
C23 C13 1_555 1_555
H12 C23 1_555 1_555
C24 C12 1_555 1_555
H13 C24 1_555 1_555
C25 C19 1_555 1_555
H14 C25 1_555 1_555
C26 O1 1_555 1_555
H15 C26 1_555 1_555
H16 C26 1_555 1_555
H17 C26 1_555 1_555
C27 O2 1_555 1_555
H18 C27 1_555 1_555
H19 C27 1_555 1_555
H20 C27 1_555 1_555
C5 C13 1_555 1_555
C14 C16 1_555 1_555
C15 C17 1_555 1_555
C15 C18 1_555 1_555
C18 C24 1_555 1_555
C20 C22 1_555 1_555
C23 C25 1_555 1_555

#END
