
#######################################################################
#
#                 Cambridge Crystallographic Data Centre
#                                CCDC 
#
#######################################################################
#
# If this CIF has been generated from an entry in the Cambridge 
# Structural Database, then it will include bibliographic, chemical, 
# crystal, experimental, refinement or atomic coordinate data resulting 
# from the CCDC's data processing and validation procedures.
#
#######################################################################

data_RUCPEM
_chemical_formula_moiety         'C28 H19 N1 O4'
_chemical_name_systematic        
'dimethyl 4-phenyl-3-(phenylethynyl)pyrrolo[2,1,5-cd]indolizine-1,2-dicarboxylate'
_symmetry_cell_setting           monoclinic
_symmetry_space_group_name_H-M   'P 21/c'
_symmetry_Int_Tables_number      14
_space_group_name_Hall           '-P 2ybc'
loop_
_symmetry_equiv_pos_site_id
_symmetry_equiv_pos_as_xyz
1 x,y,z
2 -x,1/2+y,1/2-z
3 -x,-y,-z
4 x,1/2-y,1/2+z
_cell_length_a                   10.8728(6)
_cell_length_b                   9.9457(5)
_cell_length_c                   19.7157(11)
_cell_angle_alpha                90
_cell_angle_beta                 96.235(2)
_cell_angle_gamma                90
_cell_volume                     2119.4
_exptl_crystal_colour            yellow
_cell_formula_units_Z            4
_exptl_crystal_recrystallization_method 'chloroform/petroleum ether'
_exptl_crystal_preparation       Luminescent
loop_
_atom_site_label
_atom_site_type_symbol
_atom_site_fract_x
_atom_site_fract_y
_atom_site_fract_z
C1 C 0.91854(16) 0.21549(18) 1.09107(9)
C2 C 0.82774(16) 0.11272(18) 1.08376(9)
C3 C 0.75940(16) -0.01912(18) 0.96383(9)
C4 C 0.80981(16) 0.00996(18) 0.90278(9)
C5 C 0.98673(16) 0.1881(2) 0.88561(10)
H1 H 0.9956 0.1763 0.8386
C6 C 1.05787(17) 0.2840(2) 0.92510(9)
H2 H 1.1155 0.3358 0.9033
C7 C 1.04937(17) 0.30779(19) 0.99374(9)
H3 H 1.0989 0.3748 1.0177
C8 C 0.82051(16) 0.06314(18) 1.01667(9)
C9 C 0.90358(16) 0.11148(18) 0.91736(9)
C10 C 0.96625(16) 0.23088(18) 1.02689(9)
C11 C 0.96104(16) 0.28605(18) 1.15429(9)
C12 C 1.06613(19) 0.4779(2) 1.20153(10)
H4 H 0.9950 0.5140 1.2222
H5 H 1.1175 0.5523 1.1882
H6 H 1.1152 0.4206 1.2347
C13 C 0.74313(17) 0.0668(2) 1.13291(9)
C14 C 0.5991(2) 0.1343(2) 1.20688(11)
H7 H 0.5309 0.0852 1.1813
H8 H 0.5671 0.2161 1.2264
H9 H 0.6379 0.0772 1.2437
C15 C 0.66024(17) -0.10759(19) 0.97396(9)
C16 C 0.57672(17) -0.17813(19) 0.98767(10)
C17 C 0.47899(16) -0.25856(18) 1.00952(9)
C18 C 0.42048(18) -0.3575(2) 0.96785(11)
H10 H 0.4446 -0.3726 0.9236
C19 C 0.32679(19) -0.4341(2) 0.99103(11)
H11 H 0.2870 -0.5019 0.9626
C20 C 0.29151(19) -0.4120(2) 1.05513(12)
H12 H 0.2270 -0.4642 1.0707
C21 C 0.34936(18) -0.3145(2) 1.09672(11)
H13 H 0.3250 -0.3000 1.1410
C22 C 0.44298(17) -0.2376(2) 1.07413(10)
H14 H 0.4826 -0.1703 1.1029
C23 C 0.76979(16) -0.04396(19) 0.83450(9)
C24 C 0.73535(17) -0.1783(2) 0.82507(10)
H15 H 0.7384 -0.2371 0.8632
C25 C 0.69666(18) -0.2261(2) 0.76012(11)
H16 H 0.6732 -0.3177 0.7541
C26 C 0.69186(18) -0.1420(2) 0.70419(11)
H17 H 0.6658 -0.1756 0.6598
C27 C 0.72512(19) -0.0092(2) 0.71314(10)
H18 H 0.7215 0.0492 0.6748
C28 C 0.76375(17) 0.0397(2) 0.77760(10)
H19 H 0.7865 0.1316 0.7831
O1 O 0.94410(12) 0.24891(14) 1.21095(6)
N1 N 0.90439(13) 0.13640(15) 0.98585(7)
O2 O 1.02290(12) 0.39952(13) 1.14199(6)
O3 O 0.72030(14) -0.04872(14) 1.14346(7)
O4 O 0.68950(12) 0.16988(14) 1.16168(7)
loop_
_geom_bond_atom_site_label_1
_geom_bond_atom_site_label_2
_geom_bond_site_symmetry_1
_geom_bond_site_symmetry_2
C1 C2 1_555 1_555
C2 C8 1_555 1_555
C3 C4 1_555 1_555
C4 C9 1_555 1_555
C5 H1 1_555 1_555
C6 C5 1_555 1_555
H2 C6 1_555 1_555
C7 C6 1_555 1_555
H3 C7 1_555 1_555
C8 C3 1_555 1_555
C9 C5 1_555 1_555
C10 C1 1_555 1_555
C11 C1 1_555 1_555
C12 H4 1_555 1_555
H5 C12 1_555 1_555
H6 C12 1_555 1_555
C13 C2 1_555 1_555
C14 H7 1_555 1_555
H8 C14 1_555 1_555
H9 C14 1_555 1_555
C15 C3 1_555 1_555
C16 C15 1_555 1_555
C17 C16 1_555 1_555
C18 C17 1_555 1_555
H10 C18 1_555 1_555
C19 C18 1_555 1_555
H11 C19 1_555 1_555
C20 C19 1_555 1_555
H12 C20 1_555 1_555
C21 C20 1_555 1_555
H13 C21 1_555 1_555
C22 C17 1_555 1_555
H14 C22 1_555 1_555
C23 C4 1_555 1_555
C24 C23 1_555 1_555
H15 C24 1_555 1_555
C25 C24 1_555 1_555
H16 C25 1_555 1_555
C26 C25 1_555 1_555
H17 C26 1_555 1_555
C27 C26 1_555 1_555
H18 C27 1_555 1_555
C28 C23 1_555 1_555
H19 C28 1_555 1_555
O1 C11 1_555 1_555
N1 C8 1_555 1_555
O2 C11 1_555 1_555
O3 C13 1_555 1_555
O4 C13 1_555 1_555
C7 C10 1_555 1_555
C9 N1 1_555 1_555
C10 N1 1_555 1_555
C12 O2 1_555 1_555
C14 O4 1_555 1_555
C21 C22 1_555 1_555
C27 C28 1_555 1_555

#END
