
#######################################################################
#
#                 Cambridge Crystallographic Data Centre
#                                CCDC 
#
#######################################################################
#
# If this CIF has been generated from an entry in the Cambridge 
# Structural Database, then it will include bibliographic, chemical, 
# crystal, experimental, refinement or atomic coordinate data resulting 
# from the CCDC's data processing and validation procedures.
#
#######################################################################

data_RUCRIS
_chemical_formula_moiety         'C26 H18 N2 O6'
_chemical_name_systematic        
'Dimethyl 4-(4-nitrophenyl)-3-phenylpyrrolo[2,1,5-cd]indolizine-1,2-dicarboxylate'
_symmetry_cell_setting           monoclinic
_symmetry_space_group_name_H-M   'P 21/c'
_symmetry_Int_Tables_number      14
_space_group_name_Hall           '-P 2ybc'
loop_
_symmetry_equiv_pos_site_id
_symmetry_equiv_pos_as_xyz
1 x,y,z
2 -x,1/2+y,1/2-z
3 -x,-y,-z
4 x,1/2-y,1/2+z
_cell_length_a                   9.544(2)
_cell_length_b                   24.286(7)
_cell_length_c                   9.795(3)
_cell_angle_alpha                90
_cell_angle_beta                 106.247(5)
_cell_angle_gamma                90
_cell_volume                     2179.67
_exptl_crystal_colour            yellow
_cell_formula_units_Z            4
_exptl_crystal_preparation       Luminescent
loop_
_atom_site_label
_atom_site_type_symbol
_atom_site_fract_x
_atom_site_fract_y
_atom_site_fract_z
C1 C 0.5189(3) 0.35836(14) 0.1351(3)
C2 C 0.5832(3) 0.30663(13) 0.1759(3)
C3 C 0.4522(3) 0.20896(13) 0.0749(3)
C4 C 0.3178(3) 0.20588(13) -0.0289(3)
C5 C 0.1469(3) 0.28979(14) -0.1484(3)
H1 H 0.0680 0.2712 -0.2079
C6 C 0.1481(3) 0.34732(14) -0.1417(3)
H2 H 0.0682 0.3662 -0.1988
C7 C 0.2611(3) 0.37809(13) -0.0553(3)
H3 H 0.2565 0.4163 -0.0549
C8 C 0.4863(3) 0.26587(13) 0.1028(3)
C9 C 0.2652(3) 0.26100(13) -0.0648(3)
C10 C 0.3813(3) 0.35043(13) 0.0309(3)
C11 C 0.5883(4) 0.41031(14) 0.1899(4)
C12 C 0.5608(4) 0.50697(13) 0.2024(4)
H4 H 0.4895 0.5352 0.1674
H5 H 0.6456 0.5141 0.1708
H6 H 0.5876 0.5067 0.3044
C13 C 0.7325(4) 0.29853(13) 0.2711(4)
C14 C 0.8791(3) 0.30315(14) 0.5082(3)
H7 H 0.8695 0.3068 0.6027
H8 H 0.9353 0.3334 0.4884
H9 H 0.9276 0.2691 0.5006
C15 C 0.5508(3) 0.16430(13) 0.1477(4)
C16 C 0.6183(3) 0.16850(13) 0.2931(4)
H10 H 0.5964 0.1979 0.3445
C17 C 0.7185(3) 0.12878(15) 0.3617(4)
H11 H 0.7618 0.1312 0.4592
C18 C 0.7537(4) 0.08598(15) 0.2858(4)
H12 H 0.8230 0.0602 0.3314
C19 C 0.6866(4) 0.08121(14) 0.1423(4)
H13 H 0.7096 0.0519 0.0914
C20 C 0.5847(3) 0.12007(14) 0.0734(3)
H14 H 0.5387 0.1164 -0.0233
C21 C 0.2336(3) 0.15671(13) -0.0909(4)
C22 C 0.1617(3) 0.15515(13) -0.2360(3)
H15 H 0.1717 0.1846 -0.2932
C23 C 0.0758(3) 0.11080(14) -0.2967(3)
H16 H 0.0265 0.1107 -0.3931
C24 C 0.0648(3) 0.06720(14) -0.2126(4)
C25 C 0.1341(3) 0.06653(13) -0.0688(4)
H17 H 0.1241 0.0366 -0.0130
C26 C 0.2192(3) 0.11150(14) -0.0088(3)
H18 H 0.2673 0.1114 0.0880
N1 N 0.3718(3) 0.29411(11) 0.0179(3)
N2 N -0.0282(3) 0.02012(13) -0.2755(3)
O1 O 0.7110(2) 0.41476(9) 0.2664(3)
O2 O 0.4997(2) 0.45388(10) 0.1488(2)
O3 O 0.8358(2) 0.28833(10) 0.2300(2)
O4 O 0.7357(2) 0.30335(9) 0.4069(2)
O5 O -0.0362(3) -0.01910(10) -0.1995(3)
O6 O -0.0927(3) 0.02198(10) -0.4016(3)
loop_
_geom_bond_atom_site_label_1
_geom_bond_atom_site_label_2
_geom_bond_site_symmetry_1
_geom_bond_site_symmetry_2
C1 C2 1_555 1_555
C2 C8 1_555 1_555
C3 C4 1_555 1_555
C4 C9 1_555 1_555
C5 H1 1_555 1_555
C6 C5 1_555 1_555
H2 C6 1_555 1_555
C7 C6 1_555 1_555
H3 C7 1_555 1_555
C8 C3 1_555 1_555
C9 C5 1_555 1_555
C10 C1 1_555 1_555
C11 C1 1_555 1_555
C12 H4 1_555 1_555
H5 C12 1_555 1_555
H6 C12 1_555 1_555
C13 C2 1_555 1_555
C14 H7 1_555 1_555
H8 C14 1_555 1_555
H9 C14 1_555 1_555
C15 C3 1_555 1_555
C16 C15 1_555 1_555
H10 C16 1_555 1_555
C17 C16 1_555 1_555
H11 C17 1_555 1_555
C18 C17 1_555 1_555
H12 C18 1_555 1_555
C19 C18 1_555 1_555
H13 C19 1_555 1_555
C20 C15 1_555 1_555
H14 C20 1_555 1_555
C21 C4 1_555 1_555
C22 C21 1_555 1_555
H15 C22 1_555 1_555
C23 C22 1_555 1_555
H16 C23 1_555 1_555
C24 C23 1_555 1_555
C25 C24 1_555 1_555
H17 C25 1_555 1_555
C26 C21 1_555 1_555
H18 C26 1_555 1_555
N1 C8 1_555 1_555
N2 C24 1_555 1_555
O1 C11 1_555 1_555
O2 C11 1_555 1_555
O3 C13 1_555 1_555
O4 C13 1_555 1_555
O5 N2 1_555 1_555
O6 N2 1_555 1_555
C7 C10 1_555 1_555
C9 N1 1_555 1_555
C10 N1 1_555 1_555
C12 O2 1_555 1_555
C14 O4 1_555 1_555
C19 C20 1_555 1_555
C25 C26 1_555 1_555

#END
