
#######################################################################
#
#                 Cambridge Crystallographic Data Centre
#                                CCDC 
#
#######################################################################
#
# If this CIF has been generated from an entry in the Cambridge 
# Structural Database, then it will include bibliographic, chemical, 
# crystal, experimental, refinement or atomic coordinate data resulting 
# from the CCDC's data processing and validation procedures.
#
#######################################################################

data_RUCTOA
_chemical_formula_moiety         'C16 H14 O2'
_chemical_name_systematic        
4-Methylene-3-phenoxy-3,4-dihydro-1H-isochromene
_symmetry_cell_setting           orthorhombic
_symmetry_space_group_name_H-M   'P 21 21 21'
_symmetry_Int_Tables_number      19
_space_group_name_Hall           'P 2ac 2ab'
loop_
_symmetry_equiv_pos_site_id
_symmetry_equiv_pos_as_xyz
1 x,y,z
2 1/2-x,-y,1/2+z
3 1/2+x,1/2-y,-z
4 -x,1/2+y,1/2-z
_cell_length_a                   8.4770(4)
_cell_length_b                   8.5847(5)
_cell_length_c                   17.5470(5)
_cell_angle_alpha                90
_cell_angle_beta                 90
_cell_angle_gamma                90
_cell_volume                     1276.94
_exptl_crystal_colour            colorless
_exptl_crystal_description       block
_cell_formula_units_Z            4
loop_
_atom_site_label
_atom_site_type_symbol
_atom_site_fract_x
_atom_site_fract_y
_atom_site_fract_z
O1 O 0.1308(3) 0.4732(4) 0.72061(11)
O2 O 0.1560(3) 0.6329(3) 0.61371(10)
C1 C 0.1895(4) 0.3408(5) 0.68019(19)
H1 H 0.2301 0.2660 0.7167
H2 H 0.2767 0.3735 0.6481
C2 C -0.1428(5) 0.1143(7) 0.5365(2)
H3 H -0.2130 0.0646 0.5038
C3 C -0.0646(4) 0.3458(5) 0.60752(17)
C4 C 0.0680(4) 0.2626(5) 0.63156(16)
C5 C 0.4381(5) 0.8864(6) 0.7141(2)
H4 H 0.4655 0.9187 0.7630
C6 C -0.1699(4) 0.2694(6) 0.5592(2)
H5 H -0.2591 0.3215 0.5418
C7 C 0.0530(4) 0.5790(5) 0.67268(17)
H6 H 0.0170 0.6682 0.7029
C8 C 0.4795(4) 0.8964(6) 0.5814(2)
H7 H 0.5351 0.9345 0.5397
C9 C 0.3162(5) 0.7801(5) 0.70492(18)
H8 H 0.2621 0.7412 0.7469
C10 C -0.0865(4) 0.5055(5) 0.63369(18)
C11 C 0.0913(4) 0.1107(5) 0.6096(2)
H9 H 0.1795 0.0570 0.6270
C12 C 0.3589(4) 0.7922(5) 0.57043(18)
H10 H 0.3322 0.7612 0.5213
C13 C -0.2186(7) 0.5898(9) 0.6261(3)
C14 C 0.5185(5) 0.9446(6) 0.6532(2)
H11 H 0.5993 1.0164 0.6604
C15 C 0.2768(4) 0.7331(4) 0.63205(16)
C16 C -0.0132(5) 0.0380(6) 0.5627(3)
H12 H 0.0042 -0.0649 0.5484
H13 H -0.311(6) 0.530(7) 0.597(3)
H14 H -0.208(5) 0.692(7) 0.644(2)
loop_
_geom_bond_atom_site_label_1
_geom_bond_atom_site_label_2
_geom_bond_site_symmetry_1
_geom_bond_site_symmetry_2
O1 C1 1_555 1_555
O2 C7 1_555 1_555
C1 H1 1_555 1_555
H2 C1 1_555 1_555
C2 H3 1_555 1_555
C3 C4 1_555 1_555
C4 C1 1_555 1_555
C5 H4 1_555 1_555
C6 C2 1_555 1_555
H5 C6 1_555 1_555
C7 O1 1_555 1_555
H6 C7 1_555 1_555
C8 H7 1_555 1_555
C9 C5 1_555 1_555
H8 C9 1_555 1_555
C10 C3 1_555 1_555
C11 C4 1_555 1_555
H9 C11 1_555 1_555
C12 C8 1_555 1_555
H10 C12 1_555 1_555
C13 C10 1_555 1_555
C14 C5 1_555 1_555
H11 C14 1_555 1_555
C15 O2 1_555 1_555
C16 C2 1_555 1_555
H12 C16 1_555 1_555
H13 C13 1_555 1_555
H14 C13 1_555 1_555
C3 C6 1_555 1_555
C7 C10 1_555 1_555
C8 C14 1_555 1_555
C9 C15 1_555 1_555
C11 C16 1_555 1_555
C12 C15 1_555 1_555

#END
