
#######################################################################
#
#                 Cambridge Crystallographic Data Centre
#                                CCDC 
#
#######################################################################
#
# If this CIF has been generated from an entry in the Cambridge 
# Structural Database, then it will include bibliographic, chemical, 
# crystal, experimental, refinement or atomic coordinate data resulting 
# from the CCDC's data processing and validation procedures.
#
#######################################################################

data_RUCWUJ
_chemical_formula_moiety         'C26 H22 Br2 O2'
_chemical_name_systematic        
(4-Bromophenyl)(2-(4-bromophenyl)-5-(3-methoxyphenyl)-4-methylcyclopent-2-en-1-yl)methanone
_symmetry_cell_setting           monoclinic
_symmetry_space_group_name_H-M   'P 21/c'
_symmetry_Int_Tables_number      14
_space_group_name_Hall           '-P 2ybc'
loop_
_symmetry_equiv_pos_site_id
_symmetry_equiv_pos_as_xyz
1 x,y,z
2 -x,1/2+y,1/2-z
3 -x,-y,-z
4 x,1/2-y,1/2+z
_cell_length_a                   8.5312(12)
_cell_length_b                   27.609(4)
_cell_length_c                   10.3009(14)
_cell_angle_alpha                90
_cell_angle_beta                 113.370(4)
_cell_angle_gamma                90
_cell_volume                     2227.21
_exptl_crystal_colour            colorless
_exptl_crystal_description       block
_cell_formula_units_Z            4
_exptl_crystal_recrystallization_method ethanol/hexane
loop_
_atom_site_label
_atom_site_type_symbol
_atom_site_fract_x
_atom_site_fract_y
_atom_site_fract_z
Br1 Br -0.50911(11) 0.07459(3) 0.15751(9)
Br2 Br -0.25534(12) 0.46681(3) 0.41504(10)
C1 C 0.3106(15) 0.2267(3) 0.8674(12)
H1 H 0.2414 0.2115 0.9153
C2 C 0.2600(14) 0.2041(3) 0.7137(12)
H2 H 0.3524 0.2117 0.6803
C3 C 0.103(2) 0.2333(4) 0.6267(18)
H3 H 0.0935 0.2352 0.527
C4 C 0.1384(18) 0.2818(4) 0.6895(12)
C5 C 0.2573(15) 0.2781(3) 0.8308(10)
H4 H 0.298 0.3046 0.8939
C6 C 0.4995(17) 0.2199(8) 0.9561(19)
H5 H 0.5661 0.237 0.9116
H6 H 0.5273 0.1853 0.9631
H7 H 0.5272 0.2331 1.051
C7 C 0.2331(12) 0.1489(2) 0.7073(9)
C8 C 0.2807(16) 0.1228(4) 0.6133(11)
H8 H 0.329 0.1391 0.5568
C9 C 0.258(2) 0.0729(4) 0.6021(15)
C10 C 0.1869(19) 0.0491(2) 0.6849(15)
H9 H 0.1711 0.015 0.6772
C11 C 0.1393(13) 0.0751(3) 0.7789(11)
H10 H 0.0909 0.0588 0.8354
C12 C 0.1623(11) 0.1250(3) 0.7901(9)
H11 H 0.1298 0.1428 0.8543
C13 C 0.273(4) 0.0045(10) 0.471(2)
H12 H 0.3346 -0.013 0.5592
H13 H 0.3197 -0.0047 0.401
H14 H 0.1518 -0.0038 0.4343
O1 O 0.2935(19) 0.0552(6) 0.4958(12)
C14 C -0.0736(10) 0.2141(2) 0.6258(7)
C15 C -0.1745(9) 0.1802(2) 0.5125(7)
C16 C -0.1544(9) 0.1768(3) 0.3857(7)
H15 H -0.071 0.1961 0.3708
C17 C -0.2549(9) 0.1454(3) 0.2803(8)
H16 H -0.2419 0.1433 0.1931
C18 C -0.3729(9) 0.1174(3) 0.3043(7)
C19 C -0.3975(9) 0.1195(3) 0.4296(8)
H17 H -0.4793 0.0994 0.4442
C20 C -0.3000(10) 0.1516(3) 0.5321(8)
H18 H -0.3177 0.1545 0.6172
C21 C 0.0478(9) 0.3271(3) 0.6277(7)
C22 C -0.0969(10) 0.3247(3) 0.5022(7)
H19 H -0.1348 0.2941 0.4589
C23 C -0.1860(10) 0.3656(3) 0.4398(7)
H20 H -0.2847 0.3635 0.354
C24 C -0.1307(10) 0.4100(3) 0.5029(8)
C25 C 0.0131(10) 0.4142(3) 0.6262(8)
H21 H 0.0513 0.4451 0.6674
C26 C 0.1006(9) 0.3727(3) 0.6890(8)
H22 H 0.1984 0.3751 0.7753
O2 O -0.1199(8) 0.22429(19) 0.7206(5)
C27? C 0.389(4) 0.2276(9) 0.830(3)
H23? H 0.4695 0.2178 0.7864
C28? C 0.220(4) 0.1986(9) 0.769(4)
H24? H 0.1799 0.2016 0.8482
C29? C 0.075(8) 0.2359(11) 0.644(6)
H25? H 0.0931 0.2334 0.5538
C30? C 0.148(5) 0.2865(12) 0.717(5)
C31? C 0.328(4) 0.2775(9) 0.795(3)
H26? H 0.4069 0.3037 0.8222
C32? C 0.455(6) 0.214(2) 0.986(4)
H27? H 0.5462 0.2368 1.0403
H28? H 0.5003 0.1812 0.9986
H29? H 0.3619 0.2162 1.0181
C33? C 0.212(4) 0.1436(7) 0.748(3)
C34? C 0.254(5) 0.1267(11) 0.638(3)
H30? H 0.2851 0.149 0.5823
C35? C 0.249(6) 0.0774(12) 0.610(4)
C36? C 0.203(6) 0.0449(8) 0.692(5)
H31? H 0.1995 0.0111 0.6727
C37? C 0.162(4) 0.0617(8) 0.802(4)
H32? H 0.1301 0.0394 0.8574
C38? C 0.166(4) 0.1110(9) 0.830(3)
H33? H 0.1382 0.1225 0.9045
C39? C 0.297(11) -0.002(3) 0.507(6)
H34? H 0.3594 -0.0188 0.5963
H35? H 0.3359 -0.0127 0.4351
H36? H 0.1742 -0.0081 0.4762
O3? O 0.328(6) 0.0513(19) 0.530(4)
loop_
_geom_bond_atom_site_label_1
_geom_bond_atom_site_label_2
_geom_bond_site_symmetry_1
_geom_bond_site_symmetry_2
Br1 C18 1_555 1_555
Br2 C24 1_555 1_555
C1 H1 1_555 1_555
C2 C1 1_555 1_555
H2 C2 1_555 1_555
C3 C2 1_555 1_555
H3 C3 1_555 1_555
C4 C3 1_555 1_555
C5 C1 1_555 1_555
H4 C5 1_555 1_555
C6 C1 1_555 1_555
H5 C6 1_555 1_555
H6 C6 1_555 1_555
H7 C6 1_555 1_555
C7 C2 1_555 1_555
C8 C7 1_555 1_555
H8 C8 1_555 1_555
C9 C8 1_555 1_555
C10 C9 1_555 1_555
H9 C10 1_555 1_555
C11 C10 1_555 1_555
H10 C11 1_555 1_555
C12 C7 1_555 1_555
H11 C12 1_555 1_555
C13 H12 1_555 1_555
H13 C13 1_555 1_555
H14 C13 1_555 1_555
O1 C9 1_555 1_555
C14 C3 1_555 1_555
C15 C14 1_555 1_555
C16 C15 1_555 1_555
H15 C16 1_555 1_555
C17 C16 1_555 1_555
H16 C17 1_555 1_555
C18 C17 1_555 1_555
C19 C18 1_555 1_555
H17 C19 1_555 1_555
C20 C15 1_555 1_555
H18 C20 1_555 1_555
C21 C4 1_555 1_555
C22 C21 1_555 1_555
H19 C22 1_555 1_555
C23 C22 1_555 1_555
H20 C23 1_555 1_555
C24 C23 1_555 1_555
C25 C24 1_555 1_555
H21 C25 1_555 1_555
C26 C21 1_555 1_555
H22 C26 1_555 1_555
O2 C14 1_555 1_555
C4 C5 1_555 1_555
C11 C12 1_555 1_555
C13 O1 1_555 1_555
C19 C20 1_555 1_555
C25 C26 1_555 1_555

#END
