
#######################################################################
#
#                 Cambridge Crystallographic Data Centre
#                                CCDC 
#
#######################################################################
#
# If this CIF has been generated from an entry in the Cambridge 
# Structural Database, then it will include bibliographic, chemical, 
# crystal, experimental, refinement or atomic coordinate data resulting 
# from the CCDC's data processing and validation procedures.
#
#######################################################################

data_RUDBUP
_chemical_formula_moiety         'C18 H23 N4 1+,F6 P1 1-'
_chemical_name_systematic        
'5,5-Dimethyl-1,3-bis(pyridin-2-ylmethyl)-3,4,5,6-tetrahydropyrimidin-1-ium hexafluorophosphate'
_symmetry_cell_setting           orthorhombic
_symmetry_space_group_name_H-M   'P 21 21 21'
_symmetry_Int_Tables_number      19
_space_group_name_Hall           'P 2ac 2ab'
loop_
_symmetry_equiv_pos_site_id
_symmetry_equiv_pos_as_xyz
1 x,y,z
2 1/2-x,-y,1/2+z
3 1/2+x,1/2-y,-z
4 -x,1/2+y,1/2-z
_cell_length_a                   9.6098(2)
_cell_length_b                   11.4528(4)
_cell_length_c                   18.8441(5)
_cell_angle_alpha                90
_cell_angle_beta                 90
_cell_angle_gamma                90
_cell_volume                     2073.97
_cell_formula_units_Z            4
loop_
_atom_site_label
_atom_site_type_symbol
_atom_site_fract_x
_atom_site_fract_y
_atom_site_fract_z
P1 P 0.14032(8) 0.52363(8) 0.36353(4)
F1 F 0.0730(9) 0.4219(6) 0.3149(3)
F2 F 0.0488(7) 0.6186(4) 0.3236(3)
F3 F 0.2606(6) 0.5380(6) 0.3090(3)
F4 F 0.2173(7) 0.4282(4) 0.4085(3)
F5 F 0.2065(11) 0.6254(8) 0.4133(5)
F6 F 0.0141(6) 0.5183(5) 0.4186(3)
N1 N 0.4592(3) 0.5783(2) 0.57403(13)
N2 N 0.4921(2) 0.3829(2) 0.54966(13)
N3 N 0.2145(3) 0.6204(2) 0.6436(2)
N4 N 0.6268(3) 0.3781(2) 0.41947(13)
C1 C 0.4375(2) 0.4847(3) 0.53603(14)
H1 H 0.3794 0.4911 0.4968
C2 C 0.5428(3) 0.5718(3) 0.63881(16)
H2 H 0.4837 0.5512 0.6786
H3 H 0.5841 0.6475 0.6485
C3 C 0.6572(3) 0.4806(3) 0.63027(14)
C4 C 0.5886(3) 0.3664(3) 0.60903(17)
H4 H 0.6597 0.3105 0.5956
H5 H 0.5384 0.3348 0.6493
C5 C 0.7292(4) 0.4640(4) 0.70185(17)
H6 H 0.7805 0.5333 0.7136
H7 H 0.7917 0.3988 0.6992
H8 H 0.6605 0.4495 0.7378
C6 C 0.7622(3) 0.5179(4) 0.57451(17)
H9 H 0.7164 0.5253 0.5294
H10 H 0.8344 0.4603 0.5711
H11 H 0.8020 0.5916 0.5877
C7 C 0.3855(3) 0.6862(3) 0.55749(17)
H12 H 0.3571 0.6844 0.5081
H13 H 0.4488 0.7514 0.5634
C8 C 0.2583(3) 0.7064(2) 0.60333(15)
C9 C 0.1912(4) 0.8126(3) 0.6016(2)
H14 H 0.2258 0.8730 0.5737
C10 C 0.0730(4) 0.8289(3) 0.6413(2)
H15 H 0.0251 0.8994 0.6393
C11 C 0.0273(4) 0.7417(3) 0.6832(3)
H16 H -0.0523 0.7505 0.7107
C12 C 0.1017(5) 0.6394(4) 0.6839(3)
H17 H 0.0722 0.5800 0.7141
C13 C 0.4677(3) 0.2853(3) 0.50153(17)
H18 H 0.3764 0.2938 0.4802
H19 H 0.4682 0.2131 0.5284
C14 C 0.5761(3) 0.2780(2) 0.44338(13)
C15 C 0.6146(3) 0.1712(2) 0.41468(16)
H20 H 0.5799 0.1020 0.4335
C16 C 0.7055(3) 0.1688(3) 0.35757(17)
H21 H 0.7306 0.0983 0.3366
C17 C 0.7572(3) 0.2717(3) 0.33271(15)
H22 H 0.8181 0.2731 0.2944
C18 C 0.7173(4) 0.3736(3) 0.36566(17)
H23 H 0.7555 0.4434 0.3496
F7? F 0.2896(18) 0.4696(12) 0.3713(8)
F8? F 0.1052(18) 0.4600(16) 0.4332(9)
F9? F -0.002(2) 0.5751(11) 0.3632(10)
F10? F 0.1664(18) 0.5635(19) 0.2876(10)
F11? F 0.193(4) 0.630(2) 0.3924(16)
F12? F 0.084(3) 0.4156(19) 0.3372(10)
loop_
_geom_bond_atom_site_label_1
_geom_bond_atom_site_label_2
_geom_bond_site_symmetry_1
_geom_bond_site_symmetry_2
P1 F1 1_555 1_555
F2 P1 1_555 1_555
F3 P1 1_555 1_555
F4 P1 1_555 1_555
F5 P1 1_555 1_555
F6 P1 1_555 1_555
N1 C1 1_555 1_555
N2 C1 1_555 1_555
N3 C8 1_555 1_555
N4 C14 1_555 1_555
C1 H1 1_555 1_555
C2 N1 1_555 1_555
H2 C2 1_555 1_555
H3 C2 1_555 1_555
C3 C2 1_555 1_555
C4 N2 1_555 1_555
H4 C4 1_555 1_555
H5 C4 1_555 1_555
C5 C3 1_555 1_555
H6 C5 1_555 1_555
H7 C5 1_555 1_555
H8 C5 1_555 1_555
C6 C3 1_555 1_555
H9 C6 1_555 1_555
H10 C6 1_555 1_555
H11 C6 1_555 1_555
C7 N1 1_555 1_555
H12 C7 1_555 1_555
H13 C7 1_555 1_555
C8 C7 1_555 1_555
C9 C8 1_555 1_555
H14 C9 1_555 1_555
C10 C9 1_555 1_555
H15 C10 1_555 1_555
C11 C10 1_555 1_555
H16 C11 1_555 1_555
C12 N3 1_555 1_555
H17 C12 1_555 1_555
C13 N2 1_555 1_555
H18 C13 1_555 1_555
H19 C13 1_555 1_555
C14 C13 1_555 1_555
C15 C14 1_555 1_555
H20 C15 1_555 1_555
C16 C15 1_555 1_555
H21 C16 1_555 1_555
C17 C16 1_555 1_555
H22 C17 1_555 1_555
C18 N4 1_555 1_555
H23 C18 1_555 1_555
C3 C4 1_555 1_555
C11 C12 1_555 1_555
C17 C18 1_555 1_555

#END
