
#######################################################################
#
#                 Cambridge Crystallographic Data Centre
#                                CCDC 
#
#######################################################################
#
# If this CIF has been generated from an entry in the Cambridge 
# Structural Database, then it will include bibliographic, chemical, 
# crystal, experimental, refinement or atomic coordinate data resulting 
# from the CCDC's data processing and validation procedures.
#
#######################################################################

data_RUDDEB
_chemical_formula_moiety         'C25 H17 N1 O1'
_chemical_name_systematic        
Phenyl(8-phenylpyrido[2,1-a]isoindol-6-yl)methanone
_symmetry_cell_setting           triclinic
_symmetry_space_group_name_H-M   'P -1'
_symmetry_Int_Tables_number      2
_space_group_name_Hall           '-P 1'
loop_
_symmetry_equiv_pos_site_id
_symmetry_equiv_pos_as_xyz
1 x,y,z
2 -x,-y,-z
_cell_length_a                   8.2167(8)
_cell_length_b                   16.3939(17)
_cell_length_c                   25.795(3)
_cell_angle_alpha                90.00
_cell_angle_beta                 86.989(9)
_cell_angle_gamma                90.00
_cell_volume                     3469.89
_exptl_crystal_colour            yellow
_exptl_crystal_description       block
_cell_formula_units_Z            8
loop_
_atom_site_label
_atom_site_type_symbol
_atom_site_fract_x
_atom_site_fract_y
_atom_site_fract_z
N1 N 0.6133(5) 0.3727(3) 0.23281(17)
O1 O 0.5475(5) 0.5244(2) 0.28083(16)
C1 C 0.6785(6) 0.3968(3) 0.2800(2)
C2 C 0.6511(7) 0.5592(3) 0.3809(2)
H1 H 0.5383 0.5691 0.3775
C3 C 0.8200(6) 0.3090(3) 0.3487(2)
H2 H 0.8324 0.3512 0.3734
C4 C 0.6478(7) 0.2912(3) 0.2231(2)
C5 C 0.7366(6) 0.5099(3) 0.3445(2)
C6 C 0.7321(7) 0.2612(3) 0.2655(2)
C7 C 0.8712(6) 0.2303(3) 0.3590(2)
C8 C 0.7497(6) 0.3259(3) 0.3012(2)
C9 C 0.9349(7) 0.2088(3) 0.4095(2)
C10 C 0.7286(7) 0.5931(3) 0.4212(2)
H3 H 0.6687 0.6252 0.4462
C11 C 0.9031(7) 0.4990(3) 0.3487(2)
H4 H 0.9634 0.4670 0.3237
C12 C 0.6487(7) 0.4768(3) 0.2995(2)
C13 C 0.5261(7) 0.4167(4) 0.1987(2)
H5 H 0.5004 0.4723 0.2057
C14 C 0.5964(8) 0.2552(4) 0.1785(2)
H6 H 0.6207 0.1994 0.1716
C15 C 0.8572(7) 0.1692(3) 0.3210(2)
H7 H 0.8966 0.1160 0.3280
C16 C 0.4768(8) 0.3808(4) 0.1551(2)
H8 H 0.4174 0.4117 0.1313
C17 C 1.0387(7) 0.2610(4) 0.4348(2)
H9 H 1.0656 0.3128 0.4201
C18 C 0.9811(7) 0.5345(4) 0.3891(2)
H10 H 1.0951 0.5271 0.3917
C19 C 0.7896(7) 0.1833(3) 0.2750(2)
H11 H 0.7819 0.1411 0.2500
C20 C 0.8945(7) 0.1349(4) 0.4336(3)
H12 H 0.8209 0.0989 0.4179
C21 C 1.1025(7) 0.2381(4) 0.4808(2)
H13 H 1.1751 0.2738 0.4971
C22 C 0.9595(8) 0.1132(4) 0.4798(3)
H14 H 0.9320 0.0621 0.4952
C23 C 0.8938(8) 0.5808(3) 0.4259(2)
H15 H 0.9471 0.6041 0.4542
C24 C 0.5119(8) 0.2987(5) 0.1444(2)
H16 H 0.4768 0.2739 0.1136
C25 C 1.0632(8) 0.1646(5) 0.5036(3)
H17 H 1.1074 0.1496 0.5356
N2 N 0.2392(5) 0.2137(3) 0.25607(17)
O2 O 0.3714(5) 0.0512(2) 0.25408(15)
C26 C 0.1335(6) 0.3441(3) 0.2315(2)
H18 H 0.1195 0.4010 0.2371
C27 C 0.4452(6) 0.3136(3) 0.4066(2)
C28 C 0.2865(6) 0.3137(3) 0.3143(2)
C29 C 0.3759(6) 0.3858(3) 0.3874(2)
H19 H 0.3820 0.4350 0.4067
C30 C 0.3517(6) 0.2392(3) 0.33268(19)
C31 C 0.4342(6) 0.2420(3) 0.3793(2)
H20 H 0.4825 0.1938 0.3920
C32 C 0.3004(6) 0.3859(3) 0.3415(2)
H21 H 0.2577 0.4351 0.3283
C33 C 0.5356(6) 0.3169(3) 0.4555(2)
C34 C 0.2155(6) 0.2963(3) 0.26647(19)
C35 C 0.4224(7) 0.0531(3) 0.3426(2)
C36 C 0.6099(7) -0.0328(3) 0.3857(2)
H22 H 0.7101 -0.0618 0.3853
C37 C 0.6136(7) 0.3868(3) 0.4699(2)
H23 H 0.6096 0.4337 0.4484
C38 C 0.3198(7) 0.1759(3) 0.2969(2)
C39 C 0.3256(7) 0.0562(3) 0.3877(2)
H24 H 0.2287 0.0880 0.3889
C40 C 0.0739(7) 0.3076(3) 0.1890(2)
H25 H 0.0181 0.3395 0.1649
C41 C 0.3714(7) 0.0929(3) 0.2943(2)
C42 C 0.5651(6) 0.0076(3) 0.3410(2)
H26 H 0.6314 0.0039 0.3098
C43 C 0.3682(8) 0.0133(3) 0.4315(2)
H27 H 0.2990 0.0146 0.4622
C44 C 0.6275(7) 0.2523(3) 0.5324(2)
H28 H 0.6322 0.2054 0.5538
C45 C 0.0933(7) 0.2241(3) 0.1804(2)
H29 H 0.0489 0.1994 0.1510
C46 C 0.1750(7) 0.1784(3) 0.2139(2)
H30 H 0.1879 0.1215 0.2080
C47 C 0.5428(7) 0.2499(3) 0.4873(2)
H31 H 0.4888 0.2011 0.4783
C48 C 0.6976(7) 0.3908(4) 0.5148(2)
H32 H 0.7500 0.4399 0.5240
C49 C 0.7049(7) 0.3231(4) 0.5460(2)
H33 H 0.7631 0.3252 0.5768
C50 C 0.5112(8) -0.0312(3) 0.4304(2)
H34 H 0.5409 -0.0605 0.4602
N3 N 0.8875(6) 0.8725(3) 0.26722(18)
C51 C 0.8226(6) 0.8978(3) 0.2201(2)
C52 C 0.8469(7) 1.0583(3) 0.1190(2)
H35 H 0.9601 1.0677 0.1221
C53 C 0.8523(7) 0.7908(4) 0.2766(2)
C54 C 0.6798(6) 0.8092(3) 0.1515(2)
H36 H 0.6666 0.8513 0.1267
C55 C 0.5644(6) 0.7095(3) 0.0908(2)
C56 C 0.5968(7) 0.9992(3) 0.1517(2)
H37 H 0.5358 0.9680 0.1770
C57 C 0.7505(6) 0.8268(3) 0.1991(2)
C58 C 0.6301(6) 0.7306(3) 0.1412(2)
C59 C 0.7627(7) 1.0093(3) 0.1555(2)
C60 C 0.5203(7) 1.0350(3) 0.1110(2)
H38 H 0.4065 1.0269 0.1083
C61 C 0.7675(7) 0.7620(3) 0.2343(2)
C62 C 0.9750(7) 0.9173(4) 0.3012(2)
H39 H 1.0003 0.9729 0.2944
C63 C 0.7696(7) 1.0930(3) 0.0787(2)
H40 H 0.8300 1.1249 0.0537
C64 C 0.8524(7) 0.9779(3) 0.2001(2)
C65 C 0.6437(7) 0.6682(3) 0.1786(2)
H41 H 0.6042 0.6150 0.1718
C66 C 0.9040(8) 0.7551(4) 0.3215(2)
H42 H 0.8793 0.6994 0.3284
C67 C 0.4603(7) 0.7609(3) 0.0650(2)
H43 H 0.4324 0.8124 0.0798
C68 C 1.0248(8) 0.8802(4) 0.3449(3)
H44 H 1.0853 0.9108 0.3685
C69 C 0.6040(7) 0.6351(4) 0.0673(3)
H45 H 0.6752 0.5989 0.0838
C70 C 0.6037(7) 1.0818(3) 0.0742(2)
H46 H 0.5491 1.1059 0.0464
C71 C 0.3962(8) 0.7383(4) 0.0183(3)
H47 H 0.3255 0.7743 0.0013
C72 C 0.7137(7) 0.6841(4) 0.2246(2)
H48 H 0.7249 0.6421 0.2495
C73 C 0.5426(8) 0.6125(4) 0.0207(3)
H49 H 0.5737 0.5620 0.0051
C74 C 0.9893(8) 0.7985(5) 0.3558(3)
H50 H 1.0241 0.7738 0.3867
C75 C 0.4352(8) 0.6637(4) -0.0034(3)
H51 H 0.3890 0.6473 -0.0348
O3 O 0.9515(5) 1.0249(2) 0.21921(16)
N4 N 0.2610(5) 0.7139(3) 0.24324(17)
O4 O 0.1293(5) 0.5511(2) 0.24614(15)
C76 C 0.1474(6) 0.7398(3) 0.1668(2)
C77 C 0.0531(6) 0.8141(3) 0.0933(2)
C78 C 0.2132(6) 0.8139(3) 0.18609(19)
C79 C 0.0649(6) 0.7419(3) 0.12079(19)
H52 H 0.0166 0.6936 0.1083
C80 C 0.1996(6) 0.8866(3) 0.1583(2)
H53 H 0.2428 0.9359 0.1711
C81 C 0.1793(6) 0.6760(3) 0.20341(19)
C82 C 0.1239(6) 0.8858(3) 0.1127(2)
H54 H 0.1184 0.9349 0.0933
C83 C -0.0342(6) 0.8167(3) 0.04460(19)
C84 C -0.1143(6) 0.8870(3) 0.0303(2)
H55 H -0.1109 0.9339 0.0519
C85 C 0.3676(6) 0.8442(3) 0.2682(2)
H56 H 0.3831 0.9009 0.2620
C86 C 0.1753(7) 0.5563(3) 0.1121(2)
H57 H 0.2727 0.5876 0.1110
C87 C 0.0770(7) 0.5532(3) 0.1573(2)
C88 C 0.2845(6) 0.7962(3) 0.2334(2)
C89 C 0.3240(7) 0.6780(3) 0.2860(2)
H58 H 0.3102 0.6213 0.2922
C90 C 0.4263(7) 0.8081(3) 0.3116(2)
H59 H 0.4804 0.8400 0.3361
C91 C 0.1324(8) 0.5141(3) 0.0689(2)
H60 H 0.2015 0.5158 0.0382
C92 C -0.0641(7) 0.5076(3) 0.1582(2)
H61 H -0.1311 0.5045 0.1893
C93 C -0.1091(8) 0.4664(3) 0.1148(2)
H62 H -0.2077 0.4361 0.1157
C94 C 0.4064(7) 0.7251(3) 0.3193(2)
H63 H 0.4513 0.7003 0.3486
C95 C -0.1285(7) 0.7527(3) -0.0328(2)
H64 H -0.1339 0.7059 -0.0544
C96 C -0.0427(7) 0.7491(3) 0.0123(2)
H65 H 0.0105 0.6999 0.0210
C97 C 0.1296(7) 0.5931(3) 0.2058(2)
C98 C -0.1993(7) 0.8905(4) -0.0147(2)
H66 H -0.2533 0.9394 -0.0236
C99 C -0.2055(7) 0.8233(4) -0.0464(2)
H67 H -0.2626 0.8257 -0.0774
C100 C -0.0092(8) 0.4695(3) 0.0695(2)
H68 H -0.0387 0.4410 0.0394
loop_
_geom_bond_atom_site_label_1
_geom_bond_atom_site_label_2
_geom_bond_site_symmetry_1
_geom_bond_site_symmetry_2
N1 C1 1_555 1_555
O1 C12 1_555 1_555
C1 C8 1_555 1_555
C2 H1 1_555 1_555
C3 H2 1_555 1_555
C4 N1 1_555 1_555
C5 C2 1_555 1_555
C6 C4 1_555 1_555
C7 C3 1_555 1_555
C8 C3 1_555 1_555
C9 C7 1_555 1_555
C10 C2 1_555 1_555
H3 C10 1_555 1_555
C11 C5 1_555 1_555
H4 C11 1_555 1_555
C12 C1 1_555 1_555
C13 N1 1_555 1_555
H5 C13 1_555 1_555
C14 C4 1_555 1_555
H6 C14 1_555 1_555
C15 C7 1_555 1_555
H7 C15 1_555 1_555
C16 C13 1_555 1_555
H8 C16 1_555 1_555
C17 C9 1_555 1_555
H9 C17 1_555 1_555
C18 C11 1_555 1_555
H10 C18 1_555 1_555
C19 C6 1_555 1_555
H11 C19 1_555 1_555
C20 C9 1_555 1_555
H12 C20 1_555 1_555
C21 C17 1_555 1_555
H13 C21 1_555 1_555
C22 C20 1_555 1_555
H14 C22 1_555 1_555
C23 C10 1_555 1_555
H15 C23 1_555 1_555
C24 C14 1_555 1_555
H16 C24 1_555 1_555
C25 C21 1_555 1_555
H17 C25 1_555 1_555
N2 C34 1_555 1_555
O2 C41 1_555 1_555
C26 H18 1_555 1_555
C27 C29 1_555 1_555
C28 C30 1_555 1_555
C29 H19 1_555 1_555
C30 C31 1_555 1_555
C31 C27 1_555 1_555
H20 C31 1_555 1_555
C32 C28 1_555 1_555
H21 C32 1_555 1_555
C33 C27 1_555 1_555
C34 C26 1_555 1_555
C35 C39 1_555 1_555
C36 H22 1_555 1_555
C37 C33 1_555 1_555
H23 C37 1_555 1_555
C38 N2 1_555 1_555
C39 H24 1_555 1_555
C40 C26 1_555 1_555
H25 C40 1_555 1_555
C41 C35 1_555 1_555
C42 C35 1_555 1_555
H26 C42 1_555 1_555
C43 C39 1_555 1_555
H27 C43 1_555 1_555
C44 H28 1_555 1_555
C45 C40 1_555 1_555
H29 C45 1_555 1_555
C46 N2 1_555 1_555
H30 C46 1_555 1_555
C47 C33 1_555 1_555
H31 C47 1_555 1_555
C48 C37 1_555 1_555
H32 C48 1_555 1_555
C49 C44 1_555 1_555
H33 C49 1_555 1_555
C50 C36 1_555 1_555
H34 C50 1_555 1_555
N3 C51 1_555 1_555
C51 C57 1_555 1_555
C52 H35 1_555 1_555
C53 N3 1_555 1_555
C54 H36 1_555 1_555
C55 C58 1_555 1_555
C56 H37 1_555 1_555
C57 C54 1_555 1_555
C58 C54 1_555 1_555
C59 C52 1_555 1_555
C60 C56 1_555 1_555
H38 C60 1_555 1_555
C61 C53 1_555 1_555
C62 N3 1_555 1_555
H39 C62 1_555 1_555
C63 C52 1_555 1_555
H40 C63 1_555 1_555
C64 C51 1_555 1_555
C65 C58 1_555 1_555
H41 C65 1_555 1_555
C66 C53 1_555 1_555
H42 C66 1_555 1_555
C67 C55 1_555 1_555
H43 C67 1_555 1_555
C68 C62 1_555 1_555
H44 C68 1_555 1_555
C69 C55 1_555 1_555
H45 C69 1_555 1_555
C70 C60 1_555 1_555
H46 C70 1_555 1_555
C71 C67 1_555 1_555
H47 C71 1_555 1_555
C72 C61 1_555 1_555
H48 C72 1_555 1_555
C73 C69 1_555 1_555
H49 C73 1_555 1_555
C74 C66 1_555 1_555
H50 C74 1_555 1_555
C75 C71 1_555 1_555
H51 C75 1_555 1_555
O3 C64 1_555 1_555
N4 C81 1_555 1_555
O4 C97 1_555 1_555
C76 C78 1_555 1_555
C77 C79 1_555 1_555
C78 C80 1_555 1_555
C79 C76 1_555 1_555
H52 C79 1_555 1_555
C80 H53 1_555 1_555
C81 C76 1_555 1_555
C82 C77 1_555 1_555
H54 C82 1_555 1_555
C83 C77 1_555 1_555
C84 C83 1_555 1_555
H55 C84 1_555 1_555
C85 H56 1_555 1_555
C86 H57 1_555 1_555
C87 C86 1_555 1_555
C88 N4 1_555 1_555
C89 N4 1_555 1_555
H58 C89 1_555 1_555
C90 C85 1_555 1_555
H59 C90 1_555 1_555
C91 C86 1_555 1_555
H60 C91 1_555 1_555
C92 C87 1_555 1_555
H61 C92 1_555 1_555
C93 C92 1_555 1_555
H62 C93 1_555 1_555
C94 C89 1_555 1_555
H63 C94 1_555 1_555
C95 H64 1_555 1_555
C96 C83 1_555 1_555
H65 C96 1_555 1_555
C97 C81 1_555 1_555
C98 C84 1_555 1_555
H66 C98 1_555 1_555
C99 C95 1_555 1_555
H67 C99 1_555 1_555
C100 C91 1_555 1_555
H68 C100 1_555 1_555
C5 C12 1_555 1_555
C6 C8 1_555 1_555
C15 C19 1_555 1_555
C16 C24 1_555 1_555
C18 C23 1_555 1_555
C22 C25 1_555 1_555
C28 C34 1_555 1_555
C29 C32 1_555 1_555
C30 C38 1_555 1_555
C36 C42 1_555 1_555
C38 C41 1_555 1_555
C43 C50 1_555 1_555
C44 C47 1_555 1_555
C45 C46 1_555 1_555
C48 C49 1_555 1_555
C56 C59 1_555 1_555
C57 C61 1_555 1_555
C59 C64 1_555 1_555
C63 C70 1_555 1_555
C65 C72 1_555 1_555
C68 C74 1_555 1_555
C73 C75 1_555 1_555
C78 C88 1_555 1_555
C80 C82 1_555 1_555
C85 C88 1_555 1_555
C87 C97 1_555 1_555
C90 C94 1_555 1_555
C93 C100 1_555 1_555
C95 C96 1_555 1_555
C98 C99 1_555 1_555

#END
