
#######################################################################
#
#                 Cambridge Crystallographic Data Centre
#                                CCDC 
#
#######################################################################
#
# If this CIF has been generated from an entry in the Cambridge 
# Structural Database, then it will include bibliographic, chemical, 
# crystal, experimental, refinement or atomic coordinate data resulting 
# from the CCDC's data processing and validation procedures.
#
#######################################################################

data_RUDGAA
_chemical_formula_moiety         'C20 H19 F1 O5'
_chemical_name_systematic        
6-(3-Fluorophenoxy)-2-(4-methoxyphenyl)-4,4a,6,8a-tetrahydropyrano[3,2-d][1,3]dioxine
_symmetry_cell_setting           monoclinic
_symmetry_space_group_name_H-M   'P 21'
_symmetry_Int_Tables_number      4
_space_group_name_Hall           'P 2yb'
loop_
_symmetry_equiv_pos_site_id
_symmetry_equiv_pos_as_xyz
1 x,y,z
2 -x,1/2+y,-z
_cell_length_a                   10.5634(6)
_cell_length_b                   4.9622(3)
_cell_length_c                   16.4300(9)
_cell_angle_alpha                90
_cell_angle_beta                 101.876(2)
_cell_angle_gamma                90
_cell_volume                     842.789
_exptl_crystal_colour            colorless
_exptl_crystal_description       block
_cell_formula_units_Z            2
loop_
_atom_site_label
_atom_site_type_symbol
_atom_site_fract_x
_atom_site_fract_y
_atom_site_fract_z
C1 C 0.8241(3) 1.1363(6) 0.51429(18)
H1 H 0.8263 1.264 0.5601
H2 H 0.8161 1.2356 0.4619
H3 H 0.9042 1.0306 0.5244
C2 C 0.7117(2) 0.8067(5) 0.57831(16)
C3 C 0.6023(2) 0.6456(6) 0.57264(16)
H4 H 0.5369 0.646 0.5234
C4 C 0.5898(2) 0.4848(6) 0.63936(16)
H5 H 0.5154 0.3742 0.6355
C5 C 0.6844(2) 0.4827(5) 0.71199(15)
C6 C 0.7933(2) 0.6442(6) 0.71641(16)
H6 H 0.8587 0.6445 0.7657
C7 C 0.8075(2) 0.8047(6) 0.64980(16)
H7 H 0.8826 0.9128 0.6532
C8 C 0.6618(2) 0.3259(5) 0.78573(15)
H8 H 0.6039 0.1693 0.7663
C9 C 0.5717(2) 0.3872(6) 0.90672(16)
H9 H 0.5091 0.2374 0.8925
H10 H 0.5342 0.5235 0.9389
C10 C 0.6986(2) 0.2835(5) 0.95708(15)
H11 H 0.7599 0.4372 0.9729
C11 C 0.7543(2) 0.0858(5) 0.90373(16)
H12 H 0.6888 -0.0576 0.8836
C12 C 0.8734(2) -0.0413(5) 0.95380(15)
H13 H 0.9371 -0.1147 0.9269
C13 C 0.8899(2) -0.0509(5) 1.03595(16)
H14 H 0.9653 -0.1355 1.0668
C14 C 0.7940(2) 0.0664(5) 1.08228(16)
H15 H 0.7741 -0.0712 1.1223
C15 C 0.8147(2) 0.3924(6) 1.19422(15)
C16 C 0.8926(3) 0.5904(6) 1.23861(16)
H16 H 0.9708 0.6449 1.2234
C17 C 0.8529(3) 0.7052(6) 1.30530(17)
C18 C 0.7413(3) 0.6312(7) 1.33106(18)
H17 H 0.7173 0.713 1.3779
C19 C 0.6663(3) 0.4333(6) 1.28580(16)
H18 H 0.5894 0.377 1.3024
C20 C 0.6998(2) 0.3137(6) 1.21645(16)
H19 H 0.6456 0.1815 1.1851
O1 O 0.71597(18) 0.9596(4) 0.50920(11)
O2 O 0.59892(17) 0.5054(4) 0.83245(11)
O3 O 0.78079(16) 0.2314(4) 0.83363(11)
O4 O 0.67746(15) 0.1506(4) 1.03055(11)
O5 O 0.86103(17) 0.2874(4) 1.12822(11)
F1 F 0.92772(17) 0.8978(4) 1.34896(11)
loop_
_geom_bond_atom_site_label_1
_geom_bond_atom_site_label_2
_geom_bond_site_symmetry_1
_geom_bond_site_symmetry_2
C1 H1 1_555 1_555
H2 C1 1_555 1_555
H3 C1 1_555 1_555
C2 C3 1_555 1_555
C3 H4 1_555 1_555
C4 C3 1_555 1_555
H5 C4 1_555 1_555
C5 C4 1_555 1_555
C6 C5 1_555 1_555
H6 C6 1_555 1_555
C7 C2 1_555 1_555
H7 C7 1_555 1_555
C8 C5 1_555 1_555
H8 C8 1_555 1_555
C9 H9 1_555 1_555
H10 C9 1_555 1_555
C10 C9 1_555 1_555
H11 C10 1_555 1_555
C11 C10 1_555 1_555
H12 C11 1_555 1_555
C12 C11 1_555 1_555
H13 C12 1_555 1_555
C13 C12 1_555 1_555
H14 C13 1_555 1_555
C14 C13 1_555 1_555
H15 C14 1_555 1_555
C15 C16 1_555 1_555
C16 H16 1_555 1_555
C17 C16 1_555 1_555
C18 C17 1_555 1_555
H17 C18 1_555 1_555
C19 C18 1_555 1_555
H18 C19 1_555 1_555
C20 C15 1_555 1_555
H19 C20 1_555 1_555
O1 C1 1_555 1_555
O2 C8 1_555 1_555
O3 C8 1_555 1_555
O4 C10 1_555 1_555
O5 C14 1_555 1_555
F1 C17 1_555 1_555
C2 O1 1_555 1_555
C6 C7 1_555 1_555
C9 O2 1_555 1_555
C11 O3 1_555 1_555
C14 O4 1_555 1_555
C15 O5 1_555 1_555
C19 C20 1_555 1_555

#END
