
#######################################################################
#
#                 Cambridge Crystallographic Data Centre
#                                CCDC 
#
#######################################################################
#
# If this CIF has been generated from an entry in the Cambridge 
# Structural Database, then it will include bibliographic, chemical, 
# crystal, experimental, refinement or atomic coordinate data resulting 
# from the CCDC's data processing and validation procedures.
#
#######################################################################

data_RUDSIU
_chemical_formula_moiety         'C23 H17 N1 O2'
_chemical_name_systematic        '3-phenylisoquinolin-4-yl 4-methylbenzoate'
_symmetry_cell_setting           monoclinic
_symmetry_space_group_name_H-M   'P 21/c'
_symmetry_Int_Tables_number      14
_space_group_name_Hall           '-P 2ybc'
loop_
_symmetry_equiv_pos_site_id
_symmetry_equiv_pos_as_xyz
1 x,y,z
2 -x,1/2+y,1/2-z
3 -x,-y,-z
4 x,1/2-y,1/2+z
_cell_length_a                   10.052(4)
_cell_length_b                   14.694(6)
_cell_length_c                   12.103(5)
_cell_angle_alpha                90
_cell_angle_beta                 95.947(6)
_cell_angle_gamma                90
_cell_volume                     1778.04
_exptl_crystal_colour            orange
_exptl_crystal_description       block
_cell_formula_units_Z            4
loop_
_atom_site_label
_atom_site_type_symbol
_atom_site_fract_x
_atom_site_fract_y
_atom_site_fract_z
N1 N 0.42172(18) 0.31950(11) 0.32263(16)
O1 O 0.20341(17) 0.05427(12) 0.26005(15)
O2 O 0.36211(15) 0.10966(9) 0.16252(12)
C1 C 0.3660(2) 0.25810(14) 0.24554(18)
C2 C 0.4086(2) 0.16899(13) 0.24853(19)
C3 C 0.5041(2) 0.13651(14) 0.33140(19)
C4 C 0.5456(2) 0.04467(15) 0.3426(2)
H1 H 0.5121 0.0017 0.2907
C5 C 0.6344(3) 0.01936(18) 0.4294(3)
H2 H 0.6608 -0.0412 0.4362
C6 C 0.6872(2) 0.0823(2) 0.5086(3)
H3 H 0.7469 0.0633 0.5679
C7 C 0.6514(2) 0.17068(19) 0.4990(2)
H4 H 0.6887 0.2127 0.5508
C8 C 0.5581(2) 0.19996(15) 0.4114(2)
C9 C 0.5137(2) 0.29056(16) 0.3985(2)
H5 H 0.5533 0.3333 0.4481
C10 C 0.2575(2) 0.29533(13) 0.16599(18)
C11 C 0.1678(2) 0.35592(15) 0.2050(2)
H6 H 0.1741 0.3700 0.2803
C12 C 0.0688(3) 0.39573(16) 0.1328(2)
H7 H 0.0090 0.4364 0.1597
C13 C 0.0589(3) 0.37524(17) 0.0217(2)
H8 H -0.0078 0.4019 -0.0267
C14 C 0.1469(3) 0.31573(16) -0.0180(2)
H9 H 0.1408 0.3025 -0.0935
C15 C 0.2447(2) 0.27528(15) 0.0540(2)
H10 H 0.3029 0.2338 0.0267
C16 C 0.2581(2) 0.05354(14) 0.1773(2)
C17 C 0.2256(2) -0.00507(13) 0.07902(18)
C18 C 0.2846(3) 0.00462(15) -0.0168(2)
H11 H 0.3508 0.0484 -0.0207
C19 C 0.2478(3) -0.04923(16) -0.1075(2)
H12 H 0.2886 -0.0406 -0.1722
C20 C 0.1527(3) -0.11504(16) -0.1045(2)
C21 C 0.0943(3) -0.12559(18) -0.0087(3)
H13 H 0.0294 -0.1702 -0.0049
C22 C 0.1294(3) -0.07147(18) 0.0829(2)
H14 H 0.0880 -0.0798 0.1475
C23 C 0.1131(4) -0.1727(2) -0.2061(3)
H15 H 0.0940 -0.2335 -0.1835
H16 H 0.1851 -0.1739 -0.2523
H17 H 0.0349 -0.1472 -0.2470
loop_
_geom_bond_atom_site_label_1
_geom_bond_atom_site_label_2
_geom_bond_site_symmetry_1
_geom_bond_site_symmetry_2
N1 C1 1_555 1_555
O1 C16 1_555 1_555
O2 C2 1_555 1_555
C1 C2 1_555 1_555
C2 C3 1_555 1_555
C3 C4 1_555 1_555
C4 H1 1_555 1_555
C5 C4 1_555 1_555
H2 C5 1_555 1_555
C6 C5 1_555 1_555
H3 C6 1_555 1_555
C7 C6 1_555 1_555
H4 C7 1_555 1_555
C8 C3 1_555 1_555
C9 N1 1_555 1_555
H5 C9 1_555 1_555
C10 C1 1_555 1_555
C11 C10 1_555 1_555
H6 C11 1_555 1_555
C12 C11 1_555 1_555
H7 C12 1_555 1_555
C13 C12 1_555 1_555
H8 C13 1_555 1_555
C14 C13 1_555 1_555
H9 C14 1_555 1_555
C15 C10 1_555 1_555
H10 C15 1_555 1_555
C16 O2 1_555 1_555
C17 C16 1_555 1_555
C18 C17 1_555 1_555
H11 C18 1_555 1_555
C19 C18 1_555 1_555
H12 C19 1_555 1_555
C20 C19 1_555 1_555
C21 C20 1_555 1_555
H13 C21 1_555 1_555
C22 C17 1_555 1_555
H14 C22 1_555 1_555
C23 C20 1_555 1_555
H15 C23 1_555 1_555
H16 C23 1_555 1_555
H17 C23 1_555 1_555
C7 C8 1_555 1_555
C8 C9 1_555 1_555
C14 C15 1_555 1_555
C21 C22 1_555 1_555

#END
