
#######################################################################
#
#                 Cambridge Crystallographic Data Centre
#                                CCDC 
#
#######################################################################
#
# If this CIF has been generated from an entry in the Cambridge 
# Structural Database, then it will include bibliographic, chemical, 
# crystal, experimental, refinement or atomic coordinate data resulting 
# from the CCDC's data processing and validation procedures.
#
#######################################################################

data_RUFBOK
_chemical_name_common            
(Z)-3-(9-Anthryl)-2-(4-nitro-1H-imidazol-1-yl)-1-p-tolylprop-2-en-1-one
_chemical_formula_moiety         'C27 H19 N3 O3'
_chemical_name_systematic        
3-(9-Anthryl)-1-(4-methylphenyl)-2-(4-nitro-1H-imidazol-1-yl)prop-2-en-1-one
_symmetry_cell_setting           triclinic
_symmetry_space_group_name_H-M   'P -1'
_symmetry_Int_Tables_number      2
_space_group_name_Hall           '-P 1'
loop_
_symmetry_equiv_pos_site_id
_symmetry_equiv_pos_as_xyz
1 x,y,z
2 -x,-y,-z
_cell_length_a                   7.9335(9)
_cell_length_b                   11.2626(13)
_cell_length_c                   13.0291(15)
_cell_angle_alpha                75.454(2)
_cell_angle_beta                 85.763(2)
_cell_angle_gamma                71.059(2)
_cell_volume                     1065.81
_exptl_crystal_colour            yellow
_exptl_crystal_description       plate
_cell_formula_units_Z            2
_exptl_crystal_recrystallization_method chloroform
loop_
_atom_site_label
_atom_site_type_symbol
_atom_site_fract_x
_atom_site_fract_y
_atom_site_fract_z
C1 C 0.8022(2) 0.80103(14) 0.10371(11)
C2 C 0.9235(2) 0.68461(16) 0.09495(12)
H1 H 1.0443 0.6760 0.0895
C3 C 0.86855(18) 0.58070(13) 0.09409(10)
H2 H 0.9521 0.5032 0.0871
C4 C 0.68960(16) 0.59098(11) 0.10360(9)
C5 C 0.56700(18) 0.70796(12) 0.11149(10)
H3 H 0.4464 0.7164 0.1176
C6 C 0.6231(2) 0.81227(13) 0.11031(11)
H4 H 0.5394 0.8911 0.1140
C7 C 0.8646(3) 0.91345(19) 0.10604(18)
H5 H 0.9884 0.8938 0.0878
H6 H 0.8486 0.9288 0.1759
H7 H 0.7964 0.9893 0.0559
C8 C 0.63944(15) 0.47439(11) 0.10306(9)
C9 C 0.53578(15) 0.42485(10) 0.19465(9)
C10 C 0.51789(15) 0.46279(11) 0.28466(9)
H8 H 0.5567 0.5329 0.2825
C11 C 0.55904(19) 0.21206(12) 0.15682(10)
H9 H 0.6800 0.1879 0.1413
C12 C 0.29544(19) 0.21363(13) 0.18201(9)
C13 C 0.29627(17) 0.32641(12) 0.20011(9)
H10 H 0.2010 0.3902 0.2198
C14 C 0.44576(16) 0.41062(12) 0.38765(9)
C15 C 0.31154(16) 0.49758(13) 0.43426(9)
C16 C 0.23060(19) 0.62857(14) 0.38169(12)
H11 H 0.2649 0.6593 0.3130
C17 C 0.1035(2) 0.71059(18) 0.42967(15)
H12 H 0.0528 0.7965 0.3936
C18 C 0.0482(2) 0.6666(2) 0.53315(16)
H13 H -0.0377 0.7238 0.5655
C19 C 0.1187(2) 0.5429(2) 0.58552(13)
H14 H 0.0799 0.5152 0.6538
C20 C 0.25212(18) 0.45250(17) 0.53893(10)
C21 C 0.3253(2) 0.32471(18) 0.59118(10)
H15 H 0.2843 0.2958 0.6585
C22 C 0.4581(2) 0.23721(15) 0.54715(10)
C23 C 0.5358(3) 0.10705(19) 0.60296(13)
H16 H 0.4934 0.0776 0.6698
C24 C 0.6697(3) 0.02531(18) 0.56107(15)
H17 H 0.7168 -0.0604 0.5983
C25 C 0.7395(3) 0.06850(16) 0.46106(13)
H18 H 0.8346 0.0116 0.4339
C26 C 0.6691(2) 0.19203(13) 0.40416(11)
H19 H 0.7175 0.2190 0.3386
C27 C 0.52314(18) 0.28088(13) 0.44281(9)
N1 N 0.46726(13) 0.32578(9) 0.18306(7)
N2 N 0.45809(17) 0.14128(11) 0.15594(9)
N3 N 0.1423(2) 0.17060(15) 0.18753(10)
O1 O 0.69016(12) 0.41643(9) 0.03388(7)
O2 O 0.1606(2) 0.06711(14) 0.16772(11)
O3 O 0.00028(18) 0.24220(15) 0.21342(12)
loop_
_geom_bond_atom_site_label_1
_geom_bond_atom_site_label_2
_geom_bond_site_symmetry_1
_geom_bond_site_symmetry_2
C1 C2 1_555 1_555
C2 H1 1_555 1_555
C3 C2 1_555 1_555
H2 C3 1_555 1_555
C4 C3 1_555 1_555
C5 C4 1_555 1_555
H3 C5 1_555 1_555
C6 C1 1_555 1_555
H4 C6 1_555 1_555
C7 C1 1_555 1_555
H5 C7 1_555 1_555
H6 C7 1_555 1_555
H7 C7 1_555 1_555
C8 C4 1_555 1_555
C9 C8 1_555 1_555
C10 C9 1_555 1_555
H8 C10 1_555 1_555
C11 H9 1_555 1_555
C12 C13 1_555 1_555
C13 H10 1_555 1_555
C14 C10 1_555 1_555
C15 C14 1_555 1_555
C16 C15 1_555 1_555
H11 C16 1_555 1_555
C17 C16 1_555 1_555
H12 C17 1_555 1_555
C18 C17 1_555 1_555
H13 C18 1_555 1_555
C19 C18 1_555 1_555
H14 C19 1_555 1_555
C20 C15 1_555 1_555
C21 C20 1_555 1_555
H15 C21 1_555 1_555
C22 C21 1_555 1_555
C23 C22 1_555 1_555
H16 C23 1_555 1_555
C24 C23 1_555 1_555
H17 C24 1_555 1_555
C25 C24 1_555 1_555
H18 C25 1_555 1_555
C26 C25 1_555 1_555
H19 C26 1_555 1_555
C27 C14 1_555 1_555
N1 C9 1_555 1_555
N2 C11 1_555 1_555
N3 C12 1_555 1_555
O1 C8 1_555 1_555
O2 N3 1_555 1_555
O3 N3 1_555 1_555
C5 C6 1_555 1_555
C11 N1 1_555 1_555
C12 N2 1_555 1_555
C13 N1 1_555 1_555
C19 C20 1_555 1_555
C22 C27 1_555 1_555
C26 C27 1_555 1_555

#END
