
#######################################################################
#
#                 Cambridge Crystallographic Data Centre
#                                CCDC 
#
#######################################################################
#
# If this CIF has been generated from an entry in the Cambridge 
# Structural Database, then it will include bibliographic, chemical, 
# crystal, experimental, refinement or atomic coordinate data resulting 
# from the CCDC's data processing and validation procedures.
#
#######################################################################

data_RUFCIG
_chemical_formula_moiety         'C30 H35 N4 1+,C24 H20 B1 1-'
_chemical_name_systematic        
'1,3-Dimesityl-2-(mesityldiazenyl)-1H-imidazol-3-ium tetraphenylborate'
_symmetry_cell_setting           monoclinic
_symmetry_space_group_name_H-M   'P 21'
_symmetry_Int_Tables_number      4
_space_group_name_Hall           'P 2yb'
loop_
_symmetry_equiv_pos_site_id
_symmetry_equiv_pos_as_xyz
1 x,y,z
2 -x,1/2+y,-z
_cell_length_a                   9.7664(13)
_cell_length_b                   19.817(3)
_cell_length_c                   11.6471(3)
_cell_angle_alpha                90
_cell_angle_beta                 98.411(7)
_cell_angle_gamma                90
_cell_volume                     2229.94
_exptl_crystal_colour            red
_exptl_crystal_description       prism
_cell_formula_units_Z            2
loop_
_atom_site_label
_atom_site_type_symbol
_atom_site_fract_x
_atom_site_fract_y
_atom_site_fract_z
N1 N 0.21635(15) 0.55342(7) 0.39617(12)
N2 N 0.29081(14) 0.60499(7) 0.42207(12)
N3 N 0.03585(14) 0.48653(7) 0.44262(11)
N4 N 0.08176(14) 0.57011(7) 0.56392(11)
C1 C 0.11972(16) 0.53983(8) 0.46917(13)
C2 C -0.05797(17) 0.48282(9) 0.52017(14)
H1 H -0.1291 0.4501 0.5206
C3 C -0.02929(17) 0.53474(8) 0.59578(14)
H2 H -0.0768 0.5450 0.6592
C4 C 0.04987(17) 0.43863(8) 0.35024(14)
C5 C -0.03141(18) 0.44707(8) 0.24231(15)
C6 C -0.01603(18) 0.39939(9) 0.15681(14)
H3 H -0.0711 0.4032 0.0828
C7 C 0.07812(18) 0.34630(9) 0.17739(15)
C8 C 0.15978(18) 0.34188(9) 0.28562(15)
H4 H 0.2261 0.3066 0.2990
C9 C 0.14780(17) 0.38720(8) 0.37497(14)
C10 C -0.1309(2) 0.50558(9) 0.21711(16)
H5 H -0.2145 0.4968 0.2521
H6 H -0.1559 0.5107 0.1330
H7 H -0.0866 0.5471 0.2499
C11 C 0.0882(2) 0.29362(10) 0.08491(16)
H8 H 0.1856 0.2823 0.0835
H9 H 0.0475 0.3114 0.0090
H10 H 0.0379 0.2530 0.1023
C12 C 0.23716(18) 0.38189(9) 0.49160(14)
H11 H 0.2853 0.3384 0.4975
H12 H 0.1790 0.3853 0.5532
H13 H 0.3053 0.4185 0.5000
C13 C 0.15005(18) 0.62577(8) 0.63077(14)
C14 C 0.26619(18) 0.61094(9) 0.71127(15)
C15 C 0.3266(2) 0.66427(10) 0.77829(16)
H14 H 0.4060 0.6559 0.8339
C16 C 0.2739(2) 0.72948(10) 0.76610(17)
C17 C 0.1576(2) 0.74127(9) 0.68477(17)
H15 H 0.1220 0.7859 0.6755
C18 C 0.0915(2) 0.68989(9) 0.61644(15)
C19 C 0.32482(19) 0.54021(9) 0.72365(17)
H16 H 0.2493 0.5078 0.7255
H17 H 0.3900 0.5369 0.7958
H18 H 0.3731 0.5301 0.6576
C20 C 0.3418(3) 0.78667(12) 0.84036(19)
H19 H 0.4159 0.7686 0.8979
H20 H 0.2725 0.8090 0.8802
H21 H 0.3807 0.8194 0.7909
C21 C -0.0365(2) 0.70251(11) 0.53043(18)
H22 H -0.0251 0.6824 0.4555
H23 H -0.0513 0.7512 0.5209
H24 H -0.1166 0.6821 0.5588
C22 C 0.38221(17) 0.61991(8) 0.34227(14)
C23 C 0.48362(18) 0.66859(8) 0.38404(15)
C24 C 0.57707(18) 0.68913(9) 0.31166(15)
H25 H 0.6450 0.7220 0.3388
C25 C 0.57359(18) 0.66274(9) 0.20019(16)
C26 C 0.47465(17) 0.61367(9) 0.16226(15)
H26 H 0.4737 0.5947 0.0872
C27 C 0.37758(17) 0.59140(8) 0.22972(14)
C28 C 0.4943(2) 0.69544(9) 0.50654(16)
H27 H 0.5331 0.6605 0.5614
H28 H 0.4020 0.7081 0.5228
H29 H 0.5547 0.7352 0.5149
C29 C 0.6723(2) 0.68663(11) 0.12019(18)
H30 H 0.6771 0.6529 0.0595
H31 H 0.7645 0.6930 0.1648
H32 H 0.6392 0.7295 0.0845
C30 C 0.27134(18) 0.54115(9) 0.17575(14)
H33 H 0.2821 0.5341 0.0943
H34 H 0.1783 0.5585 0.1803
H35 H 0.2846 0.4982 0.2176
B1 B 0.71004(18) 0.40984(9) 0.77483(15)
C31 C 0.80990(17) 0.47414(8) 0.82532(13)
C32 C 0.75374(18) 0.53927(9) 0.83317(15)
H39 H 0.6565 0.5448 0.8141
C33 C 0.8339(2) 0.59580(9) 0.86755(16)
H40 H 0.7912 0.6387 0.8699
C34 C 0.9763(2) 0.58960(9) 0.89846(15)
H41 H 1.0320 0.6281 0.9207
C35 C 1.03495(19) 0.52629(9) 0.89617(15)
H42 H 1.1318 0.5210 0.9187
C36 C 0.95355(18) 0.46983(9) 0.86106(14)
H43 H 0.9970 0.4269 0.8614
C37 C 0.79325(16) 0.33761(8) 0.79613(13)
C38 C 0.91180(18) 0.32328(9) 0.74350(14)
H44 H 0.9449 0.3568 0.6961
C39 C 0.98179(19) 0.26201(9) 0.75857(15)
H45 H 1.0615 0.2546 0.7223
C40 C 0.93557(19) 0.21147(9) 0.82662(16)
H46 H 0.9833 0.1697 0.8375
C41 C 0.81890(19) 0.22329(8) 0.87804(16)
H47 H 0.7854 0.1892 0.9240
C42 C 0.75003(18) 0.28510(8) 0.86284(14)
H48 H 0.6703 0.2918 0.8994
C43 C 0.57190(16) 0.40784(8) 0.83992(13)
C44 C 0.57439(17) 0.42993(9) 0.95492(14)
H49 H 0.6580 0.4483 0.9947
C45 C 0.45998(18) 0.42617(10) 1.01322(15)
H50 H 0.4668 0.4415 1.0911
C46 C 0.33631(18) 0.40012(9) 0.95791(16)
H51 H 0.2573 0.3981 0.9967
C47 C 0.32951(18) 0.37693(9) 0.84479(16)
H52 H 0.2456 0.3584 0.8060
C48 C 0.44523(17) 0.38069(8) 0.78779(15)
H53 H 0.4380 0.3642 0.7105
C49 C 0.66152(15) 0.41882(8) 0.63267(13)
C50 C 0.64786(18) 0.36288(9) 0.55779(14)
H54 H 0.6674 0.3192 0.5898
C51 C 0.6069(2) 0.36872(10) 0.43848(15)
H55 H 0.5989 0.3294 0.3914
C52 C 0.57773(19) 0.43132(10) 0.38773(15)
H56 H 0.5513 0.4355 0.3062
C53 C 0.58806(18) 0.48765(10) 0.45866(15)
H57 H 0.5677 0.5310 0.4257
C54 C 0.62805(17) 0.48135(9) 0.57798(14)
H58 H 0.6330 0.5209 0.6245
H36? H 0.2969 0.8294 0.8147
H37? H 0.4402 0.7889 0.8325
H38? H 0.3320 0.7786 0.9218
loop_
_geom_bond_atom_site_label_1
_geom_bond_atom_site_label_2
_geom_bond_site_symmetry_1
_geom_bond_site_symmetry_2
N1 N2 1_555 1_555
N2 C22 1_555 1_555
N3 C1 1_555 1_555
N4 C1 1_555 1_555
C1 N1 1_555 1_555
C2 N3 1_555 1_555
H1 C2 1_555 1_555
C3 N4 1_555 1_555
H2 C3 1_555 1_555
C4 N3 1_555 1_555
C5 C4 1_555 1_555
C6 C5 1_555 1_555
H3 C6 1_555 1_555
C7 C6 1_555 1_555
C8 C7 1_555 1_555
H4 C8 1_555 1_555
C9 C4 1_555 1_555
C10 C5 1_555 1_555
H5 C10 1_555 1_555
H6 C10 1_555 1_555
H7 C10 1_555 1_555
C11 C7 1_555 1_555
H8 C11 1_555 1_555
H9 C11 1_555 1_555
H10 C11 1_555 1_555
C12 C9 1_555 1_555
H11 C12 1_555 1_555
H12 C12 1_555 1_555
H13 C12 1_555 1_555
C13 N4 1_555 1_555
C14 C13 1_555 1_555
C15 C14 1_555 1_555
H14 C15 1_555 1_555
C16 C15 1_555 1_555
C17 C16 1_555 1_555
H15 C17 1_555 1_555
C18 C13 1_555 1_555
C19 C14 1_555 1_555
H16 C19 1_555 1_555
H17 C19 1_555 1_555
H18 C19 1_555 1_555
C20 C16 1_555 1_555
H19 C20 1_555 1_555
H20 C20 1_555 1_555
H21 C20 1_555 1_555
C21 C18 1_555 1_555
H22 C21 1_555 1_555
H23 C21 1_555 1_555
H24 C21 1_555 1_555
C22 C23 1_555 1_555
C23 C24 1_555 1_555
C24 H25 1_555 1_555
C25 C24 1_555 1_555
C26 C25 1_555 1_555
H26 C26 1_555 1_555
C27 C22 1_555 1_555
C28 C23 1_555 1_555
H27 C28 1_555 1_555
H28 C28 1_555 1_555
H29 C28 1_555 1_555
C29 C25 1_555 1_555
H30 C29 1_555 1_555
H31 C29 1_555 1_555
H32 C29 1_555 1_555
C30 C27 1_555 1_555
H33 C30 1_555 1_555
H34 C30 1_555 1_555
H35 C30 1_555 1_555
B1 C31 1_555 1_555
C31 C32 1_555 1_555
C32 H39 1_555 1_555
C33 C32 1_555 1_555
H40 C33 1_555 1_555
C34 C33 1_555 1_555
H41 C34 1_555 1_555
C35 C34 1_555 1_555
H42 C35 1_555 1_555
C36 C31 1_555 1_555
H43 C36 1_555 1_555
C37 B1 1_555 1_555
C38 C37 1_555 1_555
H44 C38 1_555 1_555
C39 C38 1_555 1_555
H45 C39 1_555 1_555
C40 C39 1_555 1_555
H46 C40 1_555 1_555
C41 C40 1_555 1_555
H47 C41 1_555 1_555
C42 C37 1_555 1_555
H48 C42 1_555 1_555
C43 B1 1_555 1_555
C44 C43 1_555 1_555
H49 C44 1_555 1_555
C45 C44 1_555 1_555
H50 C45 1_555 1_555
C46 C45 1_555 1_555
H51 C46 1_555 1_555
C47 C46 1_555 1_555
H52 C47 1_555 1_555
C48 C43 1_555 1_555
H53 C48 1_555 1_555
C49 B1 1_555 1_555
C50 C49 1_555 1_555
H54 C50 1_555 1_555
C51 C50 1_555 1_555
H55 C51 1_555 1_555
C52 C51 1_555 1_555
H56 C52 1_555 1_555
C53 C52 1_555 1_555
H57 C53 1_555 1_555
C54 C49 1_555 1_555
H58 C54 1_555 1_555
C2 C3 1_555 1_555
C8 C9 1_555 1_555
C17 C18 1_555 1_555
C26 C27 1_555 1_555
C35 C36 1_555 1_555
C41 C42 1_555 1_555
C47 C48 1_555 1_555
C53 C54 1_555 1_555

#END
