
#######################################################################
#
#                 Cambridge Crystallographic Data Centre
#                                CCDC 
#
#######################################################################
#
# If this CIF has been generated from an entry in the Cambridge 
# Structural Database, then it will include bibliographic, chemical, 
# crystal, experimental, refinement or atomic coordinate data resulting 
# from the CCDC's data processing and validation procedures.
#
#######################################################################

data_RUFCOL
_chemical_formula_moiety         'C23 H17 N3'
_chemical_name_systematic        
2-(1-(9-Anthrylmethyl)-1H-pyrazol-3-yl)pyridine
_symmetry_cell_setting           monoclinic
_symmetry_space_group_name_H-M   'P 21/c'
_symmetry_Int_Tables_number      14
_space_group_name_Hall           '-P 2ybc'
loop_
_symmetry_equiv_pos_site_id
_symmetry_equiv_pos_as_xyz
1 x,y,z
2 -x,1/2+y,1/2-z
3 -x,-y,-z
4 x,1/2-y,1/2+z
_cell_length_a                   13.736(3)
_cell_length_b                   13.679(3)
_cell_length_c                   8.913(2)
_cell_angle_alpha                90
_cell_angle_beta                 98.496(3)
_cell_angle_gamma                90
_cell_volume                     1656.33
_exptl_crystal_colour            yellow
_exptl_crystal_description       prism
_cell_formula_units_Z            4
_exptl_crystal_recrystallization_method 'dichloromethane/petroleum ether'
loop_
_atom_site_label
_atom_site_type_symbol
_atom_site_fract_x
_atom_site_fract_y
_atom_site_fract_z
N1 N 0.25794(8) 0.55924(8) 0.72942(13)
N2 N 0.22498(8) 0.64246(8) 0.78636(13)
N3 N 0.02717(8) 0.65643(9) 1.01184(13)
C1 C 0.46616(10) 0.43366(9) 0.66749(15)
C2 C 0.51916(10) 0.47480(11) 0.80358(16)
H1 H 0.4936 0.5309 0.8469
C3 C 0.60559(11) 0.43505(11) 0.87224(17)
H2 H 0.6392 0.4640 0.9621
C4 C 0.64588(11) 0.35107(11) 0.81111(17)
H3 H 0.7064 0.3245 0.8595
C5 C 0.59810(10) 0.30887(11) 0.68378(16)
H4 H 0.6256 0.2526 0.6437
C6 C 0.50709(10) 0.34731(10) 0.60844(15)
C7 C 0.45791(10) 0.30295(10) 0.47849(16)
H5 H 0.4848 0.2453 0.4414
C8 C 0.37068(10) 0.34050(10) 0.40140(15)
C9 C 0.32166(11) 0.29600(11) 0.26587(17)
H6 H 0.3473 0.2373 0.2304
C10 C 0.23940(12) 0.33579(13) 0.18707(18)
H7 H 0.2084 0.3053 0.0967
C11 C 0.19940(11) 0.42289(12) 0.23918(17)
H8 H 0.1421 0.4510 0.1828
C12 C 0.24260(10) 0.46640(11) 0.36920(16)
H9 H 0.2138 0.5238 0.4034
C13 C 0.33022(10) 0.42817(10) 0.45598(15)
C14 C 0.37813(10) 0.47367(10) 0.58909(15)
C15 C 0.33882(10) 0.56910(10) 0.63969(17)
H10 H 0.3934 0.6050 0.7008
H11 H 0.3157 0.6090 0.5488
C16 C 0.20496(10) 0.48050(10) 0.76085(16)
H12 H 0.2146 0.4149 0.7314
C17 C 0.13437(10) 0.51320(10) 0.84353(16)
H13 H 0.0859 0.4755 0.8832
C18 C 0.14980(9) 0.61436(10) 0.85633(14)
C19 C 0.09372(9) 0.68884(10) 0.92693(15)
C20 C 0.10796(10) 0.78813(11) 0.90066(17)
H14 H 0.1565 0.8087 0.8419
C21 C 0.05025(11) 0.85594(11) 0.96156(18)
H15 H 0.0578 0.9238 0.9439
C22 C -0.01841(10) 0.82348(11) 1.04831(17)
H16 H -0.0592 0.8684 1.0914
C23 C -0.02639(10) 0.72459(11) 1.07094(17)
H17 H -0.0730 0.7030 1.1326
loop_
_geom_bond_atom_site_label_1
_geom_bond_atom_site_label_2
_geom_bond_site_symmetry_1
_geom_bond_site_symmetry_2
N1 N2 1_555 1_555
N2 C18 1_555 1_555
N3 C19 1_555 1_555
C1 C2 1_555 1_555
C2 H1 1_555 1_555
C3 C2 1_555 1_555
H2 C3 1_555 1_555
C4 C3 1_555 1_555
H3 C4 1_555 1_555
C5 C4 1_555 1_555
H4 C5 1_555 1_555
C6 C1 1_555 1_555
C7 C6 1_555 1_555
H5 C7 1_555 1_555
C8 C7 1_555 1_555
C9 C8 1_555 1_555
H6 C9 1_555 1_555
C10 C9 1_555 1_555
H7 C10 1_555 1_555
C11 C10 1_555 1_555
H8 C11 1_555 1_555
C12 C11 1_555 1_555
H9 C12 1_555 1_555
C13 C8 1_555 1_555
C14 C1 1_555 1_555
C15 N1 1_555 1_555
H10 C15 1_555 1_555
H11 C15 1_555 1_555
C16 N1 1_555 1_555
H12 C16 1_555 1_555
C17 C16 1_555 1_555
H13 C17 1_555 1_555
C18 C17 1_555 1_555
C19 C18 1_555 1_555
C20 C19 1_555 1_555
H14 C20 1_555 1_555
C21 C20 1_555 1_555
H15 C21 1_555 1_555
C22 C21 1_555 1_555
H16 C22 1_555 1_555
C23 N3 1_555 1_555
H17 C23 1_555 1_555
C5 C6 1_555 1_555
C12 C13 1_555 1_555
C13 C14 1_555 1_555
C14 C15 1_555 1_555
C22 C23 1_555 1_555

#END
