
#######################################################################
#
#                 Cambridge Crystallographic Data Centre
#                                CCDC 
#
#######################################################################
#
# If this CIF has been generated from an entry in the Cambridge 
# Structural Database, then it will include bibliographic, chemical, 
# crystal, experimental, refinement or atomic coordinate data resulting 
# from the CCDC's data processing and validation procedures.
#
#######################################################################

data_RUFCOM
_chemical_formula_moiety         'C27 H28 Cl1 N4 1+,C24 H20 B1 1-'
_chemical_name_systematic        
'2-((4-Chlorophenyl)diazenyl)-1,3-dimesityl-1H-imidazol-3-ium tetraphenylborate'
_symmetry_cell_setting           monoclinic
_symmetry_space_group_name_H-M   'P 21'
_symmetry_Int_Tables_number      4
_space_group_name_Hall           'P 2yb'
loop_
_symmetry_equiv_pos_site_id
_symmetry_equiv_pos_as_xyz
1 x,y,z
2 -x,1/2+y,-z
_cell_length_a                   9.6225(12)
_cell_length_b                   19.6297(10)
_cell_length_c                   11.7847(9)
_cell_angle_alpha                90
_cell_angle_beta                 99.357(7)
_cell_angle_gamma                90
_cell_volume                     2196.36
_exptl_crystal_colour            orange
_exptl_crystal_description       prism
_cell_formula_units_Z            2
loop_
_atom_site_label
_atom_site_type_symbol
_atom_site_fract_x
_atom_site_fract_y
_atom_site_fract_z
N1 N 0.4572(2) 0.22022(11) 0.56842(18)
N2 N 0.4159(2) 0.29934(11) 0.43747(19)
C1 C 0.3756(3) 0.27475(13) 0.5335(2)
C2 C 0.5514(3) 0.21115(15) 0.4928(2)
H1 H 0.6217 0.1768 0.4971
C3 C 0.5250(3) 0.26029(15) 0.4115(2)
H2 H 0.5732 0.2666 0.3480
C4 C 0.4398(3) 0.17140(13) 0.6589(2)
C5 C 0.3413(3) 0.11911(14) 0.6297(2)
C6 C 0.3278(3) 0.07181(15) 0.7153(3)
H3 H 0.2613 0.0359 0.6989
C7 C 0.4091(3) 0.07569(15) 0.8246(2)
C8 C 0.5044(3) 0.12931(15) 0.8490(2)
H4 H 0.5598 0.1320 0.9233
C9 C 0.5208(3) 0.17913(14) 0.7677(2)
C10 C 0.2540(3) 0.11398(16) 0.5109(2)
H5 H 0.2038 0.0704 0.5034
H6 H 0.3159 0.1169 0.4528
H7 H 0.1857 0.1514 0.4998
C11 C 0.3982(4) 0.02106(16) 0.9125(3)
H8 H 0.2990 0.0091 0.9108
H9 H 0.4379 0.0379 0.9892
H10 H 0.4505 -0.0193 0.8948
C12 C 0.6223(3) 0.23755(16) 0.7961(3)
H11 H 0.7063 0.2296 0.7607
H12 H 0.6497 0.2409 0.8797
H13 H 0.5769 0.2801 0.7664
C13 C 0.3490(3) 0.35495(14) 0.3666(2)
C14 C 0.4097(3) 0.41946(15) 0.3776(2)
C15 C 0.3438(4) 0.46998(16) 0.3058(3)
H14 H 0.3815 0.5148 0.3126
C16 C 0.2261(4) 0.45776(17) 0.2252(3)
C17 C 0.1691(3) 0.39170(17) 0.2159(3)
H15 H 0.0878 0.3829 0.1604
C18 C 0.2294(3) 0.33862(15) 0.2866(2)
C19 C 0.5397(4) 0.43337(19) 0.4651(3)
H16 H 0.5276 0.4139 0.5394
H17 H 0.5541 0.4827 0.4732
H18 H 0.6218 0.4126 0.4393
C20 C 0.1553(6) 0.5142(2) 0.1486(3)
H19 H 0.1122 0.5469 0.1953
H20 H 0.0824 0.4946 0.0900
H21 H 0.2256 0.5375 0.1111
C21 C 0.1681(3) 0.26839(16) 0.2776(3)
H22 H 0.2443 0.2348 0.2833
H23 H 0.1060 0.2633 0.2035
H24 H 0.1139 0.2611 0.3401
N3 N 0.2718(7) 0.3079(3) 0.5789(7)
N4 N 0.2622(3) 0.28669(17) 0.6788(3)
C22 C 0.1578(2) 0.31793(11) 0.72999(18)
C23 C 0.1342(2) 0.28833(10) 0.83232(19)
H25 H 0.1865 0.2493 0.8615
C24 C 0.0342(3) 0.31588(13) 0.89197(18)
H26 H 0.0182 0.2956 0.9619
C25 C -0.0422(2) 0.37303(13) 0.8493(2)
C26 C -0.0186(3) 0.40263(11) 0.7470(2)
H27 H -0.0709 0.4417 0.7178
C27 C 0.0814(3) 0.37508(12) 0.68731(17)
H28 H 0.0974 0.3953 0.6174
Cl1 Cl -0.16600(11) 0.40653(6) 0.92274(10)
B1 B -0.2260(3) 0.13278(15) 0.2309(2)
C34 C -0.0838(2) 0.13176(13) 0.1697(2)
C35 C -0.0852(3) 0.15366(14) 0.0568(2)
H33 H -0.1691 0.1734 0.0164
C36 C 0.0313(3) 0.14787(17) 0.0007(3)
H34 H 0.0249 0.1625 -0.0769
C37 C 0.1556(3) 0.12102(17) 0.0574(3)
H35 H 0.2359 0.1182 0.0203
C38 C 0.1619(3) 0.09829(16) 0.1689(3)
H36 H 0.2466 0.0790 0.2086
C39 C 0.0442(3) 0.10354(14) 0.2233(3)
H37 H 0.0509 0.0873 0.2999
C40 C -0.3097(2) 0.06006(13) 0.2050(2)
C41 C -0.2629(3) 0.00912(14) 0.1362(2)
H38 H -0.1809 0.0176 0.1031
C42 C -0.3312(3) -0.05325(15) 0.1143(3)
H39 H -0.2965 -0.0859 0.0664
C43 C -0.4508(3) -0.06753(16) 0.1632(3)
H40 H -0.4980 -0.1100 0.1492
C44 C -0.4995(3) -0.01926(16) 0.2320(3)
H41 H -0.5812 -0.0282 0.2653
C45 C -0.4289(3) 0.04304(15) 0.2529(2)
H42 H -0.4635 0.0751 0.3019
C46 C -0.1764(2) 0.14118(14) 0.3725(2)
C47 C -0.1681(3) 0.08545(16) 0.4474(2)
H43 H -0.1951 0.0418 0.4165
C48 C -0.1217(4) 0.0912(2) 0.5660(3)
H44 H -0.1171 0.0518 0.6132
C49 C -0.0829(3) 0.1531(2) 0.6143(3)
H45 H -0.0526 0.1571 0.6949
C50 C -0.0886(3) 0.20983(19) 0.5435(3)
H46 H -0.0619 0.2532 0.5755
C51 C -0.1337(3) 0.20325(16) 0.4247(3)
H47 H -0.1353 0.2427 0.3778
C52 C -0.3254(3) 0.19802(13) 0.1801(2)
C53 C -0.4721(3) 0.19458(15) 0.1432(2)
H48 H -0.5170 0.1515 0.1432
C54 C -0.5547(3) 0.25146(16) 0.1067(2)
H49 H -0.6532 0.2464 0.0819
C55 C -0.4931(3) 0.31527(17) 0.1066(3)
H50 H -0.5492 0.3543 0.0844
C56 C -0.3490(3) 0.32135(16) 0.1393(3)
H51 H -0.3053 0.3647 0.1389
C57 C -0.2680(3) 0.26359(14) 0.1729(2)
H52 H -0.1688 0.2688 0.1919
N5? N 0.267(2) 0.2869(11) 0.607(2)
N6? N 0.1911(12) 0.3359(5) 0.5722(8)
C28? C 0.0905(7) 0.3526(4) 0.6477(6)
C29? C 0.0964(8) 0.3267(4) 0.7581(7)
H29? H 0.1680 0.2952 0.7878
C30? C -0.0025(10) 0.3469(5) 0.8252(5)
H30? H 0.0015 0.3292 0.9006
C31? C -0.1073(9) 0.3931(5) 0.7818(7)
H31? H -0.1749 0.4069 0.8276
C32? C -0.1132(8) 0.4190(4) 0.6713(8)
H32? H -0.1848 0.4506 0.6417
C33? C -0.0143(9) 0.3988(4) 0.6043(6)
Cl2? Cl -0.0305(4) 0.4309(2) 0.4611(4)
loop_
_geom_bond_atom_site_label_1
_geom_bond_atom_site_label_2
_geom_bond_site_symmetry_1
_geom_bond_site_symmetry_2
N1 C1 1_555 1_555
N2 C1 1_555 1_555
C1 N3 1_555 1_555
C2 N1 1_555 1_555
H1 C2 1_555 1_555
C3 N2 1_555 1_555
H2 C3 1_555 1_555
C4 N1 1_555 1_555
C5 C4 1_555 1_555
C6 C5 1_555 1_555
H3 C6 1_555 1_555
C7 C6 1_555 1_555
C8 C7 1_555 1_555
H4 C8 1_555 1_555
C9 C4 1_555 1_555
C10 C5 1_555 1_555
H5 C10 1_555 1_555
H6 C10 1_555 1_555
H7 C10 1_555 1_555
C11 C7 1_555 1_555
H8 C11 1_555 1_555
H9 C11 1_555 1_555
H10 C11 1_555 1_555
C12 C9 1_555 1_555
H11 C12 1_555 1_555
H12 C12 1_555 1_555
H13 C12 1_555 1_555
C13 N2 1_555 1_555
C14 C13 1_555 1_555
C15 C14 1_555 1_555
H14 C15 1_555 1_555
C16 C15 1_555 1_555
C17 C16 1_555 1_555
H15 C17 1_555 1_555
C18 C13 1_555 1_555
C19 C14 1_555 1_555
H16 C19 1_555 1_555
H17 C19 1_555 1_555
H18 C19 1_555 1_555
C20 C16 1_555 1_555
H19 C20 1_555 1_555
H20 C20 1_555 1_555
H21 C20 1_555 1_555
C21 C18 1_555 1_555
H22 C21 1_555 1_555
H23 C21 1_555 1_555
H24 C21 1_555 1_555
N3 N4 1_555 1_555
N4 C22 1_555 1_555
C22 C23 1_555 1_555
C23 H25 1_555 1_555
C24 C23 1_555 1_555
H26 C24 1_555 1_555
C25 C24 1_555 1_555
C26 C25 1_555 1_555
H27 C26 1_555 1_555
C27 C22 1_555 1_555
H28 C27 1_555 1_555
Cl1 C25 1_555 1_555
B1 C34 1_555 1_555
C34 C35 1_555 1_555
C35 H33 1_555 1_555
C36 C35 1_555 1_555
H34 C36 1_555 1_555
C37 C36 1_555 1_555
H35 C37 1_555 1_555
C38 C37 1_555 1_555
H36 C38 1_555 1_555
C39 C34 1_555 1_555
H37 C39 1_555 1_555
C40 B1 1_555 1_555
C41 C40 1_555 1_555
H38 C41 1_555 1_555
C42 C41 1_555 1_555
H39 C42 1_555 1_555
C43 C42 1_555 1_555
H40 C43 1_555 1_555
C44 C43 1_555 1_555
H41 C44 1_555 1_555
C45 C40 1_555 1_555
H42 C45 1_555 1_555
C46 B1 1_555 1_555
C47 C46 1_555 1_555
H43 C47 1_555 1_555
C48 C47 1_555 1_555
H44 C48 1_555 1_555
C49 C48 1_555 1_555
H45 C49 1_555 1_555
C50 C49 1_555 1_555
H46 C50 1_555 1_555
C51 C46 1_555 1_555
H47 C51 1_555 1_555
C52 B1 1_555 1_555
C53 C52 1_555 1_555
H48 C53 1_555 1_555
C54 C53 1_555 1_555
H49 C54 1_555 1_555
C55 C54 1_555 1_555
H50 C55 1_555 1_555
C56 C55 1_555 1_555
H51 C56 1_555 1_555
C57 C52 1_555 1_555
H52 C57 1_555 1_555
C2 C3 1_555 1_555
C8 C9 1_555 1_555
C17 C18 1_555 1_555
C26 C27 1_555 1_555
C38 C39 1_555 1_555
C44 C45 1_555 1_555
C50 C51 1_555 1_555
C56 C57 1_555 1_555

#END
