
#######################################################################
#
#                 Cambridge Crystallographic Data Centre
#                                CCDC 
#
#######################################################################
#
# If this CIF has been generated from an entry in the Cambridge 
# Structural Database, then it will include bibliographic, chemical, 
# crystal, experimental, refinement or atomic coordinate data resulting 
# from the CCDC's data processing and validation procedures.
#
#######################################################################

data_RUFDUS
_chemical_formula_moiety         'C25 H16 Cl1 N3 O1'
_chemical_name_systematic        
(E)-3-(9-Anthryl)-1-(4-chlorophenyl)-2-(1H-1,2,4-triazol-1-yl)prop-2-en-1-one
_symmetry_cell_setting           orthorhombic
_symmetry_space_group_name_H-M   'P b c a'
_symmetry_Int_Tables_number      61
_space_group_name_Hall           '-P 2ac 2ab'
loop_
_symmetry_equiv_pos_site_id
_symmetry_equiv_pos_as_xyz
1 x,y,z
2 1/2-x,-y,1/2+z
3 -x,1/2+y,1/2-z
4 1/2+x,1/2-y,-z
5 -x,-y,-z
6 1/2+x,y,1/2-z
7 x,1/2-y,1/2+z
8 1/2-x,1/2+y,z
_cell_length_a                   13.1464(11)
_cell_length_b                   13.5485(12)
_cell_length_c                   22.0974(19)
_cell_angle_alpha                90
_cell_angle_beta                 90
_cell_angle_gamma                90
_cell_volume                     3935.86
_exptl_crystal_colour            yellow
_exptl_crystal_description       block
_cell_formula_units_Z            8
_exptl_crystal_recrystallization_method chloroform/acetone
loop_
_atom_site_label
_atom_site_type_symbol
_atom_site_fract_x
_atom_site_fract_y
_atom_site_fract_z
C1 C 0.30643(17) 1.1607(2) 0.39287(11)
C2 C 0.27174(18) 1.0658(2) 0.40129(11)
H1 H 0.2393 1.0481 0.4371
C3 C 0.28585(17) 0.99743(18) 0.35589(11)
H2 H 0.2607 0.9337 0.3604
C4 C 0.33774(15) 1.02351(17) 0.30331(9)
C5 C 0.37216(18) 1.11961(18) 0.29626(11)
H3 H 0.4068 1.1373 0.2612
C6 C 0.35564(19) 1.18896(19) 0.34055(12)
H4 H 0.3772 1.2538 0.3353
C7 C 0.35073(16) 0.95057(16) 0.25405(10)
C8 C 0.45084(15) 0.95049(15) 0.22047(9)
C9 C 0.3687(2) 0.9653(2) 0.11838(12)
H5 H 0.3044 0.9863 0.1304
C10 C 0.4936(2) 0.9244(2) 0.06792(11)
H6 H 0.5345 0.9105 0.0347
C11 C 0.54031(16) 0.94857(17) 0.24822(9)
H7 H 0.5985 0.9497 0.2243
C12 C 0.55381(15) 0.94475(17) 0.31479(9)
C13 C 0.52315(15) 0.86077(17) 0.34745(9)
C14 C 0.48195(18) 0.77419(18) 0.32006(11)
H8 H 0.4733 0.7724 0.2783
C15 C 0.4552(2) 0.6945(2) 0.35349(13)
H9 H 0.4292 0.6389 0.3343
C16 C 0.4662(2) 0.6944(2) 0.41698(12)
H10 H 0.4470 0.6393 0.4394
C17 C 0.5045(2) 0.7742(2) 0.44502(11)
H11 H 0.5110 0.7735 0.4869
C18 C 0.53536(16) 0.85998(18) 0.41238(10)
C19 C 0.57685(18) 0.94139(19) 0.44096(10)
H12 H 0.5826 0.9411 0.4829
C20 C 0.61025(17) 1.02352(18) 0.40905(10)
C21 C 0.6548(2) 1.1069(2) 0.43795(12)
H13 H 0.6603 1.1075 0.4799
C22 C 0.6890(3) 1.1848(2) 0.40624(14)
H14 H 0.7177 1.2383 0.4263
C23 C 0.6813(2) 1.1853(2) 0.34226(13)
H15 H 0.7065 1.2386 0.3204
C24 C 0.63764(19) 1.10861(19) 0.31269(11)
H16 H 0.6321 1.1108 0.2708
C25 C 0.60008(16) 1.02502(17) 0.34426(9)
Cl1 Cl 0.28705(6) 1.24841(6) 0.44918(4)
N1 N 0.39691(19) 0.95338(19) 0.06181(9)
N2 N 0.52736(15) 0.91671(17) 0.12348(9)
N3 N 0.44473(13) 0.94308(14) 0.15650(8)
O1 O 0.28455(12) 0.89224(14) 0.24077(9)
loop_
_geom_bond_atom_site_label_1
_geom_bond_atom_site_label_2
_geom_bond_site_symmetry_1
_geom_bond_site_symmetry_2
C1 C2 1_555 1_555
C2 H1 1_555 1_555
C3 C2 1_555 1_555
H2 C3 1_555 1_555
C4 C3 1_555 1_555
C5 C4 1_555 1_555
H3 C5 1_555 1_555
C6 C1 1_555 1_555
H4 C6 1_555 1_555
C7 C4 1_555 1_555
C8 C7 1_555 1_555
C9 H5 1_555 1_555
C10 H6 1_555 1_555
C11 C8 1_555 1_555
H7 C11 1_555 1_555
C12 C11 1_555 1_555
C13 C12 1_555 1_555
C14 C13 1_555 1_555
H8 C14 1_555 1_555
C15 C14 1_555 1_555
H9 C15 1_555 1_555
C16 C15 1_555 1_555
H10 C16 1_555 1_555
C17 C16 1_555 1_555
H11 C17 1_555 1_555
C18 C13 1_555 1_555
C19 C18 1_555 1_555
H12 C19 1_555 1_555
C20 C19 1_555 1_555
C21 C20 1_555 1_555
H13 C21 1_555 1_555
C22 C21 1_555 1_555
H14 C22 1_555 1_555
C23 C22 1_555 1_555
H15 C23 1_555 1_555
C24 C23 1_555 1_555
H16 C24 1_555 1_555
C25 C12 1_555 1_555
Cl1 C1 1_555 1_555
N1 C9 1_555 1_555
N2 C10 1_555 1_555
N3 C8 1_555 1_555
O1 C7 1_555 1_555
C5 C6 1_555 1_555
C9 N3 1_555 1_555
C10 N1 1_555 1_555
C17 C18 1_555 1_555
C20 C25 1_555 1_555
C24 C25 1_555 1_555
N2 N3 1_555 1_555

#END
