
#######################################################################
#
#                 Cambridge Crystallographic Data Centre
#                                CCDC 
#
#######################################################################
#
# If this CIF has been generated from an entry in the Cambridge 
# Structural Database, then it will include bibliographic, chemical, 
# crystal, experimental, refinement or atomic coordinate data resulting 
# from the CCDC's data processing and validation procedures.
#
#######################################################################

data_RUFDAZ
_chemical_formula_moiety         'C22 H27 N1 O4 S1'
_chemical_name_systematic        
't-Butyl 4-(benzylamino)-2-(4-methoxyphenyl)-4-oxo-2-sulfanylbutanoate'
_symmetry_cell_setting           monoclinic
_symmetry_space_group_name_H-M   'C 2/c'
_symmetry_Int_Tables_number      15
_space_group_name_Hall           '-C 2yn'
loop_
_symmetry_equiv_pos_site_id
_symmetry_equiv_pos_as_xyz
1 x,y,z
2 -x,y,1/2-z
3 1/2+x,1/2+y,z
4 1/2-x,1/2+y,1/2-z
5 -x,-y,-z
6 x,-y,1/2+z
7 1/2-x,1/2-y,-z
8 1/2+x,1/2-y,1/2+z
_cell_length_a                   31.687(3)
_cell_length_b                   6.2286(5)
_cell_length_c                   23.0782(19)
_cell_angle_alpha                90
_cell_angle_beta                 106.427(3)
_cell_angle_gamma                90
_cell_volume                     4368.92
_exptl_crystal_colour            colorless
_exptl_crystal_description       prismatic
_cell_formula_units_Z            8
loop_
_atom_site_label
_atom_site_type_symbol
_atom_site_fract_x
_atom_site_fract_y
_atom_site_fract_z
S1 S 0.18701(3) 0.35873(14) 1.03803(4)
H1 H 0.1682 0.3500 1.0764
N1 N 0.10575(10) 0.9658(5) 1.04752(13)
O1 O 0.10633(9) 0.6100(4) 1.05818(11)
O2 O 0.25953(10) 0.4833(6) 0.81233(13)
O3 O 0.09995(7) 0.2661(3) 0.94764(10)
O4 O 0.08657(6) 0.6047(3) 0.91470(9)
C1 C 0.11956(10) 0.7703(5) 1.03883(13)
C2 C 0.15246(9) 0.7626(5) 1.00225(12)
H2 H 0.1809 0.8088 1.0276
H3 H 0.1433 0.8628 0.9688
C3 C 0.15710(9) 0.5392(4) 0.97729(12)
C4 C 0.18343(9) 0.5389(5) 0.93146(13)
C5 C 0.18346(11) 0.3561(5) 0.89679(16)
H4 H 0.1659 0.2399 0.9002
C6 C 0.20878(13) 0.3439(6) 0.85795(18)
H5 H 0.2085 0.2191 0.8357
C7 C 0.23491(11) 0.5151(7) 0.85121(16)
C8 C 0.23501(10) 0.6962(6) 0.88426(15)
H6 H 0.2521 0.8130 0.8799
C9 C 0.20983(10) 0.7077(5) 0.92424(14)
H7 H 0.2107 0.8320 0.9468
C10 C 0.28941(15) 0.6452(9) 0.8077(2)
H8 H 0.2735 0.7710 0.7898
H9 H 0.3071 0.5954 0.7828
H10 H 0.3081 0.6795 0.8472
C11 C 0.07320(11) 1.0062(6) 1.07940(15)
H11 H 0.0538 0.8829 1.0743
H12 H 0.0555 1.1286 1.0609
C12 C 0.09187(10) 1.0495(5) 1.14576(14)
C13 C 0.11010(14) 1.2446(6) 1.16581(19)
H13 H 0.1111 1.3507 1.1379
C14 C 0.12699(16) 1.2867(8) 1.2264(2)
H14 H 0.1397 1.4195 1.2390
C15 C 0.12519(15) 1.1370(9) 1.26742(19)
H15 H 0.1364 1.1658 1.3085
C16 C 0.10688(14) 0.9433(9) 1.24862(19)
H16 H 0.1055 0.8392 1.2769
C17 C 0.09022(12) 0.8991(6) 1.18770(17)
H17 H 0.0778 0.7655 1.1753
C18 C 0.11121(10) 0.4486(5) 0.94589(13)
C19 C 0.03973(10) 0.5720(5) 0.88145(14)
C20 C 0.02606(12) 0.7947(6) 0.8574(2)
H18 H 0.0293 0.8923 0.8906
H19 H -0.0041 0.7924 0.8334
H20 H 0.0443 0.8410 0.8330
C21 C 0.01519(12) 0.5004(7) 0.92559(18)
H21 H 0.0243 0.3578 0.9394
H22 H -0.0159 0.5012 0.9059
H23 H 0.0216 0.5967 0.9594
C22 C 0.03631(13) 0.4160(7) 0.83155(16)
H24 H 0.0533 0.4666 0.8059
H25 H 0.0061 0.4017 0.8084
H26 H 0.0474 0.2790 0.8481
H27 H 0.1151(9) 1.065(5) 1.0298(12)
loop_
_geom_bond_atom_site_label_1
_geom_bond_atom_site_label_2
_geom_bond_site_symmetry_1
_geom_bond_site_symmetry_2
S1 H1 1_555 1_555
N1 C1 1_555 1_555
O1 C1 1_555 1_555
O2 C7 1_555 1_555
O3 C18 1_555 1_555
O4 C18 1_555 1_555
C1 C2 1_555 1_555
C2 H2 1_555 1_555
H3 C2 1_555 1_555
C3 S1 1_555 1_555
C4 C3 1_555 1_555
C5 C4 1_555 1_555
H4 C5 1_555 1_555
C6 C5 1_555 1_555
H5 C6 1_555 1_555
C7 C6 1_555 1_555
C8 C7 1_555 1_555
H6 C8 1_555 1_555
C9 C4 1_555 1_555
H7 C9 1_555 1_555
C10 O2 1_555 1_555
H8 C10 1_555 1_555
H9 C10 1_555 1_555
H10 C10 1_555 1_555
C11 N1 1_555 1_555
H11 C11 1_555 1_555
H12 C11 1_555 1_555
C12 C11 1_555 1_555
C13 C12 1_555 1_555
H13 C13 1_555 1_555
C14 C13 1_555 1_555
H14 C14 1_555 1_555
C15 C14 1_555 1_555
H15 C15 1_555 1_555
C16 C15 1_555 1_555
H16 C16 1_555 1_555
C17 C12 1_555 1_555
H17 C17 1_555 1_555
C18 C3 1_555 1_555
C19 O4 1_555 1_555
C20 C19 1_555 1_555
H18 C20 1_555 1_555
H19 C20 1_555 1_555
H20 C20 1_555 1_555
C21 C19 1_555 1_555
H21 C21 1_555 1_555
H22 C21 1_555 1_555
H23 C21 1_555 1_555
C22 C19 1_555 1_555
H24 C22 1_555 1_555
H25 C22 1_555 1_555
H26 C22 1_555 1_555
H27 N1 1_555 1_555
C2 C3 1_555 1_555
C8 C9 1_555 1_555
C16 C17 1_555 1_555

#END
