
#######################################################################
#
#                 Cambridge Crystallographic Data Centre
#                                CCDC 
#
#######################################################################
#
# If this CIF has been generated from an entry in the Cambridge 
# Structural Database, then it will include bibliographic, chemical, 
# crystal, experimental, refinement or atomic coordinate data resulting 
# from the CCDC's data processing and validation procedures.
#
#######################################################################

data_RUFDEC
_chemical_formula_moiety         'C18 H13 Br1 N4 S1,C3 H7 N1 O1'
_chemical_name_systematic        
'6-Amino-8-(2-bromophenyl)-1,7,8,8a-tetrahydro-3H-isothiochromene-5,7,7-tricarbonitrile N,N-dimethylformamide solvate'
_symmetry_cell_setting           monoclinic
_symmetry_space_group_name_H-M   'P 21/c'
_symmetry_Int_Tables_number      14
_space_group_name_Hall           '-P 2ybc'
loop_
_symmetry_equiv_pos_site_id
_symmetry_equiv_pos_as_xyz
1 x,y,z
2 -x,1/2+y,1/2-z
3 -x,-y,-z
4 x,1/2-y,1/2+z
_cell_length_a                   14.7733(4)
_cell_length_b                   9.1710(3)
_cell_length_c                   15.7897(4)
_cell_angle_alpha                90
_cell_angle_beta                 92.478(2)
_cell_angle_gamma                90
_cell_volume                     2137.28
_exptl_crystal_colour            colorless
_exptl_crystal_description       plate
_cell_formula_units_Z            4
_exptl_crystal_recrystallization_method DMF
loop_
_atom_site_label
_atom_site_type_symbol
_atom_site_fract_x
_atom_site_fract_y
_atom_site_fract_z
Br1 Br 0.26620(2) 0.56202(4) 0.85086(2)
S1 S -0.08662(5) 0.75087(9) 0.66332(5)
C1 C -0.08406(19) 0.4522(3) 0.65402(18)
H1 H -0.1163 0.3654 0.6481
C2 C 0.15871(17) 0.5338(3) 0.66735(17)
H2 H 0.1505 0.4901 0.7231
C3 C 0.00049(18) 0.4509(3) 0.62871(16)
C4 C 0.06373(18) 0.5807(3) 0.63235(17)
H3 H 0.0694 0.6179 0.5746
C5 C 0.03938(18) 0.3190(3) 0.59218(15)
N1 N 0.1653(2) 0.1753(3) 0.54913(17)
C6 C 0.19932(18) 0.4123(3) 0.61042(17)
C7 C -0.02003(18) 0.2040(3) 0.56411(17)
C8 C 0.12949(18) 0.2955(3) 0.58223(16)
C9 C 0.2753(2) 0.3418(3) 0.66002(19)
N2 N -0.06658(17) 0.1117(3) 0.53989(18)
C10 C 0.2385(2) 0.4739(3) 0.5331(2)
C11 C 0.22316(18) 0.6621(3) 0.68104(17)
C12 C 0.27173(19) 0.6886(3) 0.75675(17)
C13 C 0.02957(19) 0.7038(3) 0.6874(2)
H4 H 0.0670 0.7893 0.6799
H5 H 0.0361 0.6749 0.7465
N3 N 0.2686(2) 0.5194(3) 0.47443(19)
N4 N 0.3323(2) 0.2913(3) 0.69975(19)
C14 C 0.2323(2) 0.7653(3) 0.6164(2)
H6 H 0.2002 0.7527 0.5650
C15 C -0.1330(2) 0.5780(3) 0.6909(2)
H7 H -0.1309 0.5687 0.7522
H8 H -0.1961 0.5745 0.6713
C16 C 0.2877(2) 0.8846(3) 0.6273(2)
H9 H 0.2939 0.9498 0.5829
C17 C 0.3260(2) 0.8109(4) 0.7679(2)
H10 H 0.3570 0.8270 0.8196
C18 C 0.3338(3) 0.9082(4) 0.7027(3)
H11 H 0.3704 0.9901 0.7099
H19 H 0.131(2) 0.119(3) 0.5268(18)
H20 H 0.222(3) 0.169(4) 0.533(2)
O1 O 0.65268(16) 0.8365(3) 0.50459(17)
N5 N 0.53153(19) 0.7245(3) 0.55611(19)
C19 C 0.6160(2) 0.7654(4) 0.5584(3)
H12 H 0.6517 0.7376 0.6056
C20 C 0.4938(3) 0.6366(6) 0.6229(3)
H13 H 0.5399 0.6179 0.6662
H14 H 0.4721 0.5458 0.5995
H15 H 0.4445 0.6882 0.6469
C21 C 0.4730(3) 0.7652(6) 0.4850(3)
H16 H 0.5064 0.8220 0.4460
H17 H 0.4233 0.8218 0.5044
H18 H 0.4501 0.6790 0.4571
loop_
_geom_bond_atom_site_label_1
_geom_bond_atom_site_label_2
_geom_bond_site_symmetry_1
_geom_bond_site_symmetry_2
Br1 C12 1_555 1_555
S1 C13 1_555 1_555
C1 H1 1_555 1_555
C2 H2 1_555 1_555
C3 C1 1_555 1_555
C4 C2 1_555 1_555
H3 C4 1_555 1_555
C5 C3 1_555 1_555
N1 C8 1_555 1_555
C6 C2 1_555 1_555
C7 C5 1_555 1_555
C8 C5 1_555 1_555
C9 C6 1_555 1_555
N2 C7 1_555 1_555
C10 C6 1_555 1_555
C11 C2 1_555 1_555
C12 C11 1_555 1_555
C13 C4 1_555 1_555
H4 C13 1_555 1_555
H5 C13 1_555 1_555
N3 C10 1_555 1_555
N4 C9 1_555 1_555
C14 C11 1_555 1_555
H6 C14 1_555 1_555
C15 S1 1_555 1_555
H7 C15 1_555 1_555
H8 C15 1_555 1_555
C16 C14 1_555 1_555
H9 C16 1_555 1_555
C17 C12 1_555 1_555
H10 C17 1_555 1_555
C18 C16 1_555 1_555
H11 C18 1_555 1_555
O1 C19 1_555 1_555
N5 C19 1_555 1_555
C19 H12 1_555 1_555
C20 N5 1_555 1_555
H13 C20 1_555 1_555
H14 C20 1_555 1_555
H15 C20 1_555 1_555
C21 N5 1_555 1_555
H16 C21 1_555 1_555
H17 C21 1_555 1_555
H18 C21 1_555 1_555
H19 N1 1_555 1_555
H20 N1 1_555 1_555
C1 C15 1_555 1_555
C3 C4 1_555 1_555
C6 C8 1_555 1_555
C17 C18 1_555 1_555

#END
