
#######################################################################
#
#                 Cambridge Crystallographic Data Centre
#                                CCDC 
#
#######################################################################
#
# If this CIF has been generated from an entry in the Cambridge 
# Structural Database, then it will include bibliographic, chemical, 
# crystal, experimental, refinement or atomic coordinate data resulting 
# from the CCDC's data processing and validation procedures.
#
#######################################################################

data_RUFFII
_chemical_formula_moiety         'C12 H9 N1 O2 S1'
_chemical_name_systematic        '4-((2-Thienylmethylene)amino)benzoic acid'
_symmetry_cell_setting           monoclinic
_symmetry_space_group_name_H-M   'P 21/c'
_symmetry_Int_Tables_number      14
_space_group_name_Hall           '-P 2ybc'
loop_
_symmetry_equiv_pos_site_id
_symmetry_equiv_pos_as_xyz
1 x,y,z
2 -x,1/2+y,1/2-z
3 -x,-y,-z
4 x,1/2-y,1/2+z
_cell_length_a                   3.8801(3)
_cell_length_b                   10.0849(11)
_cell_length_c                   27.380(3)
_cell_angle_alpha                90
_cell_angle_beta                 93.1850(10)
_cell_angle_gamma                90
_cell_volume                     1069.74
_exptl_crystal_colour            red
_exptl_crystal_description       block
_cell_formula_units_Z            4
_exptl_crystal_recrystallization_method ethanol
loop_
_atom_site_label
_atom_site_type_symbol
_atom_site_fract_x
_atom_site_fract_y
_atom_site_fract_z
N1 N 0.4137(7) 0.4083(2) 0.34590(9)
O1 O 0.9679(7) 0.8245(2) 0.50746(8)
H1 H 1.0383 0.8943 0.5197
O2 O 0.7517(7) 0.9632(2) 0.45013(7)
S1 S 0.3211(2) 0.18720(8) 0.26947(3)
C1 C 0.2843(8) 0.3008(3) 0.36133(11)
H2 H 0.2297 0.2954 0.3939
C2 C 0.2192(8) 0.1869(3) 0.32997(10)
C3 C 0.0828(9) 0.0673(3) 0.34261(11)
H3 H 0.0114 0.0483 0.3737
C4 C 0.0618(9) -0.0239(3) 0.30361(12)
H4 H -0.0252 -0.1094 0.3061
C5 C 0.1821(9) 0.0267(3) 0.26221(12)
H5 H 0.1888 -0.0202 0.2330
C6 C 0.8065(8) 0.8483(3) 0.46603(10)
C7 C 0.6845(7) 0.7322(3) 0.43688(9)
C8 C 0.7347(8) 0.6033(3) 0.45455(10)
H6 H 0.8320 0.5902 0.4860
C9 C 0.6413(8) 0.4952(3) 0.42586(10)
H7 H 0.6774 0.4098 0.4379
C10 C 0.4922(7) 0.5141(3) 0.37856(10)
C11 C 0.4398(8) 0.6428(3) 0.36128(10)
H8 H 0.3413 0.6561 0.3299
C12 C 0.5320(8) 0.7508(3) 0.39001(10)
H9 H 0.4924 0.8362 0.3781
loop_
_geom_bond_atom_site_label_1
_geom_bond_atom_site_label_2
_geom_bond_site_symmetry_1
_geom_bond_site_symmetry_2
N1 C1 1_555 1_555
O1 H1 1_555 1_555
O2 C6 1_555 1_555
S1 C2 1_555 1_555
C1 H2 1_555 1_555
C2 C1 1_555 1_555
C3 C2 1_555 1_555
H3 C3 1_555 1_555
C4 C3 1_555 1_555
H4 C4 1_555 1_555
C5 S1 1_555 1_555
H5 C5 1_555 1_555
C6 O1 1_555 1_555
C7 C6 1_555 1_555
C8 C7 1_555 1_555
H6 C8 1_555 1_555
C9 C8 1_555 1_555
H7 C9 1_555 1_555
C10 N1 1_555 1_555
C11 C10 1_555 1_555
H8 C11 1_555 1_555
C12 C7 1_555 1_555
H9 C12 1_555 1_555
C4 C5 1_555 1_555
C9 C10 1_555 1_555
C11 C12 1_555 1_555

#END
