
#######################################################################
#
#                 Cambridge Crystallographic Data Centre
#                                CCDC 
#
#######################################################################
#
# If this CIF has been generated from an entry in the Cambridge 
# Structural Database, then it will include bibliographic, chemical, 
# crystal, experimental, refinement or atomic coordinate data resulting 
# from the CCDC's data processing and validation procedures.
#
#######################################################################

data_RUFJUY
_chemical_formula_moiety         'C20 H19 N5 O2'
_chemical_name_systematic        
6-Isopropyl-3-phenyl-5-(p-tolyloxy)-3H-1,2,3-triazolo[4,5-d]pyrimidin-7(6H)-one
_symmetry_cell_setting           orthorhombic
_symmetry_space_group_name_H-M   'C 2 2 21'
_symmetry_Int_Tables_number      20
_space_group_name_Hall           'C 2n 2'
loop_
_symmetry_equiv_pos_site_id
_symmetry_equiv_pos_as_xyz
1 x,y,z
2 -x,-y,1/2+z
3 -x,y,1/2-z
4 x,-y,-z
5 1/2+x,1/2+y,z
6 1/2-x,1/2-y,1/2+z
7 1/2-x,1/2+y,1/2-z
8 1/2+x,1/2-y,-z
_cell_length_a                   10.2335(6)
_cell_length_b                   21.8532(12)
_cell_length_c                   16.7441(9)
_cell_angle_alpha                90
_cell_angle_beta                 90
_cell_angle_gamma                90
_cell_volume                     3744.56
_exptl_crystal_colour            colorless
_exptl_crystal_description       block
_cell_formula_units_Z            8
_exptl_crystal_recrystallization_method hexane/dichloromethane
loop_
_atom_site_label
_atom_site_type_symbol
_atom_site_fract_x
_atom_site_fract_y
_atom_site_fract_z
O1 O 0.5967(13) 0.0694(5) 0.1729(8)
O2 O 0.3920(17) 0.2076(8) 0.0153(9)
N1 N 0.6946(14) 0.2696(5) 0.2174(10)
N2 N 0.7566(13) 0.2328(6) 0.2727(7)
N3 N 0.7249(10) 0.1753(5) 0.2602(6)
N4 N 0.5505(14) 0.2489(7) 0.1072(8)
N5 N 0.500(2) 0.1435(10) 0.0927(11)
C1 C 0.7134(7) 0.3323(3) 0.2161(3)
C2 C 0.6409(8) 0.3694(3) 0.1653(6)
H1 H 0.5805 0.3521 0.1305
C3 C 0.6587(8) 0.4325(3) 0.1665(7)
H2 H 0.6102 0.4573 0.1325
C4 C 0.7490(7) 0.4584(4) 0.2184(5)
H3 H 0.7609 0.5006 0.2192
C5 C 0.8215(8) 0.4213(5) 0.2692(3)
H4 H 0.8819 0.4386 0.3040
C6 C 0.8037(8) 0.3582(5) 0.2681(3)
H5 H 0.8522 0.3334 0.3021
C7 C 0.6443(19) 0.1776(9) 0.1971(12)
C8 C 0.6235(13) 0.2323(6) 0.1690(7)
C9 C 0.489(3) 0.2026(13) 0.0766(15)
C10 C 0.586(2) 0.1249(10) 0.1598(12)
C11 C 0.3987(9) 0.2670(3) -0.0196(6)
C12 C 0.3310(9) 0.3155(4) 0.0145(5)
H6 H 0.2821 0.3095 0.0606
C13 C 0.3364(9) 0.3732(3) -0.0204(6)
H7 H 0.2911 0.4057 0.0023
C14 C 0.4095(8) 0.3823(4) -0.0894(6)
C15 C 0.4772(9) 0.3337(6) -0.1235(5)
H8 H 0.5261 0.3398 -0.1696
C16 C 0.4718(10) 0.2760(5) -0.0886(6)
H9 H 0.5171 0.2435 -0.1113
C17 C 0.4124(14) 0.4466(7) -0.1241(10)
H10 H 0.3397 0.4696 -0.1038
H11 H 0.4069 0.4445 -0.1812
H12 H 0.4925 0.4664 -0.1090
C18 C 0.4324(15) 0.0923(7) 0.0447(9)
H13 H 0.4657 0.0539 0.0670
C19 C 0.2897(15) 0.0907(8) 0.0583(10)
H14 H 0.2496 0.1250 0.0320
H15 H 0.2723 0.0928 0.1145
H16 H 0.2545 0.0534 0.0371
C20 C 0.4717(15) 0.0914(10) -0.0428(10)
H17 H 0.4440 0.0536 -0.0666
H18 H 0.5650 0.0950 -0.0470
H19 H 0.4311 0.1251 -0.0700
C21? C 0.559(3) 0.1085(15) 0.1430(15)
C22? C 0.4049(8) 0.2736(4) -0.0202(5)
C23? C 0.3332(13) 0.3137(5) 0.0270(7)
C24? C 0.3218(16) 0.3748(5) 0.0050(10)
C25? C 0.3822(16) 0.3958(4) -0.0641(10)
C26? C 0.4539(15) 0.3557(7) -0.1113(6)
C27? C 0.4653(11) 0.2946(6) -0.0894(5)
C28? C 0.377(2) 0.4628(10) -0.0866(14)
C29? C 0.3959(18) 0.0886(12) 0.0309(13)
C30? C 0.2578(17) 0.1054(11) 0.0417(11)
C31? C 0.7079(12) 0.3091(7) 0.2237(6)
C32? C 0.441(3) 0.0808(14) -0.0529(15)
C33? C 0.6177(10) 0.3523(7) 0.1975(9)
C34? C 0.6440(10) 0.4143(7) 0.2062(12)
C35? C 0.7605(13) 0.4332(8) 0.2410(9)
C36? C 0.8507(13) 0.3901(10) 0.2672(6)
C37? C 0.8244(12) 0.3281(10) 0.2585(7)
C38? C 0.6291(16) 0.1569(9) 0.1872(9)
C39? C 0.610(2) 0.2128(9) 0.1634(11)
C40? C 0.480(3) 0.1980(13) 0.0641(17)
H20? H 0.2928 0.2996 0.0732
H21? H 0.2738 0.4016 0.0366
H22? H 0.4943 0.3698 -0.1576
H23? H 0.5133 0.2678 -0.1210
H24? H 0.3001 0.4811 -0.0642
H25? H 0.3749 0.4667 -0.1437
H26? H 0.4532 0.4832 -0.0662
H27? H 0.4062 0.0485 0.0563
H28? H 0.2372 0.1396 0.0081
H29? H 0.2427 0.1162 0.0965
H30? H 0.2034 0.0713 0.0276
H31? H 0.3923 0.0485 -0.0778
H32? H 0.5323 0.0708 -0.0532
H33? H 0.4274 0.1183 -0.0818
H34? H 0.5398 0.3396 0.1742
H35? H 0.5837 0.4432 0.1887
H36? H 0.7781 0.4748 0.2468
H37? H 0.9286 0.4028 0.2905
H38? H 0.8848 0.2992 0.2761
N6? N 0.686(2) 0.2462(10) 0.2155(15)
N7? N 0.7450(14) 0.2046(8) 0.2667(8)
N8? N 0.7055(19) 0.1495(10) 0.2479(11)
N9? N 0.5407(11) 0.2413(7) 0.1048(5)
N10? N 0.479(2) 0.1328(10) 0.0799(11)
O3? O 0.5643(15) 0.0529(8) 0.1518(9)
O4? O 0.4187(19) 0.2151(8) 0.0014(9)
loop_
_geom_bond_atom_site_label_1
_geom_bond_atom_site_label_2
_geom_bond_site_symmetry_1
_geom_bond_site_symmetry_2
O1 C10 1_555 1_555
O2 C9 1_555 1_555
N1 N2 1_555 1_555
N2 N3 1_555 1_555
N3 C7 1_555 1_555
N4 C8 1_555 1_555
N5 C9 1_555 1_555
C1 N1 1_555 1_555
C2 C1 1_555 1_555
H1 C2 1_555 1_555
C3 C2 1_555 1_555
H2 C3 1_555 1_555
C4 C3 1_555 1_555
H3 C4 1_555 1_555
C5 C4 1_555 1_555
H4 C5 1_555 1_555
C6 C1 1_555 1_555
H5 C6 1_555 1_555
C7 C8 1_555 1_555
C8 N1 1_555 1_555
C9 N4 1_555 1_555
C10 N5 1_555 1_555
C11 O2 1_555 1_555
C12 C11 1_555 1_555
H6 C12 1_555 1_555
C13 C12 1_555 1_555
H7 C13 1_555 1_555
C14 C13 1_555 1_555
C15 C14 1_555 1_555
H8 C15 1_555 1_555
C16 C11 1_555 1_555
H9 C16 1_555 1_555
C17 C14 1_555 1_555
H10 C17 1_555 1_555
H11 C17 1_555 1_555
H12 C17 1_555 1_555
C18 N5 1_555 1_555
H13 C18 1_555 1_555
C19 C18 1_555 1_555
H14 C19 1_555 1_555
H15 C19 1_555 1_555
H16 C19 1_555 1_555
C20 C18 1_555 1_555
H17 C20 1_555 1_555
H18 C20 1_555 1_555
H19 C20 1_555 1_555
C5 C6 1_555 1_555
C7 C10 1_555 1_555
C15 C16 1_555 1_555

#END
