
#######################################################################
#
#                 Cambridge Crystallographic Data Centre
#                                CCDC 
#
#######################################################################
#
# If this CIF has been generated from an entry in the Cambridge 
# Structural Database, then it will include bibliographic, chemical, 
# crystal, experimental, refinement or atomic coordinate data resulting 
# from the CCDC's data processing and validation procedures.
#
#######################################################################

data_RUFMEK
_chemical_formula_moiety         'C8 H4 N3 S2'
_chemical_name_systematic        'Quinoxaline-1,3,2-dithiazolyl radical'
_symmetry_cell_setting           monoclinic
_symmetry_space_group_name_H-M   'P 21'
_symmetry_Int_Tables_number      4
_space_group_name_Hall           'P 2yb'
loop_
_symmetry_equiv_pos_site_id
_symmetry_equiv_pos_as_xyz
1 x,y,z
2 -x,1/2+y,-z
_cell_length_a                   3.7105(8)
_cell_length_b                   19.009(5)
_cell_length_c                   5.7864(9)
_cell_angle_alpha                90
_cell_angle_beta                 95.724(14)
_cell_angle_gamma                90
_cell_volume                     406.097
_exptl_crystal_colour            black
_chemical_melting_point          137-140deg.C
_cell_formula_units_Z            2
loop_
_atom_site_label
_atom_site_type_symbol
_atom_site_fract_x
_atom_site_fract_y
_atom_site_fract_z
S1 S 0.1013(8) 0.03574 0.0651(4)
S2 S -0.2111(9) -0.00866(19) -0.3671(6)
N1 N -0.034(3) -0.0310(5) -0.1059(17)
N2 N 0.014(2) 0.1720(4) -0.0657(13)
N3 N -0.317(2) 0.1248(4) -0.5028(12)
C1 C -0.029(2) 0.1046(5) -0.1181(16)
C2 C -0.196(3) 0.0829(5) -0.3409(19)
C3 C -0.279(2) 0.1956(5) -0.4536(16)
C4 C -0.110(2) 0.2172(5) -0.2300(15)
C5 C -0.083(2) 0.2911(5) -0.1907(15)
C6 C -0.210(2) 0.3372(5) -0.3552(14)
C7 C -0.369(2) 0.3155(5) -0.5717(14)
C8 C -0.403(2) 0.2446(5) -0.6186(15)
H1 H 0.021 0.308 -0.044
H2 H -0.191 0.386 -0.320
H3 H -0.446 0.349 -0.688
H4 H -0.516 0.229 -0.764
loop_
_geom_bond_atom_site_label_1
_geom_bond_atom_site_label_2
_geom_bond_site_symmetry_1
_geom_bond_site_symmetry_2
S1 N1 1_555 1_555
S2 N1 1_555 1_555
N2 C1 1_555 1_555
N3 C2 1_555 1_555
C1 S1 1_555 1_555
C2 S2 1_555 1_555
C3 N3 1_555 1_555
C4 N2 1_555 1_555
C5 C4 1_555 1_555
C6 C5 1_555 1_555
C7 C6 1_555 1_555
C8 C3 1_555 1_555
H1 C5 1_555 1_555
H2 C6 1_555 1_555
H3 C7 1_555 1_555
H4 C8 1_555 1_555
C1 C2 1_555 1_555
C3 C4 1_555 1_555
C7 C8 1_555 1_555

#END
