
#######################################################################
#
#                 Cambridge Crystallographic Data Centre
#                                CCDC 
#
#######################################################################
#
# If this CIF has been generated from an entry in the Cambridge 
# Structural Database, then it will include bibliographic, chemical, 
# crystal, experimental, refinement or atomic coordinate data resulting 
# from the CCDC's data processing and validation procedures.
#
#######################################################################

data_RUFNOX
_chemical_formula_moiety         'C16 H16 O4'
_chemical_name_systematic        
7a,8,9,10,11,12a-hexahydro-6H,7H-oxepino[3',2':5,6]pyrano[3,2-c]chromen-6-one
_symmetry_cell_setting           monoclinic
_symmetry_space_group_name_H-M   'P 21/n'
_symmetry_Int_Tables_number      14
_space_group_name_Hall           '-P 2yn'
loop_
_symmetry_equiv_pos_site_id
_symmetry_equiv_pos_as_xyz
1 x,y,z
2 1/2-x,1/2+y,1/2-z
3 -x,-y,-z
4 1/2+x,1/2-y,1/2+z
_cell_length_a                   7.73155(6)
_cell_length_b                   24.5151(2)
_cell_length_c                   13.61877(10)
_cell_angle_alpha                90
_cell_angle_beta                 91.9617(7)
_cell_angle_gamma                90
_cell_volume                     2579.79
_exptl_crystal_colour            colorless
_exptl_crystal_description       block
_cell_formula_units_Z            8
loop_
_atom_site_label
_atom_site_type_symbol
_atom_site_fract_x
_atom_site_fract_y
_atom_site_fract_z
O1 O 0.75558(13) 0.47826(4) 0.63329(6)
O2 O 0.68334(12) 0.39674(3) 0.57679(6)
O3 O 0.71232(11) 0.44929(3) 0.28984(6)
O4 O 0.78181(12) 0.51115(3) 0.17288(6)
C1 C 0.72607(16) 0.45074(5) 0.56080(9)
C2 C 0.73037(15) 0.47010(5) 0.46087(9)
C3 C 0.70511(15) 0.43468(5) 0.38505(8)
C4 C 0.67006(15) 0.37764(5) 0.40241(9)
C5 C 0.65394(15) 0.33815(5) 0.32781(9)
H1 H 0.6641 0.3485 0.2611
C6 C 0.62336(16) 0.28422(5) 0.35130(9)
H2 H 0.6129 0.2576 0.3008
C7 C 0.60790(16) 0.26891(5) 0.44960(10)
H3 H 0.5847 0.2319 0.4652
C8 C 0.62596(16) 0.30701(5) 0.52440(9)
H4 H 0.6165 0.2965 0.5911
C9 C 0.65812(15) 0.36077(5) 0.49966(9)
C10 C 0.76025(16) 0.52992(5) 0.44441(9)
H5 H 0.8836 0.5387 0.4584
H6 H 0.6898 0.5514 0.4898
C11 C 0.71107(17) 0.54525(5) 0.33835(9)
H7 H 0.5824 0.5429 0.3290
C12 C 0.79336(17) 0.50299(5) 0.27312(9)
H8 H 0.9187 0.5002 0.2931
C13 C 0.76908(19) 0.60324(5) 0.31289(9)
H9 H 0.7647 0.6263 0.3724
H10 H 0.8906 0.6022 0.2923
C14 C 0.65672(19) 0.62885(5) 0.23124(10)
H11 H 0.6910 0.6675 0.2242
H12 H 0.5348 0.6283 0.2513
C15 C 0.66679(18) 0.60114(5) 0.13118(9)
H13 H 0.5813 0.6185 0.0853
H14 H 0.7831 0.6077 0.1054
C16 C 0.63369(17) 0.54006(5) 0.13167(9)
H15 H 0.5311 0.5321 0.1708
H16 H 0.6090 0.5273 0.0636
O5 O 0.12478(14) 0.27167(4) 0.62377(6)
O6 O 0.20223(12) 0.18970(3) 0.57483(6)
O7 O 0.19122(11) 0.23847(3) 0.28407(6)
O8 O 0.13059(11) 0.29917(3) 0.15987(6)
C17 C 0.15713(16) 0.24324(5) 0.55423(9)
C18 C 0.15049(15) 0.26074(5) 0.45257(9)
C19 C 0.19458(15) 0.22551(5) 0.38047(9)
C20 C 0.24906(15) 0.17030(5) 0.40367(9)
C21 C 0.29550(16) 0.13205(5) 0.33259(9)
H17 H 0.2987 0.1424 0.2655
C22 C 0.33656(17) 0.07925(5) 0.36053(10)
H18 H 0.3679 0.0533 0.3124
C23 C 0.33212(17) 0.06390(5) 0.45909(10)
H19 H 0.3599 0.0275 0.4774
C24 C 0.28762(16) 0.10115(5) 0.53057(10)
H20 H 0.2847 0.0907 0.5977
C25 C 0.24747(16) 0.15417(5) 0.50164(9)
C26 C 0.10613(17) 0.31925(5) 0.43085(9)
H21 H 0.1616 0.3432 0.4813
H22 H -0.0207 0.3245 0.4325
C27 C 0.16967(16) 0.33433(5) 0.32937(8)
H23 H 0.2990 0.3329 0.3324
C28 C 0.10521(16) 0.29038(5) 0.25845(8)
H24 H -0.0218 0.2856 0.2673
C29 C 0.11567(16) 0.39133(5) 0.29394(9)
H25 H 0.0019 0.3890 0.2585
H26 H 0.1025 0.4154 0.3516
C30 C 0.24766(17) 0.41648(5) 0.22595(9)
H27 H 0.2137 0.4547 0.2123
H28 H 0.3619 0.4172 0.2610
C31 C 0.26698(17) 0.38695(5) 0.12796(9)
H29 H 0.1631 0.3947 0.0857
H30 H 0.3679 0.4025 0.0950
C32 C 0.29022(16) 0.32535(5) 0.13419(9)
H31 H 0.3273 0.3113 0.0701
H32 H 0.3818 0.3166 0.1843
loop_
_geom_bond_atom_site_label_1
_geom_bond_atom_site_label_2
_geom_bond_site_symmetry_1
_geom_bond_site_symmetry_2
O1 C1 1_555 1_555
O2 C1 1_555 1_555
O3 C3 1_555 1_555
O4 C12 1_555 1_555
C1 C2 1_555 1_555
C2 C3 1_555 1_555
C3 C4 1_555 1_555
C4 C5 1_555 1_555
C5 H1 1_555 1_555
C6 C5 1_555 1_555
H2 C6 1_555 1_555
C7 C6 1_555 1_555
H3 C7 1_555 1_555
C8 C7 1_555 1_555
H4 C8 1_555 1_555
C9 O2 1_555 1_555
C10 C2 1_555 1_555
H5 C10 1_555 1_555
H6 C10 1_555 1_555
C11 C10 1_555 1_555
H7 C11 1_555 1_555
C12 O3 1_555 1_555
H8 C12 1_555 1_555
C13 C11 1_555 1_555
H9 C13 1_555 1_555
H10 C13 1_555 1_555
C14 C13 1_555 1_555
H11 C14 1_555 1_555
H12 C14 1_555 1_555
C15 C14 1_555 1_555
H13 C15 1_555 1_555
H14 C15 1_555 1_555
C16 O4 1_555 1_555
H15 C16 1_555 1_555
H16 C16 1_555 1_555
O5 C17 1_555 1_555
O6 C17 1_555 1_555
O7 C19 1_555 1_555
O8 C28 1_555 1_555
C17 C18 1_555 1_555
C18 C19 1_555 1_555
C19 C20 1_555 1_555
C20 C21 1_555 1_555
C21 H17 1_555 1_555
C22 C21 1_555 1_555
H18 C22 1_555 1_555
C23 C22 1_555 1_555
H19 C23 1_555 1_555
C24 C23 1_555 1_555
H20 C24 1_555 1_555
C25 O6 1_555 1_555
C26 C18 1_555 1_555
H21 C26 1_555 1_555
H22 C26 1_555 1_555
C27 C26 1_555 1_555
H23 C27 1_555 1_555
C28 O7 1_555 1_555
H24 C28 1_555 1_555
C29 C27 1_555 1_555
H25 C29 1_555 1_555
H26 C29 1_555 1_555
C30 C29 1_555 1_555
H27 C30 1_555 1_555
H28 C30 1_555 1_555
C31 C30 1_555 1_555
H29 C31 1_555 1_555
H30 C31 1_555 1_555
C32 O8 1_555 1_555
H31 C32 1_555 1_555
H32 C32 1_555 1_555
C4 C9 1_555 1_555
C8 C9 1_555 1_555
C11 C12 1_555 1_555
C15 C16 1_555 1_555
C20 C25 1_555 1_555
C24 C25 1_555 1_555
C27 C28 1_555 1_555
C31 C32 1_555 1_555

#END
