
#######################################################################
#
#                 Cambridge Crystallographic Data Centre
#                                CCDC 
#
#######################################################################
#
# If this CIF has been generated from an entry in the Cambridge 
# Structural Database, then it will include bibliographic, chemical, 
# crystal, experimental, refinement or atomic coordinate data resulting 
# from the CCDC's data processing and validation procedures.
#
#######################################################################

data_RUFNAJ
_chemical_formula_moiety         'C11 H12 O4'
_chemical_name_systematic        
7-methyl-2,3,3a,9a-tetrahydro-4H,5H-furo[2,3-b]pyrano[3,4-e]pyran-5-one
_symmetry_cell_setting           triclinic
_symmetry_space_group_name_H-M   'P -1'
_symmetry_Int_Tables_number      2
_space_group_name_Hall           '-P 1'
loop_
_symmetry_equiv_pos_site_id
_symmetry_equiv_pos_as_xyz
1 x,y,z
2 -x,-y,-z
_cell_length_a                   7.0387(5)
_cell_length_b                   8.9608(8)
_cell_length_c                   9.3606(9)
_cell_angle_alpha                111.215(9)
_cell_angle_beta                 102.239(8)
_cell_angle_gamma                107.014(7)
_cell_volume                     491.697
_exptl_crystal_colour            colorless
_exptl_crystal_description       plate
_cell_formula_units_Z            2
loop_
_atom_site_label
_atom_site_type_symbol
_atom_site_fract_x
_atom_site_fract_y
_atom_site_fract_z
O1 O 0.73000(13) 0.45441(12) 0.73780(11)
O2 O 0.49355(12) 0.54678(11) 0.81582(10)
O3 O 0.02340(12) 0.22325(11) 0.36832(10)
O4 O -0.12331(14) -0.02738(11) 0.12834(10)
C1 C 0.54615(18) 0.43848(15) 0.69656(14)
C2 C 0.38411(17) 0.32161(14) 0.53935(13)
C3 C 0.18715(17) 0.32514(14) 0.51208(13)
C4 C 0.14003(18) 0.43809(15) 0.63910(14)
H1 H 0.0018 0.4378 0.6192
C5 C 0.29329(18) 0.54432(15) 0.78636(14)
C6 C 0.2762(2) 0.67021(18) 0.93294(15)
H2 H 0.3112 0.6411 1.0237
H3 H 0.1307 0.6636 0.9075
H4 H 0.3755 0.7891 0.9645
C7 C 0.43657(18) 0.20044(15) 0.41046(14)
H5 H 0.5163 0.1455 0.4591
H6 H 0.5281 0.2680 0.3690
C8 C 0.23443(19) 0.05850(15) 0.26879(14)
H7 H 0.2722 0.0087 0.1700
C9 C 0.06272(19) 0.12096(15) 0.22444(14)
H8 H 0.0990 0.1896 0.1630
C10 C 0.1105(2) -0.09260(15) 0.29858(15)
H9 H 0.1668 -0.1844 0.2732
H10 H 0.1163 -0.0502 0.4135
C11 C -0.1152(2) -0.16081(17) 0.18011(16)
H11 H -0.1498 -0.2724 0.0842
H12 H -0.2188 -0.1814 0.2351
loop_
_geom_bond_atom_site_label_1
_geom_bond_atom_site_label_2
_geom_bond_site_symmetry_1
_geom_bond_site_symmetry_2
O1 C1 1_555 1_555
O2 C1 1_555 1_555
O3 C3 1_555 1_555
O4 C9 1_555 1_555
C1 C2 1_555 1_555
C2 C3 1_555 1_555
C3 C4 1_555 1_555
C4 H1 1_555 1_555
C5 O2 1_555 1_555
C6 C5 1_555 1_555
H2 C6 1_555 1_555
H3 C6 1_555 1_555
H4 C6 1_555 1_555
C7 C2 1_555 1_555
H5 C7 1_555 1_555
H6 C7 1_555 1_555
C8 C7 1_555 1_555
H7 C8 1_555 1_555
C9 O3 1_555 1_555
H8 C9 1_555 1_555
C10 C8 1_555 1_555
H9 C10 1_555 1_555
H10 C10 1_555 1_555
C11 O4 1_555 1_555
H11 C11 1_555 1_555
H12 C11 1_555 1_555
C4 C5 1_555 1_555
C8 C9 1_555 1_555
C10 C11 1_555 1_555

#END
