
#######################################################################
#
#                 Cambridge Crystallographic Data Centre
#                                CCDC 
#
#######################################################################
#
# If this CIF has been generated from an entry in the Cambridge 
# Structural Database, then it will include bibliographic, chemical, 
# crystal, experimental, refinement or atomic coordinate data resulting 
# from the CCDC's data processing and validation procedures.
#
#######################################################################

data_RUFWUL
_chemical_formula_moiety         'C15 H16 N1 1+,Cl1 O4 1-'
_chemical_name_systematic        
'1-Phenyl-2-(1-ethylpyridinium-4-yl)ethylene perchlorate'
_symmetry_cell_setting           monoclinic
_symmetry_space_group_name_H-M   'P 21/c'
_symmetry_Int_Tables_number      14
_space_group_name_Hall           '-P 2ybc'
loop_
_symmetry_equiv_pos_site_id
_symmetry_equiv_pos_as_xyz
1 x,y,z
2 -x,1/2+y,1/2-z
3 -x,-y,-z
4 x,1/2-y,1/2+z
_cell_length_a                   7.1830(2)
_cell_length_b                   14.1022(4)
_cell_length_c                   14.6166(4)
_cell_angle_alpha                90
_cell_angle_beta                 94.025(1)
_cell_angle_gamma                90
_cell_volume                     1476.95
_cell_formula_units_Z            4
_exptl_crystal_recrystallization_method 'ethyl acetate/hexane/acetonitrile'
loop_
_atom_site_label
_atom_site_type_symbol
_atom_site_fract_x
_atom_site_fract_y
_atom_site_fract_z
Cl1 Cl 0.27284(6) 0.78520(3) 0.47279(3)
O1 O 0.3008(2) 0.88412(9) 0.49289(10)
O2 O 0.1767(3) 0.77641(11) 0.38325(12)
O3 O 0.4480(2) 0.73768(11) 0.47265(12)
O4 O 0.1587(3) 0.74207(11) 0.53791(12)
N1 N 0.09826(18) 0.44833(10) 0.78618(9)
C1 C 0.1461(2) 0.53428(13) 0.75583(12)
C2 C 0.0922(2) 0.37328(14) 0.72842(13)
C3 C 0.1907(4) 0.5515(2) 0.6699(2)
C4 C 0.1932(3) 0.4764(3) 0.60650(17)
C5 C 0.1408(5) 0.3866(3) 0.6373(3)
C6 C 0.2463(3) 0.49574(16) 0.51367(15)
C7 C 0.2671(3) 0.42920(18) 0.45032(15)
C8 C 0.3185(4) 0.4452(3) 0.3563(2)
C9 C 0.3390(7) 0.3668(3) 0.2988(3)
C10 C 0.3454(7) 0.5360(3) 0.3204(3)
H1 H 0.223(3) 0.6136(17) 0.6517(15)
H2 H 0.130(3) 0.3355(18) 0.6006(18)
H3 H 0.266(3) 0.5581(18) 0.5017(16)
H4 H 0.247(3) 0.3639(19) 0.4670(18)
H5 H 0.328(3) 0.3053(18) 0.3237(16)
H6 H 0.337(3) 0.5934(18) 0.3552(17)
C19 C 0.3815(3) 0.37894(16) 0.21101(14)
C20 C 0.4058(2) 0.46768(15) 0.17348(12)
C21 C 0.3897(2) 0.54816(14) 0.22686(13)
C22 C 0.0525(3) 0.43504(17) 0.88306(12)
C23 C 0.2061(3) 0.38606(15) 0.93987(12)
H13 H 0.152(3) 0.5856(15) 0.8017(14)
H14 H 0.053(3) 0.3174(16) 0.7527(15)
H15 H 0.395(3) 0.3252(18) 0.1763(17)
H16 H 0.434(3) 0.4744(15) 0.1136(15)
H17 H 0.404(3) 0.6097(16) 0.1995(15)
H18 H -0.061(3) 0.3999(16) 0.8803(15)
H19 H 0.025(3) 0.4965(19) 0.9056(17)
H20 H 0.167(3) 0.3784(15) 1.0030(15)
H21 H 0.320(3) 0.4199(16) 0.9424(15)
H22 H 0.224(3) 0.3254(19) 0.9159(17)
C11? C 0.1908(19) 0.5220(10) 0.6501(10)
H7? H 0.2279 0.5759 0.6168
C12? C 0.1765(15) 0.4358(12) 0.6071(9)
C13? C 0.125(3) 0.3583(12) 0.6561(11)
H8? H 0.1182 0.2963 0.6306
C14? C 0.2228(12) 0.4258(7) 0.5086(6)
H9? H 0.2085 0.3645 0.4822
C15? C 0.2810(12) 0.4934(8) 0.4554(7)
H10? H 0.2963 0.5548 0.4816
C16? C 0.3257(19) 0.4820(11) 0.3566(10)
C17? C 0.339(3) 0.3933(13) 0.3182(12)
H11? H 0.3231 0.3389 0.3553
C18? C 0.359(3) 0.5587(14) 0.3038(13)
H12? H 0.3567 0.6206 0.3293
loop_
_geom_bond_atom_site_label_1
_geom_bond_atom_site_label_2
_geom_bond_site_symmetry_1
_geom_bond_site_symmetry_2
Cl1 O1 1_555 1_555
O2 Cl1 1_555 1_555
O3 Cl1 1_555 1_555
O4 Cl1 1_555 1_555
N1 C1 1_555 1_555
C1 C3 1_555 1_555
C2 N1 1_555 1_555
C3 C4 1_555 1_555
C4 C5 1_555 1_555
C5 C2 1_555 1_555
C6 C4 1_555 1_555
C7 C6 1_555 1_555
C8 C7 1_555 1_555
C9 C8 1_555 1_555
C10 C8 1_555 1_555
H1 C3 1_555 1_555
H2 C5 1_555 1_555
H3 C6 1_555 1_555
H4 C7 1_555 1_555
H5 C9 1_555 1_555
H6 C10 1_555 1_555
C19 C9 1_555 1_555
C20 C19 1_555 1_555
C21 C10 1_555 1_555
C22 N1 1_555 1_555
C23 C22 1_555 1_555
H13 C1 1_555 1_555
H14 C2 1_555 1_555
H15 C19 1_555 1_555
H16 C20 1_555 1_555
H17 C21 1_555 1_555
H18 C22 1_555 1_555
H19 C22 1_555 1_555
H20 C23 1_555 1_555
H21 C23 1_555 1_555
H22 C23 1_555 1_555
C20 C21 1_555 1_555

#END
