
#######################################################################
#
#                 Cambridge Crystallographic Data Centre
#                                CCDC 
#
#######################################################################
#
# If this CIF has been generated from an entry in the Cambridge 
# Structural Database, then it will include bibliographic, chemical, 
# crystal, experimental, refinement or atomic coordinate data resulting 
# from the CCDC's data processing and validation procedures.
#
#######################################################################

data_RUFXUM
_chemical_formula_moiety         'C5 H2 Cl2 N8'
_chemical_name_systematic        4-Amino-3,5-dichloro--2,6-ditriazidopyridine
_symmetry_cell_setting           orthorhombic
_symmetry_space_group_name_H-M   'P 21 21 2'
_symmetry_Int_Tables_number      18
_space_group_name_Hall           'P 2 2ab'
loop_
_symmetry_equiv_pos_site_id
_symmetry_equiv_pos_as_xyz
1 x,y,z
2 -x,-y,z
3 1/2-x,1/2+y,-z
4 1/2+x,1/2-y,-z
_cell_length_a                   13.690(3)
_cell_length_b                   3.716(1)
_cell_length_c                   8.986(2)
_cell_angle_alpha                90
_cell_angle_beta                 90
_cell_angle_gamma                90
_cell_volume                     457.136
_exptl_crystal_colour            'pale yellow'
_cell_formula_units_Z            2
loop_
_atom_site_label
_atom_site_type_symbol
_atom_site_fract_x
_atom_site_fract_y
_atom_site_fract_z
Cl1 Cl 0.82143(9) 0.1990(4) 0.87981(14)
C1 C 0.9251(3) 0.3704(15) 0.6341(5)
C2 C 0.9208(3) 0.3660(16) 0.7872(5)
C3 C 1.0000 0.5000 0.8680(9)
N1 N 1.0000 0.5000 0.5567(6)
N2 N 1.0000 0.5000 1.0184(7)
N3 N 0.8446(3) 0.2289(16) 0.5568(4)
N4 N 0.8585(3) 0.2170(17) 0.4198(5)
N5 N 0.8636(4) 0.190(2) 0.2966(6)
H1 H 0.9486 0.4099 1.0710
Cl1A Cl 1.17857(9) 0.8010(4) 0.87981(14)
C1A C 1.0749(3) 0.6296(15) 0.6341(5)
C2A C 1.0792(3) 0.6340(16) 0.7872(5)
N3A N 1.1554(3) 0.7711(16) 0.5568(4)
N4A N 1.1415(3) 0.7830(17) 0.4198(5)
N5A N 1.1364(4) 0.810(2) 0.2966(6)
H1A H 1.0514 0.5901 1.0710
loop_
_geom_bond_atom_site_label_1
_geom_bond_atom_site_label_2
_geom_bond_site_symmetry_1
_geom_bond_site_symmetry_2
Cl1 C2 1_555 1_555
C1 C2 1_555 1_555
C2 C3 1_555 1_555
C3 N2 1_555 1_555
N1 C1 1_555 1_555
N2 H1 1_555 1_555
N3 C1 1_555 1_555
N4 N3 1_555 1_555
N5 N4 1_555 1_555
Cl1A C2A 1_555 1_555
C1A N1 1_555 1_555
C2A C3 1_555 1_555
N3A C1A 1_555 1_555
N4A N3A 1_555 1_555
N5A N4A 1_555 1_555
H1A N2 1_555 1_555
C1A C2A 1_555 1_555

#END
