
#######################################################################
#
#                 Cambridge Crystallographic Data Centre
#                                CCDC 
#
#######################################################################
#
# If this CIF has been generated from an entry in the Cambridge 
# Structural Database, then it will include bibliographic, chemical, 
# crystal, experimental, refinement or atomic coordinate data resulting 
# from the CCDC's data processing and validation procedures.
#
#######################################################################

data_RUFXOG
_chemical_formula_moiety         'C19 H26 N2 2+,0.5(C38 H52 N4 4+),4(Cl1 O4 1-)'
_chemical_name_systematic        
'1-(4-(Dimethyl(ethyl)ammonio)phenyl)-2-(1-ethylpyridinium-4-yl)ethylene 1,2-bis(dimethyl(ethyl)ammoniophenyl)-3,4-bis(1-ethypyridinium-4-yl)cyclobutane diperchlorate'
_symmetry_cell_setting           orthorhombic
_symmetry_space_group_name_H-M   'I b c a'
_symmetry_Int_Tables_number      73
_space_group_name_Hall           '-I 2b 2c'
loop_
_symmetry_equiv_pos_site_id
_symmetry_equiv_pos_as_xyz
1 x,y,z
2 1/2+x,1/2+y,1/2+z
3 1/2-x,-y,1/2+z
4 -x,1/2+y,1/2-z
5 1/2+x,1/2-y,-z
6 -x,1/2-y,z
7 1/2-x,y,-z
8 x,-y,1/2-z
9 -x,-y,-z
10 1/2-x,1/2-y,1/2-z
11 1/2+x,y,1/2-z
12 x,1/2-y,1/2+z
13 1/2-x,1/2+y,z
14 x,1/2+y,-z
15 1/2+x,-y,z
16 -x,y,1/2+z
_cell_length_a                   12.944(3)
_cell_length_b                   21.557(4)
_cell_length_c                   31.536(6)
_cell_angle_alpha                90
_cell_angle_beta                 90
_cell_angle_gamma                90
_cell_volume                     8799.61
_exptl_crystal_colour            'light orange'
_exptl_crystal_description       block
_cell_formula_units_Z            8
_exptl_crystal_preparation       'irradiated product'
loop_
_atom_site_label
_atom_site_type_symbol
_atom_site_fract_x
_atom_site_fract_y
_atom_site_fract_z
N1 N 1.3918(15) -0.5827(7) -0.0838(5)
N2 N 1.3017(15) -0.8492(8) 0.1973(4)
C1 C 1.3340(17) -0.7911(11) 0.2008(6)
H1 H 1.3293 -0.7723 0.2280
C2 C 1.3714(12) -0.7580(7) 0.1702(5)
H2 H 1.4075 -0.7203 0.1751
C3 C 1.3556(12) -0.7802(8) 0.1317(5)
C4 C 1.3092(14) -0.8365(7) 0.1238(4)
H3 H 1.2906 -0.8497 0.0961
C5 C 1.2921(13) -0.8715(7) 0.1590(6)
H4 H 1.2726 -0.9137 0.1556
C8 C 1.456(3) -0.7339(12) 0.1005(8)
C9 C 1.428(3) -0.7536(15) 0.0497(9)
C10 C 1.3916(10) -0.7108(6) 0.0212(4)
C11 C 1.3777(9) -0.7267(7) -0.0162(5)
H9 H 1.3715 -0.7701 -0.0205
C12 C 1.3699(11) -0.6905(7) -0.0530(4)
H10 H 1.3574 -0.7074 -0.0803
C13 C 1.3822(14) -0.6276(8) -0.0454(5)
C14 C 1.4173(15) -0.6098(7) -0.0048(6)
H11 H 1.4496 -0.5708 -0.0001
C15 C 1.4032(11) -0.6500(8) 0.0265(4)
H12 H 1.4013 -0.6343 0.0547
C16 C 1.383(2) -0.6149(10) -0.1249(6)
H13 H 1.3826 -0.5843 -0.1478
H14 H 1.3191 -0.6390 -0.1256
H15 H 1.4424 -0.6428 -0.1285
C17 C 1.300(2) -0.5400(12) -0.0813(7)
H16 H 1.3003 -0.5119 -0.1057
H17 H 1.3037 -0.5157 -0.0550
H18 H 1.2363 -0.5645 -0.0814
C18 C 1.4858(19) -0.5466(14) -0.0805(10)
H19 H 1.4958 -0.5299 -0.0515
H20 H 1.4873 -0.5121 -0.1012
C19 C 1.564(2) -0.5961(14) -0.0911(7)
H21 H 1.6339 -0.5802 -0.0858
H22 H 1.5575 -0.6076 -0.1210
H23 H 1.5519 -0.6327 -0.0733
C24 C 1.2493(13) -0.8861(8) 0.2354(5)
H35 H 1.2131 -0.8580 0.2552
H36 H 1.2006 -0.9182 0.2250
C25 C 1.3442(17) -0.9146(8) 0.2553(6)
H37 H 1.3238 -0.9401 0.2796
H38 H 1.3908 -0.8816 0.2648
H39 H 1.3797 -0.9406 0.2343
N1E N 1.6082(15) -0.9173(7) -0.0838(5)
N2E N 1.6983(15) -0.6508(8) 0.1973(4)
C1E C 1.6660(17) -0.7089(11) 0.2008(6)
H1E H 1.6707 -0.7277 0.2280
C2E C 1.6286(12) -0.7420(7) 0.1702(5)
H2E H 1.5925 -0.7797 0.1751
C3E C 1.6444(12) -0.7198(8) 0.1317(5)
C4E C 1.6908(14) -0.6635(7) 0.1238(4)
H3E H 1.7094 -0.6503 0.0961
C5E C 1.7079(13) -0.6285(7) 0.1590(6)
H4E H 1.7274 -0.5863 0.1556
C8E C 1.544(3) -0.7661(12) 0.1005(8)
C9E C 1.572(3) -0.7464(15) 0.0497(9)
C10E C 1.6084(10) -0.7892(6) 0.0212(4)
C11E C 1.6223(9) -0.7733(7) -0.0162(5)
H9E H 1.6285 -0.7299 -0.0205
C12E C 1.6301(11) -0.8095(7) -0.0530(4)
H10E H 1.6426 -0.7926 -0.0803
C13E C 1.6178(14) -0.8724(8) -0.0454(5)
C14E C 1.5827(15) -0.8902(7) -0.0048(6)
H11E H 1.5504 -0.9292 -0.0001
C15E C 1.5968(11) -0.8500(8) 0.0265(4)
H12E H 1.5987 -0.8657 0.0547
C16E C 1.617(2) -0.8851(10) -0.1249(6)
H13E H 1.6174 -0.9157 -0.1478
H14E H 1.6809 -0.8610 -0.1256
H15E H 1.5576 -0.8572 -0.1285
C17E C 1.700(2) -0.9600(12) -0.0813(7)
H16E H 1.6997 -0.9881 -0.1057
H17E H 1.6963 -0.9843 -0.0550
H18E H 1.7637 -0.9355 -0.0814
C18E C 1.5142(19) -0.9534(14) -0.0805(10)
H19E H 1.5042 -0.9701 -0.0515
H20E H 1.5127 -0.9879 -0.1012
C19E C 1.436(2) -0.9039(14) -0.0911(7)
H21E H 1.3661 -0.9198 -0.0858
H22E H 1.4425 -0.8924 -0.1210
H23E H 1.4481 -0.8673 -0.0733
C24E C 1.7507(13) -0.6139(8) 0.2354(5)
H35E H 1.7869 -0.6420 0.2552
H36E H 1.7994 -0.5818 0.2250
C25E C 1.6558(17) -0.5854(8) 0.2553(6)
H37E H 1.6762 -0.5599 0.2796
H38E H 1.6092 -0.6184 0.2648
H39E H 1.6203 -0.5594 0.2343
Cl1 Cl 1.0636(6) -0.5591(3) -0.16193(13)
O1 O 1.0517(11) -0.5752(6) -0.1181(3)
O2 O 0.9642(13) -0.5203(5) -0.1730(3)
O3 O 1.0606(13) -0.6123(5) -0.1903(4)
O4 O 1.1441(14) -0.5229(7) -0.1674(4)
Cl2? Cl 1.2500 -0.4174(3) 0.0000
O5? O 1.2229(19) -0.3675(7) -0.0226(6)
O6? O 1.1991(15) -0.4660(7) -0.0187(6)
O7? O 1.3442(10) -0.4248(8) 0.0055(7)
O8? O 1.2014(18) -0.4120(9) 0.0387(5)
Cl3? Cl 1.5000 -0.7500 -0.1841(4)
O9? O 1.4569(19) -0.7803(9) -0.2154(7)
O10? O 1.506(2) -0.6901(8) -0.1954(6)
O11? O 1.5951(13) -0.7698(13) -0.1772(7)
O12? O 1.4455(14) -0.7548(12) -0.1494(5)
C6? C 1.385(4) -0.7397(11) 0.0939(9)
H5? H 1.4142 -0.6998 0.0981
C7? C 1.367(3) -0.7624(13) 0.0519(8)
H6? H 1.3434 -0.8029 0.0447
H7? H 1.4610 -0.6885 0.1069
H8? H 1.4009 -0.7966 0.0458
C20? C 1.484(2) -0.5975(14) -0.1106(11)
H24? H 1.4864 -0.5695 -0.1350
H25? H 1.4797 -0.6405 -0.1205
H26? H 1.5473 -0.5923 -0.0937
C21? C 1.410(3) -0.5158(10) -0.0712(9)
H27? H 1.4069 -0.4894 -0.0965
H28? H 1.4777 -0.5118 -0.0578
H29? H 1.3561 -0.5028 -0.0511
C22? C 1.301(3) -0.5832(18) -0.1124(15)
H30? H 1.2453 -0.6059 -0.0974
H31? H 1.3199 -0.6088 -0.1373
C23? C 1.254(4) -0.5251(18) -0.1293(13)
H32? H 1.1836 -0.5340 -0.1396
H33? H 1.2957 -0.5092 -0.1527
H34? H 1.2502 -0.4940 -0.1067
loop_
_geom_bond_atom_site_label_1
_geom_bond_atom_site_label_2
_geom_bond_site_symmetry_1
_geom_bond_site_symmetry_2
Cl1 O1 1_555 1_555
O2 Cl1 1_555 1_555
O3 Cl1 1_555 1_555
O4 Cl1 1_555 1_555
N1 C13 1_555 1_555
N2 C1 1_555 1_555
C1 H1 1_555 1_555
C2 C1 1_555 1_555
H2 C2 1_555 1_555
C3 C2 1_555 1_555
C4 C3 1_555 1_555
H3 C4 1_555 1_555
C5 N2 1_555 1_555
H4 C5 1_555 1_555
C8 C3 1_555 1_555
C9 C8 1_555 1_555
C10 C9 1_555 1_555
C11 C10 1_555 1_555
H9 C11 1_555 1_555
C12 C11 1_555 1_555
H10 C12 1_555 1_555
C13 C12 1_555 1_555
C14 C13 1_555 1_555
H11 C14 1_555 1_555
C15 C10 1_555 1_555
H12 C15 1_555 1_555
C16 N1 1_555 1_555
H13 C16 1_555 1_555
H14 C16 1_555 1_555
H15 C16 1_555 1_555
C17 N1 1_555 1_555
H16 C17 1_555 1_555
H17 C17 1_555 1_555
H18 C17 1_555 1_555
C18 N1 1_555 1_555
H19 C18 1_555 1_555
H20 C18 1_555 1_555
C19 C18 1_555 1_555
H21 C19 1_555 1_555
H22 C19 1_555 1_555
H23 C19 1_555 1_555
C24 N2 1_555 1_555
H35 C24 1_555 1_555
H36 C24 1_555 1_555
C25 C24 1_555 1_555
H37 C25 1_555 1_555
H38 C25 1_555 1_555
H39 C25 1_555 1_555
N1E C13E 1_555 1_555
N2E C1E 1_555 1_555
C1E H1E 1_555 1_555
C2E C1E 1_555 1_555
H2E C2E 1_555 1_555
C3E C2E 1_555 1_555
C4E C3E 1_555 1_555
H3E C4E 1_555 1_555
C5E N2E 1_555 1_555
H4E C5E 1_555 1_555
C8E C8 1_555 1_555
C9E C9 1_555 1_555
C10E C9E 1_555 1_555
C11E C10E 1_555 1_555
H9E C11E 1_555 1_555
C12E C11E 1_555 1_555
H10E C12E 1_555 1_555
C13E C12E 1_555 1_555
C14E C13E 1_555 1_555
H11E C14E 1_555 1_555
C15E C10E 1_555 1_555
H12E C15E 1_555 1_555
C16E N1E 1_555 1_555
H13E C16E 1_555 1_555
H14E C16E 1_555 1_555
H15E C16E 1_555 1_555
C17E N1E 1_555 1_555
H16E C17E 1_555 1_555
H17E C17E 1_555 1_555
H18E C17E 1_555 1_555
C18E N1E 1_555 1_555
H19E C18E 1_555 1_555
H20E C18E 1_555 1_555
C19E C18E 1_555 1_555
H21E C19E 1_555 1_555
H22E C19E 1_555 1_555
H23E C19E 1_555 1_555
C24E N2E 1_555 1_555
H35E C24E 1_555 1_555
H36E C24E 1_555 1_555
C25E C24E 1_555 1_555
H37E C25E 1_555 1_555
H38E C25E 1_555 1_555
H39E C25E 1_555 1_555
C4 C5 1_555 1_555
C14 C15 1_555 1_555
C3E C8E 1_555 1_555
C4E C5E 1_555 1_555
C8E C9E 1_555 1_555
C14E C15E 1_555 1_555

#END
