
#######################################################################
#
#                 Cambridge Crystallographic Data Centre
#                                CCDC 
#
#######################################################################
#
# If this CIF has been generated from an entry in the Cambridge 
# Structural Database, then it will include bibliographic, chemical, 
# crystal, experimental, refinement or atomic coordinate data resulting 
# from the CCDC's data processing and validation procedures.
#
#######################################################################

data_RUFXEW
_chemical_formula_moiety         'C30 H32 N2 2+,2(Cl1 O4 1-),C6 H6'
_chemical_name_systematic        
'1,3-Diphenyl-2,4-(1-ethypyridinium-4-yl)cyclobutane diperchlorate benzene solvate'
_symmetry_cell_setting           triclinic
_symmetry_space_group_name_H-M   'P -1'
_symmetry_Int_Tables_number      2
_space_group_name_Hall           '-P 1'
loop_
_symmetry_equiv_pos_site_id
_symmetry_equiv_pos_as_xyz
1 x,y,z
2 -x,-y,-z
_cell_length_a                   8.4660(7)
_cell_length_b                   10.3886(9)
_cell_length_c                   10.9506(10)
_cell_angle_alpha                96.955(4)
_cell_angle_beta                 101.107(4)
_cell_angle_gamma                112.839(4)
_cell_volume                     850.298
_exptl_crystal_colour            colorless
_exptl_crystal_description       block
_cell_formula_units_Z            1
_exptl_crystal_preparation       'irradiated product'
loop_
_atom_site_label
_atom_site_type_symbol
_atom_site_fract_x
_atom_site_fract_y
_atom_site_fract_z
Cl1 Cl 0.71257(15) 0.27959(11) 0.23482(10)
O1 O 0.6102(6) 0.1328(4) 0.1840(5)
O2 O 0.8655(8) 0.2732(9) 0.3215(7)
O3 O 0.7783(15) 0.3664(13) 0.1537(10)
O4 O 0.6198(11) 0.3217(7) 0.3055(7)
N1 N 0.7686(10) 0.4468(6) -0.1664(7)
C1 C 0.8102(10) 0.4622(8) -0.2785(8)
H1 H 0.8664 0.5553 -0.2939
C2 C 0.7736(11) 0.3490(9) -0.3665(9)
H2 H 0.8103 0.3644 -0.4422
C3 C 0.6882(14) 0.2140(10) -0.3563(10)
C4 C 0.6473(16) 0.1955(10) -0.2409(10)
H3 H 0.5923 0.1017 -0.2267
C5 C 0.6867(16) 0.3139(9) -0.1459(9)
H4 H 0.6563 0.3014 -0.0676
C6 C 0.6230(8) 0.1029(5) -0.4681(5)
H5 H 0.7029 0.1298 -0.5260
C7 C 0.5778(6) -0.0539(4) -0.4547(4)
H6 H 0.5836 -0.0602 -0.3637
C8 C 0.6789(6) -0.1312(4) -0.5079(4)
C9 C 0.6551(6) -0.2632(4) -0.4794(4)
H7 H 0.5911 -0.2977 -0.4191
C10 C 0.725(2) -0.3427(14) -0.5397(14)
H8 H 0.7137 -0.4308 -0.5170
C11 C 0.8144(16) -0.2991(13) -0.6344(11)
H9 H 0.8583 -0.3590 -0.6754
C12 C 0.838(2) -0.1712(15) -0.6676(13)
H10 H 0.8922 -0.1412 -0.7335
C13 C 0.7740(16) -0.0850(13) -0.5955(12)
H11 H 0.7988 0.0087 -0.6091
C14 C 0.8074(16) 0.5739(11) -0.0676(12)
H12 H 0.8561 0.5607 0.0173
H13 H 0.8979 0.6599 -0.0842
C15 C 0.656(2) 0.5938(17) -0.068(2)
H14 H 0.6835 0.6764 -0.0004
H15 H 0.5658 0.5081 -0.0526
H16 H 0.6108 0.6111 -0.1507
N1A N 0.2314(10) -0.4468(6) -0.8336(7)
C1A C 0.1898(10) -0.4622(8) -0.7215(8)
H1A H 0.1336 -0.5553 -0.7061
C2A C 0.2264(11) -0.3490(9) -0.6335(9)
H2A H 0.1897 -0.3644 -0.5578
C3A C 0.3118(14) -0.2140(10) -0.6437(10)
C4A C 0.3527(16) -0.1955(10) -0.7591(10)
H3A H 0.4077 -0.1017 -0.7733
C5A C 0.3133(16) -0.3139(9) -0.8541(9)
H4A H 0.3437 -0.3014 -0.9324
C6A C 0.3770(8) -0.1029(5) -0.5319(5)
H5A H 0.2971 -0.1298 -0.4740
C7A C 0.4222(6) 0.0539(4) -0.5453(4)
H6A H 0.4164 0.0602 -0.6363
C8A C 0.3211(6) 0.1312(4) -0.4921(4)
C9A C 0.3449(6) 0.2632(4) -0.5206(4)
H7A H 0.4089 0.2977 -0.5809
C10A C 0.275(2) 0.3427(14) -0.4603(14)
H8A H 0.2863 0.4308 -0.4830
C11A C 0.1856(16) 0.2991(13) -0.3656(11)
H9A H 0.1417 0.3590 -0.3246
C12A C 0.162(2) 0.1712(15) -0.3324(13)
H10A H 0.1078 0.1412 -0.2665
C13A C 0.2260(16) 0.0850(13) -0.4045(12)
H11A H 0.2012 -0.0087 -0.3909
C14A C 0.1926(16) -0.5739(11) -0.9324(12)
H12A H 0.1439 -0.5607 -1.0173
H13A H 0.1021 -0.6599 -0.9158
C15A C 0.344(2) -0.5938(17) -0.932(2)
H14A H 0.3165 -0.6764 -0.9996
H15A H 0.4342 -0.5081 -0.9474
H16A H 0.3892 -0.6111 -0.8493
C31 C 0.9886(9) 0.0605(7) 0.1143(6)
H33 H 0.9817 0.1026 0.1939
C32 C 0.8440(8) 0.0027(7) 0.0142(7)
H34 H 0.7355 0.0044 0.0234
C33 C 1.1471(8) 0.0587(7) 0.1014(6)
H35 H 1.2492 0.0995 0.1720
C31A C 1.0114(9) -0.0605(7) -0.1143(6)
H33A H 1.0183 -0.1026 -0.1939
C32A C 1.1560(8) -0.0027(7) -0.0142(7)
H34A H 1.2645 -0.0044 -0.0234
C33A C 0.8529(8) -0.0587(7) -0.1014(6)
H35A H 0.7508 -0.0995 -0.1720
O5? O 0.5798(14) 0.3505(12) 0.2014(16)
O6? O 0.798(2) 0.3493(14) 0.3608(10)
O7? O 0.831(2) 0.335(2) 0.158(2)
N2? N 0.709(2) 0.4369(13) -0.1337(13)
C16? C 0.773(3) 0.4612(18) -0.2344(16)
H17? H 0.8372 0.5568 -0.2414
C17? C 0.747(4) 0.349(2) -0.329(2)
H18? H 0.7905 0.3697 -0.4010
C18? C 0.658(2) 0.2054(19) -0.3223(15)
C19? C 0.601(3) 0.194(2) -0.2134(18)
H19? H 0.5423 0.1000 -0.2002
C20? C 0.622(3) 0.3039(15) -0.1237(19)
H20? H 0.5733 0.2858 -0.0529
C21? C 0.581(2) 0.0375(15) -0.4009(13)
H21? H 0.5979 -0.0275 -0.3445
C22? C 0.6311(13) 0.0142(10) -0.5232(9)
H22? H 0.7072 0.1076 -0.5406
C23? C 0.7126(13) -0.0946(10) -0.5411(9)
C24? C 0.6639(13) -0.2156(10) -0.4893(9)
H23? H 0.5899 -0.2248 -0.4328
C25? C 0.715(5) -0.317(4) -0.514(3)
H24? H 0.6684 -0.4018 -0.4829
C26? C 0.837(4) -0.301(3) -0.588(2)
H25? H 0.8836 -0.3691 -0.6069
C27? C 0.882(4) -0.173(3) -0.628(2)
H26? H 0.9758 -0.1515 -0.6679
C28? C 0.818(3) -0.077(3) -0.621(2)
H27? H 0.8441 -0.0031 -0.6669
C29? C 0.739(3) 0.5570(16) -0.0316(17)
H28? H 0.6884 0.6187 -0.0703
H29? H 0.6708 0.5174 0.0294
C30? C 0.9078(19) 0.6401(12) 0.0343(13)
H30? H 0.9158 0.7313 0.0783
H31? H 0.9841 0.6580 -0.0243
H32? H 0.9465 0.5916 0.0972
loop_
_geom_bond_atom_site_label_1
_geom_bond_atom_site_label_2
_geom_bond_site_symmetry_1
_geom_bond_site_symmetry_2
Cl1 O1 1_555 1_555
O2 Cl1 1_555 1_555
O3 Cl1 1_555 1_555
O4 Cl1 1_555 1_555
N1 C1 1_555 1_555
C1 H1 1_555 1_555
C2 C1 1_555 1_555
H2 C2 1_555 1_555
C3 C2 1_555 1_555
C4 C3 1_555 1_555
H3 C4 1_555 1_555
C5 N1 1_555 1_555
H4 C5 1_555 1_555
C6 C3 1_555 1_555
H5 C6 1_555 1_555
C7 C6 1_555 1_555
H6 C7 1_555 1_555
C8 C7 1_555 1_555
C9 C8 1_555 1_555
H7 C9 1_555 1_555
C10 C9 1_555 1_555
H8 C10 1_555 1_555
C11 C10 1_555 1_555
H9 C11 1_555 1_555
C12 C11 1_555 1_555
H10 C12 1_555 1_555
C13 C8 1_555 1_555
H11 C13 1_555 1_555
C14 N1 1_555 1_555
H12 C14 1_555 1_555
H13 C14 1_555 1_555
C15 C14 1_555 1_555
H14 C15 1_555 1_555
H15 C15 1_555 1_555
H16 C15 1_555 1_555
C31 H33 1_555 1_555
C32 C31 1_555 1_555
H34 C32 1_555 1_555
C33 C31 1_555 1_555
H35 C33 1_555 1_555
N1A C1A 1_555 1_555
C1A H1A 1_555 1_555
C2A C1A 1_555 1_555
H2A C2A 1_555 1_555
C3A C2A 1_555 1_555
C4A C3A 1_555 1_555
H3A C4A 1_555 1_555
C5A N1A 1_555 1_555
H4A C5A 1_555 1_555
C6A C7 1_555 1_555
H5A C6A 1_555 1_555
C7A C6 1_555 1_555
H6A C7A 1_555 1_555
C8A C7A 1_555 1_555
C9A C8A 1_555 1_555
H7A C9A 1_555 1_555
C10A C9A 1_555 1_555
H8A C10A 1_555 1_555
C11A C10A 1_555 1_555
H9A C11A 1_555 1_555
C12A C11A 1_555 1_555
H10A C12A 1_555 1_555
C13A C8A 1_555 1_555
H11A C13A 1_555 1_555
C14A N1A 1_555 1_555
H12A C14A 1_555 1_555
H13A C14A 1_555 1_555
C15A C14A 1_555 1_555
H14A C15A 1_555 1_555
H15A C15A 1_555 1_555
H16A C15A 1_555 1_555
C31A H33A 1_555 1_555
C32A C33 1_555 1_555
H34A C32A 1_555 1_555
C33A C32 1_555 1_555
H35A C33A 1_555 1_555
C4 C5 1_555 1_555
C12 C13 1_555 1_555
C3A C6A 1_555 1_555
C4A C5A 1_555 1_555
C6A C7A 1_555 1_555
C12A C13A 1_555 1_555
C31A C32A 1_555 1_555
C31A C33A 1_555 1_555

#END
