
#######################################################################
#
#                 Cambridge Crystallographic Data Centre
#                                CCDC 
#
#######################################################################
#
# If this CIF has been generated from an entry in the Cambridge 
# Structural Database, then it will include bibliographic, chemical, 
# crystal, experimental, refinement or atomic coordinate data resulting 
# from the CCDC's data processing and validation procedures.
#
#######################################################################

data_RUFYAT
_chemical_formula_moiety         'C3 H2 N10'
_chemical_name_systematic        2,6-Diazido-4-amino-1,3,5-triazine
_symmetry_cell_setting           triclinic
_symmetry_space_group_name_H-M   'P -1'
_symmetry_Int_Tables_number      2
_space_group_name_Hall           '-P 1'
loop_
_symmetry_equiv_pos_site_id
_symmetry_equiv_pos_as_xyz
1 x,y,z
2 -x,-y,-z
_cell_length_a                   6.947(1)
_cell_length_b                   7.622(2)
_cell_length_c                   7.969(2)
_cell_angle_alpha                117.89(1)
_cell_angle_beta                 93.96(1)
_cell_angle_gamma                101.91(1)
_cell_volume                     358.166
_exptl_crystal_colour            colorless
_cell_formula_units_Z            2
loop_
_atom_site_label
_atom_site_type_symbol
_atom_site_fract_x
_atom_site_fract_y
_atom_site_fract_z
C1 C 0.0709(2) -0.1624(2) 0.7039(2)
C2 C 0.2196(2) 0.1445(2) 0.7333(2)
C3 C 0.2024(2) -0.1427(2) 0.4617(2)
N1 N 0.26313(18) 0.06198(19) 0.55591(17)
N2 N 0.12427(19) 0.0459(2) 0.81575(18)
N3 N 0.10993(19) -0.2643(2) 0.52382(18)
N4 N -0.0255(2) -0.2754(2) 0.7736(2)
N5 N 0.2798(2) 0.3587(2) 0.85052(19)
N6 N 0.3622(2) 0.4502(2) 0.7653(2)
N7 N 0.4364(3) 0.5523(3) 0.7111(3)
N8 N 0.2346(2) -0.2516(2) 0.27263(18)
N9 N 0.3100(2) -0.1360(2) 0.20874(19)
N10 N 0.3757(3) -0.0516(3) 0.1347(2)
H1 H -0.0715 -0.1963 0.8950
H2 H -0.0735 -0.4329 0.6764
loop_
_geom_bond_atom_site_label_1
_geom_bond_atom_site_label_2
_geom_bond_site_symmetry_1
_geom_bond_site_symmetry_2
C1 N2 1_555 1_555
C2 N1 1_555 1_555
C3 N1 1_555 1_555
N2 C2 1_555 1_555
N3 C1 1_555 1_555
N4 C1 1_555 1_555
N5 C2 1_555 1_555
N6 N5 1_555 1_555
N7 N6 1_555 1_555
N8 C3 1_555 1_555
N9 N8 1_555 1_555
N10 N9 1_555 1_555
H1 N4 1_555 1_555
H2 N4 1_555 1_555
C3 N3 1_555 1_555

#END
