
#######################################################################
#
#                 Cambridge Crystallographic Data Centre
#                                CCDC 
#
#######################################################################
#
# If this CIF has been generated from an entry in the Cambridge 
# Structural Database, then it will include bibliographic, chemical, 
# crystal, experimental, refinement or atomic coordinate data resulting 
# from the CCDC's data processing and validation procedures.
#
#######################################################################

data_RUGHUW
_chemical_formula_moiety         'C27 H35 Br1 O3'
_chemical_name_systematic        7-O-(4-Bromobenzyl)rosenololactone
_chemical_properties_biological  
'cholesteryl ester transfer protein inhibitory activity'
_symmetry_cell_setting           monoclinic
_symmetry_space_group_name_H-M   'P 21'
_symmetry_Int_Tables_number      4
_space_group_name_Hall           'P 2yb'
loop_
_symmetry_equiv_pos_site_id
_symmetry_equiv_pos_as_xyz
1 x,y,z
2 -x,1/2+y,-z
_cell_length_a                   14.034(3)
_cell_length_b                   6.234(1)
_cell_length_c                   14.583(3)
_cell_angle_alpha                90
_cell_angle_beta                 107.94
_cell_angle_gamma                90
_cell_volume                     1213.81
_exptl_crystal_colour            colorless
_chemical_melting_point          154.3-155.5deg.C
_cell_formula_units_Z            2
_exptl_crystal_recrystallization_method acetone-hexane
loop_
_atom_site_label
_atom_site_type_symbol
_atom_site_fract_x
_atom_site_fract_y
_atom_site_fract_z
Br1 Br 0.1406(4) 0.0000 0.19121(4)
O1 O 0.2156(2) -0.3849(6) -0.2073(2)
O2 O 0.2514(3) -0.1350(6) -0.4954(3)
O3 O 0.1040(3) -0.0403(7) -0.5982(3)
C1 C 0.3618(4) -0.4171(12) -0.5127(4)
C2 C 0.2973(4) -0.4264(13) -0.6194(4)
C3 C 0.1914(4) -0.5097(11) -0.6358(4)
C4 C 0.1431(4) -0.4205(8) -0.5619(3)
C5 C 0.2107(3) -0.4854(8) -0.4612(3)
C6 C 0.1635(3) -0.4551(8) -0.3804(3)
C7 C 0.2378(3) -0.5070(8) -0.2820(3)
C8 C 0.3473(3) -0.4676(7) -0.2778(3)
C9 C 0.3613(3) -0.2792(8) -0.3409(3)
C10 C 0.3001(3) -0.3327(7) -0.4488(3)
C11 C 0.4750(4) -0.2601(11) -0.3281(4)
C12 C 0.5391(4) -0.2386(11) -0.2224(5)
C13 C 0.5264(3) -0.4264(8) -0.1588(4)
C14 C 0.4133(3) -0.4512(8) -0.1714(3)
C15 C 0.5766(4) -0.3642(11) -0.0536(5)
C16 C 0.6485(4) -0.4616(15) 0.0114(5)
C17 C 0.5697(4) -0.6319(12) -0.1858(6)
C18 C 0.0329(4) -0.4805(12) -0.5880(4)
C19 C 0.1597(4) -0.1805(9) -0.5567(3)
C20 C 0.3253(5) -0.0675(9) -0.3091(4)
C21 C 0.1277(4) -0.4500(15) -0.1889(4)
C22 C 0.1257(3) -0.3412(11) -0.0965(4)
C23 C 0.0845(4) -0.1433(12) -0.0967(4)
C24 C 0.0864(4) -0.0400(11) -0.0118(4)
C25 C 0.1343(3) -0.1419(10) 0.0743(3)
C26 C 0.1754(4) -0.3425(10) 0.0782(4)
C27 C 0.1725(4) -0.4439(10) -0.0081(4)
loop_
_geom_bond_atom_site_label_1
_geom_bond_atom_site_label_2
_geom_bond_site_symmetry_1
_geom_bond_site_symmetry_2
Br1 C25 1_555 1_555
O1 C7 1_555 1_555
O2 C10 1_555 1_555
O3 C19 1_555 1_555
C1 C2 1_555 1_555
C2 C3 1_555 1_555
C3 C4 1_555 1_555
C4 C5 1_555 1_555
C5 C6 1_555 1_555
C6 C7 1_555 1_555
C7 C8 1_555 1_555
C8 C9 1_555 1_555
C9 C10 1_555 1_555
C10 C1 1_555 1_555
C11 C9 1_555 1_555
C12 C11 1_555 1_555
C13 C12 1_555 1_555
C14 C8 1_555 1_555
C15 C13 1_555 1_555
C16 C15 1_555 1_555
C17 C13 1_555 1_555
C18 C4 1_555 1_555
C19 O2 1_555 1_555
C20 C9 1_555 1_555
C21 O1 1_555 1_555
C22 C21 1_555 1_555
C23 C22 1_555 1_555
C24 C23 1_555 1_555
C25 C24 1_555 1_555
C26 C25 1_555 1_555
C27 C22 1_555 1_555
C4 C19 1_555 1_555
C5 C10 1_555 1_555
C13 C14 1_555 1_555
C26 C27 1_555 1_555

#END
