
#######################################################################
#
#                 Cambridge Crystallographic Data Centre
#                                CCDC 
#
#######################################################################
#
# If this CIF has been generated from an entry in the Cambridge 
# Structural Database, then it will include bibliographic, chemical, 
# crystal, experimental, refinement or atomic coordinate data resulting 
# from the CCDC's data processing and validation procedures.
#
#######################################################################

data_RUGJAF
_chemical_name_common            
1-(4-(2-Chlorophenyl)-6-methyl-2-thioxo-1,2,3,4-tetrahydropyrimidin-5-yl)ethanone
_chemical_formula_moiety         'C13 H13 Cl1 N2 O1 S1'
_chemical_name_systematic        
5-Acetyl-4-(2-chlorophenyl)-6-methyl-3,4-dihydropyrimidine-2(1H)-thione
_symmetry_cell_setting           monoclinic
_symmetry_space_group_name_H-M   'P 21/c'
_symmetry_Int_Tables_number      14
_space_group_name_Hall           '-P 2ybc'
loop_
_symmetry_equiv_pos_site_id
_symmetry_equiv_pos_as_xyz
1 x,y,z
2 -x,1/2+y,1/2-z
3 -x,-y,-z
4 x,1/2-y,1/2+z
_cell_length_a                   7.2346(12)
_cell_length_b                   22.585(3)
_cell_length_c                   8.0941(15)
_cell_angle_alpha                90
_cell_angle_beta                 106.177(17)
_cell_angle_gamma                90
_cell_volume                     1270.16
_exptl_crystal_colour            colorless
_exptl_crystal_description       'triangular plate'
_chemical_melting_point          '484.5 K'
_cell_formula_units_Z            4
_exptl_crystal_recrystallization_method ethanol
loop_
_atom_site_label
_atom_site_type_symbol
_atom_site_fract_x
_atom_site_fract_y
_atom_site_fract_z
Cl1 Cl 0.66371(12) 0.18610(4) 0.75112(12)
S1 S 0.80912(11) 0.01280(4) 0.64291(10)
O1 O 0.1673(3) 0.10482(11) 1.0187(3)
N1 N 0.7634(4) 0.06358(13) 0.9244(3)
N2 N 0.4871(4) 0.05026(12) 0.7069(3)
C1 C 0.6750(5) 0.04420(15) 0.7613(4)
C2 C 0.3680(4) 0.08463(14) 0.7922(4)
C3 C 0.4719(5) 0.09279(14) 0.9816(4)
C4 C 0.6658(5) 0.08508(15) 1.0377(4)
C5 C 0.3405(5) 0.10641(14) 1.0875(4)
C6 C 0.4118(5) 0.12310(17) 1.2760(4)
C7 C 0.2962(5) 0.14262(14) 0.6951(4)
C8 C 0.4137(5) 0.18851(15) 0.6678(4)
C9 C 0.3389(6) 0.23843(16) 0.5701(5)
C10 C 0.1437(6) 0.24424(16) 0.5040(5)
C11 C 0.0217(5) 0.20019(17) 0.5320(5)
C12 C 0.0963(5) 0.15024(15) 0.6247(4)
C13 C 0.7992(5) 0.09730(19) 1.2130(4)
H1 H 0.882(5) 0.0629(17) 0.962(5)
H2 H 0.422(7) 0.032(2) 0.611(7)
H3 H 0.25121 0.06016 0.78665
H4 H 0.30167 0.13196 1.31997
H5 H 0.49480 0.15808 1.28872
H6 H 0.48517 0.09005 1.34108
H7 H 0.42279 0.26815 0.54971
H8 H 0.09168 0.27837 0.43890
H9 H -0.11364 0.20451 0.48713
H10 H 0.01111 0.12031 0.64156
H11 H 0.78706 0.13886 1.24330
H12 H 0.93214 0.08937 1.21223
H13 H 0.76544 0.07166 1.29790
loop_
_geom_bond_atom_site_label_1
_geom_bond_atom_site_label_2
_geom_bond_site_symmetry_1
_geom_bond_site_symmetry_2
Cl1 C8 1_555 1_555
S1 C1 1_555 1_555
O1 C5 1_555 1_555
N1 C1 1_555 1_555
N2 C1 1_555 1_555
C2 N2 1_555 1_555
C3 C2 1_555 1_555
C4 N1 1_555 1_555
C5 C3 1_555 1_555
C6 C5 1_555 1_555
C7 C2 1_555 1_555
C8 C7 1_555 1_555
C9 C8 1_555 1_555
C10 C9 1_555 1_555
C11 C10 1_555 1_555
C12 C7 1_555 1_555
C13 C4 1_555 1_555
H1 N1 1_555 1_555
H2 N2 1_555 1_555
H3 C2 1_555 1_555
H4 C6 1_555 1_555
H5 C6 1_555 1_555
H6 C6 1_555 1_555
H7 C9 1_555 1_555
H8 C10 1_555 1_555
H9 C11 1_555 1_555
H10 C12 1_555 1_555
H11 C13 1_555 1_555
H12 C13 1_555 1_555
H13 C13 1_555 1_555
C3 C4 1_555 1_555
C11 C12 1_555 1_555

#END
