
#######################################################################
#
#                 Cambridge Crystallographic Data Centre
#                                CCDC 
#
#######################################################################
#
# If this CIF has been generated from an entry in the Cambridge 
# Structural Database, then it will include bibliographic, chemical, 
# crystal, experimental, refinement or atomic coordinate data resulting 
# from the CCDC's data processing and validation procedures.
#
#######################################################################

data_RUGJIN
_chemical_formula_moiety         'C15 H12 Br1 Cl1 O2'
_chemical_name_systematic        
(5-Bromo-2-chlorophenyl)(4-ethoxyphenyl)methanone
_symmetry_cell_setting           orthorhombic
_symmetry_space_group_name_H-M   'P b c a'
_symmetry_Int_Tables_number      61
_space_group_name_Hall           '-P 2ac 2ab'
loop_
_symmetry_equiv_pos_site_id
_symmetry_equiv_pos_as_xyz
1 x,y,z
2 1/2-x,-y,1/2+z
3 -x,1/2+y,1/2-z
4 1/2+x,1/2-y,-z
5 -x,-y,-z
6 1/2+x,y,1/2-z
7 x,1/2-y,1/2+z
8 1/2-x,1/2+y,z
_cell_length_a                   9.5979(19)
_cell_length_b                   12.951(3)
_cell_length_c                   22.457(5)
_cell_angle_alpha                90
_cell_angle_beta                 90
_cell_angle_gamma                90
_cell_volume                     2791.46
_exptl_crystal_colour            colorless
_exptl_crystal_description       block
_cell_formula_units_Z            8
_exptl_crystal_recrystallization_method 
'dichloromethane/ethyl acetate/petroleum ether'
loop_
_atom_site_label
_atom_site_type_symbol
_atom_site_fract_x
_atom_site_fract_y
_atom_site_fract_z
Br1 Br 1.01219(3) 0.15934(2) 0.193829(13)
Cl1 Cl 0.65219(8) 0.50193(5) 0.32750(3)
O1 O 0.9357(2) 0.46850(12) 0.39989(8)
O2 O 0.8726(2) 0.06639(12) 0.55900(7)
C1 C 0.7603(3) 0.41473(16) 0.29098(12)
C2 C 0.7414(3) 0.39945(17) 0.23067(12)
H1 H 0.6765 0.4389 0.2100
C3 C 0.8190(3) 0.32545(18) 0.20097(11)
H2 H 0.8088 0.3162 0.1601
C4 C 0.9117(3) 0.26556(17) 0.23294(10)
C5 C 0.9313(3) 0.28109(17) 0.29345(10)
H3 H 0.9940 0.2399 0.3143
C6 C 0.8577(3) 0.35790(17) 0.32320(11)
C7 C 0.8941(3) 0.38177(18) 0.38710(11)
C8 C 0.8846(3) 0.29806(17) 0.43151(10)
C9 C 0.8050(3) 0.20985(17) 0.42111(11)
H4 H 0.7571 0.2037 0.3853
C10 C 0.7954(3) 0.13140(17) 0.46257(11)
H5 H 0.7399 0.0739 0.4552
C11 C 0.8703(3) 0.13978(17) 0.51571(10)
C12 C 0.9505(3) 0.22788(19) 0.52704(11)
H6 H 1.0000 0.2335 0.5625
C13 C 0.9559(3) 0.30605(19) 0.48567(11)
H7 H 1.0077 0.3651 0.4938
C14 C 0.7954(3) -0.02766(17) 0.54863(12)
H8 H 0.8222 -0.0581 0.5109
H9 H 0.6962 -0.0135 0.5477
C15 C 0.8293(3) -0.1000(2) 0.59905(12)
H10 H 0.9277 -0.1135 0.5994
H11 H 0.7796 -0.1636 0.5938
H12 H 0.8025 -0.0689 0.6361
loop_
_geom_bond_atom_site_label_1
_geom_bond_atom_site_label_2
_geom_bond_site_symmetry_1
_geom_bond_site_symmetry_2
Br1 C4 1_555 1_555
Cl1 C1 1_555 1_555
O1 C7 1_555 1_555
O2 C11 1_555 1_555
C1 C2 1_555 1_555
C2 H1 1_555 1_555
C3 C2 1_555 1_555
H2 C3 1_555 1_555
C4 C3 1_555 1_555
C5 C4 1_555 1_555
H3 C5 1_555 1_555
C6 C1 1_555 1_555
C7 C6 1_555 1_555
C8 C7 1_555 1_555
C9 C8 1_555 1_555
H4 C9 1_555 1_555
C10 C9 1_555 1_555
H5 C10 1_555 1_555
C11 C10 1_555 1_555
C12 C11 1_555 1_555
H6 C12 1_555 1_555
C13 C8 1_555 1_555
H7 C13 1_555 1_555
C14 O2 1_555 1_555
H8 C14 1_555 1_555
H9 C14 1_555 1_555
C15 C14 1_555 1_555
H10 C15 1_555 1_555
H11 C15 1_555 1_555
H12 C15 1_555 1_555
C5 C6 1_555 1_555
C12 C13 1_555 1_555

#END
