
#######################################################################
#
#                 Cambridge Crystallographic Data Centre
#                                CCDC 
#
#######################################################################
#
# If this CIF has been generated from an entry in the Cambridge 
# Structural Database, then it will include bibliographic, chemical, 
# crystal, experimental, refinement or atomic coordinate data resulting 
# from the CCDC's data processing and validation procedures.
#
#######################################################################

data_RUGKAG01
_chemical_formula_moiety         'C13 H14 N2 O2'
_chemical_name_systematic        
4-(4-(dimethylamino)benzylidene)-3-methyl-1,2-oxazol-5(4H)-one
_symmetry_cell_setting           monoclinic
_symmetry_space_group_name_H-M   'P 21/n'
_symmetry_Int_Tables_number      14
_space_group_name_Hall           '-P 2yn'
loop_
_symmetry_equiv_pos_site_id
_symmetry_equiv_pos_as_xyz
1 x,y,z
2 1/2-x,1/2+y,1/2-z
3 -x,-y,-z
4 1/2+x,1/2-y,1/2+z
_cell_length_a                   13.975(14)
_cell_length_b                   6.227(7)
_cell_length_c                   15.099(16)
_cell_angle_alpha                90
_cell_angle_beta                 115.12(2)
_cell_angle_gamma                90
_cell_volume                     1189.68
_exptl_crystal_colour            red
_exptl_crystal_description       block
_cell_formula_units_Z            4
loop_
_atom_site_label
_atom_site_type_symbol
_atom_site_fract_x
_atom_site_fract_y
_atom_site_fract_z
C1 C 0.71009(14) 0.7907(3) -0.14714(12)
H1 H 0.7600 0.6782 -0.1155
H2 H 0.7153 0.8324 -0.2061
H3 H 0.6399 0.7400 -0.1628
C2 C 0.80352(17) 1.1353(4) -0.09114(15)
H4 H 0.7677 1.2711 -0.1079
H5 H 0.8245 1.0929 -0.1414
H6 H 0.8650 1.1482 -0.0301
C3 C 0.69820(11) 0.9869(2) -0.01074(10)
C4 C 0.71994(14) 1.1688(3) 0.05103(12)
H7 H 0.7578 1.2830 0.0420
C5 C 0.68629(13) 1.1789(3) 0.12352(12)
H8 H 0.7017 1.3011 0.1626
C6 C 0.62911(11) 1.0117(2) 0.14149(11)
C7 C 0.60687(12) 0.8313(2) 0.07928(11)
H9 H 0.5690 0.7174 0.0884
C8 C 0.63955(12) 0.8197(3) 0.00595(11)
H10 H 0.6228 0.6987 -0.0339
C9 C 0.59797(11) 1.0405(2) 0.21890(11)
H11 H 0.6207 1.1706 0.2514
C10 C 0.54180(11) 0.9191(3) 0.25654(10)
C11 C 0.49082(15) 0.7110(3) 0.22889(13)
C12 C 0.52136(12) 0.9825(3) 0.33872(11)
C13 C 0.55821(15) 1.1812(3) 0.39821(13)
H12 H 0.5403 1.1745 0.4529
H13 H 0.5247 1.3038 0.3586
H14 H 0.6335 1.1937 0.4215
N1 N 0.73293(11) 0.9745(2) -0.08199(10)
N2 N 0.46534(12) 0.8457(3) 0.36007(11)
O1 O 0.48383(13) 0.5778(2) 0.16834(11)
O2 O 0.44291(11) 0.6716(2) 0.29044(10)
loop_
_geom_bond_atom_site_label_1
_geom_bond_atom_site_label_2
_geom_bond_site_symmetry_1
_geom_bond_site_symmetry_2
C1 H1 1_555 1_555
H2 C1 1_555 1_555
H3 C1 1_555 1_555
C2 H4 1_555 1_555
H5 C2 1_555 1_555
H6 C2 1_555 1_555
C3 C4 1_555 1_555
C4 H7 1_555 1_555
C5 C4 1_555 1_555
H8 C5 1_555 1_555
C6 C5 1_555 1_555
C7 C6 1_555 1_555
H9 C7 1_555 1_555
C8 C3 1_555 1_555
H10 C8 1_555 1_555
C9 C6 1_555 1_555
H11 C9 1_555 1_555
C10 C9 1_555 1_555
C11 C10 1_555 1_555
C12 C10 1_555 1_555
C13 C12 1_555 1_555
H12 C13 1_555 1_555
H13 C13 1_555 1_555
H14 C13 1_555 1_555
N1 C1 1_555 1_555
N2 C12 1_555 1_555
O1 C11 1_555 1_555
O2 C11 1_555 1_555
C2 N1 1_555 1_555
C3 N1 1_555 1_555
C7 C8 1_555 1_555
N2 O2 1_555 1_555

#END
