
#######################################################################
#
#                 Cambridge Crystallographic Data Centre
#                                CCDC 
#
#######################################################################
#
# If this CIF has been generated from an entry in the Cambridge 
# Structural Database, then it will include bibliographic, chemical, 
# crystal, experimental, refinement or atomic coordinate data resulting 
# from the CCDC's data processing and validation procedures.
#
#######################################################################

data_RUGKAG
_chemical_formula_moiety         'C13 H14 N2 O2'
_chemical_name_systematic        
(Z)-4-(4-(Dimethylamino)benzylidene)-3-methylisoxazol-5(4H)-one
_symmetry_cell_setting           triclinic
_symmetry_space_group_name_H-M   'P -1'
_symmetry_Int_Tables_number      2
_space_group_name_Hall           '-P 1'
loop_
_symmetry_equiv_pos_site_id
_symmetry_equiv_pos_as_xyz
1 x,y,z
2 -x,-y,-z
_cell_length_a                   6.4201(10)
_cell_length_b                   7.8239(12)
_cell_length_c                   12.1901(15)
_cell_angle_alpha                100.272(2)
_cell_angle_beta                 97.319(1)
_cell_angle_gamma                101.461(2)
_cell_volume                     582.006
_exptl_crystal_colour            red
_exptl_crystal_description       needle
_cell_formula_units_Z            2
_exptl_crystal_recrystallization_method 'aqueous ethanol'
loop_
_atom_site_label
_atom_site_type_symbol
_atom_site_fract_x
_atom_site_fract_y
_atom_site_fract_z
N1 N 0.7351(5) 0.6599(4) 0.8929(3)
N2 N 0.3808(5) 0.8488(4) 0.1943(3)
O1 O 0.9130(4) 0.7385(4) 0.8421(2)
O2 O 0.9643(4) 0.8104(4) 0.6764(2)
C1 C 0.8347(6) 0.7524(5) 0.7333(4)
C2 C 0.6035(5) 0.6855(5) 0.7140(3)
C3 C 0.5624(5) 0.6321(4) 0.8187(3)
C4 C 0.3517(5) 0.5490(5) 0.8451(3)
H1 H 0.3722 0.5237 0.9195
H2 H 0.2895 0.4400 0.7907
H3 H 0.2568 0.6293 0.8423
C5 C 0.4464(5) 0.6758(4) 0.6248(3)
H4 H 0.3094 0.6266 0.6373
C6 C 0.4428(5) 0.7234(4) 0.5171(3)
C7 C 0.2412(5) 0.6921(5) 0.4469(3)
H5 H 0.1181 0.6420 0.4730
C8 C 0.2192(5) 0.7323(5) 0.3417(3)
H6 H 0.0829 0.7086 0.2980
C9 C 0.4013(5) 0.8091(4) 0.2993(3)
C10 C 0.6035(5) 0.8435(5) 0.3700(3)
H7 H 0.7264 0.8965 0.3448
C11 C 0.6244(5) 0.8012(4) 0.4750(3)
H8 H 0.7605 0.8244 0.5187
C12 C 0.5668(6) 0.9262(5) 0.1481(3)
H9 H 0.6721 1.0058 0.2079
H10 H 0.5224 0.9911 0.0929
H11 H 0.6287 0.8329 0.1129
C13 C 0.1725(6) 0.8003(6) 0.1198(3)
H12 H 0.1191 0.6734 0.1050
H13 H 0.1886 0.8376 0.0499
H14 H 0.0725 0.8581 0.1555
loop_
_geom_bond_atom_site_label_1
_geom_bond_atom_site_label_2
_geom_bond_site_symmetry_1
_geom_bond_site_symmetry_2
N1 O1 1_555 1_555
N2 C9 1_555 1_555
O1 C1 1_555 1_555
O2 C1 1_555 1_555
C1 C2 1_555 1_555
C2 C3 1_555 1_555
C3 N1 1_555 1_555
C4 C3 1_555 1_555
H1 C4 1_555 1_555
H2 C4 1_555 1_555
H3 C4 1_555 1_555
C5 C2 1_555 1_555
H4 C5 1_555 1_555
C6 C5 1_555 1_555
C7 C6 1_555 1_555
H5 C7 1_555 1_555
C8 C7 1_555 1_555
H6 C8 1_555 1_555
C9 C8 1_555 1_555
C10 C9 1_555 1_555
H7 C10 1_555 1_555
C11 C6 1_555 1_555
H8 C11 1_555 1_555
C12 N2 1_555 1_555
H9 C12 1_555 1_555
H10 C12 1_555 1_555
H11 C12 1_555 1_555
C13 N2 1_555 1_555
H12 C13 1_555 1_555
H13 C13 1_555 1_555
H14 C13 1_555 1_555
C10 C11 1_555 1_555

#END
