
#######################################################################
#
#                 Cambridge Crystallographic Data Centre
#                                CCDC 
#
#######################################################################
#
# If this CIF has been generated from an entry in the Cambridge 
# Structural Database, then it will include bibliographic, chemical, 
# crystal, experimental, refinement or atomic coordinate data resulting 
# from the CCDC's data processing and validation procedures.
#
#######################################################################

data_RUGMOW
_chemical_formula_moiety         'C16 H15 N3'
_chemical_name_systematic        
(E)-4-(4-(Dimethylamino)benzylideneamino)benzonitrile
_symmetry_cell_setting           monoclinic
_symmetry_space_group_name_H-M   'P 21/c'
_symmetry_Int_Tables_number      14
_space_group_name_Hall           '-P 2ybc'
loop_
_symmetry_equiv_pos_site_id
_symmetry_equiv_pos_as_xyz
1 x,y,z
2 -x,1/2+y,1/2-z
3 -x,-y,-z
4 x,1/2-y,1/2+z
_cell_length_a                   9.733(6)
_cell_length_b                   16.159(9)
_cell_length_c                   9.103(6)
_cell_angle_alpha                90
_cell_angle_beta                 110.644(12)
_cell_angle_gamma                90
_cell_volume                     1339.75
_exptl_crystal_colour            yellow
_exptl_crystal_description       block
_cell_formula_units_Z            4
_exptl_crystal_recrystallization_method ethanol
loop_
_atom_site_label
_atom_site_type_symbol
_atom_site_fract_x
_atom_site_fract_y
_atom_site_fract_z
N1 N 0.9054(2) 0.11253(12) 0.0481(2)
N2 N 1.3132(2) 0.12345(13) 0.7796(2)
C1 C 1.2390(3) 0.13388(14) 0.6221(3)
C2 C 0.7447(3) 0.19677(16) -0.3581(3)
H1 H 0.7262 0.2472 -0.4105
C3 C 0.8167(3) 0.19445(15) -0.1968(3)
H2 H 0.8479 0.2435 -0.1415
C4 C 1.0202(3) 0.15527(14) 0.1238(3)
H3 H 1.0606 0.1897 0.0678
C5 C 0.8427(2) 0.11873(14) -0.1164(3)
C6 C 0.7285(3) 0.04706(15) -0.3620(3)
H4 H 0.7008 -0.0022 -0.4174
C7 C 0.7979(3) 0.04566(15) -0.2013(3)
H5 H 0.8151 -0.0048 -0.1487
C8 C 1.0225(3) 0.11201(14) 0.3895(3)
H6 H 0.9282 0.0907 0.3439
C9 C 0.6232(3) 0.12454(17) -0.6090(3)
C10 C 0.7000(3) 0.12305(15) -0.4417(3)
C11 C 1.0934(3) 0.10420(15) 0.5487(3)
H7 H 1.0456 0.0792 0.6092
C12 C 1.2299(3) 0.18366(15) 0.3669(3)
H8 H 1.2749 0.2115 0.3066
C13 C 1.3042(3) 0.17532(15) 0.5260(3)
H9 H 1.3983 0.1971 0.5708
C14 C 1.0889(3) 0.15156(14) 0.2934(3)
N3 N 0.5616(3) 0.12575(18) -0.7415(3)
C15 C 1.2478(3) 0.0794(2) 0.8776(3)
H10 H 1.1447 0.0721 0.8211
H11 H 1.2615 0.1108 0.9713
H12 H 1.2939 0.0263 0.9053
C16 C 1.4701(3) 0.14047(19) 0.8465(3)
H13 H 1.5001 0.1699 0.7713
H14 H 1.5231 0.0892 0.8729
H15 H 1.4904 0.1735 0.9395
loop_
_geom_bond_atom_site_label_1
_geom_bond_atom_site_label_2
_geom_bond_site_symmetry_1
_geom_bond_site_symmetry_2
N1 C4 1_555 1_555
N2 C1 1_555 1_555
C1 C11 1_555 1_555
C2 H1 1_555 1_555
C3 C2 1_555 1_555
H2 C3 1_555 1_555
C4 H3 1_555 1_555
C5 N1 1_555 1_555
C6 H4 1_555 1_555
C7 C5 1_555 1_555
H5 C7 1_555 1_555
C8 H6 1_555 1_555
C9 C10 1_555 1_555
C10 C2 1_555 1_555
C11 C8 1_555 1_555
H7 C11 1_555 1_555
C12 H8 1_555 1_555
C13 C1 1_555 1_555
H9 C13 1_555 1_555
C14 C4 1_555 1_555
N3 C9 1_555 1_555
C15 N2 1_555 1_555
H10 C15 1_555 1_555
H11 C15 1_555 1_555
H12 C15 1_555 1_555
C16 N2 1_555 1_555
H13 C16 1_555 1_555
H14 C16 1_555 1_555
H15 C16 1_555 1_555
C3 C5 1_555 1_555
C6 C7 1_555 1_555
C6 C10 1_555 1_555
C8 C14 1_555 1_555
C12 C13 1_555 1_555
C12 C14 1_555 1_555

#END
