
#######################################################################
#
#                 Cambridge Crystallographic Data Centre
#                                CCDC 
#
#######################################################################
#
# If this CIF has been generated from an entry in the Cambridge 
# Structural Database, then it will include bibliographic, chemical, 
# crystal, experimental, refinement or atomic coordinate data resulting 
# from the CCDC's data processing and validation procedures.
#
#######################################################################

data_RUGNEN
_chemical_name_common            
'Ethyl 2-(3,3-dibutylthioureido)-4,5,6,7-tetrahydrobenzo[b]thiophene-3-carboxylate'
_chemical_formula_moiety         'C20 H32 N2 O2 S2'
_chemical_name_systematic        
'Ethyl 2-((dibutylcarbamothioyl)amino)-4,5,6,7-tetrahydro-1-benzothiophene-3-carboxylate'
_symmetry_cell_setting           monoclinic
_symmetry_space_group_name_H-M   'P 21/c'
_symmetry_Int_Tables_number      14
_space_group_name_Hall           '-P 2ybc'
loop_
_symmetry_equiv_pos_site_id
_symmetry_equiv_pos_as_xyz
1 x,y,z
2 -x,1/2+y,1/2-z
3 -x,-y,-z
4 x,1/2-y,1/2+z
_cell_length_a                   10.9311(11)
_cell_length_b                   21.715(3)
_cell_length_c                   9.6841(3)
_cell_angle_alpha                90
_cell_angle_beta                 107.711(12)
_cell_angle_gamma                90
_cell_volume                     2189.75
_exptl_crystal_colour            colorless
_exptl_crystal_description       block
_chemical_melting_point          '442 K'
_cell_formula_units_Z            4
_exptl_crystal_recrystallization_method hexane/dichloromethane
loop_
_atom_site_label
_atom_site_type_symbol
_atom_site_fract_x
_atom_site_fract_y
_atom_site_fract_z
C1 C 1.0984(4) -0.00230(16) 0.7833(4)
C2 C 1.1175(5) -0.0488(2) 0.9023(5)
H1 H 1.0446 -0.0765 0.8804
H2 H 1.1237 -0.0280 0.9928
C3 C 1.2396(7) -0.0852(4) 0.9174(11)
H3 H 1.2660 -0.1048 1.0119
H4 H 1.2207 -0.1175 0.8448
C4 C 1.3461(8) -0.0488(4) 0.9018(8)
H5 H 1.4202 -0.0754 0.9147
H6 H 1.3686 -0.0177 0.9771
C5 C 1.3142(4) -0.01737(18) 0.7532(4)
H7 H 1.3787 0.0136 0.7554
H8 H 1.3163 -0.0476 0.6803
C6 C 1.1838(3) 0.01239(15) 0.7127(3)
C7 C 1.1347(3) 0.05951(15) 0.6064(3)
C8 C 1.0133(3) 0.07897(14) 0.6033(3)
C9 C 1.1975(3) 0.08581(17) 0.5067(4)
C10 C 1.3820(4) 0.0835(2) 0.4231(5)
H9 H 1.3581 0.1259 0.3967
H10 H 1.4735 0.0824 0.4730
C11 C 1.3540(5) 0.0462(2) 0.2931(5)
H11 H 1.3741 0.0040 0.3193
H12 H 1.4048 0.0602 0.2340
H13 H 1.2646 0.0498 0.2398
C12 C 0.8369(3) 0.15459(17) 0.5066(4)
C13 C 0.6951(5) 0.2433(2) 0.4072(6)
H14 H 0.6756 0.2414 0.4983
H15 H 0.7147 0.2858 0.3911
C14 C 0.5827(5) 0.2238(3) 0.2904(6)
H16 H 0.5686 0.1800 0.2980
H17 H 0.5957 0.2317 0.1973
C15 C 0.4615(9) 0.2616(5) 0.3037(12)
H18 H 0.3847 0.2396 0.2496
H19 H 0.4641 0.2612 0.4047
C16 C 0.4496(12) 0.3174(5) 0.2607(16)
H20 H 0.5305 0.3381 0.2977
H21 H 0.3864 0.3376 0.2953
H22 H 0.4228 0.3184 0.1567
C17 C 0.9008(4) 0.23002(19) 0.3483(5)
H23 H 0.8536 0.2535 0.2637
H24 H 0.9449 0.1968 0.3162
C18 C 0.9998(4) 0.2719(2) 0.4523(5)
H25 H 0.9553 0.3058 0.4813
H26 H 1.0437 0.2487 0.5388
C19 C 1.0961(5) 0.2970(2) 0.3882(5)
H27 H 1.0523 0.3158 0.2955
H28 H 1.1485 0.2635 0.3709
C20 C 1.1828(5) 0.3447(2) 0.4862(6)
H29 H 1.1321 0.3792 0.4981
H30 H 1.2465 0.3582 0.4432
H31 H 1.2244 0.3266 0.5791
N1 N 0.9493(3) 0.12572(14) 0.5138(3)
H32 H 0.997(3) 0.1387(16) 0.464(3)
N2 N 0.8108(3) 0.20414(16) 0.4177(4)
O1 O 1.3122(2) 0.06116(13) 0.5196(3)
O2 O 1.1519(3) 0.12628(13) 0.4189(3)
S1 S 0.95706(9) 0.03954(4) 0.72506(10)
S2 S 0.74212(10) 0.13005(5) 0.60210(13)
C21? C 0.4923(18) 0.2749(12) 0.213(3)
C22? C 0.372(2) 0.2782(14) 0.248(5)
C23? C 1.2569(14) -0.0586(11) 0.9758(17)
C24? C 1.315(2) -0.0763(7) 0.8441(17)
H33? H 0.5373 0.1905 0.3203
H34? H 0.6066 0.2106 0.2064
H35? H 0.5365 0.3140 0.2372
H36? H 0.4727 0.2690 0.1094
H37? H 0.3180 0.3090 0.1892
H38? H 0.3897 0.2888 0.3487
H39? H 0.3298 0.2390 0.2303
H40? H 1.0714 -0.0361 0.9687
H41? H 1.0832 -0.0882 0.8616
H42? H 1.2705 -0.0918 1.0458
H43? H 1.2968 -0.0215 1.0251
H44? H 1.4018 -0.0918 0.8832
H45? H 1.2627 -0.1081 0.7835
H46? H 1.3789 0.0116 0.8067
H47? H 1.3339 -0.0286 0.6653
loop_
_geom_bond_atom_site_label_1
_geom_bond_atom_site_label_2
_geom_bond_site_symmetry_1
_geom_bond_site_symmetry_2
C1 C2 1_555 1_555
C2 H1 1_555 1_555
H2 C2 1_555 1_555
C3 C2 1_555 1_555
H3 C3 1_555 1_555
H4 C3 1_555 1_555
C4 C3 1_555 1_555
H5 C4 1_555 1_555
H6 C4 1_555 1_555
C5 C4 1_555 1_555
H7 C5 1_555 1_555
H8 C5 1_555 1_555
C6 C1 1_555 1_555
C7 C6 1_555 1_555
C8 C7 1_555 1_555
C9 C7 1_555 1_555
C10 H9 1_555 1_555
H10 C10 1_555 1_555
C11 C10 1_555 1_555
H11 C11 1_555 1_555
H12 C11 1_555 1_555
H13 C11 1_555 1_555
C12 N1 1_555 1_555
C13 H14 1_555 1_555
H15 C13 1_555 1_555
C14 C13 1_555 1_555
H16 C14 1_555 1_555
H17 C14 1_555 1_555
C15 C14 1_555 1_555
H18 C15 1_555 1_555
H19 C15 1_555 1_555
C16 C15 1_555 1_555
H20 C16 1_555 1_555
H21 C16 1_555 1_555
H22 C16 1_555 1_555
C17 H23 1_555 1_555
H24 C17 1_555 1_555
C18 C17 1_555 1_555
H25 C18 1_555 1_555
H26 C18 1_555 1_555
C19 C18 1_555 1_555
H27 C19 1_555 1_555
H28 C19 1_555 1_555
C20 C19 1_555 1_555
H29 C20 1_555 1_555
H30 C20 1_555 1_555
H31 C20 1_555 1_555
N1 C8 1_555 1_555
H32 N1 1_555 1_555
N2 C12 1_555 1_555
O1 C9 1_555 1_555
O2 C9 1_555 1_555
S1 C1 1_555 1_555
S2 C12 1_555 1_555
C5 C6 1_555 1_555
C8 S1 1_555 1_555
C10 O1 1_555 1_555
C13 N2 1_555 1_555
C17 N2 1_555 1_555

#END
