
#######################################################################
#
#                 Cambridge Crystallographic Data Centre
#                                CCDC 
#
#######################################################################
#
# If this CIF has been generated from an entry in the Cambridge 
# Structural Database, then it will include bibliographic, chemical, 
# crystal, experimental, refinement or atomic coordinate data resulting 
# from the CCDC's data processing and validation procedures.
#
#######################################################################

data_RUGSAP
_chemical_formula_moiety         'C22 H33 N1 O2 S1'
_chemical_name_systematic        
4-Methyl-N-(4,4,8-trimethyltricyclo[6.3.1.0^2,5^]dodec-1-yl)benzenesulfonamide
_symmetry_cell_setting           triclinic
_symmetry_space_group_name_H-M   'P 1'
_symmetry_Int_Tables_number      1
_space_group_name_Hall           'P 1'
loop_
_symmetry_equiv_pos_site_id
_symmetry_equiv_pos_as_xyz
1 x,y,z
_cell_length_a                   8.759(2)
_cell_length_b                   10.519(3)
_cell_length_c                   12.697(3)
_cell_angle_alpha                67.389(4)
_cell_angle_beta                 86.622(4)
_cell_angle_gamma                77.499(4)
_cell_volume                     1053.94
_exptl_crystal_colour            colorless
_exptl_crystal_description       block
_cell_formula_units_Z            2
loop_
_atom_site_label
_atom_site_type_symbol
_atom_site_fract_x
_atom_site_fract_y
_atom_site_fract_z
C1 C 1.1945(4) 0.4701(4) 0.2861(3)
H1 H 1.2928 0.4150 0.3234
H2 H 1.1564 0.5432 0.3146
H3 H 1.2086 0.5115 0.2053
C2 C 1.0781(3) 0.3768(3) 0.3096(2)
C3 C 1.1251(3) 0.2364(3) 0.3217(2)
H4 H 1.2299 0.2007 0.3132
C4 C 1.0197(3) 0.1491(3) 0.3461(2)
H5 H 1.0533 0.0556 0.3540
C5 C 0.8629(3) 0.2021(3) 0.3587(2)
C6 C 0.8118(3) 0.3423(3) 0.3450(2)
H6 H 0.7066 0.3781 0.3521
C7 C 0.9197(4) 0.4280(3) 0.3207(2)
H7 H 0.8857 0.5218 0.3116
C8 C 0.8661(3) 0.0344(3) 0.1345(2)
H8 H 0.9323 0.0866 0.1526
H9 H 0.9208 -0.0634 0.1601
C9 C 0.8386(3) 0.0926(3) 0.0050(2)
H10 H 0.9387 0.0963 -0.0318
H11 H 0.7918 0.0285 -0.0143
C10 C 0.7329(3) 0.2392(3) -0.0419(2)
H12 H 0.7080 0.2633 -0.1216
H13 H 0.7900 0.3068 -0.0381
C11 C 0.5790(3) 0.2530(3) 0.0221(2)
C12 C 0.6220(3) 0.1979(2) 0.15041(19)
H14 H 0.6846 0.2571 0.1622
H15 H 0.5266 0.2059 0.1925
C13 C 0.7128(3) 0.0442(3) 0.1990(2)
C14 C 0.6104(3) -0.0506(2) 0.1858(2)
H16 H 0.6323 -0.0584 0.1117
C15 C 0.4325(3) -0.0015(2) 0.1911(2)
H17 H 0.4124 0.0296 0.2550
C16 C 0.3483(3) 0.1173(3) 0.0845(2)
H18 H 0.2874 0.1919 0.1060
H19 H 0.2764 0.0813 0.0536
C17 C 0.4628(3) 0.1790(3) -0.0086(2)
H20 H 0.4020 0.2464 -0.0759
H21 H 0.5232 0.1032 -0.0289
C18 C 0.5031(3) 0.4100(3) -0.0135(2)
H22 H 0.5728 0.4570 0.0059
H23 H 0.4068 0.4198 0.0257
H24 H 0.4822 0.4511 -0.0944
C19 C 0.5936(3) -0.1972(2) 0.2729(2)
H25 H 0.6101 -0.2107 0.3517
H26 H 0.6552 -0.2751 0.2557
C20 C 0.4184(3) -0.1592(3) 0.2353(2)
C21 C 0.3891(3) -0.2068(3) 0.1409(2)
H27 H 0.4131 -0.3078 0.1691
H28 H 0.4543 -0.1701 0.0778
H29 H 0.2812 -0.1725 0.1162
C22 C 0.3052(3) -0.2042(3) 0.3318(2)
H30 H 0.1997 -0.1636 0.3026
H31 H 0.3243 -0.1724 0.3903
H32 H 0.3203 -0.3050 0.3632
N1 N 0.7509(3) -0.0025(2) 0.32274(17)
H33 H 0.8147 -0.0781 0.3515
O1 O 0.7865(2) -0.01729(19) 0.51442(15)
O2 O 0.5769(2) 0.17051(19) 0.39174(15)
S1 S 0.73158(6) 0.08591(6) 0.40298(5)
C23 C 0.5617(5) 0.1881(4) 0.6667(3)
H34 H 0.4932 0.1999 0.7256
H35 H 0.6224 0.0934 0.6931
H36 H 0.5006 0.2059 0.6002
C24 C 0.6702(4) 0.2907(3) 0.6368(2)
C25 C 0.6087(4) 0.4337(3) 0.6057(2)
H37 H 0.5008 0.4661 0.6028
C26 C 0.7065(3) 0.5289(3) 0.5788(2)
H38 H 0.6645 0.6245 0.5584
C27 C 0.8673(3) 0.4807(3) 0.5826(2)
C28 C 0.9304(4) 0.3381(3) 0.6115(2)
H39 H 1.0381 0.3056 0.6129
C29 C 0.8300(4) 0.2450(3) 0.6383(2)
H40 H 0.8718 0.1495 0.6576
C30 C 1.0052(3) 0.6427(2) 0.7483(2)
C31 C 1.0307(3) 0.4821(2) 0.81263(19)
H41 H 0.9397 0.4502 0.8006
H42 H 1.1202 0.4365 0.7820
C32 C 1.0585(3) 0.4387(3) 0.9413(2)
H43 H 1.0603 0.3388 0.9794
H44 H 1.1604 0.4536 0.9536
C33 C 0.9353(3) 0.5193(3) 0.9955(2)
H45 H 0.9686 0.4956 1.0735
H46 H 0.8381 0.4883 0.9982
C34 C 0.9043(3) 0.6795(3) 0.9331(2)
C35 C 0.8722(3) 0.7109(3) 0.8063(2)
H47 H 0.7783 0.6788 0.8006
H48 H 0.8515 0.8122 0.7646
C36 C 1.0415(3) 0.7396(3) 0.9555(2)
H49 H 1.0195 0.7595 1.0240
H50 H 1.1359 0.6666 0.9710
C37 C 1.0748(3) 0.8731(3) 0.8598(2)
H51 H 0.9818 0.9477 0.8443
H52 H 1.1577 0.9034 0.8853
C38 C 1.1231(3) 0.8501(2) 0.7493(2)
H53 H 1.0411 0.9086 0.6913
C39 C 1.1518(3) 0.7009(3) 0.7514(2)
H54 H 1.2131 0.6374 0.8210
C40 C 1.2667(3) 0.7447(3) 0.6538(2)
H55 H 1.2196 0.7776 0.5782
H56 H 1.3623 0.6744 0.6623
C41 C 1.2841(3) 0.8654(3) 0.6916(2)
C42 C 1.4188(3) 0.8228(3) 0.7770(3)
H57 H 1.5163 0.8099 0.7399
H58 H 1.4108 0.7363 0.8389
H59 H 1.4142 0.8954 0.8060
C43 C 1.2879(4) 1.0076(3) 0.5986(2)
H60 H 1.2774 1.0770 0.6317
H61 H 1.2031 1.0334 0.5447
H62 H 1.3854 1.0026 0.5602
C44 C 0.7547(3) 0.7450(3) 0.9784(2)
H63 H 0.6679 0.7117 0.9633
H64 H 0.7357 0.8457 0.9412
H65 H 0.7667 0.7186 1.0592
N2 N 0.9473(3) 0.6869(2) 0.62952(17)
H66 H 0.9010 0.7765 0.5951
O3 O 0.9408(2) 0.70678(18) 0.43326(14)
O4 O 1.1491(2) 0.5250(2) 0.56402(15)
S2 S 0.99071(6) 0.60361(5) 0.54557(4)
loop_
_geom_bond_atom_site_label_1
_geom_bond_atom_site_label_2
_geom_bond_site_symmetry_1
_geom_bond_site_symmetry_2
C1 H1 1_555 1_555
H2 C1 1_555 1_555
H3 C1 1_555 1_555
C2 C1 1_555 1_555
C3 C2 1_555 1_555
H4 C3 1_555 1_555
C4 C3 1_555 1_555
H5 C4 1_555 1_555
C5 C4 1_555 1_555
C6 C5 1_555 1_555
H6 C6 1_555 1_555
C7 C2 1_555 1_555
H7 C7 1_555 1_555
C8 H8 1_555 1_555
H9 C8 1_555 1_555
C9 C8 1_555 1_555
H10 C9 1_555 1_555
H11 C9 1_555 1_555
C10 C9 1_555 1_555
H12 C10 1_555 1_555
H13 C10 1_555 1_555
C11 C10 1_555 1_555
C12 C11 1_555 1_555
H14 C12 1_555 1_555
H15 C12 1_555 1_555
C13 C8 1_555 1_555
C14 C13 1_555 1_555
H16 C14 1_555 1_555
C15 C14 1_555 1_555
H17 C15 1_555 1_555
C16 C15 1_555 1_555
H18 C16 1_555 1_555
H19 C16 1_555 1_555
C17 C11 1_555 1_555
H20 C17 1_555 1_555
H21 C17 1_555 1_555
C18 C11 1_555 1_555
H22 C18 1_555 1_555
H23 C18 1_555 1_555
H24 C18 1_555 1_555
C19 C14 1_555 1_555
H25 C19 1_555 1_555
H26 C19 1_555 1_555
C20 C15 1_555 1_555
C21 C20 1_555 1_555
H27 C21 1_555 1_555
H28 C21 1_555 1_555
H29 C21 1_555 1_555
C22 C20 1_555 1_555
H30 C22 1_555 1_555
H31 C22 1_555 1_555
H32 C22 1_555 1_555
N1 C13 1_555 1_555
H33 N1 1_555 1_555
O1 S1 1_555 1_555
O2 S1 1_555 1_555
S1 C5 1_555 1_555
C23 H34 1_555 1_555
H35 C23 1_555 1_555
H36 C23 1_555 1_555
C24 C23 1_555 1_555
C25 C24 1_555 1_555
H37 C25 1_555 1_555
C26 C25 1_555 1_555
H38 C26 1_555 1_555
C27 C26 1_555 1_555
C28 C27 1_555 1_555
H39 C28 1_555 1_555
C29 C24 1_555 1_555
H40 C29 1_555 1_555
C30 C31 1_555 1_555
C31 H41 1_555 1_555
H42 C31 1_555 1_555
C32 C31 1_555 1_555
H43 C32 1_555 1_555
H44 C32 1_555 1_555
C33 C32 1_555 1_555
H45 C33 1_555 1_555
H46 C33 1_555 1_555
C34 C33 1_555 1_555
C35 C30 1_555 1_555
H47 C35 1_555 1_555
H48 C35 1_555 1_555
C36 C34 1_555 1_555
H49 C36 1_555 1_555
H50 C36 1_555 1_555
C37 C36 1_555 1_555
H51 C37 1_555 1_555
H52 C37 1_555 1_555
C38 C37 1_555 1_555
H53 C38 1_555 1_555
C39 C30 1_555 1_555
H54 C39 1_555 1_555
C40 C39 1_555 1_555
H55 C40 1_555 1_555
H56 C40 1_555 1_555
C41 C38 1_555 1_555
C42 C41 1_555 1_555
H57 C42 1_555 1_555
H58 C42 1_555 1_555
H59 C42 1_555 1_555
C43 C41 1_555 1_555
H60 C43 1_555 1_555
H61 C43 1_555 1_555
H62 C43 1_555 1_555
C44 C34 1_555 1_555
H63 C44 1_555 1_555
H64 C44 1_555 1_555
H65 C44 1_555 1_555
N2 C30 1_555 1_555
H66 N2 1_555 1_555
O3 S2 1_555 1_555
O4 S2 1_555 1_555
S2 C27 1_555 1_555
C6 C7 1_555 1_555
C12 C13 1_555 1_555
C16 C17 1_555 1_555
C19 C20 1_555 1_555
N1 S1 1_555 1_555
C28 C29 1_555 1_555
C34 C35 1_555 1_555
C38 C39 1_555 1_555
C40 C41 1_555 1_555
N2 S2 1_555 1_555

#END
