
#######################################################################
#
#                 Cambridge Crystallographic Data Centre
#                                CCDC 
#
#######################################################################
#
# If this CIF has been generated from an entry in the Cambridge 
# Structural Database, then it will include bibliographic, chemical, 
# crystal, experimental, refinement or atomic coordinate data resulting 
# from the CCDC's data processing and validation procedures.
#
#######################################################################

data_RUHBAZ
_chemical_formula_moiety         'C16 H17 N1 O2'
_chemical_name_systematic        
6-(4-Methylphenyl)-3-(pyrrolidin-1-yl)-2H-pyran-2-one
_symmetry_cell_setting           monoclinic
_symmetry_space_group_name_H-M   'P 21/c'
_symmetry_Int_Tables_number      14
_space_group_name_Hall           '-P 2ybc'
loop_
_symmetry_equiv_pos_site_id
_symmetry_equiv_pos_as_xyz
1 x,y,z
2 -x,1/2+y,1/2-z
3 -x,-y,-z
4 x,1/2-y,1/2+z
_cell_length_a                   10.7708(19)
_cell_length_b                   16.326(3)
_cell_length_c                   7.5417(13)
_cell_angle_alpha                90
_cell_angle_beta                 107.601(3)
_cell_angle_gamma                90
_cell_volume                     1264.08
_exptl_crystal_colour            yellow
_exptl_crystal_description       block
_cell_formula_units_Z            4
loop_
_atom_site_label
_atom_site_type_symbol
_atom_site_fract_x
_atom_site_fract_y
_atom_site_fract_z
C1 C -0.38528(10) 0.11908(6) -0.36973(13)
H1 H -0.3883 0.1734 -0.4262
H2 H -0.4729 0.1035 -0.3687
H3 H -0.3532 0.0790 -0.4421
C2 C -0.29525(9) 0.12123(5) -0.17321(13)
C3 C -0.17305(9) 0.08454(6) -0.12656(13)
H4 H -0.1459 0.0577 -0.2203
C4 C -0.08973(9) 0.08648(6) 0.05542(13)
H5 H -0.0064 0.0614 0.0835
C5 C -0.12718(9) 0.12485(5) 0.19729(12)
C6 C -0.25095(9) 0.16128(5) 0.15077(13)
H6 H -0.2791 0.1872 0.2446
C7 C -0.33232(9) 0.15974(5) -0.03094(13)
H7 H -0.4152 0.1854 -0.0598
C8 C -0.03844(9) 0.12953(5) 0.38696(13)
C9 C 0.17650(9) 0.08389(6) 0.57324(13)
C10 C 0.16086(9) 0.13188(5) 0.72981(12)
C11 C 0.04832(9) 0.17608(6) 0.70300(13)
H8 H 0.0368 0.2077 0.8026
C12 C -0.05117(9) 0.17546(6) 0.52962(13)
H9 H -0.1274 0.2076 0.5136
C13 C 0.35836(9) 0.06872(6) 0.96015(13)
H10 H 0.4302 0.0706 0.9037
H11 H 0.3150 0.0147 0.9341
C14 C 0.40896(10) 0.08490(6) 1.16972(14)
H12 H 0.3604 0.0520 1.2370
H13 H 0.5028 0.0716 1.2194
C15 C 0.38547(10) 0.17657(6) 1.18790(13)
H14 H 0.3799 0.1901 1.3132
H15 H 0.4552 0.2098 1.1628
C16 C 0.25585(9) 0.18972(6) 1.03969(13)
H16 H 0.1823 0.1739 1.0857
H17 H 0.2450 0.2476 0.9988
N1 N 0.26432(8) 0.13586(5) 0.88851(11)
O1 O 0.07266(7) 0.08343(4) 0.41246(9)
O2 O 0.27200(7) 0.04579(5) 0.57014(11)
loop_
_geom_bond_atom_site_label_1
_geom_bond_atom_site_label_2
_geom_bond_site_symmetry_1
_geom_bond_site_symmetry_2
C1 H1 1_555 1_555
H2 C1 1_555 1_555
H3 C1 1_555 1_555
C2 C1 1_555 1_555
C3 C2 1_555 1_555
H4 C3 1_555 1_555
C4 C3 1_555 1_555
H5 C4 1_555 1_555
C5 C4 1_555 1_555
C6 C5 1_555 1_555
H6 C6 1_555 1_555
C7 C2 1_555 1_555
H7 C7 1_555 1_555
C8 C5 1_555 1_555
C9 C10 1_555 1_555
C10 C11 1_555 1_555
C11 H8 1_555 1_555
C12 C8 1_555 1_555
H9 C12 1_555 1_555
C13 H10 1_555 1_555
H11 C13 1_555 1_555
C14 C13 1_555 1_555
H12 C14 1_555 1_555
H13 C14 1_555 1_555
C15 C14 1_555 1_555
H14 C15 1_555 1_555
H15 C15 1_555 1_555
C16 C15 1_555 1_555
H16 C16 1_555 1_555
H17 C16 1_555 1_555
N1 C10 1_555 1_555
O1 C8 1_555 1_555
O2 C9 1_555 1_555
C6 C7 1_555 1_555
C9 O1 1_555 1_555
C11 C12 1_555 1_555
C13 N1 1_555 1_555
C16 N1 1_555 1_555

#END
