
#######################################################################
#
#                 Cambridge Crystallographic Data Centre
#                                CCDC 
#
#######################################################################
#
# If this CIF has been generated from an entry in the Cambridge 
# Structural Database, then it will include bibliographic, chemical, 
# crystal, experimental, refinement or atomic coordinate data resulting 
# from the CCDC's data processing and validation procedures.
#
#######################################################################

data_RUHBIH
_chemical_formula_moiety         'C21 H20 Cl1 N1 O3'
_chemical_name_systematic        
N-t-Butyl-4-(4-chlorophenyl)-1-oxo-1,3-dihydro-2-benzoxepine-3-carboxamide
_symmetry_cell_setting           orthorhombic
_symmetry_space_group_name_H-M   'P b c a'
_symmetry_Int_Tables_number      61
_space_group_name_Hall           '-P 2ac 2ab'
loop_
_symmetry_equiv_pos_site_id
_symmetry_equiv_pos_as_xyz
1 x,y,z
2 1/2+x,1/2-y,-z
3 -x,1/2+y,1/2-z
4 1/2-x,-y,1/2+z
5 -x,-y,-z
6 1/2-x,1/2+y,z
7 x,1/2-y,1/2+z
8 1/2+x,y,1/2-z
_cell_length_a                   20.8235(4)
_cell_length_b                   7.24050(10)
_cell_length_c                   24.6478(4)
_cell_angle_alpha                90
_cell_angle_beta                 90
_cell_angle_gamma                90
_cell_volume                     3716.21
_exptl_crystal_colour            colorless
_exptl_crystal_description       block
_cell_formula_units_Z            8
loop_
_atom_site_label
_atom_site_type_symbol
_atom_site_fract_x
_atom_site_fract_y
_atom_site_fract_z
Cl1 Cl -0.13670(3) -0.03141(10) 0.95902(3)
C1 C -0.08955(10) -0.0231(3) 0.85632(9)
H1 H -0.1295 -0.0665 0.8452
O1 O 0.05840(7) 0.4915(2) 0.83077(6)
O2 O 0.18205(6) 0.15803(18) 0.81251(5)
C2 C -0.01861(10) 0.0739(3) 0.92711(8)
H2 H -0.0111 0.0982 0.9636
C3 C 0.07473(10) -0.0071(3) 0.74938(8)
H3 H 0.0450 -0.1020 0.7455
C4 C -0.04187(10) 0.0104(3) 0.81888(9)
H4 H -0.0503 -0.0088 0.7823
N1 N 0.14770(7) 0.4250(2) 0.88036(6)
H5 H 0.1777 0.3446 0.8842
O3 O 0.27070(8) 0.0417(3) 0.77924(7)
C5 C 0.01866(9) 0.0724(3) 0.83447(7)
C6 C 0.07000(9) 0.0998(3) 0.79358(7)
C7 C 0.12140(8) 0.2458(3) 0.79958(7)
H6 H 0.1266 0.3030 0.7638
C8 C -0.07721(10) 0.0086(3) 0.91048(9)
C9 C 0.14541(9) 0.5783(3) 0.91994(8)
C10 C 0.02898(9) 0.1034(3) 0.88933(8)
H7 H 0.0690 0.1450 0.9008
C11 C 0.12300(10) 0.0140(3) 0.70686(8)
C12 C 0.10694(9) 0.4015(3) 0.83921(7)
C13 C 0.14602(12) 0.0000(4) 0.61109(9)
H8 H 0.1326 -0.0263 0.5759
C14 C 0.20714(12) 0.0639(4) 0.61990(9)
H9 H 0.2345 0.0849 0.5907
C15 C 0.08249(12) 0.5705(4) 0.95136(10)
H10 H 0.0472 0.5904 0.9270
H11 H 0.0824 0.6646 0.9788
H12 H 0.0782 0.4515 0.9681
C16 C 0.20150(12) 0.5479(4) 0.95861(9)
H13 H 0.1966 0.4311 0.9766
H14 H 0.2023 0.6450 0.9851
H15 H 0.2410 0.5485 0.9385
C17 C 0.10465(11) -0.0255(3) 0.65366(8)
H16 H 0.0635 -0.0700 0.6470
C18 C 0.22772(10) 0.0967(3) 0.67185(9)
H17 H 0.2697 0.1356 0.6777
C19 C 0.18674(9) 0.0727(3) 0.71593(8)
C20 C 0.21654(10) 0.0896(3) 0.77051(8)
C21 C 0.15320(12) 0.7611(3) 0.89040(10)
H18 H 0.1931 0.7613 0.8709
H19 H 0.1531 0.8603 0.9163
H20 H 0.1183 0.7773 0.8654
loop_
_geom_bond_atom_site_label_1
_geom_bond_atom_site_label_2
_geom_bond_site_symmetry_1
_geom_bond_site_symmetry_2
Cl1 C8 1_555 1_555
C1 H1 1_555 1_555
O1 C12 1_555 1_555
O2 C7 1_555 1_555
C2 H2 1_555 1_555
C3 H3 1_555 1_555
C4 C1 1_555 1_555
H4 C4 1_555 1_555
N1 H5 1_555 1_555
O3 C20 1_555 1_555
C5 C4 1_555 1_555
C6 C3 1_555 1_555
C7 C6 1_555 1_555
H6 C7 1_555 1_555
C8 C1 1_555 1_555
C9 N1 1_555 1_555
C10 C2 1_555 1_555
H7 C10 1_555 1_555
C11 C3 1_555 1_555
C12 N1 1_555 1_555
C13 H8 1_555 1_555
C14 C13 1_555 1_555
H9 C14 1_555 1_555
C15 C9 1_555 1_555
H10 C15 1_555 1_555
H11 C15 1_555 1_555
H12 C15 1_555 1_555
C16 C9 1_555 1_555
H13 C16 1_555 1_555
H14 C16 1_555 1_555
H15 C16 1_555 1_555
C17 C11 1_555 1_555
H16 C17 1_555 1_555
C18 C14 1_555 1_555
H17 C18 1_555 1_555
C19 C11 1_555 1_555
C20 O2 1_555 1_555
C21 C9 1_555 1_555
H18 C21 1_555 1_555
H19 C21 1_555 1_555
H20 C21 1_555 1_555
C2 C8 1_555 1_555
C5 C6 1_555 1_555
C5 C10 1_555 1_555
C7 C12 1_555 1_555
C13 C17 1_555 1_555
C18 C19 1_555 1_555
C19 C20 1_555 1_555

#END
