
#######################################################################
#
#                 Cambridge Crystallographic Data Centre
#                                CCDC 
#
#######################################################################
#
# If this CIF has been generated from an entry in the Cambridge 
# Structural Database, then it will include bibliographic, chemical, 
# crystal, experimental, refinement or atomic coordinate data resulting 
# from the CCDC's data processing and validation procedures.
#
#######################################################################

data_RUHCAZ01
_chemical_name_common            
'bis(2-(5,6-Dihydro[1,3]dithiolo[4,5-b][1,4]dithiin-2-ylidene)-5,6-dihydro[1,3]dithiolo[4,5-b][1,4]dithiin-1-ium) 2,2,2-trifluoroethanesulfonate'
_chemical_formula_moiety         'C10 H8 S8,C10 H8 S8 1+,C2 H2 F3 O3 S1 1-'
_chemical_name_systematic        
"\b''-bis(Ethylenedithio)tetrathiafulvalenium 2,2,2-trifluorofluoroethanesulfonate"
_symmetry_cell_setting           triclinic
_symmetry_space_group_name_H-M   'P -1'
_symmetry_Int_Tables_number      2
_space_group_name_Hall           '-P 1'
loop_
_symmetry_equiv_pos_site_id
_symmetry_equiv_pos_as_xyz
1 x,y,z
2 -x,-y,-z
_cell_length_a                   8.7924(4)
_cell_length_b                   11.6205(6)
_cell_length_c                   17.1222(8)
_cell_angle_alpha                77.617(2)
_cell_angle_beta                 87.597(2)
_cell_angle_gamma                77.705(2)
_cell_volume                     1669.51
_exptl_crystal_colour            black
_exptl_crystal_description       plate
_cell_formula_units_Z            2
loop_
_atom_site_label
_atom_site_type_symbol
_atom_site_fract_x
_atom_site_fract_y
_atom_site_fract_z
S1 S 0.24059(5) 0.45785(3) 0.37157(2)
S2 S 0.44249(5) 0.22657(3) 0.36225(2)
S3 S 0.11950(5) 0.33918(3) 0.54488(2)
S4 S 0.33122(4) 0.11028(3) 0.53838(2)
S5 S 0.28934(5) 0.57965(3) 0.20598(2)
S6 S 0.53749(5) 0.30058(3) 0.19476(2)
S7 S -0.02039(5) 0.25093(4) 0.69969(2)
S8 S 0.24570(5) -0.02089(4) 0.69404(2)
C1 C 0.30901(17) 0.30875(13) 0.41692(9)
C2 C 0.25875(17) 0.25855(13) 0.49144(9)
C3 C 0.33286(18) 0.44808(13) 0.27988(9)
C4 C 0.42791(18) 0.33985(13) 0.27593(9)
C5 C 0.11402(18) 0.21936(13) 0.62545(9)
C6 C 0.21453(18) 0.11354(13) 0.62308(9)
C7 C 0.3707(4) 0.5267(3) 0.1180(2)
H1 H 0.3032 0.4781 0.1013
H2 H 0.3737 0.5967 0.0737
C8 C 0.5335(4) 0.4512(3) 0.1341(2)
H3 H 0.5939 0.4934 0.1618
H4 H 0.5852 0.4435 0.0824
C9 C 0.0607(2) 0.13219(15) 0.78304(10)
H5 H 0.1603 0.1472 0.7993
H6 H -0.0115 0.1345 0.8289
C10 C 0.08963(19) 0.00778(15) 0.76401(10)
H7 H -0.0074 -0.0031 0.7419
H8 H 0.1137 -0.0530 0.8145
S9 S 0.45399(5) 0.71502(3) 0.36328(2)
S10 S 0.25442(5) 0.95140(3) 0.37093(2)
S11 S 0.33209(5) 0.60381(3) 0.54047(2)
S12 S 0.11801(5) 0.83866(3) 0.54021(2)
S13 S 0.55479(5) 0.78807(4) 0.19634(3)
S14 S 0.31611(5) 1.07032(4) 0.20610(2)
S15 S 0.24432(6) 0.48478(4) 0.69929(3)
S16 S -0.02596(5) 0.75680(4) 0.69572(3)
C11 C 0.31495(17) 0.79942(14) 0.41666(9)
C12 C 0.26027(18) 0.75238(13) 0.48910(9)
C13 C 0.44060(18) 0.82937(14) 0.27591(9)
C14 C 0.34889(18) 0.93739(14) 0.27961(9)
C15 C 0.21151(19) 0.61509(14) 0.62413(9)
C16 C 0.11124(19) 0.72140(14) 0.62298(9)
C17 C 0.4913(2) 0.91687(15) 0.11587(10)
H9 H 0.5656 0.9124 0.0710
H10 H 0.3884 0.9130 0.0964
C18 C 0.47876(19) 1.03680(15) 0.13993(10)
H11 H 0.4670 1.1017 0.0912
H12 H 0.5765 1.0360 0.1669
C19 C 0.0928(2) 0.51878(16) 0.77022(11)
H13 H -0.0042 0.5019 0.7523
H14 H 0.1221 0.4637 0.8225
C20 C 0.0595(2) 0.64695(17) 0.78223(10)
H15 H 0.1580 0.6665 0.7959
H16 H -0.0120 0.6529 0.8281
S17 S -0.17772(4) 0.17060(3) 1.01223(2)
O1 O -0.19262(14) 0.19717(11) 0.92604(7)
O2 O -0.19820(15) 0.05014(11) 1.04987(7)
O3 O -0.26819(17) 0.26355(13) 1.04966(9)
C21 C 0.0225(2) 0.16583(15) 1.03274(10)
H17 H 0.0355 0.1527 1.0914
H18 H 0.0872 0.0950 1.0153
C22 C 0.0849(2) 0.27405(16) 0.99462(11)
F1 F -0.0045(6) 0.3791(4) 0.9979(7)
F2 F 0.1146(9) 0.2775(5) 0.9177(3)
F3 F 0.2194(10) 0.2748(8) 1.0286(5)
C23? C 0.4363(5) 0.5433(3) 0.1312(2)
C24? C 0.4494(4) 0.4196(3) 0.1160(2)
F4? F 0.064(3) 0.311(3) 0.9163(8)
F5? F 0.2401(13) 0.2553(17) 1.0057(15)
F6? F 0.016(2) 0.3683(14) 1.0272(14)
H19? H 0.4099 0.6029 0.0804
H20? H 0.5386 0.5505 0.1494
H21? H 0.5107 0.4134 0.0667
H22? H 0.3438 0.4085 0.1062
loop_
_geom_bond_atom_site_label_1
_geom_bond_atom_site_label_2
_geom_bond_site_symmetry_1
_geom_bond_site_symmetry_2
S1 C1 1_555 1_555
S2 C1 1_555 1_555
S3 C2 1_555 1_555
S4 C2 1_555 1_555
S5 C3 1_555 1_555
S6 C4 1_555 1_555
S7 C5 1_555 1_555
S8 C6 1_555 1_555
C1 C2 1_555 1_555
C3 S1 1_555 1_555
C4 S2 1_555 1_555
C5 S3 1_555 1_555
C6 S4 1_555 1_555
C7 S5 1_555 1_555
H1 C7 1_555 1_555
H2 C7 1_555 1_555
C8 S6 1_555 1_555
H3 C8 1_555 1_555
H4 C8 1_555 1_555
C9 S7 1_555 1_555
H5 C9 1_555 1_555
H6 C9 1_555 1_555
C10 S8 1_555 1_555
H7 C10 1_555 1_555
H8 C10 1_555 1_555
S9 C11 1_555 1_555
S10 C11 1_555 1_555
S11 C12 1_555 1_555
S12 C12 1_555 1_555
S13 C13 1_555 1_555
S14 C14 1_555 1_555
S15 C15 1_555 1_555
S16 C16 1_555 1_555
C11 C12 1_555 1_555
C13 S9 1_555 1_555
C14 S10 1_555 1_555
C15 S11 1_555 1_555
C16 S12 1_555 1_555
C17 S13 1_555 1_555
H9 C17 1_555 1_555
H10 C17 1_555 1_555
C18 S14 1_555 1_555
H11 C18 1_555 1_555
H12 C18 1_555 1_555
C19 S15 1_555 1_555
H13 C19 1_555 1_555
H14 C19 1_555 1_555
C20 S16 1_555 1_555
H15 C20 1_555 1_555
H16 C20 1_555 1_555
S17 O1 1_555 1_555
O2 S17 1_555 1_555
O3 S17 1_555 1_555
C21 S17 1_555 1_555
H17 C21 1_555 1_555
H18 C21 1_555 1_555
C22 C21 1_555 1_555
F1 C22 1_555 1_555
F2 C22 1_555 1_555
F3 C22 1_555 1_555
C3 C4 1_555 1_555
C5 C6 1_555 1_555
C7 C8 1_555 1_555
C9 C10 1_555 1_555
C13 C14 1_555 1_555
C15 C16 1_555 1_555
C17 C18 1_555 1_555
C19 C20 1_555 1_555

#END
