
#######################################################################
#
#                 Cambridge Crystallographic Data Centre
#                                CCDC 
#
#######################################################################
#
# If this CIF has been generated from an entry in the Cambridge 
# Structural Database, then it will include bibliographic, chemical, 
# crystal, experimental, refinement or atomic coordinate data resulting 
# from the CCDC's data processing and validation procedures.
#
#######################################################################

data_RUHCIG01
_chemical_formula_moiety         'C10 H10 O1 S8'
_chemical_name_systematic        
'syn-6,10-Diethyl[1,2,3]trithiolo[4,5-h]benzopentathiepin 8-oxide'
_symmetry_cell_setting           monoclinic
_symmetry_space_group_name_H-M   'P 21'
_symmetry_Int_Tables_number      4
_space_group_name_Hall           'P 2yb'
loop_
_symmetry_equiv_pos_site_id
_symmetry_equiv_pos_as_xyz
1 x,y,z
2 -x,1/2+y,-z
_cell_length_a                   7.192(1)
_cell_length_b                   6.119(2)
_cell_length_c                   18.233(2)
_cell_angle_alpha                90
_cell_angle_beta                 99.89(1)
_cell_angle_gamma                90
_cell_volume                     790.471
_exptl_crystal_colour            yellow
_exptl_crystal_description       prismatic
_chemical_melting_point          125.0-127.5deg.C(dec.)
_cell_formula_units_Z            2
_exptl_crystal_recrystallization_method hexane/dichloromethane
loop_
_atom_site_label
_atom_site_type_symbol
_atom_site_fract_x
_atom_site_fract_y
_atom_site_fract_z
S1 S -0.3893(2) 1.1924 0.38785(6)
S2 S -0.3028(2) 0.9675(3) 0.47425(6)
S3 S -0.0402(2) 0.9170(3) 0.44039(5)
S4 S 0.1190(1) 0.8809(3) 0.15891(6)
S5 S 0.0116(2) 0.5986(3) 0.10910(7)
S6 S -0.1578(2) 0.7028(3) 0.01299(6)
S7 S -0.3786(2) 0.8540(3) 0.05032(7)
S8 S -0.2695(2) 1.1377(3) 0.09914(6)
O1 O -0.4176(6) 0.7674(8) 0.4625(2)
C1 C -0.1020(5) 0.9695(7) 0.3445(2)
C2 C 0.0131(5) 0.8949(7) 0.2952(2)
C3 C -0.0394(5) 0.9500(7) 0.2204(2)
C4 C -0.2060(6) 1.0680(7) 0.1953(2)
C5 C -0.3218(5) 1.1405(7) 0.2441(2)
C6 C -0.2635(6) 1.0925(6) 0.3199(2)
C7 C 0.1801(6) 0.7526(9) 0.3252(3)
C8 C 0.1231(9) 0.5129(9) 0.3248(3)
C9 C -0.4915(7) 1.2839(9) 0.2206(3)
C10 C -0.4378(9) 1.5226(9) 0.2265(4)
H1 H 0.280(7) 0.775(8) 0.295(2)
H2 H 0.218(7) 0.797(8) 0.369(3)
H3 H 0.081(8) 0.44(1) 0.276(3)
H4 H 0.23(1) 0.42(1) 0.346(4)
H5 H 0.013(8) 0.488(10) 0.350(3)
H6 H -0.553(8) 1.222(9) 0.170(3)
H7 H -0.587(10) 1.24(1) 0.252(3)
H8 H -0.36(2) 1.53(2) 0.186(6)
H9 H -0.544(8) 1.61(1) 0.208(3)
H10 H -0.379(8) 1.55(1) 0.275(3)
loop_
_geom_bond_atom_site_label_1
_geom_bond_atom_site_label_2
_geom_bond_site_symmetry_1
_geom_bond_site_symmetry_2
S1 S2 1_555 1_555
S2 S3 1_555 1_555
S3 C1 1_555 1_555
S4 S5 1_555 1_555
S5 S6 1_555 1_555
S6 S7 1_555 1_555
S7 S8 1_555 1_555
S8 C4 1_555 1_555
O1 S2 1_555 1_555
C1 C2 1_555 1_555
C2 C3 1_555 1_555
C3 S4 1_555 1_555
C4 C3 1_555 1_555
C5 C4 1_555 1_555
C6 S1 1_555 1_555
C7 C2 1_555 1_555
C8 C7 1_555 1_555
C9 C5 1_555 1_555
C10 C9 1_555 1_555
H1 C7 1_555 1_555
H2 C7 1_555 1_555
H3 C8 1_555 1_555
H4 C8 1_555 1_555
H5 C8 1_555 1_555
H6 C9 1_555 1_555
H7 C9 1_555 1_555
H8 C10 1_555 1_555
H9 C10 1_555 1_555
H10 C10 1_555 1_555
C1 C6 1_555 1_555
C5 C6 1_555 1_555

#END
