
#######################################################################
#
#                 Cambridge Crystallographic Data Centre
#                                CCDC 
#
#######################################################################
#
# If this CIF has been generated from an entry in the Cambridge 
# Structural Database, then it will include bibliographic, chemical, 
# crystal, experimental, refinement or atomic coordinate data resulting 
# from the CCDC's data processing and validation procedures.
#
#######################################################################

data_RUHDUV
_chemical_formula_moiety         'C18 H19 N3 O2 S1'
_chemical_name_systematic        
4-Isopropyl-2,3,10,11-tetrahydro-9H-cyclopenta[4'',5'']pyrido[3'',2'':4',5']furo[3',2':4,5]pyrimido[2,1-b][1,3]thiazin-7(1H)-one
_symmetry_cell_setting           orthorhombic
_symmetry_space_group_name_H-M   'P 21 21 21'
_symmetry_Int_Tables_number      19
_space_group_name_Hall           'P 2ac 2ab'
loop_
_symmetry_equiv_pos_site_id
_symmetry_equiv_pos_as_xyz
1 x,y,z
2 1/2-x,-y,1/2+z
3 -x,1/2+y,1/2-z
4 1/2+x,1/2-y,-z
_cell_length_a                   5.0035(10)
_cell_length_b                   12.714(3)
_cell_length_c                   25.908(5)
_cell_angle_alpha                90
_cell_angle_beta                 90
_cell_angle_gamma                90
_cell_volume                     1648.12
_exptl_crystal_colour            'light yellow'
_exptl_crystal_description       needle
_cell_formula_units_Z            4
loop_
_atom_site_label
_atom_site_type_symbol
_atom_site_fract_x
_atom_site_fract_y
_atom_site_fract_z
O1 O 0.8441(6) 0.00233(18) 0.81234(8)
C1 C 0.6695(8) -0.0134(2) 0.85262(12)
N1 N 0.5220(7) -0.0991(2) 0.85413(11)
C2 C 0.3603(8) -0.1067(3) 0.89532(13)
C3 C 0.3474(8) -0.0283(3) 0.93331(12)
C4 C 0.1831(9) -0.0243(3) 0.98165(13)
H1 H 0.2486 -0.0741 1.0070
H2 H -0.0031 -0.0395 0.9744
C5 C 0.2166(11) 0.0873(4) 1.00047(18)
H3 H 0.2412 0.0880 1.0376
H4 H 0.0587 0.1283 0.9923
C6 C 0.4587(8) 0.1341(3) 0.97412(13)
H5 H 0.4224 0.2049 0.9621
H6 H 0.6113 0.1356 0.9972
C7 C 0.5061(8) 0.0607(2) 0.92976(12)
C8 C 0.6762(8) 0.0695(2) 0.88791(12)
C9 C 0.8714(8) 0.1415(2) 0.86708(12)
N2 N 0.9588(7) 0.2365(2) 0.88526(10)
C10 C 1.1306(8) 0.2842(3) 0.85532(14)
S1 S 1.2296(3) 0.40614(9) 0.88010(5)
C11 C 1.402(3) 0.4626(11) 0.8255(5)
H7 H 1.2717 0.4945 0.8026
H8 H 1.5197 0.5179 0.8377
C12 C 1.566(2) 0.3833(8) 0.7950(4)
H9 H 1.6643 0.4194 0.7681
H10 H 1.6935 0.3495 0.8178
C13 C 1.393(4) 0.3041(10) 0.7720(6)
H11 H 1.5031 0.2537 0.7537
H12 H 1.2782 0.3381 0.7468
N3 N 1.2225(7) 0.2465(2) 0.80918(11)
C14 C 1.1468(9) 0.1465(3) 0.78938(14)
C15 C 0.9607(8) 0.0981(3) 0.82250(12)
O2 O 1.2343(7) 0.1136(2) 0.74869(10)
C16 C 0.1963(9) -0.2063(3) 0.89974(15)
H13 H 0.0268 -0.1882 0.9165
C17 C 0.3397(13) -0.2847(3) 0.93404(19)
H14 H 0.5086 -0.3027 0.9188
H15 H 0.2326 -0.3469 0.9376
H16 H 0.3687 -0.2541 0.9674
C18 C 0.1318(11) -0.2554(3) 0.84787(17)
H17 H 0.2926 -0.2826 0.8327
H18 H 0.0561 -0.2031 0.8255
H19 H 0.0060 -0.3116 0.8526
C19? C 1.502(3) 0.4561(16) 0.8416(4)
H20? H 1.5169 0.5320 0.8442
H21? H 1.6709 0.4241 0.8512
C20? C 1.414(4) 0.4223(12) 0.7879(5)
H22? H 1.2343 0.4480 0.7820
H23? H 1.5303 0.4555 0.7627
C21? C 1.418(5) 0.3092(14) 0.7794(8)
H24? H 1.5957 0.2835 0.7874
H25? H 1.3870 0.2964 0.7429
loop_
_geom_bond_atom_site_label_1
_geom_bond_atom_site_label_2
_geom_bond_site_symmetry_1
_geom_bond_site_symmetry_2
O1 C1 1_555 1_555
C1 N1 1_555 1_555
N1 C2 1_555 1_555
C2 C3 1_555 1_555
C3 C4 1_555 1_555
C4 H1 1_555 1_555
H2 C4 1_555 1_555
C5 C4 1_555 1_555
H3 C5 1_555 1_555
H4 C5 1_555 1_555
C6 C5 1_555 1_555
H5 C6 1_555 1_555
H6 C6 1_555 1_555
C7 C3 1_555 1_555
C8 C1 1_555 1_555
C9 C8 1_555 1_555
N2 C9 1_555 1_555
C10 N2 1_555 1_555
S1 C10 1_555 1_555
C11 S1 1_555 1_555
H7 C11 1_555 1_555
H8 C11 1_555 1_555
C12 C11 1_555 1_555
H9 C12 1_555 1_555
H10 C12 1_555 1_555
C13 C12 1_555 1_555
H11 C13 1_555 1_555
H12 C13 1_555 1_555
N3 C10 1_555 1_555
C14 N3 1_555 1_555
C15 O1 1_555 1_555
O2 C14 1_555 1_555
C16 C2 1_555 1_555
H13 C16 1_555 1_555
C17 C16 1_555 1_555
H14 C17 1_555 1_555
H15 C17 1_555 1_555
H16 C17 1_555 1_555
C18 C16 1_555 1_555
H17 C18 1_555 1_555
H18 C18 1_555 1_555
H19 C18 1_555 1_555
C6 C7 1_555 1_555
C7 C8 1_555 1_555
C9 C15 1_555 1_555
C13 N3 1_555 1_555
C14 C15 1_555 1_555

#END
