
#######################################################################
#
#                 Cambridge Crystallographic Data Centre
#                                CCDC 
#
#######################################################################
#
# If this CIF has been generated from an entry in the Cambridge 
# Structural Database, then it will include bibliographic, chemical, 
# crystal, experimental, refinement or atomic coordinate data resulting 
# from the CCDC's data processing and validation procedures.
#
#######################################################################

data_RUHJEJ
_chemical_formula_moiety         'C48 H80 N8 O12,H2 O1'
_chemical_name_systematic        
'N-t-Butoxycarbonyl-L-tyrosyl-L-alanyl-L-leucyl-\a-aminoisobutyryl-L-valyl-L-alanyl-L-leucyl-(6-aminohexanoic acid methyl ester) monohydrate'
_symmetry_cell_setting           orthorhombic
_symmetry_space_group_name_H-M   'P 21 21 21'
_symmetry_Int_Tables_number      19
_space_group_name_Hall           'P 2ac 2ab'
loop_
_symmetry_equiv_pos_site_id
_symmetry_equiv_pos_as_xyz
1 x,y,z
2 1/2-x,-y,1/2+z
3 1/2+x,1/2-y,-z
4 -x,1/2+y,1/2-z
_cell_length_a                   11.094(2)
_cell_length_b                   18.455(4)
_cell_length_c                   27.625(5)
_cell_angle_alpha                90
_cell_angle_beta                 90
_cell_angle_gamma                90
_cell_volume                     5655.94
_exptl_crystal_colour            colorless
_cell_formula_units_Z            4
_exptl_crystal_recrystallization_method methanol/water
loop_
_atom_site_label
_atom_site_type_symbol
_atom_site_fract_x
_atom_site_fract_y
_atom_site_fract_z
C1 C 0.5650(15) 0.82158(74) 0.19433(44)
C2 C 0.5235(14) 0.79554(59) 0.24382(37)
H1 H 0.5884(14) 0.80530(59) 0.26584(37)
H2 H 0.4540(14) 0.82321(59) 0.25313(37)
H3 H 0.5043(14) 0.74484(59) 0.24471(37)
C3 C 0.4663(15) 0.80544(72) 0.15778(49)
H4 H 0.4911(15) 0.81893(72) 0.12574(49)
H5 H 0.4469(15) 0.75476(72) 0.15839(49)
H6 H 0.3965(15) 0.83313(72) 0.16681(49)
C4 C 0.6811(16) 0.79006(68) 0.17788(42)
H7 H 0.6950(16) 0.80705(68) 0.14551(42)
H8 H 0.7458(16) 0.80574(68) 0.19847(42)
H9 H 0.6774(16) 0.73809(68) 0.17789(42)
O1 O 0.57402(74) 0.89830(38) 0.20119(21)
C5 C 0.60462(98) 0.94291(59) 0.16542(37)
O2 O 0.60536(67) 0.92926(32) 0.12200(21)
N1 N 0.63139(82) 1.00826(43) 0.18440(25)
H10 H 0.64472(82) 1.01298(43) 0.21638(25)
C6 C 0.64390(96) 1.07168(47) 0.15380(32)
H11 H 0.56776(96) 1.08162(47) 0.13869(32)
C7 C 0.7367(12) 1.06213(55) 0.11315(35)
O3 O 0.71556(66) 1.08087(31) 0.07211(20)
C8 C 0.6744(11) 1.13543(51) 0.18556(31)
H12 H 0.7453(11) 1.12226(51) 0.20341(31)
H13 H 0.6105(11) 1.14402(51) 0.20829(31)
C9 C 0.7005(12) 1.20665(53) 0.15771(33)
C10 C 0.6058(10) 1.25134(60) 0.14227(36)
H14 H 0.5254(10) 1.23715(60) 0.15086(36)
C11 C 0.6298(12) 1.31547(60) 0.11884(38)
H15 H 0.5637(12) 1.34355(60) 0.10656(38)
C12 C 0.7458(13) 1.33805(68) 0.10982(40)
C13 C 0.8398(13) 1.29382(68) 0.12498(40)
H16 H 0.9211(13) 1.30881(68) 0.11854(40)
C14 C 0.8181(12) 1.22805(61) 0.14850(39)
H17 H 0.8832(12) 1.19708(61) 0.15828(39)
O4 O 0.76748(73) 1.40285(38) 0.08858(27)
N2 N 0.84151(88) 1.03225(44) 0.12541(27)
H18 H 0.85538(88) 1.01694(44) 0.15584(27)
C15 C 0.9343(11) 1.02446(62) 0.08826(33)
H19 H 0.9557(11) 1.07195(62) 0.07699(33)
C16 C 0.89074(97) 0.97969(60) 0.04482(37)
O5 O 0.92407(72) 0.99558(40) 0.00463(23)
C17 C 1.0495(10) 0.99095(69) 0.11002(37)
H20 H 1.0772(10) 1.02048(69) 0.13638(37)
H21 H 1.0280(10) 0.94384(69) 0.12195(37)
H22 H 1.1125(10) 0.98630(69) 0.08640(37)
N3 N 0.82067(79) 0.92310(42) 0.05480(23)
H23 H 0.80063(79) 0.91208(42) 0.08550(23)
C18 C 0.77205(93) 0.88025(49) 0.01551(30)
H24 H 0.83772(93) 0.87026(49) -0.00611(30)
C19 C 0.6766(11) 0.92010(51) -0.01274(35)
O6 O 0.67275(64) 0.91991(30) -0.05705(19)
C20 C 0.7203(11) 0.80730(50) 0.03461(34)
H25 H 0.6598(11) 0.81788(50) 0.05844(34)
H26 H 0.7839(11) 0.78110(50) 0.05040(34)
C21 C 0.6731(13) 0.75557(60) -0.00239(43)
H27 H 0.6094(13) 0.78080(60) -0.01880(43)
C22 C 0.6171(13) 0.69089(57) 0.02149(42)
H28 H 0.5562(13) 0.70653(57) 0.04386(42)
H29 H 0.5825(13) 0.65749(57) -0.00125(42)
H30 H 0.6811(13) 0.66744(57) 0.03888(42)
C23 C 0.7681(11) 0.73364(56) -0.03991(36)
H31 H 0.7982(11) 0.77558(56) -0.05650(36)
H32 H 0.8328(11) 0.71041(56) -0.02285(36)
H33 H 0.7343(11) 0.70047(56) -0.06299(36)
N4 N 0.59325(77) 0.95811(41) 0.01339(25)
H34 H 0.59972(77) 0.95803(41) 0.04587(25)
C24 C 0.4965(11) 1.00135(59) -0.00885(36)
C25 C 0.5534(11) 1.05321(53) -0.04578(32)
O7 O 0.50479(65) 1.06123(34) -0.08630(22)
C26 C 0.43073(97) 1.04419(55) 0.03059(34)
H35 H 0.39248(97) 1.01246(55) 0.05345(34)
H36 H 0.49020(97) 1.07303(55) 0.04690(34)
H37 H 0.37134(97) 1.07534(55) 0.01625(34)
C27 C 0.4068(10) 0.94927(56) -0.03176(38)
H38 H 0.4461(10) 0.92137(56) -0.05649(38)
H39 H 0.3758(10) 0.91731(56) -0.00734(38)
H40 H 0.3417(10) 0.97633(56) -0.04579(38)
N5 N 0.64921(81) 1.09077(40) -0.03252(27)
H41 H 0.68333(81) 1.08201(40) -0.00355(27)
C28 C 0.70365(94) 1.14450(45) -0.06470(33)
H42 H 0.63988(94) 1.17274(45) -0.07870(33)
C29 C 0.7757(11) 1.11061(59) -0.10406(34)
O8 O 0.77320(86) 1.13595(38) -0.14481(24)
C30 C 0.7718(14) 1.20143(69) -0.03447(44)
C31 C 0.6928(16) 1.24129(81) -0.00128(55)
H43 H 0.7316(16) 1.27406(81) 0.02076(55)
H44 H 0.6452(16) 1.26835(81) -0.02399(55)
H45 H 0.6416(16) 1.20888(81) 0.01650(55)
C32 C 0.8368(22) 1.24972(95) -0.06372(70)
N6 N 0.83928(80) 1.05309(44) -0.09440(23)
H46 H 0.83639(80) 1.03352(44) -0.06458(23)
C34 C 0.9121(10) 1.01683(56) -0.13051(34)
H47 H 0.9609(10) 1.05361(56) -0.14535(34)
C35 C 0.8366(12) 0.98009(57) -0.17109(32)
O9 O 0.88109(63) 0.97288(41) -0.21169(22)
C36 C 0.99512(94) 0.96086(60) -0.10865(35)
H48 H 1.04606(94) 0.98293(60) -0.08474(35)
H49 H 0.94491(94) 0.92507(60) -0.09350(35)
H50 H 1.04409(94) 0.93817(60) -0.13296(35)
N7 N 0.72625(84) 0.95854(41) -0.15976(25)
H51 H 0.69639(84) 0.96570(41) -0.12985(25)
C37 C 0.6518(10) 0.92714(57) -0.19663(33)
H52 H 0.7001(10) 0.89326(57) -0.21449(33)
C38 C 0.5994(11) 0.98199(74) -0.23087(37)
O10 O 0.57869(70) 0.96587(47) -0.27380(24)
C39 C 0.54766(99) 0.88335(55) -0.17427(34)
H53 H 0.48466(99) 0.87557(55) -0.19752(34)
H54 H 0.51605(99) 0.91235(55) -0.14836(34)
C40 C 0.5848(13) 0.81139(61) -0.15115(41)
H55 H 0.6478(13) 0.81943(61) -0.12798(41)
C41 C 0.4810(12) 0.77534(63) -0.12459(46)
H56 H 0.5013(12) 0.72904(63) -0.11100(46)
H57 H 0.4554(12) 0.80743(63) -0.09925(46)
H58 H 0.4169(12) 0.76953(63) -0.14763(46)
C42 C 0.6372(16) 0.76045(67) -0.18669(47)
H59 H 0.6638(16) 0.71651(67) -0.17148(47)
H60 H 0.5719(16) 0.74985(67) -0.20838(47)
H61 H 0.7027(16) 0.78152(67) -0.20451(47)
N8 N 0.5693(11) 1.04485(63) -0.21261(35)
H62 H 0.5901(11) 1.05466(63) -0.18181(35)
C43 C 0.5019(17) 1.10076(88) -0.23828(70)
H63 H 0.5132(17) 1.09399(88) -0.27243(70)
H64 H 0.5286(17) 1.14855(88) -0.22972(70)
C44 C 0.3603(33) 1.0947(12) -0.22704(97)
H65 H 0.3125(33) 1.1356(12) -0.23665(97)
H66 H 0.3510(33) 1.0869(12) -0.19288(97)
C45 C 0.3234(25) 1.0392(16) -0.2474(11)
H67 H 0.3719(25) 0.9982(16) -0.2387(11)
H68 H 0.3281(25) 1.0471(16) -0.2817(11)
C46 C 0.1983(25) 1.0123(13) -0.23984(88)
H69 H 0.1480(25) 1.0442(13) -0.25840(88)
H70 H 0.1939(25) 1.0272(13) -0.20660(88)
C47 C 0.1638(19) 0.9449(15) -0.25148(91)
H71 H 0.0778(19) 0.9397(15) -0.25072(91)
H72 H 0.1961(19) 0.9219(15) -0.22310(91)
C48 C 0.2132(26) 0.8915(17) -0.28394(94)
O11 O 0.1721(22) 0.9007(16) -0.32278(92)
O12 O 0.2813(17) 0.8470(11) -0.26833(81)
C49 C 0.3215(26) 0.8181(16) -0.31852(84)
H73 H 0.3798(26) 0.7843(16) -0.30626(84)
H74 H 0.2561(26) 0.7921(16) -0.33319(84)
H75 H 0.3589(26) 0.8487(16) -0.34223(84)
O13 O 0.6255(55) 0.4208(28) -0.0014(18)
C33? C 0.8758(27) 1.1870(13) -0.00821(67)
loop_
_geom_bond_atom_site_label_1
_geom_bond_atom_site_label_2
_geom_bond_site_symmetry_1
_geom_bond_site_symmetry_2
C1 C2 1_555 1_555
C2 H1 1_555 1_555
H2 C2 1_555 1_555
H3 C2 1_555 1_555
C3 C1 1_555 1_555
H4 C3 1_555 1_555
H5 C3 1_555 1_555
H6 C3 1_555 1_555
C4 C1 1_555 1_555
H7 C4 1_555 1_555
H8 C4 1_555 1_555
H9 C4 1_555 1_555
O1 C1 1_555 1_555
C5 O1 1_555 1_555
O2 C5 1_555 1_555
N1 C5 1_555 1_555
H10 N1 1_555 1_555
C6 N1 1_555 1_555
H11 C6 1_555 1_555
C7 C6 1_555 1_555
O3 C7 1_555 1_555
C8 C6 1_555 1_555
H12 C8 1_555 1_555
H13 C8 1_555 1_555
C9 C8 1_555 1_555
C10 C9 1_555 1_555
H14 C10 1_555 1_555
C11 C10 1_555 1_555
H15 C11 1_555 1_555
C12 C11 1_555 1_555
C13 C12 1_555 1_555
H16 C13 1_555 1_555
C14 C9 1_555 1_555
H17 C14 1_555 1_555
O4 C12 1_555 1_555
N2 C7 1_555 1_555
H18 N2 1_555 1_555
C15 N2 1_555 1_555
H19 C15 1_555 1_555
C16 C15 1_555 1_555
O5 C16 1_555 1_555
C17 C15 1_555 1_555
H20 C17 1_555 1_555
H21 C17 1_555 1_555
H22 C17 1_555 1_555
N3 C16 1_555 1_555
H23 N3 1_555 1_555
C18 N3 1_555 1_555
H24 C18 1_555 1_555
C19 C18 1_555 1_555
O6 C19 1_555 1_555
C20 C18 1_555 1_555
H25 C20 1_555 1_555
H26 C20 1_555 1_555
C21 C20 1_555 1_555
H27 C21 1_555 1_555
C22 C21 1_555 1_555
H28 C22 1_555 1_555
H29 C22 1_555 1_555
H30 C22 1_555 1_555
C23 C21 1_555 1_555
H31 C23 1_555 1_555
H32 C23 1_555 1_555
H33 C23 1_555 1_555
N4 C19 1_555 1_555
H34 N4 1_555 1_555
C24 N4 1_555 1_555
C25 C24 1_555 1_555
O7 C25 1_555 1_555
C26 C24 1_555 1_555
H35 C26 1_555 1_555
H36 C26 1_555 1_555
H37 C26 1_555 1_555
C27 C24 1_555 1_555
H38 C27 1_555 1_555
H39 C27 1_555 1_555
H40 C27 1_555 1_555
N5 C25 1_555 1_555
H41 N5 1_555 1_555
C28 N5 1_555 1_555
H42 C28 1_555 1_555
C29 C28 1_555 1_555
O8 C29 1_555 1_555
C30 C28 1_555 1_555
C31 C30 1_555 1_555
H43 C31 1_555 1_555
H44 C31 1_555 1_555
H45 C31 1_555 1_555
C32 C30 1_555 1_555
N6 C29 1_555 1_555
H46 N6 1_555 1_555
C34 N6 1_555 1_555
H47 C34 1_555 1_555
C35 C34 1_555 1_555
O9 C35 1_555 1_555
C36 C34 1_555 1_555
H48 C36 1_555 1_555
H49 C36 1_555 1_555
H50 C36 1_555 1_555
N7 C35 1_555 1_555
H51 N7 1_555 1_555
C37 N7 1_555 1_555
H52 C37 1_555 1_555
C38 C37 1_555 1_555
O10 C38 1_555 1_555
C39 C37 1_555 1_555
H53 C39 1_555 1_555
H54 C39 1_555 1_555
C40 C39 1_555 1_555
H55 C40 1_555 1_555
C41 C40 1_555 1_555
H56 C41 1_555 1_555
H57 C41 1_555 1_555
H58 C41 1_555 1_555
C42 C40 1_555 1_555
H59 C42 1_555 1_555
H60 C42 1_555 1_555
H61 C42 1_555 1_555
N8 C38 1_555 1_555
H62 N8 1_555 1_555
C43 N8 1_555 1_555
H63 C43 1_555 1_555
H64 C43 1_555 1_555
C44 C43 1_555 1_555
H65 C44 1_555 1_555
H66 C44 1_555 1_555
C45 C44 1_555 1_555
H67 C45 1_555 1_555
H68 C45 1_555 1_555
C46 C45 1_555 1_555
H69 C46 1_555 1_555
H70 C46 1_555 1_555
C47 C46 1_555 1_555
H71 C47 1_555 1_555
H72 C47 1_555 1_555
C48 C47 1_555 1_555
O11 C48 1_555 1_555
O12 C48 1_555 1_555
C49 O12 1_555 1_555
H73 C49 1_555 1_555
H74 C49 1_555 1_555
H75 C49 1_555 1_555
C13 C14 1_555 1_555

#END
