
#######################################################################
#
#                 Cambridge Crystallographic Data Centre
#                                CCDC 
#
#######################################################################
#
# If this CIF has been generated from an entry in the Cambridge 
# Structural Database, then it will include bibliographic, chemical, 
# crystal, experimental, refinement or atomic coordinate data resulting 
# from the CCDC's data processing and validation procedures.
#
#######################################################################

data_RUHQUG
_chemical_formula_moiety         'C16 H20 O4'
_chemical_name_systematic        2,3-Isopropylidene-furo(3,2-c)(2)benzoxocine
_symmetry_cell_setting           orthorhombic
_symmetry_space_group_name_H-M   'P 21 21 21'
_symmetry_Int_Tables_number      19
_space_group_name_Hall           'P 2ac 2ab'
loop_
_symmetry_equiv_pos_site_id
_symmetry_equiv_pos_as_xyz
1 x,y,z
2 1/2-x,-y,1/2+z
3 -x,1/2+y,1/2-z
4 1/2+x,1/2-y,-z
_cell_length_a                   8.6733(6)
_cell_length_b                   9.1234(6)
_cell_length_c                   17.9110(11)
_cell_angle_alpha                90
_cell_angle_beta                 90
_cell_angle_gamma                90
_cell_volume                     1417.3
_chemical_melting_point          151-152deg.C
_cell_formula_units_Z            4
loop_
_atom_site_label
_atom_site_type_symbol
_atom_site_fract_x
_atom_site_fract_y
_atom_site_fract_z
O1 O 0.4484(2) 0.3303(2) 0.04302(11)
O2 O 0.3802(3) 0.6538(3) 0.00154(13)
O3 O 0.3842(3) 0.7974(2) 0.10665(13)
O4 O 0.5358(3) 0.6297(2) 0.16372(12)
C1 C 0.5306(4) 0.1524(3) -0.0500(2)
C2 C 0.4667(5) 0.0164(4) -0.0637(2)
C3 C 0.4493(5) -0.0380(4) -0.1341(2)
C4 C 0.4984(5) 0.0448(4) -0.1942(2)
C5 C 0.5626(5) 0.1818(4) -0.1819(2)
C6 C 0.5794(4) 0.2387(3) -0.1101(2)
C7 C 0.6440(5) 0.3896(4) -0.0980(2)
C8 C 0.5211(6) 0.5052(4) -0.0839(2)
C9 C 0.5224(4) 0.5717(3) -0.0067(2)
C10 C 0.5230(4) 0.4644(3) 0.0594(2)
C11 C 0.5457(5) 0.2063(3) 0.0291(2)
C12 C 0.4330(4) 0.5472(4) 0.1181(2)
C13 C 0.3410(4) 0.6617(4) 0.0768(2)
C14 C 0.4759(4) 0.7728(3) 0.1719(2)
C15 C 0.3771(7) 0.7845(6) 0.2409(3)
C16 C 0.6076(6) 0.8798(5) 0.1716(3)
H1 H 0.4422(43) -0.0420(40) -0.0279(18)
H2 H 0.3918(54) -0.1391(59) -0.1289(26)
H3 H 0.5019(59) -0.0030(45) -0.2486(24)
H4 H 0.5997(41) 0.2504(40) -0.2290(21)
H5 H 0.6992(37) 0.4166(40) -0.1347(17)
H6 H 0.7178(32) 0.3931(34) -0.0606(16)
H7 H 0.5369(48) 0.5818(42) -0.1135(20)
H8 H 0.4182(44) 0.4634(41) -0.0861(19)
H9 H 0.6111(47) 0.6495(43) 0.0019(21)
H10 H 0.6255(42) 0.4473(37) 0.0788(19)
H11 H 0.5141(35) 0.1299(34) 0.0672(16)
H12 H 0.6525(46) 0.2416(44) 0.0505(20)
H13 H 0.3722(40) 0.4886(38) 0.1411(17)
H14 H 0.2403(39) 0.6679(40) 0.0784(18)
H15 H 0.2836(39) 0.7152(43) 0.2411(22)
H16 H 0.3463(48) 0.8909(39) 0.2480(22)
H17 H 0.4413(45) 0.7615(42) 0.2766(21)
H18 H 0.6671(51) 0.8543(56) 0.2203(25)
H19 H 0.6611(44) 0.8774(49) 0.1150(21)
H20 H 0.5694(69) 0.9791(48) 0.1881(26)
loop_
_geom_bond_atom_site_label_1
_geom_bond_atom_site_label_2
_geom_bond_site_symmetry_1
_geom_bond_site_symmetry_2
O1 C10 1_555 1_555
O2 C9 1_555 1_555
O3 C13 1_555 1_555
O4 C12 1_555 1_555
C1 C2 1_555 1_555
C2 C3 1_555 1_555
C3 C4 1_555 1_555
C4 C5 1_555 1_555
C5 C6 1_555 1_555
C6 C1 1_555 1_555
C7 C6 1_555 1_555
C8 C7 1_555 1_555
C9 C8 1_555 1_555
C10 C9 1_555 1_555
C11 O1 1_555 1_555
C12 C10 1_555 1_555
C13 O2 1_555 1_555
C14 O3 1_555 1_555
C15 C14 1_555 1_555
C16 C14 1_555 1_555
H1 C2 1_555 1_555
H2 C3 1_555 1_555
H3 C4 1_555 1_555
H4 C5 1_555 1_555
H5 C7 1_555 1_555
H6 C7 1_555 1_555
H7 C8 1_555 1_555
H8 C8 1_555 1_555
H9 C9 1_555 1_555
H10 C10 1_555 1_555
H11 C11 1_555 1_555
H12 C11 1_555 1_555
H13 C12 1_555 1_555
H14 C13 1_555 1_555
H15 C15 1_555 1_555
H16 C15 1_555 1_555
H17 C15 1_555 1_555
H18 C16 1_555 1_555
H19 C16 1_555 1_555
H20 C16 1_555 1_555
O4 C14 1_555 1_555
C1 C11 1_555 1_555
C12 C13 1_555 1_555

#END
