
#######################################################################
#
#                 Cambridge Crystallographic Data Centre
#                                CCDC 
#
#######################################################################
#
# If this CIF has been generated from an entry in the Cambridge 
# Structural Database, then it will include bibliographic, chemical, 
# crystal, experimental, refinement or atomic coordinate data resulting 
# from the CCDC's data processing and validation procedures.
#
#######################################################################

data_RUHWEW
_chemical_formula_moiety         'C13 H26 N6 O2 2+,2(C6 H2 N3 O7 1-),H2 O1'
_chemical_name_systematic        
'6-(1,7-Diaza-4,10-diazoniacyclododecanylmethyl)uracil dipicrate monohydrate'
_symmetry_cell_setting           triclinic
_symmetry_space_group_name_H-M   'P -1'
_symmetry_Int_Tables_number      2
_space_group_name_Hall           '-P 1'
loop_
_symmetry_equiv_pos_site_id
_symmetry_equiv_pos_as_xyz
1 x,y,z
2 -x,-y,-z
_cell_length_a                   9.295(4)
_cell_length_b                   19.67(1)
_cell_length_c                   8.886(6)
_cell_angle_alpha                94.36(3)
_cell_angle_beta                 102.95(4)
_cell_angle_gamma                87.04(4)
_cell_volume                     1577.75
_exptl_crystal_colour            yellow
_exptl_crystal_description       prisms
_chemical_melting_point          210-211deg.C
_cell_formula_units_Z            2
_exptl_crystal_recrystallization_method ethanol/water
loop_
_atom_site_label
_atom_site_type_symbol
_atom_site_fract_x
_atom_site_fract_y
_atom_site_fract_z
N1 N 0.3000(3) 0.3287(1) 0.9922(3)
C1 C 0.2140(4) 0.3115(2) 1.0991(4)
C2 C 0.1150(4) 0.2536(2) 1.0370(4)
N2 N 0.1992(3) 0.1921(1) 1.0029(3)
C3 C 0.2718(4) 0.1560(2) 1.1368(5)
C4 C 0.3813(5) 0.1057(2) 1.0929(6)
N3 N 0.4879(3) 0.1401(1) 1.0360(4)
C5 C 0.6107(4) 0.1642(2) 1.1522(5)
C6 C 0.6908(4) 0.2145(2) 1.0924(5)
N4 N 0.5890(3) 0.2691(1) 1.0287(3)
C7 C 0.5512(4) 0.3201(2) 1.1438(4)
C8 C 0.4307(4) 0.3657(2) 1.0721(4)
C9 C 0.2045(3) 0.3671(2) 0.8781(4)
C10 C 0.2785(3) 0.3912(2) 0.7631(4)
N5 N 0.3273(3) 0.3426(1) 0.6685(3)
C11 C 0.3984(3) 0.3570(2) 0.5595(4)
N6 N 0.4192(3) 0.4237(1) 0.5533(3)
C12 C 0.3720(3) 0.4754(2) 0.6423(4)
C13 C 0.2973(4) 0.4555(2) 0.7518(4)
O1 O 0.4392(3) 0.3140(1) 0.4743(3)
O2 O 0.3956(3) 0.5336(1) 0.6271(3)
H1 H 0.2792 0.2993 1.1923
H2 H 0.1544 0.3503 1.1203
H3 H 0.0487 0.2661 0.9454
H4 H 0.0617 0.2446 1.1123
H5 H 0.1335 0.1620 0.9352
H6 H 0.2728 0.2045 0.9516
H7 H 0.3200 0.1876 1.2153
H8 H 0.2005 0.1329 1.1729
H9 H 0.3330 0.0739 1.0163
H10 H 0.4298 0.0831 1.1826
H11 H 0.5136 0.1133 0.9470
H12 H 0.5750 0.1847 1.2378
H13 H 0.6753 0.1266 1.1844
H14 H 0.7654 0.2332 1.1750
H15 H 0.7361 0.1930 1.0147
H16 H 0.6318 0.2916 0.9593
H17 H 0.4998 0.2489 0.9724
H18 H 0.5228 0.2971 1.2227
H19 H 0.6365 0.3456 1.1887
H20 H 0.4047 0.3966 1.1491
H21 H 0.4631 0.3903 0.9980
H22 H 0.1259 0.3393 0.8264
H23 H 0.1662 0.4057 0.9299
H24 H 0.3100 0.2964 0.6789
H25 H 0.4724 0.4361 0.4804
H26 H 0.2616 0.4894 0.8192
C14 C -0.0407(3) 0.1002(2) 0.6494(4)
C15 C -0.0678(3) 0.0876(2) 0.4872(4)
C16 C -0.1695(4) 0.0449(2) 0.4034(4)
C17 C -0.2537(4) 0.0107(2) 0.4754(5)
C18 C -0.2364(4) 0.0190(2) 0.6286(5)
C19 C -0.1330(4) 0.0615(2) 0.7130(4)
O3 O 0.0494(3) 0.1413(1) 0.7233(3)
N7 N 0.0134(3) 0.1247(2) 0.4047(4)
O4 O 0.1450(7) 0.1363(7) 0.4605(8)
O6 O -0.0441(7) 0.1465(10) 0.282(1)
N8 N -0.3639(4) -0.0341(2) 0.3856(6)
O8 O -0.3882(4) -0.0346(2) 0.2482(5)
O9 O -0.4268(4) -0.0691(2) 0.4536(5)
N9 N -0.1213(4) 0.0675(2) 0.8758(4)
O10 O -0.2188(5) 0.0479(2) 0.9248(5)
O11 O -0.0229(6) 0.0943(3) 0.9568(4)
H27 H -0.1810 0.0399 0.2946
H28 H -0.2950 -0.0056 0.6790
C20 C 0.7551(4) 0.3474(2) 0.7530(4)
C21 C 0.7692(3) 0.2944(2) 0.6394(4)
C22 C 0.8406(4) 0.3020(2) 0.5262(4)
C23 C 0.9001(4) 0.3620(2) 0.5169(4)
C24 C 0.8892(4) 0.4163(2) 0.6207(4)
C25 C 0.8210(4) 0.4074(2) 0.7322(4)
O12 O 0.6883(4) 0.3449(1) 0.8548(4)
N10 N 0.7022(3) 0.2309(1) 0.6347(3)
O13 O 0.6575(4) 0.2171(2) 0.7437(4)
O14 O 0.6902(3) 0.1928(1) 0.5213(3)
N11 N 0.9718(4) 0.3691(2) 0.3962(4)
O15 O 0.9660(5) 0.3231(2) 0.2978(5)
O16 O 1.0345(5) 0.4198(2) 0.3962(4)
N12 N 0.8090(4) 0.4647(2) 0.8406(5)
O17 O 0.7691(10) 0.5167(3) 0.7969(9)
O19 O 0.8593(9) 0.4548(3) 0.9763(8)
H29 H 0.8500 0.2649 0.4535
H30 H 0.9299 0.4587 0.6124
O21 O 0.3190(3) 0.2056(1) 0.7217(3)
H31 H 0.2345 0.1836 0.6726
H32 H 0.4110 0.1842 0.6751
O5? O 0.076(5) 0.168(1) 0.458(2)
O7? O -0.009(3) 0.100(2) 0.273(1)
O18? O 0.903(2) 0.5041(8) 0.871(2)
O20? O 0.700(1) 0.4758(5) 0.885(1)
loop_
_geom_bond_atom_site_label_1
_geom_bond_atom_site_label_2
_geom_bond_site_symmetry_1
_geom_bond_site_symmetry_2
N1 C1 1_555 1_555
C1 C2 1_555 1_555
C2 N2 1_555 1_555
N2 C3 1_555 1_555
C3 C4 1_555 1_555
C4 N3 1_555 1_555
N3 C5 1_555 1_555
C5 C6 1_555 1_555
C6 N4 1_555 1_555
N4 C7 1_555 1_555
C7 C8 1_555 1_555
C8 N1 1_555 1_555
C9 N1 1_555 1_555
C10 C9 1_555 1_555
N5 C10 1_555 1_555
C11 N5 1_555 1_555
N6 C11 1_555 1_555
C12 N6 1_555 1_555
C13 C10 1_555 1_555
O1 C11 1_555 1_555
O2 C12 1_555 1_555
C14 C15 1_555 1_555
C15 C16 1_555 1_555
C16 C17 1_555 1_555
C17 C18 1_555 1_555
C18 C19 1_555 1_555
C19 C14 1_555 1_555
O3 C14 1_555 1_555
N7 C15 1_555 1_555
O4 N7 1_555 1_555
O6 N7 1_555 1_555
N8 C17 1_555 1_555
O8 N8 1_555 1_555
O9 N8 1_555 1_555
N9 C19 1_555 1_555
O10 N9 1_555 1_555
O11 N9 1_555 1_555
C20 C21 1_555 1_555
C21 C22 1_555 1_555
C22 C23 1_555 1_555
C23 C24 1_555 1_555
C24 C25 1_555 1_555
C25 C20 1_555 1_555
O12 C20 1_555 1_555
N10 C21 1_555 1_555
O13 N10 1_555 1_555
O14 N10 1_555 1_555
N11 C23 1_555 1_555
O15 N11 1_555 1_555
O16 N11 1_555 1_555
N12 C25 1_555 1_555
O17 N12 1_555 1_555
O19 N12 1_555 1_555
O21 H31 1_555 1_555
H1 C1 1_555 1_555
H2 C1 1_555 1_555
H3 C2 1_555 1_555
H4 C2 1_555 1_555
H5 N2 1_555 1_555
H6 N2 1_555 1_555
H7 C3 1_555 1_555
H8 C3 1_555 1_555
H9 C4 1_555 1_555
H10 C4 1_555 1_555
H11 N3 1_555 1_555
H12 C5 1_555 1_555
H13 C5 1_555 1_555
H14 C6 1_555 1_555
H15 C6 1_555 1_555
H16 N4 1_555 1_555
H17 N4 1_555 1_555
H18 C7 1_555 1_555
H19 C7 1_555 1_555
H20 C8 1_555 1_555
H21 C8 1_555 1_555
H22 C9 1_555 1_555
H23 C9 1_555 1_555
H24 N5 1_555 1_555
H25 N6 1_555 1_555
H26 C13 1_555 1_555
H27 C16 1_555 1_555
H28 C18 1_555 1_555
H29 C22 1_555 1_555
H30 C24 1_555 1_555
H32 O21 1_555 1_555
C12 C13 1_555 1_555

#END
