
#######################################################################
#
#                 Cambridge Crystallographic Data Centre
#                                CCDC 
#
#######################################################################
#
# If this CIF has been generated from an entry in the Cambridge 
# Structural Database, then it will include bibliographic, chemical, 
# crystal, experimental, refinement or atomic coordinate data resulting 
# from the CCDC's data processing and validation procedures.
#
#######################################################################

data_RUHYID
_chemical_formula_moiety         'C18 H28 O3'
_chemical_name_systematic        
2,6-bis(Cyclohexylmethyl)-1,4-dioxaspiro[2.3]hexan-5-one
_symmetry_cell_setting           monoclinic
_symmetry_space_group_name_H-M   'P 21/c'
_symmetry_Int_Tables_number      14
_space_group_name_Hall           '-P 2ybc'
loop_
_symmetry_equiv_pos_site_id
_symmetry_equiv_pos_as_xyz
1 x,y,z
2 -x,1/2+y,1/2-z
3 -x,-y,-z
4 x,1/2-y,1/2+z
_cell_length_a                   15.4756(15)
_cell_length_b                   10.1169(11)
_cell_length_c                   10.6297(11)
_cell_angle_alpha                90
_cell_angle_beta                 94.168(6)
_cell_angle_gamma                90
_cell_volume                     1659.84
_exptl_crystal_colour            colorless
_exptl_crystal_description       plate
_cell_formula_units_Z            4
_exptl_crystal_recrystallization_method pentane
loop_
_atom_site_label
_atom_site_type_symbol
_atom_site_fract_x
_atom_site_fract_y
_atom_site_fract_z
O1 O 0.40391(10) 0.06554(19) 1.12157(17)
O2 O 0.54263(11) 0.0261(2) 1.20282(17)
O3 O 0.31468(11) 0.2596(2) 1.08699(19)
C1 C 0.63525(15) 0.2867(3) 1.0383(2)
H1 H 0.6522 0.2124 1.0971
C2 C 0.69327(17) 0.2802(3) 0.9286(3)
H2 H 0.6865 0.1925 0.8878
H3 H 0.6741 0.3479 0.8654
C3 C 0.78756(17) 0.3022(3) 0.9688(3)
H4 H 0.8214 0.3040 0.8933
H5 H 0.8091 0.2277 1.0228
C4 C 0.80126(15) 0.4308(3) 1.0409(3)
H6 H 0.8631 0.4392 1.0711
H7 H 0.7863 0.5061 0.9839
C5 C 0.74603(15) 0.4357(4) 1.1518(3)
H8 H 0.7533 0.5226 1.1940
H9 H 0.7654 0.3665 1.2133
C6 C 0.65072(15) 0.4145(3) 1.1101(3)
H10 H 0.6166 0.4137 1.1853
H11 H 0.6300 0.4892 1.0559
C7 C 0.54026(15) 0.2673(3) 0.9931(3)
H12 H 0.5190 0.3487 0.9493
H13 H 0.5360 0.1943 0.9310
C8 C 0.48181(15) 0.2364(3) 1.0979(2)
H14 H 0.4849 0.3060 1.1649
C9 C 0.48929(17) 0.0975(3) 1.1531(3)
C10 C 0.38939(16) 0.1933(3) 1.0622(3)
C11 C 0.32598(15) 0.2099(3) 0.9578(3)
H15 H 0.3399 0.2785 0.8947
C12 C 0.26735(16) 0.1013(3) 0.9087(3)
H16 H 0.2578 0.0444 0.9786
H17 H 0.2972 0.0505 0.8491
C13 C 0.17770(18) 0.1457(3) 0.8602(3)
H18 H 0.1871 0.2052 0.7874
C14 C 0.1206(6) 0.2195(10) 0.9383(11)
H19 H 0.1510 0.2990 0.9733
H20 H 0.1048 0.1638 1.0097
C15 C 0.0391(4) 0.2607(8) 0.8594(10)
H21 H 0.0551 0.3188 0.7899
H22 H 0.0010 0.3116 0.9126
C16 C -0.0101(9) 0.140(2) 0.8043(17)
H23 H -0.0295 0.0849 0.8739
H24 H -0.0622 0.1699 0.7524
C17 C 0.0466(10) 0.059(2) 0.7240(16)
H25 H 0.0596 0.1092 0.6479
H26 H 0.0160 -0.0235 0.6964
C18 C 0.1313(10) 0.0242(14) 0.8019(14)
H27 H 0.1182 -0.0375 0.8702
H28 H 0.1707 -0.0217 0.7469
C19? C 0.17770(18) 0.1457(3) 0.8602(3)
C20? C 0.1272(6) 0.1563(13) 0.9807(11)
C21? C 0.0313(4) 0.1995(12) 0.9569(11)
C22? C -0.0146(11) 0.113(2) 0.8549(19)
C23? C 0.0354(9) 0.114(2) 0.7363(16)
C24? C 0.1281(8) 0.0599(15) 0.7664(13)
H29? H 0.1823 0.2360 0.8231
H30? H 0.1289 0.0693 1.0235
H31? H 0.1573 0.2206 1.0389
H32? H 0.0016 0.1914 1.0359
H33? H 0.0287 0.2932 0.9301
H34? H -0.0739 0.1473 0.8344
H35? H -0.0192 0.0217 0.8864
H36? H 0.0385 0.2051 0.7033
H37? H 0.0048 0.0583 0.6706
H38? H 0.1249 -0.0310 0.8004
H39? H 0.1587 0.0559 0.6879
loop_
_geom_bond_atom_site_label_1
_geom_bond_atom_site_label_2
_geom_bond_site_symmetry_1
_geom_bond_site_symmetry_2
O1 C9 1_555 1_555
O2 C9 1_555 1_555
O3 C10 1_555 1_555
C1 H1 1_555 1_555
C2 C1 1_555 1_555
H2 C2 1_555 1_555
H3 C2 1_555 1_555
C3 C2 1_555 1_555
H4 C3 1_555 1_555
H5 C3 1_555 1_555
C4 C3 1_555 1_555
H6 C4 1_555 1_555
H7 C4 1_555 1_555
C5 C4 1_555 1_555
H8 C5 1_555 1_555
H9 C5 1_555 1_555
C6 C1 1_555 1_555
H10 C6 1_555 1_555
H11 C6 1_555 1_555
C7 C1 1_555 1_555
H12 C7 1_555 1_555
H13 C7 1_555 1_555
C8 C7 1_555 1_555
H14 C8 1_555 1_555
C9 C8 1_555 1_555
C10 O1 1_555 1_555
C11 O3 1_555 1_555
H15 C11 1_555 1_555
C12 C11 1_555 1_555
H16 C12 1_555 1_555
H17 C12 1_555 1_555
C13 C12 1_555 1_555
H18 C13 1_555 1_555
C14 C13 1_555 1_555
H19 C14 1_555 1_555
H20 C14 1_555 1_555
C15 C14 1_555 1_555
H21 C15 1_555 1_555
H22 C15 1_555 1_555
C16 C15 1_555 1_555
H23 C16 1_555 1_555
H24 C16 1_555 1_555
C17 C16 1_555 1_555
H25 C17 1_555 1_555
H26 C17 1_555 1_555
C18 C13 1_555 1_555
H27 C18 1_555 1_555
H28 C18 1_555 1_555
C5 C6 1_555 1_555
C8 C10 1_555 1_555
C10 C11 1_555 1_555
C17 C18 1_555 1_555

#END
