
#######################################################################
#
#                 Cambridge Crystallographic Data Centre
#                                CCDC 
#
#######################################################################
#
# If this CIF has been generated from an entry in the Cambridge 
# Structural Database, then it will include bibliographic, chemical, 
# crystal, experimental, refinement or atomic coordinate data resulting 
# from the CCDC's data processing and validation procedures.
#
#######################################################################

data_RUHYAV
_chemical_formula_moiety         'C18 H28 O3'
_chemical_name_systematic        
3,5-bis(Cyclohexylmethyl)-4-hydroxyfuran-2(5H)-one
_symmetry_cell_setting           monoclinic
_symmetry_space_group_name_H-M   'P 21/c'
_symmetry_Int_Tables_number      14
_space_group_name_Hall           '-P 2ybc'
loop_
_symmetry_equiv_pos_site_id
_symmetry_equiv_pos_as_xyz
1 x,y,z
2 -x,1/2+y,1/2-z
3 -x,-y,-z
4 x,1/2-y,1/2+z
_cell_length_a                   14.447(3)
_cell_length_b                   9.549(2)
_cell_length_c                   12.138(3)
_cell_angle_alpha                90
_cell_angle_beta                 95.406(13)
_cell_angle_gamma                90
_cell_volume                     1667.04
_exptl_crystal_colour            colorless
_exptl_crystal_description       needle
_cell_formula_units_Z            4
loop_
_atom_site_label
_atom_site_type_symbol
_atom_site_fract_x
_atom_site_fract_y
_atom_site_fract_z
O1 O 0.6234(2) 0.1222(3) 0.9141(2)
O2 O 0.5675(2) 0.1033(3) 1.0812(2)
O3 O 0.4885(2) 0.3987(3) 0.7717(2)
H1 H 0.5105 0.3904 0.7103
C1 C 0.5634(3) 0.1628(5) 0.9894(3)
C2 C 0.5019(3) 0.2757(5) 0.9453(3)
C3 C 0.5268(3) 0.3024(5) 0.8420(3)
C4 C 0.6099(3) 0.2131(5) 0.8170(3)
H2 H 0.5942 0.1561 0.7486
C5 C 0.4291(3) 0.3426(5) 1.0087(4)
H3 H 0.4043 0.4261 0.9676
H4 H 0.4587 0.3748 1.0812
C6 C 0.3465(3) 0.2436(5) 1.0289(3)
H5 H 0.3730 0.1570 1.0658
C7 C 0.2902(3) 0.1995(5) 0.9208(4)
H6 H 0.3316 0.1495 0.8735
H7 H 0.2667 0.2844 0.8805
C8 C 0.2071(3) 0.1039(5) 0.9407(4)
H8 H 0.1697 0.0865 0.8695
H9 H 0.2307 0.0126 0.9701
C9 C 0.1453(3) 0.1696(6) 1.0224(4)
H10 H 0.0972 0.1011 1.0395
H11 H 0.1133 0.2523 0.9876
C10 C 0.2009(3) 0.2145(6) 1.1302(4)
H12 H 0.2258 0.1305 1.1705
H13 H 0.1592 0.2636 1.1778
C11 C 0.2823(3) 0.3128(5) 1.1071(4)
H14 H 0.2569 0.4009 1.0735
H15 H 0.3187 0.3365 1.1778
C12 C 0.6993(3) 0.2977(5) 0.8073(4)
H16 H 0.7153 0.3483 0.8777
H17 H 0.6871 0.3686 0.7482
C13 C 0.7843(3) 0.2079(5) 0.7813(4)
H18 H 0.7890 0.1258 0.8327
C14 C 0.8748(3) 0.2953(6) 0.8019(4)
H19 H 0.8692 0.3809 0.7557
H20 H 0.8831 0.3245 0.8804
C15 C 0.9611(3) 0.2109(6) 0.7740(4)
H21 H 1.0169 0.2713 0.7845
H22 H 0.9705 0.1306 0.8255
C16 C 0.9500(3) 0.1564(6) 0.6544(4)
H23 H 1.0045 0.0986 0.6404
H24 H 0.9467 0.2364 0.6023
C17 C 0.8609(3) 0.0683(5) 0.6353(4)
H25 H 0.8670 -0.0161 0.6828
H26 H 0.8528 0.0371 0.5572
C18 C 0.7744(3) 0.1524(5) 0.6618(4)
H27 H 0.7652 0.2323 0.6099
H28 H 0.7187 0.0917 0.6509
loop_
_geom_bond_atom_site_label_1
_geom_bond_atom_site_label_2
_geom_bond_site_symmetry_1
_geom_bond_site_symmetry_2
O1 C1 1_555 1_555
O2 C1 1_555 1_555
O3 H1 1_555 1_555
C1 C2 1_555 1_555
C2 C3 1_555 1_555
C3 O3 1_555 1_555
C4 O1 1_555 1_555
H2 C4 1_555 1_555
C5 C2 1_555 1_555
H3 C5 1_555 1_555
H4 C5 1_555 1_555
C6 C5 1_555 1_555
H5 C6 1_555 1_555
C7 C6 1_555 1_555
H6 C7 1_555 1_555
H7 C7 1_555 1_555
C8 C7 1_555 1_555
H8 C8 1_555 1_555
H9 C8 1_555 1_555
C9 C8 1_555 1_555
H10 C9 1_555 1_555
H11 C9 1_555 1_555
C10 C9 1_555 1_555
H12 C10 1_555 1_555
H13 C10 1_555 1_555
C11 C6 1_555 1_555
H14 C11 1_555 1_555
H15 C11 1_555 1_555
C12 C4 1_555 1_555
H16 C12 1_555 1_555
H17 C12 1_555 1_555
C13 C12 1_555 1_555
H18 C13 1_555 1_555
C14 C13 1_555 1_555
H19 C14 1_555 1_555
H20 C14 1_555 1_555
C15 C14 1_555 1_555
H21 C15 1_555 1_555
H22 C15 1_555 1_555
C16 C15 1_555 1_555
H23 C16 1_555 1_555
H24 C16 1_555 1_555
C17 C16 1_555 1_555
H25 C17 1_555 1_555
H26 C17 1_555 1_555
C18 C13 1_555 1_555
H27 C18 1_555 1_555
H28 C18 1_555 1_555
C3 C4 1_555 1_555
C10 C11 1_555 1_555
C17 C18 1_555 1_555

#END
