
#######################################################################
#
#                 Cambridge Crystallographic Data Centre
#                                CCDC 
#
#######################################################################
#
# If this CIF has been generated from an entry in the Cambridge 
# Structural Database, then it will include bibliographic, chemical, 
# crystal, experimental, refinement or atomic coordinate data resulting 
# from the CCDC's data processing and validation procedures.
#
#######################################################################

data_RUHZOK
_chemical_formula_moiety         '2(C13 H17 Br1 N1 O2 1+),C4 H4 O6 2-'
_chemical_name_systematic        
'bis((1R,3R)-1-Ammonio-3-(4-bromophenyl)-1-(methoxycarbonyl)-cyclopentyl) L-tartrate'
_symmetry_cell_setting           monoclinic
_symmetry_space_group_name_H-M   'P 21'
_symmetry_Int_Tables_number      4
_space_group_name_Hall           'P 2yb'
loop_
_symmetry_equiv_pos_site_id
_symmetry_equiv_pos_as_xyz
1 x,y,z
2 -x,1/2+y,-z
_cell_length_a                   15.900(4)
_cell_length_b                   6.2937(17)
_cell_length_c                   16.234(4)
_cell_angle_alpha                90
_cell_angle_beta                 107.461(4)
_cell_angle_gamma                90
_cell_volume                     1549.68
_exptl_crystal_colour            colorless
_exptl_crystal_description       parallelepiped
_cell_formula_units_Z            2
loop_
_atom_site_label
_atom_site_type_symbol
_atom_site_fract_x
_atom_site_fract_y
_atom_site_fract_z
Br1 Br 0.17842(3) 0.02936(9) 0.43957(3)
O1 O -0.10261(18) 0.6063(5) 0.88589(19)
O2 O -0.18346(19) 0.4488(5) 0.76397(19)
N1 N 0.0129(2) 0.2917(6) 0.9274(2)
H1 H 0.0373 0.4195 0.9402
H2 H 0.0550 0.1950 0.9325
H3 H -0.0178 0.2603 0.9634
C1 C 0.1336(3) 0.0560(9) 0.5357(3)
C2 C 0.1579(3) -0.0859(10) 0.6019(3)
H4 H 0.1972 -0.1951 0.6016
C3 C 0.1227(3) -0.0635(10) 0.6694(3)
H5 H 0.1379 -0.1616 0.7143
C4 C 0.0658(3) 0.0995(8) 0.6727(3)
C5 C 0.0433(3) 0.2394(9) 0.6046(3)
H6 H 0.0046 0.3500 0.6050
C6 C 0.0768(3) 0.2201(10) 0.5354(3)
H7 H 0.0611 0.3161 0.4898
C7 C 0.0290(3) 0.1122(8) 0.7485(3)
H8 H 0.0730 0.0516 0.7990
C8 C 0.0061(3) 0.3352(7) 0.7728(3)
H9 H -0.0291 0.4117 0.7223
H10 H 0.0590 0.4163 0.8001
C9 C -0.0472(2) 0.2922(7) 0.8366(2)
C10 C -0.0870(3) 0.0674(7) 0.8126(3)
H11 H -0.0657 -0.0291 0.8610
H12 H -0.1509 0.0729 0.7968
C11 C -0.0574(3) -0.0059(7) 0.7364(3)
H13 H -0.1004 0.0322 0.6821
H14 H -0.0484 -0.1585 0.7379
C12 C -0.1136(3) 0.4669(7) 0.8338(2)
C13 C -0.2499(3) 0.6112(9) 0.7538(3)
H15 H -0.2725 0.6081 0.8024
H16 H -0.2971 0.5856 0.7018
H17 H -0.2243 0.7479 0.7505
Br2 Br 0.32571(3) 1.43741(9) 1.56839(3)
O3 O 0.59937(17) 1.9168(5) 1.10254(17)
O4 O 0.66956(18) 1.7748(5) 1.23056(19)
N2 N 0.4694(2) 1.6286(6) 1.06692(19)
H18 H 0.4442 1.7561 1.0568
H19 H 0.4281 1.5301 1.0626
H20 H 0.4978 1.6024 1.0284
C14 C 0.3680(3) 1.4375(9) 1.4708(3)
C15 C 0.3318(3) 1.5763(9) 1.4041(3)
H21 H 0.2868 1.6681 1.4066
C16 C 0.3634(3) 1.5779(8) 1.3328(3)
H22 H 0.3379 1.6689 1.2870
C17 C 0.4314(3) 1.4477(8) 1.3289(2)
C18 C 0.4662(3) 1.3112(9) 1.3970(3)
H23 H 0.5121 1.2211 1.3955
C19 C 0.4341(3) 1.3050(10) 1.4690(3)
H24 H 0.4579 1.2114 1.5144
C20 C 0.4620(3) 1.4463(8) 1.2499(2)
H25 H 0.4149 1.3859 1.2020
C21 C 0.4843(3) 1.6690(7) 1.2229(3)
H26 H 0.5219 1.7459 1.2720
H27 H 0.4311 1.7510 1.1977
C22 C 0.5330(2) 1.6239(7) 1.1554(2)
C23 C 0.5716(3) 1.3963(7) 1.1763(3)
H28 H 0.5462 1.3008 1.1283
H29 H 0.6352 1.3978 1.1880
C24 C 0.5469(3) 1.3275(8) 1.2560(3)
H30 H 0.5376 1.1752 1.2558
H31 H 0.5928 1.3659 1.3084
C25 C 0.6033(2) 1.7908(7) 1.1578(2)
C26 C 0.7403(3) 1.9247(10) 1.2384(3)
H32 H 0.7676 1.8978 1.1941
H33 H 0.7832 1.9095 1.2941
H34 H 0.7170 2.0666 1.2323
O5 O 0.33558(18) 1.3098(5) 1.05201(18)
O6 O 0.41274(17) 1.0384(5) 1.02424(19)
O7 O 0.18503(17) 1.1567(5) 0.9686(2)
H35 H 0.1505 1.0853 0.9857
O8 O 0.27017(18) 0.7908(5) 1.08466(17)
H36 H 0.2829 0.9094 1.1056
O9 O 0.11674(18) 0.6424(5) 1.00074(19)
O10 O 0.1298(2) 0.7188(5) 0.8704(2)
C27 C 0.3429(2) 1.1340(7) 1.0192(2)
C28 C 0.2567(2) 1.0293(7) 0.9652(2)
H37 H 0.2574 1.0258 0.9051
C29 C 0.2488(2) 0.8033(6) 0.9930(2)
H38 H 0.2911 0.7157 0.9750
C30 C 0.1571(3) 0.7164(6) 0.9502(3)
loop_
_geom_bond_atom_site_label_1
_geom_bond_atom_site_label_2
_geom_bond_site_symmetry_1
_geom_bond_site_symmetry_2
Br1 C1 1_555 1_555
O1 C12 1_555 1_555
O2 C12 1_555 1_555
N1 H1 1_555 1_555
H2 N1 1_555 1_555
H3 N1 1_555 1_555
C1 C2 1_555 1_555
C2 H4 1_555 1_555
C3 C2 1_555 1_555
H5 C3 1_555 1_555
C4 C3 1_555 1_555
C5 C4 1_555 1_555
H6 C5 1_555 1_555
C6 C1 1_555 1_555
H7 C6 1_555 1_555
C7 C4 1_555 1_555
H8 C7 1_555 1_555
C8 C7 1_555 1_555
H9 C8 1_555 1_555
H10 C8 1_555 1_555
C9 N1 1_555 1_555
C10 C9 1_555 1_555
H11 C10 1_555 1_555
H12 C10 1_555 1_555
C11 C7 1_555 1_555
H13 C11 1_555 1_555
H14 C11 1_555 1_555
C12 C9 1_555 1_555
C13 O2 1_555 1_555
H15 C13 1_555 1_555
H16 C13 1_555 1_555
H17 C13 1_555 1_555
Br2 C14 1_555 1_555
O3 C25 1_555 1_555
O4 C25 1_555 1_555
N2 H18 1_555 1_555
H19 N2 1_555 1_555
H20 N2 1_555 1_555
C14 C15 1_555 1_555
C15 H21 1_555 1_555
C16 C15 1_555 1_555
H22 C16 1_555 1_555
C17 C16 1_555 1_555
C18 C17 1_555 1_555
H23 C18 1_555 1_555
C19 C14 1_555 1_555
H24 C19 1_555 1_555
C20 C17 1_555 1_555
H25 C20 1_555 1_555
C21 C20 1_555 1_555
H26 C21 1_555 1_555
H27 C21 1_555 1_555
C22 N2 1_555 1_555
C23 C22 1_555 1_555
H28 C23 1_555 1_555
H29 C23 1_555 1_555
C24 C20 1_555 1_555
H30 C24 1_555 1_555
H31 C24 1_555 1_555
C25 C22 1_555 1_555
C26 O4 1_555 1_555
H32 C26 1_555 1_555
H33 C26 1_555 1_555
H34 C26 1_555 1_555
O5 C27 1_555 1_555
O6 C27 1_555 1_555
O7 H35 1_555 1_555
O8 H36 1_555 1_555
O9 C30 1_555 1_555
O10 C30 1_555 1_555
C27 C28 1_555 1_555
C28 O7 1_555 1_555
H37 C28 1_555 1_555
C29 O8 1_555 1_555
H38 C29 1_555 1_555
C30 C29 1_555 1_555
C5 C6 1_555 1_555
C8 C9 1_555 1_555
C10 C11 1_555 1_555
C18 C19 1_555 1_555
C21 C22 1_555 1_555
C23 C24 1_555 1_555
C28 C29 1_555 1_555

#END
