
#######################################################################
#
#                 Cambridge Crystallographic Data Centre
#                                CCDC 
#
#######################################################################
#
# If this CIF has been generated from an entry in the Cambridge 
# Structural Database, then it will include bibliographic, chemical, 
# crystal, experimental, refinement or atomic coordinate data resulting 
# from the CCDC's data processing and validation procedures.
#
#######################################################################

data_RUJDUV
_chemical_formula_moiety         'C24 H20 N2 O4'
_chemical_name_systematic        
5,6-bis(Methoxycarbonyl)-11,12-dimethyl-11,12-dihydroindolo(2,3-a)carbazole
_symmetry_cell_setting           monoclinic
_symmetry_space_group_name_H-M   'C 2/c'
_symmetry_Int_Tables_number      15
_space_group_name_Hall           '-C 2yn'
loop_
_symmetry_equiv_pos_site_id
_symmetry_equiv_pos_as_xyz
1 x,y,z
2 1/2+x,1/2+y,z
3 -x,y,1/2-z
4 1/2-x,1/2+y,1/2-z
5 -x,-y,-z
6 1/2-x,1/2-y,-z
7 x,-y,1/2+z
8 1/2+x,1/2-y,1/2+z
_cell_length_a                   17.8637(6)
_cell_length_b                   11.7120(4)
_cell_length_c                   9.3032(5)
_cell_angle_alpha                90
_cell_angle_beta                 100.604(4)
_cell_angle_gamma                90
_cell_volume                     1913.17
_exptl_crystal_colour            colorless
_exptl_crystal_description       'rectangular block'
_chemical_melting_point          486K
_cell_formula_units_Z            4
loop_
_atom_site_label
_atom_site_type_symbol
_atom_site_fract_x
_atom_site_fract_y
_atom_site_fract_z
N1 N 0.07273(8) 0.61068(11) 0.16436(15)
C1 C 0.03088(9) 0.52321(12) 0.2121(2)
C2 C 0.05921(10) 0.41775(13) 0.1704(2)
C3 C 0.12116(10) 0.44355(14) 0.0947(2)
C4 C 0.17300(11) 0.3802(2) 0.0317(2)
H1 H 0.17265(11) 0.3007(2) 0.0320(2)
C5 C 0.22542(12) 0.4360(2) -0.0351(2)
H2 H 0.26804(12) 0.3797(2) -0.0729(2)
C6 C 0.22736(12) 0.5548(2) -0.0407(2)
H3 H 0.26740(12) 0.6002(2) -0.0832(2)
C7 C 0.17835(11) 0.6202(2) 0.0234(2)
H4 H 0.18171(11) 0.6991(2) 0.0217(2)
C8 C 0.12581(10) 0.56329(14) 0.0915(2)
C9 C 0.08004(12) 0.72978(14) 0.2106(2)
H5 H 0.04920(12) 0.79977(14) 0.1364(2)
H6 H 0.05978(12) 0.73911(14) 0.2934(2)
H7 H 0.13708(12) 0.75911(14) 0.2165(2)
C10 C 0.02925(10) 0.31278(12) 0.2102(2)
C11 C 0.06185(10) 0.20234(14) 0.1720(2)
O1 O 0.08082(7) 0.13575(10) 0.29026(13)
O2 O 0.07072(9) 0.17308(10) 0.05212(14)
C12 C 0.10401(15) 0.0210(2) 0.2638(3)
H8 H 0.14659(15) 0.0202(2) 0.2344(3)
H9 H 0.06809(15) -0.0198(2) 0.1872(3)
H10 H 0.09315(15) -0.0399(2) 0.3453(3)
C1B C -0.03088(9) 0.52321(12) 0.2879(2)
N1B N -0.07273(8) 0.61068(11) 0.33564(15)
C8B C -0.12581(10) 0.56329(14) 0.4085(2)
C3B C -0.12116(10) 0.44355(14) 0.4053(2)
C2B C -0.05921(10) 0.41775(13) 0.3296(2)
C10B C -0.02925(10) 0.31278(12) 0.2898(2)
C11B C -0.06185(10) 0.20234(14) 0.3280(2)
O1B O -0.08082(7) 0.13575(10) 0.20974(13)
C12B C -0.10401(15) 0.0210(2) 0.2362(3)
H8B H -0.14659(15) 0.0202(2) 0.2656(3)
H9B H -0.06809(15) -0.0198(2) 0.3128(3)
H10B H -0.09315(15) -0.0399(2) 0.1547(3)
O2B O -0.07072(9) 0.17308(10) 0.44788(14)
C4B C -0.17300(11) 0.3802(2) 0.4683(2)
H1B H -0.17265(11) 0.3007(2) 0.4680(2)
C5B C -0.22542(12) 0.4360(2) 0.5351(2)
H2B H -0.26804(12) 0.3797(2) 0.5729(2)
C6B C -0.22736(12) 0.5548(2) 0.5407(2)
H3B H -0.26740(12) 0.6002(2) 0.5832(2)
C7B C -0.17835(11) 0.6202(2) 0.4766(2)
H4B H -0.18171(11) 0.6991(2) 0.4783(2)
C9B C -0.08004(12) 0.72978(14) 0.2894(2)
H5B H -0.04920(12) 0.79977(14) 0.3636(2)
H6B H -0.05978(12) 0.73911(14) 0.2066(2)
H7B H -0.13708(12) 0.75911(14) 0.2835(2)
loop_
_geom_bond_atom_site_label_1
_geom_bond_atom_site_label_2
_geom_bond_site_symmetry_1
_geom_bond_site_symmetry_2
N1 C1 1_555 1_555
C1 C2 1_555 1_555
C2 C3 1_555 1_555
C3 C4 1_555 1_555
C4 H1 1_555 1_555
C5 C4 1_555 1_555
H2 C5 1_555 1_555
C6 C5 1_555 1_555
H3 C6 1_555 1_555
C7 C6 1_555 1_555
H4 C7 1_555 1_555
C8 N1 1_555 1_555
C9 N1 1_555 1_555
H5 C9 1_555 1_555
H6 C9 1_555 1_555
H7 C9 1_555 1_555
C10 C2 1_555 1_555
C11 C10 1_555 1_555
O1 C11 1_555 1_555
O2 C11 1_555 1_555
C12 O1 1_555 1_555
H8 C12 1_555 1_555
H9 C12 1_555 1_555
H10 C12 1_555 1_555
C1B C1 1_555 1_555
N1B C1B 1_555 1_555
C8B N1B 1_555 1_555
C3B C8B 1_555 1_555
C2B C1B 1_555 1_555
C10B C10 1_555 1_555
C11B C10B 1_555 1_555
O1B C11B 1_555 1_555
C12B O1B 1_555 1_555
H8B C12B 1_555 1_555
H9B C12B 1_555 1_555
H10B C12B 1_555 1_555
O2B C11B 1_555 1_555
C4B C3B 1_555 1_555
H1B C4B 1_555 1_555
C5B C4B 1_555 1_555
H2B C5B 1_555 1_555
C6B C5B 1_555 1_555
H3B C6B 1_555 1_555
C7B C8B 1_555 1_555
H4B C7B 1_555 1_555
C9B N1B 1_555 1_555
H5B C9B 1_555 1_555
H6B C9B 1_555 1_555
H7B C9B 1_555 1_555
C3 C8 1_555 1_555
C7 C8 1_555 1_555
C3B C2B 1_555 1_555
C2B C10B 1_555 1_555
C6B C7B 1_555 1_555

#END
