
#######################################################################
#
#                 Cambridge Crystallographic Data Centre
#                                CCDC 
#
#######################################################################
#
# If this CIF has been generated from an entry in the Cambridge 
# Structural Database, then it will include bibliographic, chemical, 
# crystal, experimental, refinement or atomic coordinate data resulting 
# from the CCDC's data processing and validation procedures.
#
#######################################################################

data_RUJFUZ
_chemical_formula_moiety         'C25 H19 Br1 N4 O1 S1'
_chemical_name_systematic        
2-(1-benzyl-3-phenyl-1H-pyrazol-5-yl)-5-((4-bromobenzyl)sulfanyl)-1,3,4-oxadiazole
_symmetry_cell_setting           monoclinic
_symmetry_space_group_name_H-M   'P 21/c'
_symmetry_Int_Tables_number      14
_space_group_name_Hall           '-P 2ybc'
loop_
_symmetry_equiv_pos_site_id
_symmetry_equiv_pos_as_xyz
1 x,y,z
2 -x,1/2+y,1/2-z
3 -x,-y,-z
4 x,1/2-y,1/2+z
_cell_length_a                   17.09(3)
_cell_length_b                   11.468(15)
_cell_length_c                   12.166(17)
_cell_angle_alpha                90
_cell_angle_beta                 110.64(3)
_cell_angle_gamma                90
_cell_volume                     2231.35
_exptl_crystal_colour            colorless
_exptl_crystal_description       block
_cell_formula_units_Z            4
_exptl_crystal_recrystallization_method Acetonitrile
loop_
_atom_site_label
_atom_site_type_symbol
_atom_site_fract_x
_atom_site_fract_y
_atom_site_fract_z
Br1 Br 1.00185(4) 0.44889(5) 1.17079(5)
C1 C 0.3214(3) 0.1872(3) 0.4289(3)
C2 C 0.2746(3) 0.2406(4) 0.3229(4)
H1 H 0.3022 0.2756 0.2780
C3 C 0.1889(3) 0.2427(4) 0.2835(4)
H2 H 0.1590 0.2796 0.2132
C4 C 0.1479(3) 0.1903(4) 0.3481(5)
H3 H 0.0898 0.1912 0.3219
C5 C 0.1927(3) 0.1361(4) 0.4520(4)
H4 H 0.1646 0.0990 0.4952
C6 C 0.2788(3) 0.1361(4) 0.4929(4)
H5 H 0.3084 0.1011 0.5645
C7 C 0.4127(3) 0.1832(3) 0.4700(3)
C8 C 0.4702(3) 0.1243(3) 0.5662(3)
H6 H 0.4578 0.0778 0.6205
C9 C 0.5467(3) 0.1487(3) 0.5640(3)
C10 C 0.6279(3) 0.1127(3) 0.6436(3)
C11 C 0.7125(3) 0.0320(3) 0.7980(3)
C12 C 0.5960(3) 0.2663(3) 0.4241(3)
H7 H 0.6465 0.2859 0.4893
H8 H 0.5743 0.3376 0.3815
C13 C 0.6180(3) 0.1836(3) 0.3441(3)
C14 C 0.5548(4) 0.1310(4) 0.2514(4)
H9 H 0.4991 0.1458 0.2406
C15 C 0.5746(7) 0.0571(5) 0.1758(5)
H10 H 0.5327 0.0223 0.1134
C16 C 0.6569(9) 0.0360(6) 0.1939(8)
H11 H 0.6710 -0.0132 0.1430
C17 C 0.7193(6) 0.0869(6) 0.2869(7)
H12 H 0.7751 0.0716 0.2980
C18 C 0.6998(4) 0.1596(4) 0.3627(4)
H13 H 0.7420 0.1922 0.4263
C19 C 0.8523(3) -0.0303(4) 0.9774(4)
H14 H 0.8775 -0.0851 1.0407
H15 H 0.8707 -0.0511 0.9131
C20 C 0.8844(3) 0.0908(4) 1.0197(4)
C21 C 0.9389(3) 0.1447(5) 0.9776(4)
H16 H 0.9532 0.1090 0.9186
C22 C 0.9737(3) 0.2520(5) 1.0210(4)
H17 H 1.0114 0.2876 0.9922
C23 C 0.9518(3) 0.3044(4) 1.1063(4)
C24 C 0.8963(3) 0.2544(5) 1.1478(4)
H18 H 0.8807 0.2918 1.2048
C25 C 0.8633(3) 0.1480(5) 1.1050(4)
H19 H 0.8255 0.1133 1.1342
N1 N 0.4532(2) 0.2419(3) 0.4122(3)
N2 N 0.5351(2) 0.2200(3) 0.4699(3)
N3 N 0.7014(2) 0.1346(3) 0.6456(3)
N4 N 0.7581(2) 0.0817(3) 0.7488(3)
O1 O 0.62897(17) 0.0471(2) 0.7390(2)
S1 S 0.73953(8) -0.04652(10) 0.92819(10)
loop_
_geom_bond_atom_site_label_1
_geom_bond_atom_site_label_2
_geom_bond_site_symmetry_1
_geom_bond_site_symmetry_2
Br1 C23 1_555 1_555
C1 C2 1_555 1_555
C2 H1 1_555 1_555
C3 C2 1_555 1_555
H2 C3 1_555 1_555
C4 C3 1_555 1_555
H3 C4 1_555 1_555
C5 C4 1_555 1_555
H4 C5 1_555 1_555
C6 C1 1_555 1_555
H5 C6 1_555 1_555
C7 C1 1_555 1_555
C8 C7 1_555 1_555
H6 C8 1_555 1_555
C9 C8 1_555 1_555
C10 C9 1_555 1_555
C11 N4 1_555 1_555
C12 H7 1_555 1_555
H8 C12 1_555 1_555
C13 C12 1_555 1_555
C14 C13 1_555 1_555
H9 C14 1_555 1_555
C15 C14 1_555 1_555
H10 C15 1_555 1_555
C16 C15 1_555 1_555
H11 C16 1_555 1_555
C17 C16 1_555 1_555
H12 C17 1_555 1_555
C18 C13 1_555 1_555
H13 C18 1_555 1_555
C19 H14 1_555 1_555
H15 C19 1_555 1_555
C20 C19 1_555 1_555
C21 C20 1_555 1_555
H16 C21 1_555 1_555
C22 C21 1_555 1_555
H17 C22 1_555 1_555
C23 C22 1_555 1_555
C24 C23 1_555 1_555
H18 C24 1_555 1_555
C25 C20 1_555 1_555
H19 C25 1_555 1_555
N1 C7 1_555 1_555
N2 C9 1_555 1_555
N3 C10 1_555 1_555
N4 N3 1_555 1_555
O1 C10 1_555 1_555
S1 C11 1_555 1_555
C5 C6 1_555 1_555
C11 O1 1_555 1_555
C12 N2 1_555 1_555
C17 C18 1_555 1_555
C19 S1 1_555 1_555
C24 C25 1_555 1_555
N1 N2 1_555 1_555

#END
