
#######################################################################
#
#                 Cambridge Crystallographic Data Centre
#                                CCDC 
#
#######################################################################
#
# If this CIF has been generated from an entry in the Cambridge 
# Structural Database, then it will include bibliographic, chemical, 
# crystal, experimental, refinement or atomic coordinate data resulting 
# from the CCDC's data processing and validation procedures.
#
#######################################################################

data_RUJFAD
_chemical_formula_moiety         'C26 H20 N2 O1'
_chemical_name_systematic        
11,12-Dimethyl-5-hydroxy-6-phenyl-11,12-dihydroindolo(2,3-a)carbazole
_symmetry_cell_setting           monoclinic
_symmetry_space_group_name_H-M   'P 21/c'
_symmetry_Int_Tables_number      14
_space_group_name_Hall           '-P 2ybc'
loop_
_symmetry_equiv_pos_site_id
_symmetry_equiv_pos_as_xyz
1 x,y,z
2 -x,1/2+y,1/2-z
3 -x,-y,-z
4 x,1/2-y,1/2+z
_cell_length_a                   12.8826(3)
_cell_length_b                   14.0337(2)
_cell_length_c                   11.5607(2)
_cell_angle_alpha                90
_cell_angle_beta                 116.6070(10)
_cell_angle_gamma                90
_cell_volume                     1868.73
_exptl_crystal_colour            colorless
_exptl_crystal_description       'rectangular block'
_chemical_melting_point          510K
_cell_formula_units_Z            4
loop_
_atom_site_label
_atom_site_type_symbol
_atom_site_fract_x
_atom_site_fract_y
_atom_site_fract_z
O1 O -0.16835(11) 0.78956(10) -0.09042(13)
H1 H -0.25989(11) 0.81201(10) -0.12390(13)
N1 N 0.10382(12) 0.56393(11) 0.14442(14)
C1 C 0.13782(15) 0.61906(13) 0.0678(2)
C2 C 0.2387(2) 0.6134(2) 0.0511(2)
H2 H 0.2791(2) 0.5716(2) 0.0958(2)
C3 C 0.2502(2) 0.6746(2) -0.0345(2)
H3 H 0.3192(2) 0.6697(2) -0.0540(2)
C4 C 0.1645(2) 0.7411(2) -0.1039(2)
H4 H 0.1601(2) 0.7826(2) -0.1812(2)
C5 C 0.0648(2) 0.74762(15) -0.0879(2)
H5 H 0.0005(2) 0.79181(15) -0.1428(2)
C6 C 0.05114(15) 0.68612(13) -0.0005(2)
C7 C -0.03990(14) 0.67002(12) 0.0371(2)
C8 C -0.14804(15) 0.71534(12) -0.0049(2)
C9 C -0.22645(14) 0.68509(12) 0.0373(2)
C10 C -0.19373(14) 0.60827(11) 0.1260(2)
C11 C -0.25768(15) 0.56205(12) 0.1861(2)
C12 C -0.3685(2) 0.57277(15) 0.1779(2)
H6 H -0.4200(2) 0.61805(15) 0.1213(2)
C13 C -0.4013(2) 0.5168(2) 0.2541(2)
H7 H -0.5001(2) 0.5159(2) 0.2236(2)
C14 C -0.3261(2) 0.4485(2) 0.3357(2)
H8 H -0.3397(2) 0.4047(2) 0.4046(2)
C15 C -0.2173(2) 0.4352(2) 0.3452(2)
H9 H -0.1605(2) 0.3936(2) 0.4001(2)
C16 C -0.1831(2) 0.49317(12) 0.2702(2)
N2 N -0.07793(13) 0.49431(10) 0.26482(14)
C17 C -0.08399(14) 0.56350(11) 0.1746(2)
C18 C -0.00629(14) 0.59413(11) 0.1260(2)
C19 C -0.33868(14) 0.73699(12) -0.0044(2)
C20 C -0.4330(2) 0.7200(2) -0.1226(2)
H10 H -0.4201(2) 0.6791(2) -0.1831(2)
C21 C -0.5352(2) 0.7711(2) -0.1609(2)
H11 H -0.6186(2) 0.7509(2) -0.2426(2)
C22 C -0.5441(2) 0.8395(2) -0.0814(3)
H12 H -0.6198(2) 0.8838(2) -0.1007(3)
C23 C -0.4519(2) 0.8571(2) 0.0358(2)
H13 H -0.4598(2) 0.9112(2) 0.0956(2)
C24 C -0.3497(2) 0.80615(15) 0.0744(2)
H14 H -0.3009(2) 0.80853(15) 0.1509(2)
C25 C 0.0196(2) 0.4393(2) 0.3542(2)
H15 H 0.0885(3) 0.4778(4) 0.3862(12)
H16 H 0.0298(9) 0.3845(6) 0.3107(5)
H17 H 0.0055(6) 0.4190(10) 0.4252(8)
C26 C 0.1712(2) 0.48258(15) 0.2153(2)
H18 H 0.1206(2) 0.4291(3) 0.2018(12)
H19 H 0.2101(11) 0.4975(4) 0.3059(3)
H20 H 0.2276(9) 0.4671(7) 0.1853(11)
loop_
_geom_bond_atom_site_label_1
_geom_bond_atom_site_label_2
_geom_bond_site_symmetry_1
_geom_bond_site_symmetry_2
O1 H1 1_555 1_555
N1 C1 1_555 1_555
C1 C2 1_555 1_555
C2 H2 1_555 1_555
C3 C2 1_555 1_555
H3 C3 1_555 1_555
C4 C3 1_555 1_555
H4 C4 1_555 1_555
C5 C4 1_555 1_555
H5 C5 1_555 1_555
C6 C1 1_555 1_555
C7 C6 1_555 1_555
C8 O1 1_555 1_555
C9 C8 1_555 1_555
C10 C9 1_555 1_555
C11 C10 1_555 1_555
C12 C11 1_555 1_555
H6 C12 1_555 1_555
C13 C12 1_555 1_555
H7 C13 1_555 1_555
C14 C13 1_555 1_555
H8 C14 1_555 1_555
C15 C14 1_555 1_555
H9 C15 1_555 1_555
C16 C11 1_555 1_555
N2 C16 1_555 1_555
C17 C10 1_555 1_555
C18 N1 1_555 1_555
C19 C9 1_555 1_555
C20 C19 1_555 1_555
H10 C20 1_555 1_555
C21 C20 1_555 1_555
H11 C21 1_555 1_555
C22 C21 1_555 1_555
H12 C22 1_555 1_555
C23 C22 1_555 1_555
H13 C23 1_555 1_555
C24 C19 1_555 1_555
H14 C24 1_555 1_555
C25 N2 1_555 1_555
H15 C25 1_555 1_555
H16 C25 1_555 1_555
H17 C25 1_555 1_555
C26 N1 1_555 1_555
H18 C26 1_555 1_555
H19 C26 1_555 1_555
H20 C26 1_555 1_555
C5 C6 1_555 1_555
C7 C8 1_555 1_555
C7 C18 1_555 1_555
C15 C16 1_555 1_555
N2 C17 1_555 1_555
C17 C18 1_555 1_555
C23 C24 1_555 1_555

#END
