
#######################################################################
#
#                 Cambridge Crystallographic Data Centre
#                                CCDC 
#
#######################################################################
#
# If this CIF has been generated from an entry in the Cambridge 
# Structural Database, then it will include bibliographic, chemical, 
# crystal, experimental, refinement or atomic coordinate data resulting 
# from the CCDC's data processing and validation procedures.
#
#######################################################################

data_RUJFEJ
_chemical_formula_moiety         'C25 H19 F1 N4 O1 S1'
_chemical_name_systematic        
2-(1-benzyl-3-phenyl-1H-pyrazol-5-yl)-5-((3-fluorobenzyl)sulfanyl)-1,3,4-oxadiazole
_symmetry_cell_setting           orthorhombic
_symmetry_space_group_name_H-M   'P n a 21'
_symmetry_Int_Tables_number      33
_space_group_name_Hall           'P 2c -2n'
loop_
_symmetry_equiv_pos_site_id
_symmetry_equiv_pos_as_xyz
1 x,y,z
2 -x,-y,1/2+z
3 1/2+x,1/2-y,z
4 1/2-x,1/2+y,1/2+z
_cell_length_a                   7.346(3)
_cell_length_b                   27.825(13)
_cell_length_c                   10.720(5)
_cell_angle_alpha                90
_cell_angle_beta                 90
_cell_angle_gamma                90
_cell_volume                     2191.19
_exptl_crystal_colour            colorless
_exptl_crystal_description       block
_cell_formula_units_Z            4
_exptl_crystal_recrystallization_method Acetonitrile
loop_
_atom_site_label
_atom_site_type_symbol
_atom_site_fract_x
_atom_site_fract_y
_atom_site_fract_z
C1 C -0.0234(3) 0.81180(10) 0.9622(3)
C2 C -0.0691(4) 0.85036(10) 0.8865(3)
H1 H -0.1142 0.8446 0.8069
C3 C -0.0492(4) 0.89708(11) 0.9267(3)
H2 H -0.0807 0.9224 0.8745
C4 C 0.0177(4) 0.90612(12) 1.0448(3)
H3 H 0.0335 0.9376 1.0717
C5 C 0.0610(4) 0.86856(12) 1.1224(3)
H4 H 0.1038 0.8748 1.2025
C6 C 0.0417(4) 0.82173(11) 1.0826(3)
H5 H 0.0718 0.7966 1.1358
C7 C -0.0443(3) 0.76176(9) 0.9187(2)
C8 C -0.0047(3) 0.71883(10) 0.9795(3)
H6 H 0.0433 0.7153 1.0593
C9 C -0.0504(3) 0.68293(10) 0.8986(3)
C10 C -0.0372(4) 0.63142(10) 0.9140(2)
C11 C 0.0086(4) 0.56683(11) 1.0150(3)
C12 C -0.1937(4) 0.68331(10) 0.6809(2)
H7 H -0.3022 0.7012 0.6585
H8 H -0.2308 0.6507 0.6998
C13 C -0.0687(4) 0.68222(9) 0.5705(3)
C14 C -0.1373(5) 0.66585(14) 0.4574(3)
H9 H -0.2581 0.6561 0.4519
C15 C -0.0280(7) 0.66406(19) 0.3539(4)
H10 H -0.0760 0.6530 0.2789
C16 C 0.1478(7) 0.67793(17) 0.3585(4)
H11 H 0.2203 0.6764 0.2875
C17 C 0.2185(5) 0.69424(14) 0.4686(4)
H12 H 0.3389 0.7044 0.4725
C18 C 0.1102(4) 0.69559(10) 0.5745(3)
H13 H 0.1602 0.7058 0.6497
C19 C 0.0779(4) 0.47377(10) 1.0743(3)
H14 H 0.0445 0.4493 1.1346
H15 H -0.0064 0.4715 1.0049
C20 C 0.2664(4) 0.46343(9) 1.0276(3)
C21 C 0.3937(4) 0.44451(10) 1.1084(3)
H16 H 0.3646 0.4386 1.1914
C22 C 0.5644(4) 0.43466(12) 1.0632(3)
C23 C 0.6153(5) 0.44287(12) 0.9422(3)
H17 H 0.7319 0.4354 0.9145
C24 C 0.4892(6) 0.46249(12) 0.8632(4)
H18 H 0.5210 0.4693 0.7811
C25 C 0.3169(5) 0.47215(10) 0.9042(3)
H19 H 0.2318 0.4848 0.8489
F1 F 0.6910(3) 0.41652(10) 1.1416(3)
N1 N -0.1121(3) 0.75280(7) 0.8045(2)
N2 N -0.1151(3) 0.70470(7) 0.7935(2)
N3 N -0.0588(4) 0.59709(8) 0.8357(2)
N4 N -0.0292(4) 0.55379(9) 0.9021(3)
O1 O 0.0068(2) 0.61526(6) 1.03108(16)
S1 S 0.05267(12) 0.53246(3) 1.14654(8)
loop_
_geom_bond_atom_site_label_1
_geom_bond_atom_site_label_2
_geom_bond_site_symmetry_1
_geom_bond_site_symmetry_2
C1 C2 1_555 1_555
C2 H1 1_555 1_555
C3 C2 1_555 1_555
H2 C3 1_555 1_555
C4 C3 1_555 1_555
H3 C4 1_555 1_555
C5 C4 1_555 1_555
H4 C5 1_555 1_555
C6 C1 1_555 1_555
H5 C6 1_555 1_555
C7 C1 1_555 1_555
C8 C7 1_555 1_555
H6 C8 1_555 1_555
C9 C8 1_555 1_555
C10 C9 1_555 1_555
C11 N4 1_555 1_555
C12 H7 1_555 1_555
H8 C12 1_555 1_555
C13 C12 1_555 1_555
C14 C13 1_555 1_555
H9 C14 1_555 1_555
C15 C14 1_555 1_555
H10 C15 1_555 1_555
C16 C15 1_555 1_555
H11 C16 1_555 1_555
C17 C16 1_555 1_555
H12 C17 1_555 1_555
C18 C13 1_555 1_555
H13 C18 1_555 1_555
C19 H14 1_555 1_555
H15 C19 1_555 1_555
C20 C19 1_555 1_555
C21 C20 1_555 1_555
H16 C21 1_555 1_555
C22 C21 1_555 1_555
C23 C22 1_555 1_555
H17 C23 1_555 1_555
C24 C23 1_555 1_555
H18 C24 1_555 1_555
C25 C20 1_555 1_555
H19 C25 1_555 1_555
F1 C22 1_555 1_555
N1 C7 1_555 1_555
N2 C9 1_555 1_555
N3 C10 1_555 1_555
N4 N3 1_555 1_555
O1 C10 1_555 1_555
S1 C11 1_555 1_555
C5 C6 1_555 1_555
C11 O1 1_555 1_555
C12 N2 1_555 1_555
C17 C18 1_555 1_555
C19 S1 1_555 1_555
C24 C25 1_555 1_555
N1 N2 1_555 1_555

#END
