
#######################################################################
#
#                 Cambridge Crystallographic Data Centre
#                                CCDC 
#
#######################################################################
#
# If this CIF has been generated from an entry in the Cambridge 
# Structural Database, then it will include bibliographic, chemical, 
# crystal, experimental, refinement or atomic coordinate data resulting 
# from the CCDC's data processing and validation procedures.
#
#######################################################################

data_RUJFOT
_chemical_formula_moiety         'C25 H19 Br1 N4 O1 S1'
_chemical_name_systematic        
2-(1-benzyl-3-phenyl-1H-pyrazol-5-yl)-5-((3-bromobenzyl)sulfanyl)-1,3,4-oxadiazole
_symmetry_cell_setting           monoclinic
_symmetry_space_group_name_H-M   'P 21/c'
_symmetry_Int_Tables_number      14
_space_group_name_Hall           '-P 2ybc'
loop_
_symmetry_equiv_pos_site_id
_symmetry_equiv_pos_as_xyz
1 x,y,z
2 -x,1/2+y,1/2-z
3 -x,-y,-z
4 x,1/2-y,1/2+z
_cell_length_a                   15.674(5)
_cell_length_b                   11.321(4)
_cell_length_c                   12.645(4)
_cell_angle_alpha                90
_cell_angle_beta                 90.382(6)
_cell_angle_gamma                90
_cell_volume                     2243.75
_exptl_crystal_colour            colorless
_exptl_crystal_description       block
_cell_formula_units_Z            4
_exptl_crystal_recrystallization_method Acetonitrile
loop_
_atom_site_label
_atom_site_type_symbol
_atom_site_fract_x
_atom_site_fract_y
_atom_site_fract_z
Br1 Br 0.45831(3) 0.11545(4) 0.72963(4)
C1 C -0.2193(2) 0.2995(3) 0.5102(3)
C2 C -0.2634(2) 0.2366(3) 0.4336(3)
H1 H -0.2336 0.1997 0.3795
C3 C -0.3520(3) 0.2280(4) 0.4365(4)
H2 H -0.3810 0.1861 0.3842
C4 C -0.3957(3) 0.2806(4) 0.5155(4)
H3 H -0.4548 0.2738 0.5180
C5 C -0.3532(3) 0.3441(4) 0.5922(4)
H4 H -0.3836 0.3815 0.6455
C6 C -0.2654(2) 0.3523(3) 0.5899(3)
H5 H -0.2369 0.3940 0.6427
C7 C -0.1258(2) 0.3091(3) 0.5078(3)
C8 C -0.0705(2) 0.3734(3) 0.5728(2)
H6 H -0.0851 0.4216 0.6294
C9 C 0.0097(2) 0.3503(3) 0.5355(2)
C10 C 0.0917(2) 0.3880(3) 0.5755(2)
C11 C 0.1756(2) 0.4764(3) 0.6818(3)
C12 C 0.0657(2) 0.2262(3) 0.3821(2)
H7 H 0.0450 0.1524 0.3528
H8 H 0.1168 0.2092 0.4231
C13 C 0.0884(2) 0.3087(3) 0.2926(2)
C14 C 0.0254(2) 0.3473(3) 0.2236(3)
H9 H -0.0307 0.3227 0.2329
C15 C 0.0450(3) 0.4216(3) 0.1417(3)
H10 H 0.0021 0.4487 0.0967
C16 C 0.1281(3) 0.4561(3) 0.1258(3)
H11 H 0.1415 0.5058 0.0697
C17 C 0.1911(2) 0.4171(3) 0.1929(3)
H12 H 0.2473 0.4402 0.1822
C18 C 0.1710(2) 0.3435(3) 0.2765(3)
H13 H 0.2139 0.3174 0.3220
C19 C 0.3166(2) 0.5393(3) 0.7907(3)
H14 H 0.3384 0.5462 0.7194
H15 H 0.3436 0.6002 0.8333
C20 C 0.3411(2) 0.4209(3) 0.8342(3)
C21 C 0.3827(2) 0.3383(3) 0.7731(3)
H16 H 0.3979 0.3565 0.7040
C22 C 0.4020(2) 0.2287(3) 0.8147(3)
C23 C 0.3803(2) 0.1999(4) 0.9171(3)
H17 H 0.3935 0.1258 0.9445
C24 C 0.3390(2) 0.2819(4) 0.9779(3)
H18 H 0.3235 0.2632 1.0468
C25 C 0.3203(2) 0.3918(4) 0.9374(3)
H19 H 0.2934 0.4473 0.9799
N1 N -0.08238(17) 0.2497(2) 0.4338(2)
N2 N 0.00065(17) 0.2753(2) 0.4524(2)
N3 N 0.16729(18) 0.3668(2) 0.5433(2)
N4 N 0.22381(17) 0.4249(3) 0.6135(2)
O1 O 0.09075(13) 0.45808(18) 0.66400(16)
S1 S 0.20200(6) 0.56508(8) 0.78797(8)
loop_
_geom_bond_atom_site_label_1
_geom_bond_atom_site_label_2
_geom_bond_site_symmetry_1
_geom_bond_site_symmetry_2
Br1 C22 1_555 1_555
C1 C2 1_555 1_555
C2 H1 1_555 1_555
C3 C2 1_555 1_555
H2 C3 1_555 1_555
C4 C3 1_555 1_555
H3 C4 1_555 1_555
C5 C4 1_555 1_555
H4 C5 1_555 1_555
C6 C1 1_555 1_555
H5 C6 1_555 1_555
C7 C1 1_555 1_555
C8 C7 1_555 1_555
H6 C8 1_555 1_555
C9 C8 1_555 1_555
C10 C9 1_555 1_555
C11 N4 1_555 1_555
C12 H7 1_555 1_555
H8 C12 1_555 1_555
C13 C12 1_555 1_555
C14 C13 1_555 1_555
H9 C14 1_555 1_555
C15 C14 1_555 1_555
H10 C15 1_555 1_555
C16 C15 1_555 1_555
H11 C16 1_555 1_555
C17 C16 1_555 1_555
H12 C17 1_555 1_555
C18 C13 1_555 1_555
H13 C18 1_555 1_555
C19 H14 1_555 1_555
H15 C19 1_555 1_555
C20 C19 1_555 1_555
C21 C20 1_555 1_555
H16 C21 1_555 1_555
C22 C21 1_555 1_555
C23 C22 1_555 1_555
H17 C23 1_555 1_555
C24 C23 1_555 1_555
H18 C24 1_555 1_555
C25 C20 1_555 1_555
H19 C25 1_555 1_555
N1 C7 1_555 1_555
N2 C9 1_555 1_555
N3 C10 1_555 1_555
N4 N3 1_555 1_555
O1 C10 1_555 1_555
S1 C11 1_555 1_555
C5 C6 1_555 1_555
C11 O1 1_555 1_555
C12 N2 1_555 1_555
C17 C18 1_555 1_555
C19 S1 1_555 1_555
C24 C25 1_555 1_555
N1 N2 1_555 1_555

#END
