
#######################################################################
#
#                 Cambridge Crystallographic Data Centre
#                                CCDC 
#
#######################################################################
#
# If this CIF has been generated from an entry in the Cambridge 
# Structural Database, then it will include bibliographic, chemical, 
# crystal, experimental, refinement or atomic coordinate data resulting 
# from the CCDC's data processing and validation procedures.
#
#######################################################################

data_RUJFOR
_chemical_formula_moiety         'C24 H24 N2 O1'
_chemical_name_systematic        
3-(2-(1-Methyl-1H-indole-2-yl)-1-methyl-1H-indole-3-yl)cyclohexanone
_symmetry_cell_setting           monoclinic
_symmetry_space_group_name_H-M   'P 21/n'
_symmetry_Int_Tables_number      14
_space_group_name_Hall           '-P 2yn'
loop_
_symmetry_equiv_pos_site_id
_symmetry_equiv_pos_as_xyz
1 x,y,z
2 1/2-x,1/2+y,1/2-z
3 -x,-y,-z
4 1/2+x,1/2-y,1/2+z
_cell_length_a                   12.592(2)
_cell_length_b                   9.2610(10)
_cell_length_c                   16.794(4)
_cell_angle_alpha                90
_cell_angle_beta                 97.630(10)
_cell_angle_gamma                90
_cell_volume                     1941.08
_exptl_crystal_colour            colorless
_exptl_crystal_description       'rectangular block'
_chemical_melting_point          205-206deg.C
_cell_formula_units_Z            4
loop_
_atom_site_label
_atom_site_type_symbol
_atom_site_fract_x
_atom_site_fract_y
_atom_site_fract_z
O1 O 0.0620(2) 0.2246(2) -0.01937(13)
N1 N 0.48099(13) -0.2222(2) 0.11658(10)
C1 C 0.4007(2) -0.3210(2) 0.09858(12)
C2 C 0.4078(2) -0.4684(3) 0.0835(2)
H1 H 0.4788(2) -0.5190(3) 0.0820(2)
C3 C 0.3118(3) -0.5422(3) 0.0657(2)
H2 H 0.3196(3) -0.6501(3) 0.0477(2)
C4 C 0.2133(2) -0.4720(3) 0.0619(2)
H3 H 0.1404(2) -0.5292(3) 0.0443(2)
C5 C 0.2064(2) -0.3274(3) 0.07755(13)
H4 H 0.1208(2) -0.2725(3) 0.07526(13)
C6 C 0.3018(2) -0.2482(2) 0.09734(11)
C7 C 0.32562(15) -0.1003(2) 0.11694(11)
C8 C 0.43512(15) -0.0883(2) 0.12774(11)
C9 C 0.50385(15) 0.0394(2) 0.14486(12)
N2 N 0.51334(13) 0.1068(2) 0.21848(10)
C10 C 0.5839(2) 0.2209(2) 0.21714(13)
C11 C 0.6170(2) 0.3214(3) 0.2782(2)
H5 H 0.6005(2) 0.3124(3) 0.3366(2)
C12 C 0.6899(2) 0.4238(3) 0.2604(2)
H6 H 0.7187(2) 0.5074(3) 0.3017(2)
C13 C 0.7283(2) 0.4272(3) 0.1862(2)
H7 H 0.7797(2) 0.5113(3) 0.1765(2)
C14 C 0.6951(2) 0.3290(3) 0.1272(2)
H8 H 0.7198(2) 0.3295(3) 0.0639(2)
C15 C 0.6198(2) 0.2240(2) 0.14227(13)
C16 C 0.5681(2) 0.1085(2) 0.09703(14)
H9 H 0.5795(2) 0.0694(2) 0.04076(14)
C17 C 0.2481(2) 0.0229(2) 0.12112(12)
H10 H 0.2999(2) 0.1264(2) 0.13638(12)
C18 C 0.1803(2) 0.0453(3) 0.03928(13)
H11 H 0.2400(2) 0.0778(3) -0.00255(13)
H12 H 0.1400(2) -0.0589(3) 0.02085(13)
C19 C 0.0895(2) 0.1506(3) 0.03841(15)
C20 C 0.0289(2) 0.1504(3) 0.1106(2)
H13 H -0.0193(2) 0.2508(3) 0.1067(2)
H14 H -0.0193(2) 0.0493(3) 0.1018(2)
C21 C 0.1022(2) 0.1332(3) 0.1894(2)
H15 H 0.0598(2) 0.1198(3) 0.2361(2)
H16 H 0.1598(2) 0.2347(3) 0.1999(2)
C22 C 0.1771(2) 0.0044(3) 0.18726(13)
H17 H 0.1208(2) -0.0906(3) 0.17346(13)
H18 H 0.2208(2) -0.0104(3) 0.24186(13)
C23 C 0.5946(2) -0.2545(3) 0.1243(2)
H19 H 0.6322(3) -0.1739(13) 0.1054(17)
H20 H 0.6058(3) -0.3384(19) 0.0929(14)
H21 H 0.6210(5) -0.2727(31) 0.1797(3)
C24 C 0.4646(2) 0.0636(4) 0.2868(2)
H22 H 0.5166(7) 0.0677(32) 0.3340(3)
H23 H 0.4381(22) -0.0333(12) 0.2792(8)
H24 H 0.4062(16) 0.1274(20) 0.2931(11)
loop_
_geom_bond_atom_site_label_1
_geom_bond_atom_site_label_2
_geom_bond_site_symmetry_1
_geom_bond_site_symmetry_2
O1 C19 1_555 1_555
N1 C1 1_555 1_555
C1 C2 1_555 1_555
C2 H1 1_555 1_555
C3 C2 1_555 1_555
H2 C3 1_555 1_555
C4 C3 1_555 1_555
H3 C4 1_555 1_555
C5 C4 1_555 1_555
H4 C5 1_555 1_555
C6 C1 1_555 1_555
C7 C6 1_555 1_555
C8 N1 1_555 1_555
C9 C8 1_555 1_555
N2 C9 1_555 1_555
C10 N2 1_555 1_555
C11 C10 1_555 1_555
H5 C11 1_555 1_555
C12 C11 1_555 1_555
H6 C12 1_555 1_555
C13 C12 1_555 1_555
H7 C13 1_555 1_555
C14 C13 1_555 1_555
H8 C14 1_555 1_555
C15 C10 1_555 1_555
C16 C9 1_555 1_555
H9 C16 1_555 1_555
C17 C7 1_555 1_555
H10 C17 1_555 1_555
C18 C17 1_555 1_555
H11 C18 1_555 1_555
H12 C18 1_555 1_555
C19 C18 1_555 1_555
C20 C19 1_555 1_555
H13 C20 1_555 1_555
H14 C20 1_555 1_555
C21 C20 1_555 1_555
H15 C21 1_555 1_555
H16 C21 1_555 1_555
C22 C17 1_555 1_555
H17 C22 1_555 1_555
H18 C22 1_555 1_555
C23 N1 1_555 1_555
H19 C23 1_555 1_555
H20 C23 1_555 1_555
H21 C23 1_555 1_555
C24 N2 1_555 1_555
H22 C24 1_555 1_555
H23 C24 1_555 1_555
H24 C24 1_555 1_555
C5 C6 1_555 1_555
C7 C8 1_555 1_555
C14 C15 1_555 1_555
C15 C16 1_555 1_555
C21 C22 1_555 1_555

#END
