
#######################################################################
#
#                 Cambridge Crystallographic Data Centre
#                                CCDC 
#
#######################################################################
#
# If this CIF has been generated from an entry in the Cambridge 
# Structural Database, then it will include bibliographic, chemical, 
# crystal, experimental, refinement or atomic coordinate data resulting 
# from the CCDC's data processing and validation procedures.
#
#######################################################################

data_RUJFIN
_chemical_formula_moiety         'C25 H19 Cl1 N4 O1 S1'
_chemical_name_systematic        
2-(1-benzyl-3-phenyl-1H-pyrazol-5-yl)-5-((3-chlorobenzyl)sulfanyl)-1,3,4-oxadiazole
_symmetry_cell_setting           monoclinic
_symmetry_space_group_name_H-M   'P 21/c'
_symmetry_Int_Tables_number      14
_space_group_name_Hall           '-P 2ybc'
loop_
_symmetry_equiv_pos_site_id
_symmetry_equiv_pos_as_xyz
1 x,y,z
2 -x,1/2+y,1/2-z
3 -x,-y,-z
4 x,1/2-y,1/2+z
_cell_length_a                   15.515(5)
_cell_length_b                   11.335(3)
_cell_length_c                   12.669(4)
_cell_angle_alpha                90
_cell_angle_beta                 90.478(6)
_cell_angle_gamma                90
_cell_volume                     2227.92
_exptl_crystal_colour            colorless
_exptl_crystal_description       block
_cell_formula_units_Z            4
_exptl_crystal_recrystallization_method Ethanol
loop_
_atom_site_label
_atom_site_type_symbol
_atom_site_fract_x
_atom_site_fract_y
_atom_site_fract_z
C1 C 0.2788(2) 0.8007(3) 0.9826(3)
C2 C 0.2327(2) 0.8547(3) 0.9015(3)
H1 H 0.2621 0.8968 0.8502
C3 C 0.1437(3) 0.8466(4) 0.8960(4)
H2 H 0.1141 0.8825 0.8405
C4 C 0.0988(3) 0.7864(5) 0.9712(5)
H3 H 0.0390 0.7813 0.9676
C5 C 0.1438(3) 0.7337(5) 1.0518(4)
H4 H 0.1137 0.6935 1.1038
C6 C 0.2331(2) 0.7388(4) 1.0579(3)
H5 H 0.2622 0.7006 1.1125
C7 C 0.3739(2) 0.8096(3) 0.9880(2)
C8 C 0.4295(2) 0.8740(2) 0.9242(2)
H6 H 0.4149 0.9221 0.8673
C9 C 0.5108(2) 0.8509(2) 0.9639(2)
C10 C 0.5940(2) 0.8893(2) 0.9266(2)
C11 C 0.6795(2) 0.9769(3) 0.8236(2)
C12 C 0.5665(2) 0.7271(3) 1.1190(3)
H7 H 0.6183 0.7107 1.0792
H8 H 0.5458 0.6530 1.1473
C13 C 0.58886(19) 0.8083(2) 1.2090(2)
C14 C 0.5250(2) 0.8485(3) 1.2763(3)
H9 H 0.4681 0.8260 1.2647
C15 C 0.5449(3) 0.9210(3) 1.3596(3)
H10 H 0.5015 0.9465 1.4042
C16 C 0.6287(3) 0.9563(3) 1.3778(3)
H11 H 0.6419 1.0063 1.4339
C17 C 0.6931(3) 0.9165(3) 1.3114(3)
H12 H 0.7500 0.9391 1.3235
C18 C 0.6733(2) 0.8438(3) 1.2281(3)
H13 H 0.7169 0.8180 1.1838
C19 C 0.8225(2) 1.0400(3) 0.7171(3)
H14 H 0.8499 1.1010 0.6755
H15 H 0.8446 1.0462 0.7887
C20 C 0.8467(2) 0.9211(3) 0.6730(3)
C21 C 0.8868(2) 0.8379(3) 0.7344(3)
H16 H 0.9014 0.8552 0.8041
C22 C 0.9056(2) 0.7280(3) 0.6927(3)
C23 C 0.8831(2) 0.7012(4) 0.5891(4)
H17 H 0.8950 0.6269 0.5617
C24 C 0.8432(3) 0.7843(4) 0.5278(3)
H18 H 0.8280 0.7667 0.4584
C25 C 0.8256(2) 0.8941(4) 0.5686(3)
H19 H 0.7993 0.9508 0.5262
Cl1 Cl 0.95446(8) 0.62150(11) 0.77219(12)
N1 N 0.41724(17) 0.7507(2) 1.0629(2)
N2 N 0.50127(16) 0.7757(2) 1.0478(2)
N3 N 0.67052(17) 0.8664(2) 0.9611(2)
N4 N 0.72792(17) 0.9252(3) 0.8925(2)
O1 O 0.59378(14) 0.95853(17) 0.83836(17)
S1 S 0.70672(6) 1.06590(8) 0.71773(8)
loop_
_geom_bond_atom_site_label_1
_geom_bond_atom_site_label_2
_geom_bond_site_symmetry_1
_geom_bond_site_symmetry_2
C1 C2 1_555 1_555
C2 H1 1_555 1_555
C3 C2 1_555 1_555
H2 C3 1_555 1_555
C4 C3 1_555 1_555
H3 C4 1_555 1_555
C5 C4 1_555 1_555
H4 C5 1_555 1_555
C6 C1 1_555 1_555
H5 C6 1_555 1_555
C7 C1 1_555 1_555
C8 C7 1_555 1_555
H6 C8 1_555 1_555
C9 C8 1_555 1_555
C10 C9 1_555 1_555
C11 N4 1_555 1_555
C12 H7 1_555 1_555
H8 C12 1_555 1_555
C13 C12 1_555 1_555
C14 C13 1_555 1_555
H9 C14 1_555 1_555
C15 C14 1_555 1_555
H10 C15 1_555 1_555
C16 C15 1_555 1_555
H11 C16 1_555 1_555
C17 C16 1_555 1_555
H12 C17 1_555 1_555
C18 C13 1_555 1_555
H13 C18 1_555 1_555
C19 H14 1_555 1_555
H15 C19 1_555 1_555
C20 C19 1_555 1_555
C21 C20 1_555 1_555
H16 C21 1_555 1_555
C22 C21 1_555 1_555
C23 C22 1_555 1_555
H17 C23 1_555 1_555
C24 C23 1_555 1_555
H18 C24 1_555 1_555
C25 C20 1_555 1_555
H19 C25 1_555 1_555
Cl1 C22 1_555 1_555
N1 C7 1_555 1_555
N2 C9 1_555 1_555
N3 C10 1_555 1_555
N4 N3 1_555 1_555
O1 C10 1_555 1_555
S1 C11 1_555 1_555
C5 C6 1_555 1_555
C11 O1 1_555 1_555
C12 N2 1_555 1_555
C17 C18 1_555 1_555
C19 S1 1_555 1_555
C24 C25 1_555 1_555
N1 N2 1_555 1_555

#END
