
#######################################################################
#
#                 Cambridge Crystallographic Data Centre
#                                CCDC 
#
#######################################################################
#
# If this CIF has been generated from an entry in the Cambridge 
# Structural Database, then it will include bibliographic, chemical, 
# crystal, experimental, refinement or atomic coordinate data resulting 
# from the CCDC's data processing and validation procedures.
#
#######################################################################

data_RUJGAG
_chemical_formula_moiety         'C25 H19 N5 O3 S1'
_chemical_name_systematic        
2-(1-Benzyl-3-phenyl-1H-pyrazol-5-yl)-5-(3-nitrobenzylthio)-1,3,4-oxadiazole
_symmetry_cell_setting           monoclinic
_symmetry_space_group_name_H-M   'P 21/c'
_symmetry_Int_Tables_number      14
_space_group_name_Hall           '-P 2ybc'
loop_
_symmetry_equiv_pos_site_id
_symmetry_equiv_pos_as_xyz
1 x,y,z
2 -x,1/2+y,1/2-z
3 -x,-y,-z
4 x,1/2-y,1/2+z
_cell_length_a                   15.852(6)
_cell_length_b                   11.385(4)
_cell_length_c                   12.585(5)
_cell_angle_alpha                90
_cell_angle_beta                 94.142(7)
_cell_angle_gamma                90
_cell_volume                     2265.35
_exptl_crystal_colour            colorless
_exptl_crystal_description       block
_cell_formula_units_Z            4
_exptl_crystal_recrystallization_method Acetonitrile/ethanol
loop_
_atom_site_label
_atom_site_type_symbol
_atom_site_fract_x
_atom_site_fract_y
_atom_site_fract_z
C1 C 0.71298(12) 0.79783(16) 1.00270(17)
C2 C 0.75725(15) 0.8494(2) 0.9239(2)
H1 H 0.7283 0.8928 0.8703
C3 C 0.84425(17) 0.8370(3) 0.9242(3)
H2 H 0.8735 0.8721 0.8712
C4 C 0.88707(16) 0.7728(3) 1.0028(3)
H3 H 0.9454 0.7638 1.0025
C5 C 0.84468(16) 0.7220(3) 1.0817(2)
H4 H 0.8742 0.6791 1.1351
C6 C 0.75774(14) 0.7343(2) 1.0821(2)
H5 H 0.7292 0.6997 1.1361
C7 C 0.62051(12) 0.80941(16) 1.00127(15)
C8 C 0.56495(12) 0.87290(15) 0.93188(15)
H6 H 0.5787 0.9199 0.8752
C9 C 0.48566(12) 0.85123(14) 0.96501(14)
C10 C 0.40440(12) 0.88851(15) 0.91975(14)
C11 C 0.31902(12) 0.97428(16) 0.80814(16)
C12 C 0.43256(12) 0.72933(16) 1.11755(15)
H7 H 0.4536 0.6561 1.1487
H8 H 0.3814 0.7120 1.0734
C13 C 0.41132(11) 0.81153(15) 1.20558(14)
C14 C 0.47474(13) 0.85318(16) 1.27764(15)
H9 H 0.5306 0.8316 1.2705
C15 C 0.45559(16) 0.92624(18) 1.35964(17)
H10 H 0.4986 0.9540 1.4073
C16 C 0.37331(17) 0.95839(19) 1.37150(18)
H11 H 0.3607 1.0076 1.4271
C17 C 0.30990(16) 0.9178(2) 1.30128(18)
H12 H 0.2541 0.9393 1.3093
C18 C 0.32905(13) 0.84444(18) 1.21802(16)
H13 H 0.2859 0.8174 1.1703
C19 C 0.17760(14) 1.0342(2) 0.6906(2)
H14 H 0.1571 1.0431 0.7609
H15 H 0.1496 1.0929 0.6446
C20 C 0.15385(12) 0.9142(2) 0.64860(17)
C21 C 0.17689(14) 0.8795(2) 0.54880(19)
H16 H 0.2054 0.9320 0.5075
C22 C 0.15830(15) 0.7692(3) 0.5102(2)
H17 H 0.1749 0.7473 0.4437
C23 C 0.11524(15) 0.6909(2) 0.5696(2)
H18 H 0.1031 0.6155 0.5444
C24 C 0.09044(13) 0.7270(2) 0.6677(2)
C25 C 0.10907(12) 0.8374(2) 0.70765(18)
H19 H 0.0916 0.8597 0.7737
N1 N 0.04384(15) 0.6471(2) 0.7305(3)
N2 N 0.27271(10) 0.92324(15) 0.87373(13)
N3 N 0.32959(10) 0.86632(15) 0.94831(13)
N4 N 0.49596(10) 0.77748(13) 1.05028(12)
N5 N 0.57819(10) 0.75167(13) 1.07394(13)
O1 O 0.40339(8) 0.95699(10) 0.83046(10)
O2 O 0.01266(16) 0.6822(2) 0.8079(2)
O3 O 0.03311(19) 0.5497(2) 0.7008(3)
S1 S 0.29058(4) 1.06160(5) 0.69888(5)
loop_
_geom_bond_atom_site_label_1
_geom_bond_atom_site_label_2
_geom_bond_site_symmetry_1
_geom_bond_site_symmetry_2
C1 C2 1_555 1_555
C2 H1 1_555 1_555
C3 C2 1_555 1_555
H2 C3 1_555 1_555
C4 C3 1_555 1_555
H3 C4 1_555 1_555
C5 C4 1_555 1_555
H4 C5 1_555 1_555
C6 C1 1_555 1_555
H5 C6 1_555 1_555
C7 C1 1_555 1_555
C8 C7 1_555 1_555
H6 C8 1_555 1_555
C9 C8 1_555 1_555
C10 C9 1_555 1_555
C11 N2 1_555 1_555
C12 H7 1_555 1_555
H8 C12 1_555 1_555
C13 C12 1_555 1_555
C14 C13 1_555 1_555
H9 C14 1_555 1_555
C15 C14 1_555 1_555
H10 C15 1_555 1_555
C16 C15 1_555 1_555
H11 C16 1_555 1_555
C17 C16 1_555 1_555
H12 C17 1_555 1_555
C18 C13 1_555 1_555
H13 C18 1_555 1_555
C19 H14 1_555 1_555
H15 C19 1_555 1_555
C20 C19 1_555 1_555
C21 C20 1_555 1_555
H16 C21 1_555 1_555
C22 C21 1_555 1_555
H17 C22 1_555 1_555
C23 C22 1_555 1_555
H18 C23 1_555 1_555
C24 C23 1_555 1_555
C25 C20 1_555 1_555
H19 C25 1_555 1_555
N1 C24 1_555 1_555
N2 N3 1_555 1_555
N3 C10 1_555 1_555
N4 C9 1_555 1_555
N5 C7 1_555 1_555
O1 C10 1_555 1_555
O2 N1 1_555 1_555
O3 N1 1_555 1_555
S1 C11 1_555 1_555
C5 C6 1_555 1_555
C11 O1 1_555 1_555
C12 N4 1_555 1_555
C17 C18 1_555 1_555
C19 S1 1_555 1_555
C24 C25 1_555 1_555
N4 N5 1_555 1_555

#END
