
#######################################################################
#
#                 Cambridge Crystallographic Data Centre
#                                CCDC 
#
#######################################################################
#
# If this CIF has been generated from an entry in the Cambridge 
# Structural Database, then it will include bibliographic, chemical, 
# crystal, experimental, refinement or atomic coordinate data resulting 
# from the CCDC's data processing and validation procedures.
#
#######################################################################

data_RUJHUB
_chemical_compound_source        'Chimonanthus salicifolius'
_chemical_name_common            8a-hydroxyelemol
_chemical_formula_moiety         'C15 H26 O2'
_chemical_name_systematic        
2-(2-hydroxypropan-2-yl)-5-methyl-4-(prop-1-en-2-yl)-5-vinylcyclohexanol
_chemical_properties_biological  'immunosuppressive activity'
_symmetry_cell_setting           monoclinic
_symmetry_space_group_name_H-M   'P 21'
_symmetry_Int_Tables_number      4
_space_group_name_Hall           'P 2yb'
loop_
_symmetry_equiv_pos_site_id
_symmetry_equiv_pos_as_xyz
1 x,y,z
2 -x,1/2+y,-z
_cell_length_a                   6.2478(3)
_cell_length_b                   8.6596(4)
_cell_length_c                   14.0047(6)
_cell_angle_alpha                90
_cell_angle_beta                 100.391(5)
_cell_angle_gamma                90
_cell_volume                     745.276
_exptl_crystal_colour            colorless
_exptl_crystal_description       block
_cell_formula_units_Z            2
loop_
_atom_site_label
_atom_site_type_symbol
_atom_site_fract_x
_atom_site_fract_y
_atom_site_fract_z
O1 O -0.0026(5) 0.7165(3) 0.07054(19)
H1 H -0.0505 0.7903 0.0339
O2 O 0.1674(6) 0.4561(3) 0.0390(2)
H2 H 0.0785 0.5298 0.0330
C1 C 0.2792(5) 0.6117(3) 0.18606(18)
H3 H 0.1569 0.5703 0.2158
C2 C 0.4743(5) 0.6334(3) 0.26916(19)
H4 H 0.4412 0.7162 0.3130
H5 H 0.6031 0.6656 0.2420
C3 C 0.5268(5) 0.4829(3) 0.32745(18)
H6 H 0.3908 0.4530 0.3510
C4 C 0.5807(5) 0.3465(3) 0.26212(19)
C5 C 0.3903(5) 0.3354(3) 0.1742(2)
H7 H 0.4266 0.2559 0.1288
H8 H 0.2581 0.3004 0.1977
C6 C 0.3393(6) 0.4854(3) 0.11905(19)
H9 H 0.4713 0.5190 0.0934
C7 C 0.1964(5) 0.7622(3) 0.13255(19)
C8 C 0.1373(7) 0.8827(4) 0.2029(2)
H10 H 0.0602 0.9686 0.1662
H11 H 0.2703 0.9213 0.2440
H12 H 0.0433 0.8356 0.2438
C9 C 0.3542(7) 0.8310(5) 0.0735(3)
H13 H 0.3776 0.7576 0.0232
H14 H 0.4932 0.8527 0.1163
H15 H 0.2937 0.9271 0.0430
C10 C 0.7017(7) 0.5070(4) 0.4183(2)
C11 C 0.6739(9) 0.4229(6) 0.5056(3)
H16 H 0.7936 0.4484 0.5587
H17 H 0.6743 0.3116 0.4929
H18 H 0.5352 0.4522 0.5239
C12 C 0.8703(9) 0.6065(6) 0.4195(3)
H19 H 0.9723 0.6222 0.4778
H20 H 0.8863 0.6603 0.3621
C13 C 0.5788(6) 0.1960(4) 0.3169(2)
H21 H 0.4554 0.1780 0.3462
C14 C 0.7278(8) 0.0874(4) 0.3286(3)
H22 H 0.8549 0.0989 0.3009
H23 H 0.7085 -0.0028 0.3647
C15 C 0.7947(5) 0.3688(5) 0.2265(2)
H24 H 0.9152 0.3670 0.2820
H25 H 0.7929 0.4684 0.1932
H26 H 0.8137 0.2855 0.1815
loop_
_geom_bond_atom_site_label_1
_geom_bond_atom_site_label_2
_geom_bond_site_symmetry_1
_geom_bond_site_symmetry_2
O1 H1 1_555 1_555
O2 H2 1_555 1_555
C1 H3 1_555 1_555
C2 C1 1_555 1_555
H4 C2 1_555 1_555
H5 C2 1_555 1_555
C3 C2 1_555 1_555
H6 C3 1_555 1_555
C4 C3 1_555 1_555
C5 C4 1_555 1_555
H7 C5 1_555 1_555
H8 C5 1_555 1_555
C6 O2 1_555 1_555
H9 C6 1_555 1_555
C7 O1 1_555 1_555
C8 C7 1_555 1_555
H10 C8 1_555 1_555
H11 C8 1_555 1_555
H12 C8 1_555 1_555
C9 C7 1_555 1_555
H13 C9 1_555 1_555
H14 C9 1_555 1_555
H15 C9 1_555 1_555
C10 C3 1_555 1_555
C11 C10 1_555 1_555
H16 C11 1_555 1_555
H17 C11 1_555 1_555
H18 C11 1_555 1_555
C12 C10 1_555 1_555
H19 C12 1_555 1_555
H20 C12 1_555 1_555
C13 C4 1_555 1_555
H21 C13 1_555 1_555
C14 C13 1_555 1_555
H22 C14 1_555 1_555
H23 C14 1_555 1_555
C15 C4 1_555 1_555
H24 C15 1_555 1_555
H25 C15 1_555 1_555
H26 C15 1_555 1_555
C1 C6 1_555 1_555
C1 C7 1_555 1_555
C5 C6 1_555 1_555

#END
