
#######################################################################
#
#                 Cambridge Crystallographic Data Centre
#                                CCDC 
#
#######################################################################
#
# If this CIF has been generated from an entry in the Cambridge 
# Structural Database, then it will include bibliographic, chemical, 
# crystal, experimental, refinement or atomic coordinate data resulting 
# from the CCDC's data processing and validation procedures.
#
#######################################################################

data_RUJNOA
_chemical_formula_moiety         'C15 H10 N2 O3'
_chemical_name_systematic        2,4,5-Tri(2-furyl)-1H-imidazole
_symmetry_cell_setting           monoclinic
_symmetry_space_group_name_H-M   'C c'
_symmetry_Int_Tables_number      9
_space_group_name_Hall           'C -2yc'
loop_
_symmetry_equiv_pos_site_id
_symmetry_equiv_pos_as_xyz
1 x,y,z
2 x,-y,1/2+z
3 1/2+x,1/2+y,z
4 1/2+x,1/2-y,1/2+z
_cell_length_a                   9.3940(19)
_cell_length_b                   17.146(3)
_cell_length_c                   9.1484(18)
_cell_angle_alpha                90
_cell_angle_beta                 116.29(3)
_cell_angle_gamma                90
_cell_volume                     1321.11
_exptl_crystal_colour            yellow
_exptl_crystal_description       block
_cell_formula_units_Z            4
_exptl_crystal_recrystallization_method methanol
loop_
_atom_site_label
_atom_site_type_symbol
_atom_site_fract_x
_atom_site_fract_y
_atom_site_fract_z
O1 O 0.2149(4) 0.03841(17) 0.1765(4)
O2 O 0.2353(3) 0.22150(13) -0.1681(3)
O3 O 0.7630(4) -0.05039(19) -0.0235(3)
N1 N 0.4736(3) 0.01826(14) 0.1105(3)
H1 H 0.484(5) -0.016(2) 0.199(5)
N2 N 0.5145(3) 0.06255(15) -0.0952(3)
C1 C 0.1128(7) 0.0677(3) 0.2310(8)
H2 H 0.0680 0.0389 0.2862
C2 C 0.0868(6) 0.1396(3) 0.1967(6)
H3 H 0.0198 0.1716 0.2203
C3 C 0.1802(6) 0.1624(3) 0.1147(5)
H4 H 0.1872 0.2118 0.0767
C4 C 0.2547(4) 0.09777(18) 0.1044(4)
C5 C 0.3664(3) 0.07872(16) 0.0416(3)
C6 C 0.3936(3) 0.10452(16) -0.0868(3)
C7 C 0.3183(3) 0.16580(17) -0.2043(4)
C8 C 0.3121(5) 0.1808(2) -0.3509(4)
H5 H 0.3586 0.1518 -0.4043
C9 C 0.2190(5) 0.2505(3) -0.4089(6)
H6 H 0.1935 0.2754 -0.5077
C10 C 0.1770(5) 0.2724(2) -0.2969(6)
H7 H 0.1162 0.3162 -0.3035
C11 C 0.5600(3) 0.01121(16) 0.0265(3)
C12 C 0.6862(4) -0.04443(19) 0.0694(4)
C13 C 0.7492(5) -0.0938(2) 0.1934(5)
H8 H 0.7166 -0.1013 0.2747
C14 C 0.8742(5) -0.1329(3) 0.1795(7)
H9 H 0.9409 -0.1704 0.2501
C15 C 0.8781(6) -0.1061(3) 0.0482(7)
H10 H 0.9489 -0.1224 0.0086
loop_
_geom_bond_atom_site_label_1
_geom_bond_atom_site_label_2
_geom_bond_site_symmetry_1
_geom_bond_site_symmetry_2
O1 C1 1_555 1_555
O2 C7 1_555 1_555
O3 C12 1_555 1_555
N1 H1 1_555 1_555
N2 C6 1_555 1_555
C1 H2 1_555 1_555
C2 C1 1_555 1_555
H3 C2 1_555 1_555
C3 C2 1_555 1_555
H4 C3 1_555 1_555
C4 O1 1_555 1_555
C5 N1 1_555 1_555
C6 C5 1_555 1_555
C7 C6 1_555 1_555
C8 C7 1_555 1_555
H5 C8 1_555 1_555
C9 C8 1_555 1_555
H6 C9 1_555 1_555
C10 O2 1_555 1_555
H7 C10 1_555 1_555
C11 N1 1_555 1_555
C12 C11 1_555 1_555
C13 C12 1_555 1_555
H8 C13 1_555 1_555
C14 C13 1_555 1_555
H9 C14 1_555 1_555
C15 O3 1_555 1_555
H10 C15 1_555 1_555
N2 C11 1_555 1_555
C3 C4 1_555 1_555
C4 C5 1_555 1_555
C9 C10 1_555 1_555
C14 C15 1_555 1_555

#END
