
#######################################################################
#
#                 Cambridge Crystallographic Data Centre
#                                CCDC 
#
#######################################################################
#
# If this CIF has been generated from an entry in the Cambridge 
# Structural Database, then it will include bibliographic, chemical, 
# crystal, experimental, refinement or atomic coordinate data resulting 
# from the CCDC's data processing and validation procedures.
#
#######################################################################

data_RUJNUG
_chemical_formula_moiety         'C13 H12 Cl1 N7'
_chemical_name_systematic        
6-Allyl-3-((6-chloropyridin-3-yl)methyl)-3,6-dihydro-7H-[1,2,3]triazolo[4,5-d]pyrimidin-7-imine
_symmetry_cell_setting           triclinic
_symmetry_space_group_name_H-M   'P -1'
_symmetry_Int_Tables_number      2
_space_group_name_Hall           '-P 1'
loop_
_symmetry_equiv_pos_site_id
_symmetry_equiv_pos_as_xyz
1 x,y,z
2 -x,-y,-z
_cell_length_a                   7.2845(7)
_cell_length_b                   13.2684(12)
_cell_length_c                   14.7069(14)
_cell_angle_alpha                87.3510(10)
_cell_angle_beta                 81.7520(10)
_cell_angle_gamma                82.9170(10)
_cell_volume                     1395.45
_exptl_crystal_colour            colorless
_exptl_crystal_description       block
_cell_formula_units_Z            4
_exptl_crystal_recrystallization_method ethanol
loop_
_atom_site_label
_atom_site_type_symbol
_atom_site_fract_x
_atom_site_fract_y
_atom_site_fract_z
C1 C 0.7964(4) 0.39425(19) 0.67973(16)
H1 H 0.9002 0.4288 0.6913
H2 H 0.6844 0.4265 0.7159
C2 C 0.8281(6) 0.2896(3) 0.7111(3)
H3 H 0.9341 0.2520 0.6814
C3 C 0.7319(5) 0.2418(3) 0.7732(2)
H4 H 0.6239 0.2747 0.8058
H5 H 0.7692 0.1738 0.7864
C17 C 0.7367(2) 0.51225(13) 0.45004(13)
C18 C 0.7607(3) 0.51058(14) 0.54603(13)
C19 C 0.7703(3) 0.32703(15) 0.52893(15)
H17 H 0.7816 0.2638 0.5589
C20 C 0.7361(2) 0.42382(13) 0.40561(13)
C21 C 0.7094(3) 0.39121(15) 0.23947(14)
H18 H 0.5996 0.4168 0.2114
H19 H 0.6960 0.3220 0.2611
C22 C 1.0541(3) 0.40537(14) 0.18782(14)
H20 H 1.0650 0.4172 0.2486
C23 C 0.8801(3) 0.39059(13) 0.16747(13)
C24 C 0.8673(3) 0.37205(16) 0.07674(14)
H21 H 0.7530 0.3618 0.0598
C25 C 1.0239(3) 0.36883(17) 0.01182(15)
H22 H 1.0184 0.3558 -0.0493
C26 C 1.1885(3) 0.38548(15) 0.04051(15)
Cl2 Cl 1.39020(10) 0.38267(5) -0.04027(5)
N8 N 0.7516(2) 0.32692(11) 0.44197(12)
N9 N 0.7752(2) 0.40853(12) 0.58091(11)
N10 N 0.7707(3) 0.58234(13) 0.59890(12)
H24 H 0.7618 0.6440 0.5777
N11 N 0.7175(2) 0.45313(11) 0.31812(11)
N12 N 0.7058(3) 0.55636(12) 0.30882(12)
N13 N 0.7175(3) 0.59204(12) 0.38966(12)
N14 N 1.2090(2) 0.40379(13) 0.12549(12)
C4 C 0.7678(2) 1.00162(12) 0.51743(12)
C5 C 0.7015(2) 1.02006(12) 0.42960(12)
C6 C 0.7187(3) 0.83395(13) 0.43489(14)
H6 H 0.6996 0.7774 0.4040
C7 C 0.8029(2) 0.90450(12) 0.55236(12)
C8 C 0.9108(3) 0.83866(14) 0.70333(13)
H7 H 1.0253 0.8510 0.7252
H8 H 0.9309 0.7719 0.6768
C9 C 0.5880(3) 0.80588(16) 0.77284(13)
H9 H 0.5802 0.7758 0.7179
C10 C 0.7544(3) 0.84151(13) 0.78275(12)
C11 C 0.7665(3) 0.88164(17) 0.86595(15)
H10 H 0.8770 0.9047 0.8763
C12 C 0.6143(3) 0.88762(18) 0.93401(15)
H11 H 0.6193 0.9140 0.9910
C13 C 0.4556(3) 0.85311(15) 0.91408(13)
C14 C 0.6112(3) 0.92790(16) 0.30226(13)
H12 H 0.5276 0.9899 0.2960
H13 H 0.5401 0.8711 0.3001
C15 C 0.7634(3) 0.9228(2) 0.22394(16)
H14 H 0.8453 0.9719 0.2193
C16 C 0.7911(4) 0.8556(3) 0.1618(2)
H15 H 0.7121 0.8053 0.1641
H16 H 0.8902 0.8573 0.1144
Cl1 Cl 0.25485(10) 0.86518(6) 0.99613(4)
N1 N 0.7805(2) 0.81572(11) 0.51360(11)
N2 N 0.6786(2) 0.92572(11) 0.39244(10)
N3 N 0.6629(2) 1.10214(11) 0.38456(11)
H23 H 0.6766 1.1591 0.4069
N4 N 0.86503(19) 0.91590(10) 0.63304(10)
N5 N 0.8663(2) 1.01637(11) 0.64796(10)
N6 N 0.8078(2) 1.06876(11) 0.57735(10)
N7 N 0.4377(2) 0.81185(14) 0.83706(11)
C27? C 0.7964(4) 0.39425(19) 0.67973(16)
C28? C 0.6943(8) 0.3207(4) 0.7325(3)
C29? C 0.7319(5) 0.2418(3) 0.7732(2)
H25? H 0.9279 0.3756 0.6840
H26? H 0.7600 0.4593 0.7086
H27? H 0.5659 0.3385 0.7363
H28? H 0.8561 0.2159 0.7746
H29? H 0.6368 0.2068 0.8034
loop_
_geom_bond_atom_site_label_1
_geom_bond_atom_site_label_2
_geom_bond_site_symmetry_1
_geom_bond_site_symmetry_2
C1 H1 1_555 1_555
H2 C1 1_555 1_555
C2 C1 1_555 1_555
H3 C2 1_555 1_555
C3 C2 1_555 1_555
H4 C3 1_555 1_555
H5 C3 1_555 1_555
C4 C5 1_555 1_555
C5 N2 1_555 1_555
C6 H6 1_555 1_555
C7 C4 1_555 1_555
C8 H7 1_555 1_555
H8 C8 1_555 1_555
C9 H9 1_555 1_555
C10 C8 1_555 1_555
C11 C10 1_555 1_555
H10 C11 1_555 1_555
C12 C11 1_555 1_555
H11 C12 1_555 1_555
C13 C12 1_555 1_555
C14 H12 1_555 1_555
H13 C14 1_555 1_555
C15 C14 1_555 1_555
H14 C15 1_555 1_555
C16 C15 1_555 1_555
H15 C16 1_555 1_555
H16 C16 1_555 1_555
C17 C18 1_555 1_555
C18 N9 1_555 1_555
C19 H17 1_555 1_555
C20 C17 1_555 1_555
C21 H18 1_555 1_555
H19 C21 1_555 1_555
C22 H20 1_555 1_555
C23 C21 1_555 1_555
C24 C23 1_555 1_555
H21 C24 1_555 1_555
C25 C24 1_555 1_555
H22 C25 1_555 1_555
C26 C25 1_555 1_555
Cl1 C13 1_555 1_555
Cl2 C26 1_555 1_555
N1 C6 1_555 1_555
N2 C6 1_555 1_555
N3 C5 1_555 1_555
H23 N3 1_555 1_555
N4 C7 1_555 1_555
N5 N4 1_555 1_555
N6 C4 1_555 1_555
N7 C9 1_555 1_555
N8 C19 1_555 1_555
N9 C1 1_555 1_555
N10 C18 1_555 1_555
H24 N10 1_555 1_555
N11 C20 1_555 1_555
N12 N11 1_555 1_555
N13 C17 1_555 1_555
N14 C22 1_555 1_555
C7 N1 1_555 1_555
C8 N4 1_555 1_555
C9 C10 1_555 1_555
C13 N7 1_555 1_555
C14 N2 1_555 1_555
C19 N9 1_555 1_555
C20 N8 1_555 1_555
C21 N11 1_555 1_555
C22 C23 1_555 1_555
C26 N14 1_555 1_555
N5 N6 1_555 1_555
N12 N13 1_555 1_555

#END
