
#######################################################################
#
#                 Cambridge Crystallographic Data Centre
#                                CCDC 
#
#######################################################################
#
# If this CIF has been generated from an entry in the Cambridge 
# Structural Database, then it will include bibliographic, chemical, 
# crystal, experimental, refinement or atomic coordinate data resulting 
# from the CCDC's data processing and validation procedures.
#
#######################################################################

data_RUJNAM
_chemical_formula_moiety         'C12 H15 N3 O1 S1'
_chemical_name_systematic        
4-(Pyrimidin-2-yl)-1-thia-4-azaspiro[4.5]decan-3-one
_symmetry_cell_setting           monoclinic
_symmetry_space_group_name_H-M   'P 21/n'
_symmetry_Int_Tables_number      14
_space_group_name_Hall           '-P 2yn'
loop_
_symmetry_equiv_pos_site_id
_symmetry_equiv_pos_as_xyz
1 x,y,z
2 1/2-x,1/2+y,1/2-z
3 -x,-y,-z
4 1/2+x,1/2-y,1/2+z
_cell_length_a                   6.2466(2)
_cell_length_b                   8.6748(2)
_cell_length_c                   22.0439(6)
_cell_angle_alpha                90
_cell_angle_beta                 95.6980(10)
_cell_angle_gamma                90
_cell_volume                     1188.61
_exptl_crystal_colour            colorless
_exptl_crystal_description       block
_chemical_melting_point          '475-476 K'
_cell_formula_units_Z            4
_exptl_crystal_recrystallization_method ethanol
loop_
_atom_site_label
_atom_site_type_symbol
_atom_site_fract_x
_atom_site_fract_y
_atom_site_fract_z
S1 S 0.30913(6) 0.59301(5) 0.14394(2)
O1 O 0.19102(19) 0.33684(15) 0.00174(6)
N1 N -0.2660(2) 0.24603(17) 0.08348(7)
N2 N 0.0587(2) 0.09881(17) 0.08941(8)
N3 N 0.0732(2) 0.36704(16) 0.09593(6)
C1 C 0.0699(2) 0.47007(19) 0.14937(7)
C2 C 0.1922(2) 0.40748(19) 0.04984(8)
C3 C 0.3225(3) 0.5513(2) 0.06440(8)
H1 H 0.2630 0.6384 0.0390
H2 H 0.4737 0.5349 0.0561
C4 C 0.0987(3) 0.3792(2) 0.20899(8)
H3 H 0.2353 0.3207 0.2110
H4 H -0.0204 0.3041 0.2098
C5 C 0.1015(3) 0.4855(2) 0.26444(8)
H5 H 0.1098 0.4224 0.3020
H6 H 0.2311 0.5517 0.2665
C6 C -0.0989(3) 0.5870(2) 0.26138(8)
H7 H -0.2266 0.5217 0.2655
H8 H -0.0852 0.6607 0.2959
C7 C -0.1310(3) 0.6762(2) 0.20155(8)
H9 H -0.0129 0.7518 0.1999
H10 H -0.2683 0.7338 0.1996
C8 C -0.1346(2) 0.5672(2) 0.14669(8)
H11 H -0.2612 0.4983 0.1461
H12 H -0.1486 0.6284 0.1086
C9 C -0.0534(2) 0.22881(19) 0.08959(8)
C10 C -0.3796(3) 0.1143(2) 0.07570(9)
H13 H -0.5323 0.1194 0.0722
C11 C -0.2817(3) -0.0280(2) 0.07264(8)
H14 H -0.3630 -0.1200 0.0658
C12 C -0.0591(3) -0.0296(2) 0.08007(9)
H15 H 0.0131 -0.1256 0.0785
loop_
_geom_bond_atom_site_label_1
_geom_bond_atom_site_label_2
_geom_bond_site_symmetry_1
_geom_bond_site_symmetry_2
S1 C1 1_555 1_555
O1 C2 1_555 1_555
N1 C9 1_555 1_555
N2 C9 1_555 1_555
N3 C1 1_555 1_555
C1 C4 1_555 1_555
C2 N3 1_555 1_555
C3 S1 1_555 1_555
H1 C3 1_555 1_555
H2 C3 1_555 1_555
C4 H3 1_555 1_555
H4 C4 1_555 1_555
C5 C4 1_555 1_555
H5 C5 1_555 1_555
H6 C5 1_555 1_555
C6 C5 1_555 1_555
H7 C6 1_555 1_555
H8 C6 1_555 1_555
C7 C6 1_555 1_555
H9 C7 1_555 1_555
H10 C7 1_555 1_555
C8 C1 1_555 1_555
H11 C8 1_555 1_555
H12 C8 1_555 1_555
C9 N3 1_555 1_555
C10 N1 1_555 1_555
H13 C10 1_555 1_555
C11 C10 1_555 1_555
H14 C11 1_555 1_555
C12 N2 1_555 1_555
H15 C12 1_555 1_555
C2 C3 1_555 1_555
C7 C8 1_555 1_555
C11 C12 1_555 1_555

#END
