
#######################################################################
#
#                 Cambridge Crystallographic Data Centre
#                                CCDC 
#
#######################################################################
#
# If this CIF has been generated from an entry in the Cambridge 
# Structural Database, then it will include bibliographic, chemical, 
# crystal, experimental, refinement or atomic coordinate data resulting 
# from the CCDC's data processing and validation procedures.
#
#######################################################################

data_RUJPIW
_chemical_formula_moiety         'C23 H22 N2 O6'
_chemical_name_systematic        
'(4RS)-3-Benzyl 5-methyl 2,6-dimethyl-4-(4-nitrophenyl)-1,4-dihydropyridine-3,5-dicarboxylate'
_symmetry_cell_setting           monoclinic
_symmetry_space_group_name_H-M   'P 21/n'
_symmetry_Int_Tables_number      14
_space_group_name_Hall           '-P 2yn'
loop_
_symmetry_equiv_pos_site_id
_symmetry_equiv_pos_as_xyz
1 x,y,z
2 1/2-x,1/2+y,1/2-z
3 -x,-y,-z
4 1/2+x,1/2-y,1/2+z
_cell_length_a                   9.6527(19)
_cell_length_b                   11.043(2)
_cell_length_c                   19.883(4)
_cell_angle_alpha                90
_cell_angle_beta                 100.23(3)
_cell_angle_gamma                90
_cell_volume                     2085.73
_exptl_crystal_colour            yellow
_exptl_crystal_description       block
_cell_formula_units_Z            4
_exptl_crystal_recrystallization_method dichloromethane/methanol
loop_
_atom_site_label
_atom_site_type_symbol
_atom_site_fract_x
_atom_site_fract_y
_atom_site_fract_z
O1 O 0.89299(15) 0.58542(14) 0.20521(9)
O2 O 0.78376(14) 0.54481(13) 0.09912(8)
O3 O 0.2026(3) 0.23247(18) 0.15616(13)
O4 O 0.14892(19) 0.35571(16) 0.23061(10)
O5 O 0.38588(17) 0.74335(14) -0.02349(8)
O6 O 0.31955(14) 0.92631(12) 0.00562(7)
N1 N 0.61176(17) 0.88992(16) 0.19025(9)
N2 N 0.21172(19) 0.33054(17) 0.18454(11)
C1 C 0.8265(2) 0.8162(2) 0.25856(12)
H1 H 0.8042 0.7733 0.2973
H2 H 0.8365 0.9009 0.2691
H3 H 0.9130 0.7857 0.2478
C2 C 0.70961(19) 0.79849(18) 0.19804(10)
C3 C 0.69608(18) 0.70649(16) 0.15252(9)
C4 C 0.56533(18) 0.69660(15) 0.09720(9)
H4 H 0.5945 0.6705 0.0547
C5 C 0.49105(18) 0.81767(15) 0.08450(9)
C6 C 0.51034(19) 0.90593(16) 0.13245(10)
C7 C 0.4354(2) 1.02481(18) 0.13165(12)
H5 H 0.4610 1.0756 0.0966
H6 H 0.4616 1.0637 0.1752
H7 H 0.3356 1.0114 0.1226
C8 C 0.8009(2) 0.60980(17) 0.15669(11)
C9 C 0.8818(3) 0.4482(2) 0.09446(17)
H8 H 0.9751 0.4808 0.0986
H9 H 0.8566 0.4083 0.0511
H10 H 0.8790 0.3910 0.1306
C10 C 0.46877(17) 0.59917(15) 0.11870(9)
C11 C 0.4607(2) 0.48421(17) 0.09037(10)
H11 H 0.5129 0.4664 0.0565
C12 C 0.3770(2) 0.39576(17) 0.11132(11)
H12 H 0.3721 0.3189 0.0919
C13 C 0.30103(19) 0.42372(17) 0.16151(10)
C14 C 0.3074(2) 0.53621(18) 0.19149(12)
H13 H 0.2558 0.5530 0.2257
C15 C 0.3917(2) 0.62377(17) 0.16985(11)
H14 H 0.3969 0.7002 0.1898
C16 C 0.3957(2) 0.82418(16) 0.01799(10)
C17 C 0.2198(2) 0.92855(19) -0.05783(11)
H15 H 0.1611 0.8567 -0.0612
H16 H 0.2699 0.9284 -0.0960
C18 C 0.1296(2) 1.03911(19) -0.06098(11)
C19 C 0.0127(2) 1.0456(2) -0.11286(14)
H17 H -0.0074 0.9821 -0.1438
C20 C -0.0742(3) 1.1467(3) -0.11858(17)
H18 H -0.1521 1.1502 -0.1536
C21 C -0.0473(2) 1.2403(2) -0.07396(15)
H19 H -0.1062 1.3076 -0.0783
C22 C 0.0669(3) 1.2349(2) -0.02266(14)
H20 H 0.0855 1.2983 0.0084
C23 C 0.1556(2) 1.1348(2) -0.01659(12)
H21 H 0.2339 1.1327 0.0182
H22 H 0.622(2) 0.952(2) 0.2186(12)
loop_
_geom_bond_atom_site_label_1
_geom_bond_atom_site_label_2
_geom_bond_site_symmetry_1
_geom_bond_site_symmetry_2
O1 C8 1_555 1_555
O2 C8 1_555 1_555
O3 N2 1_555 1_555
O4 N2 1_555 1_555
O5 C16 1_555 1_555
O6 C16 1_555 1_555
N1 C2 1_555 1_555
N2 C13 1_555 1_555
C1 H1 1_555 1_555
H2 C1 1_555 1_555
H3 C1 1_555 1_555
C2 C1 1_555 1_555
C3 C2 1_555 1_555
C4 C3 1_555 1_555
H4 C4 1_555 1_555
C5 C4 1_555 1_555
C6 N1 1_555 1_555
C7 C6 1_555 1_555
H5 C7 1_555 1_555
H6 C7 1_555 1_555
H7 C7 1_555 1_555
C8 C3 1_555 1_555
C9 O2 1_555 1_555
H8 C9 1_555 1_555
H9 C9 1_555 1_555
H10 C9 1_555 1_555
C10 C4 1_555 1_555
C11 C10 1_555 1_555
H11 C11 1_555 1_555
C12 C11 1_555 1_555
H12 C12 1_555 1_555
C13 C12 1_555 1_555
C14 C13 1_555 1_555
H13 C14 1_555 1_555
C15 C10 1_555 1_555
H14 C15 1_555 1_555
C16 C5 1_555 1_555
C17 O6 1_555 1_555
H15 C17 1_555 1_555
H16 C17 1_555 1_555
C18 C17 1_555 1_555
C19 C18 1_555 1_555
H17 C19 1_555 1_555
C20 C19 1_555 1_555
H18 C20 1_555 1_555
C21 C20 1_555 1_555
H19 C21 1_555 1_555
C22 C21 1_555 1_555
H20 C22 1_555 1_555
C23 C18 1_555 1_555
H21 C23 1_555 1_555
H22 N1 1_555 1_555
C5 C6 1_555 1_555
C14 C15 1_555 1_555
C22 C23 1_555 1_555

#END
