
#######################################################################
#
#                 Cambridge Crystallographic Data Centre
#                                CCDC 
#
#######################################################################
#
# If this CIF has been generated from an entry in the Cambridge 
# Structural Database, then it will include bibliographic, chemical, 
# crystal, experimental, refinement or atomic coordinate data resulting 
# from the CCDC's data processing and validation procedures.
#
#######################################################################

data_RUJQAP
_chemical_formula_moiety         'C14 H15 N1 O1 S1'
_chemical_name_systematic        N-(2,6-Dimethylphenyl)-2-(2-thienyl)acetamide
_symmetry_cell_setting           triclinic
_symmetry_space_group_name_H-M   'P -1'
_symmetry_Int_Tables_number      2
_space_group_name_Hall           '-P 1'
loop_
_symmetry_equiv_pos_site_id
_symmetry_equiv_pos_as_xyz
1 x,y,z
2 -x,-y,-z
_cell_length_a                   4.7489(2)
_cell_length_b                   11.7309(5)
_cell_length_c                   11.8117(4)
_cell_angle_alpha                100.981(2)
_cell_angle_beta                 95.427(2)
_cell_angle_gamma                101.104(2)
_cell_volume                     627.963
_exptl_crystal_colour            'pale brown'
_exptl_crystal_description       block
_chemical_melting_point          '405-406 K'
_cell_formula_units_Z            2
_exptl_crystal_recrystallization_method ethanol
loop_
_atom_site_label
_atom_site_type_symbol
_atom_site_fract_x
_atom_site_fract_y
_atom_site_fract_z
O1 O 0.5541(2) 0.54877(11) 0.35576(11)
N1 N 0.1431(3) 0.61274(11) 0.31337(12)
H1 H -0.0473 0.5949 0.3056
C1 C 0.0819(3) 0.31943(14) 0.26257(15)
S1 S 0.2856(3) 0.21398(11) 0.27132(12)
C2 C 0.1372(5) 0.14166(18) 0.13388(18)
H2 H 0.1810 0.0680 0.1000
C3 C -0.0428(5) 0.19078(19) 0.0743(2)
H3 H -0.1283 0.1653 -0.0048
C4 C -0.0767(15) 0.2938(6) 0.1609(6)
H4 H -0.2108 0.3405 0.1432
C5 C 0.1040(3) 0.42001(14) 0.36525(14)
H5 H 0.1911 0.3995 0.4362
H6 H -0.0922 0.4326 0.3774
C6 C 0.2889(3) 0.53354(14) 0.34521(13)
C7 C 0.2832(3) 0.72479(14) 0.29151(14)
C8 C 0.2477(3) 0.82854(14) 0.36467(14)
C9 C 0.3851(4) 0.93774(15) 0.34462(16)
H7 H 0.3609 1.0093 0.3922
C10 C 0.5560(4) 0.94333(16) 0.25656(17)
H8 H 0.6530 1.0183 0.2453
C11 C 0.5854(4) 0.83976(17) 0.18487(16)
H9 H 0.7023 0.8446 0.1243
C12 C 0.4471(4) 0.72805(16) 0.19947(14)
C13 C 0.0684(4) 0.82262(15) 0.46287(15)
H10 H -0.1323 0.7830 0.4311
H11 H 0.0740 0.9034 0.5059
H12 H 0.1469 0.7776 0.5155
C14 C 0.4706(4) 0.61673(17) 0.11603(16)
H13 H 0.5533 0.6381 0.0481
H14 H 0.2776 0.5652 0.0909
H15 H 0.5962 0.5745 0.1549
C15? C 0.0819(3) 0.31943(14) 0.26257(15)
C16? C -0.0428(5) 0.19078(19) 0.0743(2)
C17? C 0.1372(5) 0.14166(18) 0.13388(18)
C18? C 0.1802(19) 0.2208(7) 0.2491(7)
H16? H -0.1318 0.1500 -0.0018
H17? H 0.2157 0.0741 0.1085
H18? H 0.2787 0.2009 0.3140
S2? S -0.1147(5) 0.32153(18) 0.13045(17)
loop_
_geom_bond_atom_site_label_1
_geom_bond_atom_site_label_2
_geom_bond_site_symmetry_1
_geom_bond_site_symmetry_2
O1 C6 1_555 1_555
N1 H1 1_555 1_555
C1 S1 1_555 1_555
S1 C2 1_555 1_555
C2 H2 1_555 1_555
C3 C2 1_555 1_555
H3 C3 1_555 1_555
C4 C1 1_555 1_555
H4 C4 1_555 1_555
C5 C1 1_555 1_555
H5 C5 1_555 1_555
H6 C5 1_555 1_555
C6 N1 1_555 1_555
C7 N1 1_555 1_555
C8 C7 1_555 1_555
C9 C8 1_555 1_555
H7 C9 1_555 1_555
C10 C9 1_555 1_555
H8 C10 1_555 1_555
C11 C10 1_555 1_555
H9 C11 1_555 1_555
C12 C7 1_555 1_555
C13 C8 1_555 1_555
H10 C13 1_555 1_555
H11 C13 1_555 1_555
H12 C13 1_555 1_555
C14 C12 1_555 1_555
H13 C14 1_555 1_555
H14 C14 1_555 1_555
H15 C14 1_555 1_555
C3 C4 1_555 1_555
C5 C6 1_555 1_555
C11 C12 1_555 1_555

#END
