
#######################################################################
#
#                 Cambridge Crystallographic Data Centre
#                                CCDC 
#
#######################################################################
#
# If this CIF has been generated from an entry in the Cambridge 
# Structural Database, then it will include bibliographic, chemical, 
# crystal, experimental, refinement or atomic coordinate data resulting 
# from the CCDC's data processing and validation procedures.
#
#######################################################################

data_RUJRUK
_chemical_formula_moiety         'C20 H18 N4,C2 H4 O2'
_chemical_name_systematic        
'2-Methyl-2,4-bis(4-pyridyl)-2,3-dihydro-1H-1,5-benzodiazepine acetic acid solvate'
_symmetry_cell_setting           triclinic
_symmetry_space_group_name_H-M   'P -1'
_symmetry_Int_Tables_number      2
_space_group_name_Hall           '-P 1'
loop_
_symmetry_equiv_pos_site_id
_symmetry_equiv_pos_as_xyz
1 x,y,z
2 -x,-y,-z
_cell_length_a                   8.925(6)
_cell_length_b                   10.172(8)
_cell_length_c                   12.283(9)
_cell_angle_alpha                68.56(3)
_cell_angle_beta                 75.41(3)
_cell_angle_gamma                88.52(3)
_cell_volume                     1001.76
_exptl_crystal_colour            colorless
_exptl_crystal_description       block
_cell_formula_units_Z            2
loop_
_atom_site_label
_atom_site_type_symbol
_atom_site_fract_x
_atom_site_fract_y
_atom_site_fract_z
C1 C 0.2037(3) 0.2500(2) 1.0826(2)
C2 C 0.1293(3) 0.2017(3) 1.2065(3)
H1 H 0.0990 0.2679 1.2422
C3 C 0.0993(3) 0.0601(3) 1.2775(3)
H2 H 0.0519 0.0310 1.3600
C4 C 0.1407(3) -0.0376(3) 1.2242(3)
H3 H 0.1206 -0.1338 1.2707
C5 C 0.2111(3) 0.0060(2) 1.1037(3)
H4 H 0.2379 -0.0623 1.0698
C6 C 0.2455(3) 0.1504(2) 1.0273(2)
C7 C 0.3831(3) 0.3117(2) 0.8120(2)
C8 C 0.5137(3) 0.2748(3) 0.7236(3)
H5 H 0.5878 0.2247 0.7652
H6 H 0.5639 0.3603 0.6590
H7 H 0.4717 0.2163 0.6907
C9 C 0.2688(3) 0.3983(2) 0.7451(2)
C10 C 0.1148(4) 0.3542(3) 0.7753(3)
H8 H 0.0750 0.2681 0.8374
C11 C 0.0187(4) 0.4432(4) 0.7092(4)
H9 H -0.0858 0.4136 0.7294
C12 C 0.2161(5) 0.6063(4) 0.5942(3)
H10 H 0.2526 0.6934 0.5325
C13 C 0.3180(4) 0.5278(3) 0.6521(3)
H11 H 0.4216 0.5614 0.6290
C14 C 0.4524(3) 0.4008(2) 0.8686(2)
H12 H 0.5078 0.3404 0.9244
H13 H 0.5263 0.4741 0.8050
C15 C 0.3307(3) 0.4680(2) 0.9343(2)
C16 C 0.3302(3) 0.6249(2) 0.8930(2)
C17 C 0.4648(3) 0.7133(2) 0.8320(2)
H14 H 0.5584 0.6766 0.8080
C18 C 0.4577(3) 0.8567(2) 0.8072(3)
H15 H 0.5499 0.9139 0.7690
C19 C 0.1991(3) 0.8327(3) 0.8883(3)
H16 H 0.1058 0.8733 0.9053
C20 C 0.1949(3) 0.6889(3) 0.9202(3)
H17 H 0.1013 0.6344 0.9601
N1 N 0.2212(2) 0.39891(19) 1.02797(19)
N2 N 0.3101(3) 0.1793(2) 0.9066(2)
H21 H 0.3069 0.1093 0.8836
N3 N 0.0682(4) 0.5654(3) 0.6210(3)
N4 N 0.3286(3) 0.9185(2) 0.8342(2)
C21 C 0.6804(5) 0.8687(5) 0.4824(4)
H18 H 0.5708 0.8432 0.5084
H19 H 0.7133 0.9067 0.3955
H20 H 0.7025 0.9387 0.5126
C22 C 0.7639(4) 0.7424(4) 0.5294(3)
O1 O 0.7070(3) 0.6287(3) 0.6004(3)
O2 O 0.9124(3) 0.7674(3) 0.5022(3)
H22 H 0.9495 0.7015 0.5469
loop_
_geom_bond_atom_site_label_1
_geom_bond_atom_site_label_2
_geom_bond_site_symmetry_1
_geom_bond_site_symmetry_2
C1 C2 1_555 1_555
C2 H1 1_555 1_555
C3 C2 1_555 1_555
H2 C3 1_555 1_555
C4 C3 1_555 1_555
H3 C4 1_555 1_555
C5 C4 1_555 1_555
H4 C5 1_555 1_555
C6 C1 1_555 1_555
C7 C8 1_555 1_555
C8 H5 1_555 1_555
H6 C8 1_555 1_555
H7 C8 1_555 1_555
C9 C7 1_555 1_555
C10 C9 1_555 1_555
H8 C10 1_555 1_555
C11 C10 1_555 1_555
H9 C11 1_555 1_555
C12 H10 1_555 1_555
C13 C9 1_555 1_555
H11 C13 1_555 1_555
C14 C7 1_555 1_555
H12 C14 1_555 1_555
H13 C14 1_555 1_555
C15 C14 1_555 1_555
C16 C15 1_555 1_555
C17 C16 1_555 1_555
H14 C17 1_555 1_555
C18 C17 1_555 1_555
H15 C18 1_555 1_555
C19 H16 1_555 1_555
C20 C16 1_555 1_555
H17 C20 1_555 1_555
C21 H18 1_555 1_555
H19 C21 1_555 1_555
H20 C21 1_555 1_555
C22 C21 1_555 1_555
N1 C1 1_555 1_555
N2 C6 1_555 1_555
H21 N2 1_555 1_555
N3 C11 1_555 1_555
N4 C18 1_555 1_555
O1 C22 1_555 1_555
O2 C22 1_555 1_555
H22 O2 1_555 1_555
C5 C6 1_555 1_555
C7 N2 1_555 1_555
C12 C13 1_555 1_555
C12 N3 1_555 1_555
C15 N1 1_555 1_555
C19 C20 1_555 1_555
C19 N4 1_555 1_555

#END
