
#######################################################################
#
#                 Cambridge Crystallographic Data Centre
#                                CCDC 
#
#######################################################################
#
# If this CIF has been generated from an entry in the Cambridge 
# Structural Database, then it will include bibliographic, chemical, 
# crystal, experimental, refinement or atomic coordinate data resulting 
# from the CCDC's data processing and validation procedures.
#
#######################################################################

data_RUJSAS
_chemical_formula_moiety         'C30 H22 N2 O3'
_chemical_name_systematic        
11-(3-methylpyridin-2-yl)-1,8-diphenyl-14-oxa-11-azatetracyclo[6.5.1.0^2,7^.0^9,13^]tetradeca-2,4,6-triene-10,12-dione
_symmetry_cell_setting           triclinic
_symmetry_space_group_name_H-M   'P -1'
_symmetry_Int_Tables_number      2
_space_group_name_Hall           '-P 1'
loop_
_symmetry_equiv_pos_site_id
_symmetry_equiv_pos_as_xyz
1 x,y,z
2 -x,-y,-z
_cell_length_a                   7.9863(6)
_cell_length_b                   8.4518(6)
_cell_length_c                   18.3659(14)
_cell_angle_alpha                96.106(2)
_cell_angle_beta                 93.622(2)
_cell_angle_gamma                112.862(2)
_cell_volume                     1128.4
_exptl_crystal_colour            colorless
_exptl_crystal_description       plate
_cell_formula_units_Z            2
loop_
_atom_site_label
_atom_site_type_symbol
_atom_site_fract_x
_atom_site_fract_y
_atom_site_fract_z
O1 O 0.38433(11) 0.08276(11) 0.12836(4)
O2 O 0.48709(13) 0.52976(12) 0.30921(5)
O3 O 0.77923(12) 0.16507(12) 0.33031(5)
N1 N 0.64567(14) 0.36242(13) 0.33556(5)
N2 N 0.83718(15) 0.58673(15) 0.42568(6)
C1 C 0.33026(16) 0.19452(15) 0.17908(6)
C2 C 0.52605(16) 0.32959(15) 0.21194(6)
H1 H 0.5789 0.4149 0.1772
C3 C 0.54516(16) 0.42239(15) 0.28916(6)
C4 C 0.69638(15) 0.23642(15) 0.29965(6)
C5 C 0.63269(16) 0.21319(15) 0.21794(6)
H2 H 0.7398 0.2509 0.1889
C6 C 0.48533(16) 0.02896(15) 0.18195(6)
C7 C 0.34536(15) -0.03386(15) 0.23614(6)
C8 C 0.24982(16) 0.07362(15) 0.23513(6)
C9 C 0.10846(16) 0.05408(16) 0.27769(7)
H3 H 0.0467 0.1302 0.2782
C10 C 0.05954(16) -0.08217(17) 0.32002(7)
H4 H -0.0395 -0.1011 0.3487
C11 C 0.15383(17) -0.19012(16) 0.32062(7)
H5 H 0.1177 -0.2820 0.3496
C12 C 0.30131(16) -0.16573(16) 0.27924(7)
H6 H 0.3683 -0.2370 0.2808
C13 C 0.20304(16) 0.25736(15) 0.13923(6)
C14 C 0.22475(18) 0.42993(17) 0.14954(7)
H7 H 0.3257 0.5141 0.1813
C15 C 0.09790(19) 0.47921(17) 0.11319(8)
H8 H 0.1120 0.5969 0.1207
C16 C -0.04865(17) 0.35717(17) 0.06617(7)
H9 H -0.1345 0.3913 0.0414
C17 C -0.06978(17) 0.18470(17) 0.05529(7)
H10 H -0.1693 0.1012 0.0227
C18 C 0.05462(16) 0.13499(16) 0.09209(7)
H11 H 0.0389 0.0168 0.0852
C19 C 0.55704(16) -0.09544(15) 0.14531(7)
C20 C 0.50819(17) -0.15810(16) 0.07026(7)
H12 H 0.4247 -0.1261 0.0426
C21 C 0.58143(18) -0.26720(16) 0.03597(7)
H13 H 0.5478 -0.3097 -0.0151
C22 C 0.70349(17) -0.31414(16) 0.07612(8)
H14 H 0.7548 -0.3873 0.0524
C23 C 0.75064(17) -0.25413(16) 0.15105(7)
H15 H 0.8332 -0.2874 0.1787
C24 C 0.67717(16) -0.14542(16) 0.18570(7)
H16 H 0.7090 -0.1052 0.2370
C25 C 0.70048(16) 0.43129(16) 0.41282(7)
C26 C 0.61052(17) 0.33478(17) 0.46577(7)
C27 C 0.67248(19) 0.41137(19) 0.53874(7)
H17 H 0.6163 0.3529 0.5778
C28 C 0.8157(2) 0.5725(2) 0.55425(8)
H18 H 0.8596 0.6254 0.6038
C29 C 0.8938(2) 0.6552(2) 0.49654(8)
H19 H 0.9923 0.7658 0.5076
C30 C 0.4560(2) 0.16041(19) 0.44578(8)
H20 H 0.3666 0.1675 0.4086
H21 H 0.3970 0.1238 0.4898
H22 H 0.5035 0.0759 0.4258
loop_
_geom_bond_atom_site_label_1
_geom_bond_atom_site_label_2
_geom_bond_site_symmetry_1
_geom_bond_site_symmetry_2
O1 C1 1_555 1_555
O2 C3 1_555 1_555
O3 C4 1_555 1_555
N1 C3 1_555 1_555
N2 C25 1_555 1_555
C1 C2 1_555 1_555
C2 H1 1_555 1_555
C3 C2 1_555 1_555
C4 N1 1_555 1_555
C5 C2 1_555 1_555
H2 C5 1_555 1_555
C6 O1 1_555 1_555
C7 C6 1_555 1_555
C8 C1 1_555 1_555
C9 C8 1_555 1_555
H3 C9 1_555 1_555
C10 C9 1_555 1_555
H4 C10 1_555 1_555
C11 C10 1_555 1_555
H5 C11 1_555 1_555
C12 C7 1_555 1_555
H6 C12 1_555 1_555
C13 C1 1_555 1_555
C14 C13 1_555 1_555
H7 C14 1_555 1_555
C15 C14 1_555 1_555
H8 C15 1_555 1_555
C16 C15 1_555 1_555
H9 C16 1_555 1_555
C17 C16 1_555 1_555
H10 C17 1_555 1_555
C18 C13 1_555 1_555
H11 C18 1_555 1_555
C19 C6 1_555 1_555
C20 C19 1_555 1_555
H12 C20 1_555 1_555
C21 C20 1_555 1_555
H13 C21 1_555 1_555
C22 C21 1_555 1_555
H14 C22 1_555 1_555
C23 C22 1_555 1_555
H15 C23 1_555 1_555
C24 C19 1_555 1_555
H16 C24 1_555 1_555
C25 N1 1_555 1_555
C26 C25 1_555 1_555
C27 C26 1_555 1_555
H17 C27 1_555 1_555
C28 C27 1_555 1_555
H18 C28 1_555 1_555
C29 N2 1_555 1_555
H19 C29 1_555 1_555
C30 C26 1_555 1_555
H20 C30 1_555 1_555
H21 C30 1_555 1_555
H22 C30 1_555 1_555
C4 C5 1_555 1_555
C5 C6 1_555 1_555
C7 C8 1_555 1_555
C11 C12 1_555 1_555
C17 C18 1_555 1_555
C23 C24 1_555 1_555
C28 C29 1_555 1_555

#END
