
#######################################################################
#
#                 Cambridge Crystallographic Data Centre
#                                CCDC 
#
#######################################################################
#
# If this CIF has been generated from an entry in the Cambridge 
# Structural Database, then it will include bibliographic, chemical, 
# crystal, experimental, refinement or atomic coordinate data resulting 
# from the CCDC's data processing and validation procedures.
#
#######################################################################

data_RUJTEX
_chemical_formula_moiety         'C16 H13 N1 O3'
_chemical_name_systematic        
4-(3-hydroxyphenyl)-3-methoxyquinolin-2(1H)-one
_symmetry_cell_setting           monoclinic
_symmetry_space_group_name_H-M   'P 21/c'
_symmetry_Int_Tables_number      14
_space_group_name_Hall           '-P 2ybc'
loop_
_symmetry_equiv_pos_site_id
_symmetry_equiv_pos_as_xyz
1 x,y,z
2 -x,1/2+y,1/2-z
3 -x,-y,-z
4 x,1/2-y,1/2+z
_cell_length_a                   12.0134(10)
_cell_length_b                   7.8855(8)
_cell_length_c                   13.9221(11)
_cell_angle_alpha                90
_cell_angle_beta                 98.568(3)
_cell_angle_gamma                90
_cell_volume                     1304.14
_cell_formula_units_Z            4
loop_
_atom_site_label
_atom_site_type_symbol
_atom_site_fract_x
_atom_site_fract_y
_atom_site_fract_z
N1 N 0.4729(2) 0.2015(3) 0.55760(16)
H1 H 0.5271 0.1382 0.5449
O1 O 0.34776(17) 0.0033(3) 0.48975(14)
O2 O 0.17079(17) 0.1829(3) 0.54474(15)
O3 O 0.14633(18) 0.6354(3) 0.88978(14)
H2 H 0.2016 0.5857 0.9183
C1 C 0.3664(2) 0.1412(4) 0.53546(19)
C2 C 0.2784(2) 0.2437(4) 0.56683(19)
C3 C 0.2998(2) 0.3953(4) 0.61326(19)
C4 C 0.4437(3) 0.6215(4) 0.6650(2)
H3 H 0.3882 0.6930 0.6821
C5 C 0.5532(3) 0.6750(5) 0.6771(2)
H4 H 0.5712 0.7822 0.7026
C6 C 0.6377(3) 0.5721(5) 0.6520(2)
H5 H 0.7118 0.6102 0.6612
C7 C 0.6122(3) 0.4134(5) 0.6133(2)
H6 H 0.6687 0.3436 0.5965
C8 C 0.5000(3) 0.3592(4) 0.59956(19)
C9 C 0.4139(2) 0.4593(4) 0.62705(19)
C10 C 0.2102(2) 0.4930(4) 0.6524(2)
C11 C 0.2186(2) 0.5161(4) 0.7525(2)
H7 H 0.2785 0.4678 0.7933
C12 C 0.1395(2) 0.6092(4) 0.7919(2)
C13 C 0.0507(3) 0.6843(4) 0.7316(2)
H8 H -0.0013 0.7512 0.7576
C14 C 0.0406(3) 0.6584(4) 0.6331(2)
H9 H -0.0203 0.7052 0.5928
C15 C 0.1194(3) 0.5639(4) 0.5925(2)
H10 H 0.1113 0.5482 0.5256
C16 C 0.1438(3) 0.0458(5) 0.6050(2)
H11 H 0.1951 -0.0464 0.6010
H12 H 0.0683 0.0083 0.5833
H13 H 0.1501 0.0838 0.6711
loop_
_geom_bond_atom_site_label_1
_geom_bond_atom_site_label_2
_geom_bond_site_symmetry_1
_geom_bond_site_symmetry_2
N1 H1 1_555 1_555
O1 C1 1_555 1_555
O2 C2 1_555 1_555
O3 H2 1_555 1_555
C1 N1 1_555 1_555
C2 C1 1_555 1_555
C3 C2 1_555 1_555
C4 H3 1_555 1_555
C5 C4 1_555 1_555
H4 C5 1_555 1_555
C6 C5 1_555 1_555
H5 C6 1_555 1_555
C7 C6 1_555 1_555
H6 C7 1_555 1_555
C8 N1 1_555 1_555
C9 C3 1_555 1_555
C10 C3 1_555 1_555
C11 C10 1_555 1_555
H7 C11 1_555 1_555
C12 O3 1_555 1_555
C13 C12 1_555 1_555
H8 C13 1_555 1_555
C14 C13 1_555 1_555
H9 C14 1_555 1_555
C15 C10 1_555 1_555
H10 C15 1_555 1_555
C16 O2 1_555 1_555
H11 C16 1_555 1_555
H12 C16 1_555 1_555
H13 C16 1_555 1_555
C4 C9 1_555 1_555
C7 C8 1_555 1_555
C8 C9 1_555 1_555
C11 C12 1_555 1_555
C14 C15 1_555 1_555

#END
