
#######################################################################
#
#                 Cambridge Crystallographic Data Centre
#                                CCDC 
#
#######################################################################
#
# If this CIF has been generated from an entry in the Cambridge 
# Structural Database, then it will include bibliographic, chemical, 
# crystal, experimental, refinement or atomic coordinate data resulting 
# from the CCDC's data processing and validation procedures.
#
#######################################################################

data_RUJTIB
_chemical_formula_moiety         'C22 H24 O6'
_chemical_name_systematic        
'1-(hydroxymethyl)-7,8-dimethoxy-3-methyl-2-((3-methylbut-2-en-1-yl)oxy)-9H-xanthen-9-one unknown solvate'
_chemical_properties_biological  'tested binding affinity for 5-HT/D receptors'
_symmetry_cell_setting           monoclinic
_symmetry_space_group_name_H-M   'P 21/c'
_symmetry_Int_Tables_number      14
_space_group_name_Hall           '-P 2ybc'
loop_
_symmetry_equiv_pos_site_id
_symmetry_equiv_pos_as_xyz
1 x,y,z
2 -x,1/2+y,1/2-z
3 -x,-y,-z
4 x,1/2-y,1/2+z
_cell_length_a                   4.1217(2)
_cell_length_b                   39.075(2)
_cell_length_c                   14.1681(8)
_cell_angle_alpha                90
_cell_angle_beta                 94.2450(10)
_cell_angle_gamma                90
_cell_volume                     2275.59
_cell_formula_units_Z            4
loop_
_atom_site_label
_atom_site_type_symbol
_atom_site_fract_x
_atom_site_fract_y
_atom_site_fract_z
O1 O 0.3218(5) 0.70692(5) 0.30763(14)
O2 O 0.7939(7) 0.72096(6) 0.56757(17)
O3 O 0.8295(5) 0.59146(5) 0.48322(16)
O4 O 0.8275(5) 0.78960(5) 0.52793(15)
O5 O 0.5820(6) 0.83960(6) 0.41858(17)
O6 O 0.8089(5) 0.65859(7) 0.65694(15)
H1 H 0.9107 0.6505 0.7037
C1 C 0.3875(8) 0.64817(8) 0.3150(2)
H2 H 0.2596 0.6470 0.2582
C2 C 0.5069(8) 0.61845(8) 0.3579(2)
C3 C 0.7007(7) 0.62143(8) 0.4436(2)
C4 C 0.7705(6) 0.65285(7) 0.4864(2)
C5 C 0.6356(7) 0.78068(7) 0.4487(2)
C6 C 0.5111(7) 0.80678(8) 0.3891(2)
C7 C 0.3264(8) 0.79876(8) 0.3062(2)
H3 H 0.2405 0.8163 0.2677
C8 C 0.2684(7) 0.76560(8) 0.2801(2)
H4 H 0.1474 0.7605 0.2238
C9 C 0.4571(7) 0.67945(7) 0.3561(2)
C10 C 0.6404(6) 0.68311(7) 0.4420(2)
C11 C 0.5745(6) 0.74626(7) 0.4241(2)
C12 C 0.3925(7) 0.73950(8) 0.3387(2)
C13 C 0.6849(7) 0.71723(8) 0.4847(2)
C14 C 0.4318(10) 0.58410(9) 0.3139(3)
H5 H 0.3352 0.5696 0.3589
H6 H 0.6291 0.5738 0.2957
H7 H 0.2829 0.5869 0.2591
C15 C 0.6361(8) 0.57740(9) 0.5550(3)
H8 H 0.4127 0.5745 0.5297
H9 H 0.6381 0.5928 0.6087
C16 C 0.7774(8) 0.54366(9) 0.5853(3)
H10 H 0.7524 0.5259 0.5416
C17 C 0.9328(8) 0.53622(9) 0.6667(3)
C18 C 1.0079(11) 0.56141(12) 0.7439(3)
H11 H 0.9397 0.5838 0.7228
H12 H 1.2379 0.5615 0.7607
H13 H 0.8946 0.5552 0.7982
C19 C 1.0541(10) 0.50062(10) 0.6890(4)
H14 H 1.0272 0.4867 0.6331
H15 H 0.9323 0.4909 0.7376
H16 H 1.2803 0.5015 0.7106
C20 C 0.9868(7) 0.65374(8) 0.5768(2)
H17 H 1.1066 0.6324 0.5835
H18 H 1.1433 0.6722 0.5734
C21 C 0.6542(10) 0.79606(10) 0.6092(3)
H19 H 0.5007 0.8142 0.5957
H20 H 0.8043 0.8026 0.6610
H21 H 0.5405 0.7757 0.6256
C22 C 0.4391(11) 0.86636(9) 0.3617(3)
H22 H 0.5117 0.8648 0.2990
H23 H 0.5024 0.8881 0.3889
H24 H 0.2064 0.8643 0.3588
loop_
_geom_bond_atom_site_label_1
_geom_bond_atom_site_label_2
_geom_bond_site_symmetry_1
_geom_bond_site_symmetry_2
O1 C9 1_555 1_555
O2 C13 1_555 1_555
O3 C3 1_555 1_555
O4 C5 1_555 1_555
O5 C6 1_555 1_555
O6 H1 1_555 1_555
C1 H2 1_555 1_555
C2 C1 1_555 1_555
C3 C2 1_555 1_555
C4 C3 1_555 1_555
C5 C6 1_555 1_555
C6 C7 1_555 1_555
C7 H3 1_555 1_555
C8 C7 1_555 1_555
H4 C8 1_555 1_555
C9 C1 1_555 1_555
C10 C4 1_555 1_555
C11 C5 1_555 1_555
C12 O1 1_555 1_555
C13 C10 1_555 1_555
C14 C2 1_555 1_555
H5 C14 1_555 1_555
H6 C14 1_555 1_555
H7 C14 1_555 1_555
C15 O3 1_555 1_555
H8 C15 1_555 1_555
H9 C15 1_555 1_555
C16 C15 1_555 1_555
H10 C16 1_555 1_555
C17 C16 1_555 1_555
C18 C17 1_555 1_555
H11 C18 1_555 1_555
H12 C18 1_555 1_555
H13 C18 1_555 1_555
C19 C17 1_555 1_555
H14 C19 1_555 1_555
H15 C19 1_555 1_555
H16 C19 1_555 1_555
C20 O6 1_555 1_555
H17 C20 1_555 1_555
H18 C20 1_555 1_555
C21 O4 1_555 1_555
H19 C21 1_555 1_555
H20 C21 1_555 1_555
H21 C21 1_555 1_555
C22 O5 1_555 1_555
H22 C22 1_555 1_555
H23 C22 1_555 1_555
H24 C22 1_555 1_555
C4 C20 1_555 1_555
C8 C12 1_555 1_555
C9 C10 1_555 1_555
C11 C12 1_555 1_555
C11 C13 1_555 1_555

#END
