
#######################################################################
#
#                 Cambridge Crystallographic Data Centre
#                                CCDC 
#
#######################################################################
#
# If this CIF has been generated from an entry in the Cambridge 
# Structural Database, then it will include bibliographic, chemical, 
# crystal, experimental, refinement or atomic coordinate data resulting 
# from the CCDC's data processing and validation procedures.
#
#######################################################################

data_RUJVID
_chemical_formula_moiety         'C36 H35 N3 O7'
_chemical_name_systematic        
'dimethyl 5-cyano-5-(2,2-dimethylpropanoyl)-1-(4-methylphenyl)-4-(4-nitrophenyl)-6-(2-phenylvinyl)-1,4,5,6-tetrahydropyridine-2,3-dicarboxylate'
_symmetry_cell_setting           monoclinic
_symmetry_space_group_name_H-M   'P 21/c'
_symmetry_Int_Tables_number      14
_space_group_name_Hall           '-P 2ybc'
loop_
_symmetry_equiv_pos_site_id
_symmetry_equiv_pos_as_xyz
1 x,y,z
2 -x,1/2+y,1/2-z
3 -x,-y,-z
4 x,1/2-y,1/2+z
_cell_length_a                   11.8752(11)
_cell_length_b                   12.6226(11)
_cell_length_c                   22.380(2)
_cell_angle_alpha                90
_cell_angle_beta                 104.628(3)
_cell_angle_gamma                90
_cell_volume                     3245.93
_exptl_crystal_colour            colorless
_exptl_crystal_description       block
_cell_formula_units_Z            4
loop_
_atom_site_label
_atom_site_type_symbol
_atom_site_fract_x
_atom_site_fract_y
_atom_site_fract_z
C1 C 0.57033(19) 0.07469(16) 0.44772(12)
H1 H 0.5132 0.0467 0.4152
C2 C 0.6642(2) 0.01340(18) 0.47651(14)
H2 H 0.6699 -0.0558 0.4633
C3 C 0.7492(2) 0.0531(2) 0.52428(12)
H3 H 0.8132 0.0118 0.5430
C4 C 0.7394(2) 0.1533(2) 0.54415(11)
H4 H 0.7963 0.1803 0.5771
C5 C 0.64581(19) 0.21553(19) 0.51598(10)
H5 H 0.6400 0.2840 0.5303
C6 C 0.56059(16) 0.17770(15) 0.46687(9)
C7 C 0.46407(16) 0.24774(14) 0.43636(9)
H6 H 0.4476 0.3054 0.4586
C8 C 0.39983(14) 0.23431(14) 0.38006(9)
H7 H 0.4163 0.1749 0.3591
C9 C 0.30307(13) 0.30356(12) 0.34557(8)
H8 H 0.3249 0.3303 0.3090
C10 C 0.31573(14) 0.49917(12) 0.36628(8)
C11 C 0.43213(16) 0.52482(15) 0.37803(10)
H9 H 0.4887 0.4743 0.3942
C12 C 0.46398(19) 0.62585(16) 0.36568(12)
H10 H 0.5427 0.6425 0.3740
C13 C 0.3834(2) 0.70307(15) 0.34140(10)
C14 C 0.4205(3) 0.81384(18) 0.32946(15)
H11 H 0.4968 0.8276 0.3554
H12 H 0.3664 0.8641 0.3385
H13 H 0.4219 0.8203 0.2869
C15 C 0.2684(2) 0.67485(15) 0.32932(10)
H14 H 0.2119 0.7247 0.3121
C16 C 0.23398(16) 0.57438(14) 0.34189(9)
H15 H 0.1552 0.5579 0.3338
C17 C 0.22451(13) 0.37820(12) 0.42596(7)
C18 C 0.23826(15) 0.46499(13) 0.47357(8)
C19 C 0.1358(2) 0.58995(18) 0.51737(12)
H16 H 0.1514 0.5543 0.5565
H17 H 0.0607 0.6230 0.5092
H18 H 0.1943 0.6429 0.5184
C20 C 0.16785(13) 0.28628(12) 0.43072(7)
C21 C 0.14178(15) 0.26224(13) 0.48964(8)
C22 C 0.0718(2) 0.13204(18) 0.54692(10)
H19 H 0.1432 0.1316 0.5788
H20 H 0.0392 0.0620 0.5421
H21 H 0.0178 0.1801 0.5581
C23 C -0.07196(15) 0.25080(14) 0.36130(8)
H22 H -0.0498 0.3197 0.3735
C24 C -0.18866(16) 0.22530(15) 0.34413(9)
H23 H -0.2452 0.2760 0.3447
C25 C -0.21901(16) 0.12260(15) 0.32613(8)
C26 C -0.13795(17) 0.04697(15) 0.32445(9)
H24 H -0.1609 -0.0216 0.3118
C27 C -0.02174(16) 0.07334(13) 0.34166(8)
H25 H 0.0341 0.0223 0.3405
C28 C 0.01270(14) 0.17578(12) 0.36068(7)
C29 C 0.14212(13) 0.20406(12) 0.37979(7)
H26 H 0.1845 0.1396 0.3965
C30 C 0.18655(14) 0.23825(12) 0.32258(7)
C31 C 0.10125(15) 0.30950(13) 0.28326(8)
C32 C 0.21126(14) 0.13513(13) 0.28732(8)
C33 C 0.21051(15) 0.13487(14) 0.21876(8)
C34 C 0.26670(18) 0.23300(15) 0.19873(9)
H27 H 0.2635 0.2280 0.1555
H28 H 0.3464 0.2376 0.2220
H29 H 0.2255 0.2951 0.2061
C35 C 0.2782(2) 0.03679(17) 0.20680(10)
H30 H 0.2772 0.0336 0.1638
H31 H 0.2426 -0.0259 0.2180
H32 H 0.3572 0.0413 0.2311
C36 C 0.08365(19) 0.1239(2) 0.18207(10)
H33 H 0.0418 0.1872 0.1867
H34 H 0.0490 0.0643 0.1972
H35 H 0.0805 0.1134 0.1392
N1 N 0.28048(11) 0.39474(10) 0.38062(6)
N2 N -0.34294(16) 0.09348(19) 0.30698(9)
N3 N 0.03465(15) 0.36630(14) 0.25460(8)
O1 O 0.32803(12) 0.48750(11) 0.50814(7)
O2 O 0.13750(11) 0.51407(9) 0.46932(6)
O3 O 0.16192(15) 0.31832(11) 0.53462(6)
O4 O 0.09447(12) 0.16550(9) 0.48990(5)
O5 O -0.36792(16) 0.00046(16) 0.29574(11)
O6 O -0.41429(14) 0.16373(17) 0.30327(8)
O7 O 0.23219(12) 0.05577(10) 0.31720(6)
loop_
_geom_bond_atom_site_label_1
_geom_bond_atom_site_label_2
_geom_bond_site_symmetry_1
_geom_bond_site_symmetry_2
C1 H1 1_555 1_555
C2 C1 1_555 1_555
H2 C2 1_555 1_555
C3 C2 1_555 1_555
H3 C3 1_555 1_555
C4 C3 1_555 1_555
H4 C4 1_555 1_555
C5 C4 1_555 1_555
H5 C5 1_555 1_555
C6 C1 1_555 1_555
C7 C6 1_555 1_555
H6 C7 1_555 1_555
C8 C7 1_555 1_555
H7 C8 1_555 1_555
C9 C8 1_555 1_555
H8 C9 1_555 1_555
C10 C11 1_555 1_555
C11 H9 1_555 1_555
C12 C11 1_555 1_555
H10 C12 1_555 1_555
C13 C12 1_555 1_555
C14 C13 1_555 1_555
H11 C14 1_555 1_555
H12 C14 1_555 1_555
H13 C14 1_555 1_555
C15 C13 1_555 1_555
H14 C15 1_555 1_555
C16 C10 1_555 1_555
H15 C16 1_555 1_555
C17 C18 1_555 1_555
C18 O1 1_555 1_555
C19 H16 1_555 1_555
H17 C19 1_555 1_555
H18 C19 1_555 1_555
C20 C17 1_555 1_555
C21 C20 1_555 1_555
C22 H19 1_555 1_555
H20 C22 1_555 1_555
H21 C22 1_555 1_555
C23 H22 1_555 1_555
C24 C23 1_555 1_555
H23 C24 1_555 1_555
C25 C24 1_555 1_555
C26 C25 1_555 1_555
H24 C26 1_555 1_555
C27 C26 1_555 1_555
H25 C27 1_555 1_555
C28 C23 1_555 1_555
C29 C20 1_555 1_555
H26 C29 1_555 1_555
C30 C9 1_555 1_555
C31 C30 1_555 1_555
C32 C30 1_555 1_555
C33 C32 1_555 1_555
C34 C33 1_555 1_555
H27 C34 1_555 1_555
H28 C34 1_555 1_555
H29 C34 1_555 1_555
C35 C33 1_555 1_555
H30 C35 1_555 1_555
H31 C35 1_555 1_555
H32 C35 1_555 1_555
C36 C33 1_555 1_555
H33 C36 1_555 1_555
H34 C36 1_555 1_555
H35 C36 1_555 1_555
N1 C9 1_555 1_555
N2 C25 1_555 1_555
N3 C31 1_555 1_555
O2 C18 1_555 1_555
O3 C21 1_555 1_555
O4 C21 1_555 1_555
O5 N2 1_555 1_555
O6 N2 1_555 1_555
O7 C32 1_555 1_555
C5 C6 1_555 1_555
C10 N1 1_555 1_555
C15 C16 1_555 1_555
C17 N1 1_555 1_555
C19 O2 1_555 1_555
C22 O4 1_555 1_555
C27 C28 1_555 1_555
C28 C29 1_555 1_555
C29 C30 1_555 1_555

#END
