
#######################################################################
#
#                 Cambridge Crystallographic Data Centre
#                                CCDC 
#
#######################################################################
#
# If this CIF has been generated from an entry in the Cambridge 
# Structural Database, then it will include bibliographic, chemical, 
# crystal, experimental, refinement or atomic coordinate data resulting 
# from the CCDC's data processing and validation procedures.
#
#######################################################################

data_RUJVOJ
_chemical_formula_moiety         'C31 H27 N3 O3'
_chemical_name_systematic        
'methyl 5,5-dicyano-1-(4-methoxyphenyl)-4-(4-methylphenyl)-6-(2-phenylvinyl)-1,4,5,6-tetrahydropyridine-3-carboxylate'
_symmetry_cell_setting           orthorhombic
_symmetry_space_group_name_H-M   'P n a 21'
_symmetry_Int_Tables_number      33
_space_group_name_Hall           'P 2c -2n'
loop_
_symmetry_equiv_pos_site_id
_symmetry_equiv_pos_as_xyz
1 x,y,z
2 -x,-y,1/2+z
3 1/2+x,1/2-y,z
4 1/2-x,1/2+y,1/2+z
_cell_length_a                   14.7454(17)
_cell_length_b                   12.6704(14)
_cell_length_c                   28.246(3)
_cell_angle_alpha                90
_cell_angle_beta                 90
_cell_angle_gamma                90
_cell_volume                     5277.2
_exptl_crystal_colour            colorless
_exptl_crystal_description       block
_cell_formula_units_Z            8
loop_
_atom_site_label
_atom_site_type_symbol
_atom_site_fract_x
_atom_site_fract_y
_atom_site_fract_z
C1 C 0.24764(15) 0.11324(17) 0.10318(7)
H1 H 0.2948 0.0652 0.1069
C2 C 0.24013(16) 0.16988(19) 0.06174(8)
H2 H 0.2838 0.1612 0.0383
C3 C 0.16911(16) 0.23942(17) 0.05413(8)
C4 C 0.1618(2) 0.3015(2) 0.00830(10)
H3 H 0.1031 0.3340 0.0064
H4 H 0.1698 0.2547 -0.0181
H5 H 0.2078 0.3550 0.0076
C5 C 0.10674(15) 0.25159(16) 0.08987(8)
H6 H 0.0582 0.2974 0.0855
C6 C 0.11446(13) 0.19728(14) 0.13213(7)
H7 H 0.0717 0.2078 0.1559
C7 C 0.18525(12) 0.12731(14) 0.13944(6)
C8 C 0.19442(12) 0.06481(14) 0.18528(7)
H8 H 0.2198 -0.0044 0.1773
C9 C 0.26002(12) 0.11872(14) 0.22191(7)
C10 C 0.34741(14) 0.14621(16) 0.20029(7)
C11 C 0.28074(14) 0.04242(17) 0.26011(8)
C12 C 0.39040(15) 0.4224(2) 0.34005(8)
H9 H 0.4092 0.3523 0.3402
C13 C 0.42752(18) 0.4925(2) 0.37152(9)
H10 H 0.4710 0.4693 0.3930
C14 C 0.4017(2) 0.5954(3) 0.37186(10)
H11 H 0.4267 0.6419 0.3938
C15 C 0.3396(2) 0.6303(2) 0.34019(12)
H12 H 0.3234 0.7012 0.3397
C16 C 0.30025(17) 0.56068(19) 0.30857(9)
H13 H 0.2566 0.5851 0.2875
C17 C 0.32478(13) 0.45528(16) 0.30789(7)
C18 C 0.27897(13) 0.38368(16) 0.27492(7)
H14 H 0.2504 0.4154 0.2492
C19 C 0.27315(13) 0.28061(16) 0.27708(7)
H15 H 0.3064 0.2445 0.2999
C20 C 0.21393(12) 0.21913(15) 0.24353(7)
H16 H 0.1959 0.2659 0.2175
C21 C 0.09037(12) 0.24865(15) 0.30339(7)
C22 C 0.09344(17) 0.21938(18) 0.35034(8)
H17 H 0.1229 0.1575 0.3590
C23 C 0.05342(19) 0.28076(19) 0.38421(8)
H18 H 0.0557 0.2604 0.4158
C24 C 0.00939(15) 0.37326(18) 0.37155(8)
C25 C -0.0705(2) 0.5269(3) 0.39705(12)
H19 H -0.0272 0.5730 0.3824
H20 H -0.0926 0.5588 0.4256
H21 H -0.1202 0.5150 0.3758
C26 C 0.00611(16) 0.4026(2) 0.32505(8)
H22 H -0.0231 0.4646 0.3163
C27 C 0.04641(15) 0.33975(18) 0.29120(7)
H23 H 0.0437 0.3596 0.2595
C28 C 0.08080(13) 0.10437(15) 0.24815(6)
H24 H 0.0249 0.0896 0.2619
C29 C 0.10567(13) 0.04677(14) 0.21011(6)
C30 C 0.04567(13) -0.03216(14) 0.18989(7)
C31 C -0.09383(17) -0.12233(18) 0.19539(10)
H25 H -0.1037 -0.1096 0.1623
H26 H -0.1505 -0.1177 0.2120
H27 H -0.0685 -0.1915 0.1996
N1 N 0.41655(13) 0.16354(17) 0.18368(8)
N2 N 0.29725(15) -0.01670(18) 0.28867(8)
N3 N 0.13130(10) 0.18210(13) 0.26778(6)
O1 O -0.02833(13) 0.42926(15) 0.40793(6)
O2 O 0.06394(10) -0.08131(11) 0.15446(5)
O3 O -0.03194(10) -0.04452(11) 0.21382(5)
C32 C 0.34866(13) 0.19812(14) 0.69041(7)
H28 H 0.3075 0.2100 0.6661
C33 C 0.34067(14) 0.25382(16) 0.73229(8)
H29 H 0.2934 0.3018 0.7359
C34 C 0.40139(16) 0.23951(18) 0.76875(8)
C35 C 0.3929(2) 0.3024(3) 0.81427(9)
H30 H 0.4338 0.2742 0.8375
H31 H 0.3318 0.2978 0.8258
H32 H 0.4078 0.3749 0.8082
C36 C 0.47014(17) 0.16642(19) 0.76271(8)
H33 H 0.5123 0.1562 0.7868
C37 C 0.47719(15) 0.10849(17) 0.72155(7)
H34 H 0.5226 0.0579 0.7187
C38 C 0.41720(13) 0.12493(14) 0.68434(6)
C39 C 0.42668(12) 0.06127(14) 0.63885(6)
H35 H 0.4508 -0.0084 0.6472
C40 C 0.49475(12) 0.11446(15) 0.60284(7)
C41 C 0.51450(13) 0.03625(17) 0.56470(8)
C42 C 0.58177(14) 0.13890(16) 0.62552(7)
C43 C 0.53636(18) 0.54957(19) 0.50800(10)
H36 H 0.4923 0.5760 0.5283
C44 C 0.5757(2) 0.6156(2) 0.47465(12)
H37 H 0.5583 0.6860 0.4727
C45 C 0.6405(2) 0.5763(3) 0.44463(11)
H38 H 0.6665 0.6203 0.4221
C46 C 0.66728(17) 0.4730(2) 0.44747(8)
H39 H 0.7113 0.4470 0.4270
C47 C 0.62860(15) 0.4076(2) 0.48096(7)
H40 H 0.6475 0.3377 0.4831
C48 C 0.56216(13) 0.44418(16) 0.51138(7)
C49 C 0.51688(14) 0.37680(16) 0.54635(7)
H41 H 0.4877 0.4115 0.5710
C50 C 0.51261(13) 0.27343(16) 0.54699(7)
H42 H 0.5480 0.2350 0.5259
C51 C 0.45191(12) 0.21551(15) 0.58092(7)
H43 H 0.4357 0.2637 0.6067
C52 C 0.32878(12) 0.25152(15) 0.52152(7)
C53 C 0.28267(15) 0.33961(17) 0.53488(7)
H44 H 0.2771 0.3559 0.5669
C54 C 0.24376(16) 0.4055(2) 0.50121(8)
H45 H 0.2116 0.4650 0.5106
C55 C 0.25301(14) 0.38233(19) 0.45411(8)
C56 C 0.1792(2) 0.5394(3) 0.42929(12)
H46 H 0.1281 0.5286 0.4498
H47 H 0.1594 0.5736 0.4008
H48 H 0.2232 0.5829 0.4450
C57 C 0.29923(18) 0.29276(19) 0.44079(8)
H49 H 0.3044 0.2758 0.4089
C58 C 0.33785(16) 0.22802(18) 0.47438(8)
H50 H 0.3701 0.1684 0.4651
C59 C 0.31557(13) 0.10548(15) 0.57545(6)
H51 H 0.2595 0.0930 0.5614
C60 C 0.33866(12) 0.04531(14) 0.61293(6)
C61 C 0.27728(13) -0.03327(14) 0.63189(7)
C62 C 0.13402(17) -0.11704(19) 0.62444(10)
H52 H 0.1524 -0.1872 0.6159
H53 H 0.0759 -0.1020 0.6106
H54 H 0.1298 -0.1117 0.6583
N4 N 0.53116(15) -0.02386(17) 0.53623(8)
N5 N 0.65011(13) 0.15463(16) 0.64258(7)
N6 N 0.36810(11) 0.18306(13) 0.55657(6)
O4 O 0.21830(13) 0.44152(16) 0.41807(6)
O5 O 0.29261(10) -0.08462(11) 0.66703(5)
O6 O 0.19971(10) -0.04246(11) 0.60722(5)
loop_
_geom_bond_atom_site_label_1
_geom_bond_atom_site_label_2
_geom_bond_site_symmetry_1
_geom_bond_site_symmetry_2
C1 H1 1_555 1_555
C2 C1 1_555 1_555
H2 C2 1_555 1_555
C3 C2 1_555 1_555
C4 C3 1_555 1_555
H3 C4 1_555 1_555
H4 C4 1_555 1_555
H5 C4 1_555 1_555
C5 C3 1_555 1_555
H6 C5 1_555 1_555
C6 C5 1_555 1_555
H7 C6 1_555 1_555
C7 C1 1_555 1_555
C8 C7 1_555 1_555
H8 C8 1_555 1_555
C9 C8 1_555 1_555
C10 C9 1_555 1_555
C11 C9 1_555 1_555
C12 H9 1_555 1_555
C13 C12 1_555 1_555
H10 C13 1_555 1_555
C14 C13 1_555 1_555
H11 C14 1_555 1_555
C15 C14 1_555 1_555
H12 C15 1_555 1_555
C16 C15 1_555 1_555
H13 C16 1_555 1_555
C17 C12 1_555 1_555
C18 C17 1_555 1_555
H14 C18 1_555 1_555
C19 C18 1_555 1_555
H15 C19 1_555 1_555
C20 C9 1_555 1_555
H16 C20 1_555 1_555
C21 C22 1_555 1_555
C22 H17 1_555 1_555
C23 C22 1_555 1_555
H18 C23 1_555 1_555
C24 C23 1_555 1_555
C25 H19 1_555 1_555
H20 C25 1_555 1_555
H21 C25 1_555 1_555
C26 C24 1_555 1_555
H22 C26 1_555 1_555
C27 C21 1_555 1_555
H23 C27 1_555 1_555
C28 H24 1_555 1_555
C29 C8 1_555 1_555
C30 C29 1_555 1_555
C31 H25 1_555 1_555
H26 C31 1_555 1_555
H27 C31 1_555 1_555
N1 C10 1_555 1_555
N2 C11 1_555 1_555
N3 C20 1_555 1_555
O1 C24 1_555 1_555
O2 C30 1_555 1_555
O3 C30 1_555 1_555
C32 H28 1_555 1_555
C33 C32 1_555 1_555
H29 C33 1_555 1_555
C34 C33 1_555 1_555
C35 C34 1_555 1_555
H30 C35 1_555 1_555
H31 C35 1_555 1_555
H32 C35 1_555 1_555
C36 C34 1_555 1_555
H33 C36 1_555 1_555
C37 C36 1_555 1_555
H34 C37 1_555 1_555
C38 C32 1_555 1_555
C39 C38 1_555 1_555
H35 C39 1_555 1_555
C40 C39 1_555 1_555
C41 C40 1_555 1_555
C42 C40 1_555 1_555
C43 H36 1_555 1_555
C44 C43 1_555 1_555
H37 C44 1_555 1_555
C45 C44 1_555 1_555
H38 C45 1_555 1_555
C46 C45 1_555 1_555
H39 C46 1_555 1_555
C47 C46 1_555 1_555
H40 C47 1_555 1_555
C48 C43 1_555 1_555
C49 C48 1_555 1_555
H41 C49 1_555 1_555
C50 C49 1_555 1_555
H42 C50 1_555 1_555
C51 C40 1_555 1_555
H43 C51 1_555 1_555
C52 C53 1_555 1_555
C53 H44 1_555 1_555
C54 C53 1_555 1_555
H45 C54 1_555 1_555
C55 C54 1_555 1_555
C56 H46 1_555 1_555
H47 C56 1_555 1_555
H48 C56 1_555 1_555
C57 C55 1_555 1_555
H49 C57 1_555 1_555
C58 C52 1_555 1_555
H50 C58 1_555 1_555
C59 H51 1_555 1_555
C60 C39 1_555 1_555
C61 C60 1_555 1_555
C62 H52 1_555 1_555
H53 C62 1_555 1_555
H54 C62 1_555 1_555
N4 C41 1_555 1_555
N5 C42 1_555 1_555
N6 C51 1_555 1_555
O4 C55 1_555 1_555
O5 C61 1_555 1_555
O6 C61 1_555 1_555
C6 C7 1_555 1_555
C16 C17 1_555 1_555
C19 C20 1_555 1_555
C21 N3 1_555 1_555
C25 O1 1_555 1_555
C26 C27 1_555 1_555
C28 C29 1_555 1_555
C28 N3 1_555 1_555
C31 O3 1_555 1_555
C37 C38 1_555 1_555
C47 C48 1_555 1_555
C50 C51 1_555 1_555
C52 N6 1_555 1_555
C56 O4 1_555 1_555
C57 C58 1_555 1_555
C59 C60 1_555 1_555
C59 N6 1_555 1_555
C62 O6 1_555 1_555

#END
