
#######################################################################
#
#                 Cambridge Crystallographic Data Centre
#                                CCDC 
#
#######################################################################
#
# If this CIF has been generated from an entry in the Cambridge 
# Structural Database, then it will include bibliographic, chemical, 
# crystal, experimental, refinement or atomic coordinate data resulting 
# from the CCDC's data processing and validation procedures.
#
#######################################################################

data_RUKBEG
_chemical_formula_moiety         'C26 H27 N3 O3'
_chemical_name_systematic        
5-butyl-5-(3-(1-methyl-1H-imidazol-2-yl)-3-oxo-1-phenylpropyl)-2-phenyl-1,3-oxazol-4(5H)-one
_symmetry_cell_setting           monoclinic
_symmetry_space_group_name_H-M   'P 21'
_symmetry_Int_Tables_number      4
_space_group_name_Hall           'P 2yb'
loop_
_symmetry_equiv_pos_site_id
_symmetry_equiv_pos_as_xyz
1 x,y,z
2 -x,1/2+y,-z
_cell_length_a                   11.2352(3)
_cell_length_b                   18.7744(4)
_cell_length_c                   11.4172(3)
_cell_angle_alpha                90
_cell_angle_beta                 105.497(3)
_cell_angle_gamma                90
_cell_volume                     2320.72
_exptl_crystal_colour            'light colorless'
_exptl_crystal_description       block
_cell_formula_units_Z            4
loop_
_atom_site_label
_atom_site_type_symbol
_atom_site_fract_x
_atom_site_fract_y
_atom_site_fract_z
O1 O -0.03721(13) -0.41876(7) -0.65135(12)
O2 O -0.1835(2) -0.53300(9) -0.49277(18)
O3 O -0.19264(18) -0.30620(11) -0.31695(15)
N1 N -0.18537(17) -0.50433(9) -0.69139(18)
N2 N -0.41885(17) -0.26645(9) -0.59232(17)
N3 N -0.41230(18) -0.22178(10) -0.41092(18)
C1 C -0.2019(2) -0.49036(12) -0.9468(2)
H1 H -0.2501 -0.5251 -0.9235
C2 C -0.2076(2) -0.48098(16) -1.0678(2)
H2 H -0.2596 -0.5094 -1.1265
C3 C -0.1366(3) -0.42967(17) -1.1019(2)
H3 H -0.1412 -0.4233 -1.1838
C4 C -0.0587(3) -0.38762(17) -1.0163(3)
H4 H -0.0113 -0.3528 -1.0404
C5 C -0.0507(2) -0.39687(13) -0.8944(2)
H5 H 0.0034 -0.3692 -0.8362
C6 C -0.12374(17) -0.44765(11) -0.85940(18)
C7 C -0.11888(17) -0.45914(10) -0.73204(19)
C8 C -0.1451(2) -0.49898(11) -0.5659(2)
C9 C -0.0400(2) -0.44470(11) -0.53169(18)
C10 C 0.0833(2) -0.48075(13) -0.4730(2)
H6 H 0.0780 -0.5039 -0.3986
H7 H 0.1470 -0.4445 -0.4512
C11 C 0.1218(3) -0.53599(19) -0.5546(3)
H8 H 0.0521 -0.5670 -0.5887
H9 H 0.1421 -0.5115 -0.6216
C12 C 0.1997(4) -0.63103(18) -0.3991(4)
H10 H 0.1817 -0.6043 -0.3343
H11 H 0.2694 -0.6615 -0.3668
H12 H 0.1293 -0.6594 -0.4384
C13 C 0.2294(3) -0.58044(19) -0.4903(3)
H13 H 0.2963 -0.5493 -0.4487
H14 H 0.2576 -0.6077 -0.5499
C14 C -0.06982(19) -0.38322(11) -0.45491(18)
H15 H -0.0765 -0.4044 -0.3785
C15 C 0.03228(18) -0.32766(11) -0.42090(18)
C16 C 0.0518(2) -0.27868(13) -0.5046(2)
H16 H 0.0046 -0.2816 -0.5849
C17 C 0.1396(3) -0.22557(16) -0.4721(3)
H17 H 0.1508 -0.1933 -0.5300
C18 C 0.2105(2) -0.22060(17) -0.3534(3)
H18 H 0.2682 -0.1842 -0.3302
C19 C 0.1951(2) -0.27003(17) -0.2698(2)
H19 H 0.2447 -0.2679 -0.1903
C20 C 0.1065(2) -0.32311(14) -0.30270(19)
H20 H 0.0969 -0.3559 -0.2449
C21 C -0.19586(19) -0.34949(11) -0.51472(19)
H21 H -0.1885 -0.3189 -0.5809
H22 H -0.2548 -0.3868 -0.5486
C22 C -0.2435(2) -0.30631(11) -0.42523(18)
C23 C -0.35740(19) -0.26519(10) -0.47631(19)
C24 C -0.5172(2) -0.22231(12) -0.6016(2)
H23 H -0.5779 -0.2127 -0.6729
C25 C -0.5131(2) -0.19438(12) -0.4904(3)
H24 H -0.5691 -0.1625 -0.4726
C26 C -0.3730(4) -0.2059(2) -0.2810(3)
H25 H -0.2930 -0.1839 -0.2615
H26 H -0.3688 -0.2494 -0.2356
H27 H -0.4313 -0.1742 -0.2604
O4 O -0.55018(10) -0.43724(6) -0.79040(11)
O5 O -0.75238(15) -0.31798(8) -0.97513(15)
O6 O -0.88747(17) -0.53361(13) -1.14310(17)
N4 N -0.68734(14) -0.35242(8) -0.77331(15)
N5 N -0.9161(2) -0.61196(13) -0.8690(3)
N6 N -1.02905(17) -0.64122(11) -1.0536(3)
C27 C -0.5849(2) -0.54370(11) -1.1374(2)
H28 H -0.6338 -0.5165 -1.2000
C28 C -0.5083(3) -0.59608(14) -1.1635(3)
H29 H -0.5059 -0.6037 -1.2433
C29 C -0.4361(2) -0.63664(13) -1.0711(3)
H30 H -0.3849 -0.6717 -1.0883
C30 C -0.4400(2) -0.62519(12) -0.9540(3)
H31 H -0.3913 -0.6527 -0.8917
C31 C -0.5159(2) -0.57300(11) -0.9271(2)
H32 H -0.5175 -0.5657 -0.8470
C32 C -0.58904(16) -0.53172(9) -1.01876(18)
C33 C -0.67311(16) -0.47352(9) -0.99311(16)
H33 H -0.7152 -0.4524 -1.0718
C34 C -0.60142(15) -0.41300(9) -0.91438(16)
C35 C -0.50145(18) -0.38251(10) -0.96682(18)
H34 H -0.4492 -0.4214 -0.9790
H35 H -0.5408 -0.3626 -1.0461
C36 C -0.4196(2) -0.32554(11) -0.8916(2)
H36 H -0.4706 -0.2898 -0.8673
H37 H -0.3670 -0.3469 -0.8186
C37 C -0.3402(2) -0.29046(12) -0.9631(2)
H38 H -0.3933 -0.2652 -1.0314
H39 H -0.2970 -0.3271 -0.9954
C38 C -0.2457(3) -0.23847(16) -0.8885(4)
H40 H -0.1917 -0.2632 -0.8215
H41 H -0.2877 -0.2011 -0.8581
H42 H -0.1983 -0.2183 -0.9388
C39 C -0.77420(18) -0.50447(11) -0.94052(19)
H43 H -0.7368 -0.5357 -0.8730
H44 H -0.8150 -0.4660 -0.9098
C40 C -0.86890(17) -0.54584(11) -1.0354(2)
C41 C -0.93646(19) -0.59899(11) -0.9866(3)
C42 C -1.0660(3) -0.68202(17) -0.9725(5)
H45 H -1.1272 -0.7168 -0.9907
C43 C -0.9975(3) -0.6632(2) -0.8593(4)
H46 H -1.0054 -0.6825 -0.7867
C44 C -1.0770(3) -0.6435(3) -1.1849(4)
H47 H -1.0114 -0.6552 -1.2209
H48 H -1.1106 -0.5978 -1.2139
H49 H -1.1406 -0.6789 -1.2068
C45 C -0.69009(16) -0.35517(9) -0.89470(18)
C46 C -0.60611(15) -0.39960(9) -0.72082(17)
C47 C -0.56788(16) -0.41420(10) -0.59065(17)
C48 C -0.47239(19) -0.46155(11) -0.5423(2)
H50 H -0.4367 -0.4876 -0.5934
C49 C -0.4308(2) -0.46966(15) -0.4178(2)
H51 H -0.3669 -0.5013 -0.3851
C50 C -0.4834(3) -0.43123(17) -0.3419(2)
H52 H -0.4535 -0.4361 -0.2581
C51 C -0.5799(3) -0.38561(16) -0.3895(2)
H53 H -0.6165 -0.3608 -0.3378
C52 C -0.6228(2) -0.37652(12) -0.5139(2)
H54 H -0.6878 -0.3455 -0.5460
loop_
_geom_bond_atom_site_label_1
_geom_bond_atom_site_label_2
_geom_bond_site_symmetry_1
_geom_bond_site_symmetry_2
O1 C7 1_555 1_555
O2 C8 1_555 1_555
O3 C22 1_555 1_555
N1 C7 1_555 1_555
N2 C23 1_555 1_555
N3 C23 1_555 1_555
C1 H1 1_555 1_555
C2 C1 1_555 1_555
H2 C2 1_555 1_555
C3 C2 1_555 1_555
H3 C3 1_555 1_555
C4 C3 1_555 1_555
H4 C4 1_555 1_555
C5 C4 1_555 1_555
H5 C5 1_555 1_555
C6 C1 1_555 1_555
C7 C6 1_555 1_555
C8 N1 1_555 1_555
C9 O1 1_555 1_555
C10 C9 1_555 1_555
H6 C10 1_555 1_555
H7 C10 1_555 1_555
C11 C10 1_555 1_555
H8 C11 1_555 1_555
H9 C11 1_555 1_555
C12 H10 1_555 1_555
H11 C12 1_555 1_555
H12 C12 1_555 1_555
C13 C11 1_555 1_555
H13 C13 1_555 1_555
H14 C13 1_555 1_555
C14 C9 1_555 1_555
H15 C14 1_555 1_555
C15 C14 1_555 1_555
C16 C15 1_555 1_555
H16 C16 1_555 1_555
C17 C16 1_555 1_555
H17 C17 1_555 1_555
C18 C17 1_555 1_555
H18 C18 1_555 1_555
C19 C18 1_555 1_555
H19 C19 1_555 1_555
C20 C15 1_555 1_555
H20 C20 1_555 1_555
C21 C14 1_555 1_555
H21 C21 1_555 1_555
H22 C21 1_555 1_555
C22 C21 1_555 1_555
C23 C22 1_555 1_555
C24 N2 1_555 1_555
H23 C24 1_555 1_555
C25 N3 1_555 1_555
H24 C25 1_555 1_555
C26 N3 1_555 1_555
H25 C26 1_555 1_555
H26 C26 1_555 1_555
H27 C26 1_555 1_555
O4 C34 1_555 1_555
O5 C45 1_555 1_555
O6 C40 1_555 1_555
N4 C45 1_555 1_555
N5 C41 1_555 1_555
N6 C41 1_555 1_555
C27 H28 1_555 1_555
C28 C27 1_555 1_555
H29 C28 1_555 1_555
C29 C28 1_555 1_555
H30 C29 1_555 1_555
C30 C29 1_555 1_555
H31 C30 1_555 1_555
C31 C30 1_555 1_555
H32 C31 1_555 1_555
C32 C27 1_555 1_555
C33 C32 1_555 1_555
H33 C33 1_555 1_555
C34 C33 1_555 1_555
C35 C34 1_555 1_555
H34 C35 1_555 1_555
H35 C35 1_555 1_555
C36 C35 1_555 1_555
H36 C36 1_555 1_555
H37 C36 1_555 1_555
C37 C36 1_555 1_555
H38 C37 1_555 1_555
H39 C37 1_555 1_555
C38 C37 1_555 1_555
H40 C38 1_555 1_555
H41 C38 1_555 1_555
H42 C38 1_555 1_555
C39 C33 1_555 1_555
H43 C39 1_555 1_555
H44 C39 1_555 1_555
C40 C39 1_555 1_555
C41 C40 1_555 1_555
C42 N6 1_555 1_555
H45 C42 1_555 1_555
C43 N5 1_555 1_555
H46 C43 1_555 1_555
C44 N6 1_555 1_555
H47 C44 1_555 1_555
H48 C44 1_555 1_555
H49 C44 1_555 1_555
C45 C34 1_555 1_555
C46 O4 1_555 1_555
C47 C46 1_555 1_555
C48 C47 1_555 1_555
H50 C48 1_555 1_555
C49 C48 1_555 1_555
H51 C49 1_555 1_555
C50 C49 1_555 1_555
H52 C50 1_555 1_555
C51 C50 1_555 1_555
H53 C51 1_555 1_555
C52 C47 1_555 1_555
H54 C52 1_555 1_555
C5 C6 1_555 1_555
C8 C9 1_555 1_555
C12 C13 1_555 1_555
C19 C20 1_555 1_555
C24 C25 1_555 1_555
N4 C46 1_555 1_555
C31 C32 1_555 1_555
C42 C43 1_555 1_555
C51 C52 1_555 1_555

#END
