
#######################################################################
#
#                 Cambridge Crystallographic Data Centre
#                                CCDC 
#
#######################################################################
#
# If this CIF has been generated from an entry in the Cambridge 
# Structural Database, then it will include bibliographic, chemical, 
# crystal, experimental, refinement or atomic coordinate data resulting 
# from the CCDC's data processing and validation procedures.
#
#######################################################################

data_RUKDAD02
_chemical_formula_moiety         'C2 H9 N1 O6 P2'
_chemical_name_systematic        
'Hydrogen (1-ammonio-1-phosphonoethyl)phosphonate'
_symmetry_cell_setting           triclinic
_symmetry_space_group_name_H-M   'P -1'
_symmetry_Int_Tables_number      2
_space_group_name_Hall           '-P 1'
loop_
_symmetry_equiv_pos_site_id
_symmetry_equiv_pos_as_xyz
1 x,y,z
2 -x,-y,-z
_cell_length_a                   5.5780(4)
_cell_length_b                   5.9177(4)
_cell_length_c                   11.3992(12)
_cell_angle_alpha                82.368(2)
_cell_angle_beta                 82.198(2)
_cell_angle_gamma                78.166(8)
_cell_volume                     362.725
_exptl_crystal_colour            colorless
_exptl_crystal_description       block
_cell_formula_units_Z            2
loop_
_atom_site_label
_atom_site_type_symbol
_atom_site_fract_x
_atom_site_fract_y
_atom_site_fract_z
C1 C 0.3029(4) 0.8557(4) 0.75611(18)
C2 C 0.3924(4) 0.6698(4) 0.8560(2)
H1 H 0.4314 0.7431 0.9193
H2 H 0.5368 0.5667 0.8253
H3 H 0.2649 0.5831 0.8858
H4 H 0.063(5) 0.950(9) 0.516(5)
H5 H -0.024(5) 0.511(2) 0.687(2)
H7 H 0.163(6) 1.137(5) 0.9704(12)
N1 N 0.5128(3) 0.9814(4) 0.70692(17)
H8 H 0.6367 0.8829 0.6727
H9 H 0.5642 1.0366 0.7660
H10 H 0.4604 1.0983 0.6532
O1 O 0.2091(3) 0.9133(4) 0.52673(15)
O2 O -0.0266(3) 0.6569(3) 0.67308(14)
O3 O 0.4272(3) 0.5201(4) 0.60947(16)
O4 O -0.0444(4) 1.2390(3) 0.7150(2)
O5 O -0.1477(3) 0.9510(3) 0.88548(16)
O6 O 0.1736(3) 1.1951(3) 0.89815(16)
P1 P 0.22063(10) 0.72681(11) 0.63241(5)
P2 P 0.04958(10) 1.07270(9) 0.81870(5)
H6? H 0.477(13) 0.573(10) 0.540(2)
loop_
_geom_bond_atom_site_label_1
_geom_bond_atom_site_label_2
_geom_bond_site_symmetry_1
_geom_bond_site_symmetry_2
C1 C2 1_555 1_555
C2 H1 1_555 1_555
H2 C2 1_555 1_555
H3 C2 1_555 1_555
H4 O1 1_555 1_555
H5 O2 1_555 1_555
H7 O6 1_555 1_555
N1 C1 1_555 1_555
H8 N1 1_555 1_555
H9 N1 1_555 1_555
H10 N1 1_555 1_555
O1 P1 1_555 1_555
O2 P1 1_555 1_555
O3 P1 1_555 1_555
O4 P2 1_555 1_555
O5 P2 1_555 1_555
O6 P2 1_555 1_555
P1 C1 1_555 1_555
P2 C1 1_555 1_555

#END
