
#######################################################################
#
#                 Cambridge Crystallographic Data Centre
#                                CCDC 
#
#######################################################################
#
# If this CIF has been generated from an entry in the Cambridge 
# Structural Database, then it will include bibliographic, chemical, 
# crystal, experimental, refinement or atomic coordinate data resulting 
# from the CCDC's data processing and validation procedures.
#
#######################################################################

data_RUKGOU02
_chemical_formula_moiety         'C18 H18 N2 O4'
_chemical_name_systematic        
'Ethyl 13-methyl-15-oxo-12-oxa-14,16-diazatetracyclo[11.3.1.0^2,11^.0^3,8^]heptadeca-2(11),3(8),4,6,9-pentaene-17-carboxylate'
_symmetry_cell_setting           monoclinic
_symmetry_space_group_name_H-M   'P 21/c'
_symmetry_Int_Tables_number      14
_space_group_name_Hall           '-P 2ybc'
loop_
_symmetry_equiv_pos_site_id
_symmetry_equiv_pos_as_xyz
1 x,y,z
2 -x,1/2+y,1/2-z
3 -x,-y,-z
4 x,1/2-y,1/2+z
_cell_length_a                   10.4201(12)
_cell_length_b                   16.958(2)
_cell_length_c                   9.7447(11)
_cell_angle_alpha                90
_cell_angle_beta                 112.4570(10)
_cell_angle_gamma                90
_cell_volume                     1591.35
_chemical_melting_point          '226-228 deg.C'
_cell_formula_units_Z            4
loop_
_atom_site_label
_atom_site_type_symbol
_atom_site_fract_x
_atom_site_fract_y
_atom_site_fract_z
O1 O 0.44965(10) 0.09576(5) 0.54414(10)
O2 O 0.12427(10) -0.03548(5) 0.19589(10)
O3 O 0.21350(12) 0.21310(6) 0.02165(14)
O4 O 0.38747(10) 0.12707(7) 0.09488(13)
N1 N 0.34216(10) 0.02525(6) 0.33335(11)
H1 H 0.4034 -0.0112 0.3684
N2 N 0.25483(10) 0.14604(6) 0.36701(12)
H2 H 0.2668 0.1911 0.4106
C1 C 0.35319(12) 0.08935(7) 0.42132(13)
C2 C 0.02666(12) 0.07905(8) 0.26844(13)
C3 C 0.12856(12) 0.13179(7) 0.23532(13)
H3 H 0.0838 0.1823 0.1961
C4 C 0.17370(12) 0.09206(7) 0.11970(13)
H4 H 0.0897 0.0809 0.0320
C5 C 0.03298(12) -0.00071(8) 0.24878(13)
C6 C 0.26085(13) 0.15028(8) 0.07375(14)
C7 C -0.07327(13) 0.10966(9) 0.32236(14)
C8 C 0.23778(12) 0.01279(7) 0.18729(13)
C9 C 0.29477(16) -0.03828(8) 0.09622(15)
H5 H 0.3749 -0.0133 0.0895
H6 H 0.2250 -0.0451 -0.0017
H7 H 0.3206 -0.0888 0.1430
C10 C -0.05846(15) -0.05380(9) 0.27822(15)
H8 H -0.0518 -0.1077 0.2648
C11 C -0.16691(14) 0.05615(10) 0.34947(15)
C12 C -0.15570(15) -0.02545(10) 0.32609(16)
H9 H -0.2164 -0.0604 0.3440
C13 C -0.08261(16) 0.19029(10) 0.35303(19)
H10 H -0.0238 0.2263 0.3347
C14 C -0.26503(17) 0.08603(14) 0.4042(2)
H11 H -0.3282 0.0517 0.4188
C15 C 0.4313(2) 0.17561(12) -0.1198(2)
H12 H 0.4352 0.1218 -0.1485
H13 H 0.4938 0.2069 -0.1483
H14 H 0.3384 0.1953 -0.1683
C16 C 0.47263(16) 0.18004(11) 0.0450(2)
H15 H 0.5697 0.1656 0.0937
H16 H 0.4619 0.2338 0.0730
C17 C -0.2691(2) 0.16324(15) 0.4355(2)
H17 H -0.3326 0.1813 0.4743
C18 C -0.1773(2) 0.21639(13) 0.4096(2)
H18 H -0.1807 0.2696 0.4309
loop_
_geom_bond_atom_site_label_1
_geom_bond_atom_site_label_2
_geom_bond_site_symmetry_1
_geom_bond_site_symmetry_2
O1 C1 1_555 1_555
O2 C5 1_555 1_555
O3 C6 1_555 1_555
O4 C6 1_555 1_555
N1 H1 1_555 1_555
N2 H2 1_555 1_555
C1 N1 1_555 1_555
C2 C3 1_555 1_555
C3 N2 1_555 1_555
H3 C3 1_555 1_555
C4 C3 1_555 1_555
H4 C4 1_555 1_555
C5 C2 1_555 1_555
C6 C4 1_555 1_555
C7 C2 1_555 1_555
C8 O2 1_555 1_555
C9 C8 1_555 1_555
H5 C9 1_555 1_555
H6 C9 1_555 1_555
H7 C9 1_555 1_555
C10 C5 1_555 1_555
H8 C10 1_555 1_555
C11 C7 1_555 1_555
C12 C10 1_555 1_555
H9 C12 1_555 1_555
C13 C7 1_555 1_555
H10 C13 1_555 1_555
C14 C11 1_555 1_555
H11 C14 1_555 1_555
C15 H12 1_555 1_555
H13 C15 1_555 1_555
H14 C15 1_555 1_555
C16 O4 1_555 1_555
H15 C16 1_555 1_555
H16 C16 1_555 1_555
C17 C14 1_555 1_555
H17 C17 1_555 1_555
C18 C13 1_555 1_555
H18 C18 1_555 1_555
N1 C8 1_555 1_555
N2 C1 1_555 1_555
C4 C8 1_555 1_555
C11 C12 1_555 1_555
C15 C16 1_555 1_555
C17 C18 1_555 1_555

#END
