
#######################################################################
#
#                 Cambridge Crystallographic Data Centre
#                                CCDC 
#
#######################################################################
#
# If this CIF has been generated from an entry in the Cambridge 
# Structural Database, then it will include bibliographic, chemical, 
# crystal, experimental, refinement or atomic coordinate data resulting 
# from the CCDC's data processing and validation procedures.
#
#######################################################################

data_RUKHIQ
_chemical_formula_moiety         'C30 H29 N3 O5 S1'
_chemical_name_systematic        
't-butyl 3-((4-methoxyphenyl)(methylsulfonyl)amino)-4-phenyl-9H-\b-carboline-9-carboxylate'
_symmetry_cell_setting           monoclinic
_symmetry_space_group_name_H-M   'P 21/c'
_symmetry_Int_Tables_number      14
_space_group_name_Hall           '-P 2ybc'
loop_
_symmetry_equiv_pos_site_id
_symmetry_equiv_pos_as_xyz
1 x,y,z
2 -x,1/2+y,1/2-z
3 -x,-y,-z
4 x,1/2-y,1/2+z
_cell_length_a                   14.008(3)
_cell_length_b                   15.968(3)
_cell_length_c                   12.323(2)
_cell_angle_alpha                90
_cell_angle_beta                 110.095(3)
_cell_angle_gamma                90
_cell_volume                     2588.61
_exptl_crystal_colour            colorless
_exptl_crystal_description       block
_cell_formula_units_Z            4
loop_
_atom_site_label
_atom_site_type_symbol
_atom_site_fract_x
_atom_site_fract_y
_atom_site_fract_z
S1 S 0.33345(3) 0.40869(3) -0.01720(4)
N1 N 0.53207(10) 0.36569(9) 0.54145(12)
C1 C 0.46918(13) 0.41228(10) 0.58719(15)
O1 O 0.65428(11) 0.33316(10) 0.71148(11)
O2 O 0.65403(9) 0.27593(8) 0.54507(10)
N2 N 0.45389(11) 0.33133(9) 0.22467(12)
C2 C 0.48595(14) 0.43738(11) 0.69988(15)
H1 H 0.5447 0.4223 0.7599
N3 N 0.29716(11) 0.36280(9) 0.08100(12)
O3 O 0.39227(11) 0.47865(9) 0.03746(12)
C3 C 0.41200(15) 0.48557(11) 0.71924(16)
H2 H 0.4210 0.5031 0.7941
O4 O 0.24615(11) 0.42130(9) -0.11654(11)
C4 C 0.32422(14) 0.50878(12) 0.63012(17)
H3 H 0.2760 0.5419 0.6460
O5 O -0.01177(11) 0.13024(9) 0.01283(14)
C5 C 0.30792(14) 0.48338(11) 0.51924(16)
H4 H 0.2490 0.4988 0.4597
C6 C 0.38081(13) 0.43418(10) 0.49705(14)
C7 C 0.38909(12) 0.40026(10) 0.39249(14)
C8 C 0.32418(13) 0.40124(10) 0.27821(14)
C9 C 0.36298(12) 0.36637(10) 0.19913(14)
C10 C 0.51421(13) 0.32782(11) 0.33477(14)
H5 H 0.5778 0.3028 0.3540
C11 C 0.48330(12) 0.36101(10) 0.42095(14)
C12 C 0.61934(13) 0.32452(11) 0.60924(14)
C13 C 0.74782(14) 0.22653(12) 0.59791(15)
C14 C 0.83421(17) 0.28479(17) 0.6521(3)
H6 H 0.8244 0.3125 0.7167
H7 H 0.8373 0.3258 0.5964
H8 H 0.8966 0.2537 0.6783
C15 C 0.7326(2) 0.16454(16) 0.6814(3)
H9 H 0.7262 0.1936 0.7467
H10 H 0.7899 0.1274 0.7069
H11 H 0.6720 0.1328 0.6442
C16 C 0.7590(2) 0.1821(2) 0.4958(2)
H12 H 0.7688 0.2225 0.4429
H13 H 0.6987 0.1502 0.4578
H14 H 0.8166 0.1453 0.5213
C17 C 0.21767(13) 0.43049(11) 0.24347(14)
C18 C 0.14937(13) 0.38545(12) 0.27841(16)
H15 H 0.1715 0.3395 0.3269
C19 C 0.04877(14) 0.40820(12) 0.24188(18)
H16 H 0.0031 0.3777 0.2659
C20 C 0.01528(14) 0.47597(13) 0.16985(18)
H17 H -0.0531 0.4906 0.1439
C21 C 0.08343(15) 0.52183(12) 0.13655(17)
H18 H 0.0613 0.5684 0.0892
C22 C 0.18420(14) 0.49928(11) 0.17275(15)
H19 H 0.2299 0.5304 0.1496
C23 C 0.21994(13) 0.29953(11) 0.05422(14)
C24 C 0.24055(14) 0.22533(12) 0.11429(15)
H20 H 0.3066 0.2138 0.1625
C25 C 0.16474(15) 0.16782(12) 0.10398(17)
H21 H 0.1789 0.1188 0.1473
C26 C 0.06805(14) 0.18339(12) 0.02925(16)
C27 C 0.04807(14) 0.25633(13) -0.03492(17)
H22 H -0.0167 0.2659 -0.0879
C28 C 0.12302(14) 0.31460(12) -0.02105(16)
H23 H 0.1085 0.3645 -0.0625
C29 C 0.41105(19) 0.33595(15) -0.0524(2)
H24 H 0.4352 0.3593 -0.1100
H25 H 0.3728 0.2860 -0.0821
H26 H 0.4679 0.3225 0.0154
C30 C -0.0001(2) 0.06976(16) 0.1007(3)
H27 H -0.0601 0.0358 0.0813
H28 H 0.0103 0.0976 0.1729
H29 H 0.0576 0.0350 0.1075
loop_
_geom_bond_atom_site_label_1
_geom_bond_atom_site_label_2
_geom_bond_site_symmetry_1
_geom_bond_site_symmetry_2
S1 N3 1_555 1_555
N1 C1 1_555 1_555
C1 C2 1_555 1_555
O1 C12 1_555 1_555
O2 C12 1_555 1_555
N2 C9 1_555 1_555
C2 H1 1_555 1_555
N3 C9 1_555 1_555
O3 S1 1_555 1_555
C3 C2 1_555 1_555
H2 C3 1_555 1_555
O4 S1 1_555 1_555
C4 C3 1_555 1_555
H3 C4 1_555 1_555
O5 C26 1_555 1_555
C5 C4 1_555 1_555
H4 C5 1_555 1_555
C6 C1 1_555 1_555
C7 C6 1_555 1_555
C8 C7 1_555 1_555
C9 C8 1_555 1_555
C10 N2 1_555 1_555
H5 C10 1_555 1_555
C11 N1 1_555 1_555
C12 N1 1_555 1_555
C13 O2 1_555 1_555
C14 C13 1_555 1_555
H6 C14 1_555 1_555
H7 C14 1_555 1_555
H8 C14 1_555 1_555
C15 C13 1_555 1_555
H9 C15 1_555 1_555
H10 C15 1_555 1_555
H11 C15 1_555 1_555
C16 C13 1_555 1_555
H12 C16 1_555 1_555
H13 C16 1_555 1_555
H14 C16 1_555 1_555
C17 C8 1_555 1_555
C18 C17 1_555 1_555
H15 C18 1_555 1_555
C19 C18 1_555 1_555
H16 C19 1_555 1_555
C20 C19 1_555 1_555
H17 C20 1_555 1_555
C21 C20 1_555 1_555
H18 C21 1_555 1_555
C22 C17 1_555 1_555
H19 C22 1_555 1_555
C23 N3 1_555 1_555
C24 C23 1_555 1_555
H20 C24 1_555 1_555
C25 C24 1_555 1_555
H21 C25 1_555 1_555
C26 C25 1_555 1_555
C27 C26 1_555 1_555
H22 C27 1_555 1_555
C28 C23 1_555 1_555
H23 C28 1_555 1_555
C29 S1 1_555 1_555
H24 C29 1_555 1_555
H25 C29 1_555 1_555
H26 C29 1_555 1_555
C30 O5 1_555 1_555
H27 C30 1_555 1_555
H28 C30 1_555 1_555
H29 C30 1_555 1_555
C5 C6 1_555 1_555
C7 C11 1_555 1_555
C10 C11 1_555 1_555
C21 C22 1_555 1_555
C27 C28 1_555 1_555

#END
