
#######################################################################
#
#                 Cambridge Crystallographic Data Centre
#                                CCDC 
#
#######################################################################
#
# If this CIF has been generated from an entry in the Cambridge 
# Structural Database, then it will include bibliographic, chemical, 
# crystal, experimental, refinement or atomic coordinate data resulting 
# from the CCDC's data processing and validation procedures.
#
#######################################################################

data_RUKKOZ
_chemical_formula_moiety         'C19 H22 O2'
_chemical_name_systematic        
3'-phenylhexahydro-2H-spiro[cyclopentane-1,2'-indene]-1',2(3'H)-dione
_symmetry_cell_setting           monoclinic
_symmetry_space_group_name_H-M   'P 21'
_symmetry_Int_Tables_number      4
_space_group_name_Hall           'P 2yb'
loop_
_symmetry_equiv_pos_site_id
_symmetry_equiv_pos_as_xyz
1 x,y,z
2 -x,1/2+y,-z
_cell_length_a                   8.2548(3)
_cell_length_b                   10.0794(2)
_cell_length_c                   10.0211(3)
_cell_angle_alpha                90
_cell_angle_beta                 110.128(4)
_cell_angle_gamma                90
_cell_volume                     782.867
_exptl_crystal_colour            'light colorless'
_exptl_crystal_description       block
_cell_formula_units_Z            2
loop_
_atom_site_label
_atom_site_type_symbol
_atom_site_fract_x
_atom_site_fract_y
_atom_site_fract_z
O1 O -0.1098(2) 0.59356(18) 0.37580(18)
O2 O 0.1778(3) 0.45972(17) 0.65864(19)
C1 C 0.0234(2) 0.6528(2) 0.43240(19)
C2 C 0.5141(3) 0.6417(2) 0.8011(2)
H1 H 0.4982 0.5684 0.7415
C3 C 0.4089(2) 0.75323(18) 0.75607(18)
C4 C 0.1151(3) 0.5613(2) 0.6805(2)
C5 C 0.1474(2) 0.7029(2) 0.36427(18)
H2 H 0.1148 0.7950 0.3363
C6 C 0.2680(2) 0.76126(17) 0.61176(17)
H3 H 0.2409 0.8555 0.5926
C7 C 0.3181(2) 0.7081(2) 0.48820(18)
H4 H 0.3610 0.6173 0.5109
C8 C 0.4392(3) 0.8614(2) 0.8477(2)
H5 H 0.3730 0.9378 0.8195
C9 C 0.0922(2) 0.68867(18) 0.59148(19)
C10 C 0.6424(3) 0.6395(3) 0.9342(2)
H6 H 0.7116 0.5647 0.9628
C11 C -0.0365(3) 0.7686(3) 0.6395(3)
H7 H -0.0191 0.8631 0.6315
H8 H -0.1541 0.7467 0.5817
C12 C 0.4506(3) 0.7870(3) 0.4467(2)
H9 H 0.5598 0.7881 0.5249
H10 H 0.4116 0.8778 0.4250
C13 C 0.0393(4) 0.5830(3) 0.7960(3)
H11 H 0.1214 0.5579 0.8879
H12 H -0.0648 0.5307 0.7779
C14 C 0.6685(3) 0.7463(3) 1.0242(2)
H13 H 0.7538 0.7439 1.1136
C15 C 0.5670(3) 0.8565(3) 0.9804(2)
H14 H 0.5843 0.9293 1.0407
C16 C 0.1653(3) 0.6339(3) 0.2347(2)
H15 H 0.0559 0.6355 0.1567
H16 H 0.1990 0.5421 0.2570
C17 C 0.4736(3) 0.7220(4) 0.3163(3)
H17 H 0.5252 0.6351 0.3425
H18 H 0.5521 0.7753 0.2856
C18 C -0.0014(4) 0.7306(3) 0.7927(3)
H19 H -0.1018 0.7465 0.8198
H20 H 0.0957 0.7798 0.8559
C19 C 0.3027(3) 0.7072(4) 0.1927(2)
H21 H 0.2597 0.7947 0.1575
H22 H 0.3232 0.6594 0.1161
H23? H 0.0203 0.8421 0.7000
H24? H -0.1297 0.8028 0.5585
H25? H -0.0001 0.5006 0.8247
H26? H 0.1202 0.6264 0.8785
C20? C -0.102(2) 0.6685(18) 0.7208(18)
H27? H -0.1457 0.7135 0.7873
H28? H -0.1956 0.6171 0.6558
loop_
_geom_bond_atom_site_label_1
_geom_bond_atom_site_label_2
_geom_bond_site_symmetry_1
_geom_bond_site_symmetry_2
O1 C1 1_555 1_555
O2 C4 1_555 1_555
C1 C5 1_555 1_555
C2 H1 1_555 1_555
C3 C2 1_555 1_555
C4 C9 1_555 1_555
C5 H2 1_555 1_555
C6 C3 1_555 1_555
H3 C6 1_555 1_555
C7 C5 1_555 1_555
H4 C7 1_555 1_555
C8 C3 1_555 1_555
H5 C8 1_555 1_555
C9 C1 1_555 1_555
C10 C2 1_555 1_555
H6 C10 1_555 1_555
C11 C9 1_555 1_555
H7 C11 1_555 1_555
H8 C11 1_555 1_555
C12 C7 1_555 1_555
H9 C12 1_555 1_555
H10 C12 1_555 1_555
C13 C4 1_555 1_555
H11 C13 1_555 1_555
H12 C13 1_555 1_555
C14 C10 1_555 1_555
H13 C14 1_555 1_555
C15 C8 1_555 1_555
H14 C15 1_555 1_555
C16 C5 1_555 1_555
H15 C16 1_555 1_555
H16 C16 1_555 1_555
C17 C12 1_555 1_555
H17 C17 1_555 1_555
H18 C17 1_555 1_555
C18 C11 1_555 1_555
H19 C18 1_555 1_555
H20 C18 1_555 1_555
C19 C16 1_555 1_555
H21 C19 1_555 1_555
H22 C19 1_555 1_555
C6 C7 1_555 1_555
C6 C9 1_555 1_555
C13 C18 1_555 1_555
C14 C15 1_555 1_555
C17 C19 1_555 1_555

#END
