
#######################################################################
#
#                 Cambridge Crystallographic Data Centre
#                                CCDC 
#
#######################################################################
#
# If this CIF has been generated from an entry in the Cambridge 
# Structural Database, then it will include bibliographic, chemical, 
# crystal, experimental, refinement or atomic coordinate data resulting 
# from the CCDC's data processing and validation procedures.
#
#######################################################################

data_RUKMIV
_chemical_formula_moiety         'C49 H47 N5 O2'
_chemical_name_systematic        
2,2'-(1-(4-methyl-2,6-bis(octyloxy)phenyl)-1H-phenanthro[1,10,9,8-cdefg]carbazole-3,10-diylidene)dimalononitrile
_symmetry_cell_setting           monoclinic
_symmetry_space_group_name_H-M   'P 21/n'
_symmetry_Int_Tables_number      14
_space_group_name_Hall           '-P 2yn'
loop_
_symmetry_equiv_pos_site_id
_symmetry_equiv_pos_as_xyz
1 x,y,z
2 1/2-x,1/2+y,1/2-z
3 -x,-y,-z
4 1/2+x,1/2-y,1/2+z
_cell_length_a                   17.8586(13)
_cell_length_b                   8.3703(6)
_cell_length_c                   26.813(2)
_cell_angle_alpha                90
_cell_angle_beta                 96.883(4)
_cell_angle_gamma                90
_cell_volume                     3979.17
_exptl_crystal_colour            'dark red'
_exptl_crystal_description       Needle
_cell_formula_units_Z            4
loop_
_atom_site_label
_atom_site_type_symbol
_atom_site_fract_x
_atom_site_fract_y
_atom_site_fract_z
C1 C 0.9519(3) 0.7515(7) 0.5882(2)
H1 H 0.9360 0.8417 0.5655
H2 H 0.9914 0.7911 0.6144
C2 C 0.9846(3) 0.6197(6) 0.5584(2)
H3 H 0.9454 0.5822 0.5317
H4 H 0.9991 0.5283 0.5810
C3 C 1.0531(3) 0.6752(8) 0.5346(2)
H5 H 1.0386 0.7630 0.5112
H6 H 1.0728 0.5862 0.5163
H7 H 1.0921 0.7123 0.5609
O1 O 0.62800(8) 0.81298(17) 0.69666(5)
O2 O 0.38344(7) 0.60037(17) 0.67690(5)
N1 N 0.49805(9) 0.7359(2) 0.63599(6)
N2 N 0.16556(16) 1.2367(4) 0.54612(10)
N3 N 0.23949(13) 1.0560(3) 0.69016(9)
N4 N 0.77007(12) 0.3242(3) 0.49093(8)
N5 N 0.75662(11) 0.3309(2) 0.64728(8)
C4 C 0.43928(11) 0.8253(2) 0.60959(7)
C5 C 0.37911(11) 0.9105(2) 0.62196(8)
H8 H 0.3702 0.9191 0.6561
C6 C 0.32878(11) 0.9878(3) 0.58280(8)
C7 C 0.34301(11) 0.9816(3) 0.52915(8)
C8 C 0.40602(11) 0.8918(2) 0.51836(7)
C9 C 0.45021(11) 0.8182(2) 0.55819(7)
C10 C 0.51149(11) 0.7286(2) 0.55353(7)
C11 C 0.54386(11) 0.6740(2) 0.60125(7)
C12 C 0.60637(11) 0.5798(2) 0.60320(8)
H9 H 0.6298 0.5405 0.6345
C13 C 0.63696(11) 0.5399(2) 0.55648(8)
C14 C 0.60178(11) 0.6018(2) 0.50709(8)
C15 C 0.53723(11) 0.6991(2) 0.50710(7)
C16 C 0.49591(12) 0.7708(2) 0.46450(7)
C17 C 0.52345(13) 0.7404(3) 0.41861(8)
H10 H 0.4990 0.7857 0.3885
C18 C 0.58588(12) 0.6451(3) 0.41722(8)
H11 H 0.6030 0.6255 0.3856
C19 C 0.62534(12) 0.5759(3) 0.45959(8)
H12 H 0.6682 0.5111 0.4564
C20 C 0.30064(12) 1.0527(3) 0.48804(8)
H13 H 0.2572 1.1139 0.4927
C21 C 0.32209(12) 1.0339(3) 0.43996(8)
H14 H 0.2928 1.0845 0.4125
C22 C 0.38382(12) 0.9453(3) 0.43056(8)
H15 H 0.3959 0.9356 0.3971
C23 C 0.42899(12) 0.8694(2) 0.46992(8)
C24 C 0.26641(12) 1.0658(3) 0.59797(8)
C25 C 0.21106(15) 1.1580(3) 0.56769(10)
C26 C 0.25255(13) 1.0612(3) 0.64922(9)
C27 C 0.69959(12) 0.4403(3) 0.56141(8)
C28 C 0.73820(12) 0.3803(3) 0.52167(9)
C29 C 0.73108(12) 0.3808(3) 0.60932(9)
C30 C 0.50469(11) 0.7104(2) 0.68905(7)
C31 C 0.44299(11) 0.6486(2) 0.71021(7)
C32 C 0.44486(12) 0.6394(2) 0.76219(7)
H16 H 0.4022 0.6011 0.7766
C33 C 0.50919(12) 0.6862(3) 0.79293(8)
C34 C 0.57194(12) 0.7409(2) 0.77214(8)
H17 H 0.6164 0.7692 0.7934
C35 C 0.56987(11) 0.7544(2) 0.72026(7)
C36 C 0.31299(11) 0.5690(3) 0.69631(8)
H18 H 0.2992 0.6607 0.7167
H19 H 0.3178 0.4730 0.7180
C37 C 0.25300(12) 0.5426(3) 0.65260(9)
H20 H 0.2689 0.4551 0.6313
H21 H 0.2474 0.6408 0.6319
C38 C 0.17703(13) 0.5002(3) 0.67006(10)
H22 H 0.1416 0.4687 0.6404
H23 H 0.1840 0.4067 0.6928
C39 C 0.14195(13) 0.6353(3) 0.69724(10)
H24 H 0.1290 0.7241 0.6734
H25 H 0.1795 0.6757 0.7245
C40 C 0.07109(13) 0.5836(3) 0.71959(9)
H26 H 0.0337 0.5433 0.6923
H27 H 0.0841 0.4944 0.7433
C41 C 0.03546(12) 0.7165(3) 0.74694(9)
H28 H 0.0231 0.8063 0.7233
H29 H 0.0727 0.7558 0.7745
C42 C -0.03562(12) 0.6663(3) 0.76867(9)
H30 H -0.0705 0.6150 0.7419
H31 H -0.0222 0.5859 0.7953
C43 C -0.07594(13) 0.8043(3) 0.79053(8)
H32 H -0.0424 0.8535 0.8179
H33 H -0.1214 0.7647 0.8036
H34 H -0.0901 0.8838 0.7643
C44 C 0.69431(11) 0.8643(3) 0.72896(8)
H35 H 0.7139 0.7754 0.7512
H36 H 0.6814 0.9544 0.7503
C45 C 0.75331(12) 0.9161(3) 0.69646(8)
H37 H 0.7945 0.9714 0.7177
H38 H 0.7304 0.9937 0.6712
C46 C 0.78666(12) 0.7789(3) 0.66937(8)
H39 H 0.7470 0.7333 0.6445
H40 H 0.8030 0.6941 0.6940
C47 C 0.85370(13) 0.8280(3) 0.64247(9)
H41 H 0.8381 0.9169 0.6192
H42 H 0.8944 0.8682 0.6677
C48 C 0.88478(14) 0.6934(4) 0.61301(11)
H43 H 0.8450 0.6544 0.5870
H44 H 0.9004 0.6035 0.6359
C49 C 0.50995(14) 0.6814(3) 0.84941(8)
H45 H 0.4793 0.7693 0.8601
H46 H 0.5619 0.6925 0.8655
H47 H 0.4892 0.5793 0.8592
C50? C 0.9629(3) 0.7077(17) 0.5965(5)
H48? H 0.9989 0.7421 0.6255
H49? H 0.9791 0.6013 0.5857
C51? C 0.9661(5) 0.8255(14) 0.5537(4)
H50? H 0.9478 0.9309 0.5637
H51? H 0.9322 0.7884 0.5240
C52? C 1.0455(5) 0.8436(18) 0.5394(5)
H52? H 1.0817 0.7962 0.5657
H53? H 1.0570 0.9572 0.5359
H54? H 1.0491 0.7889 0.5075
loop_
_geom_bond_atom_site_label_1
_geom_bond_atom_site_label_2
_geom_bond_site_symmetry_1
_geom_bond_site_symmetry_2
C1 H1 1_555 1_555
H2 C1 1_555 1_555
C2 C1 1_555 1_555
H3 C2 1_555 1_555
H4 C2 1_555 1_555
C3 C2 1_555 1_555
H5 C3 1_555 1_555
H6 C3 1_555 1_555
H7 C3 1_555 1_555
O1 C35 1_555 1_555
O2 C31 1_555 1_555
N1 C4 1_555 1_555
N2 C25 1_555 1_555
N3 C26 1_555 1_555
N4 C28 1_555 1_555
N5 C29 1_555 1_555
C4 C5 1_555 1_555
C5 H8 1_555 1_555
C6 C5 1_555 1_555
C7 C6 1_555 1_555
C8 C7 1_555 1_555
C9 C4 1_555 1_555
C10 C9 1_555 1_555
C11 N1 1_555 1_555
C12 C11 1_555 1_555
H9 C12 1_555 1_555
C13 C12 1_555 1_555
C14 C13 1_555 1_555
C15 C10 1_555 1_555
C16 C15 1_555 1_555
C17 C16 1_555 1_555
H10 C17 1_555 1_555
C18 C17 1_555 1_555
H11 C18 1_555 1_555
C19 C14 1_555 1_555
H12 C19 1_555 1_555
C20 C7 1_555 1_555
H13 C20 1_555 1_555
C21 C20 1_555 1_555
H14 C21 1_555 1_555
C22 C21 1_555 1_555
H15 C22 1_555 1_555
C23 C8 1_555 1_555
C24 C6 1_555 1_555
C25 C24 1_555 1_555
C26 C24 1_555 1_555
C27 C13 1_555 1_555
C28 C27 1_555 1_555
C29 C27 1_555 1_555
C30 N1 1_555 1_555
C31 C30 1_555 1_555
C32 C31 1_555 1_555
H16 C32 1_555 1_555
C33 C32 1_555 1_555
C34 C33 1_555 1_555
H17 C34 1_555 1_555
C35 C30 1_555 1_555
C36 O2 1_555 1_555
H18 C36 1_555 1_555
H19 C36 1_555 1_555
C37 C36 1_555 1_555
H20 C37 1_555 1_555
H21 C37 1_555 1_555
C38 C37 1_555 1_555
H22 C38 1_555 1_555
H23 C38 1_555 1_555
C39 C38 1_555 1_555
H24 C39 1_555 1_555
H25 C39 1_555 1_555
C40 C39 1_555 1_555
H26 C40 1_555 1_555
H27 C40 1_555 1_555
C41 C40 1_555 1_555
H28 C41 1_555 1_555
H29 C41 1_555 1_555
C42 C41 1_555 1_555
H30 C42 1_555 1_555
H31 C42 1_555 1_555
C43 C42 1_555 1_555
H32 C43 1_555 1_555
H33 C43 1_555 1_555
H34 C43 1_555 1_555
C44 O1 1_555 1_555
H35 C44 1_555 1_555
H36 C44 1_555 1_555
C45 C44 1_555 1_555
H37 C45 1_555 1_555
H38 C45 1_555 1_555
C46 C45 1_555 1_555
H39 C46 1_555 1_555
H40 C46 1_555 1_555
C47 C46 1_555 1_555
H41 C47 1_555 1_555
H42 C47 1_555 1_555
C48 C1 1_555 1_555
H43 C48 1_555 1_555
H44 C48 1_555 1_555
C49 C33 1_555 1_555
H45 C49 1_555 1_555
H46 C49 1_555 1_555
H47 C49 1_555 1_555
C8 C9 1_555 1_555
C10 C11 1_555 1_555
C14 C15 1_555 1_555
C16 C23 1_555 1_555
C18 C19 1_555 1_555
C22 C23 1_555 1_555
C34 C35 1_555 1_555
C47 C48 1_555 1_555

#END
