
#######################################################################
#
#                 Cambridge Crystallographic Data Centre
#                                CCDC 
#
#######################################################################
#
# If this CIF has been generated from an entry in the Cambridge 
# Structural Database, then it will include bibliographic, chemical, 
# crystal, experimental, refinement or atomic coordinate data resulting 
# from the CCDC's data processing and validation procedures.
#
#######################################################################

data_RUKMOB
_chemical_formula_moiety         'C53 H51 N3 O2 S2'
_chemical_name_systematic        
(10-(1,3-benzodithiol-2-ylidene)-1-(4-methyl-2,6-bis(octyloxy)phenyl)-1,10-dihydro-3H-phenanthro[1,10,9,8-cdefg]carbazol-3-ylidene)malononitrile
_symmetry_cell_setting           triclinic
_symmetry_space_group_name_H-M   'P -1'
_symmetry_Int_Tables_number      2
_space_group_name_Hall           '-P 1'
loop_
_symmetry_equiv_pos_site_id
_symmetry_equiv_pos_as_xyz
1 x,y,z
2 -x,-y,-z
_cell_length_a                   9.2392(4)
_cell_length_b                   15.2056(6)
_cell_length_c                   15.3450(6)
_cell_angle_alpha                94.7350(18)
_cell_angle_beta                 105.0450(18)
_cell_angle_gamma                94.6510(18)
_cell_volume                     2062.98
_exptl_crystal_colour            'dark red'
_exptl_crystal_description       Needle
_cell_formula_units_Z            2
loop_
_atom_site_label
_atom_site_type_symbol
_atom_site_fract_x
_atom_site_fract_y
_atom_site_fract_z
S1 S 1.00032(6) 1.00010(3) 0.74504(3)
S2 S 1.00197(6) 0.81074(3) 0.76264(3)
O1 O 0.51169(17) 0.66516(9) 0.87474(10)
O2 O 0.90926(17) 0.69233(9) 1.13751(9)
N1 N 0.70711(19) 0.76747(10) 1.01501(11)
N2 N 0.3504(2) 0.90189(12) 1.37930(13)
N3 N 0.4364(2) 0.64613(12) 1.27778(13)
C1 C 0.7637(2) 0.83281(13) 0.96791(13)
C2 C 0.8348(2) 0.83370(13) 0.90090(13)
H1 H 0.8569 0.7796 0.8742
C3 C 0.8774(2) 0.91779(13) 0.86978(13)
C4 C 0.8422(2) 1.00318(13) 0.91063(13)
C5 C 0.8758(2) 1.08982(13) 0.89043(13)
H2 H 0.9280 1.0990 0.8456
C6 C 0.8329(2) 1.16238(13) 0.93577(13)
H3 H 0.8570 1.2199 0.9201
C7 C 0.7572(2) 1.15540(13) 1.00239(13)
H4 H 0.7294 1.2070 1.0306
C8 C 0.7220(2) 1.07141(13) 1.02776(13)
C9 C 0.7669(2) 0.99865(13) 0.98019(13)
C10 C 0.7337(2) 0.91469(13) 1.00540(13)
C11 C 0.6652(2) 0.90118(13) 1.07179(13)
C12 C 0.6478(2) 0.80983(13) 1.08029(13)
C13 C 0.5815(2) 0.78256(13) 1.14557(13)
H5 H 0.5710 0.7215 1.1544
C14 C 0.5284(2) 0.84723(13) 1.20016(13)
C15 C 0.5459(2) 0.94352(13) 1.18808(13)
C16 C 0.6174(2) 0.96823(13) 1.12141(13)
C17 C 0.6446(2) 1.05631(13) 1.09922(13)
C18 C 0.5915(2) 1.12218(13) 1.14810(13)
H6 H 0.6036 1.1822 1.1360
C19 C 0.5212(2) 1.10036(13) 1.21421(13)
H7 H 0.4873 1.1466 1.2469
C20 C 0.4978(2) 1.01348(13) 1.23497(13)
H8 H 0.4493 1.0018 1.2809
C21 C 0.4593(2) 0.81452(13) 1.26464(13)
C22 C 0.4004(2) 0.86491(14) 1.32712(14)
C23 C 0.4459(2) 0.72138(14) 1.27267(13)
C24 C 0.9509(2) 0.91256(13) 0.80152(13)
C25 C 1.0817(2) 0.93992(14) 0.67198(13)
C26 C 1.1444(2) 0.97811(14) 0.60886(14)
H9 H 1.1434 1.0398 0.6031
C27 C 1.2083(3) 0.92478(15) 0.55465(14)
H10 H 1.2517 0.9501 0.5115
C28 C 1.2094(2) 0.83427(15) 0.56286(14)
H11 H 1.2537 0.7984 0.5254
C29 C 1.1463(2) 0.79610(14) 0.62519(14)
H12 H 1.1467 0.7343 0.6305
C30 C 1.0822(2) 0.84938(13) 0.67996(13)
C31 C 0.7155(2) 0.67421(13) 1.00303(13)
C32 C 0.6141(2) 0.62096(13) 0.93065(13)
C33 C 0.6232(2) 0.52980(13) 0.92023(14)
H13 H 0.5566 0.4937 0.8700
C34 C 0.7298(3) 0.49186(13) 0.98334(14)
C35 C 0.8278(2) 0.54420(13) 1.05736(14)
H14 H 0.8994 0.5177 1.1008
C36 C 0.8203(2) 0.63556(13) 1.06729(13)
C37 C 0.7399(3) 0.39327(14) 0.97272(15)
H15 H 0.6637 0.3626 0.9968
H16 H 0.8404 0.3807 1.0062
H17 H 0.7221 0.3725 0.9083
C38 C 0.3913(2) 0.61486(14) 0.80514(14)
H18 H 0.3021 0.6486 0.7936
H19 H 0.3630 0.5583 0.8272
C39 C 0.4326(2) 0.59468(14) 0.71701(14)
H20 H 0.5124 0.5540 0.7264
H21 H 0.4735 0.6504 0.6988
C40 C 0.2973(2) 0.55230(14) 0.64116(14)
H22 H 0.2611 0.4948 0.6581
H23 H 0.2150 0.5911 0.6354
C41 C 0.3311(3) 0.53669(14) 0.54949(14)
H24 H 0.4061 0.4932 0.5536
H25 H 0.3766 0.5931 0.5353
C42 C 0.1922(2) 0.50260(14) 0.47231(14)
H26 H 0.1221 0.5490 0.4638
H27 H 0.1403 0.4500 0.4895
C43 C 0.2283(2) 0.47744(14) 0.38258(14)
H28 H 0.2734 0.5311 0.3630
H29 H 0.3042 0.4343 0.3922
C44 C 0.0906(2) 0.43717(14) 0.30726(14)
H30 H 0.0144 0.4801 0.2977
H31 H 0.0458 0.3832 0.3265
C45 C 0.1284(3) 0.41277(14) 0.21766(14)
H32 H 0.1710 0.4661 0.1976
H33 H 0.0364 0.3874 0.1716
H34 H 0.2019 0.3691 0.2263
C46 C 0.9958(2) 0.65383(14) 1.21417(14)
H35 H 1.0729 0.6202 1.1964
H36 H 0.9291 0.6126 1.2369
C47 C 1.0707(2) 0.72860(14) 1.28715(14)
H37 H 1.1282 0.7720 1.2608
H38 H 1.1440 0.7041 1.3358
C48 C 0.9639(3) 0.77790(14) 1.32986(14)
H39 H 1.0208 0.8321 1.3672
H40 H 0.8837 0.7968 1.2807
C49 C 0.8901(3) 0.72360(14) 1.38915(15)
H41 H 0.9695 0.6988 1.4341
H42 H 0.8230 0.6732 1.3505
C50 C 0.7986(2) 0.77781(14) 1.43943(14)
H43 H 0.8658 0.8285 1.4774
H44 H 0.7190 0.8022 1.3943
C51 C 0.7248(3) 0.72498(14) 1.49992(15)
H45 H 0.6832 0.6658 1.4670
H46 H 0.8036 0.7158 1.5550
C52 C 0.5990(3) 0.76809(15) 1.52924(15)
H47 H 0.5130 0.7682 1.4751
H48 H 0.5642 0.7311 1.5716
C53 C 0.6425(3) 0.86230(15) 1.57486(16)
H49 H 0.7241 0.8628 1.6304
H50 H 0.5550 0.8852 1.5901
H51 H 0.6766 0.8998 1.5335
loop_
_geom_bond_atom_site_label_1
_geom_bond_atom_site_label_2
_geom_bond_site_symmetry_1
_geom_bond_site_symmetry_2
S1 C24 1_555 1_555
S2 C24 1_555 1_555
O1 C32 1_555 1_555
O2 C36 1_555 1_555
N1 C1 1_555 1_555
N2 C22 1_555 1_555
N3 C23 1_555 1_555
C1 C2 1_555 1_555
C2 H1 1_555 1_555
C3 C2 1_555 1_555
C4 C3 1_555 1_555
C5 C4 1_555 1_555
H2 C5 1_555 1_555
C6 C5 1_555 1_555
H3 C6 1_555 1_555
C7 C6 1_555 1_555
H4 C7 1_555 1_555
C8 C7 1_555 1_555
C9 C4 1_555 1_555
C10 C1 1_555 1_555
C11 C10 1_555 1_555
C12 N1 1_555 1_555
C13 C12 1_555 1_555
H5 C13 1_555 1_555
C14 C13 1_555 1_555
C15 C14 1_555 1_555
C16 C11 1_555 1_555
C17 C8 1_555 1_555
C18 C17 1_555 1_555
H6 C18 1_555 1_555
C19 C18 1_555 1_555
H7 C19 1_555 1_555
C20 C15 1_555 1_555
H8 C20 1_555 1_555
C21 C14 1_555 1_555
C22 C21 1_555 1_555
C23 C21 1_555 1_555
C24 C3 1_555 1_555
C25 S1 1_555 1_555
C26 C25 1_555 1_555
H9 C26 1_555 1_555
C27 C26 1_555 1_555
H10 C27 1_555 1_555
C28 C27 1_555 1_555
H11 C28 1_555 1_555
C29 C28 1_555 1_555
H12 C29 1_555 1_555
C30 S2 1_555 1_555
C31 N1 1_555 1_555
C32 C31 1_555 1_555
C33 C32 1_555 1_555
H13 C33 1_555 1_555
C34 C33 1_555 1_555
C35 C34 1_555 1_555
H14 C35 1_555 1_555
C36 C31 1_555 1_555
C37 C34 1_555 1_555
H15 C37 1_555 1_555
H16 C37 1_555 1_555
H17 C37 1_555 1_555
C38 O1 1_555 1_555
H18 C38 1_555 1_555
H19 C38 1_555 1_555
C39 C38 1_555 1_555
H20 C39 1_555 1_555
H21 C39 1_555 1_555
C40 C39 1_555 1_555
H22 C40 1_555 1_555
H23 C40 1_555 1_555
C41 C40 1_555 1_555
H24 C41 1_555 1_555
H25 C41 1_555 1_555
C42 C41 1_555 1_555
H26 C42 1_555 1_555
H27 C42 1_555 1_555
C43 C42 1_555 1_555
H28 C43 1_555 1_555
H29 C43 1_555 1_555
C44 C43 1_555 1_555
H30 C44 1_555 1_555
H31 C44 1_555 1_555
C45 C44 1_555 1_555
H32 C45 1_555 1_555
H33 C45 1_555 1_555
H34 C45 1_555 1_555
C46 O2 1_555 1_555
H35 C46 1_555 1_555
H36 C46 1_555 1_555
C47 C46 1_555 1_555
H37 C47 1_555 1_555
H38 C47 1_555 1_555
C48 C47 1_555 1_555
H39 C48 1_555 1_555
H40 C48 1_555 1_555
C49 C48 1_555 1_555
H41 C49 1_555 1_555
H42 C49 1_555 1_555
C50 C49 1_555 1_555
H43 C50 1_555 1_555
H44 C50 1_555 1_555
C51 C50 1_555 1_555
H45 C51 1_555 1_555
H46 C51 1_555 1_555
C52 C51 1_555 1_555
H47 C52 1_555 1_555
H48 C52 1_555 1_555
C53 C52 1_555 1_555
H49 C53 1_555 1_555
H50 C53 1_555 1_555
H51 C53 1_555 1_555
C8 C9 1_555 1_555
C9 C10 1_555 1_555
C11 C12 1_555 1_555
C15 C16 1_555 1_555
C16 C17 1_555 1_555
C19 C20 1_555 1_555
C25 C30 1_555 1_555
C29 C30 1_555 1_555
C35 C36 1_555 1_555

#END
