
#######################################################################
#
#                 Cambridge Crystallographic Data Centre
#                                CCDC 
#
#######################################################################
#
# If this CIF has been generated from an entry in the Cambridge 
# Structural Database, then it will include bibliographic, chemical, 
# crystal, experimental, refinement or atomic coordinate data resulting 
# from the CCDC's data processing and validation procedures.
#
#######################################################################

data_RUKNES
_chemical_formula_moiety         'C14 H18 Cl1 N1 O1'
_chemical_name_systematic        
N-t-butyl-3-(4-chlorophenyl)-2-methylacrylamide
_symmetry_cell_setting           monoclinic
_symmetry_space_group_name_H-M   'P 21/c'
_symmetry_Int_Tables_number      14
_space_group_name_Hall           '-P 2ybc'
loop_
_symmetry_equiv_pos_site_id
_symmetry_equiv_pos_as_xyz
1 x,y,z
2 -x,1/2+y,1/2-z
3 -x,-y,-z
4 x,1/2-y,1/2+z
_cell_length_a                   17.401(3)
_cell_length_b                   8.6470(17)
_cell_length_c                   9.4509(18)
_cell_angle_alpha                90
_cell_angle_beta                 100.955(3)
_cell_angle_gamma                90
_cell_volume                     1396.13
_exptl_crystal_colour            white
_exptl_crystal_description       platy
_cell_formula_units_Z            4
loop_
_atom_site_label
_atom_site_type_symbol
_atom_site_fract_x
_atom_site_fract_y
_atom_site_fract_z
Cl1 Cl 0.04294(2) 1.33214(5) 0.45746(4)
O1 O 0.32137(8) 0.74080(14) 0.85192(12)
N1 N 0.32936(7) 0.85566(14) 0.63934(13)
H1 H 0.3122 0.8514 0.5456
C1 C 0.08268(9) 1.14682(17) 0.48570(17)
C2 C 0.07126(9) 1.04167(18) 0.37361(17)
H2 H 0.0430 1.0700 0.2812
C3 C 0.10188(9) 0.89388(19) 0.39852(17)
H3 H 0.0938 0.8206 0.3222
C4 C 0.14423(9) 0.85047(18) 0.53283(16)
C5 C 0.15361(9) 0.95913(18) 0.64418(16)
H4 H 0.1811 0.9309 0.7373
C6 C 0.12354(9) 1.10722(18) 0.62132(16)
H5 H 0.1308 1.1806 0.6975
C7 C 0.17448(9) 0.69072(18) 0.55513(17)
H6 H 0.1425 0.6121 0.5041
C8 C 0.24095(9) 0.64336(18) 0.63780(17)
C9 C 0.26124(11) 0.47444(19) 0.6610(2)
H7 H 0.2199 0.4112 0.6040
H8 H 0.2660 0.4491 0.7633
H9 H 0.3110 0.4533 0.6307
C10 C 0.30068(9) 0.75178(17) 0.71953(16)
C11 C 0.38730(9) 0.97748(19) 0.69254(16)
C12 C 0.46557(11) 0.9044(2) 0.7567(2)
H10 H 0.4600 0.8422 0.8409
H11 H 0.5045 0.9858 0.7861
H12 H 0.4827 0.8380 0.6845
C13 C 0.35839(11) 1.0791(2) 0.8035(2)
H13 H 0.3082 1.1259 0.7600
H14 H 0.3968 1.1608 0.8356
H15 H 0.3516 1.0159 0.8864
C14 C 0.39405(13) 1.0749(2) 0.5613(2)
H16 H 0.3431 1.1210 0.5215
H17 H 0.4108 1.0093 0.4882
H18 H 0.4326 1.1572 0.5897
loop_
_geom_bond_atom_site_label_1
_geom_bond_atom_site_label_2
_geom_bond_site_symmetry_1
_geom_bond_site_symmetry_2
Cl1 C1 1_555 1_555
O1 C10 1_555 1_555
N1 H1 1_555 1_555
C1 C2 1_555 1_555
C2 H2 1_555 1_555
C3 C2 1_555 1_555
H3 C3 1_555 1_555
C4 C3 1_555 1_555
C5 C4 1_555 1_555
H4 C5 1_555 1_555
C6 C1 1_555 1_555
H5 C6 1_555 1_555
C7 C4 1_555 1_555
H6 C7 1_555 1_555
C8 C7 1_555 1_555
C9 C8 1_555 1_555
H7 C9 1_555 1_555
H8 C9 1_555 1_555
H9 C9 1_555 1_555
C10 N1 1_555 1_555
C11 N1 1_555 1_555
C12 C11 1_555 1_555
H10 C12 1_555 1_555
H11 C12 1_555 1_555
H12 C12 1_555 1_555
C13 C11 1_555 1_555
H13 C13 1_555 1_555
H14 C13 1_555 1_555
H15 C13 1_555 1_555
C14 C11 1_555 1_555
H16 C14 1_555 1_555
H17 C14 1_555 1_555
H18 C14 1_555 1_555
C5 C6 1_555 1_555
C8 C10 1_555 1_555

#END
