
#######################################################################
#
#                 Cambridge Crystallographic Data Centre
#                                CCDC 
#
#######################################################################
#
# If this CIF has been generated from an entry in the Cambridge 
# Structural Database, then it will include bibliographic, chemical, 
# crystal, experimental, refinement or atomic coordinate data resulting 
# from the CCDC's data processing and validation procedures.
#
#######################################################################

data_RUKPEU
_chemical_formula_moiety         'C34 H38 N6 O5,C2 H3 N1'
_chemical_name_systematic        
'8-t-butyl-20,23,26,29,32-pentaoxa-2,3,4,12,13,14-hexaazahexacyclo[31.3.1.1^2,5^.1^6,10^.1^11,14^.1^15,19^]hentetraconta-1(37),3,5(41),6(40),7,9,11(39),12,15(38),16,18,33,35-tridecaene acetonitrile solvate'
_symmetry_cell_setting           triclinic
_symmetry_space_group_name_H-M   'P -1'
_symmetry_Int_Tables_number      2
_space_group_name_Hall           '-P 1'
loop_
_symmetry_equiv_pos_site_id
_symmetry_equiv_pos_as_xyz
1 x,y,z
2 -x,-y,-z
_cell_length_a                   12.0155(3)
_cell_length_b                   12.3473(3)
_cell_length_c                   12.6380(4)
_cell_angle_alpha                105.8020(10)
_cell_angle_beta                 105.3960(10)
_cell_angle_gamma                100.8650(10)
_cell_volume                     1669.22
_exptl_crystal_colour            colorless
_exptl_crystal_description       plate
_cell_formula_units_Z            2
loop_
_atom_site_label
_atom_site_type_symbol
_atom_site_fract_x
_atom_site_fract_y
_atom_site_fract_z
C1 C 1.2831(3) -0.3320(2) -0.0804(4)
H1 H 1.3308 -0.3867 -0.0904
H2 H 1.2176 -0.3512 -0.1528
H3 H 1.2505 -0.3372 -0.0189
C2 C 1.4197(3) -0.2033(3) -0.1405(3)
H4 H 1.4689 -0.2571 -0.1445
H5 H 1.4696 -0.1242 -0.1203
H6 H 1.3575 -0.2252 -0.2157
C3 C 1.4629(3) -0.1766(3) 0.0660(2)
H7 H 1.5100 -0.2323 0.0584
H8 H 1.4298 -0.1786 0.1278
H9 H 1.5141 -0.0983 0.0849
C4 C 1.36153(18) -0.20848(17) -0.04782(18)
C5 C 1.28330(16) -0.12321(15) -0.04201(17)
C6 C 1.29689(17) -0.03705(15) 0.06143(16)
H10 H 1.3554 -0.0305 0.1309
C7 C 1.22527(16) 0.04026(15) 0.06444(16)
C8 C 1.13779(16) 0.02930(15) -0.03777(16)
H11 H 1.0877 0.0793 -0.0361
C9 C 1.12351(16) -0.05496(15) -0.14258(16)
C10 C 1.19571(17) -0.13070(15) -0.14363(17)
H12 H 1.1853 -0.1883 -0.2145
C11 C 1.24459(17) 0.13555(16) 0.17246(16)
C12 C 1.18360(17) 0.21778(16) 0.19127(16)
H13 H 1.1163 0.2240 0.1374
N1 N 1.33543(19) 0.15872(17) 0.27339(15)
N2 N 1.33297(19) 0.25148(18) 0.35286(15)
N3 N 1.24008(15) 0.28790(14) 0.30305(13)
C13 C 1.03465(16) -0.06015(16) -0.25051(16)
C14 C 0.96923(17) 0.01665(17) -0.26783(17)
H14 H 0.9713 0.0860 -0.2122
N4 N 1.00488(16) -0.14795(14) -0.35418(15)
N5 N 0.92339(16) -0.12909(15) -0.43379(16)
N6 N 0.90130(14) -0.02812(14) -0.38129(14)
C15 C 1.21702(18) 0.39109(16) 0.36786(16)
C16 C 1.3033(2) 0.46562(19) 0.47169(18)
H15 H 1.3759 0.4487 0.5013
C17 C 1.2800(2) 0.5656(2) 0.53078(19)
H16 H 1.3381 0.6173 0.6015
C18 C 1.1737(2) 0.59237(18) 0.48922(18)
H17 H 1.1594 0.6609 0.5311
C19 C 1.08886(19) 0.51643(16) 0.38493(16)
C20 C 1.10985(18) 0.41447(16) 0.32383(16)
H18 H 1.0516 0.3622 0.2534
C21 C 0.81248(17) 0.01470(17) -0.44476(17)
C22 C 0.79174(19) -0.00691(19) -0.56268(18)
H19 H 0.8359 -0.0479 -0.6015
C23 C 0.7038(2) 0.0339(2) -0.62129(19)
H20 H 0.6877 0.0195 -0.7016
C24 C 0.6387(2) 0.09524(19) -0.56562(19)
H21 H 0.5788 0.1215 -0.6076
C25 C 0.66267(18) 0.11765(18) -0.44673(18)
C26 C 0.74984(18) 0.07570(18) -0.38618(18)
H22 H 0.7656 0.0890 -0.3061
O1 O 0.60612(14) 0.17763(14) -0.38128(13)
C27 C 0.5083(2) 0.2134(2) -0.4419(2)
H23 H 0.4480 0.1451 -0.5041
H24 H 0.5379 0.2691 -0.4773
C28 C 0.4536(3) 0.2693(2) -0.3568(2)
H25 H 0.3664 0.2448 -0.3965
H26 H 0.4687 0.2360 -0.2941
O2 O 0.4877(3) 0.3878(3) -0.3060(3)
C29 C 0.6037(4) 0.4230(5) -0.2255(5)
H27 H 0.6638 0.4370 -0.2633
H28 H 0.6173 0.3630 -0.1903
C30 C 0.6110(12) 0.5349(8) -0.1345(8)
O3 O 0.7318(3) 0.5783(3) -0.0552(3)
C31 C 0.7431(3) 0.6839(2) 0.0359(2)
H29 H 0.6790 0.7171 0.0052
H30 H 0.8257 0.7031 0.0347
H31 H 0.6800 0.5675 -0.1904
C32 C 0.7392(2) 0.6790(3) 0.1497(2)
H32 H 0.7349 0.7547 0.1966
H33 H 0.6668 0.6189 0.1381
O4 O 0.84162(14) 0.65292(14) 0.21000(13)
C33 C 0.8352(2) 0.6380(2) 0.31565(19)
H34 H 0.7759 0.5636 0.2984
H35 H 0.8091 0.7016 0.3585
C34 C 0.9553(2) 0.63812(19) 0.38891(18)
H36 H 1.0173 0.7067 0.3966
H37 H 0.9545 0.6416 0.4671
O5 O 0.98078(13) 0.53248(12) 0.33321(12)
H38 H 0.5817 0.6225 -0.1503
C35 C 1.1050(4) 0.6123(4) 0.1480(4)
H39 H 1.0377 0.5727 0.1651
H40 H 1.1687 0.6611 0.2204
H41 H 1.1346 0.5544 0.1031
C36 C 1.0659(2) 0.6849(2) 0.0811(3)
N7 N 1.0344(2) 0.7424(2) 0.0300(3)
O6? O 0.5485(6) 0.3660(6) -0.2429(6)
C37? C 0.5384(8) 0.4819(7) -0.2433(9)
C38? C 0.639(2) 0.5674(17) -0.1497(11)
O7? O 0.6279(6) 0.5869(5) -0.0383(5)
O8? O 0.5600(9) 0.3880(8) -0.3063(9)
C39? C 0.5336(12) 0.4448(12) -0.2038(11)
C40? C 0.621(3) 0.560(2) -0.1498(16)
O9? O 0.6780(11) 0.5653(8) -0.0334(9)
H42? H 0.8196 0.7399 0.0499
H43? H 0.8140 0.6650 0.0199
H44? H 0.7389 0.7598 0.0276
H45? H 0.7117 0.5418 -0.1495
H46? H 0.7025 0.7394 0.0121
H47? H 0.6504 0.6419 -0.1647
H48? H 0.5547 0.5193 -0.0932
H49? H 0.4515 0.4522 -0.2252
H50? H 0.4630 0.4926 -0.2322
H51? H 0.3957 0.3051 -0.3945
H52? H 0.3750 0.2787 -0.3939
H53? H 0.4094 0.2086 -0.3351
H54? H 0.4494 0.2306 -0.2993
H55? H 0.5909 0.5923 -0.1711
H56? H 0.5419 0.4000 -0.1504
H57? H 0.5389 0.4904 -0.3181
loop_
_geom_bond_atom_site_label_1
_geom_bond_atom_site_label_2
_geom_bond_site_symmetry_1
_geom_bond_site_symmetry_2
C1 H1 1_555 1_555
H2 C1 1_555 1_555
H3 C1 1_555 1_555
C2 H4 1_555 1_555
H5 C2 1_555 1_555
H6 C2 1_555 1_555
C3 H7 1_555 1_555
H8 C3 1_555 1_555
H9 C3 1_555 1_555
C4 C1 1_555 1_555
C5 C4 1_555 1_555
C6 C5 1_555 1_555
H10 C6 1_555 1_555
C7 C6 1_555 1_555
C8 C7 1_555 1_555
H11 C8 1_555 1_555
C9 C8 1_555 1_555
C10 C5 1_555 1_555
H12 C10 1_555 1_555
C11 C7 1_555 1_555
C12 C11 1_555 1_555
H13 C12 1_555 1_555
N1 C11 1_555 1_555
N2 N1 1_555 1_555
N3 C12 1_555 1_555
C13 C9 1_555 1_555
C14 C13 1_555 1_555
H14 C14 1_555 1_555
N4 C13 1_555 1_555
N5 N4 1_555 1_555
N6 C14 1_555 1_555
C15 N3 1_555 1_555
C16 C15 1_555 1_555
H15 C16 1_555 1_555
C17 C16 1_555 1_555
H16 C17 1_555 1_555
C18 C17 1_555 1_555
H17 C18 1_555 1_555
C19 C18 1_555 1_555
C20 C15 1_555 1_555
H18 C20 1_555 1_555
C21 N6 1_555 1_555
C22 C21 1_555 1_555
H19 C22 1_555 1_555
C23 C22 1_555 1_555
H20 C23 1_555 1_555
C24 C23 1_555 1_555
H21 C24 1_555 1_555
C25 C24 1_555 1_555
C26 C21 1_555 1_555
H22 C26 1_555 1_555
O1 C25 1_555 1_555
C27 O1 1_555 1_555
H23 C27 1_555 1_555
H24 C27 1_555 1_555
C28 C27 1_555 1_555
H25 C28 1_555 1_555
H26 C28 1_555 1_555
O2 C28 1_555 1_555
C29 O2 1_555 1_555
H27 C29 1_555 1_555
H28 C29 1_555 1_555
C30 C29 1_555 1_555
O3 C30 1_555 1_555
C31 O3 1_555 1_555
H29 C31 1_555 1_555
H30 C31 1_555 1_555
H31 C30 1_555 1_555
C32 C31 1_555 1_555
H32 C32 1_555 1_555
H33 C32 1_555 1_555
O4 C32 1_555 1_555
C33 O4 1_555 1_555
H34 C33 1_555 1_555
H35 C33 1_555 1_555
C34 C33 1_555 1_555
H36 C34 1_555 1_555
H37 C34 1_555 1_555
O5 C19 1_555 1_555
H38 C30 1_555 1_555
C35 H39 1_555 1_555
H40 C35 1_555 1_555
H41 C35 1_555 1_555
C36 C35 1_555 1_555
N7 C36 1_555 1_555
C2 C4 1_555 1_555
C3 C4 1_555 1_555
C9 C10 1_555 1_555
N2 N3 1_555 1_555
N5 N6 1_555 1_555
C19 C20 1_555 1_555
C25 C26 1_555 1_555
C34 O5 1_555 1_555

#END
