
#######################################################################
#
#                 Cambridge Crystallographic Data Centre
#                                CCDC 
#
#######################################################################
#
# If this CIF has been generated from an entry in the Cambridge 
# Structural Database, then it will include bibliographic, chemical, 
# crystal, experimental, refinement or atomic coordinate data resulting 
# from the CCDC's data processing and validation procedures.
#
#######################################################################

data_RUKQIY
_chemical_name_common            
4-(3-Methylphenyl)-3-phenyl-5-(2-pyridyl)-4H-1,2,4-triazole
_chemical_formula_moiety         'C20 H16 N4'
_chemical_name_systematic        
2-(4-(3-Methylphenyl)-5-phenyl-4H-1,2,4-triazol-3-yl)pyridine
_symmetry_cell_setting           monoclinic
_symmetry_space_group_name_H-M   'P 21/c'
_symmetry_Int_Tables_number      14
_space_group_name_Hall           '-P 2ybc'
loop_
_symmetry_equiv_pos_site_id
_symmetry_equiv_pos_as_xyz
1 x,y,z
2 -x,1/2+y,1/2-z
3 -x,-y,-z
4 x,1/2-y,1/2+z
_cell_length_a                   11.246(3)
_cell_length_b                   9.377(2)
_cell_length_c                   18.956(5)
_cell_angle_alpha                90
_cell_angle_beta                 124.655(16)
_cell_angle_gamma                90
_cell_volume                     1644.34
_exptl_crystal_colour            colorless
_exptl_crystal_description       block
_cell_formula_units_Z            4
_exptl_crystal_recrystallization_method water
loop_
_atom_site_label
_atom_site_type_symbol
_atom_site_fract_x
_atom_site_fract_y
_atom_site_fract_z
C1 C 0.91724(18) -0.14398(19) 0.88581(11)
C2 C 0.74890(17) -0.02378(18) 0.77576(11)
C3 C 1.05742(18) -0.1952(2) 0.95950(11)
C4 C 1.0759(2) -0.3404(2) 0.97830(14)
H1 H 1.0017 -0.4038 0.9427
C5 C 1.2038(2) -0.3906(2) 1.04945(15)
H2 H 1.2151 -0.4876 1.0619
C6 C 1.3143(2) -0.2978(3) 1.10189(14)
H3 H 1.4005 -0.3317 1.1498
C7 C 1.2969(2) -0.1545(2) 1.08313(12)
H4 H 1.3719 -0.0917 1.1186
C8 C 1.16981(19) -0.1029(2) 1.01265(11)
H5 H 1.1594 -0.0058 1.0007
C9 C 0.67146(17) 0.07496(19) 0.70258(10)
C10 C 0.6617(2) 0.1881(3) 0.59246(13)
H6 H 0.7040 0.2101 0.5636
C11 C 0.5267(2) 0.2440(2) 0.56156(13)
H7 H 0.4792 0.3009 0.5127
C12 C 0.4644(2) 0.2140(2) 0.60434(13)
H8 H 0.3740 0.2507 0.5852
C13 C 0.53747(18) 0.1287(2) 0.67597(12)
H9 H 0.4973 0.1074 0.7062
C14 C 1.00456(17) 0.05403(19) 0.83598(10)
C15 C 1.08632(18) -0.0030(2) 0.80966(11)
H10 H 1.0713 -0.0967 0.7903
C16 C 1.19103(19) 0.0793(2) 0.81200(13)
C17 C 1.2116(2) 0.2171(3) 0.84272(14)
H11 H 1.2815 0.2735 0.8447
C18 C 1.1320(2) 0.2735(2) 0.87042(13)
H12 H 1.1494 0.3660 0.8917
C19 C 1.0255(2) 0.1913(2) 0.86644(12)
H13 H 0.9695 0.2283 0.8840
C20 C 1.2756(3) 0.0194(3) 0.7795(2)
H14 H 1.2660 0.0814 0.7363
H15 H 1.2390 -0.0734 0.7555
H16 H 1.3757 0.0120 0.8262
N1 N 0.68517(15) -0.12089(17) 0.79297(10)
N2 N 0.79217(16) -0.19790(17) 0.86336(10)
N3 N 0.89575(14) -0.03337(15) 0.83260(9)
N4 N 0.73453(16) 0.1044(2) 0.66152(10)
loop_
_geom_bond_atom_site_label_1
_geom_bond_atom_site_label_2
_geom_bond_site_symmetry_1
_geom_bond_site_symmetry_2
C1 C3 1_555 1_555
C2 C9 1_555 1_555
C3 C4 1_555 1_555
C4 H1 1_555 1_555
C5 C4 1_555 1_555
H2 C5 1_555 1_555
C6 C5 1_555 1_555
H3 C6 1_555 1_555
C7 C6 1_555 1_555
H4 C7 1_555 1_555
C8 C3 1_555 1_555
H5 C8 1_555 1_555
C9 C13 1_555 1_555
C10 H6 1_555 1_555
C11 C10 1_555 1_555
H7 C11 1_555 1_555
C12 C11 1_555 1_555
H8 C12 1_555 1_555
C13 C12 1_555 1_555
H9 C13 1_555 1_555
C14 C15 1_555 1_555
C15 H10 1_555 1_555
C16 C15 1_555 1_555
C17 C16 1_555 1_555
H11 C17 1_555 1_555
C18 C17 1_555 1_555
H12 C18 1_555 1_555
C19 C14 1_555 1_555
H13 C19 1_555 1_555
C20 C16 1_555 1_555
H14 C20 1_555 1_555
H15 C20 1_555 1_555
H16 C20 1_555 1_555
N1 C2 1_555 1_555
N2 C1 1_555 1_555
N3 C1 1_555 1_555
N4 C9 1_555 1_555
C2 N3 1_555 1_555
C7 C8 1_555 1_555
C10 N4 1_555 1_555
C14 N3 1_555 1_555
C18 C19 1_555 1_555
N1 N2 1_555 1_555

#END
