
#######################################################################
#
#                 Cambridge Crystallographic Data Centre
#                                CCDC 
#
#######################################################################
#
# If this CIF has been generated from an entry in the Cambridge 
# Structural Database, then it will include bibliographic, chemical, 
# crystal, experimental, refinement or atomic coordinate data resulting 
# from the CCDC's data processing and validation procedures.
#
#######################################################################

data_RUKROG
_chemical_formula_moiety         'C58 H68 O6 Si1'
_chemical_name_systematic        
'bis(Adamantan-2-yl) 4-((t-butyl(diphenyl)silyl)oxy)-6-(4-methoxyphenyl)-3-phenylcyclohept-3-ene-1,1-dicarboxylate'
_symmetry_cell_setting           monoclinic
_symmetry_space_group_name_H-M   'P 21/n'
_symmetry_Int_Tables_number      14
_space_group_name_Hall           '-P 2yn'
loop_
_symmetry_equiv_pos_site_id
_symmetry_equiv_pos_as_xyz
1 x,y,z
2 1/2-x,1/2+y,1/2-z
3 -x,-y,-z
4 1/2+x,1/2-y,1/2+z
_cell_length_a                   12.0240(10)
_cell_length_b                   26.231(2)
_cell_length_c                   15.7584(15)
_cell_angle_alpha                90
_cell_angle_beta                 94.182(2)
_cell_angle_gamma                90
_cell_volume                     4956.99
_exptl_crystal_colour            colorless
_exptl_crystal_description       prismatic
_cell_formula_units_Z            4
loop_
_atom_site_label
_atom_site_type_symbol
_atom_site_fract_x
_atom_site_fract_y
_atom_site_fract_z
Si1 Si 0.73685(9) 0.14771(4) 0.33708(7)
O1 O 0.7459(2) 0.13766(10) 0.44011(16)
O2 O 0.6839(3) -0.17507(13) 0.3901(3)
O3 O 0.6472(2) 0.08255(12) 0.6823(2)
O4 O 0.7750(2) 0.12472(11) 0.76632(17)
O5 O 0.8517(3) 0.01769(13) 0.8158(2)
O6 O 1.0094(2) 0.04794(13) 0.7699(2)
C1 C 0.8108(3) 0.10981(14) 0.4986(2)
C2 C 0.8230(3) 0.05406(15) 0.4793(3)
H1 H 0.9014 0.0449 0.4858
H2 H 0.7966 0.0478 0.4206
C3 C 0.7581(3) 0.02015(15) 0.5376(2)
H3 H 0.6854 0.0362 0.5430
C4 C 0.8145(3) 0.01414(14) 0.6274(2)
H4 H 0.8834 -0.0045 0.6223
H5 H 0.7668 -0.0074 0.6592
C5 C 0.8429(3) 0.06158(14) 0.6819(2)
C6 C 0.9172(3) 0.09978(15) 0.6371(2)
H6 H 0.9537 0.1222 0.6794
H7 H 0.9747 0.0811 0.6102
C7 C 0.8521(3) 0.13160(14) 0.5706(2)
C8 C 0.8304(3) 0.18608(14) 0.5896(2)
C9 C 0.9166(4) 0.21947(16) 0.6105(3)
H8 H 0.9897 0.2076 0.6145
C10 C 0.8958(5) 0.27003(18) 0.6256(3)
H9 H 0.9552 0.2922 0.6376
C11 C 0.7898(5) 0.28816(19) 0.6233(3)
H10 H 0.7768 0.3224 0.6345
C12 C 0.7017(4) 0.25560(19) 0.6043(3)
H11 H 0.6287 0.2675 0.6029
C13 C 0.7232(4) 0.20502(16) 0.5873(3)
H12 H 0.6637 0.1831 0.5740
C14 C 0.7370(3) -0.03209(14) 0.4980(2)
C15 C 0.6330(4) -0.04647(19) 0.4673(3)
H13 H 0.5741 -0.0239 0.4717
C16 C 0.6121(4) -0.0934(2) 0.4299(4)
H14 H 0.5404 -0.1016 0.4081
C17 C 0.6956(3) -0.12741(16) 0.4249(3)
C18 C 0.8014(4) -0.11396(17) 0.4542(3)
H15 H 0.8601 -0.1367 0.4497
C19 C 0.8208(3) -0.06692(17) 0.4902(3)
H16 H 0.8931 -0.0583 0.5100
C20 C 0.5767(5) -0.1920(3) 0.3678(6)
H17 H 0.5338 -0.1912 0.4168
H18 H 0.5795 -0.2263 0.3467
H19 H 0.5424 -0.1703 0.3244
C21 C 0.9010(3) 0.04025(15) 0.7648(3)
C22 C 1.0738(4) 0.0287(2) 0.8461(3)
H20 H 1.0340 0.0001 0.8701
C23 C 1.1856(5) 0.0110(2) 0.8211(4)
H21 H 1.1771 -0.0160 0.7782
C24 C 1.2466(6) -0.0092(2) 0.9038(4)
H22 H 1.2035 -0.0366 0.9267
H23 H 1.3186 -0.0229 0.8914
C25 C 1.2628(4) 0.0324(2) 0.9683(3)
H24 H 1.3034 0.0191 1.0197
C26 C 1.1503(6) 0.0517(3) 0.9899(4)
H25 H 1.1596 0.0792 1.0310
H26 H 1.1091 0.0244 1.0150
C27 C 1.0859(5) 0.0708(2) 0.9093(4)
H27 H 1.0120 0.0827 0.9229
C28 C 1.1485(6) 0.1131(2) 0.8757(4)
H28 H 1.1212 0.1463 0.8707
C29 C 1.2563(6) 0.0982(3) 0.8512(5)
H29 H 1.2950 0.1276 0.8286
C30 C 1.2521(5) 0.0553(3) 0.7889(4)
H30 H 1.3273 0.0441 0.7801
H31 H 1.2178 0.0669 0.7347
C31 C 1.3271(6) 0.0755(3) 0.9335(5)
H32 H 1.3990 0.0634 0.9177
H33 H 1.3397 0.1018 0.9763
C32 C 0.7414(3) 0.08995(15) 0.7087(2)
C33 C 0.6928(3) 0.15929(16) 0.7981(3)
H34 H 0.6382 0.1686 0.7514
C34 C 0.6339(4) 0.13571(19) 0.8682(4)
H35 H 0.5959 0.1045 0.8479
C35 C 0.7153(6) 0.1236(2) 0.9421(4)
H36 H 0.6763 0.1082 0.9873
H37 H 0.7700 0.0993 0.9245
C36 C 0.7733(5) 0.1713(3) 0.9742(4)
H38 H 0.8256 0.1628 1.0227
C37 C 0.6886(5) 0.2097(3) 1.0023(4)
H39 H 0.6490 0.1955 1.0483
H40 H 0.7265 0.2404 1.0229
C38 C 0.6075(4) 0.2223(2) 0.9283(3)
H41 H 0.5529 0.2471 0.9461
C39 C 0.6714(5) 0.2449(2) 0.8573(4)
H42 H 0.6197 0.2539 0.8095
H43 H 0.7097 0.2756 0.8773
C40 C 0.7558(5) 0.20635(17) 0.8290(3)
H44 H 0.7966 0.2207 0.7830
C41 C 0.8365(4) 0.1935(3) 0.9049(4)
H45 H 0.8916 0.1693 0.8880
H46 H 0.8751 0.2241 0.9252
C42 C 0.5481(5) 0.1744(2) 0.8966(4)
H47 H 0.4952 0.1826 0.8492
H48 H 0.5073 0.1598 0.9416
C43 C 0.8730(3) 0.13290(15) 0.2917(3)
C44 C 0.8804(4) 0.1243(2) 0.2059(3)
H49 H 0.8154 0.1243 0.1701
C45 C 0.9807(5) 0.1157(2) 0.1716(4)
H50 H 0.9828 0.1109 0.1133
C46 C 1.0760(4) 0.1141(2) 0.2222(4)
H51 H 1.1435 0.1072 0.1993
C47 C 1.0727(4) 0.1227(2) 0.3072(4)
H52 H 1.1382 0.1222 0.3424
C48 C 0.9710(4) 0.13225(18) 0.3414(3)
H53 H 0.9698 0.1383 0.3995
C49 C 0.6190(3) 0.10790(16) 0.2902(3)
C50 C 0.5829(4) 0.10842(19) 0.2043(3)
H54 H 0.6213 0.1282 0.1671
C51 C 0.4918(4) 0.0805(2) 0.1727(4)
H55 H 0.4688 0.0825 0.1152
C52 C 0.4364(5) 0.0508(3) 0.2235(5)
H56 H 0.3758 0.0316 0.2017
C53 C 0.4694(7) 0.0488(4) 0.3071(5)
H57 H 0.4311 0.0281 0.3430
C54 C 0.5596(5) 0.0772(3) 0.3400(4)
H58 H 0.5803 0.0753 0.3979
C55 C 0.7039(3) 0.21747(16) 0.3251(3)
C56 C 0.7982(4) 0.24786(17) 0.3721(3)
H59 H 0.8679 0.2391 0.3498
H60 H 0.8013 0.2399 0.4317
H61 H 0.7846 0.2837 0.3642
C57 C 0.5939(4) 0.22957(19) 0.3630(4)
H62 H 0.5812 0.2657 0.3610
H63 H 0.5970 0.2182 0.4210
H64 H 0.5341 0.2124 0.3309
C58 C 0.6968(5) 0.23315(19) 0.2319(3)
H65 H 0.6332 0.2172 0.2026
H66 H 0.7633 0.2226 0.2066
H67 H 0.6895 0.2695 0.2277
loop_
_geom_bond_atom_site_label_1
_geom_bond_atom_site_label_2
_geom_bond_site_symmetry_1
_geom_bond_site_symmetry_2
Si1 O1 1_555 1_555
O1 C1 1_555 1_555
O2 C17 1_555 1_555
O3 C32 1_555 1_555
O4 C32 1_555 1_555
O5 C21 1_555 1_555
O6 C21 1_555 1_555
C1 C2 1_555 1_555
C2 H1 1_555 1_555
H2 C2 1_555 1_555
C3 C2 1_555 1_555
H3 C3 1_555 1_555
C4 C3 1_555 1_555
H4 C4 1_555 1_555
H5 C4 1_555 1_555
C5 C4 1_555 1_555
C6 C5 1_555 1_555
H6 C6 1_555 1_555
H7 C6 1_555 1_555
C7 C1 1_555 1_555
C8 C7 1_555 1_555
C9 C8 1_555 1_555
H8 C9 1_555 1_555
C10 C9 1_555 1_555
H9 C10 1_555 1_555
C11 C10 1_555 1_555
H10 C11 1_555 1_555
C12 C11 1_555 1_555
H11 C12 1_555 1_555
C13 C8 1_555 1_555
H12 C13 1_555 1_555
C14 C3 1_555 1_555
C15 C14 1_555 1_555
H13 C15 1_555 1_555
C16 C15 1_555 1_555
H14 C16 1_555 1_555
C17 C16 1_555 1_555
C18 C17 1_555 1_555
H15 C18 1_555 1_555
C19 C14 1_555 1_555
H16 C19 1_555 1_555
C20 O2 1_555 1_555
H17 C20 1_555 1_555
H18 C20 1_555 1_555
H19 C20 1_555 1_555
C21 C5 1_555 1_555
C22 O6 1_555 1_555
H20 C22 1_555 1_555
C23 C22 1_555 1_555
H21 C23 1_555 1_555
C24 C23 1_555 1_555
H22 C24 1_555 1_555
H23 C24 1_555 1_555
C25 C24 1_555 1_555
H24 C25 1_555 1_555
C26 C25 1_555 1_555
H25 C26 1_555 1_555
H26 C26 1_555 1_555
C27 C22 1_555 1_555
H27 C27 1_555 1_555
C28 C27 1_555 1_555
H28 C28 1_555 1_555
C29 C28 1_555 1_555
H29 C29 1_555 1_555
C30 C23 1_555 1_555
H30 C30 1_555 1_555
H31 C30 1_555 1_555
C31 C25 1_555 1_555
H32 C31 1_555 1_555
H33 C31 1_555 1_555
C32 C5 1_555 1_555
C33 O4 1_555 1_555
H34 C33 1_555 1_555
C34 C33 1_555 1_555
H35 C34 1_555 1_555
C35 C34 1_555 1_555
H36 C35 1_555 1_555
H37 C35 1_555 1_555
C36 C35 1_555 1_555
H38 C36 1_555 1_555
C37 C36 1_555 1_555
H39 C37 1_555 1_555
H40 C37 1_555 1_555
C38 C37 1_555 1_555
H41 C38 1_555 1_555
C39 C38 1_555 1_555
H42 C39 1_555 1_555
H43 C39 1_555 1_555
C40 C33 1_555 1_555
H44 C40 1_555 1_555
C41 C36 1_555 1_555
H45 C41 1_555 1_555
H46 C41 1_555 1_555
C42 C34 1_555 1_555
H47 C42 1_555 1_555
H48 C42 1_555 1_555
C43 Si1 1_555 1_555
C44 C43 1_555 1_555
H49 C44 1_555 1_555
C45 C44 1_555 1_555
H50 C45 1_555 1_555
C46 C45 1_555 1_555
H51 C46 1_555 1_555
C47 C46 1_555 1_555
H52 C47 1_555 1_555
C48 C43 1_555 1_555
H53 C48 1_555 1_555
C49 Si1 1_555 1_555
C50 C49 1_555 1_555
H54 C50 1_555 1_555
C51 C50 1_555 1_555
H55 C51 1_555 1_555
C52 C51 1_555 1_555
H56 C52 1_555 1_555
C53 C52 1_555 1_555
H57 C53 1_555 1_555
C54 C49 1_555 1_555
H58 C54 1_555 1_555
C55 Si1 1_555 1_555
C56 C55 1_555 1_555
H59 C56 1_555 1_555
H60 C56 1_555 1_555
H61 C56 1_555 1_555
C57 C55 1_555 1_555
H62 C57 1_555 1_555
H63 C57 1_555 1_555
H64 C57 1_555 1_555
C58 C55 1_555 1_555
H65 C58 1_555 1_555
H66 C58 1_555 1_555
H67 C58 1_555 1_555
C6 C7 1_555 1_555
C12 C13 1_555 1_555
C18 C19 1_555 1_555
C26 C27 1_555 1_555
C29 C30 1_555 1_555
C29 C31 1_555 1_555
C38 C42 1_555 1_555
C39 C40 1_555 1_555
C40 C41 1_555 1_555
C47 C48 1_555 1_555
C53 C54 1_555 1_555

#END
