
#######################################################################
#
#                 Cambridge Crystallographic Data Centre
#                                CCDC 
#
#######################################################################
#
# If this CIF has been generated from an entry in the Cambridge 
# Structural Database, then it will include bibliographic, chemical, 
# crystal, experimental, refinement or atomic coordinate data resulting 
# from the CCDC's data processing and validation procedures.
#
#######################################################################

data_RUKRIA
_chemical_formula_moiety         'C40 H52 O6'
_chemical_name_systematic        
'bis(Adamantan-2-yl) 7-(4-methoxyphenyl)-9-oxodecahydro-5H-benzo[7]annulene-5,5-dicarboxylate'
_symmetry_cell_setting           monoclinic
_symmetry_space_group_name_H-M   'P 21'
_symmetry_Int_Tables_number      4
_space_group_name_Hall           'P 2yb'
loop_
_symmetry_equiv_pos_site_id
_symmetry_equiv_pos_as_xyz
1 x,y,z
2 -x,1/2+y,-z
_cell_length_a                   11.0266(2)
_cell_length_b                   13.4830(2)
_cell_length_c                   11.3181(2)
_cell_angle_alpha                90
_cell_angle_beta                 91.6640(10)
_cell_angle_gamma                90
_cell_volume                     1681.97
_exptl_crystal_colour            colorless
_exptl_crystal_description       block
_cell_formula_units_Z            2
loop_
_atom_site_label
_atom_site_type_symbol
_atom_site_fract_x
_atom_site_fract_y
_atom_site_fract_z
O1 O -0.2359(2) 0.0746(2) 0.8698(2)
O2 O 0.2153(2) -0.00883(17) 0.9026(2)
O3 O 0.24335(18) 0.15578(16) 0.88589(18)
O4 O 0.2384(2) 0.19776(17) 0.6065(2)
O5 O 0.31313(19) 0.04443(16) 0.6386(2)
O6 O 0.0195(3) -0.4893(2) 0.7368(3)
C1 C 0.0328(2) 0.1630(2) 0.7385(2)
H1 H 0.0794 0.2264 0.7449
C2 C -0.0464(3) 0.1726(2) 0.6246(3)
H2 H 0.0058 0.1717 0.5549
H3 H -0.1030 0.1158 0.6182
C3 C -0.1183(3) 0.2697(3) 0.6267(3)
H4 H -0.0615 0.3266 0.6269
H5 H -0.1712 0.2743 0.5547
C4 C -0.1960(3) 0.2745(3) 0.7361(3)
H6 H -0.2350 0.3405 0.7397
H7 H -0.2611 0.2241 0.7289
C5 C -0.1228(3) 0.2567(2) 0.8504(3)
H8 H -0.1789 0.2536 0.9170
H9 H -0.0673 0.3135 0.8646
C6 C -0.0480(3) 0.1607(2) 0.8480(3)
H10 H 0.0078 0.1618 0.9193
C7 C -0.1268(3) 0.0688(2) 0.8581(3)
C8 C -0.0668(3) -0.0329(2) 0.8591(3)
H11 H -0.1232 -0.0817 0.8929
H12 H 0.0068 -0.0305 0.9112
C9 C -0.0309(2) -0.0686(2) 0.7352(3)
H13 H -0.1000 -0.0527 0.6792
C10 C 0.0845(3) -0.0217(2) 0.6846(2)
H14 H 0.0709 -0.0154 0.5980
H15 H 0.1516 -0.0697 0.6973
C11 C 0.1297(2) 0.0803(2) 0.7311(2)
C12 C 0.1991(2) 0.0676(2) 0.8503(2)
C13 C 0.3234(2) 0.1566(2) 0.9913(2)
H16 H 0.2994 0.1026 1.0464
C14 C 0.3086(3) 0.2571(2) 1.0505(3)
H17 H 0.2218 0.2670 1.0708
C15 C 0.3877(3) 0.2569(3) 1.1634(3)
H18 H 0.3619 0.2026 1.2160
H19 H 0.3781 0.3205 1.2057
C16 C 0.5210(3) 0.2424(3) 1.1326(3)
H20 H 0.5725 0.2426 1.2068
C17 C 0.5342(3) 0.1419(2) 1.0695(3)
H21 H 0.6201 0.1309 1.0498
H22 H 0.5089 0.0875 1.1222
C18 C 0.4544(3) 0.1418(2) 0.9558(3)
H23 H 0.4625 0.0767 0.9144
C19 C 0.4941(3) 0.2259(3) 0.8743(3)
H24 H 0.4430 0.2257 0.8009
H25 H 0.5795 0.2156 0.8524
C20 C 0.4816(3) 0.3258(2) 0.9379(3)
H26 H 0.5077 0.3806 0.8847
C21 C 0.3491(3) 0.3409(2) 0.9690(3)
H27 H 0.2976 0.3412 0.8958
H28 H 0.3395 0.4056 1.0089
C22 C 0.5619(3) 0.3257(3) 1.0511(3)
H29 H 0.6477 0.3155 1.0308
H30 H 0.5553 0.3903 1.0918
C23 C 0.2313(3) 0.1167(2) 0.6497(3)
C24 C 0.4310(3) 0.0673(2) 0.5917(3)
H31 H 0.4625 0.1299 0.6286
C25 C 0.4275(3) 0.0786(2) 0.4571(3)
H32 H 0.3724 0.1344 0.4330
C26 C 0.5587(3) 0.1018(3) 0.4218(3)
H33 H 0.5609 0.1131 0.3354
H34 H 0.5872 0.1629 0.4623
C27 C 0.6421(3) 0.0155(3) 0.4559(3)
H35 H 0.7265 0.0306 0.4312
C28 C 0.6413(3) 0.0028(3) 0.5896(3)
H36 H 0.6964 -0.0520 0.6135
H37 H 0.6711 0.0643 0.6283
C29 C 0.5140(3) -0.0198(3) 0.6292(3)
H38 H 0.5140 -0.0283 0.7169
C30 C 0.4685(3) -0.1155(3) 0.5675(3)
H39 H 0.5219 -0.1716 0.5908
H40 H 0.3854 -0.1309 0.5930
C31 C 0.4678(3) -0.1031(3) 0.4336(3)
H41 H 0.4388 -0.1656 0.3945
C32 C 0.3840(3) -0.0178(3) 0.3992(3)
H42 H 0.3007 -0.0329 0.4243
H43 H 0.3817 -0.0100 0.3122
C33 C 0.5983(3) -0.0796(3) 0.3960(3)
H44 H 0.6529 -0.1351 0.4188
H45 H 0.5997 -0.0717 0.3091
C34 C -0.0174(3) -0.1812(2) 0.7379(3)
C35 C 0.0752(3) -0.2259(2) 0.8054(3)
H46 H 0.1299 -0.1852 0.8500
C36 C 0.0899(3) -0.3279(3) 0.8093(3)
H47 H 0.1533 -0.3567 0.8564
C37 C 0.0103(3) -0.3875(2) 0.7434(3)
C38 C -0.0840(3) -0.3451(3) 0.6776(3)
H48 H -0.1396 -0.3859 0.6342
C39 C -0.0971(3) -0.2428(2) 0.6751(3)
H49 H -0.1618 -0.2142 0.6295
C40 C 0.1208(4) -0.5339(3) 0.7954(4)
H50 H 0.1956 -0.5035 0.7679
H51 H 0.1215 -0.6051 0.7781
H52 H 0.1152 -0.5239 0.8808
loop_
_geom_bond_atom_site_label_1
_geom_bond_atom_site_label_2
_geom_bond_site_symmetry_1
_geom_bond_site_symmetry_2
O1 C7 1_555 1_555
O2 C12 1_555 1_555
O3 C12 1_555 1_555
O4 C23 1_555 1_555
O5 C23 1_555 1_555
O6 C37 1_555 1_555
C1 H1 1_555 1_555
C2 C1 1_555 1_555
H2 C2 1_555 1_555
H3 C2 1_555 1_555
C3 C2 1_555 1_555
H4 C3 1_555 1_555
H5 C3 1_555 1_555
C4 C3 1_555 1_555
H6 C4 1_555 1_555
H7 C4 1_555 1_555
C5 C4 1_555 1_555
H8 C5 1_555 1_555
H9 C5 1_555 1_555
C6 C1 1_555 1_555
H10 C6 1_555 1_555
C7 C6 1_555 1_555
C8 C7 1_555 1_555
H11 C8 1_555 1_555
H12 C8 1_555 1_555
C9 C8 1_555 1_555
H13 C9 1_555 1_555
C10 C9 1_555 1_555
H14 C10 1_555 1_555
H15 C10 1_555 1_555
C11 C1 1_555 1_555
C12 C11 1_555 1_555
C13 O3 1_555 1_555
H16 C13 1_555 1_555
C14 C13 1_555 1_555
H17 C14 1_555 1_555
C15 C14 1_555 1_555
H18 C15 1_555 1_555
H19 C15 1_555 1_555
C16 C15 1_555 1_555
H20 C16 1_555 1_555
C17 C16 1_555 1_555
H21 C17 1_555 1_555
H22 C17 1_555 1_555
C18 C13 1_555 1_555
H23 C18 1_555 1_555
C19 C18 1_555 1_555
H24 C19 1_555 1_555
H25 C19 1_555 1_555
C20 C19 1_555 1_555
H26 C20 1_555 1_555
C21 C14 1_555 1_555
H27 C21 1_555 1_555
H28 C21 1_555 1_555
C22 C16 1_555 1_555
H29 C22 1_555 1_555
H30 C22 1_555 1_555
C23 C11 1_555 1_555
C24 O5 1_555 1_555
H31 C24 1_555 1_555
C25 C24 1_555 1_555
H32 C25 1_555 1_555
C26 C25 1_555 1_555
H33 C26 1_555 1_555
H34 C26 1_555 1_555
C27 C26 1_555 1_555
H35 C27 1_555 1_555
C28 C27 1_555 1_555
H36 C28 1_555 1_555
H37 C28 1_555 1_555
C29 C24 1_555 1_555
H38 C29 1_555 1_555
C30 C29 1_555 1_555
H39 C30 1_555 1_555
H40 C30 1_555 1_555
C31 C30 1_555 1_555
H41 C31 1_555 1_555
C32 C25 1_555 1_555
H42 C32 1_555 1_555
H43 C32 1_555 1_555
C33 C27 1_555 1_555
H44 C33 1_555 1_555
H45 C33 1_555 1_555
C34 C9 1_555 1_555
C35 C34 1_555 1_555
H46 C35 1_555 1_555
C36 C35 1_555 1_555
H47 C36 1_555 1_555
C37 C36 1_555 1_555
C38 C37 1_555 1_555
H48 C38 1_555 1_555
C39 C34 1_555 1_555
H49 C39 1_555 1_555
C40 O6 1_555 1_555
H50 C40 1_555 1_555
H51 C40 1_555 1_555
H52 C40 1_555 1_555
C5 C6 1_555 1_555
C10 C11 1_555 1_555
C17 C18 1_555 1_555
C20 C21 1_555 1_555
C20 C22 1_555 1_555
C28 C29 1_555 1_555
C31 C32 1_555 1_555
C31 C33 1_555 1_555
C38 C39 1_555 1_555

#END
