
#######################################################################
#
#                 Cambridge Crystallographic Data Centre
#                                CCDC 
#
#######################################################################
#
# If this CIF has been generated from an entry in the Cambridge 
# Structural Database, then it will include bibliographic, chemical, 
# crystal, experimental, refinement or atomic coordinate data resulting 
# from the CCDC's data processing and validation procedures.
#
#######################################################################

data_RUKSAT
_chemical_formula_moiety         'C55 H68 O6 Si1'
_chemical_name_systematic        
'bis(Adamantan-2-yl) 8-((t-butyl(diphenyl)silyl)oxy)-6-(4-methoxyphenyl)-2,3,3a,5,6,7-hexahydroazulene-4,4(1H)-dicarboxylate'
_symmetry_cell_setting           monoclinic
_symmetry_space_group_name_H-M   'P 21/n'
_symmetry_Int_Tables_number      14
_space_group_name_Hall           '-P 2yn'
loop_
_symmetry_equiv_pos_site_id
_symmetry_equiv_pos_as_xyz
1 x,y,z
2 1/2-x,1/2+y,1/2-z
3 -x,-y,-z
4 1/2+x,1/2-y,1/2+z
_cell_length_a                   15.9620(13)
_cell_length_b                   14.8361(12)
_cell_length_c                   20.3317(17)
_cell_angle_alpha                90
_cell_angle_beta                 94.782(2)
_cell_angle_gamma                90
_cell_volume                     4798.07
_exptl_crystal_colour            colorless
_exptl_crystal_description       prismatic
_cell_formula_units_Z            4
loop_
_atom_site_label
_atom_site_type_symbol
_atom_site_fract_x
_atom_site_fract_y
_atom_site_fract_z
Si1 Si 1.12157(6) 0.51811(6) 0.19504(5)
O1 O 1.11249(16) 0.43188(15) 0.24430(13)
O2 O 0.8895(3) 0.1534(3) -0.09574(17)
O3 O 0.8514(2) 0.3319(2) 0.25165(16)
O4 O 0.90283(15) 0.33065(15) 0.35597(13)
O5 O 0.8369(2) 0.1476(2) 0.3520(2)
O6 O 0.93868(19) 0.05831(17) 0.32332(14)
C1 C 1.0362(2) 0.2173(2) 0.31684(17)
H1 H 1.0677 0.1689 0.2972
C2 C 1.0516(2) 0.2087(3) 0.39202(19)
H2 H 1.0054 0.2347 0.4137
H3 H 1.0578 0.1460 0.4050
C3 C 1.1323(3) 0.2604(3) 0.4098(2)
H4 H 1.1810 0.2228 0.4045
H5 H 1.1346 0.2817 0.4550
C4 C 1.1289(2) 0.3391(3) 0.36154(18)
H6 H 1.1024 0.3911 0.3799
H7 H 1.1850 0.3558 0.3510
C5 C 1.0779(2) 0.3054(2) 0.30147(17)
C6 C 1.0697(2) 0.3510(2) 0.24485(18)
C7 C 1.0213(2) 0.3258(2) 0.18083(18)
H8 H 1.0524 0.3467 0.1448
H9 H 0.9681 0.3577 0.1780
C8 C 1.0032(2) 0.2250(2) 0.17084(17)
H10 H 1.0565 0.1932 0.1811
C9 C 0.9389(2) 0.1829(2) 0.21430(18)
H11 H 0.9447 0.1179 0.2121
H12 H 0.8831 0.1977 0.1947
C10 C 0.9432(2) 0.2098(2) 0.28802(18)
C11 C 0.8935(2) 0.2966(3) 0.2954(2)
C12 C 0.8590(3) 0.4141(3) 0.3690(2)
H13 H 0.8618 0.4552 0.3315
C13 C 0.7687(3) 0.3954(4) 0.3795(3)
H14 H 0.7412 0.3644 0.3410
C14 C 0.7635(4) 0.3389(4) 0.4404(3)
H15 H 0.7051 0.3261 0.4467
H16 H 0.7921 0.2820 0.4351
C15 C 0.8032(5) 0.3873(4) 0.4992(3)
H17 H 0.7983 0.3499 0.5385
C16 C 0.7593(4) 0.4794(4) 0.5091(3)
H18 H 0.7001 0.4701 0.5147
H19 H 0.7849 0.5093 0.5482
C17 C 0.7691(4) 0.5354(4) 0.4497(3)
H20 H 0.7435 0.5947 0.4550
C18 C 0.8631(4) 0.5461(4) 0.4405(4)
H21 H 0.8700 0.5841 0.4024
H22 H 0.8910 0.5753 0.4790
C19 C 0.9022(3) 0.4573(3) 0.4308(3)
H23 H 0.9621 0.4656 0.4249
C20 C 0.8932(4) 0.4001(5) 0.4897(3)
H24 H 0.9195 0.3421 0.4838
H25 H 0.9212 0.4286 0.5284
C21 C 0.7278(4) 0.4886(5) 0.3879(3)
H26 H 0.7347 0.5255 0.3493
H27 H 0.6680 0.4813 0.3920
C22 C 0.8987(3) 0.1365(3) 0.3241(2)
C23 C 0.9198(6) -0.0141(5) 0.3693(5)
H28 H 0.8979 0.0110 0.4091
C24 C 1.0021(7) -0.0694(7) 0.3877(4)
H29 H 1.0466 -0.0310 0.4087
C25 C 1.0304(6) -0.1162(5) 0.3306(4)
H30 H 1.0808 -0.1503 0.3442
H31 H 1.0451 -0.0720 0.2983
C26 C 0.9669(6) -0.1776(6) 0.2995(4)
H32 H 0.9892 -0.2073 0.2616
C27 C 0.8958(7) -0.1220(6) 0.2769(5)
H33 H 0.8540 -0.1598 0.2531
H34 H 0.9144 -0.0779 0.2460
C28 C 0.8540(6) -0.0720(6) 0.3316(5)
H35 H 0.8066 -0.0354 0.3132
C29 C 0.8245(6) -0.1441(6) 0.3795(5)
H36 H 0.7817 -0.1821 0.3572
H37 H 0.8011 -0.1154 0.4168
C30 C 0.9029(7) -0.2013(6) 0.4035(5)
H38 H 0.8863 -0.2472 0.4345
C31 C 0.9412(6) -0.2470(5) 0.3465(4)
H39 H 0.9897 -0.2821 0.3630
H40 H 0.9005 -0.2876 0.3242
C32 C 0.9721(7) -0.1420(6) 0.4378(4)
H41 H 1.0194 -0.1793 0.4539
H42 H 0.9509 -0.1118 0.4753
C33 C 0.9760(2) 0.2060(2) 0.09951(18)
C34 C 0.9034(3) 0.2443(3) 0.0686(2)
H43 H 0.8718 0.2835 0.0923
C35 C 0.8774(3) 0.2253(3) 0.0036(2)
H44 H 0.8287 0.2519 -0.0158
C36 C 0.9223(3) 0.1680(3) -0.0324(2)
C37 C 0.9938(4) 0.1296(3) -0.0037(2)
H45 H 1.0248 0.0904 -0.0278
C38 C 1.0205(3) 0.1490(3) 0.0617(2)
H46 H 1.0697 0.1227 0.0804
C39 C 0.9362(6) 0.0992(5) -0.1361(3)
H47 H 0.9916 0.1239 -0.1375
H48 H 0.9087 0.0976 -0.1799
H49 H 0.9401 0.0392 -0.1185
C40 C 1.0176(2) 0.5729(2) 0.1779(2)
C41 C 0.9510(3) 0.5492(3) 0.2134(2)
H50 H 0.9586 0.5039 0.2449
C42 C 0.8732(3) 0.5906(3) 0.2038(3)
H51 H 0.8290 0.5714 0.2274
C43 C 0.8618(3) 0.6576(4) 0.1611(4)
H52 H 0.8092 0.6845 0.1541
C44 C 0.9263(4) 0.6876(4) 0.1273(4)
H53 H 0.9187 0.7369 0.0991
C45 C 1.0027(3) 0.6449(3) 0.1349(3)
H54 H 1.0459 0.6648 0.1105
C46 C 1.1658(3) 0.4798(3) 0.1175(2)
C47 C 1.1361(6) 0.5120(5) 0.0553(3)
H55 H 1.0927 0.5540 0.0514
C48 C 1.1717(10) 0.4808(6) -0.0012(4)
H56 H 1.1540 0.5050 -0.0422
C49 C 1.2318(8) 0.4156(8) 0.0034(6)
H57 H 1.2556 0.3960 -0.0343
C50 C 1.2571(4) 0.3790(7) 0.0635(5)
H58 H 1.2974 0.3336 0.0670
C51 C 1.2223(4) 0.4102(5) 0.1182(3)
H59 H 1.2379 0.3825 0.1584
C52 C 1.1952(3) 0.5955(3) 0.2454(2)
C53 C 1.1560(4) 0.6208(4) 0.3086(3)
H60 H 1.1929 0.6610 0.3342
H61 H 1.1475 0.5673 0.3338
H62 H 1.1029 0.6499 0.2978
C54 C 1.2106(4) 0.6817(4) 0.2075(3)
H63 H 1.1580 0.7116 0.1963
H64 H 1.2365 0.6671 0.1679
H65 H 1.2470 0.7208 0.2345
C55 C 1.2792(3) 0.5475(4) 0.2633(4)
H66 H 1.3126 0.5827 0.2953
H67 H 1.3088 0.5407 0.2244
H68 H 1.2688 0.4893 0.2815
C56? C 0.8797(10) -0.0170(9) 0.3387(8)
H69? H 0.8219 0.0057 0.3371
C57? C 0.9095(9) -0.0419(9) 0.4080(8)
H70? H 0.9033 0.0098 0.4373
C58? C 0.9942(11) -0.0711(12) 0.4133(9)
H71? H 1.0108 -0.0834 0.4594
H72? H 1.0289 -0.0218 0.3999
C59? C 1.0130(10) -0.1517(8) 0.3745(7)
H73? H 1.0726 -0.1681 0.3798
C60? C 0.9833(10) -0.1291(12) 0.3030(8)
H74? H 0.9907 -0.1818 0.2758
H75? H 1.0183 -0.0813 0.2877
C61? C 0.8841(10) -0.0972(10) 0.2933(11)
H76? H 0.8648 -0.0837 0.2473
C62? C 0.8388(10) -0.1764(9) 0.3214(8)
H77? H 0.7789 -0.1642 0.3168
H78? H 0.8486 -0.2294 0.2951
C63? C 0.8641(10) -0.1975(13) 0.3921(8)
H79? H 0.8287 -0.2456 0.4078
C64? C 0.9564(9) -0.2253(9) 0.3994(9)
H80? H 0.9636 -0.2803 0.3746
H81? H 0.9732 -0.2376 0.4454
C65? C 0.8615(11) -0.1218(8) 0.4321(8)
H82? H 0.8846 -0.1373 0.4763
H83? H 0.8033 -0.1044 0.4347
loop_
_geom_bond_atom_site_label_1
_geom_bond_atom_site_label_2
_geom_bond_site_symmetry_1
_geom_bond_site_symmetry_2
Si1 O1 1_555 1_555
O1 C6 1_555 1_555
O2 C36 1_555 1_555
O3 C11 1_555 1_555
O4 C11 1_555 1_555
O5 C22 1_555 1_555
O6 C22 1_555 1_555
C1 H1 1_555 1_555
C2 C1 1_555 1_555
H2 C2 1_555 1_555
H3 C2 1_555 1_555
C3 C2 1_555 1_555
H4 C3 1_555 1_555
H5 C3 1_555 1_555
C4 C3 1_555 1_555
H6 C4 1_555 1_555
H7 C4 1_555 1_555
C5 C1 1_555 1_555
C6 C5 1_555 1_555
C7 C6 1_555 1_555
H8 C7 1_555 1_555
H9 C7 1_555 1_555
C8 C7 1_555 1_555
H10 C8 1_555 1_555
C9 C8 1_555 1_555
H11 C9 1_555 1_555
H12 C9 1_555 1_555
C10 C1 1_555 1_555
C11 C10 1_555 1_555
C12 O4 1_555 1_555
H13 C12 1_555 1_555
C13 C12 1_555 1_555
H14 C13 1_555 1_555
C14 C13 1_555 1_555
H15 C14 1_555 1_555
H16 C14 1_555 1_555
C15 C14 1_555 1_555
H17 C15 1_555 1_555
C16 C15 1_555 1_555
H18 C16 1_555 1_555
H19 C16 1_555 1_555
C17 C16 1_555 1_555
H20 C17 1_555 1_555
C18 C17 1_555 1_555
H21 C18 1_555 1_555
H22 C18 1_555 1_555
C19 C12 1_555 1_555
H23 C19 1_555 1_555
C20 C15 1_555 1_555
H24 C20 1_555 1_555
H25 C20 1_555 1_555
C21 C13 1_555 1_555
H26 C21 1_555 1_555
H27 C21 1_555 1_555
C22 C10 1_555 1_555
C23 O6 1_555 1_555
H28 C23 1_555 1_555
C24 C23 1_555 1_555
H29 C24 1_555 1_555
C25 C24 1_555 1_555
H30 C25 1_555 1_555
H31 C25 1_555 1_555
C26 C25 1_555 1_555
H32 C26 1_555 1_555
C27 C26 1_555 1_555
H33 C27 1_555 1_555
H34 C27 1_555 1_555
C28 C23 1_555 1_555
H35 C28 1_555 1_555
C29 C28 1_555 1_555
H36 C29 1_555 1_555
H37 C29 1_555 1_555
C30 C29 1_555 1_555
H38 C30 1_555 1_555
C31 C26 1_555 1_555
H39 C31 1_555 1_555
H40 C31 1_555 1_555
C32 C24 1_555 1_555
H41 C32 1_555 1_555
H42 C32 1_555 1_555
C33 C8 1_555 1_555
C34 C33 1_555 1_555
H43 C34 1_555 1_555
C35 C34 1_555 1_555
H44 C35 1_555 1_555
C36 C35 1_555 1_555
C37 C36 1_555 1_555
H45 C37 1_555 1_555
C38 C33 1_555 1_555
H46 C38 1_555 1_555
C39 O2 1_555 1_555
H47 C39 1_555 1_555
H48 C39 1_555 1_555
H49 C39 1_555 1_555
C40 Si1 1_555 1_555
C41 C40 1_555 1_555
H50 C41 1_555 1_555
C42 C41 1_555 1_555
H51 C42 1_555 1_555
C43 C42 1_555 1_555
H52 C43 1_555 1_555
C44 C43 1_555 1_555
H53 C44 1_555 1_555
C45 C40 1_555 1_555
H54 C45 1_555 1_555
C46 Si1 1_555 1_555
C47 C46 1_555 1_555
H55 C47 1_555 1_555
C48 C47 1_555 1_555
H56 C48 1_555 1_555
C49 C48 1_555 1_555
H57 C49 1_555 1_555
C50 C49 1_555 1_555
H58 C50 1_555 1_555
C51 C46 1_555 1_555
H59 C51 1_555 1_555
C52 Si1 1_555 1_555
C53 C52 1_555 1_555
H60 C53 1_555 1_555
H61 C53 1_555 1_555
H62 C53 1_555 1_555
C54 C52 1_555 1_555
H63 C54 1_555 1_555
H64 C54 1_555 1_555
H65 C54 1_555 1_555
C55 C52 1_555 1_555
H66 C55 1_555 1_555
H67 C55 1_555 1_555
H68 C55 1_555 1_555
C4 C5 1_555 1_555
C9 C10 1_555 1_555
C17 C21 1_555 1_555
C18 C19 1_555 1_555
C19 C20 1_555 1_555
C27 C28 1_555 1_555
C30 C31 1_555 1_555
C30 C32 1_555 1_555
C37 C38 1_555 1_555
C44 C45 1_555 1_555
C50 C51 1_555 1_555

#END
