
#######################################################################
#
#                 Cambridge Crystallographic Data Centre
#                                CCDC 
#
#######################################################################
#
# If this CIF has been generated from an entry in the Cambridge 
# Structural Database, then it will include bibliographic, chemical, 
# crystal, experimental, refinement or atomic coordinate data resulting 
# from the CCDC's data processing and validation procedures.
#
#######################################################################

data_RUKVIE
_chemical_formula_moiety         'C11 H11 N1 O4'
_chemical_name_systematic        3-Amino-7,8-dimethoxy-2H-chromen-2-one
_symmetry_cell_setting           monoclinic
_symmetry_space_group_name_H-M   'P 21/n'
_symmetry_Int_Tables_number      14
_space_group_name_Hall           '-P 2yn'
loop_
_symmetry_equiv_pos_site_id
_symmetry_equiv_pos_as_xyz
1 x,y,z
2 1/2-x,1/2+y,1/2-z
3 -x,-y,-z
4 1/2+x,1/2-y,1/2+z
_cell_length_a                   8.7284(13)
_cell_length_b                   7.9180(12)
_cell_length_c                   14.286(2)
_cell_angle_alpha                90
_cell_angle_beta                 93.316(3)
_cell_angle_gamma                90
_cell_volume                     985.673
_exptl_crystal_colour            colorless
_exptl_crystal_description       prism
_cell_formula_units_Z            4
loop_
_atom_site_label
_atom_site_type_symbol
_atom_site_fract_x
_atom_site_fract_y
_atom_site_fract_z
O1 O 0.97483(9) 0.45787(10) 0.15361(6)
C1 C 1.00382(13) 0.15405(15) 0.13489(8)
C2 C 0.89705(14) 0.15555(14) 0.06181(8)
C3 C 0.86820(13) 0.45940(14) 0.07839(8)
C4 C 0.80409(13) 0.61524(14) 0.05467(8)
C5 C 0.69869(13) 0.62600(15) -0.02273(8)
O2 O 0.84695(10) 0.75672(10) 0.10585(6)
O3 O 1.14660(10) 0.32405(11) 0.24542(6)
C6 C 0.82821(13) 0.31138(14) 0.02987(8)
C7 C 0.65799(14) 0.48003(16) -0.07338(8)
C8 C 0.72138(14) 0.32565(15) -0.04687(8)
N1 N 1.07139(13) 0.01263(13) 0.17479(8)
O4 O 0.64447(11) 0.78455(11) -0.04235(7)
C9 C 1.04928(13) 0.31307(14) 0.18160(8)
C10 C 0.54184(16) 0.80294(18) -0.12397(10)
C11 C 0.74061(16) 0.79579(17) 0.17556(10)
H1 H 0.589(2) 0.490(2) -0.1277(12)
H2 H 0.867(2) 0.051(2) 0.0309(12)
H3 H 1.055(2) -0.079(2) 0.1445(12)
H4 H 0.690(2) 0.224(2) -0.0805(13)
H5 H 0.448(2) 0.739(2) -0.1145(13)
H6 H 1.156(2) 0.026(2) 0.2076(12)
H7 H 0.522(2) 0.927(2) -0.1254(12)
H8 H 0.593(2) 0.766(2) -0.1800(14)
H9 H 0.773(2) 0.896(2) 0.2053(13)
H10 H 0.738(2) 0.704(2) 0.2206(13)
H11 H 0.638(2) 0.814(2) 0.1455(13)
loop_
_geom_bond_atom_site_label_1
_geom_bond_atom_site_label_2
_geom_bond_site_symmetry_1
_geom_bond_site_symmetry_2
O1 C3 1_555 1_555
C1 C2 1_555 1_555
C2 C6 1_555 1_555
C3 C4 1_555 1_555
C4 C5 1_555 1_555
C5 C7 1_555 1_555
O2 C4 1_555 1_555
O3 C9 1_555 1_555
C6 C3 1_555 1_555
C7 C8 1_555 1_555
C8 C6 1_555 1_555
N1 C1 1_555 1_555
O4 C5 1_555 1_555
C9 O1 1_555 1_555
C10 O4 1_555 1_555
C11 O2 1_555 1_555
H1 C7 1_555 1_555
H2 C2 1_555 1_555
H3 N1 1_555 1_555
H4 C8 1_555 1_555
H5 C10 1_555 1_555
H6 N1 1_555 1_555
H7 C10 1_555 1_555
H8 C10 1_555 1_555
H9 C11 1_555 1_555
H10 C11 1_555 1_555
H11 C11 1_555 1_555
C1 C9 1_555 1_555

#END
