
#######################################################################
#
#                 Cambridge Crystallographic Data Centre
#                                CCDC 
#
#######################################################################
#
# If this CIF has been generated from an entry in the Cambridge 
# Structural Database, then it will include bibliographic, chemical, 
# crystal, experimental, refinement or atomic coordinate data resulting 
# from the CCDC's data processing and validation procedures.
#
#######################################################################

data_RUKWOJ
_chemical_formula_moiety         'C37 H32 Si1'
_chemical_name_systematic        1-Mesityl-tetraphenylsilole
_symmetry_cell_setting           monoclinic
_symmetry_space_group_name_H-M   'P 21/n'
_symmetry_Int_Tables_number      14
_space_group_name_Hall           '-P 2yn'
loop_
_symmetry_equiv_pos_site_id
_symmetry_equiv_pos_as_xyz
1 x,y,z
2 1/2-x,1/2+y,1/2-z
3 -x,-y,-z
4 1/2+x,1/2-y,1/2+z
_cell_length_a                   12.875(3)
_cell_length_b                   16.577(2)
_cell_length_c                   15.015(2)
_cell_angle_alpha                90
_cell_angle_beta                 114.110
_cell_angle_gamma                90
_cell_volume                     2925.07
_exptl_crystal_colour            yellow
_exptl_crystal_description       rectangle
_chemical_melting_point          178-180deg.C
_cell_formula_units_Z            4
loop_
_atom_site_label
_atom_site_type_symbol
_atom_site_fract_x
_atom_site_fract_y
_atom_site_fract_z
Si1 Si 0.13585(15) 0.11864(11) 0.32711(12)
C1 C 0.12153(48) 0.01344(37) 0.36593(42)
C2 C 0.17097(47) 0.01171(36) 0.46536(42)
C3 C 0.21888(49) 0.09036(38) 0.51581(42)
C4 C 0.20595(52) 0.15499(39) 0.45598(42)
C5 C 0.07575(49) -0.05242(37) 0.29497(43)
C6 C -0.00053(59) -0.03338(41) 0.20130(50)
C7 C -0.04064(62) -0.09064(45) 0.12847(49)
C8 C -0.00443(64) -0.16864(43) 0.14799(52)
C9 C 0.07171(66) -0.18874(42) 0.23905(52)
C10 C 0.11172(58) -0.13244(42) 0.31162(44)
C11 C 0.18571(52) -0.06260(37) 0.52499(39)
C12 C 0.09434(57) -0.10566(42) 0.52728(47)
C13 C 0.10904(72) -0.17350(46) 0.58374(57)
C14 C 0.21730(81) -0.19924(44) 0.64021(56)
C15 C 0.30883(70) -0.15883(46) 0.63982(54)
C16 C 0.29404(58) -0.09121(40) 0.58395(47)
C17 C 0.28090(51) 0.09306(35) 0.62375(43)
C18 C 0.23371(57) 0.06871(39) 0.68792(46)
C19 C 0.29927(69) 0.07172(44) 0.78754(48)
C20 C 0.40943(70) 0.09738(46) 0.82422(50)
C21 C 0.45596(58) 0.12136(44) 0.76143(52)
C22 C 0.39237(55) 0.11882(39) 0.66155(44)
C23 C 0.23064(51) 0.24078(38) 0.48327(44)
C24 C 0.21261(64) 0.27523(43) 0.56017(52)
C25 C 0.22777(70) 0.35733(48) 0.57853(60)
C26 C 0.26006(64) 0.40580(48) 0.52094(63)
C27 C 0.27852(61) 0.37279(46) 0.44508(56)
C28 C 0.26324(55) 0.29193(40) 0.42564(48)
C29 C 0.22174(48) 0.12240(39) 0.25074(40)
C30 C 0.32105(54) 0.07781(40) 0.27521(48)
C31 C 0.37928(56) 0.07748(40) 0.21549(50)
C32 C 0.34181(65) 0.12082(46) 0.12959(50)
C33 C 0.24492(62) 0.16695(42) 0.10607(45)
C34 C 0.18426(56) 0.16929(39) 0.16317(44)
C35 C 0.37333(59) 0.02876(45) 0.36976(51)
C36 C 0.40935(67) 0.12239(55) 0.06784(54)
C37 C 0.08183(64) 0.22385(47) 0.13220(50)
H1 H 0.1662 -0.1474 0.3754
H2 H 0.0975 -0.2435 0.2526
H3 H -0.0322 -0.2085 0.0973
H4 H -0.0948 -0.0764 0.0644
H5 H -0.0251 0.0215 0.1867
H6 H 0.0186 -0.0876 0.4875
H7 H 0.0447 -0.2024 0.5844
H8 H 0.2286 -0.2464 0.6802
H9 H 0.3841 -0.1784 0.6784
H10 H 0.3589 -0.0618 0.5853
H11 H 0.1564 0.0502 0.6630
H12 H 0.2674 0.0548 0.8322
H13 H 0.4533 0.0997 0.8935
H14 H 0.5337 0.1391 0.7873
H15 H 0.4261 0.1349 0.6179
H16 H 0.1901 0.2412 0.6010
H17 H 0.2135 0.3805 0.6310
H18 H 0.2712 0.4625 0.5347
H19 H 0.3016 0.4068 0.4046
H20 H 0.2752 0.2692 0.3718
H21 H 0.4475 0.0460 0.2343
H22 H 0.2188 0.1986 0.0474
H23 H 0.4416 0.0026 0.3736
H24 H 0.3911 0.0644 0.4245
H25 H 0.3197 -0.0111 0.3707
H26 H 0.3711 0.1552 0.0111
H27 H 0.4834 0.1444 0.1055
H28 H 0.4171 0.0685 0.0480
H29 H 0.0699 0.2502 0.0719
H30 H 0.0160 0.1923 0.1239
H31 H 0.0943 0.2637 0.1820
H32 H 0.0261 0.1597 0.2743
loop_
_geom_bond_atom_site_label_1
_geom_bond_atom_site_label_2
_geom_bond_site_symmetry_1
_geom_bond_site_symmetry_2
Si1 C1 1_555 1_555
C1 C2 1_555 1_555
C2 C3 1_555 1_555
C3 C4 1_555 1_555
C4 Si1 1_555 1_555
C5 C1 1_555 1_555
C6 C5 1_555 1_555
C7 C6 1_555 1_555
C8 C7 1_555 1_555
C9 C8 1_555 1_555
C10 C5 1_555 1_555
C11 C2 1_555 1_555
C12 C11 1_555 1_555
C13 C12 1_555 1_555
C14 C13 1_555 1_555
C15 C14 1_555 1_555
C16 C11 1_555 1_555
C17 C3 1_555 1_555
C18 C17 1_555 1_555
C19 C18 1_555 1_555
C20 C19 1_555 1_555
C21 C20 1_555 1_555
C22 C17 1_555 1_555
C23 C4 1_555 1_555
C24 C23 1_555 1_555
C25 C24 1_555 1_555
C26 C25 1_555 1_555
C27 C26 1_555 1_555
C28 C23 1_555 1_555
C29 Si1 1_555 1_555
C30 C29 1_555 1_555
C31 C30 1_555 1_555
C32 C31 1_555 1_555
C33 C32 1_555 1_555
C34 C29 1_555 1_555
C35 C30 1_555 1_555
C36 C32 1_555 1_555
C37 C34 1_555 1_555
H1 C10 1_555 1_555
H2 C9 1_555 1_555
H3 C8 1_555 1_555
H4 C7 1_555 1_555
H5 C6 1_555 1_555
H6 C12 1_555 1_555
H7 C13 1_555 1_555
H8 C14 1_555 1_555
H9 C15 1_555 1_555
H10 C16 1_555 1_555
H11 C18 1_555 1_555
H12 C19 1_555 1_555
H13 C20 1_555 1_555
H14 C21 1_555 1_555
H15 C22 1_555 1_555
H16 C24 1_555 1_555
H17 C25 1_555 1_555
H18 C26 1_555 1_555
H19 C27 1_555 1_555
H20 C28 1_555 1_555
H21 C31 1_555 1_555
H22 C33 1_555 1_555
H23 C35 1_555 1_555
H24 C35 1_555 1_555
H25 C35 1_555 1_555
H26 C36 1_555 1_555
H27 C36 1_555 1_555
H28 C36 1_555 1_555
H29 C37 1_555 1_555
H30 C37 1_555 1_555
H31 C37 1_555 1_555
H32 Si1 1_555 1_555
C9 C10 1_555 1_555
C15 C16 1_555 1_555
C21 C22 1_555 1_555
C27 C28 1_555 1_555
C33 C34 1_555 1_555

#END
