
#######################################################################
#
#                 Cambridge Crystallographic Data Centre
#                                CCDC 
#
#######################################################################
#
# If this CIF has been generated from an entry in the Cambridge 
# Structural Database, then it will include bibliographic, chemical, 
# crystal, experimental, refinement or atomic coordinate data resulting 
# from the CCDC's data processing and validation procedures.
#
#######################################################################

data_RULCUX
_chemical_name_common            4-((2,5-dichlorobenzylidene)amino)antipyrine
_chemical_formula_moiety         'C18 H15 Cl2 N3 O1'
_chemical_name_systematic        
4-((2,5-dichlorobenzylidene)amino)-1,5-dimethyl-2-phenyl-1,2-dihydro-3H-pyrazol-3-one
_symmetry_cell_setting           orthorhombic
_symmetry_space_group_name_H-M   'P 21 21 21'
_symmetry_Int_Tables_number      19
_space_group_name_Hall           'P 2ac 2ab'
loop_
_symmetry_equiv_pos_site_id
_symmetry_equiv_pos_as_xyz
1 x,y,z
2 1/2-x,-y,1/2+z
3 -x,1/2+y,1/2-z
4 1/2+x,1/2-y,-z
_cell_length_a                   6.3881(7)
_cell_length_b                   14.9217(16)
_cell_length_c                   18.093(2)
_cell_angle_alpha                90
_cell_angle_beta                 90
_cell_angle_gamma                90
_cell_volume                     1724.65
_exptl_crystal_colour            yellow
_exptl_crystal_description       prism
_chemical_melting_point          '210-211 deg.C'
_cell_formula_units_Z            4
loop_
_atom_site_label
_atom_site_type_symbol
_atom_site_fract_x
_atom_site_fract_y
_atom_site_fract_z
Cl1 Cl -0.03322(15) 0.77859(5) 0.22151(5)
Cl2 Cl 0.44140(16) 1.11847(5) 0.32291(5)
O1 O 0.3117(3) 0.58041(12) 0.34926(10)
N1 N 0.5322(3) 0.76747(14) 0.35414(11)
N2 N 0.6017(3) 0.54052(14) 0.41813(11)
N3 N 0.7685(3) 0.58726(16) 0.45009(12)
C1 C 0.1079(4) 0.87203(17) 0.24942(13)
C2 C 0.0302(5) 0.95439(18) 0.23112(14)
H1 H -0.0927 0.9586 0.2038
C3 C 0.1320(5) 1.03055(19) 0.25269(15)
H2 H 0.0791 1.0867 0.2405
C4 C 0.3153(5) 1.02255(17) 0.29299(14)
C5 C 0.3961(4) 0.94016(16) 0.31067(13)
H3 H 0.5210 0.9364 0.3369
C6 C 0.2932(4) 0.86236(16) 0.28978(12)
C7 C 0.3719(4) 0.77441(16) 0.31206(13)
H4 H 0.3048 0.7229 0.2954
C8 C 0.5923(4) 0.68378(17) 0.37955(13)
C9 C 0.4808(4) 0.60077(16) 0.37687(12)
C10 C 0.7673(4) 0.67133(18) 0.42269(14)
C11 C 0.9352(5) 0.7360(2) 0.43962(17)
H5 H 0.9533 0.7400 0.4922
H6 H 0.8980 0.7939 0.4204
H7 H 1.0635 0.7164 0.4173
C12 C 0.9533(4) 0.5368(2) 0.47261(17)
H8 H 1.0249 0.5151 0.4295
H9 H 0.9114 0.4870 0.5028
H10 H 1.0451 0.5750 0.5003
C13 C 0.5170(4) 0.46510(17) 0.45513(14)
C14 C 0.5025(5) 0.4632(2) 0.53108(14)
H11 H 0.5520 0.5110 0.5590
C15 C 0.4147(6) 0.3904(2) 0.56521(17)
H12 H 0.4052 0.3889 0.6165
C16 C 0.3410(6) 0.3203(2) 0.5247(2)
H13 H 0.2832 0.2707 0.5482
C17 C 0.3526(6) 0.3231(2) 0.4492(2)
H14 H 0.2983 0.2760 0.4215
C18 C 0.4437(5) 0.39487(19) 0.41395(16)
H15 H 0.4553 0.3957 0.3627
loop_
_geom_bond_atom_site_label_1
_geom_bond_atom_site_label_2
_geom_bond_site_symmetry_1
_geom_bond_site_symmetry_2
Cl1 C1 1_555 1_555
Cl2 C4 1_555 1_555
O1 C9 1_555 1_555
N1 C7 1_555 1_555
N2 N3 1_555 1_555
N3 C10 1_555 1_555
C1 C2 1_555 1_555
C2 H1 1_555 1_555
C3 C2 1_555 1_555
H2 C3 1_555 1_555
C4 C3 1_555 1_555
C5 C4 1_555 1_555
H3 C5 1_555 1_555
C6 C1 1_555 1_555
C7 C6 1_555 1_555
H4 C7 1_555 1_555
C8 N1 1_555 1_555
C9 N2 1_555 1_555
C10 C8 1_555 1_555
C11 C10 1_555 1_555
H5 C11 1_555 1_555
H6 C11 1_555 1_555
H7 C11 1_555 1_555
C12 N3 1_555 1_555
H8 C12 1_555 1_555
H9 C12 1_555 1_555
H10 C12 1_555 1_555
C13 N2 1_555 1_555
C14 C13 1_555 1_555
H11 C14 1_555 1_555
C15 C14 1_555 1_555
H12 C15 1_555 1_555
C16 C15 1_555 1_555
H13 C16 1_555 1_555
C17 C16 1_555 1_555
H14 C17 1_555 1_555
C18 C13 1_555 1_555
H15 C18 1_555 1_555
C5 C6 1_555 1_555
C8 C9 1_555 1_555
C17 C18 1_555 1_555

#END
