
#######################################################################
#
#                 Cambridge Crystallographic Data Centre
#                                CCDC 
#
#######################################################################
#
# If this CIF has been generated from an entry in the Cambridge 
# Structural Database, then it will include bibliographic, chemical, 
# crystal, experimental, refinement or atomic coordinate data resulting 
# from the CCDC's data processing and validation procedures.
#
#######################################################################

data_RULCOS
_chemical_formula_moiety         'C27 H18 N2 S1'
_chemical_name_systematic        
9-(4-(2-(1,3-Benzothiazol-2-yl)vinyl)phenyl)-9H-carbazole
_symmetry_cell_setting           monoclinic
_symmetry_space_group_name_H-M   'P 21/n'
_symmetry_Int_Tables_number      14
_space_group_name_Hall           '-P 2yn'
loop_
_symmetry_equiv_pos_site_id
_symmetry_equiv_pos_as_xyz
1 x,y,z
2 1/2-x,1/2+y,1/2-z
3 -x,-y,-z
4 1/2+x,1/2-y,1/2+z
_cell_length_a                   10.303(2)
_cell_length_b                   7.5885(15)
_cell_length_c                   26.330(5)
_cell_angle_alpha                90
_cell_angle_beta                 97.75(3)
_cell_angle_gamma                90
_cell_volume                     2039.79
_exptl_crystal_colour            colorless
_exptl_crystal_description       block
_cell_formula_units_Z            4
loop_
_atom_site_label
_atom_site_type_symbol
_atom_site_fract_x
_atom_site_fract_y
_atom_site_fract_z
S1 S 0.8776(3) -0.1775(4) 1.00894(8)
N1 N 0.6547(3) -0.0370(3) 1.04865(11)
C1 C 0.5843(5) 0.9523(5) 0.82116(15)
C2 C 0.6907(4) 0.7132(5) 0.87820(15)
N2 N 0.6925(3) 0.8697(4) 0.84875(13)
C3 C 0.7696(5) 1.0959(5) 0.80533(15)
C4 C 0.6291(5) 1.0940(5) 0.79402(15)
C5 C 0.6980(5) 0.4103(6) 0.93803(16)
C6 C 0.8051(4) 0.9577(5) 0.83952(14)
C7 C 0.7683(5) 0.5722(6) 0.86845(17)
H1 H 0.8180 0.5781 0.8415
C8 C 0.7729(6) 0.1261(8) 0.9735(2)
H2 H 0.8356 0.1230 0.9512
C9 C 0.7724(5) 0.4231(6) 0.89835(17)
H3 H 0.8260 0.3296 0.8917
C10 C 0.7084(6) -0.2175(6) 1.0703(2)
C11 C 0.9327(5) 0.9296(6) 0.86032(17)
H4 H 0.9546 0.8404 0.8842
C12 C 0.6969(6) 0.2557(7) 0.9723(2)
H5 H 0.6346 0.2545 0.9948
C13 C 0.4522(5) 0.9109(7) 0.81702(19)
H6 H 0.4225 0.8172 0.8351
C14 C 0.8676(7) 1.2029(7) 0.79055(19)
H7 H 0.8465 1.2948 0.7675
C15 C 0.8143(6) -0.2910(7) 1.0517(2)
C16 C 0.9943(7) 1.1721(8) 0.8101(2)
H8 H 1.0602 1.2425 0.8000
C17 C 0.5394(7) 1.1963(7) 0.76287(19)
H9 H 0.5673 1.2915 0.7449
C18 C 0.6152(5) 0.7021(6) 0.91739(16)
H10 H 0.5619 0.7958 0.9242
C19 C 0.7651(7) -0.0249(7) 1.0104(2)
C20 C 0.4095(7) 1.1549(8) 0.7591(2)
H11 H 0.3488 1.2235 0.7385
C21 C 0.6194(5) 0.5516(7) 0.94626(18)
H12 H 0.5673 0.5445 0.9724
C22 C 0.7976(11) -0.5289(9) 1.1093(4)
H13 H 0.8253 -0.6378 1.1230
C23 C 0.3666(6) 1.0146(8) 0.7849(2)
H14 H 0.2776 0.9884 0.7808
C24 C 1.0267(6) 1.0363(8) 0.8450(2)
H15 H 1.1140 1.0180 0.8582
C25 C 0.6974(12) -0.4498(13) 1.1267(3)
H16 H 0.6592 -0.5032 1.1528
C26 C 0.8625(7) -0.4559(10) 1.0717(3)
H17 H 0.9335 -0.5114 1.0602
C27 C 0.6502(7) -0.2970(11) 1.1080(3)
H18 H 0.5789 -0.2449 1.1203
N3? N 0.8776(3) -0.1775(4) 1.00894(8)
S2? S 0.6547(3) -0.0370(3) 1.04865(11)
loop_
_geom_bond_atom_site_label_1
_geom_bond_atom_site_label_2
_geom_bond_site_symmetry_1
_geom_bond_site_symmetry_2
S1 C15 1_555 1_555
N1 C10 1_555 1_555
C1 N2 1_555 1_555
C2 N2 1_555 1_555
N2 C6 1_555 1_555
C3 C4 1_555 1_555
C4 C1 1_555 1_555
C5 C9 1_555 1_555
C6 C3 1_555 1_555
C7 C2 1_555 1_555
H1 C7 1_555 1_555
C8 H2 1_555 1_555
C9 C7 1_555 1_555
H3 C9 1_555 1_555
C10 C15 1_555 1_555
C11 C6 1_555 1_555
H4 C11 1_555 1_555
C12 C5 1_555 1_555
H5 C12 1_555 1_555
C13 C1 1_555 1_555
H6 C13 1_555 1_555
C14 C3 1_555 1_555
H7 C14 1_555 1_555
C15 C26 1_555 1_555
C16 C14 1_555 1_555
H8 C16 1_555 1_555
C17 C4 1_555 1_555
H9 C17 1_555 1_555
C18 C2 1_555 1_555
H10 C18 1_555 1_555
C19 S1 1_555 1_555
C20 C17 1_555 1_555
H11 C20 1_555 1_555
C21 C5 1_555 1_555
H12 C21 1_555 1_555
C22 H13 1_555 1_555
C23 C13 1_555 1_555
H14 C23 1_555 1_555
C24 C11 1_555 1_555
H15 C24 1_555 1_555
C25 C22 1_555 1_555
H16 C25 1_555 1_555
C26 C22 1_555 1_555
H17 C26 1_555 1_555
C27 C10 1_555 1_555
H18 C27 1_555 1_555
N1 C19 1_555 1_555
C8 C12 1_555 1_555
C8 C19 1_555 1_555
C16 C24 1_555 1_555
C18 C21 1_555 1_555
C20 C23 1_555 1_555
C25 C27 1_555 1_555

#END
