
#######################################################################
#
#                 Cambridge Crystallographic Data Centre
#                                CCDC 
#
#######################################################################
#
# If this CIF has been generated from an entry in the Cambridge 
# Structural Database, then it will include bibliographic, chemical, 
# crystal, experimental, refinement or atomic coordinate data resulting 
# from the CCDC's data processing and validation procedures.
#
#######################################################################

data_RULFOV
_chemical_formula_moiety         'C26 H17 O3 P1'
_chemical_name_systematic        
'6-(1-naphthyloxy)-6H-benzo[c]naphtho[2,1-e][1,2]oxaphosphinine 6-oxide'
_symmetry_cell_setting           orthorhombic
_symmetry_space_group_name_H-M   'P 21 21 21'
_symmetry_Int_Tables_number      19
_space_group_name_Hall           'P 2ac 2ab'
loop_
_symmetry_equiv_pos_site_id
_symmetry_equiv_pos_as_xyz
1 x,y,z
2 1/2-x,-y,1/2+z
3 -x,1/2+y,1/2-z
4 1/2+x,1/2-y,-z
_cell_length_a                   8.4926(17)
_cell_length_b                   12.013(2)
_cell_length_c                   19.248(4)
_cell_angle_alpha                90
_cell_angle_beta                 90
_cell_angle_gamma                90
_cell_volume                     1963.71
_exptl_crystal_colour            colorless
_exptl_crystal_description       block
_cell_formula_units_Z            4
loop_
_atom_site_label
_atom_site_type_symbol
_atom_site_fract_x
_atom_site_fract_y
_atom_site_fract_z
P1 P 0.85919(6) 0.67986(5) 0.84138(2)
O1 O 0.82365(17) 0.57747(13) 0.79073(7)
O2 O 0.85799(19) 0.78517(12) 0.79113(8)
O3 O 0.75002(18) 0.68480(18) 0.89949(8)
C1 C 0.9263(2) 0.56085(15) 0.73496(10)
C2 C 0.8536(3) 0.52765(16) 0.67199(11)
C3 C 0.6890(3) 0.5126(2) 0.66579(13)
H1 H 0.6241 0.5224 0.7042
C4 C 0.6258(4) 0.4838(2) 0.60317(15)
H2 H 0.5177 0.4734 0.5992
C5 C 0.7227(5) 0.4698(3) 0.54467(14)
H3 H 0.6780 0.4515 0.5021
C6 C 0.8787(4) 0.4825(2) 0.54981(13)
H4 H 0.9406 0.4721 0.5105
C7 C 0.9529(3) 0.51162(18) 0.61375(12)
C8 C 1.1160(3) 0.5273(2) 0.62101(12)
H5 H 1.1813 0.5160 0.5829
C9 C 1.1806(3) 0.5586(2) 0.68295(12)
H6 H 1.2891 0.5680 0.6860
C10 C 1.0866(2) 0.57704(16) 0.74254(11)
C11 C 1.1546(3) 0.61158(16) 0.80959(10)
C12 C 1.3132(3) 0.5951(2) 0.82589(13)
H7 H 1.3798 0.5626 0.7934
C13 C 1.3723(3) 0.6268(2) 0.89012(15)
H8 H 1.4786 0.6159 0.8997
C14 C 1.2785(3) 0.6735(3) 0.93949(13)
H9 H 1.3201 0.6931 0.9825
C15 C 1.1208(3) 0.6917(2) 0.92535(12)
H10 H 1.0557 0.7238 0.9586
C16 C 1.0607(2) 0.66148(18) 0.86079(11)
C17 C 0.7402(3) 0.79867(17) 0.74061(12)
C18 C 0.5853(3) 0.7988(2) 0.75746(14)
H11 H 0.5542 0.7912 0.8035
C19 C 0.4717(3) 0.8105(3) 0.70460(17)
H12 H 0.3651 0.8106 0.7156
C20 C 0.5186(4) 0.8218(3) 0.63724(17)
H13 H 0.4429 0.8280 0.6026
C21 C 0.6776(4) 0.8243(2) 0.61915(13)
C22 C 0.7304(6) 0.8372(3) 0.54993(16)
H14 H 0.6569 0.8408 0.5142
C23 C 0.8859(6) 0.8443(3) 0.53450(18)
H15 H 0.9175 0.8544 0.4887
C24 C 0.9980(5) 0.8367(3) 0.58661(18)
H16 H 1.1043 0.8420 0.5754
C25 C 0.9542(3) 0.8216(2) 0.65441(14)
H17 H 1.0305 0.8163 0.6889
C26 C 0.7945(3) 0.81412(18) 0.67177(12)
loop_
_geom_bond_atom_site_label_1
_geom_bond_atom_site_label_2
_geom_bond_site_symmetry_1
_geom_bond_site_symmetry_2
P1 O1 1_555 1_555
O1 C1 1_555 1_555
O2 P1 1_555 1_555
O3 P1 1_555 1_555
C1 C2 1_555 1_555
C2 C3 1_555 1_555
C3 H1 1_555 1_555
C4 C3 1_555 1_555
H2 C4 1_555 1_555
C5 C4 1_555 1_555
H3 C5 1_555 1_555
C6 C5 1_555 1_555
H4 C6 1_555 1_555
C7 C2 1_555 1_555
C8 C7 1_555 1_555
H5 C8 1_555 1_555
C9 C8 1_555 1_555
H6 C9 1_555 1_555
C10 C1 1_555 1_555
C11 C10 1_555 1_555
C12 C11 1_555 1_555
H7 C12 1_555 1_555
C13 C12 1_555 1_555
H8 C13 1_555 1_555
C14 C13 1_555 1_555
H9 C14 1_555 1_555
C15 C14 1_555 1_555
H10 C15 1_555 1_555
C16 P1 1_555 1_555
C17 O2 1_555 1_555
C18 C17 1_555 1_555
H11 C18 1_555 1_555
C19 C18 1_555 1_555
H12 C19 1_555 1_555
C20 C19 1_555 1_555
H13 C20 1_555 1_555
C21 C20 1_555 1_555
C22 C21 1_555 1_555
H14 C22 1_555 1_555
C23 C22 1_555 1_555
H15 C23 1_555 1_555
C24 C23 1_555 1_555
H16 C24 1_555 1_555
C25 C24 1_555 1_555
H17 C25 1_555 1_555
C26 C17 1_555 1_555
C6 C7 1_555 1_555
C9 C10 1_555 1_555
C11 C16 1_555 1_555
C15 C16 1_555 1_555
C21 C26 1_555 1_555
C25 C26 1_555 1_555

#END
