
#######################################################################
#
#                 Cambridge Crystallographic Data Centre
#                                CCDC 
#
#######################################################################
#
# If this CIF has been generated from an entry in the Cambridge 
# Structural Database, then it will include bibliographic, chemical, 
# crystal, experimental, refinement or atomic coordinate data resulting 
# from the CCDC's data processing and validation procedures.
#
#######################################################################

data_RULHOX
_chemical_name_common            
'ethyl 4a-hydroxy-7-((methoxycarbonyl)oxy)-4a,7,8,8a-tetrahydro-4H-1,2-benzoxazine-3-carboxylate'
_chemical_formula_moiety         'C13 H17 N1 O7'
_chemical_name_systematic        
'(4aS*,7R*,8aS*)-ethyl 4a-hydroxy-7-methoxycarboxy-4a,7,8,8a-tetrahydro-4H-benzo[e][1,2]oxazine-3-carboxylate'
_symmetry_cell_setting           orthorhombic
_symmetry_space_group_name_H-M   'P 21 21 21'
_symmetry_Int_Tables_number      19
_space_group_name_Hall           'P 2ac 2ab'
loop_
_symmetry_equiv_pos_site_id
_symmetry_equiv_pos_as_xyz
1 x,y,z
2 1/2-x,-y,1/2+z
3 -x,1/2+y,1/2-z
4 1/2+x,1/2-y,-z
_cell_length_a                   8.837(3)
_cell_length_b                   9.595(3)
_cell_length_c                   16.405(6)
_cell_angle_alpha                90
_cell_angle_beta                 90
_cell_angle_gamma                90
_cell_volume                     1391
_exptl_crystal_colour            colorless
_cell_formula_units_Z            4
loop_
_atom_site_label
_atom_site_type_symbol
_atom_site_fract_x
_atom_site_fract_y
_atom_site_fract_z
O1 O 0.1764(2) 0.0601(3) 0.01157(14)
O2 O 0.5004(3) 0.2120(3) 0.23285(13)
N1 N 0.6327(3) 0.2885(3) 0.21478(17)
O3 O -0.0142(3) 0.0407(3) -0.06840(15)
O4 O 0.6714(2) -0.0488(3) 0.20535(14)
H1 H 0.6248 -0.1160 0.2233
O5 O 0.8530(3) 0.4522(3) 0.17779(15)
C1 C 0.7147(3) 0.2455(4) 0.1547(2)
C2 C 0.4507(4) 0.0982(4) 0.18135(19)
C3 C 0.3381(4) 0.1449(4) 0.1173(2)
C4 C 0.2647(4) 0.0162(4) 0.08218(19)
C5 C 0.5824(3) 0.0186(4) 0.14345(19)
C6 C 0.0559(4) -0.0189(4) -0.00454(18)
C7 C 0.6889(4) 0.1228(4) 0.1020(2)
H2 H 0.7849 0.0778 0.0905
H3 H 0.6452 0.1527 0.0506
O6 O 0.0164(3) -0.1208(3) 0.03176(14)
C8 C 0.5225(4) -0.0877(4) 0.0835(2)
C9 C 0.3810(4) -0.0892(4) 0.0559(2)
O7 O 0.9554(3) 0.2896(3) 0.09624(15)
C10 C 0.8545(4) 0.3320(4) 0.1391(2)
C11 C 0.9898(4) 0.5397(5) 0.1666(2)
C12 C -0.1452(4) -0.0311(5) -0.0956(2)
H4 H -0.1884 0.0174 -0.1411
H5 H -0.2178 -0.0355 -0.0521
H6 H -0.1180 -0.1239 -0.1118
C13 C 0.9565(5) 0.6775(5) 0.2003(3)
H7 H 1.0435 0.7365 0.1943
H8 H 0.9318 0.6687 0.2571
H9 H 0.8723 0.7176 0.1717
H10 H 0.390(5) 0.182(6) 0.073(3)
H11 H 1.011(5) 0.566(5) 0.111(3)
H12 H 0.343(5) -0.152(6) 0.021(3)
H13 H 1.066(5) 0.472(6) 0.206(3)
H14 H 0.254(5) 0.208(6) 0.145(3)
H15 H 0.403(5) 0.051(6) 0.221(3)
H16 H 0.592(5) -0.145(6) 0.072(3)
H17 H 0.194(5) -0.031(6) 0.124(3)
loop_
_geom_bond_atom_site_label_1
_geom_bond_atom_site_label_2
_geom_bond_site_symmetry_1
_geom_bond_site_symmetry_2
O1 C4 1_555 1_555
O2 N1 1_555 1_555
N1 C1 1_555 1_555
O3 C6 1_555 1_555
O4 H1 1_555 1_555
O5 C10 1_555 1_555
C1 C7 1_555 1_555
C2 O2 1_555 1_555
C3 C2 1_555 1_555
C4 C3 1_555 1_555
C5 O4 1_555 1_555
C6 O1 1_555 1_555
C7 C5 1_555 1_555
H2 C7 1_555 1_555
H3 C7 1_555 1_555
O6 C6 1_555 1_555
C8 C5 1_555 1_555
C9 C4 1_555 1_555
O7 C10 1_555 1_555
C10 C1 1_555 1_555
C11 O5 1_555 1_555
C12 O3 1_555 1_555
H4 C12 1_555 1_555
H5 C12 1_555 1_555
H6 C12 1_555 1_555
C13 C11 1_555 1_555
H7 C13 1_555 1_555
H8 C13 1_555 1_555
H9 C13 1_555 1_555
H10 C3 1_555 1_555
H11 C11 1_555 1_555
H12 C9 1_555 1_555
H13 C11 1_555 1_555
H14 C3 1_555 1_555
H15 C2 1_555 1_555
H16 C8 1_555 1_555
H17 C4 1_555 1_555
C2 C5 1_555 1_555
C8 C9 1_555 1_555

#END
