
#######################################################################
#
#                 Cambridge Crystallographic Data Centre
#                                CCDC 
#
#######################################################################
#
# If this CIF has been generated from an entry in the Cambridge 
# Structural Database, then it will include bibliographic, chemical, 
# crystal, experimental, refinement or atomic coordinate data resulting 
# from the CCDC's data processing and validation procedures.
#
#######################################################################

data_RULHEN
_chemical_name_common            
1-t-butyl-6-phenyl-1,5-dihydro-4H-pyrazolo[3,4-d]pyrimidin-4-one
_chemical_formula_moiety         'C15 H16 N4 O1'
_chemical_name_systematic        
1-(t-butyl)-6-phenyl-1,5-dihydro-4H-pyrazolo[3,4-d]pyrimidin-4-one
_symmetry_cell_setting           triclinic
_symmetry_space_group_name_H-M   'P -1'
_symmetry_Int_Tables_number      2
_space_group_name_Hall           '-P 1'
loop_
_symmetry_equiv_pos_site_id
_symmetry_equiv_pos_as_xyz
1 x,y,z
2 -x,-y,-z
_cell_length_a                   7.2363(8)
_cell_length_b                   7.9416(8)
_cell_length_c                   12.7334(15)
_cell_angle_alpha                85.978(9)
_cell_angle_beta                 85.645(10)
_cell_angle_gamma                65.390(11)
_cell_volume                     662.77
_exptl_crystal_colour            colorless
_exptl_crystal_description       Block
_cell_formula_units_Z            2
_exptl_crystal_recrystallization_method 'ethyl acetate'
loop_
_atom_site_label
_atom_site_type_symbol
_atom_site_fract_x
_atom_site_fract_y
_atom_site_fract_z
O1 O 0.0443(3) 0.4643(2) 0.36826(14)
N1 N -0.1082(3) 0.7509(2) 0.43658(16)
H1 H -0.0743 0.7002 0.4999
C1 C -0.4267(4) 1.2271(3) 0.5224(2)
H2 H -0.4898 1.2788 0.4580
C2 C -0.1862(4) 0.9720(3) 0.62166(19)
H3 H -0.0840 0.8489 0.6261
C3 C -0.2175(3) 0.9402(3) 0.42886(19)
N2 N -0.2486(3) 0.9859(2) 0.15220(15)
N3 N -0.2727(3) 1.0337(3) 0.33899(16)
N4 N -0.1691(3) 0.8402(3) 0.08580(16)
C4 C -0.2760(3) 1.0454(3) 0.52636(19)
C5 C -0.1048(4) 0.7324(3) 0.25390(19)
C6 C -0.2455(4) 1.0780(3) 0.7101(2)
H4 H -0.1837 1.0267 0.7748
C7 C -0.0469(3) 0.6332(3) 0.35288(19)
C8 C -0.3937(4) 1.2577(3) 0.7052(2)
H5 H -0.4326 1.3298 0.7661
C9 C -0.2123(3) 0.9236(3) 0.25389(19)
C10 C -0.3470(4) 1.1830(3) -0.00949(19)
H6 H -0.2066 1.1219 -0.0383
H7 H -0.4081 1.3112 -0.0378
H8 H -0.4258 1.1164 -0.0294
C11 C -0.0841(3) 0.6889(3) 0.14732(18)
H9 H -0.0178 0.5668 0.1225
C12 C -0.5669(4) 1.2683(3) 0.1563(2)
H10 H -0.6426 1.2015 0.1329
H11 H -0.6318 1.3987 0.1321
H12 H -0.5667 1.2601 0.2335
C13 C -0.2251(4) 1.2857(3) 0.1418(2)
H13 H -0.2195 1.2788 0.2187
H14 H -0.2904 1.4158 0.1171
H15 H -0.0866 1.2290 0.1098
C14 C -0.4850(4) 1.3321(3) 0.6109(2)
H16 H -0.5876 1.4551 0.6072
C15 C -0.3479(4) 1.1820(3) 0.11023(19)
loop_
_geom_bond_atom_site_label_1
_geom_bond_atom_site_label_2
_geom_bond_site_symmetry_1
_geom_bond_site_symmetry_2
O1 C7 1_555 1_555
N1 H1 1_555 1_555
C1 H2 1_555 1_555
C2 H3 1_555 1_555
C3 N1 1_555 1_555
N2 N4 1_555 1_555
N3 C3 1_555 1_555
N4 C11 1_555 1_555
C4 C1 1_555 1_555
C5 C7 1_555 1_555
C6 C2 1_555 1_555
H4 C6 1_555 1_555
C7 N1 1_555 1_555
C8 C6 1_555 1_555
H5 C8 1_555 1_555
C9 N2 1_555 1_555
C10 H6 1_555 1_555
H7 C10 1_555 1_555
H8 C10 1_555 1_555
C11 C5 1_555 1_555
H9 C11 1_555 1_555
C12 H10 1_555 1_555
H11 C12 1_555 1_555
H12 C12 1_555 1_555
C13 H13 1_555 1_555
H14 C13 1_555 1_555
H15 C13 1_555 1_555
C14 C1 1_555 1_555
H16 C14 1_555 1_555
C15 N2 1_555 1_555
C2 C4 1_555 1_555
C3 C4 1_555 1_555
N3 C9 1_555 1_555
C5 C9 1_555 1_555
C8 C14 1_555 1_555
C10 C15 1_555 1_555
C12 C15 1_555 1_555
C13 C15 1_555 1_555

#END
