
#######################################################################
#
#                 Cambridge Crystallographic Data Centre
#                                CCDC 
#
#######################################################################
#
# If this CIF has been generated from an entry in the Cambridge 
# Structural Database, then it will include bibliographic, chemical, 
# crystal, experimental, refinement or atomic coordinate data resulting 
# from the CCDC's data processing and validation procedures.
#
#######################################################################

data_RULLAM
_chemical_formula_moiety         'C24 H24 O4'
_chemical_name_systematic        
3-((5-(4-Methoxyphenyl)-2-methyl-3-furyl)(phenyl)methyl)-2,4-pentanedione
_symmetry_cell_setting           monoclinic
_symmetry_space_group_name_H-M   'P 21/c'
_symmetry_Int_Tables_number      14
_space_group_name_Hall           '-P 2ybc'
loop_
_symmetry_equiv_pos_site_id
_symmetry_equiv_pos_as_xyz
1 x,y,z
2 -x,1/2+y,1/2-z
3 -x,-y,-z
4 x,1/2-y,1/2+z
_cell_length_a                   21.7484(4)
_cell_length_b                   8.3844(2)
_cell_length_c                   11.0805(2)
_cell_angle_alpha                90
_cell_angle_beta                 101.2150(10)
_cell_angle_gamma                90
_cell_volume                     1981.92
_exptl_crystal_colour            colorless
_exptl_crystal_description       block
_cell_formula_units_Z            4
_exptl_crystal_recrystallization_method dichloromethane/hexane
loop_
_atom_site_label
_atom_site_type_symbol
_atom_site_fract_x
_atom_site_fract_y
_atom_site_fract_z
O1 O 0.25002(5) 0.79870(14) 0.64727(10)
O2 O 0.10031(5) 0.81600(13) 0.51262(11)
O3 O 0.57638(5) 0.29713(14) 0.35366(11)
O4 O 0.32019(5) 0.29542(11) 0.54762(9)
C1 C 0.12657(6) 0.48648(15) 0.40231(12)
C2 C 0.12053(7) 0.47997(18) 0.27560(13)
H1 H 0.1512 0.5298 0.2377
C3 C 0.07039(8) 0.4017(2) 0.20342(15)
H2 H 0.0667 0.3990 0.1166
C4 C 0.02590(7) 0.32802(19) 0.25696(16)
H3 H -0.0077 0.2713 0.2076
C5 C 0.03028(7) 0.33685(19) 0.38251(16)
H4 H -0.0009 0.2886 0.4197
C6 C 0.08013(7) 0.41601(18) 0.45445(14)
H5 H 0.0826 0.4223 0.5409
C7 C 0.39631(6) 0.35737(16) 0.42218(12)
C8 C 0.41727(7) 0.45511(18) 0.33781(14)
H6 H 0.3902 0.5356 0.2971
C9 C 0.47659(7) 0.43885(18) 0.31109(14)
H7 H 0.4899 0.5075 0.2529
C10 C 0.51625(7) 0.32195(18) 0.36982(14)
C11 C 0.49548(7) 0.22073(19) 0.45167(15)
H8 H 0.5222 0.1381 0.4900
C12 C 0.43653(7) 0.23783(18) 0.47859(14)
H9 H 0.4232 0.1678 0.5359
C13 C 0.26308(7) 0.34970(17) 0.56732(14)
C14 C 0.24228(6) 0.46964(16) 0.48887(12)
C15 C 0.28880(6) 0.49135(16) 0.41509(12)
H10 H 0.2873 0.5663 0.3503
C16 C 0.33533(6) 0.38565(16) 0.45441(12)
C17 C 0.23800(9) 0.2694(2) 0.66646(18)
H11 H 0.1975 0.3167 0.6726
H12 H 0.2675 0.2828 0.7448
H13 H 0.2324 0.1555 0.6476
C18 C 0.18267(6) 0.56458(15) 0.48427(12)
H14 H 0.1740 0.5680 0.5696
C19 C 0.19355(6) 0.73706(16) 0.44604(12)
H15 H 0.2042 0.7368 0.3622
C20 C 0.13599(7) 0.84235(17) 0.44472(14)
C21 C 0.12764(9) 0.9790(2) 0.3570(2)
H16 H 0.0897 1.0383 0.3643
H17 H 0.1237 0.9388 0.2728
H18 H 0.1641 1.0499 0.3762
C22 C 0.24774(7) 0.81257(16) 0.53786(14)
C23 C 0.29657(8) 0.9025(2) 0.48767(18)
H19 H 0.3280 0.9445 0.5558
H20 H 0.2768 0.9912 0.4367
H21 H 0.3169 0.8309 0.4375
C24 C 0.60108(8) 0.4056(2) 0.27686(16)
H22 H 0.6441 0.3747 0.2729
H23 H 0.6010 0.5135 0.3107
H24 H 0.5752 0.4033 0.1940
loop_
_geom_bond_atom_site_label_1
_geom_bond_atom_site_label_2
_geom_bond_site_symmetry_1
_geom_bond_site_symmetry_2
O1 C22 1_555 1_555
O2 C20 1_555 1_555
O3 C10 1_555 1_555
O4 C13 1_555 1_555
C1 C2 1_555 1_555
C2 H1 1_555 1_555
C3 C2 1_555 1_555
H2 C3 1_555 1_555
C4 C3 1_555 1_555
H3 C4 1_555 1_555
C5 C4 1_555 1_555
H4 C5 1_555 1_555
C6 C1 1_555 1_555
H5 C6 1_555 1_555
C7 C8 1_555 1_555
C8 H6 1_555 1_555
C9 C8 1_555 1_555
H7 C9 1_555 1_555
C10 C9 1_555 1_555
C11 C10 1_555 1_555
H8 C11 1_555 1_555
C12 C7 1_555 1_555
H9 C12 1_555 1_555
C13 C14 1_555 1_555
C14 C15 1_555 1_555
C15 H10 1_555 1_555
C16 O4 1_555 1_555
C17 C13 1_555 1_555
H11 C17 1_555 1_555
H12 C17 1_555 1_555
H13 C17 1_555 1_555
C18 C1 1_555 1_555
H14 C18 1_555 1_555
C19 C18 1_555 1_555
H15 C19 1_555 1_555
C20 C19 1_555 1_555
C21 C20 1_555 1_555
H16 C21 1_555 1_555
H17 C21 1_555 1_555
H18 C21 1_555 1_555
C22 C19 1_555 1_555
C23 C22 1_555 1_555
H19 C23 1_555 1_555
H20 C23 1_555 1_555
H21 C23 1_555 1_555
C24 O3 1_555 1_555
H22 C24 1_555 1_555
H23 C24 1_555 1_555
H24 C24 1_555 1_555
C5 C6 1_555 1_555
C7 C16 1_555 1_555
C11 C12 1_555 1_555
C14 C18 1_555 1_555
C15 C16 1_555 1_555

#END
