
#######################################################################
#
#                 Cambridge Crystallographic Data Centre
#                                CCDC 
#
#######################################################################
#
# If this CIF has been generated from an entry in the Cambridge 
# Structural Database, then it will include bibliographic, chemical, 
# crystal, experimental, refinement or atomic coordinate data resulting 
# from the CCDC's data processing and validation procedures.
#
#######################################################################

data_RULPOD
_chemical_formula_moiety         'C20 H17 Cl2 N2 O3 P1'
_chemical_name_systematic        
'\a-(3-phenylureido)-\a-(2,4-dichlorophenyl)methylphenylphosphinic acid'
_symmetry_cell_setting           orthorhombic
_symmetry_space_group_name_H-M   'P c a 21'
_symmetry_Int_Tables_number      29
_space_group_name_Hall           'P 2c -2ac'
loop_
_symmetry_equiv_pos_site_id
_symmetry_equiv_pos_as_xyz
1 x,y,z
2 -x,-y,1/2+z
3 1/2-x,y,1/2+z
4 1/2+x,-y,z
_cell_length_a                   11.286(2)
_cell_length_b                   20.601(4)
_cell_length_c                   8.695(2)
_cell_angle_alpha                90
_cell_angle_beta                 90
_cell_angle_gamma                90
_cell_volume                     2021.61
_exptl_crystal_colour            colorless
_chemical_melting_point          210deg.C
_cell_formula_units_Z            4
_exptl_crystal_recrystallization_method 'acetone/petroleum ether'
loop_
_atom_site_label
_atom_site_type_symbol
_atom_site_fract_x
_atom_site_fract_y
_atom_site_fract_z
P1 P 0.6545(2) 0.1544(1) 0.1076
Cl1 Cl 0.1020(3) 0.3082(2) 0.1630(5)
Cl2 Cl 0.4351(2) 0.1632(1) 0.4306(4)
O1 O 0.7361(6) 0.1165(3) 0.2158(9)
O2 O 0.7079(5) 0.1744(3) -0.0393(9)
O3 O 0.6779(6) 0.3311(3) 0.3936(7)
N1 N 0.6955(6) 0.2776(3) 0.1690(9)
N2 N 0.7993(6) 0.3708(3) 0.2052(9)
C1 C 0.5330(8) 0.1039(4) 0.0701(10)
C2 C 0.5024(10) 0.0514(5) 0.1606(14)
C3 C 0.4052(15) 0.0126(5) 0.1270(23)
C4 C 0.3384(13) 0.0263(8) 0.0010(27)
C5 C 0.3648(10) 0.0770(6) -0.0876(19)
C6 C 0.4617(9) 0.1167(4) -0.0556(15)
C7 C 0.6116(7) 0.2277(3) 0.2154(10)
C8 C 0.4844(8) 0.2473(4) 0.1992(11)
C9 C 0.3979(9) 0.2200(4) 0.2914(12)
C10 C 0.2798(10) 0.2375(5) 0.2800(13)
C11 C 0.2489(10) 0.2832(5) 0.1771(15)
C12 C 0.3312(10) 0.3119(4) 0.0806(13)
C13 C 0.4478(9) 0.2931(4) 0.0910(12)
C14 C 0.7204(8) 0.3272(3) 0.2641(10)
C15 C 0.8317(8) 0.4323(4) 0.2616(11)
C16 C 0.7660(11) 0.4654(4) 0.3736(13)
C17 C 0.8058(11) 0.5267(4) 0.4137(14)
C18 C 0.8964(11) 0.5569(5) 0.3441(13)
C19 C 0.9599(10) 0.5242(5) 0.2354(14)
C20 C 0.9261(9) 0.4614(1) 0.1952(15)
H1 H 0.8059(6) 0.1373(3) 0.2356(9)
H2 H 0.7095(6) 0.2743(3) 0.0503(9)
H3 H 0.8185(6) 0.3595(3) 0.0997(9)
loop_
_geom_bond_atom_site_label_1
_geom_bond_atom_site_label_2
_geom_bond_site_symmetry_1
_geom_bond_site_symmetry_2
P1 O1 1_555 1_555
Cl1 C11 1_555 1_555
Cl2 C9 1_555 1_555
O1 H1 1_555 1_555
O2 P1 1_555 1_555
O3 C14 1_555 1_555
N1 C7 1_555 1_555
N2 C14 1_555 1_555
C1 P1 1_555 1_555
C2 C1 1_555 1_555
C3 C2 1_555 1_555
C4 C3 1_555 1_555
C5 C4 1_555 1_555
C6 C1 1_555 1_555
C7 P1 1_555 1_555
C8 C7 1_555 1_555
C9 C8 1_555 1_555
C10 C9 1_555 1_555
C11 C10 1_555 1_555
C12 C11 1_555 1_555
C13 C8 1_555 1_555
C14 N1 1_555 1_555
C15 N2 1_555 1_555
C16 C15 1_555 1_555
C17 C16 1_555 1_555
C18 C17 1_555 1_555
C19 C18 1_555 1_555
C20 C15 1_555 1_555
H2 N1 1_555 1_555
H3 N2 1_555 1_555
C5 C6 1_555 1_555
C12 C13 1_555 1_555
C19 C20 1_555 1_555

#END
