
#######################################################################
#
#                 Cambridge Crystallographic Data Centre
#                                CCDC 
#
#######################################################################
#
# If this CIF has been generated from an entry in the Cambridge 
# Structural Database, then it will include bibliographic, chemical, 
# crystal, experimental, refinement or atomic coordinate data resulting 
# from the CCDC's data processing and validation procedures.
#
#######################################################################

data_RULPET
_chemical_formula_moiety         'C14 H13 N2 O1 P1 S2'
_chemical_name_systematic        
P-Anilinyl-P-(4-methoxyphenyl)thiophosphonoisocyanate
_symmetry_cell_setting           monoclinic
_symmetry_space_group_name_H-M   'P 21/n'
_symmetry_Int_Tables_number      14
_space_group_name_Hall           '-P 2yn'
loop_
_symmetry_equiv_pos_site_id
_symmetry_equiv_pos_as_xyz
1 x,y,z
2 1/2-x,1/2+y,1/2-z
3 -x,-y,-z
4 1/2+x,1/2-y,1/2+z
_cell_length_a                   11.310(2)
_cell_length_b                   8.363(3)
_cell_length_c                   16.847(4)
_cell_angle_alpha                90
_cell_angle_beta                 105.01(2)
_cell_angle_gamma                90
_cell_volume                     1539.11
_exptl_crystal_colour            colorless
_chemical_melting_point          83-85deg.C
_cell_formula_units_Z            4
loop_
_atom_site_label
_atom_site_type_symbol
_atom_site_fract_x
_atom_site_fract_y
_atom_site_fract_z
S1 S 0.5162(3) 0.6234(4) 0.5997(2)
S2 S 0.6772(2) 0.0583(4) 0.5949(2)
P1 P 0.5578(2) 0.1204(3) 0.6526(2)
O1 O 0.6520(6) -0.0503(9) 1.0018(4)
N1 N 0.5398(7) 0.319(1) 0.6517(4)
N2 N 0.4271(6) 0.0402(9) 0.6101(4)
C1 C 0.5301(7) 0.454(1) 0.6274(5)
C2 C 0.5927(6) 0.078(1) 0.7598(5)
C3 C 0.577(8) -0.077(1) 0.7839(5)
C4 C 0.5981(8) -0.115(1) 0.8650(5)
C5 C 0.6370(7) 0.000(1) 0.9227(5)
C6 C 0.6589(8) 0.152(1) 0.9014(5)
C7 C 0.6354(8) 0.192(1) 0.8183(5)
C8 C 0.6861(9) 0.065(2) 1.0637(6)
C9 C 0.3145(7) 0.040(1) 0.6359(5)
C10 C 0.2258(8) -0.065(1) 0.5964(5)
C11 C 0.1142(8) -0.070(1) 0.6184(6)
C12 C 0.1008(8) 0.026(1) 0.6814(5)
C13 C 0.1887(8) 0.128(1) 0.7208(5)
C14 C 0.2983(7) 0.134(1) 0.6983(5)
loop_
_geom_bond_atom_site_label_1
_geom_bond_atom_site_label_2
_geom_bond_site_symmetry_1
_geom_bond_site_symmetry_2
S1 C1 1_555 1_555
S2 P1 1_555 1_555
P1 N1 1_555 1_555
O1 C5 1_555 1_555
N1 C1 1_555 1_555
N2 P1 1_555 1_555
C2 P1 1_555 1_555
C3 C2 1_555 1_555
C4 C3 1_555 1_555
C5 C4 1_555 1_555
C6 C5 1_555 1_555
C7 C2 1_555 1_555
C8 O1 1_555 1_555
C9 N2 1_555 1_555
C10 C9 1_555 1_555
C11 C10 1_555 1_555
C12 C11 1_555 1_555
C13 C12 1_555 1_555
C14 C9 1_555 1_555
C6 C7 1_555 1_555
C13 C14 1_555 1_555

#END
