
#######################################################################
#
#                 Cambridge Crystallographic Data Centre
#                                CCDC 
#
#######################################################################
#
# If this CIF has been generated from an entry in the Cambridge 
# Structural Database, then it will include bibliographic, chemical, 
# crystal, experimental, refinement or atomic coordinate data resulting 
# from the CCDC's data processing and validation procedures.
#
#######################################################################

data_RULWIE
_chemical_formula_moiety         'C25 H25 N1 O3'
_chemical_name_systematic        
3-(1-Hydroxy-3-phenylpropyl)-4-(4-methoxyphenyl)-1-phenylazetidin-2-one
_symmetry_cell_setting           orthorhombic
_symmetry_space_group_name_H-M   'P 21 21 21'
_symmetry_Int_Tables_number      19
_space_group_name_Hall           'P 2ac 2ab'
loop_
_symmetry_equiv_pos_site_id
_symmetry_equiv_pos_as_xyz
1 x,y,z
2 1/2-x,-y,1/2+z
3 1/2+x,1/2-y,-z
4 -x,1/2+y,1/2-z
_cell_length_a                   17.350(3)
_cell_length_b                   19.395(3)
_cell_length_c                   6.045(1)
_cell_angle_alpha                90
_cell_angle_beta                 90
_cell_angle_gamma                90
_cell_volume                     2034.16
_cell_formula_units_Z            4
loop_
_atom_site_label
_atom_site_type_symbol
_atom_site_fract_x
_atom_site_fract_y
_atom_site_fract_z
N1 N -0.2174(2) 0.3052(2) 0.4050(7)
C1 C -0.2027(3) 0.3602(2) 0.5368(9)
C2 C -0.1383(3) 0.3862(2) 0.3914(9)
C3 C -0.1592(3) 0.3251(2) 0.2354(10)
O1 O -0.2332(2) 0.3794(2) 0.7110(7)
C4 C -0.1465(3) 0.4602(2) 0.3079(10)
C5 C -0.0923(3) 0.4774(3) 0.1186(10)
C6 C -0.0080(3) 0.4630(3) 0.1737(10)
C7 C 0.0517(3) 0.4983(2) 0.0304(10)
C8 C 0.1259(3) 0.5070(3) 0.1110(11)
C9 C 0.1824(3) 0.5402(3) -0.0078(12)
C10 C 0.1651(3) 0.5667(3) -0.2142(14)
C11 C 0.0922(4) 0.5576(3) -0.3010(11)
C12 C 0.0347(3) 0.5234(3) -0.1843(10)
O2 O -0.2243(2) 0.4689(2) 0.2439(8)
C13 C -0.2704(3) 0.2504(2) 0.4067(9)
C14 C -0.3213(3) 0.2427(3) 0.5853(10)
C15 C -0.3741(3) 0.1893(3) 0.5817(13)
C16 C -0.3791(3) 0.1442(3) 0.4041(14)
C17 C -0.3276(3) 0.1529(3) 0.2304(12)
C18 C -0.2739(3) 0.2047(3) 0.2303(10)
C19 C -0.0976(3) 0.2732(2) 0.1889(9)
C20 C -0.0781(3) 0.2228(3) 0.3436(9)
C21 C -0.0197(3) 0.1764(2) 0.3011(9)
C22 C 0.0192(3) 0.1779(2) 0.0998(10)
C23 C 0.0018(3) 0.2276(3) -0.0543(9)
C24 C -0.0575(3) 0.2741(3) -0.0098(10)
O3 O 0.0739(2) 0.1281(2) 0.0719(8)
C25 C 0.1245(3) 0.1347(3) -0.1130(12)
H1 H -0.0814 0.3936 0.4455
H2 H -0.1734 0.3332 0.0685
H3 H -0.1311 0.4944 0.4352
H4 H -0.0982 0.5299 0.0803
H5 H -0.1078 0.4476 -0.0195
H6 H 0.0008 0.4096 0.1605
H7 H 0.0015 0.4786 0.3378
H8 H 0.1388 0.4885 0.2609
H9 H 0.2355 0.5451 0.0545
H10 H 0.2052 0.5923 -0.3002
H11 H 0.0805 0.5761 -0.4517
H12 H -0.0176 0.5167 -0.2505
H13 H -0.2376 0.5163 0.2336
H14 H -0.3194 0.2753 0.7133
H15 H -0.4096 0.1830 0.7105
H16 H -0.4185 0.1066 0.4012
H17 H -0.3298 0.1205 0.1019
H18 H -0.2373 0.2096 0.1034
H19 H -0.1068 0.2203 0.4869
H20 H -0.0052 0.1415 0.4155
H21 H 0.0312 0.2304 -0.1963
H22 H -0.0715 0.3091 -0.1243
H23 H 0.1634 0.0932 -0.1145
H24 H 0.0922 0.1345 -0.2599
H25 H 0.1552 0.1812 -0.1007
loop_
_geom_bond_atom_site_label_1
_geom_bond_atom_site_label_2
_geom_bond_site_symmetry_1
_geom_bond_site_symmetry_2
N1 C1 1_555 1_555
C1 C2 1_555 1_555
C2 C3 1_555 1_555
C3 N1 1_555 1_555
O1 C1 1_555 1_555
C4 C2 1_555 1_555
C5 C4 1_555 1_555
C6 C5 1_555 1_555
C7 C6 1_555 1_555
C8 C7 1_555 1_555
C9 C8 1_555 1_555
C10 C9 1_555 1_555
C11 C10 1_555 1_555
C12 C7 1_555 1_555
O2 C4 1_555 1_555
C13 N1 1_555 1_555
C14 C13 1_555 1_555
C15 C14 1_555 1_555
C16 C15 1_555 1_555
C17 C16 1_555 1_555
C18 C13 1_555 1_555
C19 C3 1_555 1_555
C20 C19 1_555 1_555
C21 C20 1_555 1_555
C22 C21 1_555 1_555
C23 C22 1_555 1_555
C24 C19 1_555 1_555
O3 C22 1_555 1_555
C25 O3 1_555 1_555
H1 C2 1_555 1_555
H2 C3 1_555 1_555
H3 C4 1_555 1_555
H4 C5 1_555 1_555
H5 C5 1_555 1_555
H6 C6 1_555 1_555
H7 C6 1_555 1_555
H8 C8 1_555 1_555
H9 C9 1_555 1_555
H10 C10 1_555 1_555
H11 C11 1_555 1_555
H12 C12 1_555 1_555
H13 O2 1_555 1_555
H14 C14 1_555 1_555
H15 C15 1_555 1_555
H16 C16 1_555 1_555
H17 C17 1_555 1_555
H18 C18 1_555 1_555
H19 C20 1_555 1_555
H20 C21 1_555 1_555
H21 C23 1_555 1_555
H22 C24 1_555 1_555
H23 C25 1_555 1_555
H24 C25 1_555 1_555
H25 C25 1_555 1_555
C11 C12 1_555 1_555
C17 C18 1_555 1_555
C23 C24 1_555 1_555

#END
