
#######################################################################
#
#                 Cambridge Crystallographic Data Centre
#                                CCDC 
#
#######################################################################
#
# If this CIF has been generated from an entry in the Cambridge 
# Structural Database, then it will include bibliographic, chemical, 
# crystal, experimental, refinement or atomic coordinate data resulting 
# from the CCDC's data processing and validation procedures.
#
#######################################################################

data_RUMGEM
_chemical_formula_moiety         'C156 H90,4(C2 H3 N1),2(C4 H8 O1)'
_chemical_name_systematic        
"3,3',3'',3''',3'''',3'''''-benzene-1,2,3,4,5,6-hexaylhexakis(9,9'-spirobi[fluorene]) acetonitrile tetrahydrofuran solvate"
_symmetry_cell_setting           monoclinic
_symmetry_space_group_name_H-M   'P 21/c'
_symmetry_Int_Tables_number      14
_space_group_name_Hall           '-P 2ybc'
loop_
_symmetry_equiv_pos_site_id
_symmetry_equiv_pos_as_xyz
1 x,y,z
2 -x,1/2+y,1/2-z
3 -x,-y,-z
4 x,1/2-y,1/2+z
_cell_length_a                   18.405(9)
_cell_length_b                   18.451(9)
_cell_length_c                   24.165(9)
_cell_angle_alpha                90
_cell_angle_beta                 128.69(2)
_cell_angle_gamma                90
_cell_volume                     6405.27
_exptl_crystal_colour            colorless
_exptl_crystal_description       prism
_cell_formula_units_Z            2
_exptl_crystal_recrystallization_method tetrahydrofuran/acetonitrile
loop_
_atom_site_label
_atom_site_type_symbol
_atom_site_fract_x
_atom_site_fract_y
_atom_site_fract_z
C1 C -0.04521(12) 0.06564(10) -0.00642(9)
C2 C 0.04201(12) 0.04695(10) 0.05850(10)
C3 C 0.08712(12) -0.01836(10) 0.06532(9)
C4 C -0.09709(13) 0.13171(10) -0.01108(9)
C5 C -0.06244(13) 0.20306(10) -0.00037(10)
H1 H -0.0043 0.2106 0.0096
C6 C -0.11228(13) 0.26285(11) -0.00413(10)
H2 H -0.0881 0.3105 0.0033
C7 C -0.19801(13) 0.25157(10) -0.01888(10)
C8 C -0.23263(13) 0.18043(10) -0.02942(10)
C9 C -0.18356(12) 0.12105(10) -0.02595(9)
H3 H -0.2081 0.0736 -0.0335
C10 C -0.26623(13) 0.30196(11) -0.02608(10)
C11 C -0.26479(14) 0.37791(11) -0.02005(11)
H4 H -0.2149 0.4056 -0.0111
C12 C -0.33841(15) 0.41160(12) -0.02752(11)
H5 H -0.3384 0.4628 -0.0236
C13 C -0.41193(15) 0.37133(12) -0.04066(12)
H6 H -0.4609 0.3953 -0.0449
C14 C -0.41419(14) 0.29538(12) -0.04763(11)
H7 H -0.4646 0.2679 -0.0573
C15 C -0.34116(13) 0.26149(11) -0.04014(10)
C16 C -0.32563(13) 0.17979(11) -0.04208(10)
C17 C -0.40235(13) 0.13798(10) -0.10976(10)
C18 C -0.44302(14) 0.15332(12) -0.18003(11)
H8 H -0.4264 0.1959 -0.1920
C19 C -0.50907(14) 0.10479(12) -0.23305(11)
H9 H -0.5379 0.1149 -0.2813
C20 C -0.53281(15) 0.04172(12) -0.21550(12)
H10 H -0.5766 0.0089 -0.2519
C21 C -0.49286(14) 0.02630(12) -0.14499(11)
H11 H -0.5095 -0.0164 -0.1332
C22 C -0.42792(13) 0.07503(11) -0.09214(11)
C23 C -0.37659(13) 0.07440(11) -0.01468(11)
C24 C -0.37922(15) 0.02607(12) 0.02861(12)
H12 H -0.4189 -0.0151 0.0087
C25 C -0.32274(16) 0.03910(12) 0.10147(12)
H13 H -0.3247 0.0070 0.1313
C26 C -0.26325(16) 0.09919(12) 0.13087(12)
H14 H -0.2248 0.1073 0.1806
C27 C -0.25983(14) 0.14744(11) 0.08797(11)
H15 H -0.2190 0.1879 0.1082
C28 C -0.31724(13) 0.13523(11) 0.01512(10)
C29 C 0.08647(12) 0.09725(10) 0.12080(9)
C30 C 0.06491(13) 0.09467(11) 0.16671(10)
H16 H 0.0207 0.0603 0.1585
C31 C 0.10708(13) 0.14181(11) 0.22468(11)
H17 H 0.0917 0.1398 0.2556
C32 C 0.17256(13) 0.19203(11) 0.23617(10)
C33 C 0.19392(12) 0.19467(10) 0.18988(10)
C34 C 0.15109(12) 0.14818(10) 0.13194(10)
H18 H 0.1654 0.1509 0.1004
C35 C 0.23118(13) 0.24661(11) 0.29277(10)
C36 C 0.23811(14) 0.26506(12) 0.35203(11)
H19 H 0.1995 0.2424 0.3605
C37 C 0.30333(15) 0.31785(12) 0.39879(11)
H20 H 0.3085 0.3315 0.4390
C38 C 0.36063(15) 0.35040(12) 0.38672(11)
H21 H 0.4054 0.3852 0.4196
C39 C 0.35348(14) 0.33294(11) 0.32749(11)
H22 H 0.3925 0.3556 0.3195
C40 C 0.28766(13) 0.28128(10) 0.28006(10)
C41 C 0.26728(13) 0.25267(11) 0.21214(10)
C42 C 0.34991(13) 0.21943(11) 0.21946(10)
C43 C 0.41395(13) 0.16805(11) 0.26818(11)
H23 H 0.4128 0.1513 0.3048
C44 C 0.47985(14) 0.14171(12) 0.26225(12)
H24 H 0.5250 0.1076 0.2958
C45 C 0.47997(16) 0.16517(13) 0.20732(13)
H25 H 0.5237 0.1454 0.2028
C46 C 0.41646(15) 0.21741(13) 0.15890(13)
H26 H 0.4174 0.2339 0.1221
C47 C 0.35155(14) 0.24492(11) 0.16562(11)
C48 C 0.27716(14) 0.30036(12) 0.12366(11)
C49 C 0.25027(17) 0.34191(14) 0.06514(13)
H27 H 0.2817 0.3371 0.0457
C50 C 0.17649(18) 0.39055(14) 0.03578(14)
H28 H 0.1581 0.4194 -0.0036
C51 C 0.12973(17) 0.39730(13) 0.06339(13)
H29 H 0.0797 0.4307 0.0427
C52 C 0.15533(15) 0.35548(12) 0.12152(12)
H30 H 0.1227 0.3597 0.1400
C53 C 0.22994(14) 0.30752(11) 0.15165(11)
C54 C 0.17477(12) -0.04216(10) 0.13627(9)
C55 C 0.17070(13) -0.10610(11) 0.16606(10)
H31 H 0.1141 -0.1325 0.1419
C56 C 0.25014(13) -0.13032(11) 0.23114(10)
C57 C 0.33454(13) -0.09171(11) 0.26762(10)
C58 C 0.33962(13) -0.02896(11) 0.23814(10)
H32 H 0.3966 -0.0031 0.2622
C59 C 0.26005(13) -0.00456(11) 0.17284(10)
H33 H 0.2634 0.0382 0.1526
C60 C 0.40473(13) -0.13018(12) 0.33517(10)
C61 C 0.49765(14) -0.11229(14) 0.39167(11)
H34 H 0.5256 -0.0702 0.3897
C62 C 0.54782(15) -0.15788(15) 0.45074(11)
H35 H 0.6106 -0.1466 0.4895
C63 C 0.50669(16) -0.21969(16) 0.45330(12)
H36 H 0.5421 -0.2501 0.4939
C64 C 0.41429(15) -0.23818(14) 0.39745(12)
H37 H 0.3870 -0.2806 0.3997
C65 C 0.36341(14) -0.19261(12) 0.33846(11)
C66 C 0.26053(13) -0.19884(11) 0.27185(10)
C67 C 0.18927(13) -0.19999(11) 0.28549(10)
C68 C 0.18603(14) -0.15735(12) 0.33141(11)
H38 H 0.2323 -0.1216 0.3601
C69 C 0.11350(15) -0.16804(13) 0.33453(12)
H39 H 0.1108 -0.1397 0.3660
C70 C 0.04453(16) -0.22034(13) 0.29155(13)
H40 H -0.0049 -0.2265 0.2937
C71 C 0.04799(15) -0.26332(13) 0.24586(12)
H41 H 0.0012 -0.2986 0.2168
C72 C 0.12123(14) -0.25374(12) 0.24339(11)
C73 C 0.14783(15) -0.29504(12) 0.20602(11)
C74 C 0.10679(18) -0.35564(13) 0.16134(12)
H42 H 0.0489 -0.3739 0.1466
C75 C 0.15277(19) -0.38842(13) 0.13907(13)
H43 H 0.1265 -0.4301 0.1096
C76 C 0.23699(19) -0.36082(13) 0.15951(13)
H44 H 0.2678 -0.3843 0.1444
C77 C 0.27665(16) -0.29861(13) 0.20221(12)
H45 H 0.3329 -0.2788 0.2148
C78 C 0.23202(14) -0.26669(11) 0.22563(11)
C1B C 0.04521(12) -0.06564(10) 0.00642(9)
C2B C -0.04201(12) -0.04695(10) -0.05850(10)
C3B C -0.08712(12) 0.01836(10) -0.06532(9)
C4B C 0.09709(13) -0.13171(10) 0.01108(9)
C5B C 0.06244(13) -0.20306(10) 0.00037(10)
H1B H 0.0043 -0.2106 -0.0096
C6B C 0.11228(13) -0.26285(11) 0.00413(10)
H2B H 0.0881 -0.3105 -0.0033
C7B C 0.19801(13) -0.25157(10) 0.01888(10)
C8B C 0.23263(13) -0.18043(10) 0.02942(10)
C9B C 0.18356(12) -0.12105(10) 0.02595(9)
H3B H 0.2081 -0.0736 0.0335
C10B C 0.26623(13) -0.30196(11) 0.02608(10)
C11B C 0.26479(14) -0.37791(11) 0.02005(11)
H4B H 0.2149 -0.4056 0.0111
C12B C 0.33841(15) -0.41160(12) 0.02752(11)
H5B H 0.3384 -0.4628 0.0236
C13B C 0.41193(15) -0.37133(12) 0.04066(12)
H6B H 0.4609 -0.3953 0.0449
C14B C 0.41419(14) -0.29538(12) 0.04763(11)
H7B H 0.4646 -0.2679 0.0573
C15B C 0.34116(13) -0.26149(11) 0.04014(10)
C16B C 0.32563(13) -0.17979(11) 0.04208(10)
C17B C 0.40235(13) -0.13798(10) 0.10976(10)
C18B C 0.44302(14) -0.15332(12) 0.18003(11)
H8B H 0.4264 -0.1959 0.1920
C19B C 0.50907(14) -0.10479(12) 0.23305(11)
H9B H 0.5379 -0.1149 0.2813
C20B C 0.53281(15) -0.04172(12) 0.21550(12)
H10B H 0.5766 -0.0089 0.2519
C21B C 0.49286(14) -0.02630(12) 0.14499(11)
H11B H 0.5095 0.0164 0.1332
C22B C 0.42792(13) -0.07503(11) 0.09214(11)
C23B C 0.37659(13) -0.07440(11) 0.01468(11)
C24B C 0.37922(15) -0.02607(12) -0.02861(12)
H12B H 0.4189 0.0151 -0.0087
C25B C 0.32274(16) -0.03910(12) -0.10147(12)
H13B H 0.3247 -0.0070 -0.1313
C26B C 0.26325(16) -0.09919(12) -0.13087(12)
H14B H 0.2248 -0.1073 -0.1806
C27B C 0.25983(14) -0.14744(11) -0.08797(11)
H15B H 0.2190 -0.1879 -0.1082
C28B C 0.31724(13) -0.13523(11) -0.01512(10)
C29B C -0.08647(12) -0.09725(10) -0.12080(9)
C30B C -0.06491(13) -0.09467(11) -0.16671(10)
H16B H -0.0207 -0.0603 -0.1585
C31B C -0.10708(13) -0.14181(11) -0.22468(11)
H17B H -0.0917 -0.1398 -0.2556
C32B C -0.17256(13) -0.19203(11) -0.23617(10)
C33B C -0.19392(12) -0.19467(10) -0.18988(10)
C34B C -0.15109(12) -0.14818(10) -0.13194(10)
H18B H -0.1654 -0.1509 -0.1004
C35B C -0.23118(13) -0.24661(11) -0.29277(10)
C36B C -0.23811(14) -0.26506(12) -0.35203(11)
H19B H -0.1995 -0.2424 -0.3605
C37B C -0.30333(15) -0.31785(12) -0.39879(11)
H20B H -0.3085 -0.3315 -0.4390
C38B C -0.36063(15) -0.35040(12) -0.38672(11)
H21B H -0.4054 -0.3852 -0.4196
C39B C -0.35348(14) -0.33294(11) -0.32749(11)
H22B H -0.3925 -0.3556 -0.3195
C40B C -0.28766(13) -0.28128(10) -0.28006(10)
C41B C -0.26728(13) -0.25267(11) -0.21214(10)
C42B C -0.34991(13) -0.21943(11) -0.21946(10)
C43B C -0.41395(13) -0.16805(11) -0.26818(11)
H23B H -0.4128 -0.1513 -0.3048
C44B C -0.47985(14) -0.14171(12) -0.26225(12)
H24B H -0.5250 -0.1076 -0.2958
C45B C -0.47997(16) -0.16517(13) -0.20732(13)
H25B H -0.5237 -0.1454 -0.2028
C46B C -0.41646(15) -0.21741(13) -0.15890(13)
H26B H -0.4174 -0.2339 -0.1221
C47B C -0.35155(14) -0.24492(11) -0.16562(11)
C48B C -0.27716(14) -0.30036(12) -0.12366(11)
C49B C -0.25027(17) -0.34191(14) -0.06514(13)
H27B H -0.2817 -0.3371 -0.0457
C50B C -0.17649(18) -0.39055(14) -0.03578(14)
H28B H -0.1581 -0.4194 0.0036
C51B C -0.12973(17) -0.39730(13) -0.06339(13)
H29B H -0.0797 -0.4307 -0.0427
C52B C -0.15533(15) -0.35548(12) -0.12152(12)
H30B H -0.1227 -0.3597 -0.1400
C53B C -0.22994(14) -0.30752(11) -0.15165(11)
C54B C -0.17477(12) 0.04216(10) -0.13627(9)
C55B C -0.17070(13) 0.10610(11) -0.16606(10)
H31B H -0.1141 0.1325 -0.1419
C56B C -0.25014(13) 0.13032(11) -0.23114(10)
C57B C -0.33454(13) 0.09171(11) -0.26762(10)
C58B C -0.33962(13) 0.02896(11) -0.23814(10)
H32B H -0.3966 0.0031 -0.2622
C59B C -0.26005(13) 0.00456(11) -0.17284(10)
H33B H -0.2634 -0.0382 -0.1526
C60B C -0.40473(13) 0.13018(12) -0.33517(10)
C61B C -0.49765(14) 0.11229(14) -0.39167(11)
H34B H -0.5256 0.0702 -0.3897
C62B C -0.54782(15) 0.15788(15) -0.45074(11)
H35B H -0.6106 0.1466 -0.4895
C63B C -0.50669(16) 0.21969(16) -0.45330(12)
H36B H -0.5421 0.2501 -0.4939
C64B C -0.41429(15) 0.23818(14) -0.39745(12)
H37B H -0.3870 0.2806 -0.3997
C65B C -0.36341(14) 0.19261(12) -0.33846(11)
C66B C -0.26053(13) 0.19884(11) -0.27185(10)
C67B C -0.18927(13) 0.19999(11) -0.28549(10)
C68B C -0.18603(14) 0.15735(12) -0.33141(11)
H38B H -0.2323 0.1216 -0.3601
C69B C -0.11350(15) 0.16804(13) -0.33453(12)
H39B H -0.1108 0.1397 -0.3660
C70B C -0.04453(16) 0.22034(13) -0.29155(13)
H40B H 0.0049 0.2265 -0.2937
C71B C -0.04799(15) 0.26332(13) -0.24586(12)
H41B H -0.0012 0.2986 -0.2168
C72B C -0.12123(14) 0.25374(12) -0.24339(11)
C73B C -0.14783(15) 0.29504(12) -0.20602(11)
C74B C -0.10679(18) 0.35564(13) -0.16134(12)
H42B H -0.0489 0.3739 -0.1466
C75B C -0.15277(19) 0.38842(13) -0.13907(13)
H43B H -0.1265 0.4301 -0.1096
C76B C -0.23699(19) 0.36082(13) -0.15951(13)
H44B H -0.2678 0.3843 -0.1444
C77B C -0.27665(16) 0.29861(13) -0.20221(12)
H45B H -0.3329 0.2788 -0.2148
C78B C -0.23202(14) 0.26669(11) -0.22563(11)
C79 C 0.2276(2) 0.41268(15) 0.50181(14)
H46 H 0.2909 0.4161 0.5160
H47 H 0.2266 0.4399 0.5366
C80 C 0.1572(2) 0.44380(16) 0.42866(15)
H48 H 0.1319 0.4901 0.4309
H49 H 0.1858 0.4526 0.4056
C81 C 0.0836(2) 0.3890(2) 0.3896(2)
H50 H 0.0766 0.3725 0.3475
H51 H 0.0234 0.4094 0.3735
C82 C 0.1113(2) 0.32739(19) 0.43880(16)
H52 H 0.0698 0.3244 0.4516
H53 H 0.1071 0.2812 0.4161
O1 O 0.20435(17) 0.34015(13) 0.50010(12)
N1 N -0.02545(19) 0.46431(15) 0.09391(17)
C83 C 0.0053(12) 0.4730(10) 0.1504(4)
C84 C 0.0381(10) 0.4885(7) 0.2230(4)
H54 H 0.0335 0.4444 0.2433
H55 H -0.0006 0.5265 0.2210
H56 H 0.1030 0.5047 0.2527
C85 C 0.2471(2) 0.05582(17) 0.38137(17)
C86 C 0.3014(3) 0.03866(18) 0.3598(2)
H57 H 0.2632 0.0118 0.3149
H58 H 0.3547 0.0088 0.3962
H59 H 0.3238 0.0835 0.3532
N2 N 0.2006(3) 0.07056(19) 0.39658(18)
C87? C 0.0224(16) 0.4623(15) 0.1515(4)
C88? C 0.0921(9) 0.4568(6) 0.2287(3)
H60? H 0.0736 0.4876 0.2511
H61? H 0.1526 0.4730 0.2434
H62? H 0.0968 0.4064 0.2433
loop_
_geom_bond_atom_site_label_1
_geom_bond_atom_site_label_2
_geom_bond_site_symmetry_1
_geom_bond_site_symmetry_2
C1 C2 1_555 1_555
C2 C3 1_555 1_555
C3 C54 1_555 1_555
C4 C1 1_555 1_555
C5 C4 1_555 1_555
H1 C5 1_555 1_555
C6 C5 1_555 1_555
H2 C6 1_555 1_555
C7 C6 1_555 1_555
C8 C7 1_555 1_555
C9 C4 1_555 1_555
H3 C9 1_555 1_555
C10 C7 1_555 1_555
C11 C10 1_555 1_555
H4 C11 1_555 1_555
C12 C11 1_555 1_555
H5 C12 1_555 1_555
C13 C12 1_555 1_555
H6 C13 1_555 1_555
C14 C13 1_555 1_555
H7 C14 1_555 1_555
C15 C10 1_555 1_555
C16 C8 1_555 1_555
C17 C16 1_555 1_555
C18 C17 1_555 1_555
H8 C18 1_555 1_555
C19 C18 1_555 1_555
H9 C19 1_555 1_555
C20 C19 1_555 1_555
H10 C20 1_555 1_555
C21 C20 1_555 1_555
H11 C21 1_555 1_555
C22 C17 1_555 1_555
C23 C22 1_555 1_555
C24 C23 1_555 1_555
H12 C24 1_555 1_555
C25 C24 1_555 1_555
H13 C25 1_555 1_555
C26 C25 1_555 1_555
H14 C26 1_555 1_555
C27 C26 1_555 1_555
H15 C27 1_555 1_555
C28 C16 1_555 1_555
C29 C2 1_555 1_555
C30 C29 1_555 1_555
H16 C30 1_555 1_555
C31 C30 1_555 1_555
H17 C31 1_555 1_555
C32 C31 1_555 1_555
C33 C32 1_555 1_555
C34 C29 1_555 1_555
H18 C34 1_555 1_555
C35 C32 1_555 1_555
C36 C35 1_555 1_555
H19 C36 1_555 1_555
C37 C36 1_555 1_555
H20 C37 1_555 1_555
C38 C37 1_555 1_555
H21 C38 1_555 1_555
C39 C38 1_555 1_555
H22 C39 1_555 1_555
C40 C35 1_555 1_555
C41 C33 1_555 1_555
C42 C41 1_555 1_555
C43 C42 1_555 1_555
H23 C43 1_555 1_555
C44 C43 1_555 1_555
H24 C44 1_555 1_555
C45 C44 1_555 1_555
H25 C45 1_555 1_555
C46 C45 1_555 1_555
H26 C46 1_555 1_555
C47 C42 1_555 1_555
C48 C47 1_555 1_555
C49 C48 1_555 1_555
H27 C49 1_555 1_555
C50 C49 1_555 1_555
H28 C50 1_555 1_555
C51 C50 1_555 1_555
H29 C51 1_555 1_555
C52 C51 1_555 1_555
H30 C52 1_555 1_555
C53 C41 1_555 1_555
C54 C55 1_555 1_555
C55 H31 1_555 1_555
C56 C55 1_555 1_555
C57 C56 1_555 1_555
C58 C57 1_555 1_555
H32 C58 1_555 1_555
C59 C54 1_555 1_555
H33 C59 1_555 1_555
C60 C57 1_555 1_555
C61 C60 1_555 1_555
H34 C61 1_555 1_555
C62 C61 1_555 1_555
H35 C62 1_555 1_555
C63 C62 1_555 1_555
H36 C63 1_555 1_555
C64 C63 1_555 1_555
H37 C64 1_555 1_555
C65 C60 1_555 1_555
C66 C56 1_555 1_555
C67 C66 1_555 1_555
C68 C67 1_555 1_555
H38 C68 1_555 1_555
C69 C68 1_555 1_555
H39 C69 1_555 1_555
C70 C69 1_555 1_555
H40 C70 1_555 1_555
C71 C70 1_555 1_555
H41 C71 1_555 1_555
C72 C67 1_555 1_555
C73 C72 1_555 1_555
C74 C73 1_555 1_555
H42 C74 1_555 1_555
C75 C74 1_555 1_555
H43 C75 1_555 1_555
C76 C75 1_555 1_555
H44 C76 1_555 1_555
C77 C76 1_555 1_555
H45 C77 1_555 1_555
C78 C66 1_555 1_555
C79 H46 1_555 1_555
H47 C79 1_555 1_555
C80 C79 1_555 1_555
H48 C80 1_555 1_555
H49 C80 1_555 1_555
C81 C80 1_555 1_555
H50 C81 1_555 1_555
H51 C81 1_555 1_555
C82 C81 1_555 1_555
H52 C82 1_555 1_555
H53 C82 1_555 1_555
N1 C83 1_555 1_555
C83 C84 1_555 1_555
C84 H54 1_555 1_555
H55 C84 1_555 1_555
H56 C84 1_555 1_555
C85 C86 1_555 1_555
C86 H57 1_555 1_555
H58 C86 1_555 1_555
H59 C86 1_555 1_555
N2 C85 1_555 1_555
O1 C79 1_555 1_555
C1B C3 1_555 1_555
C2B C1B 1_555 1_555
C3B C1 1_555 1_555
C4B C1B 1_555 1_555
C5B C4B 1_555 1_555
H1B C5B 1_555 1_555
C6B C5B 1_555 1_555
H2B C6B 1_555 1_555
C7B C6B 1_555 1_555
C8B C7B 1_555 1_555
C9B C4B 1_555 1_555
H3B C9B 1_555 1_555
C10B C7B 1_555 1_555
C11B C10B 1_555 1_555
H4B C11B 1_555 1_555
C12B C11B 1_555 1_555
H5B C12B 1_555 1_555
C13B C12B 1_555 1_555
H6B C13B 1_555 1_555
C14B C13B 1_555 1_555
H7B C14B 1_555 1_555
C15B C10B 1_555 1_555
C16B C8B 1_555 1_555
C17B C16B 1_555 1_555
C18B C17B 1_555 1_555
H8B C18B 1_555 1_555
C19B C18B 1_555 1_555
H9B C19B 1_555 1_555
C20B C19B 1_555 1_555
H10B C20B 1_555 1_555
C21B C20B 1_555 1_555
H11B C21B 1_555 1_555
C22B C17B 1_555 1_555
C23B C22B 1_555 1_555
C24B C23B 1_555 1_555
H12B C24B 1_555 1_555
C25B C24B 1_555 1_555
H13B C25B 1_555 1_555
C26B C25B 1_555 1_555
H14B C26B 1_555 1_555
C27B C26B 1_555 1_555
H15B C27B 1_555 1_555
C28B C16B 1_555 1_555
C29B C2B 1_555 1_555
C30B C29B 1_555 1_555
H16B C30B 1_555 1_555
C31B C30B 1_555 1_555
H17B C31B 1_555 1_555
C32B C31B 1_555 1_555
C33B C32B 1_555 1_555
C34B C29B 1_555 1_555
H18B C34B 1_555 1_555
C35B C32B 1_555 1_555
C36B C35B 1_555 1_555
H19B C36B 1_555 1_555
C37B C36B 1_555 1_555
H20B C37B 1_555 1_555
C38B C37B 1_555 1_555
H21B C38B 1_555 1_555
C39B C38B 1_555 1_555
H22B C39B 1_555 1_555
C40B C35B 1_555 1_555
C41B C33B 1_555 1_555
C42B C41B 1_555 1_555
C43B C42B 1_555 1_555
H23B C43B 1_555 1_555
C44B C43B 1_555 1_555
H24B C44B 1_555 1_555
C45B C44B 1_555 1_555
H25B C45B 1_555 1_555
C46B C45B 1_555 1_555
H26B C46B 1_555 1_555
C47B C42B 1_555 1_555
C48B C47B 1_555 1_555
C49B C48B 1_555 1_555
H27B C49B 1_555 1_555
C50B C49B 1_555 1_555
H28B C50B 1_555 1_555
C51B C50B 1_555 1_555
H29B C51B 1_555 1_555
C52B C51B 1_555 1_555
H30B C52B 1_555 1_555
C53B C41B 1_555 1_555
C54B C3B 1_555 1_555
C55B C54B 1_555 1_555
H31B C55B 1_555 1_555
C56B C55B 1_555 1_555
C57B C56B 1_555 1_555
C58B C57B 1_555 1_555
H32B C58B 1_555 1_555
C59B C54B 1_555 1_555
H33B C59B 1_555 1_555
C60B C57B 1_555 1_555
C61B C60B 1_555 1_555
H34B C61B 1_555 1_555
C62B C61B 1_555 1_555
H35B C62B 1_555 1_555
C63B C62B 1_555 1_555
H36B C63B 1_555 1_555
C64B C63B 1_555 1_555
H37B C64B 1_555 1_555
C65B C60B 1_555 1_555
C66B C56B 1_555 1_555
C67B C66B 1_555 1_555
C68B C67B 1_555 1_555
H38B C68B 1_555 1_555
C69B C68B 1_555 1_555
H39B C69B 1_555 1_555
C70B C69B 1_555 1_555
H40B C70B 1_555 1_555
C71B C70B 1_555 1_555
H41B C71B 1_555 1_555
C72B C67B 1_555 1_555
C73B C72B 1_555 1_555
C74B C73B 1_555 1_555
H42B C74B 1_555 1_555
C75B C74B 1_555 1_555
H43B C75B 1_555 1_555
C76B C75B 1_555 1_555
H44B C76B 1_555 1_555
C77B C76B 1_555 1_555
H45B C77B 1_555 1_555
C78B C66B 1_555 1_555
C8 C9 1_555 1_555
C14 C15 1_555 1_555
C15 C16 1_555 1_555
C21 C22 1_555 1_555
C23 C28 1_555 1_555
C27 C28 1_555 1_555
C33 C34 1_555 1_555
C39 C40 1_555 1_555
C40 C41 1_555 1_555
C46 C47 1_555 1_555
C48 C53 1_555 1_555
C52 C53 1_555 1_555
C58 C59 1_555 1_555
C64 C65 1_555 1_555
C65 C66 1_555 1_555
C71 C72 1_555 1_555
C73 C78 1_555 1_555
C77 C78 1_555 1_555
C82 O1 1_555 1_555
C2B C3B 1_555 1_555
C8B C9B 1_555 1_555
C14B C15B 1_555 1_555
C15B C16B 1_555 1_555
C21B C22B 1_555 1_555
C23B C28B 1_555 1_555
C27B C28B 1_555 1_555
C33B C34B 1_555 1_555
C39B C40B 1_555 1_555
C40B C41B 1_555 1_555
C46B C47B 1_555 1_555
C48B C53B 1_555 1_555
C52B C53B 1_555 1_555
C58B C59B 1_555 1_555
C64B C65B 1_555 1_555
C65B C66B 1_555 1_555
C71B C72B 1_555 1_555
C73B C78B 1_555 1_555
C77B C78B 1_555 1_555

#END
