
#######################################################################
#
#                 Cambridge Crystallographic Data Centre
#                                CCDC 
#
#######################################################################
#
# If this CIF has been generated from an entry in the Cambridge 
# Structural Database, then it will include bibliographic, chemical, 
# crystal, experimental, refinement or atomic coordinate data resulting 
# from the CCDC's data processing and validation procedures.
#
#######################################################################

data_RUMXIH
_chemical_formula_moiety         'C29 H44 N2 O5 Si1'
_chemical_name_systematic        
'2-Methyl-2-propanyl 18-(((dimethyl(2-methyl-2-propanyl)silyl)oxy)methyl)-4-methoxy-14-oxo-8,15-diazapentacyclo[10.5.1.0^1,9^.0^2,7^.0^9,15^]octadeca-2,4,6-triene-8-carboxylate'
_symmetry_cell_setting           triclinic
_symmetry_space_group_name_H-M   'P -1'
_symmetry_Int_Tables_number      2
_space_group_name_Hall           '-P 1'
loop_
_symmetry_equiv_pos_site_id
_symmetry_equiv_pos_as_xyz
1 x,y,z
2 -x,-y,-z
_cell_length_a                   7.591(1)
_cell_length_b                   14.080(2)
_cell_length_c                   14.268(3)
_cell_angle_alpha                94.31(1)
_cell_angle_beta                 103.19(1)
_cell_angle_gamma                90.93(1)
_cell_volume                     1479.68
_exptl_crystal_colour            colorless
_exptl_crystal_description       block
_chemical_melting_point          '173-175 deg.C'
_cell_formula_units_Z            2
_exptl_crystal_recrystallization_method ethanol
loop_
_atom_site_label
_atom_site_type_symbol
_atom_site_fract_x
_atom_site_fract_y
_atom_site_fract_z
Si1 Si 0.57064(11) 0.40097(5) 0.30320(6)
O1 O 0.9043(2) 0.77334(14) 0.46938(13)
O2 O 0.4636(3) 0.49771(12) 0.27081(13)
O3 O -0.1565(3) 0.61104(14) 0.05483(14)
O4 O -0.0010(2) 0.92377(11) 0.17255(11)
O5 O 0.1309(2) 0.98621(12) 0.32420(12)
N1 N 0.2176(2) 0.84561(13) 0.26303(12)
N2 N 0.0257(2) 0.72372(13) 0.15270(13)
C1 C 0.2070(3) 0.76945(15) 0.18212(14)
C2 C 0.2705(3) 0.81329(16) 0.09991(16)
H1 H 0.1652 0.8288 0.0514
H2 H 0.3383 0.8723 0.1252
C3 C -0.0045(3) 0.68512(18) 0.24150(17)
H3 H -0.0974 0.6346 0.2263
H4 H -0.0396 0.7347 0.2839
C4 C 0.1807(3) 0.64662(19) 0.28768(18)
H5 H 0.1781 0.5776 0.2779
H6 H 0.2125 0.6649 0.3565
C5 C 0.3215(3) 0.69141(15) 0.23684(15)
C6 C 0.4604(3) 0.75088(15) 0.31136(14)
C7 C 0.6308(3) 0.72989(17) 0.36080(15)
H7 H 0.6775 0.6704 0.3502
C8 C 0.7329(3) 0.79897(18) 0.42705(16)
C9 C 0.6603(3) 0.88566(18) 0.44518(16)
H8 H 0.7282 0.9305 0.4910
C10 C 0.4868(3) 0.90714(17) 0.39601(16)
H9 H 0.4379 0.9656 0.4085
C11 C 0.3893(3) 0.83926(16) 0.32815(15)
C12 C 0.3877(4) 0.74849(17) 0.05225(18)
H10 H 0.3735 0.7614 -0.0148
H11 H 0.5142 0.7593 0.0848
C13 C 0.3287(3) 0.64653(16) 0.05886(16)
H12 H 0.3921 0.6056 0.0196
C14 C 0.3953(3) 0.62279(15) 0.16460(16)
H13 H 0.5265 0.6357 0.1802
C15 C 0.3721(4) 0.51764(17) 0.17536(19)
H14 H 0.2444 0.5002 0.1643
H15 H 0.4221 0.4806 0.1281
C16 C 0.1242(3) 0.63176(18) 0.01456(17)
H16 H 0.0961 0.6684 -0.0416
H17 H 0.1031 0.5652 -0.0089
C17 C -0.0124(4) 0.65595(17) 0.07384(17)
C18 C 1.0255(4) 0.8469(2) 0.5210(2)
H18 H 1.0247 0.8992 0.4815
H19 H 1.1455 0.8231 0.5377
H20 H 0.9885 0.8681 0.5789
C19 C 0.6841(6) 0.4274(3) 0.4317(2)
H21 H 0.7470 0.4882 0.4401
H22 H 0.7689 0.3789 0.4517
H23 H 0.5953 0.4288 0.4701
C20 C 0.7397(4) 0.3781(3) 0.2305(3)
H24 H 0.6805 0.3724 0.1632
H25 H 0.7990 0.3200 0.2474
H26 H 0.8278 0.4299 0.2432
C21 C 0.4084(4) 0.2976(2) 0.2852(3)
C22 C 0.4947(5) 0.2118(2) 0.3356(3)
H27 H 0.4085 0.1592 0.3231
H28 H 0.5312 0.2283 0.4040
H29 H 0.5987 0.1943 0.3114
C23 C 0.1158(3) 0.92505(17) 0.25869(17)
C24 C -0.1529(3) 0.98781(17) 0.15572(18)
C25 C -0.0849(4) 1.09032(19) 0.1647(2)
H30 H -0.0286 1.1091 0.2310
H31 H -0.1848 1.1304 0.1431
H32 H 0.0018 1.0965 0.1258
C26 C -0.2465(4) 0.9563(2) 0.05247(19)
H33 H -0.1645 0.9647 0.0113
H34 H -0.3509 0.9938 0.0325
H35 H -0.2835 0.8902 0.0480
C27 C -0.2721(4) 0.9709(2) 0.2245(2)
H36 H -0.3027 0.9041 0.2211
H37 H -0.3808 1.0057 0.2071
H38 H -0.2088 0.9920 0.2892
C28 C 0.3363(6) 0.2681(3) 0.1755(3)
H39 H 0.4342 0.2457 0.1484
H40 H 0.2853 0.3222 0.1433
H41 H 0.2449 0.2182 0.1670
C29 C 0.2493(6) 0.3246(3) 0.3319(4)
H42 H 0.1780 0.2683 0.3345
H43 H 0.1750 0.3688 0.2940
H44 H 0.2959 0.3534 0.3961
loop_
_geom_bond_atom_site_label_1
_geom_bond_atom_site_label_2
_geom_bond_site_symmetry_1
_geom_bond_site_symmetry_2
Si1 O2 1_555 1_555
O1 C8 1_555 1_555
O2 C15 1_555 1_555
O3 C17 1_555 1_555
O4 C23 1_555 1_555
O5 C23 1_555 1_555
N1 C1 1_555 1_555
N2 C1 1_555 1_555
C1 C2 1_555 1_555
C2 H1 1_555 1_555
H2 C2 1_555 1_555
C3 N2 1_555 1_555
H3 C3 1_555 1_555
H4 C3 1_555 1_555
C4 C3 1_555 1_555
H5 C4 1_555 1_555
H6 C4 1_555 1_555
C5 C1 1_555 1_555
C6 C5 1_555 1_555
C7 C6 1_555 1_555
H7 C7 1_555 1_555
C8 C7 1_555 1_555
C9 C8 1_555 1_555
H8 C9 1_555 1_555
C10 C9 1_555 1_555
H9 C10 1_555 1_555
C11 N1 1_555 1_555
C12 C2 1_555 1_555
H10 C12 1_555 1_555
H11 C12 1_555 1_555
C13 C12 1_555 1_555
H12 C13 1_555 1_555
C14 C5 1_555 1_555
H13 C14 1_555 1_555
C15 C14 1_555 1_555
H14 C15 1_555 1_555
H15 C15 1_555 1_555
C16 C13 1_555 1_555
H16 C16 1_555 1_555
H17 C16 1_555 1_555
C17 N2 1_555 1_555
C18 O1 1_555 1_555
H18 C18 1_555 1_555
H19 C18 1_555 1_555
H20 C18 1_555 1_555
C19 Si1 1_555 1_555
H21 C19 1_555 1_555
H22 C19 1_555 1_555
H23 C19 1_555 1_555
C20 Si1 1_555 1_555
H24 C20 1_555 1_555
H25 C20 1_555 1_555
H26 C20 1_555 1_555
C21 Si1 1_555 1_555
C22 C21 1_555 1_555
H27 C22 1_555 1_555
H28 C22 1_555 1_555
H29 C22 1_555 1_555
C23 N1 1_555 1_555
C24 O4 1_555 1_555
C25 C24 1_555 1_555
H30 C25 1_555 1_555
H31 C25 1_555 1_555
H32 C25 1_555 1_555
C26 C24 1_555 1_555
H33 C26 1_555 1_555
H34 C26 1_555 1_555
H35 C26 1_555 1_555
C27 C24 1_555 1_555
H36 C27 1_555 1_555
H37 C27 1_555 1_555
H38 C27 1_555 1_555
C28 C21 1_555 1_555
H39 C28 1_555 1_555
H40 C28 1_555 1_555
H41 C28 1_555 1_555
C29 C21 1_555 1_555
H42 C29 1_555 1_555
H43 C29 1_555 1_555
H44 C29 1_555 1_555
C4 C5 1_555 1_555
C6 C11 1_555 1_555
C10 C11 1_555 1_555
C13 C14 1_555 1_555
C16 C17 1_555 1_555

#END
