
#######################################################################
#
#                 Cambridge Crystallographic Data Centre
#                                CCDC 
#
#######################################################################
#
# If this CIF has been generated from an entry in the Cambridge 
# Structural Database, then it will include bibliographic, chemical, 
# crystal, experimental, refinement or atomic coordinate data resulting 
# from the CCDC's data processing and validation procedures.
#
#######################################################################

data_RUNQIC
_chemical_formula_moiety         'C21 H19 Cl1 N2 O5,0.25(C1 H2 Cl2)'
_chemical_name_systematic        
'methyl 2-(4-chlorophenyl)-2-(nitromethyl)-4-(2-oxo-1,2-dihydro-3H-indol-3-ylidene)pentanoate dichloromethane solvate'
_symmetry_cell_setting           monoclinic
_symmetry_space_group_name_H-M   'C 2'
_symmetry_Int_Tables_number      5
_space_group_name_Hall           'C 2y'
loop_
_symmetry_equiv_pos_site_id
_symmetry_equiv_pos_as_xyz
1 x,y,z
2 -x,y,-z
3 1/2+x,1/2+y,z
4 1/2-x,1/2+y,-z
_cell_length_a                   14.3843(3)
_cell_length_b                   9.8961(3)
_cell_length_c                   28.9183(7)
_cell_angle_alpha                90
_cell_angle_beta                 100.764(2)
_cell_angle_gamma                90
_cell_volume                     4044.05
_exptl_crystal_colour            'light yellow'
_exptl_crystal_description       block
_cell_formula_units_Z            8
_exptl_crystal_recrystallization_method n-Pentane/dichloromethane
loop_
_atom_site_label
_atom_site_type_symbol
_atom_site_fract_x
_atom_site_fract_y
_atom_site_fract_z
Cl1 Cl 0.56848(10) 0.16678(17) -0.05420(4)
O1 O 0.66554(17) 0.4804(4) 0.20702(9)
O2 O 0.7033(3) 0.1946(4) 0.23161(13)
O3 O 0.6339(2) 0.2198(4) 0.15979(13)
O4 O 0.9561(2) 0.3273(3) 0.10305(11)
O5 O 0.9374(2) 0.1241(3) 0.13371(10)
N1 N 0.7273(2) 0.5469(4) 0.28189(11)
H1 H 0.6745 0.5550 0.2916
N2 N 0.7046(3) 0.2050(4) 0.18995(13)
C1 C 0.8154(3) 0.5710(4) 0.30978(13)
C2 C 0.8355(3) 0.6068(5) 0.35663(14)
H2 H 0.7873 0.6199 0.3736
C3 C 0.9296(4) 0.6227(5) 0.37775(14)
H3 H 0.9453 0.6468 0.4093
C4 C 1.0003(3) 0.6028(5) 0.35190(15)
H4 H 1.0631 0.6138 0.3665
C5 C 0.9799(3) 0.5670(5) 0.30486(15)
H5 H 1.0285 0.5542 0.2881
C6 C 0.8858(2) 0.5502(4) 0.28283(13)
C7 C 0.8378(2) 0.5088(4) 0.23511(12)
C8 C 0.7342(2) 0.5091(4) 0.23759(13)
C9 C 0.8741(2) 0.4772(4) 0.19693(13)
C10 C 0.8131(2) 0.4376(4) 0.15029(12)
H6 H 0.749(3) 0.469(5) 0.1502(14)
H7 H 0.836(3) 0.496(5) 0.1250(15)
C11 C 0.8153(2) 0.2863(4) 0.13573(12)
C12 C 0.7476(2) 0.2586(4) 0.08838(12)
C13 C 0.7019(3) 0.3610(5) 0.06027(15)
H8 H 0.7079 0.4497 0.0711
C14 C 0.6474(4) 0.3342(5) 0.01648(16)
H9 H 0.6176 0.4042 -0.0021
C15 C 0.6380(3) 0.2028(5) 0.00071(14)
C16 C 0.6820(3) 0.0984(5) 0.02779(15)
H10 H 0.6754 0.0099 0.0169
C17 C 0.7359(3) 0.1273(5) 0.07138(15)
H11 H 0.7651 0.0569 0.0899
C18 C 0.9786(3) 0.4862(5) 0.19731(15)
H12 H 1.0098 0.4094 0.2135
H13 H 1.0032 0.5675 0.2131
H14 H 0.9893 0.4875 0.1655
C19 C 0.7994(3) 0.1904(4) 0.17541(13)
H15 H 0.8059 0.0981 0.1653
H16 H 0.8487 0.2063 0.2027
C20 C 0.9124(3) 0.2510(4) 0.12290(12)
C21 C 1.0175(3) 0.0718(6) 0.11543(17)
H17 H 1.0110 0.0953 0.0828
H18 H 1.0197 -0.0248 0.1187
H19 H 1.0749 0.1101 0.1327
Cl2 Cl 0.60824(9) 0.26246(16) 0.49175(5)
O6 O 1.06264(17) -0.0672(4) 0.30924(9)
O7 O 1.0752(2) 0.2249(4) 0.34080(12)
O8 O 0.9840(3) 0.2198(4) 0.27286(11)
O9 O 1.0625(2) 0.1023(3) 0.43808(11)
O10 O 1.0069(2) 0.3134(3) 0.42649(11)
N3 N 0.9926(2) -0.1314(4) 0.23536(11)
H20 H 1.0435 -0.1428 0.2242
N4 N 0.9971(2) 0.2245(4) 0.31557(12)
C22 C 0.9011(3) -0.1507(4) 0.20917(13)
C23 C 0.8769(3) -0.1877(5) 0.16301(14)
H21 H 0.9226 -0.2056 0.1450
C24 C 0.7808(3) -0.1976(5) 0.14408(15)
H22 H 0.7617 -0.2213 0.1126
C25 C 0.7137(3) -0.1731(5) 0.17109(17)
H23 H 0.6500 -0.1798 0.1576
C26 C 0.7395(3) -0.1381(4) 0.21837(15)
H24 H 0.6935 -0.1227 0.2365
C27 C 0.8353(2) -0.1266(4) 0.23825(13)
C28 C 0.8885(2) -0.0863(4) 0.28501(12)
C29 C 0.9916(2) -0.0926(4) 0.28029(13)
C30 C 0.8575(2) -0.0520(4) 0.32449(13)
C31 C 0.9243(2) -0.0083(4) 0.36879(12)
H25 H 0.9886 -0.0274 0.3651
H26 H 0.9115 -0.0622 0.3949
C32 C 0.9173(2) 0.1435(4) 0.38144(11)
C33 C 0.8333(2) 0.1736(4) 0.40638(11)
C34 C 0.7650(3) 0.2705(4) 0.39145(14)
H27 H 0.7656 0.3176 0.3637
C35 C 0.6948(3) 0.2982(5) 0.41787(17)
H28 H 0.6489 0.3634 0.4079
C36 C 0.6949(3) 0.2284(5) 0.45823(15)
C37 C 0.7608(3) 0.1297(5) 0.47379(13)
H29 H 0.7586 0.0815 0.5012
C38 C 0.8307(3) 0.1036(4) 0.44780(12)
H30 H 0.8764 0.0385 0.4582
C39 C 0.7542(3) -0.0537(5) 0.32713(15)
H31 H 0.7233 0.0223 0.3102
H32 H 0.7472 -0.0489 0.3595
H33 H 0.7260 -0.1358 0.3134
C40 C 0.9116(2) 0.2357(4) 0.33825(12)
H34 H 0.8557 0.2124 0.3153
H35 H 0.9050 0.3286 0.3477
C41 C 1.0061(2) 0.1810(4) 0.41838(13)
C42 C 1.0890(4) 0.3654(6) 0.4576(2)
H36 H 1.1451 0.3343 0.4474
H37 H 1.0892 0.3343 0.4890
H38 H 1.0875 0.4624 0.4570
Cl3 Cl 0.60352(11) -0.27924(18) 0.01040(6)
C43 C 0.5000 -0.1807(8) 0.0000
H39 H 0.5009 -0.1230 -0.0270
H39A H 0.4991 -0.1230 0.0270
Cl3A Cl 0.39648(11) -0.27924(18) -0.01040(6)
H40? H 0.5009 -0.1230 -0.0270
loop_
_geom_bond_atom_site_label_1
_geom_bond_atom_site_label_2
_geom_bond_site_symmetry_1
_geom_bond_site_symmetry_2
Cl1 C15 1_555 1_555
O1 C8 1_555 1_555
O2 N2 1_555 1_555
O3 N2 1_555 1_555
O4 C20 1_555 1_555
O5 C20 1_555 1_555
N1 H1 1_555 1_555
N2 C19 1_555 1_555
C1 N1 1_555 1_555
C2 C1 1_555 1_555
H2 C2 1_555 1_555
C3 C2 1_555 1_555
H3 C3 1_555 1_555
C4 C3 1_555 1_555
H4 C4 1_555 1_555
C5 C4 1_555 1_555
H5 C5 1_555 1_555
C6 C1 1_555 1_555
C7 C6 1_555 1_555
C8 N1 1_555 1_555
C9 C7 1_555 1_555
C10 C9 1_555 1_555
H6 C10 1_555 1_555
H7 C10 1_555 1_555
C11 C10 1_555 1_555
C12 C11 1_555 1_555
C13 C12 1_555 1_555
H8 C13 1_555 1_555
C14 C13 1_555 1_555
H9 C14 1_555 1_555
C15 C14 1_555 1_555
C16 C15 1_555 1_555
H10 C16 1_555 1_555
C17 C12 1_555 1_555
H11 C17 1_555 1_555
C18 C9 1_555 1_555
H12 C18 1_555 1_555
H13 C18 1_555 1_555
H14 C18 1_555 1_555
C19 C11 1_555 1_555
H15 C19 1_555 1_555
H16 C19 1_555 1_555
C20 C11 1_555 1_555
C21 O5 1_555 1_555
H17 C21 1_555 1_555
H18 C21 1_555 1_555
H19 C21 1_555 1_555
Cl2 C36 1_555 1_555
O6 C29 1_555 1_555
O7 N4 1_555 1_555
O8 N4 1_555 1_555
O9 C41 1_555 1_555
O10 C41 1_555 1_555
N3 H20 1_555 1_555
N4 C40 1_555 1_555
C22 N3 1_555 1_555
C23 C22 1_555 1_555
H21 C23 1_555 1_555
C24 C23 1_555 1_555
H22 C24 1_555 1_555
C25 C24 1_555 1_555
H23 C25 1_555 1_555
C26 C25 1_555 1_555
H24 C26 1_555 1_555
C27 C22 1_555 1_555
C28 C27 1_555 1_555
C29 N3 1_555 1_555
C30 C28 1_555 1_555
C31 C30 1_555 1_555
H25 C31 1_555 1_555
H26 C31 1_555 1_555
C32 C31 1_555 1_555
C33 C32 1_555 1_555
C34 C33 1_555 1_555
H27 C34 1_555 1_555
C35 C34 1_555 1_555
H28 C35 1_555 1_555
C36 C35 1_555 1_555
C37 C36 1_555 1_555
H29 C37 1_555 1_555
C38 C33 1_555 1_555
H30 C38 1_555 1_555
C39 C30 1_555 1_555
H31 C39 1_555 1_555
H32 C39 1_555 1_555
H33 C39 1_555 1_555
C40 C32 1_555 1_555
H34 C40 1_555 1_555
H35 C40 1_555 1_555
C41 C32 1_555 1_555
C42 O10 1_555 1_555
H36 C42 1_555 1_555
H37 C42 1_555 1_555
H38 C42 1_555 1_555
Cl3 C43 1_555 1_555
C43 H39 1_555 1_555
H39A C43 1_555 1_555
Cl3A C43 1_555 1_555
C5 C6 1_555 1_555
C7 C8 1_555 1_555
C16 C17 1_555 1_555
C26 C27 1_555 1_555
C28 C29 1_555 1_555
C37 C38 1_555 1_555

#END
