
#######################################################################
#
#                 Cambridge Crystallographic Data Centre
#                                CCDC 
#
#######################################################################
#
# If this CIF has been generated from an entry in the Cambridge 
# Structural Database, then it will include bibliographic, chemical, 
# crystal, experimental, refinement or atomic coordinate data resulting 
# from the CCDC's data processing and validation procedures.
#
#######################################################################

data_RUPMOF
_chemical_formula_moiety         'C24 H39 N2 O1 P1'
_chemical_name_systematic        
Dicyclohexylamino(2,6-dimethylmorpholino)phenylphosphine
_symmetry_cell_setting           monoclinic
_symmetry_space_group_name_H-M   'P 2/n'
_symmetry_Int_Tables_number      13
_space_group_name_Hall           '-P 2yac'
loop_
_symmetry_equiv_pos_site_id
_symmetry_equiv_pos_as_xyz
1 x,y,z
2 1/2-x,y,1/2-z
3 -x,-y,-z
4 1/2+x,-y,1/2+z
_cell_length_a                   16.3520(9)
_cell_length_b                   8.1675(5)
_cell_length_c                   17.9629(10)
_cell_angle_alpha                90
_cell_angle_beta                 100.8710(10)
_cell_angle_gamma                90
_cell_volume                     2355.98
_exptl_crystal_colour            colorless
_exptl_crystal_description       block
_chemical_melting_point          '132-136 deg.C'
_cell_formula_units_Z            4
loop_
_atom_site_label
_atom_site_type_symbol
_atom_site_fract_x
_atom_site_fract_y
_atom_site_fract_z
P1 P 0.18319(4) 0.10771(8) 0.46462(3)
O1 O 0.41247(12) -0.1132(2) 0.39619(11)
N1 N 0.27102(13) 0.0370(2) 0.43697(12)
N2 N 0.20342(12) 0.1810(3) 0.55452(11)
C1 C 0.16751(14) 0.2954(3) 0.40827(14)
C2 C 0.13154(15) 0.4334(3) 0.43462(15)
H1 H 0.1219 0.4347 0.4852
C3 C 0.10950(17) 0.5689(4) 0.38855(18)
H2 H 0.0858 0.6622 0.4079
C4 C 0.12205(19) 0.5682(4) 0.31432(19)
H3 H 0.1073 0.6609 0.2827
C5 C 0.15594(19) 0.4326(5) 0.28694(17)
H4 H 0.1641 0.4314 0.2360
C6 C 0.17846(17) 0.2967(4) 0.33298(15)
H5 H 0.2016 0.2036 0.3130
C7 C 0.34664(15) 0.1309(3) 0.43401(14)
H6 H 0.3828 0.1326 0.4849
H7 H 0.3316 0.2452 0.4191
C8 C 0.39368(17) 0.0546(3) 0.37721(16)
H8 H 0.3583 0.0604 0.3254
C9 C 0.47530(19) 0.1403(4) 0.3766(2)
H9 H 0.5034 0.0884 0.3391
H10 H 0.5108 0.1325 0.4269
H11 H 0.4648 0.2558 0.3633
C10 C 0.33891(17) -0.2077(3) 0.39768(16)
H12 H 0.3028 -0.2064 0.3461
C11 C 0.3656(2) -0.3822(4) 0.41812(19)
H13 H 0.3963 -0.4254 0.3805
H14 H 0.3163 -0.4499 0.4187
H15 H 0.4015 -0.3841 0.4684
C12 C 0.29074(17) -0.1354(3) 0.45445(15)
H16 H 0.2385 -0.1977 0.4529
H17 H 0.3244 -0.1445 0.5062
C13 C 0.27423(14) 0.2900(3) 0.58342(13)
H18 H 0.2935 0.3362 0.5382
C14 C 0.25127(16) 0.4361(3) 0.62922(15)
H19 H 0.2047 0.4974 0.5983
H20 H 0.2325 0.3956 0.6752
C15 C 0.32556(17) 0.5502(3) 0.65241(16)
H21 H 0.3098 0.6403 0.6838
H22 H 0.3407 0.5991 0.6064
C16 C 0.40090(17) 0.4601(3) 0.69710(15)
H23 H 0.4489 0.5359 0.7081
H24 H 0.3882 0.4220 0.7460
C17 C 0.42344(15) 0.3136(3) 0.65222(15)
H25 H 0.4417 0.3526 0.6058
H26 H 0.4702 0.2528 0.6832
C18 C 0.34882(15) 0.1996(3) 0.63041(14)
H27 H 0.3329 0.1552 0.6769
H28 H 0.3644 0.1065 0.6007
C19 C 0.16360(14) 0.0954(3) 0.61138(13)
H29 H 0.1889 0.1417 0.6621
C20 C 0.07036(15) 0.1316(3) 0.59901(14)
H30 H 0.0436 0.0939 0.5478
H31 H 0.0619 0.2514 0.6015
C21 C 0.02879(16) 0.0471(4) 0.65843(16)
H32 H 0.0500 0.0957 0.7089
H33 H -0.0321 0.0660 0.6460
C22 C 0.04583(17) -0.1361(4) 0.66151(16)
H34 H 0.0194 -0.1870 0.6129
H35 H 0.0211 -0.1860 0.7024
C23 C 0.13919(17) -0.1694(4) 0.67615(16)
H36 H 0.1490 -0.2890 0.6762
H37 H 0.1649 -0.1262 0.7267
C24 C 0.17995(17) -0.0889(3) 0.61556(16)
H38 H 0.1577 -0.1390 0.5657
H39 H 0.2407 -0.1088 0.6274
loop_
_geom_bond_atom_site_label_1
_geom_bond_atom_site_label_2
_geom_bond_site_symmetry_1
_geom_bond_site_symmetry_2
P1 N1 1_555 1_555
O1 C8 1_555 1_555
N1 C7 1_555 1_555
N2 P1 1_555 1_555
C1 P1 1_555 1_555
C2 C1 1_555 1_555
H1 C2 1_555 1_555
C3 C2 1_555 1_555
H2 C3 1_555 1_555
C4 C3 1_555 1_555
H3 C4 1_555 1_555
C5 C4 1_555 1_555
H4 C5 1_555 1_555
C6 C1 1_555 1_555
H5 C6 1_555 1_555
C7 H6 1_555 1_555
H7 C7 1_555 1_555
C8 C7 1_555 1_555
H8 C8 1_555 1_555
C9 C8 1_555 1_555
H9 C9 1_555 1_555
H10 C9 1_555 1_555
H11 C9 1_555 1_555
C10 O1 1_555 1_555
H12 C10 1_555 1_555
C11 C10 1_555 1_555
H13 C11 1_555 1_555
H14 C11 1_555 1_555
H15 C11 1_555 1_555
C12 N1 1_555 1_555
H16 C12 1_555 1_555
H17 C12 1_555 1_555
C13 N2 1_555 1_555
H18 C13 1_555 1_555
C14 C13 1_555 1_555
H19 C14 1_555 1_555
H20 C14 1_555 1_555
C15 C14 1_555 1_555
H21 C15 1_555 1_555
H22 C15 1_555 1_555
C16 C15 1_555 1_555
H23 C16 1_555 1_555
H24 C16 1_555 1_555
C17 C16 1_555 1_555
H25 C17 1_555 1_555
H26 C17 1_555 1_555
C18 C13 1_555 1_555
H27 C18 1_555 1_555
H28 C18 1_555 1_555
C19 N2 1_555 1_555
H29 C19 1_555 1_555
C20 C19 1_555 1_555
H30 C20 1_555 1_555
H31 C20 1_555 1_555
C21 C20 1_555 1_555
H32 C21 1_555 1_555
H33 C21 1_555 1_555
C22 C21 1_555 1_555
H34 C22 1_555 1_555
H35 C22 1_555 1_555
C23 C22 1_555 1_555
H36 C23 1_555 1_555
H37 C23 1_555 1_555
C24 C19 1_555 1_555
H38 C24 1_555 1_555
H39 C24 1_555 1_555
C5 C6 1_555 1_555
C10 C12 1_555 1_555
C17 C18 1_555 1_555
C23 C24 1_555 1_555

#END
