
#######################################################################
#
#                 Cambridge Crystallographic Data Centre
#                                CCDC 
#
#######################################################################
#
# If this CIF has been generated from an entry in the Cambridge 
# Structural Database, then it will include bibliographic, chemical, 
# crystal, experimental, refinement or atomic coordinate data resulting 
# from the CCDC's data processing and validation procedures.
#
#######################################################################

data_RUPPOJ
_chemical_formula_moiety         'C94 F30,0.5(C7 H8)'
_chemical_name_systematic        
'2,5,14,19,24,29,33,42,45,54-decakis(Trifluoromethyl)-C~2v~-C84fullerene toluene solvate'
_symmetry_cell_setting           triclinic
_symmetry_space_group_name_H-M   'P -1'
_symmetry_Int_Tables_number      2
_space_group_name_Hall           '-P 1'
loop_
_symmetry_equiv_pos_site_id
_symmetry_equiv_pos_as_xyz
1 x,y,z
2 -x,-y,-z
_cell_length_a                   11.5300(10)
_cell_length_b                   15.4110(10)
_cell_length_c                   17.6600(10)
_cell_angle_alpha                95.180(5)
_cell_angle_beta                 102.171(5)
_cell_angle_gamma                103.057(5)
_cell_volume                     2956.64
_exptl_crystal_colour            red
_exptl_crystal_description       block
_cell_formula_units_Z            2
loop_
_atom_site_label
_atom_site_type_symbol
_atom_site_fract_x
_atom_site_fract_y
_atom_site_fract_z
F1 F -0.1555(4) 0.7346(3) -0.0464(2)
F2 F -0.0028(4) 0.8280(3) 0.0335(2)
F3 F -0.1225(4) 0.8762(3) -0.0531(2)
F4 F -0.1349(4) 0.9990(3) -0.2679(2)
F5 F -0.1025(4) 0.9924(3) -0.1444(2)
F6 F 0.0200(4) 1.0898(3) -0.1885(3)
F7 F 0.2354(4) 0.8864(3) 0.1132(2)
F8 F 0.3484(4) 0.7958(3) 0.1403(2)
F9 F 0.1527(4) 0.7450(3) 0.1064(2)
F10 F 0.2647(4) 1.1717(3) -0.1235(2)
F11 F 0.3935(4) 1.2020(3) -0.1947(3)
F12 F 0.2003(4) 1.1731(3) -0.2475(2)
F13 F -0.1650(4) 0.7088(3) -0.5821(2)
F14 F -0.2068(4) 0.8009(3) -0.4988(2)
F15 F -0.0794(4) 0.8507(3) -0.5665(3)
F16 F -0.2402(4) 0.4751(3) -0.2289(2)
F17 F -0.2045(4) 0.3876(3) -0.3180(2)
F18 F -0.1271(4) 0.3852(3) -0.1970(3)
F19 F 0.4602(4) 0.5901(3) 0.0905(2)
F20 F 0.2917(5) 0.6219(3) 0.1003(3)
F21 F 0.2881(4) 0.4944(3) 0.0400(2)
F22 F 0.5246(4) 1.1478(3) -0.3640(3)
F23 F 0.3489(4) 1.1636(3) -0.3520(3)
F24 F 0.3656(4) 1.0960(3) -0.4586(2)
F25 F 0.2960(4) 0.9492(3) -0.5847(3)
F26 F 0.1228(4) 0.8550(3) -0.6181(2)
F27 F 0.1426(4) 0.9822(3) -0.5494(2)
F28 F 0.0738(4) 0.3211(3) -0.1793(3)
F29 F 0.2368(4) 0.3587(3) -0.0859(3)
F30 F 0.0738(4) 0.3978(3) -0.0716(2)
C1 C -0.0605(6) 0.7789(4) -0.1827(4)
C2 C 0.0132(6) 0.7986(4) -0.0979(4)
C3 C 0.1247(6) 0.8777(4) -0.0871(3)
C4 C 0.1313(6) 0.9429(4) -0.1416(4)
C5 C 0.0292(6) 0.9372(4) -0.2125(4)
C6 C -0.0544(6) 0.8419(4) -0.2355(4)
C7 C -0.0713(6) 0.8128(4) -0.3144(4)
C8 C -0.1020(6) 0.7204(4) -0.3458(4)
C9 C -0.1107(6) 0.6559(4) -0.2924(4)
C10 C -0.0855(6) 0.6882(4) -0.2107(4)
C11 C -0.0125(6) 0.6456(4) -0.1537(4)
C12 C 0.0555(6) 0.7097(4) -0.0908(4)
C13 C 0.1647(6) 0.7030(4) -0.0462(4)
C14 C 0.2522(6) 0.7899(4) 0.0040(4)
C15 C 0.2313(6) 0.8707(4) -0.0368(3)
C16 C 0.3458(6) 0.9209(4) -0.0448(4)
C17 C 0.3525(6) 0.9823(4) -0.0947(4)
C18 C 0.2457(6) 0.9975(4) -0.1418(4)
C19 C 0.2808(6) 1.0472(4) -0.2090(4)
C20 C 0.1982(6) 0.9961(4) -0.2871(3)
C21 C 0.0811(6) 0.9473(4) -0.2859(4)
C22 C 0.0131(6) 0.8778(4) -0.3467(4)
C23 C 0.0576(6) 0.8575(4) -0.4115(4)
C24 C -0.0128(6) 0.7687(4) -0.4638(4)
C25 C -0.0688(6) 0.6992(4) -0.4163(4)
C26 C -0.0322(6) 0.6205(4) -0.4296(4)
C27 C -0.0389(6) 0.5583(4) -0.3779(4)
C28 C -0.0837(6) 0.5725(4) -0.3117(4)
C29 C -0.0413(6) 0.5124(4) -0.2529(4)
C30 C 0.0251(6) 0.5675(4) -0.1722(4)
C31 C 0.1340(6) 0.5549(4) -0.1272(4)
C32 C 0.2052(6) 0.6234(4) -0.0650(4)
C33 C 0.3380(7) 0.6208(4) -0.0249(4)
C34 C 0.4218(6) 0.7163(4) -0.0140(4)
C35 C 0.3826(6) 0.7916(4) -0.0026(3)
C36 C 0.4352(6) 0.8697(4) -0.0319(3)
C37 C 0.5238(6) 0.8730(4) -0.0770(4)
C38 C 0.5304(6) 0.9391(4) -0.1314(4)
C39 C 0.4505(6) 0.9957(4) -0.1351(4)
C40 C 0.4091(6) 1.0341(4) -0.2031(4)
C41 C 0.4562(6) 1.0211(4) -0.2667(4)
C42 C 0.3832(6) 1.0167(4) -0.3501(4)
C43 C 0.2454(6) 0.9757(4) -0.3541(4)
C44 C 0.1743(6) 0.9075(4) -0.4169(4)
C45 C 0.2307(7) 0.8735(5) -0.4834(4)
C46 C 0.1882(7) 0.7702(4) -0.4979(4)
C47 C 0.0784(6) 0.7226(4) -0.4919(4)
C48 C 0.0673(6) 0.6356(4) -0.4686(4)
C49 C 0.1652(7) 0.5972(4) -0.4470(4)
C50 C 0.1598(7) 0.5310(4) -0.3923(4)
C51 C 0.0514(7) 0.5085(4) -0.3632(4)
C52 C 0.0508(6) 0.4779(4) -0.2900(4)
C53 C 0.1541(7) 0.4642(4) -0.2460(4)
C54 C 0.1853(6) 0.4762(4) -0.1564(4)
C55 C 0.3255(6) 0.5060(4) -0.1391(4)
C56 C 0.3942(7) 0.5714(4) -0.0795(4)
C57 C 0.5058(7) 0.6274(4) -0.0886(4)
C58 C 0.5179(6) 0.7186(4) -0.0551(4)
C59 C 0.5655(6) 0.7932(4) -0.0902(4)
C60 C 0.6145(6) 0.7775(5) -0.1584(4)
C61 C 0.6220(6) 0.8446(4) -0.2122(4)
C62 C 0.5811(6) 0.9249(4) -0.1983(4)
C63 C 0.5457(6) 0.9706(4) -0.2626(4)
C64 C 0.5392(6) 0.9354(4) -0.3415(4)
C65 C 0.4369(6) 0.9515(4) -0.3926(4)
C66 C 0.3672(6) 0.8868(5) -0.4533(4)
C67 C 0.3997(7) 0.8028(5) -0.4626(4)
C68 C 0.2900(7) 0.7307(5) -0.4845(4)
C69 C 0.2851(7) 0.6474(5) -0.4542(4)
C70 C 0.3965(7) 0.6331(5) -0.4070(4)
C71 C 0.3901(7) 0.5669(4) -0.3525(4)
C72 C 0.2698(7) 0.5162(4) -0.3456(4)
C73 C 0.2620(7) 0.4779(4) -0.2758(4)
C74 C 0.3653(7) 0.4956(4) -0.2104(4)
C75 C 0.4783(7) 0.5453(4) -0.2166(4)
C76 C 0.5508(6) 0.6136(4) -0.1528(4)
C77 C 0.6107(6) 0.6879(5) -0.1861(4)
C78 C 0.5852(6) 0.6591(5) -0.2685(4)
C79 C 0.5932(6) 0.7201(5) -0.3182(4)
C80 C 0.6245(6) 0.8143(5) -0.2909(4)
C81 C 0.5783(7) 0.8573(5) -0.3544(4)
C82 C 0.5041(7) 0.7891(5) -0.4182(4)
C83 C 0.5050(7) 0.7029(5) -0.3925(4)
C84 C 0.4914(7) 0.5766(4) -0.2889(4)
C85 C -0.0683(6) 0.8103(4) -0.0402(4)
C86 C -0.0481(6) 1.0064(4) -0.2029(4)
C87 C 0.2455(6) 0.8028(4) 0.0920(4)
C88 C 0.2838(7) 1.1495(4) -0.1943(4)
C89 C -0.1173(7) 0.7831(5) -0.5294(4)
C90 C -0.1544(7) 0.4380(4) -0.2487(4)
C91 C 0.3436(7) 0.5811(5) 0.0525(4)
C92 C 0.4049(7) 1.1071(4) -0.3815(4)
C93 C 0.1957(7) 0.9159(5) -0.5599(4)
C94 C 0.1413(7) 0.3872(5) -0.1220(4)
C95? C 0.6067(10) 0.5666(11) 0.5082(8)
H1? H 0.6813 0.6110 0.5146
C96? C 0.5997(10) 0.5018(11) 0.5580(8)
H2? H 0.6694 0.5041 0.5987
C97? C 0.5078(10) 0.5673(10) 0.4501(8)
C98? C 0.5104(19) 0.6256(12) 0.4057(11)
H3? H 0.5808 0.6769 0.4282
H4? H 0.4346 0.6458 0.3992
H5? H 0.5176 0.5999 0.3546
loop_
_geom_bond_atom_site_label_1
_geom_bond_atom_site_label_2
_geom_bond_site_symmetry_1
_geom_bond_site_symmetry_2
F1 C85 1_555 1_555
F2 C85 1_555 1_555
F3 C85 1_555 1_555
F4 C86 1_555 1_555
F5 C86 1_555 1_555
F6 C86 1_555 1_555
F7 C87 1_555 1_555
F8 C87 1_555 1_555
F9 C87 1_555 1_555
F10 C88 1_555 1_555
F11 C88 1_555 1_555
F12 C88 1_555 1_555
F13 C89 1_555 1_555
F14 C89 1_555 1_555
F15 C89 1_555 1_555
F16 C90 1_555 1_555
F17 C90 1_555 1_555
F18 C90 1_555 1_555
F19 C91 1_555 1_555
F20 C91 1_555 1_555
F21 C91 1_555 1_555
F22 C92 1_555 1_555
F23 C92 1_555 1_555
F24 C92 1_555 1_555
F25 C93 1_555 1_555
F26 C93 1_555 1_555
F27 C93 1_555 1_555
F28 C94 1_555 1_555
F29 C94 1_555 1_555
F30 C94 1_555 1_555
C1 C2 1_555 1_555
C2 C3 1_555 1_555
C3 C4 1_555 1_555
C4 C5 1_555 1_555
C5 C6 1_555 1_555
C6 C1 1_555 1_555
C7 C6 1_555 1_555
C8 C7 1_555 1_555
C9 C8 1_555 1_555
C10 C1 1_555 1_555
C11 C10 1_555 1_555
C12 C2 1_555 1_555
C13 C12 1_555 1_555
C14 C13 1_555 1_555
C15 C3 1_555 1_555
C16 C15 1_555 1_555
C17 C16 1_555 1_555
C18 C4 1_555 1_555
C19 C18 1_555 1_555
C20 C19 1_555 1_555
C21 C5 1_555 1_555
C22 C7 1_555 1_555
C23 C22 1_555 1_555
C24 C23 1_555 1_555
C25 C8 1_555 1_555
C26 C25 1_555 1_555
C27 C26 1_555 1_555
C28 C9 1_555 1_555
C29 C28 1_555 1_555
C30 C11 1_555 1_555
C31 C30 1_555 1_555
C32 C13 1_555 1_555
C33 C32 1_555 1_555
C34 C33 1_555 1_555
C35 C14 1_555 1_555
C36 C16 1_555 1_555
C37 C36 1_555 1_555
C38 C37 1_555 1_555
C39 C17 1_555 1_555
C40 C19 1_555 1_555
C41 C40 1_555 1_555
C42 C41 1_555 1_555
C43 C20 1_555 1_555
C44 C23 1_555 1_555
C45 C44 1_555 1_555
C46 C45 1_555 1_555
C47 C24 1_555 1_555
C48 C26 1_555 1_555
C49 C48 1_555 1_555
C50 C49 1_555 1_555
C51 C27 1_555 1_555
C52 C29 1_555 1_555
C53 C52 1_555 1_555
C54 C31 1_555 1_555
C55 C54 1_555 1_555
C56 C33 1_555 1_555
C57 C56 1_555 1_555
C58 C34 1_555 1_555
C59 C37 1_555 1_555
C60 C59 1_555 1_555
C61 C60 1_555 1_555
C62 C38 1_555 1_555
C63 C41 1_555 1_555
C64 C63 1_555 1_555
C65 C42 1_555 1_555
C66 C45 1_555 1_555
C67 C66 1_555 1_555
C68 C46 1_555 1_555
C69 C49 1_555 1_555
C70 C69 1_555 1_555
C71 C70 1_555 1_555
C72 C50 1_555 1_555
C73 C53 1_555 1_555
C74 C55 1_555 1_555
C75 C74 1_555 1_555
C76 C57 1_555 1_555
C77 C60 1_555 1_555
C78 C77 1_555 1_555
C79 C78 1_555 1_555
C80 C61 1_555 1_555
C81 C64 1_555 1_555
C82 C67 1_555 1_555
C83 C70 1_555 1_555
C84 C71 1_555 1_555
C85 C2 1_555 1_555
C86 C5 1_555 1_555
C87 C14 1_555 1_555
C88 C19 1_555 1_555
C89 C24 1_555 1_555
C90 C29 1_555 1_555
C91 C33 1_555 1_555
C92 C42 1_555 1_555
C93 C45 1_555 1_555
C94 C54 1_555 1_555
C9 C10 1_555 1_555
C11 C12 1_555 1_555
C14 C15 1_555 1_555
C17 C18 1_555 1_555
C20 C21 1_555 1_555
C21 C22 1_555 1_555
C24 C25 1_555 1_555
C27 C28 1_555 1_555
C29 C30 1_555 1_555
C31 C32 1_555 1_555
C34 C35 1_555 1_555
C35 C36 1_555 1_555
C38 C39 1_555 1_555
C39 C40 1_555 1_555
C42 C43 1_555 1_555
C43 C44 1_555 1_555
C46 C47 1_555 1_555
C47 C48 1_555 1_555
C50 C51 1_555 1_555
C51 C52 1_555 1_555
C53 C54 1_555 1_555
C55 C56 1_555 1_555
C57 C58 1_555 1_555
C58 C59 1_555 1_555
C61 C62 1_555 1_555
C62 C63 1_555 1_555
C64 C65 1_555 1_555
C65 C66 1_555 1_555
C67 C68 1_555 1_555
C68 C69 1_555 1_555
C71 C72 1_555 1_555
C72 C73 1_555 1_555
C73 C74 1_555 1_555
C75 C76 1_555 1_555
C75 C84 1_555 1_555
C76 C77 1_555 1_555
C78 C84 1_555 1_555
C79 C80 1_555 1_555
C79 C83 1_555 1_555
C80 C81 1_555 1_555
C81 C82 1_555 1_555
C82 C83 1_555 1_555

#END
