
#######################################################################
#
#                 Cambridge Crystallographic Data Centre
#                                CCDC 
#
#######################################################################
#
# If this CIF has been generated from an entry in the Cambridge 
# Structural Database, then it will include bibliographic, chemical, 
# crystal, experimental, refinement or atomic coordinate data resulting 
# from the CCDC's data processing and validation procedures.
#
#######################################################################

data_RUPPID
_chemical_formula_moiety         'C98 F42,0.7(C7 H8)'
_chemical_name_systematic        
'tetradecakis(Trifluoromethyl)-C~s~-C84fullerene toluene solvate'
_symmetry_cell_setting           monoclinic
_symmetry_space_group_name_H-M   'C 2/c'
_symmetry_Int_Tables_number      15
_space_group_name_Hall           '-C 2yn'
loop_
_symmetry_equiv_pos_site_id
_symmetry_equiv_pos_as_xyz
1 x,y,z
2 -x,y,1/2-z
3 1/2+x,1/2+y,z
4 1/2-x,1/2+y,1/2-z
5 -x,-y,-z
6 x,-y,1/2+z
7 1/2-x,1/2-y,-z
8 1/2+x,1/2-y,1/2+z
_cell_length_a                   35.524(3)
_cell_length_b                   20.2800(10)
_cell_length_c                   24.1450(10)
_cell_angle_alpha                90
_cell_angle_beta                 123.235(5)
_cell_angle_gamma                90
_cell_volume                     14549.4
_exptl_crystal_colour            yellow
_exptl_crystal_description       needle
_cell_formula_units_Z            8
loop_
_atom_site_label
_atom_site_type_symbol
_atom_site_fract_x
_atom_site_fract_y
_atom_site_fract_z
F1 F 0.55980(12) 0.2053(2) 0.4364(2)
F2 F 0.53034(14) 0.1834(2) 0.3344(2)
F3 F 0.53396(16) 0.1085(2) 0.3992(3)
F4 F 0.54826(13) 0.1427(3) 0.5301(2)
F5 F 0.52009(13) 0.1199(3) 0.5867(2)
F6 F 0.54857(13) 0.2156(2) 0.5942(2)
F7 F 0.47143(13) 0.07193(19) 0.2703(2)
F8 F 0.41412(18) 0.07428(19) 0.1704(2)
F9 F 0.41636(17) 0.00536(16) 0.2394(3)
F10 F 0.39454(13) 0.0252(3) 0.5468(2)
F11 F 0.4532(2) 0.0207(3) 0.5439(3)
F12 F 0.44927(19) 0.0885(2) 0.60703(19)
F13 F 0.28348(11) 0.1787(3) 0.02366(16)
F14 F 0.34711(12) 0.21922(15) 0.05521(15)
F15 F 0.34255(16) 0.11983(16) 0.07512(18)
F16 F 0.28668(10) 0.15211(19) 0.52542(15)
F17 F 0.33665(12) 0.22173(15) 0.59084(15)
F18 F 0.35607(12) 0.12484(16) 0.58262(15)
F19 F 0.34128(14) 0.43389(14) 0.08065(16)
F20 F 0.38260(10) 0.35231(18) 0.09105(14)
F21 F 0.31105(9) 0.34326(14) 0.03133(12)
F22 F 0.30889(9) 0.34805(13) 0.56354(12)
F23 F 0.35063(10) 0.43037(14) 0.57472(13)
F24 F 0.38121(10) 0.33955(16) 0.62275(12)
F25 F 0.14230(11) 0.14100(18) 0.20602(15)
F26 F 0.17627(10) 0.14111(16) 0.31106(15)
F27 F 0.13611(11) 0.22395(15) 0.2560(2)
F28 F 0.12480(9) 0.19823(17) 0.09587(14)
F29 F 0.15665(11) 0.20229(18) 0.04268(14)
F30 F 0.16372(11) 0.11691(15) 0.09917(17)
F31 F 0.21820(17) 0.4983(5) 0.0779(3)
F32 F 0.28386(15) 0.52718(16) 0.10925(19)
F33 F 0.2533(3) 0.4435(3) 0.0435(3)
F34 F 0.21353(9) 0.47392(16) 0.37519(14)
F35 F 0.27385(10) 0.53127(12) 0.42605(14)
F36 F 0.26611(10) 0.44868(12) 0.47410(12)
F37 F 0.15689(12) 0.3633(2) 0.30843(18)
F38 F 0.15043(10) 0.44106(15) 0.24326(19)
F39 F 0.12436(11) 0.3456(2) 0.20469(17)
F40 F 0.13673(10) 0.41778(18) 0.11171(16)
F41 F 0.13441(11) 0.32287(16) 0.07001(17)
F42 F 0.16418(11) 0.4046(2) 0.05241(16)
C1 C 0.45376(14) 0.1395(2) 0.3825(2)
C2 C 0.47920(14) 0.1930(2) 0.3700(2)
C3 C 0.48338(14) 0.2554(2) 0.4087(2)
C4 C 0.48334(14) 0.2549(2) 0.4646(2)
C5 C 0.47865(14) 0.1910(2) 0.4960(2)
C6 C 0.45362(14) 0.1393(2) 0.4424(2)
C7 C 0.42106(15) 0.1030(2) 0.4445(2)
C8 C 0.38673(14) 0.07196(19) 0.3866(2)
C9 C 0.38627(14) 0.07254(19) 0.3294(2)
C10 C 0.42115(15) 0.1043(2) 0.3280(2)
C11 C 0.40465(15) 0.1153(2) 0.2547(2)
C12 C 0.41324(14) 0.1874(2) 0.2449(2)
C13 C 0.44910(14) 0.2189(2) 0.2985(2)
C14 C 0.44976(14) 0.2887(2) 0.3011(2)
C15 C 0.46694(14) 0.3114(2) 0.3675(2)
C16 C 0.44706(13) 0.3662(2) 0.3788(2)
C17 C 0.44709(13) 0.3655(2) 0.43787(19)
C18 C 0.46676(14) 0.3103(2) 0.4803(2)
C19 C 0.44997(13) 0.2866(2) 0.51870(19)
C20 C 0.44926(14) 0.2172(2) 0.5198(2)
C21 C 0.41328(13) 0.1852(2) 0.51582(19)
C22 C 0.40483(14) 0.1135(2) 0.4914(2)
C23 C 0.35420(14) 0.10309(18) 0.4434(2)
C24 C 0.34477(14) 0.07645(18) 0.3832(2)
C25 C 0.30343(14) 0.08778(18) 0.3216(2)
C26 C 0.30373(14) 0.08842(18) 0.2616(2)
C27 C 0.34478(14) 0.07779(18) 0.2665(2)
C28 C 0.35386(14) 0.10432(18) 0.2206(2)
C29 C 0.32175(13) 0.14155(18) 0.16910(19)
C30 C 0.33272(13) 0.19841(19) 0.13873(19)
C31 C 0.37933(14) 0.2258(2) 0.1892(2)
C32 C 0.38354(13) 0.2938(2) 0.19005(19)
C33 C 0.41832(14) 0.3248(2) 0.2483(2)
C34 C 0.40259(13) 0.38611(19) 0.2585(2)
C35 C 0.41409(13) 0.40564(19) 0.3225(2)
C36 C 0.38207(13) 0.44515(18) 0.32598(19)
C37 C 0.38206(13) 0.44469(18) 0.38659(18)
C38 C 0.41385(13) 0.4045(2) 0.44157(19)
C39 C 0.40262(14) 0.38441(19) 0.48664(18)
C40 C 0.41850(13) 0.3227(2) 0.52176(18)
C41 C 0.38389(13) 0.29142(19) 0.52356(17)
C42 C 0.37954(13) 0.2233(2) 0.51716(18)
C43 C 0.33308(13) 0.19613(19) 0.49272(19)
C44 C 0.32189(13) 0.13988(18) 0.44375(19)
C45 C 0.28012(13) 0.14981(18) 0.38454(19)
C46 C 0.26999(13) 0.12459(18) 0.32401(19)
C47 C 0.23569(13) 0.15823(18) 0.26526(18)
C48 C 0.23552(12) 0.15840(18) 0.20924(18)
C49 C 0.26955(13) 0.12508(18) 0.20526(19)
C50 C 0.28003(13) 0.15127(18) 0.16118(19)
C51 C 0.26377(13) 0.21703(18) 0.13372(18)
C52 C 0.29632(13) 0.24858(19) 0.12729(18)
C53 C 0.30082(13) 0.31632(19) 0.13328(17)
C54 C 0.34581(14) 0.3443(2) 0.14865(19)
C55 C 0.36002(13) 0.39921(19) 0.20012(19)
C56 C 0.32989(13) 0.43665(18) 0.20344(18)
C57 C 0.34208(14) 0.46239(18) 0.26636(19)
C58 C 0.30071(13) 0.47392(17) 0.26229(18)
C59 C 0.30062(14) 0.47352(18) 0.31951(18)
C60 C 0.34181(13) 0.46122(18) 0.38218(18)
C61 C 0.32996(13) 0.43524(18) 0.42493(18)
C62 C 0.36048(14) 0.39711(19) 0.47741(18)
C63 C 0.34626(14) 0.34226(19) 0.50538(18)
C64 C 0.30101(13) 0.31442(19) 0.44846(18)
C65 C 0.29658(12) 0.24637(19) 0.44602(18)
C66 C 0.26378(13) 0.21528(18) 0.38685(18)
C67 C 0.23310(12) 0.25090(18) 0.33101(18)
C68 C 0.20644(13) 0.21165(19) 0.26647(18)
C69 C 0.19671(12) 0.25174(18) 0.20638(17)
C70 C 0.20571(13) 0.21214(18) 0.16107(18)
C71 C 0.23293(12) 0.25203(18) 0.14034(17)
C72 C 0.23545(12) 0.32134(17) 0.14270(17)
C73 C 0.26949(13) 0.35357(17) 0.13978(17)
C74 C 0.27919(13) 0.42781(17) 0.15718(18)
C75 C 0.26382(13) 0.44738(18) 0.20256(17)
C76 C 0.23021(12) 0.41616(17) 0.20471(17)
C77 C 0.23029(13) 0.41581(18) 0.26352(18)
C78 C 0.26418(13) 0.44643(17) 0.31989(17)
C79 C 0.27914(13) 0.42602(18) 0.38966(18)
C80 C 0.26964(13) 0.35201(18) 0.39129(18)
C81 C 0.23543(12) 0.32019(18) 0.33300(18)
C82 C 0.20504(12) 0.35728(18) 0.26702(17)
C83 C 0.19811(12) 0.3168(2) 0.20793(18)
C84 C 0.20532(13) 0.35780(18) 0.16010(17)
C85 C 0.52608(16) 0.1704(3) 0.3855(3)
C86 C 0.52467(16) 0.1672(3) 0.5541(3)
C87 C 0.42629(17) 0.0648(2) 0.2325(3)
C88 C 0.42586(16) 0.0613(2) 0.5487(2)
C89 C 0.32669(15) 0.1783(2) 0.0722(2)
C90 C 0.32805(15) 0.1736(2) 0.5493(2)
C91 C 0.34478(15) 0.3687(2) 0.0868(2)
C92 C 0.34665(15) 0.3651(2) 0.5675(2)
C93 C 0.16419(14) 0.1803(2) 0.25927(19)
C94 C 0.16194(14) 0.1820(2) 0.0988(2)
C95 C 0.25867(15) 0.4735(2) 0.0963(2)
C96 C 0.25802(14) 0.47047(19) 0.41701(18)
C97 C 0.15856(13) 0.37706(18) 0.25554(19)
C98 C 0.15951(13) 0.37592(19) 0.09755(18)
F43? F 0.5172(7) 0.1042(12) 0.3537(12)
F44? F 0.5507(5) 0.1399(12) 0.4522(9)
F45? F 0.5459(7) 0.2059(11) 0.3795(17)
F46? F 0.5340(7) 0.0987(12) 0.5531(9)
F47? F 0.5247(7) 0.1586(17) 0.6131(11)
F48? F 0.5571(7) 0.1931(15) 0.5671(13)
F49? F 0.3907(6) 0.0206(8) 0.1831(9)
F50? F 0.4482(9) 0.0098(10) 0.2814(10)
F51? F 0.4455(9) 0.0818(10) 0.2110(13)
F52? F 0.4097(9) 0.0006(9) 0.5219(10)
F53? F 0.4135(8) 0.0717(10) 0.5934(9)
F54? F 0.4676(5) 0.0602(11) 0.5837(9)
F55? F 0.1256(8) 0.1958(15) 0.2021(13)
F56? F 0.1651(11) 0.1181(15) 0.262(2)
F57? F 0.1554(10) 0.1992(16) 0.3028(12)
F58? F 0.1361(10) 0.2208(11) 0.0586(16)
F59? F 0.1762(9) 0.1374(12) 0.0691(11)
F60? F 0.1394(11) 0.1438(15) 0.1170(14)
F61? F 0.275(2) 0.4514(15) 0.058(2)
F62? F 0.2175(9) 0.472(2) 0.0647(16)
F63? F 0.274(3) 0.525(4) 0.118(4)
F64? F 0.1329(9) 0.3241(12) 0.237(2)
F65? F 0.1629(9) 0.403(2) 0.3062(13)
F66? F 0.1401(11) 0.4210(13) 0.2078(17)
F67? F 0.1564(14) 0.360(2) 0.0422(14)
F68? F 0.1516(11) 0.4394(12) 0.0941(13)
F69? F 0.1254(10) 0.3472(18) 0.0925(17)
C99? C 0.485(2) 0.524(3) 0.140(3)
C100? C 0.4704(7) 0.4791(12) 0.0888(15)
C101? C 0.5071(7) 0.5299(12) 0.0905(14)
C102? C 0.5325(10) 0.5685(12) 0.1349(18)
C103? C 0.4424(6) 0.4415(10) 0.0356(13)
C104? C 0.5077(9) 0.5166(13) 0.0438(14)
C105? C 0.4534(8) 0.4388(15) -0.0016(19)
C106? C 0.5383(17) 0.533(2) 0.221(3)
C107? C 0.4862(10) 0.440(2) 0.2232(19)
C108? C 0.4800(6) 0.1785(9) 0.7440(7)
C109? C 0.4562(9) 0.2181(13) 0.7421(17)
C110? C 0.4776(11) 0.2752(15) 0.7788(12)
loop_
_geom_bond_atom_site_label_1
_geom_bond_atom_site_label_2
_geom_bond_site_symmetry_1
_geom_bond_site_symmetry_2
F1 C85 1_555 1_555
F2 C85 1_555 1_555
F3 C85 1_555 1_555
F4 C86 1_555 1_555
F5 C86 1_555 1_555
F6 C86 1_555 1_555
F7 C87 1_555 1_555
F8 C87 1_555 1_555
F9 C87 1_555 1_555
F10 C88 1_555 1_555
F11 C88 1_555 1_555
F12 C88 1_555 1_555
F13 C89 1_555 1_555
F14 C89 1_555 1_555
F15 C89 1_555 1_555
F16 C90 1_555 1_555
F17 C90 1_555 1_555
F18 C90 1_555 1_555
F19 C91 1_555 1_555
F20 C91 1_555 1_555
F21 C91 1_555 1_555
F22 C92 1_555 1_555
F23 C92 1_555 1_555
F24 C92 1_555 1_555
F25 C93 1_555 1_555
F26 C93 1_555 1_555
F27 C93 1_555 1_555
F28 C94 1_555 1_555
F29 C94 1_555 1_555
F30 C94 1_555 1_555
F31 C95 1_555 1_555
F32 C95 1_555 1_555
F33 C95 1_555 1_555
F34 C96 1_555 1_555
F35 C96 1_555 1_555
F36 C96 1_555 1_555
F37 C97 1_555 1_555
F38 C97 1_555 1_555
F39 C97 1_555 1_555
F40 C98 1_555 1_555
F41 C98 1_555 1_555
F42 C98 1_555 1_555
C1 C2 1_555 1_555
C2 C3 1_555 1_555
C3 C4 1_555 1_555
C4 C5 1_555 1_555
C5 C6 1_555 1_555
C6 C1 1_555 1_555
C7 C6 1_555 1_555
C8 C7 1_555 1_555
C9 C8 1_555 1_555
C10 C1 1_555 1_555
C11 C10 1_555 1_555
C12 C11 1_555 1_555
C13 C2 1_555 1_555
C14 C13 1_555 1_555
C15 C3 1_555 1_555
C16 C15 1_555 1_555
C17 C16 1_555 1_555
C18 C4 1_555 1_555
C19 C18 1_555 1_555
C20 C5 1_555 1_555
C21 C20 1_555 1_555
C22 C7 1_555 1_555
C23 C22 1_555 1_555
C24 C8 1_555 1_555
C25 C24 1_555 1_555
C26 C25 1_555 1_555
C27 C9 1_555 1_555
C28 C11 1_555 1_555
C29 C28 1_555 1_555
C30 C29 1_555 1_555
C31 C12 1_555 1_555
C32 C31 1_555 1_555
C33 C14 1_555 1_555
C34 C33 1_555 1_555
C35 C16 1_555 1_555
C36 C35 1_555 1_555
C37 C36 1_555 1_555
C38 C17 1_555 1_555
C39 C38 1_555 1_555
C40 C19 1_555 1_555
C41 C40 1_555 1_555
C42 C21 1_555 1_555
C43 C42 1_555 1_555
C44 C23 1_555 1_555
C45 C44 1_555 1_555
C46 C25 1_555 1_555
C47 C46 1_555 1_555
C48 C47 1_555 1_555
C49 C26 1_555 1_555
C50 C29 1_555 1_555
C51 C50 1_555 1_555
C52 C30 1_555 1_555
C53 C52 1_555 1_555
C54 C32 1_555 1_555
C55 C34 1_555 1_555
C56 C55 1_555 1_555
C57 C36 1_555 1_555
C58 C57 1_555 1_555
C59 C58 1_555 1_555
C60 C37 1_555 1_555
C61 C60 1_555 1_555
C62 C39 1_555 1_555
C63 C41 1_555 1_555
C64 C63 1_555 1_555
C65 C43 1_555 1_555
C66 C45 1_555 1_555
C67 C66 1_555 1_555
C68 C47 1_555 1_555
C69 C68 1_555 1_555
C70 C48 1_555 1_555
C71 C51 1_555 1_555
C72 C71 1_555 1_555
C73 C53 1_555 1_555
C74 C56 1_555 1_555
C75 C58 1_555 1_555
C76 C75 1_555 1_555
C77 C76 1_555 1_555
C78 C59 1_555 1_555
C79 C61 1_555 1_555
C80 C64 1_555 1_555
C81 C67 1_555 1_555
C82 C77 1_555 1_555
C83 C69 1_555 1_555
C84 C72 1_555 1_555
C85 C2 1_555 1_555
C86 C5 1_555 1_555
C87 C11 1_555 1_555
C88 C22 1_555 1_555
C89 C30 1_555 1_555
C90 C43 1_555 1_555
C91 C54 1_555 1_555
C92 C63 1_555 1_555
C93 C68 1_555 1_555
C94 C70 1_555 1_555
C95 C74 1_555 1_555
C96 C79 1_555 1_555
C97 C82 1_555 1_555
C98 C84 1_555 1_555
C9 C10 1_555 1_555
C12 C13 1_555 1_555
C14 C15 1_555 1_555
C17 C18 1_555 1_555
C19 C20 1_555 1_555
C21 C22 1_555 1_555
C23 C24 1_555 1_555
C26 C27 1_555 1_555
C27 C28 1_555 1_555
C30 C31 1_555 1_555
C32 C33 1_555 1_555
C34 C35 1_555 1_555
C37 C38 1_555 1_555
C39 C40 1_555 1_555
C41 C42 1_555 1_555
C43 C44 1_555 1_555
C45 C46 1_555 1_555
C48 C49 1_555 1_555
C49 C50 1_555 1_555
C51 C52 1_555 1_555
C53 C54 1_555 1_555
C54 C55 1_555 1_555
C56 C57 1_555 1_555
C59 C60 1_555 1_555
C61 C62 1_555 1_555
C62 C63 1_555 1_555
C64 C65 1_555 1_555
C65 C66 1_555 1_555
C67 C68 1_555 1_555
C69 C70 1_555 1_555
C70 C71 1_555 1_555
C72 C73 1_555 1_555
C73 C74 1_555 1_555
C74 C75 1_555 1_555
C76 C84 1_555 1_555
C77 C78 1_555 1_555
C78 C79 1_555 1_555
C79 C80 1_555 1_555
C80 C81 1_555 1_555
C81 C82 1_555 1_555
C82 C83 1_555 1_555
C83 C84 1_555 1_555

#END
