
#######################################################################
#
#                 Cambridge Crystallographic Data Centre
#                                CCDC 
#
#######################################################################
#
# If this CIF has been generated from an entry in the Cambridge 
# Structural Database, then it will include bibliographic, chemical, 
# crystal, experimental, refinement or atomic coordinate data resulting 
# from the CCDC's data processing and validation procedures.
#
#######################################################################

data_RUPQUP
_chemical_formula_moiety         'C20 H28 O4'
_chemical_name_systematic        
4-Hydroxy-8-isopropyl-3a,8a-dimethyl-4-(prop-1-en-2-yl)-3,3a,4,7,8,8a,9,9a-octahydroazuleno[5,6-b]furan-2,6-dione
_symmetry_cell_setting           triclinic
_symmetry_space_group_name_H-M   'P -1'
_symmetry_Int_Tables_number      2
_space_group_name_Hall           '-P 1'
loop_
_symmetry_equiv_pos_site_id
_symmetry_equiv_pos_as_xyz
1 x,y,z
2 -x,-y,-z
_cell_length_a                   6.2233(5)
_cell_length_b                   16.3511(13)
_cell_length_c                   17.7582(14)
_cell_angle_alpha                99.257(1)
_cell_angle_beta                 93.699(1)
_cell_angle_gamma                96.031(1)
_cell_volume                     1767.52
_exptl_crystal_colour            colorless
_exptl_crystal_description       plate
_chemical_melting_point          '203-208 deg.C'
_cell_formula_units_Z            4
loop_
_atom_site_label
_atom_site_type_symbol
_atom_site_fract_x
_atom_site_fract_y
_atom_site_fract_z
O1 O -0.0766(3) 0.28686(10) 0.25431(9)
O2 O 0.0732(3) 0.31579(12) 0.37457(10)
O3 O -0.3263(3) 0.41820(12) -0.06156(10)
O4 O 0.2114(3) 0.48200(11) 0.16920(10)
H1 H 0.2580 0.5110 0.1374
C1 C 0.0249(4) 0.33971(16) 0.31598(14)
C2 C 0.0588(4) 0.42663(16) 0.29792(14)
H3 H 0.2113 0.4415 0.2878
H4 H 0.0206 0.4679 0.3407
C3 C -0.0937(4) 0.42317(15) 0.22622(14)
C4 C -0.1003(4) 0.32998(15) 0.18836(13)
H5 H -0.2453 0.3105 0.1599
C5 C 0.0766(4) 0.30535(15) 0.13697(13)
H6 H 0.0908 0.2455 0.1362
H7 H 0.2161 0.3375 0.1593
C6 C 0.0358(4) 0.32003(16) 0.05406(14)
C7 C -0.0975(4) 0.39149(16) 0.04491(14)
C8 C -0.1290(4) 0.45935(15) 0.09361(14)
H8 H -0.2305 0.4936 0.0770
C9 C -0.0162(4) 0.48632(15) 0.17315(14)
C10 C -0.1134(4) 0.24486(16) 0.00447(14)
H9 H -0.2386 0.2334 0.0353
C11 C -0.2063(4) 0.28105(17) -0.06361(15)
H10 H -0.1078 0.2774 -0.1053
H11 H -0.3502 0.2511 -0.0838
C12 C -0.2241(4) 0.37041(17) -0.03062(15)
C13 C -0.3246(4) 0.43480(17) 0.24816(15)
H12 H -0.4203 0.4330 0.2017
H13 H -0.3234 0.4888 0.2815
H14 H -0.3776 0.3900 0.2752
C14 C -0.0490(4) 0.57642(16) 0.20830(15)
C15 C -0.2252(5) 0.61250(18) 0.19004(17)
H15 H -0.2378 0.6683 0.2129
H16 H -0.3371 0.5822 0.1543
C16 C 0.1272(6) 0.62284(18) 0.26398(19)
H17 H 0.0887 0.6786 0.2832
H18 H 0.2623 0.6280 0.2387
H19 H 0.1472 0.5926 0.3068
C17 C 0.2573(4) 0.33662(17) 0.02131(15)
H20 H 0.3444 0.3840 0.0542
H21 H 0.2344 0.3494 -0.0305
H22 H 0.3336 0.2870 0.0194
C18 C -0.0194(5) 0.16114(17) -0.01482(16)
H23 H 0.0813 0.1556 0.0298
C19 C 0.1061(6) 0.1511(2) -0.08592(18)
H24 H 0.2222 0.1975 -0.0813
H25 H 0.0078 0.1512 -0.1313
H26 H 0.1692 0.0982 -0.0910
C20 C -0.2038(6) 0.08974(18) -0.0240(2)
H27 H -0.2905 0.0972 0.0202
H28 H -0.1431 0.0365 -0.0272
H29 H -0.2960 0.0897 -0.0709
O5 O 0.3952(3) 0.21236(11) 0.24861(9)
O6 O 0.4901(3) 0.18745(11) 0.12878(10)
O7 O 0.1900(3) 0.06633(11) 0.55841(10)
O8 O 0.6699(3) 0.03577(10) 0.34225(10)
H2 H 0.7209 0.0062 0.3719
C21 C 0.4645(4) 0.16332(16) 0.18859(14)
C22 C 0.4973(4) 0.07951(15) 0.20888(14)
H30 H 0.6519 0.0764 0.2238
H31 H 0.4460 0.0341 0.1656
C23 C 0.3586(4) 0.07483(15) 0.27696(14)
C24 C 0.3772(4) 0.16838(15) 0.31467(14)
H32 H 0.2400 0.1796 0.3387
C25 C 0.5688(4) 0.20500(15) 0.37123(13)
H33 H 0.5911 0.2661 0.3724
H34 H 0.7001 0.1819 0.3526
C26 C 0.5465(4) 0.18860(15) 0.45374(14)
C27 C 0.3997(4) 0.10908(15) 0.45839(14)
C28 C 0.3469(4) 0.03801(15) 0.40869(14)
H35 H 0.2431 -0.0026 0.4227
C29 C 0.4387(4) 0.01697(15) 0.33211(14)
C30 C 0.4258(4) 0.25634(15) 0.50316(14)
H36 H 0.2998 0.2674 0.4699
C31 C 0.3337(4) 0.21189(16) 0.56605(14)
H37 H 0.4389 0.2206 0.6117
H38 H 0.1970 0.2331 0.5814
C32 C 0.2935(4) 0.12076(16) 0.53092(14)
C33 C 0.1201(4) 0.04904(16) 0.24681(15)
H39 H 0.0322 0.0429 0.2899
H40 H 0.1072 -0.0042 0.2115
H41 H 0.0686 0.0920 0.2198
C34 C 0.3812(4) -0.07584(16) 0.29711(15)
C35 C 0.1968(5) -0.12023(17) 0.30812(16)
H42 H 0.1669 -0.1772 0.2847
H43 H 0.0955 -0.0949 0.3393
C36 C 0.5432(5) -0.11494(17) 0.24787(16)
H44 H 0.4905 -0.1737 0.2289
H45 H 0.6823 -0.1110 0.2782
H46 H 0.5624 -0.0856 0.2044
C37 C 0.7723(4) 0.18516(16) 0.49284(14)
H47 H 0.7577 0.1730 0.5446
H48 H 0.8604 0.2391 0.4957
H49 H 0.8428 0.1413 0.4631
C38 C 0.5531(5) 0.34117(16) 0.53779(15)
H50 H 0.6739 0.3305 0.5735
C39 C 0.4066(5) 0.39481(18) 0.58507(17)
H51 H 0.4883 0.4488 0.6072
H52 H 0.3558 0.3664 0.6263
H53 H 0.2817 0.4036 0.5521
C40 C 0.6531(5) 0.39141(17) 0.48067(16)
H54 H 0.7302 0.4441 0.5083
H55 H 0.5382 0.4031 0.4449
H56 H 0.7550 0.3593 0.4522
loop_
_geom_bond_atom_site_label_1
_geom_bond_atom_site_label_2
_geom_bond_site_symmetry_1
_geom_bond_site_symmetry_2
O1 C1 1_555 1_555
O2 C1 1_555 1_555
O3 C12 1_555 1_555
O4 H1 1_555 1_555
O5 C21 1_555 1_555
O6 C21 1_555 1_555
O7 C32 1_555 1_555
O8 H2 1_555 1_555
C1 C2 1_555 1_555
C2 H3 1_555 1_555
H4 C2 1_555 1_555
C3 C2 1_555 1_555
C4 O1 1_555 1_555
H5 C4 1_555 1_555
C5 C4 1_555 1_555
H6 C5 1_555 1_555
H7 C5 1_555 1_555
C6 C5 1_555 1_555
C7 C6 1_555 1_555
C8 C7 1_555 1_555
H8 C8 1_555 1_555
C9 O4 1_555 1_555
C10 C6 1_555 1_555
H9 C10 1_555 1_555
C11 C10 1_555 1_555
H10 C11 1_555 1_555
H11 C11 1_555 1_555
C12 C7 1_555 1_555
C13 C3 1_555 1_555
H12 C13 1_555 1_555
H13 C13 1_555 1_555
H14 C13 1_555 1_555
C14 C9 1_555 1_555
C15 C14 1_555 1_555
H15 C15 1_555 1_555
H16 C15 1_555 1_555
C16 C14 1_555 1_555
H17 C16 1_555 1_555
H18 C16 1_555 1_555
H19 C16 1_555 1_555
C17 C6 1_555 1_555
H20 C17 1_555 1_555
H21 C17 1_555 1_555
H22 C17 1_555 1_555
C18 C10 1_555 1_555
H23 C18 1_555 1_555
C19 C18 1_555 1_555
H24 C19 1_555 1_555
H25 C19 1_555 1_555
H26 C19 1_555 1_555
C20 C18 1_555 1_555
H27 C20 1_555 1_555
H28 C20 1_555 1_555
H29 C20 1_555 1_555
C21 C22 1_555 1_555
C22 H30 1_555 1_555
H31 C22 1_555 1_555
C23 C22 1_555 1_555
C24 O5 1_555 1_555
H32 C24 1_555 1_555
C25 C24 1_555 1_555
H33 C25 1_555 1_555
H34 C25 1_555 1_555
C26 C25 1_555 1_555
C27 C26 1_555 1_555
C28 C27 1_555 1_555
H35 C28 1_555 1_555
C29 O8 1_555 1_555
C30 C26 1_555 1_555
H36 C30 1_555 1_555
C31 C30 1_555 1_555
H37 C31 1_555 1_555
H38 C31 1_555 1_555
C32 C27 1_555 1_555
C33 C23 1_555 1_555
H39 C33 1_555 1_555
H40 C33 1_555 1_555
H41 C33 1_555 1_555
C34 C29 1_555 1_555
C35 C34 1_555 1_555
H42 C35 1_555 1_555
H43 C35 1_555 1_555
C36 C34 1_555 1_555
H44 C36 1_555 1_555
H45 C36 1_555 1_555
H46 C36 1_555 1_555
C37 C26 1_555 1_555
H47 C37 1_555 1_555
H48 C37 1_555 1_555
H49 C37 1_555 1_555
C38 C30 1_555 1_555
H50 C38 1_555 1_555
C39 C38 1_555 1_555
H51 C39 1_555 1_555
H52 C39 1_555 1_555
H53 C39 1_555 1_555
C40 C38 1_555 1_555
H54 C40 1_555 1_555
H55 C40 1_555 1_555
H56 C40 1_555 1_555
C3 C4 1_555 1_555
C3 C9 1_555 1_555
C8 C9 1_555 1_555
C11 C12 1_555 1_555
C23 C24 1_555 1_555
C23 C29 1_555 1_555
C28 C29 1_555 1_555
C31 C32 1_555 1_555

#END
