
#######################################################################
#
#                 Cambridge Crystallographic Data Centre
#                                CCDC 
#
#######################################################################
#
# If this CIF has been generated from an entry in the Cambridge 
# Structural Database, then it will include bibliographic, chemical, 
# crystal, experimental, refinement or atomic coordinate data resulting 
# from the CCDC's data processing and validation procedures.
#
#######################################################################

data_RUPRAW
_chemical_compound_source        
'natural Tricholomalide B isolated from mushroom Tricholoma sp'
_chemical_name_common            'Tricholomalide B'
_chemical_formula_moiety         'C20 H28 O5'
_chemical_name_systematic        
4-Hydroxy-4-(3-hydroxyprop-1-en-2-yl)-8-isopropyl-3a,8a-dimethyl-3,3a,4,7,8,8a,9,9a-octahydroazuleno[5,6-b]furan-2,6-dione
_chemical_properties_biological  
'Tricholomalide B from natural sources exhibits neurotrophic activity'
_symmetry_cell_setting           monoclinic
_symmetry_space_group_name_H-M   'P 21/c'
_symmetry_Int_Tables_number      14
_space_group_name_Hall           '-P 2ybc'
loop_
_symmetry_equiv_pos_site_id
_symmetry_equiv_pos_as_xyz
1 x,y,z
2 -x,1/2+y,1/2-z
3 -x,-y,-z
4 x,1/2-y,1/2+z
_cell_length_a                   6.4098(10)
_cell_length_b                   13.194(2)
_cell_length_c                   21.041(3)
_cell_angle_alpha                90
_cell_angle_beta                 92.226(3)
_cell_angle_gamma                90
_cell_volume                     1778.11
_exptl_crystal_colour            colorless
_exptl_crystal_description       needle
_chemical_melting_point          '188-191 deg.C'
_cell_formula_units_Z            4
loop_
_atom_site_label
_atom_site_type_symbol
_atom_site_fract_x
_atom_site_fract_y
_atom_site_fract_z
O1 O 0.1762(2) 0.53479(11) 0.29909(7)
O2 O -0.6020(2) 0.45055(11) 0.15510(7)
H1 H -0.6544 0.4573 0.1181
O3 O -0.2146(2) 0.52536(11) -0.03439(7)
O4 O -0.1336(2) 0.59751(11) 0.27017(7)
O5 O -0.1626(3) 0.17109(12) 0.09725(7)
H2 H -0.1668 0.1221 0.1227
C1 C 0.0154(4) 0.52667(17) 0.26804(10)
C2 C -0.0496(3) 0.44218(16) 0.22369(10)
H3 H -0.0134 0.3753 0.2424
H4 H 0.0175 0.4490 0.1823
C3 C -0.2880(3) 0.45561(16) 0.21602(10)
C4 C -0.3874(3) 0.41917(17) 0.15178(10)
C5 C -0.3041(3) 0.46507(17) 0.09177(10)
H5 H -0.3081 0.4200 0.0565
C6 C -0.2266(3) 0.55584(17) 0.07871(10)
C7 C -0.2050(3) 0.58468(18) 0.01054(11)
C8 C -0.1832(4) 0.69646(17) 0.00692(10)
H6 H -0.2688 0.7243 -0.0292
H7 H -0.0357 0.7162 0.0020
C9 C -0.2630(3) 0.73381(16) 0.07084(10)
H8 H -0.4185 0.7286 0.0667
C10 C -0.1934(3) 0.64906(16) 0.11936(10)
C11 C -0.3377(3) 0.64905(17) 0.17577(10)
H9 H -0.3248 0.7166 0.1960
H10 H -0.4825 0.6439 0.1579
C12 C -0.3160(3) 0.57112(16) 0.22863(10)
H11 H -0.4418 0.5783 0.2549
C13 C -0.3866(3) 0.39847(17) 0.27084(10)
H12 H -0.3531 0.3262 0.2679
H13 H -0.5384 0.4075 0.2681
H14 H -0.3312 0.4253 0.3115
C14 C -0.3736(3) 0.30417(17) 0.14407(10)
C15 C -0.5391(4) 0.24481(17) 0.14548(10)
H15 H -0.5253 0.1740 0.1386
H16 H -0.6721 0.2729 0.1534
C16 C -0.1601(4) 0.26291(16) 0.13166(11)
H17 H -0.0821 0.3142 0.1077
H18 H -0.0838 0.2521 0.1729
C17 C -0.2174(3) 0.84524(16) 0.08725(11)
H19 H -0.2267 0.8531 0.1343
C18 C -0.3837(4) 0.91328(18) 0.05558(12)
H20 H -0.3541 0.9842 0.0665
H21 H -0.5214 0.8946 0.0706
H22 H -0.3825 0.9047 0.0093
C19 C -0.0021(4) 0.88462(17) 0.06881(11)
H23 H 0.0154 0.9548 0.0834
H24 H 0.0080 0.8820 0.0225
H25 H 0.1074 0.8422 0.0888
C20 C 0.0379(3) 0.66277(16) 0.13938(10)
H26 H 0.0876 0.6026 0.1627
H27 H 0.0538 0.7226 0.1668
H28 H 0.1198 0.6719 0.1014
loop_
_geom_bond_atom_site_label_1
_geom_bond_atom_site_label_2
_geom_bond_site_symmetry_1
_geom_bond_site_symmetry_2
O1 C1 1_555 1_555
O2 H1 1_555 1_555
O3 C7 1_555 1_555
O4 C1 1_555 1_555
O5 H2 1_555 1_555
C1 C2 1_555 1_555
C2 H3 1_555 1_555
H4 C2 1_555 1_555
C3 C2 1_555 1_555
C4 O2 1_555 1_555
C5 C4 1_555 1_555
H5 C5 1_555 1_555
C6 C5 1_555 1_555
C7 C6 1_555 1_555
C8 C7 1_555 1_555
H6 C8 1_555 1_555
H7 C8 1_555 1_555
C9 C8 1_555 1_555
H8 C9 1_555 1_555
C10 C6 1_555 1_555
C11 C10 1_555 1_555
H9 C11 1_555 1_555
H10 C11 1_555 1_555
C12 O4 1_555 1_555
H11 C12 1_555 1_555
C13 C3 1_555 1_555
H12 C13 1_555 1_555
H13 C13 1_555 1_555
H14 C13 1_555 1_555
C14 C4 1_555 1_555
C15 C14 1_555 1_555
H15 C15 1_555 1_555
H16 C15 1_555 1_555
C16 O5 1_555 1_555
H17 C16 1_555 1_555
H18 C16 1_555 1_555
C17 C9 1_555 1_555
H19 C17 1_555 1_555
C18 C17 1_555 1_555
H20 C18 1_555 1_555
H21 C18 1_555 1_555
H22 C18 1_555 1_555
C19 C17 1_555 1_555
H23 C19 1_555 1_555
H24 C19 1_555 1_555
H25 C19 1_555 1_555
C20 C10 1_555 1_555
H26 C20 1_555 1_555
H27 C20 1_555 1_555
H28 C20 1_555 1_555
C3 C4 1_555 1_555
C3 C12 1_555 1_555
C9 C10 1_555 1_555
C11 C12 1_555 1_555
C14 C16 1_555 1_555

#END
