
#######################################################################
#
#                 Cambridge Crystallographic Data Centre
#                                CCDC 
#
#######################################################################
#
# If this CIF has been generated from an entry in the Cambridge 
# Structural Database, then it will include bibliographic, chemical, 
# crystal, experimental, refinement or atomic coordinate data resulting 
# from the CCDC's data processing and validation procedures.
#
#######################################################################

data_RUPRAW01
_chemical_formula_moiety         'C20 H28 O5'
_chemical_name_systematic        
4-Hydroxy-4-(3-hydroxyprop-1-en-2-yl)-8-isopropyl-3a,8a-dimethyl-3,3a,4,7,8,8a,9,9a-octahydroazuleno[5,6-b]furan-2,6-dione
_symmetry_cell_setting           triclinic
_symmetry_space_group_name_H-M   'P -1'
_symmetry_Int_Tables_number      2
_space_group_name_Hall           '-P 1'
loop_
_symmetry_equiv_pos_site_id
_symmetry_equiv_pos_as_xyz
1 x,y,z
2 -x,-y,-z
_cell_length_a                   6.2107(12)
_cell_length_b                   16.315(3)
_cell_length_c                   17.969(4)
_cell_angle_alpha                99.637(3)
_cell_angle_beta                 93.661(3)
_cell_angle_gamma                96.032(3)
_cell_volume                     1778.95
_exptl_crystal_colour            colorless
_exptl_crystal_description       plate
_cell_formula_units_Z            4
loop_
_atom_site_label
_atom_site_type_symbol
_atom_site_fract_x
_atom_site_fract_y
_atom_site_fract_z
O1 O -0.5905(5) -0.78501(18) -0.24970(16)
O2 O -0.5006(5) -0.81129(19) -0.36889(17)
O3 O -0.3376(5) -0.96947(18) -0.16119(17)
H1 H -0.2914 -0.9978 -0.1299
O4 O -0.8009(5) -0.9341(2) 0.05659(17)
C1 C -0.5271(7) -0.8353(3) -0.3102(2)
C2 C -0.5044(7) -0.9204(3) -0.2908(2)
H2 H -0.3508 -0.9260 -0.2763
H3 H -0.5601 -0.9653 -0.3339
C3 C -0.6432(7) -0.9232(3) -0.2234(2)
C4 C -0.5705(7) -0.9834(3) -0.1703(2)
C5 C -0.6567(7) -0.9616(3) -0.0935(2)
H4 H -0.7626 -1.0014 -0.0796
C6 C -0.5968(7) -0.8912(3) -0.0436(2)
C7 C -0.6996(7) -0.8785(3) 0.0297(2)
C8 C -0.6580(7) -0.7881(3) 0.0640(2)
H5 H -0.5527 -0.7794 0.1092
H6 H -0.7945 -0.7665 0.0794
C9 C -0.5647(7) -0.7434(3) 0.0021(2)
H7 H -0.6905 -0.7317 -0.0305
C10 C -0.4461(7) -0.8119(3) -0.0474(2)
C11 C -0.4206(7) -0.7955(3) -0.1287(2)
H8 H -0.3916 -0.7343 -0.1267
H9 H -0.2916 -0.8207 -0.1473
C12 C -0.6134(7) -0.8291(3) -0.1855(2)
H10 H -0.7495 -0.8156 -0.1616
C13 C -0.8832(7) -0.9448(3) -0.2540(3)
H11 H -0.9089 -1.0036 -0.2788
H12 H -0.9176 -0.9090 -0.2907
H13 H -0.9760 -0.9357 -0.2119
C14 C -0.6389(5) -1.0750(3) -0.2071(2)
C15 C -0.5020(13) -1.1215(8) -0.2490(8)
H14 H -0.5489 -1.1781 -0.2712
H15 H -0.3606 -1.0970 -0.2559
C16 C -0.853(2) -1.1120(9) -0.1968(7)
H16 H -0.8417 -1.1351 -0.1493
H17 H -0.9448 -1.0658 -0.1878
O5 O -0.9693(12) -1.1754(4) -0.2525(4)
H18 H -0.9666 -1.2220 -0.2385
C17 C -0.4353(8) -0.6590(3) 0.0367(3)
H19 H -0.3147 -0.6701 0.0719
C18 C -0.5822(9) -0.6034(3) 0.0843(3)
H20 H -0.6470 -0.6340 0.1215
H21 H -0.6977 -0.5889 0.0508
H22 H -0.4948 -0.5521 0.1108
C19 C -0.3335(9) -0.6086(3) -0.0197(3)
H23 H -0.2390 -0.6425 -0.0504
H24 H -0.2477 -0.5575 0.0080
H25 H -0.4488 -0.5935 -0.0529
C20 C -0.2206(7) -0.8171(3) -0.0088(3)
H26 H -0.1488 -0.8596 -0.0399
H27 H -0.2370 -0.8324 0.0412
H28 H -0.1323 -0.7626 -0.0030
O6 O -1.0653(5) -0.71076(18) -0.24546(16)
O7 O -0.9141(5) -0.6804(2) -0.12602(17)
O8 O -0.7820(5) -0.5109(2) -0.32892(18)
H29 H -0.7398 -0.4836 -0.3620
O9 O -0.7161(11) -0.3331(5) -0.2530(6)
H30 H -0.7273 -0.2828 -0.2558
C21 C -0.9087(13) -0.3693(7) -0.2253(6)
H31 H -0.9864 -0.3244 -0.1990
H32 H -0.8692 -0.4052 -0.1885
C22 C -1.0559(16) -0.4213(6) -0.2914(12)
C23 C -1.2199(19) -0.3809(12) -0.3131(13)
H33 H -1.2336 -0.3259 -0.2877
H34 H -1.3224 -0.4071 -0.3538
O10 O -1.3163(5) -0.5819(2) -0.55882(18)
C24 C -0.9634(7) -0.6571(3) -0.1844(2)
C25 C -0.9314(7) -0.5699(3) -0.2023(2)
H35 H -0.7792 -0.5547 -0.2129
H36 H -0.9693 -0.5282 -0.1599
C26 C -1.0868(7) -0.5745(3) -0.2730(2)
C27 C -1.0140(7) -0.5102(3) -0.3252(2)
C28 C -1.1234(7) -0.5394(3) -0.4042(2)
H37 H -1.2268 -0.5062 -0.4211
C29 C -1.0883(7) -0.6077(3) -0.4525(2)
C30 C -1.2155(7) -0.6300(3) -0.5282(2)
C31 C -1.1977(8) -0.7196(3) -0.5593(3)
H38 H -1.0998 -0.7243 -0.6008
H39 H -1.3421 -0.7500 -0.5787
C32 C -1.1034(7) -0.7546(3) -0.4916(2)
H40 H -1.2283 -0.7651 -0.4606
C33 C -0.9528(7) -0.6780(3) -0.4435(2)
C34 C -0.9123(7) -0.6921(3) -0.3610(2)
H41 H -0.8970 -0.7520 -0.3618
H42 H -0.7729 -0.6594 -0.3388
C35 C -1.0897(7) -0.6676(3) -0.3101(2)
H43 H -1.2346 -0.6878 -0.3384
C36 C -1.3167(7) -0.5640(3) -0.2501(3)
H44 H -1.3597 -0.6046 -0.2178
H45 H -1.4179 -0.5735 -0.2957
H46 H -1.3198 -0.5071 -0.2224
C37 C -1.0114(8) -0.8394(3) -0.5105(3)
H47 H -0.9152 -0.8462 -0.4656
C38 C -0.8792(10) -0.8502(4) -0.5804(4)
H48 H -0.7554 -0.8063 -0.5731
H49 H -0.9719 -0.8458 -0.6254
H50 H -0.8262 -0.9052 -0.5871
C39 C -1.2047(10) -0.9106(3) -0.5224(4)
H51 H -1.2886 -0.9050 -0.4778
H52 H -1.1485 -0.9651 -0.5296
H53 H -1.2985 -0.9065 -0.5673
C40 C -0.7339(7) -0.6625(3) -0.4756(3)
H54 H -0.6467 -0.6144 -0.4435
H55 H -0.7568 -0.6508 -0.5271
H56 H -0.6574 -0.7122 -0.4768
C41? C -0.6389(5) -1.0750(3) -0.2071(2)
C42? C -0.824(2) -1.1223(9) -0.1930(9)
C43? C -0.503(2) -1.1088(8) -0.2637(8)
C44? C -1.053(2) -0.4212(6) -0.2906(12)
C45? C -1.2373(19) -0.3897(12) -0.3076(13)
C46? C -0.8486(17) -0.3771(6) -0.2427(6)
H57? H -0.5645 -1.2231 -0.2621
H58? H -0.8615 -1.1774 -0.2206
H59? H -0.9130 -1.0998 -0.1556
H60? H -0.5704 -1.1016 -0.3133
H61? H -0.3624 -1.0727 -0.2549
H62? H -0.9168 -0.2674 -0.2103
H63? H -1.2520 -0.3327 -0.2889
H64? H -1.3532 -0.4244 -0.3383
H65? H -0.7802 -0.4170 -0.2157
H66? H -0.7426 -0.3554 -0.2757
O11? O -0.4559(15) -1.1925(4) -0.2716(5)
O12? O -0.9071(13) -0.3093(5) -0.1892(6)
loop_
_geom_bond_atom_site_label_1
_geom_bond_atom_site_label_2
_geom_bond_site_symmetry_1
_geom_bond_site_symmetry_2
O1 C1 1_555 1_555
O2 C1 1_555 1_555
O3 H1 1_555 1_555
O4 C7 1_555 1_555
C1 C2 1_555 1_555
C2 H2 1_555 1_555
H3 C2 1_555 1_555
C3 C2 1_555 1_555
C4 O3 1_555 1_555
C5 C4 1_555 1_555
H4 C5 1_555 1_555
C6 C5 1_555 1_555
C7 C6 1_555 1_555
C8 C7 1_555 1_555
H5 C8 1_555 1_555
H6 C8 1_555 1_555
C9 C8 1_555 1_555
H7 C9 1_555 1_555
C10 C6 1_555 1_555
C11 C10 1_555 1_555
H8 C11 1_555 1_555
H9 C11 1_555 1_555
C12 O1 1_555 1_555
H10 C12 1_555 1_555
C13 C3 1_555 1_555
H11 C13 1_555 1_555
H12 C13 1_555 1_555
H13 C13 1_555 1_555
C14 C4 1_555 1_555
C15 C14 1_555 1_555
H14 C15 1_555 1_555
H15 C15 1_555 1_555
C16 C14 1_555 1_555
H16 C16 1_555 1_555
H17 C16 1_555 1_555
O5 C16 1_555 1_555
H18 O5 1_555 1_555
C17 C9 1_555 1_555
H19 C17 1_555 1_555
C18 C17 1_555 1_555
H20 C18 1_555 1_555
H21 C18 1_555 1_555
H22 C18 1_555 1_555
C19 C17 1_555 1_555
H23 C19 1_555 1_555
H24 C19 1_555 1_555
H25 C19 1_555 1_555
C20 C10 1_555 1_555
H26 C20 1_555 1_555
H27 C20 1_555 1_555
H28 C20 1_555 1_555
O6 C24 1_555 1_555
O7 C24 1_555 1_555
O8 H29 1_555 1_555
O9 H30 1_555 1_555
C21 O9 1_555 1_555
H31 C21 1_555 1_555
H32 C21 1_555 1_555
C22 C21 1_555 1_555
C23 C22 1_555 1_555
H33 C23 1_555 1_555
H34 C23 1_555 1_555
O10 C30 1_555 1_555
C24 C25 1_555 1_555
C25 H35 1_555 1_555
H36 C25 1_555 1_555
C26 C25 1_555 1_555
C27 O8 1_555 1_555
C28 C27 1_555 1_555
H37 C28 1_555 1_555
C29 C28 1_555 1_555
C30 C29 1_555 1_555
C31 C30 1_555 1_555
H38 C31 1_555 1_555
H39 C31 1_555 1_555
C32 C31 1_555 1_555
H40 C32 1_555 1_555
C33 C29 1_555 1_555
C34 C33 1_555 1_555
H41 C34 1_555 1_555
H42 C34 1_555 1_555
C35 O6 1_555 1_555
H43 C35 1_555 1_555
C36 C26 1_555 1_555
H44 C36 1_555 1_555
H45 C36 1_555 1_555
H46 C36 1_555 1_555
C37 C32 1_555 1_555
H47 C37 1_555 1_555
C38 C37 1_555 1_555
H48 C38 1_555 1_555
H49 C38 1_555 1_555
H50 C38 1_555 1_555
C39 C37 1_555 1_555
H51 C39 1_555 1_555
H52 C39 1_555 1_555
H53 C39 1_555 1_555
C40 C33 1_555 1_555
H54 C40 1_555 1_555
H55 C40 1_555 1_555
H56 C40 1_555 1_555
C3 C4 1_555 1_555
C3 C12 1_555 1_555
C9 C10 1_555 1_555
C11 C12 1_555 1_555
C22 C27 1_555 1_555
C26 C27 1_555 1_555
C26 C35 1_555 1_555
C32 C33 1_555 1_555
C34 C35 1_555 1_555

#END
