
#######################################################################
#
#                 Cambridge Crystallographic Data Centre
#                                CCDC 
#
#######################################################################
#
# If this CIF has been generated from an entry in the Cambridge 
# Structural Database, then it will include bibliographic, chemical, 
# crystal, experimental, refinement or atomic coordinate data resulting 
# from the CCDC's data processing and validation procedures.
#
#######################################################################

data_RUPTIH
_chemical_formula_moiety         'C29 H21 B1 F2 N2 O1'
_chemical_name_systematic        
4-(1,1-Difluoro-1H-11\l^5^,1\l^5^-[1,3,2]oxazaborinino[3,4-a]quinolin-3-yl)-N,N-diphenylaniline
_symmetry_cell_setting           monoclinic
_symmetry_space_group_name_H-M   'P 21/c'
_symmetry_Int_Tables_number      14
_space_group_name_Hall           '-P 2ybc'
loop_
_symmetry_equiv_pos_site_id
_symmetry_equiv_pos_as_xyz
1 x,y,z
2 -x,1/2+y,1/2-z
3 -x,-y,-z
4 x,1/2-y,1/2+z
_cell_length_a                   17.149(14)
_cell_length_b                   8.780(7)
_cell_length_c                   17.692(14)
_cell_angle_alpha                90
_cell_angle_beta                 117.636(8)
_cell_angle_gamma                90
_cell_volume                     2359.94
_exptl_crystal_colour            colorless
_exptl_crystal_description       Prism
_cell_formula_units_Z            4
loop_
_atom_site_label
_atom_site_type_symbol
_atom_site_fract_x
_atom_site_fract_y
_atom_site_fract_z
B1 B 0.1528(3) 0.3841(5) 0.2435(2)
O1 O 0.07288(15) 0.3401(3) 0.16902(14)
F1 F 0.15913(14) 0.5413(2) 0.24873(12)
F2 F 0.22247(13) 0.3242(3) 0.23556(13)
N1 N -0.30395(18) 0.2462(4) -0.15434(16)
N2 N 0.15206(16) 0.3264(3) 0.32913(16)
C1 C -0.2322(3) 0.0350(5) -0.2931(3)
H1 H -0.1896 -0.0355 -0.2881
C2 C -0.4805(3) 0.4145(5) -0.1156(2)
H2 H -0.4875 0.4961 -0.0857
C3 C 0.1403(3) 0.2431(6) 0.4759(2)
H3 H 0.1356 0.2154 0.5244
C4 C -0.5390(3) 0.1962(5) -0.2036(2)
H4 H -0.5857 0.1306 -0.2343
C5 C -0.2912(4) 0.0889(6) -0.3722(3)
H5 H -0.2899 0.0519 -0.4208
C6 C 0.3820(2) 0.3821(5) 0.4952(3)
H6 H 0.4356 0.4140 0.4996
C7 C -0.5507(3) 0.3176(6) -0.1604(3)
H7 H -0.6047 0.3340 -0.1613
C8 C -0.3518(3) 0.1966(6) -0.3796(2)
H8 H -0.3906 0.2341 -0.4332
C9 C 0.0686(3) 0.2402(6) 0.3995(2)
H9 H 0.0147 0.2112 0.3956
C10 C -0.4001(3) 0.3916(4) -0.1146(2)
H10 H -0.3539 0.4587 -0.0849
C11 C -0.2364(3) 0.0863(4) -0.2206(2)
H11 H -0.1974 0.0483 -0.1672
C12 C -0.4578(2) 0.1712(5) -0.2015(2)
H12 H -0.4503 0.0877 -0.2299
C13 C -0.3560(3) 0.2504(5) -0.3081(2)
H13 H -0.3972 0.3244 -0.3138
C14 C -0.0780(2) 0.2787(4) 0.0855(2)
C15 C 0.2990(3) 0.2917(5) 0.5628(2)
H14 H 0.2956 0.2633 0.6119
C16 C -0.3882(2) 0.2700(4) -0.15749(19)
C17 C 0.3772(3) 0.3365(5) 0.5686(3)
H15 H 0.4274 0.3368 0.6212
C18 C -0.2988(2) 0.1941(4) -0.2279(2)
C19 C -0.0764(2) 0.3321(5) 0.0118(2)
H16 H -0.0252 0.3753 0.0156
C20 C -0.0013(2) 0.2728(5) 0.2449(2)
H17 H -0.0545 0.2488 0.2443
C21 C 0.3087(2) 0.3808(5) 0.4167(2)
H18 H 0.3128 0.4125 0.3685
C22 C 0.2228(2) 0.2876(4) 0.4836(2)
C23 C -0.2287(2) 0.1981(4) -0.0020(2)
H19 H -0.2792 0.1510 -0.0064
C24 C 0.2278(2) 0.3316(4) 0.4093(2)
C25 C 0.0743(2) 0.2813(5) 0.3241(2)
C26 C -0.1552(2) 0.2107(4) 0.0769(2)
H20 H -0.1574 0.1732 0.1251
C27 C -0.1503(2) 0.3212(5) -0.0669(2)
H21 H -0.1484 0.3583 -0.1152
C28 C -0.2275(2) 0.2554(4) -0.07452(19)
C29 C -0.0013(2) 0.2975(4) 0.1693(2)
loop_
_geom_bond_atom_site_label_1
_geom_bond_atom_site_label_2
_geom_bond_site_symmetry_1
_geom_bond_site_symmetry_2
B1 O1 1_555 1_555
O1 C29 1_555 1_555
F1 B1 1_555 1_555
F2 B1 1_555 1_555
N1 C16 1_555 1_555
N2 B1 1_555 1_555
C1 H1 1_555 1_555
C2 H2 1_555 1_555
C3 H3 1_555 1_555
C4 H4 1_555 1_555
C5 C1 1_555 1_555
H5 C5 1_555 1_555
C6 H6 1_555 1_555
C7 C2 1_555 1_555
H7 C7 1_555 1_555
C8 C5 1_555 1_555
H8 C8 1_555 1_555
C9 C3 1_555 1_555
H9 C9 1_555 1_555
C10 C2 1_555 1_555
H10 C10 1_555 1_555
C11 C1 1_555 1_555
H11 C11 1_555 1_555
C12 C4 1_555 1_555
H12 C12 1_555 1_555
C13 C8 1_555 1_555
H13 C13 1_555 1_555
C14 C19 1_555 1_555
C15 H14 1_555 1_555
C16 C10 1_555 1_555
C17 C6 1_555 1_555
H15 C17 1_555 1_555
C18 N1 1_555 1_555
C19 H16 1_555 1_555
C20 H17 1_555 1_555
C21 C6 1_555 1_555
H18 C21 1_555 1_555
C22 C3 1_555 1_555
C23 H19 1_555 1_555
C24 N2 1_555 1_555
C25 N2 1_555 1_555
C26 C14 1_555 1_555
H20 C26 1_555 1_555
C27 C19 1_555 1_555
H21 C27 1_555 1_555
C28 N1 1_555 1_555
C29 C14 1_555 1_555
C4 C7 1_555 1_555
C9 C25 1_555 1_555
C11 C18 1_555 1_555
C12 C16 1_555 1_555
C13 C18 1_555 1_555
C15 C17 1_555 1_555
C15 C22 1_555 1_555
C20 C25 1_555 1_555
C20 C29 1_555 1_555
C21 C24 1_555 1_555
C22 C24 1_555 1_555
C23 C26 1_555 1_555
C23 C28 1_555 1_555
C27 C28 1_555 1_555

#END
