
#######################################################################
#
#                 Cambridge Crystallographic Data Centre
#                                CCDC 
#
#######################################################################
#
# If this CIF has been generated from an entry in the Cambridge 
# Structural Database, then it will include bibliographic, chemical, 
# crystal, experimental, refinement or atomic coordinate data resulting 
# from the CCDC's data processing and validation procedures.
#
#######################################################################

data_RUPTIH02
_chemical_formula_moiety         'C29 H21 B1 F2 N2 O1'
_chemical_name_systematic        
4-(1,1-difluoro-1H-11,1-[1,3,2]oxazaborinino[3,4-a]quinolin-3-yl)-N,N-diphenylaniline
_symmetry_cell_setting           monoclinic
_symmetry_space_group_name_H-M   'P 21/a'
_symmetry_Int_Tables_number      14
_space_group_name_Hall           '-P 2yab'
loop_
_symmetry_equiv_pos_site_id
_symmetry_equiv_pos_as_xyz
1 x,y,z
2 1/2-x,1/2+y,-z
3 -x,-y,-z
4 1/2+x,1/2-y,z
_cell_length_a                   15.823(17)
_cell_length_b                   9.588(10)
_cell_length_c                   17.462(19)
_cell_angle_alpha                90
_cell_angle_beta                 114.623(13)
_cell_angle_gamma                90
_cell_volume                     2408.28
_exptl_crystal_colour            colorless
_exptl_crystal_description       Prism
_cell_formula_units_Z            4
loop_
_atom_site_label
_atom_site_type_symbol
_atom_site_fract_x
_atom_site_fract_y
_atom_site_fract_z
F1 F 0.4034(2) -0.3804(3) 0.0909(2)
F2 F 0.52507(19) -0.2347(3) 0.15942(18)
O1 O 0.3838(3) -0.1904(4) 0.1634(2)
N1 N 0.1774(3) 0.0385(5) 0.3849(3)
N2 N 0.4015(3) -0.1559(4) 0.0279(3)
B1 B 0.4295(4) -0.2444(7) 0.1124(4)
C1 C 0.2808(6) 0.0483(8) 0.6167(5)
H1 H 0.2648 0.0217 0.6602
C2 C 0.3875(5) 0.1513(8) 0.5707(5)
H2 H 0.4442 0.1947 0.5825
C3 C 0.3648(6) 0.1135(7) 0.6363(4)
H3 H 0.4051 0.1316 0.6920
C4 C -0.1000(5) 0.1720(9) 0.3118(5)
H4 H -0.1610 0.2000 0.2970
C5 C 0.0101(4) 0.0002(6) 0.3092(3)
H5 H 0.0218 -0.0861 0.2913
C6 C -0.0802(4) 0.0449(8) 0.2861(4)
H6 H -0.1290 -0.0123 0.2523
C7 C 0.5357(5) -0.2224(7) -0.1323(4)
H7 H 0.5670 -0.2352 -0.1666
C8 C 0.3274(4) 0.1257(7) 0.4881(4)
H8 H 0.3435 0.1517 0.4446
C9 C 0.0651(5) 0.2126(7) 0.3845(4)
H9 H 0.1141 0.2697 0.4181
C10 C 0.2196(5) 0.0213(7) 0.5347(4)
H10 H 0.1632 -0.0231 0.5229
C11 C -0.0257(6) 0.2574(8) 0.3605(5)
H11 H -0.0372 0.3450 0.3770
C12 C 0.4684(4) -0.1217(6) -0.1521(4)
H12 H 0.4536 -0.0677 -0.2002
C13 C 0.5132(4) -0.2861(6) -0.0095(4)
H13 H 0.5278 -0.3434 0.0373
C14 C 0.3514(4) 0.0030(6) -0.1199(3)
H14 H 0.3352 0.0579 -0.1679
C15 C 0.2016(4) 0.0226(6) 0.1815(4)
H15 H 0.1726 0.0608 0.1278
C16 C 0.5575(4) -0.3044(7) -0.0622(4)
H16 H 0.6027 -0.3732 -0.0500
C17 C 0.0834(4) 0.0854(6) 0.3594(3)
C18 C 0.3078(4) 0.0211(6) -0.0685(3)
H17 H 0.2607 0.0872 -0.0825
C19 C 0.2435(4) 0.0614(6) 0.4703(4)
C20 C 0.1684(4) 0.0545(6) 0.2420(4)
H18 H 0.1173 0.1133 0.2276
C21 C 0.4457(4) -0.1807(6) -0.0268(3)
C22 C 0.3152(4) -0.0953(6) 0.1384(4)
C23 C 0.4219(4) -0.0999(6) -0.1007(4)
C24 C 0.2843(4) -0.0907(6) 0.3410(3)
H19 H 0.3122 -0.1307 0.3942
C25 C 0.2095(4) 0.0007(6) 0.3230(3)
C26 C 0.2776(4) -0.0653(5) 0.2004(3)
C27 C 0.3176(4) -0.1228(6) 0.2816(3)
H20 H 0.3675 -0.1838 0.2957
C28 C 0.3322(3) -0.0585(5) 0.0067(3)
C29 C 0.2903(3) -0.0315(6) 0.0633(3)
H21 H 0.2428 0.0343 0.0475
loop_
_geom_bond_atom_site_label_1
_geom_bond_atom_site_label_2
_geom_bond_site_symmetry_1
_geom_bond_site_symmetry_2
F1 B1 1_555 1_555
F2 B1 1_555 1_555
O1 B1 1_555 1_555
N1 C17 1_555 1_555
N2 B1 1_555 1_555
C1 H1 1_555 1_555
C2 H2 1_555 1_555
C3 C1 1_555 1_555
H3 C3 1_555 1_555
C4 H4 1_555 1_555
C5 H5 1_555 1_555
C6 C4 1_555 1_555
H6 C6 1_555 1_555
C7 H7 1_555 1_555
C8 C2 1_555 1_555
H8 C8 1_555 1_555
C9 H9 1_555 1_555
C10 C1 1_555 1_555
H10 C10 1_555 1_555
C11 C4 1_555 1_555
H11 C11 1_555 1_555
C12 C7 1_555 1_555
H12 C12 1_555 1_555
C13 H13 1_555 1_555
C14 H14 1_555 1_555
C15 H15 1_555 1_555
C16 C7 1_555 1_555
H16 C16 1_555 1_555
C17 C5 1_555 1_555
C18 C14 1_555 1_555
H17 C18 1_555 1_555
C19 N1 1_555 1_555
C20 C15 1_555 1_555
H18 C20 1_555 1_555
C21 N2 1_555 1_555
C22 O1 1_555 1_555
C23 C12 1_555 1_555
C24 H19 1_555 1_555
C25 N1 1_555 1_555
C26 C15 1_555 1_555
C27 C24 1_555 1_555
H20 C27 1_555 1_555
C28 N2 1_555 1_555
C29 C22 1_555 1_555
H21 C29 1_555 1_555
C2 C3 1_555 1_555
C5 C6 1_555 1_555
C8 C19 1_555 1_555
C9 C11 1_555 1_555
C9 C17 1_555 1_555
C10 C19 1_555 1_555
C13 C16 1_555 1_555
C13 C21 1_555 1_555
C14 C23 1_555 1_555
C18 C28 1_555 1_555
C20 C25 1_555 1_555
C21 C23 1_555 1_555
C22 C26 1_555 1_555
C24 C25 1_555 1_555
C26 C27 1_555 1_555
C28 C29 1_555 1_555

#END
