
#######################################################################
#
#                 Cambridge Crystallographic Data Centre
#                                CCDC 
#
#######################################################################
#
# If this CIF has been generated from an entry in the Cambridge 
# Structural Database, then it will include bibliographic, chemical, 
# crystal, experimental, refinement or atomic coordinate data resulting 
# from the CCDC's data processing and validation procedures.
#
#######################################################################

data_RUPTON
_chemical_formula_moiety         'C26 H50 O2 Si5'
_chemical_name_systematic        
2-Ethoxy-3-phenyl-5,5,8,8-tetrakis(trimethylsilyl)-1-oxa-4-silaspiro[3.4]oct-2-ene
_symmetry_cell_setting           orthorhombic
_symmetry_space_group_name_H-M   'P b c a'
_symmetry_Int_Tables_number      61
_space_group_name_Hall           '-P 2ac 2ab'
loop_
_symmetry_equiv_pos_site_id
_symmetry_equiv_pos_as_xyz
1 x,y,z
2 1/2-x,-y,1/2+z
3 -x,1/2+y,1/2-z
4 1/2+x,1/2-y,-z
5 -x,-y,-z
6 1/2+x,y,1/2-z
7 x,1/2-y,1/2+z
8 1/2-x,1/2+y,z
_cell_length_a                   9.661(10)
_cell_length_b                   18.921(19)
_cell_length_c                   35.70(4)
_cell_angle_alpha                90
_cell_angle_beta                 90
_cell_angle_gamma                90
_cell_volume                     6525.81
_exptl_crystal_colour            colorless
_exptl_crystal_description       needle
_cell_formula_units_Z            8
loop_
_atom_site_label
_atom_site_type_symbol
_atom_site_fract_x
_atom_site_fract_y
_atom_site_fract_z
Si1 Si 0.41630(10) 0.07054(5) 0.12250(3)
Si2 Si 0.37477(12) -0.08108(6) 0.15544(3)
Si3 Si 0.67631(11) -0.03508(6) 0.13693(3)
Si4 Si 0.51579(13) 0.17315(6) 0.05606(3)
Si5 Si 0.23327(12) 0.09553(7) 0.05056(3)
C1 C 0.4874(3) -0.02251(17) 0.12365(9)
C2 C 0.4662(4) -0.04242(18) 0.08105(10)
H1 H 0.5298 -0.0800 0.0743
H2 H 0.3727 -0.0598 0.0774
C3 C 0.4909(4) 0.02151(18) 0.05546(9)
H3 H 0.4565 0.0110 0.0305
H4 H 0.5895 0.0304 0.0536
C4 C 0.4164(3) 0.08973(17) 0.07082(9)
C5 C 0.1965(4) -0.0949(2) 0.13664(13)
H5 H 0.1466 -0.1264 0.1528
H6 H 0.2021 -0.1150 0.1120
H7 H 0.1492 -0.0503 0.1354
C6 C 0.3566(5) -0.0438(2) 0.20377(11)
H8 H 0.3601 0.0068 0.2026
H9 H 0.4308 -0.0608 0.2192
H10 H 0.2696 -0.0584 0.2143
C7 C 0.4472(5) -0.1731(2) 0.15983(14)
H11 H 0.3863 -0.2013 0.1750
H12 H 0.5368 -0.1710 0.1714
H13 H 0.4553 -0.1939 0.1354
C8 C 0.7036(5) -0.0310(2) 0.18828(12)
H14 H 0.8010 -0.0326 0.1936
H15 H 0.6587 -0.0705 0.2000
H16 H 0.6654 0.0121 0.1979
C9 C 0.7441(5) -0.1217(2) 0.11899(13)
H17 H 0.8162 -0.1384 0.1353
H18 H 0.7805 -0.1154 0.0942
H19 H 0.6703 -0.1557 0.1183
C10 C 0.7975(4) 0.0309(2) 0.11627(13)
H20 H 0.7747 0.0772 0.1254
H21 H 0.7895 0.0301 0.0895
H22 H 0.8907 0.0194 0.1233
C11 C 0.6732(5) 0.1926(2) 0.08378(14)
H23 H 0.7390 0.1551 0.0806
H24 H 0.6491 0.1966 0.1098
H25 H 0.7132 0.2363 0.0753
C12 C 0.5803(6) 0.1634(3) 0.00675(13)
H26 H 0.6055 0.2090 -0.0029
H27 H 0.5087 0.1433 -0.0086
H28 H 0.6598 0.1329 0.0065
C13 C 0.4119(5) 0.2559(2) 0.06061(17)
H29 H 0.4705 0.2960 0.0563
H30 H 0.3733 0.2585 0.0853
H31 H 0.3385 0.2555 0.0425
C14 C 0.2377(5) 0.1188(3) -0.00074(12)
H32 H 0.1449 0.1204 -0.0103
H33 H 0.2897 0.0837 -0.0141
H34 H 0.2806 0.1641 -0.0039
C15 C 0.1200(5) 0.1617(3) 0.07484(13)
H35 H 0.0724 0.1897 0.0565
H36 H 0.1760 0.1918 0.0903
H37 H 0.0536 0.1374 0.0902
C16 C 0.1401(4) 0.0091(2) 0.05064(13)
H38 H 0.1254 -0.0060 0.0760
H39 H 0.1946 -0.0256 0.0377
H40 H 0.0525 0.0144 0.0383
C17 C 0.5044(4) 0.18912(18) 0.18171(9)
C18 C 0.4422(4) 0.2469(2) 0.19872(11)
H41 H 0.3476 0.2538 0.1958
C19 C 0.5177(5) 0.2944(2) 0.21995(12)
H42 H 0.4729 0.3327 0.2309
C20 C 0.6560(4) 0.2860(2) 0.22507(11)
H43 H 0.7059 0.3177 0.2397
C21 C 0.7200(4) 0.2306(2) 0.20840(12)
H44 H 0.8150 0.2247 0.2113
C22 C 0.6453(4) 0.1825(2) 0.18700(12)
H45 H 0.6916 0.1448 0.1759
C23 C 0.4246(4) 0.13801(17) 0.16012(9)
C24 C 0.2893(4) 0.12252(19) 0.16445(10)
O1 O 0.2477(2) 0.07095(11) 0.13999(6)
O2 O 0.1981(3) 0.14815(15) 0.18859(8)
C25 C 0.0580(4) 0.1220(3) 0.18841(13)
H46 H -0.0043 0.1600 0.1814
H47 H 0.0496 0.0850 0.1698
C26 C 0.0185(5) 0.0953(3) 0.22362(16)
H48 H 0.0656 0.0514 0.2281
H49 H -0.0796 0.0875 0.2239
H50 H 0.0428 0.1286 0.2428
loop_
_geom_bond_atom_site_label_1
_geom_bond_atom_site_label_2
_geom_bond_site_symmetry_1
_geom_bond_site_symmetry_2
Si1 C1 1_555 1_555
Si2 C1 1_555 1_555
Si3 C1 1_555 1_555
Si4 C4 1_555 1_555
Si5 C4 1_555 1_555
C1 C2 1_555 1_555
C2 H1 1_555 1_555
H2 C2 1_555 1_555
C3 C2 1_555 1_555
H3 C3 1_555 1_555
H4 C3 1_555 1_555
C4 Si1 1_555 1_555
C5 Si2 1_555 1_555
H5 C5 1_555 1_555
H6 C5 1_555 1_555
H7 C5 1_555 1_555
C6 Si2 1_555 1_555
H8 C6 1_555 1_555
H9 C6 1_555 1_555
H10 C6 1_555 1_555
C7 Si2 1_555 1_555
H11 C7 1_555 1_555
H12 C7 1_555 1_555
H13 C7 1_555 1_555
C8 Si3 1_555 1_555
H14 C8 1_555 1_555
H15 C8 1_555 1_555
H16 C8 1_555 1_555
C9 Si3 1_555 1_555
H17 C9 1_555 1_555
H18 C9 1_555 1_555
H19 C9 1_555 1_555
C10 Si3 1_555 1_555
H20 C10 1_555 1_555
H21 C10 1_555 1_555
H22 C10 1_555 1_555
C11 Si4 1_555 1_555
H23 C11 1_555 1_555
H24 C11 1_555 1_555
H25 C11 1_555 1_555
C12 Si4 1_555 1_555
H26 C12 1_555 1_555
H27 C12 1_555 1_555
H28 C12 1_555 1_555
C13 Si4 1_555 1_555
H29 C13 1_555 1_555
H30 C13 1_555 1_555
H31 C13 1_555 1_555
C14 Si5 1_555 1_555
H32 C14 1_555 1_555
H33 C14 1_555 1_555
H34 C14 1_555 1_555
C15 Si5 1_555 1_555
H35 C15 1_555 1_555
H36 C15 1_555 1_555
H37 C15 1_555 1_555
C16 Si5 1_555 1_555
H38 C16 1_555 1_555
H39 C16 1_555 1_555
H40 C16 1_555 1_555
C17 C18 1_555 1_555
C18 H41 1_555 1_555
C19 C18 1_555 1_555
H42 C19 1_555 1_555
C20 C19 1_555 1_555
H43 C20 1_555 1_555
C21 C20 1_555 1_555
H44 C21 1_555 1_555
C22 C17 1_555 1_555
H45 C22 1_555 1_555
C23 Si1 1_555 1_555
C24 C23 1_555 1_555
O1 Si1 1_555 1_555
O2 C24 1_555 1_555
C25 O2 1_555 1_555
H46 C25 1_555 1_555
H47 C25 1_555 1_555
C26 C25 1_555 1_555
H48 C26 1_555 1_555
H49 C26 1_555 1_555
H50 C26 1_555 1_555
C3 C4 1_555 1_555
C17 C23 1_555 1_555
C21 C22 1_555 1_555
C24 O1 1_555 1_555

#END
