
#######################################################################
#
#                 Cambridge Crystallographic Data Centre
#                                CCDC 
#
#######################################################################
#
# If this CIF has been generated from an entry in the Cambridge 
# Structural Database, then it will include bibliographic, chemical, 
# crystal, experimental, refinement or atomic coordinate data resulting 
# from the CCDC's data processing and validation procedures.
#
#######################################################################

data_RUPTUT
_chemical_formula_moiety         'C30 H50 O1 Si5'
_chemical_name_systematic        
2,3-Diphenyl-5,5,8,8-tetrakis(trimethylsilyl)-1-oxa-4-silaspiro[3.4]oct-2-ene
_symmetry_cell_setting           triclinic
_symmetry_space_group_name_H-M   'P -1'
_symmetry_Int_Tables_number      2
_space_group_name_Hall           '-P 1'
loop_
_symmetry_equiv_pos_site_id
_symmetry_equiv_pos_as_xyz
1 x,y,z
2 -x,-y,-z
_cell_length_a                   11.587(9)
_cell_length_b                   12.882(10)
_cell_length_c                   13.076(10)
_cell_angle_alpha                89.350(9)
_cell_angle_beta                 65.871(9)
_cell_angle_gamma                74.849(9)
_cell_volume                     1709.19
_exptl_crystal_colour            colorless
_exptl_crystal_description       block
_cell_formula_units_Z            2
loop_
_atom_site_label
_atom_site_type_symbol
_atom_site_fract_x
_atom_site_fract_y
_atom_site_fract_z
Si1 Si 0.08816(6) 0.23002(4) 0.19289(5)
Si2 Si 0.25987(6) 0.19770(5) -0.06848(5)
Si3 Si 0.31864(6) 0.34408(5) 0.08395(6)
Si4 Si -0.13164(7) 0.43669(5) 0.35998(6)
Si5 Si -0.21637(7) 0.25447(6) 0.27102(6)
O1 O 0.09350(15) 0.10104(11) 0.15239(13)
C1 C 0.1858(2) 0.29307(16) 0.06790(18)
C2 C 0.0751(2) 0.39317(17) 0.0633(2)
H1 H 0.0786 0.4581 0.0973
H2 H 0.0925 0.4027 -0.0149
C3 C -0.0637(2) 0.37855(18) 0.12494(19)
H3 H -0.0786 0.3322 0.0763
H4 H -0.1288 0.4483 0.1410
C4 C -0.0822(2) 0.32717(16) 0.23875(18)
C5 C 0.1275(3) 0.1728(2) -0.1041(2)
H5 H 0.1672 0.1274 -0.1743
H6 H 0.0731 0.2405 -0.1108
H7 H 0.0745 0.1376 -0.0456
C6 C 0.3690(3) 0.0630(2) -0.0657(3)
H8 H 0.3415 0.0446 0.0104
H9 H 0.4585 0.0662 -0.0942
H10 H 0.3631 0.0089 -0.1118
C7 C 0.3585(3) 0.2630(3) -0.1908(2)
H11 H 0.4323 0.2734 -0.1805
H12 H 0.3037 0.3318 -0.1948
H13 H 0.3896 0.2172 -0.2596
C8 C 0.4810(3) 0.2384(2) 0.0388(2)
H14 H 0.5407 0.2672 0.0554
H15 H 0.5169 0.2176 -0.0407
H16 H 0.4685 0.1764 0.0788
C9 C 0.3446(3) 0.4614(2) -0.0011(3)
H17 H 0.2607 0.5090 0.0092
H18 H 0.3955 0.4351 -0.0794
H19 H 0.3907 0.5001 0.0235
C10 C 0.2715(3) 0.3957(2) 0.2332(2)
H20 H 0.2563 0.3387 0.2805
H21 H 0.1926 0.4550 0.2584
H22 H 0.3415 0.4199 0.2369
C11 C -0.0639(3) 0.3838(2) 0.4640(2)
H23 H -0.0973 0.4381 0.5266
H24 H 0.0306 0.3661 0.4284
H25 H -0.0901 0.3202 0.4903
C12 C -0.0805(3) 0.5608(2) 0.3094(3)
H26 H -0.1206 0.5914 0.2606
H27 H 0.0137 0.5421 0.2689
H28 H -0.1082 0.6128 0.3729
C13 C -0.3145(3) 0.4945(3) 0.4460(4)
H29 H -0.3506 0.4390 0.4854
H30 H -0.3561 0.5212 0.3970
H31 H -0.3301 0.5527 0.4994
C14 C -0.3727(3) 0.3500(3) 0.2750(3)
H32 H -0.4161 0.3111 0.2472
H33 H -0.3517 0.4067 0.2287
H34 H -0.4300 0.3809 0.3512
C15 C -0.2464(4) 0.1916(4) 0.4055(3)
H35 H -0.3128 0.1549 0.4199
H36 H -0.2756 0.2469 0.4663
H37 H -0.1662 0.1408 0.3994
C16 C -0.1791(3) 0.1464(3) 0.1587(3)
H38 H -0.1049 0.0883 0.1536
H39 H -0.1589 0.1759 0.0877
H40 H -0.2543 0.1196 0.1770
C17 C 0.1479(2) 0.06057(16) 0.22797(18)
C18 C 0.1586(2) 0.14377(16) 0.28208(18)
C19 C 0.1796(2) -0.05779(16) 0.22966(19)
C20 C 0.1457(3) -0.11904(18) 0.1655(2)
H41 H 0.1038 -0.0853 0.1216
C21 C 0.1739(3) -0.2300(2) 0.1667(3)
H42 H 0.1516 -0.2704 0.1228
C22 C 0.2341(3) -0.2813(2) 0.2315(3)
H43 H 0.2508 -0.3558 0.2330
C23 C 0.2698(3) -0.2220(2) 0.2943(2)
H44 H 0.3122 -0.2569 0.3373
C24 C 0.2432(3) -0.11062(18) 0.2944(2)
H45 H 0.2675 -0.0712 0.3374
C25 C 0.2084(2) 0.13877(16) 0.37070(18)
C26 C 0.1287(3) 0.1303(2) 0.4823(2)
H46 H 0.0418 0.1308 0.5022
C27 C 0.1764(4) 0.1213(3) 0.5640(2)
H47 H 0.1215 0.1158 0.6380
C28 C 0.3024(4) 0.1204(3) 0.5371(3)
H48 H 0.3336 0.1147 0.5927
C29 C 0.3841(4) 0.1278(3) 0.4286(3)
H49 H 0.4710 0.1264 0.4102
C30 C 0.3370(3) 0.1376(2) 0.3452(2)
H50 H 0.3928 0.1433 0.2716
loop_
_geom_bond_atom_site_label_1
_geom_bond_atom_site_label_2
_geom_bond_site_symmetry_1
_geom_bond_site_symmetry_2
Si1 O1 1_555 1_555
Si2 C1 1_555 1_555
Si3 C1 1_555 1_555
Si4 C4 1_555 1_555
Si5 C4 1_555 1_555
O1 C17 1_555 1_555
C1 Si1 1_555 1_555
C2 C1 1_555 1_555
H1 C2 1_555 1_555
H2 C2 1_555 1_555
C3 C2 1_555 1_555
H3 C3 1_555 1_555
H4 C3 1_555 1_555
C4 Si1 1_555 1_555
C5 Si2 1_555 1_555
H5 C5 1_555 1_555
H6 C5 1_555 1_555
H7 C5 1_555 1_555
C6 Si2 1_555 1_555
H8 C6 1_555 1_555
H9 C6 1_555 1_555
H10 C6 1_555 1_555
C7 Si2 1_555 1_555
H11 C7 1_555 1_555
H12 C7 1_555 1_555
H13 C7 1_555 1_555
C8 Si3 1_555 1_555
H14 C8 1_555 1_555
H15 C8 1_555 1_555
H16 C8 1_555 1_555
C9 Si3 1_555 1_555
H17 C9 1_555 1_555
H18 C9 1_555 1_555
H19 C9 1_555 1_555
C10 Si3 1_555 1_555
H20 C10 1_555 1_555
H21 C10 1_555 1_555
H22 C10 1_555 1_555
C11 Si4 1_555 1_555
H23 C11 1_555 1_555
H24 C11 1_555 1_555
H25 C11 1_555 1_555
C12 Si4 1_555 1_555
H26 C12 1_555 1_555
H27 C12 1_555 1_555
H28 C12 1_555 1_555
C13 Si4 1_555 1_555
H29 C13 1_555 1_555
H30 C13 1_555 1_555
H31 C13 1_555 1_555
C14 Si5 1_555 1_555
H32 C14 1_555 1_555
H33 C14 1_555 1_555
H34 C14 1_555 1_555
C15 Si5 1_555 1_555
H35 C15 1_555 1_555
H36 C15 1_555 1_555
H37 C15 1_555 1_555
C16 Si5 1_555 1_555
H38 C16 1_555 1_555
H39 C16 1_555 1_555
H40 C16 1_555 1_555
C17 C18 1_555 1_555
C18 Si1 1_555 1_555
C19 C17 1_555 1_555
C20 C19 1_555 1_555
H41 C20 1_555 1_555
C21 C20 1_555 1_555
H42 C21 1_555 1_555
C22 C21 1_555 1_555
H43 C22 1_555 1_555
C23 C22 1_555 1_555
H44 C23 1_555 1_555
C24 C19 1_555 1_555
H45 C24 1_555 1_555
C25 C18 1_555 1_555
C26 C25 1_555 1_555
H46 C26 1_555 1_555
C27 C26 1_555 1_555
H47 C27 1_555 1_555
C28 C27 1_555 1_555
H48 C28 1_555 1_555
C29 C28 1_555 1_555
H49 C29 1_555 1_555
C30 C25 1_555 1_555
H50 C30 1_555 1_555
C3 C4 1_555 1_555
C23 C24 1_555 1_555
C29 C30 1_555 1_555

#END
