
#######################################################################
#
#                 Cambridge Crystallographic Data Centre
#                                CCDC 
#
#######################################################################
#
# If this CIF has been generated from an entry in the Cambridge 
# Structural Database, then it will include bibliographic, chemical, 
# crystal, experimental, refinement or atomic coordinate data resulting 
# from the CCDC's data processing and validation procedures.
#
#######################################################################

data_RUPVIJ
_chemical_formula_moiety         'C27 H50 N2 O3 Si5'
_chemical_name_systematic        
'Ethyl 9-phenyl-1,1,4,4-tetrakis(trimethylsilyl)-10-oxa-6,7-diaza-5-silaspiro[4.5]deca-6,8-diene-8-carboxylate'
_symmetry_cell_setting           triclinic
_symmetry_space_group_name_H-M   'P -1'
_symmetry_Int_Tables_number      2
_space_group_name_Hall           '-P 1'
loop_
_symmetry_equiv_pos_site_id
_symmetry_equiv_pos_as_xyz
1 x,y,z
2 -x,-y,-z
_cell_length_a                   9.7059(11)
_cell_length_b                   12.3889(14)
_cell_length_c                   14.2286(16)
_cell_angle_alpha                93.485(2)
_cell_angle_beta                 91.210(2)
_cell_angle_gamma                97.443(2)
_cell_volume                     1692.64
_exptl_crystal_colour            green
_exptl_crystal_description       block
_cell_formula_units_Z            2
loop_
_atom_site_label
_atom_site_type_symbol
_atom_site_fract_x
_atom_site_fract_y
_atom_site_fract_z
Si1 Si 0.26956(4) 0.16179(4) 0.24767(3)
Si2 Si 0.03308(5) -0.04354(5) 0.23220(4)
Si3 Si 0.34059(5) -0.07569(4) 0.27388(4)
Si4 Si 0.45603(6) 0.27418(4) 0.08994(4)
Si5 Si 0.17033(6) 0.34954(5) 0.13594(4)
N1 N 0.15211(15) 0.20610(15) 0.32990(11)
N2 N 0.18539(16) 0.24075(14) 0.41412(11)
O1 O 0.42430(11) 0.20047(10) 0.30563(8)
O2 O 0.4129(2) 0.23868(17) 0.60397(11)
O3 O 0.25192(17) 0.34654(13) 0.58228(10)
C1 C 0.22333(17) 0.01399(14) 0.21172(12)
C2 C 0.2443(2) 0.01768(14) 0.10263(12)
H1 H 0.3403 0.0103 0.0891
H2 H 0.1859 -0.0433 0.0701
C3 C 0.2076(2) 0.12511(15) 0.06576(12)
H3 H 0.1074 0.1230 0.0621
H4 H 0.2425 0.1329 0.0028
C4 C 0.27247(18) 0.22611(14) 0.13221(12)
C5 C -0.0989(2) 0.0418(2) 0.1919(2)
H5 H -0.1903 0.0026 0.1963
H6 H -0.0828 0.0584 0.1277
H7 H -0.0915 0.1084 0.2310
C6 C -0.0029(3) -0.0673(3) 0.35821(17)
H8 H 0.0320 -0.0030 0.3969
H9 H 0.0421 -0.1275 0.3769
H10 H -0.1013 -0.0837 0.3656
C7 C -0.0135(3) -0.1753(2) 0.15922(18)
H11 H 0.0294 -0.2319 0.1869
H12 H 0.0190 -0.1668 0.0965
H13 H -0.1126 -0.1946 0.1569
C8 C 0.3529(3) -0.0397(2) 0.40347(16)
H14 H 0.3705 -0.1024 0.4361
H15 H 0.2671 -0.0166 0.4238
H16 H 0.4275 0.0184 0.4171
C9 C 0.2822(3) -0.22576(18) 0.2562(2)
H17 H 0.2676 -0.2456 0.1901
H18 H 0.1969 -0.2436 0.2882
H19 H 0.3521 -0.2651 0.2813
C10 C 0.5208(2) -0.05765(19) 0.22871(18)
H20 H 0.5623 0.0164 0.2423
H21 H 0.5176 -0.0742 0.1618
H22 H 0.5752 -0.1059 0.2587
C11 C 0.5826(2) 0.1738(2) 0.0964(2)
H23 H 0.6661 0.2005 0.0655
H24 H 0.5428 0.1053 0.0659
H25 H 0.6043 0.1639 0.1612
C12 C 0.4482(3) 0.3008(2) -0.03895(17)
H26 H 0.4220 0.3720 -0.0460
H27 H 0.3807 0.2469 -0.0712
H28 H 0.5378 0.2969 -0.0653
C13 C 0.5415(3) 0.3995(2) 0.15815(19)
H29 H 0.5451 0.3863 0.2239
H30 H 0.4891 0.4588 0.1490
H31 H 0.6341 0.4178 0.1366
C14 C 0.1984(3) 0.4376(2) 0.0339(2)
H32 H 0.1724 0.3947 -0.0237
H33 H 0.2947 0.4673 0.0327
H34 H 0.1426 0.4960 0.0404
C15 C 0.2176(3) 0.4396(2) 0.2463(2)
H35 H 0.2203 0.5147 0.2322
H36 H 0.3073 0.4274 0.2699
H37 H 0.1494 0.4227 0.2929
C16 C -0.0221(3) 0.3110(2) 0.1333(2)
H38 H -0.0669 0.3746 0.1254
H39 H -0.0496 0.2802 0.1914
H40 H -0.0488 0.2582 0.0818
C17 C 0.43858(17) 0.24200(13) 0.39563(11)
C18 C 0.32537(18) 0.25297(14) 0.44861(12)
C19 C 0.58549(17) 0.27652(14) 0.42500(12)
C20 C 0.6261(2) 0.36927(17) 0.48334(16)
H41 H 0.5594 0.4114 0.5054
C21 C 0.7646(3) 0.4001(2) 0.50930(18)
H42 H 0.7902 0.4626 0.5486
C22 C 0.8648(2) 0.3386(2) 0.47705(17)
H43 H 0.9577 0.3586 0.4952
C23 C 0.8262(2) 0.2480(2) 0.41831(17)
H44 H 0.8934 0.2066 0.3959
C24 C 0.6886(2) 0.21709(18) 0.39184(14)
H45 H 0.6644 0.1556 0.3512
C25 C 0.3377(2) 0.27810(16) 0.55248(13)
C26 C 0.2539(3) 0.3714(2) 0.68379(15)
H46 H 0.3413 0.4143 0.7042
H47 H 0.2439 0.3044 0.7164
C27 C 0.1369(4) 0.4335(3) 0.70524(19)
H48 H 0.1515 0.5022 0.6768
H49 H 0.1315 0.4461 0.7722
H50 H 0.0516 0.3926 0.6807
loop_
_geom_bond_atom_site_label_1
_geom_bond_atom_site_label_2
_geom_bond_site_symmetry_1
_geom_bond_site_symmetry_2
Si1 N1 1_555 1_555
Si2 C1 1_555 1_555
Si3 C1 1_555 1_555
Si4 C4 1_555 1_555
Si5 C4 1_555 1_555
N1 N2 1_555 1_555
N2 C18 1_555 1_555
O1 Si1 1_555 1_555
O2 C25 1_555 1_555
O3 C25 1_555 1_555
C1 Si1 1_555 1_555
C2 C1 1_555 1_555
H1 C2 1_555 1_555
H2 C2 1_555 1_555
C3 C2 1_555 1_555
H3 C3 1_555 1_555
H4 C3 1_555 1_555
C4 Si1 1_555 1_555
C5 Si2 1_555 1_555
H5 C5 1_555 1_555
H6 C5 1_555 1_555
H7 C5 1_555 1_555
C6 Si2 1_555 1_555
H8 C6 1_555 1_555
H9 C6 1_555 1_555
H10 C6 1_555 1_555
C7 Si2 1_555 1_555
H11 C7 1_555 1_555
H12 C7 1_555 1_555
H13 C7 1_555 1_555
C8 Si3 1_555 1_555
H14 C8 1_555 1_555
H15 C8 1_555 1_555
H16 C8 1_555 1_555
C9 Si3 1_555 1_555
H17 C9 1_555 1_555
H18 C9 1_555 1_555
H19 C9 1_555 1_555
C10 Si3 1_555 1_555
H20 C10 1_555 1_555
H21 C10 1_555 1_555
H22 C10 1_555 1_555
C11 Si4 1_555 1_555
H23 C11 1_555 1_555
H24 C11 1_555 1_555
H25 C11 1_555 1_555
C12 Si4 1_555 1_555
H26 C12 1_555 1_555
H27 C12 1_555 1_555
H28 C12 1_555 1_555
C13 Si4 1_555 1_555
H29 C13 1_555 1_555
H30 C13 1_555 1_555
H31 C13 1_555 1_555
C14 Si5 1_555 1_555
H32 C14 1_555 1_555
H33 C14 1_555 1_555
H34 C14 1_555 1_555
C15 Si5 1_555 1_555
H35 C15 1_555 1_555
H36 C15 1_555 1_555
H37 C15 1_555 1_555
C16 Si5 1_555 1_555
H38 C16 1_555 1_555
H39 C16 1_555 1_555
H40 C16 1_555 1_555
C17 O1 1_555 1_555
C18 C17 1_555 1_555
C19 C17 1_555 1_555
C20 C19 1_555 1_555
H41 C20 1_555 1_555
C21 C20 1_555 1_555
H42 C21 1_555 1_555
C22 C21 1_555 1_555
H43 C22 1_555 1_555
C23 C22 1_555 1_555
H44 C23 1_555 1_555
C24 C19 1_555 1_555
H45 C24 1_555 1_555
C25 C18 1_555 1_555
C26 O3 1_555 1_555
H46 C26 1_555 1_555
H47 C26 1_555 1_555
C27 C26 1_555 1_555
H48 C27 1_555 1_555
H49 C27 1_555 1_555
H50 C27 1_555 1_555
C3 C4 1_555 1_555
C23 C24 1_555 1_555

#END
