
#######################################################################
#
#                 Cambridge Crystallographic Data Centre
#                                CCDC 
#
#######################################################################
#
# If this CIF has been generated from an entry in the Cambridge 
# Structural Database, then it will include bibliographic, chemical, 
# crystal, experimental, refinement or atomic coordinate data resulting 
# from the CCDC's data processing and validation procedures.
#
#######################################################################

data_RUPXAD
_chemical_formula_moiety         'C20 H50 N2 Si6'
_chemical_name_systematic        
3,3a,6,6,7-pentakis(Trimethylsilyl)-1,3a,4,5,6,7-hexahydrosilolo[1,2-c][1,2,3]diazasilole
_symmetry_cell_setting           monoclinic
_symmetry_space_group_name_H-M   'P 21/c'
_symmetry_Int_Tables_number      14
_space_group_name_Hall           '-P 2ybc'
loop_
_symmetry_equiv_pos_site_id
_symmetry_equiv_pos_as_xyz
1 x,y,z
2 -x,1/2+y,1/2-z
3 -x,-y,-z
4 x,1/2-y,1/2+z
_cell_length_a                   14.925(12)
_cell_length_b                   11.801(8)
_cell_length_c                   18.571(14)
_cell_angle_alpha                90
_cell_angle_beta                 110.765(16)
_cell_angle_gamma                90
_cell_volume                     3058.44
_exptl_crystal_colour            colorless
_exptl_crystal_description       block
_cell_formula_units_Z            4
loop_
_atom_site_label
_atom_site_type_symbol
_atom_site_fract_x
_atom_site_fract_y
_atom_site_fract_z
Si1 Si 0.26811(4) 0.09971(4) 0.42460(3)
Si2 Si 0.14431(6) 0.32754(5) 0.40859(4)
Si3 Si 0.36255(6) 0.32392(5) 0.51490(4)
Si4 Si 0.16138(6) -0.13442(6) 0.44066(4)
Si5 Si 0.23859(5) 0.08710(6) 0.28818(3)
Si6 Si 0.35372(6) -0.09376(5) 0.65090(4)
N1 N 0.39993(14) -0.01443(14) 0.53383(10)
N2 N 0.38231(14) 0.04053(14) 0.46251(10)
H1 H 0.4237 0.0444 0.4401
C1 C 0.24826(16) 0.23807(16) 0.47251(11)
C2 C 0.21910(19) 0.19088(17) 0.54152(12)
H2 H 0.2762 0.1815 0.5870
H3 H 0.1777 0.2452 0.5536
C3 C 0.16723(17) 0.07722(18) 0.52030(13)
H4 H 0.1038 0.0885 0.4821
H5 H 0.1604 0.0429 0.5655
C4 C 0.22654(16) -0.00087(16) 0.48761(11)
C5 C 0.0357(2) 0.2402(3) 0.35590(16)
H6 H -0.0095 0.2855 0.3168
H7 H 0.0068 0.2140 0.3915
H8 H 0.0543 0.1763 0.3324
C6 C 0.1749(2) 0.4119(2) 0.33468(17)
H9 H 0.1884 0.3612 0.2993
H10 H 0.2303 0.4579 0.3599
H11 H 0.1218 0.4597 0.3070
C7 C 0.1016(3) 0.4314(3) 0.4665(2)
H12 H 0.1485 0.4901 0.4859
H13 H 0.0924 0.3926 0.5088
H14 H 0.0420 0.4643 0.4343
C8 C 0.4211(3) 0.3510(3) 0.4433(2)
H15 H 0.3785 0.3937 0.4010
H16 H 0.4360 0.2801 0.4248
H17 H 0.4791 0.3932 0.4673
C9 C 0.3432(3) 0.4636(2) 0.55498(18)
H18 H 0.4038 0.5005 0.5792
H19 H 0.3130 0.4515 0.5922
H20 H 0.3028 0.5104 0.5140
C10 C 0.4543(2) 0.2529(2) 0.59905(17)
H21 H 0.4665 0.1780 0.5845
H22 H 0.4308 0.2481 0.6409
H23 H 0.5125 0.2961 0.6149
C11 C 0.1083(3) -0.2101(3) 0.5044(2)
H24 H 0.0674 -0.2699 0.4760
H25 H 0.0715 -0.1577 0.5223
H26 H 0.1587 -0.2415 0.5477
C12 C 0.2453(3) -0.2338(2) 0.41969(18)
H27 H 0.2765 -0.2798 0.4642
H28 H 0.2926 -0.1915 0.4069
H29 H 0.2104 -0.2815 0.3771
C13 C 0.0588(3) -0.0969(3) 0.35036(19)
H30 H 0.0820 -0.0519 0.3176
H31 H 0.0119 -0.0546 0.3635
H32 H 0.0302 -0.1650 0.3239
C14 C 0.2643(3) -0.0600(3) 0.26433(18)
H33 H 0.2149 -0.1100 0.2671
H34 H 0.3250 -0.0842 0.3004
H35 H 0.2662 -0.0616 0.2132
C15 C 0.3258(3) 0.1823(3) 0.26736(17)
H36 H 0.3887 0.1693 0.3044
H37 H 0.3078 0.2598 0.2703
H38 H 0.3258 0.1668 0.2166
C16 C 0.1199(2) 0.1257(3) 0.21519(15)
H39 H 0.1214 0.1148 0.1644
H40 H 0.1061 0.2037 0.2217
H41 H 0.0710 0.0785 0.2219
C17 C 0.4541(3) -0.0082(3) 0.71790(16)
H42 H 0.4769 -0.0435 0.7677
H43 H 0.4316 0.0668 0.7223
H44 H 0.5053 -0.0039 0.6981
C18 C 0.2566(3) -0.0850(3) 0.69125(18)
H45 H 0.2775 -0.1197 0.7413
H46 H 0.2008 -0.1239 0.6578
H47 H 0.2410 -0.0070 0.6956
C19 C 0.3888(2) -0.2446(2) 0.65153(17)
H48 H 0.4377 -0.2514 0.6293
H49 H 0.3340 -0.2886 0.6220
H50 H 0.4130 -0.2720 0.7036
C20 C 0.32374(16) -0.03260(16) 0.54915(11)
loop_
_geom_bond_atom_site_label_1
_geom_bond_atom_site_label_2
_geom_bond_site_symmetry_1
_geom_bond_site_symmetry_2
Si1 Si5 1_555 1_555
Si2 C1 1_555 1_555
Si3 C1 1_555 1_555
Si4 C4 1_555 1_555
Si5 C14 1_555 1_555
Si6 C17 1_555 1_555
N1 N2 1_555 1_555
N2 Si1 1_555 1_555
H1 N2 1_555 1_555
C1 Si1 1_555 1_555
C2 C1 1_555 1_555
H2 C2 1_555 1_555
H3 C2 1_555 1_555
C3 C2 1_555 1_555
H4 C3 1_555 1_555
H5 C3 1_555 1_555
C4 Si1 1_555 1_555
C5 Si2 1_555 1_555
H6 C5 1_555 1_555
H7 C5 1_555 1_555
H8 C5 1_555 1_555
C6 Si2 1_555 1_555
H9 C6 1_555 1_555
H10 C6 1_555 1_555
H11 C6 1_555 1_555
C7 Si2 1_555 1_555
H12 C7 1_555 1_555
H13 C7 1_555 1_555
H14 C7 1_555 1_555
C8 Si3 1_555 1_555
H15 C8 1_555 1_555
H16 C8 1_555 1_555
H17 C8 1_555 1_555
C9 Si3 1_555 1_555
H18 C9 1_555 1_555
H19 C9 1_555 1_555
H20 C9 1_555 1_555
C10 Si3 1_555 1_555
H21 C10 1_555 1_555
H22 C10 1_555 1_555
H23 C10 1_555 1_555
C11 Si4 1_555 1_555
H24 C11 1_555 1_555
H25 C11 1_555 1_555
H26 C11 1_555 1_555
C12 Si4 1_555 1_555
H27 C12 1_555 1_555
H28 C12 1_555 1_555
H29 C12 1_555 1_555
C13 Si4 1_555 1_555
H30 C13 1_555 1_555
H31 C13 1_555 1_555
H32 C13 1_555 1_555
C14 H33 1_555 1_555
H34 C14 1_555 1_555
H35 C14 1_555 1_555
C15 Si5 1_555 1_555
H36 C15 1_555 1_555
H37 C15 1_555 1_555
H38 C15 1_555 1_555
C16 Si5 1_555 1_555
H39 C16 1_555 1_555
H40 C16 1_555 1_555
H41 C16 1_555 1_555
C17 H42 1_555 1_555
H43 C17 1_555 1_555
H44 C17 1_555 1_555
C18 Si6 1_555 1_555
H45 C18 1_555 1_555
H46 C18 1_555 1_555
H47 C18 1_555 1_555
C19 Si6 1_555 1_555
H48 C19 1_555 1_555
H49 C19 1_555 1_555
H50 C19 1_555 1_555
C20 Si6 1_555 1_555
N1 C20 1_555 1_555
C3 C4 1_555 1_555
C4 C20 1_555 1_555

#END
