
#######################################################################
#
#                 Cambridge Crystallographic Data Centre
#                                CCDC 
#
#######################################################################
#
# If this CIF has been generated from an entry in the Cambridge 
# Structural Database, then it will include bibliographic, chemical, 
# crystal, experimental, refinement or atomic coordinate data resulting 
# from the CCDC's data processing and validation procedures.
#
#######################################################################

data_RUPYIK
_chemical_formula_moiety         'C15 H17 Cl2 F2 N1 S1'
_chemical_name_systematic        
'trans-1,1-Dichloro-2,2-difluoro-4a-(2-pyridylthio) decahydronaphthalene'
_symmetry_cell_setting           triclinic
_symmetry_space_group_name_H-M   'P -1'
_symmetry_Int_Tables_number      2
_space_group_name_Hall           '-P 1'
loop_
_symmetry_equiv_pos_site_id
_symmetry_equiv_pos_as_xyz
1 x,y,z
2 -x,-y,-z
_cell_length_a                   10.234(7)
_cell_length_b                   10.992(9)
_cell_length_c                   7.435(5)
_cell_angle_alpha                102.91(6)
_cell_angle_beta                 94.81(2)
_cell_angle_gamma                72.96(6)
_cell_volume                     779.297
_exptl_crystal_colour            colorless
_exptl_crystal_description       plate
_cell_formula_units_Z            2
loop_
_atom_site_label
_atom_site_type_symbol
_atom_site_fract_x
_atom_site_fract_y
_atom_site_fract_z
Cl1 Cl 1.0055(1) 0.3882(1) 0.2266(1)
S1 S 0.68296(8) 0.20359(8) -0.2286(1)
Cl2 Cl 0.8563(1) 0.2012(1) 0.1408(1)
C1 C 0.9397(3) 0.2903(3) 0.0361(4)
C2 C 0.8384(3) 0.3734(3) -0.0795(4)
C3 C 0.7981(3) 0.2979(3) -0.2692(4)
F1 F 1.1393(2) 0.2623(2) -0.1186(3)
F2 F 1.1401(2) 0.1149(2) 0.0307(3)
N1 N 0.6520(3) 0.1375(3) -0.5986(4)
C4 C 0.5890(3) 0.1769(3) -0.4386(4)
C5 C 0.9253(3) 0.2062(3) -0.3682(4)
C6 C 0.6005(4) 0.5037(3) -0.2830(5)
C7 C 0.7228(3) 0.4010(3) -0.3810(4)
C8 C 0.4512(4) 0.1920(4) -0.4231(6)
C9 C 1.0146(4) 0.1168(3) -0.2509(5)
C10 C 1.0600(3) 0.1935(3) -0.0768(4)
C11 C 0.7159(3) 0.4727(3) 0.0233(4)
C12 C 0.6406(4) 0.5697(3) -0.0926(5)
C13 C 0.3769(4) 0.1615(4) -0.5835(7)
C14 C 0.4412(4) 0.1220(4) -0.7490(6)
C15 C 0.5757(4) 0.1128(4) -0.7494(5)
H1 H 0.897(3) 0.158(3) -0.470(4)
H2 H 0.978(3) 0.256(3) -0.398(4)
H3 H 0.562(4) 0.570(4) -0.351(5)
H4 H 0.537(3) 0.467(3) -0.267(4)
H5 H 0.792(3) 0.441(2) -0.398(3)
H6 H 0.694(3) 0.357(3) -0.505(4)
H7 H 0.420(4) 0.219(4) -0.303(6)
H8 H 0.968(3) 0.065(3) -0.220(4)
H9 H 1.087(4) 0.081(3) -0.295(4)
H10 H 0.652(3) 0.432(3) 0.051(4)
H11 H 0.750(3) 0.513(3) 0.123(5)
H12 H 0.699(4) 0.623(4) -0.114(5)
H13 H 0.559(4) 0.624(3) -0.034(4)
H14 H 0.280(4) 0.182(4) -0.579(5)
H15 H 0.390(4) 0.109(4) -0.857(6)
H16 H 0.629(4) 0.077(4) -0.868(5)
H17 H 0.888(3) 0.421(3) -0.114(4)
loop_
_geom_bond_atom_site_label_1
_geom_bond_atom_site_label_2
_geom_bond_site_symmetry_1
_geom_bond_site_symmetry_2
Cl1 C1 1_555 1_555
S1 C3 1_555 1_555
Cl2 C1 1_555 1_555
C1 C2 1_555 1_555
C2 C3 1_555 1_555
C3 C5 1_555 1_555
F1 C10 1_555 1_555
F2 C10 1_555 1_555
N1 C4 1_555 1_555
C4 S1 1_555 1_555
C5 C9 1_555 1_555
C6 C7 1_555 1_555
C7 C3 1_555 1_555
C8 C4 1_555 1_555
C9 C10 1_555 1_555
C10 C1 1_555 1_555
C11 C2 1_555 1_555
C12 C6 1_555 1_555
C13 C8 1_555 1_555
C14 C13 1_555 1_555
C15 N1 1_555 1_555
H1 C5 1_555 1_555
H2 C5 1_555 1_555
H3 C6 1_555 1_555
H4 C6 1_555 1_555
H5 C7 1_555 1_555
H6 C7 1_555 1_555
H7 C8 1_555 1_555
H8 C9 1_555 1_555
H9 C9 1_555 1_555
H10 C11 1_555 1_555
H11 C11 1_555 1_555
H12 C12 1_555 1_555
H13 C12 1_555 1_555
H14 C13 1_555 1_555
H15 C14 1_555 1_555
H16 C15 1_555 1_555
H17 C2 1_555 1_555
C11 C12 1_555 1_555
C14 C15 1_555 1_555

#END
