
#######################################################################
#
#                 Cambridge Crystallographic Data Centre
#                                CCDC 
#
#######################################################################
#
# If this CIF has been generated from an entry in the Cambridge 
# Structural Database, then it will include bibliographic, chemical, 
# crystal, experimental, refinement or atomic coordinate data resulting 
# from the CCDC's data processing and validation procedures.
#
#######################################################################

data_RUPYEG
_chemical_formula_moiety         'C16 H15 Cl4 F4 N1 S1'
_chemical_name_systematic        
(3aR*,4R*,7aS*)-3,3-Dichloro-2,2-difluoro-4-(2,2-dichloro-1,1-difluoro-2-(2-pyridylthio)ethyl)perhydroindene
_symmetry_cell_setting           monoclinic
_symmetry_space_group_name_H-M   'P 21/n'
_symmetry_Int_Tables_number      14
_space_group_name_Hall           '-P 2yn'
loop_
_symmetry_equiv_pos_site_id
_symmetry_equiv_pos_as_xyz
1 x,y,z
2 1/2-x,1/2+y,1/2-z
3 -x,-y,-z
4 1/2+x,1/2-y,1/2+z
_cell_length_a                   9.053(2)
_cell_length_b                   11.292(1)
_cell_length_c                   18.624(2)
_cell_angle_alpha                90
_cell_angle_beta                 90.337(1)
_cell_angle_gamma                90
_cell_volume                     1903.83
_exptl_crystal_colour            colorless
_exptl_crystal_description       plate
_chemical_melting_point          70-78deg.C
_cell_formula_units_Z            4
loop_
_atom_site_label
_atom_site_type_symbol
_atom_site_fract_x
_atom_site_fract_y
_atom_site_fract_z
S1 S 0.91891(6) 0.14487(5) 0.40301(3)
Cl1 Cl 0.86016(6) 0.22267(6) 0.55337(3)
Cl2 Cl 1.03755(6) 0.35834(5) 0.45681(3)
C1 C 0.8774(2) 0.2686(2) 0.4616(1)
Cl3 Cl 0.52549(7) 0.39568(6) 0.21151(3)
Cl4 Cl 0.36176(7) 0.26727(6) 0.31762(4)
F1 F 0.6192(1) 0.2787(1) 0.46640(6)
F2 F 0.7386(1) 0.4434(1) 0.48001(6)
F3 F 0.2471(2) 0.5096(1) 0.2438(1)
C2 C 0.5609(2) 0.4406(2) 0.3570(1)
F4 F 0.2505(2) 0.4945(1) 0.3596(1)
N1 N 0.6529(2) 0.0623(2) 0.3692(1)
C3 C 0.7649(2) 0.0476(2) 0.4146(1)
C4 C 0.5747(2) 0.5785(2) 0.3486(1)
C5 C 0.7370(2) 0.3416(2) 0.4406(1)
C6 C 0.7051(2) 0.3671(2) 0.3612(1)
C7 C 0.8331(2) 0.4240(2) 0.3191(1)
C8 C 0.4482(2) 0.4044(2) 0.2995(1)
C9 C 0.6562(3) -0.1201(2) 0.4690(2)
C10 C 0.3400(2) 0.5084(2) 0.3009(1)
C11 C 0.7724(3) -0.0425(2) 0.4648(1)
C12 C 0.5413(3) -0.0146(2) 0.3745(1)
C13 C 0.7130(3) 0.6211(2) 0.3093(1)
C14 C 0.5382(3) -0.1064(2) 0.4232(1)
C15 C 0.4318(3) 0.6173(2) 0.3088(2)
C16 C 0.8518(3) 0.5556(2) 0.3330(1)
H1 H 0.503(2) 0.421(2) 0.400(1)
H2 H 0.575(2) 0.610(2) 0.398(1)
H3 H 0.688(2) 0.285(2) 0.342(1)
H4 H 0.932(2) 0.375(2) 0.327(1)
H5 H 0.811(2) 0.414(2) 0.269(1)
H6 H 0.663(3) -0.190(3) 0.506(2)
H7 H 0.857(3) -0.051(2) 0.497(1)
H8 H 0.466(3) -0.002(2) 0.337(1)
H9 H 0.699(2) 0.608(2) 0.257(1)
H10 H 0.725(3) 0.708(2) 0.317(1)
H11 H 0.452(3) -0.156(2) 0.425(1)
H12 H 0.370(3) 0.670(3) 0.333(2)
H13 H 0.453(3) 0.647(2) 0.257(1)
H14 H 0.879(3) 0.565(2) 0.381(1)
H15 H 0.941(2) 0.589(2) 0.306(1)
loop_
_geom_bond_atom_site_label_1
_geom_bond_atom_site_label_2
_geom_bond_site_symmetry_1
_geom_bond_site_symmetry_2
S1 C1 1_555 1_555
Cl1 C1 1_555 1_555
Cl2 C1 1_555 1_555
C1 C5 1_555 1_555
Cl3 C8 1_555 1_555
Cl4 C8 1_555 1_555
F1 C5 1_555 1_555
F2 C5 1_555 1_555
F3 C10 1_555 1_555
C2 C4 1_555 1_555
F4 C10 1_555 1_555
N1 C3 1_555 1_555
C3 S1 1_555 1_555
C4 C13 1_555 1_555
C5 C6 1_555 1_555
C6 C2 1_555 1_555
C7 C6 1_555 1_555
C8 C2 1_555 1_555
C9 C11 1_555 1_555
C10 C8 1_555 1_555
C11 C3 1_555 1_555
C12 N1 1_555 1_555
C13 C16 1_555 1_555
C14 C9 1_555 1_555
C15 C4 1_555 1_555
C16 C7 1_555 1_555
H1 C2 1_555 1_555
H2 C4 1_555 1_555
H3 C6 1_555 1_555
H4 C7 1_555 1_555
H5 C7 1_555 1_555
H6 C9 1_555 1_555
H7 C11 1_555 1_555
H8 C12 1_555 1_555
H9 C13 1_555 1_555
H10 C13 1_555 1_555
H11 C14 1_555 1_555
H12 C15 1_555 1_555
H13 C15 1_555 1_555
H14 C16 1_555 1_555
H15 C16 1_555 1_555
C10 C15 1_555 1_555
C12 C14 1_555 1_555

#END
