
#######################################################################
#
#                 Cambridge Crystallographic Data Centre
#                                CCDC 
#
#######################################################################
#
# If this CIF has been generated from an entry in the Cambridge 
# Structural Database, then it will include bibliographic, chemical, 
# crystal, experimental, refinement or atomic coordinate data resulting 
# from the CCDC's data processing and validation procedures.
#
#######################################################################

data_RUPZAF
_chemical_formula_moiety         'C14 H10 O4'
_chemical_name_systematic        2-acetyl-3-methyl-4H-furo[3,2-c]chromen-4-one
_symmetry_cell_setting           monoclinic
_symmetry_space_group_name_H-M   'P 21/c'
_symmetry_Int_Tables_number      14
_space_group_name_Hall           '-P 2ybc'
loop_
_symmetry_equiv_pos_site_id
_symmetry_equiv_pos_as_xyz
1 x,y,z
2 -x,1/2+y,1/2-z
3 -x,-y,-z
4 x,1/2-y,1/2+z
_cell_length_a                   8.3742(12)
_cell_length_b                   15.499(2)
_cell_length_c                   8.9598(11)
_cell_angle_alpha                90
_cell_angle_beta                 108.101(4)
_cell_angle_gamma                90
_cell_volume                     1105.36
_exptl_crystal_colour            colorless
_exptl_crystal_description       Block
_cell_formula_units_Z            4
loop_
_atom_site_label
_atom_site_type_symbol
_atom_site_fract_x
_atom_site_fract_y
_atom_site_fract_z
C1 C 0.30416(18) 0.21706(9) 0.88142(17)
C2 C 0.1806(2) 0.20845(11) 0.95202(19)
H1 H 0.1320 0.2568 0.9818
C3 C 0.1306(2) 0.12665(12) 0.9774(2)
H2 H 0.0479 0.1199 1.0258
C4 C 0.2012(2) 0.05388(11) 0.9323(2)
H3 H 0.1655 -0.0008 0.9506
C5 C 0.32328(19) 0.06245(10) 0.86104(19)
H4 H 0.3701 0.0138 0.8303
C6 C 0.37696(18) 0.14479(9) 0.83491(17)
C7 C 0.50709(18) 0.16465(9) 0.76904(16)
C8 C 0.56146(18) 0.24610(9) 0.75450(16)
C9 C 0.4826(2) 0.31955(9) 0.80057(18)
C10 C 0.69737(18) 0.23871(10) 0.69065(17)
C11 C 0.7999(2) 0.31029(11) 0.6570(2)
H5 H 0.8807 0.3290 0.7531
H6 H 0.7277 0.3576 0.6101
H7 H 0.8573 0.2903 0.5860
C12 C 0.71382(18) 0.15243(10) 0.66997(17)
C13 C 0.82365(19) 0.10157(11) 0.60317(18)
C14 C 0.8021(2) 0.00635(12) 0.5954(2)
H8 H 0.8846 -0.0190 0.5547
H9 H 0.6916 -0.0076 0.5277
H10 H 0.8161 -0.0158 0.6987
O1 O 0.35417(14) 0.30021(7) 0.86184(13)
O2 O 0.51572(17) 0.39428(7) 0.79191(16)
O3 O 0.59628(13) 0.10589(6) 0.71891(12)
O4 O 0.92511(17) 0.13888(9) 0.55477(16)
loop_
_geom_bond_atom_site_label_1
_geom_bond_atom_site_label_2
_geom_bond_site_symmetry_1
_geom_bond_site_symmetry_2
C1 C2 1_555 1_555
C2 H1 1_555 1_555
C3 C2 1_555 1_555
H2 C3 1_555 1_555
C4 C3 1_555 1_555
H3 C4 1_555 1_555
C5 C4 1_555 1_555
H4 C5 1_555 1_555
C6 C1 1_555 1_555
C7 C6 1_555 1_555
C8 C7 1_555 1_555
C9 C8 1_555 1_555
C10 C8 1_555 1_555
C11 C10 1_555 1_555
H5 C11 1_555 1_555
H6 C11 1_555 1_555
H7 C11 1_555 1_555
C12 C10 1_555 1_555
C13 C12 1_555 1_555
C14 C13 1_555 1_555
H8 C14 1_555 1_555
H9 C14 1_555 1_555
H10 C14 1_555 1_555
O1 C1 1_555 1_555
O2 C9 1_555 1_555
O3 C7 1_555 1_555
O4 C13 1_555 1_555
C5 C6 1_555 1_555
C9 O1 1_555 1_555
C12 O3 1_555 1_555

#END
