
#######################################################################
#
#                 Cambridge Crystallographic Data Centre
#                                CCDC 
#
#######################################################################
#
# If this CIF has been generated from an entry in the Cambridge 
# Structural Database, then it will include bibliographic, chemical, 
# crystal, experimental, refinement or atomic coordinate data resulting 
# from the CCDC's data processing and validation procedures.
#
#######################################################################

data_RUQBEL
_chemical_compound_source        'Triosteum himalayanum Wall (Caprifoliaceae)'
_chemical_name_common            'triohimas A'
_chemical_formula_moiety         'C11 H12 O5'
_chemical_name_systematic        
'Methyl 6-ethylidene-7-oxo-2,8-dioxabicyclo[3.3.1]non-3-ene-4-carboxylate'
_chemical_properties_biological  'In vitro cytotoxicity'
_symmetry_cell_setting           orthorhombic
_symmetry_space_group_name_H-M   'P 21 21 21'
_symmetry_Int_Tables_number      19
_space_group_name_Hall           'P 2ac 2ab'
loop_
_symmetry_equiv_pos_site_id
_symmetry_equiv_pos_as_xyz
1 x,y,z
2 1/2-x,-y,1/2+z
3 1/2+x,1/2-y,-z
4 -x,1/2+y,1/2-z
_cell_length_a                   6.1398(13)
_cell_length_b                   7.2275(16)
_cell_length_c                   23.635(5)
_cell_angle_alpha                90
_cell_angle_beta                 90
_cell_angle_gamma                90
_cell_volume                     1048.81
_chemical_melting_point          '143-145 deg.C'
_cell_formula_units_Z            4
loop_
_atom_site_label
_atom_site_type_symbol
_atom_site_fract_x
_atom_site_fract_y
_atom_site_fract_z
C1 C -0.1761(6) 0.9804(5) -0.01548(12)
H1 H -0.1568 1.1063 -0.0274
H2 H -0.3285 0.9506 -0.0154
H3 H -0.1010 0.8995 -0.0411
C2 C 0.1270(5) 0.9864(4) 0.04705(11)
C3 C 0.1976(4) 0.9584(3) 0.10539(10)
C4 C 0.4055(4) 0.9974(4) 0.11748(11)
H4 H 0.4914 1.0444 0.0884
C5 C 0.3707(5) 0.8848(4) 0.21040(11)
H5 H 0.4300 0.9151 0.2478
C6 C 0.2360(4) 0.5847(4) 0.17498(11)
C7 C 0.0427(4) 0.6774(3) 0.15123(9)
C8 C 0.0488(4) 0.8867(3) 0.15115(10)
H6 H -0.0984 0.9360 0.1458
C9 C 0.1397(4) 0.9506(4) 0.20785(11)
H7 H 0.1339 1.0844 0.2106
H8 H 0.0559 0.8981 0.2387
C10 C -0.1271(4) 0.5827(4) 0.13131(10)
H9 H -0.2411 0.6554 0.1180
C11 C -0.1637(6) 0.3807(4) 0.12688(12)
H10 H -0.2004 0.3496 0.0886
H11 H -0.2810 0.3454 0.1515
H12 H -0.0336 0.3162 0.1377
O1 O -0.0886(3) 0.9572(3) 0.04098(7)
O2 O 0.2397(4) 1.0315(4) 0.00804(8)
O3 O 0.5006(3) 0.9737(2) 0.16862(8)
O4 O 0.3887(3) 0.6894(2) 0.20198(8)
O5 O 0.2729(4) 0.4220(3) 0.17375(9)
loop_
_geom_bond_atom_site_label_1
_geom_bond_atom_site_label_2
_geom_bond_site_symmetry_1
_geom_bond_site_symmetry_2
C1 H1 1_555 1_555
H2 C1 1_555 1_555
H3 C1 1_555 1_555
C2 C3 1_555 1_555
C3 C4 1_555 1_555
C4 H4 1_555 1_555
C5 H5 1_555 1_555
C6 C7 1_555 1_555
C7 C8 1_555 1_555
C8 C3 1_555 1_555
H6 C8 1_555 1_555
C9 C5 1_555 1_555
H7 C9 1_555 1_555
H8 C9 1_555 1_555
C10 C7 1_555 1_555
H9 C10 1_555 1_555
C11 C10 1_555 1_555
H10 C11 1_555 1_555
H11 C11 1_555 1_555
H12 C11 1_555 1_555
O1 C1 1_555 1_555
O2 C2 1_555 1_555
O3 C4 1_555 1_555
O4 C5 1_555 1_555
O5 C6 1_555 1_555
C2 O1 1_555 1_555
C5 O3 1_555 1_555
C6 O4 1_555 1_555
C8 C9 1_555 1_555

#END
