
#######################################################################
#
#                 Cambridge Crystallographic Data Centre
#                                CCDC 
#
#######################################################################
#
# If this CIF has been generated from an entry in the Cambridge 
# Structural Database, then it will include bibliographic, chemical, 
# crystal, experimental, refinement or atomic coordinate data resulting 
# from the CCDC's data processing and validation procedures.
#
#######################################################################

data_RUQFUE
_chemical_formula_moiety         'C19 H14 O4'
_chemical_name_systematic        
'7-Methoxycarbonylbenzo(a)heptalene-6-carboxylic acid'
_symmetry_cell_setting           triclinic
_symmetry_space_group_name_H-M   'P -1'
_symmetry_Int_Tables_number      2
_space_group_name_Hall           '-P 1'
loop_
_symmetry_equiv_pos_site_id
_symmetry_equiv_pos_as_xyz
1 x,y,z
2 -x,-y,-z
_cell_length_a                   9.115(3)
_cell_length_b                   11.606(7)
_cell_length_c                   8.448(3)
_cell_angle_alpha                102.10(4)
_cell_angle_beta                 115.88(2)
_cell_angle_gamma                96.92(4)
_cell_volume                     763.044
_exptl_crystal_colour            orange
_chemical_melting_point          429-430K
_cell_formula_units_Z            2
loop_
_atom_site_label
_atom_site_type_symbol
_atom_site_fract_x
_atom_site_fract_y
_atom_site_fract_z
O1 O 0.6799(2) 0.4683(2) 0.0379(2)
O2 O 0.5106(2) 0.4005(2) 0.1436(2)
O3 O 0.4938(2) 0.1447(2) -0.0402(2)
O4 O 0.4223(2) 0.1310(2) 0.1790(2)
C1 C 1.2402(3) 0.2512(2) 0.6167(3)
C2 C 1.3761(3) 0.2795(3) 0.5869(4)
C3 C 1.3660(3) 0.3437(3) 0.4625(4)
C4 C 1.2208(3) 0.3786(2) 0.3695(3)
C5 C 1.0797(3) 0.3485(2) 0.3940(3)
C6 C 0.9309(3) 0.3893(2) 0.2896(3)
C7 C 0.7694(3) 0.3428(2) 0.2370(3)
C8 C 0.7002(3) 0.2359(2) 0.2729(3)
C9 C 0.7831(3) 0.1979(2) 0.4228(3)
C10 C 0.7172(3) 0.0826(2) 0.4431(3)
C11 C 0.7083(3) 0.0714(3) 0.5945(4)
C12 C 0.7597(3) 0.1669(3) 0.7608(4)
C13 C 0.8837(4) 0.2672(3) 0.8285(3)
C14 C 0.9923(3) 0.2950(2) 0.7522(3)
C15 C 0.9549(3) 0.2623(2) 0.5724(3)
C16 C 1.0914(3) 0.2856(2) 0.5236(3)
C17 C 0.6483(3) 0.4086(2) 0.1292(3)
C18 C 0.5305(3) 0.1650(2) 0.1209(3)
C19 C 0.2492(4) 0.0743(3) 0.0338(4)
H1 H 1.246(3) 0.210(2) 0.705(3)
H2 H 1.474(3) 0.260(2) 0.654(4)
H3 H 1.466(3) 0.366(2) 0.452(4)
H4 H 1.208(3) 0.426(2) 0.284(3)
H5 H 0.952(3) 0.459(2) 0.248(3)
H6 H 0.670(3) 0.009(2) 0.332(3)
H7 H 0.660(3) -0.008(2) 0.591(3)
H8 H 0.705(3) 0.160(3) 0.836(4)
H9 H 0.913(3) 0.325(2) 0.945(4)
H10 H 1.106(3) 0.343(2) 0.839(3)
H11 H 0.446(4) 0.446(3) 0.080(4)
H12 H 0.179 0.064 0.088
H13 H 0.213 0.123 -0.045
H14 H 0.247 -0.004 -0.035
loop_
_geom_bond_atom_site_label_1
_geom_bond_atom_site_label_2
_geom_bond_site_symmetry_1
_geom_bond_site_symmetry_2
O1 C17 1_555 1_555
O2 C17 1_555 1_555
O3 C18 1_555 1_555
O4 C18 1_555 1_555
C1 C2 1_555 1_555
C2 C3 1_555 1_555
C3 C4 1_555 1_555
C4 C5 1_555 1_555
C5 C6 1_555 1_555
C6 C7 1_555 1_555
C7 C8 1_555 1_555
C8 C9 1_555 1_555
C9 C10 1_555 1_555
C10 C11 1_555 1_555
C11 C12 1_555 1_555
C12 C13 1_555 1_555
C13 C14 1_555 1_555
C14 C15 1_555 1_555
C15 C9 1_555 1_555
C16 C1 1_555 1_555
C17 C7 1_555 1_555
C18 C8 1_555 1_555
C19 O4 1_555 1_555
H1 C1 1_555 1_555
H2 C2 1_555 1_555
H3 C3 1_555 1_555
H4 C4 1_555 1_555
H5 C6 1_555 1_555
H6 C10 1_555 1_555
H7 C11 1_555 1_555
H8 C12 1_555 1_555
H9 C13 1_555 1_555
H10 C14 1_555 1_555
H11 O2 1_555 1_555
H12 C19 1_555 1_555
H13 C19 1_555 1_555
H14 C19 1_555 1_555
C5 C16 1_555 1_555
C15 C16 1_555 1_555

#END
