
#######################################################################
#
#                 Cambridge Crystallographic Data Centre
#                                CCDC 
#
#######################################################################
#
# If this CIF has been generated from an entry in the Cambridge 
# Structural Database, then it will include bibliographic, chemical, 
# crystal, experimental, refinement or atomic coordinate data resulting 
# from the CCDC's data processing and validation procedures.
#
#######################################################################

data_RUQFIS
_chemical_formula_moiety         '0.5(C16 H18 O1),0.5(C16 H18 O1)'
_chemical_name_systematic        
'5,6,7,10,11,12-Hexahydro-7-hydroxybenzo(a)heptalene 5,6,7,8,9,10-hexahydro-7-hydroxybenzo(a)heptalene'
_symmetry_cell_setting           orthorhombic
_symmetry_space_group_name_H-M   'P 21 21 21'
_symmetry_Int_Tables_number      19
_space_group_name_Hall           'P 2ac 2ab'
loop_
_symmetry_equiv_pos_site_id
_symmetry_equiv_pos_as_xyz
1 x,y,z
2 1/2-x,-y,1/2+z
3 1/2+x,1/2-y,-z
4 -x,1/2+y,1/2-z
_cell_length_a                   7.789(2)
_cell_length_b                   29.326(8)
_cell_length_c                   5.313(2)
_cell_angle_alpha                90
_cell_angle_beta                 90
_cell_angle_gamma                90
_cell_volume                     1213.6
_exptl_crystal_colour            ivory
_chemical_melting_point          375K
_cell_formula_units_Z            4
loop_
_atom_site_label
_atom_site_type_symbol
_atom_site_fract_x
_atom_site_fract_y
_atom_site_fract_z
O1 O 0.2941(2) 0.02047(4) 0.8584(2)
C1 C 0.2772(2) 0.06905(5) 0.8936(3)
C2 C 0.3747(2) 0.08027(5) 1.1344(4)
C3 C 0.3319(2) 0.12820(5) 1.2340(3)
C4 C 0.3241(2) 0.16439(4) 1.0319(3)
C5 C 0.4481(2) 0.19872(5) 1.0203(3)
C6 C 0.4391(2) 0.23290(5) 0.8390(4)
C7 C 0.3048(3) 0.23367(5) 0.6704(3)
C8 C 0.1785(3) 0.20034(5) 0.6822(3)
C9 C 0.1875(2) 0.16491(4) 0.8590(3)
C10 C 0.0514(2) 0.12928(5) 0.8664(3)
C11 C -0.1323(2) 0.14486(6) 0.8561(4)
C13 C -0.232(2) 0.1267(5) 0.630(3)
C14 C -0.2087(3) 0.08164(8) 0.5565(5)
C16 C -0.181(1) 0.0469(3) 0.782(1)
C17 C -0.0472(2) 0.04955(6) 0.9182(4)
C18 C 0.0901(2) 0.08453(5) 0.8930(3)
H1 H 0.256(3) 0.0139(7) 0.707(5)
H2 H 0.545(3) 0.1982(6) 1.141(4)
H3 H 0.530(2) 0.2561(5) 0.841(3)
H4 H 0.298(2) 0.2569(6) 0.553(3)
H5 H 0.090(2) 0.2000(6) 0.572(3)
H6 H 0.334(2) 0.0850(5) 0.759(3)
H7 H -0.015(2) 0.0246(6) 1.017(4)
H8 H 0.498(2) 0.0768(5) 1.095(3)
H9 H 0.342(2) 0.0576(5) 1.259(3)
H10 H 0.411(2) 0.1359(5) 1.368(3)
H11 H 0.218(2) 0.1289(5) 1.321(3)
H12 H -0.149(2) 0.1757(6) 0.900(3)
H13 H -0.193(4) 0.131(1) 1.025(6)
H14 H -0.354(3) 0.1364(7) 0.678(5)
H15 H -0.230(4) 0.152(1) 0.488(7)
H16 H -0.305(2) 0.0723(6) 0.438(4)
H17 H -0.099(5) 0.084(1) 0.435(8)
H18 H -0.263(3) 0.0252(6) 0.784(4)
C12? C -0.242(1) 0.1299(4) 0.675(3)
C15? C -0.167(2) 0.0444(5) 0.700(2)
H19? H -0.079(9) 0.015(2) 0.59(1)
loop_
_geom_bond_atom_site_label_1
_geom_bond_atom_site_label_2
_geom_bond_site_symmetry_1
_geom_bond_site_symmetry_2
O1 C1 1_555 1_555
C1 C2 1_555 1_555
C2 C3 1_555 1_555
C3 C4 1_555 1_555
C4 C5 1_555 1_555
C5 C6 1_555 1_555
C6 C7 1_555 1_555
C7 C8 1_555 1_555
C8 C9 1_555 1_555
C9 C4 1_555 1_555
C10 C9 1_555 1_555
C11 C10 1_555 1_555
C13 C11 1_555 1_555
C14 C13 1_555 1_555
C16 C14 1_555 1_555
C17 C16 1_555 1_555
C18 C1 1_555 1_555
H1 O1 1_555 1_555
H2 C5 1_555 1_555
H3 C6 1_555 1_555
H4 C7 1_555 1_555
H5 C8 1_555 1_555
H6 C1 1_555 1_555
H7 C17 1_555 1_555
H8 C2 1_555 1_555
H9 C2 1_555 1_555
H10 C3 1_555 1_555
H11 C3 1_555 1_555
H12 C11 1_555 1_555
H13 C11 1_555 1_555
H14 C13 1_555 1_555
H15 C13 1_555 1_555
H16 C14 1_555 1_555
H17 C14 1_555 1_555
H18 C16 1_555 1_555
C10 C18 1_555 1_555
C17 C18 1_555 1_555

#END
