
#######################################################################
#
#                 Cambridge Crystallographic Data Centre
#                                CCDC 
#
#######################################################################
#
# If this CIF has been generated from an entry in the Cambridge 
# Structural Database, then it will include bibliographic, chemical, 
# crystal, experimental, refinement or atomic coordinate data resulting 
# from the CCDC's data processing and validation procedures.
#
#######################################################################

data_RURBIQ
_chemical_formula_moiety         'C14 H13 F3 N2 O2'
_chemical_name_systematic        
6-Benzyl-3-methylene-1-(2,2,2-trifluoroethyl)-2,5-piperazinedione
_symmetry_cell_setting           orthorhombic
_symmetry_space_group_name_H-M   'P 21 21 21'
_symmetry_Int_Tables_number      19
_space_group_name_Hall           'P 2ac 2ab'
loop_
_symmetry_equiv_pos_site_id
_symmetry_equiv_pos_as_xyz
1 x,y,z
2 1/2-x,-y,1/2+z
3 -x,1/2+y,1/2-z
4 1/2+x,1/2-y,-z
_cell_length_a                   8.0516(16)
_cell_length_b                   14.837(3)
_cell_length_c                   23.102(5)
_cell_angle_alpha                90
_cell_angle_beta                 90
_cell_angle_gamma                90
_cell_volume                     2759.8
_exptl_crystal_colour            colorless
_exptl_crystal_description       rod
_cell_formula_units_Z            8
loop_
_atom_site_label
_atom_site_type_symbol
_atom_site_fract_x
_atom_site_fract_y
_atom_site_fract_z
O1 O 0.2660(2) 0.51907(13) -0.12748(8)
O2 O 0.3939(3) 0.57337(13) 0.09719(8)
N1 N 0.4361(3) 0.50047(13) -0.05050(9)
H1 H 0.5156 0.4783 -0.0739
N2 N 0.2295(3) 0.59893(12) 0.01892(9)
F1 F 0.1783(3) 0.77996(10) -0.01696(8)
F2 F 0.0862(3) 0.81693(10) 0.06725(10)
F3 F 0.3380(2) 0.77536(11) 0.05604(9)
C1 C 0.2947(3) 0.52769(16) -0.07512(11)
C2 C 0.1621(3) 0.56634(16) -0.03623(11)
H2 H 0.1137 0.6170 -0.0559
C3 C 0.3611(3) 0.55998(16) 0.04636(11)
C4 C 0.4706(3) 0.50367(15) 0.00915(11)
C5 C 0.0228(3) 0.49529(17) -0.02705(13)
H3 H -0.0627 0.5210 -0.0033
H4 H -0.0256 0.4806 -0.0638
C6 C 0.0854(4) 0.40999(16) 0.00109(11)
C7 C 0.1684(4) 0.34468(17) -0.03131(13)
H5 H 0.1766 0.3513 -0.0726
C8 C 0.2389(5) 0.27065(17) -0.00472(16)
H6 H 0.2978 0.2270 -0.0275
C9 C 0.2254(5) 0.25898(19) 0.05441(16)
H7 H 0.2741 0.2073 0.0727
C10 C 0.1418(5) 0.32191(19) 0.08681(14)
H8 H 0.1307 0.3138 0.1279
C11 C 0.0729(4) 0.39768(17) 0.06031(13)
H9 H 0.0161 0.4418 0.0834
C12 C 0.1298(3) 0.66339(15) 0.05133(12)
H10 H 0.1406 0.6514 0.0920
H11 H 0.0151 0.6563 0.0410
C13 C 0.1832(4) 0.75850(17) 0.03918(12)
C14 C 0.6025(4) 0.46218(17) 0.03069(13)
H12 H 0.6758 0.4295 0.0055
H13 H 0.6249 0.4648 0.0715
O3 O 0.1843(3) 0.06190(13) 0.12911(8)
O4 O 0.0807(3) 0.06771(13) 0.35756(8)
F4 F 0.4128(3) 0.29825(11) 0.35329(8)
F5 F 0.1552(2) 0.26500(11) 0.34352(10)
F6 F 0.3032(3) 0.28977(11) 0.26864(9)
N3 N 0.0177(3) 0.03023(14) 0.20522(10)
H14 H -0.0660 0.0169 0.1809
N4 N 0.2424(3) 0.10435(13) 0.28097(9)
C15 C 0.1615(4) 0.05813(16) 0.18191(12)
C16 C 0.2996(3) 0.08247(17) 0.22221(11)
H15 H 0.3523 0.1354 0.2069
C17 C 0.1077(3) 0.06449(17) 0.30555(11)
C18 C -0.0116(3) 0.02033(16) 0.26467(11)
C19 C 0.4319(4) 0.00631(18) 0.22321(13)
H16 H 0.4677 -0.0053 0.1843
H17 H 0.5266 0.0268 0.2447
C20 C 0.3706(4) -0.08070(19) 0.24949(12)
C21 C 0.4058(4) -0.10094(19) 0.30648(13)
H18 H 0.4691 -0.0593 0.3294
C22 C 0.3507(6) -0.1811(2) 0.33116(16)
H19 H 0.3769 -0.1948 0.3707
C23 C 0.2589(6) -0.2405(2) 0.29882(19)
H20 H 0.2196 -0.2954 0.3161
C24 C 0.2229(5) -0.2220(2) 0.24217(19)
H21 H 0.1594 -0.2641 0.2196
C25 C 0.2784(4) -0.14252(19) 0.21743(15)
H22 H 0.2529 -0.1298 0.1777
C26 C 0.3539(4) 0.15438(17) 0.31834(12)
H23 H 0.4653 0.1496 0.3039
H24 H 0.3515 0.1289 0.3565
C27 C 0.3052(4) 0.25098(19) 0.32122(13)
C28 C -0.1449(4) -0.02256(18) 0.28461(13)
H25 H -0.2240 -0.0477 0.2581
H26 H -0.1620 -0.0284 0.3256
loop_
_geom_bond_atom_site_label_1
_geom_bond_atom_site_label_2
_geom_bond_site_symmetry_1
_geom_bond_site_symmetry_2
O1 C1 1_555 1_555
O2 C3 1_555 1_555
N1 H1 1_555 1_555
N2 C2 1_555 1_555
F1 C13 1_555 1_555
F2 C13 1_555 1_555
F3 C13 1_555 1_555
C1 N1 1_555 1_555
C2 C1 1_555 1_555
H2 C2 1_555 1_555
C3 N2 1_555 1_555
C4 N1 1_555 1_555
C5 C2 1_555 1_555
H3 C5 1_555 1_555
H4 C5 1_555 1_555
C6 C5 1_555 1_555
C7 C6 1_555 1_555
H5 C7 1_555 1_555
C8 C7 1_555 1_555
H6 C8 1_555 1_555
C9 C8 1_555 1_555
H7 C9 1_555 1_555
C10 C9 1_555 1_555
H8 C10 1_555 1_555
C11 C6 1_555 1_555
H9 C11 1_555 1_555
C12 N2 1_555 1_555
H10 C12 1_555 1_555
H11 C12 1_555 1_555
C13 C12 1_555 1_555
C14 C4 1_555 1_555
H12 C14 1_555 1_555
H13 C14 1_555 1_555
O3 C15 1_555 1_555
O4 C17 1_555 1_555
F4 C27 1_555 1_555
F5 C27 1_555 1_555
F6 C27 1_555 1_555
N3 H14 1_555 1_555
N4 C16 1_555 1_555
C15 N3 1_555 1_555
C16 C15 1_555 1_555
H15 C16 1_555 1_555
C17 N4 1_555 1_555
C18 N3 1_555 1_555
C19 C16 1_555 1_555
H16 C19 1_555 1_555
H17 C19 1_555 1_555
C20 C19 1_555 1_555
C21 C20 1_555 1_555
H18 C21 1_555 1_555
C22 C21 1_555 1_555
H19 C22 1_555 1_555
C23 C22 1_555 1_555
H20 C23 1_555 1_555
C24 C23 1_555 1_555
H21 C24 1_555 1_555
C25 C20 1_555 1_555
H22 C25 1_555 1_555
C26 N4 1_555 1_555
H23 C26 1_555 1_555
H24 C26 1_555 1_555
C27 C26 1_555 1_555
C28 C18 1_555 1_555
H25 C28 1_555 1_555
H26 C28 1_555 1_555
C3 C4 1_555 1_555
C10 C11 1_555 1_555
C17 C18 1_555 1_555
C24 C25 1_555 1_555

#END
