
#######################################################################
#
#                 Cambridge Crystallographic Data Centre
#                                CCDC 
#
#######################################################################
#
# If this CIF has been generated from an entry in the Cambridge 
# Structural Database, then it will include bibliographic, chemical, 
# crystal, experimental, refinement or atomic coordinate data resulting 
# from the CCDC's data processing and validation procedures.
#
#######################################################################

data_RURCUD
_chemical_formula_moiety         'C13 H15 N1 O4'
_chemical_name_systematic        
(1S*,2S*,5R*,7R*,8R*)-7-Acetyl-4,4-dimethoxy-3-oxotricyclo[3.3.0.0^2,8^]octane-1-carbonitrile
_symmetry_cell_setting           monoclinic
_symmetry_space_group_name_H-M   'P 21/n'
_symmetry_Int_Tables_number      14
_space_group_name_Hall           '-P 2yn'
loop_
_symmetry_equiv_pos_site_id
_symmetry_equiv_pos_as_xyz
1 x,y,z
2 1/2-x,1/2+y,1/2-z
3 -x,-y,-z
4 1/2+x,1/2-y,1/2+z
_cell_length_a                   6.7945(4)
_cell_length_b                   17.2995(11)
_cell_length_c                   10.9287(7)
_cell_angle_alpha                90
_cell_angle_beta                 99.613(1)
_cell_angle_gamma                90
_cell_volume                     1266.54
_exptl_crystal_colour            colorless
_exptl_crystal_description       columnar
_cell_formula_units_Z            4
loop_
_atom_site_label
_atom_site_type_symbol
_atom_site_fract_x
_atom_site_fract_y
_atom_site_fract_z
O1 O 1.2505(3) 0.08751(11) 0.42610(17)
O2 O 0.8882(3) 0.17264(10) 0.25832(15)
O3 O 0.8545(2) 0.04900(10) 0.33901(16)
O4 O 0.8698(3) 0.19889(12) 0.84236(18)
N1 N 0.8385(5) 0.37812(15) 0.4595(3)
C1 C 1.1294(3) 0.20257(14) 0.5122(2)
H1 H 1.2385 0.2389 0.5075
C2 C 1.1169(3) 0.13115(14) 0.4360(2)
C3 C 0.9002(3) 0.12580(13) 0.3658(2)
C4 C 0.7774(3) 0.16899(13) 0.4493(2)
H2 H 0.6529 0.1894 0.4021
C5 C 0.7400(4) 0.12170(14) 0.5620(2)
H3 H 0.7195 0.0677 0.5398
H4 H 0.6229 0.1407 0.5924
C6 C 0.9294(3) 0.13161(13) 0.6625(2)
H5 H 1.0186 0.0873 0.6600
C7 C 1.0291(3) 0.20424(14) 0.6260(2)
H6 H 1.0769 0.2419 0.6913
C8 C 0.9192(3) 0.23417(13) 0.5044(2)
C9 C 0.8745(4) 0.31470(16) 0.4789(3)
C10 C 1.0234(5) 0.1535(2) 0.1748(3)
H7 H 1.0036 0.1886 0.1057
H8 H 0.9984 0.1016 0.1452
H9 H 1.1584 0.1576 0.2176
C11 C 0.6561(4) 0.0351(2) 0.2732(3)
H10 H 0.6375 -0.0194 0.2587
H11 H 0.6379 0.0618 0.1952
H12 H 0.5603 0.0534 0.3218
C12 C 0.8712(4) 0.13761(14) 0.7899(2)
C13 C 0.8166(5) 0.06379(18) 0.8467(3)
H13 H 0.7815 0.0742 0.9266
H14 H 0.9282 0.0290 0.8559
H15 H 0.7049 0.0407 0.7939
loop_
_geom_bond_atom_site_label_1
_geom_bond_atom_site_label_2
_geom_bond_site_symmetry_1
_geom_bond_site_symmetry_2
O1 C2 1_555 1_555
O2 C3 1_555 1_555
O3 C3 1_555 1_555
O4 C12 1_555 1_555
N1 C9 1_555 1_555
C1 H1 1_555 1_555
C2 C1 1_555 1_555
C3 C2 1_555 1_555
C4 C3 1_555 1_555
H2 C4 1_555 1_555
C5 C4 1_555 1_555
H3 C5 1_555 1_555
H4 C5 1_555 1_555
C6 C5 1_555 1_555
H5 C6 1_555 1_555
C7 C1 1_555 1_555
H6 C7 1_555 1_555
C8 C1 1_555 1_555
C9 C8 1_555 1_555
C10 O2 1_555 1_555
H7 C10 1_555 1_555
H8 C10 1_555 1_555
H9 C10 1_555 1_555
C11 O3 1_555 1_555
H10 C11 1_555 1_555
H11 C11 1_555 1_555
H12 C11 1_555 1_555
C12 C6 1_555 1_555
C13 C12 1_555 1_555
H13 C13 1_555 1_555
H14 C13 1_555 1_555
H15 C13 1_555 1_555
C4 C8 1_555 1_555
C6 C7 1_555 1_555
C7 C8 1_555 1_555

#END
