
#######################################################################
#
#                 Cambridge Crystallographic Data Centre
#                                CCDC 
#
#######################################################################
#
# If this CIF has been generated from an entry in the Cambridge 
# Structural Database, then it will include bibliographic, chemical, 
# crystal, experimental, refinement or atomic coordinate data resulting 
# from the CCDC's data processing and validation procedures.
#
#######################################################################

data_RURSII
_chemical_formula_moiety         'C23 H16 N2 O7'
_chemical_name_systematic        
'2-Methylamino-4-(6-methyl-4-oxo-4H-chromen-3-yl)-3-nitro-4H,5H-pyrano[3,2-c]chromen-5-one unknown solvate'
_symmetry_cell_setting           triclinic
_symmetry_space_group_name_H-M   'P -1'
_symmetry_Int_Tables_number      2
_space_group_name_Hall           '-P 1'
loop_
_symmetry_equiv_pos_site_id
_symmetry_equiv_pos_as_xyz
1 x,y,z
2 -x,-y,-z
_cell_length_a                   8.0828(2)
_cell_length_b                   11.2035(3)
_cell_length_c                   13.4718(3)
_cell_angle_alpha                68.580(1)
_cell_angle_beta                 78.877(1)
_cell_angle_gamma                76.578(1)
_cell_volume                     1096.76
_exptl_crystal_colour            colorless
_exptl_crystal_description       Block
_cell_formula_units_Z            2
loop_
_atom_site_label
_atom_site_type_symbol
_atom_site_fract_x
_atom_site_fract_y
_atom_site_fract_z
C1 C 0.0694(2) 0.51857(18) 0.78511(14)
C2 C 0.2157(2) 0.32971(17) 0.91324(14)
C3 C 0.2648(2) 0.19541(18) 0.94755(16)
H1 H 0.2412 0.1466 0.9107
C4 C 0.3494(3) 0.13584(18) 1.03749(17)
H2 H 0.3821 0.0457 1.0618
C5 C 0.3865(2) 0.20740(19) 1.09226(16)
H3 H 0.4444 0.1653 1.1525
C6 C 0.3380(2) 0.34104(18) 1.05799(14)
H4 H 0.3627 0.3890 1.0952
C7 C 0.2513(2) 0.40433(16) 0.96706(13)
C8 C 0.1979(2) 0.54278(16) 0.92247(13)
C9 C 0.1178(2) 0.59925(16) 0.83416(13)
C10 C 0.0759(2) 0.74462(16) 0.78257(13)
H5 H -0.0427 0.7676 0.7661
C11 C 0.0886(2) 0.80769(16) 0.86107(13)
C12 C 0.1690(2) 0.74174(16) 0.95340(13)
C13 C 0.2594(3) 0.7133(2) 1.12655(16)
H6 H 0.2585 0.7702 1.1655
H7 H 0.3750 0.6725 1.1113
H8 H 0.1920 0.6478 1.1690
C14 C 0.1920(2) 0.79154(16) 0.67790(13)
C15 C 0.1217(2) 0.86432(18) 0.58849(14)
H9 H 0.0027 0.8843 0.5940
C16 C 0.3843(2) 0.87622(17) 0.47969(14)
C17 C 0.4691(3) 0.9150(2) 0.37663(15)
H10 H 0.4092 0.9665 0.3187
C18 C 0.6426(3) 0.8761(2) 0.36163(16)
H11 H 0.7000 0.9022 0.2925
C19 C 0.7366(3) 0.7983(2) 0.44682(16)
C20 C 0.9251(3) 0.7457(3) 0.4270(2)
H12 H 0.9637 0.7790 0.3517
H13 H 0.9430 0.6523 0.4503
H14 H 0.9884 0.7722 0.4663
C21 C 0.6498(2) 0.76466(19) 0.54935(15)
H15 H 0.7108 0.7160 0.6074
C22 C 0.4719(2) 0.80227(16) 0.56768(13)
C23 C 0.3775(2) 0.75983(16) 0.67571(13)
N1 N 0.0117(2) 0.93706(14) 0.83773(12)
N2 N 0.1876(2) 0.78827(16) 1.02652(12)
O1 O -0.01634(19) 0.55805(14) 0.71221(11)
O2 O 0.12479(17) 0.38573(12) 0.82583(10)
O3 O 0.23490(15) 0.61246(11) 0.97862(9)
O4 O 0.0280(2) 1.00121(13) 0.89445(11)
O5 O -0.07417(19) 0.98938(13) 0.76059(11)
O6 O 0.20862(17) 0.91158(14) 0.49046(10)
O7 O 0.44855(17) 0.70098(15) 0.75704(10)
H16 H 0.138(3) 0.8717(17) 1.012(2)
loop_
_geom_bond_atom_site_label_1
_geom_bond_atom_site_label_2
_geom_bond_site_symmetry_1
_geom_bond_site_symmetry_2
C1 C9 1_555 1_555
C2 C3 1_555 1_555
C3 H1 1_555 1_555
C4 C3 1_555 1_555
H2 C4 1_555 1_555
C5 C4 1_555 1_555
H3 C5 1_555 1_555
C6 C5 1_555 1_555
H4 C6 1_555 1_555
C7 C2 1_555 1_555
C8 C7 1_555 1_555
C9 C8 1_555 1_555
C10 C9 1_555 1_555
H5 C10 1_555 1_555
C11 C10 1_555 1_555
C12 C11 1_555 1_555
C13 H6 1_555 1_555
H7 C13 1_555 1_555
H8 C13 1_555 1_555
C14 C10 1_555 1_555
C15 C14 1_555 1_555
H9 C15 1_555 1_555
C16 C17 1_555 1_555
C17 H10 1_555 1_555
C18 C17 1_555 1_555
H11 C18 1_555 1_555
C19 C18 1_555 1_555
C20 C19 1_555 1_555
H12 C20 1_555 1_555
H13 C20 1_555 1_555
H14 C20 1_555 1_555
C21 C19 1_555 1_555
H15 C21 1_555 1_555
C22 C16 1_555 1_555
C23 C14 1_555 1_555
N1 C11 1_555 1_555
N2 C12 1_555 1_555
O1 C1 1_555 1_555
O2 C1 1_555 1_555
O3 C8 1_555 1_555
O4 N1 1_555 1_555
O5 N1 1_555 1_555
O6 C15 1_555 1_555
O7 C23 1_555 1_555
H16 N2 1_555 1_555
C2 O2 1_555 1_555
C6 C7 1_555 1_555
C12 O3 1_555 1_555
C13 N2 1_555 1_555
C16 O6 1_555 1_555
C21 C22 1_555 1_555
C22 C23 1_555 1_555

#END
