
#######################################################################
#
#                 Cambridge Crystallographic Data Centre
#                                CCDC 
#
#######################################################################
#
# If this CIF has been generated from an entry in the Cambridge 
# Structural Database, then it will include bibliographic, chemical, 
# crystal, experimental, refinement or atomic coordinate data resulting 
# from the CCDC's data processing and validation procedures.
#
#######################################################################

data_RURZUB
_chemical_formula_moiety         'C110 H56 Br2'
_chemical_name_systematic        
'1,28-bis(4-Bromophenyl)tetradecacyclo[26.26.26.2^2,5^.2^24,27^.2^29,32^.2^51,54^.2^55,58^.2^77,80^.1^8,12^.1^17,21^.1^35,39^.1^44,48^.1^61,65^.1^70,74^]octanonaconta-2,4,8(96),9,11,17(95),18,20,24,26,29,31,35(90),36,38,44(89),45,47,51,53,55,57,61(84),62,64,70(83),71,73,77,79,81,85,87,91,93,97-hexatriacontaene-6,13,15,22,33,40,42,49,59,66,68,75-dodecayne unknown solvate'
_symmetry_cell_setting           tetragonal
_symmetry_space_group_name_H-M   'I 41/a c d'
_symmetry_Int_Tables_number      142
_space_group_name_Hall           '-I 4bd 2c'
loop_
_symmetry_equiv_pos_site_id
_symmetry_equiv_pos_as_xyz
1 x,y,z
2 1/4-y,3/4+x,1/4+z
3 -x,1/2-y,z
4 1/4+y,1/4-x,3/4+z
5 x,-y,1/2-z
6 1/2-x,y,-z
7 3/4+y,1/4+x,1/4-z
8 1/4-y,1/4-x,1/4-z
9 1/2+x,1/2+y,1/2+z
10 3/4-y,1/4+x,3/4+z
11 1/2-x,-y,1/2+z
12 3/4+y,3/4-x,1/4+z
13 1/2+x,1/2-y,-z
14 -x,1/2+y,1/2-z
15 1/4+y,3/4+x,3/4-z
16 3/4-y,3/4-x,3/4-z
17 -x,-y,-z
18 3/4+y,1/4-x,3/4-z
19 x,1/2+y,-z
20 3/4-y,3/4+x,1/4-z
21 -x,y,1/2+z
22 1/2+x,-y,z
23 1/4-y,3/4-x,3/4+z
24 3/4+y,3/4+x,3/4+z
25 1/2-x,1/2-y,1/2-z
26 1/4+y,3/4-x,1/4-z
27 1/2+x,y,1/2-z
28 1/4-y,1/4+x,3/4-z
29 1/2-x,1/2+y,z
30 x,1/2-y,1/2+z
31 3/4-y,1/4-x,1/4+z
32 1/4+y,1/4+x,1/4+z
_cell_length_a                   39.709(6)
_cell_length_b                   39.709(6)
_cell_length_c                   39.724(8)
_cell_angle_alpha                90
_cell_angle_beta                 90
_cell_angle_gamma                90
_cell_volume                     62637
_exptl_crystal_colour            colorless
_exptl_crystal_description       needle
_cell_formula_units_Z            16
loop_
_atom_site_label
_atom_site_type_symbol
_atom_site_fract_x
_atom_site_fract_y
_atom_site_fract_z
Br1 Br 0.66537(5) 0.26282(6) 0.03321(3)
C1 C 0.65667(14) 0.21556(19) 0.12472(17)
H1 H 0.6543 0.1929 0.1321
C2 C 0.65610(14) 0.24129(19) 0.14826(16)
C3 C 0.64787(15) 0.23237(14) 0.18528(13)
C4 C 0.65235(17) 0.26254(15) 0.20908(14)
C5 C 0.6834(2) 0.27871(18) 0.21004(16)
H2 H 0.6998 0.2730 0.1936
C6 C 0.69152(17) 0.30266(17) 0.23378(18)
H3 H 0.7128 0.3136 0.2336
C7 C 0.6672(2) 0.31029(15) 0.25825(15)
C8 C 0.63632(18) 0.29593(18) 0.25757(15)
H4 H 0.6196 0.3022 0.2735
C9 C 0.62948(16) 0.27201(18) 0.23341(18)
H5 H 0.6080 0.2615 0.2335
C10 C 0.67663(16) 0.33386(18) 0.28554(19)
C11 C 0.68519(16) 0.35150(19) 0.30915(19)
C12 C 0.69492(16) 0.37088(16) 0.33690(17)
C13 C 0.71990(18) 0.39514(18) 0.33386(16)
H6 H 0.7308 0.3988 0.3129
C14 C 0.67986(15) 0.36518(15) 0.36769(17)
H7 H 0.6630 0.3483 0.3697
C15 C 0.68900(16) 0.38361(17) 0.39541(17)
C16 C 0.71331(19) 0.40833(19) 0.39301(17)
H8 H 0.7195 0.4212 0.4122
C17 C 0.72871(19) 0.41403(19) 0.3620(2)
H9 H 0.7454 0.4310 0.3600
C18 C 0.61122(16) 0.21957(18) 0.18407(13)
C19 C 0.58578(19) 0.24203(15) 0.17443(14)
H10 H 0.5916 0.2646 0.1692
C20 C 0.60205(18) 0.18728(19) 0.19032(14)
H11 H 0.6188 0.1712 0.1960
C21 C 0.5688(2) 0.17736(17) 0.18857(14)
H12 H 0.5630 0.1547 0.1934
C22 C 0.55314(18) 0.23240(19) 0.17237(14)
H13 H 0.5366 0.2483 0.1656
C23 C 0.54346(19) 0.20016(18) 0.17977(13)
C24 C 0.5092(2) 0.18925(18) 0.17861(14)
C25 C 0.4798(2) 0.18015(17) 0.17849(14)
C26 C 0.44631(18) 0.16723(16) 0.17979(18)
C27 C 0.43624(17) 0.15225(16) 0.20939(17)
H14 H 0.4511 0.1517 0.2281
C28 C 0.40512(19) 0.13834(16) 0.21173(16)
C29 C 0.38306(17) 0.13948(17) 0.18341(18)
H15 H 0.3611 0.1301 0.1846
C30 C 0.39434(19) 0.15444(17) 0.15443(16)
H16 H 0.3800 0.1552 0.1353
C31 C 0.42512(19) 0.16800(16) 0.15262(15)
H17 H 0.4324 0.1783 0.1323
C32 C 0.67238(17) 0.20582(15) 0.19947(14)
C33 C 0.66619(16) 0.19290(18) 0.23157(16)
H18 H 0.6469 0.2003 0.2436
C34 C 0.70236(17) 0.19634(16) 0.18503(15)
H19 H 0.7083 0.2058 0.1639
C35 C 0.72417(17) 0.17383(17) 0.19961(17)
H20 H 0.7446 0.1679 0.1887
C36 C 0.71580(18) 0.15974(16) 0.23088(17)
C37 C 0.68729(18) 0.16978(17) 0.24618(15)
H21 H 0.6817 0.1607 0.2676
C38 C 0.73789(19) 0.1356(2) 0.24572(16)
C39 C 0.75559(19) 0.1150(2) 0.25741(17)
C40 C 0.7761(2) 0.0889(2) 0.2722(2)
C41 C 0.8078(3) 0.0827(3) 0.2596(3)
H22 H 0.8161 0.0959 0.2414
C42 C 0.76346(18) 0.0689(2) 0.2980(2)
H23 H 0.7412 0.0726 0.3061
C43 C 0.8154(3) 0.0384(4) 0.3003(4)
H24 H 0.8291 0.0218 0.3107
C44 C 0.67278(17) 0.37755(15) 0.42726(19)
C45 C 0.65896(19) 0.37084(17) 0.4520(2)
C46 C 0.66063(16) 0.2221(3) 0.09075(18)
H25 H 0.6621 0.2037 0.0755
C47 C 0.39442(17) 0.12185(18) 0.2414(2)
C48 C 0.38774(16) 0.1079(2) 0.2671(2)
C49 C 0.65840(18) 0.2728(2) 0.13692(18)
H26 H 0.6580 0.2911 0.1524
C50 C 0.6615(2) 0.2795(3) 0.1014(2)
H27 H 0.6628 0.3021 0.0938
C51 C 0.8279(3) 0.0571(4) 0.2733(4)
H28 H 0.8496 0.0526 0.2644
C52 C 0.6626(2) 0.2542(3) 0.0787(2)
C53 C 0.7557(2) 0.0099(2) 0.3609(3)
C54 C 0.7688(2) 0.0239(3) 0.3386(3)
C55 C 0.7828(2) 0.0441(3) 0.3118(2)
Br1O Br 0.48718(6) 0.08463(5) 0.71679(3)
C1O C 0.53444(19) 0.09333(14) 0.62528(17)
H1O H 0.5571 0.0957 0.6179
C2O C 0.50871(19) 0.09390(14) 0.60174(16)
C3O C 0.51763(14) 0.10213(15) 0.56472(13)
C4O C 0.48746(15) 0.09765(17) 0.54092(14)
C5O C 0.47129(18) 0.0666(2) 0.53996(16)
H2O H 0.4770 0.0502 0.5564
C6O C 0.44734(17) 0.05848(17) 0.51622(18)
H3O H 0.4364 0.0372 0.5164
C7O C 0.43971(15) 0.0828(2) 0.49175(15)
C8O C 0.45407(18) 0.11368(18) 0.49243(15)
H4O H 0.4478 0.1304 0.4765
C9O C 0.47799(18) 0.12052(16) 0.51659(18)
H5O H 0.4885 0.1420 0.5165
C10O C 0.41614(18) 0.07337(16) 0.46446(19)
C11O C 0.39850(19) 0.06481(16) 0.44085(19)
C12O C 0.37912(16) 0.05508(16) 0.41310(17)
C13O C 0.35486(18) 0.03010(18) 0.41614(16)
H6O H 0.3512 0.0192 0.4371
C14O C 0.38482(15) 0.07014(15) 0.38231(17)
H7O H 0.4017 0.0870 0.3803
C15O C 0.36639(17) 0.06100(16) 0.35459(17)
C16O C 0.34167(19) 0.03669(19) 0.35699(17)
H8O H 0.3288 0.0305 0.3378
C17O C 0.33597(19) 0.02129(19) 0.3880(2)
H9O H 0.3190 0.0046 0.3900
C18O C 0.53043(18) 0.13878(16) 0.56593(13)
C19O C 0.50797(15) 0.16422(19) 0.57557(14)
H10O H 0.4854 0.1584 0.5808
C20O C 0.56272(19) 0.14795(18) 0.55968(14)
H11O H 0.5788 0.1312 0.5540
C21O C 0.57264(17) 0.1812(2) 0.56143(14)
H12O H 0.5953 0.1870 0.5566
C22O C 0.51760(19) 0.19686(18) 0.57763(14)
H13O H 0.5017 0.2134 0.5844
C23O C 0.54984(18) 0.20654(19) 0.57023(13)
C24O C 0.56075(18) 0.2408(2) 0.57139(14)
C25O C 0.56985(17) 0.2702(2) 0.57151(14)
C26O C 0.58277(16) 0.30369(18) 0.57021(18)
C27O C 0.59775(16) 0.31376(17) 0.54061(17)
H14O H 0.5983 0.2989 0.5219
C28O C 0.61166(16) 0.34488(19) 0.53827(16)
C29O C 0.61052(17) 0.36694(17) 0.56659(18)
H15O H 0.6199 0.3889 0.5654
C30O C 0.59556(17) 0.35566(19) 0.59557(16)
H16O H 0.5948 0.3700 0.6147
C31O C 0.58200(16) 0.32488(19) 0.59738(15)
H17O H 0.5717 0.3176 0.6177
C32O C 0.54418(15) 0.07762(17) 0.55053(14)
C33O C 0.55710(18) 0.08381(16) 0.51843(16)
H18O H 0.5497 0.1031 0.5064
C34O C 0.55366(16) 0.04764(17) 0.56497(15)
H19O H 0.5442 0.0417 0.5861
C35O C 0.57617(17) 0.02583(17) 0.55039(17)
H20O H 0.5821 0.0054 0.5613
C36O C 0.59026(16) 0.03420(18) 0.51912(17)
C37O C 0.58022(17) 0.06271(18) 0.50382(15)
H21O H 0.5893 0.0683 0.4824
C38O C 0.6144(2) 0.01211(19) 0.50428(16)
C39O C 0.6350(2) -0.00559(19) 0.49259(17)
C40O C 0.6611(2) -0.0261(2) 0.4778(2)
C41O C 0.6673(3) -0.0578(3) 0.4904(3)
H22O H 0.6541 -0.0661 0.5086
C42O C 0.6811(2) -0.01346(18) 0.4520(2)
H23O H 0.6774 0.0088 0.4439
C43O C 0.7116(4) -0.0654(3) 0.4497(4)
H24O H 0.7282 -0.0791 0.4393
C44O C 0.37245(15) 0.07722(17) 0.32274(19)
C45O C 0.37916(17) 0.09104(19) 0.2980(2)
C46O C 0.5279(3) 0.08937(16) 0.65925(18)
H25O H 0.5463 0.0879 0.6745
C47O C 0.62815(18) 0.35558(17) 0.5086(2)
C48O C 0.6421(2) 0.36226(16) 0.4829(2)
C49O C 0.4772(2) 0.09160(18) 0.61308(18)
H26O H 0.4589 0.0920 0.5976
C50O C 0.4705(3) 0.0885(2) 0.6486(2)
H27O H 0.4479 0.0872 0.6562
C51O C 0.6929(4) -0.0779(3) 0.4767(4)
H28O H 0.6974 -0.0996 0.4856
C52O C 0.4958(3) 0.0874(2) 0.6713(2)
C53O C 0.7401(2) -0.0057(2) 0.3891(3)
C54O C 0.7261(3) -0.0188(2) 0.4114(3)
C55O C 0.7059(3) -0.0328(2) 0.4382(2)
loop_
_geom_bond_atom_site_label_1
_geom_bond_atom_site_label_2
_geom_bond_site_symmetry_1
_geom_bond_site_symmetry_2
Br1 C52 1_555 1_555
C1 H1 1_555 1_555
C2 C1 1_555 1_555
C3 C2 1_555 1_555
C4 C3 1_555 1_555
C5 C4 1_555 1_555
H2 C5 1_555 1_555
C6 C5 1_555 1_555
H3 C6 1_555 1_555
C7 C6 1_555 1_555
C8 C7 1_555 1_555
H4 C8 1_555 1_555
C9 C4 1_555 1_555
H5 C9 1_555 1_555
C10 C7 1_555 1_555
C11 C10 1_555 1_555
C12 C11 1_555 1_555
C13 C12 1_555 1_555
H6 C13 1_555 1_555
C14 C12 1_555 1_555
H7 C14 1_555 1_555
C15 C14 1_555 1_555
C16 C15 1_555 1_555
H8 C16 1_555 1_555
C17 C13 1_555 1_555
H9 C17 1_555 1_555
C18 C3 1_555 1_555
C19 C18 1_555 1_555
H10 C19 1_555 1_555
C20 C18 1_555 1_555
H11 C20 1_555 1_555
C21 C20 1_555 1_555
H12 C21 1_555 1_555
C22 C19 1_555 1_555
H13 C22 1_555 1_555
C23 C21 1_555 1_555
C24 C23 1_555 1_555
C25 C24 1_555 1_555
C26 C25 1_555 1_555
C27 C26 1_555 1_555
H14 C27 1_555 1_555
C28 C27 1_555 1_555
C29 C28 1_555 1_555
H15 C29 1_555 1_555
C30 C29 1_555 1_555
H16 C30 1_555 1_555
C31 C26 1_555 1_555
H17 C31 1_555 1_555
C32 C3 1_555 1_555
C33 C32 1_555 1_555
H18 C33 1_555 1_555
C34 C32 1_555 1_555
H19 C34 1_555 1_555
C35 C34 1_555 1_555
H20 C35 1_555 1_555
C36 C35 1_555 1_555
C37 C33 1_555 1_555
H21 C37 1_555 1_555
C38 C36 1_555 1_555
C39 C38 1_555 1_555
C40 C39 1_555 1_555
C41 C40 1_555 1_555
H22 C41 1_555 1_555
C42 C40 1_555 1_555
H23 C42 1_555 1_555
C43 H24 1_555 1_555
C44 C15 1_555 1_555
C45 C44 1_555 1_555
C46 C1 1_555 1_555
H25 C46 1_555 1_555
C47 C28 1_555 1_555
C48 C47 1_555 1_555
C49 C2 1_555 1_555
H26 C49 1_555 1_555
C50 C49 1_555 1_555
H27 C50 1_555 1_555
C51 C41 1_555 1_555
H28 C51 1_555 1_555
C52 C46 1_555 1_555
C53 C54 1_555 1_555
C54 C55 1_555 1_555
C55 C42 1_555 1_555
Br1O C52O 1_555 1_555
C1O H1O 1_555 1_555
C2O C1O 1_555 1_555
C3O C2O 1_555 1_555
C4O C3O 1_555 1_555
C5O C4O 1_555 1_555
H2O C5O 1_555 1_555
C6O C5O 1_555 1_555
H3O C6O 1_555 1_555
C7O C6O 1_555 1_555
C8O C7O 1_555 1_555
H4O C8O 1_555 1_555
C9O C4O 1_555 1_555
H5O C9O 1_555 1_555
C10O C7O 1_555 1_555
C11O C10O 1_555 1_555
C12O C11O 1_555 1_555
C13O C12O 1_555 1_555
H6O C13O 1_555 1_555
C14O C12O 1_555 1_555
H7O C14O 1_555 1_555
C15O C14O 1_555 1_555
C16O C15O 1_555 1_555
H8O C16O 1_555 1_555
C17O C13O 1_555 1_555
H9O C17O 1_555 1_555
C18O C3O 1_555 1_555
C19O C18O 1_555 1_555
H10O C19O 1_555 1_555
C20O C18O 1_555 1_555
H11O C20O 1_555 1_555
C21O C20O 1_555 1_555
H12O C21O 1_555 1_555
C22O C19O 1_555 1_555
H13O C22O 1_555 1_555
C23O C21O 1_555 1_555
C24O C23O 1_555 1_555
C25O C24O 1_555 1_555
C26O C25O 1_555 1_555
C27O C26O 1_555 1_555
H14O C27O 1_555 1_555
C28O C27O 1_555 1_555
C29O C28O 1_555 1_555
H15O C29O 1_555 1_555
C30O C29O 1_555 1_555
H16O C30O 1_555 1_555
C31O C26O 1_555 1_555
H17O C31O 1_555 1_555
C32O C3O 1_555 1_555
C33O C32O 1_555 1_555
H18O C33O 1_555 1_555
C34O C32O 1_555 1_555
H19O C34O 1_555 1_555
C35O C34O 1_555 1_555
H20O C35O 1_555 1_555
C36O C35O 1_555 1_555
C37O C33O 1_555 1_555
H21O C37O 1_555 1_555
C38O C36O 1_555 1_555
C39O C38O 1_555 1_555
C40O C39O 1_555 1_555
C41O C40O 1_555 1_555
H22O C41O 1_555 1_555
C42O C40O 1_555 1_555
H23O C42O 1_555 1_555
C43O H24O 1_555 1_555
C44O C15O 1_555 1_555
C45O C48 1_555 1_555
C46O C1O 1_555 1_555
H25O C46O 1_555 1_555
C47O C28O 1_555 1_555
C48O C45 1_555 1_555
C49O C2O 1_555 1_555
H26O C49O 1_555 1_555
C50O C49O 1_555 1_555
H27O C50O 1_555 1_555
C51O C41O 1_555 1_555
H28O C51O 1_555 1_555
C52O C46O 1_555 1_555
C53O C53 1_555 1_555
C54O C53O 1_555 1_555
C55O C42O 1_555 1_555
C8 C9 1_555 1_555
C16 C17 1_555 1_555
C22 C23 1_555 1_555
C30 C31 1_555 1_555
C36 C37 1_555 1_555
C43 C51 1_555 1_555
C43 C55 1_555 1_555
C50 C52 1_555 1_555
C8O C9O 1_555 1_555
C16O C17O 1_555 1_555
C22O C23O 1_555 1_555
C30O C31O 1_555 1_555
C36O C37O 1_555 1_555
C43O C51O 1_555 1_555
C43O C55O 1_555 1_555
C44O C45O 1_555 1_555
C47O C48O 1_555 1_555
C50O C52O 1_555 1_555
C54O C55O 1_555 1_555

#END
