
#######################################################################
#
#                 Cambridge Crystallographic Data Centre
#                                CCDC 
#
#######################################################################
#
# If this CIF has been generated from an entry in the Cambridge 
# Structural Database, then it will include bibliographic, chemical, 
# crystal, experimental, refinement or atomic coordinate data resulting 
# from the CCDC's data processing and validation procedures.
#
#######################################################################

data_RUSDUF
_chemical_formula_moiety         'C40 H28 O3'
_chemical_name_systematic        
14c,17b-Dimethyl-9-phenyl-14c,14d,15,17,17a,17b-hexahydrodiindeno[1',2':5,6;2'',1'':9,10]fluorantheno[7,8-c]furan-1,14-dione
_symmetry_cell_setting           monoclinic
_symmetry_space_group_name_H-M   'P 21/n'
_symmetry_Int_Tables_number      14
_space_group_name_Hall           '-P 2yn'
loop_
_symmetry_equiv_pos_site_id
_symmetry_equiv_pos_as_xyz
1 x,y,z
2 1/2-x,1/2+y,1/2-z
3 -x,-y,-z
4 1/2+x,1/2-y,1/2+z
_cell_length_a                   14.3259(12)
_cell_length_b                   10.8416(9)
_cell_length_c                   18.3401(15)
_cell_angle_alpha                90
_cell_angle_beta                 96.073(2)
_cell_angle_gamma                90
_cell_volume                     2832.52
_exptl_crystal_colour            colorless
_chemical_melting_point          'decomposes at 268deg.C'
_cell_formula_units_Z            4
_exptl_crystal_recrystallization_method 'methylene chloride/ethanol'
loop_
_atom_site_label
_atom_site_type_symbol
_atom_site_fract_x
_atom_site_fract_y
_atom_site_fract_z
O1 O 0.75814(11) 0.06858(16) 0.08544(9)
O2 O 0.53188(11) 0.3418(2) 0.11277(9)
O3 O 1.04126(12) 0.20676(19) 0.07203(8)
C1 C 0.68874(17) 0.1532(2) 0.10237(14)
H1 H 0.6660 0.1320 0.1487
H2 H 0.6361 0.1525 0.0644
C2 C 0.73553(14) 0.2815(2) 0.10718(11)
H3 H 0.7259 0.3209 0.0589
C3 C 0.69503(14) 0.3650(2) 0.16324(10)
C4 C 0.58999(15) 0.3442(2) 0.16570(12)
C5 C 0.57265(15) 0.3308(2) 0.24271(12)
C6 C 0.48708(16) 0.3239(3) 0.27077(14)
H4 H 0.4313 0.3288 0.2399
C7 C 0.48579(18) 0.3098(3) 0.34453(15)
H5 H 0.4290 0.3099 0.3648
C8 C 0.56976(18) 0.2953(3) 0.38941(14)
H6 H 0.5679 0.2816 0.4393
C9 C 0.65512(16) 0.3008(2) 0.36193(12)
H7 H 0.7102 0.2891 0.3929
C10 C 0.65910(14) 0.3238(2) 0.28718(11)
C11 C 0.73766(14) 0.3375(2) 0.24173(10)
C12 C 0.83100(13) 0.32238(19) 0.25589(10)
C13 C 0.89443(13) 0.3101(2) 0.19279(10)
C14 C 0.84178(14) 0.2482(2) 0.12423(10)
H8 H 0.8739 0.2704 0.0815
C15 C 0.83984(16) 0.1082(2) 0.12993(13)
H9 H 0.8956 0.0729 0.1126
H10 H 0.8371 0.0830 0.1804
C16 C 0.89069(13) 0.29439(19) 0.32516(10)
C17 C 0.88484(15) 0.3193(2) 0.39854(10)
H11 H 0.8365 0.3676 0.4132
C18 C 0.95413(16) 0.2694(2) 0.45047(11)
H12 H 0.9497 0.2844 0.4999
C19 C 1.02768(15) 0.2000(2) 0.43159(11)
H13 H 1.0692 0.1647 0.4681
C20 C 1.04100(13) 0.1814(2) 0.35731(10)
C21 C 1.11975(13) 0.1227(2) 0.32973(11)
C22 C 1.12383(14) 0.1214(2) 0.25529(11)
C23 C 1.19557(15) 0.0682(2) 0.21133(12)
C24 C 1.27639(18) 0.0012(3) 0.23051(14)
H14 H 1.2952 -0.0170 0.2794
C25 C 1.3289(2) -0.0385(3) 0.17594(16)
H15 H 1.3837 -0.0829 0.1889
C26 C 1.3026(2) -0.0141(3) 0.10265(16)
H16 H 1.3395 -0.0416 0.0672
C27 C 1.22114(18) 0.0516(3) 0.08230(14)
H17 H 1.2017 0.0672 0.0332
C28 C 1.16939(15) 0.0936(2) 0.13683(12)
C29 C 1.08114(15) 0.1656(2) 0.12872(11)
C30 C 1.05268(14) 0.1786(2) 0.20426(11)
C31 C 0.97587(13) 0.2323(2) 0.22924(10)
C32 C 0.97066(13) 0.2320(2) 0.30561(10)
C33 C 0.70161(19) 0.5035(2) 0.14400(13)
H18 H 0.6617 0.5204 0.0997
H19 H 0.7653 0.5237 0.1371
H20 H 0.6819 0.5522 0.1833
C34 C 0.93863(17) 0.4353(2) 0.17384(13)
H21 H 0.9642 0.4753 0.2182
H22 H 0.8913 0.4869 0.1486
H23 H 0.9877 0.4212 0.1430
C35 C 1.19698(14) 0.0702(2) 0.38210(11)
C36 C 1.27801(15) 0.1370(3) 0.40026(13)
H24 H 1.2826 0.2170 0.3826
C37 C 1.35244(16) 0.0866(3) 0.44442(14)
H25 H 1.4069 0.1325 0.4559
C38 C 1.34654(17) -0.0296(3) 0.47109(13)
H26 H 1.3974 -0.0641 0.4997
C39 C 1.26519(19) -0.0960(3) 0.45574(14)
H27 H 1.2604 -0.1748 0.4752
C40 C 1.19012(17) -0.0461(2) 0.41133(13)
H28 H 1.1351 -0.0913 0.4013
loop_
_geom_bond_atom_site_label_1
_geom_bond_atom_site_label_2
_geom_bond_site_symmetry_1
_geom_bond_site_symmetry_2
O1 C1 1_555 1_555
O2 C4 1_555 1_555
O3 C29 1_555 1_555
C1 H1 1_555 1_555
H2 C1 1_555 1_555
C2 C1 1_555 1_555
H3 C2 1_555 1_555
C3 C2 1_555 1_555
C4 C3 1_555 1_555
C5 C4 1_555 1_555
C6 C5 1_555 1_555
H4 C6 1_555 1_555
C7 C6 1_555 1_555
H5 C7 1_555 1_555
C8 C7 1_555 1_555
H6 C8 1_555 1_555
C9 C8 1_555 1_555
H7 C9 1_555 1_555
C10 C5 1_555 1_555
C11 C3 1_555 1_555
C12 C11 1_555 1_555
C13 C12 1_555 1_555
C14 C2 1_555 1_555
H8 C14 1_555 1_555
C15 O1 1_555 1_555
H9 C15 1_555 1_555
H10 C15 1_555 1_555
C16 C12 1_555 1_555
C17 C16 1_555 1_555
H11 C17 1_555 1_555
C18 C17 1_555 1_555
H12 C18 1_555 1_555
C19 C18 1_555 1_555
H13 C19 1_555 1_555
C20 C19 1_555 1_555
C21 C20 1_555 1_555
C22 C21 1_555 1_555
C23 C22 1_555 1_555
C24 C23 1_555 1_555
H14 C24 1_555 1_555
C25 C24 1_555 1_555
H15 C25 1_555 1_555
C26 C25 1_555 1_555
H16 C26 1_555 1_555
C27 C26 1_555 1_555
H17 C27 1_555 1_555
C28 C23 1_555 1_555
C29 C28 1_555 1_555
C30 C22 1_555 1_555
C31 C13 1_555 1_555
C32 C16 1_555 1_555
C33 C3 1_555 1_555
H18 C33 1_555 1_555
H19 C33 1_555 1_555
H20 C33 1_555 1_555
C34 C13 1_555 1_555
H21 C34 1_555 1_555
H22 C34 1_555 1_555
H23 C34 1_555 1_555
C35 C21 1_555 1_555
C36 C35 1_555 1_555
H24 C36 1_555 1_555
C37 C36 1_555 1_555
H25 C37 1_555 1_555
C38 C37 1_555 1_555
H26 C38 1_555 1_555
C39 C38 1_555 1_555
H27 C39 1_555 1_555
C40 C35 1_555 1_555
H28 C40 1_555 1_555
C9 C10 1_555 1_555
C10 C11 1_555 1_555
C13 C14 1_555 1_555
C14 C15 1_555 1_555
C20 C32 1_555 1_555
C27 C28 1_555 1_555
C29 C30 1_555 1_555
C30 C31 1_555 1_555
C31 C32 1_555 1_555
C39 C40 1_555 1_555

#END
