
#######################################################################
#
#                 Cambridge Crystallographic Data Centre
#                                CCDC 
#
#######################################################################
#
# If this CIF has been generated from an entry in the Cambridge 
# Structural Database, then it will include bibliographic, chemical, 
# crystal, experimental, refinement or atomic coordinate data resulting 
# from the CCDC's data processing and validation procedures.
#
#######################################################################

data_RUSDOZ
_chemical_formula_moiety         'C24 H24 O5'
_chemical_name_systematic        
'Dimethyl 5,6-diphenyl-1,3,3a,4,7,7a-hexahydro-2-benzofuran-4,7-dicarboxylate'
_symmetry_cell_setting           monoclinic
_symmetry_space_group_name_H-M   'P 21/c'
_symmetry_Int_Tables_number      14
_space_group_name_Hall           '-P 2ybc'
loop_
_symmetry_equiv_pos_site_id
_symmetry_equiv_pos_as_xyz
1 x,y,z
2 -x,1/2+y,1/2-z
3 -x,-y,-z
4 x,1/2-y,1/2+z
_cell_length_a                   16.5901(13)
_cell_length_b                   6.2077(5)
_cell_length_c                   21.518(2)
_cell_angle_alpha                90
_cell_angle_beta                 112.619(1)
_cell_angle_gamma                90
_cell_volume                     2045.61
_exptl_crystal_colour            white
_chemical_melting_point          205-207deg.C
_cell_formula_units_Z            4
_exptl_crystal_recrystallization_method 'methylene chloride/ethanol'
loop_
_atom_site_label
_atom_site_type_symbol
_atom_site_fract_x
_atom_site_fract_y
_atom_site_fract_z
O1 O 0.11865(7) 0.02119(16) 0.28855(5)
C1 C 0.18105(8) 0.1447(2) 0.33970(6)
H1 H 0.2395 0.1216 0.3398
H2 H 0.1817 0.1048 0.3839
C2 C 0.09995(9) 0.1438(2) 0.22754(6)
H3 H 0.0461 0.0935 0.1917
H4 H 0.1481 0.1341 0.2120
O2 O 0.02176(6) 0.38292(15) 0.10134(4)
O3 O 0.01415(5) 0.73918(13) 0.11243(3)
O4 O 0.31433(7) 0.40165(17) 0.44422(4)
O5 O 0.34274(5) 0.72653(14) 0.41254(4)
C3 C 0.15355(7) 0.37984(19) 0.32375(5)
H5 H 0.1211 0.4260 0.3516
C4 C 0.08960(7) 0.37299(19) 0.24863(5)
H6 H 0.0292 0.3917 0.2463
C5 C 0.22743(6) 0.54035(17) 0.33321(4)
H7 H 0.2002 0.6848 0.3273
C6 C 0.26348(6) 0.52027(16) 0.27770(4)
C7 C 0.20419(6) 0.53464(16) 0.21430(4)
C8 C 0.10913(6) 0.55148(17) 0.20693(4)
H8 H 0.1018 0.6917 0.2260
C9 C 0.04413(6) 0.54288(19) 0.13447(5)
C10 C -0.04458(10) 0.7567(3) 0.04254(6)
H9 H -0.0136 0.7196 0.0139
H10 H -0.0661 0.9033 0.0332
H11 H -0.0933 0.6589 0.0337
C11 C 0.29874(7) 0.5409(2) 0.40310(5)
C12 C 0.42103(9) 0.7451(3) 0.47219(7)
H12 H 0.4126 0.6743 0.5094
H13 H 0.4342 0.8962 0.4829
H14 H 0.4691 0.6775 0.4645
C13 C 0.35912(6) 0.49289(18) 0.29640(4)
C14 C 0.40045(7) 0.3021(2) 0.32567(5)
H15 H 0.3672 0.1873 0.3317
C15 C 0.49021(8) 0.2796(2) 0.34603(6)
H16 H 0.5174 0.1496 0.3653
C16 C 0.53953(8) 0.4482(3) 0.33793(6)
H17 H 0.6004 0.4336 0.3523
C17 C 0.49997(8) 0.6363(3) 0.30902(6)
H18 H 0.5337 0.7506 0.3033
C18 C 0.41003(7) 0.6591(2) 0.28797(5)
H19 H 0.3833 0.7886 0.2678
C19 C 0.22652(6) 0.53286(18) 0.15346(4)
C20 C 0.26433(7) 0.3552(2) 0.13650(5)
H20 H 0.2772 0.2324 0.1642
C21 C 0.28343(8) 0.3562(3) 0.07910(6)
H21 H 0.3091 0.2345 0.0682
C22 C 0.26507(8) 0.5339(3) 0.03830(5)
H22 H 0.2779 0.5338 -0.0006
C23 C 0.22794(8) 0.7122(2) 0.05417(6)
H23 H 0.2157 0.8345 0.0263
C24 C 0.20834(7) 0.7122(2) 0.11165(5)
H24 H 0.1826 0.8344 0.1222
C25? C 0.18105(8) 0.1447(2) 0.33970(6)
C26? C 0.09995(9) 0.1438(2) 0.22754(6)
H25? H 0.2398 0.1365 0.3750
H26? H 0.1405 0.0697 0.3554
H27? H 0.0490 0.0581 0.2247
H28? H 0.1027 0.1460 0.1829
O6? O 0.1799(6) 0.0432(13) 0.2761(4)
loop_
_geom_bond_atom_site_label_1
_geom_bond_atom_site_label_2
_geom_bond_site_symmetry_1
_geom_bond_site_symmetry_2
O1 C1 1_555 1_555
C1 H1 1_555 1_555
H2 C1 1_555 1_555
C2 O1 1_555 1_555
H3 C2 1_555 1_555
H4 C2 1_555 1_555
O2 C9 1_555 1_555
O3 C9 1_555 1_555
O4 C11 1_555 1_555
O5 C11 1_555 1_555
C3 C1 1_555 1_555
H5 C3 1_555 1_555
C4 C2 1_555 1_555
H6 C4 1_555 1_555
C5 C3 1_555 1_555
H7 C5 1_555 1_555
C6 C5 1_555 1_555
C7 C6 1_555 1_555
C8 C4 1_555 1_555
H8 C8 1_555 1_555
C9 C8 1_555 1_555
C10 O3 1_555 1_555
H9 C10 1_555 1_555
H10 C10 1_555 1_555
H11 C10 1_555 1_555
C11 C5 1_555 1_555
C12 O5 1_555 1_555
H12 C12 1_555 1_555
H13 C12 1_555 1_555
H14 C12 1_555 1_555
C13 C6 1_555 1_555
C14 C13 1_555 1_555
H15 C14 1_555 1_555
C15 C14 1_555 1_555
H16 C15 1_555 1_555
C16 C15 1_555 1_555
H17 C16 1_555 1_555
C17 C16 1_555 1_555
H18 C17 1_555 1_555
C18 C13 1_555 1_555
H19 C18 1_555 1_555
C19 C7 1_555 1_555
C20 C19 1_555 1_555
H20 C20 1_555 1_555
C21 C20 1_555 1_555
H21 C21 1_555 1_555
C22 C21 1_555 1_555
H22 C22 1_555 1_555
C23 C22 1_555 1_555
H23 C23 1_555 1_555
C24 C19 1_555 1_555
H24 C24 1_555 1_555
C3 C4 1_555 1_555
C7 C8 1_555 1_555
C17 C18 1_555 1_555
C23 C24 1_555 1_555

#END
