
#######################################################################
#
#                 Cambridge Crystallographic Data Centre
#                                CCDC 
#
#######################################################################
#
# If this CIF has been generated from an entry in the Cambridge 
# Structural Database, then it will include bibliographic, chemical, 
# crystal, experimental, refinement or atomic coordinate data resulting 
# from the CCDC's data processing and validation procedures.
#
#######################################################################

data_RUSFER
_chemical_formula_moiety         'C56 H36 I2 O2,2(C1 H2 Cl2)'
_chemical_name_systematic        
"18,19-bis(Iodomethyl)-17c,19a-dimethyl-5,12-diphenyl-17c,18,19,19a-tetrahydroindeno[2,1-a]indeno[2',1':3,4]-acenaphtho[1,2-j]fluoranthene-17,20-dione dichloromethane solvate"
_symmetry_cell_setting           triclinic
_symmetry_space_group_name_H-M   'P -1'
_symmetry_Int_Tables_number      2
_space_group_name_Hall           '-P 1'
loop_
_symmetry_equiv_pos_site_id
_symmetry_equiv_pos_as_xyz
1 x,y,z
2 -x,-y,-z
_cell_length_a                   10.2108(7)
_cell_length_b                   14.0601(9)
_cell_length_c                   18.1008(12)
_cell_angle_alpha                88.627(1)
_cell_angle_beta                 88.322(1)
_cell_angle_gamma                70.761(1)
_cell_volume                     2452.18
_exptl_crystal_colour            yellow
_chemical_melting_point          'decomposes at 247deg.C'
_cell_formula_units_Z            2
_exptl_crystal_recrystallization_method 'dichloromethane/hexanes/ethyl acetate'
loop_
_atom_site_label
_atom_site_type_symbol
_atom_site_fract_x
_atom_site_fract_y
_atom_site_fract_z
I1 I 1.11002(4) 0.10988(3) 0.55932(3)
I2 I 1.16682(3) 0.29802(3) 0.38769(2)
O1 O 0.9964(3) 0.4044(3) 0.62199(18)
O2 O 0.8722(4) 0.3456(3) 0.2133(2)
C1 C 0.8727(4) 0.2952(2) 0.4951(2)
H1 H 0.9472 0.3182 0.5124
C2 C 0.7335(3) 0.3594(2) 0.53254(19)
C3 C 0.7241(4) 0.3484(3) 0.6169(2)
C4 C 0.7936(4) 0.3706(3) 0.6741(2)
C5 C 0.9216(4) 0.4003(3) 0.6741(2)
C6 C 0.9371(4) 0.4242(3) 0.7524(2)
C7 C 1.0369(5) 0.4590(3) 0.7807(3)
H2 H 1.1048 0.4709 0.7501
C8 C 1.0330(5) 0.4756(4) 0.8562(3)
H3 H 1.0996 0.4983 0.8767
C9 C 0.9301(5) 0.4584(4) 0.9013(3)
H4 H 0.9287 0.4702 0.9517
C10 C 0.8289(5) 0.4239(3) 0.8726(2)
H5 H 0.7608 0.4122 0.9031
C11 C 0.8330(4) 0.4076(3) 0.7963(2)
C12 C 0.7394(4) 0.3739(3) 0.7491(2)
C13 C 0.6185(4) 0.3551(3) 0.7672(2)
C14 C 0.5436(4) 0.3296(3) 0.7080(2)
C15 C 0.4171(4) 0.3108(4) 0.7152(2)
H6 H 0.3771 0.3092 0.7618
C16 C 0.3517(4) 0.2947(4) 0.6532(3)
H7 H 0.2672 0.2835 0.6592
C17 C 0.4080(4) 0.2947(3) 0.5816(2)
H8 H 0.3599 0.2860 0.5409
C18 C 0.5364(4) 0.3076(3) 0.5723(2)
C19 C 0.6016(4) 0.3257(3) 0.6357(2)
C20 C 0.6220(4) 0.3153(2) 0.50773(19)
C21 C 0.6358(4) 0.2721(2) 0.4402(2)
C22 C 0.5933(4) 0.1882(3) 0.4149(2)
C23 C 0.5169(4) 0.1323(3) 0.4465(2)
H9 H 0.4724 0.1494 0.4922
C24 C 0.5078(5) 0.0492(3) 0.4082(3)
H10 H 0.4576 0.0111 0.4300
C25 C 0.5694(5) 0.0216(3) 0.3401(2)
H11 H 0.5604 -0.0341 0.3168
C26 C 0.6472(4) 0.0780(3) 0.3053(2)
C27 C 0.6602(4) 0.1584(2) 0.3454(2)
C28 C 0.7065(4) 0.0617(3) 0.2320(2)
C29 C 0.7674(4) 0.1295(3) 0.2040(2)
C30 C 0.8217(5) 0.1395(3) 0.1284(2)
C31 C 0.8305(6) 0.0825(4) 0.0643(3)
H12 H 0.8025 0.0259 0.0649
C32 C 0.8830(7) 0.1146(4) 0.0001(3)
H13 H 0.8900 0.0779 -0.0428
C33 C 0.9242(6) 0.1972(4) -0.0026(3)
H14 H 0.9570 0.2163 -0.0471
C34 C 0.9181(6) 0.2533(4) 0.0601(3)
H15 H 0.9489 0.3086 0.0592
C35 C 0.8636(5) 0.2233(3) 0.1247(2)
C36 C 0.8464(5) 0.2707(3) 0.1980(2)
C37 C 0.7824(4) 0.2091(3) 0.2474(2)
C38 C 0.7357(4) 0.2216(2) 0.3193(2)
C39 C 0.7229(4) 0.3018(2) 0.37842(19)
C40 C 0.8622(4) 0.3117(3) 0.4098(2)
H16 H 0.8571 0.3818 0.4005
C41 C 0.7040(4) 0.4738(3) 0.5180(2)
H17 H 0.6128 0.5108 0.5366
H18 H 0.7094 0.4863 0.4658
H19 H 0.7715 0.4951 0.5425
C42 C 0.5553(4) 0.3664(3) 0.8428(2)
C43 C 0.6012(5) 0.2939(3) 0.8972(2)
H20 H 0.6729 0.2348 0.8863
C44 C 0.5426(6) 0.3073(4) 0.9684(3)
H21 H 0.5759 0.2577 1.0045
C45 C 0.4346(6) 0.3945(4) 0.9851(3)
H22 H 0.3945 0.4041 1.0323
C46 C 0.3874(5) 0.4670(4) 0.9305(3)
H23 H 0.3146 0.5256 0.9412
C47 C 0.4459(5) 0.4543(4) 0.8610(3)
H24 H 0.4127 0.5045 0.8253
C48 C 0.6988(5) -0.0249(3) 0.1885(2)
C49 C 0.5879(7) -0.0170(5) 0.1438(4)
H25 H 0.5144 0.0433 0.1407
C50 C 0.5872(9) -0.1012(6) 0.1029(5)
H26 H 0.5131 -0.0962 0.0727
C51 C 0.6938(8) -0.1892(5) 0.1075(4)
H27 H 0.6930 -0.2440 0.0799
C52 C 0.8009(7) -0.1980(4) 0.1520(3)
H28 H 0.8726 -0.2591 0.1555
C53 C 0.8055(6) -0.1164(3) 0.1927(3)
H29 H 0.8804 -0.1233 0.2229
C54 C 0.6343(4) 0.4034(3) 0.3428(2)
H30 H 0.5501 0.3971 0.3249
H31 H 0.6858 0.4206 0.3024
H32 H 0.6124 0.4554 0.3791
C55 C 0.9047(4) 0.1838(3) 0.5181(2)
H33 H 0.8919 0.1471 0.4756
H34 H 0.8375 0.1796 0.5559
C56 C 0.9920(4) 0.2475(3) 0.3694(3)
H35 H 0.9748 0.2500 0.3169
H36 H 1.0143 0.1780 0.3862
Cl1 Cl 0.4182(3) 0.3141(3) 0.19667(18)
Cl2 Cl 0.2700(3) 0.2336(3) 0.09675(17)
C57 C 0.2725(12) 0.2840(9) 0.1821(5)
H37 H 0.1921 0.3442 0.1873
H38 H 0.2648 0.2359 0.2199
loop_
_geom_bond_atom_site_label_1
_geom_bond_atom_site_label_2
_geom_bond_site_symmetry_1
_geom_bond_site_symmetry_2
I1 C55 1_555 1_555
I2 C56 1_555 1_555
O1 C5 1_555 1_555
O2 C36 1_555 1_555
C1 H1 1_555 1_555
C2 C1 1_555 1_555
C3 C2 1_555 1_555
C4 C3 1_555 1_555
C5 C4 1_555 1_555
C6 C5 1_555 1_555
C7 C6 1_555 1_555
H2 C7 1_555 1_555
C8 C7 1_555 1_555
H3 C8 1_555 1_555
C9 C8 1_555 1_555
H4 C9 1_555 1_555
C10 C9 1_555 1_555
H5 C10 1_555 1_555
C11 C6 1_555 1_555
C12 C4 1_555 1_555
C13 C12 1_555 1_555
C14 C13 1_555 1_555
C15 C14 1_555 1_555
H6 C15 1_555 1_555
C16 C15 1_555 1_555
H7 C16 1_555 1_555
C17 C16 1_555 1_555
H8 C17 1_555 1_555
C18 C17 1_555 1_555
C19 C3 1_555 1_555
C20 C2 1_555 1_555
C21 C20 1_555 1_555
C22 C21 1_555 1_555
C23 C22 1_555 1_555
H9 C23 1_555 1_555
C24 C23 1_555 1_555
H10 C24 1_555 1_555
C25 C24 1_555 1_555
H11 C25 1_555 1_555
C26 C25 1_555 1_555
C27 C22 1_555 1_555
C28 C26 1_555 1_555
C29 C28 1_555 1_555
C30 C29 1_555 1_555
C31 C30 1_555 1_555
H12 C31 1_555 1_555
C32 C31 1_555 1_555
H13 C32 1_555 1_555
C33 C32 1_555 1_555
H14 C33 1_555 1_555
C34 C33 1_555 1_555
H15 C34 1_555 1_555
C35 C30 1_555 1_555
C36 C35 1_555 1_555
C37 C29 1_555 1_555
C38 C27 1_555 1_555
C39 C21 1_555 1_555
C40 C1 1_555 1_555
H16 C40 1_555 1_555
C41 C2 1_555 1_555
H17 C41 1_555 1_555
H18 C41 1_555 1_555
H19 C41 1_555 1_555
C42 C13 1_555 1_555
C43 C42 1_555 1_555
H20 C43 1_555 1_555
C44 C43 1_555 1_555
H21 C44 1_555 1_555
C45 C44 1_555 1_555
H22 C45 1_555 1_555
C46 C45 1_555 1_555
H23 C46 1_555 1_555
C47 C42 1_555 1_555
H24 C47 1_555 1_555
C48 C28 1_555 1_555
C49 C48 1_555 1_555
H25 C49 1_555 1_555
C50 C49 1_555 1_555
H26 C50 1_555 1_555
C51 C50 1_555 1_555
H27 C51 1_555 1_555
C52 C51 1_555 1_555
H28 C52 1_555 1_555
C53 C48 1_555 1_555
H29 C53 1_555 1_555
C54 C39 1_555 1_555
H30 C54 1_555 1_555
H31 C54 1_555 1_555
H32 C54 1_555 1_555
C55 C1 1_555 1_555
H33 C55 1_555 1_555
H34 C55 1_555 1_555
C56 C40 1_555 1_555
H35 C56 1_555 1_555
H36 C56 1_555 1_555
Cl1 C57 1_555 1_555
Cl2 C57 1_555 1_555
C57 H37 1_555 1_555
H38 C57 1_555 1_555
C10 C11 1_555 1_555
C11 C12 1_555 1_555
C14 C19 1_555 1_555
C18 C19 1_555 1_555
C18 C20 1_555 1_555
C26 C27 1_555 1_555
C34 C35 1_555 1_555
C36 C37 1_555 1_555
C37 C38 1_555 1_555
C38 C39 1_555 1_555
C39 C40 1_555 1_555
C46 C47 1_555 1_555
C52 C53 1_555 1_555

#END
