
#######################################################################
#
#                 Cambridge Crystallographic Data Centre
#                                CCDC 
#
#######################################################################
#
# If this CIF has been generated from an entry in the Cambridge 
# Structural Database, then it will include bibliographic, chemical, 
# crystal, experimental, refinement or atomic coordinate data resulting 
# from the CCDC's data processing and validation procedures.
#
#######################################################################

data_RUSGAP
_chemical_formula_moiety         'C34 H24 Cl2 O2'
_chemical_name_systematic        
2,2'-bis((2-chlorobenzyl)oxy)-1,1'-binaphthalene
_symmetry_cell_setting           monoclinic
_symmetry_space_group_name_H-M   'C 2'
_symmetry_Int_Tables_number      5
_space_group_name_Hall           'C 2y'
loop_
_symmetry_equiv_pos_site_id
_symmetry_equiv_pos_as_xyz
1 x,y,z
2 -x,y,-z
3 1/2+x,1/2+y,z
4 1/2-x,1/2+y,-z
_cell_length_a                   11.1983(3)
_cell_length_b                   14.6094(4)
_cell_length_c                   16.3263(4)
_cell_angle_alpha                90
_cell_angle_beta                 92.622(2)
_cell_angle_gamma                90
_cell_volume                     2668.19
_exptl_crystal_colour            colorless
_exptl_crystal_description       block
_cell_formula_units_Z            4
loop_
_atom_site_label
_atom_site_type_symbol
_atom_site_fract_x
_atom_site_fract_y
_atom_site_fract_z
C1 C 0.3136(3) -0.1616(2) 1.04240(18)
C2 C 0.2949(3) -0.1496(3) 1.1254(2)
H1 H 0.2774 -0.1995 1.1581
C3 C 0.3023(3) -0.0642(3) 1.1581(2)
H2 H 0.2899 -0.0553 1.2135
C4 C 0.3282(3) 0.0083(3) 1.1096(2)
H3 H 0.3338 0.0667 1.1321
C5 C 0.3459(2) -0.0043(2) 1.02794(19)
H4 H 0.3620 0.0464 0.9958
C6 C 0.3408(2) -0.0892(2) 0.99204(15)
C7 C 0.3671(2) -0.1012(2) 0.90297(15)
H5 H 0.4083 -0.0471 0.8845
H6 H 0.4204 -0.1529 0.8978
C8 C 0.1865(2) -0.04007(18) 0.84115(14)
C9 C 0.0865(2) -0.0367(2) 0.88989(15)
H7 H 0.0759 -0.0815 0.9294
C10 C 0.0050(2) 0.0319(2) 0.87954(17)
H8 H -0.0599 0.0345 0.9131
C11 C 0.0178(2) 0.0992(2) 0.81855(16)
C12 C -0.0668(3) 0.1700(3) 0.80425(19)
H9 H -0.1330 0.1731 0.8364
C13 C -0.0536(3) 0.2330(3) 0.7451(2)
H10 H -0.1108 0.2786 0.7367
C14 C 0.0464(3) 0.2302(2) 0.6959(2)
H11 H 0.0555 0.2741 0.6554
C15 C 0.1301(2) 0.1626(2) 0.70786(16)
H12 H 0.1953 0.1607 0.6746
C16 C 0.1197(2) 0.09592(18) 0.76940(15)
C17 C 0.20583(19) 0.02472(17) 0.78207(13)
C18 C 0.3126(2) 0.02111(17) 0.73118(14)
C19 C 0.4102(2) 0.08223(17) 0.74544(14)
C20 C 0.4120(2) 0.14841(19) 0.80899(16)
H13 H 0.3495 0.1504 0.8446
C21 C 0.5042(3) 0.2092(2) 0.81876(19)
H14 H 0.5031 0.2525 0.8604
C22 C 0.6005(3) 0.2072(2) 0.76682(19)
H15 H 0.6619 0.2498 0.7734
C23 C 0.6040(2) 0.1433(2) 0.70721(19)
H16 H 0.6694 0.1412 0.6741
C24 C 0.5096(2) 0.07932(18) 0.69410(15)
C25 C 0.5086(2) 0.0147(2) 0.62965(16)
H17 H 0.5737 0.0111 0.5964
C26 C 0.4138(2) -0.0424(2) 0.61550(15)
H18 H 0.4142 -0.0840 0.5725
C27 C 0.3146(2) -0.03851(18) 0.66597(14)
C28 C 0.2062(3) -0.15760(19) 0.59124(15)
H19 H 0.1470 -0.2029 0.6049
H20 H 0.2826 -0.1886 0.5894
C29 C 0.1738(2) -0.1202(2) 0.50774(15)
C30 C 0.1581(3) -0.0283(3) 0.4912(2)
H21 H 0.1699 0.0149 0.5326
C31 C 0.1242(3) -0.0006(4) 0.4110(3)
H22 H 0.1137 0.0613 0.3996
C32 C 0.1067(4) -0.0627(5) 0.3502(3)
H23 H 0.0845 -0.0429 0.2975
C33 C 0.1212(4) -0.1552(5) 0.3653(2)
H24 H 0.1088 -0.1978 0.3234
C34 C 0.1541(3) -0.1829(3) 0.44307(18)
O1 O 0.26269(16) -0.11565(12) 0.85074(10)
O2 O 0.21372(16) -0.09115(14) 0.65440(10)
Cl1 Cl 0.30029(15) -0.27265(8) 1.00356(7)
Cl2 Cl 0.16806(12) -0.29928(8) 0.46325(7)
loop_
_geom_bond_atom_site_label_1
_geom_bond_atom_site_label_2
_geom_bond_site_symmetry_1
_geom_bond_site_symmetry_2
C1 C2 1_555 1_555
C2 H1 1_555 1_555
C3 C2 1_555 1_555
H2 C3 1_555 1_555
C4 C3 1_555 1_555
H3 C4 1_555 1_555
C5 C4 1_555 1_555
H4 C5 1_555 1_555
C6 C1 1_555 1_555
C7 C6 1_555 1_555
H5 C7 1_555 1_555
H6 C7 1_555 1_555
C8 C9 1_555 1_555
C9 H7 1_555 1_555
C10 C9 1_555 1_555
H8 C10 1_555 1_555
C11 C10 1_555 1_555
C12 C11 1_555 1_555
H9 C12 1_555 1_555
C13 C12 1_555 1_555
H10 C13 1_555 1_555
C14 C13 1_555 1_555
H11 C14 1_555 1_555
C15 C14 1_555 1_555
H12 C15 1_555 1_555
C16 C11 1_555 1_555
C17 C8 1_555 1_555
C18 C17 1_555 1_555
C19 C18 1_555 1_555
C20 C19 1_555 1_555
H13 C20 1_555 1_555
C21 C20 1_555 1_555
H14 C21 1_555 1_555
C22 C21 1_555 1_555
H15 C22 1_555 1_555
C23 C22 1_555 1_555
H16 C23 1_555 1_555
C24 C19 1_555 1_555
C25 C24 1_555 1_555
H17 C25 1_555 1_555
C26 C25 1_555 1_555
H18 C26 1_555 1_555
C27 C18 1_555 1_555
C28 H19 1_555 1_555
H20 C28 1_555 1_555
C29 C28 1_555 1_555
C30 C29 1_555 1_555
H21 C30 1_555 1_555
C31 C30 1_555 1_555
H22 C31 1_555 1_555
C32 C31 1_555 1_555
H23 C32 1_555 1_555
C33 C32 1_555 1_555
H24 C33 1_555 1_555
C34 C29 1_555 1_555
O1 C7 1_555 1_555
O2 C27 1_555 1_555
Cl1 C1 1_555 1_555
Cl2 C34 1_555 1_555
C5 C6 1_555 1_555
C8 O1 1_555 1_555
C15 C16 1_555 1_555
C16 C17 1_555 1_555
C23 C24 1_555 1_555
C26 C27 1_555 1_555
C28 O2 1_555 1_555
C33 C34 1_555 1_555

#END
