
#######################################################################
#
#                 Cambridge Crystallographic Data Centre
#                                CCDC 
#
#######################################################################
#
# If this CIF has been generated from an entry in the Cambridge 
# Structural Database, then it will include bibliographic, chemical, 
# crystal, experimental, refinement or atomic coordinate data resulting 
# from the CCDC's data processing and validation procedures.
#
#######################################################################

data_RUSGOC
_chemical_formula_moiety         'C36 H29 N1 O2 S1'
_chemical_name_systematic        
(E)-N-(2-(1,2-Diphenylvinyl)-3-phenyl-1H-inden-1-yl)-4-methylbenzenesulfonamide
_symmetry_cell_setting           monoclinic
_symmetry_space_group_name_H-M   'C 2/c'
_symmetry_Int_Tables_number      15
_space_group_name_Hall           '-C 2yn'
loop_
_symmetry_equiv_pos_site_id
_symmetry_equiv_pos_as_xyz
1 x,y,z
2 -x,y,1/2-z
3 1/2+x,1/2+y,z
4 1/2-x,1/2+y,1/2-z
5 -x,-y,-z
6 x,-y,1/2+z
7 1/2-x,1/2-y,-z
8 1/2+x,1/2-y,1/2+z
_cell_length_a                   21.5239(14)
_cell_length_b                   10.7271(7)
_cell_length_c                   26.8898(18)
_cell_angle_alpha                90
_cell_angle_beta                 113.0170(10)
_cell_angle_gamma                90
_cell_volume                     5714.29
_exptl_crystal_colour            colorless
_exptl_crystal_description       prismatic
_chemical_melting_point          162-164deg.C
_cell_formula_units_Z            8
loop_
_atom_site_label
_atom_site_type_symbol
_atom_site_fract_x
_atom_site_fract_y
_atom_site_fract_z
S1 S 0.26811(2) 0.93520(4) 0.038202(18)
O1 O 0.24209(8) 0.89638(12) -0.01699(5)
O2 O 0.33956(7) 0.94582(12) 0.06643(6)
N1 N 0.23532(7) 0.83851(14) 0.06813(6)
C1 C 0.21101(8) 0.80235(14) 0.15037(6)
C2 C 0.26385(8) 0.83276(15) 0.12740(6)
H1 H 0.2838 0.9140 0.1415
C3 C 0.31680(9) 0.73317(16) 0.15235(7)
C4 C 0.37641(11) 0.7114(2) 0.14632(9)
H2 H 0.3892 0.7607 0.1235
C5 C 0.41700(12) 0.6141(3) 0.17514(11)
H3 H 0.4566 0.5957 0.1705
C6 C 0.39930(12) 0.5446(2) 0.21053(10)
H4 H 0.4279 0.4816 0.2304
C7 C 0.33989(10) 0.56664(17) 0.21709(8)
H5 H 0.3283 0.5197 0.2412
C8 C 0.29783(9) 0.66055(15) 0.18681(7)
C9 C 0.23203(9) 0.70418(14) 0.18464(6)
C10 C 0.14770(8) 0.87351(15) 0.13547(6)
C11 C 0.14821(9) 0.99870(15) 0.13283(7)
H6 H 0.1907 1.0351 0.1440
C12 C 0.09108(9) 1.08582(15) 0.11478(7)
C13 C 0.03098(10) 1.06173(17) 0.07139(8)
H7 H 0.0246 0.9846 0.0543
C14 C -0.01956(11) 1.15002(19) 0.05307(9)
H8 H -0.0591 1.1327 0.0234
C15 C -0.01166(11) 1.26365(19) 0.07867(10)
H9 H -0.0460 1.3226 0.0667
C16 C 0.04724(12) 1.28927(18) 0.12193(9)
H10 H 0.0529 1.3657 0.1395
C17 C 0.09804(11) 1.20162(16) 0.13940(8)
H11 H 0.1380 1.2205 0.1684
C18 C 0.19786(9) 0.65013(16) 0.21770(7)
C19 C 0.18138(11) 0.52506(18) 0.21499(8)
H12 H 0.1937 0.4724 0.1929
C20 C 0.14699(12) 0.4773(2) 0.24452(9)
H13 H 0.1359 0.3931 0.2420
C21 C 0.12919(12) 0.5536(3) 0.27761(10)
H14 H 0.1054 0.5217 0.2971
C22 C 0.14650(14) 0.6768(2) 0.28185(9)
H15 H 0.1351 0.7286 0.3047
C23 C 0.18093(12) 0.72454(19) 0.25231(8)
H16 H 0.1929 0.8084 0.2558
C24 C 0.08552(9) 0.79889(15) 0.12472(7)
C25 C 0.07151(10) 0.69750(16) 0.09016(9)
H17 H 0.0996 0.6793 0.0722
C26 C 0.01633(12) 0.6236(2) 0.08219(11)
H18 H 0.0073 0.5563 0.0586
C27 C -0.02507(13) 0.6472(3) 0.10796(14)
H19 H -0.0617 0.5953 0.1029
C28 C -0.01271(13) 0.7484(3) 0.14165(13)
H20 H -0.0416 0.7663 0.1589
C29 C 0.04253(11) 0.8242(2) 0.15009(9)
H21 H 0.0506 0.8926 0.1730
C30 C 0.23336(9) 1.08039(15) 0.04305(7)
C31 C 0.16560(10) 1.10150(19) 0.01550(9)
H22 H 0.1377 1.0392 -0.0057
C32 C 0.13948(12) 1.2169(2) 0.01979(11)
H23 H 0.0935 1.2313 0.0014
C33 C 0.17958(13) 1.31076(18) 0.05041(9)
C34 C 0.24694(14) 1.2880(2) 0.07637(10)
H24 H 0.2751 1.3510 0.0967
C35 C 0.27408(11) 1.17355(18) 0.07305(9)
H25 H 0.3201 1.1597 0.0912
C36 C 0.14995(16) 1.4351(2) 0.05553(12)
H26 H 0.1852 1.4890 0.0783
H27 H 0.1172 1.4233 0.0712
H28 H 0.1286 1.4721 0.0204
H29 H 0.2294(9) 0.7707(17) 0.0533(7)
loop_
_geom_bond_atom_site_label_1
_geom_bond_atom_site_label_2
_geom_bond_site_symmetry_1
_geom_bond_site_symmetry_2
S1 O1 1_555 1_555
O2 S1 1_555 1_555
N1 S1 1_555 1_555
C1 C2 1_555 1_555
C2 N1 1_555 1_555
H1 C2 1_555 1_555
C3 C2 1_555 1_555
C4 C3 1_555 1_555
H2 C4 1_555 1_555
C5 C4 1_555 1_555
H3 C5 1_555 1_555
C6 C5 1_555 1_555
H4 C6 1_555 1_555
C7 C6 1_555 1_555
H5 C7 1_555 1_555
C8 C3 1_555 1_555
C9 C1 1_555 1_555
C10 C1 1_555 1_555
C11 C10 1_555 1_555
H6 C11 1_555 1_555
C12 C11 1_555 1_555
C13 C12 1_555 1_555
H7 C13 1_555 1_555
C14 C13 1_555 1_555
H8 C14 1_555 1_555
C15 C14 1_555 1_555
H9 C15 1_555 1_555
C16 C15 1_555 1_555
H10 C16 1_555 1_555
C17 C12 1_555 1_555
H11 C17 1_555 1_555
C18 C9 1_555 1_555
C19 C18 1_555 1_555
H12 C19 1_555 1_555
C20 C19 1_555 1_555
H13 C20 1_555 1_555
C21 C20 1_555 1_555
H14 C21 1_555 1_555
C22 C21 1_555 1_555
H15 C22 1_555 1_555
C23 C18 1_555 1_555
H16 C23 1_555 1_555
C24 C10 1_555 1_555
C25 C24 1_555 1_555
H17 C25 1_555 1_555
C26 C25 1_555 1_555
H18 C26 1_555 1_555
C27 C26 1_555 1_555
H19 C27 1_555 1_555
C28 C27 1_555 1_555
H20 C28 1_555 1_555
C29 C24 1_555 1_555
H21 C29 1_555 1_555
C30 S1 1_555 1_555
C31 C30 1_555 1_555
H22 C31 1_555 1_555
C32 C31 1_555 1_555
H23 C32 1_555 1_555
C33 C32 1_555 1_555
C34 C33 1_555 1_555
H24 C34 1_555 1_555
C35 C30 1_555 1_555
H25 C35 1_555 1_555
C36 C33 1_555 1_555
H26 C36 1_555 1_555
H27 C36 1_555 1_555
H28 C36 1_555 1_555
H29 N1 1_555 1_555
C7 C8 1_555 1_555
C8 C9 1_555 1_555
C16 C17 1_555 1_555
C22 C23 1_555 1_555
C28 C29 1_555 1_555
C34 C35 1_555 1_555

#END
