
#######################################################################
#
#                 Cambridge Crystallographic Data Centre
#                                CCDC 
#
#######################################################################
#
# If this CIF has been generated from an entry in the Cambridge 
# Structural Database, then it will include bibliographic, chemical, 
# crystal, experimental, refinement or atomic coordinate data resulting 
# from the CCDC's data processing and validation procedures.
#
#######################################################################

data_RUSGUI
_chemical_formula_moiety         'C36 H31 N1 O3 S1'
_chemical_name_systematic        
4-Methyl-N-(2-phenyl-2-((1,1,3-triphenylprop-2-yn-1-yl)oxy)ethyl)benzenesulfonamide
_symmetry_cell_setting           monoclinic
_symmetry_space_group_name_H-M   'P 21/c'
_symmetry_Int_Tables_number      14
_space_group_name_Hall           '-P 2ybc'
loop_
_symmetry_equiv_pos_site_id
_symmetry_equiv_pos_as_xyz
1 x,y,z
2 -x,1/2+y,1/2-z
3 -x,-y,-z
4 x,1/2-y,1/2+z
_cell_length_a                   14.1643(18)
_cell_length_b                   10.3010(13)
_cell_length_c                   20.838(3)
_cell_angle_alpha                90
_cell_angle_beta                 103.915(2)
_cell_angle_gamma                90
_cell_volume                     2951.17
_exptl_crystal_colour            colorless
_exptl_crystal_description       prismatic
_chemical_melting_point          154-156deg.C
_cell_formula_units_Z            4
loop_
_atom_site_label
_atom_site_type_symbol
_atom_site_fract_x
_atom_site_fract_y
_atom_site_fract_z
S1 S 0.21984(4) 0.90381(7) 0.07439(4)
O1 O 0.21167(8) 0.59853(13) 0.19821(6)
O2 O 0.26069(12) 1.01651(19) 0.11127(11)
O3 O 0.22143(12) 0.8888(2) 0.00713(9)
N1 N 0.27894(14) 0.7803(2) 0.11250(11)
C1 C 0.18924(13) 0.46642(19) 0.17698(9)
C2 C 0.31128(13) 0.6376(2) 0.20977(9)
H1 H 0.3452 0.5814 0.1847
C3 C 0.30981(15) 0.7758(2) 0.18422(10)
H2 H 0.2658 0.8275 0.2029
H3 H 0.3744 0.8130 0.1985
C4 C 0.36261(13) 0.63282(19) 0.28217(9)
C5 C 0.46314(14) 0.6242(2) 0.30036(11)
H4 H 0.4977 0.6173 0.2678
C6 C 0.51254(17) 0.6256(2) 0.36572(14)
H5 H 0.5800 0.6199 0.3772
C7 C 0.4626(2) 0.6352(3) 0.41357(12)
H6 H 0.4959 0.6363 0.4578
C8 C 0.36324(19) 0.6434(2) 0.39676(11)
H7 H 0.3292 0.6498 0.4297
C9 C 0.31365(14) 0.6423(2) 0.33149(10)
H8 H 0.2461 0.6479 0.3205
C10 C 0.25078(14) 0.3748(2) 0.22290(9)
C11 C 0.30014(14) 0.3021(2) 0.26081(10)
C12 C 0.35892(13) 0.2142(2) 0.30777(9)
C13 C 0.42784(15) 0.2622(3) 0.36106(11)
H9 H 0.4370 0.3513 0.3668
C14 C 0.48319(17) 0.1761(3) 0.40586(12)
H10 H 0.5301 0.2072 0.4418
C15 C 0.4689(2) 0.0454(3) 0.39726(14)
H11 H 0.5054 -0.0118 0.4279
C16 C 0.40203(19) -0.0017(3) 0.34441(14)
H12 H 0.3935 -0.0908 0.3385
C17 C 0.34725(16) 0.0826(2) 0.29984(11)
H13 H 0.3015 0.0502 0.2637
C18 C 0.08260(13) 0.4455(2) 0.17825(9)
C19 C 0.04374(15) 0.3222(2) 0.16859(10)
H14 H 0.0826 0.2532 0.1618
C20 C -0.05249(16) 0.3003(3) 0.16899(11)
H15 H -0.0781 0.2169 0.1624
C21 C -0.11020(16) 0.4015(3) 0.17905(11)
H16 H -0.1747 0.3867 0.1797
C22 C -0.07273(14) 0.5240(3) 0.18816(10)
H17 H -0.1121 0.5925 0.1947
C23 C 0.02407(14) 0.5472(2) 0.18783(9)
H18 H 0.0491 0.6310 0.1941
C24 C 0.20316(14) 0.4530(2) 0.10689(9)
C25 C 0.14009(15) 0.5190(2) 0.05593(10)
H19 H 0.0860 0.5610 0.0640
C26 C 0.15681(18) 0.5228(3) -0.00621(10)
H20 H 0.1147 0.5685 -0.0397
C27 C 0.23560(18) 0.4593(3) -0.01925(11)
H21 H 0.2476 0.4634 -0.0612
C28 C 0.29632(16) 0.3899(3) 0.03003(12)
H22 H 0.3487 0.3450 0.0212
C29 C 0.27999(15) 0.3866(2) 0.09271(10)
H23 H 0.3214 0.3389 0.1257
C30 C 0.09860(15) 0.8911(2) 0.07914(10)
C31 C 0.07177(18) 0.9348(2) 0.13534(11)
H24 H 0.1177 0.9729 0.1697
C32 C -0.02208(18) 0.9217(2) 0.13991(11)
H25 H -0.0389 0.9491 0.1782
C33 C -0.09255(16) 0.8689(2) 0.08956(11)
C34 C -0.06495(15) 0.8268(2) 0.03393(10)
H26 H -0.1113 0.7901 -0.0006
C35 C 0.02934(15) 0.8378(2) 0.02841(10)
H27 H 0.0463 0.8091 -0.0096
C36 C -0.19588(17) 0.8590(3) 0.09516(13)
H28 H -0.2066 0.9195 0.1277
H29 H -0.2083 0.7724 0.1081
H30 H -0.2390 0.8786 0.0532
H31 H 0.267(2) 0.713(2) 0.0919(13)
loop_
_geom_bond_atom_site_label_1
_geom_bond_atom_site_label_2
_geom_bond_site_symmetry_1
_geom_bond_site_symmetry_2
S1 O2 1_555 1_555
O1 C1 1_555 1_555
O3 S1 1_555 1_555
N1 S1 1_555 1_555
C1 C10 1_555 1_555
C2 O1 1_555 1_555
H1 C2 1_555 1_555
C3 N1 1_555 1_555
H2 C3 1_555 1_555
H3 C3 1_555 1_555
C4 C2 1_555 1_555
C5 C4 1_555 1_555
H4 C5 1_555 1_555
C6 C5 1_555 1_555
H5 C6 1_555 1_555
C7 C6 1_555 1_555
H6 C7 1_555 1_555
C8 C7 1_555 1_555
H7 C8 1_555 1_555
C9 C4 1_555 1_555
H8 C9 1_555 1_555
C10 C11 1_555 1_555
C11 C12 1_555 1_555
C12 C13 1_555 1_555
C13 H9 1_555 1_555
C14 C13 1_555 1_555
H10 C14 1_555 1_555
C15 C14 1_555 1_555
H11 C15 1_555 1_555
C16 C15 1_555 1_555
H12 C16 1_555 1_555
C17 C12 1_555 1_555
H13 C17 1_555 1_555
C18 C1 1_555 1_555
C19 C18 1_555 1_555
H14 C19 1_555 1_555
C20 C19 1_555 1_555
H15 C20 1_555 1_555
C21 C20 1_555 1_555
H16 C21 1_555 1_555
C22 C21 1_555 1_555
H17 C22 1_555 1_555
C23 C18 1_555 1_555
H18 C23 1_555 1_555
C24 C1 1_555 1_555
C25 C24 1_555 1_555
H19 C25 1_555 1_555
C26 C25 1_555 1_555
H20 C26 1_555 1_555
C27 C26 1_555 1_555
H21 C27 1_555 1_555
C28 C27 1_555 1_555
H22 C28 1_555 1_555
C29 C24 1_555 1_555
H23 C29 1_555 1_555
C30 S1 1_555 1_555
C31 C30 1_555 1_555
H24 C31 1_555 1_555
C32 C31 1_555 1_555
H25 C32 1_555 1_555
C33 C32 1_555 1_555
C34 C33 1_555 1_555
H26 C34 1_555 1_555
C35 C30 1_555 1_555
H27 C35 1_555 1_555
C36 C33 1_555 1_555
H28 C36 1_555 1_555
H29 C36 1_555 1_555
H30 C36 1_555 1_555
H31 N1 1_555 1_555
C2 C3 1_555 1_555
C8 C9 1_555 1_555
C16 C17 1_555 1_555
C22 C23 1_555 1_555
C28 C29 1_555 1_555
C34 C35 1_555 1_555

#END
