
#######################################################################
#
#                 Cambridge Crystallographic Data Centre
#                                CCDC 
#
#######################################################################
#
# If this CIF has been generated from an entry in the Cambridge 
# Structural Database, then it will include bibliographic, chemical, 
# crystal, experimental, refinement or atomic coordinate data resulting 
# from the CCDC's data processing and validation procedures.
#
#######################################################################

data_RUSHAP
_chemical_formula_moiety         'C36 H29 N1 O2 S1'
_chemical_name_systematic        
(E)-N-((E)-2-(Diphenylmethylene)-3,4-diphenylbut-3-en-1-ylidene)-4-methylbenzenesulfonamide
_symmetry_cell_setting           triclinic
_symmetry_space_group_name_H-M   'P -1'
_symmetry_Int_Tables_number      2
_space_group_name_Hall           '-P 1'
loop_
_symmetry_equiv_pos_site_id
_symmetry_equiv_pos_as_xyz
1 x,y,z
2 -x,-y,-z
_cell_length_a                   10.4922(13)
_cell_length_b                   11.4291(14)
_cell_length_c                   12.9158(15)
_cell_angle_alpha                88.416(2)
_cell_angle_beta                 70.878(2)
_cell_angle_gamma                84.564(2)
_cell_volume                     1456.77
_exptl_crystal_colour            colorless
_exptl_crystal_description       prismatic
_chemical_melting_point          165-167deg.C
_cell_formula_units_Z            2
loop_
_atom_site_label
_atom_site_type_symbol
_atom_site_fract_x
_atom_site_fract_y
_atom_site_fract_z
S1 S 0.77404(6) 0.01327(5) 0.00247(4)
N1 N 0.76610(17) 0.06288(15) 0.12315(12)
O1 O 0.65756(18) 0.06860(16) -0.01713(14)
O2 O 0.90410(17) 0.03495(16) -0.07079(12)
C1 C 0.75416(19) -0.00456(17) 0.20516(14)
H1 H 0.7564 -0.0852 0.1958
C2 C 0.73697(19) 0.04204(16) 0.31430(14)
C3 C 0.75506(19) -0.03250(16) 0.39322(15)
C4 C 0.7019(2) 0.17194(16) 0.32934(14)
C5 C 0.5895(2) 0.21815(17) 0.31180(15)
H2 H 0.5361 0.1620 0.3016
C6 C 0.5322(2) 0.33973(18) 0.30523(16)
C7 C 0.5871(3) 0.4392(2) 0.3221(2)
H3 H 0.6653 0.4319 0.3417
C8 C 0.5274(3) 0.5506(2) 0.3103(3)
H4 H 0.5658 0.6168 0.3224
C9 C 0.4143(3) 0.5634(2) 0.2816(2)
H5 H 0.3749 0.6380 0.2738
C10 C 0.3580(3) 0.4661(2) 0.2640(2)
H6 H 0.2802 0.4741 0.2439
C11 C 0.4175(2) 0.3554(2) 0.2763(2)
H7 H 0.3782 0.2896 0.2645
C12 C 0.8083(2) 0.23340(16) 0.35289(15)
C13 C 0.7885(2) 0.28951(18) 0.45145(17)
H8 H 0.7027 0.2971 0.5038
C14 C 0.8955(3) 0.3342(2) 0.4724(2)
H9 H 0.8816 0.3698 0.5396
C15 C 1.0214(3) 0.3265(2) 0.3956(2)
H10 H 1.0928 0.3571 0.4102
C16 C 1.0421(3) 0.2738(2) 0.2974(2)
H11 H 1.1273 0.2698 0.2443
C17 C 0.9370(2) 0.2264(2) 0.2766(2)
H12 H 0.9529 0.1890 0.2100
C18 C 0.7210(2) 0.00515(16) 0.50923(15)
C19 C 0.8082(3) -0.0287(2) 0.56714(18)
H13 H 0.8878 -0.0757 0.5336
C20 C 0.7778(3) 0.0067(2) 0.6745(2)
H14 H 0.8380 -0.0153 0.7122
C21 C 0.6597(3) 0.0741(2) 0.7261(2)
H15 H 0.6401 0.0982 0.7982
C22 C 0.5707(3) 0.10542(19) 0.67056(17)
H16 H 0.4894 0.1494 0.7056
C23 C 0.6016(2) 0.07189(17) 0.56288(15)
H17 H 0.5411 0.0945 0.5256
C24 C 0.8123(2) -0.15570(17) 0.36807(15)
C25 C 0.7464(2) -0.24718(18) 0.43001(18)
H18 H 0.6674 -0.2304 0.4887
C26 C 0.7970(3) -0.3617(2) 0.4052(2)
H19 H 0.7514 -0.4220 0.4465
C27 C 0.9132(4) -0.3876(2) 0.3206(3)
H20 H 0.9459 -0.4656 0.3035
C28 C 0.9822(3) -0.2993(3) 0.2604(2)
H21 H 1.0628 -0.3173 0.2036
C29 C 0.9320(2) -0.1827(2) 0.28405(17)
H22 H 0.9792 -0.1228 0.2432
C30 C 0.7620(2) -0.1394(2) 0.00827(16)
C31 C 0.8703(2) -0.2160(2) 0.01352(19)
H23 H 0.9499 -0.1872 0.0144
C32 C 0.8589(3) -0.3349(3) 0.0174(2)
H24 H 0.9313 -0.3861 0.0218
C33 C 0.7423(3) -0.3801(3) 0.0151(2)
C34 C 0.6370(3) -0.3031(3) 0.0099(2)
H25 H 0.5580 -0.3321 0.0079
C35 C 0.6449(3) -0.1828(3) 0.0074(2)
H26 H 0.5713 -0.1318 0.0052
C36 C 0.7318(4) -0.5115(3) 0.0178(3)
H27 H 0.6389 -0.5265 0.0336
H28 H 0.7651 -0.5462 0.0737
H29 H 0.7849 -0.5451 -0.0521
loop_
_geom_bond_atom_site_label_1
_geom_bond_atom_site_label_2
_geom_bond_site_symmetry_1
_geom_bond_site_symmetry_2
S1 N1 1_555 1_555
N1 C1 1_555 1_555
O1 S1 1_555 1_555
O2 S1 1_555 1_555
C1 H1 1_555 1_555
C2 C1 1_555 1_555
C3 C2 1_555 1_555
C4 C2 1_555 1_555
C5 C4 1_555 1_555
H2 C5 1_555 1_555
C6 C5 1_555 1_555
C7 C6 1_555 1_555
H3 C7 1_555 1_555
C8 C7 1_555 1_555
H4 C8 1_555 1_555
C9 C8 1_555 1_555
H5 C9 1_555 1_555
C10 C9 1_555 1_555
H6 C10 1_555 1_555
C11 C6 1_555 1_555
H7 C11 1_555 1_555
C12 C4 1_555 1_555
C13 C12 1_555 1_555
H8 C13 1_555 1_555
C14 C13 1_555 1_555
H9 C14 1_555 1_555
C15 C14 1_555 1_555
H10 C15 1_555 1_555
C16 C15 1_555 1_555
H11 C16 1_555 1_555
C17 C12 1_555 1_555
H12 C17 1_555 1_555
C18 C3 1_555 1_555
C19 C18 1_555 1_555
H13 C19 1_555 1_555
C20 C19 1_555 1_555
H14 C20 1_555 1_555
C21 C20 1_555 1_555
H15 C21 1_555 1_555
C22 C21 1_555 1_555
H16 C22 1_555 1_555
C23 C18 1_555 1_555
H17 C23 1_555 1_555
C24 C3 1_555 1_555
C25 C24 1_555 1_555
H18 C25 1_555 1_555
C26 C25 1_555 1_555
H19 C26 1_555 1_555
C27 C26 1_555 1_555
H20 C27 1_555 1_555
C28 C27 1_555 1_555
H21 C28 1_555 1_555
C29 C24 1_555 1_555
H22 C29 1_555 1_555
C30 S1 1_555 1_555
C31 C30 1_555 1_555
H23 C31 1_555 1_555
C32 C31 1_555 1_555
H24 C32 1_555 1_555
C33 C32 1_555 1_555
C34 C33 1_555 1_555
H25 C34 1_555 1_555
C35 C30 1_555 1_555
H26 C35 1_555 1_555
C36 C33 1_555 1_555
H27 C36 1_555 1_555
H28 C36 1_555 1_555
H29 C36 1_555 1_555
C10 C11 1_555 1_555
C16 C17 1_555 1_555
C22 C23 1_555 1_555
C28 C29 1_555 1_555
C34 C35 1_555 1_555

#END
