
#######################################################################
#
#                 Cambridge Crystallographic Data Centre
#                                CCDC 
#
#######################################################################
#
# If this CIF has been generated from an entry in the Cambridge 
# Structural Database, then it will include bibliographic, chemical, 
# crystal, experimental, refinement or atomic coordinate data resulting 
# from the CCDC's data processing and validation procedures.
#
#######################################################################

data_RUSHET
_chemical_formula_moiety         'C29 H20'
_chemical_name_systematic        6,11b-Diphenyl-11bH-benzo[c]fluorene
_symmetry_cell_setting           triclinic
_symmetry_space_group_name_H-M   'P -1'
_symmetry_Int_Tables_number      2
_space_group_name_Hall           '-P 1'
loop_
_symmetry_equiv_pos_site_id
_symmetry_equiv_pos_as_xyz
1 x,y,z
2 -x,-y,-z
_cell_length_a                   8.8382(9)
_cell_length_b                   9.7835(10)
_cell_length_c                   12.0361(12)
_cell_angle_alpha                77.648(2)
_cell_angle_beta                 76.495(2)
_cell_angle_gamma                79.917(2)
_cell_volume                     979.928
_exptl_crystal_colour            green
_exptl_crystal_description       prismatic
_chemical_melting_point          226-228deg.C
_cell_formula_units_Z            2
loop_
_atom_site_label
_atom_site_type_symbol
_atom_site_fract_x
_atom_site_fract_y
_atom_site_fract_z
C1 C 0.21430(18) -0.09652(14) 0.29541(12)
C2 C 0.2821(2) -0.23688(15) 0.29625(14)
H1 H 0.3662 -0.2725 0.3329
C3 C 0.2249(2) -0.32314(16) 0.24280(16)
H2 H 0.2719 -0.4159 0.2426
C4 C 0.0999(2) -0.27270(18) 0.19039(17)
H3 H 0.0592 -0.3322 0.1574
C5 C 0.0336(2) -0.13307(16) 0.18637(14)
H4 H -0.0507 -0.0992 0.1497
C6 C 0.09092(17) -0.04334(14) 0.23611(12)
C7 C 0.03558(16) 0.11474(14) 0.22344(11)
C8 C 0.03886(16) 0.15850(13) 0.33717(11)
C9 C 0.17922(16) 0.11205(13) 0.38618(11)
C10 C 0.26534(18) -0.00888(14) 0.35950(12)
H5 H 0.3609 -0.0373 0.3829
C11 C -0.10181(17) 0.22223(14) 0.38191(12)
H6 H -0.1255 0.2576 0.4507
C12 C -0.21265(17) 0.22853(14) 0.30829(13)
C13 C -0.13485(17) 0.16404(14) 0.21382(13)
C14 C -0.2118(2) 0.16061(18) 0.12769(15)
H7 H -0.1591 0.1219 0.0628
C15 C -0.3688(2) 0.2156(2) 0.13904(19)
H8 H -0.4222 0.2122 0.0818
C16 C -0.4469(2) 0.27505(19) 0.23340(19)
H9 H -0.5529 0.3098 0.2401
C17 C -0.37021(19) 0.28400(17) 0.31847(16)
H10 H -0.4228 0.3263 0.3815
C18 C 0.21639(18) 0.19219(14) 0.46578(12)
C19 C 0.28845(19) 0.12444(16) 0.55759(12)
H11 H 0.3143 0.0268 0.5694
C20 C 0.3221(2) 0.1998(2) 0.63135(14)
H12 H 0.3695 0.1528 0.6928
C21 C 0.2857(2) 0.3442(2) 0.61439(16)
H13 H 0.3084 0.3953 0.6640
C22 C 0.2158(2) 0.41216(18) 0.52375(17)
H14 H 0.1924 0.5100 0.5113
C23 C 0.1796(2) 0.33749(16) 0.45095(14)
H15 H 0.1299 0.3852 0.3910
C24 C 0.14447(16) 0.19569(14) 0.12021(11)
C25 C 0.1278(2) 0.34171(16) 0.10283(14)
H16 H 0.0527 0.3892 0.1544
C26 C 0.2204(2) 0.41761(18) 0.01064(15)
H17 H 0.2069 0.5156 0.0006
C27 C 0.3326(2) 0.3504(2) -0.06677(14)
H18 H 0.3955 0.4020 -0.1288
C28 C 0.3502(2) 0.2062(2) -0.05117(13)
H19 H 0.4250 0.1595 -0.1034
C29 C 0.25746(17) 0.12945(16) 0.04194(12)
H20 H 0.2717 0.0315 0.0518
loop_
_geom_bond_atom_site_label_1
_geom_bond_atom_site_label_2
_geom_bond_site_symmetry_1
_geom_bond_site_symmetry_2
C1 C2 1_555 1_555
C2 H1 1_555 1_555
C3 C2 1_555 1_555
H2 C3 1_555 1_555
C4 C3 1_555 1_555
H3 C4 1_555 1_555
C5 C4 1_555 1_555
H4 C5 1_555 1_555
C6 C1 1_555 1_555
C7 C6 1_555 1_555
C8 C7 1_555 1_555
C9 C8 1_555 1_555
C10 C1 1_555 1_555
H5 C10 1_555 1_555
C11 C8 1_555 1_555
H6 C11 1_555 1_555
C12 C11 1_555 1_555
C13 C7 1_555 1_555
C14 C13 1_555 1_555
H7 C14 1_555 1_555
C15 C14 1_555 1_555
H8 C15 1_555 1_555
C16 C15 1_555 1_555
H9 C16 1_555 1_555
C17 C12 1_555 1_555
H10 C17 1_555 1_555
C18 C9 1_555 1_555
C19 C18 1_555 1_555
H11 C19 1_555 1_555
C20 C19 1_555 1_555
H12 C20 1_555 1_555
C21 C20 1_555 1_555
H13 C21 1_555 1_555
C22 C21 1_555 1_555
H14 C22 1_555 1_555
C23 C18 1_555 1_555
H15 C23 1_555 1_555
C24 C7 1_555 1_555
C25 C24 1_555 1_555
H16 C25 1_555 1_555
C26 C25 1_555 1_555
H17 C26 1_555 1_555
C27 C26 1_555 1_555
H18 C27 1_555 1_555
C28 C27 1_555 1_555
H19 C28 1_555 1_555
C29 C24 1_555 1_555
H20 C29 1_555 1_555
C5 C6 1_555 1_555
C9 C10 1_555 1_555
C12 C13 1_555 1_555
C16 C17 1_555 1_555
C22 C23 1_555 1_555
C28 C29 1_555 1_555

#END
