
#######################################################################
#
#                 Cambridge Crystallographic Data Centre
#                                CCDC 
#
#######################################################################
#
# If this CIF has been generated from an entry in the Cambridge 
# Structural Database, then it will include bibliographic, chemical, 
# crystal, experimental, refinement or atomic coordinate data resulting 
# from the CCDC's data processing and validation procedures.
#
#######################################################################

data_RUSHIX
_chemical_formula_moiety         'C36 H27 N1 O2 S1'
_chemical_name_systematic        
(E)-N-(2-(E)-(1,2-Diphenylvinyl)-3-phenyl-1H-inden-1-ylidene)-4-methylbenzenesulfonamide
_symmetry_cell_setting           monoclinic
_symmetry_space_group_name_H-M   'P 21/c'
_symmetry_Int_Tables_number      14
_space_group_name_Hall           '-P 2ybc'
loop_
_symmetry_equiv_pos_site_id
_symmetry_equiv_pos_as_xyz
1 x,y,z
2 -x,1/2+y,1/2-z
3 -x,-y,-z
4 x,1/2-y,1/2+z
_cell_length_a                   13.9715(6)
_cell_length_b                   12.9265(6)
_cell_length_c                   16.0665(9)
_cell_angle_alpha                90
_cell_angle_beta                 105.4216(16)
_cell_angle_gamma                90
_cell_volume                     2797.18
_exptl_crystal_colour            brown
_exptl_crystal_description       chunk
_chemical_melting_point          191-193deg.C
_cell_formula_units_Z            4
loop_
_atom_site_label
_atom_site_type_symbol
_atom_site_fract_x
_atom_site_fract_y
_atom_site_fract_z
S1 S 0.60027(4) 0.68656(3) 0.54818(3)
O1 O 0.52104(10) 0.70571(10) 0.47167(9)
O2 O 0.66557(11) 0.77025(9) 0.58300(10)
N1 N 0.66290(10) 0.58373(9) 0.53269(9)
C1 C 0.71751(11) 0.57961(11) 0.47943(11)
C2 C 0.77028(12) 0.48211(11) 0.47073(11)
C3 C 0.82434(12) 0.49685(12) 0.41279(11)
C4 C 0.80731(12) 0.60346(12) 0.37765(11)
C5 C 0.84673(12) 0.65528(13) 0.31953(12)
C6 C 0.81940(14) 0.75819(14) 0.30022(13)
C7 C 0.75657(13) 0.80804(13) 0.33940(12)
C8 C 0.71667(12) 0.75662(12) 0.39888(12)
C9 C 0.74240(12) 0.65485(12) 0.41772(11)
C10 C 0.54950(12) 0.63991(12) 0.63054(11)
C11 C 0.53402(12) 0.70977(13) 0.69050(12)
C12 C 0.48809(13) 0.67792(16) 0.75212(12)
C13 C 0.45729(12) 0.57728(16) 0.75560(12)
C14 C 0.47424(13) 0.50837(14) 0.69511(13)
C15 C 0.52007(13) 0.53851(13) 0.63271(12)
C16 C 0.40674(17) 0.5431(2) 0.82335(16)
C17 C 0.76148(11) 0.38519(11) 0.51694(11)
C18 C 0.78341(12) 0.39018(11) 0.61252(11)
C19 C 0.85914(12) 0.45241(12) 0.66007(12)
C20 C 0.87676(14) 0.46137(13) 0.74863(12)
C21 C 0.81763(16) 0.40942(14) 0.79120(12)
C22 C 0.74158(14) 0.34841(14) 0.74479(12)
C23 C 0.72455(12) 0.33821(12) 0.65646(12)
C24 C 0.73598(12) 0.29931(12) 0.46954(12)
C25 C 0.74500(12) 0.19017(12) 0.49826(11)
C26 C 0.66890(13) 0.11950(12) 0.47035(13)
C27 C 0.68203(17) 0.01607(14) 0.49341(16)
C28 C 0.77108(18) -0.01836(13) 0.54303(14)
C29 C 0.84799(17) 0.04950(14) 0.57015(14)
C30 C 0.83436(16) 0.15387(13) 0.54827(12)
C31 C 0.89302(12) 0.42102(12) 0.39052(11)
C32 C 0.96135(12) 0.36924(12) 0.45615(12)
C33 C 1.02416(12) 0.29475(12) 0.43725(13)
C34 C 1.01904(14) 0.27194(13) 0.35295(14)
C35 C 0.95281(14) 0.32274(14) 0.28736(12)
C36 C 0.89037(12) 0.39754(12) 0.30573(12)
H1 H 0.8906 0.6224 0.2937
H2 H 0.8443 0.7935 0.2601
H3 H 0.7403 0.8770 0.3262
H4 H 0.6737 0.7904 0.4252
H5 H 0.5545 0.7781 0.6894
H6 H 0.4777 0.7255 0.7922
H7 H 0.4542 0.4399 0.6965
H8 H 0.5309 0.4910 0.5927
H9 H 0.8988 0.4888 0.6319
H10 H 0.9287 0.5026 0.7796
H11 H 0.8291 0.4156 0.8507
H12 H 0.7011 0.3136 0.7731
H13 H 0.6731 0.2961 0.6260
H14 H 0.7090 0.3097 0.4107
H15 H 0.6080 0.1417 0.4356
H16 H 0.6296 -0.0301 0.4749
H17 H 0.7795 -0.0878 0.5584
H18 H 0.9093 0.0262 0.6031
H19 H 0.8867 0.1998 0.5679
H20 H 0.9650 0.3847 0.5135
H21 H 1.0695 0.2605 0.4817
H22 H 1.0607 0.2218 0.3401
H23 H 0.9498 0.3069 0.2302
H24 H 0.8463 0.4323 0.2608
H25 H 0.3494 0.5855 0.8198
H26 H 0.4520 0.5501 0.8796
H27 H 0.3867 0.4722 0.8136
loop_
_geom_bond_atom_site_label_1
_geom_bond_atom_site_label_2
_geom_bond_site_symmetry_1
_geom_bond_site_symmetry_2
S1 O1 1_555 1_555
O2 S1 1_555 1_555
N1 S1 1_555 1_555
C1 N1 1_555 1_555
C2 C1 1_555 1_555
C3 C2 1_555 1_555
C4 C3 1_555 1_555
C5 C4 1_555 1_555
C6 C5 1_555 1_555
C7 C6 1_555 1_555
C8 C7 1_555 1_555
C9 C1 1_555 1_555
C10 S1 1_555 1_555
C11 C10 1_555 1_555
C12 C11 1_555 1_555
C13 C12 1_555 1_555
C14 C13 1_555 1_555
C15 C10 1_555 1_555
C16 C13 1_555 1_555
C17 C2 1_555 1_555
C18 C17 1_555 1_555
C19 C18 1_555 1_555
C20 C19 1_555 1_555
C21 C20 1_555 1_555
C22 C21 1_555 1_555
C23 C18 1_555 1_555
C24 C17 1_555 1_555
C25 C24 1_555 1_555
C26 C25 1_555 1_555
C27 C26 1_555 1_555
C28 C27 1_555 1_555
C29 C28 1_555 1_555
C30 C25 1_555 1_555
C31 C3 1_555 1_555
C32 C31 1_555 1_555
C33 C32 1_555 1_555
C34 C33 1_555 1_555
C35 C34 1_555 1_555
C36 C31 1_555 1_555
H1 C5 1_555 1_555
H2 C6 1_555 1_555
H3 C7 1_555 1_555
H4 C8 1_555 1_555
H5 C11 1_555 1_555
H6 C12 1_555 1_555
H7 C14 1_555 1_555
H8 C15 1_555 1_555
H9 C19 1_555 1_555
H10 C20 1_555 1_555
H11 C21 1_555 1_555
H12 C22 1_555 1_555
H13 C23 1_555 1_555
H14 C24 1_555 1_555
H15 C26 1_555 1_555
H16 C27 1_555 1_555
H17 C28 1_555 1_555
H18 C29 1_555 1_555
H19 C30 1_555 1_555
H20 C32 1_555 1_555
H21 C33 1_555 1_555
H22 C34 1_555 1_555
H23 C35 1_555 1_555
H24 C36 1_555 1_555
H25 C16 1_555 1_555
H26 C16 1_555 1_555
H27 C16 1_555 1_555
C4 C9 1_555 1_555
C8 C9 1_555 1_555
C14 C15 1_555 1_555
C22 C23 1_555 1_555
C29 C30 1_555 1_555
C35 C36 1_555 1_555

#END
