
#######################################################################
#
#                 Cambridge Crystallographic Data Centre
#                                CCDC 
#
#######################################################################
#
# If this CIF has been generated from an entry in the Cambridge 
# Structural Database, then it will include bibliographic, chemical, 
# crystal, experimental, refinement or atomic coordinate data resulting 
# from the CCDC's data processing and validation procedures.
#
#######################################################################

data_RUSJOG
_chemical_formula_moiety         
'C33 H36 Cl2 N2 P1 1+,C24 B1 F20 1-,0.88(C1 H2 Cl2)'
_chemical_name_systematic        
'2-(dichloro(diphenyl)phosphoranyl)-1,3-dimesityl-4,5-dihydro-1H-imidazol-3-ium tetrakis(pentafluorophenyl)borate dichloromethane solvate'
_symmetry_cell_setting           monoclinic
_symmetry_space_group_name_H-M   'P 21/c'
_symmetry_Int_Tables_number      14
_space_group_name_Hall           '-P 2ybc'
loop_
_symmetry_equiv_pos_site_id
_symmetry_equiv_pos_as_xyz
1 x,y,z
2 -x,1/2+y,1/2-z
3 -x,-y,-z
4 x,1/2-y,1/2+z
_cell_length_a                   17.3386(10)
_cell_length_b                   18.9109(10)
_cell_length_c                   16.8512(10)
_cell_angle_alpha                90
_cell_angle_beta                 99.768(3)
_cell_angle_gamma                90
_cell_volume                     5445.21
_exptl_crystal_colour            colorless
_exptl_crystal_description       block
_cell_formula_units_Z            4
loop_
_atom_site_label
_atom_site_type_symbol
_atom_site_fract_x
_atom_site_fract_y
_atom_site_fract_z
C34 C 0.72224(12) 0.29897(11) 0.86200(12)
C35 C 0.66568(12) 0.34127(12) 0.88806(13)
C36 C 0.62989(12) 0.32483(13) 0.95331(14)
C37 C 0.64981(13) 0.26407(14) 0.99603(13)
C38 C 0.70631(13) 0.22053(13) 0.97411(13)
C39 C 0.74102(12) 0.23918(12) 0.90924(13)
C40 C 0.85901(12) 0.33720(11) 0.84334(12)
C41 C 0.86570(12) 0.39637(11) 0.89318(13)
C42 C 0.93018(13) 0.41262(12) 0.95055(14)
C43 C 0.99418(13) 0.36859(13) 0.95960(14)
C44 C 0.99210(12) 0.30988(12) 0.91104(13)
C45 C 0.92568(12) 0.29493(11) 0.85540(12)
C46 C 0.73319(12) 0.38005(11) 0.72746(12)
C47 C 0.77223(13) 0.43633(12) 0.69819(13)
C48 C 0.73932(16) 0.47898(13) 0.63417(14)
C49 C 0.66365(17) 0.46650(14) 0.59682(14)
C50 C 0.62103(15) 0.41417(14) 0.62501(14)
C51 C 0.65650(13) 0.37252(13) 0.68822(13)
C52 C 0.77757(12) 0.25152(11) 0.72655(12)
C53 C 0.73354(12) 0.19005(12) 0.71637(13)
C54 C 0.73962(13) 0.13880(12) 0.65972(14)
C55 C 0.79231(14) 0.14779(12) 0.60760(13)
C56 C 0.83662(12) 0.20835(12) 0.61350(13)
C57 C 0.82789(12) 0.25791(11) 0.67043(12)
B1 B 0.77253(13) 0.31762(13) 0.78978(14)
F1 F 0.64231(8) 0.40274(7) 0.85043(8)
F2 F 0.57498(8) 0.36824(8) 0.97433(9)
F3 F 0.61506(8) 0.24715(9) 1.05904(8)
F4 F 0.72720(8) 0.16099(8) 1.01558(8)
F5 F 0.79713(7) 0.19488(7) 0.89215(8)
F6 F 0.80401(7) 0.44088(6) 0.88843(8)
F7 F 0.92891(8) 0.46914(7) 0.99863(9)
F8 F 1.05725(8) 0.38199(8) 1.01605(9)
F9 F 1.05504(8) 0.26677(8) 0.91893(9)
F10 F 0.92923(7) 0.23428(7) 0.81355(7)
F11 F 0.84729(8) 0.45126(7) 0.73002(8)
F12 F 0.61185(7) 0.31957(7) 0.71036(8)
F13 F 0.63262(11) 0.50455(10) 0.53105(9)
F14 F 0.54685(9) 0.40263(9) 0.58924(9)
F15 F 0.67875(8) 0.17632(7) 0.76330(8)
F16 F 0.69411(9) 0.08081(8) 0.65397(9)
F17 F 0.79857(9) 0.09933(8) 0.55109(8)
F18 F 0.88723(8) 0.21854(7) 0.56158(8)
F19 F 0.87293(7) 0.31643(6) 0.67197(7)
F20 F 0.78126(10) 0.53117(8) 0.60789(10)
C1 C 0.25692(11) 0.29331(11) 0.67192(12)
C2 C 0.22154(14) 0.24947(13) 0.54263(13)
H1 H 0.1834 0.2102 0.5328
H2 H 0.2529 0.2506 0.4988
C3 C 0.18065(15) 0.31981(13) 0.54962(13)
H3 H 0.1992 0.3562 0.5151
H4 H 0.1232 0.3149 0.5345
C4 C 0.38965(13) 0.23801(12) 0.81707(13)
C5 C 0.37631(16) 0.18489(14) 0.87030(18)
H5 H 0.3250 0.1774 0.8815
C6 C 0.43770(19) 0.14273(15) 0.9071(2)
H6 H 0.4284 0.1079 0.9450
C7 C 0.51160(18) 0.15066(16) 0.8895(2)
H7 H 0.5530 0.1208 0.9139
C8 C 0.52488(16) 0.2020(2) 0.83660(18)
H8 H 0.5760 0.2082 0.8244
C9 C 0.46449(14) 0.24539(16) 0.80046(15)
H9 H 0.4748 0.2808 0.7636
C10 C 0.30232(13) 0.36815(11) 0.85494(12)
C11 C 0.23157(14) 0.39067(13) 0.87498(14)
H10 H 0.1834 0.3743 0.8451
C12 C 0.23184(16) 0.43666(13) 0.93816(14)
H11 H 0.1836 0.4523 0.9515
C13 C 0.30141(16) 0.46054(13) 0.98251(14)
H12 H 0.3007 0.4924 1.0260
C14 C 0.37240(16) 0.43794(13) 0.96346(14)
H13 H 0.4202 0.4537 0.9944
C15 C 0.37322(14) 0.39284(12) 0.89990(14)
H14 H 0.4217 0.3782 0.8861
C16 C 0.32751(12) 0.18450(12) 0.64011(12)
C17 C 0.40214(13) 0.19212(13) 0.62059(14)
C18 C 0.45551(14) 0.13763(14) 0.64394(16)
H15 H 0.5073 0.1421 0.6331
C19 C 0.43543(15) 0.07715(14) 0.68251(16)
C20 C 0.35848(15) 0.06935(13) 0.69395(14)
H16 H 0.3435 0.0271 0.7177
C21 C 0.30271(14) 0.12158(12) 0.67170(13)
C22 C 0.42652(16) 0.25440(15) 0.57615(18)
H17 H 0.4718 0.2773 0.6089
H18 H 0.3831 0.2882 0.5653
H19 H 0.4406 0.2386 0.5251
C23 C 0.49570(18) 0.02059(17) 0.7111(2)
H20 H 0.5031 0.0172 0.7699
H21 H 0.5455 0.0330 0.6945
H22 H 0.4775 -0.0250 0.6873
C24 C 0.21843(15) 0.10780(13) 0.67880(17)
H23 H 0.2157 0.0898 0.7328
H24 H 0.1963 0.0727 0.6385
H25 H 0.1886 0.1519 0.6697
C25 C 0.15925(12) 0.39038(12) 0.67281(13)
C26 C 0.18171(14) 0.46098(13) 0.67522(15)
C27 C 0.13685(15) 0.50843(13) 0.71179(16)
H26 H 0.1518 0.5568 0.7154
C28 C 0.07154(15) 0.48780(14) 0.74299(16)
C29 C 0.04812(14) 0.41769(14) 0.73405(15)
H27 H 0.0019 0.4033 0.7528
C30 C 0.09032(13) 0.36777(12) 0.69848(14)
C31 C 0.24791(16) 0.48938(15) 0.63635(19)
H28 H 0.2670 0.4520 0.6043
H29 H 0.2907 0.5053 0.6782
H30 H 0.2290 0.5293 0.6013
C32 C 0.02504(18) 0.54130(17) 0.7826(2)
H31 H -0.0309 0.5354 0.7617
H32 H 0.0413 0.5892 0.7707
H33 H 0.0346 0.5338 0.8410
C33 C 0.05804(14) 0.29381(13) 0.68302(17)
H34 H 0.0167 0.2941 0.6355
H35 H 0.0363 0.2775 0.7299
H36 H 0.1001 0.2619 0.6737
N1 N 0.27246(10) 0.24235(10) 0.62258(10)
N2 N 0.20325(10) 0.33783(10) 0.63634(11)
P1 P 0.31156(3) 0.30157(3) 0.77840(3)
Cl1 Cl 0.38471(3) 0.37290(3) 0.71973(3)
Cl2 Cl 0.21465(3) 0.23996(3) 0.81050(3)
loop_
_geom_bond_atom_site_label_1
_geom_bond_atom_site_label_2
_geom_bond_site_symmetry_1
_geom_bond_site_symmetry_2
C1 N1 1_555 1_555
C2 H1 1_555 1_555
H2 C2 1_555 1_555
C3 C2 1_555 1_555
H3 C3 1_555 1_555
H4 C3 1_555 1_555
C4 C5 1_555 1_555
C5 H5 1_555 1_555
C6 C5 1_555 1_555
H6 C6 1_555 1_555
C7 C6 1_555 1_555
H7 C7 1_555 1_555
C8 C7 1_555 1_555
H8 C8 1_555 1_555
C9 C4 1_555 1_555
H9 C9 1_555 1_555
C10 C11 1_555 1_555
C11 H10 1_555 1_555
C12 C11 1_555 1_555
H11 C12 1_555 1_555
C13 C12 1_555 1_555
H12 C13 1_555 1_555
C14 C13 1_555 1_555
H13 C14 1_555 1_555
C15 C10 1_555 1_555
H14 C15 1_555 1_555
C16 C17 1_555 1_555
C17 C18 1_555 1_555
C18 H15 1_555 1_555
C19 C18 1_555 1_555
C20 C19 1_555 1_555
H16 C20 1_555 1_555
C21 C16 1_555 1_555
C22 C17 1_555 1_555
H17 C22 1_555 1_555
H18 C22 1_555 1_555
H19 C22 1_555 1_555
C23 C19 1_555 1_555
H20 C23 1_555 1_555
H21 C23 1_555 1_555
H22 C23 1_555 1_555
C24 C21 1_555 1_555
H23 C24 1_555 1_555
H24 C24 1_555 1_555
H25 C24 1_555 1_555
C25 C26 1_555 1_555
C26 C27 1_555 1_555
C27 H26 1_555 1_555
C28 C27 1_555 1_555
C29 C28 1_555 1_555
H27 C29 1_555 1_555
C30 C25 1_555 1_555
C31 C26 1_555 1_555
H28 C31 1_555 1_555
H29 C31 1_555 1_555
H30 C31 1_555 1_555
C32 C28 1_555 1_555
H31 C32 1_555 1_555
H32 C32 1_555 1_555
H33 C32 1_555 1_555
C33 C30 1_555 1_555
H34 C33 1_555 1_555
H35 C33 1_555 1_555
H36 C33 1_555 1_555
N1 C2 1_555 1_555
N2 C1 1_555 1_555
P1 C1 1_555 1_555
Cl1 P1 1_555 1_555
Cl2 P1 1_555 1_555
C34 C35 1_555 1_555
C35 C36 1_555 1_555
C36 C37 1_555 1_555
C37 C38 1_555 1_555
C38 C39 1_555 1_555
C39 C34 1_555 1_555
C40 C41 1_555 1_555
C41 C42 1_555 1_555
C42 C43 1_555 1_555
C43 C44 1_555 1_555
C44 C45 1_555 1_555
C45 C40 1_555 1_555
C46 C47 1_555 1_555
C47 C48 1_555 1_555
C48 C49 1_555 1_555
C49 C50 1_555 1_555
C50 C51 1_555 1_555
C51 C46 1_555 1_555
C52 C53 1_555 1_555
C53 C54 1_555 1_555
C54 C55 1_555 1_555
C55 C56 1_555 1_555
C56 C57 1_555 1_555
C57 C52 1_555 1_555
B1 C34 1_555 1_555
F1 C35 1_555 1_555
F2 C36 1_555 1_555
F3 C37 1_555 1_555
F4 C38 1_555 1_555
F5 C39 1_555 1_555
F6 C41 1_555 1_555
F7 C42 1_555 1_555
F8 C43 1_555 1_555
F9 C44 1_555 1_555
F10 C45 1_555 1_555
F11 C47 1_555 1_555
F12 C51 1_555 1_555
F13 C49 1_555 1_555
F14 C50 1_555 1_555
F15 C53 1_555 1_555
F16 C54 1_555 1_555
F17 C55 1_555 1_555
F18 C56 1_555 1_555
F19 C57 1_555 1_555
F20 C48 1_555 1_555
C3 N2 1_555 1_555
C4 P1 1_555 1_555
C8 C9 1_555 1_555
C10 P1 1_555 1_555
C14 C15 1_555 1_555
C16 N1 1_555 1_555
C20 C21 1_555 1_555
C25 N2 1_555 1_555
C29 C30 1_555 1_555
C40 B1 1_555 1_555
C46 B1 1_555 1_555
C52 B1 1_555 1_555

#END
