
#######################################################################
#
#                 Cambridge Crystallographic Data Centre
#                                CCDC 
#
#######################################################################
#
# If this CIF has been generated from an entry in the Cambridge 
# Structural Database, then it will include bibliographic, chemical, 
# crystal, experimental, refinement or atomic coordinate data resulting 
# from the CCDC's data processing and validation procedures.
#
#######################################################################

data_RUSJIA
_chemical_formula_moiety         
'C23 H32 F2 N2 P1 1+,C24 B1 F20 1-,0.75(C1 H2 Cl2)'
_chemical_name_systematic        
'2-(difluoro(dimethyl)phosphoranyl)-1,3-dimesityl-4,5-dihydro-1H-imidazol-3-ium tetrakis(pentafluorophenyl)borate dichloromethane solvate'
_symmetry_cell_setting           monoclinic
_symmetry_space_group_name_H-M   'P 21/c'
_symmetry_Int_Tables_number      14
_space_group_name_Hall           '-P 2ybc'
loop_
_symmetry_equiv_pos_site_id
_symmetry_equiv_pos_as_xyz
1 x,y,z
2 -x,1/2+y,1/2-z
3 -x,-y,-z
4 x,1/2-y,1/2+z
_cell_length_a                   18.0643(18)
_cell_length_b                   17.8955(15)
_cell_length_c                   16.7488(16)
_cell_angle_alpha                90
_cell_angle_beta                 115.463(4)
_cell_angle_gamma                90
_cell_volume                     4888.44
_exptl_crystal_colour            colorless
_exptl_crystal_description       block
_cell_formula_units_Z            4
loop_
_atom_site_label
_atom_site_type_symbol
_atom_site_fract_x
_atom_site_fract_y
_atom_site_fract_z
C24 C 0.83642(15) 0.17507(13) 0.77914(16)
C25 C 0.84739(15) 0.11131(13) 0.83046(17)
C26 C 0.91842(17) 0.09470(15) 0.90549(18)
C27 C 0.98311(17) 0.14403(17) 0.93328(18)
C28 C 0.97501(17) 0.20765(15) 0.88466(19)
C29 C 0.90351(16) 0.22207(14) 0.81042(17)
C30 C 0.74204(15) 0.26101(13) 0.63452(15)
C31 C 0.69075(16) 0.32296(13) 0.61016(16)
C32 C 0.6936(2) 0.37881(14) 0.55402(18)
C33 C 0.7495(2) 0.37390(17) 0.51895(18)
C34 C 0.7991(2) 0.31293(18) 0.53793(19)
C35 C 0.79428(16) 0.25839(15) 0.59369(17)
C36 C 0.69298(14) 0.21074(12) 0.75962(15)
C37 C 0.71253(15) 0.27559(12) 0.81057(15)
C38 C 0.67657(16) 0.29665(13) 0.86481(16)
C39 C 0.61994(16) 0.25094(14) 0.87321(16)
C40 C 0.60099(15) 0.18406(14) 0.82773(16)
C41 C 0.63690(15) 0.16560(12) 0.77307(15)
C42 C 0.70369(15) 0.12178(12) 0.63004(15)
C43 C 0.62091(15) 0.12404(12) 0.57142(15)
C44 C 0.58098(16) 0.07178(13) 0.50629(16)
C45 C 0.62565(19) 0.01300(14) 0.49667(18)
C46 C 0.70712(18) 0.00817(13) 0.55145(18)
C47 C 0.74475(16) 0.06152(13) 0.61649(17)
F3 F 0.78556(9) 0.06226(7) 0.80995(9)
F4 F 0.92294(11) 0.03182(9) 0.95146(11)
F5 F 1.05280(11) 0.12983(11) 1.00564(12)
F6 F 1.03865(10) 0.25607(10) 0.91058(12)
F7 F 0.90292(9) 0.28728(8) 0.76929(10)
F8 F 0.63295(9) 0.33258(8) 0.64017(10)
F9 F 0.64212(14) 0.43791(9) 0.53478(12)
F10 F 0.75305(15) 0.42821(10) 0.46560(12)
F11 F 0.85413(13) 0.30553(12) 0.50373(12)
F12 F 0.84589(9) 0.19956(9) 0.60932(11)
F13 F 0.76979(9) 0.32255(7) 0.80800(10)
F14 F 0.69856(11) 0.36156(8) 0.91047(10)
F15 F 0.58408(10) 0.26929(9) 0.92523(10)
F16 F 0.54782(10) 0.13725(9) 0.83840(10)
F17 F 0.61354(9) 0.09895(7) 0.73143(9)
F18 F 0.57395(8) 0.18105(7) 0.57667(9)
F19 F 0.50097(10) 0.07825(8) 0.45205(10)
F20 F 0.58848(12) -0.03818(9) 0.43321(12)
F21 F 0.75211(12) -0.04939(9) 0.54179(12)
F22 F 0.82642(9) 0.05170(8) 0.66606(10)
B1 B 0.74362(17) 0.19186(14) 0.70008(18)
C1 C 0.25449(16) 0.30474(13) 0.2228(2)
C2 C 0.20514(18) 0.27599(18) 0.0738(2)
H1 H 0.1694 0.2315 0.0526
H2 H 0.2294 0.2873 0.0323
C3 C 0.15826(18) 0.34272(17) 0.0850(2)
H3 H 0.1709 0.3888 0.0606
H4 H 0.0983 0.3339 0.0561
C4 C 0.15204(16) 0.39807(14) 0.22061(18)
C5 C 0.18151(16) 0.47173(14) 0.23832(18)
C6 C 0.14163(18) 0.51959(15) 0.27209(19)
H5 H 0.1608 0.5695 0.2858
C7 C 0.07492(18) 0.49741(16) 0.28658(18)
C8 C 0.04699(18) 0.42413(16) 0.26554(19)
H6 H 0.0004 0.4085 0.2737
C9 C 0.08502(16) 0.37387(15) 0.2334(2)
C10 C 0.2515(2) 0.49816(16) 0.2201(2)
H7 H 0.2302 0.5192 0.1604
H8 H 0.2878 0.4560 0.2248
H9 H 0.2824 0.5366 0.2633
C11 C 0.0314(2) 0.55189(19) 0.3200(2)
H10 H 0.0587 0.5531 0.3848
H11 H -0.0257 0.5363 0.3004
H12 H 0.0330 0.6018 0.2968
C12 C 0.0528(2) 0.29478(16) 0.2100(3)
H13 H 0.0044 0.2884 0.2215
H14 H 0.0954 0.2593 0.2460
H15 H 0.0379 0.2855 0.1472
C13 C 0.33359(17) 0.21044(14) 0.1815(2)
C14 C 0.3212(2) 0.13714(16) 0.2014(3)
C15 C 0.3829(2) 0.08603(16) 0.2129(3)
H16 H 0.3766 0.0359 0.2277
C16 C 0.4529(2) 0.10485(15) 0.2037(2)
C17 C 0.46124(18) 0.17846(15) 0.1808(2)
H17 H 0.5086 0.1922 0.1732
C18 C 0.40189(16) 0.23179(14) 0.16897(18)
C19 C 0.2450(3) 0.11357(19) 0.2103(4)
H18 H 0.2074 0.0885 0.1559
H19 H 0.2181 0.1577 0.2205
H20 H 0.2600 0.0791 0.2604
C20 C 0.5189(2) 0.04776(18) 0.2162(3)
H21 H 0.5202 0.0102 0.2593
H22 H 0.5723 0.0728 0.2378
H23 H 0.5069 0.0234 0.1595
C21 C 0.41141(18) 0.31075(14) 0.1440(2)
H24 H 0.3655 0.3232 0.0873
H25 H 0.4631 0.3154 0.1385
H26 H 0.4118 0.3450 0.1898
C22 C 0.3940(3) 0.2352(3) 0.3985(3)
H27 H 0.4153 0.2181 0.3568
H28 H 0.3707 0.1926 0.4167
H29 H 0.4386 0.2571 0.4505
C23 C 0.3049(2) 0.3714(2) 0.4187(2)
H30 H 0.3175 0.3486 0.4763
H31 H 0.2482 0.3897 0.3927
H32 H 0.3424 0.4133 0.4265
N1 N 0.26990(13) 0.26492(12) 0.16580(17)
N2 N 0.18903(13) 0.34739(12) 0.18210(16)
F1 F 0.38061(12) 0.35690(13) 0.32580(13)
F2 F 0.24393(13) 0.25024(11) 0.35059(16)
P1 P 0.31690(5) 0.30307(5) 0.34671(6)
loop_
_geom_bond_atom_site_label_1
_geom_bond_atom_site_label_2
_geom_bond_site_symmetry_1
_geom_bond_site_symmetry_2
C1 N1 1_555 1_555
C2 H1 1_555 1_555
H2 C2 1_555 1_555
C3 C2 1_555 1_555
H3 C3 1_555 1_555
H4 C3 1_555 1_555
C4 C5 1_555 1_555
C5 C6 1_555 1_555
C6 H5 1_555 1_555
C7 C6 1_555 1_555
C8 C7 1_555 1_555
H6 C8 1_555 1_555
C9 C4 1_555 1_555
C10 C5 1_555 1_555
H7 C10 1_555 1_555
H8 C10 1_555 1_555
H9 C10 1_555 1_555
C11 C7 1_555 1_555
H10 C11 1_555 1_555
H11 C11 1_555 1_555
H12 C11 1_555 1_555
C12 C9 1_555 1_555
H13 C12 1_555 1_555
H14 C12 1_555 1_555
H15 C12 1_555 1_555
C13 C14 1_555 1_555
C14 C15 1_555 1_555
C15 H16 1_555 1_555
C16 C15 1_555 1_555
C17 C16 1_555 1_555
H17 C17 1_555 1_555
C18 C13 1_555 1_555
C19 C14 1_555 1_555
H18 C19 1_555 1_555
H19 C19 1_555 1_555
H20 C19 1_555 1_555
C20 C16 1_555 1_555
H21 C20 1_555 1_555
H22 C20 1_555 1_555
H23 C20 1_555 1_555
C21 C18 1_555 1_555
H24 C21 1_555 1_555
H25 C21 1_555 1_555
H26 C21 1_555 1_555
C22 H27 1_555 1_555
H28 C22 1_555 1_555
H29 C22 1_555 1_555
C23 H30 1_555 1_555
H31 C23 1_555 1_555
H32 C23 1_555 1_555
N1 C2 1_555 1_555
N2 C1 1_555 1_555
F1 P1 1_555 1_555
F2 P1 1_555 1_555
P1 C1 1_555 1_555
C24 C25 1_555 1_555
C25 C26 1_555 1_555
C26 C27 1_555 1_555
C27 C28 1_555 1_555
C28 C29 1_555 1_555
C29 C24 1_555 1_555
C30 C31 1_555 1_555
C31 C32 1_555 1_555
C32 C33 1_555 1_555
C33 C34 1_555 1_555
C34 C35 1_555 1_555
C35 C30 1_555 1_555
C36 C37 1_555 1_555
C37 C38 1_555 1_555
C38 C39 1_555 1_555
C39 C40 1_555 1_555
C40 C41 1_555 1_555
C41 C36 1_555 1_555
C42 C43 1_555 1_555
C43 C44 1_555 1_555
C44 C45 1_555 1_555
C45 C46 1_555 1_555
C46 C47 1_555 1_555
C47 C42 1_555 1_555
F3 C25 1_555 1_555
F4 C26 1_555 1_555
F5 C27 1_555 1_555
F6 C28 1_555 1_555
F7 C29 1_555 1_555
F8 C31 1_555 1_555
F9 C32 1_555 1_555
F10 C33 1_555 1_555
F11 C34 1_555 1_555
F12 C35 1_555 1_555
F13 C37 1_555 1_555
F14 C38 1_555 1_555
F15 C39 1_555 1_555
F16 C40 1_555 1_555
F17 C41 1_555 1_555
F18 C43 1_555 1_555
F19 C44 1_555 1_555
F20 C45 1_555 1_555
F21 C46 1_555 1_555
F22 C47 1_555 1_555
B1 C24 1_555 1_555
C3 N2 1_555 1_555
C4 N2 1_555 1_555
C8 C9 1_555 1_555
C13 N1 1_555 1_555
C17 C18 1_555 1_555
C22 P1 1_555 1_555
C23 P1 1_555 1_555
C30 B1 1_555 1_555
C36 B1 1_555 1_555
C42 B1 1_555 1_555

#END
