
#######################################################################
#
#                 Cambridge Crystallographic Data Centre
#                                CCDC 
#
#######################################################################
#
# If this CIF has been generated from an entry in the Cambridge 
# Structural Database, then it will include bibliographic, chemical, 
# crystal, experimental, refinement or atomic coordinate data resulting 
# from the CCDC's data processing and validation procedures.
#
#######################################################################

data_RUSJUL
_chemical_formula_moiety         'C11 H10 N2 O3'
_chemical_name_systematic        
1-(3-Methyl-2-(4-nitrophenyl)-2H-aziren-2-yl)ethanone
_symmetry_cell_setting           triclinic
_symmetry_space_group_name_H-M   'P -1'
_symmetry_Int_Tables_number      2
_space_group_name_Hall           '-P 1'
loop_
_symmetry_equiv_pos_site_id
_symmetry_equiv_pos_as_xyz
1 x,y,z
2 -x,-y,-z
_cell_length_a                   6.9189(14)
_cell_length_b                   7.0620(14)
_cell_length_c                   11.947(2)
_cell_angle_alpha                74.48(3)
_cell_angle_beta                 74.71(3)
_cell_angle_gamma                66.39(3)
_cell_volume                     507.213
_exptl_crystal_colour            white
_chemical_melting_point          122-123deg.C
_cell_formula_units_Z            2
loop_
_atom_site_label
_atom_site_type_symbol
_atom_site_fract_x
_atom_site_fract_y
_atom_site_fract_z
O1 O 0.15358(16) 1.02404(17) 0.72154(8)
O2 O 0.14328(18) 1.32647(17) 0.61294(9)
O3 O 0.23056(16) 1.10878(15) 0.07898(8)
N1 N 0.17235(18) 1.1391(2) 0.62484(10)
N2 N 0.41820(19) 0.55244(18) 0.22965(10)
C1 C 0.3167(2) 0.7584(2) 0.42596(11)
H1 H 0.3389 0.6175 0.4317
C2 C 0.2647(2) 0.8393(2) 0.52793(11)
H2 H 0.2522 0.7541 0.6018
C3 C 0.2318(2) 1.0490(2) 0.51781(11)
C4 C 0.2523(2) 1.1780(2) 0.40931(11)
H3 H 0.2300 1.3186 0.4045
C5 C 0.3062(2) 1.0957(2) 0.30804(11)
H4 H 0.3226 1.1813 0.2347
C6 C 0.33667(19) 0.8850(2) 0.31411(11)
C7 C 0.3904(2) 0.7917(2) 0.20623(11)
C8 C 0.2985(2) 0.9177(2) 0.09722(11)
C9 C 0.2967(2) 0.7982(2) 0.01084(13)
H5 H 0.2332 0.8955 -0.0542
H6 H 0.2148 0.7091 0.0493
H7 H 0.4410 0.7137 -0.0178
C10 C 0.5826(2) 0.5993(2) 0.19191(11)
C11 C 0.8170(2) 0.5157(2) 0.15820(11)
H8 H 0.8651 0.3664 0.1631
H9 H 0.8807 0.5454 0.2107
H10 H 0.8583 0.5805 0.0788
loop_
_geom_bond_atom_site_label_1
_geom_bond_atom_site_label_2
_geom_bond_site_symmetry_1
_geom_bond_site_symmetry_2
O1 N1 1_555 1_555
O2 N1 1_555 1_555
O3 C8 1_555 1_555
N1 C3 1_555 1_555
N2 C7 1_555 1_555
C1 H1 1_555 1_555
C2 C1 1_555 1_555
H2 C2 1_555 1_555
C3 C2 1_555 1_555
C4 C3 1_555 1_555
H3 C4 1_555 1_555
C5 C4 1_555 1_555
H4 C5 1_555 1_555
C6 C1 1_555 1_555
C7 C6 1_555 1_555
C8 C7 1_555 1_555
C9 C8 1_555 1_555
H5 C9 1_555 1_555
H6 C9 1_555 1_555
H7 C9 1_555 1_555
C10 N2 1_555 1_555
C11 C10 1_555 1_555
H8 C11 1_555 1_555
H9 C11 1_555 1_555
H10 C11 1_555 1_555
C5 C6 1_555 1_555
C7 C10 1_555 1_555

#END
