
#######################################################################
#
#                 Cambridge Crystallographic Data Centre
#                                CCDC 
#
#######################################################################
#
# If this CIF has been generated from an entry in the Cambridge 
# Structural Database, then it will include bibliographic, chemical, 
# crystal, experimental, refinement or atomic coordinate data resulting 
# from the CCDC's data processing and validation procedures.
#
#######################################################################

data_RUSZOV
_chemical_formula_moiety         'C15 H10 N2 O2'
_chemical_name_systematic        
8H,13aH-phthalazino[1,2-b][1,3]benzoxazin-8-one
_symmetry_cell_setting           monoclinic
_symmetry_space_group_name_H-M   'C c'
_symmetry_Int_Tables_number      9
_space_group_name_Hall           'C -2yc'
loop_
_symmetry_equiv_pos_site_id
_symmetry_equiv_pos_as_xyz
1 x,y,z
2 x,-y,1/2+z
3 1/2+x,1/2+y,z
4 1/2+x,1/2-y,1/2+z
_cell_length_a                   12.022(5)
_cell_length_b                   11.403(5)
_cell_length_c                   17.406(10)
_cell_angle_alpha                90
_cell_angle_beta                 95.445(11)
_cell_angle_gamma                90
_cell_volume                     2375.37
_exptl_crystal_description       sheet
_cell_formula_units_Z            8
loop_
_atom_site_label
_atom_site_type_symbol
_atom_site_fract_x
_atom_site_fract_y
_atom_site_fract_z
C1 C 0.4347(7) 0.9762(6) 0.3219(4)
C2 C 0.3605(7) 1.0620(7) 0.3440(4)
H1 H 0.2880 1.0645 0.3201
C3 C 0.3915(8) 1.1387(6) 0.3979(5)
H2 H 0.3421 1.1968 0.4104
C4 C 0.5017(8) 1.1330(7) 0.4375(5)
H3 H 0.5241 1.1838 0.4778
C5 C 0.5705(7) 1.0518(6) 0.4141(4)
H4 H 0.6436 1.0503 0.4370
C6 C 0.5396(6) 0.9694(6) 0.3574(4)
C7 C 0.6132(6) 0.8746(5) 0.3399(4)
C8 C 0.5990(6) 0.6490(5) 0.2021(4)
H5 H 0.6400 0.5830 0.1910
C9 C 0.5028(7) 0.6726(7) 0.1532(4)
C10 C 0.4617(8) 0.5920(7) 0.0930(4)
H6 H 0.5017 0.5240 0.0849
C11 C 0.3675(8) 0.6137(7) 0.0490(5)
H7 H 0.3428 0.5600 0.0110
C12 C 0.3033(7) 0.7168(7) 0.0585(4)
H8 H 0.2372 0.7308 0.0276
C13 C 0.3429(7) 0.7959(8) 0.1157(4)
H9 H 0.3027 0.8641 0.1230
C14 C 0.4435(6) 0.7741(7) 0.1629(4)
C15 C 0.4848(6) 0.8576(5) 0.2216(4)
H10 H 0.5138 0.9261 0.1959
N1 N 0.5756(5) 0.8091(4) 0.2758(3)
N2 N 0.6360(5) 0.7101(4) 0.2611(3)
O1 O 0.3951(4) 0.8951(4) 0.2641(3)
O2 O 0.7006(5) 0.8515(4) 0.3796(3)
C16 C 0.4508(6) 0.2713(7) 0.1626(4)
C17 C 0.5259(8) 0.1890(7) 0.1425(5)
H11 H 0.5979 0.1852 0.1672
C18 C 0.4895(9) 0.1099(7) 0.0825(5)
H12 H 0.5394 0.0542 0.0672
C19 C 0.3851(9) 0.1127(7) 0.0470(5)
H13 H 0.3638 0.0571 0.0094
C20 C 0.3067(8) 0.1990(7) 0.0658(4)
H14 H 0.2356 0.2038 0.0398
C21 C 0.3428(6) 0.2770(6) 0.1261(4)
C22 C 0.2661(6) 0.3720(5) 0.1452(4)
C23 C 0.2801(7) 0.5950(6) 0.2837(4)
H15 H 0.2382 0.6606 0.2943
C24 C 0.3807(7) 0.5726(7) 0.3372(4)
C25 C 0.4166(9) 0.6487(7) 0.3928(5)
H16 H 0.3761 0.7165 0.4005
C26 C 0.5166(10) 0.6248(9) 0.4396(5)
H17 H 0.5420 0.6740 0.4801
C27 C 0.5716(8) 0.5307(10) 0.4235(5)
H18 H 0.6394 0.5172 0.4525
C28 C 0.5379(8) 0.4493(8) 0.3670(5)
H19 H 0.5799 0.3825 0.3596
C29 C 0.4418(7) 0.4709(6) 0.3232(4)
C30 C 0.3937(6) 0.3848(5) 0.2625(4)
H20 H 0.3643 0.3163 0.2879
N3 N 0.3053(5) 0.4365(4) 0.2101(3)
N4 N 0.2440(5) 0.5353(4) 0.2249(3)
O3 O 0.4841(4) 0.3493(4) 0.2197(3)
O4 O 0.1798(5) 0.3958(4) 0.1050(3)
loop_
_geom_bond_atom_site_label_1
_geom_bond_atom_site_label_2
_geom_bond_site_symmetry_1
_geom_bond_site_symmetry_2
C1 C2 1_555 1_555
C2 H1 1_555 1_555
C3 C2 1_555 1_555
H2 C3 1_555 1_555
C4 C3 1_555 1_555
H3 C4 1_555 1_555
C5 C4 1_555 1_555
H4 C5 1_555 1_555
C6 C1 1_555 1_555
C7 C6 1_555 1_555
C8 H5 1_555 1_555
C9 C8 1_555 1_555
C10 C9 1_555 1_555
H6 C10 1_555 1_555
C11 C10 1_555 1_555
H7 C11 1_555 1_555
C12 C11 1_555 1_555
H8 C12 1_555 1_555
C13 C12 1_555 1_555
H9 C13 1_555 1_555
C14 C9 1_555 1_555
C15 C14 1_555 1_555
H10 C15 1_555 1_555
C16 C17 1_555 1_555
C17 H11 1_555 1_555
C18 C17 1_555 1_555
H12 C18 1_555 1_555
C19 C18 1_555 1_555
H13 C19 1_555 1_555
C20 C19 1_555 1_555
H14 C20 1_555 1_555
C21 C16 1_555 1_555
C22 C21 1_555 1_555
C23 H15 1_555 1_555
C24 C23 1_555 1_555
C25 C24 1_555 1_555
H16 C25 1_555 1_555
C26 C25 1_555 1_555
H17 C26 1_555 1_555
C27 C26 1_555 1_555
H18 C27 1_555 1_555
C28 C27 1_555 1_555
H19 C28 1_555 1_555
C29 C24 1_555 1_555
C30 C29 1_555 1_555
H20 C30 1_555 1_555
N1 C7 1_555 1_555
N2 C8 1_555 1_555
N3 C22 1_555 1_555
N4 C23 1_555 1_555
O1 C1 1_555 1_555
O2 C7 1_555 1_555
O3 C16 1_555 1_555
O4 C22 1_555 1_555
C5 C6 1_555 1_555
C13 C14 1_555 1_555
C15 N1 1_555 1_555
C15 O1 1_555 1_555
C20 C21 1_555 1_555
C28 C29 1_555 1_555
C30 N3 1_555 1_555
C30 O3 1_555 1_555
N1 N2 1_555 1_555
N3 N4 1_555 1_555

#END
