
#######################################################################
#
#                 Cambridge Crystallographic Data Centre
#                                CCDC 
#
#######################################################################
#
# If this CIF has been generated from an entry in the Cambridge 
# Structural Database, then it will include bibliographic, chemical, 
# crystal, experimental, refinement or atomic coordinate data resulting 
# from the CCDC's data processing and validation procedures.
#
#######################################################################

data_RUTCIS
_chemical_formula_moiety         'C35 H35 Br1 N2 O3'
_chemical_name_systematic        
5-Acetoxy-1,3,4-tribenzyl-6-(1-(bromo)phenylethyl)pyrimidin-2-one
_symmetry_cell_setting           monoclinic
_symmetry_space_group_name_H-M   'P 21'
_symmetry_Int_Tables_number      4
_space_group_name_Hall           'P 2yb'
loop_
_symmetry_equiv_pos_site_id
_symmetry_equiv_pos_as_xyz
1 x,y,z
2 -x,1/2+y,-z
_cell_length_a                   11.131(1)
_cell_length_b                   11.908(1)
_cell_length_c                   12.776(1)
_cell_angle_alpha                90
_cell_angle_beta                 111.747(5)
_cell_angle_gamma                90
_cell_volume                     1572.91
_exptl_crystal_colour            colorless
_exptl_crystal_description       needle
_chemical_melting_point          178-180deg.C
_cell_formula_units_Z            2
loop_
_atom_site_label
_atom_site_type_symbol
_atom_site_fract_x
_atom_site_fract_y
_atom_site_fract_z
Br1 Br 0.2093(1) 0.1008 0.7538(1)
O1 O 0.5383(5) 0.1090(7) 0.6067(4)
O2 O 0.6192(5) 0.3652(5) 0.8437(4)
O3 O 0.5925(7) 0.4261(7) 1.0000(5)
N1 N 0.4868(7) 0.1693(6) 0.7528(6)
N2 N 0.4787(6) 0.2926(6) 0.6078(5)
C1 C 0.5023(8) 0.1854(8) 0.6530(8)
C2 C 0.4237(7) 0.2548(7) 0.7959(6)
C3 C 0.4798(7) 0.3682(7) 0.7856(6)
C4 C 0.4542(7) 0.3919(7) 0.6637(6)
C5 C 0.5361(9) 0.0678(7) 0.8170(8)
C6 C 0.6711(8) 0.0817(9) 0.9042(7)
C7 C 0.6902(9) 0.0928(12) 1.0178(7)
C8 C 0.8140(10) 0.1038(14) 1.0968(7)
C9 C 0.9220(9) 0.1001(18) 1.0677(9)
C10 C 0.9006(11) 0.0939(18) 0.9589(11)
C11 C 0.7793(11) 0.0844(16) 0.8786(8)
C12 C 0.2751(8) 0.2533(7) 0.7390(7)
C13 C 0.2071(9) 0.3424(10) 0.7829(8)
C14 C 0.0656(8) 0.3538(10) 0.7146(9)
C15 C 0.0252(10) 0.4038(12) 0.6109(10)
C16 C -0.1025(13) 0.4088(18) 0.5432(12)
C17 C -0.1930(14) 0.3696(19) 0.5834(14)
C18 C -0.1546(14) 0.3213(18) 0.6855(18)
C19 C -0.0294(12) 0.3161(16) 0.7559(11)
C20 C 0.6621(10) 0.3988(9) 0.9562(8)
C21 C 0.8069(9) 0.3989(10) 0.9976(7)
C22 C 0.5250(8) 0.4959(8) 0.6473(7)
C23 C 0.4956(14) 0.5984(12) 0.7025(9)
C24 C 0.5868(25) 0.6467(11) 0.7891(11)
C25 C 0.5815(43) 0.7577(29) 0.8611(23)
C26 C 0.4456(34) 0.7616(17) 0.7997(17)
C27 C 0.3242(30) 0.7401(21) 0.6993(24)
C28 C 0.3650(20) 0.6383(12) 0.6503(19)
C29 C 0.4415(8) 0.3025(9) 0.4833(6)
C30 C 0.2947(8) 0.3118(8) 0.4253(6)
C31 C 0.2160(9) 0.2178(9) 0.4191(7)
C32 C 0.0821(11) 0.2289(14) 0.3651(10)
C33 C 0.0247(11) 0.3292(15) 0.3223(9)
C34 C 0.0978(11) 0.4183(11) 0.3287(9)
C35 C 0.2370(9) 0.4095(10) 0.3784(8)
H1 H 0.4439 0.2408 0.8736
H2 H 0.4419 0.4249 0.8160
H3 H 0.3643 0.4081 0.6290
H4 H 0.5353 0.0092 0.7664
H5 H 0.4785 0.0440 0.8526
H6 H 0.6182 0.0951 1.0410
H7 H 0.8261 0.1131 1.1740
H8 H 1.0071 0.1041 1.1247
H9 H 0.9720 0.1023 0.9348
H10 H 0.7695 0.0777 0.8015
H11 H 0.2517 0.2643 0.6602
H12 H 0.2481 0.4133 0.7875
H13 H 0.2180 0.3253 0.8589
H14 H 0.0868 0.4370 0.5849
H15 H -0.1317 0.4363 0.4679
H16 H -0.2831 0.3748 0.5402
H17 H -0.2164 0.2888 0.7123
H18 H -0.0018 0.2892 0.8315
H19 H 0.8377 0.3284 1.0337
H20 H 0.8420 0.4580 1.0492
H21 H 0.8332 0.4041 0.9348
H22 H 0.6156 0.4822 0.6784
H23 H 0.5026 0.5099 0.5688
H24 H 0.6719 0.6119 0.8144
H25 H 0.6513 0.8008 0.9261
H26 H 0.4406 0.8225 0.8432
H27 H 0.2553 0.7902 0.6838
H28 H 0.3043 0.6050 0.5898
H29 H 0.4704 0.2374 0.4557
H30 H 0.4806 0.3669 0.4666
H31 H 0.2542 0.1479 0.4501
H32 H 0.0302 0.1635 0.3605
H33 H -0.0664 0.3327 0.2888
H34 H 0.0605 0.4874 0.2957
H35 H 0.2871 0.4748 0.3797
loop_
_geom_bond_atom_site_label_1
_geom_bond_atom_site_label_2
_geom_bond_site_symmetry_1
_geom_bond_site_symmetry_2
Br1 C12 1_555 1_555
O1 C1 1_555 1_555
O2 C3 1_555 1_555
O3 C20 1_555 1_555
N1 C1 1_555 1_555
N2 C1 1_555 1_555
C2 N1 1_555 1_555
C3 C2 1_555 1_555
C4 N2 1_555 1_555
C5 N1 1_555 1_555
C6 C5 1_555 1_555
C7 C6 1_555 1_555
C8 C7 1_555 1_555
C9 C8 1_555 1_555
C10 C9 1_555 1_555
C11 C6 1_555 1_555
C12 C2 1_555 1_555
C13 C12 1_555 1_555
C14 C13 1_555 1_555
C15 C14 1_555 1_555
C16 C15 1_555 1_555
C17 C16 1_555 1_555
C18 C17 1_555 1_555
C19 C14 1_555 1_555
C20 O2 1_555 1_555
C21 C20 1_555 1_555
C22 C4 1_555 1_555
C23 C22 1_555 1_555
C24 C23 1_555 1_555
C25 C24 1_555 1_555
C26 C25 1_555 1_555
C27 C26 1_555 1_555
C28 C23 1_555 1_555
C29 N2 1_555 1_555
C30 C29 1_555 1_555
C31 C30 1_555 1_555
C32 C31 1_555 1_555
C33 C32 1_555 1_555
C34 C33 1_555 1_555
C35 C30 1_555 1_555
H1 C2 1_555 1_555
H2 C3 1_555 1_555
H3 C4 1_555 1_555
H4 C5 1_555 1_555
H5 C5 1_555 1_555
H6 C7 1_555 1_555
H7 C8 1_555 1_555
H8 C9 1_555 1_555
H9 C10 1_555 1_555
H10 C11 1_555 1_555
H11 C12 1_555 1_555
H12 C13 1_555 1_555
H13 C13 1_555 1_555
H14 C15 1_555 1_555
H15 C16 1_555 1_555
H16 C17 1_555 1_555
H17 C18 1_555 1_555
H18 C19 1_555 1_555
H19 C21 1_555 1_555
H20 C21 1_555 1_555
H21 C21 1_555 1_555
H22 C22 1_555 1_555
H23 C22 1_555 1_555
H24 C24 1_555 1_555
H25 C25 1_555 1_555
H26 C26 1_555 1_555
H27 C27 1_555 1_555
H28 C28 1_555 1_555
H29 C29 1_555 1_555
H30 C29 1_555 1_555
H31 C31 1_555 1_555
H32 C32 1_555 1_555
H33 C33 1_555 1_555
H34 C34 1_555 1_555
H35 C35 1_555 1_555
C3 C4 1_555 1_555
C10 C11 1_555 1_555
C18 C19 1_555 1_555
C27 C28 1_555 1_555
C34 C35 1_555 1_555

#END
