
#######################################################################
#
#                 Cambridge Crystallographic Data Centre
#                                CCDC 
#
#######################################################################
#
# If this CIF has been generated from an entry in the Cambridge 
# Structural Database, then it will include bibliographic, chemical, 
# crystal, experimental, refinement or atomic coordinate data resulting 
# from the CCDC's data processing and validation procedures.
#
#######################################################################

data_RUTMOJ
_chemical_formula_moiety         
'C30 H26 N6 O4,C30 H28 N2 O2,2(C3 H7 N1 O1),2(H2 O1)'
_chemical_name_systematic        
"(2)-(1,2-bis(2,2-Diphenylethyliminio)ethane N,N'-dioxide)-(3,7,11,15-tetra-aza-1,9(1,4)-dibenzena-5,13(3,5)-dipyridinacyclohexadecaphane-4,6,12,14-tetraone)-rotaxane dimethylformamide solvate dihydrate"
_symmetry_cell_setting           monoclinic
_symmetry_space_group_name_H-M   'P 21/n'
_symmetry_Int_Tables_number      14
_space_group_name_Hall           '-P 2yn'
loop_
_symmetry_equiv_pos_site_id
_symmetry_equiv_pos_as_xyz
1 x,y,z
2 1/2-x,1/2+y,1/2-z
3 -x,-y,-z
4 1/2+x,1/2-y,1/2+z
_cell_length_a                   15.331(2)
_cell_length_b                   11.1669(14)
_cell_length_c                   18.440(2)
_cell_angle_alpha                90
_cell_angle_beta                 110.639(2)
_cell_angle_gamma                90
_cell_volume                     2954.31
_exptl_crystal_colour            colorless
_exptl_crystal_description       plates
_cell_formula_units_Z            2
loop_
_atom_site_label
_atom_site_type_symbol
_atom_site_fract_x
_atom_site_fract_y
_atom_site_fract_z
C1 C 0.7534(7) 0.3463(11) -0.0568(6)
C2 C 0.8355(8) 0.3982(10) -0.0110(6)
H1 H 0.8420 0.4826 -0.0134
C3 C 0.9098(7) 0.3321(11) 0.0389(6)
H2 H 0.9654 0.3707 0.0705
C4 C 0.9004(8) 0.2085(12) 0.0411(6)
H3 H 0.9498 0.1610 0.0743
C5 C 0.8196(8) 0.1564(10) -0.0049(7)
H4 H 0.8132 0.0718 -0.0043
C6 C 0.7468(8) 0.2247(11) -0.0526(6)
H5 H 0.6907 0.1861 -0.0833
C7 C 0.6738(7) 0.4170(9) -0.1151(5)
H6 H 0.6189 0.3619 -0.1342
C8 C 0.7016(6) 0.4476(10) -0.1839(6)
C9 C 0.6646(6) 0.3771(9) -0.2499(7)
H7 H 0.6183 0.3193 -0.2523
C10 C 0.6944(7) 0.3901(9) -0.3123(6)
H8 H 0.6708 0.3392 -0.3562
C11 C 0.7585(8) 0.4776(11) -0.3099(7)
H9 H 0.7798 0.4866 -0.3521
C12 C 0.7920(6) 0.5524(10) -0.2465(8)
H10 H 0.8345 0.6145 -0.2461
C13 C 0.7642(7) 0.5373(9) -0.1843(7)
H11 H 0.7881 0.5889 -0.1408
C14 C 0.6432(7) 0.5249(10) -0.0830(6)
H12 H 0.5959 0.5682 -0.1259
H13 H 0.6972 0.5789 -0.0607
N1 N 0.6025(6) 0.4966(8) -0.0214(5)
O1 O 0.6637(4) 0.4570(6) 0.0428(4)
C15 C 0.5157(7) 0.5119(9) -0.0327(5)
H14 H 0.4733 0.5376 -0.0815
C1B C 0.2466(7) 0.6537(11) 0.0568(6)
C2B C 0.1645(8) 0.6018(10) 0.0110(6)
H1B H 0.1580 0.5174 0.0134
C3B C 0.0902(7) 0.6679(11) -0.0389(6)
H2B H 0.0346 0.6293 -0.0705
C4B C 0.0996(8) 0.7915(12) -0.0411(6)
H3B H 0.0502 0.8390 -0.0743
C5B C 0.1804(8) 0.8436(10) 0.0049(7)
H4B H 0.1868 0.9282 0.0043
C6B C 0.2532(8) 0.7753(11) 0.0526(6)
H5B H 0.3093 0.8139 0.0833
C7B C 0.3262(7) 0.5830(9) 0.1151(5)
H6B H 0.3811 0.6381 0.1342
C8B C 0.2984(6) 0.5524(10) 0.1839(6)
C9B C 0.3354(6) 0.6229(9) 0.2499(7)
H7B H 0.3817 0.6807 0.2523
C10B C 0.3056(7) 0.6099(9) 0.3123(6)
H8B H 0.3292 0.6608 0.3562
C11B C 0.2415(8) 0.5224(11) 0.3099(7)
H9B H 0.2202 0.5134 0.3521
C12B C 0.2080(6) 0.4476(10) 0.2465(8)
H10B H 0.1655 0.3855 0.2461
C13B C 0.2358(7) 0.4627(9) 0.1843(7)
H11B H 0.2119 0.4111 0.1408
C14B C 0.3568(7) 0.4751(10) 0.0830(6)
H12B H 0.4041 0.4318 0.1259
H13B H 0.3028 0.4211 0.0607
N1B N 0.3975(6) 0.5034(8) 0.0214(5)
O1B O 0.3363(4) 0.5430(6) -0.0428(4)
C15B C 0.4843(7) 0.4881(9) 0.0327(5)
H14B H 0.5267 0.4624 0.0815
C16 C 0.7612(5) 0.7694(8) 0.1240(6)
H15 H 0.8085 0.8043 0.1051
H16 H 0.7651 0.8117 0.1723
N2 N 0.7811(5) 0.6421(7) 0.1408(4)
H17 H 0.7425 0.5873 0.1130
C17 C 0.8585(6) 0.6100(10) 0.1985(6)
O2 O 0.9142(4) 0.6821(6) 0.2409(4)
C18 C 0.8761(6) 0.4767(8) 0.2092(5)
C19 C 0.9678(6) 0.4384(9) 0.2415(5)
H18 H 1.0155 0.4973 0.2574
N3 N 0.9927(5) 0.3230(7) 0.2515(4)
C20 C 0.9235(6) 0.2414(8) 0.2266(5)
H19 H 0.9403 0.1591 0.2305
C21 C 0.8302(6) 0.2698(9) 0.1959(5)
C22 C 0.8072(6) 0.3922(9) 0.1887(5)
H20 H 0.7437 0.4161 0.1695
C23 C 0.7608(6) 0.1716(9) 0.1687(5)
O3 O 0.7810(4) 0.0693(6) 0.1935(4)
N4 N 0.6769(5) 0.2003(6) 0.1189(4)
H21 H 0.6637 0.2746 0.1029
C24 C 0.6071(6) 0.1063(8) 0.0912(6)
H22 H 0.5997 0.0655 0.1363
H23 H 0.6295 0.0463 0.0623
C25 C 0.5147(6) 0.1519(8) 0.0400(6)
C26 C 0.5004(6) 0.1873(8) -0.0344(6)
H24 H 0.5517 0.1902 -0.0518
C27 C 0.4112(7) 0.2197(8) -0.0855(5)
H25 H 0.4038 0.2469 -0.1362
C28 C 0.3351(6) 0.2125(8) -0.0635(6)
C29 C 0.3491(6) 0.1794(8) 0.0107(6)
H26 H 0.2974 0.1755 0.0276
C30 C 0.4378(7) 0.1508(8) 0.0625(5)
H27 H 0.4454 0.1302 0.1144
C16B C 0.2388(5) 0.2306(8) -0.1240(6)
H15B H 0.1915 0.1957 -0.1051
H16B H 0.2349 0.1883 -0.1723
N2B N 0.2189(5) 0.3579(7) -0.1408(4)
H17B H 0.2575 0.4127 -0.1130
C17B C 0.1415(6) 0.3900(10) -0.1985(6)
O2B O 0.0858(4) 0.3179(6) -0.2409(4)
C18B C 0.1239(6) 0.5233(8) -0.2092(5)
C19B C 0.0322(6) 0.5616(9) -0.2415(5)
H18B H -0.0155 0.5027 -0.2574
N3B N 0.0073(5) 0.6770(7) -0.2515(4)
C20B C 0.0765(6) 0.7586(8) -0.2266(5)
H19B H 0.0597 0.8409 -0.2305
C21B C 0.1698(6) 0.7302(9) -0.1959(5)
C22B C 0.1928(6) 0.6078(9) -0.1887(5)
H20B H 0.2563 0.5839 -0.1695
C23B C 0.2392(6) 0.8284(9) -0.1687(5)
O3B O 0.2190(4) 0.9307(6) -0.1935(4)
N4B N 0.3231(5) 0.7997(6) -0.1189(4)
H21B H 0.3363 0.7254 -0.1029
C24B C 0.3929(6) 0.8937(8) -0.0912(6)
H22B H 0.4003 0.9345 -0.1363
H23B H 0.3705 0.9537 -0.0623
C25B C 0.4853(6) 0.8481(8) -0.0400(6)
C26B C 0.4996(6) 0.8127(8) 0.0344(6)
H24B H 0.4483 0.8098 0.0518
C27B C 0.5888(7) 0.7803(8) 0.0855(5)
H25B H 0.5962 0.7531 0.1362
C28B C 0.6649(6) 0.7875(8) 0.0635(6)
C29B C 0.6509(6) 0.8206(8) -0.0107(6)
H26B H 0.7026 0.8245 -0.0276
C30B C 0.5622(7) 0.8492(8) -0.0625(5)
H27B H 0.5546 0.8698 -0.1144
O4 O -0.1248(5) 0.7162(7) -0.0033(4)
C31 C -0.0548(8) 0.6966(11) 0.0541(7)
H28 H -0.0368 0.6152 0.0647
N5 N -0.0019(6) 0.7774(8) 0.1028(5)
C32 C 0.0783(6) 0.7444(10) 0.1700(6)
H29 H 0.0849 0.6571 0.1724
H30 H 0.0695 0.7734 0.2171
H31 H 0.1346 0.7806 0.1659
C33 C -0.0199(7) 0.9041(9) 0.0897(6)
H32 H -0.0662 0.9166 0.0378
H33 H 0.0381 0.9454 0.0938
H34 H -0.0437 0.9361 0.1286
O5 O 0.9250(4) 0.9229(6) 0.2857(4)
loop_
_geom_bond_atom_site_label_1
_geom_bond_atom_site_label_2
_geom_bond_site_symmetry_1
_geom_bond_site_symmetry_2
C1 C2 1_555 1_555
C2 H1 1_555 1_555
C3 C2 1_555 1_555
H2 C3 1_555 1_555
C4 C3 1_555 1_555
H3 C4 1_555 1_555
C5 C4 1_555 1_555
H4 C5 1_555 1_555
C6 C1 1_555 1_555
H5 C6 1_555 1_555
C7 C1 1_555 1_555
H6 C7 1_555 1_555
C8 C7 1_555 1_555
C9 C8 1_555 1_555
H7 C9 1_555 1_555
C10 C9 1_555 1_555
H8 C10 1_555 1_555
C11 C10 1_555 1_555
H9 C11 1_555 1_555
C12 C11 1_555 1_555
H10 C12 1_555 1_555
C13 C8 1_555 1_555
H11 C13 1_555 1_555
C14 C7 1_555 1_555
H12 C14 1_555 1_555
H13 C14 1_555 1_555
N1 C14 1_555 1_555
O1 N1 1_555 1_555
C15 N1 1_555 1_555
H14 C15 1_555 1_555
C16 H15 1_555 1_555
H16 C16 1_555 1_555
N2 C16 1_555 1_555
H17 N2 1_555 1_555
C17 N2 1_555 1_555
O2 C17 1_555 1_555
C18 C17 1_555 1_555
C19 C18 1_555 1_555
H18 C19 1_555 1_555
N3 C19 1_555 1_555
C20 N3 1_555 1_555
H19 C20 1_555 1_555
C21 C20 1_555 1_555
C22 C18 1_555 1_555
H20 C22 1_555 1_555
C23 C21 1_555 1_555
O3 C23 1_555 1_555
N4 C23 1_555 1_555
H21 N4 1_555 1_555
C24 N4 1_555 1_555
H22 C24 1_555 1_555
H23 C24 1_555 1_555
C25 C24 1_555 1_555
C26 C25 1_555 1_555
H24 C26 1_555 1_555
C27 C26 1_555 1_555
H25 C27 1_555 1_555
C28 C27 1_555 1_555
C29 C28 1_555 1_555
H26 C29 1_555 1_555
C30 C25 1_555 1_555
H27 C30 1_555 1_555
O4 C31 1_555 1_555
C31 H28 1_555 1_555
N5 C31 1_555 1_555
C32 N5 1_555 1_555
H29 C32 1_555 1_555
H30 C32 1_555 1_555
H31 C32 1_555 1_555
C33 N5 1_555 1_555
H32 C33 1_555 1_555
H33 C33 1_555 1_555
H34 C33 1_555 1_555
C1B C2B 1_555 1_555
C2B H1B 1_555 1_555
C3B C2B 1_555 1_555
H2B C3B 1_555 1_555
C4B C3B 1_555 1_555
H3B C4B 1_555 1_555
C5B C4B 1_555 1_555
H4B C5B 1_555 1_555
C6B C1B 1_555 1_555
H5B C6B 1_555 1_555
C7B C1B 1_555 1_555
H6B C7B 1_555 1_555
C8B C7B 1_555 1_555
C9B C8B 1_555 1_555
H7B C9B 1_555 1_555
C10B C9B 1_555 1_555
H8B C10B 1_555 1_555
C11B C10B 1_555 1_555
H9B C11B 1_555 1_555
C12B C11B 1_555 1_555
H10B C12B 1_555 1_555
C13B C8B 1_555 1_555
H11B C13B 1_555 1_555
C14B C7B 1_555 1_555
H12B C14B 1_555 1_555
H13B C14B 1_555 1_555
N1B C14B 1_555 1_555
O1B N1B 1_555 1_555
C15B C15 1_555 1_555
H14B C15B 1_555 1_555
C16B C28 1_555 1_555
H15B C16B 1_555 1_555
H16B C16B 1_555 1_555
N2B C16B 1_555 1_555
H17B N2B 1_555 1_555
C17B N2B 1_555 1_555
O2B C17B 1_555 1_555
C18B C17B 1_555 1_555
C19B C18B 1_555 1_555
H18B C19B 1_555 1_555
N3B C19B 1_555 1_555
C20B N3B 1_555 1_555
H19B C20B 1_555 1_555
C21B C20B 1_555 1_555
C22B C18B 1_555 1_555
H20B C22B 1_555 1_555
C23B C21B 1_555 1_555
O3B C23B 1_555 1_555
N4B C23B 1_555 1_555
H21B N4B 1_555 1_555
C24B N4B 1_555 1_555
H22B C24B 1_555 1_555
H23B C24B 1_555 1_555
C25B C24B 1_555 1_555
C26B C25B 1_555 1_555
H24B C26B 1_555 1_555
C27B C26B 1_555 1_555
H25B C27B 1_555 1_555
C28B C16 1_555 1_555
C29B C28B 1_555 1_555
H26B C29B 1_555 1_555
C30B C25B 1_555 1_555
H27B C30B 1_555 1_555
C5 C6 1_555 1_555
C12 C13 1_555 1_555
C21 C22 1_555 1_555
C29 C30 1_555 1_555
C5B C6B 1_555 1_555
C12B C13B 1_555 1_555
N1B C15B 1_555 1_555
C21B C22B 1_555 1_555
C27B C28B 1_555 1_555
C29B C30B 1_555 1_555

#END
