
#######################################################################
#
#                 Cambridge Crystallographic Data Centre
#                                CCDC 
#
#######################################################################
#
# If this CIF has been generated from an entry in the Cambridge 
# Structural Database, then it will include bibliographic, chemical, 
# crystal, experimental, refinement or atomic coordinate data resulting 
# from the CCDC's data processing and validation procedures.
#
#######################################################################

data_RUTMUP
_chemical_formula_moiety         'C30 H26 N6 O4,C30 H28 N2 O2'
_chemical_name_systematic        
"(2)-(1,2-bis(2,2-Diphenylethyliminio)ethane N,N'-dioxide)-(3,7,11,15-tetra-aza-1,9(1,4)-dibenzena-5,13(2,6)-dipyridinacyclohexadecaphane-4,6,12,14-tetraone)-rotaxane"
_symmetry_cell_setting           monoclinic
_symmetry_space_group_name_H-M   'P 21/c'
_symmetry_Int_Tables_number      14
_space_group_name_Hall           '-P 2ybc'
loop_
_symmetry_equiv_pos_site_id
_symmetry_equiv_pos_as_xyz
1 x,y,z
2 -x,1/2+y,1/2-z
3 -x,-y,-z
4 x,1/2-y,1/2+z
_cell_length_a                   14.547(4)
_cell_length_b                   11.196(3)
_cell_length_c                   16.222(4)
_cell_angle_alpha                90
_cell_angle_beta                 108.408(4)
_cell_angle_gamma                90
_cell_volume                     2506.86
_exptl_crystal_colour            colorless
_exptl_crystal_description       plate
_cell_formula_units_Z            2
loop_
_atom_site_label
_atom_site_type_symbol
_atom_site_fract_x
_atom_site_fract_y
_atom_site_fract_z
C1 C 1.0026(5) 0.5882(5) -0.7799(4)
H1 H 0.9477(5) 0.5389(5) -0.8151(4)
H2 H 1.0235(5) 0.6405(5) -0.8199(4)
N1 N 1.0828(4) 0.5102(4) -0.7333(3)
H3 H 1.0721(59) 0.4733(69) -0.6824(34)
C2 C 1.1691(5) 0.5176(5) -0.7410(4)
O1 O 1.1917(4) 0.5859(4) -0.7916(3)
C3 C 1.2458(4) 0.4378(4) -0.6809(4)
N2 N 1.2177(3) 0.3700(3) -0.6247(3)
C4 C 1.2866(4) 0.3026(5) -0.5717(4)
C5 C 1.3810(5) 0.2982(5) -0.5712(5)
H4 H 1.4270(5) 0.2485(5) -0.5313(5)
C6 C 1.4073(5) 0.3676(6) -0.6298(5)
H5 H 1.4722(5) 0.3678(6) -0.6309(5)
C7 C 1.3377(5) 0.4369(5) -0.6870(4)
H6 H 1.3531(5) 0.4833(5) -0.7299(4)
C8 C 1.2545(4) 0.2235(4) -0.5096(4)
O2 O 1.3161(3) 0.1701(4) -0.4513(3)
N3 N 1.1603(3) 0.2149(4) -0.5225(3)
H7 H 1.1113(31) 0.2548(48) -0.5702(26)
C9 C 1.1198(4) 0.1384(5) -0.4721(4)
H8 H 1.1684(4) 0.0773(5) -0.4431(4)
H9 H 1.0631(4) 0.0963(5) -0.5117(4)
C10 C 1.0882(4) 0.2042(4) -0.4034(4)
C11 C 0.9922(4) 0.2107(5) -0.4086(4)
H10 H 0.9453(4) 0.1697(5) -0.4541(4)
C12 C 0.9627(4) 0.2754(5) -0.3495(4)
H11 H 0.8960(4) 0.2788(5) -0.3543(4)
C13 C 1.0302(4) 0.3357(4) -0.2828(3)
C14 C 1.1256(4) 0.3269(5) -0.2764(4)
H12 H 1.1728(4) 0.3665(5) -0.2303(4)
C15 C 1.1553(4) 0.2607(5) -0.3363(4)
H13 H 1.2222(4) 0.2549(5) -0.3304(4)
C1B C 0.9974(5) 0.4118(5) -0.2201(4)
H1B H 1.0523(5) 0.4611(5) -0.1849(4)
H2B H 0.9765(5) 0.3595(5) -0.1801(4)
N1B N 0.9172(4) 0.4898(4) -0.2667(3)
H3B H 0.9279(59) 0.5267(69) -0.3176(34)
C2B C 0.8309(5) 0.4824(5) -0.2590(4)
O1B O 0.8083(4) 0.4141(4) -0.2084(3)
C3B C 0.7542(4) 0.5622(4) -0.3191(4)
N2B N 0.7823(3) 0.6300(3) -0.3753(3)
C4B C 0.7134(4) 0.6974(5) -0.4283(4)
C5B C 0.6190(5) 0.7018(5) -0.4288(5)
H4B H 0.5730(5) 0.7515(5) -0.4687(5)
C6B C 0.5927(5) 0.6324(6) -0.3702(5)
H5B H 0.5278(5) 0.6322(6) -0.3691(5)
C7B C 0.6623(5) 0.5631(5) -0.3130(4)
H6B H 0.6469(5) 0.5167(5) -0.2701(4)
C8B C 0.7455(4) 0.7765(4) -0.4904(4)
O2B O 0.6839(3) 0.8299(4) -0.5487(3)
N3B N 0.8397(3) 0.7851(4) -0.4775(3)
H7B H 0.8887(31) 0.7452(48) -0.4298(26)
C9B C 0.8802(4) 0.8616(5) -0.5279(4)
H8B H 0.8316(4) 0.9227(5) -0.5569(4)
H9B H 0.9369(4) 0.9037(5) -0.4883(4)
C10B C 0.9118(4) 0.7958(4) -0.5966(4)
C11B C 1.0078(4) 0.7893(5) -0.5914(4)
H10B H 1.0547(4) 0.8303(5) -0.5459(4)
C12B C 1.0373(4) 0.7246(5) -0.6505(4)
H11B H 1.1040(4) 0.7212(5) -0.6457(4)
C13B C 0.9698(4) 0.6643(4) -0.7172(3)
C14B C 0.8744(4) 0.6731(5) -0.7236(4)
H12B H 0.8272(4) 0.6335(5) -0.7697(4)
C15B C 0.8447(4) 0.7393(5) -0.6637(4)
H13B H 0.7778(4) 0.7451(5) -0.6696(4)
C16 C 0.7452(4) 0.4218(5) -0.6111(4)
H14 H 0.7590(4) 0.5003(5) -0.5802(4)
C17 C 0.8305(4) 0.3949(6) -0.6431(4)
H15 H 0.8274(4) 0.3096(6) -0.6597(4)
H16 H 0.8230(4) 0.4425(6) -0.6962(4)
N4 N 0.9260(5) 0.4187(8) -0.5821(5)
O3 O 0.9971(3) 0.3799(5) -0.6120(4)
C18 C 0.9516(9) 0.4880(11) -0.5260(9)
H17 H 0.9023(9) 0.5336(11) -0.5138(9)
C19 C 0.6549(4) 0.4378(5) -0.6865(4)
C20 C 0.6073(4) 0.3433(5) -0.7385(4)
H18 H 0.6319(4) 0.2646(5) -0.7248(4)
C21 C 0.5268(4) 0.3603(5) -0.8081(4)
H19 H 0.4960(4) 0.2934(5) -0.8417(4)
C22 C 0.4893(4) 0.4726(6) -0.8308(5)
H20 H 0.4332(4) 0.4846(6) -0.8796(5)
C23 C 0.5353(5) 0.5662(5) -0.7809(5)
H21 H 0.5109(5) 0.6447(5) -0.7957(5)
C24 C 0.6147(4) 0.5500(5) -0.7110(5)
H22 H 0.6441(4) 0.6176(5) -0.6776(5)
C25 C 0.7283(4) 0.3304(5) -0.5463(4)
C26 C 0.7465(4) 0.2080(5) -0.5503(4)
H23 H 0.7750(4) 0.1790(5) -0.5916(4)
C27 C 0.7232(4) 0.1293(5) -0.4943(4)
H24 H 0.7354(4) 0.0464(5) -0.4979(4)
C28 C 0.6826(5) 0.1691(6) -0.4335(5)
H25 H 0.6680(5) 0.1145(6) -0.3946(5)
C29 C 0.6632(5) 0.2890(6) -0.4295(5)
H26 H 0.6348(5) 0.3170(6) -0.3879(5)
C30 C 0.6847(4) 0.3688(6) -0.4857(4)
H27 H 0.6697(4) 0.4510(6) -0.4831(4)
C16B C 1.2548(4) 0.5782(5) -0.3889(4)
H14B H 1.2410(4) 0.4997(5) -0.4198(4)
C17B C 1.1695(4) 0.6051(6) -0.3569(4)
H15B H 1.1726(4) 0.6904(6) -0.3403(4)
H16B H 1.1770(4) 0.5575(6) -0.3038(4)
N4B N 1.0740(5) 0.5813(8) -0.4179(5)
O3B O 1.0029(3) 0.6201(5) -0.3880(4)
C18B C 1.0484(9) 0.5120(11) -0.4740(9)
H17B H 1.0977(9) 0.4664(11) -0.4862(9)
C19B C 1.3451(4) 0.5622(5) -0.3135(4)
C20B C 1.3927(4) 0.6567(5) -0.2615(4)
H18B H 1.3681(4) 0.7354(5) -0.2752(4)
C21B C 1.4732(4) 0.6397(5) -0.1919(4)
H19B H 1.5040(4) 0.7066(5) -0.1583(4)
C22B C 1.5107(4) 0.5274(6) -0.1692(5)
H20B H 1.5668(4) 0.5154(6) -0.1204(5)
C23B C 1.4647(5) 0.4338(5) -0.2191(5)
H21B H 1.4891(5) 0.3553(5) -0.2043(5)
C24B C 1.3853(4) 0.4500(5) -0.2890(5)
H22B H 1.3559(4) 0.3824(5) -0.3224(5)
C25B C 1.2717(4) 0.6696(5) -0.4537(4)
C26B C 1.2535(4) 0.7920(5) -0.4497(4)
H23B H 1.2250(4) 0.8210(5) -0.4084(4)
C27B C 1.2768(4) 0.8707(5) -0.5057(4)
H24B H 1.2646(4) 0.9536(5) -0.5021(4)
C28B C 1.3174(5) 0.8309(6) -0.5665(5)
H25B H 1.3320(5) 0.8855(6) -0.6054(5)
C29B C 1.3368(5) 0.7110(6) -0.5705(5)
H26B H 1.3652(5) 0.6830(6) -0.6121(5)
C30B C 1.3153(4) 0.6312(6) -0.5143(4)
H27B H 1.3303(4) 0.5490(6) -0.5169(4)
loop_
_geom_bond_atom_site_label_1
_geom_bond_atom_site_label_2
_geom_bond_site_symmetry_1
_geom_bond_site_symmetry_2
C1 H1 1_555 1_555
H2 C1 1_555 1_555
N1 C1 1_555 1_555
H3 N1 1_555 1_555
C2 N1 1_555 1_555
O1 C2 1_555 1_555
C3 C2 1_555 1_555
N2 C3 1_555 1_555
C4 N2 1_555 1_555
C5 C4 1_555 1_555
H4 C5 1_555 1_555
C6 C5 1_555 1_555
H5 C6 1_555 1_555
C7 C3 1_555 1_555
H6 C7 1_555 1_555
C8 C4 1_555 1_555
O2 C8 1_555 1_555
N3 C8 1_555 1_555
H7 N3 1_555 1_555
C9 N3 1_555 1_555
H8 C9 1_555 1_555
H9 C9 1_555 1_555
C10 C9 1_555 1_555
C11 C10 1_555 1_555
H10 C11 1_555 1_555
C12 C11 1_555 1_555
H11 C12 1_555 1_555
C13 C12 1_555 1_555
C14 C13 1_555 1_555
H12 C14 1_555 1_555
C15 C10 1_555 1_555
H13 C15 1_555 1_555
C16 H14 1_555 1_555
C17 C16 1_555 1_555
H15 C17 1_555 1_555
H16 C17 1_555 1_555
N4 C17 1_555 1_555
O3 N4 1_555 1_555
C18 N4 1_555 1_555
H17 C18 1_555 1_555
C19 C16 1_555 1_555
C20 C19 1_555 1_555
H18 C20 1_555 1_555
C21 C20 1_555 1_555
H19 C21 1_555 1_555
C22 C21 1_555 1_555
H20 C22 1_555 1_555
C23 C22 1_555 1_555
H21 C23 1_555 1_555
C24 C19 1_555 1_555
H22 C24 1_555 1_555
C25 C16 1_555 1_555
C26 C25 1_555 1_555
H23 C26 1_555 1_555
C27 C26 1_555 1_555
H24 C27 1_555 1_555
C28 C27 1_555 1_555
H25 C28 1_555 1_555
C29 C28 1_555 1_555
H26 C29 1_555 1_555
C30 C25 1_555 1_555
H27 C30 1_555 1_555
C1B C13 1_555 1_555
H1B C1B 1_555 1_555
H2B C1B 1_555 1_555
N1B C1B 1_555 1_555
H3B N1B 1_555 1_555
C2B N1B 1_555 1_555
O1B C2B 1_555 1_555
C3B C2B 1_555 1_555
N2B C3B 1_555 1_555
C4B N2B 1_555 1_555
C5B C4B 1_555 1_555
H4B C5B 1_555 1_555
C6B C5B 1_555 1_555
H5B C6B 1_555 1_555
C7B C3B 1_555 1_555
H6B C7B 1_555 1_555
C8B C4B 1_555 1_555
O2B C8B 1_555 1_555
N3B C8B 1_555 1_555
H7B N3B 1_555 1_555
C9B N3B 1_555 1_555
H8B C9B 1_555 1_555
H9B C9B 1_555 1_555
C10B C9B 1_555 1_555
C11B C10B 1_555 1_555
H10B C11B 1_555 1_555
C12B C11B 1_555 1_555
H11B C12B 1_555 1_555
C13B C1 1_555 1_555
C14B C13B 1_555 1_555
H12B C14B 1_555 1_555
C15B C10B 1_555 1_555
H13B C15B 1_555 1_555
C16B H14B 1_555 1_555
C17B C16B 1_555 1_555
H15B C17B 1_555 1_555
H16B C17B 1_555 1_555
N4B C17B 1_555 1_555
O3B N4B 1_555 1_555
C18B C18 1_555 1_555
H17B C18B 1_555 1_555
C19B C16B 1_555 1_555
C20B C19B 1_555 1_555
H18B C20B 1_555 1_555
C21B C20B 1_555 1_555
H19B C21B 1_555 1_555
C22B C21B 1_555 1_555
H20B C22B 1_555 1_555
C23B C22B 1_555 1_555
H21B C23B 1_555 1_555
C24B C19B 1_555 1_555
H22B C24B 1_555 1_555
C25B C16B 1_555 1_555
C26B C25B 1_555 1_555
H23B C26B 1_555 1_555
C27B C26B 1_555 1_555
H24B C27B 1_555 1_555
C28B C27B 1_555 1_555
H25B C28B 1_555 1_555
C29B C28B 1_555 1_555
H26B C29B 1_555 1_555
C30B C25B 1_555 1_555
H27B C30B 1_555 1_555
C6 C7 1_555 1_555
C14 C15 1_555 1_555
C23 C24 1_555 1_555
C29 C30 1_555 1_555
C6B C7B 1_555 1_555
C12B C13B 1_555 1_555
C14B C15B 1_555 1_555
N4B C18B 1_555 1_555
C23B C24B 1_555 1_555
C29B C30B 1_555 1_555

#END
