
#######################################################################
#
#                 Cambridge Crystallographic Data Centre
#                                CCDC 
#
#######################################################################
#
# If this CIF has been generated from an entry in the Cambridge 
# Structural Database, then it will include bibliographic, chemical, 
# crystal, experimental, refinement or atomic coordinate data resulting 
# from the CCDC's data processing and validation procedures.
#
#######################################################################

data_RUTPIH
_chemical_formula_moiety         'C20 H21 N3 O2 S1'
_chemical_name_systematic        
3-benzyl-3,5,6,7,8,15-hexahydro[1,10,5]benzodioxathiacyclododecino[3,4-d][1,2,3]triazole
_symmetry_cell_setting           triclinic
_symmetry_space_group_name_H-M   'P -1'
_symmetry_Int_Tables_number      2
_space_group_name_Hall           '-P 1'
loop_
_symmetry_equiv_pos_site_id
_symmetry_equiv_pos_as_xyz
1 x,y,z
2 -x,-y,-z
_cell_length_a                   9.261(17)
_cell_length_b                   9.968(18)
_cell_length_c                   10.559(19)
_cell_angle_alpha                77.069(14)
_cell_angle_beta                 84.012(14)
_cell_angle_gamma                76.893(15)
_cell_volume                     923.796
_exptl_crystal_colour            white
_exptl_crystal_description       block
_cell_formula_units_Z            2
loop_
_atom_site_label
_atom_site_type_symbol
_atom_site_fract_x
_atom_site_fract_y
_atom_site_fract_z
C1 C 0.9073(2) -0.0084(2) -0.13691(19)
H1 H 1.0103 -0.0264 -0.1377
C2 C 0.8386(3) -0.1060(2) -0.16199(19)
H2 H 0.8943 -0.1917 -0.1772
C3 C 0.6879(3) -0.0777(2) -0.1647(2)
H3 H 0.6410 -0.1431 -0.1843
C4 C 0.6042(2) 0.0477(2) -0.13855(19)
H4 H 0.5014 0.0662 -0.1409
C5 C 0.6724(2) 0.14597(18) -0.10888(15)
C6 C 0.8247(2) 0.11736(19) -0.11024(17)
H5 H 0.8728 0.1832 -0.0931
C7 C 0.5763(2) 0.27847(19) -0.07602(18)
H6 H 0.5214 0.3307 -0.1514
H7 H 0.5046 0.2528 -0.0061
C8 C 0.71050(18) 0.36121(16) 0.08067(15)
C9 C 0.77823(19) 0.47425(17) 0.06042(16)
C10 C 0.8506(2) 0.5247(2) 0.15401(18)
H8 H 0.8930 0.4463 0.2213
H9 H 0.9297 0.5698 0.1097
C11 C 0.78299(18) 0.66326(18) 0.31530(16)
C12 C 0.8062(2) 0.7969(2) 0.3013(2)
H10 H 0.8003 0.8574 0.2201
C13 C 0.8383(3) 0.8417(2) 0.4079(2)
H11 H 0.8548 0.9320 0.3989
C14 C 0.8454(2) 0.7517(3) 0.5270(2)
H12 H 0.8662 0.7824 0.5987
C15 C 0.8227(2) 0.6165(2) 0.54330(18)
H13 H 0.8283 0.5568 0.6249
C16 C 0.7915(2) 0.57130(19) 0.43642(17)
C17 C 0.7575(2) 0.3422(2) 0.55714(17)
H14 H 0.6732 0.3773 0.6121
H15 H 0.8471 0.3256 0.6035
C18 C 0.7401(2) 0.2089(2) 0.52310(17)
H16 H 0.7512 0.1352 0.6011
H17 H 0.8205 0.1820 0.4611
C19 C 0.5941(2) 0.2145(2) 0.46612(17)
H18 H 0.5136 0.2503 0.5242
H19 H 0.5876 0.1191 0.4649
C20 C 0.5695(2) 0.3040(2) 0.32900(16)
H20 H 0.5850 0.3978 0.3257
H21 H 0.4683 0.3123 0.3071
N1 N 0.76461(18) 0.54453(15) -0.06525(14)
N2 N 0.69198(18) 0.47994(15) -0.12465(13)
N3 N 0.65747(15) 0.36987(14) -0.03678(13)
O1 O 0.73933(12) 0.62336(11) 0.21036(11)
O2 O 0.76631(17) 0.44185(14) 0.43711(11)
S1 S 0.69901(6) 0.22173(5) 0.21238(4)
loop_
_geom_bond_atom_site_label_1
_geom_bond_atom_site_label_2
_geom_bond_site_symmetry_1
_geom_bond_site_symmetry_2
C1 H1 1_555 1_555
C2 C1 1_555 1_555
H2 C2 1_555 1_555
C3 C2 1_555 1_555
H3 C3 1_555 1_555
C4 C3 1_555 1_555
H4 C4 1_555 1_555
C5 C4 1_555 1_555
C6 C1 1_555 1_555
H5 C6 1_555 1_555
C7 C5 1_555 1_555
H6 C7 1_555 1_555
H7 C7 1_555 1_555
C8 C9 1_555 1_555
C9 C10 1_555 1_555
C10 H8 1_555 1_555
H9 C10 1_555 1_555
C11 C12 1_555 1_555
C12 H10 1_555 1_555
C13 C12 1_555 1_555
H11 C13 1_555 1_555
C14 C13 1_555 1_555
H12 C14 1_555 1_555
C15 C14 1_555 1_555
H13 C15 1_555 1_555
C16 C11 1_555 1_555
C17 H14 1_555 1_555
H15 C17 1_555 1_555
C18 C17 1_555 1_555
H16 C18 1_555 1_555
H17 C18 1_555 1_555
C19 C18 1_555 1_555
H18 C19 1_555 1_555
H19 C19 1_555 1_555
C20 C19 1_555 1_555
H20 C20 1_555 1_555
H21 C20 1_555 1_555
N1 C9 1_555 1_555
N2 N1 1_555 1_555
N3 C7 1_555 1_555
O1 C10 1_555 1_555
O2 C16 1_555 1_555
S1 C8 1_555 1_555
C5 C6 1_555 1_555
C8 N3 1_555 1_555
C11 O1 1_555 1_555
C15 C16 1_555 1_555
C17 O2 1_555 1_555
C20 S1 1_555 1_555
N2 N3 1_555 1_555

#END
