
#######################################################################
#
#                 Cambridge Crystallographic Data Centre
#                                CCDC 
#
#######################################################################
#
# If this CIF has been generated from an entry in the Cambridge 
# Structural Database, then it will include bibliographic, chemical, 
# crystal, experimental, refinement or atomic coordinate data resulting 
# from the CCDC's data processing and validation procedures.
#
#######################################################################

data_RUTPED
_chemical_formula_moiety         'C29 H25 N5 O2'
_chemical_name_systematic        
N,N-dibenzyl-1-(4-nitrobenzyl)-4-phenyl-1H-1,2,3-triazol-5-amine
_symmetry_cell_setting           monoclinic
_symmetry_space_group_name_H-M   'P 21/c'
_symmetry_Int_Tables_number      14
_space_group_name_Hall           '-P 2ybc'
loop_
_symmetry_equiv_pos_site_id
_symmetry_equiv_pos_as_xyz
1 x,y,z
2 -x,1/2+y,1/2-z
3 -x,-y,-z
4 x,1/2-y,1/2+z
_cell_length_a                   14.187(14)
_cell_length_b                   8.212(8)
_cell_length_c                   21.47(2)
_cell_angle_alpha                90
_cell_angle_beta                 97.017(9)
_cell_angle_gamma                90
_cell_volume                     2482.6
_exptl_crystal_colour            yellow
_exptl_crystal_description       block
_cell_formula_units_Z            4
loop_
_atom_site_label
_atom_site_type_symbol
_atom_site_fract_x
_atom_site_fract_y
_atom_site_fract_z
C1 C 0.6641(3) 0.7618(5) 0.66038(17)
H1 H 0.6209 0.7490 0.6893
C2 C 0.6583(3) 0.8941(5) 0.62123(17)
H2 H 0.6118 0.9724 0.6243
C3 C 0.7212(2) 0.9125(4) 0.57699(15)
H3 H 0.7163 1.0027 0.5506
C4 C 0.7909(2) 0.7976(4) 0.57194(13)
C5 C 0.7977(2) 0.6654(4) 0.61335(14)
H4 H 0.8454 0.5885 0.6117
C6 C 0.7341(3) 0.6484(5) 0.65651(16)
H5 H 0.7387 0.5590 0.6833
C7 C 0.6390(4) 1.3573(5) 0.5004(2)
H6 H 0.6168 1.4318 0.5278
C8 C 0.7339(4) 1.3327(5) 0.5013(2)
H7 H 0.7767 1.3927 0.5284
C9 C 0.7668(3) 1.2191(4) 0.46193(19)
H8 H 0.8319 1.2032 0.4628
C10 C 0.7045(2) 1.1282(4) 0.42099(15)
C11 C 0.6091(3) 1.1579(5) 0.4200(2)
H9 H 0.5659 1.0998 0.3924
C12 C 0.5760(3) 1.2720(6) 0.4590(2)
H10 H 0.5112 1.2913 0.4573
C13 C 0.5098(3) 0.5269(6) 0.2795(2)
H11 H 0.4731 0.4745 0.2466
C14 C 0.4675(3) 0.6293(6) 0.3169(2)
H12 H 0.4026 0.6489 0.3093
C15 C 0.5232(3) 0.7065(5) 0.3676(2)
H13 H 0.4946 0.7745 0.3944
C16 C 0.6199(3) 0.6808(5) 0.37721(18)
C17 C 0.6600(3) 0.5747(6) 0.33760(18)
H14 H 0.7250 0.5544 0.3438
C18 C 0.6036(4) 0.4993(6) 0.28903(19)
H15 H 0.6310 0.4285 0.2626
C19 C 0.6790(2) 0.7555(4) 0.43319(14)
H16 H 0.6401 0.8314 0.4535
H17 H 0.6995 0.6704 0.4631
C20 C 0.7411(2) 0.9960(4) 0.38228(14)
H18 H 0.6944 0.9754 0.3463
H19 H 0.7985 1.0343 0.3667
C21 C 0.8885(2) 0.4076(4) 0.27405(14)
C22 C 0.9241(2) 0.3933(4) 0.33646(14)
H20 H 0.9324 0.2915 0.3553
C23 C 0.9469(2) 0.5331(4) 0.37015(14)
H21 H 0.9711 0.5253 0.4123
C24 C 0.9347(2) 0.6850(4) 0.34275(13)
C25 C 0.9001(2) 0.6945(4) 0.27946(15)
H22 H 0.8925 0.7960 0.2602
C26 C 0.8768(2) 0.5562(4) 0.24477(14)
H23 H 0.8536 0.5631 0.2024
C27 C 0.9622(2) 0.8377(4) 0.37976(14)
H24 H 1.0307 0.8505 0.3838
H25 H 0.9339 0.9312 0.3570
C28 C 0.8425(2) 0.8347(4) 0.46033(13)
C29 C 0.8582(2) 0.8110(4) 0.52487(13)
N1 N 0.9529(2) 0.7941(3) 0.54160(13)
N2 N 0.9977(2) 0.8093(4) 0.49195(13)
N3 N 0.93148(17) 0.8336(3) 0.44226(11)
N4 N 0.76239(17) 0.8410(3) 0.41599(11)
N5 N 0.8611(2) 0.2599(4) 0.23801(13)
O1 O 0.8704(2) 0.1290(3) 0.26473(13)
O2 O 0.8319(2) 0.2727(3) 0.18222(12)
loop_
_geom_bond_atom_site_label_1
_geom_bond_atom_site_label_2
_geom_bond_site_symmetry_1
_geom_bond_site_symmetry_2
C1 H1 1_555 1_555
C2 C1 1_555 1_555
H2 C2 1_555 1_555
C3 C2 1_555 1_555
H3 C3 1_555 1_555
C4 C3 1_555 1_555
C5 C4 1_555 1_555
H4 C5 1_555 1_555
C6 C1 1_555 1_555
H5 C6 1_555 1_555
C7 H6 1_555 1_555
C8 C7 1_555 1_555
H7 C8 1_555 1_555
C9 C8 1_555 1_555
H8 C9 1_555 1_555
C10 C9 1_555 1_555
C11 C10 1_555 1_555
H9 C11 1_555 1_555
C12 C7 1_555 1_555
H10 C12 1_555 1_555
C13 H11 1_555 1_555
C14 C13 1_555 1_555
H12 C14 1_555 1_555
C15 C14 1_555 1_555
H13 C15 1_555 1_555
C16 C15 1_555 1_555
C17 C16 1_555 1_555
H14 C17 1_555 1_555
C18 C13 1_555 1_555
H15 C18 1_555 1_555
C19 C16 1_555 1_555
H16 C19 1_555 1_555
H17 C19 1_555 1_555
C20 C10 1_555 1_555
H18 C20 1_555 1_555
H19 C20 1_555 1_555
C21 C22 1_555 1_555
C22 H20 1_555 1_555
C23 C22 1_555 1_555
H21 C23 1_555 1_555
C24 C23 1_555 1_555
C25 C24 1_555 1_555
H22 C25 1_555 1_555
C26 C21 1_555 1_555
H23 C26 1_555 1_555
C27 C24 1_555 1_555
H24 C27 1_555 1_555
H25 C27 1_555 1_555
C28 C29 1_555 1_555
C29 C4 1_555 1_555
N1 C29 1_555 1_555
N2 N1 1_555 1_555
N3 C27 1_555 1_555
N4 C19 1_555 1_555
N5 C21 1_555 1_555
O1 N5 1_555 1_555
O2 N5 1_555 1_555
C5 C6 1_555 1_555
C11 C12 1_555 1_555
C17 C18 1_555 1_555
C20 N4 1_555 1_555
C25 C26 1_555 1_555
C28 N3 1_555 1_555
C28 N4 1_555 1_555
N2 N3 1_555 1_555

#END
