
#######################################################################
#
#                 Cambridge Crystallographic Data Centre
#                                CCDC 
#
#######################################################################
#
# If this CIF has been generated from an entry in the Cambridge 
# Structural Database, then it will include bibliographic, chemical, 
# crystal, experimental, refinement or atomic coordinate data resulting 
# from the CCDC's data processing and validation procedures.
#
#######################################################################

data_RUTYOW
_chemical_formula_moiety         'C38 H30 N4 S3'
_chemical_name_systematic        
2,7-di-t-butyl-10,14-bis(2-thienyl)phenanthro[4,5-abc][1,2,5]thiadiazolo[3,4-i]phenazine
_symmetry_cell_setting           orthorhombic
_symmetry_space_group_name_H-M   'P b c n'
_symmetry_Int_Tables_number      60
_space_group_name_Hall           '-P 2n 2ab'
loop_
_symmetry_equiv_pos_site_id
_symmetry_equiv_pos_as_xyz
1 x,y,z
2 1/2-x,1/2-y,1/2+z
3 -x,y,1/2-z
4 1/2+x,1/2-y,-z
5 -x,-y,-z
6 1/2+x,1/2+y,1/2-z
7 x,-y,1/2+z
8 1/2-x,1/2+y,z
_cell_length_a                   29.6046(8)
_cell_length_b                   11.8388(4)
_cell_length_c                   17.1781(4)
_cell_angle_alpha                90
_cell_angle_beta                 90
_cell_angle_gamma                90
_cell_volume                     6020.63
_exptl_crystal_colour            black
_exptl_crystal_description       needle
_cell_formula_units_Z            8
loop_
_atom_site_label
_atom_site_type_symbol
_atom_site_fract_x
_atom_site_fract_y
_atom_site_fract_z
C1 C 0.70436(10) 0.6315(2) 0.15230(15)
C2 C 0.75325(10) 0.6367(2) 0.15649(14)
C3 C 0.77938(9) 0.5522(2) 0.19438(15)
C4 C 0.75355(9) 0.4684(2) 0.23280(15)
C5 C 0.70492(9) 0.4653(2) 0.23037(14)
C6 C 0.67872(9) 0.5443(2) 0.18759(15)
C7 C 0.82853(10) 0.5508(2) 0.19030(15)
C8 C 0.85645(10) 0.6321(3) 0.15750(17)
H1 H 0.8454 0.7013 0.137
C9 C 0.90250(11) 0.6028(3) 0.15743(19)
H2 H 0.9257 0.6497 0.1372
C10 C 0.91005(11) 0.4995(3) 0.18967(19)
H3 H 0.939 0.4657 0.1938
C11 C 0.62992(10) 0.5373(2) 0.17846(16)
C12 C 0.60130(11) 0.6180(3) 0.1470(2)
H4 H 0.6114 0.6896 0.1291
C13 C 0.55573(11) 0.5834(3) 0.1442(2)
H5 H 0.532 0.6292 0.1244
C14 C 0.54935(11) 0.4784(3) 0.17266(18)
H6 H 0.5209 0.4415 0.1744
C15 C 0.70490(9) 0.3070(2) 0.30999(15)
C16 C 0.75363(9) 0.3078(2) 0.31027(14)
C17 C 0.77827(9) 0.2203(2) 0.35334(15)
C18 C 0.82521(9) 0.2223(2) 0.35915(15)
H7 H 0.8415 0.2808 0.3337
C19 C 0.84929(10) 0.1403(2) 0.40156(15)
C20 C 0.82447(10) 0.0541(2) 0.43581(16)
H8 H 0.8401 -0.0039 0.4629
C21 C 0.77713(10) 0.0495(2) 0.43194(15)
C22 C 0.75192(10) -0.0383(2) 0.47011(15)
H9 H 0.7677 -0.0983 0.4947
C23 C 0.70642(10) -0.0374(2) 0.47186(15)
H10 H 0.6907 -0.0959 0.4984
C24 C 0.68136(10) 0.0507(2) 0.43409(15)
C25 C 0.63405(10) 0.0562(2) 0.43851(16)
H11 H 0.6184 0.0003 0.4676
C26 C 0.60917(10) 0.1409(2) 0.40158(15)
C27 C 0.63315(10) 0.2228(2) 0.35934(16)
H12 H 0.6169 0.2807 0.3334
C28 C 0.68003(9) 0.2215(2) 0.35439(15)
C29 C 0.70499(9) 0.1353(2) 0.39228(15)
C30 C 0.75348(9) 0.1348(2) 0.39143(15)
C31 C 0.90011(10) 0.1497(2) 0.41457(16)
C32 C 0.90702(13) 0.2072(4) 0.4933(2)
H13 H 0.8946 0.2839 0.4914
H14 H 0.9394 0.2107 0.5052
H15 H 0.8915 0.1638 0.5339
C33 C 0.92272(12) 0.0338(3) 0.4168(3)
H16 H 0.9098 -0.011 0.4593
H17 H 0.9552 0.0431 0.4253
H18 H 0.9177 -0.0051 0.3672
C34 C 0.92374(12) 0.2207(4) 0.3520(2)
H19 H 0.9182 0.1873 0.3007
H20 H 0.9563 0.2222 0.3622
H21 H 0.9118 0.2979 0.3531
C35 C 0.55779(10) 0.1470(2) 0.41214(17)
C36 C 0.53566(11) 0.2256(3) 0.3524(2)
H22 H 0.546 0.3032 0.3611
H23 H 0.5027 0.2222 0.3581
H24 H 0.5441 0.2015 0.2998
C37 C 0.53628(11) 0.0295(3) 0.4026(2)
H25 H 0.5429 0.0003 0.3505
H26 H 0.5035 0.0354 0.4095
H27 H 0.5487 -0.0219 0.4419
C38 C 0.54841(12) 0.1909(3) 0.4942(2)
H28 H 0.5632 0.1418 0.5323
H29 H 0.5158 0.1913 0.5036
H30 H 0.5602 0.2679 0.4992
N1 N 0.68673(8) 0.7182(2) 0.11004(13)
N2 N 0.77025(8) 0.7284(2) 0.11867(13)
N3 N 0.68198(8) 0.38312(18) 0.26999(12)
N4 N 0.77634(8) 0.38634(19) 0.27247(12)
S1 S 0.72812(3) 0.79541(6) 0.08271(4)
S2 S 0.86145(3) 0.43796(7) 0.22184(5)
S3 S 0.59825(3) 0.41981(7) 0.20502(5)
loop_
_geom_bond_atom_site_label_1
_geom_bond_atom_site_label_2
_geom_bond_site_symmetry_1
_geom_bond_site_symmetry_2
C1 C2 1_555 1_555
C2 C3 1_555 1_555
C3 C4 1_555 1_555
C4 C5 1_555 1_555
C5 C6 1_555 1_555
C6 C1 1_555 1_555
C7 C3 1_555 1_555
C8 C7 1_555 1_555
H1 C8 1_555 1_555
C9 C8 1_555 1_555
H2 C9 1_555 1_555
C10 C9 1_555 1_555
H3 C10 1_555 1_555
C11 C6 1_555 1_555
C12 C11 1_555 1_555
H4 C12 1_555 1_555
C13 C12 1_555 1_555
H5 C13 1_555 1_555
C14 C13 1_555 1_555
H6 C14 1_555 1_555
C15 C16 1_555 1_555
C16 C17 1_555 1_555
C17 C18 1_555 1_555
C18 H7 1_555 1_555
C19 C18 1_555 1_555
C20 C19 1_555 1_555
H8 C20 1_555 1_555
C21 C20 1_555 1_555
C22 C21 1_555 1_555
H9 C22 1_555 1_555
C23 C22 1_555 1_555
H10 C23 1_555 1_555
C24 C23 1_555 1_555
C25 C24 1_555 1_555
H11 C25 1_555 1_555
C26 C25 1_555 1_555
C27 C26 1_555 1_555
H12 C27 1_555 1_555
C28 C15 1_555 1_555
C29 C24 1_555 1_555
C30 C17 1_555 1_555
C31 C19 1_555 1_555
C32 C31 1_555 1_555
H13 C32 1_555 1_555
H14 C32 1_555 1_555
H15 C32 1_555 1_555
C33 C31 1_555 1_555
H16 C33 1_555 1_555
H17 C33 1_555 1_555
H18 C33 1_555 1_555
C34 C31 1_555 1_555
H19 C34 1_555 1_555
H20 C34 1_555 1_555
H21 C34 1_555 1_555
C35 C26 1_555 1_555
C36 C35 1_555 1_555
H22 C36 1_555 1_555
H23 C36 1_555 1_555
H24 C36 1_555 1_555
C37 C35 1_555 1_555
H25 C37 1_555 1_555
H26 C37 1_555 1_555
H27 C37 1_555 1_555
C38 C35 1_555 1_555
H28 C38 1_555 1_555
H29 C38 1_555 1_555
H30 C38 1_555 1_555
N1 C1 1_555 1_555
N2 C2 1_555 1_555
N3 C5 1_555 1_555
N4 C4 1_555 1_555
S1 N1 1_555 1_555
S2 C7 1_555 1_555
S3 C11 1_555 1_555
C10 S2 1_555 1_555
C14 S3 1_555 1_555
C15 N3 1_555 1_555
C16 N4 1_555 1_555
C21 C30 1_555 1_555
C27 C28 1_555 1_555
C28 C29 1_555 1_555
C29 C30 1_555 1_555
N2 S1 1_555 1_555

#END
