
#######################################################################
#
#                 Cambridge Crystallographic Data Centre
#                                CCDC 
#
#######################################################################
#
# If this CIF has been generated from an entry in the Cambridge 
# Structural Database, then it will include bibliographic, chemical, 
# crystal, experimental, refinement or atomic coordinate data resulting 
# from the CCDC's data processing and validation procedures.
#
#######################################################################

data_RUTYUC
_chemical_formula_moiety         '2(C38 H30 N4 S3),C12 H4 N4'
_chemical_name_systematic        
"bis(2,7-di-t-butyl-10,14-bis(2-thienyl)phenanthro[4,5-abc][1,2,5]thiadiazolo[3,4-i]phenazine) 2,2'-cyclohexa-2,5-diene-1,4-diylidenedimalononitrile"
_symmetry_cell_setting           triclinic
_symmetry_space_group_name_H-M   'P -1'
_symmetry_Int_Tables_number      2
_space_group_name_Hall           '-P 1'
loop_
_symmetry_equiv_pos_site_id
_symmetry_equiv_pos_as_xyz
1 x,y,z
2 -x,-y,-z
_cell_length_a                   10.6919(2)
_cell_length_b                   11.6399(2)
_cell_length_c                   14.4791(3)
_cell_angle_alpha                90.178(6)
_cell_angle_beta                 104.400(7)
_cell_angle_gamma                95.311(7)
_cell_volume                     1737.22
_exptl_crystal_colour            green
_exptl_crystal_description       prism
_cell_formula_units_Z            1
loop_
_atom_site_label
_atom_site_type_symbol
_atom_site_fract_x
_atom_site_fract_y
_atom_site_fract_z
S1 S 0.92957(5) 0.07788(4) 0.38302(4)
S2 S 0.85275(6) 0.36296(5) 0.72154(4)
S3 S 0.79091(7) 0.53415(5) 0.18657(4)
N1 N 0.94196(17) 0.13650(15) 0.48560(13)
N2 N 0.85158(16) 0.51712(15) 0.57186(12)
N3 N 0.77488(16) 0.55976(15) 0.37715(12)
N4 N 0.87594(17) 0.17749(15) 0.31285(13)
C1 C 0.9025(2) 0.24391(18) 0.46955(15)
C2 C 0.89583(19) 0.32584(18) 0.54103(14)
C3 C 0.85568(19) 0.43346(18) 0.50660(15)
C4 C 0.81159(19) 0.61731(18) 0.54192(14)
C5 C 0.8079(2) 0.70829(18) 0.61096(15)
C6 C 0.8517(2) 0.69307(19) 0.70906(15)
H1 H 0.8834 0.6220 0.7312
C7 C 0.8499(2) 0.77996(18) 0.77520(15)
C8 C 0.8029(2) 0.88331(19) 0.74098(15)
H2 H 0.8023 0.9434 0.7854
C9 C 0.7563(2) 0.90186(18) 0.64347(15)
C10 C 0.7055(2) 1.00802(18) 0.60870(16)
H3 H 0.7051 1.0685 0.6528
C11 C 0.6582(2) 1.02333(19) 0.51439(15)
H4 H 0.6235 1.0938 0.4937
C12 C 0.6593(2) 0.93541(18) 0.44469(15)
C13 C 0.6119(2) 0.95061(19) 0.34640(15)
H5 H 0.5757 1.0204 0.3254
C14 C 0.6162(2) 0.86693(18) 0.27867(15)
C15 C 0.6694(2) 0.76478(18) 0.31120(15)
H6 H 0.6736 0.7066 0.2662
C16 C 0.7164(2) 0.74643(18) 0.40828(15)
C17 C 0.7117(2) 0.83108(18) 0.47661(15)
C18 C 0.7585(2) 0.81303(18) 0.57672(15)
C19 C 0.76979(19) 0.63843(18) 0.44073(14)
C20 C 0.81919(19) 0.45684(17) 0.40579(15)
C21 C 0.82195(19) 0.37522(18) 0.33438(14)
C22 C 0.86439(19) 0.26810(18) 0.36866(14)
C23 C 0.9224(2) 0.29611(18) 0.64159(15)
C24 C 0.9913(2) 0.20889(18) 0.68633(15)
H7 H 1.0383 0.1623 0.6557
C25 C 0.9855(2) 0.19532(19) 0.78216(16)
H8 H 1.0285 0.1394 0.8227
C26 C 0.9116(2) 0.2711(2) 0.80987(16)
H9 H 0.8948 0.2727 0.8712
C27 C 0.9000(2) 0.76514(19) 0.88335(15)
C28 C 1.0179(2) 0.8539(2) 0.92078(16)
H10 H 1.0853 0.8414 0.8878
H11 H 1.0519 0.8448 0.9895
H12 H 0.9915 0.9320 0.9090
C29 C 0.7927(2) 0.7869(2) 0.93330(17)
H13 H 0.7161 0.7326 0.9074
H14 H 0.7696 0.8661 0.9223
H15 H 0.8240 0.7758 1.0020
C30 C 0.9400(2) 0.64375(19) 0.90696(16)
H16 H 0.8659 0.5868 0.8811
H17 H 0.9681 0.6369 0.9763
H18 H 1.0116 0.6298 0.8785
C31 C 0.5628(2) 0.88709(18) 0.17185(15)
C32 C 0.5905(2) 0.7913(2) 0.10898(15)
H19 H 0.5460 0.7178 0.1214
H20 H 0.6841 0.7852 0.1236
H21 H 0.5591 0.8098 0.0417
C33 C 0.4155(2) 0.8919(2) 0.15197(17)
H22 H 0.3796 0.9021 0.0836
H23 H 0.3973 0.9568 0.1882
H24 H 0.3757 0.8197 0.1714
C34 C 0.6262(3) 1.0019(2) 0.14590(17)
H25 H 0.6076 1.0648 0.1841
H26 H 0.5913 1.0156 0.0780
H27 H 0.7203 0.9988 0.1590
C35 C 0.7830(2) 0.39778(18) 0.23248(15)
C36 C 0.7302(2) 0.31334(17) 0.15542(13)
H28 H 0.7136 0.2329 0.1636
C37 C 0.7071(2) 0.3676(2) 0.06719(16)
H29 H 0.6742 0.3264 0.0081
C38 C 0.7355(2) 0.4837(2) 0.07336(17)
H30 H 0.7253 0.5315 0.0195
N5 N 0.3855(2) 0.55242(19) 0.16852(15)
N6 N 0.5055(2) 0.21481(19) 0.27520(16)
C39 C 0.4835(2) 0.46180(19) 0.40447(16)
C40 C 0.4592(2) 0.57743(19) 0.42668(16)
H31 H 0.4318 0.6287 0.3763
C41 C 0.5253(2) 0.3865(2) 0.48290(17)
H32 H 0.5422 0.3101 0.4702
C42 C 0.4657(2) 0.4236(2) 0.31176(16)
C43 C 0.4229(2) 0.4954(2) 0.23223(17)
C44 C 0.4881(2) 0.3081(2) 0.29033(17)
N5A N 0.6145(2) 0.44758(19) 0.83148(15)
N6A N 0.4945(2) 0.78519(19) 0.72480(16)
C39A C 0.5165(2) 0.53820(19) 0.59553(16)
C40A C 0.5408(2) 0.42257(19) 0.57332(16)
H31A H 0.5682 0.3713 0.6237
C41A C 0.4747(2) 0.6135(2) 0.51710(17)
H32A H 0.4578 0.6899 0.5298
C42A C 0.5343(2) 0.5764(2) 0.68824(16)
C43A C 0.5771(2) 0.5046(2) 0.76777(17)
C44A C 0.5119(2) 0.6919(2) 0.70967(17)
loop_
_geom_bond_atom_site_label_1
_geom_bond_atom_site_label_2
_geom_bond_site_symmetry_1
_geom_bond_site_symmetry_2
S1 N1 1_555 1_555
S2 C23 1_555 1_555
S3 C35 1_555 1_555
N1 C1 1_555 1_555
N2 C3 1_555 1_555
N3 C19 1_555 1_555
N4 S1 1_555 1_555
C1 C2 1_555 1_555
C2 C3 1_555 1_555
C3 C20 1_555 1_555
C4 N2 1_555 1_555
C5 C4 1_555 1_555
C6 C5 1_555 1_555
H1 C6 1_555 1_555
C7 C6 1_555 1_555
C8 C7 1_555 1_555
H2 C8 1_555 1_555
C9 C8 1_555 1_555
C10 C9 1_555 1_555
H3 C10 1_555 1_555
C11 C10 1_555 1_555
H4 C11 1_555 1_555
C12 C11 1_555 1_555
C13 C12 1_555 1_555
H5 C13 1_555 1_555
C14 C13 1_555 1_555
C15 C14 1_555 1_555
H6 C15 1_555 1_555
C16 C15 1_555 1_555
C17 C12 1_555 1_555
C18 C5 1_555 1_555
C19 C4 1_555 1_555
C20 N3 1_555 1_555
C21 C20 1_555 1_555
C22 N4 1_555 1_555
C23 C2 1_555 1_555
C24 C23 1_555 1_555
H7 C24 1_555 1_555
C25 C24 1_555 1_555
H8 C25 1_555 1_555
C26 S2 1_555 1_555
H9 C26 1_555 1_555
C27 C7 1_555 1_555
C28 C27 1_555 1_555
H10 C28 1_555 1_555
H11 C28 1_555 1_555
H12 C28 1_555 1_555
C29 C27 1_555 1_555
H13 C29 1_555 1_555
H14 C29 1_555 1_555
H15 C29 1_555 1_555
C30 C27 1_555 1_555
H16 C30 1_555 1_555
H17 C30 1_555 1_555
H18 C30 1_555 1_555
C31 C14 1_555 1_555
C32 C31 1_555 1_555
H19 C32 1_555 1_555
H20 C32 1_555 1_555
H21 C32 1_555 1_555
C33 C31 1_555 1_555
H22 C33 1_555 1_555
H23 C33 1_555 1_555
H24 C33 1_555 1_555
C34 C31 1_555 1_555
H25 C34 1_555 1_555
H26 C34 1_555 1_555
H27 C34 1_555 1_555
C35 C21 1_555 1_555
C36 C35 1_555 1_555
H28 C36 1_555 1_555
C37 C36 1_555 1_555
H29 C37 1_555 1_555
C38 S3 1_555 1_555
H30 C38 1_555 1_555
N5 C43 1_555 1_555
N6 C44 1_555 1_555
C39 C40 1_555 1_555
C40 H31 1_555 1_555
C41 C39 1_555 1_555
H32 C41 1_555 1_555
C42 C39 1_555 1_555
C43 C42 1_555 1_555
C44 C42 1_555 1_555
N5A C43A 1_555 1_555
N6A C44A 1_555 1_555
C39A C40A 1_555 1_555
C40A C41 1_555 1_555
H31A C40A 1_555 1_555
C41A C40 1_555 1_555
H32A C41A 1_555 1_555
C42A C39A 1_555 1_555
C43A C42A 1_555 1_555
C44A C42A 1_555 1_555
C1 C22 1_555 1_555
C9 C18 1_555 1_555
C16 C17 1_555 1_555
C16 C19 1_555 1_555
C17 C18 1_555 1_555
C21 C22 1_555 1_555
C25 C26 1_555 1_555
C37 C38 1_555 1_555
C39A C41A 1_555 1_555

#END
