
#######################################################################
#
#                 Cambridge Crystallographic Data Centre
#                                CCDC 
#
#######################################################################
#
# If this CIF has been generated from an entry in the Cambridge 
# Structural Database, then it will include bibliographic, chemical, 
# crystal, experimental, refinement or atomic coordinate data resulting 
# from the CCDC's data processing and validation procedures.
#
#######################################################################

data_RUTZAJ
_chemical_formula_moiety         'C15 H12 Cl1 N3 O3 S1'
_chemical_name_systematic        
4-(chloromethyl)-N-((4-nitrophenyl)carbamothioyl)benzamide
_symmetry_cell_setting           monoclinic
_symmetry_space_group_name_H-M   'P 21/c'
_symmetry_Int_Tables_number      14
_space_group_name_Hall           '-P 2ybc'
loop_
_symmetry_equiv_pos_site_id
_symmetry_equiv_pos_as_xyz
1 x,y,z
2 -x,1/2+y,1/2-z
3 -x,-y,-z
4 x,1/2-y,1/2+z
_cell_length_a                   4.5380(14)
_cell_length_b                   17.504(5)
_cell_length_c                   19.229(6)
_cell_angle_alpha                90
_cell_angle_beta                 91.351(7)
_cell_angle_gamma                90
_cell_volume                     1527
_exptl_crystal_colour            'pale yellow'
_exptl_crystal_description       acicular
_cell_formula_units_Z            4
_exptl_crystal_recrystallization_method 
'Re-crystallisation from solvent: dichloromethane and methanol'
loop_
_atom_site_label
_atom_site_type_symbol
_atom_site_fract_x
_atom_site_fract_y
_atom_site_fract_z
Cl1 Cl -0.7705(6) 0.97778(13) -0.08601(12)
S1 S 0.3024(5) 0.68929(13) 0.24100(11)
N1 N -0.0470(13) 0.6884(3) 0.1310(3)
H1 H -0.1233 0.7268 0.1519
N2 N 0.2570(13) 0.5828(3) 0.1403(3)
H2 H 0.1770 0.5728 0.1004
N3 N 1.0675(14) 0.3586(4) 0.2301(3)
O1 O -0.0839(13) 0.6180(3) 0.0322(2)
O2 O 1.1845(15) 0.3205(4) 0.1865(3)
O3 O 1.1089(14) 0.3500(3) 0.2933(3)
C1 C -0.9602(16) 0.8902(5) -0.0674(4)
H3 H -1.1257 0.9008 -0.0379
H4 H -1.0361 0.8679 -0.1104
C2 C -0.7532(15) 0.8345(4) -0.0313(4)
C3 C -0.6831(16) 0.8429(4) 0.0390(4)
H5 H -0.7615 0.8832 0.0639
C4 C -0.4949(16) 0.7906(4) 0.0722(4)
H6 H -0.4522 0.7956 0.1195
C5 C -0.3715(15) 0.7315(4) 0.0351(3)
C6 C -0.4416(18) 0.7225(5) -0.0352(4)
H7 H -0.3611 0.6826 -0.0604
C7 C -0.6342(18) 0.7743(5) -0.0674(4)
H8 H -0.6836 0.7680 -0.1143
C8 C -0.1580(15) 0.6747(4) 0.0647(4)
C9 C 0.1732(16) 0.6487(4) 0.1699(3)
C10 C 0.4580(15) 0.5285(4) 0.1662(3)
C11 C 0.5845(17) 0.4809(4) 0.1165(4)
H9 H 0.5379 0.4873 0.0695
C12 C 0.7816(16) 0.4237(4) 0.1382(3)
H10 H 0.8642 0.3909 0.1059
C13 C 0.8516(15) 0.4166(4) 0.2082(4)
C14 C 0.7280(19) 0.4624(5) 0.2569(4)
H11 H 0.7794 0.4568 0.3037
C15 C 0.5278(19) 0.5168(4) 0.2361(4)
H12 H 0.4366 0.5464 0.2695
loop_
_geom_bond_atom_site_label_1
_geom_bond_atom_site_label_2
_geom_bond_site_symmetry_1
_geom_bond_site_symmetry_2
Cl1 C1 1_555 1_555
S1 C9 1_555 1_555
N1 H1 1_555 1_555
N2 H2 1_555 1_555
N3 O2 1_555 1_555
O1 C8 1_555 1_555
O3 N3 1_555 1_555
C1 H3 1_555 1_555
H4 C1 1_555 1_555
C2 C1 1_555 1_555
C3 C2 1_555 1_555
H5 C3 1_555 1_555
C4 C3 1_555 1_555
H6 C4 1_555 1_555
C5 C4 1_555 1_555
C6 C5 1_555 1_555
H7 C6 1_555 1_555
C7 C2 1_555 1_555
H8 C7 1_555 1_555
C8 N1 1_555 1_555
C9 N1 1_555 1_555
C10 N2 1_555 1_555
C11 C10 1_555 1_555
H9 C11 1_555 1_555
C12 C11 1_555 1_555
H10 C12 1_555 1_555
C13 N3 1_555 1_555
C14 C13 1_555 1_555
H11 C14 1_555 1_555
C15 C10 1_555 1_555
H12 C15 1_555 1_555
N2 C9 1_555 1_555
C5 C8 1_555 1_555
C6 C7 1_555 1_555
C12 C13 1_555 1_555
C14 C15 1_555 1_555

#END
