
#######################################################################
#
#                 Cambridge Crystallographic Data Centre
#                                CCDC 
#
#######################################################################
#
# If this CIF has been generated from an entry in the Cambridge 
# Structural Database, then it will include bibliographic, chemical, 
# crystal, experimental, refinement or atomic coordinate data resulting 
# from the CCDC's data processing and validation procedures.
#
#######################################################################

data_RUVHUN
_chemical_formula_moiety         'C30 H32 N4'
_chemical_name_systematic        
2,2'-(3,4-diphenylcyclobutane-1,2-diylidene)bis(piperidin-1-ylacetonitrile)
_symmetry_cell_setting           triclinic
_symmetry_space_group_name_H-M   'P -1'
_symmetry_Int_Tables_number      2
_space_group_name_Hall           '-P 1'
loop_
_symmetry_equiv_pos_site_id
_symmetry_equiv_pos_as_xyz
1 x,y,z
2 -x,-y,-z
_cell_length_a                   10.5907(14)
_cell_length_b                   12.223(2)
_cell_length_c                   12.4765(14)
_cell_angle_alpha                118.213(15)
_cell_angle_beta                 97.914(10)
_cell_angle_gamma                106.015(14)
_cell_volume                     1297.63
_exptl_crystal_colour            yellow
_exptl_crystal_description       block
_cell_formula_units_Z            2
loop_
_atom_site_label
_atom_site_type_symbol
_atom_site_fract_x
_atom_site_fract_y
_atom_site_fract_z
N1 N 1.0207(4) 0.1681(5) 0.3177(5)
N2 N 0.8772(8) -0.1289(6) 0.0290(7)
N3 N 0.6658(4) 0.1207(4) -0.1491(4)
N4 N 0.5825(7) -0.1192(6) -0.0761(8)
C1 C 1.1428(8) 0.1359(10) 0.3203(8)
H1 H 1.1937 0.1649 0.2731
H2 H 1.1140 0.0389 0.2774
C2 C 1.2358(8) 0.2011(9) 0.4527(9)
H3 H 1.3120 0.1715 0.4492
H4 H 1.2742 0.2982 0.4922
C3 C 1.1612(8) 0.1677(8) 0.5319(7)
H5 H 1.2213 0.2204 0.6201
H6 H 1.1367 0.0730 0.5012
C4 C 1.0309(9) 0.1967(9) 0.5265(7)
H7 H 0.9777 0.1627 0.5694
H8 H 1.0565 0.2935 0.5720
C5 C 0.9435(7) 0.1339(7) 0.3927(6)
H9 H 0.9046 0.0366 0.3519
H10 H 0.8673 0.1634 0.3940
C6 C 0.9377(5) 0.1208(5) 0.1924(5)
C7 C 0.8978(7) -0.0190(6) 0.0964(6)
C8 C 0.9051(5) 0.2062(5) 0.1654(5)
C9 C 0.8315(5) 0.2013(5) 0.0554(5)
C10 C 0.9069(5) 0.3531(4) 0.1173(4)
H11 H 0.9837 0.3706 0.0840
C11 C 0.9614(5) 0.3608(5) 0.2461(5)
H12 H 0.9031 0.3890 0.2997
C12 C 0.7544(6) 0.1966(6) -0.1886(6)
H13 H 0.7760 0.1351 -0.2609
H14 H 0.8406 0.2589 -0.1190
C13 C 0.6934(9) 0.2729(9) -0.2253(9)
H15 H 0.7538 0.3145 -0.2590
H16 H 0.6840 0.3438 -0.1505
C14 C 0.5476(7) 0.1764(8) -0.3295(8)
H17 H 0.5016 0.2289 -0.3440
H18 H 0.5585 0.1159 -0.4098
C15 C 0.4607(8) 0.0955(10) -0.2852(10)
H19 H 0.4315 0.1548 -0.2183
H20 H 0.3779 0.0261 -0.3565
C16 C 0.5262(9) 0.0317(12) -0.2372(11)
H21 H 0.5296 -0.0469 -0.3090
H22 H 0.4705 0.0011 -0.1937
C17 C 0.7197(5) 0.1059(5) -0.0520(5)
C18 C 0.6467(6) -0.0197(6) -0.0636(6)
C19 C 0.8283(5) 0.4370(5) 0.1183(4)
C20 C 0.6959(6) 0.4053(6) 0.1267(6)
H23 H 0.6550 0.3310 0.1320
C21 C 0.6239(8) 0.4852(9) 0.1271(6)
H24 H 0.5354 0.4653 0.1344
C22 C 0.6841(11) 0.5935(9) 0.1166(7)
H25 H 0.6349 0.6452 0.1143
C23 C 0.8148(10) 0.6252(7) 0.1097(6)
H26 H 0.8558 0.6997 0.1048
C24 C 0.8863(6) 0.5474(5) 0.1101(5)
H27 H 0.9756 0.5695 0.1046
C25 C 1.1107(5) 0.4436(5) 0.3265(5)
C26 C 1.1467(6) 0.5554(6) 0.4487(6)
H28 H 1.0773 0.5798 0.4793
C27 C 1.2825(7) 0.6314(7) 0.5260(7)
H29 H 1.3042 0.7045 0.6086
C28 C 1.3857(7) 0.5984(9) 0.4800(9)
H30 H 1.4777 0.6495 0.5317
C29 C 1.3543(7) 0.4904(9) 0.3581(9)
H31 H 1.4247 0.4684 0.3276
C30 C 1.2168(6) 0.4140(7) 0.2803(7)
H32 H 1.1958 0.3427 0.1968
H33? H 0.7842 0.2915 -0.1236
H34? H 0.8363 0.1757 -0.1887
H35? H 0.5531 0.2682 -0.2819
H36? H 0.5026 0.1383 -0.4196
H37? H 0.3774 0.1139 -0.2831
H38? H 0.4322 0.0007 -0.3500
C31? C 0.514(3) 0.113(4) -0.176(3)
H39? H 0.4560 0.0402 -0.1709
H40? H 0.5127 0.1965 -0.1086
C32? C 0.701(2) 0.178(3) -0.311(2)
H41? H 0.6993 0.0943 -0.3788
H42? H 0.7604 0.2514 -0.3150
loop_
_geom_bond_atom_site_label_1
_geom_bond_atom_site_label_2
_geom_bond_site_symmetry_1
_geom_bond_site_symmetry_2
N1 C1 1_555 1_555
N2 C7 1_555 1_555
N3 C12 1_555 1_555
N4 C18 1_555 1_555
C1 H1 1_555 1_555
H2 C1 1_555 1_555
C2 C1 1_555 1_555
H3 C2 1_555 1_555
H4 C2 1_555 1_555
C3 C2 1_555 1_555
H5 C3 1_555 1_555
H6 C3 1_555 1_555
C4 C3 1_555 1_555
H7 C4 1_555 1_555
H8 C4 1_555 1_555
C5 N1 1_555 1_555
H9 C5 1_555 1_555
H10 C5 1_555 1_555
C6 N1 1_555 1_555
C7 C6 1_555 1_555
C8 C6 1_555 1_555
C9 C8 1_555 1_555
C10 C9 1_555 1_555
H11 C10 1_555 1_555
C11 C8 1_555 1_555
H12 C11 1_555 1_555
C12 H13 1_555 1_555
H14 C12 1_555 1_555
C13 C12 1_555 1_555
H15 C13 1_555 1_555
H16 C13 1_555 1_555
C14 C13 1_555 1_555
H17 C14 1_555 1_555
H18 C14 1_555 1_555
C15 C14 1_555 1_555
H19 C15 1_555 1_555
H20 C15 1_555 1_555
C16 N3 1_555 1_555
H21 C16 1_555 1_555
H22 C16 1_555 1_555
C17 N3 1_555 1_555
C18 C17 1_555 1_555
C19 C10 1_555 1_555
C20 C19 1_555 1_555
H23 C20 1_555 1_555
C21 C20 1_555 1_555
H24 C21 1_555 1_555
C22 C21 1_555 1_555
H25 C22 1_555 1_555
C23 C22 1_555 1_555
H26 C23 1_555 1_555
C24 C19 1_555 1_555
H27 C24 1_555 1_555
C25 C11 1_555 1_555
C26 C25 1_555 1_555
H28 C26 1_555 1_555
C27 C26 1_555 1_555
H29 C27 1_555 1_555
C28 C27 1_555 1_555
H30 C28 1_555 1_555
C29 C28 1_555 1_555
H31 C29 1_555 1_555
C30 C25 1_555 1_555
H32 C30 1_555 1_555
C4 C5 1_555 1_555
C9 C17 1_555 1_555
C10 C11 1_555 1_555
C15 C16 1_555 1_555
C23 C24 1_555 1_555
C29 C30 1_555 1_555

#END
