
#######################################################################
#
#                 Cambridge Crystallographic Data Centre
#                                CCDC 
#
#######################################################################
#
# If this CIF has been generated from an entry in the Cambridge 
# Structural Database, then it will include bibliographic, chemical, 
# crystal, experimental, refinement or atomic coordinate data resulting 
# from the CCDC's data processing and validation procedures.
#
#######################################################################

data_RUVNIH
_chemical_formula_moiety         'C23 H27 N3 O3'
_chemical_name_systematic        
3-t-butyl-2-methyl-6-nitro-5,7-diphenylhexahydro-1H-pyrrolo[1,2-c]imidazol-1-one
_symmetry_cell_setting           monoclinic
_symmetry_space_group_name_H-M   'C 2/c'
_symmetry_Int_Tables_number      15
_space_group_name_Hall           '-C 2yn'
loop_
_symmetry_equiv_pos_site_id
_symmetry_equiv_pos_as_xyz
1 x,y,z
2 -x,y,1/2-z
3 1/2+x,1/2+y,z
4 1/2-x,1/2+y,1/2-z
5 -x,-y,-z
6 x,-y,1/2+z
7 1/2-x,1/2-y,-z
8 1/2+x,1/2-y,1/2+z
_cell_length_a                   15.1037(4)
_cell_length_b                   16.1625(3)
_cell_length_c                   17.2660(5)
_cell_angle_alpha                90
_cell_angle_beta                 90.895(3)
_cell_angle_gamma                90
_cell_volume                     4214.35
_exptl_crystal_colour            colorless
_cell_formula_units_Z            8
loop_
_atom_site_label
_atom_site_type_symbol
_atom_site_fract_x
_atom_site_fract_y
_atom_site_fract_z
O1 O 0.43870(9) 0.46906(8) 0.42100(9)
N1 N 0.57936(8) 0.29585(8) 0.45310(8)
N2 N 0.43435(9) 0.33787(9) 0.47078(9)
N3 N 0.67042(10) 0.31307(9) 0.25741(9)
C1 C 0.67711(11) 0.47807(10) 0.35782(10)
O2 O 0.60686(12) 0.30439(13) 0.21524(9)
C2 C 0.61955(11) 0.17081(10) 0.37359(10)
C3 C 0.70247(12) 0.14573(10) 0.39930(11)
H1 H 0.7414 0.1843 0.4207
C4 C 0.57293(10) 0.38688(9) 0.44063(10)
H2 H 0.6045 0.4168 0.4820
C5 C 0.65631(10) 0.32234(9) 0.34237(10)
H3 H 0.7131 0.3173 0.3702
O3 O 0.74609(10) 0.31436(11) 0.23469(10)
C6 C 0.56230(12) 0.11161(11) 0.34394(13)
H4 H 0.5061 0.1272 0.3267
C7 C 0.75238(13) 0.48136(11) 0.40416(12)
H5 H 0.7636 0.4391 0.4395
C8 C 0.49517(10) 0.26969(10) 0.48829(11)
H6 H 0.4738 0.2204 0.4608
C9 C 0.66167(14) 0.54184(11) 0.30576(12)
H7 H 0.6115 0.5406 0.2739
C10 C 0.61392(10) 0.40592(9) 0.36123(10)
H8 H 0.5656 0.4158 0.3238
C11 C 0.58767(16) 0.02952(12) 0.33965(16)
H9 H 0.5481 -0.0098 0.3205
C12 C 0.47458(11) 0.40525(10) 0.44267(10)
C13 C 0.59076(10) 0.26034(9) 0.37466(10)
H10 H 0.5347 0.2654 0.3458
C14 C 0.67068(15) 0.00605(12) 0.36349(14)
H11 H 0.6882 -0.0489 0.3594
C15 C 0.50642(13) 0.24750(11) 0.57494(12)
C16 C 0.72806(13) 0.06391(11) 0.39351(12)
H12 H 0.7844 0.0480 0.4100
C17 C 0.72009(17) 0.60732(13) 0.30078(14)
H13 H 0.7086 0.6500 0.2660
C18 C 0.53861(16) 0.32132(14) 0.62183(12)
H14 H 0.5956 0.3383 0.6039
H15 H 0.5432 0.3062 0.6755
H16 H 0.4974 0.3661 0.6158
C19 C 0.81130(14) 0.54659(13) 0.39869(15)
H17 H 0.8620 0.5479 0.4299
C20 C 0.41808(16) 0.21698(16) 0.60743(16)
H18 H 0.3774 0.2625 0.6104
H19 H 0.4279 0.1943 0.6582
H20 H 0.3937 0.1751 0.5739
C21 C 0.33842(12) 0.33152(14) 0.47060(14)
H21 H 0.3213 0.2750 0.4618
H22 H 0.3140 0.3657 0.4301
H23 H 0.3166 0.3496 0.5197
C22 C 0.57299(17) 0.17679(15) 0.58108(15)
H24 H 0.5519 0.1305 0.5512
H25 H 0.5800 0.1606 0.6343
H26 H 0.6290 0.1947 0.5616
C23 C 0.79443(17) 0.60976(13) 0.34652(16)
H27 H 0.8337 0.6538 0.3427
loop_
_geom_bond_atom_site_label_1
_geom_bond_atom_site_label_2
_geom_bond_site_symmetry_1
_geom_bond_site_symmetry_2
O1 C12 1_555 1_555
N1 C4 1_555 1_555
N2 C8 1_555 1_555
N3 O2 1_555 1_555
C1 C7 1_555 1_555
C2 C3 1_555 1_555
C3 H1 1_555 1_555
C4 H2 1_555 1_555
C5 N3 1_555 1_555
H3 C5 1_555 1_555
O3 N3 1_555 1_555
C6 C2 1_555 1_555
H4 C6 1_555 1_555
C7 H5 1_555 1_555
C8 N1 1_555 1_555
H6 C8 1_555 1_555
C9 C1 1_555 1_555
H7 C9 1_555 1_555
C10 C1 1_555 1_555
H8 C10 1_555 1_555
C11 C6 1_555 1_555
H9 C11 1_555 1_555
C12 N2 1_555 1_555
C13 N1 1_555 1_555
H10 C13 1_555 1_555
C14 C11 1_555 1_555
H11 C14 1_555 1_555
C15 C8 1_555 1_555
C16 C3 1_555 1_555
H12 C16 1_555 1_555
C17 C9 1_555 1_555
H13 C17 1_555 1_555
C18 C15 1_555 1_555
H14 C18 1_555 1_555
H15 C18 1_555 1_555
H16 C18 1_555 1_555
C19 C7 1_555 1_555
H17 C19 1_555 1_555
C20 C15 1_555 1_555
H18 C20 1_555 1_555
H19 C20 1_555 1_555
H20 C20 1_555 1_555
C21 N2 1_555 1_555
H21 C21 1_555 1_555
H22 C21 1_555 1_555
H23 C21 1_555 1_555
C22 C15 1_555 1_555
H24 C22 1_555 1_555
H25 C22 1_555 1_555
H26 C22 1_555 1_555
C23 C17 1_555 1_555
H27 C23 1_555 1_555
C2 C13 1_555 1_555
C4 C10 1_555 1_555
C4 C12 1_555 1_555
C5 C10 1_555 1_555
C5 C13 1_555 1_555
C14 C16 1_555 1_555
C19 C23 1_555 1_555

#END
