
#######################################################################
#
#                 Cambridge Crystallographic Data Centre
#                                CCDC 
#
#######################################################################
#
# If this CIF has been generated from an entry in the Cambridge 
# Structural Database, then it will include bibliographic, chemical, 
# crystal, experimental, refinement or atomic coordinate data resulting 
# from the CCDC's data processing and validation procedures.
#
#######################################################################

data_RUVVAH
_chemical_compound_source        'whole plants of Chloranthus henryi'
_chemical_name_common            'Chloranhenryin A methanol solvate'
_chemical_formula_moiety         'C20 H32 O2,C1 H4 O1'
_chemical_name_systematic        
'(3R,5S,7R,9S,10R,13R)-3,7-Dihydroxy-ent-pimara-8(14),15-diene methanol  solvate'
_chemical_properties_biological  'tested for antifungal activity'
_symmetry_cell_setting           monoclinic
_symmetry_space_group_name_H-M   'P 21'
_symmetry_Int_Tables_number      4
_space_group_name_Hall           'P 2yb'
loop_
_symmetry_equiv_pos_site_id
_symmetry_equiv_pos_as_xyz
1 x,y,z
2 -x,1/2+y,-z
_cell_length_a                   6.7178(11)
_cell_length_b                   17.015(2)
_cell_length_c                   34.500(6)
_cell_angle_alpha                90
_cell_angle_beta                 90.064(6)
_cell_angle_gamma                90
_cell_volume                     3943.46
_exptl_crystal_colour            colorless
_exptl_crystal_description       prism
_cell_formula_units_Z            8
loop_
_atom_site_label
_atom_site_type_symbol
_atom_site_fract_x
_atom_site_fract_y
_atom_site_fract_z
O1 O 0.6347(4) 0.1587(2) 0.68273(7)
H1 H 0.7117 0.1208 0.6870
O2 O 0.5531(4) 0.04979(12) 0.47433(7)
H2 H 0.4290 0.0455 0.4722
C1 C 0.5145(6) 0.27987(19) 0.59633(10)
H3 H 0.6503 0.3004 0.5917
H4 H 0.4201 0.3242 0.5934
C2 C 0.5022(6) 0.2484(2) 0.63768(10)
H5 H 0.5350 0.2909 0.6562
H6 H 0.3648 0.2304 0.6431
C3 C 0.6465(5) 0.1802(2) 0.64307(10)
H7 H 0.7844 0.1994 0.6376
C4 C 0.6016(5) 0.11061(18) 0.61609(9)
C5 C 0.5975(4) 0.14340(14) 0.57347(8)
H8 H 0.7371 0.1606 0.5680
C6 C 0.5526(5) 0.08007(15) 0.54335(8)
H9 H 0.4105 0.0651 0.5451
H10 H 0.6336 0.0328 0.5490
C7 C 0.5982(5) 0.10865(15) 0.50193(9)
H11 H 0.7455 0.1169 0.5007
C8 C 0.5035(5) 0.18791(16) 0.49330(9)
C9 C 0.5282(5) 0.24900(15) 0.52506(9)
H12 H 0.6737 0.2609 0.5266
C10 C 0.4663(5) 0.21674(16) 0.56566(9)
C11 C 0.4232(6) 0.32695(16) 0.51425(11)
H13 H 0.2797 0.3229 0.5204
H14 H 0.4800 0.3703 0.5299
C12 C 0.4485(6) 0.34536(17) 0.47136(11)
H15 H 0.5921 0.3487 0.4652
H16 H 0.3874 0.3970 0.4656
C13 C 0.3511(5) 0.28196(17) 0.44596(9)
C14 C 0.4208(4) 0.20214(16) 0.45932(9)
H17 H 0.4040 0.1591 0.4421
C15 C 0.4189(6) 0.2945(2) 0.40377(10)
H18 H 0.3730 0.3460 0.3947
H19 H 0.3623 0.2532 0.3873
H20 H 0.5645 0.2924 0.4025
C16 C 0.1261(5) 0.28985(18) 0.44672(9)
H21 H 0.0711 0.3371 0.4367
C17 C -0.0001(6) 0.2368(2) 0.46004(11)
H22 H 0.0483 0.1886 0.4703
H23 H -0.1391 0.2468 0.4594
C18 C 0.2367(5) 0.19888(18) 0.56578(10)
H24 H 0.2092 0.1540 0.5488
H25 H 0.1639 0.2450 0.5564
H26 H 0.1938 0.1865 0.5922
C19 C 0.4105(6) 0.0678(2) 0.62806(11)
H27 H 0.3021 0.1060 0.6307
H28 H 0.4319 0.0412 0.6529
H29 H 0.3755 0.0289 0.6082
C20 C 0.7766(6) 0.0523(2) 0.61941(11)
H30 H 0.7462 0.0048 0.6045
H31 H 0.7971 0.0384 0.6467
H32 H 0.8977 0.0768 0.6092
O3 O -0.1439(4) -0.03494(18) 0.92820(6)
H33 H -0.2492 -0.0123 0.9351
O4 O -0.0506(4) 0.10049(11) 0.72331(7)
H34 H 0.0635 0.1183 0.7280
C21 C -0.0246(5) -0.14525(17) 0.83748(9)
H35 H -0.1611 -0.1635 0.8315
H36 H 0.0673 -0.1900 0.8335
C22 C -0.0148(5) -0.11948(19) 0.88006(9)
H37 H -0.0525 -0.1641 0.8969
H38 H 0.1233 -0.1041 0.8866
C23 C -0.1525(5) -0.0512(2) 0.88754(8)
H39 H -0.2911 -0.0684 0.8811
C24 C -0.1036(5) 0.02166(17) 0.86252(8)
C25 C -0.0978(4) -0.00493(14) 0.81916(8)
H40 H -0.2376 -0.0209 0.8130
C26 C -0.0521(5) 0.06182(13) 0.79101(8)
H41 H -0.1338 0.1082 0.7978
H42 H 0.0897 0.0768 0.7935
C27 C -0.0947(5) 0.03848(14) 0.74963(9)
H43 H -0.2421 0.0308 0.7481
C28 C -0.0041(5) -0.03967(14) 0.73866(8)
C29 C -0.0321(5) -0.10502(14) 0.76750(8)
H44 H -0.1781 -0.1162 0.7685
C30 C 0.0311(5) -0.07857(14) 0.80951(8)
C31 C 0.0698(6) -0.18146(14) 0.75448(9)
H45 H 0.2125 -0.1795 0.7616
H46 H 0.0089 -0.2265 0.7682
C32 C 0.0502(6) -0.19381(16) 0.71098(10)
H47 H 0.1120 -0.2446 0.7039
H48 H -0.0927 -0.1965 0.7041
C33 C 0.1481(5) -0.12845(16) 0.68780(9)
C34 C 0.0819(5) -0.04968(14) 0.70388(8)
H49 H 0.1027 -0.0044 0.6883
C35 C 0.0815(6) -0.1337(2) 0.64534(9)
H50 H 0.1126 -0.1861 0.6352
H51 H 0.1516 -0.0939 0.6301
H52 H -0.0623 -0.1247 0.6437
C36 C 0.3733(5) -0.13686(18) 0.68930(9)
H53 H 0.4281 -0.1826 0.6777
C37 C 0.4995(6) -0.08748(19) 0.70499(10)
H54 H 0.4524 -0.0408 0.7170
H55 H 0.6382 -0.0983 0.7044
C38 C 0.2526(5) -0.06195(18) 0.81041(9)
H56 H 0.3261 -0.1116 0.8090
H57 H 0.2865 -0.0347 0.8346
H58 H 0.2884 -0.0288 0.7883
C39 C 0.0862(6) 0.0613(2) 0.87703(9)
H59 H 0.1945 0.0227 0.8778
H60 H 0.0638 0.0823 0.9031
H61 H 0.1223 0.1042 0.8594
C40 C -0.2755(6) 0.0815(2) 0.86767(10)
H62 H -0.2343 0.1328 0.8576
H63 H -0.3079 0.0864 0.8953
H64 H -0.3930 0.0631 0.8535
O5 O 0.6336(5) 0.1475(2) 1.17544(7)
H65 H 0.7283 0.1175 1.1812
O6 O 0.5462(4) 0.02827(11) 0.96868(6)
H66 H 0.4220 0.0229 0.9678
C41 C 0.5197(6) 0.26555(19) 1.08685(10)
H67 H 0.6562 0.2850 1.0819
H68 H 0.4268 0.3102 1.0834
C42 C 0.5063(6) 0.2363(2) 1.12853(10)
H69 H 0.5410 0.2796 1.1465
H70 H 0.3680 0.2198 1.1341
C43 C 0.6456(5) 0.1680(2) 1.13506(9)
H71 H 0.7843 0.1862 1.1295
C44 C 0.6012(5) 0.0966(2) 1.10901(9)
C45 C 0.5972(5) 0.12743(16) 1.06606(8)
H72 H 0.7374 0.1435 1.0604
C46 C 0.5506(5) 0.06177(14) 1.03707(8)
H73 H 0.4086 0.0469 1.0392
H74 H 0.6320 0.0149 1.0433
C47 C 0.5952(5) 0.08859(13) 0.99533(8)
H75 H 0.7427 0.0959 0.9937
C48 C 0.5019(4) 0.16783(14) 0.98538(8)
C49 C 0.5307(5) 0.23067(13) 1.01618(9)
H76 H 0.6770 0.2413 1.0174
C50 C 0.4694(5) 0.20108(15) 1.05711(8)
C51 C 0.4311(6) 0.30895(14) 1.00380(10)
H77 H 0.2880 0.3073 1.0106
H78 H 0.4928 0.3529 1.0183
C52 C 0.4520(6) 0.32407(16) 0.96073(11)
H79 H 0.5950 0.3261 0.9539
H80 H 0.3924 0.3757 0.9543
C53 C 0.3495(5) 0.25984(15) 0.93679(9)
C54 C 0.4179(4) 0.18047(14) 0.95127(8)
H81 H 0.3991 0.1365 0.9347
C55 C 0.4141(6) 0.2678(2) 0.89386(9)
H82 H 0.3379 0.2307 0.8779
H83 H 0.5565 0.2560 0.8916
H84 H 0.3889 0.3215 0.8849
C56 C 0.1261(5) 0.26954(18) 0.93826(10)
H85 H 0.0716 0.3164 0.9277
C57 C -0.0001(6) 0.2177(2) 0.95317(10)
H86 H 0.0484 0.1701 0.9640
H87 H -0.1390 0.2282 0.9530
C58 C 0.2385(5) 0.18461(19) 1.05808(9)
H88 H 0.1981 0.1717 1.0846
H89 H 0.2073 0.1404 1.0409
H90 H 0.1666 0.2315 1.0493
C59 C 0.4093(6) 0.0548(3) 1.12180(10)
H91 H 0.3004 0.0930 1.1231
H92 H 0.4295 0.0312 1.1474
H93 H 0.3757 0.0136 1.1030
C60 C 0.7746(7) 0.0382(2) 1.11311(12)
H94 H 0.7901 0.0235 1.1404
H95 H 0.8976 0.0628 1.1039
H96 H 0.7467 -0.0089 1.0977
O7 O 0.1331(5) 0.5139(3) 0.56982(7)
H97 H 0.0140 0.5141 0.5624
O8 O 0.0527(4) 0.60014(12) 0.78137(7)
H98 H -0.0587 0.6206 0.7768
C61 C 0.0131(6) 0.38191(19) 0.65384(10)
H99 H 0.1488 0.3609 0.6582
H100 H -0.0813 0.3374 0.6554
C62 C 0.0023(6) 0.4175(3) 0.61336(11)
H101 H 0.0354 0.3768 0.5939
H102 H -0.1353 0.4357 0.6082
C63 C 0.1432(6) 0.4855(2) 0.60910(9)
H103 H 0.2811 0.4653 0.6136
C64 C 0.1053(5) 0.5519(2) 0.63844(9)
C65 C 0.0982(5) 0.51514(15) 0.68011(9)
H104 H 0.2369 0.4963 0.6851
C66 C 0.0586(5) 0.57599(15) 0.71201(9)
H105 H 0.1452 0.6223 0.7077
H106 H -0.0814 0.5937 0.7103
C67 C 0.0971(5) 0.54345(15) 0.75212(10)
H107 H 0.2441 0.5348 0.7536
C68 C 0.0035(5) 0.46355(15) 0.75873(9)
C69 C 0.0268(5) 0.40537(15) 0.72646(10)
H108 H 0.1723 0.3936 0.7247
C70 C -0.0357(5) 0.44113(16) 0.68603(9)
C71 C -0.0776(6) 0.32652(16) 0.73516(11)
H109 H -0.2207 0.3307 0.7285
H110 H -0.0186 0.2846 0.7189
C72 C -0.0556(6) 0.30486(17) 0.77788(12)
H111 H 0.0876 0.2996 0.7842
H112 H -0.1193 0.2532 0.7824
C73 C -0.1487(5) 0.36560(17) 0.80493(11)
C74 C -0.0807(5) 0.44670(16) 0.79295(9)
H113 H -0.0988 0.4885 0.8109
C75 C -0.0790(7) 0.3507(2) 0.84692(11)
H114 H -0.1513 0.3856 0.8646
H115 H 0.0641 0.3611 0.8489
H116 H -0.1055 0.2959 0.8539
C76 C -0.3744(6) 0.35942(19) 0.80436(10)
H117 H -0.4306 0.3123 0.8142
C77 C -0.4988(6) 0.4126(2) 0.79162(11)
H118 H -0.4500 0.4607 0.7815
H119 H -0.6381 0.4030 0.7925
C78 C -0.2560(5) 0.46041(19) 0.68662(10)
H120 H -0.3333 0.4116 0.6852
H121 H -0.2888 0.4938 0.6644
H122 H -0.2883 0.4883 0.7107
C79 C -0.0828(6) 0.5987(3) 0.62715(10)
H123 H -0.1919 0.5621 0.6217
H124 H -0.0553 0.6303 0.6040
H125 H -0.1207 0.6333 0.6486
C80 C 0.2801(6) 0.6091(2) 0.63593(11)
H126 H 0.3018 0.6239 0.6088
H127 H 0.4003 0.5839 0.6462
H128 H 0.2503 0.6562 0.6512
O9 O 0.3405(6) 0.1329(3) 0.73360(10)
H129 H 0.4097 0.1393 0.7136
C81 C 0.4192(7) 0.1774(3) 0.76365(15)
H130 H 0.4693 0.2273 0.7534
H131 H 0.5286 0.1485 0.7759
H132 H 0.3152 0.1878 0.7829
O10 O 0.1488(5) -0.0090(2) 0.97906(9)
H133 H 0.0712 -0.0110 0.9600
C82 C 0.0784(8) -0.0576(3) 1.00818(13)
H134 H 0.1251 -0.0382 1.0334
H135 H 0.1279 -0.1111 1.0040
H136 H -0.0674 -0.0578 1.0077
O11 O -0.3372(6) 0.6407(2) 0.77232(10)
H137 H -0.4164 0.6362 0.7910
C83 C -0.4182(7) 0.6915(3) 0.74474(14)
H138 H -0.3161 0.7051 0.7256
H139 H -0.4652 0.7394 0.7576
H140 H -0.5301 0.6657 0.7317
O12 O -0.1526(5) 0.5173(2) 0.51799(10)
H141 H -0.1841 0.5595 0.5070
C84 C -0.0785(9) 0.4653(3) 0.49093(18)
H142 H 0.0671 0.4687 0.4905
H143 H -0.1314 0.4786 0.4653
H144 H -0.1186 0.4117 0.4978
loop_
_geom_bond_atom_site_label_1
_geom_bond_atom_site_label_2
_geom_bond_site_symmetry_1
_geom_bond_site_symmetry_2
O1 H1 1_555 1_555
O2 H2 1_555 1_555
C1 H3 1_555 1_555
H4 C1 1_555 1_555
C2 C1 1_555 1_555
H5 C2 1_555 1_555
H6 C2 1_555 1_555
C3 O1 1_555 1_555
H7 C3 1_555 1_555
C4 C3 1_555 1_555
C5 C4 1_555 1_555
H8 C5 1_555 1_555
C6 C5 1_555 1_555
H9 C6 1_555 1_555
H10 C6 1_555 1_555
C7 O2 1_555 1_555
H11 C7 1_555 1_555
C8 C7 1_555 1_555
C9 C8 1_555 1_555
H12 C9 1_555 1_555
C10 C1 1_555 1_555
C11 C9 1_555 1_555
H13 C11 1_555 1_555
H14 C11 1_555 1_555
C12 C11 1_555 1_555
H15 C12 1_555 1_555
H16 C12 1_555 1_555
C13 C12 1_555 1_555
C14 C8 1_555 1_555
H17 C14 1_555 1_555
C15 C13 1_555 1_555
H18 C15 1_555 1_555
H19 C15 1_555 1_555
H20 C15 1_555 1_555
C16 C13 1_555 1_555
H21 C16 1_555 1_555
C17 C16 1_555 1_555
H22 C17 1_555 1_555
H23 C17 1_555 1_555
C18 C10 1_555 1_555
H24 C18 1_555 1_555
H25 C18 1_555 1_555
H26 C18 1_555 1_555
C19 C4 1_555 1_555
H27 C19 1_555 1_555
H28 C19 1_555 1_555
H29 C19 1_555 1_555
C20 C4 1_555 1_555
H30 C20 1_555 1_555
H31 C20 1_555 1_555
H32 C20 1_555 1_555
O3 H33 1_555 1_555
O4 H34 1_555 1_555
C21 H35 1_555 1_555
H36 C21 1_555 1_555
C22 C21 1_555 1_555
H37 C22 1_555 1_555
H38 C22 1_555 1_555
C23 O3 1_555 1_555
H39 C23 1_555 1_555
C24 C23 1_555 1_555
C25 C24 1_555 1_555
H40 C25 1_555 1_555
C26 C25 1_555 1_555
H41 C26 1_555 1_555
H42 C26 1_555 1_555
C27 O4 1_555 1_555
H43 C27 1_555 1_555
C28 C27 1_555 1_555
C29 C28 1_555 1_555
H44 C29 1_555 1_555
C30 C21 1_555 1_555
C31 C29 1_555 1_555
H45 C31 1_555 1_555
H46 C31 1_555 1_555
C32 C31 1_555 1_555
H47 C32 1_555 1_555
H48 C32 1_555 1_555
C33 C32 1_555 1_555
C34 C28 1_555 1_555
H49 C34 1_555 1_555
C35 C33 1_555 1_555
H50 C35 1_555 1_555
H51 C35 1_555 1_555
H52 C35 1_555 1_555
C36 C33 1_555 1_555
H53 C36 1_555 1_555
C37 C36 1_555 1_555
H54 C37 1_555 1_555
H55 C37 1_555 1_555
C38 C30 1_555 1_555
H56 C38 1_555 1_555
H57 C38 1_555 1_555
H58 C38 1_555 1_555
C39 C24 1_555 1_555
H59 C39 1_555 1_555
H60 C39 1_555 1_555
H61 C39 1_555 1_555
C40 C24 1_555 1_555
H62 C40 1_555 1_555
H63 C40 1_555 1_555
H64 C40 1_555 1_555
O5 H65 1_555 1_555
O6 H66 1_555 1_555
C41 H67 1_555 1_555
H68 C41 1_555 1_555
C42 C41 1_555 1_555
H69 C42 1_555 1_555
H70 C42 1_555 1_555
C43 O5 1_555 1_555
H71 C43 1_555 1_555
C44 C43 1_555 1_555
C45 C44 1_555 1_555
H72 C45 1_555 1_555
C46 C45 1_555 1_555
H73 C46 1_555 1_555
H74 C46 1_555 1_555
C47 O6 1_555 1_555
H75 C47 1_555 1_555
C48 C47 1_555 1_555
C49 C48 1_555 1_555
H76 C49 1_555 1_555
C50 C41 1_555 1_555
C51 C49 1_555 1_555
H77 C51 1_555 1_555
H78 C51 1_555 1_555
C52 C51 1_555 1_555
H79 C52 1_555 1_555
H80 C52 1_555 1_555
C53 C52 1_555 1_555
C54 C48 1_555 1_555
H81 C54 1_555 1_555
C55 C53 1_555 1_555
H82 C55 1_555 1_555
H83 C55 1_555 1_555
H84 C55 1_555 1_555
C56 C53 1_555 1_555
H85 C56 1_555 1_555
C57 C56 1_555 1_555
H86 C57 1_555 1_555
H87 C57 1_555 1_555
C58 C50 1_555 1_555
H88 C58 1_555 1_555
H89 C58 1_555 1_555
H90 C58 1_555 1_555
C59 C44 1_555 1_555
H91 C59 1_555 1_555
H92 C59 1_555 1_555
H93 C59 1_555 1_555
C60 C44 1_555 1_555
H94 C60 1_555 1_555
H95 C60 1_555 1_555
H96 C60 1_555 1_555
O7 H97 1_555 1_555
O8 H98 1_555 1_555
C61 H99 1_555 1_555
H100 C61 1_555 1_555
C62 C61 1_555 1_555
H101 C62 1_555 1_555
H102 C62 1_555 1_555
C63 O7 1_555 1_555
H103 C63 1_555 1_555
C64 C63 1_555 1_555
C65 C64 1_555 1_555
H104 C65 1_555 1_555
C66 C65 1_555 1_555
H105 C66 1_555 1_555
H106 C66 1_555 1_555
C67 O8 1_555 1_555
H107 C67 1_555 1_555
C68 C67 1_555 1_555
C69 C68 1_555 1_555
H108 C69 1_555 1_555
C70 C61 1_555 1_555
C71 C69 1_555 1_555
H109 C71 1_555 1_555
H110 C71 1_555 1_555
C72 C71 1_555 1_555
H111 C72 1_555 1_555
H112 C72 1_555 1_555
C73 C72 1_555 1_555
C74 C68 1_555 1_555
H113 C74 1_555 1_555
C75 C73 1_555 1_555
H114 C75 1_555 1_555
H115 C75 1_555 1_555
H116 C75 1_555 1_555
C76 C73 1_555 1_555
H117 C76 1_555 1_555
C77 C76 1_555 1_555
H118 C77 1_555 1_555
H119 C77 1_555 1_555
C78 C70 1_555 1_555
H120 C78 1_555 1_555
H121 C78 1_555 1_555
H122 C78 1_555 1_555
C79 C64 1_555 1_555
H123 C79 1_555 1_555
H124 C79 1_555 1_555
H125 C79 1_555 1_555
C80 C64 1_555 1_555
H126 C80 1_555 1_555
H127 C80 1_555 1_555
H128 C80 1_555 1_555
O9 H129 1_555 1_555
C81 O9 1_555 1_555
H130 C81 1_555 1_555
H131 C81 1_555 1_555
H132 C81 1_555 1_555
O10 H133 1_555 1_555
C82 O10 1_555 1_555
H134 C82 1_555 1_555
H135 C82 1_555 1_555
H136 C82 1_555 1_555
O11 H137 1_555 1_555
C83 O11 1_555 1_555
H138 C83 1_555 1_555
H139 C83 1_555 1_555
H140 C83 1_555 1_555
O12 H141 1_555 1_555
C84 O12 1_555 1_555
H142 C84 1_555 1_555
H143 C84 1_555 1_555
H144 C84 1_555 1_555
C2 C3 1_555 1_555
C5 C10 1_555 1_555
C6 C7 1_555 1_555
C9 C10 1_555 1_555
C13 C14 1_555 1_555
C22 C23 1_555 1_555
C25 C30 1_555 1_555
C26 C27 1_555 1_555
C29 C30 1_555 1_555
C33 C34 1_555 1_555
C42 C43 1_555 1_555
C45 C50 1_555 1_555
C46 C47 1_555 1_555
C49 C50 1_555 1_555
C53 C54 1_555 1_555
C62 C63 1_555 1_555
C65 C70 1_555 1_555
C66 C67 1_555 1_555
C69 C70 1_555 1_555
C73 C74 1_555 1_555

#END
