
#######################################################################
#
#                 Cambridge Crystallographic Data Centre
#                                CCDC 
#
#######################################################################
#
# If this CIF has been generated from an entry in the Cambridge 
# Structural Database, then it will include bibliographic, chemical, 
# crystal, experimental, refinement or atomic coordinate data resulting 
# from the CCDC's data processing and validation procedures.
#
#######################################################################

data_RUVVEL
_chemical_compound_source        'whole plants of Chloranthus henryi'
_chemical_name_common            'Sessilifol F'
_chemical_formula_moiety         'C21 H34 O3'
_chemical_name_systematic        3-Hydroxy-13-methoxyabiet-8(14)-en-7-one
_chemical_properties_biological  'tested for antifungal activity'
_symmetry_cell_setting           monoclinic
_symmetry_space_group_name_H-M   'P 21'
_symmetry_Int_Tables_number      4
_space_group_name_Hall           'P 2yb'
loop_
_symmetry_equiv_pos_site_id
_symmetry_equiv_pos_as_xyz
1 x,y,z
2 -x,1/2+y,-z
_cell_length_a                   7.132(2)
_cell_length_b                   27.174(6)
_cell_length_c                   9.624(2)
_cell_angle_alpha                90
_cell_angle_beta                 90.614(7)
_cell_angle_gamma                90
_cell_volume                     1865.07
_exptl_crystal_colour            colorless
_exptl_crystal_description       prism
_cell_formula_units_Z            4
loop_
_atom_site_label
_atom_site_type_symbol
_atom_site_fract_x
_atom_site_fract_y
_atom_site_fract_z
O1 O 0.4241(2) 0.19352(6) 0.70193(13)
O2 O 0.5247(2) 0.24883(6) -0.03851(13)
O3 O 0.89753(19) 0.40374(5) -0.02914(14)
C1 C 0.7159(2) 0.28904(6) 0.51961(16)
H1 H 0.8330 0.2695 0.5187
H2 H 0.7493 0.3233 0.5448
C2 C 0.5865(3) 0.26827(7) 0.62945(17)
H3 H 0.6500 0.2693 0.7214
H4 H 0.4717 0.2886 0.6345
C3 C 0.5338(2) 0.21567(6) 0.59463(16)
H5 H 0.6526 0.1964 0.5870
C4 C 0.4281(2) 0.21122(5) 0.45467(16)
C5 C 0.5510(2) 0.23639(5) 0.34109(15)
H6 H 0.6645 0.2151 0.3325
C6 C 0.4560(2) 0.23520(6) 0.19762(16)
H7 H 0.4317 0.2004 0.1725
H8 H 0.3330 0.2518 0.2044
C7 C 0.5641(2) 0.25880(6) 0.08158(17)
C8 C 0.7165(2) 0.29475(6) 0.11681(16)
C9 C 0.7851(2) 0.29868(6) 0.26626(16)
H9 H 0.8830 0.2728 0.2804
C10 C 0.6274(2) 0.28866(5) 0.37275(15)
C11 C 0.8808(3) 0.34860(8) 0.28741(19)
H10 H 0.7850 0.3749 0.2849
H11 H 0.9426 0.3493 0.3800
C12 C 1.0264(3) 0.35847(8) 0.17586(19)
H12 H 1.1287 0.3341 0.1863
H13 H 1.0811 0.3915 0.1922
C13 C 0.9515(2) 0.35627(6) 0.02543(17)
C14 C 0.7873(2) 0.32144(6) 0.01354(16)
H14 H 0.7293 0.3182 -0.0753
C15 C 1.1120(3) 0.33923(7) -0.0713(2)
H15 H 1.1564 0.3065 -0.0369
C16 C 1.0500(3) 0.33263(8) -0.2223(2)
H16 H 1.1585 0.3238 -0.2786
H17 H 0.9956 0.3635 -0.2569
H18 H 0.9559 0.3064 -0.2283
C17 C 1.2791(3) 0.37458(10) -0.0639(3)
H19 H 1.2402 0.4071 -0.0971
H20 H 1.3803 0.3621 -0.1223
H21 H 1.3238 0.3771 0.0325
C18 C 0.4107(3) 0.15616(6) 0.41877(18)
H22 H 0.5352 0.1428 0.3988
H23 H 0.3290 0.1522 0.3370
H24 H 0.3568 0.1385 0.4976
C19 C 0.2276(2) 0.23135(6) 0.46568(18)
H25 H 0.1693 0.2324 0.3730
H26 H 0.2314 0.2646 0.5048
H27 H 0.1541 0.2099 0.5262
C20 C 0.4772(3) 0.32894(6) 0.36077(19)
H28 H 0.4417 0.3334 0.2629
H29 H 0.5273 0.3599 0.3979
H30 H 0.3667 0.3192 0.4138
C21 C 0.7581(3) 0.42924(7) 0.0445(2)
H31 H 0.8109 0.4414 0.1324
H32 H 0.6534 0.4070 0.0635
H33 H 0.7130 0.4571 -0.0113
H34 H 0.453(5) 0.2094(12) 0.777(4)
O4 O 0.0359(2) 0.66333(6) -0.19780(14)
O5 O 0.0857(2) 0.61135(7) 0.54570(14)
O6 O 0.38662(19) 0.44651(5) 0.44837(14)
C22 C 0.3267(3) 0.57046(6) 0.00309(17)
H35 H 0.4394 0.5915 0.0123
H36 H 0.3691 0.5367 -0.0197
C23 C 0.2044(3) 0.58983(7) -0.11639(17)
H37 H 0.2774 0.5899 -0.2033
H38 H 0.0948 0.5679 -0.1300
C24 C 0.1379(3) 0.64160(6) -0.08457(17)
H39 H 0.2521 0.6622 -0.0680
C25 C 0.0185(2) 0.64448(6) 0.04749(16)
C26 C 0.1348(2) 0.62065(6) 0.16846(16)
H40 H 0.2433 0.6434 0.1841
C27 C 0.0270(3) 0.62114(7) 0.30535(18)
H41 H -0.0063 0.6556 0.3273
H42 H -0.0916 0.6027 0.2915
C28 C 0.1293(2) 0.59955(6) 0.42875(17)
C29 C 0.2803(2) 0.56266(6) 0.40322(16)
C30 C 0.3730(2) 0.56258(6) 0.26234(16)
H43 H 0.4563 0.5922 0.2598
C31 C 0.2244(2) 0.56936(6) 0.14304(16)
C32 C 0.5008(3) 0.51751(7) 0.24553(18)
H44 H 0.4240 0.4888 0.2175
H45 H 0.5920 0.5240 0.1709
C33 C 0.6071(3) 0.50545(7) 0.3803(2)
H46 H 0.6940 0.4777 0.3640
H47 H 0.6826 0.5343 0.4094
C34 C 0.4717(2) 0.49182(6) 0.49578(18)
C35 C 0.3246(2) 0.53168(6) 0.50643(17)
H48 H 0.2597 0.5349 0.5916
C36 C 0.5677(3) 0.48327(6) 0.63881(19)
H49 H 0.4656 0.4766 0.7067
C37 C 0.6729(4) 0.52873(8) 0.6913(2)
H50 H 0.7835 0.5343 0.6339
H51 H 0.7123 0.5236 0.7881
H52 H 0.5902 0.5575 0.6857
C38 C 0.6946(4) 0.43819(9) 0.6388(2)
H53 H 0.7476 0.4333 0.7321
H54 H 0.7963 0.4432 0.5726
H55 H 0.6214 0.4092 0.6116
C39 C -0.0114(3) 0.69936(6) 0.08062(19)
H56 H 0.1091 0.7145 0.1055
H57 H -0.0978 0.7025 0.1586
H58 H -0.0646 0.7160 -0.0011
C40 C -0.1751(3) 0.62131(7) 0.02311(19)
H59 H -0.1601 0.5868 -0.0042
H60 H -0.2412 0.6392 -0.0510
H61 H -0.2476 0.6231 0.1089
C41 C 0.0834(3) 0.52664(6) 0.14453(19)
H62 H -0.0019 0.5295 0.0645
H63 H 0.0112 0.5278 0.2305
H64 H 0.1511 0.4953 0.1396
C42 C 0.2246(4) 0.43134(9) 0.5176(3)
H65 H 0.1248 0.4556 0.5026
H66 H 0.2518 0.4285 0.6173
H67 H 0.1841 0.3993 0.4813
H68 H 0.060(4) 0.6484(11) -0.279(3)
loop_
_geom_bond_atom_site_label_1
_geom_bond_atom_site_label_2
_geom_bond_site_symmetry_1
_geom_bond_site_symmetry_2
O1 C3 1_555 1_555
O2 C7 1_555 1_555
O3 C13 1_555 1_555
C1 H1 1_555 1_555
H2 C1 1_555 1_555
C2 C1 1_555 1_555
H3 C2 1_555 1_555
H4 C2 1_555 1_555
C3 C2 1_555 1_555
H5 C3 1_555 1_555
C4 C3 1_555 1_555
C5 C4 1_555 1_555
H6 C5 1_555 1_555
C6 C5 1_555 1_555
H7 C6 1_555 1_555
H8 C6 1_555 1_555
C7 C6 1_555 1_555
C8 C7 1_555 1_555
C9 C8 1_555 1_555
H9 C9 1_555 1_555
C10 C1 1_555 1_555
C11 C9 1_555 1_555
H10 C11 1_555 1_555
H11 C11 1_555 1_555
C12 C11 1_555 1_555
H12 C12 1_555 1_555
H13 C12 1_555 1_555
C13 C12 1_555 1_555
C14 C8 1_555 1_555
H14 C14 1_555 1_555
C15 C13 1_555 1_555
H15 C15 1_555 1_555
C16 C15 1_555 1_555
H16 C16 1_555 1_555
H17 C16 1_555 1_555
H18 C16 1_555 1_555
C17 C15 1_555 1_555
H19 C17 1_555 1_555
H20 C17 1_555 1_555
H21 C17 1_555 1_555
C18 C4 1_555 1_555
H22 C18 1_555 1_555
H23 C18 1_555 1_555
H24 C18 1_555 1_555
C19 C4 1_555 1_555
H25 C19 1_555 1_555
H26 C19 1_555 1_555
H27 C19 1_555 1_555
C20 C10 1_555 1_555
H28 C20 1_555 1_555
H29 C20 1_555 1_555
H30 C20 1_555 1_555
C21 O3 1_555 1_555
H31 C21 1_555 1_555
H32 C21 1_555 1_555
H33 C21 1_555 1_555
H34 O1 1_555 1_555
O4 C24 1_555 1_555
O5 C28 1_555 1_555
O6 C34 1_555 1_555
C22 H35 1_555 1_555
H36 C22 1_555 1_555
C23 C22 1_555 1_555
H37 C23 1_555 1_555
H38 C23 1_555 1_555
C24 C23 1_555 1_555
H39 C24 1_555 1_555
C25 C24 1_555 1_555
C26 C25 1_555 1_555
H40 C26 1_555 1_555
C27 C26 1_555 1_555
H41 C27 1_555 1_555
H42 C27 1_555 1_555
C28 C27 1_555 1_555
C29 C28 1_555 1_555
C30 C29 1_555 1_555
H43 C30 1_555 1_555
C31 C22 1_555 1_555
C32 C30 1_555 1_555
H44 C32 1_555 1_555
H45 C32 1_555 1_555
C33 C32 1_555 1_555
H46 C33 1_555 1_555
H47 C33 1_555 1_555
C34 C33 1_555 1_555
C35 C29 1_555 1_555
H48 C35 1_555 1_555
C36 C34 1_555 1_555
H49 C36 1_555 1_555
C37 C36 1_555 1_555
H50 C37 1_555 1_555
H51 C37 1_555 1_555
H52 C37 1_555 1_555
C38 C36 1_555 1_555
H53 C38 1_555 1_555
H54 C38 1_555 1_555
H55 C38 1_555 1_555
C39 C25 1_555 1_555
H56 C39 1_555 1_555
H57 C39 1_555 1_555
H58 C39 1_555 1_555
C40 C25 1_555 1_555
H59 C40 1_555 1_555
H60 C40 1_555 1_555
H61 C40 1_555 1_555
C41 C31 1_555 1_555
H62 C41 1_555 1_555
H63 C41 1_555 1_555
H64 C41 1_555 1_555
C42 O6 1_555 1_555
H65 C42 1_555 1_555
H66 C42 1_555 1_555
H67 C42 1_555 1_555
H68 O4 1_555 1_555
C5 C10 1_555 1_555
C9 C10 1_555 1_555
C13 C14 1_555 1_555
C26 C31 1_555 1_555
C30 C31 1_555 1_555
C34 C35 1_555 1_555

#END
