
#######################################################################
#
#                 Cambridge Crystallographic Data Centre
#                                CCDC 
#
#######################################################################
#
# If this CIF has been generated from an entry in the Cambridge 
# Structural Database, then it will include bibliographic, chemical, 
# crystal, experimental, refinement or atomic coordinate data resulting 
# from the CCDC's data processing and validation procedures.
#
#######################################################################

data_RUWBIW
_chemical_formula_moiety         'C35 H35 N1 O3 P1 S1 1+,B1 F4 1-,0.5(H2 O1)'
_chemical_name_systematic        
'((methylimino)(diphenyl)sulfanyl)(tris(4-methoxyphenyl)phosphaniumyl)methanide tetrafluoroborate hemihydrate'
_symmetry_cell_setting           monoclinic
_symmetry_space_group_name_H-M   'P 21/n'
_symmetry_Int_Tables_number      14
_space_group_name_Hall           '-P 2yn'
loop_
_symmetry_equiv_pos_site_id
_symmetry_equiv_pos_as_xyz
1 x,y,z
2 1/2-x,1/2+y,1/2-z
3 -x,-y,-z
4 1/2+x,1/2-y,1/2+z
_cell_length_a                   10.781(3)
_cell_length_b                   17.543(4)
_cell_length_c                   18.126(4)
_cell_angle_alpha                90
_cell_angle_beta                 99.888(10)
_cell_angle_gamma                90
_cell_volume                     3377.27
_exptl_crystal_colour            colorless
_exptl_crystal_description       block
_chemical_melting_point          '452-453 K'
_cell_formula_units_Z            4
loop_
_atom_site_label
_atom_site_type_symbol
_atom_site_fract_x
_atom_site_fract_y
_atom_site_fract_z
S1 S 0.78436(6) 0.14241(4) 0.61106(3)
C1 C 0.6580(2) 0.11349(15) 0.55092(13)
H1 H 0.608(3) 0.0849(18) 0.5717(16)
P1 P 0.63520(6) 0.13069(3) 0.45554(3)
N1 N 0.9177(2) 0.11618(13) 0.60450(13)
C2 C 0.9343(3) 0.03369(18) 0.5953(2)
H2 H 0.9382 0.0083 0.6438
H3 H 1.0128 0.0244 0.5763
H4 H 0.8632 0.0135 0.5597
C3 C 0.7400(3) 0.12359(15) 0.70148(14)
C4 C 0.6174(3) 0.12473(17) 0.71462(15)
H5 H 0.5492 0.1295 0.6741
C5 C 0.5951(3) 0.11879(19) 0.78776(16)
H6 H 0.5112 0.1189 0.7974
C6 C 0.6947(4) 0.11279(19) 0.84617(16)
H7 H 0.6794 0.1102 0.8962
C7 C 0.8159(4) 0.1105(2) 0.83264(17)
H8 H 0.8837 0.1052 0.8733
C8 C 0.8406(3) 0.11590(19) 0.75957(16)
H9 H 0.9245 0.1143 0.7501
C9 C 0.7996(2) 0.24392(14) 0.61650(13)
C10 C 0.6933(3) 0.28705(16) 0.61821(14)
H10 H 0.6128 0.2636 0.6129
C11 C 0.7056(3) 0.36521(17) 0.62780(16)
H11 H 0.6330 0.3958 0.6286
C12 C 0.8234(4) 0.39892(18) 0.63628(16)
H12 H 0.8315 0.4525 0.6434
C13 C 0.9284(3) 0.35528(19) 0.63446(18)
H13 H 1.0090 0.3787 0.6407
C14 C 0.9174(3) 0.27685(17) 0.62350(16)
H14 H 0.9896 0.2466 0.6209
C15 C 0.7127(2) 0.21722(14) 0.43787(12)
C16 C 0.6493(3) 0.28631(15) 0.43370(14)
H15 H 0.5611 0.2867 0.4331
C17 C 0.7122(3) 0.35470(15) 0.43032(14)
H16 H 0.6676 0.4016 0.4271
C18 C 0.8422(3) 0.35390(15) 0.43170(14)
C19 C 0.9059(3) 0.28511(16) 0.43296(15)
H17 H 0.9936 0.2848 0.4316
C20 C 0.8430(2) 0.21716(15) 0.43612(13)
H18 H 0.8873 0.1703 0.4371
O1 O 0.9138(2) 0.41774(11) 0.43192(11)
C21 C 0.8539(3) 0.48939(16) 0.43805(19)
H19 H 0.7888 0.4974 0.3939
H20 H 0.9166 0.5303 0.4413
H21 H 0.8153 0.4897 0.4832
C22 C 0.6880(2) 0.05842(14) 0.39787(13)
C23 C 0.6911(2) -0.01819(14) 0.41846(13)
H22 H 0.6738 -0.0319 0.4664
C24 C 0.7188(2) -0.07472(15) 0.37057(14)
H23 H 0.7190 -0.1268 0.3851
C25 C 0.7466(2) -0.05440(15) 0.30060(14)
C26 C 0.7441(3) 0.02214(16) 0.27961(14)
H24 H 0.7631 0.0360 0.2321
C27 C 0.7144(2) 0.07795(15) 0.32732(14)
H25 H 0.7119 0.1299 0.3122
O2 O 0.7759(2) -0.10414(11) 0.24929(10)
C28 C 0.7787(3) -0.18318(17) 0.26752(16)
H26 H 0.8403 -0.1920 0.3131
H27 H 0.8024 -0.2126 0.2262
H28 H 0.6951 -0.1993 0.2758
C29 C 0.4682(2) 0.13910(14) 0.42526(13)
C30 C 0.3946(2) 0.17494(15) 0.47131(14)
H29 H 0.4331 0.1930 0.5192
C31 C 0.2672(2) 0.18454(16) 0.44834(14)
H30 H 0.2182 0.2089 0.4803
C32 C 0.2103(2) 0.15835(16) 0.37806(14)
C33 C 0.2815(3) 0.12246(18) 0.33175(15)
H31 H 0.2426 0.1046 0.2839
C34 C 0.4096(3) 0.11262(17) 0.35521(14)
H32 H 0.4581 0.0876 0.3234
O3 O 0.08427(18) 0.17060(13) 0.36051(10)
C35 C 0.0243(3) 0.1581(2) 0.28510(16)
H33 H 0.0660 0.1887 0.2513
H34 H -0.0645 0.1729 0.2795
H35 H 0.0300 0.1040 0.2727
O4 O 0.5000 0.5000 0.5000
B1 B 0.3164(5) 0.3355(3) 0.6042(3)
F1 F 0.38672(18) 0.26914(11) 0.61951(10)
F2 F 0.2493(7) 0.3473(3) 0.5402(2)
F3 F 0.3951(4) 0.4019(2) 0.6300(3)
F4 F 0.2354(4) 0.3403(2) 0.6624(2)
F5? F 0.1975(7) 0.3030(7) 0.5734(6)
F6? F 0.3672(11) 0.3531(4) 0.5308(4)
F7? F 0.3278(13) 0.3808(7) 0.6471(6)
loop_
_geom_bond_atom_site_label_1
_geom_bond_atom_site_label_2
_geom_bond_site_symmetry_1
_geom_bond_site_symmetry_2
S1 C1 1_555 1_555
C1 H1 1_555 1_555
P1 C1 1_555 1_555
N1 S1 1_555 1_555
C2 N1 1_555 1_555
H2 C2 1_555 1_555
H3 C2 1_555 1_555
H4 C2 1_555 1_555
C3 S1 1_555 1_555
C4 C3 1_555 1_555
H5 C4 1_555 1_555
C5 C4 1_555 1_555
H6 C5 1_555 1_555
C6 C5 1_555 1_555
H7 C6 1_555 1_555
C7 C6 1_555 1_555
H8 C7 1_555 1_555
C8 C3 1_555 1_555
H9 C8 1_555 1_555
C9 S1 1_555 1_555
C10 C9 1_555 1_555
H10 C10 1_555 1_555
C11 C10 1_555 1_555
H11 C11 1_555 1_555
C12 C11 1_555 1_555
H12 C12 1_555 1_555
C13 C12 1_555 1_555
H13 C13 1_555 1_555
C14 C9 1_555 1_555
H14 C14 1_555 1_555
C15 P1 1_555 1_555
C16 C15 1_555 1_555
H15 C16 1_555 1_555
C17 C16 1_555 1_555
H16 C17 1_555 1_555
C18 C17 1_555 1_555
C19 C18 1_555 1_555
H17 C19 1_555 1_555
C20 C15 1_555 1_555
H18 C20 1_555 1_555
O1 C18 1_555 1_555
C21 O1 1_555 1_555
H19 C21 1_555 1_555
H20 C21 1_555 1_555
H21 C21 1_555 1_555
C22 P1 1_555 1_555
C23 C22 1_555 1_555
H22 C23 1_555 1_555
C24 C23 1_555 1_555
H23 C24 1_555 1_555
C25 C24 1_555 1_555
C26 C25 1_555 1_555
H24 C26 1_555 1_555
C27 C22 1_555 1_555
H25 C27 1_555 1_555
O2 C25 1_555 1_555
C28 O2 1_555 1_555
H26 C28 1_555 1_555
H27 C28 1_555 1_555
H28 C28 1_555 1_555
C29 P1 1_555 1_555
C30 C29 1_555 1_555
H29 C30 1_555 1_555
C31 C30 1_555 1_555
H30 C31 1_555 1_555
C32 C31 1_555 1_555
C33 C32 1_555 1_555
H31 C33 1_555 1_555
C34 C29 1_555 1_555
H32 C34 1_555 1_555
O3 C32 1_555 1_555
C35 O3 1_555 1_555
H33 C35 1_555 1_555
H34 C35 1_555 1_555
H35 C35 1_555 1_555
B1 F1 1_555 1_555
F2 B1 1_555 1_555
F3 B1 1_555 1_555
F4 B1 1_555 1_555
C7 C8 1_555 1_555
C13 C14 1_555 1_555
C19 C20 1_555 1_555
C26 C27 1_555 1_555
C33 C34 1_555 1_555

#END
