
#######################################################################
#
#                 Cambridge Crystallographic Data Centre
#                                CCDC 
#
#######################################################################
#
# If this CIF has been generated from an entry in the Cambridge 
# Structural Database, then it will include bibliographic, chemical, 
# crystal, experimental, refinement or atomic coordinate data resulting 
# from the CCDC's data processing and validation procedures.
#
#######################################################################

data_RUWBES
_chemical_formula_moiety         'C32 H29 N1 P1 S1 1+,0.5(C2 H3 N1),B1 F4 1-'
_chemical_name_systematic        
'((methylimino)(diphenyl)sulfanyl)(triphenylphosphaniumyl)methanide tetrafluoroborate acetonitrile solvate'
_symmetry_cell_setting           monoclinic
_symmetry_space_group_name_H-M   'C 2/c'
_symmetry_Int_Tables_number      15
_space_group_name_Hall           '-C 2yn'
loop_
_symmetry_equiv_pos_site_id
_symmetry_equiv_pos_as_xyz
1 x,y,z
2 -x,y,1/2-z
3 1/2+x,1/2+y,z
4 1/2-x,1/2+y,1/2-z
5 -x,-y,-z
6 x,-y,1/2+z
7 1/2-x,1/2-y,-z
8 1/2+x,1/2-y,1/2+z
_cell_length_a                   30.631(6)
_cell_length_b                   10.932(3)
_cell_length_c                   22.061(5)
_cell_angle_alpha                90
_cell_angle_beta                 126.426(9)
_cell_angle_gamma                90
_cell_volume                     5944.01
_exptl_crystal_colour            colorless
_exptl_crystal_description       block
_chemical_melting_point          '452-454 K'
_cell_formula_units_Z            8
loop_
_atom_site_label
_atom_site_type_symbol
_atom_site_fract_x
_atom_site_fract_y
_atom_site_fract_z
S1 S 0.715049(14) -0.00988(3) 0.18571(2)
C1 C 0.68458(6) 0.10537(15) 0.19734(9)
H1 H 0.7034(8) 0.179(2) 0.2119(11)
P1 P 0.640472(15) 0.08309(4) 0.22091(2)
C2 C 0.75232(6) 0.06936(14) 0.15823(9)
C3 C 0.80057(7) 0.01410(16) 0.17991(10)
H2 H 0.8130 -0.0585 0.2093
C4 C 0.83025(7) 0.06721(18) 0.15767(10)
H3 H 0.8631 0.0304 0.1715
C5 C 0.81212(7) 0.17331(18) 0.11547(10)
H4 H 0.8328 0.2096 0.1009
C6 C 0.76377(7) 0.22736(17) 0.09411(10)
H5 H 0.7515 0.3001 0.0649
C7 C 0.73355(6) 0.17524(15) 0.11539(9)
H6 H 0.7004 0.2116 0.1008
N1 N 0.74975(5) -0.10663(12) 0.24686(8)
C8 C 0.66711(6) -0.09805(15) 0.10439(9)
C9 C 0.66970(7) -0.22439(16) 0.10764(11)
H7 H 0.6957 -0.2650 0.1537
C10 C 0.63373(8) -0.29059(19) 0.04269(12)
H8 H 0.6350 -0.3774 0.0440
C11 C 0.59611(8) -0.2310(2) -0.02376(12)
H9 H 0.5718 -0.2771 -0.0682
C12 C 0.59346(7) -0.1043(2) -0.02639(11)
H10 H 0.5674 -0.0639 -0.0725
C13 C 0.62891(7) -0.03652(17) 0.03826(10)
H11 H 0.6271 0.0503 0.0373
C14 C 0.59728(6) -0.04696(15) 0.17341(9)
C15 C 0.61731(7) -0.16451(16) 0.19926(10)
H12 H 0.6536 -0.1759 0.2426
C16 C 0.58431(8) -0.26456(17) 0.16164(11)
H13 H 0.5980 -0.3449 0.1789
C17 C 0.53144(8) -0.24814(19) 0.09902(11)
H14 H 0.5088 -0.3171 0.0734
C18 C 0.51146(8) -0.13174(19) 0.07366(11)
H15 H 0.4750 -0.1209 0.0306
C19 C 0.54393(7) -0.03074(17) 0.11023(10)
H16 H 0.5300 0.0493 0.0924
C20 C 0.59973(6) 0.21923(15) 0.19399(9)
C21 C 0.58483(7) 0.28530(16) 0.13046(10)
H17 H 0.5976 0.2611 0.1021
C22 C 0.55138(7) 0.38651(18) 0.10864(11)
H18 H 0.5409 0.4313 0.0650
C23 C 0.53314(8) 0.42245(17) 0.15016(13)
H19 H 0.5102 0.4918 0.1350
C24 C 0.54820(8) 0.3580(2) 0.21341(14)
H20 H 0.5358 0.3834 0.2419
C25 C 0.58140(8) 0.25619(18) 0.23574(12)
H21 H 0.5916 0.2118 0.2794
C26 C 0.67155(7) 0.06278(15) 0.31964(9)
C27 C 0.64768(8) -0.00839(17) 0.34501(10)
H22 H 0.6153 -0.0523 0.3100
C28 C 0.67140(9) -0.01498(19) 0.42164(11)
H23 H 0.6551 -0.0635 0.4390
C29 C 0.71807(9) 0.0483(2) 0.47214(11)
H24 H 0.7341 0.0433 0.5244
C30 C 0.74211(8) 0.1192(2) 0.44765(11)
H25 H 0.7746 0.1625 0.4832
C31 C 0.71896(7) 0.12751(19) 0.37141(10)
H26 H 0.7353 0.1770 0.3546
C32 C 0.79185(7) -0.05452(17) 0.32161(9)
H27 H 0.8099 0.0135 0.3158
H28 H 0.8186 -0.1178 0.3535
H29 H 0.7749 -0.0247 0.3451
B1 B 0.60520(8) 0.3711(2) -0.04029(12)
F1 F 0.65774(5) 0.41519(13) -0.00073(7)
F2 F 0.60639(6) 0.24730(14) -0.03809(12)
F3 F 0.58074(5) 0.41760(14) -0.00927(8)
F4 F 0.57583(6) 0.40981(18) -0.11383(8)
N2 N 0.5000 -0.0291(5) -0.2500
C33 C 0.5000 0.0754(5) -0.2500
C34 C 0.5000 0.2063(5) -0.2500
H30? H 0.5130 0.2361 -0.2000
H31? H 0.4631 0.2361 -0.2875
H32? H 0.5240 0.2361 -0.2625
loop_
_geom_bond_atom_site_label_1
_geom_bond_atom_site_label_2
_geom_bond_site_symmetry_1
_geom_bond_site_symmetry_2
S1 C1 1_555 1_555
C1 H1 1_555 1_555
P1 C1 1_555 1_555
C2 S1 1_555 1_555
C3 C2 1_555 1_555
H2 C3 1_555 1_555
C4 C3 1_555 1_555
H3 C4 1_555 1_555
C5 C4 1_555 1_555
H4 C5 1_555 1_555
C6 C5 1_555 1_555
H5 C6 1_555 1_555
C7 C2 1_555 1_555
H6 C7 1_555 1_555
N1 S1 1_555 1_555
C8 S1 1_555 1_555
C9 C8 1_555 1_555
H7 C9 1_555 1_555
C10 C9 1_555 1_555
H8 C10 1_555 1_555
C11 C10 1_555 1_555
H9 C11 1_555 1_555
C12 C11 1_555 1_555
H10 C12 1_555 1_555
C13 C8 1_555 1_555
H11 C13 1_555 1_555
C14 P1 1_555 1_555
C15 C14 1_555 1_555
H12 C15 1_555 1_555
C16 C15 1_555 1_555
H13 C16 1_555 1_555
C17 C16 1_555 1_555
H14 C17 1_555 1_555
C18 C17 1_555 1_555
H15 C18 1_555 1_555
C19 C14 1_555 1_555
H16 C19 1_555 1_555
C20 P1 1_555 1_555
C21 C20 1_555 1_555
H17 C21 1_555 1_555
C22 C21 1_555 1_555
H18 C22 1_555 1_555
C23 C22 1_555 1_555
H19 C23 1_555 1_555
C24 C23 1_555 1_555
H20 C24 1_555 1_555
C25 C20 1_555 1_555
H21 C25 1_555 1_555
C26 P1 1_555 1_555
C27 C26 1_555 1_555
H22 C27 1_555 1_555
C28 C27 1_555 1_555
H23 C28 1_555 1_555
C29 C28 1_555 1_555
H24 C29 1_555 1_555
C30 C29 1_555 1_555
H25 C30 1_555 1_555
C31 C26 1_555 1_555
H26 C31 1_555 1_555
C32 N1 1_555 1_555
H27 C32 1_555 1_555
H28 C32 1_555 1_555
H29 C32 1_555 1_555
B1 F1 1_555 1_555
F2 B1 1_555 1_555
F3 B1 1_555 1_555
F4 B1 1_555 1_555
N2 C33 1_555 1_555
C33 C34 1_555 1_555
C6 C7 1_555 1_555
C12 C13 1_555 1_555
C18 C19 1_555 1_555
C24 C25 1_555 1_555
C30 C31 1_555 1_555

#END
