
#######################################################################
#
#                 Cambridge Crystallographic Data Centre
#                                CCDC 
#
#######################################################################
#
# If this CIF has been generated from an entry in the Cambridge 
# Structural Database, then it will include bibliographic, chemical, 
# crystal, experimental, refinement or atomic coordinate data resulting 
# from the CCDC's data processing and validation procedures.
#
#######################################################################

data_RUWBOC
_chemical_formula_moiety         'C38 H44 N4 P1 S1 1+,B1 F4 1-,0.5(H2 O1)'
_chemical_name_systematic        
'((methylimino)(diphenyl)sulfanyl)(tris(4-(dimethylamino)phenyl)phosphaniumyl)methanide tetrafluoroborate hemihydrate'
_symmetry_cell_setting           orthorhombic
_symmetry_space_group_name_H-M   'P 21 21 21'
_symmetry_Int_Tables_number      19
_space_group_name_Hall           'P 2ac 2ab'
loop_
_symmetry_equiv_pos_site_id
_symmetry_equiv_pos_as_xyz
1 x,y,z
2 1/2-x,-y,1/2+z
3 1/2+x,1/2-y,-z
4 -x,1/2+y,1/2-z
_cell_length_a                   12.2441(18)
_cell_length_b                   19.993(4)
_cell_length_c                   31.068(5)
_cell_angle_alpha                90
_cell_angle_beta                 90
_cell_angle_gamma                90
_cell_volume                     7605.33
_exptl_crystal_colour            colorless
_exptl_crystal_description       rod
_chemical_melting_point          '462-463 K'
_cell_formula_units_Z            8
loop_
_atom_site_label
_atom_site_type_symbol
_atom_site_fract_x
_atom_site_fract_y
_atom_site_fract_z
P1 P 0.65919(10) 0.04936(7) 0.62025(4)
C1 C 0.6972(4) -0.0089(3) 0.58240(15)
H1 H 0.7716(19) -0.019(4) 0.577(2)
S1 S 0.61277(11) -0.06223(7) 0.55832(4)
N1 N 0.5300(4) -0.1036(3) 0.58373(16)
C2 C 0.5694(7) -0.1402(4) 0.6220(2)
H2 H 0.6494 -0.1394 0.6226
H3 H 0.5441 -0.1867 0.6207
H4 H 0.5409 -0.1189 0.6481
C3 C 0.7677(4) 0.1080(3) 0.62304(15)
C4 C 0.8000(4) 0.1353(3) 0.66252(16)
H5 H 0.7624 0.1228 0.6880
C5 C 0.8860(4) 0.1803(3) 0.66516(17)
H6 H 0.9066 0.1977 0.6924
C6 C 0.9431(4) 0.2007(3) 0.62826(18)
C7 C 0.9089(4) 0.1744(3) 0.58866(18)
H7 H 0.9452 0.1879 0.5631
C8 C 0.8244(4) 0.1296(3) 0.58601(16)
H8 H 0.8036 0.1128 0.5586
N2 N 1.0300(4) 0.2442(3) 0.63105(17)
C9 C 1.0806(5) 0.2576(4) 0.6723(2)
H9 H 1.0743 0.3053 0.6790
H10 H 1.1579 0.2450 0.6712
H11 H 1.0438 0.2315 0.6947
C10 C 1.0826(7) 0.2702(4) 0.5934(2)
H12 H 1.1243 0.2345 0.5794
H13 H 1.1322 0.3064 0.6017
H14 H 1.0274 0.2874 0.5734
C11 C 0.5343(4) 0.0888(3) 0.60537(15)
C12 C 0.4367(4) 0.0532(3) 0.60604(16)
H15 H 0.4340 0.0113 0.6205
C13 C 0.3437(4) 0.0770(3) 0.58615(15)
H16 H 0.2776 0.0523 0.5881
C14 C 0.3460(4) 0.1374(3) 0.56300(16)
C15 C 0.4425(4) 0.1756(3) 0.56539(16)
H17 H 0.4437 0.2191 0.5532
C16 C 0.5342(4) 0.1516(3) 0.58477(16)
H18 H 0.5991 0.1776 0.5844
N3 N 0.2565(4) 0.1570(3) 0.54007(15)
C17 C 0.1662(4) 0.1117(3) 0.5346(2)
H19 H 0.1925 0.0699 0.5218
H20 H 0.1118 0.1321 0.5155
H21 H 0.1330 0.1023 0.5626
C18 C 0.2651(5) 0.2142(3) 0.5107(2)
H22 H 0.2951 0.2527 0.5262
H23 H 0.1925 0.2254 0.4996
H24 H 0.3134 0.2026 0.4867
C19 C 0.6433(4) 0.0147(3) 0.67286(14)
C20 C 0.5612(4) 0.0340(3) 0.70135(16)
H25 H 0.5074 0.0652 0.6922
C21 C 0.5569(4) 0.0085(3) 0.74259(16)
H26 H 0.5007 0.0228 0.7616
C22 C 0.6343(4) -0.0385(3) 0.75699(15)
C23 C 0.7156(4) -0.0575(3) 0.72820(14)
H27 H 0.7691 -0.0890 0.7372
C24 C 0.7207(4) -0.0320(3) 0.68685(15)
H28 H 0.7769 -0.0463 0.6679
N4 N 0.6328(4) -0.0624(3) 0.79811(14)
C25 C 0.5432(5) -0.0458(4) 0.82687(18)
H29 H 0.5448 0.0022 0.8333
H30 H 0.5508 -0.0712 0.8537
H31 H 0.4737 -0.0572 0.8131
C26 C 0.7078(5) -0.1144(4) 0.8106(2)
H32 H 0.6901 -0.1557 0.7951
H33 H 0.7018 -0.1222 0.8417
H34 H 0.7826 -0.1006 0.8036
C27 C 0.5273(4) -0.0228(3) 0.51998(16)
C28 C 0.5586(5) 0.0386(3) 0.50373(16)
H35 H 0.6261 0.0583 0.5119
C29 C 0.4895(5) 0.0704(4) 0.47548(18)
H36 H 0.5078 0.1137 0.4651
C30 C 0.3950(6) 0.0408(5) 0.46222(19)
H37 H 0.3492 0.0633 0.4423
C31 C 0.3656(5) -0.0200(4) 0.4770(2)
H38 H 0.3000 -0.0402 0.4671
C32 C 0.4317(5) -0.0532(4) 0.50676(19)
H39 H 0.4113 -0.0958 0.5177
C33 C 0.7022(5) -0.1086(3) 0.52445(18)
C34 C 0.7806(5) -0.0786(4) 0.49861(18)
H40 H 0.7890 -0.0313 0.4991
C35 C 0.8472(6) -0.1172(5) 0.4720(2)
H41 H 0.8999 -0.0964 0.4540
C36 C 0.8360(10) -0.1851(6) 0.4719(3)
H42 H 0.8826 -0.2116 0.4544
C37 C 0.7581(10) -0.2153(7) 0.4970(4)
H43 H 0.7496 -0.2625 0.4957
C38 C 0.6882(8) -0.1765(4) 0.5254(3)
H44 H 0.6357 -0.1971 0.5437
P2 P 0.16060(11) 0.05931(7) 0.74722(4)
C39 C 0.2061(4) 0.0082(3) 0.78860(16)
H45 H 0.2778(18) 0.003(3) 0.7995(15)
S2 S 0.12476(10) -0.04107(7) 0.81714(4)
N5 N 0.0491(4) -0.0909(3) 0.79435(15)
C40 C 0.1005(7) -0.1349(4) 0.7622(2)
H46 H 0.0454 -0.1497 0.7414
H47 H 0.1320 -0.1740 0.7766
H48 H 0.1583 -0.1104 0.7471
C41 C 0.1442(4) 0.0171(3) 0.69713(15)
C42 C 0.0598(4) 0.0320(3) 0.66893(16)
H49 H 0.0055 0.0633 0.6775
C43 C 0.0525(5) 0.0027(3) 0.62877(17)
H50 H -0.0063 0.0140 0.6102
C44 C 0.1320(4) -0.0442(3) 0.61502(16)
C45 C 0.2157(4) -0.0599(3) 0.64418(16)
H51 H 0.2692 -0.0922 0.6365
C46 C 0.2213(4) -0.0293(3) 0.68387(15)
H52 H 0.2798 -0.0403 0.7027
N6 N 0.1287(4) -0.0706(3) 0.57478(15)
C47 C 0.0366(6) -0.0588(4) 0.5469(2)
H53 H -0.0284 -0.0803 0.5591
H54 H 0.0517 -0.0776 0.5184
H55 H 0.0240 -0.0106 0.5444
C48 C 0.2023(7) -0.1243(4) 0.5634(2)
H56 H 0.2763 -0.1133 0.5732
H57 H 0.2025 -0.1303 0.5321
H58 H 0.1782 -0.1658 0.5773
C49 C 0.2659(4) 0.1204(3) 0.74017(15)
C50 C 0.2983(4) 0.1399(3) 0.69919(16)
H59 H 0.2654 0.1199 0.6747
C51 C 0.3778(4) 0.1881(3) 0.69374(17)
H60 H 0.3998 0.2002 0.6655
C52 C 0.4268(4) 0.2196(3) 0.72911(18)
C53 C 0.3927(4) 0.2001(3) 0.77043(17)
H61 H 0.4237 0.2208 0.7951
C54 C 0.3142(5) 0.1509(3) 0.77543(16)
H62 H 0.2930 0.1378 0.8036
N7 N 0.5048(4) 0.2688(3) 0.72294(16)
C55 C 0.5492(8) 0.3035(5) 0.7595(3)
H63 H 0.4903 0.3266 0.7749
H64 H 0.6034 0.3362 0.7498
H65 H 0.5842 0.2713 0.7789
C56 C 0.5516(7) 0.2791(4) 0.6806(3)
H66 H 0.6037 0.2432 0.6743
H67 H 0.5894 0.3223 0.6798
H68 H 0.4933 0.2788 0.6590
C57 C 0.0337(4) 0.0986(3) 0.76069(15)
C58 C -0.0633(4) 0.0632(3) 0.76168(16)
H69 H -0.0658 0.0195 0.7498
C59 C -0.1570(4) 0.0903(3) 0.77962(16)
H70 H -0.2228 0.0650 0.7796
C60 C -0.1559(4) 0.1539(3) 0.79757(16)
C61 C -0.0609(5) 0.1914(3) 0.79421(17)
H71 H -0.0607 0.2365 0.8038
C62 C 0.0333(5) 0.1642(3) 0.77712(16)
H72 H 0.0984 0.1901 0.7765
N8 N -0.2477(4) 0.1800(3) 0.81783(17)
C63 C -0.3399(5) 0.1363(4) 0.8263(2)
H73 H -0.3736 0.1230 0.7991
H74 H -0.3937 0.1601 0.8440
H75 H -0.3147 0.0964 0.8417
C64 C -0.2374(6) 0.2391(4) 0.8439(2)
H76 H -0.1810 0.2319 0.8658
H77 H -0.3073 0.2485 0.8580
H78 H -0.2169 0.2770 0.8256
C65 C 0.0329(4) 0.0021(3) 0.85138(16)
C66 C 0.0628(6) 0.0639(4) 0.86604(18)
H79 H 0.1304 0.0826 0.8572
C67 C -0.0050(8) 0.0999(5) 0.8940(2)
H80 H 0.0158 0.1427 0.9044
C68 C -0.1028(9) 0.0712(6) 0.9058(3)
H81 H -0.1507 0.0955 0.9240
C69 C -0.1329(6) 0.0100(6) 0.8923(2)
H82 H -0.2000 -0.0088 0.9018
C70 C -0.0645(5) -0.0267(4) 0.86403(19)
H83 H -0.0852 -0.0698 0.8540
C71 C 0.2165(4) -0.0773(3) 0.85474(15)
C72 C 0.2992(4) -0.0406(3) 0.87567(15)
H84 H 0.3100 0.0054 0.8694
C73 C 0.3646(4) -0.0728(3) 0.90562(16)
H85 H 0.4202 -0.0487 0.9202
C74 C 0.3494(5) -0.1396(3) 0.91437(17)
H86 H 0.3964 -0.1616 0.9341
C75 C 0.2661(5) -0.1749(3) 0.89453(17)
H87 H 0.2546 -0.2206 0.9017
C76 C 0.1994(5) -0.1443(3) 0.86441(16)
H88 H 0.1428 -0.1687 0.8506
B1 B 0.3788(7) 0.1467(4) 0.9088(3)
F1 F 0.4327(7) 0.0948(4) 0.8913(4)
F2 F 0.2889(5) 0.1497(5) 0.88538(19)
F3 F 0.4497(6) 0.1971(3) 0.9017(3)
F4 F 0.3628(7) 0.1354(7) 0.94634(18)
B2 B 0.3619(6) 0.3842(4) 0.5429(3)
F5 F 0.2622(3) 0.3796(3) 0.52308(15)
F6 F 0.4369(3) 0.3434(3) 0.52138(13)
F7 F 0.3565(5) 0.3595(3) 0.58319(13)
F8 F 0.3955(6) 0.4485(3) 0.5447(4)
O1 O 0.5998(12) 0.1858(8) 0.1426(5)
loop_
_geom_bond_atom_site_label_1
_geom_bond_atom_site_label_2
_geom_bond_site_symmetry_1
_geom_bond_site_symmetry_2
P1 C1 1_555 1_555
C1 H1 1_555 1_555
S1 C1 1_555 1_555
N1 S1 1_555 1_555
C2 N1 1_555 1_555
H2 C2 1_555 1_555
H3 C2 1_555 1_555
H4 C2 1_555 1_555
C3 P1 1_555 1_555
C4 C3 1_555 1_555
H5 C4 1_555 1_555
C5 C4 1_555 1_555
H6 C5 1_555 1_555
C6 C5 1_555 1_555
C7 C6 1_555 1_555
H7 C7 1_555 1_555
C8 C3 1_555 1_555
H8 C8 1_555 1_555
N2 C6 1_555 1_555
C9 N2 1_555 1_555
H9 C9 1_555 1_555
H10 C9 1_555 1_555
H11 C9 1_555 1_555
C10 N2 1_555 1_555
H12 C10 1_555 1_555
H13 C10 1_555 1_555
H14 C10 1_555 1_555
C11 P1 1_555 1_555
C12 C11 1_555 1_555
H15 C12 1_555 1_555
C13 C12 1_555 1_555
H16 C13 1_555 1_555
C14 C13 1_555 1_555
C15 C14 1_555 1_555
H17 C15 1_555 1_555
C16 C11 1_555 1_555
H18 C16 1_555 1_555
N3 C14 1_555 1_555
C17 N3 1_555 1_555
H19 C17 1_555 1_555
H20 C17 1_555 1_555
H21 C17 1_555 1_555
C18 N3 1_555 1_555
H22 C18 1_555 1_555
H23 C18 1_555 1_555
H24 C18 1_555 1_555
C19 P1 1_555 1_555
C20 C19 1_555 1_555
H25 C20 1_555 1_555
C21 C20 1_555 1_555
H26 C21 1_555 1_555
C22 C21 1_555 1_555
C23 C22 1_555 1_555
H27 C23 1_555 1_555
C24 C19 1_555 1_555
H28 C24 1_555 1_555
N4 C22 1_555 1_555
C25 N4 1_555 1_555
H29 C25 1_555 1_555
H30 C25 1_555 1_555
H31 C25 1_555 1_555
C26 N4 1_555 1_555
H32 C26 1_555 1_555
H33 C26 1_555 1_555
H34 C26 1_555 1_555
C27 S1 1_555 1_555
C28 C27 1_555 1_555
H35 C28 1_555 1_555
C29 C28 1_555 1_555
H36 C29 1_555 1_555
C30 C29 1_555 1_555
H37 C30 1_555 1_555
C31 C30 1_555 1_555
H38 C31 1_555 1_555
C32 C27 1_555 1_555
H39 C32 1_555 1_555
C33 S1 1_555 1_555
C34 C33 1_555 1_555
H40 C34 1_555 1_555
C35 C34 1_555 1_555
H41 C35 1_555 1_555
C36 C35 1_555 1_555
H42 C36 1_555 1_555
C37 C36 1_555 1_555
H43 C37 1_555 1_555
C38 C33 1_555 1_555
H44 C38 1_555 1_555
P2 C39 1_555 1_555
C39 H45 1_555 1_555
S2 C39 1_555 1_555
N5 S2 1_555 1_555
C40 N5 1_555 1_555
H46 C40 1_555 1_555
H47 C40 1_555 1_555
H48 C40 1_555 1_555
C41 P2 1_555 1_555
C42 C41 1_555 1_555
H49 C42 1_555 1_555
C43 C42 1_555 1_555
H50 C43 1_555 1_555
C44 C43 1_555 1_555
C45 C44 1_555 1_555
H51 C45 1_555 1_555
C46 C41 1_555 1_555
H52 C46 1_555 1_555
N6 C44 1_555 1_555
C47 N6 1_555 1_555
H53 C47 1_555 1_555
H54 C47 1_555 1_555
H55 C47 1_555 1_555
C48 N6 1_555 1_555
H56 C48 1_555 1_555
H57 C48 1_555 1_555
H58 C48 1_555 1_555
C49 P2 1_555 1_555
C50 C49 1_555 1_555
H59 C50 1_555 1_555
C51 C50 1_555 1_555
H60 C51 1_555 1_555
C52 C51 1_555 1_555
C53 C52 1_555 1_555
H61 C53 1_555 1_555
C54 C49 1_555 1_555
H62 C54 1_555 1_555
N7 C52 1_555 1_555
C55 N7 1_555 1_555
H63 C55 1_555 1_555
H64 C55 1_555 1_555
H65 C55 1_555 1_555
C56 N7 1_555 1_555
H66 C56 1_555 1_555
H67 C56 1_555 1_555
H68 C56 1_555 1_555
C57 P2 1_555 1_555
C58 C57 1_555 1_555
H69 C58 1_555 1_555
C59 C58 1_555 1_555
H70 C59 1_555 1_555
C60 C59 1_555 1_555
C61 C60 1_555 1_555
H71 C61 1_555 1_555
C62 C57 1_555 1_555
H72 C62 1_555 1_555
N8 C60 1_555 1_555
C63 N8 1_555 1_555
H73 C63 1_555 1_555
H74 C63 1_555 1_555
H75 C63 1_555 1_555
C64 N8 1_555 1_555
H76 C64 1_555 1_555
H77 C64 1_555 1_555
H78 C64 1_555 1_555
C65 S2 1_555 1_555
C66 C65 1_555 1_555
H79 C66 1_555 1_555
C67 C66 1_555 1_555
H80 C67 1_555 1_555
C68 C67 1_555 1_555
H81 C68 1_555 1_555
C69 C68 1_555 1_555
H82 C69 1_555 1_555
C70 C65 1_555 1_555
H83 C70 1_555 1_555
C71 S2 1_555 1_555
C72 C71 1_555 1_555
H84 C72 1_555 1_555
C73 C72 1_555 1_555
H85 C73 1_555 1_555
C74 C73 1_555 1_555
H86 C74 1_555 1_555
C75 C74 1_555 1_555
H87 C75 1_555 1_555
C76 C71 1_555 1_555
H88 C76 1_555 1_555
B1 F1 1_555 1_555
F2 B1 1_555 1_555
F3 B1 1_555 1_555
F4 B1 1_555 1_555
B2 F5 1_555 1_555
F6 B2 1_555 1_555
F7 B2 1_555 1_555
F8 B2 1_555 1_555
C7 C8 1_555 1_555
C15 C16 1_555 1_555
C23 C24 1_555 1_555
C31 C32 1_555 1_555
C37 C38 1_555 1_555
C45 C46 1_555 1_555
C53 C54 1_555 1_555
C61 C62 1_555 1_555
C69 C70 1_555 1_555
C75 C76 1_555 1_555

#END
