
#######################################################################
#
#                 Cambridge Crystallographic Data Centre
#                                CCDC 
#
#######################################################################
#
# If this CIF has been generated from an entry in the Cambridge 
# Structural Database, then it will include bibliographic, chemical, 
# crystal, experimental, refinement or atomic coordinate data resulting 
# from the CCDC's data processing and validation procedures.
#
#######################################################################

data_RUWCOD
_chemical_formula_moiety         'C26 H33 N3 P1 1+,C1 F3 O3 S1 1-,C1 H1 Cl3'
_chemical_name_systematic        
'tris(4-(dimethylamino)phenyl)(vinyl)phosphonium trifluoromethanesulfonate chloroform solvate'
_symmetry_cell_setting           monoclinic
_symmetry_space_group_name_H-M   'P 21/c'
_symmetry_Int_Tables_number      14
_space_group_name_Hall           '-P 2ybc'
loop_
_symmetry_equiv_pos_site_id
_symmetry_equiv_pos_as_xyz
1 x,y,z
2 -x,1/2+y,1/2-z
3 -x,-y,-z
4 x,1/2-y,1/2+z
_cell_length_a                   10.855(3)
_cell_length_b                   15.014(5)
_cell_length_c                   19.914(6)
_cell_angle_alpha                90
_cell_angle_beta                 94.796(11)
_cell_angle_gamma                90
_cell_volume                     3234.16
_exptl_crystal_colour            colorless
_exptl_crystal_description       needle
_chemical_melting_point          '432-433 K'
_cell_formula_units_Z            4
loop_
_atom_site_label
_atom_site_type_symbol
_atom_site_fract_x
_atom_site_fract_y
_atom_site_fract_z
P1 P 0.14450(8) 0.00018(7) 0.13871(5)
C1 C 0.2377(4) -0.0062(3) 0.2172(2)
H1 H 0.274(5) -0.059(4) 0.229(3)
C2 C 0.2311(4) 0.0495(4) 0.2672(3)
H2 H 0.160(5) 0.100(4) 0.259(3)
H3 H 0.287(4) 0.041(3) 0.307(2)
C3 C 0.0782(3) 0.1078(2) 0.12813(18)
C4 C 0.1503(3) 0.1849(3) 0.1360(2)
H4 H 0.2364 0.1794 0.1486
C5 C 0.1003(3) 0.2682(3) 0.1261(2)
H5 H 0.1520 0.3191 0.1322
C6 C -0.0266(3) 0.2794(3) 0.1068(2)
C7 C -0.0987(3) 0.2016(3) 0.0984(2)
H6 H -0.1846 0.2068 0.0854
C8 C -0.0479(3) 0.1185(3) 0.10848(19)
H7 H -0.0991 0.0674 0.1020
N1 N -0.0770(3) 0.3619(2) 0.0973(2)
C9 C -0.0013(5) 0.4410(3) 0.1004(3)
H8 H 0.0375 0.4485 0.1462
H9 H -0.0529 0.4930 0.0881
H10 H 0.0629 0.4352 0.0689
C10 C -0.2098(4) 0.3725(3) 0.0831(3)
H11 H -0.2361 0.3434 0.0402
H12 H -0.2303 0.4360 0.0802
H13 H -0.2526 0.3450 0.1193
C11 C 0.2403(3) -0.0222(2) 0.07300(18)
C12 C 0.2387(3) 0.0338(2) 0.01636(18)
H14 H 0.1910 0.0869 0.0153
C13 C 0.3043(3) 0.0133(2) -0.03697(19)
H15 H 0.3022 0.0531 -0.0741
C14 C 0.3751(3) -0.0651(2) -0.03863(19)
C15 C 0.3795(3) -0.1192(2) 0.0195(2)
H16 H 0.4292 -0.1714 0.0214
C16 C 0.3140(3) -0.0982(3) 0.0732(2)
H17 H 0.3189 -0.1364 0.1114
N2 N 0.4327(3) -0.0884(2) -0.09375(16)
C17 C 0.4211(4) -0.0340(3) -0.1538(2)
H18 H 0.3340 -0.0313 -0.1713
H19 H 0.4701 -0.0602 -0.1880
H20 H 0.4511 0.0262 -0.1429
C18 C 0.4978(4) -0.1718(3) -0.0958(2)
H21 H 0.5683 -0.1715 -0.0618
H22 H 0.5274 -0.1799 -0.1406
H23 H 0.4419 -0.2207 -0.0866
C19 C 0.0253(3) -0.0816(2) 0.13954(19)
C20 C 0.0037(3) -0.1429(2) 0.08699(18)
H24 H 0.0557 -0.1436 0.0509
C21 C -0.0930(3) -0.2026(2) 0.08757(19)
H25 H -0.1054 -0.2450 0.0522
C22 C -0.1734(3) -0.2020(2) 0.1391(2)
C23 C -0.1499(3) -0.1404(3) 0.1920(2)
H26 H -0.2017 -0.1389 0.2282
C24 C -0.0522(4) -0.0826(3) 0.1914(2)
H27 H -0.0371 -0.0419 0.2277
N3 N -0.2716(3) -0.2600(2) 0.13954(19)
C25 C -0.3030(5) -0.3154(4) 0.0812(3)
H28 H -0.3276 -0.2777 0.0423
H29 H -0.3716 -0.3549 0.0902
H30 H -0.2311 -0.3513 0.0717
C26 C -0.3662(4) -0.2482(3) 0.1858(3)
H31 H -0.3285 -0.2511 0.2322
H32 H -0.4282 -0.2954 0.1786
H33 H -0.4058 -0.1900 0.1779
C27 C -0.2232(4) 0.1551(3) 0.3099(2)
H34 H -0.2615 0.0957 0.2989
Cl1 Cl -0.07434(12) 0.15504(10) 0.28395(7)
Cl2 Cl -0.31433(12) 0.23767(8) 0.26667(7)
Cl3 Cl -0.21859(14) 0.17103(9) 0.39725(6)
S1 S -0.43257(16) -0.04791(16) 0.33011(8)
O1 O -0.4837(3) 0.0397(2) 0.3308(2)
O2 O -0.3090(3) -0.0497(2) 0.30840(15)
O3 O -0.5180(3) -0.1131(3) 0.30266(18)
C28 C -0.4089(7) -0.0755(5) 0.4193(4)
F1 F -0.3549(3) -0.1577(2) 0.42573(19)
F2 F -0.3327(3) -0.0228(2) 0.45234(13)
F3 F -0.5120(3) -0.0818(2) 0.44780(15)
S2? S -0.4155(7) -0.0943(8) 0.3314(4)
O4? O -0.3741(17) -0.1806(11) 0.3509(11)
C29? C -0.435(3) -0.053(4) 0.3997(19)
F4? F -0.480(2) 0.0379(14) 0.4053(10)
loop_
_geom_bond_atom_site_label_1
_geom_bond_atom_site_label_2
_geom_bond_site_symmetry_1
_geom_bond_site_symmetry_2
P1 C1 1_555 1_555
C1 H1 1_555 1_555
C2 C1 1_555 1_555
H2 C2 1_555 1_555
H3 C2 1_555 1_555
C3 P1 1_555 1_555
C4 C3 1_555 1_555
H4 C4 1_555 1_555
C5 C4 1_555 1_555
H5 C5 1_555 1_555
C6 C5 1_555 1_555
C7 C6 1_555 1_555
H6 C7 1_555 1_555
C8 C3 1_555 1_555
H7 C8 1_555 1_555
N1 C6 1_555 1_555
C9 N1 1_555 1_555
H8 C9 1_555 1_555
H9 C9 1_555 1_555
H10 C9 1_555 1_555
C10 N1 1_555 1_555
H11 C10 1_555 1_555
H12 C10 1_555 1_555
H13 C10 1_555 1_555
C11 P1 1_555 1_555
C12 C11 1_555 1_555
H14 C12 1_555 1_555
C13 C12 1_555 1_555
H15 C13 1_555 1_555
C14 C13 1_555 1_555
C15 C14 1_555 1_555
H16 C15 1_555 1_555
C16 C11 1_555 1_555
H17 C16 1_555 1_555
N2 C14 1_555 1_555
C17 N2 1_555 1_555
H18 C17 1_555 1_555
H19 C17 1_555 1_555
H20 C17 1_555 1_555
C18 N2 1_555 1_555
H21 C18 1_555 1_555
H22 C18 1_555 1_555
H23 C18 1_555 1_555
C19 P1 1_555 1_555
C20 C19 1_555 1_555
H24 C20 1_555 1_555
C21 C20 1_555 1_555
H25 C21 1_555 1_555
C22 C21 1_555 1_555
C23 C22 1_555 1_555
H26 C23 1_555 1_555
C24 C19 1_555 1_555
H27 C24 1_555 1_555
N3 C22 1_555 1_555
C25 N3 1_555 1_555
H28 C25 1_555 1_555
H29 C25 1_555 1_555
H30 C25 1_555 1_555
C26 N3 1_555 1_555
H31 C26 1_555 1_555
H32 C26 1_555 1_555
H33 C26 1_555 1_555
C27 H34 1_555 1_555
Cl1 C27 1_555 1_555
Cl2 C27 1_555 1_555
Cl3 C27 1_555 1_555
S1 O1 1_555 1_555
O2 S1 1_555 1_555
O3 S1 1_555 1_555
C28 S1 1_555 1_555
F1 C28 1_555 1_555
F2 C28 1_555 1_555
F3 C28 1_555 1_555
C7 C8 1_555 1_555
C15 C16 1_555 1_555
C23 C24 1_555 1_555

#END
