
#######################################################################
#
#                 Cambridge Crystallographic Data Centre
#                                CCDC 
#
#######################################################################
#
# If this CIF has been generated from an entry in the Cambridge 
# Structural Database, then it will include bibliographic, chemical, 
# crystal, experimental, refinement or atomic coordinate data resulting 
# from the CCDC's data processing and validation procedures.
#
#######################################################################

data_RUWDIW
_chemical_formula_moiety         'C22 H26 O9 S2'
_chemical_name_systematic        
1,2-O-Isopropylidene-3,5-di-O-p-tosyl-\a-D-xylofuranose
_symmetry_cell_setting           monoclinic
_symmetry_space_group_name_H-M   'P 21'
_symmetry_Int_Tables_number      4
_space_group_name_Hall           'P 2yb'
loop_
_symmetry_equiv_pos_site_id
_symmetry_equiv_pos_as_xyz
1 x,y,z
2 -x,1/2+y,-z
_cell_length_a                   6.391(6)
_cell_length_b                   13.795(6)
_cell_length_c                   13.967(8)
_cell_angle_alpha                90
_cell_angle_beta                 100.17(6)
_cell_angle_gamma                90
_cell_volume                     1212.04
_exptl_crystal_colour            colorless
_exptl_crystal_description       plate
_chemical_melting_point          362-363K
_cell_formula_units_Z            2
_exptl_crystal_recrystallization_method 'diethyl ether'
loop_
_atom_site_label
_atom_site_type_symbol
_atom_site_fract_x
_atom_site_fract_y
_atom_site_fract_z
S1 S 1.0434(4) 0.19374(15) 0.8002(2)
S2 S 0.4260(3) 0.5218(2) 0.8453(2)
O1 O 0.6797(10) 0.4127(4) 0.5829(4)
O2 O 0.7805(9) 0.5418(4) 0.4962(4)
O3 O 0.7878(9) 0.6408(4) 0.6257(4)
O4 O 0.4857(7) 0.4762(3) 0.7487(3)
O5 O 0.9513(11) 0.2716(4) 0.7212(5)
O6 O 1.0350(9) 0.2228(4) 0.8947(4)
O7 O 1.2448(9) 0.1736(5) 0.7729(5)
O8 O 0.2060(8) 0.4999(4) 0.8392(4)
O9 O 0.4965(9) 0.6195(4) 0.8527(4)
C1 C 0.6260(13) 0.5043(6) 0.5453(5)
H1 H 0.4870(13) 0.5030(6) 0.5025(5)
C2 C 0.6236(11) 0.5751(6) 0.6304(5)
H2 H 0.4856(11) 0.6069(6) 0.6280(5)
C3 C 0.6829(10) 0.5090(6) 0.7187(5)
H3 H 0.7761(10) 0.5422(6) 0.7719(5)
C4 C 0.7931(13) 0.4248(6) 0.6817(6)
H4 H 0.9413(13) 0.4420(6) 0.6804(6)
C5 C 0.8296(14) 0.6373(7) 0.5281(6)
C6 C 0.6797(16) 0.7067(7) 0.4662(7)
H5 H 0.5406(27) 0.7014(30) 0.4828(30)
H6 H 0.6723(71) 0.6909(27) 0.3987(7)
H7 H 0.7309(51) 0.7719(8) 0.4777(31)
C7 C 1.0576(14) 0.6613(9) 0.5290(7)
H8 H 1.0979(31) 0.7156(30) 0.5713(38)
H9 H 1.0773(24) 0.6774(47) 0.4643(11)
H10 H 1.1443(16) 0.6064(18) 0.5520(44)
C8 C 0.7865(15) 0.3308(7) 0.7440(7)
H11 H 0.8107(15) 0.3461(7) 0.8128(7)
H12 H 0.6500(15) 0.2986(7) 0.7269(7)
C9 C 0.8762(13) 0.0925(6) 0.7708(6)
C10 C 0.9241(13) 0.0256(7) 0.7054(6)
H13 H 1.0449(13) 0.0328(7) 0.6774(6)
C11 C 0.7895(15) -0.0528(6) 0.6816(6)
H14 H 0.8188(15) -0.0979(6) 0.6362(6)
C12 C 0.6131(14) -0.0648(6) 0.7244(6)
C13 C 0.5662(13) 0.0018(7) 0.7884(7)
H15 H 0.4468(13) -0.0060(7) 0.8172(7)
C14 C 0.6986(13) 0.0825(7) 0.8112(6)
H16 H 0.6650(13) 0.1294(7) 0.8539(6)
C15 C 0.4690(15) -0.1508(7) 0.6983(7)
H17 H 0.3420(42) -0.1305(10) 0.6556(34)
H18 H 0.4325(74) -0.1781(26) 0.7564(8)
H19 H 0.5409(36) -0.1987(19) 0.6661(37)
C16 C 0.5762(12) 0.4532(5) 0.9368(5)
C17 C 0.5057(13) 0.3636(6) 0.9601(5)
H20 H 0.3693(13) 0.3439(6) 0.9322(5)
C18 C 0.6300(14) 0.3027(6) 1.0230(6)
H21 H 0.5779(14) 0.2429(6) 1.0387(6)
C19 C 0.8363(14) 0.3311(6) 1.0634(5)
C20 C 0.9040(13) 0.4217(7) 1.0421(6)
H22 H 1.0380(13) 0.4428(7) 1.0718(6)
C21 C 0.7799(12) 0.4810(6) 0.9787(5)
H23 H 0.8320(12) 0.5408(6) 0.9632(5)
C22 C 0.9748(16) 0.2618(7) 1.1279(6)
H24 H 1.0202(76) 0.2110(23) 1.0892(8)
H25 H 0.8964(32) 0.2342(32) 1.1739(27)
H26 H 1.0969(47) 0.2955(11) 1.1621(31)
loop_
_geom_bond_atom_site_label_1
_geom_bond_atom_site_label_2
_geom_bond_site_symmetry_1
_geom_bond_site_symmetry_2
S1 O5 1_555 1_555
S2 O4 1_555 1_555
O1 C1 1_555 1_555
O2 C1 1_555 1_555
O3 C2 1_555 1_555
O4 C3 1_555 1_555
O5 C8 1_555 1_555
O6 S1 1_555 1_555
O7 S1 1_555 1_555
O8 S2 1_555 1_555
O9 S2 1_555 1_555
C1 H1 1_555 1_555
C2 C1 1_555 1_555
H2 C2 1_555 1_555
C3 C2 1_555 1_555
H3 C3 1_555 1_555
C4 O1 1_555 1_555
H4 C4 1_555 1_555
C5 O2 1_555 1_555
C6 C5 1_555 1_555
H5 C6 1_555 1_555
H6 C6 1_555 1_555
H7 C6 1_555 1_555
C7 C5 1_555 1_555
H8 C7 1_555 1_555
H9 C7 1_555 1_555
H10 C7 1_555 1_555
C8 C4 1_555 1_555
H11 C8 1_555 1_555
H12 C8 1_555 1_555
C9 S1 1_555 1_555
C10 C9 1_555 1_555
H13 C10 1_555 1_555
C11 C10 1_555 1_555
H14 C11 1_555 1_555
C12 C11 1_555 1_555
C13 C12 1_555 1_555
H15 C13 1_555 1_555
C14 C9 1_555 1_555
H16 C14 1_555 1_555
C15 C12 1_555 1_555
H17 C15 1_555 1_555
H18 C15 1_555 1_555
H19 C15 1_555 1_555
C16 S2 1_555 1_555
C17 C16 1_555 1_555
H20 C17 1_555 1_555
C18 C17 1_555 1_555
H21 C18 1_555 1_555
C19 C18 1_555 1_555
C20 C19 1_555 1_555
H22 C20 1_555 1_555
C21 C16 1_555 1_555
H23 C21 1_555 1_555
C22 C19 1_555 1_555
H24 C22 1_555 1_555
H25 C22 1_555 1_555
H26 C22 1_555 1_555
O3 C5 1_555 1_555
C3 C4 1_555 1_555
C13 C14 1_555 1_555
C20 C21 1_555 1_555

#END
