
#######################################################################
#
#                 Cambridge Crystallographic Data Centre
#                                CCDC 
#
#######################################################################
#
# If this CIF has been generated from an entry in the Cambridge 
# Structural Database, then it will include bibliographic, chemical, 
# crystal, experimental, refinement or atomic coordinate data resulting 
# from the CCDC's data processing and validation procedures.
#
#######################################################################

data_RUWRUY
_chemical_formula_moiety         'C21 H37 B1 N9 1-,C4 H12 N1 1+,6(H2 O1)'
_chemical_name_systematic        
'tetramethylammonium tris(3-t-butyl-5-methyl-1H-1,2,4-triazol-1-yl)hydridoborate hexahydrate'
_symmetry_cell_setting           triclinic
_symmetry_space_group_name_H-M   'P -1'
_symmetry_Int_Tables_number      2
_space_group_name_Hall           '-P 1'
loop_
_symmetry_equiv_pos_site_id
_symmetry_equiv_pos_as_xyz
1 x,y,z
2 -x,-y,-z
_cell_length_a                   11.040(5)
_cell_length_b                   12.332(5)
_cell_length_c                   14.812(7)
_cell_angle_alpha                69.747(6)
_cell_angle_beta                 71.545(6)
_cell_angle_gamma                80.426(7)
_cell_volume                     1790.96
_exptl_crystal_colour            colorless
_exptl_crystal_description       block
_cell_formula_units_Z            2
loop_
_atom_site_label
_atom_site_type_symbol
_atom_site_fract_x
_atom_site_fract_y
_atom_site_fract_z
B1 B 0.2542(2) 0.2336(2) 0.20468(19)
H1 H 0.189(2) 0.1643(19) 0.2221(16)
C1 C 0.4780(2) 0.19809(18) -0.02151(16)
C2 C 0.5040(2) 0.22190(18) 0.10548(16)
C3 C 0.5078(2) 0.1895(2) -0.12589(17)
C4 C 0.5205(3) 0.3121(2) -0.20012(18)
H2 H 0.5397 0.3088 -0.2684
H3 H 0.5899 0.3478 -0.1948
H4 H 0.4401 0.3584 -0.1847
C5 C 0.4005(2) 0.1328(2) -0.13449(18)
H5 H 0.4192 0.1312 -0.2033
H6 H 0.3192 0.1774 -0.1175
H7 H 0.3944 0.0534 -0.0882
C6 C 0.6349(2) 0.1185(2) -0.1500(2)
H8 H 0.6566 0.1181 -0.2194
H9 H 0.6266 0.0389 -0.1045
H10 H 0.7026 0.1533 -0.1417
C7 C 0.5679(2) 0.2369(2) 0.17459(17)
H11 H 0.5147 0.2903 0.2094
H12 H 0.6515 0.2685 0.1360
H13 H 0.5798 0.1617 0.2238
C8 C 0.0204(2) 0.47034(19) 0.16061(17)
C9 C 0.2213(2) 0.45907(19) 0.12382(17)
C10 C -0.1151(2) 0.5211(2) 0.1681(2)
C11 C -0.2000(3) 0.4291(3) 0.1756(3)
H14 H -0.1612 0.3970 0.1202
H15 H -0.2852 0.4650 0.1719
H16 H -0.2076 0.3669 0.2396
C12 C -0.1600(3) 0.5680(4) 0.2536(3)
H17 H -0.2472 0.6033 0.2576
H18 H -0.1030 0.6268 0.2436
H19 H -0.1595 0.5051 0.3159
C13 C -0.1184(3) 0.6175(3) 0.0714(2)
H20 H -0.0801 0.5878 0.0145
H21 H -0.0700 0.6813 0.0640
H22 H -0.2073 0.6456 0.0733
C14 C 0.3569(2) 0.4887(2) 0.0829(2)
H23 H 0.3998 0.4566 0.1361
H24 H 0.3609 0.5730 0.0572
H25 H 0.3995 0.4559 0.0284
C15 C 0.3427(2) 0.2660(2) 0.40836(17)
C16 C 0.3302(2) 0.12409(19) 0.36304(17)
C17 C 0.3729(3) 0.3354(2) 0.46342(19)
C18 C 0.2918(5) 0.4506(3) 0.4512(4)
H26 H 0.3129 0.4944 0.4876
H27 H 0.3098 0.4957 0.3799
H28 H 0.2009 0.4352 0.4782
C19 C 0.3518(6) 0.2677(3) 0.5735(3)
H29 H 0.3722 0.3148 0.6077
H30 H 0.2622 0.2483 0.6035
H31 H 0.4075 0.1963 0.5807
C20 C 0.5149(4) 0.3640(6) 0.4146(5)
H32 H 0.5379 0.4094 0.4488
H33 H 0.5692 0.2919 0.4203
H34 H 0.5274 0.4089 0.3436
C21 C 0.3390(3) 0.0068(2) 0.3540(2)
H35 H 0.3523 -0.0514 0.4153
H36 H 0.4111 0.0003 0.2965
H37 H 0.2596 -0.0060 0.3440
N1 N 0.36078(17) 0.20437(15) 0.03690(13)
N2 N 0.37806(16) 0.22025(15) 0.11969(13)
N3 N 0.57056(17) 0.20781(15) 0.01752(13)
N4 N 0.05023(17) 0.35830(16) 0.19603(14)
N5 N 0.18237(16) 0.35127(15) 0.17142(13)
N6 N 0.12307(17) 0.53653(16) 0.11599(14)
N7 N 0.29987(18) 0.31375(16) 0.32849(14)
N8 N 0.29209(17) 0.22038(15) 0.29967(13)
N9 N 0.36349(18) 0.14799(17) 0.43262(14)
C25 C 0.9984(3) -0.0463(3) 0.2700(2)
H47 H 1.0319 -0.1215 0.2604
H48 H 0.9257 -0.0575 0.3304
H49 H 1.0657 -0.0100 0.2774
C26 C 0.9024(2) 0.1441(2) 0.1954(2)
H50 H 0.8280 0.1326 0.2546
H51 H 0.8763 0.1941 0.1361
H52 H 0.9679 0.1806 0.2047
C27 C 0.8540(3) -0.0266(2) 0.1695(2)
H53 H 0.8892 -0.1009 0.1586
H54 H 0.8247 0.0238 0.1119
H55 H 0.7818 -0.0398 0.2303
C28 C 1.0663(2) 0.0494(2) 0.0892(2)
H56 H 1.1011 -0.0250 0.0784
H57 H 1.1328 0.0859 0.0975
H58 H 1.0379 0.1002 0.0313
N10 N 0.9555(2) 0.02993(17) 0.18132(16)
O1 O 0.35610(18) -0.04213(19) 0.61021(13)
H59 H 0.3598 0.0240 0.5516
H60 H 0.4383 -0.0826 0.5960
O2 O 0.15260(15) 0.78402(14) 0.04357(14)
H61 H 0.1402 0.7036 0.0598
H62 H 0.2435 0.7875 0.0262
C22? C 0.5072(15) 0.295(2) 0.474(2)
H38? H 0.5123 0.2110 0.5058
H39? H 0.5693 0.3154 0.4077
H40? H 0.5264 0.3332 0.5157
C23? C 0.357(3) 0.4627(11) 0.416(2)
H41? H 0.3780 0.5030 0.4549
H42? H 0.4143 0.4847 0.3474
H43? H 0.2682 0.4842 0.4136
C24? C 0.273(2) 0.292(2) 0.5659(14)
H44? H 0.2879 0.2075 0.5941
H45? H 0.2821 0.3296 0.6115
H46? H 0.1872 0.3096 0.5573
loop_
_geom_bond_atom_site_label_1
_geom_bond_atom_site_label_2
_geom_bond_site_symmetry_1
_geom_bond_site_symmetry_2
B1 H1 1_555 1_555
C1 C3 1_555 1_555
C2 C7 1_555 1_555
C3 C4 1_555 1_555
C4 H2 1_555 1_555
H3 C4 1_555 1_555
H4 C4 1_555 1_555
C5 C3 1_555 1_555
H5 C5 1_555 1_555
H6 C5 1_555 1_555
H7 C5 1_555 1_555
C6 C3 1_555 1_555
H8 C6 1_555 1_555
H9 C6 1_555 1_555
H10 C6 1_555 1_555
C7 H11 1_555 1_555
H12 C7 1_555 1_555
H13 C7 1_555 1_555
C8 C10 1_555 1_555
C9 C14 1_555 1_555
C10 C11 1_555 1_555
C11 H14 1_555 1_555
H15 C11 1_555 1_555
H16 C11 1_555 1_555
C12 C10 1_555 1_555
H17 C12 1_555 1_555
H18 C12 1_555 1_555
H19 C12 1_555 1_555
C13 C10 1_555 1_555
H20 C13 1_555 1_555
H21 C13 1_555 1_555
H22 C13 1_555 1_555
C14 H23 1_555 1_555
H24 C14 1_555 1_555
H25 C14 1_555 1_555
C15 C17 1_555 1_555
C16 C21 1_555 1_555
C17 C18 1_555 1_555
C18 H26 1_555 1_555
H27 C18 1_555 1_555
H28 C18 1_555 1_555
C19 C17 1_555 1_555
H29 C19 1_555 1_555
H30 C19 1_555 1_555
H31 C19 1_555 1_555
C20 C17 1_555 1_555
H32 C20 1_555 1_555
H33 C20 1_555 1_555
H34 C20 1_555 1_555
C21 H35 1_555 1_555
H36 C21 1_555 1_555
H37 C21 1_555 1_555
N1 C1 1_555 1_555
N2 B1 1_555 1_555
N3 C1 1_555 1_555
N4 C8 1_555 1_555
N5 B1 1_555 1_555
N6 C8 1_555 1_555
N7 C15 1_555 1_555
N8 B1 1_555 1_555
N9 C15 1_555 1_555
C25 H47 1_555 1_555
H48 C25 1_555 1_555
H49 C25 1_555 1_555
C26 H50 1_555 1_555
H51 C26 1_555 1_555
H52 C26 1_555 1_555
C27 H53 1_555 1_555
H54 C27 1_555 1_555
H55 C27 1_555 1_555
C28 H56 1_555 1_555
H57 C28 1_555 1_555
H58 C28 1_555 1_555
N10 C25 1_555 1_555
O1 H59 1_555 1_555
H60 O1 1_555 1_555
O2 H61 1_555 1_555
H62 O2 1_555 1_555
C2 N2 1_555 1_555
C2 N3 1_555 1_555
C9 N5 1_555 1_555
C9 N6 1_555 1_555
C16 N8 1_555 1_555
C16 N9 1_555 1_555
N1 N2 1_555 1_555
N4 N5 1_555 1_555
N7 N8 1_555 1_555
C26 N10 1_555 1_555
C27 N10 1_555 1_555
C28 N10 1_555 1_555

#END
