
#######################################################################
#
#                 Cambridge Crystallographic Data Centre
#                                CCDC 
#
#######################################################################
#
# If this CIF has been generated from an entry in the Cambridge 
# Structural Database, then it will include bibliographic, chemical, 
# crystal, experimental, refinement or atomic coordinate data resulting 
# from the CCDC's data processing and validation procedures.
#
#######################################################################

data_RUXDOF01
_chemical_formula_moiety         'C4 N6 O10 2-,2(K1 1+)'
_chemical_name_systematic        
'di-potassium [4-(dinitromethanidyl)-2-oxo-1,2,5\l^5^-oxadiazol-3-yl](dinitro)methanide'
_symmetry_cell_setting           monoclinic
_symmetry_space_group_name_H-M   'P 21/c'
_symmetry_Int_Tables_number      14
_space_group_name_Hall           '-P 2ybc'
loop_
_symmetry_equiv_pos_site_id
_symmetry_equiv_pos_as_xyz
1 x,y,z
2 -x,1/2+y,1/2-z
3 -x,-y,-z
4 x,1/2-y,1/2+z
_cell_length_a                   12.4896(18)
_cell_length_b                   7.3365(11)
_cell_length_c                   12.7174(19)
_cell_angle_alpha                90
_cell_angle_beta                 96.136(2)
_cell_angle_gamma                90
_cell_volume                     1158.62
_exptl_crystal_colour            colorless
_exptl_crystal_description       block
_cell_formula_units_Z            4
loop_
_atom_site_label
_atom_site_type_symbol
_atom_site_fract_x
_atom_site_fract_y
_atom_site_fract_z
K1 K 0.89751(4) 0.69038(6) 0.22476(4)
K2 K 0.55044(4) -0.00065(6) -0.17205(4)
N1 N 0.63501(13) 0.6906(2) 0.06795(13)
N2 N 0.60280(13) 0.5102(2) -0.09112(13)
N3 N 0.65761(14) 0.2930(2) 0.15197(13)
N4 N 0.80039(14) 0.1358(2) 0.10109(13)
N5 N 0.84559(13) 0.1592(2) -0.12747(13)
N6 N 0.88406(13) 0.4697(2) -0.06885(13)
O1 O 0.67327(13) 0.6908(2) 0.16268(11)
O2 O 0.59337(13) 0.82935(19) 0.02567(12)
O3 O 0.57849(13) 0.6421(2) -0.14906(11)
O4 O 0.59530(12) 0.35197(19) -0.12829(11)
O5 O 0.72353(12) 0.14552(19) 0.17810(11)
O6 O 0.86677(14) 0.0121(2) 0.10973(13)
O7 O 0.78532(12) 0.02497(19) -0.11875(12)
O8 O 0.90762(12) 0.1636(2) -0.19805(12)
O9 O 0.93128(13) 0.5078(2) -0.14682(12)
O10 O 0.87060(12) 0.5864(2) -0.00013(12)
C1 C 0.63799(15) 0.5260(3) 0.01485(15)
C2 C 0.68940(15) 0.3663(3) 0.06684(14)
C3 C 0.77847(15) 0.2703(3) 0.03323(14)
C4 C 0.84031(15) 0.2988(3) -0.05515(15)
loop_
_geom_bond_atom_site_label_1
_geom_bond_atom_site_label_2
_geom_bond_site_symmetry_1
_geom_bond_site_symmetry_2
N1 O1 1_555 1_555
N2 O3 1_555 1_555
N3 O5 1_555 1_555
N4 O5 1_555 1_555
N5 O7 1_555 1_555
N6 O9 1_555 1_555
O2 N1 1_555 1_555
O4 N2 1_555 1_555
O6 N4 1_555 1_555
O8 N5 1_555 1_555
O10 N6 1_555 1_555
C1 N1 1_555 1_555
C2 N3 1_555 1_555
C3 N4 1_555 1_555
C4 N5 1_555 1_555
N2 C1 1_555 1_555
N6 C4 1_555 1_555
C1 C2 1_555 1_555
C2 C3 1_555 1_555
C3 C4 1_555 1_555

#END
