
#######################################################################
#
#                 Cambridge Crystallographic Data Centre
#                                CCDC 
#
#######################################################################
#
# If this CIF has been generated from an entry in the Cambridge 
# Structural Database, then it will include bibliographic, chemical, 
# crystal, experimental, refinement or atomic coordinate data resulting 
# from the CCDC's data processing and validation procedures.
#
#######################################################################

data_RUXGUO
_chemical_formula_moiety         'C17 H16 O3'
_chemical_name_systematic        
'methyl (7-methyl-6H-benzo[c]chromen-6-yl)acetate'
_symmetry_cell_setting           orthorhombic
_symmetry_space_group_name_H-M   'P b c a'
_symmetry_Int_Tables_number      61
_space_group_name_Hall           '-P 2ac 2ab'
loop_
_symmetry_equiv_pos_site_id
_symmetry_equiv_pos_as_xyz
1 x,y,z
2 1/2-x,-y,1/2+z
3 -x,1/2+y,1/2-z
4 1/2+x,1/2-y,-z
5 -x,-y,-z
6 1/2+x,y,1/2-z
7 x,1/2-y,1/2+z
8 1/2-x,1/2+y,z
_cell_length_a                   14.507(3)
_cell_length_b                   9.3993(16)
_cell_length_c                   19.562(3)
_cell_angle_alpha                90
_cell_angle_beta                 90
_cell_angle_gamma                90
_cell_volume                     2667.39
_exptl_crystal_colour            colorless
_exptl_crystal_description       Prism
_chemical_melting_point          '358 K'
_cell_formula_units_Z            8
_exptl_crystal_recrystallization_method 'n-hexane/ethyl acetate'
loop_
_atom_site_label
_atom_site_type_symbol
_atom_site_fract_x
_atom_site_fract_y
_atom_site_fract_z
O1 O 0.62333(8) 0.33715(12) 0.11753(6)
O2 O 0.64610(9) 0.37757(16) 0.27966(7)
O3 O 0.62630(10) 0.60453(16) 0.24627(8)
C1 C 0.60677(11) 0.19315(18) 0.12340(9)
C2 C 0.67763(12) 0.1080(2) 0.14802(9)
H1 H 0.7349 0.1488 0.1609
C3 C 0.66357(13) -0.0376(2) 0.15350(10)
H2 H 0.7117 -0.0970 0.1699
C4 C 0.57974(13) -0.09692(19) 0.13513(9)
H3 H 0.5699 -0.1963 0.1402
C5 C 0.51017(12) -0.01129(18) 0.10940(9)
H4 H 0.4533 -0.0531 0.0960
C6 C 0.52229(11) 0.13571(18) 0.10279(8)
C7 C 0.45291(11) 0.23285(18) 0.07352(8)
C8 C 0.38133(11) 0.18627(18) 0.03151(9)
H5 H 0.3737 0.0875 0.0229
C9 C 0.32147(11) 0.28347(19) 0.00234(9)
H6 H 0.2732 0.2511 -0.0265
C10 C 0.33153(11) 0.42771(19) 0.01502(9)
H7 H 0.2900 0.4933 -0.0054
C11 C 0.40174(11) 0.47802(18) 0.05743(8)
C12 C 0.46314(11) 0.37929(18) 0.08578(8)
C13 C 0.54353(11) 0.42591(17) 0.12945(9)
H8 H 0.5600 0.5253 0.1159
C14 C 0.52058(12) 0.42679(19) 0.20608(9)
H9 H 0.4662 0.4881 0.2145
H10 H 0.5054 0.3291 0.2213
C15 C 0.60218(12) 0.4822(2) 0.24597(9)
C16 C 0.72577(15) 0.4209(3) 0.31914(12)
H11 H 0.7669 0.4781 0.2904
H12 H 0.7587 0.3364 0.3353
H13 H 0.7056 0.4777 0.3584
C17 C 0.41085(13) 0.63539(19) 0.07123(10)
H14 H 0.3608 0.6865 0.0482
H15 H 0.4703 0.6693 0.0539
H16 H 0.4074 0.6526 0.1206
loop_
_geom_bond_atom_site_label_1
_geom_bond_atom_site_label_2
_geom_bond_site_symmetry_1
_geom_bond_site_symmetry_2
O1 C1 1_555 1_555
O2 C15 1_555 1_555
O3 C15 1_555 1_555
C1 C2 1_555 1_555
C2 H1 1_555 1_555
C3 C2 1_555 1_555
H2 C3 1_555 1_555
C4 C3 1_555 1_555
H3 C4 1_555 1_555
C5 C4 1_555 1_555
H4 C5 1_555 1_555
C6 C1 1_555 1_555
C7 C6 1_555 1_555
C8 C7 1_555 1_555
H5 C8 1_555 1_555
C9 C8 1_555 1_555
H6 C9 1_555 1_555
C10 C9 1_555 1_555
H7 C10 1_555 1_555
C11 C10 1_555 1_555
C12 C7 1_555 1_555
C13 O1 1_555 1_555
H8 C13 1_555 1_555
C14 C13 1_555 1_555
H9 C14 1_555 1_555
H10 C14 1_555 1_555
C15 C14 1_555 1_555
C16 O2 1_555 1_555
H11 C16 1_555 1_555
H12 C16 1_555 1_555
H13 C16 1_555 1_555
C17 C11 1_555 1_555
H14 C17 1_555 1_555
H15 C17 1_555 1_555
H16 C17 1_555 1_555
C5 C6 1_555 1_555
C11 C12 1_555 1_555
C12 C13 1_555 1_555

#END
