
#######################################################################
#
#                 Cambridge Crystallographic Data Centre
#                                CCDC 
#
#######################################################################
#
# If this CIF has been generated from an entry in the Cambridge 
# Structural Database, then it will include bibliographic, chemical, 
# crystal, experimental, refinement or atomic coordinate data resulting 
# from the CCDC's data processing and validation procedures.
#
#######################################################################

data_RUXPUX
_chemical_formula_moiety         'C26 H25 F6 N1 O2 S1'
_chemical_name_systematic        
N-(1-(4-fluorophenyl)-1-(3-fluoro-5-(1,1,2,2-tetrafluoroethoxy)phenyl)-2-phenylethyl)-2-methylpropane-2-sulfinamide
_chemical_properties_biological  'CETP inhibitor activity'
_symmetry_cell_setting           tetragonal
_symmetry_space_group_name_H-M   'P 41'
_symmetry_Int_Tables_number      76
_space_group_name_Hall           'P 4w'
loop_
_symmetry_equiv_pos_site_id
_symmetry_equiv_pos_as_xyz
1 x,y,z
2 -x,-y,1/2+z
3 -y,x,1/4+z
4 y,-x,3/4+z
_cell_length_a                   11.1162(16)
_cell_length_b                   11.1162(16)
_cell_length_c                   20.569(4)
_cell_angle_alpha                90
_cell_angle_beta                 90
_cell_angle_gamma                90
_cell_volume                     2541.71
_exptl_crystal_colour            colorless
_exptl_crystal_description       prism
_chemical_melting_point          '400-404 K'
_cell_formula_units_Z            4
_exptl_crystal_recrystallization_method deuterochloroform
loop_
_atom_site_label
_atom_site_type_symbol
_atom_site_fract_x
_atom_site_fract_y
_atom_site_fract_z
S1 S 0.24462(10) -0.02485(9) 0.83958(6)
F1 F 0.2074(3) 0.4448(3) 1.03105(17)
F2 F 0.4982(6) 0.7406(6) 0.9452(5)
F3 F 0.6151(9) 0.6083(10) 0.9733(4)
F4 F 0.7226(4) 0.6579(4) 0.8405(3)
F5 F 0.7420(4) 0.7739(5) 0.9212(2)
F6 F 0.7579(3) -0.0129(4) 0.7971(2)
O1 O 0.1723(3) -0.0379(3) 0.77925(17)
O2 O 0.4988(3) 0.5935(3) 0.88178(18)
N1 N 0.2353(3) 0.1154(3) 0.87014(18)
H1 H 0.1586 0.1380 0.8687
C1 C 0.3077(4) 0.2085(3) 0.8367(2)
C2 C 0.1586(4) -0.1013(4) 0.9039(2)
C3 C 0.2255(5) -0.0835(5) 0.9672(3)
H2 H 0.1918 -0.1350 1.0000
H3 H 0.2184 -0.0012 0.9808
H4 H 0.3089 -0.1031 0.9612
C4 C 0.1617(6) -0.2327(4) 0.8823(3)
H5 H 0.1240 -0.2820 0.9148
H6 H 0.2437 -0.2577 0.8767
H7 H 0.1193 -0.2410 0.8419
C5 C 0.0297(5) -0.0534(5) 0.9078(3)
H8 H -0.0043 -0.0502 0.8650
H9 H 0.0304 0.0259 0.9263
H10 H -0.0177 -0.1058 0.9346
C6 C 0.3236(4) 0.3154(4) 0.8833(2)
C7 C 0.2576(4) 0.3287(4) 0.9397(2)
H11 H 0.2030 0.2700 0.9528
C8 C 0.2749(5) 0.4315(5) 0.9760(3)
C9 C 0.3534(5) 0.5208(4) 0.9604(3)
H12 H 0.3622 0.5889 0.9862
C10 C 0.4187(4) 0.5050(4) 0.9045(2)
C11 C 0.4064(4) 0.4052(4) 0.8660(2)
H13 H 0.4527 0.3970 0.8286
C12 C 0.5777(5) 0.6435(6) 0.9185(3)
C13 C 0.6630(4) 0.7238(5) 0.8826(3)
H14 H 0.6178 0.7864 0.8596
C14 C 0.4304(4) 0.1524(4) 0.8233(2)
C15 C 0.4716(5) 0.1257(4) 0.7614(3)
H15 H 0.4247 0.1450 0.7254
C16 C 0.5824(6) 0.0704(5) 0.7526(3)
H16 H 0.6101 0.0527 0.7110
C17 C 0.6491(5) 0.0428(5) 0.8052(3)
C18 C 0.6130(5) 0.0675(5) 0.8669(3)
H17 H 0.6611 0.0475 0.9023
C19 C 0.5033(5) 0.1228(4) 0.8757(3)
H18 H 0.4775 0.1407 0.9176
C20 C 0.2428(4) 0.2546(4) 0.7749(2)
H19 H 0.2925 0.3150 0.7540
H20 H 0.2332 0.1883 0.7446
C21 C 0.1209(4) 0.3080(4) 0.7891(2)
C22 C 0.0195(5) 0.2359(4) 0.7904(3)
H21 H 0.0263 0.1547 0.7800
C23 C -0.0922(5) 0.2824(5) 0.8071(3)
H22 H -0.1591 0.2322 0.8086
C24 C -0.1039(6) 0.4024(6) 0.8213(3)
H23 H -0.1784 0.4334 0.8332
C25 C -0.0061(6) 0.4762(5) 0.8181(3)
H24 H -0.0146 0.5581 0.8260
C26 C 0.1055(5) 0.4296(4) 0.8030(3)
H25 H 0.1718 0.4806 0.8021
F7? F 0.6496(7) 0.5307(9) 0.9278(8)
F8? F 0.5582(16) 0.6640(19) 0.9789(5)
loop_
_geom_bond_atom_site_label_1
_geom_bond_atom_site_label_2
_geom_bond_site_symmetry_1
_geom_bond_site_symmetry_2
S1 O1 1_555 1_555
F1 C8 1_555 1_555
F2 C12 1_555 1_555
F3 C12 1_555 1_555
F4 C13 1_555 1_555
F5 C13 1_555 1_555
F6 C17 1_555 1_555
O2 C10 1_555 1_555
N1 S1 1_555 1_555
H1 N1 1_555 1_555
C1 N1 1_555 1_555
C2 S1 1_555 1_555
C3 C2 1_555 1_555
H2 C3 1_555 1_555
H3 C3 1_555 1_555
H4 C3 1_555 1_555
C4 C2 1_555 1_555
H5 C4 1_555 1_555
H6 C4 1_555 1_555
H7 C4 1_555 1_555
C5 C2 1_555 1_555
H8 C5 1_555 1_555
H9 C5 1_555 1_555
H10 C5 1_555 1_555
C6 C1 1_555 1_555
C7 C6 1_555 1_555
H11 C7 1_555 1_555
C8 C7 1_555 1_555
C9 C8 1_555 1_555
H12 C9 1_555 1_555
C10 C9 1_555 1_555
C11 C6 1_555 1_555
H13 C11 1_555 1_555
C12 O2 1_555 1_555
C13 C12 1_555 1_555
H14 C13 1_555 1_555
C14 C1 1_555 1_555
C15 C14 1_555 1_555
H15 C15 1_555 1_555
C16 C15 1_555 1_555
H16 C16 1_555 1_555
C17 C16 1_555 1_555
C18 C17 1_555 1_555
H17 C18 1_555 1_555
C19 C14 1_555 1_555
H18 C19 1_555 1_555
C20 C1 1_555 1_555
H19 C20 1_555 1_555
H20 C20 1_555 1_555
C21 C20 1_555 1_555
C22 C21 1_555 1_555
H21 C22 1_555 1_555
C23 C22 1_555 1_555
H22 C23 1_555 1_555
C24 C23 1_555 1_555
H23 C24 1_555 1_555
C25 C24 1_555 1_555
H24 C25 1_555 1_555
C26 C21 1_555 1_555
H25 C26 1_555 1_555
C10 C11 1_555 1_555
C18 C19 1_555 1_555
C25 C26 1_555 1_555

#END
