
#######################################################################
#
#                 Cambridge Crystallographic Data Centre
#                                CCDC 
#
#######################################################################
#
# If this CIF has been generated from an entry in the Cambridge 
# Structural Database, then it will include bibliographic, chemical, 
# crystal, experimental, refinement or atomic coordinate data resulting 
# from the CCDC's data processing and validation procedures.
#
#######################################################################

data_RUXXUE
_chemical_formula_moiety         'C14 H17 Cl1 O4'
_chemical_name_systematic        
4-(2-Chlorophenyl)-1-(1,3-dioxan-2-yl)-4-hydroxybutan-2-one
_symmetry_cell_setting           orthorhombic
_symmetry_space_group_name_H-M   'P 21 21 21'
_symmetry_Int_Tables_number      19
_space_group_name_Hall           'P 2ac 2ab'
loop_
_symmetry_equiv_pos_site_id
_symmetry_equiv_pos_as_xyz
1 x,y,z
2 1/2-x,-y,1/2+z
3 -x,1/2+y,1/2-z
4 1/2+x,1/2-y,-z
_cell_length_a                   4.8386(10)
_cell_length_b                   10.616(2)
_cell_length_c                   27.704(6)
_cell_angle_alpha                90
_cell_angle_beta                 90
_cell_angle_gamma                90
_cell_volume                     1423.06
_exptl_crystal_colour            colorless
_exptl_crystal_description       plate
_cell_formula_units_Z            4
loop_
_atom_site_label
_atom_site_type_symbol
_atom_site_fract_x
_atom_site_fract_y
_atom_site_fract_z
Cl1 Cl 0.74403(13) 0.53821(5) 0.857183(16)
O1 O 0.6509(3) 0.30073(12) 0.98644(4)
H1 H 0.5056 0.2674 0.9970
O2 O 0.8731(3) 0.13246(17) 0.90401(6)
O3 O 0.7166(4) 0.07077(12) 0.78880(5)
O4 O 0.5210(3) -0.12087(13) 0.80946(5)
C1 C 0.2960(4) 0.51311(18) 0.97773(7)
H2 H 0.2708 0.4566 1.0039
C2 C 0.1486(5) 0.6252(2) 0.97682(8)
H3 H 0.0237 0.6445 1.0022
C3 C 0.1830(5) 0.70921(19) 0.93895(9)
H4 H 0.0795 0.7852 0.9381
C4 C 0.3670(5) 0.68226(19) 0.90258(8)
H5 H 0.3949 0.7400 0.8768
C5 C 0.5112(4) 0.56966(18) 0.90410(7)
C6 C 0.4799(4) 0.48187(17) 0.94101(6)
C7 C 0.6267(4) 0.35609(16) 0.93972(6)
H6 H 0.8177 0.3707 0.9271
C8 C 0.4792(4) 0.26726(16) 0.90459(6)
H7 H 0.3010 0.2416 0.9191
H8 H 0.4370 0.3144 0.8747
C9 C 0.6365(4) 0.1512(2) 0.89135(7)
C10 C 0.4810(4) 0.0533(2) 0.86215(7)
H9 H 0.3993 -0.0094 0.8844
H10 H 0.3277 0.0950 0.8447
C11 C 0.6619(4) -0.01400(16) 0.82626(6)
H11 H 0.8388 -0.0399 0.8421
C12 C 0.8916(6) 0.0150(2) 0.75286(9)
H12 H 1.0751 -0.0032 0.7670
H13 H 0.9177 0.0749 0.7259
C13 C 0.7656(6) -0.1060(2) 0.73385(7)
H14 H 0.5984 -0.0867 0.7146
H15 H 0.8996 -0.1497 0.7127
C14 C 0.6908(6) -0.18928(19) 0.77583(8)
H16 H 0.5895 -0.2643 0.7640
H17 H 0.8611 -0.2184 0.7922
loop_
_geom_bond_atom_site_label_1
_geom_bond_atom_site_label_2
_geom_bond_site_symmetry_1
_geom_bond_site_symmetry_2
Cl1 C5 1_555 1_555
O1 H1 1_555 1_555
O2 C9 1_555 1_555
O3 C11 1_555 1_555
O4 C11 1_555 1_555
C1 H2 1_555 1_555
C2 C1 1_555 1_555
H3 C2 1_555 1_555
C3 C2 1_555 1_555
H4 C3 1_555 1_555
C4 C3 1_555 1_555
H5 C4 1_555 1_555
C5 C4 1_555 1_555
C6 C1 1_555 1_555
C7 O1 1_555 1_555
H6 C7 1_555 1_555
C8 C7 1_555 1_555
H7 C8 1_555 1_555
H8 C8 1_555 1_555
C9 C8 1_555 1_555
C10 C9 1_555 1_555
H9 C10 1_555 1_555
H10 C10 1_555 1_555
C11 C10 1_555 1_555
H11 C11 1_555 1_555
C12 O3 1_555 1_555
H12 C12 1_555 1_555
H13 C12 1_555 1_555
C13 C12 1_555 1_555
H14 C13 1_555 1_555
H15 C13 1_555 1_555
C14 O4 1_555 1_555
H16 C14 1_555 1_555
H17 C14 1_555 1_555
C5 C6 1_555 1_555
C6 C7 1_555 1_555
C13 C14 1_555 1_555

#END
