
#######################################################################
#
#                 Cambridge Crystallographic Data Centre
#                                CCDC 
#
#######################################################################
#
# If this CIF has been generated from an entry in the Cambridge 
# Structural Database, then it will include bibliographic, chemical, 
# crystal, experimental, refinement or atomic coordinate data resulting 
# from the CCDC's data processing and validation procedures.
#
#######################################################################

data_RUXZEQ
_chemical_formula_moiety         'C25 H26 Br1 F1 O4'
_chemical_name_systematic        
'(1R,2S,6S,E)-t-Butyl 2-(4-bromostyryl)-1-fluoro-2-hydroxy-4-oxo-6-phenylcyclohexanecarboxylate'
_symmetry_cell_setting           monoclinic
_symmetry_space_group_name_H-M   'P 21'
_symmetry_Int_Tables_number      4
_space_group_name_Hall           'P 2yb'
loop_
_symmetry_equiv_pos_site_id
_symmetry_equiv_pos_as_xyz
1 x,y,z
2 -x,1/2+y,-z
_cell_length_a                   8.7647(15)
_cell_length_b                   7.3008(13)
_cell_length_c                   18.426(3)
_cell_angle_alpha                90
_cell_angle_beta                 90.673(3)
_cell_angle_gamma                90
_cell_volume                     1178.99
_exptl_crystal_colour            colorless
_exptl_crystal_description       prismatic
_cell_formula_units_Z            2
loop_
_atom_site_label
_atom_site_type_symbol
_atom_site_fract_x
_atom_site_fract_y
_atom_site_fract_z
Br1 Br -0.50470(9) 0.27756(16) 1.06495(4)
F1 F 0.1046(3) 0.2925(6) 0.67710(18)
O1 O 0.3633(4) 0.4205(7) 0.8219(3)
H1 H 0.3306 0.5238 0.8297
O2 O 0.1785(4) 0.7125(6) 0.7632(2)
O3 O -0.0315(4) 0.5755(6) 0.7171(2)
O4 O 0.5864(7) 0.1101(11) 0.7226(5)
C1 C 0.2009(5) 0.4116(8) 0.7144(3)
C2 C 0.3356(6) 0.4628(9) 0.6644(4)
H2 H 0.4059 0.5387 0.6932
C3 C 0.4202(7) 0.2826(12) 0.6473(4)
H3 H 0.3563 0.2083 0.6156
H4 H 0.5129 0.3111 0.6214
C4 C 0.4596(8) 0.1764(11) 0.7117(6)
C5 C 0.3353(8) 0.1383(10) 0.7645(5)
H5 H 0.3782 0.0829 0.8081
H6 H 0.2625 0.0531 0.7433
C6 C 0.2532(6) 0.3194(8) 0.7844(4)
C7 C 0.1131(6) 0.2764(11) 0.8285(4)
H7 H 0.0385 0.2022 0.8075
C8 C 0.0904(7) 0.3376(9) 0.8948(4)
H8 H 0.1716 0.3958 0.9181
C9 C -0.0542(7) 0.3212(9) 0.9354(4)
C10 C -0.0561(8) 0.3463(11) 1.0072(4)
H9 H 0.0351 0.3708 1.0316
C11 C -0.1924(9) 0.3366(10) 1.0472(4)
H10 H -0.1925 0.3594 1.0968
C12 C -0.3210(7) 0.2937(13) 1.0118(3)
C13 C -0.3253(7) 0.2646(12) 0.9382(4)
H11 H -0.4160 0.2337 0.9145
C14 C -0.1914(7) 0.2825(16) 0.9003(3)
H12 H -0.1932 0.2684 0.8502
C15 C 0.2909(7) 0.5721(10) 0.5991(3)
C16 C 0.1838(9) 0.5170(15) 0.5482(5)
H13 H 0.1355 0.4047 0.5542
C17 C 0.1465(12) 0.621(2) 0.4894(4)
H14 H 0.0748 0.5780 0.4560
C18 C 0.2119(11) 0.787(2) 0.4786(4)
H15 H 0.1857 0.8589 0.4386
C19 C 0.3158(11) 0.8448(15) 0.5278(5)
H16 H 0.3634 0.9575 0.5216
C20 C 0.3525(8) 0.7390(12) 0.5872(4)
H17 H 0.4230 0.7844 0.6207
C21 C 0.1138(6) 0.5875(9) 0.7335(3)
C22 C -0.1381(6) 0.7295(9) 0.7303(4)
C23 C -0.1367(8) 0.7816(17) 0.8100(4)
H18 H -0.1558 0.6747 0.8389
H19 H -0.2145 0.8712 0.8186
H20 H -0.0388 0.8317 0.8229
C24 C -0.2901(8) 0.6494(13) 0.7105(7)
H21 H -0.2912 0.6159 0.6601
H22 H -0.3686 0.7382 0.7191
H23 H -0.3081 0.5426 0.7396
C25 C -0.0915(10) 0.8856(14) 0.6838(5)
H24 H -0.0069 0.9481 0.7062
H25 H -0.1755 0.9690 0.6782
H26 H -0.0621 0.8407 0.6370
loop_
_geom_bond_atom_site_label_1
_geom_bond_atom_site_label_2
_geom_bond_site_symmetry_1
_geom_bond_site_symmetry_2
Br1 C12 1_555 1_555
F1 C1 1_555 1_555
O1 H1 1_555 1_555
O2 C21 1_555 1_555
O3 C21 1_555 1_555
O4 C4 1_555 1_555
C1 C2 1_555 1_555
C2 H2 1_555 1_555
C3 C2 1_555 1_555
H3 C3 1_555 1_555
H4 C3 1_555 1_555
C4 C3 1_555 1_555
C5 C4 1_555 1_555
H5 C5 1_555 1_555
H6 C5 1_555 1_555
C6 O1 1_555 1_555
C7 C6 1_555 1_555
H7 C7 1_555 1_555
C8 C7 1_555 1_555
H8 C8 1_555 1_555
C9 C8 1_555 1_555
C10 C9 1_555 1_555
H9 C10 1_555 1_555
C11 C10 1_555 1_555
H10 C11 1_555 1_555
C12 C11 1_555 1_555
C13 C12 1_555 1_555
H11 C13 1_555 1_555
C14 C9 1_555 1_555
H12 C14 1_555 1_555
C15 C2 1_555 1_555
C16 C15 1_555 1_555
H13 C16 1_555 1_555
C17 C16 1_555 1_555
H14 C17 1_555 1_555
C18 C17 1_555 1_555
H15 C18 1_555 1_555
C19 C18 1_555 1_555
H16 C19 1_555 1_555
C20 C15 1_555 1_555
H17 C20 1_555 1_555
C21 C1 1_555 1_555
C22 O3 1_555 1_555
C23 C22 1_555 1_555
H18 C23 1_555 1_555
H19 C23 1_555 1_555
H20 C23 1_555 1_555
C24 C22 1_555 1_555
H21 C24 1_555 1_555
H22 C24 1_555 1_555
H23 C24 1_555 1_555
C25 C22 1_555 1_555
H24 C25 1_555 1_555
H25 C25 1_555 1_555
H26 C25 1_555 1_555
C1 C6 1_555 1_555
C5 C6 1_555 1_555
C13 C14 1_555 1_555
C19 C20 1_555 1_555

#END
