
#######################################################################
#
#                 Cambridge Crystallographic Data Centre
#                                CCDC 
#
#######################################################################
#
# If this CIF has been generated from an entry in the Cambridge 
# Structural Database, then it will include bibliographic, chemical, 
# crystal, experimental, refinement or atomic coordinate data resulting 
# from the CCDC's data processing and validation procedures.
#
#######################################################################

data_RUXZIU
_chemical_formula_moiety         'C24 H12 Br1 N3 O5 S1,0.5(C4 H8 O2)'
_chemical_name_systematic        
'3-((4-((7-Bromo-3,5-dinitro-9-oxo-9H-fluoren-2-yl)ethynyl)phenyl)sulfanyl)propanenitrile 1,4-dioxane solvate'
_symmetry_cell_setting           triclinic
_symmetry_space_group_name_H-M   'P -1'
_symmetry_Int_Tables_number      2
_space_group_name_Hall           '-P 1'
loop_
_symmetry_equiv_pos_site_id
_symmetry_equiv_pos_as_xyz
1 x,y,z
2 -x,-y,-z
_cell_length_a                   7.7250(6)
_cell_length_b                   8.3461(5)
_cell_length_c                   19.3085(18)
_cell_angle_alpha                79.088(12)
_cell_angle_beta                 82.355(12)
_cell_angle_gamma                75.344(14)
_cell_volume                     1177.85
_exptl_crystal_colour            orange
_exptl_crystal_description       plate
_cell_formula_units_Z            2
loop_
_atom_site_label
_atom_site_type_symbol
_atom_site_fract_x
_atom_site_fract_y
_atom_site_fract_z
Br1 Br 0.03175(3) 1.06813(3) 0.157452(13)
S1 S 0.66605(8) -0.49184(7) 0.86751(3)
O1 O 0.7398(2) 0.5549(2) 0.25324(9)
O2 O 0.7144(2) 0.8157(2) 0.20596(9)
O3 O 0.8349(2) 0.2052(2) 0.53543(9)
O4 O 0.9150(2) 0.1740(2) 0.42590(10)
O5 O -0.0305(2) 0.5505(2) 0.39842(8)
N1 N 0.6503(2) 0.6987(2) 0.23733(10)
N2 N 0.8039(3) 0.2207(2) 0.47358(11)
N3 N 0.8228(3) -0.6159(3) 1.05269(12)
C1 C 0.0819(3) 0.8005(3) 0.27453(11)
H1 H -0.0455 0.8219 0.2809
C2 C 0.1680(3) 0.8934(3) 0.22005(12)
C3 C 0.3533(3) 0.8605(3) 0.21005(12)
H2 H 0.4110 0.9255 0.1727
C4 C 0.4555(3) 0.7313(3) 0.25524(12)
C5 C 0.6095(3) 0.4215(3) 0.39257(12)
H3 H 0.7148 0.4457 0.3657
C6 C 0.6201(3) 0.3045(3) 0.45410(12)
C7 C 0.4724(3) 0.2586(3) 0.49616(11)
C8 C 0.3026(3) 0.3378(3) 0.47242(11)
H4 H 0.1974 0.3099 0.4978
C9 C 0.1232(3) 0.5595(3) 0.38020(12)
C10 C 0.1873(3) 0.6750(3) 0.31875(11)
C11 C 0.3764(3) 0.6362(3) 0.31161(11)
C12 C 0.4409(3) 0.5010(3) 0.37123(11)
C13 C 0.2901(3) 0.4565(3) 0.41182(11)
C14 C 0.4893(3) 0.1368(3) 0.55872(12)
C15 C 0.5048(3) 0.0320(3) 0.61077(12)
C16 C 0.5427(3) -0.0940(3) 0.67211(12)
C17 C 0.7220(3) -0.1661(3) 0.68524(12)
H5 H 0.8153 -0.1305 0.6537
C18 C 0.7650(3) -0.2879(3) 0.74358(12)
H6 H 0.8874 -0.3372 0.7514
C19 C 0.6288(3) -0.3388(3) 0.79101(11)
C20 C 0.4499(3) -0.2678(3) 0.77821(12)
H7 H 0.3567 -0.3025 0.8101
C21 C 0.4069(3) -0.1478(3) 0.71913(12)
H8 H 0.2846 -0.1011 0.7106
C22 C 0.9078(3) -0.5442(3) 0.86718(12)
H9 H 0.9635 -0.5798 0.8217
H10 H 0.9487 -0.4441 0.8722
C23 C 0.9662(3) -0.6857(3) 0.92841(12)
H11 H 0.9334 -0.7878 0.9207
H12 H 1.0986 -0.7111 0.9283
C24 C 0.8852(3) -0.6451(3) 0.99789(14)
O6 O 0.5861(2) 0.8828(2) 0.05516(9)
C25 C 0.6171(3) 1.0473(3) 0.03655(14)
H13 H 0.7234 1.0454 0.0016
H14 H 0.6431 1.0837 0.0792
C26 C 0.5436(3) 0.8298(3) -0.00532(13)
H15 H 0.5172 0.7175 0.0087
H16 H 0.6479 0.8212 -0.0414
O6A O 0.4139(2) 1.1172(2) -0.05516(9)
C25A C 0.3829(3) 0.9527(3) -0.03655(14)
H13A H 0.2766 0.9546 -0.0016
H14A H 0.3569 0.9163 -0.0792
C26A C 0.4564(3) 1.1702(3) 0.00532(13)
H15A H 0.4828 1.2825 -0.0087
H16A H 0.3521 1.1788 0.0414
loop_
_geom_bond_atom_site_label_1
_geom_bond_atom_site_label_2
_geom_bond_site_symmetry_1
_geom_bond_site_symmetry_2
Br1 C2 1_555 1_555
S1 C19 1_555 1_555
O1 N1 1_555 1_555
O2 N1 1_555 1_555
O3 N2 1_555 1_555
O4 N2 1_555 1_555
O5 C9 1_555 1_555
O6 C25 1_555 1_555
N1 C4 1_555 1_555
N2 C6 1_555 1_555
N3 C24 1_555 1_555
C1 H1 1_555 1_555
C2 C1 1_555 1_555
C3 C2 1_555 1_555
H2 C3 1_555 1_555
C4 C3 1_555 1_555
C5 H3 1_555 1_555
C6 C5 1_555 1_555
C7 C6 1_555 1_555
C8 C7 1_555 1_555
H4 C8 1_555 1_555
C9 C10 1_555 1_555
C10 C1 1_555 1_555
C11 C4 1_555 1_555
C12 C5 1_555 1_555
C13 C8 1_555 1_555
C14 C7 1_555 1_555
C15 C14 1_555 1_555
C16 C15 1_555 1_555
C17 C16 1_555 1_555
H5 C17 1_555 1_555
C18 C17 1_555 1_555
H6 C18 1_555 1_555
C19 C18 1_555 1_555
C20 C19 1_555 1_555
H7 C20 1_555 1_555
C21 C16 1_555 1_555
H8 C21 1_555 1_555
C22 S1 1_555 1_555
H9 C22 1_555 1_555
H10 C22 1_555 1_555
C23 C22 1_555 1_555
H11 C23 1_555 1_555
H12 C23 1_555 1_555
C24 C23 1_555 1_555
C25 H13 1_555 1_555
H14 C25 1_555 1_555
C26 O6 1_555 1_555
H15 C26 1_555 1_555
H16 C26 1_555 1_555
O6A C25A 1_555 1_555
C25A C26 1_555 1_555
H13A C25A 1_555 1_555
H14A C25A 1_555 1_555
C26A C25 1_555 1_555
H15A C26A 1_555 1_555
H16A C26A 1_555 1_555
C9 C13 1_555 1_555
C10 C11 1_555 1_555
C11 C12 1_555 1_555
C12 C13 1_555 1_555
C20 C21 1_555 1_555
O6A C26A 1_555 1_555

#END
