
#######################################################################
#
#                 Cambridge Crystallographic Data Centre
#                                CCDC 
#
#######################################################################
#
# If this CIF has been generated from an entry in the Cambridge 
# Structural Database, then it will include bibliographic, chemical, 
# crystal, experimental, refinement or atomic coordinate data resulting 
# from the CCDC's data processing and validation procedures.
#
#######################################################################

data_RUYTEL
_chemical_formula_moiety         'C19 H18 N4'
_chemical_name_systematic        
6-(2-(Diphenylmethylene)-1-methylhydrazino)pyridin-2-amine
_symmetry_cell_setting           monoclinic
_symmetry_space_group_name_H-M   'P 21/c'
_symmetry_Int_Tables_number      14
_space_group_name_Hall           '-P 2ybc'
loop_
_symmetry_equiv_pos_site_id
_symmetry_equiv_pos_as_xyz
1 x,y,z
2 -x,1/2+y,1/2-z
3 -x,-y,-z
4 x,1/2-y,1/2+z
_cell_length_a                   9.3050(3)
_cell_length_b                   10.6820(3)
_cell_length_c                   17.7980(5)
_cell_angle_alpha                90
_cell_angle_beta                 116.8011(12)
_cell_angle_gamma                90
_cell_volume                     1579.01
_exptl_crystal_colour            yellow
_exptl_crystal_description       prism
_cell_formula_units_Z            4
loop_
_atom_site_label
_atom_site_type_symbol
_atom_site_fract_x
_atom_site_fract_y
_atom_site_fract_z
N1 N 1.15985(18) -0.37085(11) 0.43375(9)
H1 H 1.2539 -0.3344 0.4497
H2 H 1.1325 -0.4347 0.3988
N2 N 1.10786(13) -0.23020(9) 0.51645(7)
N3 N 1.07044(12) -0.08422(10) 0.60258(7)
N4 N 0.95707(12) -0.03251(10) 0.62241(7)
C1 C 1.05522(18) -0.32789(12) 0.46356(8)
C2 C 0.90695(19) -0.38469(13) 0.44035(9)
H3 H 0.8705 -0.4506 0.4002
C3 C 0.81465(17) -0.34206(13) 0.47760(9)
H4 H 0.7141 -0.3808 0.4643
C4 C 0.86623(15) -0.24405(12) 0.53389(8)
H5 H 0.8049 -0.2157 0.5611
C5 C 1.01263(14) -0.18797(11) 0.54927(7)
C6 C 1.21322(16) -0.01733(12) 0.61038(8)
H6 H 1.1989 0.0726 0.6154
H7 H 1.2291 -0.0330 0.5604
H8 H 1.3076 -0.0467 0.6606
C7 C 0.98788(15) 0.05224(11) 0.67962(8)
C8 C 1.14692(15) 0.09981(12) 0.74379(8)
C9 C 1.17642(16) 0.22802(13) 0.75590(8)
H9 H 1.0947 0.2855 0.7223
C10 C 1.32300(17) 0.27287(15) 0.81612(9)
H10 H 1.3423 0.3605 0.8223
C11 C 1.44036(17) 0.19096(18) 0.86683(10)
H11 H 1.5406 0.2217 0.9084
C12 C 1.41198(18) 0.06377(18) 0.85711(10)
H12 H 1.4926 0.0071 0.8928
C13 C 1.26607(17) 0.01753(14) 0.79542(9)
H13 H 1.2483 -0.0702 0.7888
C14 C 0.84014(15) 0.09975(11) 0.68277(8)
C15 C 0.84270(16) 0.13919(12) 0.75805(8)
H14 H 0.9418 0.1407 0.8081
C16 C 0.70193(17) 0.17631(13) 0.76069(9)
H15 H 0.7051 0.2012 0.8127
C17 C 0.55761(16) 0.17729(13) 0.68827(10)
H16 H 0.4617 0.2033 0.6902
C18 C 0.55323(16) 0.14011(13) 0.61260(9)
H17 H 0.4542 0.1412 0.5625
C19 C 0.69301(16) 0.10142(13) 0.60985(9)
H18 H 0.6888 0.0757 0.5578
loop_
_geom_bond_atom_site_label_1
_geom_bond_atom_site_label_2
_geom_bond_site_symmetry_1
_geom_bond_site_symmetry_2
N1 H1 1_555 1_555
H2 N1 1_555 1_555
N2 C1 1_555 1_555
N3 N4 1_555 1_555
N4 C7 1_555 1_555
C1 N1 1_555 1_555
C2 C1 1_555 1_555
H3 C2 1_555 1_555
C3 C2 1_555 1_555
H4 C3 1_555 1_555
C4 C3 1_555 1_555
H5 C4 1_555 1_555
C5 N2 1_555 1_555
C6 N3 1_555 1_555
H6 C6 1_555 1_555
H7 C6 1_555 1_555
H8 C6 1_555 1_555
C7 C8 1_555 1_555
C8 C9 1_555 1_555
C9 H9 1_555 1_555
C10 C9 1_555 1_555
H10 C10 1_555 1_555
C11 C10 1_555 1_555
H11 C11 1_555 1_555
C12 C11 1_555 1_555
H12 C12 1_555 1_555
C13 C8 1_555 1_555
H13 C13 1_555 1_555
C14 C7 1_555 1_555
C15 C14 1_555 1_555
H14 C15 1_555 1_555
C16 C15 1_555 1_555
H15 C16 1_555 1_555
C17 C16 1_555 1_555
H16 C17 1_555 1_555
C18 C17 1_555 1_555
H17 C18 1_555 1_555
C19 C14 1_555 1_555
H18 C19 1_555 1_555
N3 C5 1_555 1_555
C4 C5 1_555 1_555
C12 C13 1_555 1_555
C18 C19 1_555 1_555

#END
