
#######################################################################
#
#                 Cambridge Crystallographic Data Centre
#                                CCDC 
#
#######################################################################
#
# If this CIF has been generated from an entry in the Cambridge 
# Structural Database, then it will include bibliographic, chemical, 
# crystal, experimental, refinement or atomic coordinate data resulting 
# from the CCDC's data processing and validation procedures.
#
#######################################################################

data_RUYVEN
_chemical_formula_moiety         'C24 H24'
_chemical_name_systematic        1,4,5,8,9,12-Hexamethyltriphenylene
_symmetry_cell_setting           monoclinic
_symmetry_space_group_name_H-M   'P 21/c'
_symmetry_Int_Tables_number      14
_space_group_name_Hall           '-P 2ybc'
loop_
_symmetry_equiv_pos_site_id
_symmetry_equiv_pos_as_xyz
1 x,y,z
2 -x,1/2+y,1/2-z
3 -x,-y,-z
4 x,1/2-y,1/2+z
_cell_length_a                   11.7766(7)
_cell_length_b                   8.3887(5)
_cell_length_c                   53.660(3)
_cell_angle_alpha                90
_cell_angle_beta                 90.134(3)
_cell_angle_gamma                90
_cell_volume                     5301.08
_exptl_crystal_colour            colorless
_exptl_crystal_description       plate
_cell_formula_units_Z            12
loop_
_atom_site_label
_atom_site_type_symbol
_atom_site_fract_x
_atom_site_fract_y
_atom_site_fract_z
C1 C 0.2466(3) 0.1258(5) 0.22084(7)
C2 C 0.2685(3) 0.1347(5) 0.19517(7)
C3 C 0.2812(4) -0.0109(6) 0.17898(8)
C4 C 0.2875(4) 0.2846(6) 0.18473(9)
C5 C 0.2822(4) 0.4198(6) 0.19933(9)
C6 C 0.2792(4) 0.4095(5) 0.22519(9)
C7 C 0.2621(4) 0.5614(6) 0.24033(10)
C8 C 0.2784(3) 0.2582(5) 0.23596(7)
C9 C 0.3201(3) 0.2170(5) 0.26141(7)
C10 C 0.4136(4) 0.2978(5) 0.27213(8)
C11 C 0.4793(4) 0.4335(6) 0.26101(9)
C12 C 0.4600(4) 0.2325(6) 0.29413(8)
C13 C 0.4261(4) 0.0877(6) 0.30328(7)
C14 C 0.3421(3) -0.0005(5) 0.29179(7)
C15 C 0.3300(4) -0.1718(6) 0.29983(8)
C16 C 0.2827(3) 0.0693(5) 0.27172(7)
C17 C 0.1870(3) -0.0103(4) 0.25954(7)
C18 C 0.1021(3) -0.0868(5) 0.27356(8)
C19 C 0.0857(4) -0.0688(7) 0.30131(9)
C20 C 0.0168(3) -0.1684(5) 0.26076(8)
C21 C 0.0090(3) -0.1599(5) 0.23528(8)
C22 C 0.0825(3) -0.0679(5) 0.22106(8)
C23 C 0.0428(4) -0.0349(6) 0.19473(8)
C24 C 0.1767(3) 0.0025(5) 0.23318(7)
H1 H 0.2352 -0.0052 0.1641
H2 H 0.3597 -0.0219 0.1736
H3 H 0.2603 -0.1062 0.1881
H4 H 0.3033 0.2949 0.1675
H5 H 0.2823 0.5214 0.1920
H6 H 0.2622 0.5382 0.2580
H7 H 0.3203 0.6381 0.2367
H8 H 0.1902 0.6069 0.2361
H9 H 0.5587 0.4224 0.2655
H10 H 0.4524 0.5343 0.2675
H11 H 0.4716 0.4338 0.2429
H12 H 0.5168 0.2904 0.3024
H13 H 0.4618 0.0454 0.3179
H14 H 0.2737 -0.2248 0.2896
H15 H 0.3074 -0.1788 0.3172
H16 H 0.4037 -0.2227 0.2977
H17 H 0.0082 -0.0373 0.3048
H18 H 0.1046 -0.1683 0.3098
H19 H 0.1354 0.0139 0.3073
H20 H -0.0363 -0.2297 0.2696
H21 H -0.0510 -0.2131 0.2273
H22 H 0.0625 0.0726 0.1896
H23 H -0.0395 -0.0472 0.1942
H24 H 0.0771 -0.1094 0.1832
C25 C 0.2191(3) 0.2570(5) 0.40329(7)
C26 C 0.2218(3) 0.1059(5) 0.39181(8)
C27 C 0.2351(4) -0.0470(5) 0.40641(11)
C28 C 0.2255(4) 0.1009(6) 0.36587(9)
C29 C 0.2230(4) 0.2379(6) 0.35189(8)
C30 C 0.2414(3) 0.3878(5) 0.36305(8)
C31 C 0.2316(4) 0.5347(6) 0.34725(8)
C32 C 0.2549(3) 0.3907(5) 0.38906(7)
C33 C 0.3210(3) 0.5138(4) 0.40293(7)
C34 C 0.4189(3) 0.5858(5) 0.39267(7)
C35 C 0.4659(3) 0.5600(6) 0.36664(8)
C36 C 0.4885(3) 0.6745(5) 0.40858(8)
C37 C 0.4726(3) 0.6760(5) 0.43380(8)
C38 C 0.3845(3) 0.5937(5) 0.44488(7)
C39 C 0.3889(4) 0.5722(6) 0.47274(8)
C40 C 0.3029(3) 0.5215(5) 0.42915(7)
C41 C 0.2023(3) 0.4400(5) 0.43950(7)
C42 C 0.1357(3) 0.5091(5) 0.45800(7)
C43 C 0.1450(4) 0.6807(6) 0.46663(8)
C44 C 0.0451(3) 0.4198(6) 0.46751(7)
C45 C 0.0178(3) 0.2757(6) 0.45778(8)
C46 C 0.0738(3) 0.2109(5) 0.43719(8)
C47 C 0.0147(4) 0.0737(6) 0.42467(9)
C48 C 0.1700(3) 0.2930(5) 0.42791(7)
H25 H 0.1756 -0.1204 0.4023
H26 H 0.3051 -0.0958 0.4021
H27 H 0.2334 -0.0255 0.4240
H28 H 0.2289 0.0020 0.3580
H29 H 0.2108 0.2306 0.3348
H30 H 0.2516 0.6282 0.3566
H31 H 0.1543 0.5454 0.3416
H32 H 0.2784 0.5280 0.3326
H33 H 0.5465 0.5629 0.3672
H34 H 0.4400 0.4601 0.3599
H35 H 0.4392 0.6444 0.3561
H36 H 0.5498 0.7314 0.4019
H37 H 0.5227 0.7323 0.4441
H38 H 0.3370 0.4888 0.4780
H39 H 0.3705 0.6699 0.4813
H40 H 0.4649 0.5409 0.4778
H41 H 0.0724 0.7322 0.4651
H42 H 0.1676 0.6799 0.4840
H43 H 0.2013 0.7377 0.4572
H44 H 0.0020 0.4600 0.4807
H45 H -0.0422 0.2189 0.4648
H46 H 0.0263 0.0804 0.4068
H47 H 0.0422 -0.0276 0.4306
H48 H -0.0642 0.0789 0.4280
C49 C 0.7395(3) 0.8812(5) 0.44402(7)
C50 C 0.7593(3) 0.8696(6) 0.46985(8)
C51 C 0.7770(4) 1.0129(7) 0.48657(8)
C52 C 0.7761(4) 0.7168(6) 0.47972(8)
C53 C 0.7679(3) 0.5838(6) 0.46488(9)
C54 C 0.7680(3) 0.5973(5) 0.43894(8)
C55 C 0.7524(4) 0.4488(5) 0.42326(10)
C56 C 0.7697(3) 0.7517(5) 0.42873(7)
C57 C 0.8121(3) 0.7926(5) 0.40334(7)
C58 C 0.9055(3) 0.7126(5) 0.39243(7)
C59 C 0.9703(4) 0.5757(6) 0.40394(9)
C60 C 0.9516(4) 0.7771(6) 0.37068(8)
C61 C 0.9198(4) 0.9227(6) 0.36161(7)
C62 C 0.8365(3) 1.0116(5) 0.37336(7)
C63 C 0.8247(4) 1.1832(5) 0.36541(8)
C64 C 0.7756(3) 0.9409(5) 0.39312(6)
C65 C 0.6807(3) 1.0236(4) 0.40556(7)
C66 C 0.5953(3) 1.1000(5) 0.39156(7)
C67 C 0.5793(4) 1.0849(6) 0.36370(8)
C68 C 0.5114(3) 1.1841(5) 0.40427(8)
C69 C 0.5046(3) 1.1759(5) 0.42949(8)
C70 C 0.5781(3) 1.0833(5) 0.44392(7)
C71 C 0.5403(4) 1.0550(6) 0.47046(8)
C72 C 0.6714(3) 1.0086(5) 0.43181(7)
H49 H 0.7327 1.0052 0.5016
H50 H 0.8562 1.0160 0.4914
H51 H 0.7593 1.1119 0.4782
H52 H 0.7914 0.7042 0.4969
H53 H 0.7641 0.4824 0.4722
H54 H 0.7529 0.4766 0.4058
H55 H 0.8119 0.3734 0.4266
H56 H 0.6815 0.3996 0.4271
H57 H 1.0492 0.5862 0.3998
H58 H 0.9615 0.5775 0.4219
H59 H 0.9419 0.4766 0.3974
H60 H 1.0079 0.7205 0.3624
H61 H 0.9553 0.9640 0.3473
H62 H 0.7745 1.2372 0.3764
H63 H 0.8985 1.2335 0.3655
H64 H 0.7945 1.1870 0.3486
H65 H 0.5032 1.0513 0.3600
H66 H 0.5950 1.1843 0.3554
H67 H 0.6307 1.0030 0.3578
H68 H 0.4597 1.2450 0.3951
H69 H 0.4462 1.2306 0.4375
H70 H 0.5611 0.9501 0.4760
H71 H 0.5756 1.1309 0.4815
H72 H 0.4599 1.0671 0.4716
loop_
_geom_bond_atom_site_label_1
_geom_bond_atom_site_label_2
_geom_bond_site_symmetry_1
_geom_bond_site_symmetry_2
C1 C2 1_555 1_555
C2 C3 1_555 1_555
C3 H1 1_555 1_555
C4 C2 1_555 1_555
C5 C4 1_555 1_555
C6 C5 1_555 1_555
C7 C6 1_555 1_555
C8 C1 1_555 1_555
C9 C8 1_555 1_555
C10 C9 1_555 1_555
C11 C10 1_555 1_555
C12 C10 1_555 1_555
C13 C12 1_555 1_555
C14 C13 1_555 1_555
C15 C14 1_555 1_555
C16 C9 1_555 1_555
C17 C16 1_555 1_555
C18 C17 1_555 1_555
C19 C18 1_555 1_555
C20 C18 1_555 1_555
C21 C20 1_555 1_555
C22 C21 1_555 1_555
C23 C22 1_555 1_555
C24 C1 1_555 1_555
C25 C26 1_555 1_555
C26 C27 1_555 1_555
C27 H25 1_555 1_555
C28 C26 1_555 1_555
C29 C28 1_555 1_555
C30 C29 1_555 1_555
C31 C30 1_555 1_555
C32 C25 1_555 1_555
C33 C32 1_555 1_555
C34 C33 1_555 1_555
C35 C34 1_555 1_555
C36 C34 1_555 1_555
C37 C36 1_555 1_555
C38 C37 1_555 1_555
C39 C38 1_555 1_555
C40 C33 1_555 1_555
C41 C40 1_555 1_555
C42 C41 1_555 1_555
C43 C42 1_555 1_555
C44 C42 1_555 1_555
C45 C44 1_555 1_555
C46 C45 1_555 1_555
C47 C46 1_555 1_555
C48 C25 1_555 1_555
C49 C50 1_555 1_555
C50 C51 1_555 1_555
C51 H49 1_555 1_555
C52 C50 1_555 1_555
C53 C52 1_555 1_555
C54 C53 1_555 1_555
C55 C54 1_555 1_555
C56 C49 1_555 1_555
C57 C56 1_555 1_555
C58 C57 1_555 1_555
C59 C58 1_555 1_555
C60 C58 1_555 1_555
C61 C60 1_555 1_555
C62 C61 1_555 1_555
C63 C62 1_555 1_555
C64 C57 1_555 1_555
C65 C64 1_555 1_555
C66 C65 1_555 1_555
C67 C66 1_555 1_555
C68 C66 1_555 1_555
C69 C68 1_555 1_555
C70 C69 1_555 1_555
C71 C70 1_555 1_555
C72 C49 1_555 1_555
H2 C3 1_555 1_555
H3 C3 1_555 1_555
H4 C4 1_555 1_555
H5 C5 1_555 1_555
H6 C7 1_555 1_555
H7 C7 1_555 1_555
H8 C7 1_555 1_555
H9 C11 1_555 1_555
H10 C11 1_555 1_555
H11 C11 1_555 1_555
H12 C12 1_555 1_555
H13 C13 1_555 1_555
H14 C15 1_555 1_555
H15 C15 1_555 1_555
H16 C15 1_555 1_555
H17 C19 1_555 1_555
H18 C19 1_555 1_555
H19 C19 1_555 1_555
H20 C20 1_555 1_555
H21 C21 1_555 1_555
H22 C23 1_555 1_555
H23 C23 1_555 1_555
H24 C23 1_555 1_555
H26 C27 1_555 1_555
H27 C27 1_555 1_555
H28 C28 1_555 1_555
H29 C29 1_555 1_555
H30 C31 1_555 1_555
H31 C31 1_555 1_555
H32 C31 1_555 1_555
H33 C35 1_555 1_555
H34 C35 1_555 1_555
H35 C35 1_555 1_555
H36 C36 1_555 1_555
H37 C37 1_555 1_555
H38 C39 1_555 1_555
H39 C39 1_555 1_555
H40 C39 1_555 1_555
H41 C43 1_555 1_555
H42 C43 1_555 1_555
H43 C43 1_555 1_555
H44 C44 1_555 1_555
H45 C45 1_555 1_555
H46 C47 1_555 1_555
H47 C47 1_555 1_555
H48 C47 1_555 1_555
H50 C51 1_555 1_555
H51 C51 1_555 1_555
H52 C52 1_555 1_555
H53 C53 1_555 1_555
H54 C55 1_555 1_555
H55 C55 1_555 1_555
H56 C55 1_555 1_555
H57 C59 1_555 1_555
H58 C59 1_555 1_555
H59 C59 1_555 1_555
H60 C60 1_555 1_555
H61 C61 1_555 1_555
H62 C63 1_555 1_555
H63 C63 1_555 1_555
H64 C63 1_555 1_555
H65 C67 1_555 1_555
H66 C67 1_555 1_555
H67 C67 1_555 1_555
H68 C68 1_555 1_555
H69 C69 1_555 1_555
H70 C71 1_555 1_555
H71 C71 1_555 1_555
H72 C71 1_555 1_555
C6 C8 1_555 1_555
C14 C16 1_555 1_555
C17 C24 1_555 1_555
C22 C24 1_555 1_555
C30 C32 1_555 1_555
C38 C40 1_555 1_555
C41 C48 1_555 1_555
C46 C48 1_555 1_555
C54 C56 1_555 1_555
C62 C64 1_555 1_555
C65 C72 1_555 1_555
C70 C72 1_555 1_555

#END
