
#######################################################################
#
#                 Cambridge Crystallographic Data Centre
#                                CCDC 
#
#######################################################################
#
# If this CIF has been generated from an entry in the Cambridge 
# Structural Database, then it will include bibliographic, chemical, 
# crystal, experimental, refinement or atomic coordinate data resulting 
# from the CCDC's data processing and validation procedures.
#
#######################################################################

data_RUYYUH
_chemical_name_common            'bis(6-hydroxy-2-naphthoic acid) menadione'
_chemical_formula_moiety         '2(C11 H8 O3),C11 H8 O2'
_chemical_name_systematic        
'bis(6-hydroxy-2-naphthoic acid) 2-methyl-1,4-naphthoquinone'
_chemical_properties_biological  'Menadione has antihemorrhagic activity.'
_symmetry_cell_setting           monoclinic
_symmetry_space_group_name_H-M   'P 21'
_symmetry_Int_Tables_number      4
_space_group_name_Hall           'P 2yb'
loop_
_symmetry_equiv_pos_site_id
_symmetry_equiv_pos_as_xyz
1 x,y,z
2 -x,1/2+y,-z
_cell_length_a                   10.7294(19)
_cell_length_b                   20.667(3)
_cell_length_c                   12.357(2)
_cell_angle_alpha                90
_cell_angle_beta                 108.230(8)
_cell_angle_gamma                90
_cell_volume                     2602.57
_exptl_crystal_colour            yellow
_exptl_crystal_description       prismatic
_cell_formula_units_Z            4
loop_
_atom_site_label
_atom_site_type_symbol
_atom_site_fract_x
_atom_site_fract_y
_atom_site_fract_z
C1 C 0.8098(4) 0.8218(2) 0.9662(4)
H1 H 0.8174 0.8498 1.0268
C2 C 0.8607(5) 0.7254(2) 1.0947(4)
H2 H 0.8676 0.7518 1.1572
C3 C 0.8400(4) 0.6449(2) 0.9082(4)
H3 H 0.8341 0.6177 0.8469
C4 C 0.8210(4) 0.7132(2) 0.8898(3)
C5 C 0.8665(4) 0.6198(2) 1.0148(4)
C6 C 0.7921(5) 0.7396(2) 0.7816(4)
H4 H 0.7872 0.7129 0.7197
C7 C 0.7772(4) 0.8447(2) 0.8581(4)
C8 C 0.8328(4) 0.7526(2) 0.9861(4)
O1 O 0.7565(4) 0.91115(17) 0.8424(4)
C9 C 0.8776(5) 0.6610(2) 1.1088(4)
H5 H 0.8969 0.6433 1.1814
C10 C 0.7704(5) 0.8052(2) 0.7653(5)
H6 H 0.7514 0.8229 0.6928
O2 O 0.8957(4) 0.52549(16) 1.1294(3)
O3 O 0.8758(4) 0.51381(15) 0.9458(3)
H7 H 0.8846 0.4757 0.9654
C11 C 0.8805(4) 0.5495(2) 1.0322(4)
H8 H 0.704(6) 0.920(4) 0.777(3)
C12 C 0.1395(4) 0.7945(2) 0.9188(4)
C13 C 0.1785(4) 0.6875(2) 1.0035(4)
O4 O 0.1463(4) 0.88920(15) 1.0279(3)
C14 C 0.1558(4) 0.6598(2) 0.8955(4)
C15 C 0.1170(4) 0.7663(2) 0.8100(4)
H9 H 0.0960 0.7924 0.7456
C16 C 0.1618(5) 0.5918(2) 0.8864(5)
H10 H 0.1460 0.5729 0.8150
C17 C 0.1259(4) 0.7014(2) 0.7991(4)
H11 H 0.1121 0.6836 0.7271
C18 C 0.1279(4) 0.8648(2) 0.9317(4)
C19 C 0.2121(4) 0.5813(2) 1.0880(4)
H12 H 0.2308 0.5548 1.1520
C20 C 0.2064(4) 0.6463(2) 1.1001(4)
H13 H 0.2208 0.6641 1.1722
C21 C 0.1903(4) 0.5534(2) 0.9808(5)
O5 O 0.1963(5) 0.48842(16) 0.9668(3)
H14 H 0.2263 0.4711 1.0293
O6 O 0.0991(4) 0.89860(17) 0.8397(3)
C22 C 0.1701(4) 0.7555(2) 1.0138(4)
H15 H 0.1855 0.7739 1.0854
H16 H 0.093(9) 0.9391(12) 0.852(8)
C23 C 0.1400(4) 0.5206(2) 0.3971(4)
H17 H 0.1022 0.5038 0.3244
C24 C 0.1492(4) 0.4121(2) 0.4826(4)
H18 H 0.1131 0.3945 0.4103
C25 C 0.2290(4) 0.5054(2) 0.6033(4)
C26 C 0.1722(4) 0.47878(19) 0.4936(3)
C27 C 0.2233(4) 0.6109(2) 0.5202(4)
C28 C 0.2529(4) 0.5723(2) 0.6140(4)
H19 H 0.2894 0.5903 0.6859
C29 C 0.1647(4) 0.5854(2) 0.4111(4)
H20 H 0.1424 0.6127 0.3480
C30 C 0.1782(4) 0.3722(2) 0.5753(4)
C31 C 0.2337(4) 0.3992(2) 0.6860(4)
H21 H 0.2537 0.3727 0.7499
C32 C 0.1587(4) 0.3017(2) 0.5640(4)
O7 O 0.1873(4) 0.26671(15) 0.6508(3)
O8 O 0.2471(4) 0.67652(14) 0.5266(3)
H22 H 0.2898 0.6862 0.5920
C33 C 0.2576(4) 0.4637(2) 0.6982(4)
H23 H 0.2937 0.4808 0.7710
O9 O 0.1134(4) 0.27871(17) 0.4637(3)
H24 H 0.115(7) 0.2372(10) 0.464(6)
C34 C 0.8566(4) 0.5468(2) 0.4822(4)
C35 C 0.8081(4) 0.4401(2) 0.3996(4)
H25 H 0.7817 0.4134 0.3358
C36 C 0.8839(4) 0.4530(2) 0.6065(4)
C37 C 0.8399(4) 0.4129(2) 0.5096(4)
O10 O 0.8259(4) 0.63973(16) 0.3673(3)
C38 C 0.8161(4) 0.5057(2) 0.3860(4)
H26 H 0.7946 0.5232 0.3132
C39 C 0.8889(4) 0.5209(2) 0.5890(4)
H27 H 0.9149 0.5482 0.6519
C40 C 0.9173(4) 0.4253(2) 0.7164(4)
H28 H 0.9451 0.4519 0.7802
C41 C 0.8613(4) 0.6176(2) 0.4686(4)
O11 O 0.8983(4) 0.65312(16) 0.5548(3)
C42 C 0.8313(4) 0.3448(2) 0.5267(4)
H29 H 0.8025 0.3173 0.4642
C43 C 0.9098(5) 0.3619(2) 0.7299(4)
H30 H 0.9340 0.3445 0.8029
C44 C 0.8651(5) 0.3201(2) 0.6339(4)
O12 O 0.8570(4) 0.25672(16) 0.6577(3)
H31 H 0.8167 0.2374 0.5993
H32 H 0.822(8) 0.6816(11) 0.362(8)
C45 C 0.5130(5) 0.5092(3) 0.4771(5)
O13 O 0.4404(5) 0.4156(3) 0.3701(5)
C46 C 0.5559(5) 0.5372(3) 0.5867(5)
C47 C 0.5118(7) 0.3245(3) 0.5542(7)
H33 H 0.5567 0.3033 0.6248
H34 H 0.5491 0.3111 0.4966
H35 H 0.4205 0.3131 0.5312
C48 C 0.5261(5) 0.3971(3) 0.5702(6)
C49 C 0.4923(6) 0.5487(4) 0.3852(6)
H36 H 0.4628 0.5308 0.3125
C50 C 0.5756(5) 0.6034(3) 0.6015(6)
H37 H 0.6026 0.6218 0.6738
C51 C 0.5136(6) 0.6136(4) 0.3965(7)
H38 H 0.5014 0.6395 0.3325
C52 C 0.5693(6) 0.4247(3) 0.6716(6)
H39 H 0.5967 0.3985 0.7360
C53 C 0.5539(6) 0.6408(3) 0.5054(8)
H40 H 0.5662 0.6853 0.5131
C54 C 0.4902(5) 0.4383(3) 0.4673(6)
O14 O 0.5933(4) 0.5173(2) 0.7814(4)
C55 C 0.5754(5) 0.4948(3) 0.6859(5)
C56 C 0.5252(6) 0.6536(4) 1.0066(7)
C57 C 0.5539(6) 0.5957(4) 1.0678(7)
H41 H 0.5828 0.5641 1.0240
H42 H 0.4765 0.5802 1.0828
H43 H 0.6219 0.6030 1.1386
C58 C 0.4999(5) 0.6584(3) 0.8946(5)
H44 H 0.5049 0.6213 0.8536
C59 C 0.4478(5) 0.8380(3) 0.8365(6)
H45 H 0.4283 0.8395 0.7577
O15 O 0.4250(4) 0.7215(2) 0.7211(3)
C60 C 0.4624(5) 0.7230(3) 0.8295(6)
C61 C 0.4956(5) 0.7794(3) 1.0125(4)
C62 C 0.4696(5) 0.7819(3) 0.8924(5)
C63 C 0.5003(6) 0.8343(3) 1.0778(6)
H46 H 0.5164 0.8326 1.1562
C64 C 0.4554(6) 0.8957(4) 0.9016(6)
H47 H 0.4443 0.9357 0.8652
C65 C 0.4787(7) 0.8930(4) 1.0166(8)
H48 H 0.4805 0.9314 1.0562
O16 O 0.5306(5) 0.7112(3) 1.1731(4)
C66 C 0.5197(5) 0.7151(3) 1.0711(6)
loop_
_geom_bond_atom_site_label_1
_geom_bond_atom_site_label_2
_geom_bond_site_symmetry_1
_geom_bond_site_symmetry_2
C1 H1 1_555 1_555
C2 H2 1_555 1_555
C3 H3 1_555 1_555
C4 C3 1_555 1_555
C5 C3 1_555 1_555
C6 C4 1_555 1_555
H4 C6 1_555 1_555
C7 C1 1_555 1_555
C8 C1 1_555 1_555
O1 C7 1_555 1_555
C9 C2 1_555 1_555
H5 C9 1_555 1_555
C10 C6 1_555 1_555
H6 C10 1_555 1_555
O2 C11 1_555 1_555
O3 H7 1_555 1_555
C11 C5 1_555 1_555
H8 O1 1_555 1_555
C12 C15 1_555 1_555
C13 C14 1_555 1_555
O4 C18 1_555 1_555
C14 C16 1_555 1_555
C15 H9 1_555 1_555
C16 H10 1_555 1_555
C17 C14 1_555 1_555
H11 C17 1_555 1_555
C18 C12 1_555 1_555
C19 H12 1_555 1_555
C20 C13 1_555 1_555
H13 C20 1_555 1_555
C21 C16 1_555 1_555
O5 C21 1_555 1_555
H14 O5 1_555 1_555
O6 C18 1_555 1_555
C22 C12 1_555 1_555
H15 C22 1_555 1_555
H16 O6 1_555 1_555
C23 H17 1_555 1_555
C24 H18 1_555 1_555
C25 C26 1_555 1_555
C26 C23 1_555 1_555
C27 C28 1_555 1_555
C28 C25 1_555 1_555
H19 C28 1_555 1_555
C29 C23 1_555 1_555
H20 C29 1_555 1_555
C30 C24 1_555 1_555
C31 C30 1_555 1_555
H21 C31 1_555 1_555
C32 C30 1_555 1_555
O7 C32 1_555 1_555
O8 C27 1_555 1_555
H22 O8 1_555 1_555
C33 C25 1_555 1_555
H23 C33 1_555 1_555
O9 C32 1_555 1_555
H24 O9 1_555 1_555
C34 C38 1_555 1_555
C35 H25 1_555 1_555
C36 C37 1_555 1_555
C37 C35 1_555 1_555
O10 C41 1_555 1_555
C38 C35 1_555 1_555
H26 C38 1_555 1_555
C39 C34 1_555 1_555
H27 C39 1_555 1_555
C40 C36 1_555 1_555
H28 C40 1_555 1_555
C41 C34 1_555 1_555
O11 C41 1_555 1_555
C42 C37 1_555 1_555
H29 C42 1_555 1_555
C43 C40 1_555 1_555
H30 C43 1_555 1_555
C44 C42 1_555 1_555
O12 C44 1_555 1_555
H31 O12 1_555 1_555
H32 O10 1_555 1_555
C45 C46 1_555 1_555
O13 C54 1_555 1_555
C46 C50 1_555 1_555
C47 H33 1_555 1_555
H34 C47 1_555 1_555
H35 C47 1_555 1_555
C48 C47 1_555 1_555
C49 C45 1_555 1_555
H36 C49 1_555 1_555
C50 H37 1_555 1_555
C51 C49 1_555 1_555
H38 C51 1_555 1_555
C52 C48 1_555 1_555
H39 C52 1_555 1_555
C53 C50 1_555 1_555
H40 C53 1_555 1_555
C54 C45 1_555 1_555
O14 C55 1_555 1_555
C55 C46 1_555 1_555
C56 C57 1_555 1_555
C57 H41 1_555 1_555
H42 C57 1_555 1_555
H43 C57 1_555 1_555
C58 C56 1_555 1_555
H44 C58 1_555 1_555
C59 H45 1_555 1_555
O15 C60 1_555 1_555
C60 C58 1_555 1_555
C61 C62 1_555 1_555
C62 C59 1_555 1_555
C63 C61 1_555 1_555
H46 C63 1_555 1_555
C64 C59 1_555 1_555
H47 C64 1_555 1_555
C65 C63 1_555 1_555
H48 C65 1_555 1_555
O16 C66 1_555 1_555
C66 C56 1_555 1_555
C2 C8 1_555 1_555
C4 C8 1_555 1_555
C5 C9 1_555 1_555
C7 C10 1_555 1_555
O3 C11 1_555 1_555
C13 C22 1_555 1_555
C15 C17 1_555 1_555
C19 C20 1_555 1_555
C19 C21 1_555 1_555
C24 C26 1_555 1_555
C27 C29 1_555 1_555
C31 C33 1_555 1_555
C36 C39 1_555 1_555
C43 C44 1_555 1_555
C48 C54 1_555 1_555
C51 C53 1_555 1_555
C52 C55 1_555 1_555
C60 C62 1_555 1_555
C61 C66 1_555 1_555
C64 C65 1_555 1_555

#END
