
#######################################################################
#
#                 Cambridge Crystallographic Data Centre
#                                CCDC 
#
#######################################################################
#
# If this CIF has been generated from an entry in the Cambridge 
# Structural Database, then it will include bibliographic, chemical, 
# crystal, experimental, refinement or atomic coordinate data resulting 
# from the CCDC's data processing and validation procedures.
#
#######################################################################

data_RUYYOB
_chemical_name_common            '1-hydroxy-2-naphthoic acid menadione'
_chemical_formula_moiety         'C11 H8 O3,C11 H8 O2'
_chemical_name_systematic        
'1-hydroxy-2-naphthoic acid 2-methyl-1,4-naphthoquinone'
_chemical_properties_biological  'Menadione has antihemorrhagic activity.'
_symmetry_cell_setting           monoclinic
_symmetry_space_group_name_H-M   'C 2/c'
_symmetry_Int_Tables_number      15
_space_group_name_Hall           '-C 2yn'
loop_
_symmetry_equiv_pos_site_id
_symmetry_equiv_pos_as_xyz
1 x,y,z
2 -x,y,1/2-z
3 1/2+x,1/2+y,z
4 1/2-x,1/2+y,1/2-z
5 -x,-y,-z
6 x,-y,1/2+z
7 1/2-x,1/2-y,-z
8 1/2+x,1/2-y,1/2+z
_cell_length_a                   33.788(2)
_cell_length_b                   6.9012(5)
_cell_length_c                   15.0424(11)
_cell_angle_alpha                90
_cell_angle_beta                 103.597(4)
_cell_angle_gamma                90
_cell_volume                     3409.25
_exptl_crystal_colour            yellow
_exptl_crystal_description       plate
_cell_formula_units_Z            8
loop_
_atom_site_label
_atom_site_type_symbol
_atom_site_fract_x
_atom_site_fract_y
_atom_site_fract_z
O1 O 0.31555(13) 0.6429(8) 0.2320(3)
O2 O 0.40231(14) 0.6381(7) 0.5770(3)
C1 C 0.31585(18) 0.6348(10) 0.3879(4)
C2 C 0.33552(19) 0.6364(10) 0.3106(4)
C3 C 0.38134(15) 0.6286(9) 0.3295(3)
C4 C 0.40017(19) 0.6213(10) 0.2592(4)
H1 H 0.3848 0.6176 0.1992
C5 C 0.44347(19) 0.6191(10) 0.2776(4)
H2 H 0.4566 0.6148 0.2298
C6 C 0.46562(18) 0.6234(10) 0.3661(4)
H3 H 0.4939 0.6228 0.3784
C7 C 0.44567(17) 0.6288(10) 0.4401(4)
H4 H 0.4608 0.6289 0.5003
C8 C 0.40396(17) 0.6339(9) 0.4213(4)
C9 C 0.33754(19) 0.6369(10) 0.4756(4)
C10 C 0.3826(2) 0.6325(10) 0.4969(4)
C11 C 0.2734(3) 0.636(2) 0.3726(8)
H5 H 0.2658 0.6417 0.4302
H6 H 0.2627 0.5192 0.3410
H7 H 0.2627 0.7462 0.3362
O3 O 0.45074(10) 0.1289(7) 0.2353(2)
O4 O 0.49662(11) 0.1322(7) 0.3685(2)
H11 H 0.5122 0.1313 0.3341
O5 O 0.37362(11) 0.1426(7) 0.2375(2)
H12 H 0.3931 0.1373 0.2138
C13 C 0.45890(15) 0.1307(9) 0.3201(4)
C14 C 0.42821(16) 0.1323(9) 0.3730(4)
C15 C 0.44002(15) 0.1255(9) 0.4702(3)
H13 H 0.4675 0.1200 0.4995
C16 C 0.41082(17) 0.1270(9) 0.5217(4)
H14 H 0.4189 0.1273 0.5852
C17 C 0.36937(16) 0.1281(10) 0.4784(4)
C18 C 0.33832(17) 0.1282(9) 0.5274(4)
H15 H 0.3456 0.1266 0.5909
C19 C 0.29833(18) 0.1306(10) 0.4842(4)
H16 H 0.2787 0.1284 0.5184
C20 C 0.35640(16) 0.1347(9) 0.3801(4)
C21 C 0.38685(16) 0.1329(10) 0.3289(3)
C22 C 0.31511(16) 0.1371(10) 0.3375(4)
H17 H 0.3070 0.1392 0.2740
C23 C 0.28627(19) 0.1364(10) 0.3881(4)
H18 H 0.2588 0.1397 0.3589
C12? C 0.3137(4) 0.631(2) 0.5445(8)
H8? H 0.3216 0.5055 0.5699
H9? H 0.2865 0.6592 0.5498
H10? H 0.3320 0.7272 0.5771
loop_
_geom_bond_atom_site_label_1
_geom_bond_atom_site_label_2
_geom_bond_site_symmetry_1
_geom_bond_site_symmetry_2
O1 C2 1_555 1_555
O2 C10 1_555 1_555
C1 C2 1_555 1_555
C2 C3 1_555 1_555
C3 C4 1_555 1_555
C4 H1 1_555 1_555
C5 C4 1_555 1_555
H2 C5 1_555 1_555
C6 C5 1_555 1_555
H3 C6 1_555 1_555
C7 C6 1_555 1_555
H4 C7 1_555 1_555
C8 C3 1_555 1_555
C9 C1 1_555 1_555
C10 C8 1_555 1_555
C11 C1 1_555 1_555
H5 C11 1_555 1_555
H6 C11 1_555 1_555
H7 C11 1_555 1_555
O3 C13 1_555 1_555
O4 H11 1_555 1_555
O5 H12 1_555 1_555
C13 O4 1_555 1_555
C14 C13 1_555 1_555
C15 C14 1_555 1_555
H13 C15 1_555 1_555
C16 C15 1_555 1_555
H14 C16 1_555 1_555
C17 C16 1_555 1_555
C18 C17 1_555 1_555
H15 C18 1_555 1_555
C19 C18 1_555 1_555
H16 C19 1_555 1_555
C20 C17 1_555 1_555
C21 O5 1_555 1_555
C22 C20 1_555 1_555
H17 C22 1_555 1_555
C23 C19 1_555 1_555
H18 C23 1_555 1_555
C7 C8 1_555 1_555
C9 C10 1_555 1_555
C14 C21 1_555 1_555
C20 C21 1_555 1_555
C22 C23 1_555 1_555

#END
