
#######################################################################
#
#                 Cambridge Crystallographic Data Centre
#                                CCDC 
#
#######################################################################
#
# If this CIF has been generated from an entry in the Cambridge 
# Structural Database, then it will include bibliographic, chemical, 
# crystal, experimental, refinement or atomic coordinate data resulting 
# from the CCDC's data processing and validation procedures.
#
#######################################################################

data_RUZKOO
_chemical_formula_moiety         'C31 H39 N3'
_chemical_name_systematic        
3',5'-bis(2-cyclohexylethyl)-2,2':6',2''-terpyridine
_symmetry_cell_setting           monoclinic
_symmetry_space_group_name_H-M   'C 2/c'
_symmetry_Int_Tables_number      15
_space_group_name_Hall           '-C 2yn'
loop_
_symmetry_equiv_pos_site_id
_symmetry_equiv_pos_as_xyz
1 x,y,z
2 -x,y,1/2-z
3 1/2+x,1/2+y,z
4 1/2-x,1/2+y,1/2-z
5 -x,-y,-z
6 x,-y,1/2+z
7 1/2-x,1/2-y,-z
8 1/2+x,1/2-y,1/2+z
_cell_length_a                   30.5673(18)
_cell_length_b                   9.9939(5)
_cell_length_c                   8.7408(6)
_cell_angle_alpha                90
_cell_angle_beta                 106.271(2)
_cell_angle_gamma                90
_cell_volume                     2563.25
_exptl_crystal_colour            colorless
_exptl_crystal_description       platy
_cell_formula_units_Z            4
loop_
_atom_site_label
_atom_site_type_symbol
_atom_site_fract_x
_atom_site_fract_y
_atom_site_fract_z
C1 C 0.44284(7) 0.7651(2) 1.0031(2)
C2 C 0.39750(6) 0.7548(2) 0.9640(2)
H1 H 0.3829 0.6921 1.0150
C3 C 0.43962(11) 0.9386(3) 0.8108(3)
H2 H 0.4540 1.0007 0.7582
N1 N 0.46533(9) 0.8560(2) 0.9305(3)
C4 C 0.37334(9) 0.8372(3) 0.8492(3)
H3 H 0.3410 0.8320 0.8212
C5 C 0.39277(11) 0.9284(3) 0.7702(3)
H4 H 0.3742 0.9834 0.6889
C6 C 0.34822(7) 0.3972(2) 0.9109(2)
H5 H 0.3444 0.4674 0.8268
C7 C 0.30478(7) 0.3953(2) 0.9650(3)
H6 H 0.2999 0.4851 1.0053
H7 H 0.3086 0.3308 1.0538
C8 C 0.35462(8) 0.2632(2) 0.8363(3)
H8 H 0.3609 0.1929 0.9195
H9 H 0.3812 0.2688 0.7931
C9 C 0.31224(8) 0.2239(3) 0.7018(3)
H10 H 0.3081 0.2883 0.6128
H11 H 0.3169 0.1341 0.6613
C10 C 0.26966(8) 0.2225(3) 0.7588(3)
H12 H 0.2428 0.2019 0.6680
H13 H 0.2724 0.1514 0.8399
C11 C 0.26284(7) 0.3564(2) 0.8298(3)
H14 H 0.2359 0.3516 0.8713
H15 H 0.2570 0.4258 0.7458
N2 N 0.5000 0.7451(2) 1.2500
C12 C 0.5000 0.4697(3) 1.2500
H16 H 0.5000 0.3747 1.2500
C13 C 0.46806(6) 0.5372(2) 1.1288(2)
C14 C 0.47067(6) 0.6770(2) 1.1325(2)
C15 C 0.43315(6) 0.4615(2) 1.0023(2)
H17 H 0.4461 0.3744 0.9833
H18 H 0.4258 0.5128 0.9014
C16 C 0.38907(7) 0.4371(2) 1.0506(2)
H19 H 0.3947 0.3654 1.1320
H20 H 0.3813 0.5196 1.1000
C1A C 0.55716(7) 0.7651(2) 1.4969(2)
C2A C 0.60250(6) 0.7548(2) 1.5360(2)
H1A H 0.6171 0.6921 1.4850
C3A C 0.56038(11) 0.9386(3) 1.6892(3)
H2A H 0.5460 1.0007 1.7418
N1A N 0.53467(9) 0.8560(2) 1.5695(3)
C4A C 0.62666(9) 0.8372(3) 1.6508(3)
H3A H 0.6590 0.8320 1.6788
C5A C 0.60723(11) 0.9284(3) 1.7298(3)
H4A H 0.6258 0.9834 1.8111
C6A C 0.65178(7) 0.3972(2) 1.5891(2)
H5A H 0.6556 0.4674 1.6732
C7A C 0.69522(7) 0.3953(2) 1.5350(3)
H6A H 0.7001 0.4851 1.4947
H7A H 0.6914 0.3308 1.4462
C8A C 0.64538(8) 0.2632(2) 1.6637(3)
H8A H 0.6391 0.1929 1.5805
H9A H 0.6188 0.2688 1.7069
C9A C 0.68776(8) 0.2239(3) 1.7982(3)
H10A H 0.6919 0.2883 1.8872
H11A H 0.6831 0.1341 1.8387
C10A C 0.73034(8) 0.2225(3) 1.7412(3)
H12A H 0.7572 0.2019 1.8320
H13A H 0.7276 0.1514 1.6601
C11A C 0.73716(7) 0.3564(2) 1.6702(3)
H14A H 0.7641 0.3516 1.6287
H15A H 0.7430 0.4258 1.7542
C13A C 0.53194(6) 0.5372(2) 1.3712(2)
C14A C 0.52933(6) 0.6770(2) 1.3675(2)
C15A C 0.56685(6) 0.4615(2) 1.4977(2)
H17A H 0.5539 0.3744 1.5167
H18A H 0.5742 0.5128 1.5986
C16A C 0.61093(7) 0.4371(2) 1.4494(2)
H19A H 0.6053 0.3654 1.3680
H20A H 0.6187 0.5196 1.4000
loop_
_geom_bond_atom_site_label_1
_geom_bond_atom_site_label_2
_geom_bond_site_symmetry_1
_geom_bond_site_symmetry_2
C1 C2 1_555 1_555
C2 H1 1_555 1_555
C3 H2 1_555 1_555
N1 C1 1_555 1_555
C4 C2 1_555 1_555
H3 C4 1_555 1_555
C5 C3 1_555 1_555
H4 C5 1_555 1_555
C6 H5 1_555 1_555
C7 C6 1_555 1_555
H6 C7 1_555 1_555
H7 C7 1_555 1_555
C8 C6 1_555 1_555
H8 C8 1_555 1_555
H9 C8 1_555 1_555
C9 C8 1_555 1_555
H10 C9 1_555 1_555
H11 C9 1_555 1_555
C10 C9 1_555 1_555
H12 C10 1_555 1_555
H13 C10 1_555 1_555
C11 C7 1_555 1_555
H14 C11 1_555 1_555
H15 C11 1_555 1_555
N2 C14 1_555 1_555
C12 H16 1_555 1_555
C13 C12 1_555 1_555
C14 C1 1_555 1_555
C15 C13 1_555 1_555
H17 C15 1_555 1_555
H18 C15 1_555 1_555
C16 C6 1_555 1_555
H19 C16 1_555 1_555
H20 C16 1_555 1_555
C1A C2A 1_555 1_555
C2A H1A 1_555 1_555
C3A H2A 1_555 1_555
N1A C1A 1_555 1_555
C4A C2A 1_555 1_555
H3A C4A 1_555 1_555
C5A C3A 1_555 1_555
H4A C5A 1_555 1_555
C6A H5A 1_555 1_555
C7A C6A 1_555 1_555
H6A C7A 1_555 1_555
H7A C7A 1_555 1_555
C8A C6A 1_555 1_555
H8A C8A 1_555 1_555
H9A C8A 1_555 1_555
C9A C8A 1_555 1_555
H10A C9A 1_555 1_555
H11A C9A 1_555 1_555
C10A C9A 1_555 1_555
H12A C10A 1_555 1_555
H13A C10A 1_555 1_555
C11A C7A 1_555 1_555
H14A C11A 1_555 1_555
H15A C11A 1_555 1_555
C13A C12 1_555 1_555
C14A N2 1_555 1_555
C15A C13A 1_555 1_555
H17A C15A 1_555 1_555
H18A C15A 1_555 1_555
C16A C6A 1_555 1_555
H19A C16A 1_555 1_555
H20A C16A 1_555 1_555
C3 N1 1_555 1_555
C4 C5 1_555 1_555
C10 C11 1_555 1_555
C13 C14 1_555 1_555
C15 C16 1_555 1_555
C1A C14A 1_555 1_555
C3A N1A 1_555 1_555
C4A C5A 1_555 1_555
C10A C11A 1_555 1_555
C13A C14A 1_555 1_555
C15A C16A 1_555 1_555

#END
