
#######################################################################
#
#                 Cambridge Crystallographic Data Centre
#                                CCDC 
#
#######################################################################
#
# If this CIF has been generated from an entry in the Cambridge 
# Structural Database, then it will include bibliographic, chemical, 
# crystal, experimental, refinement or atomic coordinate data resulting 
# from the CCDC's data processing and validation procedures.
#
#######################################################################

data_RUZZOD
_chemical_formula_moiety         'C9 H16 O2'
_chemical_name_systematic        'non-2-enoic acid'
_symmetry_cell_setting           monoclinic
_symmetry_space_group_name_H-M   'P 21/c'
_symmetry_Int_Tables_number      14
_space_group_name_Hall           '-P 2ybc'
loop_
_symmetry_equiv_pos_site_id
_symmetry_equiv_pos_as_xyz
1 x,y,z
2 -x,1/2+y,1/2-z
3 -x,-y,-z
4 x,1/2-y,1/2+z
_cell_length_a                   10.6473(4)
_cell_length_b                   5.2855(2)
_cell_length_c                   17.0313(7)
_cell_angle_alpha                90
_cell_angle_beta                 106.0985(10)
_cell_angle_gamma                90
_cell_volume                     920.874
_exptl_crystal_colour            colorless
_exptl_crystal_description       prism
_cell_formula_units_Z            4
loop_
_atom_site_label
_atom_site_type_symbol
_atom_site_fract_x
_atom_site_fract_y
_atom_site_fract_z
O1 O 0.97294(7) 0.27152(14) 0.93456(4)
H1 H 1.0062(14) 0.212(3) 0.9897(9)
O2 O 0.93138(8) -0.14007(13) 0.91133(4)
C1 C 0.92854(8) 0.08280(17) 0.88691(5)
C2 C 0.87204(8) 0.13572(17) 0.79940(5)
H2 H 0.8498 -0.0033 0.7628
C3 C 0.85060(8) 0.36744(17) 0.76906(5)
H3 H 0.8775 0.5047 0.8059
C4 C 0.78719(9) 0.43016(17) 0.68101(5)
H4 H 0.8431 0.5540 0.6629
H5 H 0.7025 0.5137 0.6771
C5 C 0.76274(8) 0.20681(18) 0.62223(5)
H6 H 0.7090 0.0798 0.6409
H7 H 0.8475 0.1268 0.6239
C6 C 0.69384(9) 0.27988(18) 0.53424(5)
H8 H 0.6093 0.3612 0.5323
H9 H 0.7480 0.4048 0.5150
C7 C 0.66926(9) 0.05248(18) 0.47711(5)
H10 H 0.6206 -0.0769 0.4988
H11 H 0.7545 -0.0219 0.4768
C8 C 0.59285(9) 0.11421(19) 0.38949(5)
H12 H 0.5073 0.1880 0.3894
H13 H 0.6414 0.2427 0.3673
C9 C 0.57005(11) -0.1174(2) 0.33430(6)
H14 H 0.6544 -0.1880 0.3327
H15 H 0.5198 -0.0687 0.2790
H16 H 0.5213 -0.2448 0.3557
loop_
_geom_bond_atom_site_label_1
_geom_bond_atom_site_label_2
_geom_bond_site_symmetry_1
_geom_bond_site_symmetry_2
O1 H1 1_555 1_555
O2 C1 1_555 1_555
C1 O1 1_555 1_555
C2 C1 1_555 1_555
H2 C2 1_555 1_555
C3 C2 1_555 1_555
H3 C3 1_555 1_555
C4 C3 1_555 1_555
H4 C4 1_555 1_555
H5 C4 1_555 1_555
C5 C4 1_555 1_555
H6 C5 1_555 1_555
H7 C5 1_555 1_555
C6 C5 1_555 1_555
H8 C6 1_555 1_555
H9 C6 1_555 1_555
C7 C6 1_555 1_555
H10 C7 1_555 1_555
H11 C7 1_555 1_555
C8 C7 1_555 1_555
H12 C8 1_555 1_555
H13 C8 1_555 1_555
C9 C8 1_555 1_555
H14 C9 1_555 1_555
H15 C9 1_555 1_555
H16 C9 1_555 1_555

#END
