
#######################################################################
#
#                 Cambridge Crystallographic Data Centre
#                                CCDC 
#
#######################################################################
#
# If this CIF has been generated from an entry in the Cambridge 
# Structural Database, then it will include bibliographic, chemical, 
# crystal, experimental, refinement or atomic coordinate data resulting 
# from the CCDC's data processing and validation procedures.
#
#######################################################################

data_SABBEE
_chemical_formula_moiety         'C13 H22 N4 O2 S2'
_chemical_name_systematic        
1-(1,3-Dithiolan-2-ylmethyl)-8-nitro-6-propyl-1,2,3,5,6,7-hexahydroimidazo[1,2-c]pyrimidine
_symmetry_cell_setting           monoclinic
_symmetry_space_group_name_H-M   'P 21/c'
_symmetry_Int_Tables_number      14
_space_group_name_Hall           '-P 2ybc'
loop_
_symmetry_equiv_pos_site_id
_symmetry_equiv_pos_as_xyz
1 x,y,z
2 -x,1/2+y,1/2-z
3 -x,-y,-z
4 x,1/2-y,1/2+z
_cell_length_a                   11.9680(3)
_cell_length_b                   13.6304(3)
_cell_length_c                   10.8866(3)
_cell_angle_alpha                90
_cell_angle_beta                 115.465(3)
_cell_angle_gamma                90
_cell_volume                     1603.38
_exptl_crystal_colour            colorless
_exptl_crystal_description       prism
_cell_formula_units_Z            4
loop_
_atom_site_label
_atom_site_type_symbol
_atom_site_fract_x
_atom_site_fract_y
_atom_site_fract_z
C1 C 0.21596(14) 0.03042(13) 0.24992(18)
H1 H 0.1584 0.0170 0.1565
H2 H 0.1937 -0.0110 0.3083
C2 C 0.30273(15) 0.15638(14) 0.41120(18)
H3 H 0.2960 0.1151 0.4803
H4 H 0.2949 0.2242 0.4336
C3 C 0.52500(16) 0.21274(12) 0.46180(18)
H5 H 0.5517 0.2262 0.5578
H6 H 0.5015 0.2737 0.4112
C4 C 0.62423(15) 0.15974(12) 0.43666(18)
H7 H 0.6609 0.2028 0.3931
H8 H 0.6889 0.1360 0.5214
C5 C 0.44343(13) 0.07042(11) 0.34006(14)
C6 C 0.34568(13) 0.00437(12) 0.26942(15)
C7 C 0.58540(13) 0.05456(12) 0.23001(15)
H9 H 0.6083 0.1149 0.1993
H10 H 0.5103 0.0303 0.1563
C8 C 0.68837(13) -0.02085(12) 0.25948(15)
H11 H 0.6626 -0.0827 0.2855
C9 C 0.88413(18) 0.07980(17) 0.2809(2)
H12 H 0.8400 0.1417 0.2552
H13 H 0.9721 0.0936 0.3266
C10 C 0.85620(19) 0.01841(19) 0.1568(2)
H14 H 0.9206 -0.0304 0.1765
H15 H 0.8548 0.0597 0.0836
C11 C 0.19972(16) 0.19983(15) 0.17239(19)
H16 H 0.2578 0.1771 0.1382
H17 H 0.2256 0.2647 0.2106
C12 C 0.07252(19) 0.20656(19) 0.0556(2)
H18 H 0.0785 0.2407 -0.0195
H19 H 0.0422 0.1409 0.0250
C13 C -0.01760(19) 0.25861(18) 0.0930(3)
H20 H -0.0983 0.2561 0.0181
H21 H 0.0073 0.3258 0.1140
H22 H -0.0200 0.2276 0.1709
N1 N 0.55919(10) 0.07677(9) 0.34598(13)
N2 N 0.42417(11) 0.14173(10) 0.41168(13)
N3 N 0.20390(12) 0.13306(11) 0.28063(14)
N4 N 0.36386(12) -0.08788(10) 0.23411(14)
O1 O 0.46924(10) -0.12073(8) 0.25825(12)
O2 O 0.26936(11) -0.14243(10) 0.17994(15)
S1 S 0.70823(4) -0.04188(4) 0.10432(4)
S2 S 0.83629(3) 0.01316(4) 0.39184(4)
loop_
_geom_bond_atom_site_label_1
_geom_bond_atom_site_label_2
_geom_bond_site_symmetry_1
_geom_bond_site_symmetry_2
C1 H1 1_555 1_555
H2 C1 1_555 1_555
C2 H3 1_555 1_555
H4 C2 1_555 1_555
C3 H5 1_555 1_555
H6 C3 1_555 1_555
C4 C3 1_555 1_555
H7 C4 1_555 1_555
H8 C4 1_555 1_555
C5 C6 1_555 1_555
C6 C1 1_555 1_555
C7 H9 1_555 1_555
H10 C7 1_555 1_555
C8 C7 1_555 1_555
H11 C8 1_555 1_555
C9 H12 1_555 1_555
H13 C9 1_555 1_555
C10 C9 1_555 1_555
H14 C10 1_555 1_555
H15 C10 1_555 1_555
C11 H16 1_555 1_555
H17 C11 1_555 1_555
C12 C11 1_555 1_555
H18 C12 1_555 1_555
H19 C12 1_555 1_555
C13 C12 1_555 1_555
H20 C13 1_555 1_555
H21 C13 1_555 1_555
H22 C13 1_555 1_555
N1 C4 1_555 1_555
N2 C2 1_555 1_555
N3 C1 1_555 1_555
N4 C6 1_555 1_555
O1 N4 1_555 1_555
O2 N4 1_555 1_555
S1 C8 1_555 1_555
S2 C8 1_555 1_555
C2 N3 1_555 1_555
C3 N2 1_555 1_555
C5 N1 1_555 1_555
C5 N2 1_555 1_555
C7 N1 1_555 1_555
C9 S2 1_555 1_555
C10 S1 1_555 1_555
C11 N3 1_555 1_555

#END
