
#######################################################################
#
#                 Cambridge Crystallographic Data Centre
#                                CCDC 
#
#######################################################################
#
# If this CIF has been generated from an entry in the Cambridge 
# Structural Database, then it will include bibliographic, chemical, 
# crystal, experimental, refinement or atomic coordinate data resulting 
# from the CCDC's data processing and validation procedures.
#
#######################################################################

data_SABDAD
_chemical_formula_moiety         'C29 H22 O7'
_chemical_name_systematic        
'2,4,6-tris(4-Carboxyphenyl)-3-methylanisole unknown solvate'
_symmetry_cell_setting           orthorhombic
_symmetry_space_group_name_H-M   'P c a 21'
_symmetry_Int_Tables_number      29
_space_group_name_Hall           'P 2c -2ac'
loop_
_symmetry_equiv_pos_site_id
_symmetry_equiv_pos_as_xyz
1 x,y,z
2 -x,-y,1/2+z
3 1/2+x,-y,z
4 1/2-x,y,1/2+z
_cell_length_a                   7.2941(5)
_cell_length_b                   33.145(2)
_cell_length_c                   33.380(2)
_cell_angle_alpha                90
_cell_angle_beta                 90
_cell_angle_gamma                90
_cell_volume                     8070.05
_exptl_crystal_colour            colorless
_exptl_crystal_description       block
_cell_formula_units_Z            8
loop_
_atom_site_label
_atom_site_type_symbol
_atom_site_fract_x
_atom_site_fract_y
_atom_site_fract_z
O1 O 0.5651(11) 1.00648(18) 0.38452(17)
C1 C 0.5037(8) 0.97643(19) 0.58885(17)
H1 H 0.4350 0.9753 0.6141
H2 H 0.4256 0.9670 0.5669
H3 H 0.5419 1.0043 0.5837
O2 O 0.4846(9) 0.94202(16) 0.37185(14)
H4 H 0.4582 0.9511 0.3491
C2 C 0.6750(8) 0.94913(17) 0.59192(17)
O3 O 1.5619(7) 0.75001(14) 0.60448(19)
C3 C 0.7438(7) 0.93040(16) 0.55800(15)
O4 O 1.7123(7) 0.79856(15) 0.6359(2)
H5 H 1.7899 0.7799 0.6374
C4 C 0.8856(7) 0.90302(17) 0.56341(16)
O5 O 0.5255(12) 0.96985(18) 0.81127(17)
H6 H 0.5060 0.9791 0.8343
C5 C 0.9685(7) 0.89410(17) 0.59747(18)
O6 O 0.5410(10) 1.03837(17) 0.79261(15)
C6 C 0.9024(7) 0.91348(17) 0.63278(16)
H7 H 0.9575 0.9087 0.6581
O7 O 0.9453(7) 0.88339(14) 0.52698(14)
C7 C 0.7496(7) 0.94038(16) 0.62854(15)
C8 C 1.1059(13) 0.9031(2) 0.5075(2)
H8 H 1.1654 0.8838 0.4893
H9 H 1.1934 0.9117 0.5280
H10 H 1.0644 0.9266 0.4922
C9 C 0.6726(7) 0.94018(17) 0.51649(17)
C10 C 0.6962(9) 0.97705(19) 0.50173(19)
H11 H 0.7455 0.9967 0.5194
C11 C 0.6546(8) 0.99021(19) 0.46156(16)
H12 H 0.6768 1.0168 0.4522
C12 C 0.5755(9) 0.9587(2) 0.43705(18)
C13 C 0.5436(9) 0.9224(2) 0.4518(2)
H13 H 0.4896 0.9025 0.4351
C14 C 0.5881(10) 0.9124(2) 0.4921(2)
H14 H 0.5593 0.8863 0.5022
C15 C 0.5464(13) 0.9719(2) 0.3948(2)
C16 C 1.1269(8) 0.86624(17) 0.60136(18)
C17 C 1.1149(8) 0.8262(2) 0.5867(2)
H15 H 1.0102 0.8171 0.5724
C18 C 1.2586(10) 0.8012(2) 0.5940(2)
H16 H 1.2464 0.7738 0.5861
C19 C 1.4227(7) 0.81258(17) 0.61212(19)
C20 C 1.4324(8) 0.85290(19) 0.6268(2)
H17 H 1.5387 0.8617 0.6407
C21 C 1.2821(10) 0.8805(2) 0.6206(2)
H18 H 1.2893 0.9076 0.6295
C22 C 1.5748(9) 0.78634(19) 0.6181(2)
C23 C 0.6806(7) 0.95722(18) 0.66773(16)
C24 C 0.6524(7) 0.99539(17) 0.67565(16)
H19 H 0.6655 1.0136 0.6539
C25 C 0.6042(9) 1.0126(2) 0.71321(19)
H20 H 0.5844 1.0407 0.7173
C26 C 0.5896(8) 0.9840(2) 0.74290(17)
C27 C 0.6123(10) 0.9440(2) 0.7355(2)
H21 H 0.5946 0.9254 0.7569
C28 C 0.6565(9) 0.9302(2) 0.70095(19)
H22 H 0.6735 0.9020 0.6973
C29 C 0.5477(10) 1.0011(2) 0.7848(2)
O8 O 0.9630(10) 0.49373(18) 0.86631(17)
H23 H 0.9711 0.4906 0.8912
C30 C 1.0346(8) 0.52458(19) 0.66310(17)
H24 H 1.0762 0.5173 0.6362
H25 H 1.0024 0.5001 0.6779
H26 H 1.1329 0.5389 0.6772
O9 O 1.0162(9) 0.55679(16) 0.88360(14)
C31 C 0.8675(8) 0.55173(17) 0.66002(17)
O10 O -0.0243(7) 0.74649(14) 0.65132(19)
C32 C 0.7998(6) 0.56920(16) 0.69450(15)
O11 O -0.1822(7) 0.69822(15) 0.6165(2)
H27 H -0.2629 0.7162 0.6144
C33 C 0.6466(7) 0.59523(17) 0.69402(16)
O12 O 1.0032(12) 0.52571(19) 0.43829(17)
C34 C 0.5653(7) 0.60357(17) 0.65574(18)
O13 O 0.9698(10) 0.46499(17) 0.45658(16)
H28 H 0.9990 0.4614 0.4325
C35 C 0.6353(7) 0.58430(16) 0.62321(16)
H29 H 0.5742 0.5883 0.5984
O14 O 0.5884(7) 0.61477(14) 0.72709(14)
C36 C 0.7891(7) 0.55914(16) 0.62296(15)
C37 C 0.4279(13) 0.5977(2) 0.7416(3)
H30 H 0.4220 0.5693 0.7336
H31 H 0.3222 0.6122 0.7306
H32 H 0.4261 0.5996 0.7709
C38 C 0.8671(7) 0.55953(18) 0.73622(16)
C39 C 0.8380(9) 0.51935(19) 0.75059(19)
H33 H 0.7894 0.4985 0.7342
C40 C 0.8844(9) 0.51332(19) 0.78887(17)
H34 H 0.8660 0.4868 0.7989
C41 C 0.9538(9) 0.5401(2) 0.81494(18)
C42 C 0.9842(9) 0.5807(2) 0.8001(2)
H35 H 1.0374 0.6009 0.8167
C43 C 0.9349(10) 0.5890(2) 0.7623(2)
H36 H 0.9464 0.6160 0.7529
C44 C 0.9865(12) 0.5309(2) 0.8577(2)
C45 C 0.4069(8) 0.63040(17) 0.65237(18)
C46 C 0.4201(8) 0.6700(2) 0.6681(2)
H37 H 0.5279 0.6787 0.6815
C47 C 0.2676(10) 0.6963(2) 0.6634(2)
H38 H 0.2710 0.7230 0.6738
C48 C 0.1129(7) 0.68220(17) 0.64310(19)
C49 C 0.1035(8) 0.64482(19) 0.6286(3)
H39 H -0.0046 0.6356 0.6156
C50 C 0.2474(10) 0.6207(2) 0.6325(2)
H40 H 0.2399 0.5946 0.6207
C51 C -0.0405(9) 0.71261(19) 0.6371(2)
C52 C 0.8485(7) 0.54220(18) 0.58311(16)
C53 C 0.8815(8) 0.49989(17) 0.57703(16)
H41 H 0.8762 0.4814 0.5988
C54 C 0.9202(8) 0.4873(2) 0.5399(2)
H42 H 0.9319 0.4590 0.5358
C55 C 0.9458(8) 0.5134(2) 0.50493(17)
C56 C 0.9141(10) 0.5548(2) 0.5111(2)
H43 H 0.9237 0.5733 0.4895
C57 C 0.8662(9) 0.5690(2) 0.5513(2)
H44 H 0.8468 0.5970 0.5557
C58 C 0.9670(10) 0.5028(2) 0.4643(2)
loop_
_geom_bond_atom_site_label_1
_geom_bond_atom_site_label_2
_geom_bond_site_symmetry_1
_geom_bond_site_symmetry_2
O1 C15 1_555 1_555
C1 H1 1_555 1_555
H2 C1 1_555 1_555
H3 C1 1_555 1_555
O2 H4 1_555 1_555
C2 C1 1_555 1_555
O3 C22 1_555 1_555
C3 C2 1_555 1_555
O4 H5 1_555 1_555
C4 C3 1_555 1_555
O5 H6 1_555 1_555
C5 C4 1_555 1_555
O6 C29 1_555 1_555
C6 C5 1_555 1_555
H7 C6 1_555 1_555
O7 C4 1_555 1_555
C7 C2 1_555 1_555
C8 O7 1_555 1_555
H8 C8 1_555 1_555
H9 C8 1_555 1_555
H10 C8 1_555 1_555
C9 C3 1_555 1_555
C10 C9 1_555 1_555
H11 C10 1_555 1_555
C11 C10 1_555 1_555
H12 C11 1_555 1_555
C12 C11 1_555 1_555
C13 C12 1_555 1_555
H13 C13 1_555 1_555
C14 C9 1_555 1_555
H14 C14 1_555 1_555
C15 O2 1_555 1_555
C16 C5 1_555 1_555
C17 C16 1_555 1_555
H15 C17 1_555 1_555
C18 C17 1_555 1_555
H16 C18 1_555 1_555
C19 C18 1_555 1_555
C20 C19 1_555 1_555
H17 C20 1_555 1_555
C21 C16 1_555 1_555
H18 C21 1_555 1_555
C22 O4 1_555 1_555
C23 C7 1_555 1_555
C24 C23 1_555 1_555
H19 C24 1_555 1_555
C25 C24 1_555 1_555
H20 C25 1_555 1_555
C26 C25 1_555 1_555
C27 C26 1_555 1_555
H21 C27 1_555 1_555
C28 C23 1_555 1_555
H22 C28 1_555 1_555
C29 O5 1_555 1_555
O8 H23 1_555 1_555
C30 H24 1_555 1_555
H25 C30 1_555 1_555
H26 C30 1_555 1_555
O9 C44 1_555 1_555
C31 C30 1_555 1_555
O10 C51 1_555 1_555
C32 C31 1_555 1_555
O11 H27 1_555 1_555
C33 C32 1_555 1_555
O12 C58 1_555 1_555
C34 C33 1_555 1_555
O13 H28 1_555 1_555
C35 C34 1_555 1_555
H29 C35 1_555 1_555
O14 C33 1_555 1_555
C36 C31 1_555 1_555
C37 O14 1_555 1_555
H30 C37 1_555 1_555
H31 C37 1_555 1_555
H32 C37 1_555 1_555
C38 C32 1_555 1_555
C39 C38 1_555 1_555
H33 C39 1_555 1_555
C40 C39 1_555 1_555
H34 C40 1_555 1_555
C41 C40 1_555 1_555
C42 C41 1_555 1_555
H35 C42 1_555 1_555
C43 C38 1_555 1_555
H36 C43 1_555 1_555
C44 O8 1_555 1_555
C45 C34 1_555 1_555
C46 C45 1_555 1_555
H37 C46 1_555 1_555
C47 C46 1_555 1_555
H38 C47 1_555 1_555
C48 C47 1_555 1_555
C49 C48 1_555 1_555
H39 C49 1_555 1_555
C50 C45 1_555 1_555
H40 C50 1_555 1_555
C51 O11 1_555 1_555
C52 C36 1_555 1_555
C53 C52 1_555 1_555
H41 C53 1_555 1_555
C54 C53 1_555 1_555
H42 C54 1_555 1_555
C55 C54 1_555 1_555
C56 C55 1_555 1_555
H43 C56 1_555 1_555
C57 C52 1_555 1_555
H44 C57 1_555 1_555
C58 O13 1_555 1_555
C6 C7 1_555 1_555
C12 C15 1_555 1_555
C13 C14 1_555 1_555
C19 C22 1_555 1_555
C20 C21 1_555 1_555
C26 C29 1_555 1_555
C27 C28 1_555 1_555
C35 C36 1_555 1_555
C41 C44 1_555 1_555
C42 C43 1_555 1_555
C48 C51 1_555 1_555
C49 C50 1_555 1_555
C55 C58 1_555 1_555
C56 C57 1_555 1_555

#END
