
#######################################################################
#
#                 Cambridge Crystallographic Data Centre
#                                CCDC 
#
#######################################################################
#
# If this CIF has been generated from an entry in the Cambridge 
# Structural Database, then it will include bibliographic, chemical, 
# crystal, experimental, refinement or atomic coordinate data resulting 
# from the CCDC's data processing and validation procedures.
#
#######################################################################

data_SABFOT
_chemical_formula_moiety         'C40 H48 N2'
_chemical_name_systematic        
N,N'-bis(2,6-diisopropylphenyl)-2-methyl-1,3-diphenylpropane-1,3-diimine
_symmetry_cell_setting           monoclinic
_symmetry_space_group_name_H-M   'P 21/n'
_symmetry_Int_Tables_number      14
_space_group_name_Hall           '-P 2yn'
loop_
_symmetry_equiv_pos_site_id
_symmetry_equiv_pos_as_xyz
1 x,y,z
2 1/2-x,1/2+y,1/2-z
3 -x,-y,-z
4 1/2+x,1/2-y,1/2+z
_cell_length_a                   14.326(3)
_cell_length_b                   15.152(3)
_cell_length_c                   16.374(3)
_cell_angle_alpha                90
_cell_angle_beta                 104.770(4)
_cell_angle_gamma                90
_cell_volume                     3436.82
_exptl_crystal_colour            yellow
_exptl_crystal_description       block
_cell_formula_units_Z            4
loop_
_atom_site_label
_atom_site_type_symbol
_atom_site_fract_x
_atom_site_fract_y
_atom_site_fract_z
N1 N 0.48042(14) 0.35890(13) 0.22118(13)
C1 C 0.52560(17) 0.32048(16) 0.28897(16)
N2 N 0.72888(14) 0.35027(14) 0.20939(13)
C2 C 0.63328(17) 0.30662(17) 0.30289(17)
H1 H 0.6623 0.3110 0.3638
C3 C 0.68098(16) 0.37660(17) 0.26031(16)
C4 C 0.6500(2) 0.21317(19) 0.2766(2)
H2 H 0.6199 0.2057 0.2175
H3 H 0.6225 0.1721 0.3086
H4 H 0.7180 0.2025 0.2870
C5 C 0.66941(18) 0.46999(18) 0.28496(17)
C6 C 0.6914(3) 0.4947(2) 0.3688(2)
H5 H 0.7131 0.4525 0.4106
C7 C 0.6814(3) 0.5821(3) 0.3917(2)
H6 H 0.6978 0.5980 0.4484
C8 C 0.6480(2) 0.6442(2) 0.3317(3)
H7 H 0.6418 0.7025 0.3471
C9 C 0.6236(2) 0.6203(2) 0.2485(2)
H8 H 0.5995 0.6625 0.2073
C10 C 0.63439(19) 0.53434(19) 0.22506(18)
H9 H 0.6179 0.5194 0.1681
C11 C 0.48332(17) 0.28053(17) 0.35512(16)
C12 C 0.4080(2) 0.22039(19) 0.33580(19)
H10 H 0.3802 0.2059 0.2797
C13 C 0.3738(2) 0.1817(2) 0.3987(2)
H11 H 0.3237 0.1409 0.3848
C14 C 0.4137(2) 0.2033(2) 0.4821(2)
H12 H 0.3909 0.1770 0.5246
C15 C 0.4862(2) 0.2632(2) 0.50185(18)
H13 H 0.5123 0.2787 0.5580
C16 C 0.52152(19) 0.30109(19) 0.43966(17)
H14 H 0.5720 0.3413 0.4545
C17 C 0.37800(17) 0.36984(17) 0.19879(16)
C18 C 0.33246(19) 0.43128(19) 0.23913(17)
C19 C 0.2327(2) 0.4391(2) 0.2095(2)
H15 H 0.2007 0.4792 0.2357
C20 C 0.1798(2) 0.3903(2) 0.1436(2)
H16 H 0.1131 0.3965 0.1260
C21 C 0.2265(2) 0.3321(2) 0.1038(2)
H17 H 0.1906 0.2989 0.0589
C22 C 0.32572(19) 0.32145(18) 0.12871(17)
C23 C 0.3755(2) 0.2599(2) 0.0807(2)
H18 H 0.4451 0.2623 0.1070
C24 C 0.3425(4) 0.1643(3) 0.0832(3)
H19 H 0.3599 0.1435 0.1405
H20 H 0.3731 0.1283 0.0494
H21 H 0.2737 0.1612 0.0615
C25 C 0.3589(3) 0.2858(3) -0.0114(2)
H22 H 0.2909 0.2855 -0.0380
H23 H 0.3909 0.2445 -0.0395
H24 H 0.3843 0.3439 -0.0151
C26 C 0.3862(2) 0.4903(2) 0.31001(19)
H25 H 0.4548 0.4749 0.3224
C27 C 0.3527(3) 0.4760(3) 0.3908(2)
H26 H 0.2877 0.4971 0.3823
H27 H 0.3943 0.5078 0.4366
H28 H 0.3550 0.4142 0.4041
C28 C 0.3760(3) 0.5877(2) 0.2833(2)
H29 H 0.3989 0.5956 0.2336
H30 H 0.4133 0.6236 0.3282
H31 H 0.3093 0.6047 0.2715
C29 C 0.78081(18) 0.40868(16) 0.16862(16)
C30 C 0.74011(19) 0.42928(18) 0.08353(17)
C31 C 0.7930(2) 0.48277(19) 0.04298(19)
H32 H 0.7664 0.4992 -0.0128
C32 C 0.8837(2) 0.51198(19) 0.0836(2)
H33 H 0.9176 0.5481 0.0553
C33 C 0.9244(2) 0.48812(19) 0.1657(2)
H34 H 0.9866 0.5070 0.1920
C34 C 0.87428(19) 0.43604(18) 0.21037(18)
C35 C 0.9221(2) 0.4096(2) 0.3000(2)
H35 H 0.8752 0.3742 0.3202
C36 C 0.9480(3) 0.4874(3) 0.3586(2)
H36 H 0.9954 0.5229 0.3418
H37 H 0.9739 0.4667 0.4153
H38 H 0.8913 0.5221 0.3562
C37 C 1.0101(3) 0.3506(3) 0.3039(3)
H39 H 0.9917 0.3022 0.2653
H40 H 1.0340 0.3283 0.3602
H41 H 1.0597 0.3844 0.2885
C38 C 0.6431(2) 0.39132(19) 0.03797(18)
H42 H 0.6011 0.3953 0.0767
C39 C 0.6521(2) 0.2938(2) 0.0184(2)
H43 H 0.6909 0.2875 -0.0211
H44 H 0.5891 0.2696 -0.0055
H45 H 0.6820 0.2628 0.0696
C40 C 0.5927(3) 0.4409(3) -0.0426(2)
H46 H 0.5882 0.5024 -0.0299
H47 H 0.5291 0.4173 -0.0646
H48 H 0.6293 0.4343 -0.0839
loop_
_geom_bond_atom_site_label_1
_geom_bond_atom_site_label_2
_geom_bond_site_symmetry_1
_geom_bond_site_symmetry_2
N1 C1 1_555 1_555
C1 C2 1_555 1_555
N2 C3 1_555 1_555
C2 H1 1_555 1_555
C3 C2 1_555 1_555
C4 C2 1_555 1_555
H2 C4 1_555 1_555
H3 C4 1_555 1_555
H4 C4 1_555 1_555
C5 C3 1_555 1_555
C6 C5 1_555 1_555
H5 C6 1_555 1_555
C7 C6 1_555 1_555
H6 C7 1_555 1_555
C8 C7 1_555 1_555
H7 C8 1_555 1_555
C9 C8 1_555 1_555
H8 C9 1_555 1_555
C10 C5 1_555 1_555
H9 C10 1_555 1_555
C11 C1 1_555 1_555
C12 C11 1_555 1_555
H10 C12 1_555 1_555
C13 C12 1_555 1_555
H11 C13 1_555 1_555
C14 C13 1_555 1_555
H12 C14 1_555 1_555
C15 C14 1_555 1_555
H13 C15 1_555 1_555
C16 C11 1_555 1_555
H14 C16 1_555 1_555
C17 N1 1_555 1_555
C18 C17 1_555 1_555
C19 C18 1_555 1_555
H15 C19 1_555 1_555
C20 C19 1_555 1_555
H16 C20 1_555 1_555
C21 C20 1_555 1_555
H17 C21 1_555 1_555
C22 C17 1_555 1_555
C23 C22 1_555 1_555
H18 C23 1_555 1_555
C24 C23 1_555 1_555
H19 C24 1_555 1_555
H20 C24 1_555 1_555
H21 C24 1_555 1_555
C25 C23 1_555 1_555
H22 C25 1_555 1_555
H23 C25 1_555 1_555
H24 C25 1_555 1_555
C26 C18 1_555 1_555
H25 C26 1_555 1_555
C27 C26 1_555 1_555
H26 C27 1_555 1_555
H27 C27 1_555 1_555
H28 C27 1_555 1_555
C28 C26 1_555 1_555
H29 C28 1_555 1_555
H30 C28 1_555 1_555
H31 C28 1_555 1_555
C29 N2 1_555 1_555
C30 C29 1_555 1_555
C31 C30 1_555 1_555
H32 C31 1_555 1_555
C32 C31 1_555 1_555
H33 C32 1_555 1_555
C33 C32 1_555 1_555
H34 C33 1_555 1_555
C34 C29 1_555 1_555
C35 C34 1_555 1_555
H35 C35 1_555 1_555
C36 C35 1_555 1_555
H36 C36 1_555 1_555
H37 C36 1_555 1_555
H38 C36 1_555 1_555
C37 C35 1_555 1_555
H39 C37 1_555 1_555
H40 C37 1_555 1_555
H41 C37 1_555 1_555
C38 C30 1_555 1_555
H42 C38 1_555 1_555
C39 C38 1_555 1_555
H43 C39 1_555 1_555
H44 C39 1_555 1_555
H45 C39 1_555 1_555
C40 C38 1_555 1_555
H46 C40 1_555 1_555
H47 C40 1_555 1_555
H48 C40 1_555 1_555
C9 C10 1_555 1_555
C15 C16 1_555 1_555
C21 C22 1_555 1_555
C33 C34 1_555 1_555

#END
