
#######################################################################
#
#                 Cambridge Crystallographic Data Centre
#                                CCDC 
#
#######################################################################
#
# If this CIF has been generated from an entry in the Cambridge 
# Structural Database, then it will include bibliographic, chemical, 
# crystal, experimental, refinement or atomic coordinate data resulting 
# from the CCDC's data processing and validation procedures.
#
#######################################################################

data_SABHOU
_chemical_name_common            
"5'-Amino-2-oxo-2',3'-dihydrospiro[indoline-3,7'-thieno[3,2-b]pyran]-6'-carbonitrile 1',1'-dioxide"
_chemical_formula_moiety         'C15 H11 N3 O4 S1'
_chemical_name_systematic        
"5'-Amino-2-oxo-1,2,2',3'-tetrahydrospiro[indole-3,7'-thieno[3,2-b]pyran]-6'-carbonitrile 1',1'-dioxide"
_symmetry_cell_setting           monoclinic
_symmetry_space_group_name_H-M   'C 2/c'
_symmetry_Int_Tables_number      15
_space_group_name_Hall           '-C 2yn'
loop_
_symmetry_equiv_pos_site_id
_symmetry_equiv_pos_as_xyz
1 x,y,z
2 -x,y,1/2-z
3 1/2+x,1/2+y,z
4 1/2-x,1/2+y,1/2-z
5 -x,-y,-z
6 x,-y,1/2+z
7 1/2-x,1/2-y,-z
8 1/2+x,1/2-y,1/2+z
_cell_length_a                   30.669(4)
_cell_length_b                   8.1760(14)
_cell_length_c                   12.229(2)
_cell_angle_alpha                90
_cell_angle_beta                 112.611(8)
_cell_angle_gamma                90
_cell_volume                     2830.72
_exptl_crystal_colour            colorless
_exptl_crystal_description       prism
_cell_formula_units_Z            8
loop_
_atom_site_label
_atom_site_type_symbol
_atom_site_fract_x
_atom_site_fract_y
_atom_site_fract_z
S1 S 0.147537(9) 0.29057(3) 0.24536(2)
O1 O 0.02172(3) 0.46422(10) 0.16158(7)
O2 O 0.16145(3) 0.24351(12) 0.15034(8)
O3 O 0.18485(3) 0.33938(10) 0.35503(7)
O4 O 0.10067(3) 0.52484(10) -0.05002(7)
N1 N -0.02109(3) 0.68754(13) 0.09053(9)
N2 N 0.16403(3) 0.67827(13) 0.06897(9)
N3 N 0.05132(3) 0.96181(13) 0.00106(9)
C1 C 0.02156(4) 0.62030(13) 0.12026(9)
C2 C 0.06085(4) 0.68905(13) 0.11213(9)
C3 C 0.10896(3) 0.60632(13) 0.15197(9)
C4 C 0.10317(4) 0.43896(13) 0.19455(9)
C5 C 0.06325(4) 0.37984(13) 0.19645(9)
C6 C 0.06143(4) 0.21074(13) 0.23920(10)
H1 H 0.0382 0.1442 0.1757
H2 H 0.0520 0.2125 0.3081
C7 C 0.11110(4) 0.13877(14) 0.27463(11)
H3 H 0.1100 0.0386 0.2282
H4 H 0.1241 0.1098 0.3598
C8 C 0.05546(4) 0.84058(13) 0.05249(9)
C9 C 0.12351(4) 0.59395(14) 0.04311(9)
C10 C 0.18025(4) 0.74686(15) 0.18382(10)
C11 C 0.14933(4) 0.70594(13) 0.23842(10)
C12 C 0.15829(4) 0.75477(14) 0.35300(10)
H5 H 0.1377 0.7253 0.3911
C13 C 0.19871(4) 0.84902(15) 0.41138(11)
H6 H 0.2057 0.8843 0.4903
C14 C 0.22859(4) 0.89130(17) 0.35519(12)
H7 H 0.2556 0.9564 0.3964
C15 C 0.22021(4) 0.84121(17) 0.24027(12)
H8 H 0.2409 0.8702 0.2022
H9 H -0.0266(6) 0.792(2) 0.0714(15)
H10 H -0.0445(6) 0.623(2) 0.0855(14)
H11 H 0.1762(6) 0.6867(19) 0.0186(15)
loop_
_geom_bond_atom_site_label_1
_geom_bond_atom_site_label_2
_geom_bond_site_symmetry_1
_geom_bond_site_symmetry_2
S1 O2 1_555 1_555
O1 C1 1_555 1_555
O3 S1 1_555 1_555
O4 C9 1_555 1_555
N1 C1 1_555 1_555
N2 C9 1_555 1_555
N3 C8 1_555 1_555
C1 C2 1_555 1_555
C2 C3 1_555 1_555
C3 C4 1_555 1_555
C4 S1 1_555 1_555
C5 O1 1_555 1_555
C6 C5 1_555 1_555
H1 C6 1_555 1_555
H2 C6 1_555 1_555
C7 S1 1_555 1_555
H3 C7 1_555 1_555
H4 C7 1_555 1_555
C8 C2 1_555 1_555
C9 C3 1_555 1_555
C10 N2 1_555 1_555
C11 C3 1_555 1_555
C12 C11 1_555 1_555
H5 C12 1_555 1_555
C13 C12 1_555 1_555
H6 C13 1_555 1_555
C14 C13 1_555 1_555
H7 C14 1_555 1_555
C15 C10 1_555 1_555
H8 C15 1_555 1_555
H9 N1 1_555 1_555
H10 N1 1_555 1_555
H11 N2 1_555 1_555
C4 C5 1_555 1_555
C6 C7 1_555 1_555
C10 C11 1_555 1_555
C14 C15 1_555 1_555

#END
