
#######################################################################
#
#                 Cambridge Crystallographic Data Centre
#                                CCDC 
#
#######################################################################
#
# If this CIF has been generated from an entry in the Cambridge 
# Structural Database, then it will include bibliographic, chemical, 
# crystal, experimental, refinement or atomic coordinate data resulting 
# from the CCDC's data processing and validation procedures.
#
#######################################################################

data_SABKAI
_chemical_formula_moiety         'C15 H13 Cl1 N2 O2 S1'
_chemical_name_systematic        
N-(4-Chlorobenzoyl)-N'-(4-methoxyphenyl)thiourea
_symmetry_cell_setting           monoclinic
_symmetry_space_group_name_H-M   'P 21/n'
_symmetry_Int_Tables_number      14
_space_group_name_Hall           '-P 2yn'
loop_
_symmetry_equiv_pos_site_id
_symmetry_equiv_pos_as_xyz
1 x,y,z
2 1/2+x,1/2-y,1/2+z
3 -x,-y,-z
4 1/2-x,1/2+y,1/2-z
_cell_length_a                   12.125(2)
_cell_length_b                   6.3650(6)
_cell_length_c                   19.755(3)
_cell_angle_alpha                90
_cell_angle_beta                 103.200(6)
_cell_angle_gamma                90
_cell_volume                     1484.32
_exptl_crystal_colour            light-yellow
_exptl_crystal_description       chunk
_chemical_melting_point          '157-158 deg.C'
_cell_formula_units_Z            4
_exptl_crystal_recrystallization_method benzene
loop_
_atom_site_label
_atom_site_type_symbol
_atom_site_fract_x
_atom_site_fract_y
_atom_site_fract_z
Cl1 Cl 0.62834(4) -0.47226(7) -0.04014(2)
S1 S 1.09152(4) 0.63724(7) 0.09061(2)
O1 O 0.77648(11) 0.3886(2) 0.15204(6)
O2 O 1.03457(12) 1.4015(2) 0.32725(7)
N1 N 0.91174(11) 0.4062(2) 0.08906(7)
N2 N 0.93381(11) 0.6795(2) 0.16701(7)
C1 C 0.77621(13) 0.1176(2) 0.07004(7)
C2 C 0.8355(1) 0.0045(3) 0.02967(8)
C3 C 0.7901(1) -0.1779(3) -0.00418(8)
C4 C 0.68501(13) -0.2456(3) 0.00343(7)
C5 C 0.6250(1) -0.1376(3) 0.04429(8)
C6 C 0.6711(1) 0.0440(3) 0.07762(8)
C7 C 0.82006(13) 0.3138(2) 0.10734(7)
C8 C 0.97505(13) 0.5802(3) 0.11870(7)
C9 C 0.96875(13) 0.8637(2) 0.20593(7)
C10 C 0.9025(1) 0.9205(3) 0.25201(8)
C11 C 0.9269(2) 1.1000(3) 0.29152(8)
C12 C 1.0187(1) 1.2251(3) 0.28679(8)
C13 C 1.0853(2) 1.1698(3) 0.24162(9)
C14 C 1.0604(2) 0.9896(3) 0.20082(10)
C15 C 1.1326(2) 1.5236(3) 0.32727(11)
H1 H 0.93527(11) 0.3631(2) 0.05050(7)
H2 H 0.87026(11) 0.6293(2) 0.17376(7)
H3 H 0.9074(1) 0.0435(3) 0.02418(8)
H4 H 0.8276(1) -0.2556(3) -0.03190(8)
H5 H 0.5509(1) -0.1847(3) 0.04837(8)
H6 H 0.6369(1) 0.1179(3) 0.10450(8)
H7 H 0.8385(1) 0.8334(3) 0.25468(8)
H8 H 0.8766(2) 1.1366(3) 0.32048(8)
H9 H 1.1509(2) 1.2555(3) 0.23956(9)
H10 H 1.1034(2) 0.9497(3) 0.16832(10)
H11 H 1.1408(2) 1.5641(3) 0.28391(11)
H12 H 1.1228(2) 1.6442(3) 0.34991(11)
H13 H 1.2048(2) 1.4451(3) 0.34791(11)
loop_
_geom_bond_atom_site_label_1
_geom_bond_atom_site_label_2
_geom_bond_site_symmetry_1
_geom_bond_site_symmetry_2
Cl1 C4 1_555 1_555
S1 C8 1_555 1_555
O1 C7 1_555 1_555
O2 C12 1_555 1_555
N1 C7 1_555 1_555
N2 C8 1_555 1_555
C1 C2 1_555 1_555
C2 C3 1_555 1_555
C3 C4 1_555 1_555
C4 C5 1_555 1_555
C5 C6 1_555 1_555
C6 C1 1_555 1_555
C7 C1 1_555 1_555
C8 N1 1_555 1_555
C9 N2 1_555 1_555
C10 C9 1_555 1_555
C11 C10 1_555 1_555
C12 C11 1_555 1_555
C13 C12 1_555 1_555
C14 C9 1_555 1_555
C15 O2 1_555 1_555
H1 N1 1_555 1_555
H2 N2 1_555 1_555
H3 C2 1_555 1_555
H4 C3 1_555 1_555
H5 C5 1_555 1_555
H6 C6 1_555 1_555
H7 C10 1_555 1_555
H8 C11 1_555 1_555
H9 C13 1_555 1_555
H10 C14 1_555 1_555
H11 C15 1_555 1_555
H12 C15 1_555 1_555
H13 C15 1_555 1_555
C13 C14 1_555 1_555

#END
