
#######################################################################
#
#                 Cambridge Crystallographic Data Centre
#                                CCDC 
#
#######################################################################
#
# If this CIF has been generated from an entry in the Cambridge 
# Structural Database, then it will include bibliographic, chemical, 
# crystal, experimental, refinement or atomic coordinate data resulting 
# from the CCDC's data processing and validation procedures.
#
#######################################################################

data_SABNOB
_chemical_compound_source        'Euphorbia fischeriana Steud'
_chemical_formula_moiety         'C20 H34 O4'
_chemical_name_systematic        atisane-1,3,16,17-tetrol
_chemical_properties_biological  'MCF-7 inhibitory activity; cytotoxic activity'
_symmetry_cell_setting           orthorhombic
_symmetry_space_group_name_H-M   'P 21 21 21'
_symmetry_Int_Tables_number      19
_space_group_name_Hall           'P 2ac 2ab'
loop_
_symmetry_equiv_pos_site_id
_symmetry_equiv_pos_as_xyz
1 x,y,z
2 1/2-x,-y,1/2+z
3 1/2+x,1/2-y,-z
4 -x,1/2+y,1/2-z
_cell_length_a                   7.1632(3)
_cell_length_b                   11.8779(5)
_cell_length_c                   22.0984(10)
_cell_angle_alpha                90
_cell_angle_beta                 90
_cell_angle_gamma                90
_cell_volume                     1880.22
_exptl_crystal_colour            colorless
_exptl_crystal_description       block
_cell_formula_units_Z            4
loop_
_atom_site_label
_atom_site_type_symbol
_atom_site_fract_x
_atom_site_fract_y
_atom_site_fract_z
C1 C 0.3964(2) 0.48479(15) 0.84096(8)
H1 H 0.3242 0.4940 0.8036
C2 C 0.4195(3) 0.60040(15) 0.86983(9)
H2 H 0.4979 0.5935 0.9054
H3 H 0.4825 0.6499 0.8415
C3 C 0.2353(3) 0.65272(16) 0.88779(9)
H4 H 0.2600 0.7249 0.9078
C4 C 0.1234(3) 0.57754(16) 0.93129(9)
C5 C 0.1069(2) 0.45751(15) 0.90247(8)
H5 H 0.0364 0.4693 0.8650
C6 C 0.2929(2) 0.39945(15) 0.88157(8)
C7 C 0.2318(2) 0.29621(15) 0.84202(8)
H6 H 0.1660 0.3294 0.8075
C8 C 0.0875(2) 0.21436(15) 0.87122(8)
C9 C -0.0742(3) 0.27802(15) 0.90012(8)
H7 H -0.1553 0.3061 0.8684
H8 H -0.1462 0.2261 0.9247
C10 C -0.0127(2) 0.37608(17) 0.93933(9)
H9 H 0.0586 0.3482 0.9735
H10 H -0.1215 0.4152 0.9548
C11 C 0.3910(2) 0.22520(15) 0.81343(9)
H11 H 0.4026 0.2440 0.7709
H12 H 0.5082 0.2434 0.8331
C12 C 0.3521(2) 0.09837(15) 0.82000(9)
H13 H 0.4529 0.0555 0.8008
C13 C 0.3453(3) 0.07085(17) 0.88739(9)
H14 H 0.4606 0.0945 0.9066
H15 H 0.3322 -0.0098 0.8930
C14 C 0.1785(3) 0.13222(16) 0.91671(9)
H16 H 0.2209 0.1736 0.9520
H17 H 0.0868 0.0774 0.9300
C15 C 0.0118(2) 0.14175(16) 0.81907(9)
H18 H -0.0416 0.1904 0.7884
H19 H -0.0869 0.0935 0.8343
C16 C 0.1657(2) 0.06821(15) 0.79019(8)
C17 C 0.2160(3) 0.5801(2) 0.99402(10)
H20 H 0.2037 0.6540 1.0111
H21 H 0.3459 0.5616 0.9901
H22 H 0.1562 0.5262 1.0200
C18 C -0.0725(3) 0.62906(18) 0.93861(11)
H23 H -0.0614 0.7083 0.9464
H24 H -0.1354 0.5934 0.9718
H25 H -0.1428 0.6176 0.9021
C19 C 0.4218(3) 0.36464(17) 0.93435(8)
H26 H 0.5017 0.4265 0.9448
H27 H 0.4965 0.3014 0.9223
H28 H 0.3473 0.3443 0.9688
C20 C 0.1132(3) -0.05526(16) 0.79722(10)
H29 H 0.0744 -0.0679 0.8387
H30 H 0.0066 -0.0706 0.7715
O1 O 0.57832(17) 0.44248(12) 0.82503(6)
H31 H 0.6581 0.4886 0.8347
O2 O 0.12584(19) 0.67325(11) 0.83430(7)
H32 H 0.1741 0.7265 0.8166
O3 O 0.18653(19) 0.09224(12) 0.72649(6)
H33 H 0.0852 0.1106 0.7123
O4 O 0.2575(2) -0.13414(11) 0.78285(7)
H34 H 0.3033 -0.1181 0.7500
loop_
_geom_bond_atom_site_label_1
_geom_bond_atom_site_label_2
_geom_bond_site_symmetry_1
_geom_bond_site_symmetry_2
C1 H1 1_555 1_555
C2 C1 1_555 1_555
H2 C2 1_555 1_555
H3 C2 1_555 1_555
C3 C2 1_555 1_555
H4 C3 1_555 1_555
C4 C3 1_555 1_555
C5 C4 1_555 1_555
H5 C5 1_555 1_555
C6 C1 1_555 1_555
C7 C6 1_555 1_555
H6 C7 1_555 1_555
C8 C7 1_555 1_555
C9 C8 1_555 1_555
H7 C9 1_555 1_555
H8 C9 1_555 1_555
C10 C5 1_555 1_555
H9 C10 1_555 1_555
H10 C10 1_555 1_555
C11 C7 1_555 1_555
H11 C11 1_555 1_555
H12 C11 1_555 1_555
C12 C11 1_555 1_555
H13 C12 1_555 1_555
C13 C12 1_555 1_555
H14 C13 1_555 1_555
H15 C13 1_555 1_555
C14 C8 1_555 1_555
H16 C14 1_555 1_555
H17 C14 1_555 1_555
C15 C8 1_555 1_555
H18 C15 1_555 1_555
H19 C15 1_555 1_555
C16 C12 1_555 1_555
C17 C4 1_555 1_555
H20 C17 1_555 1_555
H21 C17 1_555 1_555
H22 C17 1_555 1_555
C18 C4 1_555 1_555
H23 C18 1_555 1_555
H24 C18 1_555 1_555
H25 C18 1_555 1_555
C19 C6 1_555 1_555
H26 C19 1_555 1_555
H27 C19 1_555 1_555
H28 C19 1_555 1_555
C20 C16 1_555 1_555
H29 C20 1_555 1_555
H30 C20 1_555 1_555
O1 C1 1_555 1_555
H31 O1 1_555 1_555
O2 C3 1_555 1_555
H32 O2 1_555 1_555
O3 C16 1_555 1_555
H33 O3 1_555 1_555
O4 C20 1_555 1_555
H34 O4 1_555 1_555
C5 C6 1_555 1_555
C9 C10 1_555 1_555
C13 C14 1_555 1_555
C15 C16 1_555 1_555

#END
