
#######################################################################
#
#                 Cambridge Crystallographic Data Centre
#                                CCDC 
#
#######################################################################
#
# If this CIF has been generated from an entry in the Cambridge 
# Structural Database, then it will include bibliographic, chemical, 
# crystal, experimental, refinement or atomic coordinate data resulting 
# from the CCDC's data processing and validation procedures.
#
#######################################################################

data_SABNIU
_chemical_formula_moiety         'C8 H7 N3 O1'
_chemical_name_systematic        2-(4H-1,2,4-Triazol-4-yl)phenol
_symmetry_cell_setting           monoclinic
_symmetry_space_group_name_H-M   'P 21/n'
_symmetry_Int_Tables_number      14
_space_group_name_Hall           '-P 2yn'
loop_
_symmetry_equiv_pos_site_id
_symmetry_equiv_pos_as_xyz
1 x,y,z
2 1/2-x,1/2+y,1/2-z
3 -x,-y,-z
4 1/2+x,1/2-y,1/2+z
_cell_length_a                   7.273(3)
_cell_length_b                   14.265(4)
_cell_length_c                   7.720(3)
_cell_angle_alpha                90
_cell_angle_beta                 90.93(3)
_cell_angle_gamma                90
_cell_volume                     800.839
_exptl_crystal_colour            black
_exptl_crystal_description       block
_cell_formula_units_Z            4
loop_
_atom_site_label
_atom_site_type_symbol
_atom_site_fract_x
_atom_site_fract_y
_atom_site_fract_z
C1 C 0.5881(5) 0.7175(2) 0.7593(5)
H1 H 0.5053 0.7418 0.8381
C2 C 0.7294(5) 0.6248(2) 0.5912(4)
H2 H 0.7633 0.5718 0.5293
C3 C 0.4535(4) 0.5571(2) 0.7425(4)
C4 C 0.5137(4) 0.4665(2) 0.7748(4)
C5 C 0.3858(5) 0.4004(2) 0.8286(4)
H3 H 0.4233 0.3394 0.8527
C6 C 0.2034(5) 0.4252(3) 0.8463(5)
H4 H 0.1194 0.3807 0.8837
C7 C 0.1443(5) 0.5148(3) 0.8091(5)
H5 H 0.0210 0.5308 0.8200
C8 C 0.2698(5) 0.5804(3) 0.7557(5)
H6 H 0.2309 0.6408 0.7284
N1 N 0.7219(4) 0.76432(19) 0.6942(4)
N2 N 0.8157(4) 0.70426(19) 0.5852(4)
N3 N 0.5836(3) 0.62837(17) 0.6985(3)
O1 O 0.6918(3) 0.44556(15) 0.7550(3)
H7 H 0.7472 0.4923 0.7229
loop_
_geom_bond_atom_site_label_1
_geom_bond_atom_site_label_2
_geom_bond_site_symmetry_1
_geom_bond_site_symmetry_2
C1 H1 1_555 1_555
C2 H2 1_555 1_555
C3 C4 1_555 1_555
C4 C5 1_555 1_555
C5 H3 1_555 1_555
C6 C5 1_555 1_555
H4 C6 1_555 1_555
C7 C6 1_555 1_555
H5 C7 1_555 1_555
C8 C3 1_555 1_555
H6 C8 1_555 1_555
N1 C1 1_555 1_555
N2 C2 1_555 1_555
N3 C1 1_555 1_555
O1 C4 1_555 1_555
H7 O1 1_555 1_555
C2 N3 1_555 1_555
C3 N3 1_555 1_555
C7 C8 1_555 1_555
N1 N2 1_555 1_555

#END
