
#######################################################################
#
#                 Cambridge Crystallographic Data Centre
#                                CCDC 
#
#######################################################################
#
# If this CIF has been generated from an entry in the Cambridge 
# Structural Database, then it will include bibliographic, chemical, 
# crystal, experimental, refinement or atomic coordinate data resulting 
# from the CCDC's data processing and validation procedures.
#
#######################################################################

data_SABRIY
_chemical_formula_moiety         'C24 H15 N5'
_chemical_name_systematic        
N-(1,10-Phenanthrolin-2-yl)-1,10-phenanthrolin-2-amine
_symmetry_cell_setting           monoclinic
_symmetry_space_group_name_H-M   'P 21/c'
_symmetry_Int_Tables_number      14
_space_group_name_Hall           '-P 2ybc'
loop_
_symmetry_equiv_pos_site_id
_symmetry_equiv_pos_as_xyz
1 x,y,z
2 -x,1/2+y,1/2-z
3 -x,-y,-z
4 x,1/2-y,1/2+z
_cell_length_a                   13.817(6)
_cell_length_b                   16.748(7)
_cell_length_c                   9.949(9)
_cell_angle_alpha                90
_cell_angle_beta                 108.38(5)
_cell_angle_gamma                90
_cell_volume                     2184.82
_exptl_crystal_colour            red
_cell_formula_units_Z            4
loop_
_atom_site_label
_atom_site_type_symbol
_atom_site_fract_x
_atom_site_fract_y
_atom_site_fract_z
N1 N 0.7340(4) 0.3537(4) 0.5281(6)
N2 N 0.5145(4) 0.1741(3) 0.5079(6)
N3 N 0.4753(4) 0.1020(4) 0.7384(7)
C1 C 0.4286(5) 0.0754(4) 0.6064(8)
N4 N 0.6037(5) 0.2689(3) 0.4188(7)
N5 N 0.8329(5) 0.4940(4) 0.5085(7)
C2 C 0.5332(6) 0.2095(4) 0.3996(7)
C3 C 0.8194(6) 0.3746(5) 0.6383(8)
C4 C 0.6847(6) 0.2846(4) 0.5398(8)
C5 C 0.4140(6) 0.1215(4) 0.2320(7)
H1 H 0.3809 0.1046 0.1399
C6 C 0.8586(6) 0.3283(5) 0.7612(8)
C7 C 0.3044(6) -0.0192(4) 0.4400(9)
H2 H 0.2593 -0.0619 0.4264
C8 C 0.8707(6) 0.4501(5) 0.6276(9)
C9 C 0.3250(6) 0.0145(5) 0.3288(9)
H3 H 0.2927 -0.0051 0.2383
C10 C 0.8049(6) 0.2555(5) 0.7649(9)
H4 H 0.8291 0.2213 0.8419
C11 C 0.3975(6) 0.0818(4) 0.3463(8)
C12 C 0.4809(6) 0.1872(5) 0.2566(8)
H5 H 0.4907 0.2155 0.1814
C13 C 0.4505(5) 0.1095(4) 0.4860(8)
C14 C 0.3538(6) 0.0123(5) 0.5814(8)
C15 C 0.7203(6) 0.2356(4) 0.6597(8)
H6 H 0.6852 0.1892 0.6662
C16 C 0.9564(7) 0.4721(6) 0.7414(10)
C17 C 0.3302(7) -0.0199(5) 0.6983(10)
H7 H 0.282 -0.0603 0.6857
C18 C 0.8797(7) 0.5648(6) 0.4989(10)
H8 H 0.8535 0.5952 0.4174
C19 C 0.3790(7) 0.0092(6) 0.8296(10)
H9 H 0.3649 -0.0122 0.9077
C20 C 0.4523(7) 0.0727(5) 0.8492(9)
H10 H 0.4837 0.0932 0.9393
C21 C 0.9454(7) 0.3514(6) 0.8743(10)
H11 H 0.9692 0.3193 0.9544
C22 C 0.9932(7) 0.4204(7) 0.8646(10)
H12 H 1.0509 0.4352 0.9382
C23 C 1.0053(7) 0.5470(6) 0.7247(13)
H13 H 1.064 0.5637 0.7946
C24 C 0.9641(8) 0.5934(6) 0.6042(12)
H14 H 0.9925 0.6425 0.5946
H15 H 0.608(6) 0.266(5) 0.329(8)
loop_
_geom_bond_atom_site_label_1
_geom_bond_atom_site_label_2
_geom_bond_site_symmetry_1
_geom_bond_site_symmetry_2
N1 C3 1_555 1_555
N2 C2 1_555 1_555
N3 C1 1_555 1_555
C1 C13 1_555 1_555
N4 C2 1_555 1_555
N5 C8 1_555 1_555
C2 C12 1_555 1_555
C3 C6 1_555 1_555
C4 N1 1_555 1_555
C5 H1 1_555 1_555
C6 C10 1_555 1_555
C7 H2 1_555 1_555
C8 C3 1_555 1_555
C9 C7 1_555 1_555
H3 C9 1_555 1_555
C10 H4 1_555 1_555
C11 C5 1_555 1_555
C12 C5 1_555 1_555
H5 C12 1_555 1_555
C13 N2 1_555 1_555
C14 C1 1_555 1_555
C15 C4 1_555 1_555
H6 C15 1_555 1_555
C16 C8 1_555 1_555
C17 C14 1_555 1_555
H7 C17 1_555 1_555
C18 N5 1_555 1_555
H8 C18 1_555 1_555
C19 C17 1_555 1_555
H9 C19 1_555 1_555
C20 N3 1_555 1_555
H10 C20 1_555 1_555
C21 C6 1_555 1_555
H11 C21 1_555 1_555
C22 C16 1_555 1_555
H12 C22 1_555 1_555
C23 C16 1_555 1_555
H13 C23 1_555 1_555
C24 C18 1_555 1_555
H14 C24 1_555 1_555
H15 N4 1_555 1_555
N4 C4 1_555 1_555
C7 C14 1_555 1_555
C9 C11 1_555 1_555
C10 C15 1_555 1_555
C11 C13 1_555 1_555
C19 C20 1_555 1_555
C21 C22 1_555 1_555
C23 C24 1_555 1_555

#END
