
#######################################################################
#
#                 Cambridge Crystallographic Data Centre
#                                CCDC 
#
#######################################################################
#
# If this CIF has been generated from an entry in the Cambridge 
# Structural Database, then it will include bibliographic, chemical, 
# crystal, experimental, refinement or atomic coordinate data resulting 
# from the CCDC's data processing and validation procedures.
#
#######################################################################

data_SABREU
_chemical_formula_moiety         'C24 H16 N5 1+,C1 H4 O1,Cl1 1-'
_chemical_name_systematic        
'2-(1,10-Phenanthrolin-2-ylamino)phenanthrolinium chloride methanol solvate'
_symmetry_cell_setting           orthorhombic
_symmetry_space_group_name_H-M   'P c a 21'
_symmetry_Int_Tables_number      29
_space_group_name_Hall           'P 2c -2ac'
loop_
_symmetry_equiv_pos_site_id
_symmetry_equiv_pos_as_xyz
1 x,y,z
2 -x,-y,1/2+z
3 1/2+x,-y,z
4 1/2-x,y,1/2+z
_cell_length_a                   23.855(3)
_cell_length_b                   7.1932(8)
_cell_length_c                   24.336(2)
_cell_angle_alpha                90
_cell_angle_beta                 90
_cell_angle_gamma                90
_cell_volume                     4175.91
_exptl_crystal_colour            yellow
_cell_formula_units_Z            8
loop_
_atom_site_label
_atom_site_type_symbol
_atom_site_fract_x
_atom_site_fract_y
_atom_site_fract_z
N1 N 0.3920(4) 0.6721(11) 0.1813(3)
N2 N 0.3079(4) 0.7171(9) 0.2551(4)
N3 N 0.2748(4) 0.7225(10) 0.3451(4)
H1 H 0.2468 0.7522 0.3655
N4 N 0.3679(4) 0.6107(10) 0.3476(3)
N5 N 0.4621(5) 0.5195(10) 0.2894(4)
C1 C 0.4323(6) 0.6512(15) 0.1452(4)
H2 H 0.4678 0.6216 0.1584
C2 C 0.4259(6) 0.6703(15) 0.0878(4)
H3 H 0.4557 0.6505 0.0639
C3 C 0.3746(6) 0.7185(13) 0.0692(4)
H4 H 0.3693 0.7362 0.0317
C4 C 0.3286(6) 0.7430(12) 0.1055(4)
C5 C 0.2746(5) 0.7966(13) 0.0876(5)
H5 H 0.2673 0.8136 0.0504
C6 C 0.3422(5) 0.7167(12) 0.1606(4)
C7 C 0.2348(5) 0.8221(13) 0.1242(5)
H6 H 0.1992 0.8543 0.1121
C8 C 0.2967(5) 0.7470(11) 0.2010(4)
C9 C 0.2442(5) 0.8022(12) 0.1824(4)
C10 C 0.2005(5) 0.8388(13) 0.2196(5)
H7 H 0.1653 0.8766 0.2074
C11 C 0.2116(4) 0.8165(12) 0.2747(4)
H8 H 0.185 0.8427 0.3016
C12 C 0.2659(6) 0.7513(12) 0.2879(5)
C13 C 0.3203(5) 0.6556(11) 0.3735(4)
C14 C 0.3161(5) 0.6353(12) 0.4319(4)
H9 H 0.2829 0.6636 0.4501
C15 C 0.3613(5) 0.5745(12) 0.4599(4)
H10 H 0.359 0.559 0.4978
C16 C 0.4137(5) 0.5326(12) 0.4315(5)
C17 C 0.4620(6) 0.4734(13) 0.4605(5)
H11 H 0.4608 0.4614 0.4986
C18 C 0.4142(4) 0.5485(11) 0.3760(4)
C19 C 0.5094(5) 0.4347(13) 0.4333(4)
H12 H 0.5415 0.4011 0.4526
C20 C 0.4637(5) 0.5046(10) 0.3461(4)
C21 C 0.5106(5) 0.4447(13) 0.3759(5)
C22 C 0.5588(5) 0.3961(13) 0.3447(6)
H13 H 0.591 0.3533 0.3622
C23 C 0.5573(5) 0.4129(14) 0.2888(5)
H14 H 0.5891 0.3861 0.2681
C24 C 0.5076(6) 0.4706(14) 0.2625(6)
H15 H 0.507 0.4745 0.2243
H32 H 0.369(3) 0.607(10) 0.312(3)
N6 N 0.2886(4) 0.2272(11) 0.3000(4)
N7 N 0.3826(4) 0.1332(9) 0.2441(3)
H16 H 0.3808 0.1243 0.2793
N8 N 0.4754(4) 0.0174(10) 0.2441(3)
H17 H 0.503 -0.0118 0.2231
N9 N 0.4415(4) 0.0221(9) 0.3359(3)
N10 N 0.3561(4) 0.0681(10) 0.4092(3)
C25 C 0.2413(7) 0.2630(13) 0.3262(5)
H18 H 0.2409 0.2511 0.3642
C26 C 0.1915(5) 0.3178(15) 0.3000(5)
H19 H 0.1598 0.3455 0.3207
C27 C 0.1898(5) 0.3301(14) 0.2452(5)
H20 H 0.1567 0.361 0.2273
C28 C 0.2380(5) 0.2962(13) 0.2157(4)
C29 C 0.2419(5) 0.3110(12) 0.1570(5)
H21 H 0.2105 0.3461 0.1368
C30 C 0.2872(5) 0.2418(11) 0.2455(5)
C31 C 0.2895(6) 0.2752(13) 0.1313(5)
H22 H 0.2908 0.2913 0.0934
C32 C 0.3367(4) 0.1980(11) 0.2160(4)
C33 C 0.3387(6) 0.2137(12) 0.1584(4)
C34 C 0.3888(5) 0.1709(13) 0.1321(4)
H23 H 0.3917 0.1857 0.0943
C35 C 0.4337(5) 0.1077(12) 0.1610(4)
H24 H 0.467 0.0803 0.1429
C36 C 0.4300(5) 0.0834(13) 0.2186(4)
C37 C 0.4839(6) -0.0103(11) 0.2995(5)
C38 C 0.5371(5) -0.0649(13) 0.3172(5)
H25 H 0.5652 -0.0901 0.2917
C39 C 0.5474(5) -0.0806(13) 0.3710(5)
H26 H 0.583 -0.1173 0.3824
C40 C 0.5067(5) -0.0438(12) 0.4107(4)
C41 C 0.5171(5) -0.0538(14) 0.4678(5)
H27 H 0.5525 -0.0868 0.4805
C42 C 0.4533(5) 0.0039(11) 0.3915(4)
C43 C 0.4747(6) -0.0147(13) 0.5049(5)
H28 H 0.4823 -0.0156 0.5423
C44 C 0.4094(6) 0.0347(12) 0.4281(5)
C45 C 0.4193(5) 0.0271(12) 0.4862(4)
C46 C 0.3747(6) 0.0644(13) 0.5226(4)
H29 H 0.3808 0.0639 0.5604
C47 C 0.3238(5) 0.1003(14) 0.5027(5)
H30 H 0.2942 0.1277 0.5262
C48 C 0.3156(5) 0.0959(13) 0.4451(4)
H31 H 0.2794 0.1138 0.4318
Cl1 Cl 0.07504(12) 0.1005(4) 0.16873(11)
O1 O 0.1660(6) 0.3379(17) 0.4708(5)
C49 C 0.1638(5) 0.1715(13) 0.5005(4)
O2 O 0.0887(7) 0.4594(16) 0.0948(4)
C50 C 0.0820(6) 0.6173(17) 0.1169(6)
Cl2 Cl 0.17457(12) 0.8356(4) 0.42331(11)
loop_
_geom_bond_atom_site_label_1
_geom_bond_atom_site_label_2
_geom_bond_site_symmetry_1
_geom_bond_site_symmetry_2
N1 C1 1_555 1_555
N2 C8 1_555 1_555
N3 H1 1_555 1_555
N4 C13 1_555 1_555
N5 C20 1_555 1_555
C1 H2 1_555 1_555
C2 C1 1_555 1_555
H3 C2 1_555 1_555
C3 C2 1_555 1_555
H4 C3 1_555 1_555
C4 C3 1_555 1_555
C5 C4 1_555 1_555
H5 C5 1_555 1_555
C6 N1 1_555 1_555
C7 C5 1_555 1_555
H6 C7 1_555 1_555
C8 C6 1_555 1_555
C9 C7 1_555 1_555
C10 C9 1_555 1_555
H7 C10 1_555 1_555
C11 C10 1_555 1_555
H8 C11 1_555 1_555
C12 N2 1_555 1_555
C13 N3 1_555 1_555
C14 C13 1_555 1_555
H9 C14 1_555 1_555
C15 C14 1_555 1_555
H10 C15 1_555 1_555
C16 C15 1_555 1_555
C17 C16 1_555 1_555
H11 C17 1_555 1_555
C18 N4 1_555 1_555
C19 C17 1_555 1_555
H12 C19 1_555 1_555
C20 C18 1_555 1_555
C21 C19 1_555 1_555
C22 C21 1_555 1_555
H13 C22 1_555 1_555
C23 C22 1_555 1_555
H14 C23 1_555 1_555
C24 N5 1_555 1_555
H15 C24 1_555 1_555
N6 C25 1_555 1_555
N7 H16 1_555 1_555
N8 H17 1_555 1_555
N9 C37 1_555 1_555
N10 C44 1_555 1_555
C25 H18 1_555 1_555
C26 C25 1_555 1_555
H19 C26 1_555 1_555
C27 C26 1_555 1_555
H20 C27 1_555 1_555
C28 C27 1_555 1_555
C29 C28 1_555 1_555
H21 C29 1_555 1_555
C30 N6 1_555 1_555
C31 C29 1_555 1_555
H22 C31 1_555 1_555
C32 N7 1_555 1_555
C33 C31 1_555 1_555
C34 C33 1_555 1_555
H23 C34 1_555 1_555
C35 C34 1_555 1_555
H24 C35 1_555 1_555
C36 N7 1_555 1_555
C37 N8 1_555 1_555
C38 C37 1_555 1_555
H25 C38 1_555 1_555
C39 C38 1_555 1_555
H26 C39 1_555 1_555
C40 C39 1_555 1_555
C41 C40 1_555 1_555
H27 C41 1_555 1_555
C42 N9 1_555 1_555
C43 C41 1_555 1_555
H28 C43 1_555 1_555
C44 C42 1_555 1_555
C45 C43 1_555 1_555
C46 C45 1_555 1_555
H29 C46 1_555 1_555
C47 C46 1_555 1_555
H30 C47 1_555 1_555
C48 N10 1_555 1_555
H31 C48 1_555 1_555
O1 C49 1_555 1_555
O2 C50 1_555 1_555
H32 N4 1_555 1_555
N3 C12 1_555 1_555
C4 C6 1_555 1_555
C8 C9 1_555 1_555
C11 C12 1_555 1_555
C16 C18 1_555 1_555
C20 C21 1_555 1_555
C23 C24 1_555 1_555
N8 C36 1_555 1_555
C28 C30 1_555 1_555
C30 C32 1_555 1_555
C32 C33 1_555 1_555
C35 C36 1_555 1_555
C40 C42 1_555 1_555
C44 C45 1_555 1_555
C47 C48 1_555 1_555

#END
