
#######################################################################
#
#                 Cambridge Crystallographic Data Centre
#                                CCDC 
#
#######################################################################
#
# If this CIF has been generated from an entry in the Cambridge 
# Structural Database, then it will include bibliographic, chemical, 
# crystal, experimental, refinement or atomic coordinate data resulting 
# from the CCDC's data processing and validation procedures.
#
#######################################################################

data_SABSAS
_chemical_formula_moiety         'C17 H14 Cl1 I1 O3'
_chemical_name_systematic        
(2-chloro-5-iodophenyl)(4-(tetrahydrofuran-3-yloxy)phenyl)methanone
_symmetry_cell_setting           monoclinic
_symmetry_space_group_name_H-M   'P 21'
_symmetry_Int_Tables_number      4
_space_group_name_Hall           'P 2yb'
loop_
_symmetry_equiv_pos_site_id
_symmetry_equiv_pos_as_xyz
1 x,y,z
2 -x,1/2+y,-z
_cell_length_a                   6.5076(12)
_cell_length_b                   23.670(4)
_cell_length_c                   10.1456(17)
_cell_angle_alpha                90
_cell_angle_beta                 90.097(5)
_cell_angle_gamma                90
_cell_volume                     1562.77
_exptl_crystal_colour            colorless
_exptl_crystal_description       Prism
_cell_formula_units_Z            4
loop_
_atom_site_label
_atom_site_type_symbol
_atom_site_fract_x
_atom_site_fract_y
_atom_site_fract_z
I1 I 0.55675(2) 1.133525(6) 0.186832(15)
Cl1 Cl 0.00638(9) 0.91524(3) -0.00418(6)
O1 O 0.4906(3) 0.95406(8) -0.21108(18)
O2 O 0.7762(3) 0.73683(7) 0.10336(16)
O3 O 1.1238(3) 0.67185(8) 0.20640(17)
C1 C 0.1481(3) 0.97451(10) 0.0405(2)
C2 C 0.0582(3) 1.01543(12) 0.1191(2)
H1 H -0.0801 1.0111 0.1474
C3 C 0.1699(4) 1.06260(11) 0.1566(2)
H2 H 0.1100 1.0907 0.2112
C4 C 0.3723(4) 1.06818(10) 0.1126(2)
C5 C 0.4598(3) 1.02862(10) 0.0289(2)
H3 H 0.5951 1.0342 -0.0038
C6 C 0.3482(3) 0.98060(10) -0.0073(2)
C7 C 0.4509(3) 0.93876(11) -0.0986(2)
C8 C 0.5147(3) 0.88311(9) -0.0482(2)
C9 C 0.6119(3) 0.84539(10) -0.1338(2)
H4 H 0.6175 0.8539 -0.2252
C10 C 0.7001(4) 0.79598(10) -0.0880(2)
H5 H 0.7658 0.7708 -0.1473
C11 C 0.6916(3) 0.78347(10) 0.0469(2)
C12 C 0.5898(4) 0.82028(11) 0.1330(2)
H6 H 0.5812 0.8114 0.2242
C13 C 0.5018(3) 0.86954(10) 0.0857(2)
H7 H 0.4324 0.8942 0.1445
C14 C 0.9328(4) 0.70668(11) 0.0292(2)
H8 H 0.8869 0.6977 -0.0626
C15 C 1.1366(4) 0.73947(11) 0.0313(2)
H9 H 1.1131 0.7800 0.0503
H10 H 1.2093 0.7360 -0.0539
C16 C 1.2594(4) 0.71106(11) 0.1432(2)
H11 H 1.3804 0.6911 0.1070
H12 H 1.3079 0.7398 0.2071
C17 C 0.9830(4) 0.65417(10) 0.1074(2)
H13 H 0.8573 0.6382 0.1477
H14 H 1.0461 0.6251 0.0501
I2 I 0.94338(2) 0.012178(6) 0.686835(15)
Cl2 Cl 1.49398(9) 0.23035(3) 0.49590(6)
O4 O 1.0098(3) 0.19166(8) 0.28878(18)
O5 O 0.7246(3) 0.40880(7) 0.60311(16)
O6 O 0.3773(3) 0.47381(8) 0.70650(17)
C18 C 1.3520(3) 0.17105(10) 0.5402(2)
C19 C 1.4421(3) 0.13021(12) 0.6196(2)
H15 H 1.5801 0.1346 0.6484
C20 C 1.3307(4) 0.08314(10) 0.6565(2)
H16 H 1.3911 0.0549 0.7108
C21 C 1.1285(4) 0.07761(10) 0.6131(2)
C22 C 1.0411(3) 0.11719(10) 0.5290(2)
H17 H 0.9058 0.1117 0.4962
C23 C 1.1522(3) 0.16498(10) 0.4930(2)
C24 C 1.0497(3) 0.20681(11) 0.4011(2)
C25 C 0.9862(3) 0.26249(9) 0.4518(2)
C26 C 0.8883(3) 0.30039(10) 0.3661(2)
H18 H 0.8826 0.2920 0.2746
C27 C 0.7999(4) 0.34978(10) 0.4121(2)
H19 H 0.7339 0.3750 0.3528
C28 C 0.8089(3) 0.36214(10) 0.5471(2)
C29 C 0.9107(4) 0.32531(11) 0.6330(2)
H20 H 0.9193 0.3341 0.7242
C30 C 0.9986(3) 0.27634(10) 0.5860(2)
H21 H 1.0683 0.2517 0.6451
C31 C 0.5675(4) 0.43896(11) 0.5292(2)
H22 H 0.6127 0.4480 0.4375
C32 C 0.3635(4) 0.40609(11) 0.5314(2)
H23 H 0.3871 0.3656 0.5504
H24 H 0.2904 0.4096 0.4461
C33 C 0.2408(4) 0.43454(11) 0.6434(2)
H25 H 0.1196 0.4545 0.6072
H26 H 0.1928 0.4059 0.7074
C34 C 0.5166(4) 0.49144(10) 0.6075(2)
H27 H 0.6423 0.5076 0.6476
H28 H 0.4527 0.5204 0.5501
loop_
_geom_bond_atom_site_label_1
_geom_bond_atom_site_label_2
_geom_bond_site_symmetry_1
_geom_bond_site_symmetry_2
I1 C4 1_555 1_555
Cl1 C1 1_555 1_555
O1 C7 1_555 1_555
O2 C11 1_555 1_555
O3 C16 1_555 1_555
C1 C2 1_555 1_555
C2 H1 1_555 1_555
C3 C2 1_555 1_555
H2 C3 1_555 1_555
C4 C3 1_555 1_555
C5 C4 1_555 1_555
H3 C5 1_555 1_555
C6 C1 1_555 1_555
C7 C6 1_555 1_555
C8 C7 1_555 1_555
C9 C8 1_555 1_555
H4 C9 1_555 1_555
C10 C9 1_555 1_555
H5 C10 1_555 1_555
C11 C10 1_555 1_555
C12 C11 1_555 1_555
H6 C12 1_555 1_555
C13 C8 1_555 1_555
H7 C13 1_555 1_555
C14 O2 1_555 1_555
H8 C14 1_555 1_555
C15 C14 1_555 1_555
H9 C15 1_555 1_555
H10 C15 1_555 1_555
C16 C15 1_555 1_555
H11 C16 1_555 1_555
H12 C16 1_555 1_555
C17 O3 1_555 1_555
H13 C17 1_555 1_555
H14 C17 1_555 1_555
I2 C21 1_555 1_555
Cl2 C18 1_555 1_555
O4 C24 1_555 1_555
O5 C28 1_555 1_555
O6 C33 1_555 1_555
C18 C19 1_555 1_555
C19 H15 1_555 1_555
C20 C19 1_555 1_555
H16 C20 1_555 1_555
C21 C20 1_555 1_555
C22 C21 1_555 1_555
H17 C22 1_555 1_555
C23 C18 1_555 1_555
C24 C23 1_555 1_555
C25 C24 1_555 1_555
C26 C25 1_555 1_555
H18 C26 1_555 1_555
C27 C26 1_555 1_555
H19 C27 1_555 1_555
C28 C27 1_555 1_555
C29 C28 1_555 1_555
H20 C29 1_555 1_555
C30 C25 1_555 1_555
H21 C30 1_555 1_555
C31 O5 1_555 1_555
H22 C31 1_555 1_555
C32 C31 1_555 1_555
H23 C32 1_555 1_555
H24 C32 1_555 1_555
C33 C32 1_555 1_555
H25 C33 1_555 1_555
H26 C33 1_555 1_555
C34 O6 1_555 1_555
H27 C34 1_555 1_555
H28 C34 1_555 1_555
C5 C6 1_555 1_555
C12 C13 1_555 1_555
C14 C17 1_555 1_555
C22 C23 1_555 1_555
C29 C30 1_555 1_555
C31 C34 1_555 1_555

#END
