
#######################################################################
#
#                 Cambridge Crystallographic Data Centre
#                                CCDC 
#
#######################################################################
#
# If this CIF has been generated from an entry in the Cambridge 
# Structural Database, then it will include bibliographic, chemical, 
# crystal, experimental, refinement or atomic coordinate data resulting 
# from the CCDC's data processing and validation procedures.
#
#######################################################################

data_SABTAT
_chemical_formula_moiety         'C29 H20 O5'
_chemical_name_systematic        
'Methyl 4-(7-(4-(methoxycarbonyl)phenyl)-9-oxo-9H-fluoren-2-yl)benzoate'
_symmetry_cell_setting           monoclinic
_symmetry_space_group_name_H-M   'P 21/c'
_symmetry_Int_Tables_number      14
_space_group_name_Hall           '-P 2ybc'
loop_
_symmetry_equiv_pos_site_id
_symmetry_equiv_pos_as_xyz
1 x,y,z
2 -x,1/2+y,1/2-z
3 -x,-y,-z
4 x,1/2-y,1/2+z
_cell_length_a                   23.970(2)
_cell_length_b                   14.6649(13)
_cell_length_c                   6.2110(6)
_cell_angle_alpha                90
_cell_angle_beta                 96.1640(10)
_cell_angle_gamma                90
_cell_volume                     2170.65
_exptl_crystal_colour            yellow
_cell_formula_units_Z            4
loop_
_atom_site_label
_atom_site_type_symbol
_atom_site_fract_x
_atom_site_fract_y
_atom_site_fract_z
O1 O 0.57072(6) 0.04168(11) 0.1126(3)
O2 O 0.96154(7) 0.14082(13) 0.2942(3)
O3 O 0.98839(7) 0.11206(15) 0.6449(3)
O4 O 0.17797(6) 0.10021(13) -0.1091(3)
O5 O 0.14835(7) 0.15541(13) 0.1960(3)
C1 C 0.56907(9) 0.07524(14) 0.2918(4)
C2 C 0.61841(8) 0.09984(14) 0.4523(4)
C3 C 0.67502(9) 0.09306(14) 0.4294(4)
H1 H 0.6870 0.0687 0.3039
C4 C 0.71408(9) 0.12351(14) 0.5987(4)
C5 C 0.69396(9) 0.15776(14) 0.7850(4)
H2 H 0.7197 0.1769 0.8986
C6 C 0.63668(8) 0.16453(14) 0.8085(4)
H3 H 0.6246 0.1878 0.9349
C7 C 0.59834(9) 0.13569(13) 0.6390(4)
C8 C 0.53599(8) 0.13752(13) 0.6052(4)
C9 C 0.51865(8) 0.10234(13) 0.3979(4)
C10 C 0.46285(8) 0.09677(13) 0.3161(4)
H4 H 0.4529 0.0725 0.1791
C11 C 0.42124(8) 0.12797(14) 0.4411(4)
C12 C 0.43889(9) 0.16190(13) 0.6492(4)
H5 H 0.4119 0.1822 0.7349
C13 C 0.49553(8) 0.16634(13) 0.7328(4)
H6 H 0.5057 0.1883 0.8719
C14 C 0.95207(11) 0.12550(18) 0.5002(5)
C15 C 0.89052(9) 0.12626(16) 0.5228(4)
C16 C 0.85084(9) 0.14837(16) 0.3515(4)
H7 H 0.8622 0.1647 0.2184
C17 C 0.79449(9) 0.14612(16) 0.3785(4)
H8 H 0.7685 0.1607 0.2616
C18 C 0.77535(9) 0.12278(15) 0.5743(4)
C19 C 0.81568(9) 0.10103(15) 0.7467(4)
H9 H 0.8044 0.0849 0.8802
C20 C 0.87260(9) 0.10332(16) 0.7199(4)
H10 H 0.8989 0.0892 0.8362
C21 C 1.02010(10) 0.1401(2) 0.2484(5)
H11 H 1.0400 0.1891 0.3252
H12 H 1.0217 0.1477 0.0957
H13 H 1.0371 0.0831 0.2942
C22 C 0.18561(10) 0.12926(17) 0.0973(5)
C23 C 0.24614(9) 0.12487(15) 0.1841(4)
C24 C 0.28726(9) 0.09190(16) 0.0653(4)
H14 H 0.2773 0.0693 -0.0734
C25 C 0.34314(9) 0.09211(15) 0.1502(4)
H15 H 0.3700 0.0691 0.0672
C26 C 0.36020(9) 0.12584(14) 0.3563(4)
C27 C 0.31835(9) 0.15759(15) 0.4758(4)
H16 H 0.3281 0.1801 0.6147
C28 C 0.26218(9) 0.15646(16) 0.3918(4)
H17 H 0.2350 0.1772 0.4762
C29 C 0.12100(10) 0.10576(19) -0.2169(5)
H18 H 0.0973 0.0642 -0.1493
H19 H 0.1211 0.0899 -0.3668
H20 H 0.1071 0.1668 -0.2056
loop_
_geom_bond_atom_site_label_1
_geom_bond_atom_site_label_2
_geom_bond_site_symmetry_1
_geom_bond_site_symmetry_2
O1 C1 1_555 1_555
O2 C14 1_555 1_555
O3 C14 1_555 1_555
O4 C22 1_555 1_555
O5 C22 1_555 1_555
C1 C2 1_555 1_555
C2 C3 1_555 1_555
C3 H1 1_555 1_555
C4 C3 1_555 1_555
C5 C4 1_555 1_555
H2 C5 1_555 1_555
C6 C5 1_555 1_555
H3 C6 1_555 1_555
C7 C2 1_555 1_555
C8 C7 1_555 1_555
C9 C1 1_555 1_555
C10 C9 1_555 1_555
H4 C10 1_555 1_555
C11 C10 1_555 1_555
C12 C11 1_555 1_555
H5 C12 1_555 1_555
C13 C8 1_555 1_555
H6 C13 1_555 1_555
C14 C15 1_555 1_555
C15 C16 1_555 1_555
C16 H7 1_555 1_555
C17 C16 1_555 1_555
H8 C17 1_555 1_555
C18 C4 1_555 1_555
C19 C18 1_555 1_555
H9 C19 1_555 1_555
C20 C15 1_555 1_555
H10 C20 1_555 1_555
C21 O2 1_555 1_555
H11 C21 1_555 1_555
H12 C21 1_555 1_555
H13 C21 1_555 1_555
C22 C23 1_555 1_555
C23 C24 1_555 1_555
C24 H14 1_555 1_555
C25 C24 1_555 1_555
H15 C25 1_555 1_555
C26 C11 1_555 1_555
C27 C26 1_555 1_555
H16 C27 1_555 1_555
C28 C23 1_555 1_555
H17 C28 1_555 1_555
C29 O4 1_555 1_555
H18 C29 1_555 1_555
H19 C29 1_555 1_555
H20 C29 1_555 1_555
C6 C7 1_555 1_555
C8 C9 1_555 1_555
C12 C13 1_555 1_555
C17 C18 1_555 1_555
C19 C20 1_555 1_555
C25 C26 1_555 1_555
C27 C28 1_555 1_555

#END
