
#######################################################################
#
#                 Cambridge Crystallographic Data Centre
#                                CCDC 
#
#######################################################################
#
# If this CIF has been generated from an entry in the Cambridge 
# Structural Database, then it will include bibliographic, chemical, 
# crystal, experimental, refinement or atomic coordinate data resulting 
# from the CCDC's data processing and validation procedures.
#
#######################################################################

data_SABWOI
_chemical_compound_source        'stem bark of Xylocarpus granatum'
_chemical_formula_moiety         'C35 H40 O15,0.5(C1 H4 O1),0.25(H2 O1)'
_chemical_name_systematic        'Xyloccensin O methanol solvate hydrate'
_symmetry_cell_setting           monoclinic
_symmetry_space_group_name_H-M   'P 21'
_symmetry_Int_Tables_number      4
_space_group_name_Hall           'P 2yb'
loop_
_symmetry_equiv_pos_site_id
_symmetry_equiv_pos_as_xyz
1 x,y,z
2 -x,1/2+y,-z
_cell_length_a                   10.692(1)
_cell_length_b                   11.727(1)
_cell_length_c                   31.535(3)
_cell_angle_alpha                90
_cell_angle_beta                 80.79(1)
_cell_angle_gamma                90
_cell_volume                     3903.04
_cell_formula_units_Z            4
loop_
_atom_site_label
_atom_site_type_symbol
_atom_site_fract_x
_atom_site_fract_y
_atom_site_fract_z
O1 O 0.3675(7) 0.2233(7) 0.5755(2)
O2 O 0.7767(7) 0.3880(7) 0.5142(2)
O3 O 0.7823(12) 0.3446(10) 0.4462(3)
O4 O 0.8924(8) 0.4612(8) 0.6243(3)
O5 O 0.9162(8) 0.2993(8) 0.6619(3)
O6 O 0.6851(7) 0.2275(7) 0.6636(2)
O7 O 0.6482(9) 0.2964(8) 0.7313(3)
O8 O 0.4025(6) 0.6046(7) 0.5485(2)
O9 O 0.3261(7) 0.4619(7) 0.5934(2)
O10 O 0.3698(7) 0.4345(7) 0.5193(2)
O11 O 0.5738(7) 0.7094(7) 0.6676(2)
O12 O 0.6148(9) 0.5758(8) 0.7145(3)
O13 O 0.8278(7) 0.7686(7) 0.5468(2)
O14 O 0.8518(7) 0.7597(7) 0.4755(2)
O15 O 0.8661(11) 0.9302(10) 0.6621(3)
C1 C 0.4924(11) 0.2715(10) 0.5718(4)
C2 C 0.5494(10) 0.3222(11) 0.5276(3)
C3 C 0.6909(11) 0.2974(11) 0.5259(4)
C4 C 0.7013(10) 0.2548(10) 0.5720(3)
C5 C 0.6629(10) 0.3530(11) 0.6039(3)
C6 C 0.7072(11) 0.3450(11) 0.6471(4)
C7 C 0.8504(11) 0.3799(11) 0.6422(3)
C8 C 0.5125(9) 0.5345(10) 0.5541(3)
C9 C 0.4660(10) 0.4788(10) 0.5983(3)
C10 C 0.5134(10) 0.3590(10) 0.6083(3)
C11 C 0.4615(10) 0.5682(11) 0.6343(4)
C12 C 0.5919(10) 0.6245(10) 0.6334(3)
C13 C 0.6360(10) 0.6928(9) 0.5899(3)
C14 C 0.6218(9) 0.6161(10) 0.5529(3)
C15 C 0.6966(10) 0.6351(10) 0.5152(4)
C16 C 0.7975(10) 0.7247(11) 0.5113(4)
C17 C 0.7798(11) 0.7110(10) 0.5874(3)
C18 C 0.5631(11) 0.8036(10) 0.5880(4)
C19 C 0.4347(11) 0.3173(11) 0.6519(4)
C20 C 0.8222(12) 0.7845(12) 0.6215(4)
C21 C 0.8170(15) 0.9024(14) 0.6251(5)
C22 C 0.8766(16) 0.7415(13) 0.6568(5)
C23 C 0.9064(18) 0.8335(15) 0.6798(6)
C24 C 0.8204(12) 0.3982(13) 0.4717(4)
C25 C 0.9369(12) 0.4724(13) 0.4647(5)
C26 C 0.6530(11) 0.2169(12) 0.7069(4)
C27 C 0.6235(13) 0.0918(12) 0.7195(4)
C28 C 0.8327(11) 0.1995(11) 0.5718(4)
C29 C 0.5870(11) 0.1767(10) 0.5783(4)
C30 C 0.5068(9) 0.4426(10) 0.5193(3)
C31 C 0.3136(12) 0.5104(13) 0.5518(4)
C32 C 0.1800(10) 0.5453(11) 0.5506(4)
C33 C 0.5901(12) 0.6731(12) 0.7076(4)
C34 C 0.5785(14) 0.7726(13) 0.7383(4)
C35 C 1.0536(13) 0.3245(19) 0.6565(6)
H1 H 0.300 0.290 0.571
H2 H 0.517 0.267 0.504
H3 H 0.715 0.225 0.504
H4 H 0.702 0.433 0.588
H5 H 0.650 0.404 0.669
H6 H 0.432 0.528 0.666
H7 H 0.392 0.635 0.631
H8 H 0.663 0.559 0.638
H9 H 0.684 0.584 0.486
H10 H 0.825 0.627 0.588
H11 H 0.463 0.787 0.590
H12 H 0.598 0.849 0.559
H13 H 0.575 0.857 0.616
H14 H 0.462 0.233 0.660
H15 H 0.334 0.317 0.650
H16 H 0.449 0.376 0.678
H17 H 0.780 0.962 0.602
H18 H 0.887 0.652 0.664
H19 H 0.968 0.828 0.705
H20 H 0.949 0.516 0.494
H21 H 0.926 0.538 0.440
H22 H 1.019 0.423 0.453
H23 H 0.636 0.035 0.691
H24 H 0.530 0.079 0.737
H25 H 0.692 0.060 0.740
H26 H 0.905 0.266 0.567
H27 H 0.853 0.139 0.546
H28 H 0.837 0.158 0.602
H29 H 0.568 0.139 0.611
H30 H 0.592 0.109 0.555
H31 H 0.556 0.473 0.487
H32 H 0.146 0.604 0.577
H33 H 0.117 0.472 0.554
H34 H 0.172 0.589 0.521
H35 H 0.589 0.744 0.770
H36 H 0.486 0.814 0.740
H37 H 0.651 0.836 0.728
H38 H 1.104 0.265 0.674
H39 H 1.066 0.411 0.673
H40 H 1.096 0.333 0.624
O16 O 1.1327(7) 0.5898(7) 0.9234(2)
O17 O 0.7204(7) 0.7517(7) 0.9869(2)
O18 O 0.7148(12) 0.7053(10) 1.0550(3)
O19 O 0.5987(8) 0.8255(8) 0.8802(3)
O20 O 0.5693(7) 0.6665(8) 0.8436(2)
O21 O 0.8027(7) 0.5998(7) 0.8349(2)
O22 O 0.8541(10) 0.6793(9) 0.7689(3)
O23 O 1.0947(6) 0.9684 0.9519(2)
O24 O 1.1708(7) 0.8286(7) 0.9062(2)
O25 O 1.1317(7) 0.7990(7) 0.9791(2)
O26 O 0.9187(7) 1.0781(7) 0.8349(2)
O27 O 0.8533(12) 0.9560(10) 0.7885(3)
O28 O 0.6671(7) 1.1317(7) 0.9569(2)
O29 O 0.6514(7) 1.1225(7) 1.0267(2)
O30 O 0.5519(9) 1.1889(11) 0.8306(3)
C36 C 1.0085(11) 0.6344(11) 0.9265(3)
C37 C 0.9515(11) 0.6827(10) 0.9712(3)
C38 C 0.8073(10) 0.6558(10) 0.9734(4)
C39 C 0.7969(10) 0.6199(10) 0.9279(4)
C40 C 0.8324(10) 0.7188(10) 0.8958(3)
C41 C 0.7830(10) 0.7134(11) 0.8527(3)
C42 C 0.6406(12) 0.7437(12) 0.8614(4)
C43 C 0.9833(10) 0.9004(9) 0.9458(3)
C44 C 1.0301(10) 0.8457(11) 0.9009(3)
C45 C 0.9836(9) 0.7241(11) 0.8917(3)
C46 C 1.0291(10) 0.9369(10) 0.8659(3)
C47 C 0.9029(11) 0.9928(10) 0.8685(3)
C48 C 0.8572(9) 1.0586(10) 0.9114(3)
C49 C 0.8743(10) 0.9794(10) 0.9499(3)
C50 C 0.7989(10) 0.9977(9) 0.9874(3)
C51 C 0.7037(10) 1.0848(10) 0.9927(3)
C52 C 0.7131(11) 1.0723(10) 0.9159(3)
C53 C 0.9339(11) 1.1669(11) 0.9147(4)
C54 C 1.0547(12) 0.6839(10) 0.8480(4)
C55 C 0.6656(11) 1.1443(12) 0.8827(4)
C56 C 0.5847(14) 1.1001(15) 0.8568(4)
C57 C 0.6836(14) 1.2627(13) 0.8711(4)
C58 C 0.6161(13) 1.2876(13) 0.8390(5)
C59 C 0.6679(13) 0.7598(11) 1.0285(4)
C60 C 0.5588(11) 0.8376(12) 1.0361(5)
C61 C 0.8347(12) 0.6009(13) 0.7904(4)
C62 C 0.8471(14) 0.4742(13) 0.7760(5)
C63 C 0.6655(12) 0.5613(11) 0.9283(4)
C64 C 0.9112(11) 0.5384(10) 0.9207(4)
C65 C 0.9924(10) 0.8055(10) 0.9810(3)
C66 C 1.1811(12) 0.8801(11) 0.9467(4)
C67 C 1.3172(11) 0.9071(12) 0.9490(4)
C68 C 0.8882(13) 1.0498(13) 0.7970(4)
C69 C 0.9120(13) 1.1450(13) 0.7650(4)
C70 C 0.4311(13) 0.6872(18) 0.8526(5)
H41 H 1.164 0.559 0.891
H42 H 0.986 0.628 0.995
H43 H 0.783 0.582 0.995
H44 H 0.795 0.798 0.912
H45 H 0.835 0.777 0.831
H46 H 1.099 1.000 0.869
H47 H 1.053 0.895 0.835
H48 H 0.832 0.929 0.864
H49 H 0.811 0.944 1.015
H50 H 0.669 0.986 0.916
H51 H 0.923 1.224 0.889
H52 H 1.033 1.146 0.913
H53 H 0.901 1.209 0.945
H54 H 1.024 0.601 0.840
H55 H 1.155 0.686 0.848
H56 H 1.034 0.744 0.823
H57 H 0.549 1.011 0.857
H58 H 0.746 1.322 0.886
H59 H 0.615 1.373 0.822
H60 H 0.543 0.877 1.007
H61 H 0.575 0.906 1.059
H62 H 0.474 0.792 1.050
H63 H 0.824 0.419 0.803
H64 H 0.945 0.456 0.761
H65 H 0.785 0.456 0.753
H66 H 0.654 0.493 0.951
H67 H 0.659 0.527 0.897
H68 H 0.590 0.623 0.937
H69 H 0.926 0.499 0.889
H70 H 0.905 0.470 0.944
H71 H 0.944 0.834 1.013
H72 H 1.375 0.828 0.943
H73 H 1.330 0.941 0.980
H74 H 1.358 0.967 0.924
H75 H 0.942 1.220 0.781
H76 H 0.827 1.164 0.752
H77 H 0.986 1.120 0.739
H78 H 0.380 0.624 0.837
H79 H 0.409 0.772 0.840
H80 H 0.396 0.688 0.887
O31 O 0.2401(23) 0.4890(30) 0.7482(7)
C71 C 0.2100(30) 0.6030(30) 0.7338(11)
H81 H 0.335 0.466 0.733
H82 H 0.110 0.633 0.749
H83 H 0.272 0.671 0.739
H84 H 0.204 0.598 0.698
O32 O 0.2400(30) -0.0500(30) 0.7484(11)
C72 C 0.2660(30) 0.0280(30) 0.7131(9)
H85 H 0.166 -0.015 0.772
H86 H 0.340 -0.011 0.690
H87 H 0.302 0.105 0.726
H88 H 0.179 0.041 0.701
O33 O 0.1830(40) 0.3673(20) 0.8325(16)
loop_
_geom_bond_atom_site_label_1
_geom_bond_atom_site_label_2
_geom_bond_site_symmetry_1
_geom_bond_site_symmetry_2
O1 C1 1_555 1_555
O2 C3 1_555 1_555
O3 C24 1_555 1_555
O4 C7 1_555 1_555
O5 C7 1_555 1_555
O6 C6 1_555 1_555
O7 C26 1_555 1_555
O8 C8 1_555 1_555
O9 C9 1_555 1_555
O10 C30 1_555 1_555
O11 C12 1_555 1_555
O12 C33 1_555 1_555
O13 C16 1_555 1_555
O14 C16 1_555 1_555
O15 C21 1_555 1_555
C1 C2 1_555 1_555
C2 C3 1_555 1_555
C3 C4 1_555 1_555
C4 C5 1_555 1_555
C5 C6 1_555 1_555
C6 C7 1_555 1_555
C8 C9 1_555 1_555
C9 C10 1_555 1_555
C10 C1 1_555 1_555
C11 C9 1_555 1_555
C12 C11 1_555 1_555
C13 C12 1_555 1_555
C14 C8 1_555 1_555
C15 C14 1_555 1_555
C16 C15 1_555 1_555
C17 O13 1_555 1_555
C18 C13 1_555 1_555
C19 C10 1_555 1_555
C20 C17 1_555 1_555
C21 C20 1_555 1_555
C22 C20 1_555 1_555
C23 O15 1_555 1_555
C24 O2 1_555 1_555
C25 C24 1_555 1_555
C26 O6 1_555 1_555
C27 C26 1_555 1_555
C28 C4 1_555 1_555
C29 C1 1_555 1_555
C30 C2 1_555 1_555
C31 O8 1_555 1_555
C32 C31 1_555 1_555
C33 O11 1_555 1_555
C34 C33 1_555 1_555
C35 O5 1_555 1_555
O16 C36 1_555 1_555
O17 C38 1_555 1_555
O18 C59 1_555 1_555
O19 C42 1_555 1_555
O20 C42 1_555 1_555
O21 C41 1_555 1_555
O22 C61 1_555 1_555
O23 C43 1_555 1_555
O24 C44 1_555 1_555
O25 C65 1_555 1_555
O26 C47 1_555 1_555
O27 C68 1_555 1_555
O28 C51 1_555 1_555
O29 C51 1_555 1_555
O30 C56 1_555 1_555
C36 C37 1_555 1_555
C37 C38 1_555 1_555
C38 C39 1_555 1_555
C39 C40 1_555 1_555
C40 C41 1_555 1_555
C41 C42 1_555 1_555
C43 C44 1_555 1_555
C44 C45 1_555 1_555
C45 C36 1_555 1_555
C46 C44 1_555 1_555
C47 C46 1_555 1_555
C48 C47 1_555 1_555
C49 C43 1_555 1_555
C50 C49 1_555 1_555
C51 C50 1_555 1_555
C52 O28 1_555 1_555
C53 C48 1_555 1_555
C54 C45 1_555 1_555
C55 C52 1_555 1_555
C56 C55 1_555 1_555
C57 C55 1_555 1_555
C58 O30 1_555 1_555
C59 O17 1_555 1_555
C60 C59 1_555 1_555
C61 O21 1_555 1_555
C62 C61 1_555 1_555
C63 C39 1_555 1_555
C64 C36 1_555 1_555
C65 C37 1_555 1_555
C66 O23 1_555 1_555
C67 C66 1_555 1_555
C68 O26 1_555 1_555
C69 C68 1_555 1_555
C70 O20 1_555 1_555
O31 C71 1_555 1_555
C71 H82 1_555 1_555
O32 C72 1_555 1_555
C72 H86 1_555 1_555
H1 O1 1_555 1_555
H2 C2 1_555 1_555
H3 C3 1_555 1_555
H4 C5 1_555 1_555
H5 C6 1_555 1_555
H6 C11 1_555 1_555
H7 C11 1_555 1_555
H8 C12 1_555 1_555
H9 C15 1_555 1_555
H10 C17 1_555 1_555
H11 C18 1_555 1_555
H12 C18 1_555 1_555
H13 C18 1_555 1_555
H14 C19 1_555 1_555
H15 C19 1_555 1_555
H16 C19 1_555 1_555
H17 C21 1_555 1_555
H18 C22 1_555 1_555
H19 C23 1_555 1_555
H20 C25 1_555 1_555
H21 C25 1_555 1_555
H22 C25 1_555 1_555
H23 C27 1_555 1_555
H24 C27 1_555 1_555
H25 C27 1_555 1_555
H26 C28 1_555 1_555
H27 C28 1_555 1_555
H28 C28 1_555 1_555
H29 C29 1_555 1_555
H30 C29 1_555 1_555
H31 C30 1_555 1_555
H32 C32 1_555 1_555
H33 C32 1_555 1_555
H34 C32 1_555 1_555
H35 C34 1_555 1_555
H36 C34 1_555 1_555
H37 C34 1_555 1_555
H38 C35 1_555 1_555
H39 C35 1_555 1_555
H40 C35 1_555 1_555
H41 O16 1_555 1_555
H42 C37 1_555 1_555
H43 C38 1_555 1_555
H44 C40 1_555 1_555
H45 C41 1_555 1_555
H46 C46 1_555 1_555
H47 C46 1_555 1_555
H48 C47 1_555 1_555
H49 C50 1_555 1_555
H50 C52 1_555 1_555
H51 C53 1_555 1_555
H52 C53 1_555 1_555
H53 C53 1_555 1_555
H54 C54 1_555 1_555
H55 C54 1_555 1_555
H56 C54 1_555 1_555
H57 C56 1_555 1_555
H58 C57 1_555 1_555
H59 C58 1_555 1_555
H60 C60 1_555 1_555
H61 C60 1_555 1_555
H62 C60 1_555 1_555
H63 C62 1_555 1_555
H64 C62 1_555 1_555
H65 C62 1_555 1_555
H66 C63 1_555 1_555
H67 C63 1_555 1_555
H68 C63 1_555 1_555
H69 C64 1_555 1_555
H70 C64 1_555 1_555
H71 C65 1_555 1_555
H72 C67 1_555 1_555
H73 C67 1_555 1_555
H74 C67 1_555 1_555
H75 C69 1_555 1_555
H76 C69 1_555 1_555
H77 C69 1_555 1_555
H78 C70 1_555 1_555
H79 C70 1_555 1_555
H80 C70 1_555 1_555
H81 O31 1_555 1_555
H83 C71 1_555 1_555
H84 C71 1_555 1_555
H85 O32 1_555 1_555
H87 C72 1_555 1_555
H88 C72 1_555 1_555
O9 C31 1_555 1_555
O10 C31 1_555 1_555
C4 C29 1_555 1_555
C5 C10 1_555 1_555
C8 C30 1_555 1_555
C13 C14 1_555 1_555
C13 C17 1_555 1_555
C22 C23 1_555 1_555
O24 C66 1_555 1_555
O25 C66 1_555 1_555
C39 C64 1_555 1_555
C40 C45 1_555 1_555
C43 C65 1_555 1_555
C48 C49 1_555 1_555
C48 C52 1_555 1_555
C57 C58 1_555 1_555

#END
