
#######################################################################
#
#                 Cambridge Crystallographic Data Centre
#                                CCDC 
#
#######################################################################
#
# If this CIF has been generated from an entry in the Cambridge 
# Structural Database, then it will include bibliographic, chemical, 
# crystal, experimental, refinement or atomic coordinate data resulting 
# from the CCDC's data processing and validation procedures.
#
#######################################################################

data_SABZOM
_chemical_formula_moiety         'C23 H19 Br1 N2 O3'
_chemical_name_systematic        
3-(1-(2-Bromophenyl)-2-nitroethyl)-3-methyl-1-phenyl-1,3-dihydro-2H-indol-2-one
_symmetry_cell_setting           orthorhombic
_symmetry_space_group_name_H-M   'P 21 21 21'
_symmetry_Int_Tables_number      19
_space_group_name_Hall           'P 2ac 2ab'
loop_
_symmetry_equiv_pos_site_id
_symmetry_equiv_pos_as_xyz
1 x,y,z
2 1/2-x,-y,1/2+z
3 -x,1/2+y,1/2-z
4 1/2+x,1/2-y,-z
_cell_length_a                   9.839(2)
_cell_length_b                   10.575(2)
_cell_length_c                   19.779(4)
_cell_angle_alpha                90
_cell_angle_beta                 90
_cell_angle_gamma                90
_cell_volume                     2057.95
_exptl_crystal_colour            colorless
_exptl_crystal_description       block
_cell_formula_units_Z            4
loop_
_atom_site_label
_atom_site_type_symbol
_atom_site_fract_x
_atom_site_fract_y
_atom_site_fract_z
Br1 Br 0.25744(3) 0.70208(2) 0.866976(12)
O1 O 0.16704(16) 0.69358(16) 0.70066(9)
O2 O 0.0932(2) 1.1529(2) 0.90979(11)
O3 O 0.0175(2) 0.9638(2) 0.89655(11)
N1 N 0.26980(19) 0.82487(18) 0.62261(9)
N2 N 0.0720(2) 1.0584(2) 0.87515(12)
C1 C 0.1171(2) 0.9212(2) 0.69928(12)
C2 C 0.1713(2) 1.0160(2) 0.64860(12)
C3 C 0.1387(3) 1.1409(2) 0.63660(13)
H1 H 0.0755 1.1837 0.6648
C4 C 0.2003(3) 1.2034(3) 0.58223(13)
H2 H 0.1778 1.2891 0.5731
C5 C 0.2929(3) 1.1421(3) 0.54191(13)
H3 H 0.3355 1.1872 0.5062
C6 C 0.3261(3) 1.0151(3) 0.55214(13)
H4 H 0.3893 0.9725 0.5239
C7 C 0.2625(3) 0.9546(2) 0.60535(11)
C8 C 0.1845(2) 0.7982(2) 0.67587(12)
C9 C 0.3435(3) 0.7308(2) 0.58597(13)
C10 C 0.2721(3) 0.6395(2) 0.55028(13)
H5 H 0.1756 0.6407 0.5494
C11 C 0.3440(4) 0.5462(3) 0.51581(17)
H6 H 0.2964 0.4818 0.4921
C12 C 0.4836(4) 0.5470(3) 0.51598(18)
H7 H 0.5320 0.4838 0.4918
C13 C 0.5538(3) 0.6384(3) 0.55083(17)
H8 H 0.6504 0.6381 0.5506
C14 C 0.4842(3) 0.7313(3) 0.58642(15)
H9 H 0.5325 0.7944 0.6108
C15 C -0.0383(2) 0.9081(2) 0.69441(15)
H10 H -0.0645 0.8957 0.6471
H11 H -0.0814 0.9851 0.7118
H12 H -0.0681 0.8353 0.7212
C16 C 0.1611(3) 0.9404(2) 0.77445(13)
H13 H 0.1148 0.8728 0.8013
C17 C 0.1094(3) 1.0668(2) 0.80176(13)
H14 H 0.1807 1.1318 0.7958
H15 H 0.0287 1.0934 0.7754
C18 C 0.3122(2) 0.9257(2) 0.78701(12)
C19 C 0.4035(3) 1.0145(2) 0.76117(13)
H16 H 0.3693 1.0832 0.7353
C20 C 0.5425(3) 1.0056(3) 0.77199(15)
H17 H 0.6020 1.0675 0.7537
C21 C 0.5940(3) 0.9063(3) 0.80957(16)
H18 H 0.6891 0.8998 0.8172
C22 C 0.5070(3) 0.8171(3) 0.83586(15)
H19 H 0.5420 0.7482 0.8613
C23 C 0.3685(3) 0.8279(2) 0.82513(13)
loop_
_geom_bond_atom_site_label_1
_geom_bond_atom_site_label_2
_geom_bond_site_symmetry_1
_geom_bond_site_symmetry_2
Br1 C23 1_555 1_555
O1 C8 1_555 1_555
O2 N2 1_555 1_555
O3 N2 1_555 1_555
N1 C7 1_555 1_555
N2 C17 1_555 1_555
C1 C2 1_555 1_555
C2 C3 1_555 1_555
C3 H1 1_555 1_555
C4 C3 1_555 1_555
H2 C4 1_555 1_555
C5 C4 1_555 1_555
H3 C5 1_555 1_555
C6 C5 1_555 1_555
H4 C6 1_555 1_555
C7 C2 1_555 1_555
C8 N1 1_555 1_555
C9 N1 1_555 1_555
C10 C9 1_555 1_555
H5 C10 1_555 1_555
C11 C10 1_555 1_555
H6 C11 1_555 1_555
C12 C11 1_555 1_555
H7 C12 1_555 1_555
C13 C12 1_555 1_555
H8 C13 1_555 1_555
C14 C9 1_555 1_555
H9 C14 1_555 1_555
C15 C1 1_555 1_555
H10 C15 1_555 1_555
H11 C15 1_555 1_555
H12 C15 1_555 1_555
C16 C1 1_555 1_555
H13 C16 1_555 1_555
C17 C16 1_555 1_555
H14 C17 1_555 1_555
H15 C17 1_555 1_555
C18 C16 1_555 1_555
C19 C18 1_555 1_555
H16 C19 1_555 1_555
C20 C19 1_555 1_555
H17 C20 1_555 1_555
C21 C20 1_555 1_555
H18 C21 1_555 1_555
C22 C21 1_555 1_555
H19 C22 1_555 1_555
C23 C18 1_555 1_555
C1 C8 1_555 1_555
C6 C7 1_555 1_555
C13 C14 1_555 1_555
C22 C23 1_555 1_555

#END
