
#######################################################################
#
#                 Cambridge Crystallographic Data Centre
#                                CCDC 
#
#######################################################################
#
# If this CIF has been generated from an entry in the Cambridge 
# Structural Database, then it will include bibliographic, chemical, 
# crystal, experimental, refinement or atomic coordinate data resulting 
# from the CCDC's data processing and validation procedures.
#
#######################################################################

data_SACCAC
_chemical_formula_moiety         'C15 H26 N2 O1'
_chemical_name_systematic        1,3-Di-t-butyl-4,5-divinylimidazolidin-2-one
_symmetry_cell_setting           orthorhombic
_symmetry_space_group_name_H-M   'P 21 21 21'
_symmetry_Int_Tables_number      19
_space_group_name_Hall           'P 2ac 2ab'
loop_
_symmetry_equiv_pos_site_id
_symmetry_equiv_pos_as_xyz
1 x,y,z
2 1/2-x,-y,1/2+z
3 1/2+x,1/2-y,-z
4 -x,1/2+y,1/2-z
_cell_length_a                   8.6829(17)
_cell_length_b                   9.843(2)
_cell_length_c                   18.625(4)
_cell_angle_alpha                90
_cell_angle_beta                 90
_cell_angle_gamma                90
_cell_volume                     1591.8
_exptl_crystal_colour            colorless
_exptl_crystal_description       plate
_cell_formula_units_Z            4
loop_
_atom_site_label
_atom_site_type_symbol
_atom_site_fract_x
_atom_site_fract_y
_atom_site_fract_z
O1 O 0.2687(3) -0.1073(2) 0.08921(12)
N1 N 0.5049(3) 0.0030(3) 0.08436(14)
N2 N 0.3304(3) 0.0761(3) 0.16392(13)
C1 C 0.3575(4) -0.0185(3) 0.11032(17)
C2 C 0.5757(4) -0.0730(4) 0.02389(16)
C3 C 0.5755(7) -0.2240(5) 0.0431(2)
H1 H 0.4692 -0.2549 0.0498
H2 H 0.6337 -0.2379 0.0876
H3 H 0.6235 -0.2759 0.0042
C4 C 0.4859(5) -0.0514(5) -0.04544(17)
H4 H 0.4879 0.0451 -0.0583
H5 H 0.3790 -0.0806 -0.0386
H6 H 0.5329 -0.1048 -0.0840
C5 C 0.7412(5) -0.0266(6) 0.0138(2)
H7 H 0.7427 0.0705 0.0022
H8 H 0.7885 -0.0780 -0.0255
H9 H 0.7991 -0.0423 0.0582
C6 C 0.5661(4) 0.1310(3) 0.11406(17)
H10 H 0.6794 0.1236 0.1226
C7 C 0.5300(5) 0.2532(4) 0.06798(18)
H11 H 0.4266 0.2662 0.0528
C8 C 0.6326(6) 0.3415(5) 0.0480(2)
H12 H 0.7369 0.3310 0.0624
H13 H 0.6033 0.4165 0.0189
C9 C 0.4778(4) 0.1352(3) 0.18601(15)
H14 H 0.4636 0.2311 0.2025
C10 C 0.5596(4) 0.0526(4) 0.24237(17)
H15 H 0.5693 -0.0422 0.2338
C11 C 0.6191(5) 0.0998(5) 0.3025(2)
H16 H 0.6122 0.1940 0.3133
H17 H 0.6688 0.0398 0.3350
C12 C 0.1895(4) 0.0725(4) 0.20973(17)
C13 C 0.1933(5) 0.1965(4) 0.2601(2)
H18 H 0.2830 0.1900 0.2919
H19 H 0.0991 0.1986 0.2890
H20 H 0.2004 0.2799 0.2315
C14 C 0.1819(5) -0.0579(4) 0.2537(2)
H21 H 0.1815 -0.1364 0.2213
H22 H 0.0876 -0.0582 0.2826
H23 H 0.2717 -0.0631 0.2855
C15 C 0.0478(4) 0.0845(5) 0.1614(2)
H24 H 0.0437 0.0064 0.1288
H25 H 0.0542 0.1685 0.1333
H26 H -0.0454 0.0862 0.1910
loop_
_geom_bond_atom_site_label_1
_geom_bond_atom_site_label_2
_geom_bond_site_symmetry_1
_geom_bond_site_symmetry_2
O1 C1 1_555 1_555
N1 C1 1_555 1_555
N2 C1 1_555 1_555
C2 N1 1_555 1_555
C3 C2 1_555 1_555
H1 C3 1_555 1_555
H2 C3 1_555 1_555
H3 C3 1_555 1_555
C4 C2 1_555 1_555
H4 C4 1_555 1_555
H5 C4 1_555 1_555
H6 C4 1_555 1_555
C5 C2 1_555 1_555
H7 C5 1_555 1_555
H8 C5 1_555 1_555
H9 C5 1_555 1_555
C6 N1 1_555 1_555
H10 C6 1_555 1_555
C7 C6 1_555 1_555
H11 C7 1_555 1_555
C8 C7 1_555 1_555
H12 C8 1_555 1_555
H13 C8 1_555 1_555
C9 N2 1_555 1_555
H14 C9 1_555 1_555
C10 C9 1_555 1_555
H15 C10 1_555 1_555
C11 C10 1_555 1_555
H16 C11 1_555 1_555
H17 C11 1_555 1_555
C12 N2 1_555 1_555
C13 C12 1_555 1_555
H18 C13 1_555 1_555
H19 C13 1_555 1_555
H20 C13 1_555 1_555
C14 C12 1_555 1_555
H21 C14 1_555 1_555
H22 C14 1_555 1_555
H23 C14 1_555 1_555
C15 C12 1_555 1_555
H24 C15 1_555 1_555
H25 C15 1_555 1_555
H26 C15 1_555 1_555
C6 C9 1_555 1_555

#END
