
#######################################################################
#
#                 Cambridge Crystallographic Data Centre
#                                CCDC 
#
#######################################################################
#
# If this CIF has been generated from an entry in the Cambridge 
# Structural Database, then it will include bibliographic, chemical, 
# crystal, experimental, refinement or atomic coordinate data resulting 
# from the CCDC's data processing and validation procedures.
#
#######################################################################

data_SACCUX
_chemical_formula_moiety         'C21 H18 N1 P1 S1'
_chemical_name_systematic        
'3-Benzyl-6-methyl-2-phenyl-3H-1,3-benzazaphosphole 3-sulfide'
_symmetry_cell_setting           triclinic
_symmetry_space_group_name_H-M   'P -1'
_symmetry_Int_Tables_number      2
_space_group_name_Hall           '-P 1'
loop_
_symmetry_equiv_pos_site_id
_symmetry_equiv_pos_as_xyz
1 x,y,z
2 -x,-y,-z
_cell_length_a                   8.3561(8)
_cell_length_b                   9.6321(11)
_cell_length_c                   12.1639(11)
_cell_angle_alpha                100.757(9)
_cell_angle_beta                 101.011(8)
_cell_angle_gamma                101.963(9)
_cell_volume                     913.675
_cell_formula_units_Z            2
loop_
_atom_site_label
_atom_site_type_symbol
_atom_site_fract_x
_atom_site_fract_y
_atom_site_fract_z
S1 S -0.00982(10) 0.13433(8) 0.84433(7)
P1 P 0.14381(8) 0.04139(7) 0.77518(5)
N1 N 0.1159(3) -0.1404(2) 0.57764(18)
C1 C -0.0603(3) -0.2750(3) 0.8027(2)
H1 H -0.0326 -0.1884 0.8590
C2 C -0.1394(4) -0.4040(3) 0.8254(3)
H2 H -0.1648 -0.4035 0.8967
C3 C -0.1807(5) -0.5334(3) 0.7429(3)
H3 H -0.2306 -0.6205 0.7591
C4 C -0.1477(5) -0.5326(4) 0.6366(3)
H4 H -0.1779 -0.6192 0.5801
C5 C -0.0697(5) -0.4035(3) 0.6130(3)
H5 H -0.0491 -0.4040 0.5405
C6 C -0.0220(3) -0.2735(3) 0.6968(2)
C7 C 0.0683(3) -0.1398(3) 0.6717(2)
C8 C 0.2080(3) 0.0008(3) 0.5735(2)
C9 C 0.2339(3) 0.1142(3) 0.6692(2)
C10 C 0.3200(4) 0.2533(3) 0.6706(3)
H6 H 0.3362 0.3303 0.7338
C11 C 0.3824(4) 0.2762(3) 0.5755(3)
H7 H 0.4410 0.3697 0.5760
C12 C 0.3598(4) 0.1638(3) 0.4801(3)
C13 C 0.2709(3) 0.0240(3) 0.4790(2)
H8 H 0.2540 -0.0529 0.4156
C14 C 0.4312(4) 0.1920(4) 0.3788(3)
H9 H 0.5495 0.1968 0.3965
H10 H 0.4146 0.2829 0.3635
H11 H 0.3748 0.1142 0.3122
C15 C 0.3183(3) 0.0116(3) 0.8766(2)
H12 H 0.2723 -0.0437 0.9273
H13 H 0.3770 -0.0474 0.8335
C16 C 0.4433(3) 0.1481(3) 0.9489(2)
C17 C 0.4165(4) 0.2214(3) 1.0500(3)
H14 H 0.3181 0.1870 1.0723
C18 C 0.5339(4) 0.3450(3) 1.1184(3)
H15 H 0.5135 0.3946 1.1855
C19 C 0.6824(4) 0.3953(3) 1.0869(3)
H16 H 0.7626 0.4777 1.1332
C20 C 0.7100(4) 0.3223(3) 0.9866(3)
H17 H 0.8094 0.3555 0.9650
C21 C 0.5917(3) 0.2007(3) 0.9182(2)
H18 H 0.6115 0.1529 0.8502
loop_
_geom_bond_atom_site_label_1
_geom_bond_atom_site_label_2
_geom_bond_site_symmetry_1
_geom_bond_site_symmetry_2
S1 P1 1_555 1_555
P1 C7 1_555 1_555
N1 C7 1_555 1_555
C1 H1 1_555 1_555
C2 C1 1_555 1_555
H2 C2 1_555 1_555
C3 C2 1_555 1_555
H3 C3 1_555 1_555
C4 C3 1_555 1_555
H4 C4 1_555 1_555
C5 C4 1_555 1_555
H5 C5 1_555 1_555
C6 C1 1_555 1_555
C7 C6 1_555 1_555
C8 N1 1_555 1_555
C9 P1 1_555 1_555
C10 C9 1_555 1_555
H6 C10 1_555 1_555
C11 C10 1_555 1_555
H7 C11 1_555 1_555
C12 C11 1_555 1_555
C13 C8 1_555 1_555
H8 C13 1_555 1_555
C14 C12 1_555 1_555
H9 C14 1_555 1_555
H10 C14 1_555 1_555
H11 C14 1_555 1_555
C15 P1 1_555 1_555
H12 C15 1_555 1_555
H13 C15 1_555 1_555
C16 C15 1_555 1_555
C17 C16 1_555 1_555
H14 C17 1_555 1_555
C18 C17 1_555 1_555
H15 C18 1_555 1_555
C19 C18 1_555 1_555
H16 C19 1_555 1_555
C20 C19 1_555 1_555
H17 C20 1_555 1_555
C21 C16 1_555 1_555
H18 C21 1_555 1_555
C5 C6 1_555 1_555
C8 C9 1_555 1_555
C12 C13 1_555 1_555
C20 C21 1_555 1_555

#END
