
#######################################################################
#
#                 Cambridge Crystallographic Data Centre
#                                CCDC 
#
#######################################################################
#
# If this CIF has been generated from an entry in the Cambridge 
# Structural Database, then it will include bibliographic, chemical, 
# crystal, experimental, refinement or atomic coordinate data resulting 
# from the CCDC's data processing and validation procedures.
#
#######################################################################

data_SACFOT
_chemical_formula_moiety         'C14 H12 Br1 N1 O2'
_chemical_name_systematic        1-Bromo-4-(2-nitro-1-phenylethyl)benzene
_symmetry_cell_setting           monoclinic
_symmetry_space_group_name_H-M   'P 21'
_symmetry_Int_Tables_number      4
_space_group_name_Hall           'P 2yb'
loop_
_symmetry_equiv_pos_site_id
_symmetry_equiv_pos_as_xyz
1 x,y,z
2 -x,1/2+y,-z
_cell_length_a                   6.0434(8)
_cell_length_b                   22.179(3)
_cell_length_c                   9.9716(13)
_cell_angle_alpha                90
_cell_angle_beta                 92.890(3)
_cell_angle_gamma                90
_cell_volume                     1334.86
_exptl_crystal_colour            colorless
_exptl_crystal_description       prismatic
_cell_formula_units_Z            4
loop_
_atom_site_label
_atom_site_type_symbol
_atom_site_fract_x
_atom_site_fract_y
_atom_site_fract_z
Br1 Br -0.13241(14) 0.38260(3) 0.54585(8)
N1 N 0.5965(14) 0.6335(3) 0.1195(7)
O1 O 0.5342(11) 0.6622(3) 0.0227(6)
O2 O 0.7863(12) 0.6304(3) 0.1604(8)
C1 C 0.4486(10) 0.5338(2) 0.1748(5)
H1 H 0.6015 0.5234 0.2030
C2 C 0.4252(13) 0.6013(3) 0.1951(7)
H2 H 0.2785 0.6143 0.1633
H3 H 0.4438 0.6109 0.2899
C3 C 0.2984(10) 0.4983(3) 0.2652(5)
C4 C 0.3455(14) 0.4410(3) 0.2955(8)
H4 H 0.4697 0.4238 0.2596
C5 C 0.2209(15) 0.4060(4) 0.3767(8)
H5 H 0.2607 0.3662 0.3947
C6 C 0.0393(13) 0.4302(3) 0.4300(6)
C7 C -0.0193(12) 0.4873(3) 0.4038(7)
H6 H -0.1451 0.5037 0.4396
C8 C 0.1114(12) 0.5218(3) 0.3218(7)
H7 H 0.0723 0.5617 0.3044
C9 C 0.4157(11) 0.5153(3) 0.0276(6)
C10 C 0.2244(13) 0.5266(3) -0.0452(7)
H8 H 0.1097 0.5472 -0.0064
C11 C 0.2002(16) 0.5073(4) -0.1790(9)
H9 H 0.0689 0.5148 -0.2290
C12 C 0.370(2) 0.4772(5) -0.2362(8)
H10 H 0.3538 0.4648 -0.3252
C13 C 0.5589(18) 0.4658(4) -0.1643(10)
H11 H 0.6724 0.4450 -0.2036
C14 C 0.5867(12) 0.4848(4) -0.0311(7)
H12 H 0.7186 0.4771 0.0179
Br2 Br -0.09419(15) 0.85785(3) 1.04226(8)
N2 N 0.6123(12) 0.6055(3) 0.6098(6)
O3 O 0.4965(10) 0.5772(3) 0.5290(5)
O4 O 0.8111(12) 0.5994(3) 0.6189(7)
C15 C 0.3135(11) 0.6821(3) 0.6380(6)
H13 H 0.1979 0.6520 0.6179
C16 C 0.5080(12) 0.6492(4) 0.7012(6)
H14 H 0.6187 0.6784 0.7319
H15 H 0.4606 0.6276 0.7793
C17 C 0.2230(11) 0.7255(3) 0.7413(6)
C18 C 0.0658(11) 0.7074(3) 0.8231(7)
H16 H 0.0182 0.6675 0.8185
C19 C -0.0273(12) 0.7455(4) 0.9136(7)
H17 H -0.1361 0.7312 0.9681
C20 C 0.0390(13) 0.8043(4) 0.9238(6)
C21 C 0.2080(16) 0.8240(4) 0.8474(9)
H18 H 0.2635 0.8630 0.8563
C22 C 0.2942(15) 0.7832(4) 0.7553(8)
H19 H 0.4056 0.7965 0.7014
C23 C 0.3591(12) 0.7131(3) 0.5066(7)
C24 C 0.5592(13) 0.7412(4) 0.4821(8)
H20 H 0.6747 0.7413 0.5474
C25 C 0.5846(16) 0.7693(4) 0.3584(9)
H21 H 0.7174 0.7882 0.3409
C26 C 0.4115(18) 0.7689(4) 0.2618(8)
H22 H 0.4279 0.7880 0.1798
C27 C 0.2189(15) 0.7410(4) 0.2862(8)
H23 H 0.1037 0.7410 0.2207
C28 C 0.1918(13) 0.7126(3) 0.4060(8)
H24 H 0.0594 0.6928 0.4203
loop_
_geom_bond_atom_site_label_1
_geom_bond_atom_site_label_2
_geom_bond_site_symmetry_1
_geom_bond_site_symmetry_2
Br1 C6 1_555 1_555
Br2 C20 1_555 1_555
N1 O1 1_555 1_555
N2 O3 1_555 1_555
O2 N1 1_555 1_555
O4 N2 1_555 1_555
C1 H1 1_555 1_555
C2 N1 1_555 1_555
H2 C2 1_555 1_555
H3 C2 1_555 1_555
C3 C1 1_555 1_555
C4 C3 1_555 1_555
H4 C4 1_555 1_555
C5 C4 1_555 1_555
H5 C5 1_555 1_555
C6 C5 1_555 1_555
C7 C6 1_555 1_555
H6 C7 1_555 1_555
C8 C3 1_555 1_555
H7 C8 1_555 1_555
C9 C1 1_555 1_555
C10 C9 1_555 1_555
H8 C10 1_555 1_555
C11 C10 1_555 1_555
H9 C11 1_555 1_555
C12 C11 1_555 1_555
H10 C12 1_555 1_555
C13 C12 1_555 1_555
H11 C13 1_555 1_555
C14 C9 1_555 1_555
H12 C14 1_555 1_555
C15 H13 1_555 1_555
C16 N2 1_555 1_555
H14 C16 1_555 1_555
H15 C16 1_555 1_555
C17 C15 1_555 1_555
C18 C17 1_555 1_555
H16 C18 1_555 1_555
C19 C18 1_555 1_555
H17 C19 1_555 1_555
C20 C19 1_555 1_555
C21 C20 1_555 1_555
H18 C21 1_555 1_555
C22 C17 1_555 1_555
H19 C22 1_555 1_555
C23 C15 1_555 1_555
C24 C23 1_555 1_555
H20 C24 1_555 1_555
C25 C24 1_555 1_555
H21 C25 1_555 1_555
C26 C25 1_555 1_555
H22 C26 1_555 1_555
C27 C26 1_555 1_555
H23 C27 1_555 1_555
C28 C23 1_555 1_555
H24 C28 1_555 1_555
C1 C2 1_555 1_555
C7 C8 1_555 1_555
C13 C14 1_555 1_555
C15 C16 1_555 1_555
C21 C22 1_555 1_555
C27 C28 1_555 1_555

#END
