
#######################################################################
#
#                 Cambridge Crystallographic Data Centre
#                                CCDC 
#
#######################################################################
#
# If this CIF has been generated from an entry in the Cambridge 
# Structural Database, then it will include bibliographic, chemical, 
# crystal, experimental, refinement or atomic coordinate data resulting 
# from the CCDC's data processing and validation procedures.
#
#######################################################################

data_SACGOU
_chemical_formula_moiety         'C17 H19 N1 O3 S2'
_chemical_name_systematic        
(E)-4-(1,3-Dithiolan-2-ylidene)-5-(4-methoxyphenyl)-N,N-dimethyl-5-oxopent-2-enamide
_symmetry_cell_setting           monoclinic
_symmetry_space_group_name_H-M   'P 21/c'
_symmetry_Int_Tables_number      14
_space_group_name_Hall           '-P 2ybc'
loop_
_symmetry_equiv_pos_site_id
_symmetry_equiv_pos_as_xyz
1 x,y,z
2 -x,1/2+y,1/2-z
3 -x,-y,-z
4 x,1/2-y,1/2+z
_cell_length_a                   8.0237(8)
_cell_length_b                   13.0732(12)
_cell_length_c                   16.3512(16)
_cell_angle_alpha                90
_cell_angle_beta                 92.440(2)
_cell_angle_gamma                90
_cell_volume                     1713.61
_exptl_crystal_colour            colorless
_exptl_crystal_description       prismatic
_chemical_melting_point          '141-143 deg.C'
_cell_formula_units_Z            4
loop_
_atom_site_label
_atom_site_type_symbol
_atom_site_fract_x
_atom_site_fract_y
_atom_site_fract_z
S1 S 1.00315(8) 0.33918(5) 0.23957(4)
S2 S 1.07481(9) 0.14229(6) 0.31859(4)
N1 N 0.3172(2) 0.45049(14) 0.42485(12)
O1 O 0.8878(2) 0.22887(14) 0.51204(10)
O2 O 0.5036(2) 0.52028(13) 0.34223(11)
O3 O 0.5271(2) -0.18428(13) 0.41460(11)
C1 C 0.8297(3) 0.20066(17) 0.44590(13)
C2 C 0.8379(3) 0.27183(16) 0.37349(13)
C3 C 0.7204(3) 0.35552(16) 0.36662(14)
H1 H 0.7404 0.4052 0.3276
C4 C 0.5863(3) 0.36830(17) 0.41083(14)
H2 H 0.5674 0.3245 0.4543
C5 C 0.4671(3) 0.45225(17) 0.39085(13)
C6 C 0.9549(3) 0.25471(17) 0.31811(13)
C7 C 1.1194(4) 0.2477(3) 0.18279(17)
H3 H 1.0440 0.2070 0.1482
H4 H 1.1959 0.2830 0.1481
C8 C 1.2134(4) 0.1810(3) 0.2412(2)
H5 H 1.3077 0.2178 0.2659
H6 H 1.2550 0.1215 0.2132
C9 C 0.7515(3) 0.09985(16) 0.43415(12)
C10 C 0.6539(3) 0.07616(18) 0.36442(13)
H7 H 0.6414 0.1245 0.3229
C11 C 0.5755(3) -0.01682(18) 0.35532(14)
H8 H 0.5099 -0.0310 0.3084
C12 C 0.5953(3) -0.08935(18) 0.41688(14)
C13 C 0.6961(3) -0.06786(18) 0.48596(14)
H9 H 0.7120 -0.1173 0.5264
C14 C 0.7718(3) 0.02520(18) 0.49501(13)
H10 H 0.8373 0.0391 0.5420
C15 C 0.4149(4) -0.2099(2) 0.34805(19)
H11 H 0.3155 -0.1694 0.3509
H12 H 0.3866 -0.2811 0.3510
H13 H 0.4669 -0.1965 0.2973
C16 C 0.2642(3) 0.3762(2) 0.48435(19)
H14 H 0.1895 0.3280 0.4579
H15 H 0.2082 0.4107 0.5271
H16 H 0.3600 0.3407 0.5073
C17 C 0.1931(3) 0.5269(2) 0.39969(18)
H17 H 0.1908 0.5799 0.4402
H18 H 0.0853 0.4952 0.3941
H19 H 0.2215 0.5559 0.3482
loop_
_geom_bond_atom_site_label_1
_geom_bond_atom_site_label_2
_geom_bond_site_symmetry_1
_geom_bond_site_symmetry_2
S1 C6 1_555 1_555
S2 C6 1_555 1_555
N1 C5 1_555 1_555
O1 C1 1_555 1_555
O2 C5 1_555 1_555
O3 C12 1_555 1_555
C1 C2 1_555 1_555
C2 C3 1_555 1_555
C3 H1 1_555 1_555
C4 C3 1_555 1_555
H2 C4 1_555 1_555
C5 C4 1_555 1_555
C6 C2 1_555 1_555
C7 S1 1_555 1_555
H3 C7 1_555 1_555
H4 C7 1_555 1_555
C8 S2 1_555 1_555
H5 C8 1_555 1_555
H6 C8 1_555 1_555
C9 C1 1_555 1_555
C10 C9 1_555 1_555
H7 C10 1_555 1_555
C11 C10 1_555 1_555
H8 C11 1_555 1_555
C12 C11 1_555 1_555
C13 C12 1_555 1_555
H9 C13 1_555 1_555
C14 C9 1_555 1_555
H10 C14 1_555 1_555
C15 O3 1_555 1_555
H11 C15 1_555 1_555
H12 C15 1_555 1_555
H13 C15 1_555 1_555
C16 N1 1_555 1_555
H14 C16 1_555 1_555
H15 C16 1_555 1_555
H16 C16 1_555 1_555
C17 N1 1_555 1_555
H17 C17 1_555 1_555
H18 C17 1_555 1_555
H19 C17 1_555 1_555
C7 C8 1_555 1_555
C13 C14 1_555 1_555

#END
