
#######################################################################
#
#                 Cambridge Crystallographic Data Centre
#                                CCDC 
#
#######################################################################
#
# If this CIF has been generated from an entry in the Cambridge 
# Structural Database, then it will include bibliographic, chemical, 
# crystal, experimental, refinement or atomic coordinate data resulting 
# from the CCDC's data processing and validation procedures.
#
#######################################################################

data_SACLOZ
_chemical_formula_moiety         'C27 H22 F2 N2 O3'
_chemical_name_systematic        
1-(3-Fluorobenzyl)-5-(((3-fluorobenzyl)imino)(2-hydroxy-4-methoxyphenyl)methyl)pyridin-2(1H)-one
_chemical_properties_biological  'anti-HBV activity'
_symmetry_cell_setting           triclinic
_symmetry_space_group_name_H-M   'P -1'
_symmetry_Int_Tables_number      2
_space_group_name_Hall           '-P 1'
loop_
_symmetry_equiv_pos_site_id
_symmetry_equiv_pos_as_xyz
1 x,y,z
2 -x,-y,-z
_cell_length_a                   9.951(6)
_cell_length_b                   10.059(6)
_cell_length_c                   12.927(7)
_cell_angle_alpha                109.828(7)
_cell_angle_beta                 102.304(7)
_cell_angle_gamma                104.898(7)
_cell_volume                     1110.29
_exptl_crystal_colour            yellow
_exptl_crystal_description       column
_cell_formula_units_Z            2
loop_
_atom_site_label
_atom_site_type_symbol
_atom_site_fract_x
_atom_site_fract_y
_atom_site_fract_z
F1 F 1.2574(3) 0.5474(3) 1.54271(19)
F2 F 0.4499(3) 0.1066(3) 0.3868(2)
N1 N 0.73075(17) 0.10851(18) 1.11814(13)
N2 N 0.85255(16) 0.29353(17) 0.85989(12)
O1 O 0.42737(16) -0.56695(16) 0.73190(12)
O2 O 0.55663(15) -0.13981(16) 1.09054(11)
O3 O 1.07736(17) 0.43959(16) 0.87202(13)
C1 C 0.3267(3) -0.6612(3) 0.7638(2)
H1 H 0.2865 -0.7627 0.7042
H2 H 0.2484 -0.6238 0.7727
H3 H 0.3773 -0.6607 0.8361
C2 C 0.4977(2) -0.4178(2) 0.80637(15)
C3 C 0.4885(2) -0.3534(2) 0.91515(15)
H4 H 0.4308 -0.4131 0.9423
C4 C 0.56454(19) -0.1986(2) 0.98628(15)
C5 C 0.65286(19) -0.1085(2) 0.94170(14)
C6 C 0.6585(2) -0.1813(2) 0.82976(15)
H5 H 0.7146 -0.1243 0.8000
C7 C 0.5851(2) -0.3318(2) 0.76313(16)
H6 H 0.5927 -0.3771 0.6899
C8 C 0.73530(19) 0.0493(2) 1.01258(15)
C9 C 0.8168(2) 0.2625(2) 1.20316(16)
H7 H 0.7568 0.3013 1.2468
H8 H 0.8437 0.3254 1.1627
C10 C 0.9549(2) 0.2737(2) 1.28693(15)
C11 C 1.1222(3) 0.1623(4) 1.3575(2)
C12 C 1.2092(3) 0.2966(5) 1.4449(3)
H9 H 1.2937 0.3051 1.4982
C13 C 1.1721(3) 0.4205(4) 1.4545(2)
C14 C 1.0453(3) 0.4127(3) 1.37552(18)
H10 H 1.0231 0.4992 1.3829
C15 C 0.9940(3) 0.1493(3) 1.27899(18)
H11 H 0.9335 0.0548 1.2200
C16 C 0.82991(19) 0.1456(2) 0.96918(14)
C17 C 0.9843(2) 0.1893(2) 1.00811(16)
H12 H 1.0289 0.1527 1.0576
C18 C 1.0688(2) 0.2841(2) 0.97438(17)
H13 H 1.1704 0.3094 1.0000
C19 C 1.0063(2) 0.3466(2) 0.90055(16)
C20 C 0.7692(2) 0.1986(2) 0.89492(14)
H14 H 0.6672 0.1691 0.8670
C21 C 0.7789(2) 0.3499(2) 0.78101(16)
H15 H 0.8422 0.4515 0.7992
H16 H 0.6885 0.3557 0.7956
C22 C 0.7427(2) 0.2529(2) 0.65364(17)
C23 C 0.8418(3) 0.1951(2) 0.61161(18)
H17 H 0.9322 0.2128 0.6630
C24 C 0.8074(4) 0.1118(3) 0.4944(2)
C25 C 0.6739(4) 0.0838(3) 0.4162(2)
H18 H 0.6504 0.0274 0.3368
C26 C 0.5780(3) 0.1412(3) 0.4592(2)
C27 C 0.6099(3) 0.2242(3) 0.57593(19)
H19 H 0.5412 0.2610 0.6025
H20 H 0.605(4) -0.037(2) 1.124(4)
F3? F 1.1711(7) 0.0788(7) 1.3617(5)
F4? F 0.8799(5) 0.0350(5) 0.4529(3)
loop_
_geom_bond_atom_site_label_1
_geom_bond_atom_site_label_2
_geom_bond_site_symmetry_1
_geom_bond_site_symmetry_2
F1 C13 1_555 1_555
F2 C26 1_555 1_555
N1 C8 1_555 1_555
N2 C19 1_555 1_555
O1 C1 1_555 1_555
O2 C4 1_555 1_555
O3 C19 1_555 1_555
C1 H1 1_555 1_555
H2 C1 1_555 1_555
H3 C1 1_555 1_555
C2 O1 1_555 1_555
C3 C2 1_555 1_555
H4 C3 1_555 1_555
C4 C3 1_555 1_555
C5 C4 1_555 1_555
C6 C5 1_555 1_555
H5 C6 1_555 1_555
C7 C2 1_555 1_555
H6 C7 1_555 1_555
C8 C5 1_555 1_555
C9 N1 1_555 1_555
H7 C9 1_555 1_555
H8 C9 1_555 1_555
C10 C9 1_555 1_555
C11 C12 1_555 1_555
C12 H9 1_555 1_555
C13 C12 1_555 1_555
C14 C10 1_555 1_555
H10 C14 1_555 1_555
C15 C10 1_555 1_555
H11 C15 1_555 1_555
C16 C8 1_555 1_555
C17 C16 1_555 1_555
H12 C17 1_555 1_555
C18 C17 1_555 1_555
H13 C18 1_555 1_555
C19 C18 1_555 1_555
C20 N2 1_555 1_555
H14 C20 1_555 1_555
C21 N2 1_555 1_555
H15 C21 1_555 1_555
H16 C21 1_555 1_555
C22 C21 1_555 1_555
C23 C22 1_555 1_555
H17 C23 1_555 1_555
C24 C23 1_555 1_555
C25 C24 1_555 1_555
H18 C25 1_555 1_555
C26 C25 1_555 1_555
C27 C22 1_555 1_555
H19 C27 1_555 1_555
H20 O2 1_555 1_555
C6 C7 1_555 1_555
C11 C15 1_555 1_555
C13 C14 1_555 1_555
C16 C20 1_555 1_555
C26 C27 1_555 1_555

#END
