
#######################################################################
#
#                 Cambridge Crystallographic Data Centre
#                                CCDC 
#
#######################################################################
#
# If this CIF has been generated from an entry in the Cambridge 
# Structural Database, then it will include bibliographic, chemical, 
# crystal, experimental, refinement or atomic coordinate data resulting 
# from the CCDC's data processing and validation procedures.
#
#######################################################################

data_SACXAW
_chemical_formula_moiety         'C15 H14 N4 O2'
_chemical_name_systematic        
N-(2-(Hydroxyimino)-1-phenylpropylidene)pyridine-2-carbohydrazide
_symmetry_cell_setting           orthorhombic
_symmetry_space_group_name_H-M   'P n a 21'
_symmetry_Int_Tables_number      33
_space_group_name_Hall           'P 2c -2n'
loop_
_symmetry_equiv_pos_site_id
_symmetry_equiv_pos_as_xyz
1 x,y,z
2 -x,-y,1/2+z
3 1/2-x,1/2+y,1/2+z
4 1/2+x,1/2-y,z
_cell_length_a                   7.834(3)
_cell_length_b                   11.797(4)
_cell_length_c                   15.281(3)
_cell_angle_alpha                90
_cell_angle_beta                 90
_cell_angle_gamma                90
_cell_volume                     1412.23
_exptl_crystal_colour            colorless
_exptl_crystal_description       irregular
_cell_formula_units_Z            4
loop_
_atom_site_label
_atom_site_type_symbol
_atom_site_fract_x
_atom_site_fract_y
_atom_site_fract_z
O1 O -0.1542(5) -0.9441(3) -0.8913
O2 O -0.2942(6) -0.6354(3) -1.2899(3)
N1 N 0.0017(7) -0.6995(4) -0.7834(4)
N2 N -0.1208(7) -0.7603(4) -0.9342(4)
N3 N -0.1685(6) -0.7765(3) -1.0194(4)
N4 N -0.2545(7) -0.6118(4) -1.2024(4)
C1 C 0.0809(9) -0.6662(6) -0.7118(5)
C2 C 0.1429(9) -0.7414(7) -0.6492(5)
C3 C 0.1206(9) -0.8534(7) -0.6610(5)
C4 C 0.0383(8) -0.8907(5) -0.7349(5)
C5 C -0.0207(6) -0.8114(4) -0.7943(4)
C6 C -0.1052(7) -0.8477(5) -0.8774(4)
C7 C -0.1921(7) -0.6872(4) -1.0654(4)
C8 C -0.2336(7) -0.7032(4) -1.1582(4)
C9 C -0.2498(8) -0.8200(5) -1.1947(4)
C10 C -0.1784(7) -0.5690(4) -1.0271(4)
C11 C -0.3255(8) -0.5109(5) -1.0061(4)
C12 C -0.315(1) -0.4110(5) -0.9601(5)
C13 C -0.159(1) -0.3673(4) -0.9353(4)
C14 C -0.0121(9) -0.4238(5) -0.9583(5)
C15 C -0.0197(8) -0.5252(5) -1.0033(5)
H1 H -0.084(8) -0.688(5) -0.923(5)
H2 H -0.290(8) -0.566(5) -1.311(4)
H3 H 0.0964 -0.5873 -0.7024
H4 H 0.2004 -0.7140 -0.5988
H5 H 0.1612 -0.9059 -0.6188
H6 H 0.0222 -0.9695 -0.7450
H7 H -0.2592 -0.8729 -1.1481
H8 H -0.3488 -0.8243 -1.2305
H9 H -0.1518 -0.8372 -1.2288
H10 H -0.4337 -0.5397 -1.0234
H11 H -0.4165 -0.3716 -0.9450
H12 H -0.1529 -0.2988 -0.9026
H13 H 0.0958 -0.3927 -0.9432
H14 H 0.0820 -0.5647 -1.0178
loop_
_geom_bond_atom_site_label_1
_geom_bond_atom_site_label_2
_geom_bond_site_symmetry_1
_geom_bond_site_symmetry_2
O1 C6 1_555 1_555
O2 N4 1_555 1_555
N1 C1 1_555 1_555
N2 N3 1_555 1_555
N3 C7 1_555 1_555
N4 C8 1_555 1_555
C1 C2 1_555 1_555
C2 C3 1_555 1_555
C3 C4 1_555 1_555
C4 C5 1_555 1_555
C5 N1 1_555 1_555
C6 N2 1_555 1_555
C7 C8 1_555 1_555
C8 C9 1_555 1_555
C9 H7 1_555 1_555
C10 C7 1_555 1_555
C11 C10 1_555 1_555
C12 C11 1_555 1_555
C13 C12 1_555 1_555
C14 C13 1_555 1_555
C15 C10 1_555 1_555
H1 N2 1_555 1_555
H2 O2 1_555 1_555
H3 C1 1_555 1_555
H4 C2 1_555 1_555
H5 C3 1_555 1_555
H6 C4 1_555 1_555
H8 C9 1_555 1_555
H9 C9 1_555 1_555
H10 C11 1_555 1_555
H11 C12 1_555 1_555
H12 C13 1_555 1_555
H13 C14 1_555 1_555
H14 C15 1_555 1_555
C5 C6 1_555 1_555
C14 C15 1_555 1_555

#END
