
#######################################################################
#
#                 Cambridge Crystallographic Data Centre
#                                CCDC 
#
#######################################################################
#
# If this CIF has been generated from an entry in the Cambridge 
# Structural Database, then it will include bibliographic, chemical, 
# crystal, experimental, refinement or atomic coordinate data resulting 
# from the CCDC's data processing and validation procedures.
#
#######################################################################

data_SADKUF
_chemical_formula_moiety         'C17 H17 N3 O4'
_chemical_name_systematic        
2-Nitro-4-(2-(4-nitrophenyl)vinyl)-N-propylaniline
_symmetry_cell_setting           orthorhombic
_symmetry_space_group_name_H-M   'P b c a'
_symmetry_Int_Tables_number      61
_space_group_name_Hall           '-P 2ac 2ab'
loop_
_symmetry_equiv_pos_site_id
_symmetry_equiv_pos_as_xyz
1 x,y,z
2 1/2-x,-y,1/2+z
3 -x,1/2+y,1/2-z
4 1/2+x,1/2-y,-z
5 -x,-y,-z
6 1/2+x,y,1/2-z
7 x,1/2-y,1/2+z
8 1/2-x,1/2+y,z
_cell_length_a                   14.0954(2)
_cell_length_b                   13.6059(2)
_cell_length_c                   16.2976(2)
_cell_angle_alpha                90
_cell_angle_beta                 90
_cell_angle_gamma                90
_cell_volume                     3125.56
_exptl_crystal_colour            red
_exptl_crystal_description       block
_cell_formula_units_Z            8
loop_
_atom_site_label
_atom_site_type_symbol
_atom_site_fract_x
_atom_site_fract_y
_atom_site_fract_z
C1 C -0.40208(11) 0.33403(11) -0.28066(9)
C2 C -0.45857(11) 0.30582(12) -0.21597(9)
H1 H -0.5211 0.2865 -0.2246
C3 C -0.42065(11) 0.30682(12) -0.13817(9)
H2 H -0.4577 0.2859 -0.0943
C4 C -0.32806(10) 0.33838(10) -0.12341(9)
C5 C -0.27336(10) 0.36746(12) -0.19088(9)
H3 H -0.2115 0.3890 -0.1826
C6 C -0.30961(11) 0.36468(11) -0.26925(9)
H4 H -0.2724 0.3831 -0.3138
C7 C -0.29385(11) 0.34194(11) -0.03894(8)
H5 H -0.3345 0.3177 0.0012
C8 C -0.21055(10) 0.37624(11) -0.01355(8)
H6 H -0.1688 0.3978 -0.0539
C9 C -0.17813(10) 0.38348(10) 0.07110(9)
C10 C -0.23827(10) 0.36763(12) 0.13922(9)
H7 H -0.3013 0.3509 0.1298
C11 C -0.20773(10) 0.37590(11) 0.21787(8)
H8 H -0.2501 0.3635 0.2604
C12 C -0.11331(10) 0.40279(10) 0.23716(9)
C13 C -0.05282(10) 0.41854(10) 0.16842(9)
C14 C -0.08540(10) 0.40901(11) 0.08804(8)
H9 H -0.0437 0.4201 0.0448
C15 C -0.14590(10) 0.39214(12) 0.38641(8)
H10 H -0.1646 0.3235 0.3867
H11 H -0.2028 0.4320 0.3837
C16 C -0.09111(11) 0.41598(13) 0.46374(9)
H12 H -0.0721 0.4845 0.4623
H13 H -0.0339 0.3763 0.4653
C17 C -0.14827(12) 0.39737(13) 0.54093(9)
H14 H -0.1106 0.4135 0.5881
H15 H -0.1661 0.3293 0.5432
H16 H -0.2043 0.4375 0.5403
N1 N -0.44103(10) 0.33120(9) -0.36382(8)
N2 N -0.08612(9) 0.41191(10) 0.31575(7)
N3 N 0.04528(9) 0.44424(9) 0.17896(7)
O1 O -0.52660(10) 0.31717(13) -0.37147(8)
O2 O -0.38807(9) 0.34357(10) -0.42162(7)
O3 O 0.07631(7) 0.46061(10) 0.24890(7)
O4 O 0.09693(8) 0.44908(10) 0.11834(7)
H17 H -0.0320(14) 0.4280(12) 0.3256(10)
loop_
_geom_bond_atom_site_label_1
_geom_bond_atom_site_label_2
_geom_bond_site_symmetry_1
_geom_bond_site_symmetry_2
C1 C2 1_555 1_555
C2 H1 1_555 1_555
C3 C2 1_555 1_555
H2 C3 1_555 1_555
C4 C3 1_555 1_555
C5 C4 1_555 1_555
H3 C5 1_555 1_555
C6 C1 1_555 1_555
H4 C6 1_555 1_555
C7 C4 1_555 1_555
H5 C7 1_555 1_555
C8 C7 1_555 1_555
H6 C8 1_555 1_555
C9 C8 1_555 1_555
C10 C9 1_555 1_555
H7 C10 1_555 1_555
C11 C10 1_555 1_555
H8 C11 1_555 1_555
C12 C11 1_555 1_555
C13 C12 1_555 1_555
C14 C9 1_555 1_555
H9 C14 1_555 1_555
C15 H10 1_555 1_555
H11 C15 1_555 1_555
C16 C15 1_555 1_555
H12 C16 1_555 1_555
H13 C16 1_555 1_555
C17 C16 1_555 1_555
H14 C17 1_555 1_555
H15 C17 1_555 1_555
H16 C17 1_555 1_555
N1 C1 1_555 1_555
N2 C12 1_555 1_555
N3 C13 1_555 1_555
O1 N1 1_555 1_555
O2 N1 1_555 1_555
O3 N3 1_555 1_555
O4 N3 1_555 1_555
H17 N2 1_555 1_555
C5 C6 1_555 1_555
C13 C14 1_555 1_555
C15 N2 1_555 1_555

#END
