
#######################################################################
#
#                 Cambridge Crystallographic Data Centre
#                                CCDC 
#
#######################################################################
#
# If this CIF has been generated from an entry in the Cambridge 
# Structural Database, then it will include bibliographic, chemical, 
# crystal, experimental, refinement or atomic coordinate data resulting 
# from the CCDC's data processing and validation procedures.
#
#######################################################################

data_SADKEQ
_chemical_formula_moiety         'C14 H19 N1 O1 S1'
_chemical_name_systematic        
(5-(2-methylprop-1-en-1-yl)-2-thienyl)(piperidin-1-yl)methanone
_symmetry_cell_setting           monoclinic
_symmetry_space_group_name_H-M   'P 21/n'
_symmetry_Int_Tables_number      14
_space_group_name_Hall           '-P 2yn'
loop_
_symmetry_equiv_pos_site_id
_symmetry_equiv_pos_as_xyz
1 x,y,z
2 1/2-x,1/2+y,1/2-z
3 -x,-y,-z
4 1/2+x,1/2-y,1/2+z
_cell_length_a                   6.3690(7)
_cell_length_b                   24.769(3)
_cell_length_c                   8.6666(10)
_cell_angle_alpha                90
_cell_angle_beta                 106.785(4)
_cell_angle_gamma                90
_cell_volume                     1308.94
_exptl_crystal_description       platy
_cell_formula_units_Z            4
loop_
_atom_site_label
_atom_site_type_symbol
_atom_site_fract_x
_atom_site_fract_y
_atom_site_fract_z
S1 S 0.5114(2) 0.10268(6) 0.08009(17)
N1 N 0.3998(8) 0.2417(2) -0.1566(5)
O1 O 0.6627(7) 0.1779(2) -0.1139(6)
C1 C 0.2818(9) 0.0699(3) 0.1029(7)
C2 C 0.4842(9) 0.1927(3) -0.1035(6)
C3 C 0.0972(9) 0.0977(3) 0.0204(7)
H1 H -0.0435 0.0865 0.0168
C4 C 0.1378(9) 0.1445(3) -0.0582(7)
H2 H 0.0278 0.1671 -0.1186
C5 C 0.3564(9) 0.1533(2) -0.0364(6)
C6 C 0.2389(10) 0.2708(3) -0.0982(7)
H3 H 0.1571 0.2455 -0.0526
H4 H 0.1363 0.2893 -0.1873
C7 C 0.2804(10) 0.0204(3) 0.1922(7)
H5 H 0.1427 0.0102 0.1985
C8 C 0.3952(14) -0.0630(3) 0.3489(8)
H6 H 0.2426 -0.0636 0.3437
H7 H 0.4826 -0.0630 0.4595
H8 H 0.4296 -0.0943 0.2955
C9 C 0.5334(11) 0.2776(3) -0.2240(7)
H9 H 0.4394 0.2970 -0.3152
H10 H 0.6362 0.2564 -0.2622
C10 C 0.4433(11) -0.0130(3) 0.2672(7)
C11 C 0.6585(11) 0.3177(3) -0.0981(8)
H11 H 0.7404 0.3422 -0.1462
H12 H 0.7621 0.2985 -0.0112
C12 C 0.5000(12) 0.3496(3) -0.0312(9)
H13 H 0.5820 0.3724 0.0567
H14 H 0.4103 0.3728 -0.1148
C13 C 0.6789(11) -0.0054(3) 0.2748(10)
H15 H 0.6890 0.0174 0.1877
H16 H 0.7436 -0.0399 0.2659
H17 H 0.7555 0.0110 0.3756
C14 C 0.3532(12) 0.3116(3) 0.0291(8)
H18 H 0.4410 0.2926 0.1236
H19 H 0.2438 0.3326 0.0608
loop_
_geom_bond_atom_site_label_1
_geom_bond_atom_site_label_2
_geom_bond_site_symmetry_1
_geom_bond_site_symmetry_2
S1 C1 1_555 1_555
N1 C2 1_555 1_555
O1 C2 1_555 1_555
C1 C3 1_555 1_555
C2 C5 1_555 1_555
C3 H1 1_555 1_555
C4 C3 1_555 1_555
H2 C4 1_555 1_555
C5 S1 1_555 1_555
C6 N1 1_555 1_555
H3 C6 1_555 1_555
H4 C6 1_555 1_555
C7 C1 1_555 1_555
H5 C7 1_555 1_555
C8 H6 1_555 1_555
H7 C8 1_555 1_555
H8 C8 1_555 1_555
C9 N1 1_555 1_555
H9 C9 1_555 1_555
H10 C9 1_555 1_555
C10 C7 1_555 1_555
C11 C9 1_555 1_555
H11 C11 1_555 1_555
H12 C11 1_555 1_555
C12 C11 1_555 1_555
H13 C12 1_555 1_555
H14 C12 1_555 1_555
C13 C10 1_555 1_555
H15 C13 1_555 1_555
H16 C13 1_555 1_555
H17 C13 1_555 1_555
C14 C6 1_555 1_555
H18 C14 1_555 1_555
H19 C14 1_555 1_555
C4 C5 1_555 1_555
C8 C10 1_555 1_555
C12 C14 1_555 1_555

#END
