
#######################################################################
#
#                 Cambridge Crystallographic Data Centre
#                                CCDC 
#
#######################################################################
#
# If this CIF has been generated from an entry in the Cambridge 
# Structural Database, then it will include bibliographic, chemical, 
# crystal, experimental, refinement or atomic coordinate data resulting 
# from the CCDC's data processing and validation procedures.
#
#######################################################################

data_SADLAM
_chemical_formula_moiety         'C17 H17 N3 O6'
_chemical_name_systematic        
2-((2-Nitro-4-(2-(4-nitrophenyl)vinyl)phenyl)amino)propane-1,3-diol
_symmetry_cell_setting           monoclinic
_symmetry_space_group_name_H-M   'P 21/n'
_symmetry_Int_Tables_number      14
_space_group_name_Hall           '-P 2yn'
loop_
_symmetry_equiv_pos_site_id
_symmetry_equiv_pos_as_xyz
1 x,y,z
2 1/2-x,1/2+y,1/2-z
3 -x,-y,-z
4 1/2+x,1/2-y,1/2+z
_cell_length_a                   6.6544(3)
_cell_length_b                   14.0082(5)
_cell_length_c                   17.2852(7)
_cell_angle_alpha                90
_cell_angle_beta                 98.891(4)
_cell_angle_gamma                90
_cell_volume                     1591.9
_exptl_crystal_colour            red
_exptl_crystal_description       needle
_cell_formula_units_Z            4
loop_
_atom_site_label
_atom_site_type_symbol
_atom_site_fract_x
_atom_site_fract_y
_atom_site_fract_z
C1 C 0.8049(5) 0.2529(3) -0.2880(2)
C2 C 0.8203(5) 0.1838(3) -0.2304(2)
H1 H 0.8269 0.1196 -0.2435
C3 C 0.8259(5) 0.2108(3) -0.1530(2)
H2 H 0.8372 0.1643 -0.1142
C4 C 0.8148(5) 0.3069(3) -0.1322(2)
C5 C 0.8003(5) 0.3754(3) -0.1918(2)
H3 H 0.7925 0.4397 -0.1792
C6 C 0.7973(5) 0.3486(3) -0.2701(2)
H4 H 0.7904 0.3946 -0.3092
C7 C 0.8149(5) 0.3309(2) -0.0496(2)
H5 H 0.8429 0.2821 -0.0129
C8 C 0.7780(5) 0.4170(3) -0.0235(2)
H6 H 0.7571 0.4652 -0.0608
C9 C 0.7660(5) 0.4452(2) 0.0571(2)
C10 C 0.7880(5) 0.3811(2) 0.1218(2)
H7 H 0.8129 0.3169 0.1133
C11 C 0.7735(5) 0.4109(2) 0.1959(2)
H8 H 0.7903 0.3665 0.2364
C12 C 0.7337(5) 0.5074(3) 0.2132(2)
C13 C 0.7162(5) 0.5711(2) 0.1481(2)
C14 C 0.7300(5) 0.5396(2) 0.0727(2)
H9 H 0.7145 0.5835 0.0318
C15 C 0.9663(6) 0.4624(2) 0.3871(2)
H10 H 1.0369 0.4395 0.3457
H11 H 1.0224 0.5242 0.4040
C16 C 0.6215(6) 0.5152(3) 0.4152(2)
H12 H 0.4774 0.5096 0.3955
H13 H 0.6495 0.4792 0.4636
C17 C 0.7422(5) 0.4730(3) 0.3558(2)
H14 H 0.6866 0.4098 0.3405
N1 N 0.8016(5) 0.2245(2) -0.3693(2)
N2 N 0.7147(5) 0.5346(2) 0.28659(18)
N3 N 0.6897(4) 0.6716(2) 0.15690(19)
O1 O 0.7805(4) 0.1396(2) -0.38578(16)
O2 O 0.8217(5) 0.2875(2) -0.41723(18)
O3 O 0.9987(4) 0.39736(18) 0.45137(15)
O4 O 0.6700(4) 0.6126(2) 0.43070(17)
O5 O 0.6754(4) 0.70497(17) 0.22294(16)
O6 O 0.6820(4) 0.72370(17) 0.09876(16)
H15 H 0.695(7) 0.591(4) 0.302(3)
H16 H 0.934(6) 0.339(3) 0.439(2)
H17 H 0.774(6) 0.614(3) 0.461(2)
loop_
_geom_bond_atom_site_label_1
_geom_bond_atom_site_label_2
_geom_bond_site_symmetry_1
_geom_bond_site_symmetry_2
C1 C2 1_555 1_555
C2 H1 1_555 1_555
C3 C2 1_555 1_555
H2 C3 1_555 1_555
C4 C3 1_555 1_555
C5 C4 1_555 1_555
H3 C5 1_555 1_555
C6 C1 1_555 1_555
H4 C6 1_555 1_555
C7 C4 1_555 1_555
H5 C7 1_555 1_555
C8 C7 1_555 1_555
H6 C8 1_555 1_555
C9 C8 1_555 1_555
C10 C9 1_555 1_555
H7 C10 1_555 1_555
C11 C10 1_555 1_555
H8 C11 1_555 1_555
C12 C11 1_555 1_555
C13 C12 1_555 1_555
C14 C9 1_555 1_555
H9 C14 1_555 1_555
C15 H10 1_555 1_555
H11 C15 1_555 1_555
C16 H12 1_555 1_555
H13 C16 1_555 1_555
C17 C15 1_555 1_555
H14 C17 1_555 1_555
N1 C1 1_555 1_555
N2 C12 1_555 1_555
N3 C13 1_555 1_555
O1 N1 1_555 1_555
O2 N1 1_555 1_555
O3 C15 1_555 1_555
O4 C16 1_555 1_555
O5 N3 1_555 1_555
O6 N3 1_555 1_555
H15 N2 1_555 1_555
H16 O3 1_555 1_555
H17 O4 1_555 1_555
C5 C6 1_555 1_555
C13 C14 1_555 1_555
C16 C17 1_555 1_555
C17 N2 1_555 1_555

#END
