
#######################################################################
#
#                 Cambridge Crystallographic Data Centre
#                                CCDC 
#
#######################################################################
#
# If this CIF has been generated from an entry in the Cambridge 
# Structural Database, then it will include bibliographic, chemical, 
# crystal, experimental, refinement or atomic coordinate data resulting 
# from the CCDC's data processing and validation procedures.
#
#######################################################################

data_SADMUG
_chemical_formula_moiety         'C8 H15 N2 O1 1+,I1 1-'
_chemical_name_systematic        
"N'-(2-Hydroxy-2-methylpropyl)-N-methylimidazolium iodide"
_symmetry_cell_setting           orthorhombic
_symmetry_space_group_name_H-M   'P n a 21'
_symmetry_Int_Tables_number      33
_space_group_name_Hall           'P 2c -2n'
loop_
_symmetry_equiv_pos_site_id
_symmetry_equiv_pos_as_xyz
1 x,y,z
2 -x,-y,1/2+z
3 1/2-x,1/2+y,1/2+z
4 1/2+x,1/2-y,z
_cell_length_a                   15.347(3)
_cell_length_b                   7.6309(14)
_cell_length_c                   9.725(2)
_cell_angle_alpha                90
_cell_angle_beta                 90
_cell_angle_gamma                90
_cell_volume                     1138.91
_exptl_crystal_colour            colorless
_exptl_crystal_description       block
_chemical_melting_point          '102-103 deg.C'
_cell_formula_units_Z            4
loop_
_atom_site_label
_atom_site_type_symbol
_atom_site_fract_x
_atom_site_fract_y
_atom_site_fract_z
I1 I 0.593497(5) 0.151201(12) 0.955990(19)
N1 N 0.45481(10) 0.39291(19) 0.69804(15)
C1 C 0.42454(12) 0.2303(2) 0.70389(18)
H1 H 0.4509 0.1302 0.6634
O1 O 0.40382(7) -0.1089(2) 0.91103(16)
H2 H 0.4446 -0.0358 0.9159
N2 N 0.35070(9) 0.23169(17) 0.77650(16)
C2 C 0.33462(12) 0.4013(2) 0.81961(19)
H3 H 0.2865 0.4396 0.8732
C3 C 0.40023(12) 0.5025(3) 0.7712(2)
H4 H 0.4073 0.6249 0.7848
C4 C 0.53665(13) 0.4452(3) 0.6321(2)
H5 H 0.5578 0.3494 0.5740
H6 H 0.5802 0.4717 0.7029
H7 H 0.5267 0.5495 0.5755
C5 C 0.29523(13) 0.0789(2) 0.80524(19)
H8 H 0.2974 -0.0017 0.7255
H9 H 0.2342 0.1188 0.8159
C6 C 0.32245(10) -0.02221(19) 0.9357(2)
C7 C 0.25470(11) -0.16701(19) 0.9562(4)
H10 H 0.2726 -0.2427 1.0325
H11 H 0.2500 -0.2368 0.8719
H12 H 0.1980 -0.1142 0.9772
C8 C 0.32798(14) 0.0939(3) 1.06180(19)
H13 H 0.3741 0.1812 1.0488
H14 H 0.3413 0.0220 1.1426
H15 H 0.2721 0.1536 1.0756
loop_
_geom_bond_atom_site_label_1
_geom_bond_atom_site_label_2
_geom_bond_site_symmetry_1
_geom_bond_site_symmetry_2
N1 C1 1_555 1_555
C1 H1 1_555 1_555
O1 H2 1_555 1_555
N2 C1 1_555 1_555
C2 N2 1_555 1_555
H3 C2 1_555 1_555
C3 N1 1_555 1_555
H4 C3 1_555 1_555
C4 N1 1_555 1_555
H5 C4 1_555 1_555
H6 C4 1_555 1_555
H7 C4 1_555 1_555
C5 N2 1_555 1_555
H8 C5 1_555 1_555
H9 C5 1_555 1_555
C6 O1 1_555 1_555
C7 C6 1_555 1_555
H10 C7 1_555 1_555
H11 C7 1_555 1_555
H12 C7 1_555 1_555
C8 C6 1_555 1_555
H13 C8 1_555 1_555
H14 C8 1_555 1_555
H15 C8 1_555 1_555
C2 C3 1_555 1_555
C5 C6 1_555 1_555

#END
