
#######################################################################
#
#                 Cambridge Crystallographic Data Centre
#                                CCDC 
#
#######################################################################
#
# If this CIF has been generated from an entry in the Cambridge 
# Structural Database, then it will include bibliographic, chemical, 
# crystal, experimental, refinement or atomic coordinate data resulting 
# from the CCDC's data processing and validation procedures.
#
#######################################################################

data_SADMEQ
_chemical_formula_moiety         'C10 H19 N2 O1 1+,I1 1-'
_chemical_name_systematic        
"N'-(2-Hydroxy-2-methylpropyl)-N-isopropylimidazolium iodide"
_symmetry_cell_setting           monoclinic
_symmetry_space_group_name_H-M   'P 21/c'
_symmetry_Int_Tables_number      14
_space_group_name_Hall           '-P 2ybc'
loop_
_symmetry_equiv_pos_site_id
_symmetry_equiv_pos_as_xyz
1 x,y,z
2 x,1/2-y,1/2+z
3 -x,-y,-z
4 -x,1/2+y,1/2-z
_cell_length_a                   10.297(2)
_cell_length_b                   11.516(2)
_cell_length_c                   11.439(2)
_cell_angle_alpha                90
_cell_angle_beta                 90.408(3)
_cell_angle_gamma                90
_cell_volume                     1356.41
_exptl_crystal_colour            colorless
_exptl_crystal_description       block
_chemical_melting_point          '97-98 deg.C'
_cell_formula_units_Z            4
loop_
_atom_site_label
_atom_site_type_symbol
_atom_site_fract_x
_atom_site_fract_y
_atom_site_fract_z
I1 I 0.747508(14) -0.004912(11) 0.712604(13)
O1 O 0.52220(14) 0.16998(12) 0.57243(14)
H1 H 0.5922 0.1382 0.5927
N1 N 0.79186(17) -0.01340(13) 0.33715(16)
C1 C 0.6743(2) 0.02731(16) 0.35970(18)
H2 H 0.5996 -0.0184 0.3751
N2 N 0.67820(16) 0.14258(13) 0.35725(14)
C2 C 0.8747(2) 0.07902(17) 0.32105(19)
H3 H 0.9649 0.0750 0.3045
C3 C 0.8032(2) 0.17632(18) 0.33322(19)
H4 H 0.8336 0.2539 0.3264
C4 C 0.8258(2) -0.13809(17) 0.3237(2)
H5 H 0.7442 -0.1848 0.3288
C5 C 0.8846(2) -0.15707(18) 0.20427(19)
H6 H 0.8280 -0.1227 0.1444
H7 H 0.8934 -0.2405 0.1897
H8 H 0.9703 -0.1203 0.2014
C6 C 0.9161(3) -0.17573(19) 0.4217(2)
H9 H 0.8773 -0.1560 0.4971
H10 H 0.9996 -0.1357 0.4140
H11 H 0.9299 -0.2598 0.4174
C7 C 0.5661(2) 0.21970(17) 0.37115(18)
H12 H 0.4865 0.1773 0.3476
H13 H 0.5758 0.2867 0.3177
C8 C 0.5491(2) 0.26497(17) 0.49572(18)
C9 C 0.4269(2) 0.33921(19) 0.4944(2)
H14 H 0.3525 0.2916 0.4702
H15 H 0.4378 0.4035 0.4393
H16 H 0.4118 0.3703 0.5729
C10 C 0.6662(2) 0.33296(18) 0.53840(19)
H17 H 0.6466 0.3688 0.6140
H18 H 0.6872 0.3936 0.4815
H19 H 0.7405 0.2804 0.5473
loop_
_geom_bond_atom_site_label_1
_geom_bond_atom_site_label_2
_geom_bond_site_symmetry_1
_geom_bond_site_symmetry_2
O1 H1 1_555 1_555
N1 C1 1_555 1_555
C1 H2 1_555 1_555
N2 C1 1_555 1_555
C2 N1 1_555 1_555
H3 C2 1_555 1_555
C3 N2 1_555 1_555
H4 C3 1_555 1_555
C4 N1 1_555 1_555
H5 C4 1_555 1_555
C5 C4 1_555 1_555
H6 C5 1_555 1_555
H7 C5 1_555 1_555
H8 C5 1_555 1_555
C6 C4 1_555 1_555
H9 C6 1_555 1_555
H10 C6 1_555 1_555
H11 C6 1_555 1_555
C7 N2 1_555 1_555
H12 C7 1_555 1_555
H13 C7 1_555 1_555
C8 O1 1_555 1_555
C9 C8 1_555 1_555
H14 C9 1_555 1_555
H15 C9 1_555 1_555
H16 C9 1_555 1_555
C10 C8 1_555 1_555
H17 C10 1_555 1_555
H18 C10 1_555 1_555
H19 C10 1_555 1_555
C2 C3 1_555 1_555
C7 C8 1_555 1_555

#END
