
#######################################################################
#
#                 Cambridge Crystallographic Data Centre
#                                CCDC 
#
#######################################################################
#
# If this CIF has been generated from an entry in the Cambridge 
# Structural Database, then it will include bibliographic, chemical, 
# crystal, experimental, refinement or atomic coordinate data resulting 
# from the CCDC's data processing and validation procedures.
#
#######################################################################

data_SADNAN
_chemical_formula_moiety         'C28 H54 I2 Li4 N4 O4'
_chemical_name_systematic        
"bis(\m~3~-N'-(3,3-Dimethylbutan-2-olato)-N-methylimidazolylidene)-bis(\m~3~-iodo)-bis(diethyl ether)-tetra-lithium"
_symmetry_cell_setting           monoclinic
_symmetry_space_group_name_H-M   'C 2/c'
_symmetry_Int_Tables_number      15
_space_group_name_Hall           '-C 2yn'
loop_
_symmetry_equiv_pos_site_id
_symmetry_equiv_pos_as_xyz
1 x,y,z
2 1/2+x,1/2+y,z
3 x,-y,1/2+z
4 1/2+x,1/2-y,1/2+z
5 -x,-y,-z
6 1/2-x,1/2-y,-z
7 -x,y,1/2-z
8 1/2-x,1/2+y,1/2-z
_cell_length_a                   12.8799(15)
_cell_length_b                   15.655(2)
_cell_length_c                   19.034(2)
_cell_angle_alpha                90
_cell_angle_beta                 93.239(2)
_cell_angle_gamma                90
_cell_volume                     3831.79
_exptl_crystal_colour            colorless
_exptl_crystal_description       tablet
_cell_formula_units_Z            4
_exptl_crystal_recrystallization_method 'diethyl ether'
loop_
_atom_site_label
_atom_site_type_symbol
_atom_site_fract_x
_atom_site_fract_y
_atom_site_fract_z
Li1 Li 0.5965(4) 0.0892(4) 0.6872(3)
Li2 Li 0.4301(4) 0.2051(3) 0.7008(3)
I1 I 0.390083(19) 0.027022(15) 0.666322(14)
O1 O 0.57648(15) 0.20809(13) 0.69635(11)
N1 N 0.1882(2) 0.2317(3) 0.63865(18)
N2 N 0.2456(2) 0.30110(19) 0.72874(15)
C1 C 0.2786(3) 0.2541(2) 0.67414(18)
C2 C 0.1389(3) 0.3076(3) 0.7276(2)
H1 H 0.0988 0.3366 0.7606
C3 C 0.1034(3) 0.2647(4) 0.6704(3)
H2 H 0.0326 0.2581 0.6545
C4 C 0.1827(4) 0.1796(4) 0.5750(3)
H3 H 0.1292 0.1356 0.5788
H4 H 0.2502 0.1524 0.5693
H5 H 0.1650 0.2159 0.5341
C5 C 0.3170(2) 0.3340(2) 0.78486(17)
H6 H 0.2813 0.3788 0.8112
H7 H 0.3776 0.3607 0.7637
C6 C 0.6450(2) 0.2637(2) 0.66420(16)
H8 H 0.7073 0.2294 0.6527
C7 C 0.5987(3) 0.3026(2) 0.59355(18)
C8 C 0.5132(3) 0.3681(3) 0.6053(2)
H9 H 0.4859 0.3903 0.5598
H10 H 0.5421 0.4152 0.6341
H11 H 0.4569 0.3407 0.6296
C9 C 0.5553(3) 0.2298(3) 0.54719(19)
H12 H 0.5256 0.2530 0.5027
H13 H 0.5011 0.1996 0.5715
H14 H 0.6115 0.1899 0.5377
C10 C 0.6866(3) 0.3461(3) 0.5547(2)
H15 H 0.6580 0.3703 0.5103
H16 H 0.7400 0.3037 0.5451
H17 H 0.7176 0.3917 0.5842
C15 C 0.9002(5) 0.1022(5) 0.6504(4)
H28 H 0.9616 0.1088 0.6827
H29 H 0.8766 0.1585 0.6337
H30 H 0.9180 0.0671 0.6101
C16 C 0.8156(6) 0.0598(7) 0.6877(4)
H31 H 0.8403 0.0033 0.7049
H32 H 0.7995 0.0946 0.7291
O3 O 0.7227(3) 0.0486(3) 0.6439(3)
C17 C 0.7320(5) -0.0188(5) 0.5935(4)
H33 H 0.7479 -0.0732 0.6183
H34 H 0.7898 -0.0059 0.5630
C18 C 0.6320(7) -0.0277(7) 0.5490(4)
H35 H 0.6391 -0.0737 0.5147
H36 H 0.6168 0.0261 0.5242
H37 H 0.5752 -0.0412 0.5793
Li1F Li 0.4035(4) 0.0892(4) 0.8128(3)
I1F I 0.609917(19) 0.027022(15) 0.833678(14)
O1F O 0.42352(15) 0.20809(13) 0.80365(11)
O3F O 0.2773(3) 0.0486(3) 0.8561(3)
C16F C 0.1844(6) 0.0598(7) 0.8123(4)
C15F C 0.0998(5) 0.1022(5) 0.8496(4)
H28F H 0.0384 0.1088 0.8173
H29F H 0.1234 0.1585 0.8663
H30F H 0.0820 0.0671 0.8899
H31F H 0.1597 0.0033 0.7951
H32F H 0.2005 0.0946 0.7709
C17F C 0.2680(5) -0.0188(5) 0.9065(4)
H33F H 0.2521 -0.0732 0.8817
H34F H 0.2102 -0.0059 0.9370
C18F C 0.3680(7) -0.0277(7) 0.9510(4)
H35F H 0.3609 -0.0737 0.9853
H36F H 0.3832 0.0261 0.9758
H37F H 0.4248 -0.0412 0.9207
Li2F Li 0.5699(4) 0.2051(3) 0.7992(3)
C5F C 0.6830(2) 0.3340(2) 0.71514(17)
N2F N 0.7544(2) 0.30110(19) 0.77126(15)
C1F C 0.7214(3) 0.2541(2) 0.82586(18)
N1F N 0.8118(2) 0.2317(3) 0.86135(18)
C3F C 0.8966(3) 0.2647(4) 0.8296(3)
C2F C 0.8611(3) 0.3076(3) 0.7724(2)
H1F H 0.9012 0.3366 0.7394
H2F H 0.9674 0.2581 0.8455
C4F C 0.8173(4) 0.1796(4) 0.9250(3)
H3F H 0.8708 0.1356 0.9212
H4F H 0.7498 0.1524 0.9307
H5F H 0.8350 0.2159 0.9659
H6F H 0.7187 0.3788 0.6888
H7F H 0.6224 0.3607 0.7363
C6F C 0.3550(2) 0.2637(2) 0.83580(16)
H8F H 0.2927 0.2294 0.8473
C7F C 0.4013(3) 0.3026(2) 0.90645(18)
C8F C 0.4868(3) 0.3681(3) 0.8947(2)
H9F H 0.5141 0.3903 0.9402
H10F H 0.4579 0.4152 0.8659
H11F H 0.5431 0.3407 0.8704
C9F C 0.4447(3) 0.2298(3) 0.95281(19)
H12F H 0.4744 0.2530 0.9973
H13F H 0.4989 0.1996 0.9285
H14F H 0.3885 0.1899 0.9623
C10F C 0.3134(3) 0.3461(3) 0.9453(2)
H15F H 0.3420 0.3703 0.9897
H16F H 0.2600 0.3037 0.9549
H17F H 0.2824 0.3917 0.9158
C11? C 0.8455(8) 0.0739(8) 0.6958(5)
H18? H 0.9164 0.0549 0.7091
H19? H 0.8038 0.0731 0.7373
H20? H 0.8475 0.1322 0.6770
C12? C 0.7974(6) 0.0147(5) 0.6402(4)
H21? H 0.8396 0.0148 0.5984
H22? H 0.7957 -0.0443 0.6588
O2? O 0.6933(4) 0.0430(3) 0.6209(3)
C13? C 0.6549(7) 0.0071(5) 0.5551(4)
H23? H 0.7079 0.0142 0.5199
H24? H 0.5917 0.0384 0.5380
C14? C 0.6295(7) -0.0857(5) 0.5618(5)
H25? H 0.6036 -0.1079 0.5160
H26? H 0.5761 -0.0929 0.5960
H27? H 0.6923 -0.1171 0.5778
loop_
_geom_bond_atom_site_label_1
_geom_bond_atom_site_label_2
_geom_bond_site_symmetry_1
_geom_bond_site_symmetry_2
Li1 I1 1_555 1_555
Li2 I1 1_555 1_555
I1 Li1F 1_555 1_555
O1 Li1 1_555 1_555
N1 C1 1_555 1_555
N2 C1 1_555 1_555
C1 Li2 1_555 1_555
C2 N2 1_555 1_555
H1 C2 1_555 1_555
C3 N1 1_555 1_555
H2 C3 1_555 1_555
C4 N1 1_555 1_555
H3 C4 1_555 1_555
H4 C4 1_555 1_555
H5 C4 1_555 1_555
C5 N2 1_555 1_555
H6 C5 1_555 1_555
H7 C5 1_555 1_555
C6 O1 1_555 1_555
H8 C6 1_555 1_555
C7 C6 1_555 1_555
C8 C7 1_555 1_555
H9 C8 1_555 1_555
H10 C8 1_555 1_555
H11 C8 1_555 1_555
C9 C7 1_555 1_555
H12 C9 1_555 1_555
H13 C9 1_555 1_555
H14 C9 1_555 1_555
C10 C7 1_555 1_555
H15 C10 1_555 1_555
H16 C10 1_555 1_555
H17 C10 1_555 1_555
C15 H28 1_555 1_555
H29 C15 1_555 1_555
H30 C15 1_555 1_555
C16 C15 1_555 1_555
H31 C16 1_555 1_555
H32 C16 1_555 1_555
O3 Li1 1_555 1_555
C17 O3 1_555 1_555
H33 C17 1_555 1_555
H34 C17 1_555 1_555
C18 C17 1_555 1_555
H35 C18 1_555 1_555
H36 C18 1_555 1_555
H37 C18 1_555 1_555
Li1F I1F 1_555 1_555
I1F Li1 1_555 1_555
O1F Li2 1_555 1_555
O3F Li1F 1_555 1_555
C16F O3F 1_555 1_555
C15F C16F 1_555 1_555
H28F C15F 1_555 1_555
H29F C15F 1_555 1_555
H30F C15F 1_555 1_555
H31F C16F 1_555 1_555
H32F C16F 1_555 1_555
C17F O3F 1_555 1_555
H33F C17F 1_555 1_555
H34F C17F 1_555 1_555
C18F C17F 1_555 1_555
H35F C18F 1_555 1_555
H36F C18F 1_555 1_555
H37F C18F 1_555 1_555
Li2F O1 1_555 1_555
C5F C6 1_555 1_555
N2F C5F 1_555 1_555
C1F Li2F 1_555 1_555
N1F C1F 1_555 1_555
C3F N1F 1_555 1_555
C2F N2F 1_555 1_555
H1F C2F 1_555 1_555
H2F C3F 1_555 1_555
C4F N1F 1_555 1_555
H3F C4F 1_555 1_555
H4F C4F 1_555 1_555
H5F C4F 1_555 1_555
H6F C5F 1_555 1_555
H7F C5F 1_555 1_555
C6F C5 1_555 1_555
H8F C6F 1_555 1_555
C7F C6F 1_555 1_555
C8F C7F 1_555 1_555
H9F C8F 1_555 1_555
H10F C8F 1_555 1_555
H11F C8F 1_555 1_555
C9F C7F 1_555 1_555
H12F C9F 1_555 1_555
H13F C9F 1_555 1_555
H14F C9F 1_555 1_555
C10F C7F 1_555 1_555
H15F C10F 1_555 1_555
H16F C10F 1_555 1_555
H17F C10F 1_555 1_555
Li2 O1 1_555 1_555
C2 C3 1_555 1_555
C16 O3 1_555 1_555
Li1F O1F 1_555 1_555
I1F Li2F 1_555 1_555
O1F Li2F 1_555 1_555
O1F C6F 1_555 1_555
N2F C1F 1_555 1_555
C3F C2F 1_555 1_555

#END
