
#######################################################################
#
#                 Cambridge Crystallographic Data Centre
#                                CCDC 
#
#######################################################################
#
# If this CIF has been generated from an entry in the Cambridge 
# Structural Database, then it will include bibliographic, chemical, 
# crystal, experimental, refinement or atomic coordinate data resulting 
# from the CCDC's data processing and validation procedures.
#
#######################################################################

data_SADQUM
_chemical_formula_moiety         'C17 H14 Cl1 F1 N4 O1'
_chemical_name_systematic        
2-(3-(4-Chloro-3,5-dimethyl-1H-pyrazol-1-yl)-1-(4-fluorophenyl)-3-oxopropyl)malononitrile
_symmetry_cell_setting           monoclinic
_symmetry_space_group_name_H-M   'P 21'
_symmetry_Int_Tables_number      4
_space_group_name_Hall           'P 2yb'
loop_
_symmetry_equiv_pos_site_id
_symmetry_equiv_pos_as_xyz
1 x,y,z
2 -x,1/2+y,-z
_cell_length_a                   7.4034(7)
_cell_length_b                   8.3913(8)
_cell_length_c                   13.1845(13)
_cell_angle_alpha                90
_cell_angle_beta                 98.8140(10)
_cell_angle_gamma                90
_cell_volume                     809.403
_exptl_crystal_colour            colorless
_exptl_crystal_description       block
_cell_formula_units_Z            2
loop_
_atom_site_label
_atom_site_type_symbol
_atom_site_fract_x
_atom_site_fract_y
_atom_site_fract_z
Cl1 Cl 0.57697(4) 1.59820(3) 0.72017(2)
F1 F -0.15291(12) 0.24727(10) 0.58245(6)
O1 O 0.41357(13) 1.01206(11) 0.88677(6)
C1 C 0.41038(14) 1.32950(14) 0.61986(8)
N1 N 0.39958(13) 1.17177(11) 0.74703(7)
N2 N -0.05370(17) 0.68290(16) 1.00626(9)
N3 N -0.26024(15) 0.96036(14) 0.73938(9)
C2 C 0.38891(18) 1.39242(15) 0.51319(9)
H1 H 0.3404 1.3084 0.4650
H2 H 0.5080 1.4275 0.4978
H3 H 0.3041 1.4828 0.5065
N4 N 0.35268(13) 1.18638(12) 0.64177(7)
C3 C 0.36020(14) 1.03155(13) 0.79603(8)
C4 C 0.24345(15) 0.91117(13) 0.72958(8)
H4 H 0.3168 0.8608 0.6816
H5 H 0.1388 0.9663 0.6885
C5 C 0.17223(15) 0.78213(13) 0.79607(8)
H6 H 0.2784 0.7432 0.8461
C6 C 0.08824(14) 0.63912(12) 0.73612(8)
C7 C 0.07863(16) 0.49320(14) 0.78673(9)
H7 H 0.1294 0.4846 0.8572
C8 C -0.00349(17) 0.36121(13) 0.73597(10)
H8 H -0.0113 0.2630 0.7709
C9 C -0.07392(17) 0.37649(14) 0.63277(9)
C10 C 0.49345(14) 1.40734(13) 0.71155(9)
C11 C 0.48775(15) 1.30585(13) 0.79174(8)
C12 C 0.55434(19) 1.32782(17) 0.90309(9)
H9 H 0.6001 1.4368 0.9154
H10 H 0.6531 1.2519 0.9253
H11 H 0.4536 1.3092 0.9420
C13 C 0.01436(16) 0.64905(14) 0.63223(9)
H12 H 0.0198 0.7472 0.5969
C14 C -0.06738(17) 0.51673(15) 0.57957(9)
H13 H -0.1171 0.5235 0.5089
C15 C 0.03388(15) 0.86231(13) 0.85909(8)
H14 H 0.0952 0.9586 0.8933
C16 C -0.01772(16) 0.75880(15) 0.94040(9)
C17 C -0.13342(16) 0.91701(13) 0.79250(9)
loop_
_geom_bond_atom_site_label_1
_geom_bond_atom_site_label_2
_geom_bond_site_symmetry_1
_geom_bond_site_symmetry_2
Cl1 C10 1_555 1_555
F1 C9 1_555 1_555
O1 C3 1_555 1_555
C1 C2 1_555 1_555
N1 N4 1_555 1_555
N2 C16 1_555 1_555
N3 C17 1_555 1_555
C2 H1 1_555 1_555
H2 C2 1_555 1_555
H3 C2 1_555 1_555
N4 C1 1_555 1_555
C3 N1 1_555 1_555
C4 C3 1_555 1_555
H4 C4 1_555 1_555
H5 C4 1_555 1_555
C5 C4 1_555 1_555
H6 C5 1_555 1_555
C6 C5 1_555 1_555
C7 C6 1_555 1_555
H7 C7 1_555 1_555
C8 C7 1_555 1_555
H8 C8 1_555 1_555
C9 C8 1_555 1_555
C10 C1 1_555 1_555
C11 N1 1_555 1_555
C12 C11 1_555 1_555
H9 C12 1_555 1_555
H10 C12 1_555 1_555
H11 C12 1_555 1_555
C13 C6 1_555 1_555
H12 C13 1_555 1_555
C14 C9 1_555 1_555
H13 C14 1_555 1_555
C15 C5 1_555 1_555
H14 C15 1_555 1_555
C16 C15 1_555 1_555
C17 C15 1_555 1_555
C10 C11 1_555 1_555
C13 C14 1_555 1_555

#END
