
#######################################################################
#
#                 Cambridge Crystallographic Data Centre
#                                CCDC 
#
#######################################################################
#
# If this CIF has been generated from an entry in the Cambridge 
# Structural Database, then it will include bibliographic, chemical, 
# crystal, experimental, refinement or atomic coordinate data resulting 
# from the CCDC's data processing and validation procedures.
#
#######################################################################

data_SADROG
_chemical_formula_moiety         'C20 H16 F2 O1'
_chemical_name_systematic        2,6-bis(2-fluorobenzylidene)cyclohexanone
_chemical_properties_biological  'antitumour activity'
_symmetry_cell_setting           triclinic
_symmetry_space_group_name_H-M   'P -1'
_symmetry_Int_Tables_number      2
_space_group_name_Hall           '-P 1'
loop_
_symmetry_equiv_pos_site_id
_symmetry_equiv_pos_as_xyz
1 x,y,z
2 -x,-y,-z
_cell_length_a                   9.2217(18)
_cell_length_b                   9.7322(19)
_cell_length_c                   10.127(2)
_cell_angle_alpha                88.920(4)
_cell_angle_beta                 75.672(3)
_cell_angle_gamma                62.404(3)
_cell_volume                     775.55
_exptl_crystal_colour            green
_exptl_crystal_description       prismatic
_chemical_melting_point          100-102deg.C
_cell_formula_units_Z            2
loop_
_atom_site_label
_atom_site_type_symbol
_atom_site_fract_x
_atom_site_fract_y
_atom_site_fract_z
F1 F 0.37130(19) 0.6086(2) 0.41505(15)
F2 F 0.5996(2) -0.19574(19) -0.05004(18)
O1 O 0.7485(2) 0.08819(17) 0.19661(14)
C1 C 0.7662(2) 0.1568(2) 0.09664(19)
C2 C 0.7474(2) 0.3168(2) 0.11438(18)
C3 C 0.6741(3) 0.3934(2) 0.24069(19)
H1 H 0.6407 0.3414 0.3098
C4 C 0.8048(2) 0.0834(2) -0.0455(2)
C5 C 0.7897(2) -0.0458(2) -0.0540(2)
H2 H 0.7617 -0.0822 0.0290
C6 C 0.8117(2) -0.1382(2) -0.1776(2)
C7 C 0.9290(3) -0.1625(3) -0.3026(2)
H3 H 1.0026 -0.1203 -0.3111
C8 C 0.9388(4) -0.2485(3) -0.4151(3)
H4 H 1.0183 -0.2632 -0.4980
C9 C 0.8311(4) -0.3119(3) -0.4043(3)
H5 H 0.8366 -0.3680 -0.4804
C10 C 0.7154(3) -0.2927(3) -0.2813(3)
H6 H 0.6418 -0.3349 -0.2732
C11 C 0.7110(3) -0.2106(2) -0.1715(3)
C12 C 0.6412(3) 0.5514(2) 0.28094(18)
C13 C 0.7622(3) 0.6037(3) 0.2368(2)
H7 H 0.8703 0.5349 0.1832
C14 C 0.7232(4) 0.7545(3) 0.2714(2)
H8 H 0.8044 0.7873 0.2391
C15 C 0.5668(5) 0.8575(3) 0.3528(3)
H9 H 0.5416 0.9600 0.3742
C16 C 0.4460(4) 0.8098(3) 0.4032(3)
H10 H 0.3394 0.8784 0.4594
C17 C 0.4886(3) 0.6565(3) 0.3673(2)
C18 C 0.8011(3) 0.3848(2) -0.0111(2)
H11 H 0.9228 0.3469 -0.0336
H12 H 0.7453 0.4975 0.0076
C19 C 0.7560(3) 0.3405(3) -0.1314(2)
H13 H 0.6339 0.3809 -0.1099
H14 H 0.7898 0.3871 -0.2107
C20 C 0.8434(3) 0.1654(2) -0.16517(19)
H15 H 0.8081 0.1406 -0.2400
H16 H 0.9652 0.1271 -0.1960
loop_
_geom_bond_atom_site_label_1
_geom_bond_atom_site_label_2
_geom_bond_site_symmetry_1
_geom_bond_site_symmetry_2
F1 C17 1_555 1_555
F2 C11 1_555 1_555
O1 C1 1_555 1_555
C1 C2 1_555 1_555
C2 C3 1_555 1_555
C3 H1 1_555 1_555
C4 C1 1_555 1_555
C5 C4 1_555 1_555
H2 C5 1_555 1_555
C6 C5 1_555 1_555
C7 C6 1_555 1_555
H3 C7 1_555 1_555
C8 C7 1_555 1_555
H4 C8 1_555 1_555
C9 C8 1_555 1_555
H5 C9 1_555 1_555
C10 C9 1_555 1_555
H6 C10 1_555 1_555
C11 C6 1_555 1_555
C12 C3 1_555 1_555
C13 C12 1_555 1_555
H7 C13 1_555 1_555
C14 C13 1_555 1_555
H8 C14 1_555 1_555
C15 C14 1_555 1_555
H9 C15 1_555 1_555
C16 C15 1_555 1_555
H10 C16 1_555 1_555
C17 C12 1_555 1_555
C18 C2 1_555 1_555
H11 C18 1_555 1_555
H12 C18 1_555 1_555
C19 C18 1_555 1_555
H13 C19 1_555 1_555
H14 C19 1_555 1_555
C20 C4 1_555 1_555
H15 C20 1_555 1_555
H16 C20 1_555 1_555
C10 C11 1_555 1_555
C16 C17 1_555 1_555
C19 C20 1_555 1_555

#END
