
#######################################################################
#
#                 Cambridge Crystallographic Data Centre
#                                CCDC 
#
#######################################################################
#
# If this CIF has been generated from an entry in the Cambridge 
# Structural Database, then it will include bibliographic, chemical, 
# crystal, experimental, refinement or atomic coordinate data resulting 
# from the CCDC's data processing and validation procedures.
#
#######################################################################

data_SADSIZ01
_chemical_formula_moiety         'C18 H15 Cl2 P1'
_chemical_name_systematic        dichloro(triphenyl)phosphine
_symmetry_cell_setting           monoclinic
_symmetry_space_group_name_H-M   'P 21/c'
_symmetry_Int_Tables_number      14
_space_group_name_Hall           '-P 2ybc'
loop_
_symmetry_equiv_pos_site_id
_symmetry_equiv_pos_as_xyz
1 x,y,z
2 -x,1/2+y,1/2-z
3 -x,-y,-z
4 x,1/2-y,1/2+z
_cell_length_a                   13.338(3)
_cell_length_b                   14.376(3)
_cell_length_c                   8.7454(17)
_cell_angle_alpha                90
_cell_angle_beta                 102.53(3)
_cell_angle_gamma                90
_cell_volume                     1636.97
_exptl_crystal_colour            colorless
_exptl_crystal_description       block
_cell_formula_units_Z            4
_exptl_crystal_recrystallization_method pentane/tetrahydrofuran
loop_
_atom_site_label
_atom_site_type_symbol
_atom_site_fract_x
_atom_site_fract_y
_atom_site_fract_z
C1 C 0.22238(13) 0.53306(13) -0.0840(2)
C2 C 0.24135(14) 0.62160(13) -0.1362(2)
H1 H 0.2766 0.6667 -0.0651
C3 C 0.20772(16) 0.64273(15) -0.2943(2)
H2 H 0.2226 0.7019 -0.3323
C4 C 0.15305(16) 0.57853(17) -0.3961(2)
H3 H 0.1278 0.5948 -0.5029
C5 C 0.13467(16) 0.49106(16) -0.3446(2)
H4 H 0.0971 0.4471 -0.4156
C6 C 0.17130(15) 0.46706(14) -0.1879(2)
H5 H 0.1613 0.4059 -0.1527
C7 C 0.36166(13) 0.57025(12) 0.2477(2)
C8 C 0.35582(14) 0.58843(13) 0.4015(2)
H6 H 0.3005 0.5644 0.4419
C9 C 0.43117(15) 0.64190(14) 0.4956(2)
H7 H 0.4285 0.6534 0.6016
C10 C 0.51033(14) 0.67850(13) 0.4350(2)
H8 H 0.5601 0.7176 0.4982
C11 C 0.51739(14) 0.65857(14) 0.2836(2)
H9 H 0.5729 0.6828 0.2438
C12 C 0.44377(14) 0.60319(13) 0.1888(2)
H10 H 0.4495 0.5881 0.0853
C13 C 0.19023(13) 0.41732(12) 0.2058(2)
C14 C 0.08837(13) 0.39790(12) 0.1364(2)
H11 H 0.0545 0.4310 0.0459
C15 C 0.03664(14) 0.32956(13) 0.2009(2)
H12 H -0.0322 0.3144 0.1521
C16 C 0.08458(14) 0.28356(13) 0.3354(2)
H13 H 0.0482 0.2378 0.3800
C17 C 0.18552(15) 0.30398(13) 0.4055(2)
H14 H 0.2181 0.2725 0.4986
C18 C 0.23911(14) 0.37027(13) 0.3402(2)
H15 H 0.3088 0.3834 0.3870
Cl1 Cl 0.14271(3) 0.61325(3) 0.16899(5)
Cl2 Cl 0.37086(3) 0.39823(3) 0.07639(5)
P1 P 0.26018(3) 0.50460(3) 0.12233(5)
loop_
_geom_bond_atom_site_label_1
_geom_bond_atom_site_label_2
_geom_bond_site_symmetry_1
_geom_bond_site_symmetry_2
C1 C2 1_555 1_555
C2 H1 1_555 1_555
C3 C2 1_555 1_555
H2 C3 1_555 1_555
C4 C3 1_555 1_555
H3 C4 1_555 1_555
C5 C4 1_555 1_555
H4 C5 1_555 1_555
C6 C1 1_555 1_555
H5 C6 1_555 1_555
C7 C8 1_555 1_555
C8 H6 1_555 1_555
C9 C8 1_555 1_555
H7 C9 1_555 1_555
C10 C9 1_555 1_555
H8 C10 1_555 1_555
C11 C10 1_555 1_555
H9 C11 1_555 1_555
C12 C7 1_555 1_555
H10 C12 1_555 1_555
C13 C14 1_555 1_555
C14 H11 1_555 1_555
C15 C14 1_555 1_555
H12 C15 1_555 1_555
C16 C15 1_555 1_555
H13 C16 1_555 1_555
C17 C16 1_555 1_555
H14 C17 1_555 1_555
C18 C13 1_555 1_555
H15 C18 1_555 1_555
Cl1 P1 1_555 1_555
Cl2 P1 1_555 1_555
P1 C1 1_555 1_555
C5 C6 1_555 1_555
C7 P1 1_555 1_555
C11 C12 1_555 1_555
C13 P1 1_555 1_555
C17 C18 1_555 1_555

#END
