
#######################################################################
#
#                 Cambridge Crystallographic Data Centre
#                                CCDC 
#
#######################################################################
#
# If this CIF has been generated from an entry in the Cambridge 
# Structural Database, then it will include bibliographic, chemical, 
# crystal, experimental, refinement or atomic coordinate data resulting 
# from the CCDC's data processing and validation procedures.
#
#######################################################################

data_SADVUR
_chemical_formula_moiety         'C22 H17 N3 O3'
_chemical_name_systematic        
3'-(4-methoxyphenyl)-1'H-spiro[indole-3,2'-quinazoline]-2,4'(1H,3'H)-dione
_symmetry_cell_setting           monoclinic
_symmetry_space_group_name_H-M   'P 21/n'
_symmetry_Int_Tables_number      14
_space_group_name_Hall           '-P 2yn'
loop_
_symmetry_equiv_pos_site_id
_symmetry_equiv_pos_as_xyz
1 x,y,z
2 1/2-x,1/2+y,1/2-z
3 -x,-y,-z
4 1/2+x,1/2-y,1/2+z
_cell_length_a                   14.544(8)
_cell_length_b                   13.292(7)
_cell_length_c                   20.625(11)
_cell_angle_alpha                90
_cell_angle_beta                 108.302(7)
_cell_angle_gamma                90
_cell_volume                     3785.51
_exptl_crystal_colour            colorless
_exptl_crystal_description       block
_cell_formula_units_Z            8
loop_
_atom_site_label
_atom_site_type_symbol
_atom_site_fract_x
_atom_site_fract_y
_atom_site_fract_z
C1 C 0.7494(3) 0.7520(4) 0.1114(2)
C2 C 0.7778(3) 0.8178(3) 0.1717(2)
C3 C 0.7881(3) 0.7806(4) 0.2359(2)
H1 H 0.7741 0.7133 0.2409
C4 C 0.8184(4) 0.8403(5) 0.2923(3)
H2 H 0.8242 0.8146 0.3353
C5 C 0.8406(4) 0.9404(5) 0.2844(3)
H3 H 0.8605 0.9817 0.3227
C6 C 0.8338(3) 0.9794(4) 0.2220(3)
H4 H 0.8494 1.0465 0.2179
C7 C 0.8034(3) 0.9179(4) 0.1643(2)
C8 C 0.7431(4) 0.9043(4) 0.0423(3)
C9 C 0.6338(4) 0.9389(4) 0.0270(3)
C10 C 0.6812(4) 0.9844(4) -0.0643(3)
C11 C 0.6803(6) 1.0271(5) -0.1249(3)
H5 H 0.6249 1.0576 -0.1537
C12 C 0.7664(7) 1.0231(6) -0.1418(4)
H6 H 0.7675 1.0507 -0.1830
C13 C 0.8495(7) 0.9791(6) -0.0992(4)
H7 H 0.9062 0.9779 -0.1110
C14 C 0.8462(5) 0.9362(4) -0.0374(3)
H8 H 0.9009 0.9061 -0.0075
C15 C 0.7612(4) 0.9393(4) -0.0221(3)
C16 C 0.7233(3) 0.7318(3) -0.0089(2)
C17 C 0.6305(3) 0.7213(3) -0.0511(2)
H9 H 0.5801 0.7531 -0.0404
C18 C 0.6108(4) 0.6631(4) -0.1098(2)
H10 H 0.5477 0.6576 -0.1392
C19 C 0.6849(4) 0.6137(4) -0.1243(3)
C20 C 0.7762(4) 0.6224(4) -0.0810(3)
H11 H 0.8263 0.5883 -0.0906
C21 C 0.7964(4) 0.6803(4) -0.0233(3)
H12 H 0.8595 0.6848 0.0060
C22 C 0.5794(6) 0.5430(7) -0.2273(4)
H13 H 0.5400 0.5087 -0.2047
H14 H 0.5828 0.5036 -0.2655
H15 H 0.5514 0.6074 -0.2432
N1 N 0.7466(3) 0.7943(3) 0.05087(18)
N2 N 0.8010(3) 0.9526(3) 0.1014(2)
H16 H 0.8351 1.0040 0.0981
N3 N 0.6061(4) 0.9818(3) -0.0358(2)
H17 H 0.5489 1.0048 -0.0557
O1 O 0.7308(3) 0.6633(2) 0.11553(16)
O2 O 0.5857(3) 0.9305(3) 0.0663(2)
O3 O 0.6737(3) 0.5566(4) -0.1812(2)
C23 C 0.8118(4) 0.2560(3) 0.0934(2)
C24 C 0.7217(3) 0.2966(3) 0.0459(2)
C25 C 0.6499(4) 0.2338(4) 0.0075(2)
H18 H 0.6610 0.1648 0.0091
C26 C 0.5630(4) 0.2699(5) -0.0326(3)
H19 H 0.5148 0.2264 -0.0576
C27 C 0.5483(3) 0.3717(5) -0.0352(2)
H20 H 0.4896 0.3972 -0.0630
C28 C 0.6179(3) 0.4373(4) 0.0022(2)
H21 H 0.6063 0.5063 -0.0003
C29 C 0.7053(3) 0.4001(3) 0.0436(2)
C30 C 0.8723(3) 0.4302(3) 0.1141(2)
C31 C 0.9286(3) 0.4508(3) 0.0625(2)
C32 C 0.9933(3) 0.5521(3) 0.1542(2)
C33 C 1.0493(4) 0.6235(4) 0.1974(3)
H22 H 1.0958 0.6601 0.1851
C34 C 1.0343(4) 0.6387(5) 0.2584(3)
H23 H 1.0719 0.6863 0.2882
C35 C 0.9660(4) 0.5864(4) 0.2778(3)
H24 H 0.9574 0.5988 0.3200
C36 C 0.9094(3) 0.5145(4) 0.2338(2)
H25 H 0.8622 0.4789 0.2459
C37 C 0.9247(3) 0.4972(3) 0.1725(2)
C38 C 0.9676(3) 0.2867(3) 0.1767(2)
C39 C 0.9772(3) 0.2691(4) 0.2435(2)
H26 H 0.9240 0.2773 0.2589
C40 C 1.0644(4) 0.2393(4) 0.2886(2)
H27 H 1.0696 0.2271 0.3340
C41 C 1.1424(4) 0.2277(4) 0.2673(2)
C42 C 1.1324(4) 0.2420(5) 0.1987(3)
H28 H 1.1848 0.2317 0.1828
C43 C 1.0450(4) 0.2713(4) 0.1548(2)
H29 H 1.0385 0.2808 0.1089
C44 C 1.2454(5) 0.1870(6) 0.3781(3)
H30 H 1.2221 0.2453 0.3956
H31 H 1.3129 0.1775 0.4024
H32 H 1.2096 0.1289 0.3838
N4 N 0.8772(2) 0.3225(2) 0.13125(17)
N5 N 0.7742(2) 0.4610(2) 0.08523(17)
H33 H 0.7579 0.5202 0.0944
N6 N 0.9932(3) 0.5241(3) 0.08864(19)
H34 H 1.0299 0.5506 0.0678
O4 O 0.8267(3) 0.1655(3) 0.10162(19)
O5 O 0.9147(2) 0.4089(2) 0.00792(16)
O6 O 1.2330(3) 0.2011(3) 0.30753(18)
loop_
_geom_bond_atom_site_label_1
_geom_bond_atom_site_label_2
_geom_bond_site_symmetry_1
_geom_bond_site_symmetry_2
C1 C2 1_555 1_555
C2 C3 1_555 1_555
C3 H1 1_555 1_555
C4 C3 1_555 1_555
H2 C4 1_555 1_555
C5 C4 1_555 1_555
H3 C5 1_555 1_555
C6 C5 1_555 1_555
H4 C6 1_555 1_555
C7 C2 1_555 1_555
C8 C9 1_555 1_555
C9 N3 1_555 1_555
C10 C11 1_555 1_555
C11 H5 1_555 1_555
C12 C11 1_555 1_555
H6 C12 1_555 1_555
C13 C12 1_555 1_555
H7 C13 1_555 1_555
C14 C13 1_555 1_555
H8 C14 1_555 1_555
C15 C8 1_555 1_555
C16 C17 1_555 1_555
C17 H9 1_555 1_555
C18 C17 1_555 1_555
H10 C18 1_555 1_555
C19 C18 1_555 1_555
C20 C19 1_555 1_555
H11 C20 1_555 1_555
C21 C16 1_555 1_555
H12 C21 1_555 1_555
C22 H13 1_555 1_555
H14 C22 1_555 1_555
H15 C22 1_555 1_555
N1 C1 1_555 1_555
N2 C7 1_555 1_555
H16 N2 1_555 1_555
N3 C10 1_555 1_555
H17 N3 1_555 1_555
O1 C1 1_555 1_555
O2 C9 1_555 1_555
O3 C19 1_555 1_555
C23 C24 1_555 1_555
C24 C25 1_555 1_555
C25 H18 1_555 1_555
C26 C25 1_555 1_555
H19 C26 1_555 1_555
C27 C26 1_555 1_555
H20 C27 1_555 1_555
C28 C27 1_555 1_555
H21 C28 1_555 1_555
C29 C24 1_555 1_555
C30 C31 1_555 1_555
C31 N6 1_555 1_555
C32 C33 1_555 1_555
C33 H22 1_555 1_555
C34 C33 1_555 1_555
H23 C34 1_555 1_555
C35 C34 1_555 1_555
H24 C35 1_555 1_555
C36 C35 1_555 1_555
H25 C36 1_555 1_555
C37 C30 1_555 1_555
C38 C39 1_555 1_555
C39 H26 1_555 1_555
C40 C39 1_555 1_555
H27 C40 1_555 1_555
C41 C40 1_555 1_555
C42 C41 1_555 1_555
H28 C42 1_555 1_555
C43 C38 1_555 1_555
H29 C43 1_555 1_555
C44 H30 1_555 1_555
H31 C44 1_555 1_555
H32 C44 1_555 1_555
N4 C23 1_555 1_555
N5 C29 1_555 1_555
H33 N5 1_555 1_555
N6 C32 1_555 1_555
H34 N6 1_555 1_555
O4 C23 1_555 1_555
O5 C31 1_555 1_555
O6 C41 1_555 1_555
C6 C7 1_555 1_555
C8 N1 1_555 1_555
C8 N2 1_555 1_555
C10 C15 1_555 1_555
C14 C15 1_555 1_555
C16 N1 1_555 1_555
C20 C21 1_555 1_555
C22 O3 1_555 1_555
C28 C29 1_555 1_555
C30 N4 1_555 1_555
C30 N5 1_555 1_555
C32 C37 1_555 1_555
C36 C37 1_555 1_555
C38 N4 1_555 1_555
C42 C43 1_555 1_555
C44 O6 1_555 1_555

#END
