
#######################################################################
#
#                 Cambridge Crystallographic Data Centre
#                                CCDC 
#
#######################################################################
#
# If this CIF has been generated from an entry in the Cambridge 
# Structural Database, then it will include bibliographic, chemical, 
# crystal, experimental, refinement or atomic coordinate data resulting 
# from the CCDC's data processing and validation procedures.
#
#######################################################################

data_SADVIC
_chemical_compound_source        
'stems and leaves of Rabdosia nervosa Hemsl.(Labiatae)'
_chemical_formula_moiety         'C24 H32 O8'
_chemical_name_systematic        'Ganervosin A'
_symmetry_cell_setting           trigonal
_symmetry_space_group_name_H-M   'P 32'
_symmetry_Int_Tables_number      145
_space_group_name_Hall           'P 32'
loop_
_symmetry_equiv_pos_site_id
_symmetry_equiv_pos_as_xyz
1 x,y,z
2 -y,x-y,2/3+z
3 -x+y,-x,1/3+z
_cell_length_a                   10.400(3)
_cell_length_b                   10.400(3)
_cell_length_c                   18.186(4)
_cell_angle_alpha                90
_cell_angle_beta                 90
_cell_angle_gamma                120
_cell_volume                     1703.47
_exptl_crystal_colour            colorless
_chemical_melting_point          224-226deg.C
_cell_formula_units_Z            3
loop_
_atom_site_label
_atom_site_type_symbol
_atom_site_fract_x
_atom_site_fract_y
_atom_site_fract_z
O1 O 0.2900(5) 0.1975(5) 0.800
O2 O 0.0867(4) 0.2365(4) 0.6108(3)
O3 O -0.0387(5) 0.3471(5) 0.5650(3)
O4 O -0.0719(6) 0.2566(5) 0.9210(3)
O5 O -0.2010(4) 0.2891(4) 0.6963(4)
O6 O -0.3691(5) 0.1200(6) 0.6208(3)
O7 O 0.0332(4) 0.5690(4) 0.7504(3)
O8 O -0.1192(6) 0.6485(6) 0.7118(3)
C1 C 0.1923(7) 0.2279(7) 0.8086(4)
C2 C 0.1343(8) 0.236(1) 0.8805(5)
C3 C -0.0365(8) 0.1538(7) 0.8869(4)
C4 C -0.1182(7) 0.0999(7) 0.8121(4)
C5 C -0.0319(6) 0.2341(6) 0.7597(4)
C6 C -0.1028(6) 0.2294(6) 0.6849(4)
C7 C 0.0206(6) 0.3257(6) 0.6299(3)
C8 C 0.1444(6) 0.4730(7) 0.6602(4)
C9 C 0.2192(6) 0.4437(6) 0.7287(4)
C10 C 0.1310(6) 0.2720(6) 0.7422(4)
C11 C 0.3884(7) 0.5119(9) 0.7190(5)
C12 C 0.4567(9) 0.685(1) 0.7010(6)
C13 C 0.3637(8) 0.7079(9) 0.6413(6)
C14 C 0.2620(8) 0.5585(8) 0.5990(5)
C15 C 0.1014(7) 0.5917(7) 0.6789(4)
C16 C 0.2491(9) 0.7375(8) 0.6775(6)
C17 C 0.273(1) 0.863(1) 0.710(1)
C18 C -0.1165(9) -0.0438(7) 0.7877(5)
C19 C -0.2810(8) 0.0615(9) 0.8185(5)
C20 C 0.1393(6) 0.1923(7) 0.6724(4)
C21 C -0.3335(7) 0.2198(8) 0.6616(4)
C22 C -0.4239(8) 0.292(1) 0.6819(6)
C23 C -0.0751(7) 0.6012(7) 0.7589(4)
C24 C -0.138(1) 0.5678(10) 0.8356(5)
loop_
_geom_bond_atom_site_label_1
_geom_bond_atom_site_label_2
_geom_bond_site_symmetry_1
_geom_bond_site_symmetry_2
O1 C1 1_555 1_555
O2 C7 1_555 1_555
O3 C7 1_555 1_555
O4 C3 1_555 1_555
O5 C6 1_555 1_555
O6 C21 1_555 1_555
O7 C15 1_555 1_555
O8 C23 1_555 1_555
C1 C2 1_555 1_555
C2 C3 1_555 1_555
C3 C4 1_555 1_555
C4 C5 1_555 1_555
C5 C6 1_555 1_555
C6 C7 1_555 1_555
C7 C8 1_555 1_555
C8 C9 1_555 1_555
C9 C10 1_555 1_555
C10 C1 1_555 1_555
C11 C9 1_555 1_555
C12 C11 1_555 1_555
C13 C12 1_555 1_555
C14 C8 1_555 1_555
C15 C8 1_555 1_555
C16 C13 1_555 1_555
C17 C16 1_555 1_555
C18 C4 1_555 1_555
C19 C4 1_555 1_555
C20 O2 1_555 1_555
C21 O5 1_555 1_555
C22 C21 1_555 1_555
C23 O7 1_555 1_555
C24 C23 1_555 1_555
C5 C10 1_555 1_555
C10 C20 1_555 1_555
C13 C14 1_555 1_555
C15 C16 1_555 1_555

#END
