
#######################################################################
#
#                 Cambridge Crystallographic Data Centre
#                                CCDC 
#
#######################################################################
#
# If this CIF has been generated from an entry in the Cambridge 
# Structural Database, then it will include bibliographic, chemical, 
# crystal, experimental, refinement or atomic coordinate data resulting 
# from the CCDC's data processing and validation procedures.
#
#######################################################################

data_SADWAY
_chemical_formula_moiety         'C22 H17 N3 O2,0.5(C1 H4 O1)'
_chemical_name_systematic        
"3'-(4-methylphenyl)-1'H-spiro[indole-3,2'-quinazoline]-2,4'(1H,3'H)-dione methanol solvate"
_symmetry_cell_setting           monoclinic
_symmetry_space_group_name_H-M   'P 21/c'
_symmetry_Int_Tables_number      14
_space_group_name_Hall           '-P 2ybc'
loop_
_symmetry_equiv_pos_site_id
_symmetry_equiv_pos_as_xyz
1 x,y,z
2 -x,1/2+y,1/2-z
3 -x,-y,-z
4 x,1/2-y,1/2+z
_cell_length_a                   14.611(3)
_cell_length_b                   13.282(3)
_cell_length_c                   21.069(4)
_cell_angle_alpha                90
_cell_angle_beta                 105.612(3)
_cell_angle_gamma                90
_cell_volume                     3937.87
_exptl_crystal_colour            colorless
_exptl_crystal_description       block
_cell_formula_units_Z            8
loop_
_atom_site_label
_atom_site_type_symbol
_atom_site_fract_x
_atom_site_fract_y
_atom_site_fract_z
C1 C 0.3668(2) 0.4238(3) 0.27302(16)
C2 C 0.3943(3) 0.4866(3) 0.22916(19)
H1 H 0.3745 0.5534 0.2251
C3 C 0.4508(3) 0.4505(4) 0.1916(2)
H2 H 0.4683 0.4931 0.1619
C4 C 0.4821(3) 0.3507(4) 0.1974(2)
H3 H 0.5201 0.3266 0.1717
C5 C 0.4559(3) 0.2883(3) 0.24197(18)
H4 H 0.4767 0.2218 0.2465
C6 C 0.3991(2) 0.3238(3) 0.27971(16)
C7 C 0.3691(2) 0.2560(3) 0.32595(17)
C8 C 0.3110(2) 0.4076(2) 0.37140(15)
C9 C 0.4017(2) 0.4400(2) 0.42580(16)
C10 C 0.2729(2) 0.4857(3) 0.46178(16)
C11 C 0.2320(2) 0.4422(2) 0.39986(16)
C12 C 0.1355(2) 0.4406(3) 0.37509(19)
H5 H 0.1080 0.4134 0.3337
C13 C 0.0795(3) 0.4798(3) 0.4121(2)
H6 H 0.0137 0.4776 0.3960
C14 C 0.1201(3) 0.5222(3) 0.4727(2)
H7 H 0.0812 0.5490 0.4968
C15 C 0.2180(3) 0.5257(3) 0.49853(19)
H8 H 0.2453 0.5544 0.5395
C16 C 0.2846(2) 0.2343(3) 0.40903(17)
C17 C 0.2007(3) 0.1833(3) 0.3907(2)
H9 H 0.1618 0.1890 0.3479
C18 C 0.1737(3) 0.1230(4) 0.4359(3)
H10 H 0.1169 0.0874 0.4227
C19 C 0.2285(4) 0.1140(3) 0.5001(3)
C20 C 0.3122(4) 0.1658(4) 0.5169(2)
H11 H 0.3508 0.1610 0.5598
C21 C 0.3415(3) 0.2248(3) 0.47265(18)
H12 H 0.3995 0.2582 0.4855
C22 C 0.1988(6) 0.0493(5) 0.5500(3)
H13 H 0.2385 -0.0094 0.5593
H14 H 0.1337 0.0291 0.5326
H15 H 0.2052 0.0870 0.5898
N1 N 0.3072(2) 0.4572(2) 0.30978(14)
N2 N 0.31405(19) 0.2976(2) 0.36217(13)
N3 N 0.3729(2) 0.4828(2) 0.47587(14)
O1 O 0.3891(2) 0.1662(2) 0.33018(15)
O2 O 0.48352(16) 0.4294(2) 0.42319(12)
C23 C 0.3343(2) 0.9026(3) 0.38070(17)
C24 C 0.3844(3) 0.9350(3) 0.44333(19)
H16 H 0.3987 1.0029 0.4507
C25 C 0.4128(3) 0.8674(4) 0.4944(2)
H17 H 0.4466 0.8898 0.5359
C26 C 0.3913(3) 0.7669(4) 0.4840(2)
H18 H 0.4105 0.7216 0.5187
C27 C 0.3414(3) 0.7330(3) 0.4224(2)
H19 H 0.3266 0.6650 0.4158
C28 C 0.3133(2) 0.8003(3) 0.37052(17)
C29 C 0.2697(2) 0.7627(3) 0.30331(18)
C30 C 0.2348(3) 0.9391(3) 0.27066(19)
C31 C 0.1328(3) 0.9545(3) 0.2847(2)
C32 C 0.1448(4) 1.0676(3) 0.2090(2)
C33 C 0.2324(4) 1.0131(3) 0.2171(2)
C34 C 0.2989(5) 1.0347(4) 0.1867(2)
H20 H 0.3550 0.9978 0.1953
C35 C 0.2816(7) 1.1181(6) 0.1393(3)
H21 H 0.3254 1.1358 0.1163
C36 C 0.1980(8) 1.1682(6) 0.1309(4)
H22 H 0.1859 1.2211 0.1008
C37 C 0.1288(7) 1.1470(5) 0.1636(4)
H23 H 0.0733 1.1848 0.1553
C38 C 0.2038(3) 0.7996(3) 0.18737(18)
C39 C 0.2616(3) 0.7686(3) 0.1497(2)
H24 H 0.3272 0.7684 0.1674
C40 C 0.2232(4) 0.7380(4) 0.0859(2)
H25 H 0.2636 0.7170 0.0611
C41 C 0.1269(4) 0.7374(4) 0.0576(2)
C42 C 0.0691(4) 0.7680(4) 0.0972(3)
H26 H 0.0035 0.7679 0.0801
C43 C 0.1072(3) 0.7976(4) 0.1602(2)
H27 H 0.0672 0.8172 0.1856
C44 C 0.0857(6) 0.7052(5) -0.0130(3)
H28 H 0.1063 0.7508 -0.0417
H29 H 0.0176 0.7061 -0.0233
H30 H 0.1069 0.6384 -0.0189
N4 N 0.3092(2) 0.9675(2) 0.32888(15)
N5 N 0.2461(2) 0.8329(2) 0.25486(14)
N6 N 0.0901(3) 1.0325(3) 0.2477(2)
O3 O 0.25842(19) 0.67217(19) 0.29048(13)
O4 O 0.1019(3) 0.9031(3) 0.3214(2)
C45 C 0.1048(4) 0.5175(6) 0.1790(3)
H31 H 0.1283 0.5602 0.1502
H32 H 0.0474 0.4852 0.1545
H33 H 0.1515 0.4673 0.1978
O5 O 0.0858(3) 0.5761(4) 0.2300(2)
H34 H 0.0381 0.5544 0.2389
loop_
_geom_bond_atom_site_label_1
_geom_bond_atom_site_label_2
_geom_bond_site_symmetry_1
_geom_bond_site_symmetry_2
C1 C2 1_555 1_555
C2 H1 1_555 1_555
C3 C2 1_555 1_555
H2 C3 1_555 1_555
C4 C3 1_555 1_555
H3 C4 1_555 1_555
C5 C4 1_555 1_555
H4 C5 1_555 1_555
C6 C1 1_555 1_555
C7 C6 1_555 1_555
C8 C9 1_555 1_555
C9 N3 1_555 1_555
C10 C11 1_555 1_555
C11 C8 1_555 1_555
C12 C11 1_555 1_555
H5 C12 1_555 1_555
C13 C12 1_555 1_555
H6 C13 1_555 1_555
C14 C13 1_555 1_555
H7 C14 1_555 1_555
C15 C10 1_555 1_555
H8 C15 1_555 1_555
C16 C17 1_555 1_555
C17 H9 1_555 1_555
C18 C17 1_555 1_555
H10 C18 1_555 1_555
C19 C18 1_555 1_555
C20 C19 1_555 1_555
H11 C20 1_555 1_555
C21 C16 1_555 1_555
H12 C21 1_555 1_555
C22 C19 1_555 1_555
H13 C22 1_555 1_555
H14 C22 1_555 1_555
H15 C22 1_555 1_555
N1 C1 1_555 1_555
N2 C7 1_555 1_555
N3 C10 1_555 1_555
O1 C7 1_555 1_555
O2 C9 1_555 1_555
C23 C24 1_555 1_555
C24 H16 1_555 1_555
C25 C24 1_555 1_555
H17 C25 1_555 1_555
C26 C25 1_555 1_555
H18 C26 1_555 1_555
C27 C26 1_555 1_555
H19 C27 1_555 1_555
C28 C23 1_555 1_555
C29 C28 1_555 1_555
C30 C31 1_555 1_555
C31 N6 1_555 1_555
C32 C33 1_555 1_555
C33 C30 1_555 1_555
C34 C33 1_555 1_555
H20 C34 1_555 1_555
C35 C34 1_555 1_555
H21 C35 1_555 1_555
C36 C35 1_555 1_555
H22 C36 1_555 1_555
C37 C32 1_555 1_555
H23 C37 1_555 1_555
C38 C39 1_555 1_555
C39 H24 1_555 1_555
C40 C39 1_555 1_555
H25 C40 1_555 1_555
C41 C40 1_555 1_555
C42 C41 1_555 1_555
H26 C42 1_555 1_555
C43 C38 1_555 1_555
H27 C43 1_555 1_555
C44 C41 1_555 1_555
H28 C44 1_555 1_555
H29 C44 1_555 1_555
H30 C44 1_555 1_555
N4 C23 1_555 1_555
N5 C29 1_555 1_555
N6 C32 1_555 1_555
O3 C29 1_555 1_555
O4 C31 1_555 1_555
C45 H31 1_555 1_555
H32 C45 1_555 1_555
H33 C45 1_555 1_555
O5 C45 1_555 1_555
H34 O5 1_555 1_555
C5 C6 1_555 1_555
C8 N1 1_555 1_555
C8 N2 1_555 1_555
C14 C15 1_555 1_555
C16 N2 1_555 1_555
C20 C21 1_555 1_555
C27 C28 1_555 1_555
C30 N4 1_555 1_555
C30 N5 1_555 1_555
C36 C37 1_555 1_555
C38 N5 1_555 1_555
C42 C43 1_555 1_555

#END
