
#######################################################################
#
#                 Cambridge Crystallographic Data Centre
#                                CCDC 
#
#######################################################################
#
# If this CIF has been generated from an entry in the Cambridge 
# Structural Database, then it will include bibliographic, chemical, 
# crystal, experimental, refinement or atomic coordinate data resulting 
# from the CCDC's data processing and validation procedures.
#
#######################################################################

data_SAFBIN
_chemical_formula_moiety         'C15 H24 Br1 N1 O3'
_chemical_name_systematic        
2-(1-bromopropyl)-N,N-dimethyl-3,3a,5,6,9,9a-hexahydro-2H-furo[3,2-b]oxocine-5-carboxamide
_symmetry_cell_setting           orthorhombic
_symmetry_space_group_name_H-M   'P 21 21 21'
_symmetry_Int_Tables_number      19
_space_group_name_Hall           'P 2ac 2ab'
loop_
_symmetry_equiv_pos_site_id
_symmetry_equiv_pos_as_xyz
1 x,y,z
2 1/2+x,1/2-y,-z
3 -x,1/2+y,1/2-z
4 1/2-x,-y,1/2+z
_cell_length_a                   5.1723(6)
_cell_length_b                   17.551(2)
_cell_length_c                   18.249(2)
_cell_angle_alpha                90
_cell_angle_beta                 90
_cell_angle_gamma                90
_cell_volume                     1656.63
_exptl_crystal_colour            colorless
_exptl_crystal_description       chunk
_cell_formula_units_Z            4
loop_
_atom_site_label
_atom_site_type_symbol
_atom_site_fract_x
_atom_site_fract_y
_atom_site_fract_z
Br1 Br -0.2656(2) 0.25803(3) 0.39384(3)
O1 O -0.2962(6) -0.0137(1) 0.5112(2)
O2 O -0.4971(9) 0.0372(2) 0.3609(2)
O3 O -0.6545(7) -0.0790(2) 0.6542(2)
N1 N -0.3800(8) 0.0178(2) 0.6725(2)
C1 C -0.394(1) 0.1671(3) 0.2695(3)
C2 C -0.492(2) 0.2348(3) 0.2252(3)
C3 C -0.507(1) 0.0401(3) 0.7412(3)
C4 C -0.155(1) 0.0629(3) 0.6547(3)
C5 C -0.490(1) 0.1030(3) 0.4727(3)
C6 C -0.461(1) -0.0435(3) 0.6357(3)
C7 C -0.453(1) 0.1726(2) 0.3504(2)
C8 C -0.566(1) -0.0923(2) 0.3981(3)
C9 C -0.640(1) -0.1620(3) 0.5135(3)
C10 C -0.625(1) -0.0085(3) 0.4142(2)
C11 C -0.375(1) -0.1491(3) 0.5443(3)
C12 C -0.3009(9) -0.0691(2) 0.5695(2)
C13 C -0.382(1) 0.1029(2) 0.3948(3)
C14 C -0.534(1) 0.0198(3) 0.4886(2)
C15 C -0.719(1) -0.1416(2) 0.4481(3)
H1 H -0.6474 0.0742 0.7306
H2 H -0.3844 0.0652 0.7724
H3 H -0.5727 -0.0045 0.7654
H4 H -0.0067 0.0424 0.6793
H5 H -0.1824 0.1145 0.6701
H6 H -0.1270 0.0617 0.6027
H7 H -0.6626 0.2242 0.2074
H8 H -0.3780 0.2436 0.1845
H9 H -0.4960 0.2793 0.2559
H10 H -0.4725 0.1209 0.2503
H11 H -0.2089 0.1628 0.2631
H12 H -0.3674 0.1250 0.5069
H13 H -0.6507 0.1315 0.4751
H14 H -0.6099 -0.1039 0.3476
H15 H -0.3833 -0.1020 0.4050
H16 H -0.2506 -0.1648 0.5075
H17 H -0.3541 -0.1831 0.5858
H18 H -0.6391 0.1819 0.3563
H19 H -0.8119 -0.0002 0.4101
H20 H -0.1223 -0.0730 0.5871
H21 H -0.6686 0.0130 0.5259
H22 H -0.8795 -0.1588 0.4322
H23 H -0.7588 -0.1868 0.5434
H24 H -0.1931 0.0972 0.3962
loop_
_geom_bond_atom_site_label_1
_geom_bond_atom_site_label_2
_geom_bond_site_symmetry_1
_geom_bond_site_symmetry_2
Br1 C7 1_555 1_555
O1 C12 1_555 1_555
O2 C10 1_555 1_555
O3 C6 1_555 1_555
N1 C3 1_555 1_555
C1 C2 1_555 1_555
C2 H7 1_555 1_555
C3 H1 1_555 1_555
C4 N1 1_555 1_555
C5 C13 1_555 1_555
C6 N1 1_555 1_555
C7 C1 1_555 1_555
C8 C10 1_555 1_555
C9 C11 1_555 1_555
C10 C14 1_555 1_555
C11 C12 1_555 1_555
C12 C6 1_555 1_555
C13 O2 1_555 1_555
C14 O1 1_555 1_555
C15 C8 1_555 1_555
H2 C3 1_555 1_555
H3 C3 1_555 1_555
H4 C4 1_555 1_555
H5 C4 1_555 1_555
H6 C4 1_555 1_555
H8 C2 1_555 1_555
H9 C2 1_555 1_555
H10 C1 1_555 1_555
H11 C1 1_555 1_555
H12 C5 1_555 1_555
H13 C5 1_555 1_555
H14 C8 1_555 1_555
H15 C8 1_555 1_555
H16 C11 1_555 1_555
H17 C11 1_555 1_555
H18 C7 1_555 1_555
H19 C10 1_555 1_555
H20 C12 1_555 1_555
H21 C14 1_555 1_555
H22 C15 1_555 1_555
H23 C9 1_555 1_555
H24 C13 1_555 1_555
C5 C14 1_555 1_555
C7 C13 1_555 1_555
C9 C15 1_555 1_555

#END
