
#######################################################################
#
#                 Cambridge Crystallographic Data Centre
#                                CCDC 
#
#######################################################################
#
# If this CIF has been generated from an entry in the Cambridge 
# Structural Database, then it will include bibliographic, chemical, 
# crystal, experimental, refinement or atomic coordinate data resulting 
# from the CCDC's data processing and validation procedures.
#
#######################################################################

data_SAFCEK
_chemical_formula_moiety         'C15 H24 Br1 N1 O4'
_chemical_name_systematic        
2-(1-Bromo-3-hydroxypropyl)-N,N-dimethyl-3,3a,5,6,9,9a-hexahydro-2H-furo[3,2-b]oxocine-5-carboxamide
_symmetry_cell_setting           orthorhombic
_symmetry_space_group_name_H-M   'P 21 21 21'
_symmetry_Int_Tables_number      19
_space_group_name_Hall           'P 2ac 2ab'
loop_
_symmetry_equiv_pos_site_id
_symmetry_equiv_pos_as_xyz
1 x,y,z
2 1/2-x,-y,1/2+z
3 -x,1/2+y,1/2-z
4 1/2+x,1/2-y,-z
_cell_length_a                   5.01750(10)
_cell_length_b                   17.3421(4)
_cell_length_c                   18.3435(5)
_cell_angle_alpha                90
_cell_angle_beta                 90
_cell_angle_gamma                90
_cell_volume                     1596.14
_exptl_crystal_colour            silver
_exptl_crystal_description       block
_cell_formula_units_Z            4
loop_
_atom_site_label
_atom_site_type_symbol
_atom_site_fract_x
_atom_site_fract_y
_atom_site_fract_z
O1 O 0.1858(2) 0.48766(5) 1.01200(5)
C1 C 0.1853(4) 0.43162(8) 1.06969(7)
H1 H 0.3700 0.4287 1.0869
C2 C 0.1138(3) 0.34986(8) 1.04507(8)
H2 H 0.2443 0.3344 1.0089
H3 H 0.1365 0.3161 1.0867
C3 C -0.1583(3) 0.33424(8) 1.01358(7)
H4 H -0.2822 0.3093 1.0430
C4 C -0.2325(3) 0.35374(8) 0.94669(7)
H5 H -0.3944 0.3350 0.9294
C5 C -0.0701(3) 0.40435(7) 0.89720(7)
H6 H -0.1067 0.3916 0.8467
H7 H 0.1184 0.3963 0.9062
C6 C -0.1425(3) 0.48774(8) 0.91190(6)
H8 H -0.3349 0.4943 0.9051
O2 O -0.0036(3) 0.53678(6) 0.86086(5)
C7 C 0.1010(3) 0.60390(7) 0.89723(7)
H9 H 0.2947 0.5991 0.9024
C8 C -0.0302(4) 0.60324(8) 0.97277(7)
H10 H 0.0839 0.6272 1.0089
H11 H -0.2006 0.6296 0.9720
C9 C -0.0651(3) 0.51780(8) 0.98793(7)
H12 H -0.2064 0.5084 1.0237
C10 C 0.0188(3) 0.45623(9) 1.13664(7)
O3 O -0.1726(3) 0.41679(6) 1.15685(5)
N1 N 0.0994(3) 0.51924(8) 1.17314(6)
C11 C 0.3207(4) 0.56897(9) 1.15293(8)
H13 H 0.3901 0.5531 1.1065
H14 H 0.4584 0.5653 1.1891
H15 H 0.2598 0.6213 1.1498
C12 C -0.0222(4) 0.53876(10) 1.24311(7)
H16 H -0.1671 0.5041 1.2528
H17 H -0.0878 0.5907 1.2415
H18 H 0.1086 0.5343 1.2811
C13 C 0.0352(3) 0.67402(8) 0.85110(7)
H19 H -0.1585 0.6812 0.8500
C14 C 0.1397(3) 0.66994(8) 0.77346(7)
H20 H 0.0857 0.6212 0.7521
H21 H 0.3329 0.6710 0.7746
C15 C 0.0411(3) 0.73543(9) 0.72526(7)
H22 H 0.0893 0.7842 0.7475
H23 H 0.1299 0.7324 0.6784
O4 O -0.2381(2) 0.73377(7) 0.71411(5)
H24 H -0.2813 0.6917 0.6975
Br1 Br 0.20073(4) 0.762341(9) 0.901644(7)
loop_
_geom_bond_atom_site_label_1
_geom_bond_atom_site_label_2
_geom_bond_site_symmetry_1
_geom_bond_site_symmetry_2
O1 C1 1_555 1_555
C1 H1 1_555 1_555
C2 C1 1_555 1_555
H2 C2 1_555 1_555
H3 C2 1_555 1_555
C3 C2 1_555 1_555
H4 C3 1_555 1_555
C4 C3 1_555 1_555
H5 C4 1_555 1_555
C5 C4 1_555 1_555
H6 C5 1_555 1_555
H7 C5 1_555 1_555
C6 C5 1_555 1_555
H8 C6 1_555 1_555
O2 C6 1_555 1_555
C7 O2 1_555 1_555
H9 C7 1_555 1_555
C8 C7 1_555 1_555
H10 C8 1_555 1_555
H11 C8 1_555 1_555
C9 O1 1_555 1_555
H12 C9 1_555 1_555
C10 C1 1_555 1_555
O3 C10 1_555 1_555
N1 C10 1_555 1_555
C11 N1 1_555 1_555
H13 C11 1_555 1_555
H14 C11 1_555 1_555
H15 C11 1_555 1_555
C12 N1 1_555 1_555
H16 C12 1_555 1_555
H17 C12 1_555 1_555
H18 C12 1_555 1_555
C13 C7 1_555 1_555
H19 C13 1_555 1_555
C14 C13 1_555 1_555
H20 C14 1_555 1_555
H21 C14 1_555 1_555
C15 C14 1_555 1_555
H22 C15 1_555 1_555
H23 C15 1_555 1_555
O4 C15 1_555 1_555
H24 O4 1_555 1_555
Br1 C13 1_555 1_555
C6 C9 1_555 1_555
C8 C9 1_555 1_555

#END
