
#######################################################################
#
#                 Cambridge Crystallographic Data Centre
#                                CCDC 
#
#######################################################################
#
# If this CIF has been generated from an entry in the Cambridge 
# Structural Database, then it will include bibliographic, chemical, 
# crystal, experimental, refinement or atomic coordinate data resulting 
# from the CCDC's data processing and validation procedures.
#
#######################################################################

data_SAFCUA
_chemical_formula_moiety         'C15 H23 Br1 Cl1 N1 O3'
_chemical_name_systematic        
2-(2-Bromoethyl)-3-chloro-N,N-dimethyl-2,3,4,4a,6,7,10,10a-octahydropyrano[3,2-b]oxocine-6-carboxamide
_symmetry_cell_setting           orthorhombic
_symmetry_space_group_name_H-M   'P 21 21 21'
_symmetry_Int_Tables_number      19
_space_group_name_Hall           'P 2ac 2ab'
loop_
_symmetry_equiv_pos_site_id
_symmetry_equiv_pos_as_xyz
1 x,y,z
2 1/2+x,1/2-y,-z
3 -x,1/2+y,1/2-z
4 1/2-x,-y,1/2+z
_cell_length_a                   10.0903(7)
_cell_length_b                   10.0932(8)
_cell_length_c                   16.722(2)
_cell_angle_alpha                90
_cell_angle_beta                 90
_cell_angle_gamma                90
_cell_volume                     1703.03
_exptl_crystal_colour            colorless
_exptl_crystal_description       block
_cell_formula_units_Z            4
loop_
_atom_site_label
_atom_site_type_symbol
_atom_site_fract_x
_atom_site_fract_y
_atom_site_fract_z
Br1 Br 0.85520(5) -0.08471(6) -0.14566(4)
Cl1 Cl 1.0226(1) 0.4701(1) -0.11762(8)
O1 O 0.9762(3) 0.4398(3) 0.0722(2)
O2 O 0.9528(3) 0.1984(3) -0.0240(2)
O3 O 0.7927(3) 0.5902(4) 0.2174(2)
N1 N 0.8669(4) 0.7029(4) 0.1100(3)
C1 C 0.9372(5) 0.1674(5) 0.1160(3)
C2 C 0.8728(4) 0.6019(4) 0.1618(3)
C3 C 0.9953(5) 0.4022(5) 0.2195(3)
C4 C 0.8726(4) 0.2294(4) 0.0437(2)
C5 C 0.8626(5) 0.1997(5) 0.1906(3)
C6 C 0.7978(4) 0.4331(5) -0.0272(3)
C7 C 0.8522(4) 0.3781(4) 0.0506(2)
C8 C 0.8907(5) 0.2340(5) -0.0974(3)
C9 C 0.9829(4) 0.5005(4) 0.1501(3)
C10 C 0.8669(5) 0.3817(5) -0.1019(3)
C11 C 0.9724(5) 0.1739(6) -0.1647(3)
C12 C 0.9721(6) 0.7369(6) 0.0542(3)
C13 C 0.8839(5) 0.3053(5) 0.2334(3)
C14 C 0.7569(5) 0.7968(6) 0.1175(4)
C15 C 1.0082(5) 0.0318(6) -0.1537(4)
H1 H 0.9405 0.0720 0.1092
H2 H 1.0275 0.1995 0.1208
H3 H 1.0759 0.3515 0.2114
H4 H 1.0071 0.4530 0.2682
H5 H 0.8053 0.5289 -0.0261
H6 H 0.7043 0.4114 -0.0307
H7 H 0.9231 0.1826 -0.2142
H8 H 1.0534 0.2248 -0.1704
H9 H 1.0610 0.0230 -0.1055
H10 H 1.0624 0.0036 -0.1985
H11 H 1.0324 0.7976 0.0793
H12 H 0.9344 0.7775 0.0076
H13 H 1.0188 0.6580 0.0390
H14 H 0.6839 0.7675 0.0852
H15 H 0.7852 0.8828 0.0999
H16 H 0.7294 0.8016 0.1724
H17 H 0.7857 0.1878 0.0362
H18 H 0.7877 0.3951 0.0932
H19 H 0.8038 0.1908 -0.0983
H20 H 1.0655 0.5515 0.1503
H21 H 0.8092 0.3991 -0.1479
H22 H 0.7973 0.1410 0.2075
H23 H 0.8262 0.3222 0.2756
loop_
_geom_bond_atom_site_label_1
_geom_bond_atom_site_label_2
_geom_bond_site_symmetry_1
_geom_bond_site_symmetry_2
Br1 C15 1_555 1_555
Cl1 C10 1_555 1_555
O1 C7 1_555 1_555
O2 C4 1_555 1_555
O3 C2 1_555 1_555
N1 C2 1_555 1_555
C1 C4 1_555 1_555
C2 C9 1_555 1_555
C3 C9 1_555 1_555
C4 C7 1_555 1_555
C5 C1 1_555 1_555
C6 C7 1_555 1_555
C7 H18 1_555 1_555
C8 O2 1_555 1_555
C9 O1 1_555 1_555
C10 C6 1_555 1_555
C11 C8 1_555 1_555
C12 N1 1_555 1_555
C13 C3 1_555 1_555
C14 N1 1_555 1_555
C15 C11 1_555 1_555
H1 C1 1_555 1_555
H2 C1 1_555 1_555
H3 C3 1_555 1_555
H4 C3 1_555 1_555
H5 C6 1_555 1_555
H6 C6 1_555 1_555
H7 C11 1_555 1_555
H8 C11 1_555 1_555
H9 C15 1_555 1_555
H10 C15 1_555 1_555
H11 C12 1_555 1_555
H12 C12 1_555 1_555
H13 C12 1_555 1_555
H14 C14 1_555 1_555
H15 C14 1_555 1_555
H16 C14 1_555 1_555
H17 C4 1_555 1_555
H19 C8 1_555 1_555
H20 C9 1_555 1_555
H21 C10 1_555 1_555
H22 C5 1_555 1_555
H23 C13 1_555 1_555
C5 C13 1_555 1_555
C8 C10 1_555 1_555

#END
