
#######################################################################
#
#                 Cambridge Crystallographic Data Centre
#                                CCDC 
#
#######################################################################
#
# If this CIF has been generated from an entry in the Cambridge 
# Structural Database, then it will include bibliographic, chemical, 
# crystal, experimental, refinement or atomic coordinate data resulting 
# from the CCDC's data processing and validation procedures.
#
#######################################################################

data_SAFCIM
_chemical_formula_moiety         'C8 H12 N1 1+,C8 H11 O4 S1 1-'
_chemical_name_systematic        
'(S)-1-Phenylethylammonium (S)-1,4-diaza-8-thia-spiro(4.5)decane-6-carboxylate'
_symmetry_cell_setting           monoclinic
_symmetry_space_group_name_H-M   'C 2'
_symmetry_Int_Tables_number      5
_space_group_name_Hall           'C 2y'
loop_
_symmetry_equiv_pos_site_id
_symmetry_equiv_pos_as_xyz
1 x,y,z
2 -x,y,-z
3 1/2+x,1/2+y,z
4 1/2-x,1/2+y,-z
_cell_length_a                   21.8800(9)
_cell_length_b                   5.8300(3)
_cell_length_c                   15.2770(8)
_cell_angle_alpha                90
_cell_angle_beta                 121.591(2)
_cell_angle_gamma                90
_cell_volume                     1659.95
_exptl_crystal_colour            colorless
_exptl_crystal_description       block
_chemical_melting_point          '146-147 deg.C'
_cell_formula_units_Z            4
loop_
_atom_site_label
_atom_site_type_symbol
_atom_site_fract_x
_atom_site_fract_y
_atom_site_fract_z
O1 O 0.22757(10) 0.4374(4) 0.17169(13)
O2 O 0.22236(10) 0.1501(3) 0.07236(13)
S1 S 0.36794(4) -0.07777(14) 0.43866(5)
O3 O 0.19164(10) 0.2232(3) 0.31978(14)
O4 O 0.13491(10) -0.0248(4) 0.18333(14)
C9 C 0.12030(16) 0.3053(7) 0.2535(3)
H13 H 0.1196 0.4357 0.2114
H14 H 0.0988 0.3550 0.2934
C10 C 0.08148(17) 0.1054(8) 0.1879(3)
H15 H 0.0593 0.0138 0.2187
H16 H 0.0435 0.1557 0.1184
C11 C 0.20188(14) 0.0225(5) 0.27517(19)
C12 C 0.25851(13) 0.0617(5) 0.24583(18)
H17 H 0.2678 -0.0891 0.2237
C13 C 0.32915(14) 0.1427(5) 0.34027(19)
H18 H 0.3201 0.2821 0.3688
H19 H 0.3636 0.1830 0.3193
C14 C 0.29254(17) -0.1234(6) 0.4536(2)
H20 H 0.3031 -0.2538 0.5009
H21 H 0.2854 0.0147 0.4849
C15 C 0.22351(17) -0.1735(6) 0.3514(2)
H22 H 0.2302 -0.3141 0.3211
H23 H 0.1843 -0.2027 0.3642
C16 C 0.23374(13) 0.2300(5) 0.15700(19)
N1 N 0.31469(10) 0.1994(4) -0.00315(16)
H1 H 0.2850 0.1832 0.0214
H2 H 0.2998 0.1055 -0.0583
H3 H 0.3138 0.3475 -0.0225
C1 C 0.41711(13) 0.2837(5) 0.17404(19)
C2 C 0.47620(14) 0.2056(6) 0.2661(2)
H4 H 0.4965 0.0599 0.2685
C3 C 0.50556(16) 0.3401(7) 0.3544(2)
H5 H 0.5461 0.2861 0.4163
C4 C 0.47649(17) 0.5503(7) 0.3529(2)
H6 H 0.4971 0.6420 0.4131
C5 C 0.41709(16) 0.6264(6) 0.2628(2)
H7 H 0.3958 0.7693 0.2616
C6 C 0.38832(15) 0.4955(5) 0.1738(2)
H8 H 0.3483 0.5521 0.1119
C7 C 0.38910(13) 0.1370(5) 0.07855(19)
H9 H 0.3886 -0.0261 0.0985
C8 C 0.43681(16) 0.1511(8) 0.0337(2)
H10 H 0.4861 0.1105 0.0867
H11 H 0.4358 0.3077 0.0096
H12 H 0.4192 0.0442 -0.0241
loop_
_geom_bond_atom_site_label_1
_geom_bond_atom_site_label_2
_geom_bond_site_symmetry_1
_geom_bond_site_symmetry_2
O1 C16 1_555 1_555
O2 C16 1_555 1_555
N1 H1 1_555 1_555
H2 N1 1_555 1_555
H3 N1 1_555 1_555
C1 C2 1_555 1_555
C2 H4 1_555 1_555
C3 C2 1_555 1_555
H5 C3 1_555 1_555
C4 C3 1_555 1_555
H6 C4 1_555 1_555
C5 C4 1_555 1_555
H7 C5 1_555 1_555
C6 C1 1_555 1_555
H8 C6 1_555 1_555
C7 N1 1_555 1_555
H9 C7 1_555 1_555
C8 C7 1_555 1_555
H10 C8 1_555 1_555
H11 C8 1_555 1_555
H12 C8 1_555 1_555
S1 C13 1_555 1_555
O3 C9 1_555 1_555
O4 C10 1_555 1_555
C9 H13 1_555 1_555
H14 C9 1_555 1_555
C10 C9 1_555 1_555
H15 C10 1_555 1_555
H16 C10 1_555 1_555
C11 O3 1_555 1_555
C12 C11 1_555 1_555
H17 C12 1_555 1_555
C13 C12 1_555 1_555
H18 C13 1_555 1_555
H19 C13 1_555 1_555
C14 S1 1_555 1_555
H20 C14 1_555 1_555
H21 C14 1_555 1_555
C15 C11 1_555 1_555
H22 C15 1_555 1_555
H23 C15 1_555 1_555
C16 C12 1_555 1_555
C1 C7 1_555 1_555
C5 C6 1_555 1_555
O4 C11 1_555 1_555
C14 C15 1_555 1_555

#END
