
#######################################################################
#
#                 Cambridge Crystallographic Data Centre
#                                CCDC 
#
#######################################################################
#
# If this CIF has been generated from an entry in the Cambridge 
# Structural Database, then it will include bibliographic, chemical, 
# crystal, experimental, refinement or atomic coordinate data resulting 
# from the CCDC's data processing and validation procedures.
#
#######################################################################

data_SAFDOV
_chemical_formula_moiety         'C22 H24 Br2 O4'
_chemical_name_systematic        
'1-(3-Bromo-2-ethyl-2,3,4,4a,6,7,10,10a-octahydropyrano[3,2-b]oxocin-6-yl)prop-2-yn-1-yl 4-bromobenzoate'
_symmetry_cell_setting           orthorhombic
_symmetry_space_group_name_H-M   'P 21 21 21'
_symmetry_Int_Tables_number      19
_space_group_name_Hall           'P 2ac 2ab'
loop_
_symmetry_equiv_pos_site_id
_symmetry_equiv_pos_as_xyz
1 x,y,z
2 1/2+x,1/2-y,-z
3 -x,1/2+y,1/2-z
4 1/2-x,-y,1/2+z
_cell_length_a                   8.1337(5)
_cell_length_b                   12.3373(7)
_cell_length_c                   21.700(1)
_cell_angle_alpha                90
_cell_angle_beta                 90
_cell_angle_gamma                90
_cell_volume                     2177.55
_exptl_crystal_colour            colorless
_exptl_crystal_description       block
_cell_formula_units_Z            4
loop_
_atom_site_label
_atom_site_type_symbol
_atom_site_fract_x
_atom_site_fract_y
_atom_site_fract_z
Br1 Br -0.9834(1) -0.44606(7) -0.24009(4)
Br2 Br -0.8168(1) -0.93576(7) -0.43031(4)
O1 O -0.4682(6) -0.3067(4) -0.3046(2)
O2 O -0.4342(6) -0.4496(4) -0.4042(2)
O3 O -0.6917(6) -0.1710(4) -0.2293(2)
O4 O -0.6077(9) -0.4024(5) -0.4803(3)
C1 C -0.7938(9) -0.3462(5) -0.2496(3)
C2 C -0.583(1) -0.6453(6) -0.3875(4)
C3 C -0.6165(8) -0.2563(6) -0.3262(3)
C4 C -0.5559(9) -0.4692(6) -0.4440(4)
C5 C -0.6544(9) -0.1508(6) -0.2926(3)
C6 C -0.8296(9) -0.2384(5) -0.2191(3)
C7 C -0.5134(9) -0.0689(6) -0.2918(4)
C8 C -0.720(1) -0.6227(7) -0.4847(3)
C9 C -0.7566(9) -0.3348(6) -0.3176(4)
C10 C -0.779(1) -0.7267(6) -0.4817(4)
C11 C -0.3232(9) -0.3062(6) -0.3417(3)
C12 C -0.6224(8) -0.5820(6) -0.4378(3)
C13 C -0.855(1) -0.2432(7) -0.1503(3)
C14 C -0.2297(9) -0.1990(6) -0.3393(4)
C15 C -0.3529(9) -0.3447(6) -0.4082(4)
C16 C -0.4339(9) -0.0483(6) -0.3529(4)
C17 C -0.309(1) -0.1067(6) -0.3737(4)
C18 C -0.739(1) -0.7912(7) -0.4321(4)
C19 C -0.644(1) -0.7527(7) -0.3839(4)
C20 C -0.195(1) -0.3584(6) -0.4398(4)
C21 C -0.900(1) -0.1344(7) -0.1223(4)
C22 C -0.065(2) -0.3696(9) -0.4629(5)
H1 H -0.5174 -0.6176 -0.3562
H2 H -0.5549 -0.0007 -0.2759
H3 H -0.4300 -0.0945 -0.2634
H4 H -0.7461 -0.5793 -0.5183
H5 H -0.7273 -0.4048 -0.3347
H6 H -0.8532 -0.3084 -0.3392
H7 H -0.8451 -0.7536 -0.5130
H8 H -0.2173 -0.1779 -0.2965
H9 H -0.1205 -0.2105 -0.3560
H10 H -0.6201 -0.7963 -0.3501
H11 H -1.0175 -0.1262 -0.1224
H12 H -0.8512 -0.0773 -0.1461
H13 H -0.8602 -0.1310 -0.0807
H14 H -0.6980 -0.3787 -0.2294
H15 H -0.6046 -0.2408 -0.3703
H16 H -0.7502 -0.1169 -0.3120
H17 H -0.9266 -0.2057 -0.2384
H18 H -0.2498 -0.3601 -0.3232
H19 H 0.0371 -0.3785 -0.4812
H20 H -0.4221 -0.2927 -0.4304
H21 H -0.7548 -0.2693 -0.1310
H22 H -0.9415 -0.2949 -0.1412
H23 H -0.4740 0.0077 -0.3773
H24 H -0.2664 -0.0893 -0.4123
loop_
_geom_bond_atom_site_label_1
_geom_bond_atom_site_label_2
_geom_bond_site_symmetry_1
_geom_bond_site_symmetry_2
Br1 C1 1_555 1_555
Br2 C18 1_555 1_555
O1 C3 1_555 1_555
O2 C4 1_555 1_555
O3 C5 1_555 1_555
O4 C4 1_555 1_555
C1 C6 1_555 1_555
C2 C12 1_555 1_555
C3 C5 1_555 1_555
C4 C12 1_555 1_555
C5 C7 1_555 1_555
C6 O3 1_555 1_555
C7 C16 1_555 1_555
C8 C10 1_555 1_555
C9 C1 1_555 1_555
C10 C18 1_555 1_555
C11 O1 1_555 1_555
C12 C8 1_555 1_555
C13 C6 1_555 1_555
C14 C11 1_555 1_555
C15 O2 1_555 1_555
C16 C17 1_555 1_555
C17 C14 1_555 1_555
C18 C19 1_555 1_555
C19 C2 1_555 1_555
C20 C15 1_555 1_555
C21 C13 1_555 1_555
C22 C20 1_555 1_555
H1 C2 1_555 1_555
H2 C7 1_555 1_555
H3 C7 1_555 1_555
H4 C8 1_555 1_555
H5 C9 1_555 1_555
H6 C9 1_555 1_555
H7 C10 1_555 1_555
H8 C14 1_555 1_555
H9 C14 1_555 1_555
H10 C19 1_555 1_555
H11 C21 1_555 1_555
H12 C21 1_555 1_555
H13 C21 1_555 1_555
H14 C1 1_555 1_555
H15 C3 1_555 1_555
H16 C5 1_555 1_555
H17 C6 1_555 1_555
H18 C11 1_555 1_555
H19 C22 1_555 1_555
H20 C15 1_555 1_555
H21 C13 1_555 1_555
H22 C13 1_555 1_555
H23 C16 1_555 1_555
H24 C17 1_555 1_555
C3 C9 1_555 1_555
C11 C15 1_555 1_555

#END
