
#######################################################################
#
#                 Cambridge Crystallographic Data Centre
#                                CCDC 
#
#######################################################################
#
# If this CIF has been generated from an entry in the Cambridge 
# Structural Database, then it will include bibliographic, chemical, 
# crystal, experimental, refinement or atomic coordinate data resulting 
# from the CCDC's data processing and validation procedures.
#
#######################################################################

data_SAFDIP
_chemical_formula_moiety         'C15 H24 Br1 Cl2 N1 O3'
_chemical_name_systematic        
(R,R)-4-(6-Bromo-5-ethylhexahydro-2H-furo[3,2-b]pyran-2-yl)-2,4-dichloro-N,N-dimethylbutanamide
_symmetry_cell_setting           orthorhombic
_symmetry_space_group_name_H-M   'P 21 21 21'
_symmetry_Int_Tables_number      19
_space_group_name_Hall           'P 2ac 2ab'
loop_
_symmetry_equiv_pos_site_id
_symmetry_equiv_pos_as_xyz
1 x,y,z
2 1/2+x,1/2-y,-z
3 -x,1/2+y,1/2-z
4 1/2-x,-y,1/2+z
_cell_length_a                   5.8615(1)
_cell_length_b                   10.2100(1)
_cell_length_c                   30.0861(3)
_cell_angle_alpha                90
_cell_angle_beta                 90
_cell_angle_gamma                90
_cell_volume                     1800.53
_exptl_crystal_colour            silver
_exptl_crystal_description       Block
_cell_formula_units_Z            4
loop_
_atom_site_label
_atom_site_type_symbol
_atom_site_fract_x
_atom_site_fract_y
_atom_site_fract_z
Br1 Br 0.46085(3) 0.743092(16) 0.785851(5)
Cl1 Cl 0.33989(9) 1.09081(5) 1.081208(18)
Cl2 Cl 0.95470(10) 0.84796(4) 1.020545(14)
O1 O 0.7074(2) 0.89665(11) 0.93019(4)
O2 O 0.9662(3) 0.95425(10) 0.85106(4)
O3 O 0.8233(3) 1.26031(12) 1.05224(4)
N1 N 0.8381(3) 1.17756(14) 1.12191(5)
C1 C 0.7677(5) 1.08637(19) 1.15616(7)
H1 H 0.6815 1.0144 1.1426
H2 H 0.6711 1.1318 1.1778
H3 H 0.9028 1.0512 1.1712
C2 C 0.9683(5) 1.29013(18) 1.13798(7)
H4 H 1.0084 1.3467 1.1129
H5 H 1.1080 1.2595 1.1526
H6 H 0.8759 1.3396 1.1593
C3 C 0.7732(4) 1.17492(15) 1.07878(6)
C4 C 0.6284(4) 1.05807(16) 1.06343(6)
H7 H 0.6846 0.9764 1.0782
C5 C 0.6331(4) 1.03991(17) 1.01351(6)
H8 H 0.5841 1.1224 0.9991
H9 H 0.5225 0.9708 1.0052
C6 C 0.8678(4) 1.00239(16) 0.99615(6)
H10 H 0.9792 1.0714 1.0054
C7 C 0.8728(3) 0.99112(16) 0.94551(6)
H11 H 0.8296 1.0784 0.9330
C8 C 1.1019(4) 0.95235(17) 0.92540(6)
H12 H 1.1885 1.0303 0.9154
H13 H 1.1955 0.9024 0.9469
C9 C 1.0321(4) 0.86809(14) 0.88656(5)
H14 H 1.1557 0.8062 0.8774
C10 C 0.8261(3) 0.79702(15) 0.90545(6)
H15 H 0.8782 0.7265 0.9262
C11 C 0.6696(3) 0.73907(16) 0.87065(5)
H16 H 0.5226 0.7148 0.8846
H17 H 0.7394 0.6585 0.8584
C12 C 0.6269(4) 0.83595(16) 0.83329(6)
H18 H 0.5307 0.9096 0.8446
C13 C 0.8492(4) 0.89059(16) 0.81513(6)
H19 H 0.9452 0.8172 0.8035
C14 C 0.8197(4) 0.99374(17) 0.77897(6)
H20 H 0.7204 0.9578 0.7553
H21 H 0.7417 1.0709 0.7918
C15 C 1.0429(5) 1.0375(2) 0.75841(7)
H22 H 1.0126 1.1034 0.7355
H23 H 1.1199 0.9620 0.7450
H24 H 1.1408 1.0755 0.7815
loop_
_geom_bond_atom_site_label_1
_geom_bond_atom_site_label_2
_geom_bond_site_symmetry_1
_geom_bond_site_symmetry_2
Br1 C12 1_555 1_555
Cl1 C4 1_555 1_555
Cl2 C6 1_555 1_555
O1 C7 1_555 1_555
O2 C9 1_555 1_555
O3 C3 1_555 1_555
N1 C1 1_555 1_555
C1 H1 1_555 1_555
H2 C1 1_555 1_555
H3 C1 1_555 1_555
C2 N1 1_555 1_555
H4 C2 1_555 1_555
H5 C2 1_555 1_555
H6 C2 1_555 1_555
C3 N1 1_555 1_555
C4 C3 1_555 1_555
H7 C4 1_555 1_555
C5 C4 1_555 1_555
H8 C5 1_555 1_555
H9 C5 1_555 1_555
C6 C5 1_555 1_555
H10 C6 1_555 1_555
C7 C6 1_555 1_555
H11 C7 1_555 1_555
C8 C7 1_555 1_555
H12 C8 1_555 1_555
H13 C8 1_555 1_555
C9 C8 1_555 1_555
H14 C9 1_555 1_555
C10 O1 1_555 1_555
H15 C10 1_555 1_555
C11 C10 1_555 1_555
H16 C11 1_555 1_555
H17 C11 1_555 1_555
C12 C11 1_555 1_555
H18 C12 1_555 1_555
C13 O2 1_555 1_555
H19 C13 1_555 1_555
C14 C13 1_555 1_555
H20 C14 1_555 1_555
H21 C14 1_555 1_555
C15 C14 1_555 1_555
H22 C15 1_555 1_555
H23 C15 1_555 1_555
H24 C15 1_555 1_555
C9 C10 1_555 1_555
C12 C13 1_555 1_555

#END
