
#######################################################################
#
#                 Cambridge Crystallographic Data Centre
#                                CCDC 
#
#######################################################################
#
# If this CIF has been generated from an entry in the Cambridge 
# Structural Database, then it will include bibliographic, chemical, 
# crystal, experimental, refinement or atomic coordinate data resulting 
# from the CCDC's data processing and validation procedures.
#
#######################################################################

data_SAFJEO11
_chemical_formula_moiety         'C28 H19 O16 S4 5-,5(Na1 1+),12(H2 O1)'
_chemical_name_systematic        
'Penta-sodium 25,26,27-trihydroxy-28-oxycalix(4)arene-5,11,17,23-tetrasulfonate dodecahydrate'
_symmetry_cell_setting           triclinic
_symmetry_space_group_name_H-M   'P -1'
_symmetry_Int_Tables_number      2
_space_group_name_Hall           '-P 1'
loop_
_symmetry_equiv_pos_site_id
_symmetry_equiv_pos_as_xyz
1 x,y,z
2 -x,-y,-z
_cell_length_a                   14.496(2)
_cell_length_b                   10.9475(18)
_cell_length_c                   13.633(2)
_cell_angle_alpha                86.391(11)
_cell_angle_beta                 106.210(10)
_cell_angle_gamma                90.860(11)
_cell_volume                     2073.35
_cell_formula_units_Z            2
loop_
_atom_site_label
_atom_site_type_symbol
_atom_site_fract_x
_atom_site_fract_y
_atom_site_fract_z
Na1 Na -0.8384(2) -0.4755(3) 0.2514(2)
Na2 Na -0.99349(18) -0.2515(3) 0.05877(19)
Na3 Na -0.9520(2) -0.8417(3) 0.5292(2)
Na4 Na -1.0305(2) -0.6181(3) 0.3316(2)
Na5 Na -0.69404(18) 0.2649(3) 0.2456(2)
S1 S -0.78799(19) -0.6147(4) 0.4658(2)
S2 S -0.7662(2) -0.0288(4) 0.3151(2)
S3 S -0.8767(2) 0.0837(3) 0.8013(2)
S4 S -0.8273(2) -0.5145(4) 1.0306(2)
O1 O -0.43970(10) -0.41142(19) 0.74669(11)
O2 O -0.44994(11) -0.1400(2) 0.69022(12)
O3 O -0.48388(10) -0.09440(19) 0.85749(12)
O4 O -0.49946(11) -0.3207(2) 0.89091(13)
O5 O -0.81101(14) -0.7203(2) 0.52346(15)
O6 O -0.86902(11) -0.5276(2) 0.42863(13)
O7 O -0.75343(12) -0.6427(2) 0.37874(13)
O8 O -0.85048(12) -0.0866(2) 0.33793(14)
O9 O -0.73884(13) -0.0894(2) 0.23453(12)
O10 O -0.78103(12) 0.1029(2) 0.29402(13)
O11 O -0.92571(12) -0.0354(2) 0.78869(14)
O12 O -0.90608(12) 0.1652(2) 0.70920(12)
O13 O -0.88556(12) 0.1377(2) 0.89364(12)
O14 O -0.78558(12) -0.5848(2) 1.12766(12)
O15 O -0.88328(13) -0.5904(2) 0.95085(13)
O16 O -0.88142(12) -0.4086(2) 1.04462(16)
C1 C -0.52584(9) -0.44809(15) 0.68337(9)
C2 C -0.58675(9) -0.52557(15) 0.72392(9)
C3 C -0.66933(9) -0.57201(16) 0.65685(9)
C4 C -0.69137(9) -0.54110(15) 0.55181(9)
C5 C -0.63343(9) -0.45925(16) 0.51313(9)
C6 C -0.55063(9) -0.41044(15) 0.57846(9)
C7 C -0.49408(9) -0.31362(15) 0.53537(10)
C8 C -0.52357(9) -0.11108(15) 0.60613(9)
C9 C -0.54413(9) -0.19118(15) 0.52586(9)
C10 C -0.61701(9) -0.16038(16) 0.43701(10)
C11 C -0.66979(9) -0.05315(15) 0.42720(9)
C12 C -0.65139(9) 0.02553(16) 0.50720(10)
C13 C -0.57786(9) -0.00249(15) 0.59715(9)
C14 C -0.55759(9) 0.08172(15) 0.68548(10)
C15 C -0.56923(9) -0.04139(15) 0.84781(9)
C16 C -0.61074(9) 0.04327(15) 0.76455(9)
C17 C -0.70417(9) 0.08648(16) 0.75121(10)
C18 C -0.75461(9) 0.04956(16) 0.82185(10)
C19 C -0.71152(9) -0.02806(16) 0.90726(10)
C20 C -0.61938(9) -0.07322(15) 0.92127(9)
C21 C -0.57870(9) -0.16596(16) 1.00940(9)
C22 C -0.57455(9) -0.36406(15) 0.92209(9)
C23 C -0.61697(9) -0.29245(15) 0.98128(9)
C24 C -0.69612(9) -0.33873(15) 1.01077(10)
C25 C -0.73057(9) -0.45600(15) 0.98703(10)
C26 C -0.68601(10) -0.52842(16) 0.93221(10)
C27 C -0.60908(9) -0.48304(15) 0.89787(9)
C28 C -0.56209(9) -0.56251(16) 0.83759(10)
H1 H -0.4995(2) -0.1661(4) 1.0299(3)
H3 H -0.7521(2) -0.0572(4) 0.9611(3)
H4 H -0.7325(3) -0.2821(4) 1.0522(3)
H6 H -0.7113(3) -0.6210(4) 0.9157(3)
H7 H -0.6007(3) -0.1406(4) 1.0767(2)
H11 H -0.4919(3) -0.2198(5) 0.8837(3)
H12 H -0.4839(2) -0.5607(4) 0.8709(3)
H15 H -0.5855(3) -0.6573(4) 0.8473(3)
H19 H -0.4533(3) -0.3853(5) 0.8102(2)
H21 H -0.4623(2) -0.1090(4) 0.7548(3)
H23 H -0.4799(2) 0.0847(4) 0.7229(3)
H24 H -0.7380(2) 0.1479(4) 0.6847(3)
H25 H -0.7152(2) -0.6348(4) 0.6864(3)
H27 H -0.6324(3) -0.2226(4) 0.3752(3)
H28 H -0.4193(2) -0.3106(4) 0.5820(3)
H29 H -0.6511(2) -0.4339(4) 0.4319(2)
H33 H -0.5808(3) 0.1746(4) 0.6543(3)
H36 H -0.6930(3) 0.1096(4) 0.4998(3)
H40 H -0.4930(3) -0.3377(4) 0.4586(2)
O17 O -0.97850(13) -0.5909(2) 0.18457(13)
H10 H -1.0177(3) -0.5467(6) 0.1247(3)
H16 H -0.9657(3) -0.6693(5) 0.1619(3)
O18 O -0.95547(12) -0.8197(2) 0.35325(13)
H26 H -0.8913(3) -0.8271(5) 0.3489(3)
H32 H -0.9918(3) -0.8819(5) 0.3123(3)
O19 O -1.05427(13) -0.1755(2) -0.11643(13)
H13 H -1.0095(3) -0.1195(5) -0.1362(3)
H14 H -1.1155(3) -0.1504(5) -0.1600(4)
O20 O -1.10639(14) -0.9593(2) 0.48032(16)
H34 H -1.1594(3) -0.9169(6) 0.4328(4)
H39 H -1.1206(3) -0.9522(5) 0.5456(3)
O21 O -1.16621(15) -0.7327(3) 0.22294(17)
H17 H -1.2007(4) -0.6945(7) 0.1593(4)
H20 H -1.1453(4) -0.8106(6) 0.2097(4)
O22 O -1.07262(15) -0.6730(2) 0.48496(16)
H35 H -1.1357(3) -0.7103(6) 0.4630(4)
H41 H -1.0847(4) -0.6018(5) 0.5188(4)
O23 O -0.71306(18) 0.1729(3) 0.08689(18)
H5 H -0.6654(4) 0.1195(7) 0.0784(5)
H8 H -0.7632(3) 0.1775(6) 0.0245(3)
O24 O -0.92464(12) -0.2965(2) 0.24119(13)
H22 H -0.9787(3) -0.3133(6) 0.2660(4)
H37 H -0.8964(3) -0.2234(4) 0.2747(3)
O25 O -0.88240(14) -0.0924(2) 0.04783(14)
H2 H -0.8935(4) -0.0146(5) 0.0125(4)
H9 H -0.8320(3) -0.0820(5) 0.1106(3)
O26 O -0.69276(18) -0.3679(3) 0.26024(16)
H30 H -0.7012(5) -0.2862(7) 0.2302(5)
H31 H -0.6542(5) -0.4128(9) 0.2301(5)
O27 O -1.10272(17) -0.4247(3) 0.26875(18)
H18 H -1.1189(3) -0.4170(5) 0.1948(3)
H38 H -1.1180(4) -0.3478(6) 0.2880(5)
O28 O -1.24822(16) -0.7823(3) 0.3810(2)
H42 H -1.2453(4) -0.7609(7) 0.3134(5)
H43 H -1.3114(4) -0.7850(13) 0.3832(7)
loop_
_geom_bond_atom_site_label_1
_geom_bond_atom_site_label_2
_geom_bond_site_symmetry_1
_geom_bond_site_symmetry_2
S1 O5 1_555 1_555
S2 O8 1_555 1_555
S3 O11 1_555 1_555
S4 O14 1_555 1_555
O1 C1 1_555 1_555
O2 C8 1_555 1_555
O3 C15 1_555 1_555
O4 C22 1_555 1_555
O6 S1 1_555 1_555
O7 S1 1_555 1_555
O9 S2 1_555 1_555
O10 S2 1_555 1_555
O12 S3 1_555 1_555
O13 S3 1_555 1_555
O15 S4 1_555 1_555
O16 S4 1_555 1_555
O17 H10 1_555 1_555
O18 H26 1_555 1_555
O19 H13 1_555 1_555
O20 H34 1_555 1_555
O21 H17 1_555 1_555
O22 H35 1_555 1_555
O23 H5 1_555 1_555
O24 H22 1_555 1_555
O25 H2 1_555 1_555
O26 H30 1_555 1_555
O27 H18 1_555 1_555
C1 C2 1_555 1_555
C2 C3 1_555 1_555
C3 C4 1_555 1_555
C4 S1 1_555 1_555
C5 C4 1_555 1_555
C6 C1 1_555 1_555
C7 C6 1_555 1_555
C8 C9 1_555 1_555
C9 C7 1_555 1_555
C10 C9 1_555 1_555
C11 S2 1_555 1_555
C12 C11 1_555 1_555
C13 C8 1_555 1_555
C14 C13 1_555 1_555
C15 C16 1_555 1_555
C16 C14 1_555 1_555
C17 C16 1_555 1_555
C18 S3 1_555 1_555
C19 C18 1_555 1_555
C20 C15 1_555 1_555
C21 C20 1_555 1_555
C22 C23 1_555 1_555
C23 C21 1_555 1_555
C24 C23 1_555 1_555
C25 S4 1_555 1_555
C26 C25 1_555 1_555
C27 C22 1_555 1_555
C28 C2 1_555 1_555
H1 C21 1_555 1_555
H3 C19 1_555 1_555
H4 C24 1_555 1_555
H6 C26 1_555 1_555
H7 C21 1_555 1_555
H8 O23 1_555 1_555
H9 O25 1_555 1_555
H11 O4 1_555 1_555
H12 C28 1_555 1_555
H14 O19 1_555 1_555
H15 C28 1_555 1_555
H16 O17 1_555 1_555
H19 O1 1_555 1_555
H20 O21 1_555 1_555
H21 O2 1_555 1_555
H23 C14 1_555 1_555
H24 C17 1_555 1_555
H25 C3 1_555 1_555
H27 C10 1_555 1_555
H28 C7 1_555 1_555
H29 C5 1_555 1_555
H31 O26 1_555 1_555
H32 O18 1_555 1_555
H33 C14 1_555 1_555
H36 C12 1_555 1_555
H37 O24 1_555 1_555
H38 O27 1_555 1_555
H39 O20 1_555 1_555
H40 C7 1_555 1_555
H41 O22 1_555 1_555
O28 H42 1_555 1_555
H43 O28 1_555 1_555
C5 C6 1_555 1_555
C10 C11 1_555 1_555
C12 C13 1_555 1_555
C17 C18 1_555 1_555
C19 C20 1_555 1_555
C24 C25 1_555 1_555
C26 C27 1_555 1_555
C27 C28 1_555 1_555

#END
