
#######################################################################
#
#                 Cambridge Crystallographic Data Centre
#                                CCDC 
#
#######################################################################
#
# If this CIF has been generated from an entry in the Cambridge 
# Structural Database, then it will include bibliographic, chemical, 
# crystal, experimental, refinement or atomic coordinate data resulting 
# from the CCDC's data processing and validation procedures.
#
#######################################################################

data_SAFNIW
_chemical_name_common            Fenbufen
_chemical_formula_moiety         'C16 H14 O3'
_chemical_name_systematic        '3-(4-Biphenylcarbonyl)propionic acid'
_chemical_properties_biological  'antiinflammatory agent'
_symmetry_cell_setting           orthorhombic
_symmetry_space_group_name_H-M   'P c a 21'
_symmetry_Int_Tables_number      29
_space_group_name_Hall           'P 2c -2ac'
loop_
_symmetry_equiv_pos_site_id
_symmetry_equiv_pos_as_xyz
1 x,y,z
2 1/2-x,y,1/2+z
3 1/2+x,-y,z
4 -x,-y,1/2+z
_cell_length_a                   31.918(10)
_cell_length_b                   5.550(2)
_cell_length_c                   15.078(9)
_cell_angle_alpha                90
_cell_angle_beta                 90
_cell_angle_gamma                90
_cell_volume                     2670.99
_exptl_crystal_colour            colorless
_cell_formula_units_Z            8
loop_
_atom_site_label
_atom_site_type_symbol
_atom_site_fract_x
_atom_site_fract_y
_atom_site_fract_z
C1 C 0.1789(1) 0.5152(6) 0.3489(2)
C2 C 0.2024(1) 0.7003(6) 0.3847(3)
C3 C 0.2452(1) 0.6983(6) 0.3813(3)
C4 C 0.2683(1) 0.5104(6) 0.3409(2)
C5 C 0.2440(1) 0.3263(6) 0.3035(3)
C6 C 0.2011(1) 0.3286(6) 0.3069(3)
C7 C 0.3139(1) 0.5104(6) 0.3391(2)
C8 C 0.3379(1) 0.6899(9) 0.3787(4)
C9 C 0.3802(1) 0.6908(10) 0.3794(4)
C10 C 0.4025(2) 0.5069(9) 0.3361(3)
C11 C 0.3792(1) 0.3277(1) 0.2946(3)
C12 C 0.3370(1) 0.3315(8) 0.2954(3)
C13 C 0.1324(1) 0.5192(6) 0.3541(3)
C14 C 0.1069(1) 0.3036(7) 0.3248(3)
C15 C 0.0608(1) 0.3359(9) 0.3380(4)
C16 C 0.0423(1) 0.5359(8) 0.2835(3)
O1 O 0.0572(1) 0.5852(7) 0.2090(2)
O2 O 0.0096(1) 0.6400(8) 0.3169(3)
O3 O 0.1147(1) 0.6958(5) 0.3849(2)
H1 H 0.191(1) 0.824(8) 0.401(3)
H2 H 0.264(1) 0.829(8) 0.399(3)
H3 H 0.259(1) 0.186(8) 0.278(3)
H4 H 0.191(1) 0.207(8) 0.282(3)
H5 H 0.326(2) 0.812(10) 0.391(4)
H6 H 0.398(3) 0.848(16) 0.396(6)
H7 H 0.432(1) 0.485(5) 0.331(2)
H8 H 0.395(2) 0.188(11) 0.270(4)
H9 H 0.323(2) 0.200(9) 0.275(4)
H10 H 0.121(2) 0.144(9) 0.354(4)
H11 H 0.116(1) 0.268(8) 0.252(3)
H12 H 0.049(2) 0.175(10) 0.313(4)
H13 H 0.057(1) 0.375(6) 0.392(3)
H14 H -0.002(2) 0.727(10) 0.285(4)
C17 C -0.1449(1) 1.0066(5) 0.0833(2)
C18 C -0.1671(1) 0.8124(6) 0.0499(2)
C19 C -0.2104(1) 0.8058(6) 0.0531(3)
C20 C -0.2330(1) 0.9900(5) 0.0923(2)
C21 C -0.2107(1) 1.1805(7) 0.1275(3)
C22 C -0.1674(1) 1.1922(6) 0.1227(3)
C23 C -0.2804(1) 0.9839(5) 0.0939(2)
C24 C -0.3021(1) 0.8032(8) 0.0521(3)
C25 C -0.3460(1) 0.7991(9) 0.0525(4)
C26 C -0.3676(1) 0.9759(8) 0.0949(3)
C27 C -0.3470(1) 1.1553(10) 0.1362(4)
C28 C -0.3029(1) 1.1618(7) 0.1360(3)
C29 C -0.0983(1) 1.0098(6) 0.0733(2)
C30 C -0.0751(1) 1.2376(8) 0.0973(3)
C31 C -0.0283(1) 1.2095(9) 0.0779(4)
C32 C -0.0084(1) 1.0216(8) 0.1372(4)
O4 O -0.0215(1) 0.9786(7) 0.2112(2)
O5 O 0.0235(1) 0.9140(9) 0.1031(3)
O6 O -0.0798(1) 0.8341(5) 0.0463(2)
H15 H -0.151(1) 0.685(7) 0.020(3)
H16 H -0.222(1) 0.682(7) 0.027(2)
H17 H -0.223(1) 1.300(8) 0.152(3)
H18 H -0.150(1) 1.319(6) 0.147(2)
H19 H -0.289(1) 0.688(8) 0.019(3)
H20 H -0.360(2) 0.675(11) 0.012(4)
H21 H -0.399(2) 0.970(9) 0.096(4)
H22 H -0.359(2) 1.256(9) 0.166(4)
H23 H -0.288(1) 1.308(7) 0.170(3)
H24 H -0.084(1) 1.372(7) 0.064(3)
H25 H -0.078(1) 1.271(7) 0.167(3)
H26 H -0.014(1) 1.363(9) 0.095(3)
H27 H -0.015(2) 1.153(2) 0.010(4)
H28 H 0.040(4) 0.860(29) 0.137(11)
loop_
_geom_bond_atom_site_label_1
_geom_bond_atom_site_label_2
_geom_bond_site_symmetry_1
_geom_bond_site_symmetry_2
C1 C2 1_555 1_555
C2 C3 1_555 1_555
C3 C4 1_555 1_555
C4 C5 1_555 1_555
C5 C6 1_555 1_555
C6 C1 1_555 1_555
C7 C4 1_555 1_555
C8 C7 1_555 1_555
C9 C8 1_555 1_555
C10 C9 1_555 1_555
C11 C10 1_555 1_555
C12 C7 1_555 1_555
C13 C1 1_555 1_555
C14 C13 1_555 1_555
C15 C14 1_555 1_555
C16 C15 1_555 1_555
O1 C16 1_555 1_555
O2 C16 1_555 1_555
O3 C13 1_555 1_555
H1 C2 1_555 1_555
H2 C3 1_555 1_555
H3 C5 1_555 1_555
H4 C6 1_555 1_555
H5 C8 1_555 1_555
H6 C9 1_555 1_555
H7 C10 1_555 1_555
H8 C11 1_555 1_555
H9 C12 1_555 1_555
H10 C14 1_555 1_555
H11 C14 1_555 1_555
H12 C15 1_555 1_555
H13 C15 1_555 1_555
H14 O2 1_555 1_555
C17 C18 1_555 1_555
C18 C19 1_555 1_555
C19 C20 1_555 1_555
C20 C21 1_555 1_555
C21 C22 1_555 1_555
C22 C17 1_555 1_555
C23 C20 1_555 1_555
C24 C23 1_555 1_555
C25 C24 1_555 1_555
C26 C25 1_555 1_555
C27 C26 1_555 1_555
C28 C23 1_555 1_555
C29 C17 1_555 1_555
C30 C29 1_555 1_555
C31 C30 1_555 1_555
C32 C31 1_555 1_555
O4 C32 1_555 1_555
O5 C32 1_555 1_555
O6 C29 1_555 1_555
H15 C18 1_555 1_555
H16 C19 1_555 1_555
H17 C21 1_555 1_555
H18 C22 1_555 1_555
H19 C24 1_555 1_555
H20 C25 1_555 1_555
H21 C26 1_555 1_555
H22 C27 1_555 1_555
H23 C28 1_555 1_555
H24 C30 1_555 1_555
H25 C30 1_555 1_555
H26 C31 1_555 1_555
H27 C31 1_555 1_555
H28 O5 1_555 1_555
C11 C12 1_555 1_555
C27 C28 1_555 1_555

#END
