
#######################################################################
#
#                 Cambridge Crystallographic Data Centre
#                                CCDC 
#
#######################################################################
#
# If this CIF has been generated from an entry in the Cambridge 
# Structural Database, then it will include bibliographic, chemical, 
# crystal, experimental, refinement or atomic coordinate data resulting 
# from the CCDC's data processing and validation procedures.
#
#######################################################################

data_SAFQOI
_chemical_formula_moiety         'C31 H42 N2 O7'
_chemical_name_systematic        
'8-ethoxy-20-ethyl-1,16-dimethoxyaconitan-14-yl 4-nitrobenzoate'
_symmetry_cell_setting           triclinic
_symmetry_space_group_name_H-M   'P -1'
_symmetry_Int_Tables_number      2
_space_group_name_Hall           '-P 1'
loop_
_symmetry_equiv_pos_site_id
_symmetry_equiv_pos_as_xyz
1 x,y,z
2 -x,-y,-z
_cell_length_a                   12.1886(4)
_cell_length_b                   16.0833(6)
_cell_length_c                   16.2622(6)
_cell_angle_alpha                70.955(2)
_cell_angle_beta                 82.179(2)
_cell_angle_gamma                70.930(2)
_cell_volume                     2846.5
_exptl_crystal_colour            yellow
_exptl_crystal_description       prism
_cell_formula_units_Z            4
loop_
_atom_site_label
_atom_site_type_symbol
_atom_site_fract_x
_atom_site_fract_y
_atom_site_fract_z
C1 C -0.17087(12) 0.26306(10) 0.11254(10)
H1 H -0.1658 0.2068 0.1637
C2 C -0.08189(13) 0.31058(10) 0.12048(10)
H2 H -0.1140 0.3507 0.1592
C3 C 0.03544(13) 0.23891(10) 0.15343(10)
C4 C 0.02424(14) 0.17313(11) 0.24640(10)
H3 H 0.0782 0.1781 0.2836
H4 H -0.0554 0.1969 0.2694
C5 C 0.04727(13) 0.06912(11) 0.25892(10)
H5 H -0.0277 0.0544 0.2769
C6 C 0.09638(13) 0.03947(10) 0.17802(10)
H6 H 0.1380 -0.0282 0.1941
C7 C -0.00078(13) 0.06566(10) 0.11453(10)
H7 H -0.0767 0.0696 0.1463
H8 H 0.0148 0.0190 0.0836
C8 C -0.00161(13) 0.16185(10) 0.04845(10)
H9 H 0.0314 0.1510 -0.0082
C9 C -0.12327(12) 0.23492(10) 0.03027(9)
C10 C -0.19757(13) 0.19692(10) -0.00967(9)
H10 H -0.1470 0.1699 -0.0541
C11 C -0.30830(13) 0.26428(11) -0.05456(10)
H11 H -0.3334 0.2366 -0.0920
H12 H -0.3706 0.2751 -0.0099
C12 C -0.29142(14) 0.35605(12) -0.10974(11)
H13 H -0.3673 0.4007 -0.1309
H14 H -0.2401 0.3476 -0.1610
C13 C -0.23754(14) 0.39336(11) -0.05590(10)
H15 H -0.2313 0.4550 -0.0930
C14 C -0.30984(14) 0.40643(11) 0.02682(11)
H16 H -0.2900 0.4531 0.0444
H17 H -0.3931 0.4310 0.0129
C15 C -0.06439(14) 0.36909(10) 0.02613(10)
H18 H 0.0190 0.3622 0.0116
H19 H -0.1068 0.4351 0.0177
C16 C -0.11449(13) 0.33007(10) -0.03047(10)
H20 H -0.0634 0.3235 -0.0830
C17 C 0.08843(12) 0.18872(10) 0.08478(10)
H21 H 0.1268 0.2275 0.0362
C18 C 0.17490(13) 0.09454(11) 0.12409(10)
H22 H 0.2163 0.0674 0.0770
C19 C -0.34699(14) 0.34193(12) 0.18080(11)
H23 H -0.3167 0.3876 0.1913
H24 H -0.3258 0.2849 0.2305
C20 C -0.47875(17) 0.37975(14) 0.17644(13)
H25 H -0.5005 0.4419 0.1349
H26 H -0.5123 0.3824 0.2342
H27 H -0.5082 0.3393 0.1575
C21 C 0.09321(15) 0.35000(12) 0.19806(12)
H28 H 0.0516 0.3287 0.2537
H29 H 0.0424 0.4096 0.1629
C22 C 0.20530(16) 0.36118(13) 0.21501(13)
H30 H 0.2521 0.3031 0.2537
H31 H 0.1882 0.4101 0.2426
H32 H 0.2484 0.3777 0.1598
C23 C 0.07565(18) 0.01158(14) 0.41020(11)
H33 H 0.0436 0.0745 0.4144
H34 H 0.1341 -0.0249 0.4544
H35 H 0.0131 -0.0167 0.4198
C24 C -0.24809(17) 0.05791(13) 0.02467(12)
H36 H -0.3236 0.0845 -0.0029
H37 H -0.2483 0.0021 0.0728
H38 H -0.1868 0.0422 -0.0183
C25 C 0.35084(13) 0.11927(10) 0.14237(10)
C26 C 0.43109(13) 0.10974(10) 0.20898(10)
C27 C 0.53352(13) 0.13202(11) 0.17980(10)
H39 H 0.5490 0.1550 0.1191
C28 C 0.61305(14) 0.12097(11) 0.23857(11)
H40 H 0.6840 0.1348 0.2191
C29 C 0.58674(13) 0.08932(11) 0.32621(10)
C30 C 0.48574(14) 0.06628(12) 0.35725(11)
H41 H 0.4702 0.0443 0.4180
C31 C 0.40764(14) 0.07601(12) 0.29773(10)
H42 H 0.3383 0.0597 0.3175
N1 N -0.29236(11) 0.32161(9) 0.10105(8)
N2 N 0.66973(12) 0.07966(10) 0.38929(9)
O1 O 0.12198(10) 0.28371(8) 0.15227(8)
O2 O 0.12798(10) 0.01434(9) 0.32618(7)
O3 O -0.22741(9) 0.12249(7) 0.05696(7)
O4 O 0.25801(9) 0.09363(7) 0.18022(7)
O5 O 0.37001(10) 0.14346(8) 0.06500(7)
O6 O 0.76004(10) 0.09868(9) 0.36080(8)
O7 O 0.64418(12) 0.05439(11) 0.46703(8)
C32 C 1.24866(12) 0.34710(10) 0.70083(10)
H43 H 1.2855 0.3108 0.6594
C33 C 1.11700(13) 0.39470(10) 0.68281(10)
H44 H 1.1048 0.4532 0.6335
C34 C 1.05905(13) 0.33020(11) 0.66570(10)
C35 C 1.10629(14) 0.30380(12) 0.58114(10)
H45 H 1.0388 0.3161 0.5465
H46 H 1.1510 0.3460 0.5470
C36 C 1.18404(14) 0.20393(12) 0.58983(11)
H47 H 1.2663 0.2046 0.5766
C37 C 1.17807(14) 0.13487(11) 0.67983(11)
H48 H 1.1957 0.0712 0.6755
C38 C 1.26118(14) 0.13734(11) 0.74163(11)
H49 H 1.3272 0.1572 0.7083
H50 H 1.2920 0.0755 0.7837
C39 C 1.18775(13) 0.20832(10) 0.79022(10)
H51 H 1.1762 0.1720 0.8519
C40 C 1.24303(12) 0.28166(10) 0.79322(9)
C41 C 1.35738(13) 0.23001(10) 0.84345(10)
H52 H 1.3405 0.1817 0.8960
C42 C 1.41267(14) 0.28629(11) 0.87476(11)
H53 H 1.4698 0.2440 0.9194
H54 H 1.4550 0.3191 0.8252
C43 C 1.32334(15) 0.35605(12) 0.91300(11)
H55 H 1.3608 0.3968 0.9250
H56 H 1.2904 0.3236 0.9686
C44 C 1.22656(14) 0.41360(11) 0.84875(11)
H57 H 1.1711 0.4609 0.8742
C45 C 1.27093(14) 0.46469(11) 0.75971(11)
H58 H 1.2067 0.5195 0.7318
H59 H 1.3336 0.4869 0.7691
C46 C 1.06533(13) 0.41476(10) 0.76874(10)
H60 H 0.9921 0.3985 0.7858
H61 H 1.0496 0.4808 0.7631
C47 C 1.15944(13) 0.35336(10) 0.83614(10)
H62 H 1.1246 0.3225 0.8925
C48 C 1.06800(13) 0.24662(10) 0.74779(9)
H63 H 1.0050 0.2630 0.7912
C49 C 1.06182(13) 0.16270(11) 0.72636(10)
H64 H 1.0564 0.1125 0.7812
C50 C 1.33608(15) 0.46613(12) 0.61276(11)
H65 H 1.2638 0.5165 0.5926
H66 H 1.3572 0.4284 0.5723
C51 C 1.43297(18) 0.50750(15) 0.61060(14)
H67 H 1.4077 0.5519 0.6438
H68 H 1.4512 0.5389 0.5502
H69 H 1.5023 0.4582 0.6364
C52 C 0.88959(15) 0.46076(12) 0.60030(12)
H70 H 0.9145 0.4582 0.5404
H71 H 0.9183 0.5067 0.6118
C53 C 0.75926(15) 0.48648(14) 0.61087(13)
H72 H 0.7317 0.4427 0.5956
H73 H 0.7250 0.5489 0.5725
H74 H 0.7362 0.4845 0.6714
C54 C 1.1882(2) 0.20908(19) 0.44333(13)
H75 H 1.1424 0.2742 0.4232
H76 H 1.1763 0.1766 0.4053
H77 H 1.2707 0.2042 0.4416
C55 C 1.52224(17) 0.10181(13) 0.83818(14)
H78 H 1.5657 0.1171 0.8747
H79 H 1.5763 0.0724 0.7982
H80 H 1.4807 0.0593 0.8752
C56 C 0.86141(13) 0.20013(10) 0.70398(10)
C57 C 0.77362(13) 0.22177(11) 0.63859(10)
C58 C 0.80507(14) 0.22360(12) 0.55239(11)
H81 H 0.8841 0.2138 0.5331
C59 C 0.72119(15) 0.23967(12) 0.49524(11)
H82 H 0.7414 0.2413 0.4363
C60 C 0.60696(14) 0.25342(11) 0.52575(11)
C61 C 0.57344(14) 0.25267(12) 0.61046(11)
H83 H 0.4943 0.2626 0.6295
C62 C 0.65816(14) 0.23710(12) 0.66678(11)
H84 H 0.6372 0.2369 0.7253
N3 N 1.31536(11) 0.40885(9) 0.69991(8)
N4 N 0.51696(12) 0.26991(10) 0.46549(9)
O8 O 0.93371(9) 0.37252(8) 0.66168(7)
O9 O 1.15292(12) 0.16929(10) 0.52882(8)
O10 O 1.44174(9) 0.18317(7) 0.78993(7)
O11 O 0.96946(9) 0.18151(8) 0.66951(7)
O12 O 0.83779(10) 0.19726(8) 0.77915(7)
O13 O 0.41586(11) 0.28393(10) 0.49291(9)
O14 O 0.54657(11) 0.26983(10) 0.39075(8)
loop_
_geom_bond_atom_site_label_1
_geom_bond_atom_site_label_2
_geom_bond_site_symmetry_1
_geom_bond_site_symmetry_2
C1 H1 1_555 1_555
C2 C1 1_555 1_555
H2 C2 1_555 1_555
C3 C2 1_555 1_555
C4 C3 1_555 1_555
H3 C4 1_555 1_555
H4 C4 1_555 1_555
C5 C4 1_555 1_555
H5 C5 1_555 1_555
C6 C5 1_555 1_555
H6 C6 1_555 1_555
C7 C6 1_555 1_555
H7 C7 1_555 1_555
H8 C7 1_555 1_555
C8 C7 1_555 1_555
H9 C8 1_555 1_555
C9 C1 1_555 1_555
C10 C9 1_555 1_555
H10 C10 1_555 1_555
C11 C10 1_555 1_555
H11 C11 1_555 1_555
H12 C11 1_555 1_555
C12 C11 1_555 1_555
H13 C12 1_555 1_555
H14 C12 1_555 1_555
C13 C12 1_555 1_555
H15 C13 1_555 1_555
C14 C13 1_555 1_555
H16 C14 1_555 1_555
H17 C14 1_555 1_555
C15 C2 1_555 1_555
H18 C15 1_555 1_555
H19 C15 1_555 1_555
C16 C9 1_555 1_555
H20 C16 1_555 1_555
C17 C3 1_555 1_555
H21 C17 1_555 1_555
C18 C6 1_555 1_555
H22 C18 1_555 1_555
C19 H23 1_555 1_555
H24 C19 1_555 1_555
C20 C19 1_555 1_555
H25 C20 1_555 1_555
H26 C20 1_555 1_555
H27 C20 1_555 1_555
C21 H28 1_555 1_555
H29 C21 1_555 1_555
C22 C21 1_555 1_555
H30 C22 1_555 1_555
H31 C22 1_555 1_555
H32 C22 1_555 1_555
C23 H33 1_555 1_555
H34 C23 1_555 1_555
H35 C23 1_555 1_555
C24 H36 1_555 1_555
H37 C24 1_555 1_555
H38 C24 1_555 1_555
C25 C26 1_555 1_555
C26 C27 1_555 1_555
C27 H39 1_555 1_555
C28 C27 1_555 1_555
H40 C28 1_555 1_555
C29 C28 1_555 1_555
C30 C29 1_555 1_555
H41 C30 1_555 1_555
C31 C26 1_555 1_555
H42 C31 1_555 1_555
N1 C1 1_555 1_555
N2 C29 1_555 1_555
O1 C3 1_555 1_555
O2 C5 1_555 1_555
O3 C10 1_555 1_555
O4 C18 1_555 1_555
O5 C25 1_555 1_555
O6 N2 1_555 1_555
O7 N2 1_555 1_555
C32 H43 1_555 1_555
C33 C32 1_555 1_555
H44 C33 1_555 1_555
C34 C33 1_555 1_555
C35 C34 1_555 1_555
H45 C35 1_555 1_555
H46 C35 1_555 1_555
C36 C35 1_555 1_555
H47 C36 1_555 1_555
C37 C36 1_555 1_555
H48 C37 1_555 1_555
C38 C37 1_555 1_555
H49 C38 1_555 1_555
H50 C38 1_555 1_555
C39 C38 1_555 1_555
H51 C39 1_555 1_555
C40 C32 1_555 1_555
C41 C40 1_555 1_555
H52 C41 1_555 1_555
C42 C41 1_555 1_555
H53 C42 1_555 1_555
H54 C42 1_555 1_555
C43 C42 1_555 1_555
H55 C43 1_555 1_555
H56 C43 1_555 1_555
C44 C43 1_555 1_555
H57 C44 1_555 1_555
C45 C44 1_555 1_555
H58 C45 1_555 1_555
H59 C45 1_555 1_555
C46 C33 1_555 1_555
H60 C46 1_555 1_555
H61 C46 1_555 1_555
C47 C40 1_555 1_555
H62 C47 1_555 1_555
C48 C34 1_555 1_555
H63 C48 1_555 1_555
C49 C37 1_555 1_555
H64 C49 1_555 1_555
C50 H65 1_555 1_555
H66 C50 1_555 1_555
C51 C50 1_555 1_555
H67 C51 1_555 1_555
H68 C51 1_555 1_555
H69 C51 1_555 1_555
C52 H70 1_555 1_555
H71 C52 1_555 1_555
C53 C52 1_555 1_555
H72 C53 1_555 1_555
H73 C53 1_555 1_555
H74 C53 1_555 1_555
C54 H75 1_555 1_555
H76 C54 1_555 1_555
H77 C54 1_555 1_555
C55 H78 1_555 1_555
H79 C55 1_555 1_555
H80 C55 1_555 1_555
C56 C57 1_555 1_555
C57 C58 1_555 1_555
C58 H81 1_555 1_555
C59 C58 1_555 1_555
H82 C59 1_555 1_555
C60 C59 1_555 1_555
C61 C60 1_555 1_555
H83 C61 1_555 1_555
C62 C57 1_555 1_555
H84 C62 1_555 1_555
N3 C32 1_555 1_555
N4 C60 1_555 1_555
O8 C34 1_555 1_555
O9 C36 1_555 1_555
O10 C41 1_555 1_555
O11 C49 1_555 1_555
O12 C56 1_555 1_555
O13 N4 1_555 1_555
O14 N4 1_555 1_555
C8 C9 1_555 1_555
C8 C17 1_555 1_555
C13 C16 1_555 1_555
C14 N1 1_555 1_555
C15 C16 1_555 1_555
C17 C18 1_555 1_555
C19 N1 1_555 1_555
C21 O1 1_555 1_555
C23 O2 1_555 1_555
C24 O3 1_555 1_555
C25 O4 1_555 1_555
C30 C31 1_555 1_555
C39 C40 1_555 1_555
C39 C48 1_555 1_555
C44 C47 1_555 1_555
C45 N3 1_555 1_555
C46 C47 1_555 1_555
C48 C49 1_555 1_555
C50 N3 1_555 1_555
C52 O8 1_555 1_555
C54 O9 1_555 1_555
C55 O10 1_555 1_555
C56 O11 1_555 1_555
C61 C62 1_555 1_555

#END
