
#######################################################################
#
#                 Cambridge Crystallographic Data Centre
#                                CCDC 
#
#######################################################################
#
# If this CIF has been generated from an entry in the Cambridge 
# Structural Database, then it will include bibliographic, chemical, 
# crystal, experimental, refinement or atomic coordinate data resulting 
# from the CCDC's data processing and validation procedures.
#
#######################################################################

data_SAFQEY
_chemical_formula_moiety         'C20 H33 N1 O6 Si1'
_chemical_name_systematic        
'methyl ((7-(((t-butyl(dimethyl)silyl)oxy)methyl)-4-methoxy-3-oxo-1,2,3,4,7,7a-hexahydro-3aH-inden-3a-yl)carbonyl)carbamate'
_symmetry_cell_setting           orthorhombic
_symmetry_space_group_name_H-M   'P 21 21 21'
_symmetry_Int_Tables_number      19
_space_group_name_Hall           'P 2ac 2ab'
loop_
_symmetry_equiv_pos_site_id
_symmetry_equiv_pos_as_xyz
1 x,y,z
2 1/2-x,-y,1/2+z
3 -x,1/2+y,1/2-z
4 1/2+x,1/2-y,-z
_cell_length_a                   10.6244(18)
_cell_length_b                   13.337(2)
_cell_length_c                   31.677(5)
_cell_angle_alpha                90
_cell_angle_beta                 90
_cell_angle_gamma                90
_cell_volume                     4488.56
_exptl_crystal_colour            colorless
_exptl_crystal_description       blade
_cell_formula_units_Z            8
loop_
_atom_site_label
_atom_site_type_symbol
_atom_site_fract_x
_atom_site_fract_y
_atom_site_fract_z
C1 C 0.8273(6) 0.2114(5) 0.79700(17)
C2 C 0.8879(6) 0.1393(5) 0.82918(18)
H1 H 0.8284 0.0825 0.8343
C3 C 0.9163(6) 0.1881(6) 0.87051(19)
H2 H 0.9401 0.1462 0.8934
C4 C 0.9106(6) 0.2847(6) 0.87724(19)
H3 H 0.9299 0.3081 0.9048
C5 C 0.8759(6) 0.3611(5) 0.84454(17)
H4 H 0.7870 0.3817 0.8502
C6 C 0.8802(6) 0.3178(5) 0.79989(18)
H5 H 0.8280 0.3619 0.7813
C7 C 1.0113(5) 0.3071(5) 0.77936(19)
H6 H 1.0454 0.3731 0.7708
H7 H 1.0715 0.2740 0.7987
C8 C 0.9836(6) 0.2413(6) 0.74091(19)
H8 H 0.9618 0.2833 0.7162
H9 H 1.0579 0.1999 0.7337
C9 C 0.8740(6) 0.1755(5) 0.75296(19)
C10 C 0.6830(6) 0.2022(5) 0.80110(18)
C11 C 0.4860(6) 0.2870(5) 0.78284(19)
C12 C 0.3200(5) 0.3813(6) 0.7542(2)
H10 H 0.2738 0.3247 0.7419
H11 H 0.3066 0.4412 0.7368
H12 H 0.2896 0.3938 0.7829
C13 C 1.0058(7) -0.0060(6) 0.8100(2)
H13 H 1.0009 -0.0336 0.8386
H14 H 1.0841 -0.0281 0.7966
H15 H 0.9338 -0.0298 0.7934
C14 C 0.9559(6) 0.4536(5) 0.84759(19)
H16 H 1.0454 0.4355 0.8434
H17 H 0.9315 0.5014 0.8251
C15 C 0.7844(7) 0.6617(7) 0.8626(2)
H18 H 0.7879 0.6341 0.8340
H19 H 0.7820 0.7351 0.8612
H20 H 0.7085 0.6372 0.8769
C16 C 1.0672(6) 0.6844(6) 0.87151(19)
H21 H 1.1383 0.6718 0.8905
H22 H 1.0520 0.7567 0.8696
H23 H 1.0866 0.6580 0.8434
C17 C 0.9033(6) 0.6455(5) 0.95064(19)
C18 C 0.8683(8) 0.7539(6) 0.9582(2)
H24 H 0.7865 0.7679 0.9452
H25 H 0.9324 0.7976 0.9458
H26 H 0.8632 0.7665 0.9887
C19 C 1.0267(6) 0.6226(7) 0.9744(2)
H27 H 1.0935 0.6669 0.9640
H28 H 1.0507 0.5526 0.9695
H29 H 1.0143 0.6336 1.0047
C20 C 0.7994(7) 0.5765(7) 0.9677(2)
H30 H 0.7888 0.5881 0.9981
H31 H 0.8229 0.5064 0.9629
H32 H 0.7201 0.5910 0.9531
N1 N 0.6166(5) 0.2760(4) 0.78048(14)
H33 H 0.6589 0.3189 0.7649
O1 O 0.6344(4) 0.1360(4) 0.82093(12)
O2 O 0.4166(4) 0.2427(4) 0.80541(13)
O3 O 0.4540(3) 0.3577(4) 0.75540(14)
O4 O 1.0035(4) 0.0992(4) 0.81196(14)
O5 O 0.8283(4) 0.1092(4) 0.73265(13)
O6 O 0.9404(4) 0.4997(4) 0.88786(12)
Si1 Si 0.92492(16) 0.62149(16) 0.89236(5)
C21 C 0.5931(5) 0.4502(5) 0.63750(16)
C22 C 0.6680(5) 0.3714(5) 0.61244(18)
H34 H 0.6960 0.3174 0.6322
C23 C 0.7817(6) 0.4145(6) 0.59075(18)
H35 H 0.8385 0.3691 0.5777
C24 C 0.8078(6) 0.5094(6) 0.58866(18)
H36 H 0.8830 0.5279 0.5744
C25 C 0.7296(5) 0.5922(5) 0.60676(19)
H37 H 0.7694 0.6149 0.6337
C26 C 0.5964(5) 0.5545(5) 0.61660(18)
H38 H 0.5566 0.6031 0.6366
C27 C 0.5081(6) 0.5427(5) 0.57861(18)
H39 H 0.4799 0.6088 0.5680
H40 H 0.5497 0.5057 0.5554
C28 C 0.3980(6) 0.4829(5) 0.59672(18)
H41 H 0.3312 0.5286 0.6070
H42 H 0.3617 0.4382 0.5749
C29 C 0.4514(6) 0.4228(5) 0.63248(19)
C30 C 0.6323(5) 0.4474(5) 0.68415(18)
C31 C 0.5939(6) 0.5358(5) 0.75097(18)
C32 C 0.4922(6) 0.6204(6) 0.80749(18)
H43 H 0.5179 0.5623 0.8243
H44 H 0.4059 0.6393 0.8149
H45 H 0.5489 0.6767 0.8132
C33 C 0.5671(7) 0.2253(6) 0.5848(2)
H46 H 0.6475 0.1893 0.5836
H47 H 0.5124 0.2020 0.5619
H48 H 0.5263 0.2125 0.6120
C34 C 0.7277(6) 0.6805(5) 0.5761(2)
H49 H 0.8110 0.7138 0.5759
H50 H 0.7095 0.6563 0.5472
C35 C 0.4581(6) 0.8970(6) 0.6000(2)
H51 H 0.3941 0.8526 0.5879
H52 H 0.4369 0.9668 0.5936
H53 H 0.4611 0.8875 0.6306
C36 C 0.7364(7) 0.9449(7) 0.6022(2)
H54 H 0.7318 0.9369 0.6329
H55 H 0.7225 1.0154 0.5949
H56 H 0.8197 0.9239 0.5923
C37 C 0.6131(6) 0.8867(5) 0.51788(18)
C38 C 0.5152(7) 0.8178(7) 0.4978(2)
H57 H 0.4315 0.8346 0.5088
H58 H 0.5350 0.7479 0.5047
H59 H 0.5162 0.8266 0.4671
C39 C 0.7413(6) 0.8624(6) 0.4983(2)
H60 H 0.7407 0.8808 0.4684
H61 H 0.7580 0.7904 0.5011
H62 H 0.8070 0.9003 0.5130
C40 C 0.5799(7) 0.9950(6) 0.5076(2)
H63 H 0.5792 1.0043 0.4769
H64 H 0.6425 1.0398 0.5202
H65 H 0.4965 1.0107 0.5190
N2 N 0.5806(5) 0.5227(4) 0.70760(14)
H66 H 0.5345 0.5671 0.6940
O7 O 0.6982(4) 0.3819(4) 0.69926(12)
O8 O 0.6732(4) 0.5011(4) 0.77321(12)
O9 O 0.4979(4) 0.5952(4) 0.76319(12)
O10 O 0.5886(4) 0.3274(4) 0.58031(12)
O11 O 0.3961(4) 0.3655(4) 0.65514(13)
O12 O 0.6337(4) 0.7495(4) 0.58907(14)
Si2 Si 0.61403(16) 0.86646(16) 0.57693(5)
loop_
_geom_bond_atom_site_label_1
_geom_bond_atom_site_label_2
_geom_bond_site_symmetry_1
_geom_bond_site_symmetry_2
C1 C2 1_555 1_555
C2 H1 1_555 1_555
C3 C2 1_555 1_555
H2 C3 1_555 1_555
C4 C3 1_555 1_555
H3 C4 1_555 1_555
C5 C4 1_555 1_555
H4 C5 1_555 1_555
C6 C1 1_555 1_555
H5 C6 1_555 1_555
C7 C6 1_555 1_555
H6 C7 1_555 1_555
H7 C7 1_555 1_555
C8 C7 1_555 1_555
H8 C8 1_555 1_555
H9 C8 1_555 1_555
C9 C1 1_555 1_555
C10 C1 1_555 1_555
C11 N1 1_555 1_555
C12 H10 1_555 1_555
H11 C12 1_555 1_555
H12 C12 1_555 1_555
C13 H13 1_555 1_555
H14 C13 1_555 1_555
H15 C13 1_555 1_555
C14 C5 1_555 1_555
H16 C14 1_555 1_555
H17 C14 1_555 1_555
C15 H18 1_555 1_555
H19 C15 1_555 1_555
H20 C15 1_555 1_555
C16 H21 1_555 1_555
H22 C16 1_555 1_555
H23 C16 1_555 1_555
C17 C18 1_555 1_555
C18 H24 1_555 1_555
H25 C18 1_555 1_555
H26 C18 1_555 1_555
C19 C17 1_555 1_555
H27 C19 1_555 1_555
H28 C19 1_555 1_555
H29 C19 1_555 1_555
C20 C17 1_555 1_555
H30 C20 1_555 1_555
H31 C20 1_555 1_555
H32 C20 1_555 1_555
N1 C10 1_555 1_555
H33 N1 1_555 1_555
O1 C10 1_555 1_555
O2 C11 1_555 1_555
O3 C11 1_555 1_555
O4 C2 1_555 1_555
O5 C9 1_555 1_555
O6 C14 1_555 1_555
Si1 C15 1_555 1_555
C21 C22 1_555 1_555
C22 H34 1_555 1_555
C23 C22 1_555 1_555
H35 C23 1_555 1_555
C24 C23 1_555 1_555
H36 C24 1_555 1_555
C25 C24 1_555 1_555
H37 C25 1_555 1_555
C26 C21 1_555 1_555
H38 C26 1_555 1_555
C27 C26 1_555 1_555
H39 C27 1_555 1_555
H40 C27 1_555 1_555
C28 C27 1_555 1_555
H41 C28 1_555 1_555
H42 C28 1_555 1_555
C29 C21 1_555 1_555
C30 C21 1_555 1_555
C31 N2 1_555 1_555
C32 H43 1_555 1_555
H44 C32 1_555 1_555
H45 C32 1_555 1_555
C33 H46 1_555 1_555
H47 C33 1_555 1_555
H48 C33 1_555 1_555
C34 C25 1_555 1_555
H49 C34 1_555 1_555
H50 C34 1_555 1_555
C35 H51 1_555 1_555
H52 C35 1_555 1_555
H53 C35 1_555 1_555
C36 H54 1_555 1_555
H55 C36 1_555 1_555
H56 C36 1_555 1_555
C37 C38 1_555 1_555
C38 H57 1_555 1_555
H58 C38 1_555 1_555
H59 C38 1_555 1_555
C39 C37 1_555 1_555
H60 C39 1_555 1_555
H61 C39 1_555 1_555
H62 C39 1_555 1_555
C40 C37 1_555 1_555
H63 C40 1_555 1_555
H64 C40 1_555 1_555
H65 C40 1_555 1_555
N2 C30 1_555 1_555
H66 N2 1_555 1_555
O7 C30 1_555 1_555
O8 C31 1_555 1_555
O9 C31 1_555 1_555
O10 C22 1_555 1_555
O11 C29 1_555 1_555
O12 C34 1_555 1_555
Si2 C35 1_555 1_555
C5 C6 1_555 1_555
C8 C9 1_555 1_555
C12 O3 1_555 1_555
C13 O4 1_555 1_555
C16 Si1 1_555 1_555
C17 Si1 1_555 1_555
O6 Si1 1_555 1_555
C25 C26 1_555 1_555
C28 C29 1_555 1_555
C32 O9 1_555 1_555
C33 O10 1_555 1_555
C36 Si2 1_555 1_555
C37 Si2 1_555 1_555
O12 Si2 1_555 1_555

#END
