
#######################################################################
#
#                 Cambridge Crystallographic Data Centre
#                                CCDC 
#
#######################################################################
#
# If this CIF has been generated from an entry in the Cambridge 
# Structural Database, then it will include bibliographic, chemical, 
# crystal, experimental, refinement or atomic coordinate data resulting 
# from the CCDC's data processing and validation procedures.
#
#######################################################################

data_SAFRIC
_chemical_formula_moiety         'C12 H9 N1 O4'
_chemical_name_systematic        
2-((3S)-5-Oxotetrahydrofuran-3-yl)-1H-isoindole-1,3(2H)-dione
_symmetry_cell_setting           orthorhombic
_symmetry_space_group_name_H-M   'P 21 21 21'
_symmetry_Int_Tables_number      19
_space_group_name_Hall           'P 2ac 2ab'
loop_
_symmetry_equiv_pos_site_id
_symmetry_equiv_pos_as_xyz
1 x,y,z
2 1/2-x,-y,1/2+z
3 -x,1/2+y,1/2-z
4 1/2+x,1/2-y,-z
_cell_length_a                   5.7224(3)
_cell_length_b                   10.5839(5)
_cell_length_c                   16.8532(10)
_cell_angle_alpha                90
_cell_angle_beta                 90
_cell_angle_gamma                90
_cell_volume                     1020.72
_exptl_crystal_colour            colorless
_exptl_crystal_description       block
_cell_formula_units_Z            4
loop_
_atom_site_label
_atom_site_type_symbol
_atom_site_fract_x
_atom_site_fract_y
_atom_site_fract_z
C1 C 0.8388(3) 0.49330(17) 0.93941(11)
C2 C 0.6577(4) 0.5765(2) 0.95245(13)
H1 H 0.5424 0.5900 0.9145
C3 C 0.6548(4) 0.6395(2) 1.02494(13)
H2 H 0.5347 0.6960 1.0360
C4 C 0.8280(4) 0.6193(2) 1.08081(13)
H3 H 0.8220 0.6627 1.1288
C5 C 1.0100(4) 0.5361(2) 1.06693(13)
H4 H 1.1268 0.5232 1.1044
C6 C 1.0115(3) 0.47294(17) 0.99517(11)
C7 C 1.1748(3) 0.37695(18) 0.96411(11)
C8 C 0.8880(3) 0.41079(18) 0.87031(11)
C9 C 1.2036(4) 0.2499(2) 0.83890(11)
H5 H 1.3392 0.2152 0.8669
C10 C 1.0378(4) 0.1429(2) 0.81692(13)
H6 H 1.1173 0.0621 0.8192
H7 H 0.9051 0.1408 0.8527
C11 C 0.9611(4) 0.1714(2) 0.73468(13)
C12 C 1.2804(4) 0.2984(2) 0.75729(11)
H8 H 1.2911 0.3898 0.7575
H9 H 1.4318 0.2639 0.7432
N1 N 1.0948(3) 0.34698(16) 0.88763(9)
O1 O 1.3448(3) 0.33039(14) 0.99497(8)
O2 O 0.7776(3) 0.39782(15) 0.80953(9)
O3 O 1.1040(3) 0.25678(15) 0.70162(8)
O4 O 0.8005(3) 0.12687(16) 0.69809(11)
loop_
_geom_bond_atom_site_label_1
_geom_bond_atom_site_label_2
_geom_bond_site_symmetry_1
_geom_bond_site_symmetry_2
C1 C2 1_555 1_555
C2 H1 1_555 1_555
C3 C2 1_555 1_555
H2 C3 1_555 1_555
C4 C3 1_555 1_555
H3 C4 1_555 1_555
C5 C4 1_555 1_555
H4 C5 1_555 1_555
C6 C1 1_555 1_555
C7 C6 1_555 1_555
C8 C1 1_555 1_555
C9 H5 1_555 1_555
C10 C9 1_555 1_555
H6 C10 1_555 1_555
H7 C10 1_555 1_555
C11 C10 1_555 1_555
C12 C9 1_555 1_555
H8 C12 1_555 1_555
H9 C12 1_555 1_555
N1 C7 1_555 1_555
O1 C7 1_555 1_555
O2 C8 1_555 1_555
O3 C11 1_555 1_555
O4 C11 1_555 1_555
C5 C6 1_555 1_555
C8 N1 1_555 1_555
C9 N1 1_555 1_555
C12 O3 1_555 1_555

#END
