
#######################################################################
#
#                 Cambridge Crystallographic Data Centre
#                                CCDC 
#
#######################################################################
#
# If this CIF has been generated from an entry in the Cambridge 
# Structural Database, then it will include bibliographic, chemical, 
# crystal, experimental, refinement or atomic coordinate data resulting 
# from the CCDC's data processing and validation procedures.
#
#######################################################################

data_SAFVUT
_chemical_compound_source        'Phoma sp. fungus'
_chemical_formula_moiety         'C24 H32 O6'
_chemical_name_systematic        
15-Hydroxy-3a,7a,11,11,14-pentamethyl-3,3a,7a,8,11,12,15,16,16a,17-decahydro-2H,5H-cycloundeca[b]furo[3',2':2,3]pyrano[3,4-e]pyran-2,5-dione
_symmetry_cell_setting           orthorhombic
_symmetry_space_group_name_H-M   'P 21 21 21'
_symmetry_Int_Tables_number      19
_space_group_name_Hall           'P 2ac 2ab'
loop_
_symmetry_equiv_pos_site_id
_symmetry_equiv_pos_as_xyz
1 x,y,z
2 1/2-x,-y,1/2+z
3 1/2+x,1/2-y,-z
4 -x,1/2+y,1/2-z
_cell_length_a                   6.30022(10)
_cell_length_b                   15.0054(2)
_cell_length_c                   23.3482(8)
_cell_angle_alpha                90
_cell_angle_beta                 90
_cell_angle_gamma                90
_cell_volume                     2207.28
_cell_formula_units_Z            4
loop_
_atom_site_label
_atom_site_type_symbol
_atom_site_fract_x
_atom_site_fract_y
_atom_site_fract_z
O1 O -0.8073(2) -0.40290(8) -0.05247(5)
O2 O -0.9762(2) -0.60788(8) -0.16327(5)
O3 O -0.4793(2) -0.57798(9) 0.16648(5)
H1 H -0.4716 -0.5625 0.2001
O4 O -1.05614(19) -0.58490(8) -0.04139(5)
C1 C -0.6819(3) -0.57884(11) -0.02056(7)
H2 H -0.5425 -0.5828 -0.0380
H3 H -0.7096 -0.6346 -0.0010
O5 O -1.2566(2) -0.70599(9) -0.02913(6)
C2 C -0.6834(3) -0.50253(11) 0.02309(7)
H4 H -0.8271 -0.4977 0.0389
O6 O -1.0792(2) -0.50793(10) -0.22577(6)
C3 C -0.6341(3) -0.41599(11) -0.00965(7)
C4 C -0.4246(3) -0.41602(12) -0.04248(8)
H5 H -0.4024 -0.3585 -0.0595
H6 H -0.4293 -0.4606 -0.0720
H7 H -0.3102 -0.4290 -0.0166
C5 C -0.6482(3) -0.33135(11) 0.02648(8)
H8 H -0.5175 -0.3251 0.0480
H9 H -0.6587 -0.2806 0.0009
C6 C -0.8475(3) -0.56527(11) -0.06711(7)
C7 C -0.8068(3) -0.30659(11) 0.12216(8)
H10 H -0.6720 -0.2873 0.1327
C8 C -1.1983(3) -0.31226(13) 0.14683(9)
H11 H -1.2162 -0.3639 0.1230
H12 H -1.2267 -0.2595 0.1249
H13 H -1.2951 -0.3153 0.1785
C9 C -0.9203(3) -0.62408(12) 0.12580(8)
H14 H -1.0675 -0.6304 0.1356
H15 H -0.8398 -0.6705 0.1439
H16 H -0.9040 -0.6283 0.0850
C10 C -0.8542(3) -0.46999(11) -0.08851(8)
C11 C -0.9692(3) -0.48139(12) 0.17598(7)
H17 H -1.1088 -0.5009 0.1793
C12 C -0.6082(3) -0.51491(12) 0.13503(7)
H18 H -0.5756 -0.4544 0.1481
C13 C -0.8316(3) -0.32839(11) 0.06767(8)
H19 H -0.9668 -0.3423 0.0544
C14 C -0.9175(3) -0.45256(12) -0.14202(8)
H20 H -0.9123 -0.3941 -0.1552
C15 C -0.9206(3) -0.39403(12) 0.20540(7)
H21 H -0.7714 -0.3933 0.2156
H22 H -1.0017 -0.3912 0.2407
C16 C -0.9700(3) -0.30917(12) 0.16935(8)
C17 C -0.9942(3) -0.52187(13) -0.18022(8)
C18 C -0.8334(3) -0.63321(12) -0.11642(8)
C19 C -0.9423(3) -0.22661(13) 0.20770(9)
H23 H -0.9618 -0.1737 0.1852
H24 H -0.8023 -0.2266 0.2239
H25 H -1.0457 -0.2280 0.2379
C20 C -1.1037(3) -0.67233(12) -0.05066(7)
C21 C -0.5309(3) -0.52639(11) 0.07263(7)
H26 H -0.4038 -0.4906 0.0680
H27 H -0.4892 -0.5882 0.0678
C22 C -0.6146(3) -0.64873(12) -0.14089(8)
H28 H -0.5556 -0.5930 -0.1533
H29 H -0.6243 -0.6886 -0.1729
H30 H -0.5250 -0.6745 -0.1120
C23 C -0.9411(3) -0.71336(12) -0.09008(8)
H31 H -1.0084 -0.7498 -0.1192
H32 H -0.8406 -0.7495 -0.0689
C24 C -0.8410(3) -0.53471(11) 0.14599(7)
loop_
_geom_bond_atom_site_label_1
_geom_bond_atom_site_label_2
_geom_bond_site_symmetry_1
_geom_bond_site_symmetry_2
O1 C3 1_555 1_555
O2 C17 1_555 1_555
O3 H1 1_555 1_555
O4 C6 1_555 1_555
C1 H2 1_555 1_555
H3 C1 1_555 1_555
O5 C20 1_555 1_555
C2 C1 1_555 1_555
H4 C2 1_555 1_555
O6 C17 1_555 1_555
C3 C2 1_555 1_555
C4 C3 1_555 1_555
H5 C4 1_555 1_555
H6 C4 1_555 1_555
H7 C4 1_555 1_555
C5 C3 1_555 1_555
H8 C5 1_555 1_555
H9 C5 1_555 1_555
C6 C1 1_555 1_555
C7 H10 1_555 1_555
C8 H11 1_555 1_555
H12 C8 1_555 1_555
H13 C8 1_555 1_555
C9 H14 1_555 1_555
H15 C9 1_555 1_555
H16 C9 1_555 1_555
C10 O1 1_555 1_555
C11 H17 1_555 1_555
C12 O3 1_555 1_555
H18 C12 1_555 1_555
C13 C5 1_555 1_555
H19 C13 1_555 1_555
C14 C10 1_555 1_555
H20 C14 1_555 1_555
C15 C11 1_555 1_555
H21 C15 1_555 1_555
H22 C15 1_555 1_555
C16 C7 1_555 1_555
C17 C14 1_555 1_555
C18 O2 1_555 1_555
C19 C16 1_555 1_555
H23 C19 1_555 1_555
H24 C19 1_555 1_555
H25 C19 1_555 1_555
C20 O4 1_555 1_555
C21 C2 1_555 1_555
H26 C21 1_555 1_555
H27 C21 1_555 1_555
C22 C18 1_555 1_555
H28 C22 1_555 1_555
H29 C22 1_555 1_555
H30 C22 1_555 1_555
C23 C18 1_555 1_555
H31 C23 1_555 1_555
H32 C23 1_555 1_555
C24 C9 1_555 1_555
C6 C10 1_555 1_555
C6 C18 1_555 1_555
C7 C13 1_555 1_555
C8 C16 1_555 1_555
C11 C24 1_555 1_555
C12 C21 1_555 1_555
C12 C24 1_555 1_555
C15 C16 1_555 1_555
C20 C23 1_555 1_555

#END
