
#######################################################################
#
#                 Cambridge Crystallographic Data Centre
#                                CCDC 
#
#######################################################################
#
# If this CIF has been generated from an entry in the Cambridge 
# Structural Database, then it will include bibliographic, chemical, 
# crystal, experimental, refinement or atomic coordinate data resulting 
# from the CCDC's data processing and validation procedures.
#
#######################################################################

data_SAFWEE
_chemical_formula_moiety         'C19 H15 F2 N3 O2 S1'
_chemical_name_systematic        
(5-Fluoro-2-(5-((2-fluorobenzyl)sulfanyl)-1,3,4-oxadiazol-2-yl)-1-methyl-1H-indol-3-yl)methanol
_symmetry_cell_setting           triclinic
_symmetry_space_group_name_H-M   'P -1'
_symmetry_Int_Tables_number      2
_space_group_name_Hall           '-P 1'
loop_
_symmetry_equiv_pos_site_id
_symmetry_equiv_pos_as_xyz
1 x,y,z
2 -x,-y,-z
_cell_length_a                   7.6017(9)
_cell_length_b                   9.5136(11)
_cell_length_c                   12.9546(14)
_cell_angle_alpha                105.453(7)
_cell_angle_beta                 105.744(7)
_cell_angle_gamma                91.883(8)
_cell_volume                     863.523
_exptl_crystal_colour            colorless
_exptl_crystal_description       Needle
_chemical_melting_point          '421-422 K'
_cell_formula_units_Z            2
_exptl_crystal_recrystallization_method dichloromethane
loop_
_atom_site_label
_atom_site_type_symbol
_atom_site_fract_x
_atom_site_fract_y
_atom_site_fract_z
S1 S 0.5203(3) 0.05131(18) 0.74868(15)
F1 F 0.9138(6) -0.0774(5) 0.8164(4)
O1 O 0.3971(6) 0.2552(4) 0.6529(3)
F2 F 0.0157(8) 0.8938(6) 0.3591(4)
O2 O 0.4233(8) 0.7639(5) 0.8164(4)
H1 H 0.4811 0.6951 0.8267
N1 N 0.2824(7) 0.4258(6) 0.4892(4)
N2 N 0.5202(8) 0.3483(6) 0.8356(4)
N3 N 0.4576(8) 0.4610(6) 0.7902(4)
C1 C 0.3034(8) 0.4775(6) 0.6028(5)
C2 C 0.3857(8) 0.4022(6) 0.6838(5)
C3 C 0.8465(9) 0.1421(6) 0.9240(5)
C4 C 0.2122(8) 0.5333(7) 0.4411(5)
C5 C 0.1689(10) 0.5359(8) 0.3298(5)
H2 H 0.1843 0.4566 0.2742
C6 C 0.2478(8) 0.6159(7) 0.6284(5)
C7 C 0.9110(10) 0.2844(7) 0.9935(5)
H3 H 0.8308 0.3423 1.0237
C8 C 0.1893(8) 0.6534(7) 0.5263(5)
C9 C 0.9725(10) 0.0629(7) 0.8826(5)
C10 C 1.0926(10) 0.3401(8) 1.0181(6)
H4 H 1.1332 0.4347 1.0653
C11 C 0.6509(10) 0.0798(7) 0.8956(6)
H5 H 0.5907 0.1454 0.9428
H6 H 0.6483 -0.0135 0.9126
C12 C 0.2462(10) 0.7090(7) 0.7414(5)
H7 H 0.1776 0.7912 0.7320
H8 H 0.1819 0.6514 0.7743
C13 C 0.1032(11) 0.6587(9) 0.3052(6)
H9 H 0.0725 0.6638 0.2319
C14 C 1.2136(10) 0.2582(9) 0.9738(6)
H10 H 1.3352 0.2971 0.9901
C15 C 1.1530(10) 0.1171(9) 0.9047(6)
H11 H 1.2328 0.0597 0.8736
C16 C 0.1217(9) 0.7776(7) 0.4984(6)
H12 H 0.1046 0.8582 0.5525
C17 C 0.4840(9) 0.2312(7) 0.7530(5)
C18 C 0.3198(10) 0.2856(7) 0.4270(6)
H13 H 0.3136 0.2875 0.3524
H14 H 0.2302 0.2098 0.4239
H15 H 0.4405 0.2661 0.4635
C19 C 0.0821(11) 0.7762(8) 0.3902(6)
loop_
_geom_bond_atom_site_label_1
_geom_bond_atom_site_label_2
_geom_bond_site_symmetry_1
_geom_bond_site_symmetry_2
S1 C11 1_555 1_555
F1 C9 1_555 1_555
O1 C2 1_555 1_555
F2 C19 1_555 1_555
O2 H1 1_555 1_555
N1 C1 1_555 1_555
N2 N3 1_555 1_555
N3 C2 1_555 1_555
C1 C2 1_555 1_555
C3 C7 1_555 1_555
C4 N1 1_555 1_555
C5 C4 1_555 1_555
H2 C5 1_555 1_555
C6 C1 1_555 1_555
C7 H3 1_555 1_555
C8 C4 1_555 1_555
C9 C3 1_555 1_555
C10 C7 1_555 1_555
H4 C10 1_555 1_555
C11 C3 1_555 1_555
H5 C11 1_555 1_555
H6 C11 1_555 1_555
C12 O2 1_555 1_555
H7 C12 1_555 1_555
H8 C12 1_555 1_555
C13 C5 1_555 1_555
H9 C13 1_555 1_555
C14 C10 1_555 1_555
H10 C14 1_555 1_555
C15 C9 1_555 1_555
H11 C15 1_555 1_555
C16 C8 1_555 1_555
H12 C16 1_555 1_555
C17 S1 1_555 1_555
C18 N1 1_555 1_555
H13 C18 1_555 1_555
H14 C18 1_555 1_555
H15 C18 1_555 1_555
C19 C13 1_555 1_555
O1 C17 1_555 1_555
N2 C17 1_555 1_555
C6 C8 1_555 1_555
C6 C12 1_555 1_555
C14 C15 1_555 1_555
C16 C19 1_555 1_555

#END
