
#######################################################################
#
#                 Cambridge Crystallographic Data Centre
#                                CCDC 
#
#######################################################################
#
# If this CIF has been generated from an entry in the Cambridge 
# Structural Database, then it will include bibliographic, chemical, 
# crystal, experimental, refinement or atomic coordinate data resulting 
# from the CCDC's data processing and validation procedures.
#
#######################################################################

data_SAFXII
_chemical_formula_moiety         'C18 H18 Cl2 N2'
_chemical_name_systematic        
(Z,Z)-N,N'-Butane-2,3-diylidenebis(3-chloro-2-methylaniline)
_symmetry_cell_setting           monoclinic
_symmetry_space_group_name_H-M   'P 21/n'
_symmetry_Int_Tables_number      14
_space_group_name_Hall           '-P 2yn'
loop_
_symmetry_equiv_pos_site_id
_symmetry_equiv_pos_as_xyz
1 x,y,z
2 1/2-x,1/2+y,1/2-z
3 -x,-y,-z
4 1/2+x,1/2-y,1/2+z
_cell_length_a                   8.032(6)
_cell_length_b                   7.372(5)
_cell_length_c                   14.475(10)
_cell_angle_alpha                90
_cell_angle_beta                 93.533(7)
_cell_angle_gamma                90
_cell_volume                     855.463
_exptl_crystal_colour            colorless
_exptl_crystal_description       block
_cell_formula_units_Z            2
loop_
_atom_site_label
_atom_site_type_symbol
_atom_site_fract_x
_atom_site_fract_y
_atom_site_fract_z
C1 C 0.4602(2) 0.2982(3) 0.17826(13)
C2 C 0.5314(2) 0.3432(3) 0.26633(13)
C3 C 0.5281(3) 0.2084(3) 0.33347(14)
C4 C 0.4584(3) 0.0403(3) 0.31793(16)
H1 H 0.4589 -0.0453 0.3651
C5 C 0.3875(3) 0.0005(3) 0.23100(16)
H2 H 0.3391 -0.1124 0.2192
C6 C 0.3887(3) 0.1286(3) 0.16168(15)
H3 H 0.3411 0.1013 0.1031
C7 C 0.6047(3) 0.5274(3) 0.28511(17)
H4 H 0.5640 0.5748 0.3412
H5 H 0.5730 0.6070 0.2346
H6 H 0.7241 0.5182 0.2916
C8 C 0.5174(2) 0.4244(3) 0.03386(13)
C9 C 0.6332(4) 0.2775(3) 0.00740(18)
H7 H 0.6605 0.2017 0.0601
H8 H 0.7334 0.3304 -0.0136
H9 H 0.5803 0.2058 -0.0414
Cl1 Cl 0.61699(10) 0.25335(11) 0.44457(4)
N1 N 0.4462(2) 0.4357(2) 0.10980(11)
C1B C 0.5398(2) 0.7018(3) -0.17826(13)
C2B C 0.4686(2) 0.6568(3) -0.26633(13)
C3B C 0.4719(3) 0.7916(3) -0.33347(14)
C4B C 0.5416(3) 0.9597(3) -0.31793(16)
H1B H 0.5411 1.0453 -0.3651
C5B C 0.6125(3) 0.9995(3) -0.23100(16)
H2B H 0.6609 1.1124 -0.2192
C6B C 0.6113(3) 0.8714(3) -0.16168(15)
H3B H 0.6589 0.8987 -0.1031
C7B C 0.3953(3) 0.4726(3) -0.28511(17)
H4B H 0.4360 0.4252 -0.3412
H5B H 0.4270 0.3930 -0.2346
H6B H 0.2759 0.4818 -0.2916
C8B C 0.4826(2) 0.5756(3) -0.03386(13)
C9B C 0.3668(4) 0.7225(3) -0.00740(18)
H7B H 0.3395 0.7983 -0.0601
H8B H 0.2666 0.6696 0.0136
H9B H 0.4197 0.7942 0.0414
Cl1B Cl 0.38301(10) 0.74665(11) -0.44457(4)
N1B N 0.5538(2) 0.5643(2) -0.10980(11)
loop_
_geom_bond_atom_site_label_1
_geom_bond_atom_site_label_2
_geom_bond_site_symmetry_1
_geom_bond_site_symmetry_2
C1 C2 1_555 1_555
C2 C3 1_555 1_555
C3 C4 1_555 1_555
C4 H1 1_555 1_555
C5 C4 1_555 1_555
H2 C5 1_555 1_555
C6 C1 1_555 1_555
H3 C6 1_555 1_555
C7 C2 1_555 1_555
H4 C7 1_555 1_555
H5 C7 1_555 1_555
H6 C7 1_555 1_555
C8 C9 1_555 1_555
C9 H7 1_555 1_555
H8 C9 1_555 1_555
H9 C9 1_555 1_555
Cl1 C3 1_555 1_555
N1 C1 1_555 1_555
C1B C2B 1_555 1_555
C2B C3B 1_555 1_555
C3B C4B 1_555 1_555
C4B H1B 1_555 1_555
C5B C4B 1_555 1_555
H2B C5B 1_555 1_555
C6B C1B 1_555 1_555
H3B C6B 1_555 1_555
C7B C2B 1_555 1_555
H4B C7B 1_555 1_555
H5B C7B 1_555 1_555
H6B C7B 1_555 1_555
C8B C8 1_555 1_555
C9B C8B 1_555 1_555
H7B C9B 1_555 1_555
H8B C9B 1_555 1_555
H9B C9B 1_555 1_555
Cl1B C3B 1_555 1_555
N1B C1B 1_555 1_555
C5 C6 1_555 1_555
C8 N1 1_555 1_555
C5B C6B 1_555 1_555
C8B N1B 1_555 1_555

#END
