
#######################################################################
#
#                 Cambridge Crystallographic Data Centre
#                                CCDC 
#
#######################################################################
#
# If this CIF has been generated from an entry in the Cambridge 
# Structural Database, then it will include bibliographic, chemical, 
# crystal, experimental, refinement or atomic coordinate data resulting 
# from the CCDC's data processing and validation procedures.
#
#######################################################################

data_SAFYUV
_chemical_formula_moiety         'C13 H15 Cl1 F2 N2 O1'
_chemical_name_systematic        
2-Chloro-1-(4-(2,4-difluorobenzyl)piperazin-1-yl)ethanone
_symmetry_cell_setting           orthorhombic
_symmetry_space_group_name_H-M   'P 21 21 21'
_symmetry_Int_Tables_number      19
_space_group_name_Hall           'P 2ac 2ab'
loop_
_symmetry_equiv_pos_site_id
_symmetry_equiv_pos_as_xyz
1 x,y,z
2 1/2-x,-y,1/2+z
3 1/2+x,1/2-y,-z
4 -x,1/2+y,1/2-z
_cell_length_a                   7.895(2)
_cell_length_b                   8.512(2)
_cell_length_c                   19.884(5)
_cell_angle_alpha                90
_cell_angle_beta                 90
_cell_angle_gamma                90
_cell_volume                     1336.25
_exptl_crystal_colour            colorless
_exptl_crystal_description       block
_cell_formula_units_Z            4
loop_
_atom_site_label
_atom_site_type_symbol
_atom_site_fract_x
_atom_site_fract_y
_atom_site_fract_z
Cl1 Cl 0.26806(8) 1.41412(7) 0.14714(3)
N1 N 0.53726(18) 0.88254(16) 0.14628(8)
F1 F 0.86597(19) 0.62487(19) 0.15098(7)
N2 N 0.25240(19) 1.04611(18) 0.20166(8)
C1 C 0.6577(3) 0.8543(2) 0.09087(11)
C2 C 0.1248(2) 1.1492(2) 0.19486(9)
C3 C 0.3630(2) 0.8503(2) 0.12429(10)
C4 C 0.5486(2) 1.0480(2) 0.16685(11)
O1 O -0.01636(16) 1.11102(17) 0.17464(8)
C5 C 0.2357(3) 0.8832(2) 0.17911(11)
F2 F 0.6783(2) 0.21756(16) 0.01314(7)
C6 C 0.1573(3) 1.3191(2) 0.21356(10)
C7 C 0.7660(2) 0.5758(2) 0.10072(9)
C8 C 0.5670(3) 0.6280(2) 0.01646(10)
H1 H 0.4984 0.6980 -0.0070
C9 C 0.4260(2) 1.0821(3) 0.22316(11)
C10 C 0.6638(2) 0.6844(2) 0.06941(8)
C11 C 0.5682(3) 0.4712(3) -0.00294(10)
H2 H 0.5005 0.4354 -0.0380
C12 C 0.6726(3) 0.3717(2) 0.03146(10)
C13 C 0.7734(3) 0.4185(2) 0.08374(10)
H3 H 0.8430 0.3483 0.1066
H4 H 0.219(3) 1.327(3) 0.2523(10)
H5 H 0.049(3) 1.374(3) 0.2171(10)
H6 H 0.451(3) 1.011(3) 0.2616(12)
H7 H 0.328(2) 0.920(2) 0.0833(9)
H8 H 0.265(3) 0.814(3) 0.2201(11)
H9 H 0.432(3) 1.185(3) 0.2347(12)
H10 H 0.665(3) 1.071(2) 0.1839(9)
H11 H 0.362(3) 0.745(3) 0.1093(11)
H12 H 0.524(3) 1.123(2) 0.1293(10)
H13 H 0.134(3) 0.868(3) 0.1630(11)
H14 H 0.761(3) 0.886(3) 0.1060(10)
H15 H 0.619(3) 0.919(3) 0.0531(13)
loop_
_geom_bond_atom_site_label_1
_geom_bond_atom_site_label_2
_geom_bond_site_symmetry_1
_geom_bond_site_symmetry_2
Cl1 C6 1_555 1_555
N1 C1 1_555 1_555
F1 C7 1_555 1_555
N2 C2 1_555 1_555
C1 C10 1_555 1_555
C2 O1 1_555 1_555
C3 N1 1_555 1_555
C4 N1 1_555 1_555
C5 N2 1_555 1_555
F2 C12 1_555 1_555
C6 C2 1_555 1_555
C7 C10 1_555 1_555
C8 H1 1_555 1_555
C9 N2 1_555 1_555
C10 C8 1_555 1_555
C11 C8 1_555 1_555
H2 C11 1_555 1_555
C12 C11 1_555 1_555
C13 C7 1_555 1_555
H3 C13 1_555 1_555
H4 C6 1_555 1_555
H5 C6 1_555 1_555
H6 C9 1_555 1_555
H7 C3 1_555 1_555
H8 C5 1_555 1_555
H9 C9 1_555 1_555
H10 C4 1_555 1_555
H11 C3 1_555 1_555
H12 C4 1_555 1_555
H13 C5 1_555 1_555
H14 C1 1_555 1_555
H15 C1 1_555 1_555
C3 C5 1_555 1_555
C4 C9 1_555 1_555
C12 C13 1_555 1_555

#END
