
#######################################################################
#
#                 Cambridge Crystallographic Data Centre
#                                CCDC 
#
#######################################################################
#
# If this CIF has been generated from an entry in the Cambridge 
# Structural Database, then it will include bibliographic, chemical, 
# crystal, experimental, refinement or atomic coordinate data resulting 
# from the CCDC's data processing and validation procedures.
#
#######################################################################

data_SAFYAB
_chemical_formula_moiety         'C10 H7 N5 O2'
_chemical_name_systematic        
5-Amino-1-(4-nitrophenyl)-1H-pyrazole-3-carbonitrile
_symmetry_cell_setting           monoclinic
_symmetry_space_group_name_H-M   'C c'
_symmetry_Int_Tables_number      9
_space_group_name_Hall           'C -2yc'
loop_
_symmetry_equiv_pos_site_id
_symmetry_equiv_pos_as_xyz
1 x,y,z
2 x,-y,1/2+z
3 1/2+x,1/2+y,z
4 1/2+x,1/2-y,1/2+z
_cell_length_a                   3.7685(2)
_cell_length_b                   27.3441(17)
_cell_length_c                   10.1294(8)
_cell_angle_alpha                90
_cell_angle_beta                 96.20(3)
_cell_angle_gamma                90
_cell_volume                     1037.69
_exptl_crystal_colour            yellow
_exptl_crystal_description       block
_cell_formula_units_Z            4
loop_
_atom_site_label
_atom_site_type_symbol
_atom_site_fract_x
_atom_site_fract_y
_atom_site_fract_z
C1 C 0.6000(9) 0.14112(13) 0.7685(3)
H1 H 0.6497 0.1737 0.7890
N1 N 0.7783(9) 0.01800(13) 0.9127(4)
O1 O 0.9593(11) 0.02857(14) 1.0134(4)
N2 N 0.2632(8) 0.16762(10) 0.5653(3)
C2 C 0.7254(10) 0.10486(14) 0.8562(4)
H2 H 0.8616 0.1124 0.9357
O2 O 0.6973(13) -0.02441(11) 0.8819(4)
C3 C 0.6406(9) 0.05648(13) 0.8214(3)
N3 N 0.1670(9) 0.21026(11) 0.6233(3)
C4 C 0.4432(9) 0.04433(12) 0.7061(4)
H3 H 0.3940 0.0117 0.6858
N4 N 0.2620(12) 0.13064(12) 0.3498(3)
H4 H 0.3581 0.1043 0.3834
H5 H 0.2109 0.1331 0.2652
C5 C 0.3155(9) 0.08073(14) 0.6189(3)
H6 H 0.1748 0.0731 0.5405
N5 N -0.2189(12) 0.32149(13) 0.5701(4)
C6 C 0.4020(9) 0.12921(12) 0.6510(4)
C7 C 0.1906(10) 0.16856(13) 0.4306(4)
C8 C 0.0411(12) 0.21334(14) 0.3985(4)
H7 H -0.0359 0.2255 0.3146
C9 C 0.0310(9) 0.23653(12) 0.5213(4)
C10 C -0.1059(10) 0.28392(14) 0.5470(4)
loop_
_geom_bond_atom_site_label_1
_geom_bond_atom_site_label_2
_geom_bond_site_symmetry_1
_geom_bond_site_symmetry_2
C1 H1 1_555 1_555
N1 O1 1_555 1_555
N2 N3 1_555 1_555
C2 C1 1_555 1_555
H2 C2 1_555 1_555
O2 N1 1_555 1_555
C3 N1 1_555 1_555
N3 C9 1_555 1_555
C4 C3 1_555 1_555
H3 C4 1_555 1_555
N4 H4 1_555 1_555
H5 N4 1_555 1_555
C5 C4 1_555 1_555
H6 C5 1_555 1_555
N5 C10 1_555 1_555
C6 C1 1_555 1_555
C7 N2 1_555 1_555
C8 C7 1_555 1_555
H7 C8 1_555 1_555
C9 C8 1_555 1_555
C10 C9 1_555 1_555
N2 C6 1_555 1_555
C2 C3 1_555 1_555
N4 C7 1_555 1_555
C5 C6 1_555 1_555

#END
