
#######################################################################
#
#                 Cambridge Crystallographic Data Centre
#                                CCDC 
#
#######################################################################
#
# If this CIF has been generated from an entry in the Cambridge 
# Structural Database, then it will include bibliographic, chemical, 
# crystal, experimental, refinement or atomic coordinate data resulting 
# from the CCDC's data processing and validation procedures.
#
#######################################################################

data_SAFZIK
_chemical_formula_moiety         'C16 H13 N1'
_chemical_name_systematic        6-[(E)-2-Phenylvinyl]-1H-indole
_symmetry_cell_setting           orthorhombic
_symmetry_space_group_name_H-M   'P n a 21'
_symmetry_Int_Tables_number      33
_space_group_name_Hall           'P 2c -2n'
loop_
_symmetry_equiv_pos_site_id
_symmetry_equiv_pos_as_xyz
1 x,y,z
2 -x,-y,1/2+z
3 1/2+x,1/2-y,z
4 1/2-x,1/2+y,1/2+z
_cell_length_a                   8.254(8)
_cell_length_b                   5.626(6)
_cell_length_c                   25.74(3)
_cell_angle_alpha                90
_cell_angle_beta                 90
_cell_angle_gamma                90
_cell_volume                     1195.29
_exptl_crystal_colour            colorless
_exptl_crystal_description       prism
_cell_formula_units_Z            4
loop_
_atom_site_label
_atom_site_type_symbol
_atom_site_fract_x
_atom_site_fract_y
_atom_site_fract_z
C1 C -0.0689(4) 0.5222(6) 0.31498(14)
H1 H -0.0588 0.6242 0.2867
C2 C 0.0968(4) 0.4941(5) 0.46948(12)
C3 C 0.1442(3) 0.6940(5) 0.43984(13)
H2 H 0.2102 0.8076 0.4553
C4 C 0.4035(4) 0.4885(6) 0.70717(14)
H3 H 0.4359 0.4764 0.7417
C5 C -0.0018(3) 0.3276(5) 0.44626(11)
H4 H -0.0369 0.1955 0.4648
C6 C 0.0004(3) 0.5547(5) 0.36510(11)
N1 N -0.1423(3) 0.2156(4) 0.36424(10)
H5 H -0.1875 0.0850 0.3738
C7 C 0.0972(3) 0.7280(5) 0.38924(13)
H6 H 0.1289 0.8635 0.3712
C8 C 0.2538(4) 0.5725(6) 0.55023(12)
H7 H 0.3012 0.7004 0.5331
C9 C -0.0482(3) 0.3585(4) 0.39512(11)
C10 C 0.1498(4) 0.4487(6) 0.52418(13)
H8 H 0.1036 0.3191 0.5410
C11 C 0.4050(4) 0.6954(6) 0.62754(15)
H9 H 0.4403 0.8245 0.6080
C12 C 0.2544(4) 0.3359(6) 0.63444(13)
H10 H 0.1880 0.2199 0.6200
C13 C 0.3047(4) 0.5306(6) 0.60460(13)
C14 C 0.3045(4) 0.3175(6) 0.68583(14)
H11 H 0.2710 0.1891 0.7059
C15 C 0.4541(4) 0.6758(7) 0.67764(14)
H12 H 0.5223 0.7901 0.6919
C16 C -0.1528(4) 0.3136(6) 0.31610(14)
H13 H -0.2087 0.2483 0.2882
loop_
_geom_bond_atom_site_label_1
_geom_bond_atom_site_label_2
_geom_bond_site_symmetry_1
_geom_bond_site_symmetry_2
C1 H1 1_555 1_555
C2 C3 1_555 1_555
C3 H2 1_555 1_555
C4 H3 1_555 1_555
C5 C2 1_555 1_555
H4 C5 1_555 1_555
C6 C1 1_555 1_555
N1 H5 1_555 1_555
C7 C3 1_555 1_555
H6 C7 1_555 1_555
C8 H7 1_555 1_555
C9 C5 1_555 1_555
C10 C2 1_555 1_555
H8 C10 1_555 1_555
C11 H9 1_555 1_555
C12 H10 1_555 1_555
C13 C8 1_555 1_555
C14 C4 1_555 1_555
H11 C14 1_555 1_555
C15 C4 1_555 1_555
H12 C15 1_555 1_555
C16 C1 1_555 1_555
H13 C16 1_555 1_555
C6 C7 1_555 1_555
C6 C9 1_555 1_555
N1 C9 1_555 1_555
N1 C16 1_555 1_555
C8 C10 1_555 1_555
C11 C13 1_555 1_555
C11 C15 1_555 1_555
C12 C13 1_555 1_555
C12 C14 1_555 1_555

#END
