
#######################################################################
#
#                 Cambridge Crystallographic Data Centre
#                                CCDC 
#
#######################################################################
#
# If this CIF has been generated from an entry in the Cambridge 
# Structural Database, then it will include bibliographic, chemical, 
# crystal, experimental, refinement or atomic coordinate data resulting 
# from the CCDC's data processing and validation procedures.
#
#######################################################################

data_SAGBUZ
_chemical_formula_moiety         'C9 H10 N4 S1'
_chemical_name_systematic        3-(Benzylsulfanyl)-1H-1,2,4-triazol-5-amine
_symmetry_cell_setting           monoclinic
_symmetry_space_group_name_H-M   'P 21/c'
_symmetry_Int_Tables_number      14
_space_group_name_Hall           '-P 2ybc'
loop_
_symmetry_equiv_pos_site_id
_symmetry_equiv_pos_as_xyz
1 x,y,z
2 -x,1/2+y,1/2-z
3 -x,-y,-z
4 x,1/2-y,1/2+z
_cell_length_a                   9.870(2)
_cell_length_b                   9.6370(19)
_cell_length_c                   10.398(2)
_cell_angle_alpha                90
_cell_angle_beta                 90.18(3)
_cell_angle_gamma                90
_cell_volume                     989.024
_exptl_crystal_colour            colorless
_exptl_crystal_description       block
_cell_formula_units_Z            4
loop_
_atom_site_label
_atom_site_type_symbol
_atom_site_fract_x
_atom_site_fract_y
_atom_site_fract_z
C1 C 0.9298(2) 0.2955(2) 0.45864(19)
C2 C 1.0473(2) 0.2171(2) 0.4593(2)
H1 H 1.0536 0.1402 0.5131
C3 C 1.1549(3) 0.2511(3) 0.3816(2)
H2 H 1.2329 0.1969 0.3823
C4 C 1.1468(3) 0.3657(3) 0.3029(2)
H3 H 1.2198 0.3896 0.2510
C5 C 1.0312(3) 0.4446(3) 0.3008(2)
H4 H 1.0256 0.5214 0.2469
C6 C 0.9232(2) 0.4102(2) 0.3784(2)
H5 H 0.8453 0.4644 0.3769
C7 C 0.8148(2) 0.2577(3) 0.5473(2)
H6 H 0.7510 0.3341 0.5495
H7 H 0.8506 0.2456 0.6335
C8 C 0.6212(2) 0.1615(2) 0.3776(2)
C9 C 0.4869(2) 0.1511(2) 0.2191(2)
N1 N 0.5965(2) 0.29303(18) 0.3524(2)
N2 N 0.5088(2) 0.28358(17) 0.2498(2)
H8 H 0.473(3) 0.3613(18) 0.216(2)
N3 N 0.55663(18) 0.06938(16) 0.29881(19)
N4 N 0.4055(2) 0.1079(2) 0.1236(2)
H9 H 0.404(3) 0.0173(12) 0.107(3)
H10 H 0.368(3) 0.167(3) 0.068(2)
S1 S 0.72492(7) 0.10082(6) 0.50093(7)
loop_
_geom_bond_atom_site_label_1
_geom_bond_atom_site_label_2
_geom_bond_site_symmetry_1
_geom_bond_site_symmetry_2
C1 C2 1_555 1_555
C2 H1 1_555 1_555
C3 C2 1_555 1_555
H2 C3 1_555 1_555
C4 C3 1_555 1_555
H3 C4 1_555 1_555
C5 C4 1_555 1_555
H4 C5 1_555 1_555
C6 C1 1_555 1_555
H5 C6 1_555 1_555
C7 C1 1_555 1_555
H6 C7 1_555 1_555
H7 C7 1_555 1_555
C8 N1 1_555 1_555
C9 N2 1_555 1_555
N1 N2 1_555 1_555
N2 H8 1_555 1_555
N3 C8 1_555 1_555
N4 C9 1_555 1_555
H9 N4 1_555 1_555
H10 N4 1_555 1_555
S1 C7 1_555 1_555
C5 C6 1_555 1_555
C8 S1 1_555 1_555
C9 N3 1_555 1_555

#END
