
#######################################################################
#
#                 Cambridge Crystallographic Data Centre
#                                CCDC 
#
#######################################################################
#
# If this CIF has been generated from an entry in the Cambridge 
# Structural Database, then it will include bibliographic, chemical, 
# crystal, experimental, refinement or atomic coordinate data resulting 
# from the CCDC's data processing and validation procedures.
#
#######################################################################

data_SAGBAF
_chemical_formula_moiety         'C15 H20 O4'
_chemical_name_systematic        'Hexyl (E)-3-(3,4-dihydroxyphenyl)acrylate'
_symmetry_cell_setting           triclinic
_symmetry_space_group_name_H-M   'P -1'
_symmetry_Int_Tables_number      2
_space_group_name_Hall           '-P 1'
loop_
_symmetry_equiv_pos_site_id
_symmetry_equiv_pos_as_xyz
1 x,y,z
2 -x,-y,-z
_cell_length_a                   5.2920(11)
_cell_length_b                   10.689(2)
_cell_length_c                   12.732(3)
_cell_angle_alpha                95.45(3)
_cell_angle_beta                 92.76(3)
_cell_angle_gamma                96.84(3)
_cell_volume                     710.553
_exptl_crystal_colour            brown
_exptl_crystal_description       block
_cell_formula_units_Z            2
_exptl_crystal_recrystallization_method 'ethanol/petroleum ether'
loop_
_atom_site_label
_atom_site_type_symbol
_atom_site_fract_x
_atom_site_fract_y
_atom_site_fract_z
O1 O 0.7392(4) 0.09426(17) 0.38828(16)
H1 H 0.6881 0.0408 0.4304
C1 C 0.5906(5) 0.3938(2) 0.3065(2)
H2 H 0.6496 0.4508 0.2597
O2 O 0.3463(4) 0.13532(16) 0.51361(14)
H3 H 0.2394 0.1617 0.5516
C2 C 0.7038(5) 0.2853(2) 0.3144(2)
H4 H 0.8390 0.2700 0.2730
C3 C 0.6192(5) 0.1991(2) 0.3832(2)
O3 O 0.0120(4) 0.75695(18) 0.36537(16)
O4 O 0.2768(4) 0.81988(16) 0.24479(15)
C4 C 0.4190(5) 0.2232(2) 0.4456(2)
C5 C 0.3053(5) 0.3312(2) 0.43703(19)
H5 H 0.1696 0.3462 0.4783
C6 C 0.3883(5) 0.4188(2) 0.36794(19)
C7 C 0.2635(5) 0.5329(2) 0.36356(19)
H6 H 0.1264 0.5394 0.4059
C8 C 0.3218(5) 0.6278(2) 0.3067(2)
H7 H 0.4555 0.6237 0.2622
C9 C 0.1864(5) 0.7388(2) 0.3105(2)
C10 C 0.1571(6) 0.9344(2) 0.2397(2)
H8 H 0.1845 0.9868 0.3067
H9 H -0.0249 0.9137 0.2235
C11 C 0.2783(6) 1.0026(2) 0.1537(2)
H10 H 0.2586 0.9468 0.0884
H11 H 0.4594 1.0242 0.1720
C12 C 0.1614(5) 1.1224(2) 0.1367(2)
H12 H -0.0210 1.1008 0.1222
H13 H 0.1877 1.1792 0.2015
C13 C 0.2692(6) 1.1911(3) 0.0477(2)
H14 H 0.2456 1.1339 -0.0168
H15 H 0.4512 1.2140 0.0629
C14 C 0.1498(7) 1.3098(3) 0.0292(3)
H16 H -0.0338 1.2884 0.0198
H17 H 0.1860 1.3702 0.0915
C15 C 0.2443(8) 1.3718(3) -0.0660(3)
H18 H 0.1629 1.4464 -0.0732
H19 H 0.2044 1.3136 -0.1284
H20 H 0.4256 1.3947 -0.0569
loop_
_geom_bond_atom_site_label_1
_geom_bond_atom_site_label_2
_geom_bond_site_symmetry_1
_geom_bond_site_symmetry_2
O1 H1 1_555 1_555
C1 H2 1_555 1_555
O2 H3 1_555 1_555
C2 C1 1_555 1_555
H4 C2 1_555 1_555
C3 O1 1_555 1_555
O3 C9 1_555 1_555
O4 C9 1_555 1_555
C4 O2 1_555 1_555
C5 C4 1_555 1_555
H5 C5 1_555 1_555
C6 C1 1_555 1_555
C7 C6 1_555 1_555
H6 C7 1_555 1_555
C8 C7 1_555 1_555
H7 C8 1_555 1_555
C9 C8 1_555 1_555
C10 O4 1_555 1_555
H8 C10 1_555 1_555
H9 C10 1_555 1_555
C11 C10 1_555 1_555
H10 C11 1_555 1_555
H11 C11 1_555 1_555
C12 C11 1_555 1_555
H12 C12 1_555 1_555
H13 C12 1_555 1_555
C13 C12 1_555 1_555
H14 C13 1_555 1_555
H15 C13 1_555 1_555
C14 C13 1_555 1_555
H16 C14 1_555 1_555
H17 C14 1_555 1_555
C15 C14 1_555 1_555
H18 C15 1_555 1_555
H19 C15 1_555 1_555
H20 C15 1_555 1_555
C2 C3 1_555 1_555
C3 C4 1_555 1_555
C5 C6 1_555 1_555

#END
