
#######################################################################
#
#                 Cambridge Crystallographic Data Centre
#                                CCDC 
#
#######################################################################
#
# If this CIF has been generated from an entry in the Cambridge 
# Structural Database, then it will include bibliographic, chemical, 
# crystal, experimental, refinement or atomic coordinate data resulting 
# from the CCDC's data processing and validation procedures.
#
#######################################################################

data_SAGDOV
_chemical_formula_moiety         'C40 H60 O5 S1'
_chemical_name_systematic        
'2,4-Di-t-butyl-6-(1-(3,5-di-t-butyl-2-hydroxyphenyl)ethyl)phenyl (7,7-dimethyl-2-oxobicyclo[2.2.1]hept-1-yl)methanesulfonate'
_symmetry_cell_setting           monoclinic
_symmetry_space_group_name_H-M   'P 21'
_symmetry_Int_Tables_number      4
_space_group_name_Hall           'P 2yb'
loop_
_symmetry_equiv_pos_site_id
_symmetry_equiv_pos_as_xyz
1 x,y,z
2 -x,1/2+y,-z
_cell_length_a                   18.2082(19)
_cell_length_b                   10.6028(11)
_cell_length_c                   20.287(2)
_cell_angle_alpha                90
_cell_angle_beta                 93.003(2)
_cell_angle_gamma                90
_cell_volume                     3911.19
_exptl_crystal_colour            colorless
_exptl_crystal_description       block
_cell_formula_units_Z            4
loop_
_atom_site_label
_atom_site_type_symbol
_atom_site_fract_x
_atom_site_fract_y
_atom_site_fract_z
S1 S 0.58400(7) 0.22591(15) 0.10873(6)
O1 O 0.76708(19) 0.0372(4) 0.04685(18)
H1 H 0.7340 0.0696 0.0670
O3 O 0.58858(16) 0.1566(4) 0.17932(16)
O5 O 0.65558(17) 0.2260(4) 0.08357(18)
O7 O 0.5475(2) 0.3416(4) 0.1151(2)
O9 O 0.4662(2) -0.1248(4) 0.0597(2)
C1 C 0.7841(3) -0.0787(5) 0.0738(3)
C4 C 0.8419(3) -0.1448(6) 0.0475(2)
C6 C 0.8601(3) -0.2618(6) 0.0753(3)
H4 H 0.8977 -0.3082 0.0577
C8 C 0.8234(3) -0.3128(5) 0.1293(3)
C10 C 0.7655(3) -0.2452(6) 0.1513(2)
H6 H 0.7389 -0.2789 0.1850
C11 C 0.7448(3) -0.1282(6) 0.1255(2)
C13 C 0.6795(2) -0.0552(5) 0.1519(2)
H7 H 0.6545 -0.0133 0.1140
C15 C 0.7033(3) 0.0485(6) 0.2012(2)
C18 C 0.7694(3) 0.0356(6) 0.2379(3)
H10 H 0.8011 -0.0292 0.2272
C20 C 0.7897(3) 0.1141(6) 0.2888(3)
C22 C 0.7391(3) 0.2067(6) 0.3058(3)
H12 H 0.7515 0.2588 0.3416
C24 C 0.6708(2) 0.2249(6) 0.2719(3)
C26 C 0.6567(3) 0.1452(5) 0.2174(2)
C27 C 0.8834(3) -0.0946(6) -0.0104(3)
C30 C 0.9220(3) 0.0290(7) 0.0098(3)
H16 H 0.9557 0.0139 0.0469
H17 H 0.8860 0.0900 0.0215
H18 H 0.9485 0.0603 -0.0265
C31 C 0.8286(3) -0.0746(8) -0.0706(3)
H19 H 0.8054 -0.1533 -0.0823
H20 H 0.8547 -0.0438 -0.1072
H21 H 0.7919 -0.0143 -0.0594
C33 C 0.9419(3) -0.1892(7) -0.0329(3)
H25 H 0.9770 -0.2054 0.0031
H26 H 0.9666 -0.1542 -0.0693
H27 H 0.9183 -0.2667 -0.0463
C36 C 0.8457(4) -0.4404(6) 0.1582(3)
C37 C 0.9206(4) -0.4849(9) 0.1387(5)
H31 H 0.9207 -0.4920 0.0915
H32 H 0.9312 -0.5657 0.1583
H33 H 0.9574 -0.4253 0.1538
C40 C 0.8493(6) -0.4350(10) 0.2355(4)
H40 H 0.8633 -0.5162 0.2530
H41 H 0.8019 -0.4123 0.2504
H42 H 0.8850 -0.3733 0.2505
C42 C 0.7926(7) -0.5357(8) 0.1300(8)
H46 H 0.7929 -0.5340 0.0827
H47 H 0.7441 -0.5163 0.1434
H48 H 0.8066 -0.6181 0.1457
C44 C 0.8636(4) 0.0962(8) 0.3285(4)
C46 C 0.6184(3) 0.3277(6) 0.2964(3)
C47 C 0.6386(4) 0.3601(7) 0.3692(3)
H49 H 0.6344 0.2858 0.3958
H50 H 0.6056 0.4237 0.3840
H51 H 0.6881 0.3911 0.3733
C49 C 0.5395(3) 0.2814(7) 0.2945(3)
H55 H 0.5363 0.2077 0.3217
H56 H 0.5238 0.2607 0.2499
H57 H 0.5084 0.3464 0.3106
C51 C 0.6241(4) 0.4452(7) 0.2559(4)
H61 H 0.5911 0.5078 0.2714
H62 H 0.6114 0.4265 0.2105
H63 H 0.6736 0.4767 0.2600
C54 C 0.6223(3) -0.1376(6) 0.1835(3)
H70 H 0.6065 -0.2029 0.1533
H71 H 0.5809 -0.0868 0.1940
H72 H 0.6436 -0.1749 0.2232
C56 C 0.5272(3) 0.1199(6) 0.0610(2)
H75 H 0.5287 0.1464 0.0153
H76 H 0.5506 0.0377 0.0641
C57 C 0.4471(3) 0.1005(5) 0.0746(2)
C59 C 0.4250(3) -0.0370(6) 0.0623(2)
C62 C 0.3416(3) -0.0379(6) 0.0536(3)
H79 H 0.3254 -0.0700 0.0105
H80 H 0.3200 -0.0884 0.0874
C64 C 0.3222(3) 0.1002(6) 0.0607(3)
H82 H 0.2734 0.1234 0.0417
C65 C 0.3349(3) 0.1308(7) 0.1342(3)
H83 H 0.3155 0.2133 0.1442
H84 H 0.3119 0.0682 0.1612
C68 C 0.4186(3) 0.1280(7) 0.1457(2)
H89 H 0.4338 0.0619 0.1766
H90 H 0.4370 0.2083 0.1626
C69 C 0.3871(3) 0.1672(5) 0.0291(2)
C72 C 0.3850(3) 0.3113(5) 0.0368(3)
H94 H 0.3469 0.3454 0.0075
H95 H 0.4315 0.3462 0.0261
H96 H 0.3752 0.3323 0.0815
C73 C 0.3947(3) 0.1367(6) -0.0433(2)
H97 H 0.3566 0.1786 -0.0693
H98 H 0.3907 0.0472 -0.0497
H99 H 0.4418 0.1649 -0.0565
C75 C 0.9098(4) 0.1968(12) 0.3206(7)
H103 H 0.9260 0.1973 0.2763
H104 H 0.9516 0.1897 0.3512
H105 H 0.8840 0.2738 0.3287
C76 C 0.8491(5) 0.0934(13) 0.4060(5)
H106 H 0.8949 0.0815 0.4309
H107 H 0.8163 0.0252 0.4150
H108 H 0.8273 0.1718 0.4185
C80 C 0.8891(5) -0.0331(10) 0.3281(6)
H118 H 0.8971 -0.0583 0.2836
H119 H 0.8528 -0.0870 0.3460
H120 H 0.9343 -0.0399 0.3543
S2 S 0.41355(7) 0.73098(15) 0.38216(6)
O2 O 0.2269(2) 0.9138(4) 0.44606(19)
H2 H 0.2621 0.8845 0.4275
O4 O 0.41002(17) 0.8119(4) 0.31519(15)
O6 O 0.34352(18) 0.7361(5) 0.41029(17)
O8 O 0.4438(2) 0.6103(4) 0.36803(19)
O10 O 0.5466(3) 0.5991(5) 0.4890(2)
C2 C 0.2110(3) 1.0324(6) 0.4213(2)
C3 C 0.1521(3) 1.0967(6) 0.4489(3)
C5 C 0.1357(3) 1.2142(6) 0.4228(3)
H3 H 0.0960 1.2573 0.4392
C7 C 0.1740(3) 1.2727(6) 0.3741(3)
C9 C 0.2333(3) 1.2052(6) 0.3516(3)
H5 H 0.2610 1.2420 0.3195
C12 C 0.2533(3) 1.0865(6) 0.3742(2)
C14 C 0.3186(2) 1.0163(6) 0.3489(2)
H8 H 0.3416 0.9697 0.3863
C16 C 0.2953(2) 0.9186(6) 0.2953(2)
C17 C 0.2275(3) 0.9298(6) 0.2607(2)
H9 H 0.1952 0.9927 0.2726
C19 C 0.2070(3) 0.8494(6) 0.2088(3)
C21 C 0.2559(3) 0.7603(6) 0.1921(3)
H11 H 0.2421 0.7070 0.1573
C23 C 0.3261(2) 0.7417(5) 0.2230(2)
C25 C 0.3409(3) 0.8213(5) 0.2777(2)
C28 C 0.1073(3) 1.0395(6) 0.5042(3)
C29 C 0.0478(3) 1.1307(8) 0.5263(4)
H13 H 0.0138 1.1484 0.4897
H14 H 0.0704 1.2078 0.5416
H15 H 0.0220 1.0929 0.5613
C32 C 0.1590(3) 1.0149(8) 0.5649(3)
H22 H 0.1967 0.9566 0.5536
H23 H 0.1315 0.9799 0.5996
H24 H 0.1812 1.0928 0.5796
C34 C 0.0702(3) 0.9203(8) 0.4818(4)
H28 H 0.0369 0.9377 0.4447
H29 H 0.0434 0.8860 0.5171
H30 H 0.1066 0.8605 0.4692
C35 C 0.1533(3) 1.4015(7) 0.3465(4)
C38 C 0.0802(5) 1.4329(13) 0.3492(7)
H34 H 0.0682 1.4432 0.3944
H35 H 0.0504 1.3669 0.3293
H36 H 0.0708 1.5103 0.3257
C39 C 0.1444(8) 1.3807(13) 0.2671(5)
H37 H 0.1315 1.4593 0.2460
H38 H 0.1063 1.3199 0.2571
H39 H 0.1900 1.3507 0.2513
C41 C 0.2125(5) 1.4869(10) 0.3425(7)
H43 H 0.2266 1.5178 0.3858
H44 H 0.1977 1.5563 0.3145
H45 H 0.2535 1.4445 0.3245
C43 C 0.1319(4) 0.8681(8) 0.1724(4)
C45 C 0.3784(3) 0.6413(5) 0.1954(3)
C48 C 0.3650(4) 0.5120(6) 0.2267(3)
H52 H 0.3741 0.5175 0.2736
H53 H 0.3975 0.4510 0.2090
H54 H 0.3149 0.4868 0.2170
C50 C 0.3630(3) 0.6246(6) 0.1206(3)
H58 H 0.3124 0.6022 0.1119
H59 H 0.3939 0.5590 0.1048
H60 H 0.3733 0.7022 0.0985
C52 C 0.4591(3) 0.6769(7) 0.2038(3)
H64 H 0.4727 0.6863 0.2499
H65 H 0.4672 0.7551 0.1814
H66 H 0.4884 0.6119 0.1854
C53 C 0.3769(3) 1.1011(6) 0.3224(3)
H67 H 0.3928 1.1608 0.3557
H68 H 0.3569 1.1452 0.2842
H69 H 0.4180 1.0510 0.3104
C55 C 0.4783(3) 0.8208(6) 0.4313(2)
H73 H 0.4705 0.9091 0.4206
H74 H 0.4670 0.8098 0.4771
C58 C 0.5587(3) 0.7926(5) 0.4255(2)
C60 C 0.5840(3) 0.6752(6) 0.4638(3)
C61 C 0.6670(3) 0.6802(6) 0.4688(3)
H77 H 0.6883 0.6129 0.4436
H78 H 0.6858 0.6750 0.5144
C63 C 0.6822(3) 0.8079(7) 0.4393(3)
H81 H 0.7296 0.8446 0.4543
C66 C 0.6711(3) 0.7949(9) 0.3634(3)
H85 H 0.6968 0.7220 0.3472
H86 H 0.6869 0.8700 0.3409
C67 C 0.5852(3) 0.7777(8) 0.3559(3)
H87 H 0.5633 0.8412 0.3267
H88 H 0.5727 0.6949 0.3384
C70 C 0.6147(3) 0.8865(6) 0.4576(3)
C71 C 0.6112(4) 1.0181(7) 0.4278(4)
H91 H 0.6155 1.0126 0.3810
H92 H 0.6507 1.0683 0.4469
H93 H 0.5650 1.0565 0.4369
C74 C 0.6072(4) 0.8998(8) 0.5330(3)
H100 H 0.6095 0.8179 0.5531
H101 H 0.5609 0.9386 0.5412
H102 H 0.6466 0.9512 0.5514
C77 C 0.1126(6) 0.9961(11) 0.1625(7)
H109 H 0.1422 1.0317 0.1294
H110 H 0.1211 1.0415 0.2032
H111 H 0.0616 1.0020 0.1483
C78 C 0.0731(5) 0.8508(15) 0.2237(6)
H112 H 0.0251 0.8606 0.2025
H113 H 0.0802 0.9129 0.2578
H114 H 0.0775 0.7680 0.2427
C79 C 0.1163(5) 0.7756(13) 0.1255(6)
H115 H 0.1512 0.7805 0.0917
H116 H 0.0676 0.7880 0.1062
H117 H 0.1194 0.6941 0.1460
loop_
_geom_bond_atom_site_label_1
_geom_bond_atom_site_label_2
_geom_bond_site_symmetry_1
_geom_bond_site_symmetry_2
S1 O3 1_555 1_555
S2 O4 1_555 1_555
O1 H1 1_555 1_555
O2 H2 1_555 1_555
O3 C26 1_555 1_555
O4 C25 1_555 1_555
O5 S1 1_555 1_555
O6 S2 1_555 1_555
O7 S1 1_555 1_555
O8 S2 1_555 1_555
O9 C59 1_555 1_555
O10 C60 1_555 1_555
C1 O1 1_555 1_555
C2 O2 1_555 1_555
C3 C2 1_555 1_555
C4 C1 1_555 1_555
C5 C3 1_555 1_555
H3 C5 1_555 1_555
C6 C4 1_555 1_555
H4 C6 1_555 1_555
C7 C5 1_555 1_555
C8 C6 1_555 1_555
C9 C7 1_555 1_555
H5 C9 1_555 1_555
C10 C8 1_555 1_555
H6 C10 1_555 1_555
C11 C1 1_555 1_555
C12 C2 1_555 1_555
C13 C11 1_555 1_555
H7 C13 1_555 1_555
C14 C12 1_555 1_555
H8 C14 1_555 1_555
C15 C13 1_555 1_555
C16 C14 1_555 1_555
C17 C16 1_555 1_555
H9 C17 1_555 1_555
C18 C15 1_555 1_555
H10 C18 1_555 1_555
C19 C17 1_555 1_555
C20 C18 1_555 1_555
C21 C19 1_555 1_555
H11 C21 1_555 1_555
C22 C20 1_555 1_555
H12 C22 1_555 1_555
C23 C21 1_555 1_555
C24 C22 1_555 1_555
C25 C16 1_555 1_555
C26 C15 1_555 1_555
C27 C4 1_555 1_555
C28 C3 1_555 1_555
C29 C28 1_555 1_555
H13 C29 1_555 1_555
H14 C29 1_555 1_555
H15 C29 1_555 1_555
C30 C27 1_555 1_555
H16 C30 1_555 1_555
H17 C30 1_555 1_555
H18 C30 1_555 1_555
C31 C27 1_555 1_555
H19 C31 1_555 1_555
H20 C31 1_555 1_555
H21 C31 1_555 1_555
C32 C28 1_555 1_555
H22 C32 1_555 1_555
H23 C32 1_555 1_555
H24 C32 1_555 1_555
C33 C27 1_555 1_555
H25 C33 1_555 1_555
H26 C33 1_555 1_555
H27 C33 1_555 1_555
C34 C28 1_555 1_555
H28 C34 1_555 1_555
H29 C34 1_555 1_555
H30 C34 1_555 1_555
C35 C7 1_555 1_555
C36 C8 1_555 1_555
C37 C36 1_555 1_555
H31 C37 1_555 1_555
H32 C37 1_555 1_555
H33 C37 1_555 1_555
C38 C35 1_555 1_555
H34 C38 1_555 1_555
H35 C38 1_555 1_555
H36 C38 1_555 1_555
C39 C35 1_555 1_555
H37 C39 1_555 1_555
H38 C39 1_555 1_555
H39 C39 1_555 1_555
C40 C36 1_555 1_555
H40 C40 1_555 1_555
H41 C40 1_555 1_555
H42 C40 1_555 1_555
C41 C35 1_555 1_555
H43 C41 1_555 1_555
H44 C41 1_555 1_555
H45 C41 1_555 1_555
C42 C36 1_555 1_555
H46 C42 1_555 1_555
H47 C42 1_555 1_555
H48 C42 1_555 1_555
C43 C19 1_555 1_555
C44 C20 1_555 1_555
C45 C23 1_555 1_555
C46 C24 1_555 1_555
C47 C46 1_555 1_555
H49 C47 1_555 1_555
H50 C47 1_555 1_555
H51 C47 1_555 1_555
C48 C45 1_555 1_555
H52 C48 1_555 1_555
H53 C48 1_555 1_555
H54 C48 1_555 1_555
C49 C46 1_555 1_555
H55 C49 1_555 1_555
H56 C49 1_555 1_555
H57 C49 1_555 1_555
C50 C45 1_555 1_555
H58 C50 1_555 1_555
H59 C50 1_555 1_555
H60 C50 1_555 1_555
C51 C46 1_555 1_555
H61 C51 1_555 1_555
H62 C51 1_555 1_555
H63 C51 1_555 1_555
C52 C45 1_555 1_555
H64 C52 1_555 1_555
H65 C52 1_555 1_555
H66 C52 1_555 1_555
C53 C14 1_555 1_555
H67 C53 1_555 1_555
H68 C53 1_555 1_555
H69 C53 1_555 1_555
C54 C13 1_555 1_555
H70 C54 1_555 1_555
H71 C54 1_555 1_555
H72 C54 1_555 1_555
C55 S2 1_555 1_555
H73 C55 1_555 1_555
H74 C55 1_555 1_555
C56 S1 1_555 1_555
H75 C56 1_555 1_555
H76 C56 1_555 1_555
C57 C56 1_555 1_555
C58 C55 1_555 1_555
C59 C57 1_555 1_555
C60 C58 1_555 1_555
C61 C60 1_555 1_555
H77 C61 1_555 1_555
H78 C61 1_555 1_555
C62 C59 1_555 1_555
H79 C62 1_555 1_555
H80 C62 1_555 1_555
C63 C61 1_555 1_555
H81 C63 1_555 1_555
C64 C62 1_555 1_555
H82 C64 1_555 1_555
C65 C64 1_555 1_555
H83 C65 1_555 1_555
H84 C65 1_555 1_555
C66 C63 1_555 1_555
H85 C66 1_555 1_555
H86 C66 1_555 1_555
C67 C58 1_555 1_555
H87 C67 1_555 1_555
H88 C67 1_555 1_555
C68 C57 1_555 1_555
H89 C68 1_555 1_555
H90 C68 1_555 1_555
C69 C57 1_555 1_555
C70 C58 1_555 1_555
C71 C70 1_555 1_555
H91 C71 1_555 1_555
H92 C71 1_555 1_555
H93 C71 1_555 1_555
C72 C69 1_555 1_555
H94 C72 1_555 1_555
H95 C72 1_555 1_555
H96 C72 1_555 1_555
C73 C69 1_555 1_555
H97 C73 1_555 1_555
H98 C73 1_555 1_555
H99 C73 1_555 1_555
C74 C70 1_555 1_555
H100 C74 1_555 1_555
H101 C74 1_555 1_555
H102 C74 1_555 1_555
C75 C44 1_555 1_555
H103 C75 1_555 1_555
H104 C75 1_555 1_555
H105 C75 1_555 1_555
C76 C44 1_555 1_555
H106 C76 1_555 1_555
H107 C76 1_555 1_555
H108 C76 1_555 1_555
C77 C43 1_555 1_555
H109 C77 1_555 1_555
H110 C77 1_555 1_555
H111 C77 1_555 1_555
C78 C43 1_555 1_555
H112 C78 1_555 1_555
H113 C78 1_555 1_555
H114 C78 1_555 1_555
C79 C43 1_555 1_555
H115 C79 1_555 1_555
H116 C79 1_555 1_555
H117 C79 1_555 1_555
C80 C44 1_555 1_555
H118 C80 1_555 1_555
H119 C80 1_555 1_555
H120 C80 1_555 1_555
C9 C12 1_555 1_555
C10 C11 1_555 1_555
C23 C25 1_555 1_555
C24 C26 1_555 1_555
C63 C70 1_555 1_555
C64 C69 1_555 1_555
C65 C68 1_555 1_555
C66 C67 1_555 1_555

#END
