
#######################################################################
#
#                 Cambridge Crystallographic Data Centre
#                                CCDC 
#
#######################################################################
#
# If this CIF has been generated from an entry in the Cambridge 
# Structural Database, then it will include bibliographic, chemical, 
# crystal, experimental, refinement or atomic coordinate data resulting 
# from the CCDC's data processing and validation procedures.
#
#######################################################################

data_SAGFUE
_chemical_formula_moiety         'C19 H17 N1 O1'
_chemical_name_systematic        
phenyl(7-phenyl-2,3-dihydro-1H-azepin-1-yl)methanone
_symmetry_cell_setting           monoclinic
_symmetry_space_group_name_H-M   'P 21/n'
_symmetry_Int_Tables_number      14
_space_group_name_Hall           '-P 2yn'
loop_
_symmetry_equiv_pos_site_id
_symmetry_equiv_pos_as_xyz
1 x,y,z
2 1/2-x,1/2+y,1/2-z
3 -x,-y,-z
4 1/2+x,1/2-y,1/2+z
_cell_length_a                   11.514(3)
_cell_length_b                   7.897(2)
_cell_length_c                   16.978(5)
_cell_angle_alpha                90
_cell_angle_beta                 106.212(3)
_cell_angle_gamma                90
_cell_volume                     1482.36
_exptl_crystal_colour            colorless
_exptl_crystal_description       block
_cell_formula_units_Z            4
loop_
_atom_site_label
_atom_site_type_symbol
_atom_site_fract_x
_atom_site_fract_y
_atom_site_fract_z
O1 O 0.45637(14) 0.57068(16) 0.61940(9)
N1 N 0.46051(13) 0.29545(17) 0.58500(9)
C1 C 0.58143(16) 0.3162(3) 0.57329(12)
H1 H 0.5873 0.4270 0.5501
H2 H 0.5933 0.2316 0.5348
C2 C 0.67906(18) 0.2983(3) 0.65309(13)
H3 H 0.7569 0.3172 0.6431
H4 H 0.6680 0.3854 0.6906
C3 C 0.68072(18) 0.1307(3) 0.69275(12)
H5 H 0.7488 0.1081 0.7361
C4 C 0.59770(18) 0.0073(2) 0.67478(11)
H6 H 0.6194 -0.0906 0.7059
C5 C 0.47932(17) -0.0002(2) 0.61497(11)
H7 H 0.4467 -0.1079 0.6025
C6 C 0.41140(16) 0.1280(2) 0.57569(10)
C7 C 0.29235(16) 0.1037(2) 0.51432(10)
C8 C 0.21753(18) -0.0310(2) 0.52106(13)
H8 H 0.2398 -0.1017 0.5666
C9 C 0.11072(19) -0.0609(3) 0.46098(15)
H9 H 0.0622 -0.1522 0.4660
C10 C 0.07562(18) 0.0446(3) 0.39339(14)
H10 H 0.0039 0.0241 0.3529
C11 C 0.14735(18) 0.1801(3) 0.38640(12)
H11 H 0.1235 0.2519 0.3413
C12 C 0.25494(17) 0.2098(2) 0.44627(11)
H12 H 0.3028 0.3016 0.4410
C13 C 0.40877(18) 0.4300(2) 0.61193(11)
C14 C 0.29261(17) 0.4037(2) 0.63303(11)
C15 C 0.28454(19) 0.2942(2) 0.69536(12)
H13 H 0.3502 0.2269 0.7217
C16 C 0.1777(2) 0.2862(3) 0.71795(14)
H14 H 0.1726 0.2153 0.7606
C17 C 0.0795(2) 0.3820(3) 0.67775(16)
H15 H 0.0079 0.3748 0.6928
C18 C 0.0870(2) 0.4887(3) 0.61533(15)
H16 H 0.0201 0.5524 0.5877
C19 C 0.1937(2) 0.5014(2) 0.59354(12)
H17 H 0.1990 0.5758 0.5522
loop_
_geom_bond_atom_site_label_1
_geom_bond_atom_site_label_2
_geom_bond_site_symmetry_1
_geom_bond_site_symmetry_2
O1 C13 1_555 1_555
N1 C1 1_555 1_555
C1 H1 1_555 1_555
H2 C1 1_555 1_555
C2 C1 1_555 1_555
H3 C2 1_555 1_555
H4 C2 1_555 1_555
C3 C2 1_555 1_555
H5 C3 1_555 1_555
C4 C3 1_555 1_555
H6 C4 1_555 1_555
C5 C4 1_555 1_555
H7 C5 1_555 1_555
C6 N1 1_555 1_555
C7 C6 1_555 1_555
C8 C7 1_555 1_555
H8 C8 1_555 1_555
C9 C8 1_555 1_555
H9 C9 1_555 1_555
C10 C9 1_555 1_555
H10 C10 1_555 1_555
C11 C10 1_555 1_555
H11 C11 1_555 1_555
C12 C7 1_555 1_555
H12 C12 1_555 1_555
C13 N1 1_555 1_555
C14 C13 1_555 1_555
C15 C14 1_555 1_555
H13 C15 1_555 1_555
C16 C15 1_555 1_555
H14 C16 1_555 1_555
C17 C16 1_555 1_555
H15 C17 1_555 1_555
C18 C17 1_555 1_555
H16 C18 1_555 1_555
C19 C14 1_555 1_555
H17 C19 1_555 1_555
C5 C6 1_555 1_555
C11 C12 1_555 1_555
C18 C19 1_555 1_555

#END
