
#######################################################################
#
#                 Cambridge Crystallographic Data Centre
#                                CCDC 
#
#######################################################################
#
# If this CIF has been generated from an entry in the Cambridge 
# Structural Database, then it will include bibliographic, chemical, 
# crystal, experimental, refinement or atomic coordinate data resulting 
# from the CCDC's data processing and validation procedures.
#
#######################################################################

data_SAGGIR
_chemical_formula_moiety         'C12 H11 Cl1 O3 S1'
_chemical_name_systematic        
3-(Benzenesulfonyl)-5-chloro-2-methyl-4H-pyran
_symmetry_cell_setting           triclinic
_symmetry_space_group_name_H-M   'P -1'
_symmetry_Int_Tables_number      2
_space_group_name_Hall           '-P 1'
loop_
_symmetry_equiv_pos_site_id
_symmetry_equiv_pos_as_xyz
1 x,y,z
2 -x,-y,-z
_cell_length_a                   7.6277(7)
_cell_length_b                   9.1238(9)
_cell_length_c                   9.5937(9)
_cell_angle_alpha                82.377(2)
_cell_angle_beta                 68.451(2)
_cell_angle_gamma                75.268(2)
_cell_volume                     600.007
_exptl_crystal_colour            colorless
_chemical_melting_point          103-105deg.C
_cell_formula_units_Z            2
loop_
_atom_site_label
_atom_site_type_symbol
_atom_site_fract_x
_atom_site_fract_y
_atom_site_fract_z
Cl1 Cl 0.31713(9) 0.41132(8) -0.32786(6)
S1 S 0.32365(7) 0.19891(5) 0.23042(5)
O1 O 0.2123(2) 0.61642(16) 0.04214(16)
O2 O 0.4882(2) 0.08910(17) 0.14478(18)
O3 O 0.3240(3) 0.24771(18) 0.36650(17)
C1 C 0.2412(3) 0.5829(2) -0.1016(2)
H1 H 0.2281 0.6627 -0.1709
C2 C 0.2862(3) 0.4439(2) -0.1453(2)
C3 C 0.3159(4) 0.3064(2) -0.0478(2)
C4 C 0.2878(3) 0.3546(2) 0.10539(19)
C5 C 0.2376(3) 0.4988(2) 0.1439(2)
C6 C 0.1979(4) 0.5643(3) 0.2904(3)
C7 C 0.1157(3) 0.12528(19) 0.27315(19)
C8 C 0.1166(3) 0.0169(2) 0.1844(2)
C9 C -0.0493(4) -0.0364(3) 0.2176(3)
C10 C -0.2122(3) 0.0161(3) 0.3378(3)
C11 C -0.2123(3) 0.1240(3) 0.4256(3)
C12 C -0.0480(3) 0.1797(2) 0.3940(2)
H2 H -0.0477 0.2526 0.4530
H3 H 0.439(4) 0.241(3) -0.094(3)
H4 H 0.236(4) 0.245(3) -0.039(3)
H5 H 0.254(6) 0.491(4) 0.353(4)
H6 H 0.063(3) 0.609(5) 0.333(4)
H7 H 0.259(5) 0.648(4) 0.276(4)
H8 H 0.226(3) -0.016(3) 0.104(3)
H9 H -0.040(4) -0.115(3) 0.153(3)
H10 H -0.319(4) -0.024(3) 0.360(3)
H11 H -0.323(4) 0.164(3) 0.502(3)
loop_
_geom_bond_atom_site_label_1
_geom_bond_atom_site_label_2
_geom_bond_site_symmetry_1
_geom_bond_site_symmetry_2
Cl1 C2 1_555 1_555
S1 O2 1_555 1_555
O1 C1 1_555 1_555
O3 S1 1_555 1_555
C1 H1 1_555 1_555
C2 C1 1_555 1_555
C3 C2 1_555 1_555
C4 S1 1_555 1_555
C5 O1 1_555 1_555
C6 C5 1_555 1_555
C7 S1 1_555 1_555
C8 C7 1_555 1_555
C9 C8 1_555 1_555
C10 C9 1_555 1_555
C11 C10 1_555 1_555
C12 C7 1_555 1_555
H2 C12 1_555 1_555
H3 C3 1_555 1_555
H4 C3 1_555 1_555
H5 C6 1_555 1_555
H6 C6 1_555 1_555
H7 C6 1_555 1_555
H8 C8 1_555 1_555
H9 C9 1_555 1_555
H10 C10 1_555 1_555
H11 C11 1_555 1_555
C3 C4 1_555 1_555
C4 C5 1_555 1_555
C11 C12 1_555 1_555

#END
