
#######################################################################
#
#                 Cambridge Crystallographic Data Centre
#                                CCDC 
#
#######################################################################
#
# If this CIF has been generated from an entry in the Cambridge 
# Structural Database, then it will include bibliographic, chemical, 
# crystal, experimental, refinement or atomic coordinate data resulting 
# from the CCDC's data processing and validation procedures.
#
#######################################################################

data_SAGGAL
_chemical_formula_moiety         'C19 H16 Br1 N1 O1'
_chemical_name_systematic        
1-(4-bromobenzyl)-7-phenyl-1,3-dihydro-2H-azepin-2-one
_symmetry_cell_setting           monoclinic
_symmetry_space_group_name_H-M   'P 21/c'
_symmetry_Int_Tables_number      14
_space_group_name_Hall           '-P 2ybc'
loop_
_symmetry_equiv_pos_site_id
_symmetry_equiv_pos_as_xyz
1 x,y,z
2 -x,1/2+y,1/2-z
3 -x,-y,-z
4 x,1/2-y,1/2+z
_cell_length_a                   14.013(6)
_cell_length_b                   6.262(2)
_cell_length_c                   18.876(7)
_cell_angle_alpha                90
_cell_angle_beta                 111.247(6)
_cell_angle_gamma                90
_cell_volume                     1543.77
_exptl_crystal_colour            colorless
_exptl_crystal_description       block
_cell_formula_units_Z            4
loop_
_atom_site_label
_atom_site_type_symbol
_atom_site_fract_x
_atom_site_fract_y
_atom_site_fract_z
Br1 Br 1.01995(2) 0.28291(4) 0.07503(2)
O1 O 0.66079(11) 1.0934(2) 0.10702(8)
N1 N 0.67675(11) 0.8389(2) 0.19588(8)
C1 C 0.68751(14) 0.6374(3) 0.31054(10)
C2 C 0.72643(15) 0.4390(3) 0.33988(11)
H1 H 0.7245 0.3268 0.3071
C3 C 0.76826(17) 0.4075(4) 0.41805(12)
H2 H 0.7947 0.2747 0.4375
C4 C 0.77051(17) 0.5729(4) 0.46670(12)
H3 H 0.7973 0.5505 0.5189
C5 C 0.73321(16) 0.7715(4) 0.43842(11)
H4 H 0.7353 0.8830 0.4715
C6 C 0.69250(14) 0.8042(3) 0.36044(10)
H5 H 0.6684 0.9387 0.3414
C7 C 0.63742(14) 0.6695(3) 0.22716(10)
C8 C 0.56259(14) 0.5364(3) 0.18588(10)
H6 H 0.5459 0.4255 0.2121
C9 C 0.50521(15) 0.5475(3) 0.10492(10)
H7 H 0.4867 0.4209 0.0776
C10 C 0.47806(15) 0.7312(3) 0.06828(11)
H8 H 0.4415 0.7307 0.0162
C11 C 0.50537(15) 0.9390(3) 0.10962(11)
H9 H 0.4836 0.9394 0.1529
H10 H 0.4712 1.0555 0.0761
C12 C 0.61982(15) 0.9675(3) 0.13615(10)
C13 C 0.78873(14) 0.8677(3) 0.22300(10)
H11 H 0.8173 0.8368 0.2770
H12 H 0.8035 1.0160 0.2162
C14 C 0.84128(14) 0.7282(3) 0.18285(10)
C15 C 0.93380(15) 0.7942(3) 0.17806(11)
H13 H 0.9607 0.9268 0.1974
C16 C 0.98634(15) 0.6650(4) 0.14491(11)
H14 H 1.0475 0.7111 0.1413
C17 C 0.94677(14) 0.4670(3) 0.11727(10)
C18 C 0.85512(15) 0.3982(3) 0.12062(11)
H15 H 0.8288 0.2652 0.1013
C19 C 0.80274(15) 0.5295(3) 0.15313(11)
H16 H 0.7406 0.4839 0.1551
loop_
_geom_bond_atom_site_label_1
_geom_bond_atom_site_label_2
_geom_bond_site_symmetry_1
_geom_bond_site_symmetry_2
Br1 C17 1_555 1_555
O1 C12 1_555 1_555
N1 C7 1_555 1_555
C1 C2 1_555 1_555
C2 H1 1_555 1_555
C3 C2 1_555 1_555
H2 C3 1_555 1_555
C4 C3 1_555 1_555
H3 C4 1_555 1_555
C5 C4 1_555 1_555
H4 C5 1_555 1_555
C6 C1 1_555 1_555
H5 C6 1_555 1_555
C7 C1 1_555 1_555
C8 C7 1_555 1_555
H6 C8 1_555 1_555
C9 C8 1_555 1_555
H7 C9 1_555 1_555
C10 C9 1_555 1_555
H8 C10 1_555 1_555
C11 C10 1_555 1_555
H9 C11 1_555 1_555
H10 C11 1_555 1_555
C12 N1 1_555 1_555
C13 N1 1_555 1_555
H11 C13 1_555 1_555
H12 C13 1_555 1_555
C14 C13 1_555 1_555
C15 C14 1_555 1_555
H13 C15 1_555 1_555
C16 C15 1_555 1_555
H14 C16 1_555 1_555
C17 C16 1_555 1_555
C18 C17 1_555 1_555
H15 C18 1_555 1_555
C19 C14 1_555 1_555
H16 C19 1_555 1_555
C5 C6 1_555 1_555
C11 C12 1_555 1_555
C18 C19 1_555 1_555

#END
