
#######################################################################
#
#                 Cambridge Crystallographic Data Centre
#                                CCDC 
#
#######################################################################
#
# If this CIF has been generated from an entry in the Cambridge 
# Structural Database, then it will include bibliographic, chemical, 
# crystal, experimental, refinement or atomic coordinate data resulting 
# from the CCDC's data processing and validation procedures.
#
#######################################################################

data_SAGGOX
_chemical_formula_moiety         'C16 H20 O3 S1'
_chemical_name_systematic        
3(E)-Pentylidene-4-(benzenesulfonyl)-5-methyl-2,3-dihydrofuran
_symmetry_cell_setting           triclinic
_symmetry_space_group_name_H-M   'P -1'
_symmetry_Int_Tables_number      2
_space_group_name_Hall           '-P 1'
loop_
_symmetry_equiv_pos_site_id
_symmetry_equiv_pos_as_xyz
1 x,y,z
2 -x,-y,-z
_cell_length_a                   7.9721(9)
_cell_length_b                   9.2400(11)
_cell_length_c                   11.3859(13)
_cell_angle_alpha                109.621(2)
_cell_angle_beta                 94.117(2)
_cell_angle_gamma                101.647(2)
_cell_volume                     764.836
_exptl_crystal_colour            colorless
_chemical_melting_point          54-56deg.C
_cell_formula_units_Z            2
loop_
_atom_site_label
_atom_site_type_symbol
_atom_site_fract_x
_atom_site_fract_y
_atom_site_fract_z
S1 S 0.26905(8) 0.69036(8) 0.31872(6)
O1 O 0.3406(3) 0.8062(2) 0.02289(19)
O2 O 0.1296(2) 0.5582(2) 0.30496(15)
O3 O 0.2677(2) 0.8428(2) 0.40590(17)
C1 C 0.3334(3) 0.8344(3) 0.1452(3)
C2 C 0.2852(3) 0.7010(3) 0.1715(2)
C3 C 0.2583(3) 0.5654(3) 0.0553(2)
C4 C 0.2967(5) 0.6385(4) -0.0426(3)
C5 C 0.3821(4) 1.0056(3) 0.2248(3)
H1 H 0.4923 1.0539 0.2091
H2 H 0.3896 1.0173 0.3122
H3 H 0.2958 1.0561 0.2047
C6 C 0.2127(3) 0.4125(3) 0.0306(2)
C7 C 0.1955(5) 0.2924(4) -0.0986(3)
C8 C 0.1440(5) 0.1258(3) -0.1077(3)
C9 C 0.1182(5) 0.0051(3) -0.2400(3)
C10 C 0.0676(4) -0.1605(3) -0.2462(3)
H4 H 0.1534 -0.1794 -0.1932
H5 H 0.0590 -0.2309 -0.3316
H6 H -0.0425 -0.1788 -0.2177
C11 C 0.4624(3) 0.6448(3) 0.36005(18)
C12 C 0.6100(4) 0.7635(3) 0.4123(2)
C13 C 0.7630(4) 0.7253(5) 0.4403(3)
C14 C 0.7666(4) 0.5720(5) 0.4167(3)
C15 C 0.6196(4) 0.4538(4) 0.3667(2)
C16 C 0.4678(4) 0.4898(3) 0.3367(2)
H7 H 0.389(4) 0.611(3) -0.082(3)
H8 H 0.200(3) 0.610(3) -0.110(2)
H9 H 0.193(3) 0.375(2) 0.0975(18)
H10 H 0.308(3) 0.311(4) -0.128(3)
H11 H 0.119(3) 0.312(3) -0.160(2)
H12 H 0.236(3) 0.106(3) -0.055(2)
H13 H 0.044(3) 0.119(3) -0.061(2)
H14 H 0.228(3) 0.010(4) -0.273(3)
H15 H 0.030(3) 0.030(3) -0.291(2)
H16 H 0.600(3) 0.8650(19) 0.4295(19)
H17 H 0.853(4) 0.813(3) 0.474(3)
H18 H 0.873(3) 0.547(3) 0.438(2)
H19 H 0.626(3) 0.346(3) 0.350(2)
H20 H 0.366(3) 0.415(2) 0.304(2)
loop_
_geom_bond_atom_site_label_1
_geom_bond_atom_site_label_2
_geom_bond_site_symmetry_1
_geom_bond_site_symmetry_2
S1 O2 1_555 1_555
O1 C1 1_555 1_555
O3 S1 1_555 1_555
C1 C2 1_555 1_555
C2 S1 1_555 1_555
C3 C2 1_555 1_555
C4 O1 1_555 1_555
C5 C1 1_555 1_555
H1 C5 1_555 1_555
H2 C5 1_555 1_555
H3 C5 1_555 1_555
C6 C3 1_555 1_555
C7 C6 1_555 1_555
C8 C7 1_555 1_555
C9 C8 1_555 1_555
C10 C9 1_555 1_555
H4 C10 1_555 1_555
H5 C10 1_555 1_555
H6 C10 1_555 1_555
C11 S1 1_555 1_555
C12 C11 1_555 1_555
C13 C12 1_555 1_555
C14 C13 1_555 1_555
C15 C14 1_555 1_555
C16 C11 1_555 1_555
H7 C4 1_555 1_555
H8 C4 1_555 1_555
H9 C6 1_555 1_555
H10 C7 1_555 1_555
H11 C7 1_555 1_555
H12 C8 1_555 1_555
H13 C8 1_555 1_555
H14 C9 1_555 1_555
H15 C9 1_555 1_555
H16 C12 1_555 1_555
H17 C13 1_555 1_555
H18 C14 1_555 1_555
H19 C15 1_555 1_555
H20 C16 1_555 1_555
C3 C4 1_555 1_555
C15 C16 1_555 1_555

#END
