
#######################################################################
#
#                 Cambridge Crystallographic Data Centre
#                                CCDC 
#
#######################################################################
#
# If this CIF has been generated from an entry in the Cambridge 
# Structural Database, then it will include bibliographic, chemical, 
# crystal, experimental, refinement or atomic coordinate data resulting 
# from the CCDC's data processing and validation procedures.
#
#######################################################################

data_SAGHEQ
_chemical_formula_moiety         'C14 H9 F3 N2'
_chemical_name_systematic        
5-phenyl-7-(trifluoromethyl)-1H-pyrrolo[3,2-b]pyridine
_symmetry_cell_setting           monoclinic
_symmetry_space_group_name_H-M   'P 21/c'
_symmetry_Int_Tables_number      14
_space_group_name_Hall           '-P 2ybc'
loop_
_symmetry_equiv_pos_site_id
_symmetry_equiv_pos_as_xyz
1 x,y,z
2 -x,1/2+y,1/2-z
3 -x,-y,-z
4 x,1/2-y,1/2+z
_cell_length_a                   20.570(7)
_cell_length_b                   15.208(5)
_cell_length_c                   16.160(5)
_cell_angle_alpha                90
_cell_angle_beta                 91.127(9)
_cell_angle_gamma                90
_cell_volume                     5054.33
_exptl_crystal_colour            colorless
_exptl_crystal_description       block
_chemical_melting_point          '131.9-132.6 deg.C'
_cell_formula_units_Z            16
_exptl_crystal_recrystallization_method 'Re-crystallisation from solvent:'
loop_
_atom_site_label
_atom_site_type_symbol
_atom_site_fract_x
_atom_site_fract_y
_atom_site_fract_z
C1 C -0.0487(2) 0.2557(3) 0.2865(3)
H1 H -0.0596 0.2028 0.3114
C2 C 0.0056(2) 0.2690(3) 0.2436(3)
H2 H 0.0382 0.2282 0.2338
C3 C 0.00363(16) 0.3575(2) 0.2161(2)
C4 C -0.05477(16) 0.3937(2) 0.2454(2)
C5 C -0.07005(17) 0.4807(2) 0.2262(3)
C6 C -0.1304(3) 0.5225(4) 0.2572(5)
C7 C -0.02741(17) 0.5253(2) 0.1771(2)
H3 H -0.0367 0.5830 0.1619
C8 C 0.02987(16) 0.4860(2) 0.1492(2)
C9 C 0.07464(17) 0.5342(2) 0.0950(2)
C10 C 0.0500(2) 0.5904(2) 0.0335(3)
H4 H 0.0054 0.5993 0.0284
C11 C 0.0910(2) 0.6326(3) -0.0196(3)
H5 H 0.0737 0.6694 -0.0604
C12 C 0.1571(3) 0.6213(3) -0.0132(3)
H6 H 0.1847 0.6496 -0.0495
C13 C 0.1817(2) 0.5674(3) 0.0481(4)
H7 H 0.2264 0.5595 0.0532
C14 C 0.14144(18) 0.5248(3) 0.1021(3)
H8 H 0.1593 0.4895 0.1436
F1 F -0.1284(7) 0.5268(13) 0.3384(6)
F2 F -0.1754(4) 0.4717(5) 0.2725(11)
F3 F -0.1469(4) 0.5907(6) 0.2191(7)
H9 H -0.122(2) 0.341(3) 0.322(3)
N1 N -0.08593(16) 0.3301(2) 0.2888(2)
N2 N 0.04586(13) 0.40309(18) 0.16976(18)
C15 C 0.5473(2) 0.7103(3) 0.3117(3)
H10 H 0.5564 0.7589 0.3448
C16 C 0.4908(2) 0.6975(3) 0.2694(3)
H11 H 0.4549 0.7348 0.2677
C17 C 0.49702(16) 0.6153(2) 0.2278(2)
C18 C 0.56004(16) 0.5830(2) 0.2473(2)
C19 C 0.57844(17) 0.5030(3) 0.2139(3)
C20 C 0.6441(3) 0.4640(4) 0.2302(5)
C21 C 0.53359(18) 0.4608(2) 0.1641(2)
H12 H 0.5446 0.4071 0.1406
C22 C 0.47204(16) 0.4955(2) 0.1476(2)
C23 C 0.42469(17) 0.4486(2) 0.0928(2)
C24 C 0.4457(2) 0.4017(3) 0.0248(2)
H13 H 0.4898 0.4000 0.0134
C25 C 0.4024(3) 0.3576(3) -0.0263(3)
H14 H 0.4172 0.3267 -0.0718
C26 C 0.3372(2) 0.3597(3) -0.0098(4)
H15 H 0.3079 0.3305 -0.0446
C27 C 0.3152(2) 0.4044(3) 0.0577(4)
H16 H 0.2710 0.4050 0.0691
C28 C 0.35886(18) 0.4486(2) 0.1089(3)
H17 H 0.3438 0.4787 0.1548
F6 F 0.6867(5) 0.5211(8) 0.2568(12)
F7 F 0.6390(4) 0.4043(9) 0.2939(8)
F8 F 0.6685(4) 0.4229(9) 0.1699(8)
H18 H 0.626(2) 0.641(3) 0.332(3)
N3 N 0.58935(17) 0.6421(2) 0.2992(2)
N4 N 0.45355(13) 0.57300(19) 0.17924(18)
C29 C 0.1971(2) 0.2932(3) 0.2291(3)
H19 H 0.1855 0.3225 0.2772
C30 C 0.2507(2) 0.2442(3) 0.2227(2)
H20 H 0.2822 0.2338 0.2636
C31 C 0.24940(16) 0.2112(2) 0.1403(2)
C32 C 0.19245(16) 0.2445(2) 0.1016(2)
C33 C 0.17897(18) 0.2228(3) 0.0201(2)
C34 C 0.1186(3) 0.2541(5) -0.0229(3)
C35 C 0.22403(19) 0.1702(3) -0.0188(2)
H21 H 0.2164 0.1536 -0.0735
C36 C 0.28038(17) 0.1416(2) 0.0218(2)
C37 C 0.3300(2) 0.0913(3) -0.0222(3)
C38 C 0.3633(2) 0.0234(3) 0.0164(3)
H22 H 0.3530 0.0081 0.0702
C39 C 0.4117(3) -0.0223(4) -0.0233(5)
H23 H 0.4336 -0.0680 0.0035
C40 C 0.4269(4) 0.0004(6) -0.1026(6)
H24 H 0.4601 -0.0288 -0.1294
C41 C 0.3934(4) 0.0660(6) -0.1424(4)
H25 H 0.4031 0.0804 -0.1967
C42 C 0.3456(3) 0.1104(4) -0.1022(3)
H26 H 0.3231 0.1548 -0.1300
F12 F 0.1180(6) 0.3443(7) -0.0217(7)
F13 F 0.0679(4) 0.2517(8) 0.0207(6)
F14 F 0.1085(2) 0.2213(5) -0.0938(3)
H27 H 0.125(2) 0.327(3) 0.152(3)
N5 N 0.16142(16) 0.2954(2) 0.1578(2)
N6 N 0.29255(14) 0.16038(19) 0.10132(19)
C43 C 0.2915(2) 0.6670(3) 0.2435(3)
H28 H 0.3009 0.6343 0.2909
C44 C 0.2370(2) 0.7154(3) 0.2316(3)
H29 H 0.2033 0.7222 0.2684
C45 C 0.24132(17) 0.7539(2) 0.1521(2)
C46 C 0.30155(17) 0.7261(2) 0.1194(2)
C47 C 0.31845(17) 0.7526(2) 0.0415(2)
C48 C 0.3806(2) 0.7234(3) 0.0043(3)
C49 C 0.27464(19) 0.8053(3) -0.0014(2)
H30 H 0.2844 0.8239 -0.0546
C50 C 0.21521(18) 0.8312(2) 0.0340(2)
C51 C 0.1679(2) 0.8819(3) -0.0158(3)
C52 C 0.1875(3) 0.9379(3) -0.0785(3)
H31 H 0.2315 0.9458 -0.0879
C53 C 0.1417(3) 0.9819(4) -0.1272(4)
H32 H 0.1558 1.0184 -0.1694
C54 C 0.0777(4) 0.9733(4) -0.1149(4)
H33 H 0.0481 1.0052 -0.1471
C55 C 0.0559(3) 0.9169(4) -0.0543(4)
H34 H 0.0116 0.9093 -0.0466
C56 C 0.1014(2) 0.8713(3) -0.0048(3)
H35 H 0.0869 0.8334 0.0361
F17 F 0.43182(13) 0.7482(2) 0.0502(2)
F18 F 0.38432(14) 0.63598(19) 0.00030(18)
F19 F 0.3882(5) 0.7481(11) -0.0734(7)
H36 H 0.370(2) 0.644(3) 0.173(3)
N7 N 0.33117(16) 0.6725(2) 0.1764(2)
N8 N 0.19930(14) 0.8058(2) 0.1100(2)
F4? F -0.1158(7) 0.5910(11) 0.300(2)
F5? F -0.1809(7) 0.4965(18) 0.212(2)
F9? F 0.6728(12) 0.475(2) 0.2893(17)
F10? F 0.6437(8) 0.3820(12) 0.207(3)
F11? F 0.6870(10) 0.501(4) 0.174(3)
F15? F 0.0671(11) 0.217(2) 0.011(2)
F16? F 0.1234(13) 0.3183(18) -0.0654(16)
F20? F 0.3916(12) 0.767(3) -0.0638(19)
loop_
_geom_bond_atom_site_label_1
_geom_bond_atom_site_label_2
_geom_bond_site_symmetry_1
_geom_bond_site_symmetry_2
C1 H1 1_555 1_555
C2 C1 1_555 1_555
H2 C2 1_555 1_555
C3 C2 1_555 1_555
C4 C3 1_555 1_555
C5 C4 1_555 1_555
C6 C5 1_555 1_555
C7 C5 1_555 1_555
H3 C7 1_555 1_555
C8 C7 1_555 1_555
C9 C8 1_555 1_555
C10 C9 1_555 1_555
H4 C10 1_555 1_555
C11 C10 1_555 1_555
H5 C11 1_555 1_555
C12 C11 1_555 1_555
H6 C12 1_555 1_555
C13 C12 1_555 1_555
H7 C13 1_555 1_555
C14 C9 1_555 1_555
H8 C14 1_555 1_555
F1 C6 1_555 1_555
F2 C6 1_555 1_555
F3 C6 1_555 1_555
H9 N1 1_555 1_555
N1 C1 1_555 1_555
N2 C3 1_555 1_555
C15 H10 1_555 1_555
C16 C15 1_555 1_555
H11 C16 1_555 1_555
C17 C16 1_555 1_555
C18 C17 1_555 1_555
C19 C18 1_555 1_555
C20 C19 1_555 1_555
C21 C19 1_555 1_555
H12 C21 1_555 1_555
C22 C21 1_555 1_555
C23 C22 1_555 1_555
C24 C23 1_555 1_555
H13 C24 1_555 1_555
C25 C24 1_555 1_555
H14 C25 1_555 1_555
C26 C25 1_555 1_555
H15 C26 1_555 1_555
C27 C26 1_555 1_555
H16 C27 1_555 1_555
C28 C23 1_555 1_555
H17 C28 1_555 1_555
F6 C20 1_555 1_555
F7 C20 1_555 1_555
F8 C20 1_555 1_555
H18 N3 1_555 1_555
N3 C15 1_555 1_555
N4 C17 1_555 1_555
C29 H19 1_555 1_555
C30 C29 1_555 1_555
H20 C30 1_555 1_555
C31 C30 1_555 1_555
C32 C31 1_555 1_555
C33 C32 1_555 1_555
C34 C33 1_555 1_555
C35 C33 1_555 1_555
H21 C35 1_555 1_555
C36 C35 1_555 1_555
C37 C36 1_555 1_555
C38 C37 1_555 1_555
H22 C38 1_555 1_555
C39 C38 1_555 1_555
H23 C39 1_555 1_555
C40 C39 1_555 1_555
H24 C40 1_555 1_555
C41 C40 1_555 1_555
H25 C41 1_555 1_555
C42 C37 1_555 1_555
H26 C42 1_555 1_555
F12 C34 1_555 1_555
F13 C34 1_555 1_555
F14 C34 1_555 1_555
H27 N5 1_555 1_555
N5 C29 1_555 1_555
N6 C31 1_555 1_555
C43 H28 1_555 1_555
C44 C43 1_555 1_555
H29 C44 1_555 1_555
C45 C44 1_555 1_555
C46 C45 1_555 1_555
C47 C46 1_555 1_555
C48 C47 1_555 1_555
C49 C47 1_555 1_555
H30 C49 1_555 1_555
C50 C49 1_555 1_555
C51 C50 1_555 1_555
C52 C51 1_555 1_555
H31 C52 1_555 1_555
C53 C52 1_555 1_555
H32 C53 1_555 1_555
C54 C53 1_555 1_555
H33 C54 1_555 1_555
C55 C54 1_555 1_555
H34 C55 1_555 1_555
C56 C51 1_555 1_555
H35 C56 1_555 1_555
F17 C48 1_555 1_555
F18 C48 1_555 1_555
F19 C48 1_555 1_555
H36 N7 1_555 1_555
N7 C43 1_555 1_555
N8 C45 1_555 1_555
C4 N1 1_555 1_555
C8 N2 1_555 1_555
C13 C14 1_555 1_555
C18 N3 1_555 1_555
C22 N4 1_555 1_555
C27 C28 1_555 1_555
C32 N5 1_555 1_555
C36 N6 1_555 1_555
C41 C42 1_555 1_555
C46 N7 1_555 1_555
C50 N8 1_555 1_555
C55 C56 1_555 1_555

#END
