
#######################################################################
#
#                 Cambridge Crystallographic Data Centre
#                                CCDC 
#
#######################################################################
#
# If this CIF has been generated from an entry in the Cambridge 
# Structural Database, then it will include bibliographic, chemical, 
# crystal, experimental, refinement or atomic coordinate data resulting 
# from the CCDC's data processing and validation procedures.
#
#######################################################################

data_SAGJAN
_chemical_formula_moiety         'C13 H11 N1 O3'
_chemical_name_systematic        4-Methoxy-3-nitrobiphenyl
_symmetry_cell_setting           orthorhombic
_symmetry_space_group_name_H-M   'P b c a'
_symmetry_Int_Tables_number      61
_space_group_name_Hall           '-P 2ac 2ab'
loop_
_symmetry_equiv_pos_site_id
_symmetry_equiv_pos_as_xyz
1 x,y,z
2 1/2-x,-y,1/2+z
3 1/2+x,1/2-y,-z
4 -x,1/2+y,1/2-z
5 -x,-y,-z
6 1/2+x,y,1/2-z
7 1/2-x,1/2+y,z
8 x,1/2-y,1/2+z
_cell_length_a                   7.2464(14)
_cell_length_b                   14.416(3)
_cell_length_c                   21.270(4)
_cell_angle_alpha                90
_cell_angle_beta                 90
_cell_angle_gamma                90
_cell_volume                     2221.95
_exptl_crystal_colour            colorless
_exptl_crystal_description       block
_cell_formula_units_Z            8
_exptl_crystal_recrystallization_method ethanol
loop_
_atom_site_label
_atom_site_type_symbol
_atom_site_fract_x
_atom_site_fract_y
_atom_site_fract_z
O1 O 0.0839(2) 0.29025(9) 0.20268(6)
C1 C 0.0647(2) 0.25993(12) 0.37180(9)
H1 H 0.0437 0.2118 0.4000
C2 C 0.1357(2) 0.41652(12) 0.35023(9)
H2 H 0.1629 0.4762 0.3640
C3 C 0.1047(2) 0.34788(12) 0.39446(9)
N1 N 0.0116(2) 0.14832(10) 0.28966(8)
C4 C 0.0557(2) 0.24306(11) 0.30850(9)
C5 C 0.0879(2) 0.31220(12) 0.26371(8)
C6 C 0.1278(3) 0.39972(12) 0.28690(9)
H3 H 0.1496 0.4481 0.2589
C7 C 0.1145(2) 0.36642(12) 0.46247(9)
O2 O 0.0541(3) 0.08624(9) 0.32547(8)
C8 C 0.1229(3) 0.36171(14) 0.15871(9)
H4 H 0.0316 0.4097 0.1623
H5 H 0.1208 0.3366 0.1169
H6 H 0.2428 0.3872 0.1672
O3 O -0.0705(3) 0.13539(11) 0.24097(9)
C9 C 0.2432(3) 0.42742(15) 0.48667(10)
H7 H 0.3226 0.4583 0.4594
C10 C -0.0019(3) 0.32329(14) 0.50488(10)
H8 H -0.0906 0.2820 0.4902
C11 C 0.2562(4) 0.44336(18) 0.55029(11)
H9 H 0.3444 0.4846 0.5654
C12 C 0.0112(3) 0.34047(17) 0.56840(11)
H10 H -0.0698 0.3114 0.5960
C13 C 0.1418(3) 0.39961(17) 0.59124(11)
H11 H 0.1524 0.4098 0.6343
loop_
_geom_bond_atom_site_label_1
_geom_bond_atom_site_label_2
_geom_bond_site_symmetry_1
_geom_bond_site_symmetry_2
O1 C5 1_555 1_555
C1 H1 1_555 1_555
C2 H2 1_555 1_555
C3 C1 1_555 1_555
N1 C4 1_555 1_555
C4 C1 1_555 1_555
C5 C4 1_555 1_555
C6 C2 1_555 1_555
H3 C6 1_555 1_555
C7 C3 1_555 1_555
O2 N1 1_555 1_555
C8 O1 1_555 1_555
H4 C8 1_555 1_555
H5 C8 1_555 1_555
H6 C8 1_555 1_555
O3 N1 1_555 1_555
C9 C7 1_555 1_555
H7 C9 1_555 1_555
C10 C7 1_555 1_555
H8 C10 1_555 1_555
C11 C9 1_555 1_555
H9 C11 1_555 1_555
C12 C10 1_555 1_555
H10 C12 1_555 1_555
C13 C11 1_555 1_555
H11 C13 1_555 1_555
C2 C3 1_555 1_555
C5 C6 1_555 1_555
C12 C13 1_555 1_555

#END
