
#######################################################################
#
#                 Cambridge Crystallographic Data Centre
#                                CCDC 
#
#######################################################################
#
# If this CIF has been generated from an entry in the Cambridge 
# Structural Database, then it will include bibliographic, chemical, 
# crystal, experimental, refinement or atomic coordinate data resulting 
# from the CCDC's data processing and validation procedures.
#
#######################################################################

data_SAGKOC
_chemical_formula_moiety         'C29 H30 Br2 N2 O3'
_chemical_name_systematic        
(E)-1-(4-(bis(4-Bromophenyl)methyl)piperazin-1-yl)-3-(4-ethoxy-3-methoxyphenyl)prop-2-en-1-one
_symmetry_cell_setting           triclinic
_symmetry_space_group_name_H-M   'P -1'
_symmetry_Int_Tables_number      2
_space_group_name_Hall           '-P 1'
loop_
_symmetry_equiv_pos_site_id
_symmetry_equiv_pos_as_xyz
1 x,y,z
2 -x,-y,-z
_cell_length_a                   8.5520(17)
_cell_length_b                   10.355(2)
_cell_length_c                   16.361(3)
_cell_angle_alpha                92.85(3)
_cell_angle_beta                 100.52(3)
_cell_angle_gamma                95.25(3)
_cell_volume                     1415.27
_exptl_crystal_colour            colorless
_exptl_crystal_description       block
_cell_formula_units_Z            2
_exptl_crystal_recrystallization_method ethanol
loop_
_atom_site_label
_atom_site_type_symbol
_atom_site_fract_x
_atom_site_fract_y
_atom_site_fract_z
Br1 Br 0.65376(13) 0.34766(12) 0.57637(6)
N1 N 0.9260(5) 0.3258(4) 0.2058(3)
O1 O 1.3079(5) 0.4867(4) 0.0380(3)
C1 C 0.7349(9) 0.3675(6) 0.3323(4)
H1 H 0.7259 0.4241 0.2897
Br2 Br 0.20032(9) -0.00602(9) 0.02290(5)
N2 N 1.1790(6) 0.4652(5) 0.1444(3)
O2 O 1.9023(5) 0.8508(5) 0.3993(3)
C2 C 0.6782(10) 0.3959(8) 0.4101(5)
H2 H 0.6223 0.4676 0.4162
O3 O 2.1174(5) 0.9315(4) 0.3219(2)
C3 C 0.7089(10) 0.3160(9) 0.4728(4)
C4 C 0.7929(9) 0.2026(9) 0.4636(4)
H3 H 0.8159 0.1495 0.5076
C5 C 0.8378(7) 0.1751(7) 0.3896(4)
H4 H 0.8928 0.1034 0.3820
C6 C 0.7996(6) 0.2565(5) 0.3260(4)
C7 C 0.8396(8) 0.2183(7) 0.2417(4)
H5 H 0.9100 0.1486 0.2499
C8 C 0.6895(7) 0.1635(6) 0.1820(4)
C9 C 0.6436(7) 0.0372(6) 0.1727(4)
H6 H 0.7130 -0.0176 0.2001
C10 C 0.5035(7) -0.0188(5) 0.1265(4)
H7 H 0.4772 -0.1083 0.1227
C11 C 0.4077(6) 0.0579(6) 0.0878(3)
C12 C 0.4392(8) 0.2000(6) 0.0887(4)
H8 H 0.3687 0.2529 0.0601
C13 C 0.5895(8) 0.2469(6) 0.1383(4)
H9 H 0.6225 0.3354 0.1419
C14 C 0.9581(8) 0.2932(7) 0.1231(4)
H10 H 1.0273 0.2237 0.1263
H11 H 0.8585 0.2622 0.0859
C15 C 1.0330(8) 0.4036(6) 0.0898(4)
H12 H 0.9571 0.4677 0.0793
H13 H 1.0592 0.3760 0.0368
C16 C 1.1500(8) 0.4937(6) 0.2289(4)
H14 H 1.0802 0.5625 0.2282
H15 H 1.2504 0.5235 0.2658
C17 C 1.0756(7) 0.3766(6) 0.2603(4)
H16 H 1.1491 0.3102 0.2647
H17 H 1.0553 0.3979 0.3156
C18 C 1.3040(7) 0.5159(7) 0.1128(4)
C19 C 1.4415(8) 0.5873(6) 0.1696(4)
H18 H 1.4322 0.6116 0.2238
C20 C 1.5779(7) 0.6173(6) 0.1446(4)
H19 H 1.5825 0.5853 0.0911
C21 C 1.7193(6) 0.6923(5) 0.1888(3)
C22 C 1.8438(7) 0.7364(6) 0.1511(4)
H20 H 1.8393 0.7109 0.0953
C23 C 1.9733(7) 0.8157(7) 0.1922(4)
H21 H 2.0502 0.8475 0.1627
C24 C 1.9934(6) 0.8501(6) 0.2765(4)
C25 C 1.8700(6) 0.8058(6) 0.3175(4)
C26 C 1.7401(6) 0.7287(5) 0.2764(3)
H22 H 1.6621 0.6984 0.3056
C27 C 1.7825(8) 0.8123(7) 0.4451(4)
H23 H 1.8132 0.8494 0.5014
H24 H 1.7701 0.7192 0.4453
H25 H 1.6831 0.8420 0.4198
C28 C 2.2484(7) 0.9702(7) 0.2786(4)
H26 H 2.2110 1.0169 0.2301
H27 H 2.2975 0.8951 0.2614
C29 C 2.3669(8) 1.0595(7) 0.3454(4)
H28 H 2.4591 1.0890 0.3230
H29 H 2.3993 1.0119 0.3935
H30 H 2.3156 1.1331 0.3612
loop_
_geom_bond_atom_site_label_1
_geom_bond_atom_site_label_2
_geom_bond_site_symmetry_1
_geom_bond_site_symmetry_2
Br1 C3 1_555 1_555
N1 C7 1_555 1_555
O1 C18 1_555 1_555
C1 H1 1_555 1_555
Br2 C11 1_555 1_555
N2 C15 1_555 1_555
O2 C25 1_555 1_555
C2 C1 1_555 1_555
H2 C2 1_555 1_555
O3 C24 1_555 1_555
C3 C2 1_555 1_555
C4 C3 1_555 1_555
H3 C4 1_555 1_555
C5 C4 1_555 1_555
H4 C5 1_555 1_555
C6 C1 1_555 1_555
C7 C6 1_555 1_555
H5 C7 1_555 1_555
C8 C7 1_555 1_555
C9 C8 1_555 1_555
H6 C9 1_555 1_555
C10 C9 1_555 1_555
H7 C10 1_555 1_555
C11 C10 1_555 1_555
C12 C11 1_555 1_555
H8 C12 1_555 1_555
C13 C8 1_555 1_555
H9 C13 1_555 1_555
C14 N1 1_555 1_555
H10 C14 1_555 1_555
H11 C14 1_555 1_555
C15 C14 1_555 1_555
H12 C15 1_555 1_555
H13 C15 1_555 1_555
C16 N2 1_555 1_555
H14 C16 1_555 1_555
H15 C16 1_555 1_555
C17 N1 1_555 1_555
H16 C17 1_555 1_555
H17 C17 1_555 1_555
C18 N2 1_555 1_555
C19 C18 1_555 1_555
H18 C19 1_555 1_555
C20 C19 1_555 1_555
H19 C20 1_555 1_555
C21 C20 1_555 1_555
C22 C21 1_555 1_555
H20 C22 1_555 1_555
C23 C22 1_555 1_555
H21 C23 1_555 1_555
C24 C23 1_555 1_555
C25 C24 1_555 1_555
C26 C21 1_555 1_555
H22 C26 1_555 1_555
C27 O2 1_555 1_555
H23 C27 1_555 1_555
H24 C27 1_555 1_555
H25 C27 1_555 1_555
C28 O3 1_555 1_555
H26 C28 1_555 1_555
H27 C28 1_555 1_555
C29 C28 1_555 1_555
H28 C29 1_555 1_555
H29 C29 1_555 1_555
H30 C29 1_555 1_555
C5 C6 1_555 1_555
C12 C13 1_555 1_555
C16 C17 1_555 1_555
C25 C26 1_555 1_555

#END
