
#######################################################################
#
#                 Cambridge Crystallographic Data Centre
#                                CCDC 
#
#######################################################################
#
# If this CIF has been generated from an entry in the Cambridge 
# Structural Database, then it will include bibliographic, chemical, 
# crystal, experimental, refinement or atomic coordinate data resulting 
# from the CCDC's data processing and validation procedures.
#
#######################################################################

data_SAGLIX
_chemical_name_common            
N,N'-bis(2,6-Diethylphenyl)acenaphthylene-1,2-diimine
_chemical_formula_moiety         'C32 H32 N2'
_chemical_name_systematic        
N,N'-Acenaphthylene-1,2-diylidenebis(2,6-diethylaniline)
_symmetry_cell_setting           monoclinic
_symmetry_space_group_name_H-M   'C 2/c'
_symmetry_Int_Tables_number      15
_space_group_name_Hall           '-C 2yn'
loop_
_symmetry_equiv_pos_site_id
_symmetry_equiv_pos_as_xyz
1 x,y,z
2 -x,y,1/2-z
3 1/2+x,1/2+y,z
4 1/2-x,1/2+y,1/2-z
5 -x,-y,-z
6 x,-y,1/2+z
7 1/2-x,1/2-y,-z
8 1/2+x,1/2-y,1/2+z
_cell_length_a                   13.5134(12)
_cell_length_b                   8.6952(8)
_cell_length_c                   22.3532(19)
_cell_angle_alpha                90
_cell_angle_beta                 99.413(1)
_cell_angle_gamma                90
_cell_volume                     2591.17
_exptl_crystal_colour            'pale yellow'
_exptl_crystal_description       block
_cell_formula_units_Z            4
_exptl_crystal_recrystallization_method ethanol
loop_
_atom_site_label
_atom_site_type_symbol
_atom_site_fract_x
_atom_site_fract_y
_atom_site_fract_z
C1 C 0.48604(12) 1.10939(19) 0.30114(7)
C2 C 0.47262(13) 1.1829(2) 0.35360(8)
H1 H 0.4629 1.1260 0.3884
C3 C 0.47366(14) 1.3456(2) 0.35439(9)
H2 H 0.4654 1.3973 0.3907
C4 C 0.48623(14) 1.4314(2) 0.30468(9)
H3 H 0.4857 1.5405 0.3070
C5 C 0.5000 1.3587(3) 0.2500
C6 C 0.5000 1.1977(3) 0.2500
C7 C 0.49133(12) 0.94636(19) 0.28284(7)
C8 C 0.46314(14) 0.8115(2) 0.37023(8)
C9 C 0.36277(14) 0.8239(2) 0.37853(8)
C10 C 0.34091(17) 0.7996(3) 0.43645(10)
H4 H 0.2735 0.8076 0.4432
C11 C 0.41560(19) 0.7640(3) 0.48439(10)
H5 H 0.3997 0.7510 0.5239
C12 C 0.51299(19) 0.7475(3) 0.47479(10)
H6 H 0.5635 0.7204 0.5078
C13 C 0.53893(15) 0.7696(3) 0.41798(9)
C14 C 0.28009(15) 0.8561(3) 0.32569(9)
H7 H 0.2972 0.9501 0.3046
H8 H 0.2170 0.8764 0.3415
C15 C 0.26253(17) 0.7249(3) 0.28009(10)
H9 H 0.3251 0.7018 0.2651
H10 H 0.2110 0.7550 0.2460
H11 H 0.2402 0.6334 0.2998
C16 C 0.64667(17) 0.7500(3) 0.40762(10)
H12 H 0.6811 0.6753 0.4374
H13 H 0.6466 0.7075 0.3665
C17 C 0.7033(2) 0.8979(4) 0.41362(14)
H14 H 0.6698 0.9720 0.3840
H15 H 0.7718 0.8800 0.4061
H16 H 0.7054 0.9388 0.4547
N1 N 0.48669(11) 0.81965(16) 0.31083(6)
C1A C 0.51396(12) 1.10939(19) 0.19886(7)
C2A C 0.52738(13) 1.1829(2) 0.14640(8)
H1A H 0.5371 1.1260 0.1116
C3A C 0.52634(14) 1.3456(2) 0.14561(9)
H2A H 0.5346 1.3973 0.1093
C4A C 0.51377(14) 1.4314(2) 0.19532(9)
H3A H 0.5143 1.5405 0.1930
C7A C 0.50867(12) 0.94636(19) 0.21716(7)
C8A C 0.53686(14) 0.8115(2) 0.12977(8)
C9A C 0.63723(14) 0.8239(2) 0.12147(8)
C10A C 0.65909(17) 0.7996(3) 0.06355(10)
H4A H 0.7265 0.8076 0.0568
C11A C 0.58440(19) 0.7640(3) 0.01561(10)
H5A H 0.6003 0.7510 -0.0239
C12A C 0.48701(19) 0.7475(3) 0.02521(10)
H6A H 0.4365 0.7204 -0.0078
C13A C 0.46107(15) 0.7696(3) 0.08202(9)
C14A C 0.71991(15) 0.8561(3) 0.17431(9)
H7A H 0.7028 0.9501 0.1954
H8A H 0.7830 0.8764 0.1585
C15A C 0.73747(17) 0.7249(3) 0.21991(10)
H9A H 0.6749 0.7018 0.2349
H10A H 0.7890 0.7550 0.2540
H11A H 0.7598 0.6334 0.2002
C16A C 0.35333(17) 0.7500(3) 0.09238(10)
H12A H 0.3189 0.6753 0.0626
H13A H 0.3534 0.7075 0.1335
C17A C 0.2967(2) 0.8979(4) 0.08638(14)
H14A H 0.3302 0.9720 0.1160
H15A H 0.2282 0.8800 0.0939
H16A H 0.2946 0.9388 0.0453
N1A N 0.51331(11) 0.81965(16) 0.18917(6)
loop_
_geom_bond_atom_site_label_1
_geom_bond_atom_site_label_2
_geom_bond_site_symmetry_1
_geom_bond_site_symmetry_2
C1 C2 1_555 1_555
C2 H1 1_555 1_555
C3 C2 1_555 1_555
H2 C3 1_555 1_555
C4 C3 1_555 1_555
H3 C4 1_555 1_555
C5 C4 1_555 1_555
C6 C1 1_555 1_555
C7 C1 1_555 1_555
C8 C9 1_555 1_555
C9 C10 1_555 1_555
C10 H4 1_555 1_555
C11 C10 1_555 1_555
H5 C11 1_555 1_555
C12 C11 1_555 1_555
H6 C12 1_555 1_555
C13 C8 1_555 1_555
C14 C9 1_555 1_555
H7 C14 1_555 1_555
H8 C14 1_555 1_555
C15 C14 1_555 1_555
H9 C15 1_555 1_555
H10 C15 1_555 1_555
H11 C15 1_555 1_555
C16 C13 1_555 1_555
H12 C16 1_555 1_555
H13 C16 1_555 1_555
C17 C16 1_555 1_555
H14 C17 1_555 1_555
H15 C17 1_555 1_555
H16 C17 1_555 1_555
N1 C7 1_555 1_555
C1A C6 1_555 1_555
C2A C1A 1_555 1_555
H1A C2A 1_555 1_555
C3A C2A 1_555 1_555
H2A C3A 1_555 1_555
C4A C5 1_555 1_555
H3A C4A 1_555 1_555
C7A C7 1_555 1_555
C8A C9A 1_555 1_555
C9A C10A 1_555 1_555
C10A H4A 1_555 1_555
C11A C10A 1_555 1_555
H5A C11A 1_555 1_555
C12A C11A 1_555 1_555
H6A C12A 1_555 1_555
C13A C8A 1_555 1_555
C14A C9A 1_555 1_555
H7A C14A 1_555 1_555
H8A C14A 1_555 1_555
C15A C14A 1_555 1_555
H9A C15A 1_555 1_555
H10A C15A 1_555 1_555
H11A C15A 1_555 1_555
C16A C13A 1_555 1_555
H12A C16A 1_555 1_555
H13A C16A 1_555 1_555
C17A C16A 1_555 1_555
H14A C17A 1_555 1_555
H15A C17A 1_555 1_555
H16A C17A 1_555 1_555
N1A C7A 1_555 1_555
C5 C6 1_555 1_555
C8 N1 1_555 1_555
C12 C13 1_555 1_555
C1A C7A 1_555 1_555
C3A C4A 1_555 1_555
C8A N1A 1_555 1_555
C12A C13A 1_555 1_555

#END
