
#######################################################################
#
#                 Cambridge Crystallographic Data Centre
#                                CCDC 
#
#######################################################################
#
# If this CIF has been generated from an entry in the Cambridge 
# Structural Database, then it will include bibliographic, chemical, 
# crystal, experimental, refinement or atomic coordinate data resulting 
# from the CCDC's data processing and validation procedures.
#
#######################################################################

data_SAGLET
_chemical_formula_moiety         'C12 H11 Br1 N2 O2'
_chemical_name_systematic        
(11aS)-7-Bromo-2,3,5,10,11,11a-hexahydro-1H-pyrrolo[2,1-c][1,4]benzodiazepine-3,11-dione
_symmetry_cell_setting           orthorhombic
_symmetry_space_group_name_H-M   'P 21 21 21'
_symmetry_Int_Tables_number      19
_space_group_name_Hall           'P 2ac 2ab'
loop_
_symmetry_equiv_pos_site_id
_symmetry_equiv_pos_as_xyz
1 x,y,z
2 1/2-x,-y,1/2+z
3 -x,1/2+y,1/2-z
4 1/2+x,1/2-y,-z
_cell_length_a                   4.3880(4)
_cell_length_b                   13.1210(11)
_cell_length_c                   19.8722(16)
_cell_angle_alpha                90
_cell_angle_beta                 90
_cell_angle_gamma                90
_cell_volume                     1144.14
_exptl_crystal_colour            colorless
_exptl_crystal_description       plate
_cell_formula_units_Z            4
_exptl_crystal_recrystallization_method 'ethyl acetate'
loop_
_atom_site_label
_atom_site_type_symbol
_atom_site_fract_x
_atom_site_fract_y
_atom_site_fract_z
Br1 Br 0.25401(6) 0.050666(16) 0.521650(10)
O1 O 1.0495(4) 0.02986(12) 0.85625(8)
O2 O 0.9421(4) 0.41192(12) 0.82097(8)
N1 N 0.8206(4) 0.16602(12) 0.80547(8)
N2 N 0.7499(5) 0.35871(11) 0.72148(7)
H1 H 0.8076 0.4163 0.7027
C1 C 0.8919(5) 0.10757(16) 0.85843(11)
C2 C 0.7399(7) 0.15233(16) 0.92027(10)
H2 H 0.8826 0.1537 0.9588
H3 H 0.5574 0.1123 0.9329
C3 C 0.6517(5) 0.26009(17) 0.89928(10)
H4 H 0.8033 0.3101 0.9157
H5 H 0.4489 0.2785 0.9175
C4 C 0.6457(4) 0.25772(15) 0.82215(10)
H6 H 0.4310 0.2502 0.8060
C5 C 0.9226(5) 0.14577(17) 0.73654(10)
H7 H 0.9572 0.0717 0.7312
H8 H 1.1195 0.1808 0.7289
C6 C 0.6986(4) 0.18057(14) 0.68438(9)
C7 C 0.6198(5) 0.28407(15) 0.67832(10)
C8 C 0.7940(5) 0.35007(14) 0.78876(10)
C9 C 0.5797(5) 0.11109(15) 0.63852(10)
H9 H 0.6271 0.0407 0.6424
C10 C 0.3923(5) 0.14489(17) 0.58721(10)
C11 C 0.3113(5) 0.24598(17) 0.58081(10)
H10 H 0.1805 0.2676 0.5455
C12 C 0.4250(5) 0.31536(17) 0.62704(11)
H11 H 0.3692 0.3851 0.6237
loop_
_geom_bond_atom_site_label_1
_geom_bond_atom_site_label_2
_geom_bond_site_symmetry_1
_geom_bond_site_symmetry_2
Br1 C10 1_555 1_555
O1 C1 1_555 1_555
O2 C8 1_555 1_555
N1 C1 1_555 1_555
N2 H1 1_555 1_555
C1 C2 1_555 1_555
C2 H2 1_555 1_555
H3 C2 1_555 1_555
C3 C2 1_555 1_555
H4 C3 1_555 1_555
H5 C3 1_555 1_555
C4 N1 1_555 1_555
H6 C4 1_555 1_555
C5 N1 1_555 1_555
H7 C5 1_555 1_555
H8 C5 1_555 1_555
C6 C5 1_555 1_555
C7 N2 1_555 1_555
C8 N2 1_555 1_555
C9 C6 1_555 1_555
H9 C9 1_555 1_555
C10 C9 1_555 1_555
C11 C10 1_555 1_555
H10 C11 1_555 1_555
C12 C7 1_555 1_555
H11 C12 1_555 1_555
C3 C4 1_555 1_555
C4 C8 1_555 1_555
C6 C7 1_555 1_555
C11 C12 1_555 1_555

#END
