
#######################################################################
#
#                 Cambridge Crystallographic Data Centre
#                                CCDC 
#
#######################################################################
#
# If this CIF has been generated from an entry in the Cambridge 
# Structural Database, then it will include bibliographic, chemical, 
# crystal, experimental, refinement or atomic coordinate data resulting 
# from the CCDC's data processing and validation procedures.
#
#######################################################################

data_SAGMUK
_chemical_formula_moiety         'C23 H19 N3 O4'
_chemical_name_systematic        
3'-(Hydroxy(4-oxo-4H-chromen-3-yl)methyl)-1'-methyl-2-oxo-1,2-dihydrospiro[indole-3,2'-pyrrolidine]-3'-carbonitrile
_symmetry_cell_setting           triclinic
_symmetry_space_group_name_H-M   'P -1'
_symmetry_Int_Tables_number      2
_space_group_name_Hall           '-P 1'
loop_
_symmetry_equiv_pos_site_id
_symmetry_equiv_pos_as_xyz
1 x,y,z
2 -x,-y,-z
_cell_length_a                   9.3483(7)
_cell_length_b                   10.2256(9)
_cell_length_c                   10.9080(9)
_cell_angle_alpha                71.832(5)
_cell_angle_beta                 88.309(5)
_cell_angle_gamma                78.248(5)
_cell_volume                     969.319
_exptl_crystal_colour            white
_exptl_crystal_description       block
_cell_formula_units_Z            2
_exptl_crystal_recrystallization_method hexane
loop_
_atom_site_label
_atom_site_type_symbol
_atom_site_fract_x
_atom_site_fract_y
_atom_site_fract_z
C1 C 0.01655(15) 0.90996(14) 0.37494(13)
C2 C -0.12747(17) 0.90527(17) 0.41086(16)
H1 H -0.1515 0.8200 0.4571
C3 C -0.2338(2) 1.0263(2) 0.37808(19)
H2 H -0.3298 1.0227 0.4010
C4 C -0.1974(2) 1.1539(2) 0.3107(2)
H3 H -0.2698 1.2354 0.2897
C5 C -0.0581(2) 1.16225(17) 0.27475(17)
H4 H -0.0347 1.2483 0.2300
C6 C 0.04833(18) 1.03947(15) 0.30641(14)
C7 C 0.28974(17) 0.93517(15) 0.28421(14)
H5 H 0.3811 0.9453 0.2511
C8 C 0.27088(15) 0.80437(14) 0.34502(12)
C9 C 0.13386(15) 0.78375(14) 0.40633(12)
C10 C 0.39326(14) 0.67953(14) 0.35242(12)
H6 H 0.3858 0.6033 0.4319
C11 C 0.39211(14) 0.62424(13) 0.23496(12)
C12 C 0.40376(15) 0.74112(15) 0.11646(13)
C13 C 0.52387(15) 0.50169(15) 0.24145(14)
H7 H 0.6075 0.5376 0.2003
H8 H 0.5515 0.4463 0.3304
C14 C 0.47078(16) 0.41335(15) 0.16957(15)
H9 H 0.5333 0.4056 0.0986
H10 H 0.4697 0.3197 0.2272
C15 C 0.23476(19) 0.40250(18) 0.08659(16)
H11 H 0.2815 0.3681 0.0199
H12 H 0.1394 0.4580 0.0558
H13 H 0.2256 0.3245 0.1610
C16 C 0.26018(14) 0.56017(13) 0.21551(11)
C17 C 0.22340(15) 0.45055(14) 0.34238(12)
C18 C 0.00806(15) 0.59547(14) 0.25514(13)
C19 C 0.11179(14) 0.65327(14) 0.17285(12)
C20 C 0.06507(16) 0.77525(15) 0.07153(13)
H14 H 0.1312 0.8141 0.0131
C21 C -0.08275(18) 0.83888(17) 0.05857(16)
H15 H -0.1149 0.9213 -0.0088
C22 C -0.18214(17) 0.78190(18) 0.14373(17)
H16 H -0.2799 0.8274 0.1341
C23 C -0.13801(16) 0.65743(17) 0.24364(15)
H17 H -0.2047 0.6174 0.3006
N1 N 0.41798(16) 0.83035(15) 0.02676(13)
N2 N 0.32235(12) 0.48890(12) 0.12161(10)
N3 N 0.07765(13) 0.47154(12) 0.34909(11)
H18 H 0.0321 0.4158 0.4043
O1 O 0.18680(13) 1.05308(10) 0.26729(11)
O2 O 0.11877(11) 0.66834(10) 0.47960(9)
O3 O 0.53230(11) 0.71535(13) 0.35228(10)
H19 H 0.5622 0.6968 0.4269
O4 O 0.31198(11) 0.35561(11) 0.41684(10)
loop_
_geom_bond_atom_site_label_1
_geom_bond_atom_site_label_2
_geom_bond_site_symmetry_1
_geom_bond_site_symmetry_2
C1 C2 1_555 1_555
C2 H1 1_555 1_555
C3 C2 1_555 1_555
H2 C3 1_555 1_555
C4 C3 1_555 1_555
H3 C4 1_555 1_555
C5 C4 1_555 1_555
H4 C5 1_555 1_555
C6 C1 1_555 1_555
C7 H5 1_555 1_555
C8 C7 1_555 1_555
C9 C1 1_555 1_555
C10 C8 1_555 1_555
H6 C10 1_555 1_555
C11 C10 1_555 1_555
C12 C11 1_555 1_555
C13 C11 1_555 1_555
H7 C13 1_555 1_555
H8 C13 1_555 1_555
C14 C13 1_555 1_555
H9 C14 1_555 1_555
H10 C14 1_555 1_555
C15 H11 1_555 1_555
H12 C15 1_555 1_555
H13 C15 1_555 1_555
C16 C11 1_555 1_555
C17 C16 1_555 1_555
C18 C19 1_555 1_555
C19 C16 1_555 1_555
C20 C19 1_555 1_555
H14 C20 1_555 1_555
C21 C20 1_555 1_555
H15 C21 1_555 1_555
C22 C21 1_555 1_555
H16 C22 1_555 1_555
C23 C18 1_555 1_555
H17 C23 1_555 1_555
N1 C12 1_555 1_555
N2 C14 1_555 1_555
N3 C17 1_555 1_555
H18 N3 1_555 1_555
O1 C6 1_555 1_555
O2 C9 1_555 1_555
O3 C10 1_555 1_555
H19 O3 1_555 1_555
O4 C17 1_555 1_555
C5 C6 1_555 1_555
C7 O1 1_555 1_555
C8 C9 1_555 1_555
C15 N2 1_555 1_555
C16 N2 1_555 1_555
C18 N3 1_555 1_555
C22 C23 1_555 1_555

#END
