
#######################################################################
#
#                 Cambridge Crystallographic Data Centre
#                                CCDC 
#
#######################################################################
#
# If this CIF has been generated from an entry in the Cambridge 
# Structural Database, then it will include bibliographic, chemical, 
# crystal, experimental, refinement or atomic coordinate data resulting 
# from the CCDC's data processing and validation procedures.
#
#######################################################################

data_SAGNOG
_chemical_formula_moiety         'C29 H24 N1 O3 P1 S1'
_chemical_name_systematic        
'methyl 3-(diphenylphosphorothioyl)-5-methoxy-2-phenyl-1H-indole-1-carboxylate'
_symmetry_cell_setting           monoclinic
_symmetry_space_group_name_H-M   'P 21/c'
_symmetry_Int_Tables_number      14
_space_group_name_Hall           '-P 2ybc'
loop_
_symmetry_equiv_pos_site_id
_symmetry_equiv_pos_as_xyz
1 x,y,z
2 -x,1/2+y,1/2-z
3 -x,-y,-z
4 x,1/2-y,1/2+z
_cell_length_a                   9.0734(12)
_cell_length_b                   18.171(3)
_cell_length_c                   15.045(2)
_cell_angle_alpha                90
_cell_angle_beta                 90.571(3)
_cell_angle_gamma                90
_cell_volume                     2480.39
_exptl_crystal_colour            colorless
_exptl_crystal_description       Prism
_cell_formula_units_Z            4
loop_
_atom_site_label
_atom_site_type_symbol
_atom_site_fract_x
_atom_site_fract_y
_atom_site_fract_z
P1 P 0.28953(3) 0.537382(14) 0.302793(16)
S1 S 0.43690(3) 0.607257(15) 0.347138(18)
O1 O 0.14908(9) 0.81327(4) 0.14261(6)
O2 O 0.20741(10) 0.52546(5) -0.11465(5)
O3 O 0.36056(9) 0.44278(5) -0.05122(5)
N1 N 0.25502(10) 0.52860(5) 0.03527(6)
C1 C 0.22402(11) 0.60312(6) 0.05082(7)
C2 C 0.19907(12) 0.66054(6) -0.00893(7)
H1 H 0.1984 0.6524 -0.0713
C3 C 0.17542(12) 0.72971(6) 0.02598(7)
H2 H 0.1579 0.7699 -0.0131
C4 C 0.17677(12) 0.74180(6) 0.11844(7)
C5 C 0.20562(11) 0.68515(6) 0.17787(7)
H3 H 0.2085 0.6937 0.2402
C6 C 0.23042(11) 0.61465(6) 0.14277(7)
C7 C 0.26575(11) 0.54432(6) 0.18424(7)
C8 C 0.28018(11) 0.49316(6) 0.11737(7)
C9 C 0.29586(11) 0.41225(6) 0.12092(6)
C10 C 0.42820(12) 0.37828(6) 0.14440(7)
H4 H 0.5122 0.4072 0.1590
C11 C 0.43693(13) 0.30203(6) 0.14636(8)
H5 H 0.5272 0.2788 0.1624
C12 C 0.31453(13) 0.25944(6) 0.12495(9)
H6 H 0.3209 0.2073 0.1269
C13 C 0.18297(13) 0.29313(6) 0.10073(8)
H7 H 0.0995 0.2640 0.0854
C14 C 0.17323(12) 0.36930(6) 0.09885(7)
H8 H 0.0829 0.3923 0.0825
C15 C 0.26913(12) 0.49950(6) -0.05073(7)
C16 C 0.37109(15) 0.40494(7) -0.13581(8)
H9 H 0.2755 0.3830 -0.1511
H10 H 0.4458 0.3661 -0.1314
H11 H 0.3991 0.4401 -0.1820
C17 C 0.16664(15) 0.83132(7) 0.23418(8)
H12 H 0.0941 0.8041 0.2691
H13 H 0.1516 0.8843 0.2424
H14 H 0.2663 0.8180 0.2541
C18 C 0.33051(11) 0.44347(6) 0.33542(7)
C19 C 0.22537(12) 0.38777(6) 0.32605(7)
H15 H 0.1330 0.3981 0.2985
C20 C 0.25581(15) 0.31746(7) 0.35695(8)
H16 H 0.1848 0.2794 0.3500
C21 C 0.39045(16) 0.30277(7) 0.39818(8)
H17 H 0.4106 0.2547 0.4200
C22 C 0.49491(15) 0.35744(7) 0.40756(8)
H18 H 0.5870 0.3469 0.4353
C23 C 0.46550(13) 0.42808(7) 0.37642(7)
H19 H 0.5373 0.4658 0.3831
C24 C 0.10867(11) 0.55454(5) 0.34775(7)
C25 C -0.02054(12) 0.53730(6) 0.30090(7)
H20 H -0.0158 0.5190 0.2418
C26 C -0.15631(12) 0.54711(7) 0.34159(8)
H21 H -0.2445 0.5349 0.3104
C27 C -0.16357(12) 0.57465(6) 0.42764(8)
H22 H -0.2566 0.5812 0.4550
C28 C -0.03528(13) 0.59252(6) 0.47361(8)
H23 H -0.0405 0.6118 0.5322
C29 C 0.10061(12) 0.58221(6) 0.43411(7)
H24 H 0.1884 0.5940 0.4659
loop_
_geom_bond_atom_site_label_1
_geom_bond_atom_site_label_2
_geom_bond_site_symmetry_1
_geom_bond_site_symmetry_2
P1 S1 1_555 1_555
O1 C4 1_555 1_555
O2 C15 1_555 1_555
O3 C15 1_555 1_555
N1 C1 1_555 1_555
C1 C2 1_555 1_555
C2 H1 1_555 1_555
C3 C2 1_555 1_555
H2 C3 1_555 1_555
C4 C3 1_555 1_555
C5 C4 1_555 1_555
H3 C5 1_555 1_555
C6 C1 1_555 1_555
C7 P1 1_555 1_555
C8 N1 1_555 1_555
C9 C8 1_555 1_555
C10 C9 1_555 1_555
H4 C10 1_555 1_555
C11 C10 1_555 1_555
H5 C11 1_555 1_555
C12 C11 1_555 1_555
H6 C12 1_555 1_555
C13 C12 1_555 1_555
H7 C13 1_555 1_555
C14 C9 1_555 1_555
H8 C14 1_555 1_555
C15 N1 1_555 1_555
C16 O3 1_555 1_555
H9 C16 1_555 1_555
H10 C16 1_555 1_555
H11 C16 1_555 1_555
C17 O1 1_555 1_555
H12 C17 1_555 1_555
H13 C17 1_555 1_555
H14 C17 1_555 1_555
C18 P1 1_555 1_555
C19 C18 1_555 1_555
H15 C19 1_555 1_555
C20 C19 1_555 1_555
H16 C20 1_555 1_555
C21 C20 1_555 1_555
H17 C21 1_555 1_555
C22 C21 1_555 1_555
H18 C22 1_555 1_555
C23 C18 1_555 1_555
H19 C23 1_555 1_555
C24 P1 1_555 1_555
C25 C24 1_555 1_555
H20 C25 1_555 1_555
C26 C25 1_555 1_555
H21 C26 1_555 1_555
C27 C26 1_555 1_555
H22 C27 1_555 1_555
C28 C27 1_555 1_555
H23 C28 1_555 1_555
C29 C24 1_555 1_555
H24 C29 1_555 1_555
C5 C6 1_555 1_555
C6 C7 1_555 1_555
C7 C8 1_555 1_555
C13 C14 1_555 1_555
C22 C23 1_555 1_555
C28 C29 1_555 1_555

#END
