
#######################################################################
#
#                 Cambridge Crystallographic Data Centre
#                                CCDC 
#
#######################################################################
#
# If this CIF has been generated from an entry in the Cambridge 
# Structural Database, then it will include bibliographic, chemical, 
# crystal, experimental, refinement or atomic coordinate data resulting 
# from the CCDC's data processing and validation procedures.
#
#######################################################################

data_SAGNIA
_chemical_formula_moiety         'C27 H20 N1 O1 P1 S1,0.5(C1 H2 Cl2)'
_chemical_name_systematic        
'4-(diphenylphosphorothioyl)-3-phenylisoquinolin-1(2H)-one dichloromethane solvate'
_symmetry_cell_setting           orthorhombic
_symmetry_space_group_name_H-M   'P b c a'
_symmetry_Int_Tables_number      61
_space_group_name_Hall           '-P 2ac 2ab'
loop_
_symmetry_equiv_pos_site_id
_symmetry_equiv_pos_as_xyz
1 x,y,z
2 1/2-x,-y,1/2+z
3 -x,1/2+y,1/2-z
4 1/2+x,1/2-y,-z
5 -x,-y,-z
6 1/2+x,y,1/2-z
7 x,1/2-y,1/2+z
8 1/2-x,1/2+y,z
_cell_length_a                   13.236(3)
_cell_length_b                   19.919(4)
_cell_length_c                   34.940(7)
_cell_angle_alpha                90
_cell_angle_beta                 90
_cell_angle_gamma                90
_cell_volume                     9211.86
_exptl_crystal_colour            colorless
_exptl_crystal_description       Prism
_cell_formula_units_Z            16
loop_
_atom_site_label
_atom_site_type_symbol
_atom_site_fract_x
_atom_site_fract_y
_atom_site_fract_z
P1 P 0.46485(4) 0.11891(4) 0.234337(16)
S1 S 0.61212(4) 0.11627(4) 0.240682(18)
O1 O 0.20827(12) 0.11329(10) 0.37318(4)
N1 N 0.29132(15) 0.17111(12) 0.32692(5)
C1 C 0.26873(17) 0.11334(13) 0.34588(6)
C2 C 0.32535(17) 0.05444(13) 0.33352(6)
C3 C 0.31966(19) -0.00389(14) 0.35591(7)
H1 H 0.2755 -0.0052 0.3773
C4 C 0.3771(2) -0.05898(15) 0.34718(7)
H2 H 0.3718 -0.0988 0.3620
C5 C 0.44358(19) -0.05570(15) 0.31614(7)
H3 H 0.4850 -0.0933 0.3103
C6 C 0.44995(18) 0.00112(15) 0.29382(7)
H4 H 0.4955 0.0019 0.2728
C7 C 0.39021(17) 0.05828(13) 0.30151(6)
C8 C 0.39577(16) 0.12088(13) 0.27959(6)
C9 C 0.35052(16) 0.17697(13) 0.29465(6)
C10 C 0.36020(18) 0.24735(14) 0.28157(6)
C11 C 0.27410(19) 0.28795(14) 0.27878(7)
H5 H 0.2093 0.2695 0.2839
C12 C 0.2832(2) 0.35480(15) 0.26861(7)
H6 H 0.2244 0.3820 0.2664
C13 C 0.3773(2) 0.38230(16) 0.26157(7)
H7 H 0.3833 0.4283 0.2548
C14 C 0.4631(2) 0.34239(15) 0.26451(7)
H8 H 0.5278 0.3612 0.2596
C15 C 0.45479(18) 0.27524(14) 0.27453(7)
H9 H 0.5137 0.2483 0.2766
C16 C 0.41633(18) 0.04486(13) 0.20952(6)
C17 C 0.31386(19) 0.02913(15) 0.21001(7)
H10 H 0.2681 0.0567 0.2238
C18 C 0.2783(2) -0.02659(16) 0.19045(7)
H11 H 0.2081 -0.0366 0.1906
C19 C 0.3447(2) -0.06764(16) 0.17074(7)
H12 H 0.3204 -0.1065 0.1580
C20 C 0.4466(2) -0.05200(15) 0.16968(7)
H13 H 0.4921 -0.0799 0.1559
C21 C 0.48265(19) 0.00440(15) 0.18869(7)
H14 H 0.5524 0.0154 0.1875
C22 C 0.42497(17) 0.18653(14) 0.20279(6)
C23 C 0.32344(19) 0.20251(15) 0.19748(7)
H15 H 0.2725 0.1788 0.2111
C24 C 0.2975(2) 0.25330(16) 0.17216(7)
H16 H 0.2286 0.2653 0.1689
C25 C 0.3717(2) 0.28667(16) 0.15150(7)
H17 H 0.3534 0.3214 0.1342
C26 C 0.4713(2) 0.26961(15) 0.15604(7)
H18 H 0.5217 0.2920 0.1415
C27 C 0.49887(19) 0.21994(14) 0.18168(6)
H19 H 0.5681 0.2086 0.1849
H20 H 0.270(2) 0.2043(16) 0.3359(8)
P2 P 0.45565(4) 0.26685(4) 0.018179(16)
S2 S 0.60158(4) 0.28137(4) 0.011404(17)
O2 O 0.22788(13) 0.21617(10) -0.12512(5)
N2 N 0.28188(15) 0.28548(12) -0.07816(5)
C28 C 0.27881(17) 0.22453(13) -0.09570(6)
C29 C 0.34393(17) 0.17310(13) -0.07870(6)
C30 C 0.35373(19) 0.11183(14) -0.09760(7)
H21 H 0.3144 0.1033 -0.1198
C31 C 0.4192(2) 0.06372(15) -0.08457(7)
H22 H 0.4233 0.0213 -0.0969
C32 C 0.48001(19) 0.07795(15) -0.05284(7)
H23 H 0.5276 0.0455 -0.0443
C33 C 0.47186(18) 0.13833(14) -0.03378(7)
H24 H 0.5138 0.1467 -0.0122
C34 C 0.40212(17) 0.18811(13) -0.04575(6)
C35 C 0.39050(17) 0.25310(13) -0.02699(6)
C36 C 0.33380(16) 0.30152(13) -0.04506(6)
C37 C 0.32078(18) 0.37303(13) -0.03465(6)
C38 C 0.22323(19) 0.39826(15) -0.02976(7)
H25 H 0.1669 0.3689 -0.0317
C39 C 0.2079(2) 0.46597(16) -0.02209(8)
H26 H 0.1415 0.4825 -0.0180
C40 C 0.2898(3) 0.50924(17) -0.02048(8)
H27 H 0.2797 0.5557 -0.0157
C41 C 0.3860(3) 0.48455(17) -0.02584(8)
H28 H 0.4420 0.5144 -0.0249
C42 C 0.4023(2) 0.41652(15) -0.03260(7)
H29 H 0.4691 0.4000 -0.0358
C43 C 0.42563(17) 0.19372(13) 0.04727(6)
C44 C 0.49354(18) 0.17379(14) 0.07585(6)
H30 H 0.5558 0.1970 0.0789
C45 C 0.47037(19) 0.12037(15) 0.09979(7)
H31 H 0.5168 0.1073 0.1191
C46 C 0.38037(19) 0.08607(15) 0.09567(7)
H32 H 0.3647 0.0495 0.1121
C47 C 0.31250(19) 0.10550(15) 0.06715(7)
H33 H 0.2507 0.0818 0.0642
C48 C 0.33424(18) 0.15874(14) 0.04328(7)
H34 H 0.2873 0.1717 0.0241
C49 C 0.39609(18) 0.33348(14) 0.04565(6)
C50 C 0.29146(19) 0.33442(15) 0.05197(7)
H35 H 0.2494 0.3005 0.0414
C51 C 0.2501(2) 0.38561(17) 0.07400(7)
H36 H 0.1792 0.3868 0.0782
C52 C 0.3109(2) 0.43490(16) 0.08987(7)
H37 H 0.2814 0.4702 0.1043
C53 C 0.4144(2) 0.43281(15) 0.08478(7)
H38 H 0.4563 0.4659 0.0963
C54 C 0.45692(19) 0.38187(15) 0.06266(7)
H39 H 0.5281 0.3802 0.0592
H40 H 0.255(2) 0.3161(16) -0.0902(8)
Cl1 Cl 0.04285(6) 0.26199(6) 0.12723(3)
Cl2 Cl 0.06302(12) 0.11768(8) 0.12344(4)
C55 C 0.1037(3) 0.1947(2) 0.10460(10)
H41 H 0.1776 0.1990 0.1081
H42 H 0.0892 0.1960 0.0768
loop_
_geom_bond_atom_site_label_1
_geom_bond_atom_site_label_2
_geom_bond_site_symmetry_1
_geom_bond_site_symmetry_2
P1 S1 1_555 1_555
O1 C1 1_555 1_555
N1 C1 1_555 1_555
C1 C2 1_555 1_555
C2 C3 1_555 1_555
C3 H1 1_555 1_555
C4 C3 1_555 1_555
H2 C4 1_555 1_555
C5 C4 1_555 1_555
H3 C5 1_555 1_555
C6 C5 1_555 1_555
H4 C6 1_555 1_555
C7 C2 1_555 1_555
C8 P1 1_555 1_555
C9 N1 1_555 1_555
C10 C9 1_555 1_555
C11 C10 1_555 1_555
H5 C11 1_555 1_555
C12 C11 1_555 1_555
H6 C12 1_555 1_555
C13 C12 1_555 1_555
H7 C13 1_555 1_555
C14 C13 1_555 1_555
H8 C14 1_555 1_555
C15 C10 1_555 1_555
H9 C15 1_555 1_555
C16 P1 1_555 1_555
C17 C16 1_555 1_555
H10 C17 1_555 1_555
C18 C17 1_555 1_555
H11 C18 1_555 1_555
C19 C18 1_555 1_555
H12 C19 1_555 1_555
C20 C19 1_555 1_555
H13 C20 1_555 1_555
C21 C16 1_555 1_555
H14 C21 1_555 1_555
C22 P1 1_555 1_555
C23 C22 1_555 1_555
H15 C23 1_555 1_555
C24 C23 1_555 1_555
H16 C24 1_555 1_555
C25 C24 1_555 1_555
H17 C25 1_555 1_555
C26 C25 1_555 1_555
H18 C26 1_555 1_555
C27 C22 1_555 1_555
H19 C27 1_555 1_555
H20 N1 1_555 1_555
P2 S2 1_555 1_555
O2 C28 1_555 1_555
N2 C28 1_555 1_555
C28 C29 1_555 1_555
C29 C30 1_555 1_555
C30 H21 1_555 1_555
C31 C30 1_555 1_555
H22 C31 1_555 1_555
C32 C31 1_555 1_555
H23 C32 1_555 1_555
C33 C32 1_555 1_555
H24 C33 1_555 1_555
C34 C29 1_555 1_555
C35 P2 1_555 1_555
C36 N2 1_555 1_555
C37 C36 1_555 1_555
C38 C37 1_555 1_555
H25 C38 1_555 1_555
C39 C38 1_555 1_555
H26 C39 1_555 1_555
C40 C39 1_555 1_555
H27 C40 1_555 1_555
C41 C40 1_555 1_555
H28 C41 1_555 1_555
C42 C37 1_555 1_555
H29 C42 1_555 1_555
C43 P2 1_555 1_555
C44 C43 1_555 1_555
H30 C44 1_555 1_555
C45 C44 1_555 1_555
H31 C45 1_555 1_555
C46 C45 1_555 1_555
H32 C46 1_555 1_555
C47 C46 1_555 1_555
H33 C47 1_555 1_555
C48 C43 1_555 1_555
H34 C48 1_555 1_555
C49 P2 1_555 1_555
C50 C49 1_555 1_555
H35 C50 1_555 1_555
C51 C50 1_555 1_555
H36 C51 1_555 1_555
C52 C51 1_555 1_555
H37 C52 1_555 1_555
C53 C52 1_555 1_555
H38 C53 1_555 1_555
C54 C49 1_555 1_555
H39 C54 1_555 1_555
H40 N2 1_555 1_555
Cl1 C55 1_555 1_555
Cl2 C55 1_555 1_555
C55 H41 1_555 1_555
H42 C55 1_555 1_555
C6 C7 1_555 1_555
C7 C8 1_555 1_555
C8 C9 1_555 1_555
C14 C15 1_555 1_555
C20 C21 1_555 1_555
C26 C27 1_555 1_555
C33 C34 1_555 1_555
C34 C35 1_555 1_555
C35 C36 1_555 1_555
C41 C42 1_555 1_555
C47 C48 1_555 1_555
C53 C54 1_555 1_555

#END
