
#######################################################################
#
#                 Cambridge Crystallographic Data Centre
#                                CCDC 
#
#######################################################################
#
# If this CIF has been generated from an entry in the Cambridge 
# Structural Database, then it will include bibliographic, chemical, 
# crystal, experimental, refinement or atomic coordinate data resulting 
# from the CCDC's data processing and validation procedures.
#
#######################################################################

data_SAGNUL
_chemical_formula_moiety         'C11 H10 N2 O1'
_chemical_name_systematic        2-(4-Methoxy-1H-indol-3-yl)acetonitrile
_symmetry_cell_setting           monoclinic
_symmetry_space_group_name_H-M   'P 21/c'
_symmetry_Int_Tables_number      14
_space_group_name_Hall           '-P 2ybc'
loop_
_symmetry_equiv_pos_site_id
_symmetry_equiv_pos_as_xyz
1 x,y,z
2 -x,1/2+y,1/2-z
3 -x,-y,-z
4 x,1/2-y,1/2+z
_cell_length_a                   8.3182(17)
_cell_length_b                   13.062(3)
_cell_length_c                   9.3867(19)
_cell_angle_alpha                90
_cell_angle_beta                 101.53(3)
_cell_angle_gamma                90
_cell_volume                     999.306
_exptl_crystal_colour            colorless
_exptl_crystal_description       block
_cell_formula_units_Z            4
loop_
_atom_site_label
_atom_site_type_symbol
_atom_site_fract_x
_atom_site_fract_y
_atom_site_fract_z
C1 C 0.4959(3) 0.6202(2) 0.1157(3)
C2 C 0.4374(4) 0.6934(2) 0.0033(3)
C3 C 0.4215(5) 0.5425(2) 0.1837(3)
O1 O 0.2566(3) 0.53144(18) 0.1335(3)
N1 N 0.7052(4) 0.7163(3) 0.0794(4)
H1 H 0.8020 0.7415 0.0864
C4 C 0.6656(4) 0.6374(3) 0.1600(4)
N2 N 0.0524(4) 0.7726(3) 0.0570(4)
C5 C 0.1475(4) 0.7424(3) -0.0049(4)
C6 C 0.5681(5) 0.7495(3) -0.0147(4)
H2 H 0.5653 0.8027 -0.0810
C7 C 0.2684(4) 0.7039(3) -0.0858(3)
H3 H 0.2720 0.7501 -0.1661
H4 H 0.2323 0.6376 -0.1266
C8 C 0.5176(6) 0.4845(3) 0.2916(5)
H5 H 0.4708 0.4329 0.3382
C9 C 0.7644(6) 0.5791(3) 0.2705(4)
H6 H 0.8762 0.5912 0.3007
C10 C 0.6861(6) 0.5044(4) 0.3297(5)
H7 H 0.7486 0.4634 0.4008
C11 C 0.1740(7) 0.4533(4) 0.1992(6)
H8 H 0.0594 0.4535 0.1553
H9 H 0.1872 0.4664 0.3015
H10 H 0.2203 0.3877 0.1846
loop_
_geom_bond_atom_site_label_1
_geom_bond_atom_site_label_2
_geom_bond_site_symmetry_1
_geom_bond_site_symmetry_2
C1 C2 1_555 1_555
C2 C6 1_555 1_555
C3 C1 1_555 1_555
O1 C3 1_555 1_555
N1 H1 1_555 1_555
C4 C1 1_555 1_555
N2 C5 1_555 1_555
C5 C7 1_555 1_555
C6 N1 1_555 1_555
H2 C6 1_555 1_555
C7 C2 1_555 1_555
H3 C7 1_555 1_555
H4 C7 1_555 1_555
C8 C3 1_555 1_555
H5 C8 1_555 1_555
C9 C4 1_555 1_555
H6 C9 1_555 1_555
C10 C8 1_555 1_555
H7 C10 1_555 1_555
C11 O1 1_555 1_555
H8 C11 1_555 1_555
H9 C11 1_555 1_555
H10 C11 1_555 1_555
N1 C4 1_555 1_555
C9 C10 1_555 1_555

#END
