
#######################################################################
#
#                 Cambridge Crystallographic Data Centre
#                                CCDC 
#
#######################################################################
#
# If this CIF has been generated from an entry in the Cambridge 
# Structural Database, then it will include bibliographic, chemical, 
# crystal, experimental, refinement or atomic coordinate data resulting 
# from the CCDC's data processing and validation procedures.
#
#######################################################################

data_SAGNEW
_chemical_formula_moiety         'C27 H20 N1 O1 P1 S1'
_chemical_name_systematic        
3-(diphenylphosphorothioyl)-4-phenylisoquinolin-1(2H)-one
_symmetry_cell_setting           triclinic
_symmetry_space_group_name_H-M   'P -1'
_symmetry_Int_Tables_number      2
_space_group_name_Hall           '-P 1'
loop_
_symmetry_equiv_pos_site_id
_symmetry_equiv_pos_as_xyz
1 x,y,z
2 -x,-y,-z
_cell_length_a                   9.948(2)
_cell_length_b                   12.780(3)
_cell_length_c                   18.432(4)
_cell_angle_alpha                103.49(3)
_cell_angle_beta                 95.86(3)
_cell_angle_gamma                108.52(3)
_cell_volume                     2120.88
_exptl_crystal_colour            colorless
_exptl_crystal_description       Prism
_cell_formula_units_Z            4
loop_
_atom_site_label
_atom_site_type_symbol
_atom_site_fract_x
_atom_site_fract_y
_atom_site_fract_z
P1 P 0.63328(5) 0.12272(4) 0.35275(3)
S1 S 0.66831(6) 0.00688(5) 0.39670(3)
O1 O 1.07976(15) 0.35272(14) 0.53222(8)
N1 N 0.88942(18) 0.25821(15) 0.43566(9)
C1 C 1.0153(2) 0.34700(18) 0.47009(11)
C2 C 1.0649(2) 0.42822(18) 0.42624(11)
C3 C 1.1961(2) 0.51915(19) 0.45492(12)
H1 H 1.2505 0.5279 0.5028
C4 C 1.2473(2) 0.59577(19) 0.41464(13)
H2 H 1.3368 0.6576 0.4344
C5 C 1.1675(2) 0.58266(19) 0.34470(13)
H3 H 1.2033 0.6356 0.3165
C6 C 1.0369(2) 0.49374(18) 0.31558(12)
H4 H 0.9833 0.4864 0.2678
C7 C 0.9825(2) 0.41437(17) 0.35584(11)
C8 C 0.84454(19) 0.31991(16) 0.32643(10)
C9 C 0.8030(2) 0.24384(17) 0.36746(10)
C10 C 0.76243(19) 0.31172(16) 0.25190(10)
C11 C 0.7766(2) 0.24076(17) 0.18596(11)
H5 H 0.8327 0.1936 0.1892
C12 C 0.7102(2) 0.23781(19) 0.11582(11)
H6 H 0.7217 0.1895 0.0710
C13 C 0.6268(2) 0.30493(19) 0.11037(12)
H7 H 0.5791 0.3015 0.0621
C14 C 0.6132(2) 0.37718(19) 0.17567(12)
H8 H 0.5558 0.4234 0.1722
C15 C 0.6829(2) 0.38226(17) 0.24592(11)
H9 H 0.6765 0.4343 0.2904
C16 C 0.5541(2) 0.06628(16) 0.25340(10)
C17 C 0.5932(2) -0.01951(17) 0.20884(11)
H10 H 0.6603 -0.0473 0.2311
C18 C 0.5342(2) -0.06379(18) 0.13233(12)
H11 H 0.5621 -0.1211 0.1016
C19 C 0.4343(2) -0.02504(18) 0.10016(11)
H12 H 0.3941 -0.0558 0.0474
C20 C 0.3928(2) 0.05818(17) 0.14430(11)
H13 H 0.3231 0.0837 0.1221
C21 C 0.4527(2) 0.10410(17) 0.22074(11)
H14 H 0.4247 0.1617 0.2511
C22 C 0.5203(2) 0.18989(16) 0.40150(10)
C23 C 0.4384(2) 0.13740(18) 0.44827(11)
H15 H 0.4410 0.0661 0.4540
C24 C 0.3529(2) 0.18877(19) 0.48656(12)
H16 H 0.2959 0.1518 0.5179
C25 C 0.3495(2) 0.2933(2) 0.47960(11)
H17 H 0.2906 0.3281 0.5061
C26 C 0.4323(2) 0.34695(18) 0.43396(11)
H18 H 0.4311 0.4193 0.4295
C27 C 0.5168(2) 0.29558(17) 0.39470(10)
H19 H 0.5727 0.3324 0.3629
H20 H 0.861(3) 0.2022(17) 0.4591(14)
P2 P 0.81386(5) 0.72847(4) 0.10985(3)
S2 S 0.67418(6) 0.66589(5) 0.01385(3)
O2 O 0.86321(15) 1.05128(12) 0.00203(7)
N2 N 0.85660(17) 0.92113(14) 0.06713(9)
C28 C 0.9091(2) 1.02961(17) 0.05952(11)
C29 C 1.0173(2) 1.11349(17) 0.12316(11)
C30 C 1.0827(2) 1.22508(17) 0.11904(11)
H21 H 1.0607 1.2442 0.0735
C31 C 1.1789(2) 1.30803(18) 0.18029(12)
H22 H 1.2248 1.3837 0.1769
C32 C 1.2085(2) 1.28025(18) 0.24741(12)
H23 H 1.2715 1.3383 0.2905
C33 C 1.1476(2) 1.16975(17) 0.25213(11)
H24 H 1.1697 1.1523 0.2983
C34 C 1.0530(2) 1.08237(17) 0.18937(11)
C35 C 0.9946(2) 0.96338(17) 0.19010(10)
C36 C 0.8993(2) 0.88553(16) 0.12807(10)
C37 C 1.0485(2) 0.93301(16) 0.25803(10)
C38 C 0.9885(2) 0.94956(18) 0.32286(11)
H25 H 0.9112 0.9781 0.3237
C39 C 1.0427(3) 0.9240(2) 0.38642(12)
H26 H 1.0014 0.9342 0.4306
C40 C 1.1554(3) 0.8842(2) 0.38578(12)
H27 H 1.1906 0.8658 0.4292
C41 C 1.2180(2) 0.87061(19) 0.32236(12)
H28 H 1.2973 0.8445 0.3225
C42 C 1.1644(2) 0.89529(17) 0.25876(11)
H29 H 1.2075 0.8863 0.2151
C43 C 0.9575(2) 0.67203(16) 0.10621(10)
C44 C 1.0801(2) 0.72421(17) 0.07906(10)
H30 H 1.0939 0.7955 0.0680
C45 C 1.1812(2) 0.67183(18) 0.06829(11)
H31 H 1.2655 0.7082 0.0507
C46 C 1.1613(2) 0.56736(19) 0.08273(11)
H32 H 1.2313 0.5319 0.0748
C47 C 1.0393(2) 0.51435(18) 0.10874(11)
H33 H 1.0255 0.4423 0.1187
C48 C 0.9372(2) 0.56596(17) 0.12036(11)
H34 H 0.8532 0.5291 0.1380
C49 C 0.7288(2) 0.69907(16) 0.18868(11)
C50 C 0.8034(2) 0.69316(17) 0.25454(11)
H35 H 0.9033 0.7041 0.2595
C51 C 0.7316(2) 0.67124(18) 0.31317(11)
H36 H 0.7825 0.6673 0.3584
C52 C 0.5867(3) 0.65513(19) 0.30595(12)
H37 H 0.5383 0.6403 0.3463
C53 C 0.5114(2) 0.6604(2) 0.24060(13)
H38 H 0.4114 0.6492 0.2360
C54 C 0.5816(2) 0.68207(18) 0.18167(12)
H39 H 0.5298 0.6854 0.1365
H40 H 0.793(2) 0.8642(15) 0.0296(10)
loop_
_geom_bond_atom_site_label_1
_geom_bond_atom_site_label_2
_geom_bond_site_symmetry_1
_geom_bond_site_symmetry_2
P1 S1 1_555 1_555
O1 C1 1_555 1_555
N1 C1 1_555 1_555
C1 C2 1_555 1_555
C2 C3 1_555 1_555
C3 H1 1_555 1_555
C4 C3 1_555 1_555
H2 C4 1_555 1_555
C5 C4 1_555 1_555
H3 C5 1_555 1_555
C6 C5 1_555 1_555
H4 C6 1_555 1_555
C7 C2 1_555 1_555
C8 C7 1_555 1_555
C9 P1 1_555 1_555
C10 C8 1_555 1_555
C11 C10 1_555 1_555
H5 C11 1_555 1_555
C12 C11 1_555 1_555
H6 C12 1_555 1_555
C13 C12 1_555 1_555
H7 C13 1_555 1_555
C14 C13 1_555 1_555
H8 C14 1_555 1_555
C15 C10 1_555 1_555
H9 C15 1_555 1_555
C16 P1 1_555 1_555
C17 C16 1_555 1_555
H10 C17 1_555 1_555
C18 C17 1_555 1_555
H11 C18 1_555 1_555
C19 C18 1_555 1_555
H12 C19 1_555 1_555
C20 C19 1_555 1_555
H13 C20 1_555 1_555
C21 C16 1_555 1_555
H14 C21 1_555 1_555
C22 P1 1_555 1_555
C23 C22 1_555 1_555
H15 C23 1_555 1_555
C24 C23 1_555 1_555
H16 C24 1_555 1_555
C25 C24 1_555 1_555
H17 C25 1_555 1_555
C26 C25 1_555 1_555
H18 C26 1_555 1_555
C27 C22 1_555 1_555
H19 C27 1_555 1_555
H20 N1 1_555 1_555
P2 S2 1_555 1_555
O2 C28 1_555 1_555
N2 C28 1_555 1_555
C28 C29 1_555 1_555
C29 C30 1_555 1_555
C30 H21 1_555 1_555
C31 C30 1_555 1_555
H22 C31 1_555 1_555
C32 C31 1_555 1_555
H23 C32 1_555 1_555
C33 C32 1_555 1_555
H24 C33 1_555 1_555
C34 C29 1_555 1_555
C35 C34 1_555 1_555
C36 P2 1_555 1_555
C37 C35 1_555 1_555
C38 C37 1_555 1_555
H25 C38 1_555 1_555
C39 C38 1_555 1_555
H26 C39 1_555 1_555
C40 C39 1_555 1_555
H27 C40 1_555 1_555
C41 C40 1_555 1_555
H28 C41 1_555 1_555
C42 C37 1_555 1_555
H29 C42 1_555 1_555
C43 P2 1_555 1_555
C44 C43 1_555 1_555
H30 C44 1_555 1_555
C45 C44 1_555 1_555
H31 C45 1_555 1_555
C46 C45 1_555 1_555
H32 C46 1_555 1_555
C47 C46 1_555 1_555
H33 C47 1_555 1_555
C48 C43 1_555 1_555
H34 C48 1_555 1_555
C49 P2 1_555 1_555
C50 C49 1_555 1_555
H35 C50 1_555 1_555
C51 C50 1_555 1_555
H36 C51 1_555 1_555
C52 C51 1_555 1_555
H37 C52 1_555 1_555
C53 C52 1_555 1_555
H38 C53 1_555 1_555
C54 C49 1_555 1_555
H39 C54 1_555 1_555
H40 N2 1_555 1_555
N1 C9 1_555 1_555
C6 C7 1_555 1_555
C8 C9 1_555 1_555
C14 C15 1_555 1_555
C20 C21 1_555 1_555
C26 C27 1_555 1_555
N2 C36 1_555 1_555
C33 C34 1_555 1_555
C35 C36 1_555 1_555
C41 C42 1_555 1_555
C47 C48 1_555 1_555
C53 C54 1_555 1_555

#END
