
#######################################################################
#
#                 Cambridge Crystallographic Data Centre
#                                CCDC 
#
#######################################################################
#
# If this CIF has been generated from an entry in the Cambridge 
# Structural Database, then it will include bibliographic, chemical, 
# crystal, experimental, refinement or atomic coordinate data resulting 
# from the CCDC's data processing and validation procedures.
#
#######################################################################

data_SAGROJ
_chemical_name_common            (E)-N'-((E)-3-Phenylallylidene)benzohydrazide
_chemical_formula_moiety         'C16 H14 N2 O1'
_chemical_name_systematic        
(E)-N'-((E)-3-Phenylprop-2-en-1-ylidene)benzohydrazide
_symmetry_cell_setting           orthorhombic
_symmetry_space_group_name_H-M   'P n a 21'
_symmetry_Int_Tables_number      33
_space_group_name_Hall           'P 2c -2n'
loop_
_symmetry_equiv_pos_site_id
_symmetry_equiv_pos_as_xyz
1 x,y,z
2 -x,-y,1/2+z
3 1/2+x,1/2-y,z
4 1/2-x,1/2+y,1/2+z
_cell_length_a                   8.427(3)
_cell_length_b                   10.439(4)
_cell_length_c                   15.724(6)
_cell_angle_alpha                90
_cell_angle_beta                 90
_cell_angle_gamma                90
_cell_volume                     1383.23
_exptl_crystal_colour            yellow
_exptl_crystal_description       block
_cell_formula_units_Z            4
_exptl_crystal_recrystallization_method tetrahydrofuran
loop_
_atom_site_label
_atom_site_type_symbol
_atom_site_fract_x
_atom_site_fract_y
_atom_site_fract_z
C1 C 1.0668(3) 0.6483(2) 0.48249(16)
C2 C 0.9616(3) 0.7307(2) 0.44374(17)
H1 H 0.9252 0.8027 0.4727
C3 C 0.9099(3) 0.7064(3) 0.36146(18)
H2 H 0.8373 0.7612 0.3357
C4 C 0.9659(4) 0.6012(4) 0.3178(2)
H3 H 0.9308 0.5851 0.2628
C5 C 1.0721(4) 0.5212(3) 0.3549(2)
H4 H 1.1107 0.4508 0.3251
C6 C 1.1229(3) 0.5441(3) 0.4371(2)
H5 H 1.1957 0.4889 0.4622
C7 C 1.1258(3) 0.6639(2) 0.57099(17)
C8 C 0.9802(3) 0.8064(2) 0.75525(16)
H6 H 0.8937 0.8469 0.7302
C9 C 1.0068(3) 0.8183(2) 0.84500(16)
H7 H 1.0972 0.7808 0.8680
C10 C 0.9088(3) 0.8803(2) 0.89690(17)
H8 H 0.8252 0.9235 0.8710
C11 C 0.9157(3) 0.8892(2) 0.98938(17)
C12 C 1.0264(3) 0.8252(3) 1.03800(18)
H9 H 1.1026 0.7750 1.0112
C13 C 1.0268(4) 0.8341(3) 1.1250(2)
H10 H 1.1025 0.7899 1.1565
C14 C 0.9169(5) 0.9073(3) 1.1655(2)
H11 H 0.9170 0.9130 1.2245
C15 C 0.8062(4) 0.9724(3) 1.1190(2)
H12 H 0.7315 1.0233 1.1465
C16 C 0.8049(3) 0.9630(2) 1.03158(18)
H13 H 0.7284 1.0070 1.0006
H14 H 0.938(3) 0.761(2) 0.6107(14)
N1 N 1.0322(3) 0.7305(2) 0.62472(13)
N2 N 1.0757(2) 0.7398(2) 0.70954(13)
O1 O 1.25170(19) 0.61572(17) 0.59406(13)
loop_
_geom_bond_atom_site_label_1
_geom_bond_atom_site_label_2
_geom_bond_site_symmetry_1
_geom_bond_site_symmetry_2
C1 C2 1_555 1_555
C2 H1 1_555 1_555
C3 C2 1_555 1_555
H2 C3 1_555 1_555
C4 C3 1_555 1_555
H3 C4 1_555 1_555
C5 C4 1_555 1_555
H4 C5 1_555 1_555
C6 C1 1_555 1_555
H5 C6 1_555 1_555
C7 C1 1_555 1_555
C8 H6 1_555 1_555
C9 C8 1_555 1_555
H7 C9 1_555 1_555
C10 C9 1_555 1_555
H8 C10 1_555 1_555
C11 C10 1_555 1_555
C12 C11 1_555 1_555
H9 C12 1_555 1_555
C13 C12 1_555 1_555
H10 C13 1_555 1_555
C14 C13 1_555 1_555
H11 C14 1_555 1_555
C15 C14 1_555 1_555
H12 C15 1_555 1_555
C16 C11 1_555 1_555
H13 C16 1_555 1_555
H14 N1 1_555 1_555
N1 C7 1_555 1_555
N2 C8 1_555 1_555
O1 C7 1_555 1_555
C5 C6 1_555 1_555
C15 C16 1_555 1_555
N1 N2 1_555 1_555

#END
