
#######################################################################
#
#                 Cambridge Crystallographic Data Centre
#                                CCDC 
#
#######################################################################
#
# If this CIF has been generated from an entry in the Cambridge 
# Structural Database, then it will include bibliographic, chemical, 
# crystal, experimental, refinement or atomic coordinate data resulting 
# from the CCDC's data processing and validation procedures.
#
#######################################################################

data_SAGSIE
_chemical_formula_moiety         'C14 H12 Cl1 N1 O2 S1'
_chemical_name_systematic        
(E)-4-Chloro-N-(4-(methylsulfonyl)benzylidene)aniline
_symmetry_cell_setting           monoclinic
_symmetry_space_group_name_H-M   'P 21/n'
_symmetry_Int_Tables_number      14
_space_group_name_Hall           '-P 2yn'
loop_
_symmetry_equiv_pos_site_id
_symmetry_equiv_pos_as_xyz
1 x,y,z
2 1/2-x,1/2+y,1/2-z
3 -x,-y,-z
4 1/2+x,1/2-y,1/2+z
_cell_length_a                   8.6206(10)
_cell_length_b                   8.8748(10)
_cell_length_c                   17.799(2)
_cell_angle_alpha                90
_cell_angle_beta                 94.972(1)
_cell_angle_gamma                90
_cell_volume                     1356.61
_exptl_crystal_colour            yellow
_exptl_crystal_description       block
_cell_formula_units_Z            4
loop_
_atom_site_label
_atom_site_type_symbol
_atom_site_fract_x
_atom_site_fract_y
_atom_site_fract_z
Cl1 Cl 1.44038(7) 0.87940(7) 0.77377(3)
S1 S 0.25645(5) 0.66162(5) 1.12920(2)
O1 O 0.12146(16) 0.67285(18) 1.07669(8)
O2 O 0.27398(19) 0.52896(17) 1.17454(9)
N1 N 0.85437(18) 0.84443(17) 0.92329(9)
C1 C 1.2692(2) 0.8676(2) 0.81840(10)
C2 C 1.1903(2) 0.7325(2) 0.81801(10)
H1 H 1.2286 0.6487 0.7943
C3 C 1.0540(2) 0.7226(2) 0.85314(10)
H2 H 1.0004 0.6316 0.8532
C4 C 0.9963(2) 0.84819(19) 0.88855(9)
C5 C 1.0771(2) 0.9831(2) 0.88774(10)
H3 H 1.0384 1.0679 0.9105
C6 C 1.2147(2) 0.9930(2) 0.85339(11)
H4 H 1.2697 1.0832 0.8539
C7 C 0.8294(2) 0.7307(2) 0.96360(9)
H5 H 0.9046 0.6554 0.9693
C8 C 0.68621(19) 0.71368(19) 1.00167(9)
C9 C 0.6839(2) 0.6093(2) 1.05955(11)
H6 H 0.7711 0.5498 1.0722
C10 C 0.5532(2) 0.5927(2) 1.09869(11)
H7 H 0.5526 0.5232 1.1378
C11 C 0.42363(19) 0.68041(18) 1.07919(9)
C12 C 0.4227(2) 0.7835(2) 1.02035(10)
H8 H 0.3342 0.8404 1.0067
C13 C 0.5543(2) 0.8005(2) 0.98253(10)
H9 H 0.5551 0.8708 0.9438
C14 C 0.2630(3) 0.8207(2) 1.18768(12)
H10 H 0.1760 0.8191 1.2179
H11 H 0.2586 0.9102 1.1572
H12 H 0.3582 0.8201 1.2200
loop_
_geom_bond_atom_site_label_1
_geom_bond_atom_site_label_2
_geom_bond_site_symmetry_1
_geom_bond_site_symmetry_2
Cl1 C1 1_555 1_555
S1 O1 1_555 1_555
O2 S1 1_555 1_555
N1 C4 1_555 1_555
C1 C2 1_555 1_555
C2 H1 1_555 1_555
C3 C2 1_555 1_555
H2 C3 1_555 1_555
C4 C3 1_555 1_555
C5 C4 1_555 1_555
H3 C5 1_555 1_555
C6 C1 1_555 1_555
H4 C6 1_555 1_555
C7 N1 1_555 1_555
H5 C7 1_555 1_555
C8 C7 1_555 1_555
C9 C8 1_555 1_555
H6 C9 1_555 1_555
C10 C9 1_555 1_555
H7 C10 1_555 1_555
C11 S1 1_555 1_555
C12 C11 1_555 1_555
H8 C12 1_555 1_555
C13 C8 1_555 1_555
H9 C13 1_555 1_555
C14 S1 1_555 1_555
H10 C14 1_555 1_555
H11 C14 1_555 1_555
H12 C14 1_555 1_555
C5 C6 1_555 1_555
C10 C11 1_555 1_555
C12 C13 1_555 1_555

#END
