
#######################################################################
#
#                 Cambridge Crystallographic Data Centre
#                                CCDC 
#
#######################################################################
#
# If this CIF has been generated from an entry in the Cambridge 
# Structural Database, then it will include bibliographic, chemical, 
# crystal, experimental, refinement or atomic coordinate data resulting 
# from the CCDC's data processing and validation procedures.
#
#######################################################################

data_SAGSAW
_chemical_name_common            
N,N'-Butane-2,3-diylidenebis(2,4-dimethylaniline)
_chemical_formula_moiety         'C20 H24 N2'
_chemical_name_systematic        
(Z)-N-((Z)-3-(2,4-Dimethylphenylimino)butan-2-ylidene)-2,4-dimethylaniline
_symmetry_cell_setting           orthorhombic
_symmetry_space_group_name_H-M   'P b c a'
_symmetry_Int_Tables_number      61
_space_group_name_Hall           '-P 2ac 2ab'
loop_
_symmetry_equiv_pos_site_id
_symmetry_equiv_pos_as_xyz
1 x,y,z
2 1/2-x,-y,1/2+z
3 -x,1/2+y,1/2-z
4 1/2+x,1/2-y,-z
5 -x,-y,-z
6 1/2+x,y,1/2-z
7 x,1/2-y,1/2+z
8 1/2-x,1/2+y,z
_cell_length_a                   13.500(10)
_cell_length_b                   7.571(6)
_cell_length_c                   16.738(12)
_cell_angle_alpha                90
_cell_angle_beta                 90
_cell_angle_gamma                90
_cell_volume                     1710.77
_exptl_crystal_colour            yellow
_exptl_crystal_description       block
_cell_formula_units_Z            4
_exptl_crystal_recrystallization_method dichloromethane/ethanol
loop_
_atom_site_label
_atom_site_type_symbol
_atom_site_fract_x
_atom_site_fract_y
_atom_site_fract_z
C1 C 0.60082(15) 0.9674(3) 0.65918(13)
C2 C 0.69975(15) 0.9165(3) 0.66744(13)
C3 C 0.72926(16) 0.8473(3) 0.74028(13)
H1 H 0.7946 0.8104 0.7460
C4 C 0.66613(18) 0.8305(3) 0.80502(13)
C5 C 0.56961(18) 0.8859(3) 0.79551(14)
H2 H 0.5257 0.8782 0.8382
C6 C 0.53728(17) 0.9527(3) 0.72328(15)
H3 H 0.4717 0.9882 0.7178
C7 C 0.77174(18) 0.9360(3) 0.59996(15)
H4 H 0.7403 0.9026 0.5508
H5 H 0.8280 0.8612 0.6092
H6 H 0.7931 1.0567 0.5966
C8 C 0.7013(2) 0.7515(4) 0.88279(14)
H7 H 0.7642 0.6951 0.8747
H8 H 0.6540 0.6659 0.9011
H9 H 0.7081 0.8432 0.9220
C9 C 0.51658(15) 0.9537(3) 0.53705(12)
C10 C 0.48786(19) 0.7641(3) 0.54753(15)
H10 H 0.5191 0.7177 0.5946
H11 H 0.5088 0.6976 0.5017
H12 H 0.4172 0.7555 0.5530
N1 N 0.56812(12) 1.0428(2) 0.58600(11)
C1D C 0.39918(15) 1.0326(3) 0.34082(13)
C2D C 0.30025(15) 1.0835(3) 0.33256(13)
C3D C 0.27074(16) 1.1527(3) 0.25972(13)
H1D H 0.2054 1.1896 0.2540
C4D C 0.33387(18) 1.1695(3) 0.19498(13)
C5D C 0.43039(18) 1.1141(3) 0.20449(14)
H2D H 0.4743 1.1218 0.1618
C6D C 0.46272(17) 1.0473(3) 0.27672(15)
H3D H 0.5283 1.0118 0.2822
C7D C 0.22826(18) 1.0640(3) 0.40004(15)
H4D H 0.2597 1.0974 0.4492
H5D H 0.1720 1.1388 0.3908
H6D H 0.2069 0.9433 0.4034
C8D C 0.2987(2) 1.2485(4) 0.11721(14)
H7D H 0.2358 1.3049 0.1253
H8D H 0.3460 1.3341 0.0989
H9D H 0.2919 1.1568 0.0780
C9D C 0.48342(15) 1.0463(3) 0.46295(12)
C10D C 0.51214(19) 1.2359(3) 0.45247(15)
H10D H 0.4809 1.2823 0.4054
H11D H 0.4912 1.3024 0.4983
H12D H 0.5828 1.2445 0.4470
N1D N 0.43188(12) 0.9572(2) 0.41400(11)
loop_
_geom_bond_atom_site_label_1
_geom_bond_atom_site_label_2
_geom_bond_site_symmetry_1
_geom_bond_site_symmetry_2
C1 C2 1_555 1_555
C2 C3 1_555 1_555
C3 H1 1_555 1_555
C4 C3 1_555 1_555
C5 C4 1_555 1_555
H2 C5 1_555 1_555
C6 C1 1_555 1_555
H3 C6 1_555 1_555
C7 C2 1_555 1_555
H4 C7 1_555 1_555
H5 C7 1_555 1_555
H6 C7 1_555 1_555
C8 C4 1_555 1_555
H7 C8 1_555 1_555
H8 C8 1_555 1_555
H9 C8 1_555 1_555
C9 C10 1_555 1_555
C10 H10 1_555 1_555
H11 C10 1_555 1_555
H12 C10 1_555 1_555
N1 C1 1_555 1_555
C1D C2D 1_555 1_555
C2D C3D 1_555 1_555
C3D H1D 1_555 1_555
C4D C3D 1_555 1_555
C5D C4D 1_555 1_555
H2D C5D 1_555 1_555
C6D C1D 1_555 1_555
H3D C6D 1_555 1_555
C7D C2D 1_555 1_555
H4D C7D 1_555 1_555
H5D C7D 1_555 1_555
H6D C7D 1_555 1_555
C8D C4D 1_555 1_555
H7D C8D 1_555 1_555
H8D C8D 1_555 1_555
H9D C8D 1_555 1_555
C9D C9 1_555 1_555
C10D C9D 1_555 1_555
H10D C10D 1_555 1_555
H11D C10D 1_555 1_555
H12D C10D 1_555 1_555
N1D C1D 1_555 1_555
C5 C6 1_555 1_555
C9 N1 1_555 1_555
C5D C6D 1_555 1_555
C9D N1D 1_555 1_555

#END
