
#######################################################################
#
#                 Cambridge Crystallographic Data Centre
#                                CCDC 
#
#######################################################################
#
# If this CIF has been generated from an entry in the Cambridge 
# Structural Database, then it will include bibliographic, chemical, 
# crystal, experimental, refinement or atomic coordinate data resulting 
# from the CCDC's data processing and validation procedures.
#
#######################################################################

data_SAGTAY
_chemical_formula_moiety         'C29 H28 O8'
_chemical_name_systematic        
'3,4-diethyl 2-methyl 5-(4-methoxyphenyl)-2-(1-naphthyl)-2,5-dihydrofuran-2,3,4-tricarboxylate'
_symmetry_cell_setting           monoclinic
_symmetry_space_group_name_H-M   'P 21/c'
_symmetry_Int_Tables_number      14
_space_group_name_Hall           '-P 2ybc'
loop_
_symmetry_equiv_pos_site_id
_symmetry_equiv_pos_as_xyz
1 x,y,z
2 -x,1/2+y,1/2-z
3 -x,-y,-z
4 x,1/2-y,1/2+z
_cell_length_a                   9.2194(18)
_cell_length_b                   28.551(6)
_cell_length_c                   11.042(2)
_cell_angle_alpha                90
_cell_angle_beta                 111.54(3)
_cell_angle_gamma                90
_cell_volume                     2703.52
_cell_formula_units_Z            4
loop_
_atom_site_label
_atom_site_type_symbol
_atom_site_fract_x
_atom_site_fract_y
_atom_site_fract_z
O1 O 0.1113(2) 0.16564(6) -0.08152(17)
O2 O 0.0805(2) 0.04196(7) -0.0638(2)
O3 O 0.2124(2) 0.08430(7) -0.1585(2)
O4 O 0.3820(3) 0.05786(8) 0.1781(2)
O5 O 0.2366(3) 0.07814(8) 0.2930(2)
O6 O 0.5163(3) 0.15321(11) 0.3240(3)
O7 O 0.5249(3) 0.21399(9) 0.2046(3)
O8 O 0.0020(3) 0.37231(8) 0.0460(2)
C1 C -0.1965(3) 0.11752(9) -0.1325(3)
C2 C -0.1845(3) 0.11739(10) -0.2567(3)
H1 H -0.0865 0.1183 -0.2625
C3 C -0.3146(4) 0.11591(11) -0.3684(3)
H2 H -0.3041 0.1162 -0.4490
C4 C -0.4627(4) 0.11393(13) -0.3619(4)
H3 H -0.5503 0.1126 -0.4383
C5 C -0.4798(4) 0.11390(13) -0.2457(4)
H4 H -0.5794 0.1127 -0.2432
C6 C -0.3481(3) 0.11568(10) -0.1269(3)
C7 C -0.3652(4) 0.11666(11) -0.0054(4)
H5 H -0.4641 0.1145 -0.0017
C8 C -0.2387(4) 0.12071(11) 0.1063(4)
H6 H -0.2519 0.1221 0.1858
C9 C -0.0864(3) 0.12280(9) 0.1031(3)
H7 H -0.0008 0.1260 0.1804
C10 C -0.0643(3) 0.12018(8) -0.0130(3)
C11 C 0.0990(3) 0.12287(9) -0.0179(3)
C12 C 0.2351(3) 0.12512(9) 0.1125(3)
C13 C 0.3135(3) 0.16443(9) 0.1191(3)
C14 C 0.2427(3) 0.19365(9) -0.0016(3)
H8 H 0.3176 0.1962 -0.0454
C15 C 0.1878(3) 0.24198(9) 0.0153(3)
C16 C 0.2204(3) 0.28012(10) -0.0460(3)
H9 H 0.2828 0.2761 -0.0951
C17 C 0.1633(3) 0.32450(10) -0.0372(3)
H10 H 0.1882 0.3498 -0.0790
C18 C 0.0699(4) 0.33070(10) 0.0336(3)
C19 C 0.0382(4) 0.29289(12) 0.0986(3)
H11 H -0.0219 0.2971 0.1494
C20 C 0.0952(4) 0.24925(11) 0.0886(3)
H12 H 0.0716 0.2241 0.1316
C21 C 0.0466(5) 0.41381(11) -0.0005(4)
H13 H -0.0101 0.4398 0.0152
H14 H 0.0240 0.4110 -0.0922
H15 H 0.1564 0.4189 0.0441
C22 C 0.1358(3) 0.08165(9) -0.0915(3)
C23 C 0.1215(5) -0.00093(12) -0.1149(5)
H16 H 0.0760 -0.0273 -0.0879
H17 H 0.2328 -0.0043 -0.0823
H18 H 0.0826 0.0005 -0.2083
C24 C 0.2837(3) 0.08516(10) 0.2074(3)
C25 C 0.4395(14) 0.0118(3) 0.2351(10)
H19 H 0.4748 -0.0065 0.1772
H20 H 0.3586 -0.0054 0.2524
C26 C 0.5744(13) 0.0229(4) 0.3610(9)
H21 H 0.6149 -0.0057 0.4067
H22 H 0.5384 0.0427 0.4145
H23 H 0.6551 0.0387 0.3415
C27 C 0.4617(4) 0.17603(12) 0.2297(3)
C28 C 0.6592(11) 0.2305(5) 0.3182(9)
H24 H 0.7174 0.2044 0.3695
H25 H 0.6257 0.2508 0.3734
C29 C 0.7538(9) 0.2567(3) 0.2563(8)
H26 H 0.8456 0.2690 0.3228
H27 H 0.6931 0.2820 0.2053
H28 H 0.7837 0.2359 0.2012
C30? C 0.4356(13) 0.0198(4) 0.2777(11)
H29? H 0.3805 -0.0092 0.2446
H30? H 0.4191 0.0285 0.3566
C31? C 0.6070(11) 0.0148(4) 0.3032(13)
H31? H 0.6504 -0.0094 0.3666
H32? H 0.6591 0.0438 0.3356
H33? H 0.6207 0.0066 0.2237
C32? C 0.6898(11) 0.2266(6) 0.2807(13)
H34? H 0.7430 0.2397 0.2272
H35? H 0.7495 0.2009 0.3326
C33? C 0.6477(15) 0.2626(5) 0.3597(14)
H36? H 0.7411 0.2757 0.4224
H37? H 0.5870 0.2483 0.4041
H38? H 0.5880 0.2870 0.3036
loop_
_geom_bond_atom_site_label_1
_geom_bond_atom_site_label_2
_geom_bond_site_symmetry_1
_geom_bond_site_symmetry_2
O1 C11 1_555 1_555
O2 C22 1_555 1_555
O3 C22 1_555 1_555
O4 C24 1_555 1_555
O5 C24 1_555 1_555
O6 C27 1_555 1_555
O7 C27 1_555 1_555
O8 C18 1_555 1_555
C1 C2 1_555 1_555
C2 H1 1_555 1_555
C3 C2 1_555 1_555
H2 C3 1_555 1_555
C4 C3 1_555 1_555
H3 C4 1_555 1_555
C5 C4 1_555 1_555
H4 C5 1_555 1_555
C6 C1 1_555 1_555
C7 C6 1_555 1_555
H5 C7 1_555 1_555
C8 C7 1_555 1_555
H6 C8 1_555 1_555
C9 C8 1_555 1_555
H7 C9 1_555 1_555
C10 C1 1_555 1_555
C11 C10 1_555 1_555
C12 C11 1_555 1_555
C13 C12 1_555 1_555
C14 O1 1_555 1_555
H8 C14 1_555 1_555
C15 C14 1_555 1_555
C16 C15 1_555 1_555
H9 C16 1_555 1_555
C17 C16 1_555 1_555
H10 C17 1_555 1_555
C18 C17 1_555 1_555
C19 C18 1_555 1_555
H11 C19 1_555 1_555
C20 C15 1_555 1_555
H12 C20 1_555 1_555
C21 O8 1_555 1_555
H13 C21 1_555 1_555
H14 C21 1_555 1_555
H15 C21 1_555 1_555
C22 C11 1_555 1_555
C23 O2 1_555 1_555
H16 C23 1_555 1_555
H17 C23 1_555 1_555
H18 C23 1_555 1_555
C24 C12 1_555 1_555
C25 O4 1_555 1_555
H19 C25 1_555 1_555
H20 C25 1_555 1_555
C26 C25 1_555 1_555
H21 C26 1_555 1_555
H22 C26 1_555 1_555
H23 C26 1_555 1_555
C27 C13 1_555 1_555
C28 O7 1_555 1_555
H24 C28 1_555 1_555
H25 C28 1_555 1_555
C29 C28 1_555 1_555
H26 C29 1_555 1_555
H27 C29 1_555 1_555
H28 C29 1_555 1_555
C5 C6 1_555 1_555
C9 C10 1_555 1_555
C13 C14 1_555 1_555
C19 C20 1_555 1_555

#END
