
#######################################################################
#
#                 Cambridge Crystallographic Data Centre
#                                CCDC 
#
#######################################################################
#
# If this CIF has been generated from an entry in the Cambridge 
# Structural Database, then it will include bibliographic, chemical, 
# crystal, experimental, refinement or atomic coordinate data resulting 
# from the CCDC's data processing and validation procedures.
#
#######################################################################

data_SAGVAY
_chemical_formula_moiety         'C25 H17 Cl1 N4 O1 S1'
_chemical_name_systematic        
5-anilino-3-phenyl-2-(4-chlorobenzoyl)-4-(1H-1,2,4-triazol-1-yl)thiophene
_chemical_properties_biological  
'relative plant growth regulativity but low fungicidal activity'
_symmetry_cell_setting           triclinic
_symmetry_space_group_name_H-M   'P -1'
_symmetry_Int_Tables_number      2
_space_group_name_Hall           '-P 1'
loop_
_symmetry_equiv_pos_site_id
_symmetry_equiv_pos_as_xyz
1 x,y,z
2 -x,-y,-z
_cell_length_a                   7.9816(16)
_cell_length_b                   10.026(2)
_cell_length_c                   14.478(3)
_cell_angle_alpha                100.33(3)
_cell_angle_beta                 94.69(3)
_cell_angle_gamma                106.08(3)
_cell_volume                     1084.57
_chemical_melting_point          '260-262 deg.C'
_cell_formula_units_Z            2
loop_
_atom_site_label
_atom_site_type_symbol
_atom_site_fract_x
_atom_site_fract_y
_atom_site_fract_z
S1 S 0.15188(18) 0.90443(17) 0.58033(10)
Cl1 Cl 0.4492(3) 0.7684(3) 0.03968(12)
N1 N -0.2383(5) 0.5760(5) 0.4549(3)
O1 O 0.3630(5) 1.0825(5) 0.4709(3)
C1 C 0.0121(6) 0.7564(6) 0.4158(3)
N2 N -0.1124(5) 0.7237(5) 0.6475(3)
H1 H -0.2134 0.6602 0.6322
N3 N -0.2421(6) 0.4462(6) 0.4715(4)
C2 C 0.1468(7) 0.8654(6) 0.4586(3)
C3 C 0.2854(7) 0.9669(7) 0.4250(4)
C4 C 0.3480(7) 0.7813(7) 0.3024(4)
H2 H 0.3294 0.7191 0.3436
C5 C -0.0291(6) 0.7625(7) 0.5739(3)
C6 C -0.0448(6) 0.6956(6) 0.3125(3)
N4 N -0.4947(6) 0.4374(6) 0.3876(4)
C7 C -0.3933(7) 0.5617(8) 0.4033(4)
H3 H -0.4217 0.6358 0.3819
C8 C -0.0556(7) 0.7736(7) 0.7451(4)
C9 C -0.1796(8) 0.7259(7) 0.8029(4)
H4 H -0.2922 0.6680 0.7766
C10 C -0.0885(6) 0.6933(5) 0.4808(3)
C11 C 0.1080(8) 0.8531(6) 0.7852(4)
H5 H 0.1934 0.8828 0.7471
C12 C 0.3331(7) 0.9152(7) 0.3297(4)
C13 C -0.0669(8) 0.5566(7) 0.2744(4)
H6 H -0.0434 0.4983 0.3138
C14 C -0.1236(10) 0.4987(8) 0.1783(4)
H7 H -0.1424 0.4029 0.1529
C15 C 0.4101(8) 0.8265(9) 0.1528(4)
C16 C 0.3624(8) 1.0087(7) 0.2678(4)
H8 H 0.3561 1.1007 0.2868
C17 C 0.4005(8) 0.9644(9) 0.1782(4)
H9 H 0.4194 1.0251 0.1360
C18 C -0.3938(8) 0.3704(7) 0.4320(5)
H10 H -0.4351 0.2744 0.4330
C19 C -0.0741(7) 0.7878(6) 0.2554(4)
H11 H -0.0575 0.8834 0.2806
C20 C 0.1495(8) 0.8908(7) 0.8830(4)
H12 H 0.2621 0.9476 0.9102
C21 C 0.3904(8) 0.7393(8) 0.2141(4)
H13 H 0.4056 0.6499 0.1967
C22 C 0.0272(10) 0.8456(9) 0.9396(4)
H14 H 0.0551 0.8700 1.0053
C23 C -0.1294(9) 0.7302(8) 0.1590(4)
H15 H -0.1523 0.7882 0.1192
C24 C -0.1335(9) 0.7655(9) 0.8989(4)
H16 H -0.2178 0.7354 0.9375
C25 C -0.1506(10) 0.5920(9) 0.1221(4)
H17 H -0.1843 0.5581 0.0572
loop_
_geom_bond_atom_site_label_1
_geom_bond_atom_site_label_2
_geom_bond_site_symmetry_1
_geom_bond_site_symmetry_2
S1 C2 1_555 1_555
Cl1 C15 1_555 1_555
N1 N3 1_555 1_555
O1 C3 1_555 1_555
C1 C2 1_555 1_555
N2 H1 1_555 1_555
N3 C18 1_555 1_555
C2 C3 1_555 1_555
C3 C12 1_555 1_555
C4 H2 1_555 1_555
C5 S1 1_555 1_555
C6 C1 1_555 1_555
N4 C7 1_555 1_555
C7 N1 1_555 1_555
H3 C7 1_555 1_555
C8 N2 1_555 1_555
C9 C8 1_555 1_555
H4 C9 1_555 1_555
C10 N1 1_555 1_555
C11 C8 1_555 1_555
H5 C11 1_555 1_555
C12 C4 1_555 1_555
C13 C6 1_555 1_555
H6 C13 1_555 1_555
C14 C13 1_555 1_555
H7 C14 1_555 1_555
C15 C17 1_555 1_555
C16 C12 1_555 1_555
H8 C16 1_555 1_555
C17 C16 1_555 1_555
H9 C17 1_555 1_555
C18 N4 1_555 1_555
H10 C18 1_555 1_555
C19 C6 1_555 1_555
H11 C19 1_555 1_555
C20 C11 1_555 1_555
H12 C20 1_555 1_555
C21 C4 1_555 1_555
H13 C21 1_555 1_555
C22 C20 1_555 1_555
H14 C22 1_555 1_555
C23 C19 1_555 1_555
H15 C23 1_555 1_555
C24 C9 1_555 1_555
H16 C24 1_555 1_555
C25 C14 1_555 1_555
H17 C25 1_555 1_555
C1 C10 1_555 1_555
N2 C5 1_555 1_555
C5 C10 1_555 1_555
C15 C21 1_555 1_555
C22 C24 1_555 1_555
C23 C25 1_555 1_555

#END
