
#######################################################################
#
#                 Cambridge Crystallographic Data Centre
#                                CCDC 
#
#######################################################################
#
# If this CIF has been generated from an entry in the Cambridge 
# Structural Database, then it will include bibliographic, chemical, 
# crystal, experimental, refinement or atomic coordinate data resulting 
# from the CCDC's data processing and validation procedures.
#
#######################################################################

data_SAGYAC
_chemical_formula_moiety         'C13 H10 N1 1+,C7 H4 N1 O4 1-'
_chemical_name_systematic        
'Acridin-10-ium 6-carboxypyridine-2-carboxylate'
_symmetry_cell_setting           monoclinic
_symmetry_space_group_name_H-M   'C 2/c'
_symmetry_Int_Tables_number      15
_space_group_name_Hall           '-C 2yn'
loop_
_symmetry_equiv_pos_site_id
_symmetry_equiv_pos_as_xyz
1 x,y,z
2 -x,y,1/2-z
3 1/2+x,1/2+y,z
4 1/2-x,1/2+y,1/2-z
5 -x,-y,-z
6 x,-y,1/2+z
7 1/2-x,1/2-y,-z
8 1/2+x,1/2-y,1/2+z
_cell_length_a                   16.6817(8)
_cell_length_b                   8.2872(4)
_cell_length_c                   23.7289(12)
_cell_angle_alpha                90
_cell_angle_beta                 105.5820(10)
_cell_angle_gamma                90
_cell_volume                     3159.83
_exptl_crystal_colour            yellow
_exptl_crystal_description       block
_cell_formula_units_Z            8
_exptl_crystal_recrystallization_method water
loop_
_atom_site_label
_atom_site_type_symbol
_atom_site_fract_x
_atom_site_fract_y
_atom_site_fract_z
N1 N -0.04881(10) 0.2361(2) -0.00985(7)
H1 H -0.1001 0.2338 -0.0367
C1 C -0.04063(12) 0.1529(2) 0.04054(9)
C2 C -0.11101(13) 0.0861(3) 0.05417(10)
H2 H -0.1648 0.0986 0.0280
C3 C -0.10107(14) 0.0039(3) 0.10497(10)
H3 H -0.1486 -0.0397 0.1143
C4 C -0.02137(14) -0.0185(3) 0.14456(10)
H4 H -0.0161 -0.0766 0.1799
C5 C 0.04717(14) 0.0427(3) 0.13213(9)
H5 H 0.1005 0.0258 0.1584
C6 C 0.03965(13) 0.1322(3) 0.07986(9)
C7 C 0.10755(13) 0.2029(3) 0.06581(9)
H6 H 0.1617 0.1884 0.0912
C8 C 0.09735(12) 0.2943(3) 0.01523(9)
C9 C 0.16393(14) 0.3735(3) -0.00016(10)
H7 H 0.2183 0.3690 0.0257
C10 C 0.15110(15) 0.4556(3) -0.05128(11)
H8 H 0.1965 0.5060 -0.0613
C11 C 0.07003(14) 0.4662(3) -0.08980(10)
H9 H 0.0618 0.5243 -0.1254
C12 C 0.00364(14) 0.3949(3) -0.07683(9)
H10 H -0.0504 0.4037 -0.1029
C13 C 0.01634(12) 0.3078(2) -0.02393(9)
O1 O 0.24957(9) 0.82325(18) 0.32785(7)
H11 H 0.2533 0.9241 0.3311
O2 O 0.13288(10) 0.87006(19) 0.25747(7)
O3 O 0.30738(9) 0.32253(19) 0.41697(7)
O4 O 0.29134(9) 0.11156(19) 0.35743(7)
N2 N 0.22360(10) 0.5100(2) 0.32603(7)
C14 C 0.17072(12) 0.5985(3) 0.28554(9)
C15 C 0.10598(13) 0.5332(3) 0.24202(10)
H12 H 0.0686 0.6007 0.2148
C16 C 0.09746(14) 0.3678(3) 0.23931(10)
H13 H 0.0540 0.3192 0.2099
C17 C 0.15273(13) 0.2735(3) 0.27968(9)
H14 H 0.1489 0.1591 0.2779
C18 C 0.21413(12) 0.3490(2) 0.32294(9)
C19 C 0.18181(13) 0.7786(3) 0.28826(9)
C20 C 0.27569(12) 0.2525(3) 0.36928(10)
loop_
_geom_bond_atom_site_label_1
_geom_bond_atom_site_label_2
_geom_bond_site_symmetry_1
_geom_bond_site_symmetry_2
N1 H1 1_555 1_555
C1 N1 1_555 1_555
C2 C1 1_555 1_555
H2 C2 1_555 1_555
C3 C2 1_555 1_555
H3 C3 1_555 1_555
C4 C3 1_555 1_555
H4 C4 1_555 1_555
C5 C4 1_555 1_555
H5 C5 1_555 1_555
C6 C1 1_555 1_555
C7 C6 1_555 1_555
H6 C7 1_555 1_555
C8 C7 1_555 1_555
C9 C8 1_555 1_555
H7 C9 1_555 1_555
C10 C9 1_555 1_555
H8 C10 1_555 1_555
C11 C10 1_555 1_555
H9 C11 1_555 1_555
C12 C11 1_555 1_555
H10 C12 1_555 1_555
C13 N1 1_555 1_555
O1 H11 1_555 1_555
O2 C19 1_555 1_555
O3 C20 1_555 1_555
O4 C20 1_555 1_555
N2 C14 1_555 1_555
C14 C15 1_555 1_555
C15 H12 1_555 1_555
C16 C15 1_555 1_555
H13 C16 1_555 1_555
C17 C16 1_555 1_555
H14 C17 1_555 1_555
C18 N2 1_555 1_555
C19 O1 1_555 1_555
C20 C18 1_555 1_555
C5 C6 1_555 1_555
C8 C13 1_555 1_555
C12 C13 1_555 1_555
C14 C19 1_555 1_555
C17 C18 1_555 1_555

#END
