
#######################################################################
#
#                 Cambridge Crystallographic Data Centre
#                                CCDC 
#
#######################################################################
#
# If this CIF has been generated from an entry in the Cambridge 
# Structural Database, then it will include bibliographic, chemical, 
# crystal, experimental, refinement or atomic coordinate data resulting 
# from the CCDC's data processing and validation procedures.
#
#######################################################################

data_SAGZOS
_chemical_formula_moiety         'C27 H19 N1 O2 S1'
_chemical_name_systematic        
'9-phenyl-8b,9-dihydrobenzo[3,4]cyclobuta[1,2-b][1,2]benzothiazolo[2,3-a]quinoline 15,15-dioxide'
_symmetry_cell_setting           monoclinic
_symmetry_space_group_name_H-M   'P 21/n'
_symmetry_Int_Tables_number      14
_space_group_name_Hall           '-P 2yn'
loop_
_symmetry_equiv_pos_site_id
_symmetry_equiv_pos_as_xyz
1 x,y,z
2 1/2-x,1/2+y,1/2-z
3 -x,-y,-z
4 1/2+x,1/2-y,1/2+z
_cell_length_a                   10.0183(4)
_cell_length_b                   15.5038(5)
_cell_length_c                   13.8062(5)
_cell_angle_alpha                90
_cell_angle_beta                 98.170(3)
_cell_angle_gamma                90
_cell_volume                     2122.64
_cell_formula_units_Z            4
loop_
_atom_site_label
_atom_site_type_symbol
_atom_site_fract_x
_atom_site_fract_y
_atom_site_fract_z
S1 S 0.02317(5) 0.23528(3) 0.22311(4)
O1 O -0.09936(14) 0.28244(11) 0.19903(12)
O2 O 0.03747(19) 0.16166(10) 0.16378(12)
N1 N 0.15317(15) 0.30008(9) 0.22843(11)
C1 C 0.05700(18) 0.20953(12) 0.34707(14)
C2 C -0.0211(2) 0.15747(14) 0.39837(16)
H1 H -0.1008 0.1329 0.3678
C3 C 0.0235(2) 0.14337(15) 0.49645(17)
H2 H -0.0277 0.1100 0.5334
C4 C 0.1447(2) 0.17887(13) 0.54003(15)
H3 H 0.1744 0.1679 0.6058
C5 C 0.22185(19) 0.23001(12) 0.48776(14)
H4 H 0.3034 0.2527 0.5176
C6 C 0.17597(17) 0.24710(11) 0.38990(13)
C7 C 0.24133(17) 0.30481(11) 0.32273(13)
C8 C 0.39195(18) 0.29405(11) 0.31881(13)
C9 C 0.4865(2) 0.23794(13) 0.29182(15)
H5 H 0.4639 0.1837 0.2658
C10 C 0.6179(2) 0.26834(14) 0.30631(17)
H6 H 0.6861 0.2333 0.2890
C11 C 0.6514(2) 0.34859(16) 0.34544(19)
H7 H 0.7414 0.3654 0.3550
C12 C 0.5546(2) 0.40489(15) 0.37091(18)
H8 H 0.5767 0.4593 0.3967
C13 C 0.42326(19) 0.37526(12) 0.35558(14)
C14 C 0.27815(18) 0.40072(11) 0.36035(14)
H9 H 0.2604 0.4104 0.4275
C15 C 0.22141(19) 0.47326(11) 0.29004(14)
H10 H 0.2882 0.5199 0.2976
C16 C 0.20511(18) 0.44604(11) 0.18359(13)
C17 C 0.2178(2) 0.50593(13) 0.11085(15)
H11 H 0.2471 0.5614 0.1284
C18 C 0.1880(2) 0.48511(14) 0.01311(16)
H12 H 0.1951 0.5268 -0.0343
C19 C 0.1476(2) 0.40281(14) -0.01437(15)
H13 H 0.1265 0.3891 -0.0803
C20 C 0.1386(2) 0.34043(13) 0.05611(14)
H14 H 0.1142 0.2842 0.0378
C21 C 0.16621(18) 0.36259(12) 0.15463(13)
C22 C 0.0916(2) 0.51067(11) 0.31876(14)
C23 C 0.0998(3) 0.56551(14) 0.39909(16)
H15 H 0.1836 0.5777 0.4347
C24 C -0.0148(3) 0.60217(17) 0.42678(19)
H16 H -0.0075 0.6383 0.4811
C25 C -0.1390(3) 0.58569(16) 0.37484(19)
H17 H -0.2158 0.6112 0.3929
C26 C -0.1489(2) 0.53122(14) 0.29598(19)
H18 H -0.2331 0.5192 0.2609
C27 C -0.0348(2) 0.49376(13) 0.26781(17)
H19 H -0.0433 0.4569 0.2141
loop_
_geom_bond_atom_site_label_1
_geom_bond_atom_site_label_2
_geom_bond_site_symmetry_1
_geom_bond_site_symmetry_2
S1 O1 1_555 1_555
O2 S1 1_555 1_555
N1 S1 1_555 1_555
C1 S1 1_555 1_555
C2 C1 1_555 1_555
H1 C2 1_555 1_555
C3 C2 1_555 1_555
H2 C3 1_555 1_555
C4 C3 1_555 1_555
H3 C4 1_555 1_555
C5 C4 1_555 1_555
H4 C5 1_555 1_555
C6 C1 1_555 1_555
C7 N1 1_555 1_555
C8 C7 1_555 1_555
C9 C8 1_555 1_555
H5 C9 1_555 1_555
C10 C9 1_555 1_555
H6 C10 1_555 1_555
C11 C10 1_555 1_555
H7 C11 1_555 1_555
C12 C11 1_555 1_555
H8 C12 1_555 1_555
C13 C8 1_555 1_555
C14 C7 1_555 1_555
H9 C14 1_555 1_555
C15 C14 1_555 1_555
H10 C15 1_555 1_555
C16 C15 1_555 1_555
C17 C16 1_555 1_555
H11 C17 1_555 1_555
C18 C17 1_555 1_555
H12 C18 1_555 1_555
C19 C18 1_555 1_555
H13 C19 1_555 1_555
C20 C19 1_555 1_555
H14 C20 1_555 1_555
C21 N1 1_555 1_555
C22 C15 1_555 1_555
C23 C22 1_555 1_555
H15 C23 1_555 1_555
C24 C23 1_555 1_555
H16 C24 1_555 1_555
C25 C24 1_555 1_555
H17 C25 1_555 1_555
C26 C25 1_555 1_555
H18 C26 1_555 1_555
C27 C22 1_555 1_555
H19 C27 1_555 1_555
C5 C6 1_555 1_555
C6 C7 1_555 1_555
C12 C13 1_555 1_555
C13 C14 1_555 1_555
C16 C21 1_555 1_555
C20 C21 1_555 1_555
C26 C27 1_555 1_555

#END
