
#######################################################################
#
#                 Cambridge Crystallographic Data Centre
#                                CCDC 
#
#######################################################################
#
# If this CIF has been generated from an entry in the Cambridge 
# Structural Database, then it will include bibliographic, chemical, 
# crystal, experimental, refinement or atomic coordinate data resulting 
# from the CCDC's data processing and validation procedures.
#
#######################################################################

data_SAHBEK
_chemical_formula_moiety         'C8 H7 N3 O5'
_chemical_name_systematic        N-Methyl-3,5-dinitrobenzamide
_symmetry_cell_setting           orthorhombic
_symmetry_space_group_name_H-M   'P b c a'
_symmetry_Int_Tables_number      61
_space_group_name_Hall           '-P 2ac 2ab'
loop_
_symmetry_equiv_pos_site_id
_symmetry_equiv_pos_as_xyz
1 x,y,z
2 1/2-x,-y,1/2+z
3 -x,1/2+y,1/2-z
4 1/2+x,1/2-y,-z
5 -x,-y,-z
6 1/2+x,y,1/2-z
7 x,1/2-y,1/2+z
8 1/2-x,1/2+y,z
_cell_length_a                   10.716(2)
_cell_length_b                   10.057(2)
_cell_length_c                   36.101(7)
_cell_angle_alpha                90
_cell_angle_beta                 90
_cell_angle_gamma                90
_cell_volume                     3890.63
_exptl_crystal_colour            yellow
_exptl_crystal_description       block
_cell_formula_units_Z            16
loop_
_atom_site_label
_atom_site_type_symbol
_atom_site_fract_x
_atom_site_fract_y
_atom_site_fract_z
N1 N 1.1588(3) 0.7222(4) 0.65015(10)
C1 C 0.9707(3) 0.8426(4) 0.67035(11)
H1 H 0.9221 0.7795 0.6582
O1 O 1.0927(3) 0.6404(3) 0.63547(10)
O2 O 1.2734(2) 0.7187(3) 0.64960(8)
C2 C 1.0989(3) 0.8326(4) 0.67030(11)
N2 N 1.1949(4) 1.1247(4) 0.72609(10)
N3 N 0.7009(3) 0.8718(3) 0.68582(10)
H2 H 0.7314 0.7927 0.6850
O3 O 1.3077(3) 1.1073(3) 0.72618(9)
C3 C 1.1751(3) 0.9227(4) 0.68860(12)
H3 H 1.2616 0.9148 0.6885
O4 O 1.1423(3) 1.2198(3) 0.74015(10)
C4 C 1.1155(3) 1.0243(4) 0.70688(12)
O5 O 0.7395(2) 1.0907(2) 0.68914(9)
C5 C 0.9889(3) 1.0400(4) 0.70711(11)
H4 H 0.9527 1.1114 0.7194
C6 C 0.9151(3) 0.9481(3) 0.68874(10)
C7 C 0.7776(3) 0.9749(4) 0.68801(11)
C8 C 0.5670(3) 0.8895(4) 0.68472(14)
H5 H 0.5272 0.8042 0.6832
H6 H 0.5450 0.9416 0.6634
H7 H 0.5401 0.9344 0.7068
O6 O 0.3317(3) 0.2716(3) 0.39302(10)
O7 O 0.1844(3) 0.1345(4) 0.40663(10)
O8 O 0.2726(3) -0.2445(4) 0.48397(10)
O9 O 0.4620(4) -0.2891(4) 0.49911(11)
O10 O 0.7598(2) 0.1750(2) 0.42863(8)
N4 N 0.2939(3) 0.1676(4) 0.40662(11)
N5 N 0.3840(4) -0.2228(4) 0.48302(11)
N6 N 0.8109(3) -0.0414(3) 0.43239(9)
H8 H 0.7843 -0.1212 0.4356
C9 C 0.5097(3) 0.1061(4) 0.42133(11)
H9 H 0.5364 0.1806 0.4083
C10 C 0.3841(3) 0.0788(4) 0.42467(12)
C11 C 0.3408(4) -0.0288(4) 0.44465(12)
H10 H 0.2558 -0.0460 0.4469
C12 C 0.4279(3) -0.1087(4) 0.46088(11)
C13 C 0.5549(3) -0.0875(3) 0.45744(11)
H11 H 0.6116 -0.1457 0.4683
C14 C 0.5960(3) 0.0213(3) 0.43772(11)
C15 C 0.7307(3) 0.0574(3) 0.43282(11)
C16 C 0.9431(3) -0.0190(4) 0.42662(15)
H12 H 0.9863 -0.1025 0.4270
H13 H 0.9748 0.0372 0.4460
H14 H 0.9557 0.0234 0.4031
loop_
_geom_bond_atom_site_label_1
_geom_bond_atom_site_label_2
_geom_bond_site_symmetry_1
_geom_bond_site_symmetry_2
N1 O1 1_555 1_555
C1 H1 1_555 1_555
O2 N1 1_555 1_555
C2 N1 1_555 1_555
N2 O3 1_555 1_555
N3 H2 1_555 1_555
C3 C2 1_555 1_555
H3 C3 1_555 1_555
O4 N2 1_555 1_555
C4 N2 1_555 1_555
O5 C7 1_555 1_555
C5 C4 1_555 1_555
H4 C5 1_555 1_555
C6 C1 1_555 1_555
C7 N3 1_555 1_555
C8 N3 1_555 1_555
H5 C8 1_555 1_555
H6 C8 1_555 1_555
H7 C8 1_555 1_555
O6 N4 1_555 1_555
O7 N4 1_555 1_555
O8 N5 1_555 1_555
O9 N5 1_555 1_555
O10 C15 1_555 1_555
N4 C10 1_555 1_555
N5 C12 1_555 1_555
N6 H8 1_555 1_555
C9 H9 1_555 1_555
C10 C9 1_555 1_555
C11 C10 1_555 1_555
H10 C11 1_555 1_555
C12 C11 1_555 1_555
C13 C12 1_555 1_555
H11 C13 1_555 1_555
C14 C9 1_555 1_555
C15 N6 1_555 1_555
C16 N6 1_555 1_555
H12 C16 1_555 1_555
H13 C16 1_555 1_555
H14 C16 1_555 1_555
C1 C2 1_555 1_555
C3 C4 1_555 1_555
C5 C6 1_555 1_555
C6 C7 1_555 1_555
C13 C14 1_555 1_555
C14 C15 1_555 1_555

#END
