
#######################################################################
#
#                 Cambridge Crystallographic Data Centre
#                                CCDC 
#
#######################################################################
#
# If this CIF has been generated from an entry in the Cambridge 
# Structural Database, then it will include bibliographic, chemical, 
# crystal, experimental, refinement or atomic coordinate data resulting 
# from the CCDC's data processing and validation procedures.
#
#######################################################################

data_SAHBIO
_chemical_formula_moiety         'C40 H32 N2'
_chemical_name_systematic        
(E)-N-((E)-2-[(3,5-Dimethylbiphenyl-4-yl)imino]acenaphthen-1-ylidene)-2,6-dimethyl-4-phenylaniline
_symmetry_cell_setting           monoclinic
_symmetry_space_group_name_H-M   'C 2/c'
_symmetry_Int_Tables_number      15
_space_group_name_Hall           '-C 2yn'
loop_
_symmetry_equiv_pos_site_id
_symmetry_equiv_pos_as_xyz
1 x,y,z
2 -x,y,1/2-z
3 1/2+x,1/2+y,z
4 1/2-x,1/2+y,1/2-z
5 -x,-y,-z
6 x,-y,1/2+z
7 1/2-x,1/2-y,-z
8 1/2+x,1/2-y,1/2+z
_cell_length_a                   22.994(14)
_cell_length_b                   8.676(5)
_cell_length_c                   18.652(18)
_cell_angle_alpha                90
_cell_angle_beta                 124.084(4)
_cell_angle_gamma                90
_cell_volume                     3081.79
_exptl_crystal_colour            red
_exptl_crystal_description       block
_cell_formula_units_Z            4
_exptl_crystal_recrystallization_method cyclohexane/dichloromethane
loop_
_atom_site_label
_atom_site_type_symbol
_atom_site_fract_x
_atom_site_fract_y
_atom_site_fract_z
C1 C 0.2760(2) 0.8437(6) 0.7549(2)
H1 H 0.2411 0.7699 0.7368
C2 C 0.3295(3) 0.8543(8) 0.8419(3)
H2 H 0.3303 0.7877 0.8815
C3 C 0.3807(3) 0.9614(9) 0.8696(3)
H3 H 0.4158 0.9705 0.9283
C4 C 0.3807(2) 1.0559(8) 0.8112(4)
H4 H 0.4165 1.1278 0.8300
C5 C 0.3271(2) 1.0452(6) 0.7229(3)
H5 H 0.3277 1.1089 0.6832
C6 C 0.27359(18) 0.9396(5) 0.6951(2)
C7 C 0.21565(18) 0.9254(4) 0.6012(2)
C8 C 0.22787(19) 0.9461(4) 0.5373(2)
H6 H 0.2729 0.9726 0.5534
C9 C 0.1758(2) 0.9289(4) 0.4504(2)
C10 C 0.10860(19) 0.8859(3) 0.42739(19)
C11 C 0.09402(17) 0.8687(4) 0.4894(2)
C12 C 0.14776(18) 0.8885(4) 0.5757(2)
H7 H 0.1382 0.8768 0.6177
C13 C 0.02861(17) 0.7530(3) 0.29823(18)
C14 C 0.04351(15) 0.5886(3) 0.32523(18)
C15 C 0.0000 0.5015(4) 0.2500
C16 C 0.0000 0.3396(5) 0.2500
C17 C 0.0457(2) 0.2681(4) 0.3300(2)
H8 H 0.0476 0.1610 0.3334
C18 C 0.08782(19) 0.3537(4) 0.4034(2)
H9 H 0.1177 0.3028 0.4555
C19 C 0.08738(16) 0.5154(3) 0.4025(2)
H10 H 0.1162 0.5712 0.4532
C20 C 0.1907(3) 0.9524(5) 0.3822(2)
H11 H 0.2376 0.9908 0.4088
H12 H 0.1579 1.0253 0.3402
H13 H 0.1861 0.8559 0.3542
C21 C 0.02117(19) 0.8275(5) 0.4649(3)
H14 H -0.0123 0.8974 0.4212
H15 H 0.0194 0.8350 0.5151
H16 H 0.0101 0.7240 0.4430
N1 N 0.05454(16) 0.8787(3) 0.33777(16)
C1A C -0.2760(2) 0.8437(6) -0.2549(2)
H1A H -0.2411 0.7699 -0.2368
C2A C -0.3295(3) 0.8543(8) -0.3419(3)
H2A H -0.3303 0.7877 -0.3815
C3A C -0.3807(3) 0.9614(9) -0.3696(3)
H3A H -0.4158 0.9705 -0.4283
C4A C -0.3807(2) 1.0559(8) -0.3112(4)
H4A H -0.4165 1.1278 -0.3300
C5A C -0.3271(2) 1.0452(6) -0.2229(3)
H5A H -0.3277 1.1089 -0.1832
C6A C -0.27359(18) 0.9396(5) -0.1951(2)
C7A C -0.21565(18) 0.9254(4) -0.1012(2)
C8A C -0.22787(19) 0.9461(4) -0.0373(2)
H6A H -0.2729 0.9726 -0.0534
C9A C -0.1758(2) 0.9289(4) 0.0496(2)
C10A C -0.10860(19) 0.8859(3) 0.07261(19)
C11A C -0.09402(17) 0.8687(4) 0.0106(2)
C12A C -0.14776(18) 0.8885(4) -0.0757(2)
H7A H -0.1382 0.8768 -0.1177
C13A C -0.02861(17) 0.7530(3) 0.20177(18)
C14A C -0.04351(15) 0.5886(3) 0.17477(18)
C17A C -0.0457(2) 0.2681(4) 0.1700(2)
H8A H -0.0476 0.1610 0.1666
C18A C -0.08782(19) 0.3537(4) 0.0966(2)
H9A H -0.1177 0.3028 0.0445
C19A C -0.08738(16) 0.5154(3) 0.0975(2)
H10A H -0.1162 0.5712 0.0468
C20A C -0.1907(3) 0.9524(5) 0.1178(2)
H11A H -0.2376 0.9908 0.0912
H12A H -0.1579 1.0253 0.1598
H13A H -0.1861 0.8559 0.1458
C21A C -0.02117(19) 0.8275(5) 0.0351(3)
H14A H 0.0123 0.8974 0.0788
H15A H -0.0194 0.8350 -0.0151
H16A H -0.0101 0.7240 0.0570
N1A N -0.05454(16) 0.8787(3) 0.16223(16)
loop_
_geom_bond_atom_site_label_1
_geom_bond_atom_site_label_2
_geom_bond_site_symmetry_1
_geom_bond_site_symmetry_2
C1 H1 1_555 1_555
C2 C1 1_555 1_555
H2 C2 1_555 1_555
C3 C2 1_555 1_555
H3 C3 1_555 1_555
C4 C3 1_555 1_555
H4 C4 1_555 1_555
C5 C4 1_555 1_555
H5 C5 1_555 1_555
C6 C1 1_555 1_555
C7 C6 1_555 1_555
C8 C7 1_555 1_555
H6 C8 1_555 1_555
C9 C8 1_555 1_555
C10 C9 1_555 1_555
C11 C10 1_555 1_555
C12 C7 1_555 1_555
H7 C12 1_555 1_555
C13 C14 1_555 1_555
C14 C15 1_555 1_555
C15 C16 1_555 1_555
C16 C17 1_555 1_555
C17 H8 1_555 1_555
C18 C17 1_555 1_555
H9 C18 1_555 1_555
C19 C14 1_555 1_555
H10 C19 1_555 1_555
C20 C9 1_555 1_555
H11 C20 1_555 1_555
H12 C20 1_555 1_555
H13 C20 1_555 1_555
C21 C11 1_555 1_555
H14 C21 1_555 1_555
H15 C21 1_555 1_555
H16 C21 1_555 1_555
N1 C10 1_555 1_555
C1A H1A 1_555 1_555
C2A C1A 1_555 1_555
H2A C2A 1_555 1_555
C3A C2A 1_555 1_555
H3A C3A 1_555 1_555
C4A C3A 1_555 1_555
H4A C4A 1_555 1_555
C5A C4A 1_555 1_555
H5A C5A 1_555 1_555
C6A C1A 1_555 1_555
C7A C6A 1_555 1_555
C8A C7A 1_555 1_555
H6A C8A 1_555 1_555
C9A C8A 1_555 1_555
C10A C9A 1_555 1_555
C11A C10A 1_555 1_555
C12A C7A 1_555 1_555
H7A C12A 1_555 1_555
C13A C13 1_555 1_555
C14A C15 1_555 1_555
C17A C16 1_555 1_555
H8A C17A 1_555 1_555
C18A C17A 1_555 1_555
H9A C18A 1_555 1_555
C19A C14A 1_555 1_555
H10A C19A 1_555 1_555
C20A C9A 1_555 1_555
H11A C20A 1_555 1_555
H12A C20A 1_555 1_555
H13A C20A 1_555 1_555
C21A C11A 1_555 1_555
H14A C21A 1_555 1_555
H15A C21A 1_555 1_555
H16A C21A 1_555 1_555
N1A C10A 1_555 1_555
C5 C6 1_555 1_555
C11 C12 1_555 1_555
C13 N1 1_555 1_555
C18 C19 1_555 1_555
C5A C6A 1_555 1_555
C11A C12A 1_555 1_555
C13A C14A 1_555 1_555
C13A N1A 1_555 1_555
C18A C19A 1_555 1_555

#END
