
#######################################################################
#
#                 Cambridge Crystallographic Data Centre
#                                CCDC 
#
#######################################################################
#
# If this CIF has been generated from an entry in the Cambridge 
# Structural Database, then it will include bibliographic, chemical, 
# crystal, experimental, refinement or atomic coordinate data resulting 
# from the CCDC's data processing and validation procedures.
#
#######################################################################

data_SAHDEM
_chemical_formula_moiety         'C11 H10 O6 2-,C2 H10 N2 2+'
_chemical_name_systematic        
'Ethane-1,2-diaminium (R)-2-[4-(1-carboxylatoethoxy)phenoxy]acetate'
_symmetry_cell_setting           monoclinic
_symmetry_space_group_name_H-M   'P 21'
_symmetry_Int_Tables_number      4
_space_group_name_Hall           'P 2yb'
loop_
_symmetry_equiv_pos_site_id
_symmetry_equiv_pos_as_xyz
1 x,y,z
2 -x,1/2+y,-z
_cell_length_a                   10.066(2)
_cell_length_b                   6.7887(14)
_cell_length_c                   11.050(2)
_cell_angle_alpha                90
_cell_angle_beta                 99.30(3)
_cell_angle_gamma                90
_cell_volume                     745.177
_exptl_crystal_colour            colorless
_exptl_crystal_description       needle
_cell_formula_units_Z            2
loop_
_atom_site_label
_atom_site_type_symbol
_atom_site_fract_x
_atom_site_fract_y
_atom_site_fract_z
C1 C 0.2605(4) 0.7401(6) 0.3560(4)
C2 C 0.3465(5) 0.8903(5) 0.3366(4)
H1 H 0.3145 1.0187 0.3261
C3 C 0.4808(4) 0.8504(6) 0.3325(4)
H2 H 0.5387 0.9525 0.3199
C4 C 0.5296(4) 0.6592(6) 0.3471(4)
C5 C 0.4409(4) 0.5082(6) 0.3668(4)
H3 H 0.4718 0.3790 0.3761
C6 C 0.3102(5) 0.5494(6) 0.3723(4)
H4 H 0.2528 0.4481 0.3872
C7 C 0.0731(4) 0.9589(6) 0.3553(4)
H5 H 0.1321 1.0400 0.4148
C8 C 0.0612(4) 1.0535(6) 0.2292(4)
C9 C -0.0588(6) 0.9415(10) 0.3946(6)
H6 H -0.0492 0.8721 0.4712
H7 H -0.1191 0.8704 0.3337
H8 H -0.0945 1.0705 0.4045
C10 C 0.7100(5) 0.4428(7) 0.3237(4)
H9 H 0.6920 0.3635 0.3922
H10 H 0.8068 0.4469 0.3267
C11 C 0.6471(4) 0.3445(6) 0.2061(4)
O1 O 0.1245(3) 0.7630(4) 0.3592(3)
O2 O 0.0518(4) 1.2367(4) 0.2264(3)
O3 O 0.0581(3) 0.9464(4) 0.1361(3)
O4 O 0.6629(3) 0.6369(4) 0.3379(3)
O5 O 0.5970(3) 0.4524(4) 0.1170(3)
O6 O 0.6516(4) 0.1649(5) 0.2056(3)
C12 C 0.2339(4) 0.5461(6) 0.0488(4)
H11 H 0.3012 0.5738 0.1200
H12 H 0.2407 0.6461 -0.0126
C13 C 0.2592(4) 0.3446(6) -0.0019(4)
H13 H 0.2658 0.2478 0.0634
H14 H 0.1838 0.3085 -0.0642
N1 N 0.0972(3) 0.5515(5) 0.0840(3)
H15 H 0.025(3) 0.541(8) 0.024(3)
H16 H 0.086(5) 0.678(3) 0.106(4)
H17 H 0.066(4) 0.455(5) 0.128(4)
N2 N 0.3835(4) 0.3422(5) -0.0555(3)
H18 H 0.446(4) 0.367(8) 0.010(3)
H19 H 0.392(5) 0.237(5) -0.103(4)
H20 H 0.369(5) 0.441(5) -0.111(4)
loop_
_geom_bond_atom_site_label_1
_geom_bond_atom_site_label_2
_geom_bond_site_symmetry_1
_geom_bond_site_symmetry_2
C1 C2 1_555 1_555
C2 H1 1_555 1_555
C3 C2 1_555 1_555
H2 C3 1_555 1_555
C4 C3 1_555 1_555
C5 C4 1_555 1_555
H3 C5 1_555 1_555
C6 C1 1_555 1_555
H4 C6 1_555 1_555
C7 H5 1_555 1_555
C8 C7 1_555 1_555
C9 C7 1_555 1_555
H6 C9 1_555 1_555
H7 C9 1_555 1_555
H8 C9 1_555 1_555
C10 H9 1_555 1_555
H10 C10 1_555 1_555
C11 C10 1_555 1_555
C12 H11 1_555 1_555
H12 C12 1_555 1_555
C13 C12 1_555 1_555
H13 C13 1_555 1_555
H14 C13 1_555 1_555
N1 C12 1_555 1_555
H15 N1 1_555 1_555
H16 N1 1_555 1_555
H17 N1 1_555 1_555
N2 C13 1_555 1_555
H18 N2 1_555 1_555
H19 N2 1_555 1_555
H20 N2 1_555 1_555
O1 C1 1_555 1_555
O2 C8 1_555 1_555
O3 C8 1_555 1_555
O4 C4 1_555 1_555
O5 C11 1_555 1_555
O6 C11 1_555 1_555
C5 C6 1_555 1_555
C7 O1 1_555 1_555
C10 O4 1_555 1_555

#END
