
#######################################################################
#
#                 Cambridge Crystallographic Data Centre
#                                CCDC 
#
#######################################################################
#
# If this CIF has been generated from an entry in the Cambridge 
# Structural Database, then it will include bibliographic, chemical, 
# crystal, experimental, refinement or atomic coordinate data resulting 
# from the CCDC's data processing and validation procedures.
#
#######################################################################

data_SAHDUC
_chemical_formula_moiety         'C15 H17 N3 O3'
_chemical_name_systematic        
N-(4,6-Dimethoxypyrimidin-2-yl)-2-(3-methylphenyl)acetamide
_symmetry_cell_setting           triclinic
_symmetry_space_group_name_H-M   'P -1'
_symmetry_Int_Tables_number      2
_space_group_name_Hall           '-P 1'
loop_
_symmetry_equiv_pos_site_id
_symmetry_equiv_pos_as_xyz
1 x,y,z
2 -x,-y,-z
_cell_length_a                   7.1536(6)
_cell_length_b                   8.2070(7)
_cell_length_c                   13.8259(10)
_cell_angle_alpha                74.420(7)
_cell_angle_beta                 86.540(6)
_cell_angle_gamma                69.186(8)
_cell_volume                     730.306
_exptl_crystal_colour            colorless
_exptl_crystal_description       chunk
_chemical_melting_point          '381-382 K'
_cell_formula_units_Z            2
_exptl_crystal_recrystallization_method ethanol
loop_
_atom_site_label
_atom_site_type_symbol
_atom_site_fract_x
_atom_site_fract_y
_atom_site_fract_z
O1 O 0.53082(13) 0.72818(11) -0.19967(6)
O2 O 0.68411(13) 0.78056(10) 0.11132(7)
O3 O 1.08112(15) -0.05781(10) 0.12226(7)
N1 N 0.71599(12) 0.47480(11) -0.07942(6)
N2 N 0.79478(12) 0.50033(10) 0.08008(6)
N3 N 0.90035(13) 0.22301(11) 0.03696(7)
H1 H 0.902(2) 0.177(2) -0.0136(11)
C1 C 0.5650(2) 0.60945(19) -0.26389(9)
H2 H 0.7060 0.5570 -0.2723
H3 H 0.4987 0.6768 -0.3282
H4 H 0.5130 0.5152 -0.2340
C2 C 0.61661(14) 0.65189(13) -0.10610(8)
C3 C 0.59691(16) 0.76447(13) -0.04444(8)
H5 H 0.5249 0.8880 -0.0642
C4 C 0.69324(15) 0.67809(13) 0.04902(8)
C5 C 0.79884(13) 0.40869(12) 0.01346(7)
C6 C 0.80040(19) 0.69559(16) 0.20397(9)
H6 H 0.7555 0.6020 0.2436
H7 H 0.7846 0.7839 0.2404
H8 H 0.9389 0.6440 0.1900
C7 C 0.99644(15) 0.09987(13) 0.12367(8)
C8 C 0.99476(16) 0.15771(13) 0.21836(8)
H9 H 1.0698 0.2384 0.2088
H10 H 0.8580 0.2239 0.2317
C9 C 1.08408(16) -0.00098(13) 0.30737(8)
C10 C 0.96179(18) -0.06648(14) 0.37637(8)
H11 H 0.8237 -0.0125 0.3662
C11 C 1.0405(2) -0.21160(16) 0.46093(9)
C12 C 1.2469(2) -0.28988(17) 0.47418(10)
H12 H 1.3028 -0.3863 0.5299
C13 C 1.3710(2) -0.22672(19) 0.40569(13)
H13 H 1.5091 -0.2811 0.4158
C14 C 1.29121(19) -0.08320(17) 0.32224(11)
H14 H 1.3754 -0.0418 0.2763
C15 C 0.9033(3) -0.2773(2) 0.53551(11)
H15 H 0.8517 -0.3510 0.5095
H16 H 0.7944 -0.1755 0.5467
H17 H 0.9765 -0.3474 0.5978
loop_
_geom_bond_atom_site_label_1
_geom_bond_atom_site_label_2
_geom_bond_site_symmetry_1
_geom_bond_site_symmetry_2
O1 C1 1_555 1_555
O2 C4 1_555 1_555
O3 C7 1_555 1_555
N1 C2 1_555 1_555
N2 C4 1_555 1_555
N3 H1 1_555 1_555
C1 H2 1_555 1_555
H3 C1 1_555 1_555
H4 C1 1_555 1_555
C2 O1 1_555 1_555
C3 C2 1_555 1_555
H5 C3 1_555 1_555
C4 C3 1_555 1_555
C5 N1 1_555 1_555
C6 O2 1_555 1_555
H6 C6 1_555 1_555
H7 C6 1_555 1_555
H8 C6 1_555 1_555
C7 N3 1_555 1_555
C8 C7 1_555 1_555
H9 C8 1_555 1_555
H10 C8 1_555 1_555
C9 C8 1_555 1_555
C10 C9 1_555 1_555
H11 C10 1_555 1_555
C11 C10 1_555 1_555
C12 C11 1_555 1_555
H12 C12 1_555 1_555
C13 C12 1_555 1_555
H13 C13 1_555 1_555
C14 C9 1_555 1_555
H14 C14 1_555 1_555
C15 C11 1_555 1_555
H15 C15 1_555 1_555
H16 C15 1_555 1_555
H17 C15 1_555 1_555
N2 C5 1_555 1_555
N3 C5 1_555 1_555
C13 C14 1_555 1_555

#END
