
#######################################################################
#
#                 Cambridge Crystallographic Data Centre
#                                CCDC 
#
#######################################################################
#
# If this CIF has been generated from an entry in the Cambridge 
# Structural Database, then it will include bibliographic, chemical, 
# crystal, experimental, refinement or atomic coordinate data resulting 
# from the CCDC's data processing and validation procedures.
#
#######################################################################

data_SAHHUG
_chemical_formula_moiety         'C21 H21 N1 O6'
_chemical_name_systematic        
(E)-2,2'-[3-(2-Nitrophenyl)prop-2-ene-1,1-diyl]bis(3-hydroxycyclohex-2-en-1-one)
_symmetry_cell_setting           monoclinic
_symmetry_space_group_name_H-M   'P 21/n'
_symmetry_Int_Tables_number      14
_space_group_name_Hall           '-P 2yn'
loop_
_symmetry_equiv_pos_site_id
_symmetry_equiv_pos_as_xyz
1 x,y,z
2 1/2-x,1/2+y,1/2-z
3 -x,-y,-z
4 1/2+x,1/2-y,1/2+z
_cell_length_a                   8.0785(7)
_cell_length_b                   8.7261(6)
_cell_length_c                   26.2616(17)
_cell_angle_alpha                90
_cell_angle_beta                 90.829(3)
_cell_angle_gamma                90
_cell_volume                     1851.09
_exptl_crystal_colour            colorless
_exptl_crystal_description       block
_cell_formula_units_Z            4
_exptl_crystal_recrystallization_method ethanol
loop_
_atom_site_label
_atom_site_type_symbol
_atom_site_fract_x
_atom_site_fract_y
_atom_site_fract_z
O1 O 0.45785(19) 0.22041(16) 0.07963(5)
O2 O 0.3744(3) 0.49657(15) 0.22975(5)
O3 O 0.4192(2) 0.24905(17) 0.28520(5)
O4 O 0.5653(3) -0.00381(17) 0.13489(6)
O5 O -0.1568(3) 0.3544(2) 0.09158(9)
O6 O -0.1984(3) 0.3325(3) 0.01141(8)
N1 N -0.1634(3) 0.2779(3) 0.05255(8)
C1 C 0.4594(3) 0.1130(2) 0.20880(7)
C2 C 0.5667(3) 0.0171(2) 0.18386(8)
C3 C 0.6980(3) -0.0716(3) 0.21168(10)
C4 C 0.6446(4) -0.1116(3) 0.26478(10)
C5 C 0.5914(4) 0.0305(3) 0.29310(9)
C6 C 0.4847(3) 0.1371(3) 0.26209(8)
C7 C 0.3883(3) 0.4839(3) 0.18035(8)
C8 C 0.4224(4) 0.6324(3) 0.15382(8)
C9 C 0.3716(4) 0.6286(3) 0.09916(9)
C10 C 0.4457(4) 0.4907(3) 0.07317(9)
C11 C 0.4256(3) 0.3441(3) 0.10290(8)
C12 C 0.3761(3) 0.3469(2) 0.15437(7)
C13 C 0.3217(3) 0.2019(2) 0.18202(7)
C14 C 0.2077(3) 0.0996(3) 0.15054(8)
C15 C 0.0903(3) 0.1434(3) 0.12109(10)
C16 C -0.0262(3) 0.0497(3) 0.09109(7)
C17 C -0.0204(3) -0.1105(3) 0.09304(8)
C18 C -0.1205(4) -0.2002(3) 0.06219(9)
C19 C -0.2285(4) -0.1343(3) 0.02791(9)
C20 C -0.2383(3) 0.0213(3) 0.02454(8)
C21 C -0.1403(3) 0.1105(3) 0.05629(7)
H1 H 0.3781 0.4112 0.2428
H2 H 0.5166 0.0675 0.1209
H3 H 0.7988 -0.0112 0.2135
H4 H 0.7217 -0.1649 0.1931
H5 H 0.5532 -0.1837 0.2630
H6 H 0.7356 -0.1603 0.2831
H7 H 0.5312 -0.0003 0.3231
H8 H 0.6895 0.0856 0.3045
H9 H 0.3632 0.7142 0.1708
H10 H 0.5398 0.6548 0.1564
H11 H 0.4083 0.7215 0.0825
H12 H 0.2518 0.6241 0.0964
H13 H 0.3936 0.4785 0.0399
H14 H 0.5627 0.5091 0.0680
H15 H 0.2523 0.2392 0.2097
H16 H 0.221(6) -0.001(4) 0.1592(14)
H17 H 0.083(5) 0.251(5) 0.1152(14)
H18 H 0.0529 -0.1577 0.1157
H19 H -0.1145 -0.3064 0.0647
H20 H -0.2949 -0.1956 0.0070
H21 H -0.3102 0.0670 0.0011
loop_
_geom_bond_atom_site_label_1
_geom_bond_atom_site_label_2
_geom_bond_site_symmetry_1
_geom_bond_site_symmetry_2
O1 C11 1_555 1_555
O2 C7 1_555 1_555
O3 C6 1_555 1_555
O4 C2 1_555 1_555
O5 N1 1_555 1_555
O6 N1 1_555 1_555
N1 C21 1_555 1_555
C1 C2 1_555 1_555
C2 C3 1_555 1_555
C3 C4 1_555 1_555
C4 C5 1_555 1_555
C5 C6 1_555 1_555
C6 C1 1_555 1_555
C7 C8 1_555 1_555
C8 C9 1_555 1_555
C9 C10 1_555 1_555
C10 C11 1_555 1_555
C11 C12 1_555 1_555
C12 C7 1_555 1_555
C13 C1 1_555 1_555
C14 C13 1_555 1_555
C15 C14 1_555 1_555
C16 C15 1_555 1_555
C17 C16 1_555 1_555
C18 C17 1_555 1_555
C19 C18 1_555 1_555
C20 C19 1_555 1_555
C21 C16 1_555 1_555
H1 O2 1_555 1_555
H2 O4 1_555 1_555
H3 C3 1_555 1_555
H4 C3 1_555 1_555
H5 C4 1_555 1_555
H6 C4 1_555 1_555
H7 C5 1_555 1_555
H8 C5 1_555 1_555
H9 C8 1_555 1_555
H10 C8 1_555 1_555
H11 C9 1_555 1_555
H12 C9 1_555 1_555
H13 C10 1_555 1_555
H14 C10 1_555 1_555
H15 C13 1_555 1_555
H16 C14 1_555 1_555
H17 C15 1_555 1_555
H18 C17 1_555 1_555
H19 C18 1_555 1_555
H20 C19 1_555 1_555
H21 C20 1_555 1_555
C12 C13 1_555 1_555
C20 C21 1_555 1_555

#END
