
#######################################################################
#
#                 Cambridge Crystallographic Data Centre
#                                CCDC 
#
#######################################################################
#
# If this CIF has been generated from an entry in the Cambridge 
# Structural Database, then it will include bibliographic, chemical, 
# crystal, experimental, refinement or atomic coordinate data resulting 
# from the CCDC's data processing and validation procedures.
#
#######################################################################

data_SAHJES
_chemical_formula_moiety         'C17 H10 O2'
_chemical_name_systematic        1-Hydroxy-11H-benzo[b]fluoren-11-one
_symmetry_cell_setting           monoclinic
_symmetry_space_group_name_H-M   'P 21/c'
_symmetry_Int_Tables_number      14
_space_group_name_Hall           '-P 2ybc'
loop_
_symmetry_equiv_pos_site_id
_symmetry_equiv_pos_as_xyz
1 x,y,z
2 -x,1/2+y,1/2-z
3 -x,-y,-z
4 x,1/2-y,1/2+z
_cell_length_a                   12.474(2)
_cell_length_b                   6.4401(12)
_cell_length_c                   15.601(3)
_cell_angle_alpha                90
_cell_angle_beta                 109.188(3)
_cell_angle_gamma                90
_cell_volume                     1183.66
_exptl_crystal_colour            yellow
_exptl_crystal_description       parallelepiped
_cell_formula_units_Z            4
_exptl_crystal_recrystallization_method chloroform
loop_
_atom_site_label
_atom_site_type_symbol
_atom_site_fract_x
_atom_site_fract_y
_atom_site_fract_z
O1 O 0.66186(16) -0.4250(3) 0.11797(12)
O2 O 0.88146(17) -0.3141(4) 0.24218(14)
H1 H 0.816(3) -0.412(6) 0.194(3)
C1 C 0.6346(2) -0.2548(4) 0.14017(15)
C2 C 0.52192(19) -0.1511(3) 0.10894(14)
C3 C 0.4220(2) -0.2150(4) 0.04737(15)
H2 H 0.4171 -0.3429 0.0187
C4 C 0.3259(2) -0.0847(4) 0.02760(14)
C5 C 0.2190(2) -0.1414(5) -0.03430(16)
H3 H 0.2111 -0.2688 -0.0638
C6 C 0.1281(2) -0.0144(6) -0.05160(18)
H4 H 0.0587 -0.0549 -0.0928
C7 C 0.1378(2) 0.1778(6) -0.00777(19)
H5 H 0.0747 0.2637 -0.0195
C8 C 0.2396(2) 0.2395(4) 0.05214(17)
H6 H 0.2452 0.3682 0.0803
C9 C 0.33640(19) 0.1115(4) 0.07200(14)
C10 C 0.4427(2) 0.1731(4) 0.13508(15)
H7 H 0.4497 0.3015 0.1637
C11 C 0.53325(19) 0.0456(3) 0.15340(14)
C12 C 0.65335(19) 0.0694(4) 0.21356(13)
C13 C 0.7106(2) 0.2252(4) 0.26996(16)
H8 H 0.6733 0.3451 0.2778
C14 C 0.8266(2) 0.1985(5) 0.31532(18)
H9 H 0.8664 0.3039 0.3533
C15 C 0.8842(2) 0.0228(5) 0.30603(18)
H10 H 0.9617 0.0115 0.3366
C16 C 0.8262(2) -0.1378(4) 0.25083(16)
C17 C 0.71100(19) -0.1116(4) 0.20486(14)
loop_
_geom_bond_atom_site_label_1
_geom_bond_atom_site_label_2
_geom_bond_site_symmetry_1
_geom_bond_site_symmetry_2
O1 C1 1_555 1_555
O2 H1 1_555 1_555
C1 C2 1_555 1_555
C2 C3 1_555 1_555
C3 H2 1_555 1_555
C4 C3 1_555 1_555
C5 C4 1_555 1_555
H3 C5 1_555 1_555
C6 C5 1_555 1_555
H4 C6 1_555 1_555
C7 C6 1_555 1_555
H5 C7 1_555 1_555
C8 C7 1_555 1_555
H6 C8 1_555 1_555
C9 C4 1_555 1_555
C10 C9 1_555 1_555
H7 C10 1_555 1_555
C11 C2 1_555 1_555
C12 C11 1_555 1_555
C13 C12 1_555 1_555
H8 C13 1_555 1_555
C14 C13 1_555 1_555
H9 C14 1_555 1_555
C15 C14 1_555 1_555
H10 C15 1_555 1_555
C16 O2 1_555 1_555
C17 C1 1_555 1_555
C8 C9 1_555 1_555
C10 C11 1_555 1_555
C12 C17 1_555 1_555
C15 C16 1_555 1_555
C16 C17 1_555 1_555

#END
