
#######################################################################
#
#                 Cambridge Crystallographic Data Centre
#                                CCDC 
#
#######################################################################
#
# If this CIF has been generated from an entry in the Cambridge 
# Structural Database, then it will include bibliographic, chemical, 
# crystal, experimental, refinement or atomic coordinate data resulting 
# from the CCDC's data processing and validation procedures.
#
#######################################################################

data_SAHKOE
_chemical_formula_moiety         'C18 H13 N3 S1'
_chemical_name_systematic        
((10-ethyl-10H-phenothiazin-3-yl)methylene)malononitrile
_symmetry_cell_setting           monoclinic
_symmetry_space_group_name_H-M   'P 21/c'
_symmetry_Int_Tables_number      14
_space_group_name_Hall           '-P 2ybc'
loop_
_symmetry_equiv_pos_site_id
_symmetry_equiv_pos_as_xyz
1 x,y,z
2 -x,1/2+y,1/2-z
3 -x,-y,-z
4 x,1/2-y,1/2+z
_cell_length_a                   7.4537(10)
_cell_length_b                   13.3750(18)
_cell_length_c                   15.031(2)
_cell_angle_alpha                90
_cell_angle_beta                 93.916(2)
_cell_angle_gamma                90
_cell_volume                     1494.99
_exptl_crystal_colour            red
_exptl_crystal_description       block
_cell_formula_units_Z            4
loop_
_atom_site_label
_atom_site_type_symbol
_atom_site_fract_x
_atom_site_fract_y
_atom_site_fract_z
N1 N 0.84297(16) 1.01654(8) 0.67406(8)
C1 C 0.80758(18) 0.91533(10) 0.66207(9)
C2 C 0.71824(19) 0.70998(10) 0.64029(9)
C3 C 0.8309(2) 1.06000(12) 0.91811(10)
H1 H 0.8430 1.0235 0.9709
C4 C 0.76933(18) 0.74973(10) 0.72482(9)
H2 H 0.7698 0.7086 0.7747
C5 C 0.7612(2) 0.87485(10) 0.57739(10)
H3 H 0.7584 0.9160 0.5275
C6 C 0.81864(18) 0.84823(10) 0.73496(9)
C7 C 0.7200(2) 0.77493(11) 0.56738(10)
H4 H 0.6925 0.7498 0.5104
C8 C 0.85020(19) 1.01228(10) 0.83736(10)
C9 C 0.6637(2) 0.60844(10) 0.62253(10)
H5 H 0.6333 0.5949 0.5627
C10 C 0.82461(18) 1.06465(10) 0.75699(9)
C11 C 0.64852(19) 0.52882(10) 0.67753(10)
C12 C 0.7941(2) 1.16081(13) 0.92095(12)
H6 H 0.7857 1.1930 0.9754
N2 N 0.5412(2) 0.35973(11) 0.61098(11)
C13 C 0.7820(2) 1.16597(11) 0.76140(10)
H7 H 0.7614 1.2022 0.7089
N3 N 0.7172(2) 0.52513(13) 0.84766(10)
C14 C 0.7699(2) 1.21351(12) 0.84235(11)
H8 H 0.7452 1.2816 0.8438
C15 C 0.5884(2) 0.43472(11) 0.64060(11)
C16 C 0.8527(2) 1.07938(11) 0.59428(10)
H9 H 0.9189 1.0434 0.5511
H10 H 0.9204 1.1393 0.6107
C17 C 0.6872(2) 0.52845(11) 0.77204(11)
C18 C 0.6714(3) 1.11028(12) 0.54987(12)
H11 H 0.5909 1.0542 0.5483
H12 H 0.6870 1.1324 0.4901
H13 H 0.6221 1.1637 0.5832
S1 S 0.92056(6) 0.88682(3) 0.83851(3)
loop_
_geom_bond_atom_site_label_1
_geom_bond_atom_site_label_2
_geom_bond_site_symmetry_1
_geom_bond_site_symmetry_2
N1 C1 1_555 1_555
C1 C5 1_555 1_555
C2 C4 1_555 1_555
C3 H1 1_555 1_555
C4 H2 1_555 1_555
C5 H3 1_555 1_555
C6 C1 1_555 1_555
C7 C2 1_555 1_555
H4 C7 1_555 1_555
C8 C3 1_555 1_555
C9 C2 1_555 1_555
H5 C9 1_555 1_555
C10 N1 1_555 1_555
C11 C9 1_555 1_555
C12 C3 1_555 1_555
H6 C12 1_555 1_555
N2 C15 1_555 1_555
C13 C10 1_555 1_555
H7 C13 1_555 1_555
N3 C17 1_555 1_555
C14 C12 1_555 1_555
H8 C14 1_555 1_555
C15 C11 1_555 1_555
C16 N1 1_555 1_555
H9 C16 1_555 1_555
H10 C16 1_555 1_555
C17 C11 1_555 1_555
C18 C16 1_555 1_555
H11 C18 1_555 1_555
H12 C18 1_555 1_555
H13 C18 1_555 1_555
S1 C6 1_555 1_555
C4 C6 1_555 1_555
C5 C7 1_555 1_555
C8 C10 1_555 1_555
C8 S1 1_555 1_555
C13 C14 1_555 1_555

#END
