
#######################################################################
#
#                 Cambridge Crystallographic Data Centre
#                                CCDC 
#
#######################################################################
#
# If this CIF has been generated from an entry in the Cambridge 
# Structural Database, then it will include bibliographic, chemical, 
# crystal, experimental, refinement or atomic coordinate data resulting 
# from the CCDC's data processing and validation procedures.
#
#######################################################################

data_SAHKIX
_chemical_formula_moiety         'C25 H24 N2 O3 S1'
_chemical_name_systematic        
'(Z)-Ethyl 2-(2,4-dimethylbenzylidene)-7-methyl-3-oxo-5-phenyl-3,5-dihydro-2H-thiazolo[3,2-a]pyrimidine-6-carboxylate'
_symmetry_cell_setting           monoclinic
_symmetry_space_group_name_H-M   'P 21/n'
_symmetry_Int_Tables_number      14
_space_group_name_Hall           '-P 2yn'
loop_
_symmetry_equiv_pos_site_id
_symmetry_equiv_pos_as_xyz
1 x,y,z
2 1/2-x,1/2+y,1/2-z
3 -x,-y,-z
4 1/2+x,1/2-y,1/2+z
_cell_length_a                   9.690(5)
_cell_length_b                   10.620(5)
_cell_length_c                   21.692(12)
_cell_angle_alpha                90
_cell_angle_beta                 90.682(10)
_cell_angle_gamma                90
_cell_volume                     2232.12
_exptl_crystal_colour            green
_exptl_crystal_description       prismatic
_cell_formula_units_Z            4
_exptl_crystal_recrystallization_method dichloromethane/methanol
loop_
_atom_site_label
_atom_site_type_symbol
_atom_site_fract_x
_atom_site_fract_y
_atom_site_fract_z
S1 S 0.39630(6) 0.68577(5) 1.02581(2)
N1 N 0.51571(17) 0.71961(14) 0.92082(7)
N2 N 0.58867(19) 0.85690(16) 1.00033(8)
O1 O 0.43929(16) 0.55550(13) 0.86185(6)
O2 O 0.8683(2) 1.0158(2) 0.86481(10)
O3 O 0.78414(18) 0.86963(17) 0.80152(7)
C1 C 0.4398(2) 0.61190(18) 0.91047(9)
C2 C 0.3609(2) 0.57762(18) 0.96664(9)
C3 C 0.5139(2) 0.76745(18) 0.97952(9)
C4 C 0.6868(2) 0.90740(19) 0.95937(10)
C5 C 0.6901(2) 0.87651(19) 0.89920(10)
C6 C 0.5836(2) 0.78885(18) 0.87051(9)
H1 H 0.6312 0.7281 0.8442
C7 C 0.4768(2) 0.8581(2) 0.83166(9)
C8 C 0.4347(3) 0.8122(2) 0.77469(10)
H2 H 0.4738 0.7389 0.7592
C9 C 0.3338(3) 0.8758(3) 0.74073(11)
H3 H 0.3056 0.8445 0.7026
C10 C 0.2761(3) 0.9832(3) 0.76279(13)
H4 H 0.2089 1.0253 0.7398
C11 C 0.3176(3) 1.0286(3) 0.81878(13)
H5 H 0.2780 1.1018 0.8341
C12 C 0.4174(3) 0.9670(2) 0.85291(11)
H6 H 0.4451 0.9996 0.8909
C13 C 0.7847(3) 0.9961(2) 0.99124(12)
H7 H 0.8750 0.9871 0.9741
H8 H 0.7883 0.9770 1.0345
H9 H 0.7533 1.0811 0.9855
C14 C 0.7908(2) 0.9298(2) 0.85547(12)
C15 C 0.8700(3) 0.9143(3) 0.75156(13)
H10 H 0.9639 0.9276 0.7661
H11 H 0.8346 0.9933 0.7354
C16 C 0.8664(4) 0.8162(4) 0.70314(14)
H12 H 0.9010 0.7385 0.7198
H13 H 0.9227 0.8420 0.6693
H14 H 0.7730 0.8045 0.6889
C17 C 0.2755(2) 0.47861(18) 0.96532(9)
H15 H 0.2744 0.4352 0.9281
C18 C 0.1845(2) 0.42670(18) 1.01130(9)
C19 C 0.0866(2) 0.33502(19) 0.99376(10)
C20 C -0.0026(2) 0.2895(2) 1.03827(11)
H16 H -0.0680 0.2298 1.0265
C21 C 0.0007(2) 0.3284(2) 1.09903(11)
C22 C 0.0988(3) 0.4159(2) 1.11590(11)
H17 H 0.1048 0.4426 1.1567
C23 C 0.1885(2) 0.4647(2) 1.07309(10)
H18 H 0.2533 0.5243 1.0856
C24 C 0.0761(3) 0.2857(2) 0.92891(11)
H19 H 0.0026 0.2253 0.9261
H20 H 0.1615 0.2461 0.9180
H21 H 0.0575 0.3541 0.9011
C25 C -0.1005(3) 0.2774(3) 1.14450(13)
H22 H -0.1877 0.3191 1.1390
H23 H -0.0666 0.2920 1.1856
H24 H -0.1121 0.1886 1.1380
loop_
_geom_bond_atom_site_label_1
_geom_bond_atom_site_label_2
_geom_bond_site_symmetry_1
_geom_bond_site_symmetry_2
S1 C2 1_555 1_555
N1 C1 1_555 1_555
N2 C3 1_555 1_555
O1 C1 1_555 1_555
O2 C14 1_555 1_555
O3 C14 1_555 1_555
C1 C2 1_555 1_555
C2 C17 1_555 1_555
C3 S1 1_555 1_555
C4 N2 1_555 1_555
C5 C4 1_555 1_555
C6 N1 1_555 1_555
H1 C6 1_555 1_555
C7 C6 1_555 1_555
C8 C7 1_555 1_555
H2 C8 1_555 1_555
C9 C8 1_555 1_555
H3 C9 1_555 1_555
C10 C9 1_555 1_555
H4 C10 1_555 1_555
C11 C10 1_555 1_555
H5 C11 1_555 1_555
C12 C7 1_555 1_555
H6 C12 1_555 1_555
C13 C4 1_555 1_555
H7 C13 1_555 1_555
H8 C13 1_555 1_555
H9 C13 1_555 1_555
C14 C5 1_555 1_555
C15 O3 1_555 1_555
H10 C15 1_555 1_555
H11 C15 1_555 1_555
C16 C15 1_555 1_555
H12 C16 1_555 1_555
H13 C16 1_555 1_555
H14 C16 1_555 1_555
C17 H15 1_555 1_555
C18 C17 1_555 1_555
C19 C18 1_555 1_555
C20 C19 1_555 1_555
H16 C20 1_555 1_555
C21 C20 1_555 1_555
C22 C21 1_555 1_555
H17 C22 1_555 1_555
C23 C18 1_555 1_555
H18 C23 1_555 1_555
C24 C19 1_555 1_555
H19 C24 1_555 1_555
H20 C24 1_555 1_555
H21 C24 1_555 1_555
C25 C21 1_555 1_555
H22 C25 1_555 1_555
H23 C25 1_555 1_555
H24 C25 1_555 1_555
N1 C3 1_555 1_555
C5 C6 1_555 1_555
C11 C12 1_555 1_555
C22 C23 1_555 1_555

#END
