
#######################################################################
#
#                 Cambridge Crystallographic Data Centre
#                                CCDC 
#
#######################################################################
#
# If this CIF has been generated from an entry in the Cambridge 
# Structural Database, then it will include bibliographic, chemical, 
# crystal, experimental, refinement or atomic coordinate data resulting 
# from the CCDC's data processing and validation procedures.
#
#######################################################################

data_SAHKIY
_chemical_formula_moiety         'C23 H16'
_chemical_name_systematic        
hexacyclo[10.10.1.0^2,11^.0^4,9^.0^13,22^.0^15,20^]tricosa-2,4,6,8,10,13,15,17,19,21-decaene
_symmetry_cell_setting           orthorhombic
_symmetry_space_group_name_H-M   'P 21 21 21'
_symmetry_Int_Tables_number      19
_space_group_name_Hall           'P 2ac 2ab'
loop_
_symmetry_equiv_pos_site_id
_symmetry_equiv_pos_as_xyz
1 x,y,z
2 1/2-x,-y,1/2+z
3 -x,1/2+y,1/2-z
4 1/2+x,1/2-y,-z
_cell_length_a                   6.0185(4)
_cell_length_b                   8.1914(6)
_cell_length_c                   31.4080(19)
_cell_angle_alpha                90
_cell_angle_beta                 90
_cell_angle_gamma                90
_cell_volume                     1548.41
_exptl_crystal_colour            colorless
_exptl_crystal_description       parallelepiped
_cell_formula_units_Z            4
loop_
_atom_site_label
_atom_site_type_symbol
_atom_site_fract_x
_atom_site_fract_y
_atom_site_fract_z
C1 C 0.1891(3) 0.4569(3) 0.10041(6)
C2 C 0.0268(3) 0.3936(3) 0.07534(5)
H1 H -0.0993 0.4551 0.0694
C3 C 0.0486(3) 0.2348(3) 0.05830(6)
C4 C -0.1124(3) 0.1667(3) 0.03135(6)
H2 H -0.2403 0.2258 0.0252
C5 C -0.0849(4) 0.0166(4) 0.01420(7)
H3 H -0.1940 -0.0263 -0.0036
C6 C 0.1055(4) -0.0745(3) 0.02291(7)
H4 H 0.1234 -0.1777 0.0111
C7 C 0.2654(4) -0.0111(3) 0.04893(7)
H5 H 0.3924 -0.0723 0.0544
C8 C 0.2436(3) 0.1438(3) 0.06760(6)
C9 C 0.4107(3) 0.2139(3) 0.09375(6)
H6 H 0.5392 0.1551 0.0997
C10 C 0.3848(3) 0.3650(3) 0.10997(6)
C11 C 0.5323(3) 0.4741(3) 0.13662(6)
H7 H 0.6898 0.4443 0.1380
C12 C 0.4157(3) 0.5010(3) 0.17892(6)
C13 C 0.4698(3) 0.4601(3) 0.21939(6)
H8 H 0.5992 0.4019 0.2250
C14 C 0.3254(3) 0.5074(3) 0.25323(5)
C15 C 0.3718(3) 0.4686(3) 0.29609(6)
H9 H 0.5009 0.4118 0.3028
C16 C 0.2289(4) 0.5135(3) 0.32786(6)
H10 H 0.2624 0.4875 0.3560
C17 C 0.0345(4) 0.5976(3) 0.31864(7)
H11 H -0.0618 0.6265 0.3405
C18 C -0.0160(3) 0.6379(3) 0.27775(7)
H12 H -0.1458 0.6954 0.2720
C19 C 0.1267(3) 0.5933(3) 0.24397(6)
C20 C 0.0771(3) 0.6357(3) 0.20106(6)
H13 H -0.0518 0.6932 0.1946
C21 C 0.2199(3) 0.5914(3) 0.16961(6)
C22 C 0.2215(3) 0.6216(3) 0.12177(6)
H14 H 0.1289 0.7116 0.1114
C23 C 0.4771(3) 0.6387(3) 0.11502(7)
H15 H 0.5189 0.6415 0.0852
H16 H 0.5398 0.7316 0.1299
loop_
_geom_bond_atom_site_label_1
_geom_bond_atom_site_label_2
_geom_bond_site_symmetry_1
_geom_bond_site_symmetry_2
C1 C2 1_555 1_555
C2 H1 1_555 1_555
C3 C2 1_555 1_555
C4 C3 1_555 1_555
H2 C4 1_555 1_555
C5 C4 1_555 1_555
H3 C5 1_555 1_555
C6 C5 1_555 1_555
H4 C6 1_555 1_555
C7 C6 1_555 1_555
H5 C7 1_555 1_555
C8 C3 1_555 1_555
C9 C8 1_555 1_555
H6 C9 1_555 1_555
C10 C1 1_555 1_555
C11 C10 1_555 1_555
H7 C11 1_555 1_555
C12 C11 1_555 1_555
C13 C12 1_555 1_555
H8 C13 1_555 1_555
C14 C13 1_555 1_555
C15 C14 1_555 1_555
H9 C15 1_555 1_555
C16 C15 1_555 1_555
H10 C16 1_555 1_555
C17 C16 1_555 1_555
H11 C17 1_555 1_555
C18 C17 1_555 1_555
H12 C18 1_555 1_555
C19 C14 1_555 1_555
C20 C19 1_555 1_555
H13 C20 1_555 1_555
C21 C12 1_555 1_555
C22 C1 1_555 1_555
H14 C22 1_555 1_555
C23 C11 1_555 1_555
H15 C23 1_555 1_555
H16 C23 1_555 1_555
C7 C8 1_555 1_555
C9 C10 1_555 1_555
C18 C19 1_555 1_555
C20 C21 1_555 1_555
C21 C22 1_555 1_555
C22 C23 1_555 1_555

#END
