
#######################################################################
#
#                 Cambridge Crystallographic Data Centre
#                                CCDC 
#
#######################################################################
#
# If this CIF has been generated from an entry in the Cambridge 
# Structural Database, then it will include bibliographic, chemical, 
# crystal, experimental, refinement or atomic coordinate data resulting 
# from the CCDC's data processing and validation procedures.
#
#######################################################################

data_SAHLAR
_chemical_formula_moiety         'C48 H55 N3 O4'
_chemical_name_systematic        
2,9-dicyclohexyl-5-(dihexylamino)isoquinolino[4',5',6':6,5,10]anthra[2,1,9-def]isoquinoline-1,3,8,10(2H,9H)-tetrone
_symmetry_cell_setting           triclinic
_symmetry_space_group_name_H-M   'P -1'
_symmetry_Int_Tables_number      2
_space_group_name_Hall           '-P 1'
loop_
_symmetry_equiv_pos_site_id
_symmetry_equiv_pos_as_xyz
1 x,y,z
2 -x,-y,-z
_cell_length_a                   9.8924(6)
_cell_length_b                   14.6338(10)
_cell_length_c                   15.6221(10)
_cell_angle_alpha                105.098(3)
_cell_angle_beta                 103.386(2)
_cell_angle_gamma                107.772(3)
_cell_volume                     1956.67
_exptl_crystal_colour            black
_exptl_crystal_description       parallelepiped
_cell_formula_units_Z            2
loop_
_atom_site_label
_atom_site_type_symbol
_atom_site_fract_x
_atom_site_fract_y
_atom_site_fract_z
O1 O 0.69114(19) 0.22362(14) 0.56525(12)
O2 O 1.16254(19) 0.47235(15) 0.72201(13)
O3 O 0.3668(3) 0.7644(2) 0.23307(15)
O4 O 0.7736(3) 1.0297(2) 0.4622(2)
N1 N 0.9229(2) 0.35140(15) 0.65290(13)
N2 N 0.5646(3) 0.9001(2) 0.3522(2)
N3 N 0.4004(2) 0.44036(19) 0.26602(14)
C1 C 0.7796(3) 0.31093(19) 0.58392(16)
C2 C 0.7402(2) 0.37952(18) 0.53803(15)
C3 C 0.8428(2) 0.47943(18) 0.55968(15)
C4 C 0.9899(2) 0.51382(18) 0.62440(15)
C5 C 1.0338(3) 0.4457(2) 0.66987(16)
C6 C 1.0914(3) 0.61229(19) 0.64593(16)
H1 H 1.1923 0.6340 0.6861
C7 C 1.0479(3) 0.6799(2) 0.60962(17)
H2 H 1.1190 0.7478 0.6264
C8 C 0.9020(2) 0.65006(18) 0.54912(15)
C9 C 0.8001(2) 0.54682(18) 0.51843(15)
C10 C 0.6549(2) 0.50830(19) 0.44754(15)
C11 C 0.5559(3) 0.4096(2) 0.43009(16)
H3 H 0.4573 0.3841 0.3857
C12 C 0.5961(3) 0.3467(2) 0.47525(16)
H4 H 0.5238 0.2805 0.4628
C13 C 0.6147(2) 0.5768(2) 0.40110(16)
C14 C 0.7071(3) 0.6838(2) 0.44428(17)
C15 C 0.8476(3) 0.7231(2) 0.51928(17)
C16 C 0.9285(3) 0.8282(2) 0.56218(19)
H5 H 1.0203 0.8534 0.6132
C17 C 0.8791(3) 0.8977(2) 0.5326(2)
H6 H 0.9368 0.9694 0.5633
C18 C 0.7473(3) 0.8629(2) 0.4590(2)
C19 C 0.6608(3) 0.7569(2) 0.41420(18)
C20 C 0.5274(3) 0.7216(2) 0.33756(19)
C21 C 0.4461(3) 0.6190(3) 0.29208(18)
H7 H 0.3578 0.5968 0.2393
C22 C 0.4871(3) 0.5441(2) 0.31992(17)
C23 C 0.4784(4) 0.7957(3) 0.3030(2)
C24 C 0.6996(4) 0.9385(3) 0.4271(3)
C25 C 0.9538(3) 0.2878(2) 0.70987(17)
H8 H 0.8560 0.2287 0.6919
C26 C 0.9976(3) 0.3461(2) 0.81435(18)
H9 H 0.9194 0.3718 0.8259
H10 H 1.0942 0.4060 0.8359
C27 C 1.0140(4) 0.2758(3) 0.8696(2)
H11 H 1.0489 0.3157 0.9379
H12 H 0.9144 0.2203 0.8528
C28 C 1.1236(4) 0.2297(4) 0.8490(3)
H13 H 1.1270 0.1814 0.8828
H14 H 1.2256 0.2847 0.8725
C29 C 1.0813(4) 0.1729(3) 0.7447(3)
H15 H 0.9849 0.1128 0.7227
H16 H 1.1599 0.1473 0.7337
C30 C 1.0647(3) 0.2418(3) 0.6876(2)
H17 H 1.1639 0.2973 0.7035
H18 H 1.0285 0.2009 0.6195
C31 C 0.3391(5) 1.0623(3) 0.3047(3)
H19 H 0.363(5) 1.123(4) 0.361(4)
H20 H 0.223(6) 1.044(4) 0.294(4)
C32 C 0.5311(10) 0.9941(7) 0.3423(7)
C33 C 0.3628(11) 0.9729(5) 0.3303(6)
H21 H 0.3499 0.9762 0.3918
H22 H 0.2915 0.9054 0.2823
C34 C 0.3505(10) 1.0622(9) 0.2089(5)
H23 H 0.3277 1.1203 0.1978
H24 H 0.2804 0.9982 0.1557
C35 C 0.516(2) 1.0910(14) 0.2300(15)
H25 H 0.5718 1.1534 0.2875
H26 H 0.5444 1.1061 0.1770
C36 C 0.556(3) 0.9993(19) 0.2451(18)
H27 H 0.6625 1.0120 0.2498
H28 H 0.4898 0.9342 0.1922
C37 C 0.4791(3) 0.3794(2) 0.22506(17)
H29 H 0.4356 0.3092 0.2260
H30 H 0.5865 0.4104 0.2656
C38 C 0.4712(3) 0.3711(2) 0.12495(17)
H31 H 0.5133 0.4408 0.1228
H32 H 0.3646 0.3374 0.0830
C39 C 0.5592(3) 0.3093(2) 0.09001(19)
H33 H 0.6680 0.3491 0.1259
H34 H 0.5290 0.2448 0.1032
C40 C 0.5355(4) 0.2826(3) -0.0147(2)
H35 H 0.422(4) 0.241(3) -0.052(3)
H36 H 0.597(4) 0.237(3) -0.035(2)
C41 C 0.5935(16) 0.3707(10) -0.0424(8)
H37 H 0.5483 0.3496 -0.1115
H38 H 0.5615 0.4251 -0.0126
C42 C 0.7664(16) 0.4154(6) -0.0146(5)
H39 H 0.7988 0.4770 -0.0308
H40 H 0.7984 0.3641 -0.0487
H41 H 0.8121 0.4334 0.0534
C43 C 0.2420(3) 0.4105(2) 0.21021(19)
H42 H 0.2371 0.4203 0.1494
H43 H 0.2005 0.4562 0.2442
C44 C 0.1461(3) 0.3005(3) 0.1914(2)
H44 H 0.1528 0.2899 0.2521
H45 H 0.1851 0.2545 0.1555
C45 C -0.0183(3) 0.2728(4) 0.1360(3)
H46 H -0.028(4) 0.278(3) 0.075(3)
H47 H -0.056(4) 0.327(3) 0.175(2)
C46 C -0.1257(5) 0.1682(5) 0.1207(4)
H48 H -0.1183 0.1611 0.1828
H49 H -0.2297 0.1619 0.0910
C47 C -0.1006(6) 0.0850(5) 0.0628(5)
H50 H 0.0011 0.0885 0.0936
H51 H -0.1043 0.0928 0.0013
C48 C -0.2190(9) -0.0203(5) 0.0462(5)
H52 H -0.1974 -0.0748 0.0074
H53 H -0.3196 -0.0249 0.0137
H54 H -0.2155 -0.0284 0.1069
C49? C 0.4935(12) 0.9523(10) 0.2961(9)
H55? H 0.4060 0.8964 0.2421
C50? C 0.4303(13) 1.0093(9) 0.3536(8)
H56? H 0.5136 1.0627 0.4102
H57? H 0.3634 0.9619 0.3753
C51? C 0.4406(18) 1.1175(9) 0.2558(8)
H58? H 0.3787 1.1400 0.2130
H59? H 0.5221 1.1803 0.3052
C52? C 0.516(2) 1.0570(12) 0.1976(13)
H60? H 0.4393 1.0042 0.1382
H61? H 0.5929 1.1049 0.1816
C53? C 0.590(3) 1.0069(15) 0.2557(16)
H62? H 0.6213 0.9587 0.2154
H63? H 0.6820 1.0603 0.3068
C54? C 0.551(7) 0.378(5) -0.050(4)
H64? H 0.4830 0.4105 -0.0309
H65? H 0.5207 0.3532 -0.1192
C55? C 0.694(2) 0.4469(19) -0.0114(17)
C56? C -0.095(3) 0.116(2) 0.132(2)
C57? C -0.250(3) 0.088(2) 0.0506(19)
H66? H -0.3090 0.1260 0.0735
H67? H -0.2310 0.1019 -0.0050
C58? C -0.331(3) -0.0286(18) 0.027(2)
H68? H -0.4279 -0.0547 -0.0238
H69? H -0.3491 -0.0405 0.0832
H70? H -0.2684 -0.0643 0.0072
loop_
_geom_bond_atom_site_label_1
_geom_bond_atom_site_label_2
_geom_bond_site_symmetry_1
_geom_bond_site_symmetry_2
O1 C1 1_555 1_555
O2 C5 1_555 1_555
O3 C23 1_555 1_555
O4 C24 1_555 1_555
N1 C1 1_555 1_555
N2 C23 1_555 1_555
N3 C22 1_555 1_555
C1 C2 1_555 1_555
C2 C3 1_555 1_555
C3 C4 1_555 1_555
C4 C5 1_555 1_555
C5 N1 1_555 1_555
C6 C4 1_555 1_555
H1 C6 1_555 1_555
C7 C6 1_555 1_555
H2 C7 1_555 1_555
C8 C7 1_555 1_555
C9 C3 1_555 1_555
C10 C9 1_555 1_555
C11 C10 1_555 1_555
H3 C11 1_555 1_555
C12 C2 1_555 1_555
H4 C12 1_555 1_555
C13 C10 1_555 1_555
C14 C13 1_555 1_555
C15 C8 1_555 1_555
C16 C15 1_555 1_555
H5 C16 1_555 1_555
C17 C16 1_555 1_555
H6 C17 1_555 1_555
C18 C17 1_555 1_555
C19 C14 1_555 1_555
C20 C19 1_555 1_555
C21 C20 1_555 1_555
H7 C21 1_555 1_555
C22 C13 1_555 1_555
C23 C20 1_555 1_555
C24 N2 1_555 1_555
C25 N1 1_555 1_555
H8 C25 1_555 1_555
C26 C25 1_555 1_555
H9 C26 1_555 1_555
H10 C26 1_555 1_555
C27 C26 1_555 1_555
H11 C27 1_555 1_555
H12 C27 1_555 1_555
C28 C27 1_555 1_555
H13 C28 1_555 1_555
H14 C28 1_555 1_555
C29 C28 1_555 1_555
H15 C29 1_555 1_555
H16 C29 1_555 1_555
C30 C25 1_555 1_555
H17 C30 1_555 1_555
H18 C30 1_555 1_555
C31 H19 1_555 1_555
H20 C31 1_555 1_555
C32 N2 1_555 1_555
C33 C31 1_555 1_555
H21 C33 1_555 1_555
H22 C33 1_555 1_555
C34 C31 1_555 1_555
H23 C34 1_555 1_555
H24 C34 1_555 1_555
C35 C34 1_555 1_555
H25 C35 1_555 1_555
H26 C35 1_555 1_555
C36 C32 1_555 1_555
H27 C36 1_555 1_555
H28 C36 1_555 1_555
C37 N3 1_555 1_555
H29 C37 1_555 1_555
H30 C37 1_555 1_555
C38 C37 1_555 1_555
H31 C38 1_555 1_555
H32 C38 1_555 1_555
C39 C38 1_555 1_555
H33 C39 1_555 1_555
H34 C39 1_555 1_555
C40 C39 1_555 1_555
H35 C40 1_555 1_555
H36 C40 1_555 1_555
C41 C40 1_555 1_555
H37 C41 1_555 1_555
H38 C41 1_555 1_555
C42 C41 1_555 1_555
H39 C42 1_555 1_555
H40 C42 1_555 1_555
H41 C42 1_555 1_555
C43 N3 1_555 1_555
H42 C43 1_555 1_555
H43 C43 1_555 1_555
C44 C43 1_555 1_555
H44 C44 1_555 1_555
H45 C44 1_555 1_555
C45 C44 1_555 1_555
H46 C45 1_555 1_555
H47 C45 1_555 1_555
C46 C45 1_555 1_555
H48 C46 1_555 1_555
H49 C46 1_555 1_555
C47 C46 1_555 1_555
H50 C47 1_555 1_555
H51 C47 1_555 1_555
C48 C47 1_555 1_555
H52 C48 1_555 1_555
H53 C48 1_555 1_555
H54 C48 1_555 1_555
C8 C9 1_555 1_555
C11 C12 1_555 1_555
C14 C15 1_555 1_555
C18 C19 1_555 1_555
C18 C24 1_555 1_555
C21 C22 1_555 1_555
C29 C30 1_555 1_555
C32 C33 1_555 1_555
C35 C36 1_555 1_555

#END
