
#######################################################################
#
#                 Cambridge Crystallographic Data Centre
#                                CCDC 
#
#######################################################################
#
# If this CIF has been generated from an entry in the Cambridge 
# Structural Database, then it will include bibliographic, chemical, 
# crystal, experimental, refinement or atomic coordinate data resulting 
# from the CCDC's data processing and validation procedures.
#
#######################################################################

data_SAHLEV
_chemical_formula_moiety         'C11 H16 N4 O1 S1'
_chemical_name_systematic        
6-amino-5-(3,4-dihydro-2H-pyrrol-5-yl)-2-(propylsulfanyl)pyrimidin-4(3H)-one
_symmetry_cell_setting           monoclinic
_symmetry_space_group_name_H-M   'P 21/c'
_symmetry_Int_Tables_number      14
_space_group_name_Hall           '-P 2ybc'
loop_
_symmetry_equiv_pos_site_id
_symmetry_equiv_pos_as_xyz
1 x,y,z
2 -x,1/2+y,1/2-z
3 -x,-y,-z
4 x,1/2-y,1/2+z
_cell_length_a                   10.623(2)
_cell_length_b                   6.5812(13)
_cell_length_c                   18.475(4)
_cell_angle_alpha                90
_cell_angle_beta                 105.93(3)
_cell_angle_gamma                90
_cell_volume                     1242.02
_exptl_crystal_colour            colorless
_exptl_crystal_description       prism
_cell_formula_units_Z            4
loop_
_atom_site_label
_atom_site_type_symbol
_atom_site_fract_x
_atom_site_fract_y
_atom_site_fract_z
N1 N 0.88592(10) 0.49094(18) 0.13239(6)
C1 C 0.79694(13) 0.5772(2) 0.07898(7)
H1 H 0.6146(18) 0.576(3) 0.0179(10)
N2 N 0.67321(11) 0.5077(2) 0.05336(7)
C2 C 0.62925(13) 0.3346(2) 0.08236(8)
C3 C 0.72426(12) 0.2316(2) 0.14062(7)
C4 C 0.85068(12) 0.3175(2) 0.16299(7)
H2 H 1.028(2) 0.298(4) 0.2271(13)
H3 H 0.9255(19) 0.130(4) 0.2389(11)
N3 N 0.94670(12) 0.2360(2) 0.21721(8)
O1 O 0.51277(11) 0.2867(2) 0.05565(8)
C5 C 0.69047(12) 0.0477(2) 0.17487(8)
C6 C 0.55551(14) -0.0465(3) 0.15187(10)
H4 H 0.5348(18) -0.099(3) 0.0992(11)
H5 H 0.4856(18) 0.054(3) 0.1534(10)
C7 C 0.56649(19) -0.2181(3) 0.20821(14)
H6 H 0.535(3) -0.355(5) 0.1851(15)
H7 H 0.510(3) -0.197(4) 0.2423(17)
C8 C 0.70917(18) -0.2235(3) 0.25209(11)
H8 H 0.753(2) -0.347(4) 0.2415(13)
H9 H 0.723(2) -0.213(3) 0.3084(13)
N4 N 0.77345(12) -0.0492(2) 0.22764(7)
S1 S 0.82934(4) 0.79713(7) 0.03421(2)
C9 C 0.99840(17) 0.8444(3) 0.08461(10)
H10 H 1.0058(18) 0.836(3) 0.1366(11)
H11 H 1.0138(18) 0.981(3) 0.0753(10)
C10 C 1.09674(17) 0.7127(3) 0.06222(11)
H12 H 1.0748(19) 0.574(3) 0.0692(10)
H13 H 1.0883(19) 0.730(3) 0.0097(12)
C11 C 1.23546(19) 0.7653(4) 0.10674(12)
H14 H 1.2548 0.9026 0.0959
H15 H 1.2958 0.6746 0.0929
H16 H 1.2436 0.7521 0.1596
loop_
_geom_bond_atom_site_label_1
_geom_bond_atom_site_label_2
_geom_bond_site_symmetry_1
_geom_bond_site_symmetry_2
N1 C1 1_555 1_555
C1 N2 1_555 1_555
H1 N2 1_555 1_555
N2 C2 1_555 1_555
C2 C3 1_555 1_555
C3 C4 1_555 1_555
C4 N1 1_555 1_555
H2 N3 1_555 1_555
H3 N3 1_555 1_555
N3 C4 1_555 1_555
O1 C2 1_555 1_555
C5 C3 1_555 1_555
C6 C5 1_555 1_555
H4 C6 1_555 1_555
H5 C6 1_555 1_555
C7 C6 1_555 1_555
H6 C7 1_555 1_555
H7 C7 1_555 1_555
C8 C7 1_555 1_555
H8 C8 1_555 1_555
H9 C8 1_555 1_555
N4 C5 1_555 1_555
S1 C1 1_555 1_555
C9 S1 1_555 1_555
H10 C9 1_555 1_555
H11 C9 1_555 1_555
C10 C9 1_555 1_555
H12 C10 1_555 1_555
H13 C10 1_555 1_555
C11 C10 1_555 1_555
H14 C11 1_555 1_555
H15 C11 1_555 1_555
H16 C11 1_555 1_555
C8 N4 1_555 1_555

#END
