
#######################################################################
#
#                 Cambridge Crystallographic Data Centre
#                                CCDC 
#
#######################################################################
#
# If this CIF has been generated from an entry in the Cambridge 
# Structural Database, then it will include bibliographic, chemical, 
# crystal, experimental, refinement or atomic coordinate data resulting 
# from the CCDC's data processing and validation procedures.
#
#######################################################################

data_SAHNUK10
_chemical_formula_moiety         'C6 H15 O2 P1 Si1'
_chemical_name_systematic        
1-Hydroxy-4,4-dimethyl-1-phospha-4-silacyclohexan-1-one
_symmetry_cell_setting           monoclinic
_symmetry_space_group_name_H-M   'P 21/c'
_symmetry_Int_Tables_number      14
_space_group_name_Hall           '-P 2ybc'
loop_
_symmetry_equiv_pos_site_id
_symmetry_equiv_pos_as_xyz
1 x,y,z
2 -x,1/2+y,1/2-z
3 -x,-y,-z
4 x,1/2-y,1/2+z
_cell_length_a                   10.416(2)
_cell_length_b                   6.817(1)
_cell_length_c                   14.237(3)
_cell_angle_alpha                90
_cell_angle_beta                 106.32(2)
_cell_angle_gamma                90
_cell_volume                     970.178
_cell_formula_units_Z            4
loop_
_atom_site_label
_atom_site_type_symbol
_atom_site_fract_x
_atom_site_fract_y
_atom_site_fract_z
P1 P 0.11191(6) 0.19370(8) 0.24656(4)
Si1 Si 0.31786(6) 0.35356(9) 0.11336(4)
O1 O 0.1763(2) -0.0142(3) 0.2672(1)
O2 O -0.0003(2) 0.2244(3) 0.2913(1)
C1 C 0.2486(3) 0.3575(4) 0.2936(2)
C2 C 0.3653(2) 0.3248(4) 0.2493(2)
C3 C 0.1667(3) 0.1956(4) 0.0649(2)
C4 C 0.0571(2) 0.2289(4) 0.1164(2)
C5 C 0.4606(4) 0.2710(5) 0.0681(2)
C6 C 0.2747(3) 0.6131(5) 0.0801(3)
H1 H 0.1136(40) -0.1015(58) 0.2439(29)
H2 H 0.2716(28) 0.3449(38) 0.3640(21)
H3 H 0.2154(26) 0.4924(41) 0.2817(16)
H4 H 0.4308(26) 0.4134(40) 0.2765(19)
H5 H 0.3934(24) 0.1902(36) 0.2639(17)
H6 H 0.1943(25) 0.0612(40) 0.0755(16)
H7 H 0.1316(29) 0.2291(40) -0.0035(18)
H8 H 0.0262(23) 0.3584(34) 0.1072(15)
H9 H -0.0135(29) 0.1352(45) 0.0970(19)
H10 H 0.4470(36) 0.3180(53) -0.0001(28)
H11 H 0.4696(32) 0.1348(53) 0.0713(22)
H12 H 0.5442(36) 0.3172(53) 0.1048(26)
H13 H 0.3452(34) 0.6973(49) 0.0945(22)
H14 H 0.2035(34) 0.6561(48) 0.0940(23)
H15 H 0.2514(35) 0.6154(58) 0.0151(29)
loop_
_geom_bond_atom_site_label_1
_geom_bond_atom_site_label_2
_geom_bond_site_symmetry_1
_geom_bond_site_symmetry_2
P1 O1 1_555 1_555
Si1 C2 1_555 1_555
O1 H1 1_555 1_555
O2 P1 1_555 1_555
C1 P1 1_555 1_555
C2 C1 1_555 1_555
C3 Si1 1_555 1_555
C4 P1 1_555 1_555
C5 Si1 1_555 1_555
C6 Si1 1_555 1_555
H2 C1 1_555 1_555
H3 C1 1_555 1_555
H4 C2 1_555 1_555
H5 C2 1_555 1_555
H6 C3 1_555 1_555
H7 C3 1_555 1_555
H8 C4 1_555 1_555
H9 C4 1_555 1_555
H10 C5 1_555 1_555
H11 C5 1_555 1_555
H12 C5 1_555 1_555
H13 C6 1_555 1_555
H14 C6 1_555 1_555
H15 C6 1_555 1_555
C3 C4 1_555 1_555

#END
