
#######################################################################
#
#                 Cambridge Crystallographic Data Centre
#                                CCDC 
#
#######################################################################
#
# If this CIF has been generated from an entry in the Cambridge 
# Structural Database, then it will include bibliographic, chemical, 
# crystal, experimental, refinement or atomic coordinate data resulting 
# from the CCDC's data processing and validation procedures.
#
#######################################################################

data_SAHQOJ
_chemical_formula_moiety         'C29 H23 F3 N4 O6,C2 H6 O1 S1'
_chemical_name_systematic        
'Methyl 1-benzyl-5-(((1-benzyl-4-oxo-5-((trifluoroacetyl)amino)-1,4-dihydropyridin-3-yl)carbonyl)amino)-4-oxo-1,4-dihydropyridine-3-carboxylate dimethyl sulfoxide solvate'
_symmetry_cell_setting           monoclinic
_symmetry_space_group_name_H-M   'P 21'
_symmetry_Int_Tables_number      4
_space_group_name_Hall           'P 2yb'
loop_
_symmetry_equiv_pos_site_id
_symmetry_equiv_pos_as_xyz
1 x,y,z
2 -x,1/2+y,-z
_cell_length_a                   4.742
_cell_length_b                   25.691
_cell_length_c                   12.212
_cell_angle_alpha                90
_cell_angle_beta                 90.00
_cell_angle_gamma                90
_cell_volume                     1487.75
_exptl_crystal_colour            colorless
_cell_formula_units_Z            2
loop_
_atom_site_label
_atom_site_type_symbol
_atom_site_fract_x
_atom_site_fract_y
_atom_site_fract_z
S1 S 0.0628(3) 0.13498(5) 0.38709(10)
O7 O -0.1274(9) 0.12103(18) 0.2937(3)
C18 C 0.1494(13) 0.2018(2) 0.3687(5)
H10 H 0.2752 0.2055 0.3055
H11 H 0.2441 0.2149 0.4345
H12 H -0.0234 0.2218 0.3560
C22 C -0.1558(11) 0.1420(2) 0.5021(4)
H16 H -0.2257 0.1078 0.5248
H17 H -0.3158 0.1645 0.4836
H18 H -0.0482 0.1577 0.5622
F1 F 0.7267(7) 0.53316(12) 0.4425(2)
O1 O -0.1607(7) 0.68657(12) -0.0429(3)
F2 F 0.7522(8) 0.45343(12) 0.3909(3)
O2 O -0.2988(7) 0.70976(13) 0.3484(3)
O3 O 0.1659(6) 0.61494(12) 0.2452(2)
O4 O -0.9279(8) 0.82553(13) 0.4059(3)
F3 F 1.1235(7) 0.50020(15) 0.3958(3)
O5 O 0.9425(7) 0.49681(13) 0.1819(3)
O6 O -0.6241(8) 0.77207(13) 0.4905(3)
N1 N -0.1813(8) 0.68442(14) 0.1428(3)
H1 H -0.1097 0.6693 0.2012
N2 N 0.5796(8) 0.54848(15) 0.2365(3)
H2 H 0.4888 0.5585 0.2957
N3 N -0.7437(8) 0.78165(14) 0.1039(3)
N4 N 0.4732(8) 0.57992(14) -0.0550(3)
C1 C -0.0800(9) 0.66969(16) 0.0459(4)
C2 C 0.2670(9) 0.61528(16) -0.0471(3)
H3 H 0.1996 0.6315 -0.1120
C3 C -0.6553(9) 0.77159(17) 0.2948(4)
C4 C -0.5432(9) 0.74515(16) 0.0792(4)
H4 H -0.5101 0.7361 0.0049
C5 C 0.2518(9) 0.60618(16) 0.1516(4)
C6 C -0.7932(9) 0.79417(17) 0.2080(4)
H5 H -0.9310 0.8201 0.2230
C7 C -0.3895(9) 0.72146(16) 0.1599(4)
C8 C 0.5801(9) 0.55631(16) 0.0377(4)
H6 H 0.7254 0.5311 0.0309
C9 C -0.4377(9) 0.73210(17) 0.2768(4)
C10 C -0.9051(9) 0.80535(16) 0.0105(4)
H7 H -1.0153 0.7779 -0.0269
H8 H -1.0395 0.8314 0.0396
C11 C 0.1497(9) 0.62897(16) 0.0514(3)
C12 C 0.8488(10) 0.50060(18) 0.3730(4)
C13 C 0.7975(10) 0.51560(16) 0.2517(4)
C14 C -0.7125(9) 0.83113(16) -0.0709(3)
C15 C -0.7264(10) 0.78846(17) 0.4073(4)
C16 C 0.4816(9) 0.56855(16) 0.1367(3)
C17 C -0.5876(10) 0.87879(19) -0.0473(4)
H9 H -0.6276 0.8956 0.0202
C19 C 0.5008(9) 0.51133(17) -0.1988(4)
C20 C 0.5854(9) 0.56566(16) -0.1626(3)
H13 H 0.7938 0.5679 -0.1604
H14 H 0.5177 0.5911 -0.2175
C21 C -0.6580(11) 0.80685(19) -0.1693(4)
H15 H -0.7418 0.7742 -0.1857
C23 C 0.2956(11) 0.4827(2) -0.1462(4)
H19 H 0.2019 0.4968 -0.0842
C24 C 0.3609(12) 0.4126(2) -0.2757(4)
H20 H 0.3105 0.3792 -0.3027
C25 C 0.6365(9) 0.49082(16) -0.2882(3)
H21 H 0.7785 0.5104 -0.3244
C26 C -0.4048(10) 0.9020(2) -0.1216(5)
H22 H -0.3178 0.9343 -0.1052
C27 C -0.3519(12) 0.8772(2) -0.2195(5)
H23 H -0.2258 0.8924 -0.2708
C28 C -0.4806(13) 0.8305(2) -0.2434(5)
H24 H -0.4465 0.8144 -0.3121
C29 C 0.2247(12) 0.4329(2) -0.1839(4)
H25 H 0.0847 0.4131 -0.1471
C30 C 0.5653(14) 0.4406(2) -0.3263(5)
H26 H 0.6610 0.4264 -0.3877
C31 C -1.0148(13) 0.8434(2) 0.5121(4)
H27 H -1.1605 0.8702 0.5038
H28 H -0.8523 0.8581 0.5508
H29 H -1.0910 0.8141 0.5541
loop_
_geom_bond_atom_site_label_1
_geom_bond_atom_site_label_2
_geom_bond_site_symmetry_1
_geom_bond_site_symmetry_2
S1 O7 1_555 1_555
F1 C12 1_555 1_555
O1 C1 1_555 1_555
F2 C12 1_555 1_555
O2 C9 1_555 1_555
O3 C5 1_555 1_555
O4 C15 1_555 1_555
F3 C12 1_555 1_555
O5 C13 1_555 1_555
O6 C15 1_555 1_555
N1 H1 1_555 1_555
N2 H2 1_555 1_555
N3 C4 1_555 1_555
N4 C2 1_555 1_555
C1 N1 1_555 1_555
C2 H3 1_555 1_555
C3 C6 1_555 1_555
C4 H4 1_555 1_555
C5 C11 1_555 1_555
C6 N3 1_555 1_555
H5 C6 1_555 1_555
C7 N1 1_555 1_555
C8 N4 1_555 1_555
H6 C8 1_555 1_555
C9 C3 1_555 1_555
C10 N3 1_555 1_555
H7 C10 1_555 1_555
H8 C10 1_555 1_555
C11 C1 1_555 1_555
C12 C13 1_555 1_555
C13 N2 1_555 1_555
C14 C10 1_555 1_555
C15 C3 1_555 1_555
C16 N2 1_555 1_555
C17 C14 1_555 1_555
H9 C17 1_555 1_555
C18 S1 1_555 1_555
H10 C18 1_555 1_555
H11 C18 1_555 1_555
H12 C18 1_555 1_555
C19 C20 1_555 1_555
C20 N4 1_555 1_555
H13 C20 1_555 1_555
H14 C20 1_555 1_555
C21 C14 1_555 1_555
H15 C21 1_555 1_555
C22 S1 1_555 1_555
H16 C22 1_555 1_555
H17 C22 1_555 1_555
H18 C22 1_555 1_555
C23 C19 1_555 1_555
H19 C23 1_555 1_555
C24 H20 1_555 1_555
C25 C19 1_555 1_555
H21 C25 1_555 1_555
C26 C17 1_555 1_555
H22 C26 1_555 1_555
C27 C26 1_555 1_555
H23 C27 1_555 1_555
C28 C21 1_555 1_555
H24 C28 1_555 1_555
C29 C23 1_555 1_555
H25 C29 1_555 1_555
C30 C24 1_555 1_555
H26 C30 1_555 1_555
C31 O4 1_555 1_555
H27 C31 1_555 1_555
H28 C31 1_555 1_555
H29 C31 1_555 1_555
C2 C11 1_555 1_555
C4 C7 1_555 1_555
C5 C16 1_555 1_555
C7 C9 1_555 1_555
C8 C16 1_555 1_555
C24 C29 1_555 1_555
C25 C30 1_555 1_555
C27 C28 1_555 1_555

#END
