
#######################################################################
#
#                 Cambridge Crystallographic Data Centre
#                                CCDC 
#
#######################################################################
#
# If this CIF has been generated from an entry in the Cambridge 
# Structural Database, then it will include bibliographic, chemical, 
# crystal, experimental, refinement or atomic coordinate data resulting 
# from the CCDC's data processing and validation procedures.
#
#######################################################################

data_SAHRIE
_chemical_formula_moiety         'C20 H19 N1 O2'
_chemical_name_systematic        
'Ethyl 2,6-diphenyl-3-azabicyclo[3.1.0]hex-2-ene-1-carboxylate'
_symmetry_cell_setting           monoclinic
_symmetry_space_group_name_H-M   'P 21/c'
_symmetry_Int_Tables_number      14
_space_group_name_Hall           '-P 2ybc'
loop_
_symmetry_equiv_pos_site_id
_symmetry_equiv_pos_as_xyz
1 x,y,z
2 -x,1/2+y,1/2-z
3 -x,-y,-z
4 x,1/2-y,1/2+z
_cell_length_a                   22.201(2)
_cell_length_b                   11.1821(12)
_cell_length_c                   13.4257(15)
_cell_angle_alpha                90
_cell_angle_beta                 107.456(2)
_cell_angle_gamma                90
_cell_volume                     3179.49
_exptl_crystal_colour            colorless
_exptl_crystal_description       block
_cell_formula_units_Z            8
loop_
_atom_site_label
_atom_site_type_symbol
_atom_site_fract_x
_atom_site_fract_y
_atom_site_fract_z
C1 C -0.09650(8) 0.78562(17) 0.36883(14)
H1 H -0.1071 0.7004 0.3744
H2 H -0.1070 0.8308 0.4248
C2 C -0.02684(8) 0.79904(16) 0.37901(13)
H3 H 0.0036 0.7372 0.4183
C3 C -0.00340(8) 0.92086(15) 0.36667(13)
H4 H -0.0341 0.9861 0.3674
C4 C -0.02518(8) 0.83708(15) 0.27028(13)
C5 C -0.09395(8) 0.85756(15) 0.21242(14)
C6 C -0.11758(8) 0.91096(15) 0.10725(14)
C7 C -0.18128(8) 0.89782(16) 0.04951(14)
H5 H -0.2085 0.8515 0.0769
C8 C -0.20473(9) 0.95164(17) -0.04680(15)
H6 H -0.2480 0.9423 -0.0854
C9 C -0.16538(9) 1.01944(17) -0.08753(15)
H7 H -0.1816 1.0554 -0.1543
C10 C -0.10245(9) 1.03483(16) -0.03112(15)
H8 H -0.0757 1.0823 -0.0586
C11 C -0.07874(8) 0.98050(16) 0.06582(14)
H9 H -0.0356 0.9908 0.1044
C12 C 0.06425(8) 0.95658(15) 0.41187(13)
C13 C 0.10158(8) 0.90847(16) 0.50549(14)
H10 H 0.0846 0.8495 0.5405
C14 C 0.16362(8) 0.94633(17) 0.54801(14)
H11 H 0.1888 0.9135 0.6123
C15 C 0.18898(8) 1.03156(17) 0.49745(14)
H12 H 0.2315 1.0570 0.5266
C16 C 0.15181(9) 1.07959(17) 0.40367(15)
H13 H 0.1690 1.1381 0.3686
C17 C 0.09009(8) 1.04259(16) 0.36131(14)
H14 H 0.0650 1.0759 0.2972
C18 C 0.02044(8) 0.78379(15) 0.22182(14)
C19 C 0.12584(8) 0.70969(16) 0.26035(14)
H15 H 0.1278 0.7550 0.1980
H16 H 0.1202 0.6238 0.2418
C20 C 0.18539(8) 0.72825(19) 0.34891(16)
H17 H 0.1904 0.8135 0.3663
H18 H 0.2217 0.7003 0.3281
H19 H 0.1829 0.6830 0.4101
N1 N -0.13204(7) 0.83340(13) 0.26546(12)
O1 O 0.01151(6) 0.76881(12) 0.12982(10)
O2 O 0.07377(5) 0.75223(12) 0.29536(9)
C21 C 0.58915(8) 0.70750(16) 0.45927(14)
H20 H 0.5993 0.7924 0.4779
H21 H 0.6007 0.6595 0.5242
C22 C 0.51940(8) 0.69372(16) 0.40198(13)
H22 H 0.4890 0.7539 0.4141
C23 C 0.49549(8) 0.57393(15) 0.36060(13)
H23 H 0.5261 0.5075 0.3882
C24 C 0.51700(8) 0.66292(15) 0.28966(13)
C25 C 0.58540(8) 0.64456(15) 0.29774(14)
C26 C 0.60742(8) 0.59337(16) 0.21306(13)
C27 C 0.56875(8) 0.51736(16) 0.13865(14)
H24 H 0.5265 0.5039 0.1384
C28 C 0.59148(9) 0.46109(16) 0.06481(15)
H25 H 0.5649 0.4088 0.0148
C29 C 0.65316(9) 0.48160(17) 0.06447(16)
H26 H 0.6689 0.4432 0.0143
C30 C 0.69153(9) 0.55809(18) 0.13728(15)
H27 H 0.7336 0.5725 0.1366
C31 C 0.66918(8) 0.61372(17) 0.21097(15)
H28 H 0.6959 0.6662 0.2606
C32 C 0.42781(8) 0.53787(15) 0.33764(14)
C33 C 0.39168(8) 0.57709(17) 0.39976(14)
H29 H 0.4095 0.6301 0.4562
C34 C 0.32940(9) 0.53882(17) 0.37946(15)
H30 H 0.3052 0.5649 0.4230
C35 C 0.30241(9) 0.46305(17) 0.29639(15)
H31 H 0.2598 0.4381 0.2822
C36 C 0.33846(9) 0.42402(16) 0.23407(15)
H32 H 0.3204 0.3721 0.1769
C37 C 0.40071(8) 0.46068(16) 0.25516(14)
H33 H 0.4252 0.4327 0.2127
C38 C 0.47233(8) 0.72345(15) 0.19943(14)
C39 C 0.36724(8) 0.79996(16) 0.13594(14)
H34 H 0.3640 0.7576 0.0698
H35 H 0.3745 0.8860 0.1264
C40 C 0.30801(9) 0.78293(19) 0.16644(17)
H36 H 0.3025 0.6978 0.1789
H37 H 0.2717 0.8115 0.1100
H38 H 0.3112 0.8283 0.2303
N2 N 0.62422(7) 0.66479(13) 0.38806(12)
O3 O 0.48224(6) 0.74670(12) 0.11811(10)
O4 O 0.41843(5) 0.75080(12) 0.22030(10)
loop_
_geom_bond_atom_site_label_1
_geom_bond_atom_site_label_2
_geom_bond_site_symmetry_1
_geom_bond_site_symmetry_2
C1 H1 1_555 1_555
H2 C1 1_555 1_555
C2 C1 1_555 1_555
H3 C2 1_555 1_555
C3 C2 1_555 1_555
H4 C3 1_555 1_555
C4 C2 1_555 1_555
C5 C4 1_555 1_555
C6 C5 1_555 1_555
C7 C6 1_555 1_555
H5 C7 1_555 1_555
C8 C7 1_555 1_555
H6 C8 1_555 1_555
C9 C8 1_555 1_555
H7 C9 1_555 1_555
C10 C9 1_555 1_555
H8 C10 1_555 1_555
C11 C6 1_555 1_555
H9 C11 1_555 1_555
C12 C3 1_555 1_555
C13 C12 1_555 1_555
H10 C13 1_555 1_555
C14 C13 1_555 1_555
H11 C14 1_555 1_555
C15 C14 1_555 1_555
H12 C15 1_555 1_555
C16 C15 1_555 1_555
H13 C16 1_555 1_555
C17 C12 1_555 1_555
H14 C17 1_555 1_555
C18 C4 1_555 1_555
C19 H15 1_555 1_555
H16 C19 1_555 1_555
C20 C19 1_555 1_555
H17 C20 1_555 1_555
H18 C20 1_555 1_555
H19 C20 1_555 1_555
C21 H20 1_555 1_555
H21 C21 1_555 1_555
C22 C21 1_555 1_555
H22 C22 1_555 1_555
C23 C22 1_555 1_555
H23 C23 1_555 1_555
C24 C22 1_555 1_555
C25 C24 1_555 1_555
C26 C25 1_555 1_555
C27 C26 1_555 1_555
H24 C27 1_555 1_555
C28 C27 1_555 1_555
H25 C28 1_555 1_555
C29 C28 1_555 1_555
H26 C29 1_555 1_555
C30 C29 1_555 1_555
H27 C30 1_555 1_555
C31 C26 1_555 1_555
H28 C31 1_555 1_555
C32 C23 1_555 1_555
C33 C32 1_555 1_555
H29 C33 1_555 1_555
C34 C33 1_555 1_555
H30 C34 1_555 1_555
C35 C34 1_555 1_555
H31 C35 1_555 1_555
C36 C35 1_555 1_555
H32 C36 1_555 1_555
C37 C32 1_555 1_555
H33 C37 1_555 1_555
C38 C24 1_555 1_555
C39 H34 1_555 1_555
H35 C39 1_555 1_555
C40 C39 1_555 1_555
H36 C40 1_555 1_555
H37 C40 1_555 1_555
H38 C40 1_555 1_555
N1 C1 1_555 1_555
N2 C21 1_555 1_555
O1 C18 1_555 1_555
O2 C18 1_555 1_555
O3 C38 1_555 1_555
O4 C38 1_555 1_555
C3 C4 1_555 1_555
C5 N1 1_555 1_555
C10 C11 1_555 1_555
C16 C17 1_555 1_555
C19 O2 1_555 1_555
C23 C24 1_555 1_555
C25 N2 1_555 1_555
C30 C31 1_555 1_555
C36 C37 1_555 1_555
C39 O4 1_555 1_555

#END
