
#######################################################################
#
#                 Cambridge Crystallographic Data Centre
#                                CCDC 
#
#######################################################################
#
# If this CIF has been generated from an entry in the Cambridge 
# Structural Database, then it will include bibliographic, chemical, 
# crystal, experimental, refinement or atomic coordinate data resulting 
# from the CCDC's data processing and validation procedures.
#
#######################################################################

data_SAHROK
_chemical_formula_moiety         'C20 H19 N1 O2'
_chemical_name_systematic        
'Ethyl 2,4-diphenyl-3-azabicyclo[3.1.0]hex-2-ene-1-carboxylate'
_symmetry_cell_setting           orthorhombic
_symmetry_space_group_name_H-M   'P c a 21'
_symmetry_Int_Tables_number      29
_space_group_name_Hall           'P 2c -2ac'
loop_
_symmetry_equiv_pos_site_id
_symmetry_equiv_pos_as_xyz
1 x,y,z
2 -x,-y,1/2+z
3 1/2+x,-y,z
4 1/2-x,y,1/2+z
_cell_length_a                   15.3267(11)
_cell_length_b                   16.7395(13)
_cell_length_c                   6.3806(5)
_cell_angle_alpha                90
_cell_angle_beta                 90
_cell_angle_gamma                90
_cell_volume                     1637.01
_exptl_crystal_colour            colorless
_exptl_crystal_description       block
_cell_formula_units_Z            4
loop_
_atom_site_label
_atom_site_type_symbol
_atom_site_fract_x
_atom_site_fract_y
_atom_site_fract_z
C1 C 0.34224(13) 0.66895(12) 1.0849(4)
H1 H 0.2932 0.6564 1.1828
C2 C 0.42394(13) 0.68790(13) 1.2132(4)
H2 H 0.4685 0.6450 1.2336
C3 C 0.42389(15) 0.75728(14) 1.3588(4)
H3 H 0.4687 0.7584 1.4704
H4 H 0.3667 0.7800 1.3994
C4 C 0.45408(13) 0.76968(12) 1.1346(3)
C5 C 0.38174(12) 0.79451(12) 0.9914(3)
C6 C 0.54802(13) 0.77845(12) 1.0865(3)
C7 C 0.64992(14) 0.80092(14) 0.8105(4)
H5 H 0.6903 0.8153 0.9256
H6 H 0.6567 0.8409 0.6973
C8 C 0.67220(14) 0.71971(15) 0.7286(4)
H7 H 0.6326 0.7060 0.6137
H8 H 0.6662 0.6803 0.8414
H9 H 0.7325 0.7196 0.6772
C9 C 0.35740(12) 0.59812(12) 0.9427(4)
C10 C 0.32397(14) 0.52342(14) 0.9934(4)
H10 H 0.2892 0.5174 1.1157
C11 C 0.34068(15) 0.45756(14) 0.8677(5)
H11 H 0.3171 0.4070 0.9043
C12 C 0.39108(16) 0.46487(14) 0.6907(5)
H12 H 0.4019 0.4198 0.6040
C13 C 0.42590(17) 0.53845(15) 0.6402(5)
H13 H 0.4616 0.5438 0.5194
C14 C 0.40911(16) 0.60452(14) 0.7644(4)
H14 H 0.4332 0.6549 0.7273
C15 C 0.37588(12) 0.87600(12) 0.9045(3)
C16 C 0.42186(13) 0.93812(13) 1.0003(4)
H15 H 0.4591 0.9270 1.1156
C17 C 0.41354(13) 1.01563(13) 0.9288(4)
H16 H 0.4445 1.0576 0.9957
C18 C 0.35994(14) 1.03207(13) 0.7593(4)
H17 H 0.3543 1.0854 0.7101
C19 C 0.31446(13) 0.97068(13) 0.6613(4)
H18 H 0.2783 0.9821 0.5441
C20 C 0.32171(12) 0.89294(12) 0.7339(3)
H19 H 0.2899 0.8512 0.6679
N1 N 0.32053(11) 0.74253(10) 0.9660(3)
O1 O 0.60616(10) 0.76322(10) 1.2073(3)
O2 O 0.56024(9) 0.80185(9) 0.8875(3)
loop_
_geom_bond_atom_site_label_1
_geom_bond_atom_site_label_2
_geom_bond_site_symmetry_1
_geom_bond_site_symmetry_2
C1 H1 1_555 1_555
C2 C1 1_555 1_555
H2 C2 1_555 1_555
C3 C2 1_555 1_555
H3 C3 1_555 1_555
H4 C3 1_555 1_555
C4 C2 1_555 1_555
C5 C4 1_555 1_555
C6 C4 1_555 1_555
C7 H5 1_555 1_555
H6 C7 1_555 1_555
C8 C7 1_555 1_555
H7 C8 1_555 1_555
H8 C8 1_555 1_555
H9 C8 1_555 1_555
C9 C1 1_555 1_555
C10 C9 1_555 1_555
H10 C10 1_555 1_555
C11 C10 1_555 1_555
H11 C11 1_555 1_555
C12 C11 1_555 1_555
H12 C12 1_555 1_555
C13 C12 1_555 1_555
H13 C13 1_555 1_555
C14 C9 1_555 1_555
H14 C14 1_555 1_555
C15 C5 1_555 1_555
C16 C15 1_555 1_555
H15 C16 1_555 1_555
C17 C16 1_555 1_555
H16 C17 1_555 1_555
C18 C17 1_555 1_555
H17 C18 1_555 1_555
C19 C18 1_555 1_555
H18 C19 1_555 1_555
C20 C15 1_555 1_555
H19 C20 1_555 1_555
N1 C1 1_555 1_555
O1 C6 1_555 1_555
O2 C6 1_555 1_555
C3 C4 1_555 1_555
C5 N1 1_555 1_555
C7 O2 1_555 1_555
C13 C14 1_555 1_555
C19 C20 1_555 1_555

#END
