
#######################################################################
#
#                 Cambridge Crystallographic Data Centre
#                                CCDC 
#
#######################################################################
#
# If this CIF has been generated from an entry in the Cambridge 
# Structural Database, then it will include bibliographic, chemical, 
# crystal, experimental, refinement or atomic coordinate data resulting 
# from the CCDC's data processing and validation procedures.
#
#######################################################################

data_SAHTUR
_chemical_compound_source        'Isodon japonicus'
_chemical_formula_moiety         'C21 H30 O6,H2 O1'
_chemical_name_systematic        'Rubescensin W monohydrate'
_chemical_properties_biological  'inactive against K562 cells'
_symmetry_cell_setting           monoclinic
_symmetry_space_group_name_H-M   'P 21'
_symmetry_Int_Tables_number      4
_space_group_name_Hall           'P 2yb'
loop_
_symmetry_equiv_pos_site_id
_symmetry_equiv_pos_as_xyz
1 x,y,z
2 -x,1/2+y,-z
_cell_length_a                   10.1970(6)
_cell_length_b                   10.2000(6)
_cell_length_c                   10.7650(6)
_cell_angle_alpha                90
_cell_angle_beta                 65.069(4)
_cell_angle_gamma                90
_cell_volume                     1015.33
_exptl_crystal_colour            colorless
_exptl_crystal_description       cube
_chemical_melting_point          '382-383 K'
_cell_formula_units_Z            2
_exptl_crystal_recrystallization_method methanol
loop_
_atom_site_label
_atom_site_type_symbol
_atom_site_fract_x
_atom_site_fract_y
_atom_site_fract_z
C1 C -0.1470(8) -0.9505(8) -0.3644(7)
C2 C -0.3123(8) -0.9468(9) -0.2968(8)
C3 C -0.3640(9) -0.8505(9) -0.1788(9)
C4 C -0.3074(7) -0.8799(8) -0.0668(7)
C5 C -0.1384(7) -0.8910(7) -0.1422(6)
C6 C -0.0590(7) -0.9180(7) -0.0498(6)
C7 C 0.0912(7) -0.8636(8) -0.1285(6)
C8 C 0.1782(7) -0.9268(7) -0.2656(6)
C9 C 0.0914(7) -0.9805(7) -0.3451(6)
C10 C -0.0789(7) -0.9900(7) -0.2636(6)
C11 C 0.1288(7) -1.1252(7) -0.3899(7)
C12 C 0.2895(9) -1.1684(8) -0.4360(9)
C13 C 0.3724(8) -1.0749(8) -0.3840(8)
C14 C 0.2718(7) -1.0350(8) -0.2351(7)
C15 C 0.3064(7) -0.8415(8) -0.3656(7)
C16 C 0.4027(8) -0.9452(9) -0.4637(8)
C17 C 0.4856(9) -0.9257(9) -0.5949(8)
C18 C -0.3537(9) -0.7592(9) 0.0299(9)
C19 C -0.3791(8) -1.0034(9) 0.0145(8)
C20 C -0.1008(7) -1.1378(7) -0.2184(7)
O1 O -0.0936(6) -1.0291(5) -0.4856(5)
O2 O -0.1202(5) -0.8594 0.0826(4)
O3 O 0.1390(6) -0.7775(6) -0.0805(5)
O4 O 0.2661(5) -0.7422(5) -0.4351(5)
O5 O 0.0380(5) -1.1954(5) -0.2659(5)
O6 O -0.1834(5) -1.2018(5) -0.2793(5)
C21 C -0.2133(9) -1.3369(8) -0.2388(9)
H1 H -0.108 -0.851 -0.397
H2 H -0.352 -0.919 -0.371
H3 H -0.354 -1.044 -0.257
H4 H -0.481 -0.849 -0.130
H5 H -0.327 -0.752 -0.221
H6 H -0.101 -0.797 -0.187
H7 H -0.052 -1.025 -0.040
H8 H 0.116 -0.922 -0.436
H9 H 0.095 -1.147 -0.470
H10 H 0.290 -1.266 -0.396
H11 H 0.341 -1.171 -0.546
H12 H 0.473 -1.120 -0.388
H13 H 0.332 -0.994 -0.183
H14 H 0.208 -1.116 -0.179
H15 H 0.361 -0.800 -0.307
H16 H 0.509 -0.832 -0.649
H17 H 0.537 -1.012 -0.660
H18 H -0.333 -0.781 0.121
H19 H -0.291 -0.674 -0.020
H20 H -0.469 -0.746 0.060
H21 H -0.487 -0.985 0.088
H22 H -0.382 -1.081 -0.056
H23 H -0.310 -1.035 0.063
H24 H -0.155 -1.144 -0.107
H25 H -0.137 -1.112 -0.469
H26 H -0.039 -0.796 0.087
H27 H 0.214 -0.667 -0.375
H28 H -0.330 -1.354 -0.193
H29 H -0.163 -1.401 -0.327
H30 H -0.170 -1.355 -0.164
O7 O -0.8988(9) -0.5506(8) -0.2645(6)
H31 H -0.804 -0.506 -0.313
H32 H -0.969 -0.472 -0.259
loop_
_geom_bond_atom_site_label_1
_geom_bond_atom_site_label_2
_geom_bond_site_symmetry_1
_geom_bond_site_symmetry_2
C1 C2 1_555 1_555
C2 C3 1_555 1_555
C3 C4 1_555 1_555
C4 C5 1_555 1_555
C5 C6 1_555 1_555
C6 C7 1_555 1_555
C7 C8 1_555 1_555
C8 C9 1_555 1_555
C9 C10 1_555 1_555
C10 C1 1_555 1_555
C11 C9 1_555 1_555
C12 C11 1_555 1_555
C13 C12 1_555 1_555
C14 C8 1_555 1_555
C15 C8 1_555 1_555
C16 C13 1_555 1_555
C17 C16 1_555 1_555
C18 C4 1_555 1_555
C19 C4 1_555 1_555
C20 C10 1_555 1_555
O1 C1 1_555 1_555
O2 C6 1_555 1_555
O3 C7 1_555 1_555
O4 C15 1_555 1_555
O5 C11 1_555 1_555
O6 C20 1_555 1_555
C21 O6 1_555 1_555
O7 H31 1_555 1_555
H1 C1 1_555 1_555
H2 C2 1_555 1_555
H3 C2 1_555 1_555
H4 C3 1_555 1_555
H5 C3 1_555 1_555
H6 C5 1_555 1_555
H7 C6 1_555 1_555
H8 C9 1_555 1_555
H9 C11 1_555 1_555
H10 C12 1_555 1_555
H11 C12 1_555 1_555
H12 C13 1_555 1_555
H13 C14 1_555 1_555
H14 C14 1_555 1_555
H15 C15 1_555 1_555
H16 C17 1_555 1_555
H17 C17 1_555 1_555
H18 C18 1_555 1_555
H19 C18 1_555 1_555
H20 C18 1_555 1_555
H21 C19 1_555 1_555
H22 C19 1_555 1_555
H23 C19 1_555 1_555
H24 C20 1_555 1_555
H25 O1 1_555 1_555
H26 O2 1_555 1_555
H27 O4 1_555 1_555
H28 C21 1_555 1_555
H29 C21 1_555 1_555
H30 C21 1_555 1_555
H32 O7 1_555 1_555
C5 C10 1_555 1_555
C13 C14 1_555 1_555
C15 C16 1_555 1_555
C20 O5 1_555 1_555

#END
