
#######################################################################
#
#                 Cambridge Crystallographic Data Centre
#                                CCDC 
#
#######################################################################
#
# If this CIF has been generated from an entry in the Cambridge 
# Structural Database, then it will include bibliographic, chemical, 
# crystal, experimental, refinement or atomic coordinate data resulting 
# from the CCDC's data processing and validation procedures.
#
#######################################################################

data_SAJBUD
_chemical_formula_moiety         'C17 H18 N2 O4'
_chemical_name_systematic        
1-(2-methyl-4-nitro-3-phenylbutan-2-yl)-4-nitrobenzene
_symmetry_cell_setting           monoclinic
_symmetry_space_group_name_H-M   'P 21/n'
_symmetry_Int_Tables_number      14
_space_group_name_Hall           '-P 2yn'
loop_
_symmetry_equiv_pos_site_id
_symmetry_equiv_pos_as_xyz
1 x,y,z
2 1/2-x,1/2+y,1/2-z
3 -x,-y,-z
4 1/2+x,1/2-y,1/2+z
_cell_length_a                   12.8739(16)
_cell_length_b                   6.1492(8)
_cell_length_c                   19.983(3)
_cell_angle_alpha                90
_cell_angle_beta                 106.683(4)
_cell_angle_gamma                90
_cell_volume                     1515.35
_exptl_crystal_colour            colorless
_exptl_crystal_description       block
_chemical_melting_point          '131-132 deg.C'
_cell_formula_units_Z            4
_exptl_crystal_recrystallization_method 'hexane/ethyl acetate'
loop_
_atom_site_label
_atom_site_type_symbol
_atom_site_fract_x
_atom_site_fract_y
_atom_site_fract_z
C1 C 0.75447(10) 0.2117(2) 0.92787(6)
C2 C 0.82589(10) 0.3742(2) 0.96196(7)
H1 H 0.8185 0.5169 0.943
C3 C 0.90783(10) 0.3313(2) 1.02328(7)
H2 H 0.9559 0.4433 1.0461
C4 C 0.91782(10) 0.1230(2) 1.05020(6)
C5 C 0.84726(11) -0.0415(2) 1.01923(7)
H3 H 0.8539 -0.1826 1.0393
C6 C 0.76664(11) 0.0043(2) 0.95819(7)
H4 H 0.7182 -0.1081 0.9362
C7 C 0.66769(10) 0.2501(2) 0.85781(6)
C8 C 0.70136(10) 0.1157(2) 0.80235(7)
H5 H 0.7741 0.1597 0.8014
H6 H 0.6497 0.1411 0.7564
H7 H 0.7018 -0.0392 0.814
C9 C 0.66101(11) 0.4894(2) 0.83530(7)
H8 H 0.6395 0.5784 0.8698
H9 H 0.6072 0.5052 0.7896
H10 H 0.732 0.5375 0.8322
C10 C 0.55450(10) 0.1677(2) 0.86349(6)
H11 H 0.5636 0.0105 0.8766
C11 C 0.52617(10) 0.2854(2) 0.92334(7)
H12 H 0.5877 0.2724 0.9663
H13 H 0.515 0.4418 0.9118
C12 C 0.46366(10) 0.1807(2) 0.79520(6)
C13 C 0.39833(10) 0.3646(2) 0.77545(7)
H14 H 0.4104 0.488 0.8053
C14 C 0.31566(11) 0.3698(2) 0.71253(7)
H15 H 0.2718 0.4959 0.6999
C15 C 0.29744(11) 0.1910(2) 0.66839(7)
H16 H 0.2416 0.1948 0.6253
C16 C 0.36115(11) 0.0062(2) 0.68742(7)
H17 H 0.3488 -0.1167 0.6574
C17 C 0.44315(10) 0.0010(2) 0.75047(7)
H18 H 0.4858 -0.1267 0.7633
N1 N 1.00595(9) 0.07572(19) 1.11379(6)
N2 N 0.42582(9) 0.1948(2) 0.93703(6)
O1 O 1.00871(8) -0.10560(18) 1.14031(6)
O2 O 1.07330(8) 0.21844(18) 1.13676(5)
O3 O 0.40918(9) -0.00174(18) 0.93019(5)
O4 O 0.36711(9) 0.3222(2) 0.95648(7)
loop_
_geom_bond_atom_site_label_1
_geom_bond_atom_site_label_2
_geom_bond_site_symmetry_1
_geom_bond_site_symmetry_2
C1 C2 1_555 1_555
C2 H1 1_555 1_555
C3 C2 1_555 1_555
H2 C3 1_555 1_555
C4 C3 1_555 1_555
C5 C4 1_555 1_555
H3 C5 1_555 1_555
C6 C1 1_555 1_555
H4 C6 1_555 1_555
C7 C1 1_555 1_555
C8 C7 1_555 1_555
H5 C8 1_555 1_555
H6 C8 1_555 1_555
H7 C8 1_555 1_555
C9 C7 1_555 1_555
H8 C9 1_555 1_555
H9 C9 1_555 1_555
H10 C9 1_555 1_555
C10 C7 1_555 1_555
H11 C10 1_555 1_555
C11 C10 1_555 1_555
H12 C11 1_555 1_555
H13 C11 1_555 1_555
C12 C10 1_555 1_555
C13 C12 1_555 1_555
H14 C13 1_555 1_555
C14 C13 1_555 1_555
H15 C14 1_555 1_555
C15 C14 1_555 1_555
H16 C15 1_555 1_555
C16 C15 1_555 1_555
H17 C16 1_555 1_555
C17 C12 1_555 1_555
H18 C17 1_555 1_555
N1 C4 1_555 1_555
N2 C11 1_555 1_555
O1 N1 1_555 1_555
O2 N1 1_555 1_555
O3 N2 1_555 1_555
O4 N2 1_555 1_555
C5 C6 1_555 1_555
C16 C17 1_555 1_555

#END
