
#######################################################################
#
#                 Cambridge Crystallographic Data Centre
#                                CCDC 
#
#######################################################################
#
# If this CIF has been generated from an entry in the Cambridge 
# Structural Database, then it will include bibliographic, chemical, 
# crystal, experimental, refinement or atomic coordinate data resulting 
# from the CCDC's data processing and validation procedures.
#
#######################################################################

data_SAJBUC
_chemical_formula_moiety         'C36 H34'
_chemical_name_systematic        
1,1,1',1'-Tetramethyl-3,3'-bis(4-methylphenyl)-1H,1'H-2,2'-biindene
_symmetry_cell_setting           monoclinic
_symmetry_space_group_name_H-M   'P 21/c'
_symmetry_Int_Tables_number      14
_space_group_name_Hall           '-P 2ybc'
loop_
_symmetry_equiv_pos_site_id
_symmetry_equiv_pos_as_xyz
1 x,y,z
2 -x,1/2+y,1/2-z
3 -x,-y,-z
4 x,1/2-y,1/2+z
_cell_length_a                   13.3337(12)
_cell_length_b                   13.4500(12)
_cell_length_c                   15.0559(14)
_cell_angle_alpha                90
_cell_angle_beta                 96.267(2)
_cell_angle_gamma                90
_cell_volume                     2683.96
_exptl_crystal_colour            colorless
_exptl_crystal_description       prismatic
_cell_formula_units_Z            4
loop_
_atom_site_label
_atom_site_type_symbol
_atom_site_fract_x
_atom_site_fract_y
_atom_site_fract_z
C1 C 0.20192(10) -0.04141(10) 0.16636(9)
C2 C 0.17354(11) -0.12914(10) 0.10144(10)
C3 C 0.21356(11) -0.21691(11) 0.15661(10)
C4 C 0.20723(13) -0.31730(12) 0.13611(12)
H1 H 0.1733 -0.3388 0.0823
C5 C 0.25251(16) -0.38501(12) 0.19734(14)
H2 H 0.2474 -0.4527 0.1851
C6 C 0.30470(15) -0.35345(13) 0.27564(14)
H3 H 0.3358 -0.4000 0.3152
C7 C 0.31200(13) -0.25322(12) 0.29689(12)
H4 H 0.3481 -0.2321 0.3499
C8 C 0.26403(11) -0.18505(10) 0.23702(10)
C9 C 0.25572(10) -0.07604(10) 0.24177(10)
C10 C 0.30255(11) -0.02069(10) 0.32051(10)
C11 C 0.28595(12) -0.05013(12) 0.40596(11)
H5 H 0.2444 -0.1044 0.4131
C12 C 0.32944(14) -0.00091(14) 0.48030(12)
H6 H 0.3162 -0.0222 0.5366
C13 C 0.39257(13) 0.07972(13) 0.47329(12)
C14 C 0.41019(13) 0.10829(12) 0.38865(13)
H7 H 0.4529 0.1618 0.3818
C15 C 0.36599(12) 0.05944(11) 0.31324(11)
H8 H 0.3792 0.0809 0.2570
C16 C 0.22664(14) -0.12353(12) 0.01638(11)
H9 H 0.2979 -0.1157 0.0322
H10 H 0.2011 -0.0678 -0.0189
H11 H 0.2142 -0.1836 -0.0175
C17 C 0.05986(12) -0.13950(12) 0.07476(12)
H12 H 0.0473 -0.1960 0.0362
H13 H 0.0349 -0.0806 0.0439
H14 H 0.0262 -0.1484 0.1274
C18 C 0.43986(17) 0.13247(15) 0.55548(14)
H15 H 0.4896 0.1786 0.5391
H16 H 0.4714 0.0847 0.5969
H17 H 0.3887 0.1678 0.5829
C19 C 0.16728(10) 0.06271(10) 0.14736(9)
C20 C 0.08438(11) 0.11185(11) 0.19769(10)
C21 C 0.07048(11) 0.21062(11) 0.14986(10)
C22 C 0.00364(13) 0.28682(13) 0.16201(12)
H18 H -0.0430 0.2807 0.2033
C23 C 0.00758(15) 0.37223(13) 0.11146(13)
H19 H -0.0376 0.4236 0.1183
C24 C 0.07764(15) 0.38240(12) 0.05107(13)
H20 H 0.0803 0.4412 0.0190
C25 C 0.14380(12) 0.30628(11) 0.03769(11)
H21 H 0.1909 0.3130 -0.0032
C26 C 0.13826(10) 0.21954(10) 0.08680(10)
C27 C 0.19558(10) 0.12606(10) 0.08495(10)
C28 C 0.26954(11) 0.11628(10) 0.01867(10)
C29 C 0.23700(13) 0.12663(11) -0.07162(11)
H22 H 0.1685 0.1349 -0.0896
C30 C 0.30401(14) 0.12494(12) -0.13526(12)
H23 H 0.2797 0.1307 -0.1953
C31 C 0.40587(14) 0.11497(12) -0.11166(14)
C32 C 0.43835(13) 0.10533(13) -0.02186(15)
H24 H 0.5070 0.0986 -0.0040
C33 C 0.37167(12) 0.10541(12) 0.04220(12)
H25 H 0.3961 0.0980 0.1021
C34 C 0.47874(18) 0.11574(17) -0.18168(17)
H26 H 0.4700 0.0564 -0.2171
H27 H 0.5466 0.1185 -0.1530
H28 H 0.4659 0.1728 -0.2195
C35 C -0.01425(12) 0.05281(13) 0.18926(12)
H29 H -0.0646 0.0894 0.2165
H30 H -0.0033 -0.0102 0.2187
H31 H -0.0368 0.0421 0.1272
C36 C 0.11741(13) 0.13151(12) 0.29675(10)
H32 H 0.1780 0.1706 0.3026
H33 H 0.1298 0.0694 0.3274
H34 H 0.0651 0.1669 0.3224
loop_
_geom_bond_atom_site_label_1
_geom_bond_atom_site_label_2
_geom_bond_site_symmetry_1
_geom_bond_site_symmetry_2
C1 C2 1_555 1_555
C2 C3 1_555 1_555
C3 C4 1_555 1_555
C4 H1 1_555 1_555
C5 C4 1_555 1_555
H2 C5 1_555 1_555
C6 C5 1_555 1_555
H3 C6 1_555 1_555
C7 C6 1_555 1_555
H4 C7 1_555 1_555
C8 C3 1_555 1_555
C9 C1 1_555 1_555
C10 C9 1_555 1_555
C11 C10 1_555 1_555
H5 C11 1_555 1_555
C12 C11 1_555 1_555
H6 C12 1_555 1_555
C13 C12 1_555 1_555
C14 C13 1_555 1_555
H7 C14 1_555 1_555
C15 C10 1_555 1_555
H8 C15 1_555 1_555
C16 C2 1_555 1_555
H9 C16 1_555 1_555
H10 C16 1_555 1_555
H11 C16 1_555 1_555
C17 C2 1_555 1_555
H12 C17 1_555 1_555
H13 C17 1_555 1_555
H14 C17 1_555 1_555
C18 C13 1_555 1_555
H15 C18 1_555 1_555
H16 C18 1_555 1_555
H17 C18 1_555 1_555
C19 C1 1_555 1_555
C20 C19 1_555 1_555
C21 C20 1_555 1_555
C22 C21 1_555 1_555
H18 C22 1_555 1_555
C23 C22 1_555 1_555
H19 C23 1_555 1_555
C24 C23 1_555 1_555
H20 C24 1_555 1_555
C25 C24 1_555 1_555
H21 C25 1_555 1_555
C26 C21 1_555 1_555
C27 C19 1_555 1_555
C28 C27 1_555 1_555
C29 C28 1_555 1_555
H22 C29 1_555 1_555
C30 C29 1_555 1_555
H23 C30 1_555 1_555
C31 C30 1_555 1_555
C32 C31 1_555 1_555
H24 C32 1_555 1_555
C33 C28 1_555 1_555
H25 C33 1_555 1_555
C34 C31 1_555 1_555
H26 C34 1_555 1_555
H27 C34 1_555 1_555
H28 C34 1_555 1_555
C35 C20 1_555 1_555
H29 C35 1_555 1_555
H30 C35 1_555 1_555
H31 C35 1_555 1_555
C36 C20 1_555 1_555
H32 C36 1_555 1_555
H33 C36 1_555 1_555
H34 C36 1_555 1_555
C7 C8 1_555 1_555
C8 C9 1_555 1_555
C14 C15 1_555 1_555
C25 C26 1_555 1_555
C26 C27 1_555 1_555
C32 C33 1_555 1_555

#END
