
#######################################################################
#
#                 Cambridge Crystallographic Data Centre
#                                CCDC 
#
#######################################################################
#
# If this CIF has been generated from an entry in the Cambridge 
# Structural Database, then it will include bibliographic, chemical, 
# crystal, experimental, refinement or atomic coordinate data resulting 
# from the CCDC's data processing and validation procedures.
#
#######################################################################

data_SAJCUD
_chemical_formula_moiety         'C57 H65 B1 F2 N2 O2'
_chemical_name_systematic        
"Methyl 4'-(5,5-difluoro-1,9-dimethyl-3,7-bis(2-(4-octylphenyl)vinyl)-5H-6\l^5^,5\l^5^-dipyrrolo[1,2-c:2',1'-f][1,3,2]diazaborinin-10-yl)biphenyl-4-carboxylate"
_symmetry_cell_setting           triclinic
_symmetry_space_group_name_H-M   'P -1'
_symmetry_Int_Tables_number      2
_space_group_name_Hall           '-P 1'
loop_
_symmetry_equiv_pos_site_id
_symmetry_equiv_pos_as_xyz
1 x,y,z
2 -x,-y,-z
_cell_length_a                   10.001(13)
_cell_length_b                   11.878(16)
_cell_length_c                   21.49(3)
_cell_angle_alpha                80.213(15)
_cell_angle_beta                 82.582(19)
_cell_angle_gamma                84.248(17)
_cell_volume                     2486.61
_exptl_crystal_colour            green
_exptl_crystal_description       needle
_cell_formula_units_Z            2
loop_
_atom_site_label
_atom_site_type_symbol
_atom_site_fract_x
_atom_site_fract_y
_atom_site_fract_z
B1 B 0.9043(14) 0.1924(11) 0.2305(7)
F1 F 0.8002(6) 0.1419(4) 0.2129(3)
F2 F 0.8613(6) 0.2330(4) 0.2873(3)
O1 O 2.2100(8) 0.2216(6) -0.0774(4)
O2 O 2.1382(8) 0.0933(6) -0.1306(4)
N1 N 0.9606(9) 0.2848(6) 0.1789(4)
N2 N 1.0294(9) 0.0946(6) 0.2419(4)
C1 C 0.8914(12) 0.3877(9) 0.1531(6)
C2 C 1.0216(12) -0.0049(9) 0.2845(5)
C3 C 1.1520(10) -0.0681(9) 0.2743(6)
H1 H 1.1771 -0.1411 0.2974
C4 C 0.9776(12) 0.4529(9) 0.1075(6)
H2 H 0.9528 0.5255 0.0839
C5 C 1.1063(13) 0.3939(8) 0.1021(6)
C6 C 1.2333(12) -0.0089(8) 0.2273(6)
C7 C 1.1571(11) 0.0990(9) 0.2053(5)
C8 C 1.0909(12) 0.2889(9) 0.1459(5)
C9 C 1.1902(12) 0.1877(9) 0.1590(5)
C10 C 1.3754(10) -0.0506(8) 0.2026(5)
H3 H 1.3876 -0.1341 0.2138
H4 H 1.4412 -0.0155 0.2219
H5 H 1.3892 -0.0289 0.1563
C11 C 1.2250(10) 0.4367(8) 0.0584(5)
H6 H 1.2083 0.5192 0.0440
H7 H 1.2390 0.3965 0.0215
H8 H 1.3059 0.4225 0.0808
C12 C 0.9041(11) -0.0349(9) 0.3265(6)
H9 H 0.8256 0.0170 0.3236
C13 C 0.7476(12) 0.4082(8) 0.1765(5)
H10 H 0.7063 0.3555 0.2100
C14 C 0.8947(11) -0.1293(9) 0.3694(6)
H11 H 0.9753 -0.1783 0.3731
C15 C 0.6729(11) 0.5039(8) 0.1497(5)
H12 H 0.7178 0.5558 0.1170
C16 C 0.7769(12) -0.1663(9) 0.4110(6)
C17 C 0.5276(12) 0.5307(9) 0.1686(6)
C18 C 0.4696(13) 0.6336(9) 0.1338(6)
H13 H 0.5235 0.6797 0.1016
C19 C 0.7807(12) -0.2750(9) 0.4481(5)
H14 H 0.8624 -0.3233 0.4474
C20 C 0.3311(13) 0.6648(10) 0.1482(6)
H15 H 0.2936 0.7337 0.1252
C21 C 0.6635(13) -0.3134(9) 0.4865(6)
H16 H 0.6682 -0.3881 0.5108
C22 C 0.5426(13) -0.2466(10) 0.4901(6)
C23 C 0.2484(12) 0.6032(9) 0.1926(6)
C24 C 0.5420(13) -0.1367(10) 0.4544(6)
H17 H 0.4612 -0.0873 0.4560
C25 C 0.3038(12) 0.4983(8) 0.2271(6)
H18 H 0.2493 0.4511 0.2583
C26 C 0.6554(12) -0.0987(9) 0.4173(6)
H19 H 0.6511 -0.0225 0.3949
C27 C 0.4409(13) 0.4693(9) 0.2126(6)
H20 H 0.4778 0.4001 0.2355
C28 C 0.4174(11) -0.2916(9) 0.5274(5)
H21 H 0.4333 -0.3086 0.5727
H22 H 0.4050 -0.3653 0.5141
C29 C 0.0966(11) 0.6415(9) 0.2054(6)
H23 H 0.0900 0.7213 0.2141
H24 H 0.0562 0.6439 0.1655
C30 C 0.0097(11) 0.5749(9) 0.2572(6)
H25 H 0.0466 0.5711 0.2982
H26 H 0.0087 0.4957 0.2487
C31 C 0.2839(11) -0.2160(9) 0.5229(5)
H27 H 0.2933 -0.1432 0.5380
H28 H 0.2674 -0.1970 0.4777
C32 C -0.1368(11) 0.6337(8) 0.2612(6)
H29 H -0.1333 0.7122 0.2704
H30 H -0.1690 0.6411 0.2189
C33 C 0.1613(11) -0.2715(9) 0.5612(5)
H31 H 0.1465 -0.3399 0.5431
H32 H 0.1822 -0.2981 0.6054
C34 C 0.0313(11) -0.1944(9) 0.5631(5)
H33 H 0.0476 -0.1233 0.5782
H34 H 0.0062 -0.1726 0.5193
C35 C -0.2398(11) 0.5742(9) 0.3100(5)
H35 H -0.2083 0.5652 0.3525
H36 H -0.2475 0.4967 0.3003
C36 C -0.3825(11) 0.6422(8) 0.3114(6)
H37 H -0.3749 0.7171 0.3245
H38 H -0.4086 0.6576 0.2677
C37 C -0.0860(11) -0.2484(9) 0.6053(5)
H39 H -0.0586 -0.2741 0.6484
H40 H -0.1050 -0.3173 0.5886
C38 C -0.2167(11) -0.1695(9) 0.6105(6)
H41 H -0.2479 -0.1477 0.5679
H42 H -0.1972 -0.0986 0.6249
C39 C -0.4946(11) 0.5835(9) 0.3549(5)
H43 H -0.4706 0.5685 0.3990
H44 H -0.5044 0.5088 0.3420
C40 C -0.3303(11) -0.2249(9) 0.6567(5)
H45 H -0.2996 -0.2447 0.6995
H46 H -0.3475 -0.2971 0.6431
C41 C -0.6303(11) 0.6576(9) 0.3526(6)
H47 H -0.6199 0.7315 0.3663
H48 H -0.6516 0.6745 0.3081
C42 C -0.4640(10) -0.1484(9) 0.6613(5)
H49 H -0.5303 -0.1877 0.6930
H50 H -0.4989 -0.1330 0.6199
H51 H -0.4478 -0.0759 0.6739
C43 C -0.7500(12) 0.6019(9) 0.3944(6)
H52 H -0.8341 0.6487 0.3861
H53 H -0.7370 0.5964 0.4393
H54 H -0.7552 0.5250 0.3846
C44 C 1.3278(14) 0.1890(8) 0.1219(7)
C45 C 1.4374(15) 0.2105(8) 0.1493(6)
H55 H 1.4239 0.2304 0.1908
C46 C 1.5689(14) 0.2037(8) 0.1174(7)
H56 H 1.6456 0.2150 0.1368
C47 C 1.5805(13) 0.1790(7) 0.0547(7)
C48 C 1.4697(14) 0.1610(7) 0.0255(6)
H57 H 1.4807 0.1448 -0.0167
C49 C 1.3407(12) 0.1674(8) 0.0606(7)
H58 H 1.2629 0.1568 0.0419
C50 C 1.7220(12) 0.1708(9) 0.0188(6)
C51 C 1.8187(13) 0.2378(8) 0.0290(5)
H59 H 1.7970 0.2859 0.0606
C52 C 1.9494(13) 0.2386(9) -0.0055(6)
H60 H 2.0119 0.2897 0.0007
C53 C 1.9846(12) 0.1610(9) -0.0497(6)
C54 C 1.8914(13) 0.0929(9) -0.0588(5)
H61 H 1.9146 0.0423 -0.0890
C55 C 1.7632(12) 0.0939(9) -0.0257(6)
H62 H 1.7017 0.0425 -0.0326
C56 C 2.1239(14) 0.1617(9) -0.0852(7)
C57 C 2.2783(11) 0.0909(9) -0.1658(5)
H63 H 2.2846 0.0401 -0.1977
H64 H 2.3445 0.0627 -0.1358
H65 H 2.2969 0.1685 -0.1869
loop_
_geom_bond_atom_site_label_1
_geom_bond_atom_site_label_2
_geom_bond_site_symmetry_1
_geom_bond_site_symmetry_2
B1 F1 1_555 1_555
F2 B1 1_555 1_555
O1 C56 1_555 1_555
O2 C56 1_555 1_555
N1 B1 1_555 1_555
N2 B1 1_555 1_555
C1 N1 1_555 1_555
C2 N2 1_555 1_555
C3 C2 1_555 1_555
H1 C3 1_555 1_555
C4 C1 1_555 1_555
H2 C4 1_555 1_555
C5 C4 1_555 1_555
C6 C3 1_555 1_555
C7 N2 1_555 1_555
C8 N1 1_555 1_555
C9 C7 1_555 1_555
C10 C6 1_555 1_555
H3 C10 1_555 1_555
H4 C10 1_555 1_555
H5 C10 1_555 1_555
C11 C5 1_555 1_555
H6 C11 1_555 1_555
H7 C11 1_555 1_555
H8 C11 1_555 1_555
C12 C2 1_555 1_555
H9 C12 1_555 1_555
C13 C1 1_555 1_555
H10 C13 1_555 1_555
C14 C12 1_555 1_555
H11 C14 1_555 1_555
C15 C13 1_555 1_555
H12 C15 1_555 1_555
C16 C14 1_555 1_555
C17 C15 1_555 1_555
C18 C17 1_555 1_555
H13 C18 1_555 1_555
C19 C16 1_555 1_555
H14 C19 1_555 1_555
C20 C18 1_555 1_555
H15 C20 1_555 1_555
C21 C19 1_555 1_555
H16 C21 1_555 1_555
C22 C21 1_555 1_555
C23 C20 1_555 1_555
C24 C22 1_555 1_555
H17 C24 1_555 1_555
C25 C23 1_555 1_555
H18 C25 1_555 1_555
C26 C16 1_555 1_555
H19 C26 1_555 1_555
C27 C17 1_555 1_555
H20 C27 1_555 1_555
C28 C22 1_555 1_555
H21 C28 1_555 1_555
H22 C28 1_555 1_555
C29 C23 1_555 1_555
H23 C29 1_555 1_555
H24 C29 1_555 1_555
C30 C29 1_555 1_555
H25 C30 1_555 1_555
H26 C30 1_555 1_555
C31 C28 1_555 1_555
H27 C31 1_555 1_555
H28 C31 1_555 1_555
C32 C30 1_555 1_555
H29 C32 1_555 1_555
H30 C32 1_555 1_555
C33 C31 1_555 1_555
H31 C33 1_555 1_555
H32 C33 1_555 1_555
C34 C33 1_555 1_555
H33 C34 1_555 1_555
H34 C34 1_555 1_555
C35 C32 1_555 1_555
H35 C35 1_555 1_555
H36 C35 1_555 1_555
C36 C35 1_555 1_555
H37 C36 1_555 1_555
H38 C36 1_555 1_555
C37 C34 1_555 1_555
H39 C37 1_555 1_555
H40 C37 1_555 1_555
C38 C37 1_555 1_555
H41 C38 1_555 1_555
H42 C38 1_555 1_555
C39 C36 1_555 1_555
H43 C39 1_555 1_555
H44 C39 1_555 1_555
C40 C38 1_555 1_555
H45 C40 1_555 1_555
H46 C40 1_555 1_555
C41 C39 1_555 1_555
H47 C41 1_555 1_555
H48 C41 1_555 1_555
C42 C40 1_555 1_555
H49 C42 1_555 1_555
H50 C42 1_555 1_555
H51 C42 1_555 1_555
C43 C41 1_555 1_555
H52 C43 1_555 1_555
H53 C43 1_555 1_555
H54 C43 1_555 1_555
C44 C9 1_555 1_555
C45 C44 1_555 1_555
H55 C45 1_555 1_555
C46 C45 1_555 1_555
H56 C46 1_555 1_555
C47 C46 1_555 1_555
C48 C47 1_555 1_555
H57 C48 1_555 1_555
C49 C44 1_555 1_555
H58 C49 1_555 1_555
C50 C47 1_555 1_555
C51 C50 1_555 1_555
H59 C51 1_555 1_555
C52 C51 1_555 1_555
H60 C52 1_555 1_555
C53 C52 1_555 1_555
C54 C53 1_555 1_555
H61 C54 1_555 1_555
C55 C50 1_555 1_555
H62 C55 1_555 1_555
C56 C53 1_555 1_555
C57 O2 1_555 1_555
H63 C57 1_555 1_555
H64 C57 1_555 1_555
H65 C57 1_555 1_555
C5 C8 1_555 1_555
C6 C7 1_555 1_555
C8 C9 1_555 1_555
C24 C26 1_555 1_555
C25 C27 1_555 1_555
C48 C49 1_555 1_555
C54 C55 1_555 1_555

#END
