
#######################################################################
#
#                 Cambridge Crystallographic Data Centre
#                                CCDC 
#
#######################################################################
#
# If this CIF has been generated from an entry in the Cambridge 
# Structural Database, then it will include bibliographic, chemical, 
# crystal, experimental, refinement or atomic coordinate data resulting 
# from the CCDC's data processing and validation procedures.
#
#######################################################################

data_SAJCEN
_chemical_formula_moiety         'C52 H46'
_chemical_name_systematic        
3,3'-bis(9,9-dimethyl-9H-fluoren-2-yl)-1,1,1',1'-tetramethyl-1H,1'H-2,2'-biindene
_symmetry_cell_setting           orthorhombic
_symmetry_space_group_name_H-M   'A b a 2'
_symmetry_Int_Tables_number      41
_space_group_name_Hall           'A 2 -2ab'
loop_
_symmetry_equiv_pos_site_id
_symmetry_equiv_pos_as_xyz
1 x,y,z
2 -x,-y,z
3 1/2+x,1/2-y,z
4 1/2-x,1/2+y,z
5 x,1/2+y,1/2+z
6 -x,1/2-y,1/2+z
7 1/2+x,-y,1/2+z
8 1/2-x,y,1/2+z
_cell_length_a                   14.4393(19)
_cell_length_b                   17.891(2)
_cell_length_c                   14.979(2)
_cell_angle_alpha                90
_cell_angle_beta                 90
_cell_angle_gamma                90
_cell_volume                     3869.58
_exptl_crystal_colour            green
_exptl_crystal_description       prismatic
_cell_formula_units_Z            4
loop_
_atom_site_label
_atom_site_type_symbol
_atom_site_fract_x
_atom_site_fract_y
_atom_site_fract_z
C1 C 0.09931(15) 0.46612(11) 0.30107(14)
C2 C 0.19929(15) 0.47955(12) 0.31444(16)
C3 C 0.27628(17) 0.46000(14) 0.26495(19)
H1 H 0.2700 0.4317 0.2132
C4 C 0.36305(19) 0.48297(16) 0.2933(2)
H2 H 0.4151 0.4702 0.2601
C5 C 0.37324(19) 0.52459(17) 0.3703(2)
H3 H 0.4318 0.5406 0.3876
C6 C 0.29681(17) 0.54276(16) 0.4219(2)
H4 H 0.3040 0.5698 0.4744
C7 C 0.20974(16) 0.52025(13) 0.39451(16)
C8 C 0.11800(17) 0.52858(14) 0.44073(16)
C9 C 0.05119(15) 0.49620(12) 0.36962(14)
C10 C 0.09665(19) 0.61028(15) 0.46655(19)
H5 H 0.1361 0.6252 0.5150
H6 H 0.0331 0.6143 0.4847
H7 H 0.1075 0.6422 0.4161
C11 C 0.1227(2) 0.48000(18) 0.52601(17)
H8 H 0.1389 0.4297 0.5101
H9 H 0.0635 0.4802 0.5551
H10 H 0.1687 0.4999 0.5657
C12 C 0.06196(15) 0.42651(11) 0.22172(14)
C13 C -0.01326(16) 0.37759(12) 0.23033(16)
H11 H -0.0389 0.3689 0.2863
C14 C -0.04932(18) 0.34250(12) 0.15674(16)
C15 C -0.0096(2) 0.35240(13) 0.07242(16)
C16 C 0.06446(19) 0.40047(15) 0.06205(17)
H12 H 0.0910 0.4078 0.0062
C17 C 0.09869(18) 0.43780(13) 0.13668(15)
H13 H 0.1475 0.4712 0.1296
C18 C -0.0622(2) 0.30670(15) 0.0078(2)
C19 C -0.0496(3) 0.2963(2) -0.0837(2)
H14 H -0.0009 0.3192 -0.1138
C20 C -0.1119(4) 0.2509(3) -0.1279(3)
H15 H -0.1041 0.2422 -0.1887
C21 C -0.1850(5) 0.2185(2) -0.0844(4)
H16 H -0.2267 0.1895 -0.1165
C22 C -0.1980(3) 0.22803(18) 0.0070(3)
H17 H -0.2472 0.2053 0.0365
C23 C -0.1349(2) 0.27257(15) 0.0527(2)
C24 C -0.1341(2) 0.29112(14) 0.1526(2)
C25 C -0.2219(2) 0.3324(2) 0.1825(2)
H18 H -0.2748 0.3007 0.1741
H19 H -0.2293 0.3771 0.1477
H20 H -0.2167 0.3454 0.2445
C26 C -0.1184(3) 0.2212(2) 0.2093(3)
H21 H -0.0677 0.1930 0.1851
H22 H -0.1734 0.1910 0.2088
H23 H -0.1043 0.2356 0.2695
C1A C -0.09931(15) 0.53388(11) 0.30107(14)
C2A C -0.19929(15) 0.52045(12) 0.31444(16)
C3A C -0.27628(17) 0.54000(14) 0.26495(19)
H1A H -0.2700 0.5683 0.2132
C4A C -0.36305(19) 0.51703(16) 0.2933(2)
H2A H -0.4151 0.5298 0.2601
C5A C -0.37324(19) 0.47541(17) 0.3703(2)
H3A H -0.4318 0.4594 0.3876
C6A C -0.29681(17) 0.45724(16) 0.4219(2)
H4A H -0.3040 0.4302 0.4744
C7A C -0.20974(16) 0.47975(13) 0.39451(16)
C8A C -0.11800(17) 0.47142(14) 0.44073(16)
C9A C -0.05119(15) 0.50380(12) 0.36962(14)
C10A C -0.09665(19) 0.38972(15) 0.46655(19)
H5A H -0.1361 0.3748 0.5150
H6A H -0.0331 0.3857 0.4847
H7A H -0.1075 0.3578 0.4161
C11A C -0.1227(2) 0.52000(18) 0.52601(17)
H8A H -0.1389 0.5703 0.5101
H9A H -0.0635 0.5198 0.5551
H10A H -0.1687 0.5001 0.5657
C12A C -0.06196(15) 0.57349(11) 0.22172(14)
C13A C 0.01326(16) 0.62241(12) 0.23033(16)
H11A H 0.0389 0.6311 0.2863
C14A C 0.04932(18) 0.65750(12) 0.15674(16)
C15A C 0.0096(2) 0.64760(13) 0.07242(16)
C16A C -0.06446(19) 0.59953(15) 0.06205(17)
H12A H -0.0910 0.5922 0.0062
C17A C -0.09869(18) 0.56220(13) 0.13668(15)
H13A H -0.1475 0.5288 0.1296
C18A C 0.0622(2) 0.69330(15) 0.0078(2)
C19A C 0.0496(3) 0.7037(2) -0.0837(2)
H14A H 0.0009 0.6808 -0.1138
C20A C 0.1119(4) 0.7491(3) -0.1279(3)
H15A H 0.1041 0.7578 -0.1887
C21A C 0.1850(5) 0.7815(2) -0.0844(4)
H16A H 0.2267 0.8105 -0.1165
C22A C 0.1980(3) 0.77197(18) 0.0070(3)
H17A H 0.2472 0.7947 0.0365
C23A C 0.1349(2) 0.72743(15) 0.0527(2)
C24A C 0.1341(2) 0.70888(14) 0.1526(2)
C25A C 0.2219(2) 0.6676(2) 0.1825(2)
H18A H 0.2748 0.6993 0.1741
H19A H 0.2293 0.6229 0.1477
H20A H 0.2167 0.6546 0.2445
C26A C 0.1184(3) 0.7788(2) 0.2093(3)
H21A H 0.0677 0.8070 0.1851
H22A H 0.1734 0.8090 0.2088
H23A H 0.1043 0.7644 0.2695
loop_
_geom_bond_atom_site_label_1
_geom_bond_atom_site_label_2
_geom_bond_site_symmetry_1
_geom_bond_site_symmetry_2
C1 C2 1_555 1_555
C2 C3 1_555 1_555
C3 H1 1_555 1_555
C4 C3 1_555 1_555
H2 C4 1_555 1_555
C5 C4 1_555 1_555
H3 C5 1_555 1_555
C6 C5 1_555 1_555
H4 C6 1_555 1_555
C7 C2 1_555 1_555
C8 C7 1_555 1_555
C9 C1 1_555 1_555
C10 C8 1_555 1_555
H5 C10 1_555 1_555
H6 C10 1_555 1_555
H7 C10 1_555 1_555
C11 C8 1_555 1_555
H8 C11 1_555 1_555
H9 C11 1_555 1_555
H10 C11 1_555 1_555
C12 C1 1_555 1_555
C13 C12 1_555 1_555
H11 C13 1_555 1_555
C14 C13 1_555 1_555
C15 C14 1_555 1_555
C16 C15 1_555 1_555
H12 C16 1_555 1_555
C17 C12 1_555 1_555
H13 C17 1_555 1_555
C18 C15 1_555 1_555
C19 C18 1_555 1_555
H14 C19 1_555 1_555
C20 C19 1_555 1_555
H15 C20 1_555 1_555
C21 C20 1_555 1_555
H16 C21 1_555 1_555
C22 C21 1_555 1_555
H17 C22 1_555 1_555
C23 C18 1_555 1_555
C24 C14 1_555 1_555
C25 C24 1_555 1_555
H18 C25 1_555 1_555
H19 C25 1_555 1_555
H20 C25 1_555 1_555
C26 C24 1_555 1_555
H21 C26 1_555 1_555
H22 C26 1_555 1_555
H23 C26 1_555 1_555
C1A C2A 1_555 1_555
C2A C3A 1_555 1_555
C3A H1A 1_555 1_555
C4A C3A 1_555 1_555
H2A C4A 1_555 1_555
C5A C4A 1_555 1_555
H3A C5A 1_555 1_555
C6A C5A 1_555 1_555
H4A C6A 1_555 1_555
C7A C2A 1_555 1_555
C8A C7A 1_555 1_555
C9A C9 1_555 1_555
C10A C8A 1_555 1_555
H5A C10A 1_555 1_555
H6A C10A 1_555 1_555
H7A C10A 1_555 1_555
C11A C8A 1_555 1_555
H8A C11A 1_555 1_555
H9A C11A 1_555 1_555
H10A C11A 1_555 1_555
C12A C1A 1_555 1_555
C13A C12A 1_555 1_555
H11A C13A 1_555 1_555
C14A C13A 1_555 1_555
C15A C14A 1_555 1_555
C16A C15A 1_555 1_555
H12A C16A 1_555 1_555
C17A C12A 1_555 1_555
H13A C17A 1_555 1_555
C18A C15A 1_555 1_555
C19A C18A 1_555 1_555
H14A C19A 1_555 1_555
C20A C19A 1_555 1_555
H15A C20A 1_555 1_555
C21A C20A 1_555 1_555
H16A C21A 1_555 1_555
C22A C21A 1_555 1_555
H17A C22A 1_555 1_555
C23A C18A 1_555 1_555
C24A C14A 1_555 1_555
C25A C24A 1_555 1_555
H18A C25A 1_555 1_555
H19A C25A 1_555 1_555
H20A C25A 1_555 1_555
C26A C24A 1_555 1_555
H21A C26A 1_555 1_555
H22A C26A 1_555 1_555
H23A C26A 1_555 1_555
C6 C7 1_555 1_555
C8 C9 1_555 1_555
C16 C17 1_555 1_555
C22 C23 1_555 1_555
C23 C24 1_555 1_555
C1A C9A 1_555 1_555
C6A C7A 1_555 1_555
C8A C9A 1_555 1_555
C16A C17A 1_555 1_555
C22A C23A 1_555 1_555
C23A C24A 1_555 1_555

#END
