
#######################################################################
#
#                 Cambridge Crystallographic Data Centre
#                                CCDC 
#
#######################################################################
#
# If this CIF has been generated from an entry in the Cambridge 
# Structural Database, then it will include bibliographic, chemical, 
# crystal, experimental, refinement or atomic coordinate data resulting 
# from the CCDC's data processing and validation procedures.
#
#######################################################################

data_SAJCIR
_chemical_formula_moiety         'C52 H40 B2 F4 N4,C1 H2 Cl2'
_chemical_name_systematic        
"10,10'-((1,1,1',1'-Tetramethyl-1H,1'H-2,2'-biindene-3,3'-diyl)di-4,1-phenylene)bis(5,5-difluoro-5H-6\l^5^,5\l^5^-dipyrrolo[1,2-c:2',1'-f][1,3,2]diazaborinine) dichloromethane solvate"
_symmetry_cell_setting           triclinic
_symmetry_space_group_name_H-M   'P -1'
_symmetry_Int_Tables_number      2
_space_group_name_Hall           '-P 1'
loop_
_symmetry_equiv_pos_site_id
_symmetry_equiv_pos_as_xyz
1 x,y,z
2 -x,-y,-z
_cell_length_a                   7.8295(8)
_cell_length_b                   14.8275(15)
_cell_length_c                   19.696(2)
_cell_angle_alpha                74.258(2)
_cell_angle_beta                 81.352(2)
_cell_angle_gamma                84.974(2)
_cell_volume                     2173.13
_exptl_crystal_colour            red
_exptl_crystal_description       prismatic
_cell_formula_units_Z            2
_exptl_crystal_recrystallization_method Dichloromethane/ethanol
_exptl_crystal_preparation       Luminescent
loop_
_atom_site_label
_atom_site_type_symbol
_atom_site_fract_x
_atom_site_fract_y
_atom_site_fract_z
Cl1 Cl 0.57511(12) 0.31529(6) 0.30017(5)
Cl2 Cl 0.32019(10) 0.17943(7) 0.37936(4)
C53 C 0.5155(4) 0.2285(2) 0.37852(16)
H41 H 0.6080 0.1781 0.3846
H42 H 0.5056 0.2562 0.4195
F1 F 1.2370(2) 0.45507(15) 0.80965(9)
F2 F 1.1350(3) 0.35202(11) 0.91307(9)
F3 F 1.42905(17) 1.39455(11) 0.44953(8)
F4 F 1.28086(19) 1.53269(10) 0.44681(9)
N1 N 1.1472(2) 0.51467(13) 0.91176(10)
N2 N 0.9324(3) 0.46444(13) 0.85165(10)
N3 N 1.1315(2) 1.40770(13) 0.42883(10)
N4 N 1.2070(2) 1.40092(13) 0.54728(11)
B1 B 1.1187(4) 0.4423(2) 0.87118(15)
B2 B 1.2679(3) 1.43752(18) 0.46657(15)
C1 C 0.4743(3) 1.04483(14) 0.80572(11)
C2 C 0.4444(3) 1.14272(15) 0.82095(12)
C3 C 0.5601(3) 1.13348(15) 0.87753(12)
C4 C 0.5963(3) 1.20229(17) 0.90795(14)
H1 H 0.5418 1.2633 0.8957
C5 C 0.7151(4) 1.1798(2) 0.95716(15)
H2 H 0.7417 1.2259 0.9788
C6 C 0.7941(3) 1.0908(2) 0.97456(14)
H3 H 0.8747 1.0766 1.0080
C7 C 0.7572(3) 1.02231(18) 0.94387(13)
H4 H 0.8121 0.9615 0.9560
C8 C 0.6380(3) 1.04374(15) 0.89479(12)
C9 C 0.5801(3) 0.98915(15) 0.85043(11)
C10 C 0.6441(3) 0.89056(15) 0.85639(12)
C11 C 0.6685(3) 0.83142(16) 0.92360(12)
H5 H 0.6303 0.8530 0.9648
C12 C 0.7467(3) 0.74278(16) 0.93113(12)
H6 H 0.7650 0.7051 0.9771
C13 C 0.7991(3) 0.70820(15) 0.87170(12)
C14 C 0.7644(3) 0.76347(15) 0.80490(12)
H7 H 0.7917 0.7392 0.7644
C15 C 0.6904(3) 0.85335(15) 0.79751(12)
H8 H 0.6706 0.8906 0.7516
C16 C 0.8970(3) 0.61660(15) 0.87760(12)
C17 C 1.0502(3) 0.59884(15) 0.90908(12)
C18 C 1.1337(3) 0.65163(17) 0.94243(14)
H9 H 1.0972 0.7123 0.9481
C19 C 1.2799(3) 0.59871(19) 0.96568(15)
H10 H 1.3612 0.6159 0.9906
C20 C 1.2835(3) 0.51672(19) 0.94551(14)
H11 H 1.3708 0.4679 0.9543
C21 C 0.8369(3) 0.54809(15) 0.85157(12)
C22 C 0.6760(3) 0.54243(17) 0.82915(13)
H12 H 0.5855 0.5898 0.8237
C23 C 0.6746(3) 0.45560(18) 0.81662(14)
H13 H 0.5826 0.4315 0.8015
C24 C 0.8352(3) 0.40936(17) 0.83042(14)
H14 H 0.8699 0.3482 0.8255
C25 C 0.2552(3) 1.16202(19) 0.85049(17)
H15 H 0.2188 1.1102 0.8917
H16 H 0.1810 1.1676 0.8135
H17 H 0.2455 1.2206 0.8651
C26 C 0.4996(4) 1.22401(16) 0.75645(14)
H18 H 0.4789 1.2834 0.7700
H19 H 0.4323 1.2254 0.7180
H20 H 0.6230 1.2152 0.7401
C27 C 0.3945(3) 1.02069(14) 0.74915(11)
C28 C 0.2360(3) 0.95887(15) 0.76380(12)
C29 C 0.2134(3) 0.95736(14) 0.68907(12)
C30 C 0.0953(3) 0.90986(15) 0.66668(13)
H21 H 0.0154 0.8703 0.7003
C31 C 0.0976(3) 0.92179(16) 0.59402(13)
H22 H 0.0178 0.8902 0.5779
C32 C 0.2143(3) 0.97892(16) 0.54472(13)
H23 H 0.2131 0.9861 0.4954
C33 C 0.3331(3) 1.02583(15) 0.56662(12)
H24 H 0.4135 1.0648 0.5328
C34 C 0.3313(3) 1.01427(14) 0.63926(12)
C35 C 0.4432(3) 1.05167(14) 0.67785(12)
C36 C 0.5851(3) 1.11329(15) 0.63925(12)
C37 C 0.5487(3) 1.19658(15) 0.58850(12)
H25 H 0.4338 1.2112 0.5774
C38 C 0.6770(3) 1.25804(15) 0.55426(12)
H26 H 0.6490 1.3147 0.5206
C39 C 0.8475(3) 1.23709(15) 0.56890(12)
C40 C 0.8862(3) 1.15233(15) 0.61771(12)
H27 H 1.0021 1.1362 0.6270
C41 C 0.7563(3) 1.09162(15) 0.65259(12)
H28 H 0.7842 1.0346 0.6859
C42 C 0.9832(3) 1.30523(15) 0.53497(12)
C43 C 1.0070(3) 1.34188(15) 0.46104(12)
C44 C 0.9216(3) 1.32751(17) 0.40705(13)
H29 H 0.8315 1.2858 0.4134
C45 C 0.9925(3) 1.38498(19) 0.34323(14)
H30 H 0.9597 1.3910 0.2976
C46 C 1.1220(3) 1.43262(18) 0.35882(13)
H31 H 1.1932 1.4765 0.3245
C47 C 1.0804(3) 1.33575(16) 0.57770(13)
C48 C 1.0646(3) 1.32147(18) 0.65194(13)
H32 H 0.9886 1.2805 0.6864
C49 C 1.1787(3) 1.37727(19) 0.66549(14)
H33 H 1.1957 1.3824 0.7110
C50 C 1.2655(3) 1.42532(18) 0.60009(15)
H34 H 1.3526 1.4686 0.5940
C51 C 0.0720(3) 1.00552(19) 0.79663(14)
H35 H 0.0541 1.0696 0.7672
H36 H 0.0862 1.0073 0.8448
H37 H -0.0283 0.9692 0.7987
C52 C 0.2636(3) 0.86039(17) 0.81195(14)
H38 H 0.1602 0.8250 0.8175
H39 H 0.2849 0.8648 0.8587
H40 H 0.3634 0.8282 0.7906
loop_
_geom_bond_atom_site_label_1
_geom_bond_atom_site_label_2
_geom_bond_site_symmetry_1
_geom_bond_site_symmetry_2
Cl1 C53 1_555 1_555
Cl2 C53 1_555 1_555
F1 B1 1_555 1_555
F2 B1 1_555 1_555
F3 B2 1_555 1_555
F4 B2 1_555 1_555
N1 B1 1_555 1_555
N2 B1 1_555 1_555
N3 B2 1_555 1_555
N4 B2 1_555 1_555
C1 C2 1_555 1_555
C2 C3 1_555 1_555
C3 C4 1_555 1_555
C4 H1 1_555 1_555
C5 C4 1_555 1_555
H2 C5 1_555 1_555
C6 C5 1_555 1_555
H3 C6 1_555 1_555
C7 C6 1_555 1_555
H4 C7 1_555 1_555
C8 C3 1_555 1_555
C9 C1 1_555 1_555
C10 C9 1_555 1_555
C11 C10 1_555 1_555
H5 C11 1_555 1_555
C12 C11 1_555 1_555
H6 C12 1_555 1_555
C13 C12 1_555 1_555
C14 C13 1_555 1_555
H7 C14 1_555 1_555
C15 C10 1_555 1_555
H8 C15 1_555 1_555
C16 C13 1_555 1_555
C17 N1 1_555 1_555
C18 C17 1_555 1_555
H9 C18 1_555 1_555
C19 C18 1_555 1_555
H10 C19 1_555 1_555
C20 N1 1_555 1_555
H11 C20 1_555 1_555
C21 N2 1_555 1_555
C22 C21 1_555 1_555
H12 C22 1_555 1_555
C23 C22 1_555 1_555
H13 C23 1_555 1_555
C24 N2 1_555 1_555
H14 C24 1_555 1_555
C25 C2 1_555 1_555
H15 C25 1_555 1_555
H16 C25 1_555 1_555
H17 C25 1_555 1_555
C26 C2 1_555 1_555
H18 C26 1_555 1_555
H19 C26 1_555 1_555
H20 C26 1_555 1_555
C27 C1 1_555 1_555
C28 C27 1_555 1_555
C29 C28 1_555 1_555
C30 C29 1_555 1_555
H21 C30 1_555 1_555
C31 C30 1_555 1_555
H22 C31 1_555 1_555
C32 C31 1_555 1_555
H23 C32 1_555 1_555
C33 C32 1_555 1_555
H24 C33 1_555 1_555
C34 C29 1_555 1_555
C35 C27 1_555 1_555
C36 C35 1_555 1_555
C37 C36 1_555 1_555
H25 C37 1_555 1_555
C38 C37 1_555 1_555
H26 C38 1_555 1_555
C39 C38 1_555 1_555
C40 C39 1_555 1_555
H27 C40 1_555 1_555
C41 C36 1_555 1_555
H28 C41 1_555 1_555
C42 C39 1_555 1_555
C43 N3 1_555 1_555
C44 C43 1_555 1_555
H29 C44 1_555 1_555
C45 C44 1_555 1_555
H30 C45 1_555 1_555
C46 N3 1_555 1_555
H31 C46 1_555 1_555
C47 N4 1_555 1_555
C48 C47 1_555 1_555
H32 C48 1_555 1_555
C49 C48 1_555 1_555
H33 C49 1_555 1_555
C50 N4 1_555 1_555
H34 C50 1_555 1_555
C51 C28 1_555 1_555
H35 C51 1_555 1_555
H36 C51 1_555 1_555
H37 C51 1_555 1_555
C52 C28 1_555 1_555
H38 C52 1_555 1_555
H39 C52 1_555 1_555
H40 C52 1_555 1_555
C53 H41 1_555 1_555
H42 C53 1_555 1_555
C7 C8 1_555 1_555
C8 C9 1_555 1_555
C14 C15 1_555 1_555
C16 C17 1_555 1_555
C16 C21 1_555 1_555
C19 C20 1_555 1_555
C23 C24 1_555 1_555
C33 C34 1_555 1_555
C34 C35 1_555 1_555
C40 C41 1_555 1_555
C42 C43 1_555 1_555
C42 C47 1_555 1_555
C45 C46 1_555 1_555
C49 C50 1_555 1_555

#END
