
#######################################################################
#
#                 Cambridge Crystallographic Data Centre
#                                CCDC 
#
#######################################################################
#
# If this CIF has been generated from an entry in the Cambridge 
# Structural Database, then it will include bibliographic, chemical, 
# crystal, experimental, refinement or atomic coordinate data resulting 
# from the CCDC's data processing and validation procedures.
#
#######################################################################

data_SAJFAK
_chemical_formula_moiety         'C14 H20 S4 Se4'
_chemical_name_systematic        tetrakis(Ethylseleno)tetrathiafulvalene
_symmetry_cell_setting           monoclinic
_symmetry_space_group_name_H-M   'P 21/a'
_symmetry_Int_Tables_number      14
_space_group_name_Hall           '-P 2yab'
loop_
_symmetry_equiv_pos_site_id
_symmetry_equiv_pos_as_xyz
1 x,y,z
2 1/2-x,1/2+y,-z
3 -x,-y,-z
4 1/2+x,1/2-y,z
_cell_length_a                   23.218(5)
_cell_length_b                   8.960(3)
_cell_length_c                   10.489(3)
_cell_angle_alpha                90
_cell_angle_beta                 96.61(2)
_cell_angle_gamma                90
_cell_volume                     2167.56
_exptl_crystal_colour            'dark yellow'
_cell_formula_units_Z            4
loop_
_atom_site_label
_atom_site_type_symbol
_atom_site_fract_x
_atom_site_fract_y
_atom_site_fract_z
Se1 Se 0.0115(1) 0.4730(3) 0.3332(3)
Se2 Se -0.0327(1) 0.8455(3) 0.2516(3)
Se3 Se 0.2188(1) 0.8526(3) -0.3900(3)
Se4 Se 0.2667(1) 0.4954(3) -0.2918(3)
S1 S 0.0359(3) 0.7979(7) 0.0175(6)
S2 S 0.1234(3) 0.7994(7) -0.2086(7)
S3 S 0.1602(3) 0.4960(7) -0.1375(7)
S4 S 0.0741(3) 0.4920(6) 0.0861(6)
C1 C 0.0830(8) 0.6457(22) -0.0083(20)
C2 C 0.1167(8) 0.6482(22) -0.1006(23)
C3 C 0.2050(10) 0.5968(24) -0.2280(19)
C4 C 0.1817(10) 0.7323(28) -0.2645(21)
C5 C 0.0169(9) 0.7220(25) 0.1649(25)
C6 C 0.0337(8) 0.5885(25) 0.1984(21)
C7 C 0.0246(10) 1.0096(28) 0.2987(28)
C8 C 0.0895(14) 0.4049(40) 0.4140(32)
C9 C 0.3203(13) 0.4745(27) -0.1230(28)
C10 C 0.0730(16) 0.9613(32) 0.3919(34)
C11 C 0.1258(13) 0.5144(40) 0.4571(30)
C12 C 0.2128(11) 1.0596(29) -0.3162(28)
C13 C 0.2554(16) 1.0670(42) -0.2007(30)
C14 C 0.3418(14) 0.6219(32) -0.0725(34)
loop_
_geom_bond_atom_site_label_1
_geom_bond_atom_site_label_2
_geom_bond_site_symmetry_1
_geom_bond_site_symmetry_2
Se1 C6 1_555 1_555
Se2 C5 1_555 1_555
Se3 C4 1_555 1_555
Se4 C3 1_555 1_555
S1 C1 1_555 1_555
S2 C2 1_555 1_555
S3 C2 1_555 1_555
S4 C1 1_555 1_555
C1 C2 1_555 1_555
C3 S3 1_555 1_555
C4 S2 1_555 1_555
C5 S1 1_555 1_555
C6 S4 1_555 1_555
C7 Se2 1_555 1_555
C8 Se1 1_555 1_555
C9 Se4 1_555 1_555
C10 C7 1_555 1_555
C11 C8 1_555 1_555
C12 Se3 1_555 1_555
C13 C12 1_555 1_555
C14 C9 1_555 1_555
C3 C4 1_555 1_555
C5 C6 1_555 1_555

#END
