
#######################################################################
#
#                 Cambridge Crystallographic Data Centre
#                                CCDC 
#
#######################################################################
#
# If this CIF has been generated from an entry in the Cambridge 
# Structural Database, then it will include bibliographic, chemical, 
# crystal, experimental, refinement or atomic coordinate data resulting 
# from the CCDC's data processing and validation procedures.
#
#######################################################################

data_SAJHIV
_chemical_formula_moiety         'C6 H7 N3 O1'
_chemical_name_systematic        
5,6,7,8-Tetrahydroimidazo(1,5-c)pyrimidin-5-one
_symmetry_cell_setting           monoclinic
_symmetry_space_group_name_H-M   'P 21/n'
_symmetry_Int_Tables_number      14
_space_group_name_Hall           '-P 2yn'
loop_
_symmetry_equiv_pos_site_id
_symmetry_equiv_pos_as_xyz
1 x,y,z
2 1/2+x,1/2-y,1/2+z
3 -x,-y,-z
4 1/2-x,1/2+y,1/2-z
_cell_length_a                   7.3860(6)
_cell_length_b                   11.4148(10)
_cell_length_c                   7.5885(6)
_cell_angle_alpha                90
_cell_angle_beta                 110.1520(10)
_cell_angle_gamma                90
_cell_volume                     600.618
_exptl_crystal_colour            colorless
_exptl_crystal_description       block
_chemical_melting_point          218-219deg.C
_cell_formula_units_Z            4
_exptl_crystal_recrystallization_method acetonitrile
loop_
_atom_site_label
_atom_site_type_symbol
_atom_site_fract_x
_atom_site_fract_y
_atom_site_fract_z
O1 O 0.14551(10) 0.07249(6) 0.36688(11)
N1 N -0.34848(12) 0.24073(8) 0.37028(13)
N2 N 0.25943(13) 0.25929(8) 0.37290(13)
N3 N -0.05007(11) 0.22852(8) 0.36947(11)
C1 C -0.20047(14) 0.17071(9) 0.39747(14)
C2 C -0.29145(15) 0.34894(9) 0.32181(15)
C3 C -0.10775(14) 0.34340(9) 0.32138(14)
C4 C 0.03155(14) 0.42378(9) 0.28003(15)
C5 C 0.23497(14) 0.38477(9) 0.39822(15)
C6 C 0.12786(14) 0.17878(9) 0.37079(13)
H1 H 0.370(3) 0.2348(13) 0.373(2)
H2 H -0.191(2) 0.0890(12) 0.434(2)
H3 H -0.376(2) 0.4157(12) 0.2914(19)
H4 H 0.009(2) 0.5054(13) 0.3095(19)
H5 H 0.013(2) 0.4211(12) 0.146(2)
H6 H 0.260(2) 0.4008(12) 0.532(2)
H7 H 0.331(2) 0.4269(11) 0.3604(19)
loop_
_geom_bond_atom_site_label_1
_geom_bond_atom_site_label_2
_geom_bond_site_symmetry_1
_geom_bond_site_symmetry_2
O1 C6 1_555 1_555
N1 C1 1_555 1_555
N2 C5 1_555 1_555
N3 C1 1_555 1_555
C1 H2 1_555 1_555
C2 N1 1_555 1_555
C3 N3 1_555 1_555
C4 C3 1_555 1_555
C5 C4 1_555 1_555
C6 N2 1_555 1_555
H1 N2 1_555 1_555
H3 C2 1_555 1_555
H4 C4 1_555 1_555
H5 C4 1_555 1_555
H6 C5 1_555 1_555
H7 C5 1_555 1_555
N3 C6 1_555 1_555
C2 C3 1_555 1_555

#END
