
#######################################################################
#
#                 Cambridge Crystallographic Data Centre
#                                CCDC 
#
#######################################################################
#
# If this CIF has been generated from an entry in the Cambridge 
# Structural Database, then it will include bibliographic, chemical, 
# crystal, experimental, refinement or atomic coordinate data resulting 
# from the CCDC's data processing and validation procedures.
#
#######################################################################

data_SAJLUM
_chemical_formula_moiety         'C24 H20 F6 N2 O1'
_chemical_name_systematic        
4-(3-Phenylhexahydro[1,3]oxazolo[3,4-a]pyridin-1-yl)-2,8-bis(trifluoromethyl)quinoline
_symmetry_cell_setting           monoclinic
_symmetry_space_group_name_H-M   'P 21/n'
_symmetry_Int_Tables_number      14
_space_group_name_Hall           '-P 2yn'
loop_
_symmetry_equiv_pos_site_id
_symmetry_equiv_pos_as_xyz
1 x,y,z
2 1/2-x,1/2+y,1/2-z
3 -x,-y,-z
4 1/2+x,1/2-y,1/2+z
_cell_length_a                   10.2478(2)
_cell_length_b                   18.4967(7)
_cell_length_c                   11.2799(3)
_cell_angle_alpha                90
_cell_angle_beta                 95.391(2)
_cell_angle_gamma                90
_cell_volume                     2128.65
_exptl_crystal_colour            colorless
_exptl_crystal_description       block
_cell_formula_units_Z            4
loop_
_atom_site_label
_atom_site_type_symbol
_atom_site_fract_x
_atom_site_fract_y
_atom_site_fract_z
F1 F 0.2300(3) 0.33631(17) 0.5096(3)
F2 F 0.1688(3) 0.31874(15) 0.3251(3)
F3 F 0.3520(3) 0.27593(15) 0.4015(3)
F4 F 0.0564(2) 0.52829(15) 0.1932(2)
F5 F 0.0446(2) 0.54731(16) 0.3806(2)
F6 F 0.0340(3) 0.63631(16) 0.2579(3)
O1 O 0.7435(3) 0.41189(16) 0.4317(3)
N1 N 0.2641(3) 0.4566(2) 0.3444(3)
N2 N 0.7618(3) 0.3757(2) 0.2422(3)
C1 C 0.3425(4) 0.4016(2) 0.3714(4)
C2 C 0.4792(4) 0.4032(2) 0.3782(4)
H1 H 0.5288 0.3610 0.3996
C3 C 0.5407(4) 0.4664(2) 0.3537(3)
C4 C 0.4617(4) 0.5286(2) 0.3269(3)
C5 C 0.5135(4) 0.5983(2) 0.3045(4)
H2 H 0.6055 0.6044 0.3039
C6 C 0.4326(4) 0.6562(2) 0.2840(4)
H3 H 0.4690 0.7025 0.2718
C7 C 0.2951(4) 0.6484(3) 0.2806(4)
H4 H 0.2399 0.6894 0.2668
C8 C 0.2417(4) 0.5822(2) 0.2972(4)
C9 C 0.3225(4) 0.5207(2) 0.3230(3)
C10 C 0.6880(4) 0.4691(2) 0.3564(4)
H5 H 0.7209 0.5169 0.3879
C11 C 0.7405(4) 0.4542(2) 0.2354(4)
H6 H 0.8276 0.4785 0.2344
C12 C 0.8412(5) 0.3516(3) 0.1480(4)
H7 H 0.8560 0.2988 0.1544
H8 H 0.9275 0.3760 0.1569
C13 C 0.7704(5) 0.3696(3) 0.0281(4)
H9 H 0.6910 0.3391 0.0152
H10 H 0.8280 0.3577 -0.0349
C14 C 0.7306(5) 0.4489(3) 0.0167(4)
H11 H 0.8100 0.4790 0.0134
H12 H 0.6741 0.4560 -0.0585
C15 C 0.6574(4) 0.4730(2) 0.1208(4)
H13 H 0.5716 0.4481 0.1183
H14 H 0.6415 0.5258 0.1166
C16 C 0.2726(5) 0.3335(3) 0.4003(4)
C17 C 0.0962(4) 0.5730(3) 0.2849(4)
C18 C 0.8218(4) 0.3661(2) 0.3628(4)
H15 H 0.9141 0.3843 0.3688
C19 C 0.8191(4) 0.2909(2) 0.4125(4)
C20 C 0.7181(5) 0.2426(3) 0.3815(4)
H16 H 0.6513 0.2553 0.3209
C21 C 0.7129(6) 0.1768(3) 0.4367(5)
H17 H 0.6444 0.1438 0.4125
C22 C 0.8071(5) 0.1582(3) 0.5275(4)
H18 H 0.8014 0.1134 0.5677
C23 C 0.9093(5) 0.2049(3) 0.5596(4)
H19 H 0.9751 0.1921 0.6210
C24 C 0.9155(4) 0.2706(3) 0.5017(4)
H20 H 0.9866 0.3024 0.5232
loop_
_geom_bond_atom_site_label_1
_geom_bond_atom_site_label_2
_geom_bond_site_symmetry_1
_geom_bond_site_symmetry_2
F1 C16 1_555 1_555
F2 C16 1_555 1_555
F3 C16 1_555 1_555
F4 C17 1_555 1_555
F5 C17 1_555 1_555
F6 C17 1_555 1_555
O1 C10 1_555 1_555
N1 C1 1_555 1_555
N2 C11 1_555 1_555
C1 C2 1_555 1_555
C2 H1 1_555 1_555
C3 C2 1_555 1_555
C4 C3 1_555 1_555
C5 C4 1_555 1_555
H2 C5 1_555 1_555
C6 C5 1_555 1_555
H3 C6 1_555 1_555
C7 C6 1_555 1_555
H4 C7 1_555 1_555
C8 C7 1_555 1_555
C9 N1 1_555 1_555
C10 C3 1_555 1_555
H5 C10 1_555 1_555
C11 C10 1_555 1_555
H6 C11 1_555 1_555
C12 N2 1_555 1_555
H7 C12 1_555 1_555
H8 C12 1_555 1_555
C13 C12 1_555 1_555
H9 C13 1_555 1_555
H10 C13 1_555 1_555
C14 C13 1_555 1_555
H11 C14 1_555 1_555
H12 C14 1_555 1_555
C15 C11 1_555 1_555
H13 C15 1_555 1_555
H14 C15 1_555 1_555
C16 C1 1_555 1_555
C17 C8 1_555 1_555
C18 O1 1_555 1_555
H15 C18 1_555 1_555
C19 C18 1_555 1_555
C20 C19 1_555 1_555
H16 C20 1_555 1_555
C21 C20 1_555 1_555
H17 C21 1_555 1_555
C22 C21 1_555 1_555
H18 C22 1_555 1_555
C23 C22 1_555 1_555
H19 C23 1_555 1_555
C24 C19 1_555 1_555
H20 C24 1_555 1_555
N2 C18 1_555 1_555
C4 C9 1_555 1_555
C8 C9 1_555 1_555
C14 C15 1_555 1_555
C23 C24 1_555 1_555

#END
