
#######################################################################
#
#                 Cambridge Crystallographic Data Centre
#                                CCDC 
#
#######################################################################
#
# If this CIF has been generated from an entry in the Cambridge 
# Structural Database, then it will include bibliographic, chemical, 
# crystal, experimental, refinement or atomic coordinate data resulting 
# from the CCDC's data processing and validation procedures.
#
#######################################################################

data_SAJLIB
_chemical_formula_moiety         'C18 H22 N4 O3'
_chemical_name_systematic        
'ethyl N-(3-amino-4-(methylamino)benzoyl)-N-pyridin-2-yl-\b-alaninate'
_symmetry_cell_setting           triclinic
_symmetry_space_group_name_H-M   'P -1'
_symmetry_Int_Tables_number      2
_space_group_name_Hall           '-P 1'
loop_
_symmetry_equiv_pos_site_id
_symmetry_equiv_pos_as_xyz
1 x,y,z
2 -x,-y,-z
_cell_length_a                   8.3380(17)
_cell_length_b                   10.435(2)
_cell_length_c                   10.885(2)
_cell_angle_alpha                102.95(3)
_cell_angle_beta                 97.94(3)
_cell_angle_gamma                97.51(3)
_cell_volume                     901.224
_exptl_crystal_colour            brown
_exptl_crystal_description       block
_cell_formula_units_Z            2
loop_
_atom_site_label
_atom_site_type_symbol
_atom_site_fract_x
_atom_site_fract_y
_atom_site_fract_z
O1 O 0.2166(3) 0.1355(2) 0.65272(19)
N1 N -0.0262(3) -0.0047(2) 0.1767(2)
H1 H -0.0624 -0.0731 0.2028
H2 H -0.0635 0.0012 0.1008
C1 C 0.3201(3) 0.1803(3) 0.5971(3)
N2 N 0.0901(3) 0.2199(3) 0.0943(2)
H3 H 0.0084 0.1615 0.0497
C2 C 0.2749(3) 0.1894(3) 0.4627(3)
O2 O 0.6824(3) 0.0688(3) 1.0268(3)
N3 N 0.4777(3) 0.2287(2) 0.6610(2)
C3 C 0.1552(3) 0.0899(3) 0.3803(3)
H4 H 0.1154 0.0160 0.4084
O3 O 0.6338(4) 0.2761(3) 1.0443(2)
C4 C 0.0943(3) 0.0979(3) 0.2585(3)
N4 N 0.7219(3) 0.3610(3) 0.6602(3)
C5 C 0.1541(3) 0.2097(3) 0.2156(3)
C6 C 0.2708(4) 0.3093(3) 0.2993(3)
H5 H 0.3096 0.3845 0.2728
C7 C 0.3308(3) 0.2995(3) 0.4209(3)
H6 H 0.4095 0.3676 0.4750
C8 C 0.1558(5) 0.3243(4) 0.0416(3)
H7 H 0.0954 0.3143 -0.0427
H8 H 0.1472 0.4089 0.0952
H9 H 0.2692 0.3202 0.0367
C9 C 0.6160(3) 0.2519(3) 0.6011(3)
C10 C 0.6416(4) 0.1628(3) 0.4945(3)
H10 H 0.5646 0.0865 0.4561
C11 C 0.7814(4) 0.1880(3) 0.4461(3)
H11 H 0.8008 0.1291 0.3740
C12 C 0.8924(4) 0.3007(4) 0.5044(4)
H12 H 0.9888 0.3202 0.4733
C13 C 0.8578(4) 0.3840(4) 0.6098(4)
H13 H 0.9330 0.4612 0.6491
C14 C 0.5114(4) 0.2464(3) 0.8003(3)
H14 H 0.4104 0.2557 0.8337
H15 H 0.5888 0.3282 0.8385
C15 C 0.5797(5) 0.1331(4) 0.8390(3)
H16 H 0.4958 0.0541 0.8098
H17 H 0.6709 0.1160 0.7947
C16 C 0.6378(4) 0.1525(4) 0.9788(3)
C17 C 0.6878(6) 0.3086(5) 1.1817(3)
H18 H 0.7971 0.2879 1.2014
H19 H 0.6137 0.2571 1.2208
C18 C 0.6888(6) 0.4523(5) 1.2312(4)
H20 H 0.7242 0.4766 1.3223
H21 H 0.7628 0.5024 1.1921
H22 H 0.5801 0.4716 1.2115
loop_
_geom_bond_atom_site_label_1
_geom_bond_atom_site_label_2
_geom_bond_site_symmetry_1
_geom_bond_site_symmetry_2
O1 C1 1_555 1_555
N1 H1 1_555 1_555
H2 N1 1_555 1_555
C1 C2 1_555 1_555
N2 H3 1_555 1_555
C2 C3 1_555 1_555
O2 C16 1_555 1_555
N3 C1 1_555 1_555
C3 H4 1_555 1_555
O3 C16 1_555 1_555
C4 N1 1_555 1_555
N4 C9 1_555 1_555
C5 N2 1_555 1_555
C6 C5 1_555 1_555
H5 C6 1_555 1_555
C7 C2 1_555 1_555
H6 C7 1_555 1_555
C8 N2 1_555 1_555
H7 C8 1_555 1_555
H8 C8 1_555 1_555
H9 C8 1_555 1_555
C9 N3 1_555 1_555
C10 C9 1_555 1_555
H10 C10 1_555 1_555
C11 C10 1_555 1_555
H11 C11 1_555 1_555
C12 C11 1_555 1_555
H12 C12 1_555 1_555
C13 N4 1_555 1_555
H13 C13 1_555 1_555
C14 N3 1_555 1_555
H14 C14 1_555 1_555
H15 C14 1_555 1_555
C15 C14 1_555 1_555
H16 C15 1_555 1_555
H17 C15 1_555 1_555
C16 C15 1_555 1_555
C17 O3 1_555 1_555
H18 C17 1_555 1_555
H19 C17 1_555 1_555
C18 C17 1_555 1_555
H20 C18 1_555 1_555
H21 C18 1_555 1_555
H22 C18 1_555 1_555
C3 C4 1_555 1_555
C4 C5 1_555 1_555
C6 C7 1_555 1_555
C12 C13 1_555 1_555

#END
