
#######################################################################
#
#                 Cambridge Crystallographic Data Centre
#                                CCDC 
#
#######################################################################
#
# If this CIF has been generated from an entry in the Cambridge 
# Structural Database, then it will include bibliographic, chemical, 
# crystal, experimental, refinement or atomic coordinate data resulting 
# from the CCDC's data processing and validation procedures.
#
#######################################################################

data_SAJMIB
_chemical_formula_moiety         'C24 H19 F6 N3 O3'
_chemical_name_systematic        
4-(3-(4-Nitrophenyl)hexahydro[1,3]oxazolo[3,4-a]pyridin-1-yl)-2,8-bis(trifluoromethyl)quinoline
_symmetry_cell_setting           triclinic
_symmetry_space_group_name_H-M   'P -1'
_symmetry_Int_Tables_number      2
_space_group_name_Hall           '-P 1'
loop_
_symmetry_equiv_pos_site_id
_symmetry_equiv_pos_as_xyz
1 x,y,z
2 -x,-y,-z
_cell_length_a                   8.2754(2)
_cell_length_b                   11.1560(2)
_cell_length_c                   13.3744(2)
_cell_angle_alpha                70.931(1)
_cell_angle_beta                 81.482(1)
_cell_angle_gamma                72.581(1)
_cell_volume                     1111.72
_exptl_crystal_colour            'pale yellow'
_exptl_crystal_description       lath
_cell_formula_units_Z            2
loop_
_atom_site_label
_atom_site_type_symbol
_atom_site_fract_x
_atom_site_fract_y
_atom_site_fract_z
F1 F 0.51526(14) -0.00797(9) 0.11385(7)
F2 F 0.72453(12) 0.07630(11) 0.05232(7)
F3 F 0.46907(13) 0.19968(9) 0.03585(7)
F4 F 0.85194(11) -0.24471(8) 0.37804(7)
F5 F 1.04033(12) -0.25247(9) 0.47642(7)
F6 F 1.02831(11) -0.12625(9) 0.31539(7)
O1 O 0.21750(12) 0.42920(9) 0.28497(8)
O2 O 0.07484(16) 0.76410(13) -0.25045(9)
O3 O -0.15781(15) 0.87411(13) -0.18939(9)
N1 N 0.68732(15) 0.02637(11) 0.27049(9)
N2 N 0.39418(14) 0.55990(11) 0.24662(9)
N3 N -0.01829(16) 0.79426(13) -0.17735(10)
C1 C 0.57455(18) 0.11879(13) 0.20763(10)
C2 C 0.46223(18) 0.22914(13) 0.23177(11)
H1 H 0.3857 0.2926 0.1814
C3 C 0.46512(17) 0.24366(12) 0.32981(10)
C4 C 0.57890(17) 0.14353(12) 0.40339(10)
C5 C 0.58600(18) 0.14186(13) 0.50957(10)
H2 H 0.5098 0.2098 0.5347
C6 C 0.69985(18) 0.04486(13) 0.57579(11)
H3 H 0.7014 0.0455 0.6465
C7 C 0.81578(18) -0.05677(13) 0.54024(11)
H4 H 0.8968 -0.1228 0.5864
C8 C 0.81140(17) -0.06016(13) 0.43917(11)
C9 C 0.69138(17) 0.03828(13) 0.36863(10)
C10 C 0.34981(17) 0.36248(13) 0.35877(10)
H5 H 0.2975 0.3332 0.4318
C11 C 0.43744(17) 0.47041(12) 0.35244(10)
H6 H 0.3785 0.5166 0.4058
C12 C 0.42875(19) 0.68669(13) 0.23040(11)
H7 H 0.3654 0.7268 0.2856
H8 H 0.3918 0.7477 0.1603
C13 C 0.6183(2) 0.66298(14) 0.23653(12)
H9 H 0.6426 0.7470 0.2299
H10 H 0.6798 0.6313 0.1767
C14 C 0.68217(19) 0.56142(14) 0.34131(12)
H11 H 0.6373 0.6001 0.4000
H12 H 0.8075 0.5394 0.3388
C15 C 0.62703(18) 0.43502(13) 0.36314(11)
H13 H 0.6879 0.3872 0.3121
H14 H 0.6556 0.3769 0.4355
C16 C 0.57135(19) 0.09681(14) 0.10225(11)
C17 C 0.93235(18) -0.16954(14) 0.40224(11)
C18 C 0.21829(17) 0.56496(13) 0.24313(10)
H15 H 0.1454 0.6158 0.2903
C19 C 0.15540(18) 0.62283(13) 0.13262(11)
C20 C 0.24654(19) 0.57663(14) 0.04987(11)
H16 H 0.3479 0.5070 0.0636
C21 C 0.1905(2) 0.63142(14) -0.05236(11)
H17 H 0.2518 0.6003 -0.1089
C22 C 0.04208(18) 0.73294(14) -0.06915(11)
C23 C -0.05080(19) 0.78150(15) 0.01053(11)
H18 H -0.1521 0.8511 -0.0036
C24 C 0.00833(18) 0.72553(14) 0.11235(11)
H19 H -0.0526 0.7579 0.1684
loop_
_geom_bond_atom_site_label_1
_geom_bond_atom_site_label_2
_geom_bond_site_symmetry_1
_geom_bond_site_symmetry_2
F1 C16 1_555 1_555
F2 C16 1_555 1_555
F3 C16 1_555 1_555
F4 C17 1_555 1_555
F5 C17 1_555 1_555
F6 C17 1_555 1_555
O1 C10 1_555 1_555
O2 N3 1_555 1_555
O3 N3 1_555 1_555
N1 C1 1_555 1_555
N2 C11 1_555 1_555
N3 C22 1_555 1_555
C1 C2 1_555 1_555
C2 H1 1_555 1_555
C3 C2 1_555 1_555
C4 C3 1_555 1_555
C5 C4 1_555 1_555
H2 C5 1_555 1_555
C6 C5 1_555 1_555
H3 C6 1_555 1_555
C7 C6 1_555 1_555
H4 C7 1_555 1_555
C8 C7 1_555 1_555
C9 N1 1_555 1_555
C10 C3 1_555 1_555
H5 C10 1_555 1_555
C11 C10 1_555 1_555
H6 C11 1_555 1_555
C12 N2 1_555 1_555
H7 C12 1_555 1_555
H8 C12 1_555 1_555
C13 C12 1_555 1_555
H9 C13 1_555 1_555
H10 C13 1_555 1_555
C14 C13 1_555 1_555
H11 C14 1_555 1_555
H12 C14 1_555 1_555
C15 C11 1_555 1_555
H13 C15 1_555 1_555
H14 C15 1_555 1_555
C16 C1 1_555 1_555
C17 C8 1_555 1_555
C18 O1 1_555 1_555
H15 C18 1_555 1_555
C19 C18 1_555 1_555
C20 C19 1_555 1_555
H16 C20 1_555 1_555
C21 C20 1_555 1_555
H17 C21 1_555 1_555
C22 C21 1_555 1_555
C23 C22 1_555 1_555
H18 C23 1_555 1_555
C24 C19 1_555 1_555
H19 C24 1_555 1_555
N2 C18 1_555 1_555
C4 C9 1_555 1_555
C8 C9 1_555 1_555
C14 C15 1_555 1_555
C23 C24 1_555 1_555

#END
