
#######################################################################
#
#                 Cambridge Crystallographic Data Centre
#                                CCDC 
#
#######################################################################
#
# If this CIF has been generated from an entry in the Cambridge 
# Structural Database, then it will include bibliographic, chemical, 
# crystal, experimental, refinement or atomic coordinate data resulting 
# from the CCDC's data processing and validation procedures.
#
#######################################################################

data_SAJMIA
_chemical_formula_moiety         'C38 H52 N2 O2,C3 H6 O1'
_chemical_name_systematic        
"N,N'-bis(3,5-Di-t-butylsalicylidene)-4,5-dimethyl-1,2-phenylenediamine acetone solvate"
_symmetry_cell_setting           monoclinic
_symmetry_space_group_name_H-M   'P 21/c'
_symmetry_Int_Tables_number      14
_space_group_name_Hall           '-P 2ybc'
loop_
_symmetry_equiv_pos_site_id
_symmetry_equiv_pos_as_xyz
1 x,y,z
2 -x,1/2+y,1/2-z
3 -x,-y,-z
4 x,1/2-y,1/2+z
_cell_length_a                   9.9077(10)
_cell_length_b                   35.0836(10)
_cell_length_c                   11.9115(10)
_cell_angle_alpha                90
_cell_angle_beta                 113.9320(10)
_cell_angle_gamma                90
_cell_volume                     3784.45
_exptl_crystal_colour            orange
_exptl_crystal_description       block
_chemical_melting_point          135deg.C
_cell_formula_units_Z            4
loop_
_atom_site_label
_atom_site_type_symbol
_atom_site_fract_x
_atom_site_fract_y
_atom_site_fract_z
O1 O 0.76464(17) 0.12048(5) 0.30587(15)
O2 O 0.73261(17) 0.11950(5) -0.00879(15)
N1 N 0.6913(2) 0.18930(5) 0.23031(17)
N2 N 0.8217(2) 0.18688(5) 0.06952(16)
C1 C 0.6414(2) 0.11858(6) 0.3279(2)
C2 C 0.5450(2) 0.14993(6) 0.3014(2)
C3 C 0.4158(2) 0.14761(6) 0.3228(2)
H1 H 0.3507 0.1688 0.3033
C4 C 0.3813(2) 0.11537(6) 0.3711(2)
C5 C 0.4808(2) 0.08481(6) 0.3975(2)
H2 H 0.4582 0.0623 0.4309
C6 C 0.6103(2) 0.08515(6) 0.37827(19)
C7 C 0.8589(2) 0.11463(6) -0.02477(19)
C8 C 0.9646(2) 0.14400(6) 0.0065(2)
C9 C 1.0947(2) 0.13887(7) -0.0104(2)
H3 H 1.1659 0.1588 0.0125
C10 C 1.1229(2) 0.10573(7) -0.0593(2)
C11 C 1.0142(2) 0.07719(6) -0.0894(2)
H4 H 1.0321 0.0540 -0.1224
C12 C 0.8833(2) 0.08030(6) -0.07453(19)
C13 C 0.7229(2) 0.22426(6) 0.1879(2)
C14 C 0.7976(2) 0.22294(6) 0.1107(2)
C15 C 0.8384(3) 0.25684(6) 0.0734(2)
H5 H 0.8886 0.2558 0.0203
C16 C 0.8091(3) 0.29193(6) 0.1102(2)
C17 C 0.7290(3) 0.29337(7) 0.1843(2)
C18 C 0.6909(3) 0.25964(6) 0.2234(2)
H6 H 0.6408 0.2606 0.2765
C19 C 0.5752(3) 0.18492(6) 0.2519(2)
H7 H 0.5070 0.2054 0.2347
C20 C 0.9399(3) 0.18015(6) 0.0537(2)
H8 H 1.0133 0.1994 0.0735
C21 C 0.6841(3) 0.33096(7) 0.2186(3)
H9 H 0.6409 0.3268 0.2784
H10 H 0.6112 0.3432 0.1451
H11 H 0.7711 0.3474 0.2548
C22 C 0.8651(3) 0.32771(7) 0.0742(3)
H12 H 0.9449 0.3386 0.1465
H13 H 0.7844 0.3462 0.0409
H14 H 0.9025 0.3217 0.0117
C23 C 1.2658(3) 0.09883(8) -0.0750(2)
C24 C 1.3369(4) 0.13634(10) -0.0857(5)
H15 H 1.4298 0.1312 -0.0937
H16 H 1.3568 0.1517 -0.0120
H17 H 1.2699 0.1502 -0.1582
C25 C 1.2405(3) 0.07415(14) -0.1860(3)
H18 H 1.1682 0.0865 -0.2598
H19 H 1.2030 0.0492 -0.1752
H20 H 1.3339 0.0708 -0.1949
C26 C 1.3727(3) 0.07839(10) 0.0385(3)
H21 H 1.3300 0.0540 0.0474
H22 H 1.3914 0.0942 0.1112
H23 H 1.4658 0.0738 0.0303
C27 C 0.7665(2) 0.04879(6) -0.1151(2)
C28 C 0.8158(3) 0.01401(7) -0.1664(2)
H24 H 0.8378 0.0218 -0.2362
H25 H 0.7366 -0.0050 -0.1936
H26 H 0.9045 0.0030 -0.1023
C29 C 0.6249(3) 0.06415(7) -0.2175(2)
H27 H 0.5901 0.0865 -0.1875
H28 H 0.5487 0.0443 -0.2422
H29 H 0.6457 0.0715 -0.2883
C30 C 0.7351(3) 0.03530(7) -0.0060(2)
H30 H 0.8246 0.0240 0.0562
H31 H 0.6560 0.0162 -0.0338
H32 H 0.7044 0.0571 0.0297
C31 C 0.7161(2) 0.05085(6) 0.4121(2)
C32 C 0.7355(3) 0.03621(7) 0.2985(2)
H33 H 0.8023 0.0142 0.3212
H34 H 0.7773 0.0565 0.2658
H35 H 0.6393 0.0285 0.2359
C33 C 0.8666(3) 0.06313(7) 0.5115(2)
H36 H 0.8533 0.0721 0.5843
H37 H 0.9076 0.0838 0.4795
H38 H 0.9344 0.0414 0.5337
C34 C 0.6593(3) 0.01793(6) 0.4642(2)
H39 H 0.5633 0.0095 0.4031
H40 H 0.6485 0.0264 0.5386
H41 H 0.7296 -0.0033 0.4845
C35 C 0.2408(3) 0.11108(7) 0.3934(2)
C36 C 0.1412(3) 0.08105(8) 0.3050(3)
H42 H 0.1915 0.0563 0.3224
H43 H 0.1199 0.0885 0.2202
H44 H 0.0486 0.0791 0.3159
C37 C 0.2791(3) 0.09875(8) 0.5259(2)
H45 H 0.3403 0.1184 0.5821
H46 H 0.3336 0.0746 0.5420
H47 H 0.1880 0.0954 0.5384
C38 C 0.1554(3) 0.14845(8) 0.3721(3)
H48 H 0.0646 0.1445 0.3846
H49 H 0.1303 0.1572 0.2879
H50 H 0.2165 0.1677 0.4301
H51 H 0.726(4) 0.1435(10) 0.021(3)
H52 H 0.766(4) 0.1441(12) 0.269(4)
O3 O 0.2368(3) 0.23916(7) 0.2347(2)
C39 C 0.2567(3) 0.24959(8) 0.3372(3)
C40 C 0.4078(4) 0.25683(13) 0.4300(4)
H53 H 0.4445 0.2341 0.4813
H54 H 0.4062 0.2784 0.4817
H55 H 0.4728 0.2628 0.3886
C41 C 0.1334(4) 0.25545(10) 0.3744(3)
H56 H 0.1010 0.2821 0.3600
H57 H 0.1660 0.2495 0.4618
H58 H 0.0511 0.2387 0.3260
loop_
_geom_bond_atom_site_label_1
_geom_bond_atom_site_label_2
_geom_bond_site_symmetry_1
_geom_bond_site_symmetry_2
O1 C1 1_555 1_555
O2 C7 1_555 1_555
N1 C13 1_555 1_555
N2 C14 1_555 1_555
C1 C2 1_555 1_555
C2 C3 1_555 1_555
C3 H1 1_555 1_555
C4 C3 1_555 1_555
C5 C4 1_555 1_555
H2 C5 1_555 1_555
C6 C1 1_555 1_555
C7 C8 1_555 1_555
C8 C9 1_555 1_555
C9 H3 1_555 1_555
C10 C9 1_555 1_555
C11 C10 1_555 1_555
H4 C11 1_555 1_555
C12 C7 1_555 1_555
C13 C14 1_555 1_555
C14 C15 1_555 1_555
C15 H5 1_555 1_555
C16 C15 1_555 1_555
C17 C16 1_555 1_555
C18 C13 1_555 1_555
H6 C18 1_555 1_555
C19 N1 1_555 1_555
H7 C19 1_555 1_555
C20 N2 1_555 1_555
H8 C20 1_555 1_555
C21 C17 1_555 1_555
H9 C21 1_555 1_555
H10 C21 1_555 1_555
H11 C21 1_555 1_555
C22 C16 1_555 1_555
H12 C22 1_555 1_555
H13 C22 1_555 1_555
H14 C22 1_555 1_555
C23 C10 1_555 1_555
C24 C23 1_555 1_555
H15 C24 1_555 1_555
H16 C24 1_555 1_555
H17 C24 1_555 1_555
C25 C23 1_555 1_555
H18 C25 1_555 1_555
H19 C25 1_555 1_555
H20 C25 1_555 1_555
C26 C23 1_555 1_555
H21 C26 1_555 1_555
H22 C26 1_555 1_555
H23 C26 1_555 1_555
C27 C12 1_555 1_555
C28 C27 1_555 1_555
H24 C28 1_555 1_555
H25 C28 1_555 1_555
H26 C28 1_555 1_555
C29 C27 1_555 1_555
H27 C29 1_555 1_555
H28 C29 1_555 1_555
H29 C29 1_555 1_555
C30 C27 1_555 1_555
H30 C30 1_555 1_555
H31 C30 1_555 1_555
H32 C30 1_555 1_555
C31 C6 1_555 1_555
C32 C31 1_555 1_555
H33 C32 1_555 1_555
H34 C32 1_555 1_555
H35 C32 1_555 1_555
C33 C31 1_555 1_555
H36 C33 1_555 1_555
H37 C33 1_555 1_555
H38 C33 1_555 1_555
C34 C31 1_555 1_555
H39 C34 1_555 1_555
H40 C34 1_555 1_555
H41 C34 1_555 1_555
C35 C4 1_555 1_555
C36 C35 1_555 1_555
H42 C36 1_555 1_555
H43 C36 1_555 1_555
H44 C36 1_555 1_555
C37 C35 1_555 1_555
H45 C37 1_555 1_555
H46 C37 1_555 1_555
H47 C37 1_555 1_555
C38 C35 1_555 1_555
H48 C38 1_555 1_555
H49 C38 1_555 1_555
H50 C38 1_555 1_555
H51 O2 1_555 1_555
H52 O1 1_555 1_555
O3 C39 1_555 1_555
C39 C40 1_555 1_555
C40 H53 1_555 1_555
H54 C40 1_555 1_555
H55 C40 1_555 1_555
C41 C39 1_555 1_555
H56 C41 1_555 1_555
H57 C41 1_555 1_555
H58 C41 1_555 1_555
C2 C19 1_555 1_555
C5 C6 1_555 1_555
C8 C20 1_555 1_555
C11 C12 1_555 1_555
C17 C18 1_555 1_555

#END
