
#######################################################################
#
#                 Cambridge Crystallographic Data Centre
#                                CCDC 
#
#######################################################################
#
# If this CIF has been generated from an entry in the Cambridge 
# Structural Database, then it will include bibliographic, chemical, 
# crystal, experimental, refinement or atomic coordinate data resulting 
# from the CCDC's data processing and validation procedures.
#
#######################################################################

data_SAJPOK
_chemical_name_common            
1-Methyl-2-((phenylthio)methyl)-3-ethoxycarbonyl-4-((dimethylamino)methyl)-5-hydroxy-6-bromindole
_chemical_formula_moiety         'C22 H25 Br1 N2 O3 S1'
_chemical_name_systematic        
'Ethyl 6-bromo-4-((dimethylamino)methyl)-5-hydroxy-1-methyl-2-((phenylsulfanyl)methyl)-1H-indole-3-carboxylate'
_chemical_properties_biological  'Arbidol is an antiviral drug'
_symmetry_cell_setting           triclinic
_symmetry_space_group_name_H-M   'P -1'
_symmetry_Int_Tables_number      2
_space_group_name_Hall           '-P 1'
loop_
_symmetry_equiv_pos_site_id
_symmetry_equiv_pos_as_xyz
1 x,y,z
2 -x,-y,-z
_cell_length_a                   9.138(3)
_cell_length_b                   9.933(7)
_cell_length_c                   13.821(7)
_cell_angle_alpha                95.99(4)
_cell_angle_beta                 104.61(3)
_cell_angle_gamma                113.74(2)
_cell_volume                     1080.78
_exptl_crystal_colour            colorless
_exptl_crystal_description       prism
_cell_formula_units_Z            2
loop_
_atom_site_label
_atom_site_type_symbol
_atom_site_fract_x
_atom_site_fract_y
_atom_site_fract_z
Br1 Br 0.88728(4) 0.69223(4) 0.88052(2)
S1 S 0.32975(13) -0.02222(9) 0.34323(6)
N1 N 0.5405(3) 0.3216(3) 0.51111(17)
C1 C 0.3728(3) 0.2415(3) 0.4559(2)
C2 C 0.2786(3) 0.2676(3) 0.5138(2)
C3 C 0.3828(3) 0.4308(3) 0.7033(2)
C4 C 0.5315(3) 0.5284(3) 0.7825(2)
C5 C 0.6898(3) 0.5595(3) 0.7702(2)
C6 C 0.7062(3) 0.4971(3) 0.6828(2)
H1 H 0.8116 0.5184 0.6762
C7 C 0.5584(3) 0.4008(3) 0.6049(2)
C8 C 0.3962(3) 0.3684(3) 0.6111(2)
C9 C 0.6835(4) 0.3260(4) 0.4807(2)
H2 H 0.6439 0.2713 0.4105
H3 H 0.7401 0.2806 0.5242
H4 H 0.7606 0.4292 0.4873
O1 O 0.5309(3) 0.5956(3) 0.87238(16)
H5 H 0.4372 0.5524 0.8784
C10 C 0.2142(4) 0.3985(4) 0.7185(2)
H6 H 0.1777 0.4719 0.6946
H7 H 0.1307 0.2990 0.6771
N2 N 0.2221(3) 0.4047(3) 0.82684(18)
C11 C 0.2165(5) 0.2654(4) 0.8550(3)
H8 H 0.1086 0.1824 0.8170
H9 H 0.2332 0.2755 0.9273
H10 H 0.3041 0.2467 0.8392
C12 C 0.0840(4) 0.4312(4) 0.8450(3)
H11 H 0.0971 0.5287 0.8339
H12 H 0.0863 0.4281 0.9145
H13 H -0.0219 0.3544 0.7985
C13 C 0.0974(3) 0.2242(3) 0.4743(2)
O2 O 0.0312(3) 0.2996(3) 0.49854(17)
O3 O 0.0091(2) 0.0908(2) 0.40463(16)
C14 C -0.1700(4) 0.0459(4) 0.3570(2)
H14 H -0.2157 0.0712 0.4085
H15 H -0.2292 -0.0627 0.3299
C15 C -0.1983(4) 0.1228(5) 0.2726(3)
H16 H -0.1511 0.2295 0.3006
H17 H -0.3174 0.0836 0.2381
H18 H -0.1448 0.1048 0.2246
C16 C 0.3194(4) 0.1576(3) 0.3481(2)
H19 H 0.3921 0.2182 0.3130
H20 H 0.2046 0.1393 0.3128
C17 C 0.3270(3) -0.0704(3) 0.2160(2)
C18 C 0.2909(4) 0.0016(4) 0.1393(2)
H21 H 0.2647 0.0814 0.1531
C19 C 0.2937(5) -0.0449(4) 0.0425(3)
H22 H 0.2715 0.0055 -0.0082
C20 C 0.3286(5) -0.1640(4) 0.0197(3)
H23 H 0.3304 -0.1944 -0.0458
C21 C 0.3608(4) -0.2379(4) 0.0950(3)
H24 H 0.3814 -0.3207 0.0797
C22 C 0.3631(4) -0.1908(3) 0.1925(3)
H25 H 0.3889 -0.2397 0.2433
loop_
_geom_bond_atom_site_label_1
_geom_bond_atom_site_label_2
_geom_bond_site_symmetry_1
_geom_bond_site_symmetry_2
Br1 C5 1_555 1_555
S1 C16 1_555 1_555
N1 C1 1_555 1_555
C1 C2 1_555 1_555
C2 C8 1_555 1_555
C3 C4 1_555 1_555
C4 C5 1_555 1_555
C5 C6 1_555 1_555
C6 H1 1_555 1_555
C7 N1 1_555 1_555
C8 C3 1_555 1_555
C9 N1 1_555 1_555
H2 C9 1_555 1_555
H3 C9 1_555 1_555
H4 C9 1_555 1_555
O1 C4 1_555 1_555
H5 O1 1_555 1_555
C10 C3 1_555 1_555
H6 C10 1_555 1_555
H7 C10 1_555 1_555
N2 C10 1_555 1_555
C11 N2 1_555 1_555
H8 C11 1_555 1_555
H9 C11 1_555 1_555
H10 C11 1_555 1_555
C12 N2 1_555 1_555
H11 C12 1_555 1_555
H12 C12 1_555 1_555
H13 C12 1_555 1_555
C13 C2 1_555 1_555
O2 C13 1_555 1_555
O3 C13 1_555 1_555
C14 O3 1_555 1_555
H14 C14 1_555 1_555
H15 C14 1_555 1_555
C15 C14 1_555 1_555
H16 C15 1_555 1_555
H17 C15 1_555 1_555
H18 C15 1_555 1_555
C16 C1 1_555 1_555
H19 C16 1_555 1_555
H20 C16 1_555 1_555
C17 S1 1_555 1_555
C18 C17 1_555 1_555
H21 C18 1_555 1_555
C19 C18 1_555 1_555
H22 C19 1_555 1_555
C20 C19 1_555 1_555
H23 C20 1_555 1_555
C21 C20 1_555 1_555
H24 C21 1_555 1_555
C22 C17 1_555 1_555
H25 C22 1_555 1_555
C6 C7 1_555 1_555
C7 C8 1_555 1_555
C21 C22 1_555 1_555

#END
