
#######################################################################
#
#                 Cambridge Crystallographic Data Centre
#                                CCDC 
#
#######################################################################
#
# If this CIF has been generated from an entry in the Cambridge 
# Structural Database, then it will include bibliographic, chemical, 
# crystal, experimental, refinement or atomic coordinate data resulting 
# from the CCDC's data processing and validation procedures.
#
#######################################################################

data_SAJQEB
_chemical_name_common            
'(E)-4-(1,3-Benzothiazol-2-ylcarbohydrazonoyl)-2-methoxyphenol monohydrate'
_chemical_formula_moiety         'C15 H13 N3 O2 S1,H2 O1'
_chemical_name_systematic        
'(E)-2-(2-(4-Hydoxy-3-methoxybenzylidene)hydrazinyl)benzo[d]thiazole monohydrate'
_symmetry_cell_setting           rhombohedral
_symmetry_space_group_name_H-M   'R -3'
_symmetry_Int_Tables_number      148
_space_group_name_Hall           '-R 3'
loop_
_symmetry_equiv_pos_site_id
_symmetry_equiv_pos_as_xyz
1 x,y,z
2 -y,x-y,z
3 -x+y,-x,z
4 2/3+x,1/3+y,1/3+z
5 2/3-y,1/3+x-y,1/3+z
6 2/3-x+y,1/3-x,1/3+z
7 1/3+x,2/3+y,2/3+z
8 1/3-y,2/3+x-y,2/3+z
9 1/3-x+y,2/3-x,2/3+z
10 -x,-y,-z
11 y,-x+y,-z
12 x-y,x,-z
13 1/3-x,2/3-y,2/3-z
14 1/3+y,2/3-x+y,2/3-z
15 1/3+x-y,2/3+x,2/3-z
16 2/3-x,1/3-y,1/3-z
17 2/3+y,1/3-x+y,1/3-z
18 2/3+x-y,1/3+x,1/3-z
_cell_length_a                   44.2621(10)
_cell_length_b                   44.2621(10)
_cell_length_c                   3.9510(1)
_cell_angle_alpha                90
_cell_angle_beta                 90
_cell_angle_gamma                120
_cell_volume                     6703.5
_exptl_crystal_colour            colorless
_exptl_crystal_description       needle
_cell_formula_units_Z            18
loop_
_atom_site_label
_atom_site_type_symbol
_atom_site_fract_x
_atom_site_fract_y
_atom_site_fract_z
O1 O 0.67171(9) 0.25267(11) 0.5723(10)
H1 H 0.6762(16) 0.2508(17) 0.777(12)
H2 H 0.6840(15) 0.2574(17) 0.391(14)
N1 N 0.50022(7) 0.03256(7) -0.1968(7)
H3 H 0.5152(10) 0.0277(9) -0.294(9)
H4 H 0.5585(10) 0.0725(9) -0.042(9)
C1 C 0.46563(8) 0.01329(8) -0.2513(8)
C2 C 0.38911(9) -0.06324(9) -0.5151(9)
H5 H 0.3960 -0.0783 -0.6169
C3 C 0.40306(8) -0.00912(8) -0.2405(8)
C4 C 0.55500(9) 0.15815(9) 0.5142(9)
C5 C 0.61182(9) 0.16883(9) 0.3419(9)
H6 H 0.6364 0.1835 0.3320
C6 C 0.59132(9) 0.18059(9) 0.4938(9)
C7 C 0.36792(8) -0.01953(9) -0.2099(8)
H7 H 0.3608 -0.0047 -0.1070
C8 C 0.53989(8) 0.12548(8) 0.3733(8)
H8 H 0.5153 0.1106 0.3860
C9 C 0.50126(9) 0.14886(9) 0.7368(9)
H9 H 0.4888 0.1428 0.5201
H10 H 0.4920 0.1602 0.8831
H11 H 0.4980 0.1276 0.8467
C10 C 0.41414(8) -0.03060(8) -0.3955(8)
C11 C 0.56042(8) 0.11397(9) 0.2107(8)
C12 C 0.34344(8) -0.05204(9) -0.3327(8)
H12 H 0.3193 -0.0597 -0.3132
C13 C 0.59630(9) 0.13564(9) 0.2050(9)
H13 H 0.6105 0.1276 0.1052
C14 C 0.54483(9) 0.08069(9) 0.0367(8)
C15 C 0.35409(9) -0.07350(9) -0.4840(9)
H14 H 0.3370 -0.0957 -0.5680
N2 N 0.51191(7) 0.06313(7) -0.0207(7)
N3 N 0.45031(7) -0.01696(7) -0.3998(7)
O2 O 0.60458(7) 0.21295(6) 0.6281(7)
H15 H 0.6265 0.2234 0.6176
O3 O 0.53732(6) 0.17194(6) 0.6793(7)
S1 S 0.43902(2) 0.02928(2) -0.0972(2)
loop_
_geom_bond_atom_site_label_1
_geom_bond_atom_site_label_2
_geom_bond_site_symmetry_1
_geom_bond_site_symmetry_2
O1 H1 1_555 1_555
H2 O1 1_555 1_555
N1 H3 1_555 1_555
H4 C14 1_555 1_555
C1 N1 1_555 1_555
C2 H5 1_555 1_555
C3 C7 1_555 1_555
C4 C6 1_555 1_555
C5 H6 1_555 1_555
C6 C5 1_555 1_555
C7 H7 1_555 1_555
C8 C4 1_555 1_555
H8 C8 1_555 1_555
C9 H9 1_555 1_555
H10 C9 1_555 1_555
H11 C9 1_555 1_555
C10 C2 1_555 1_555
C11 C8 1_555 1_555
C12 C7 1_555 1_555
H12 C12 1_555 1_555
C13 C5 1_555 1_555
H13 C13 1_555 1_555
C14 C11 1_555 1_555
C15 C2 1_555 1_555
H14 C15 1_555 1_555
N2 N1 1_555 1_555
N3 C1 1_555 1_555
O2 C6 1_555 1_555
H15 O2 1_555 1_555
O3 C4 1_555 1_555
S1 C1 1_555 1_555
C3 C10 1_555 1_555
C3 S1 1_555 1_555
C9 O3 1_555 1_555
C10 N3 1_555 1_555
C11 C13 1_555 1_555
C12 C15 1_555 1_555
C14 N2 1_555 1_555

#END
