
#######################################################################
#
#                 Cambridge Crystallographic Data Centre
#                                CCDC 
#
#######################################################################
#
# If this CIF has been generated from an entry in the Cambridge 
# Structural Database, then it will include bibliographic, chemical, 
# crystal, experimental, refinement or atomic coordinate data resulting 
# from the CCDC's data processing and validation procedures.
#
#######################################################################

data_SAJQIF
_chemical_name_common            
(E)-2-(2-(4-Chlorobenzylidene)hydrazino)-1,3-benzothiazole
_chemical_formula_moiety         'C14 H10 Cl1 N3 S1'
_chemical_name_systematic        
(E)-2-(2-(4-Chlorobenzylidene)hydrazinyl)benzo[d]thiazole
_symmetry_cell_setting           monoclinic
_symmetry_space_group_name_H-M   'P 21/n'
_symmetry_Int_Tables_number      14
_space_group_name_Hall           '-P 2yn'
loop_
_symmetry_equiv_pos_site_id
_symmetry_equiv_pos_as_xyz
1 x,y,z
2 1/2-x,1/2+y,1/2-z
3 -x,-y,-z
4 1/2+x,1/2-y,1/2+z
_cell_length_a                   18.8840(16)
_cell_length_b                   3.8781(3)
_cell_length_c                   19.3699(18)
_cell_angle_alpha                90
_cell_angle_beta                 118.498(4)
_cell_angle_gamma                90
_cell_volume                     1246.66
_exptl_crystal_colour            colorless
_exptl_crystal_description       needle
_cell_formula_units_Z            4
loop_
_atom_site_label
_atom_site_type_symbol
_atom_site_fract_x
_atom_site_fract_y
_atom_site_fract_z
S1 S 0.67155(8) -0.0059(4) 0.17275(8)
Cl1 Cl 0.92613(10) -0.1822(4) -0.11236(11)
N1 N 0.5299(2) 0.2876(12) 0.1023(3)
N2 N 0.5971(3) 0.2657(13) 0.0284(3)
H1 H 0.562(4) 0.373(16) -0.008(4)
N3 N 0.6629(3) 0.1500(12) 0.0235(3)
C1 C 0.4887(3) 0.2264(14) 0.2057(3)
H2 H 0.4380 0.3338 0.1746
C2 C 0.6165(3) 0.0246(14) 0.2245(3)
C3 C 0.7249(3) 0.0842(13) -0.0592(3)
C4 C 0.6591(3) 0.1831(15) -0.0445(3)
H3 H 0.609(3) 0.259(15) -0.089(3)
C5 C 0.8578(3) -0.1516(15) -0.0183(3)
H4 H 0.9060 -0.2545 0.0207
C6 C 0.7950(3) -0.0700(14) -0.0022(3)
H5 H 0.8002 -0.1202 0.0480
C7 C 0.6380(3) -0.0917(14) 0.2992(3)
H6 H 0.6887 -0.1982 0.3306
C8 C 0.5424(3) 0.1847(14) 0.1762(3)
C9 C 0.8484(3) -0.0804(15) -0.0915(4)
C10 C 0.7790(4) 0.0702(15) -0.1497(4)
H7 H 0.7738 0.1180 -0.2000
C11 C 0.5832(3) -0.0482(14) 0.3266(3)
H8 H 0.5961 -0.1280 0.3776
C12 C 0.5916(3) 0.2022(14) 0.0938(3)
C13 C 0.5093(3) 0.1111(15) 0.2805(3)
H9 H 0.4726 0.1409 0.3006
C14 C 0.7179(3) 0.1487(15) -0.1327(3)
H10 H 0.6698 0.2495 -0.1723
loop_
_geom_bond_atom_site_label_1
_geom_bond_atom_site_label_2
_geom_bond_site_symmetry_1
_geom_bond_site_symmetry_2
S1 C2 1_555 1_555
Cl1 C9 1_555 1_555
N1 C8 1_555 1_555
N2 H1 1_555 1_555
N3 N2 1_555 1_555
C1 H2 1_555 1_555
C2 C7 1_555 1_555
C3 C4 1_555 1_555
C4 N3 1_555 1_555
H3 C4 1_555 1_555
C5 H4 1_555 1_555
C6 C3 1_555 1_555
H5 C6 1_555 1_555
C7 H6 1_555 1_555
C8 C1 1_555 1_555
C9 C5 1_555 1_555
C10 C9 1_555 1_555
H7 C10 1_555 1_555
C11 C7 1_555 1_555
H8 C11 1_555 1_555
C12 S1 1_555 1_555
C13 C1 1_555 1_555
H9 C13 1_555 1_555
C14 C3 1_555 1_555
H10 C14 1_555 1_555
N1 C12 1_555 1_555
N2 C12 1_555 1_555
C2 C8 1_555 1_555
C5 C6 1_555 1_555
C10 C14 1_555 1_555
C11 C13 1_555 1_555

#END
