
#######################################################################
#
#                 Cambridge Crystallographic Data Centre
#                                CCDC 
#
#######################################################################
#
# If this CIF has been generated from an entry in the Cambridge 
# Structural Database, then it will include bibliographic, chemical, 
# crystal, experimental, refinement or atomic coordinate data resulting 
# from the CCDC's data processing and validation procedures.
#
#######################################################################

data_SAJQAX
_chemical_name_common            
(E)-4-(1,3-Benzothiazol-2-ylcarbohydrazonoyl)-N,N-dimethylaniline
_chemical_formula_moiety         'C16 H16 N4 S1'
_chemical_name_systematic        
(E)-2-(2-(4-Dimethylaminobenzylidene)hydrazinyl)benzo[d]thiazole
_symmetry_cell_setting           triclinic
_symmetry_space_group_name_H-M   'P -1'
_symmetry_Int_Tables_number      2
_space_group_name_Hall           '-P 1'
loop_
_symmetry_equiv_pos_site_id
_symmetry_equiv_pos_as_xyz
1 x,y,z
2 -x,-y,-z
_cell_length_a                   4.9798(3)
_cell_length_b                   12.8925(8)
_cell_length_c                   23.0234(15)
_cell_angle_alpha                102.696(3)
_cell_angle_beta                 95.006(4)
_cell_angle_gamma                90.829(4)
_cell_volume                     1435.65
_exptl_crystal_colour            colorless
_exptl_crystal_description       block
_cell_formula_units_Z            4
loop_
_atom_site_label
_atom_site_type_symbol
_atom_site_fract_x
_atom_site_fract_y
_atom_site_fract_z
S1 S 0.5132(2) 0.20679(8) 0.47004(5)
N1 N -0.0214(6) 0.0753(3) 0.10285(14)
N5 N 0.1295(6) 0.0865(2) 0.38678(14)
N6 N 0.3193(6) 0.0952(2) 0.53994(14)
C1 C 0.2919(7) 0.1124(3) 0.48642(18)
N7 N 0.1069(7) 0.0644(3) 0.44167(15)
H1 H -0.017(8) 0.017(3) 0.4471(17)
C3 C 0.8492(8) 0.2254(3) 0.65898(18)
H4 H 0.9148 0.2257 0.6990
C7 C -0.0267(7) 0.0495(3) 0.28273(17)
C8 C -0.0329(8) 0.0364(3) 0.34372(19)
H7 H -0.174(8) -0.016(3) 0.3473(17)
C9 C -0.2438(8) 0.0247(3) 0.06030(18)
H8 H -0.2508 -0.0518 0.0588
H9 H -0.2165 0.0364 0.0205
H10 H -0.4138 0.0555 0.0729
C11 C 0.1642(7) 0.1166(3) 0.26571(18)
H11 H 0.2961 0.1557 0.2949
C12 C -0.2126(8) 0.0010(3) 0.17977(18)
H12 H -0.3424 -0.0397 0.1506
C14 C 0.5326(7) 0.1583(3) 0.57326(17)
C20 C 0.6644(7) 0.2250(3) 0.54311(18)
C21 C 0.0836(8) 0.1746(3) 0.09146(19)
H18 H -0.0331 0.2327 0.1072
H19 H 0.0879 0.1676 0.0483
H20 H 0.2666 0.1900 0.1113
C22 C 0.6281(8) 0.1598(3) 0.63194(19)
H21 H 0.5425 0.1161 0.6536
C23 C -0.0258(7) 0.0682(3) 0.16232(17)
C26 C 0.8830(8) 0.2909(3) 0.56968(19)
H26 H 0.9682 0.3354 0.5484
C27 C 0.1610(8) 0.1257(3) 0.20750(17)
H27 H 0.2893 0.1725 0.1974
C28 C -0.2102(8) -0.0067(3) 0.23793(19)
H28 H -0.3403 -0.0526 0.2481
C29 C 0.9747(8) 0.2904(3) 0.62810(19)
H29 H 1.1249 0.3349 0.6472
S2 S 0.5761(2) 0.29907(8) 0.99885(5)
N2 N 0.7617(6) 0.4208(3) 1.37615(15)
N3 N 0.2224(6) 0.4024(2) 0.94545(14)
N4 N 0.3511(6) 0.4109(2) 1.10013(14)
N8 N 0.2229(6) 0.4349(3) 1.04963(14)
H2 H 0.094(7) 0.484(3) 1.0513(17)
C2 C 0.5990(7) 0.3738(3) 1.21220(18)
H3 H 0.6604 0.3316 1.1769
C4 C 0.4876(8) 0.2748(3) 0.80119(18)
H5 H 0.4621 0.2731 0.7596
C5 C 0.4265(7) 0.4960(3) 1.31540(17)
H6 H 0.3642 0.5385 1.3505
C6 C 0.3126(7) 0.3871(3) 0.99668(18)
C10 C 0.5651(7) 0.2794(3) 0.92129(17)
C13 C 0.2715(8) 0.4588(3) 1.15010(18)
H13 H 0.137(8) 0.509(3) 1.1520(17)
C15 C 0.6451(8) 0.4734(3) 1.42963(17)
H14 H 0.6218 0.5485 1.4291
H15 H 0.7650 0.4678 1.4648
H16 H 0.4693 0.4395 1.4312
C16 C 0.6845(8) 0.2142(3) 0.82229(18)
H17 H 0.7922 0.1711 0.7951
C17 C 0.3641(7) 0.3413(3) 0.90081(17)
C18 C 0.3937(7) 0.4438(3) 1.20705(17)
C19 C 0.6360(7) 0.4259(3) 1.32051(18)
C24 C 0.9295(8) 0.3319(3) 1.37962(18)
H22 H 0.8220 0.2654 1.3654
H23 H 1.0020 0.3373 1.4212
H24 H 1.0787 0.3324 1.3546
C25 C 0.7165(7) 0.3638(3) 1.26722(18)
H25 H 0.8542 0.3141 1.2690
C30 C 0.3106(8) 0.5036(3) 1.26009(18)
H30 H 0.1686 0.5514 1.2580
C31 C 0.3277(8) 0.3375(3) 0.83970(18)
H31 H 0.1924 0.3783 0.8245
C32 C 0.7257(7) 0.2158(3) 0.88272(19)
H32 H 0.8608 0.1744 0.8974
loop_
_geom_bond_atom_site_label_1
_geom_bond_atom_site_label_2
_geom_bond_site_symmetry_1
_geom_bond_site_symmetry_2
S1 C1 1_555 1_555
S2 C6 1_555 1_555
N1 C9 1_555 1_555
N2 C15 1_555 1_555
N3 C6 1_555 1_555
N4 N8 1_555 1_555
N5 N7 1_555 1_555
N6 C1 1_555 1_555
C1 N7 1_555 1_555
N7 H1 1_555 1_555
N8 H2 1_555 1_555
C2 H3 1_555 1_555
C3 H4 1_555 1_555
C4 H5 1_555 1_555
C5 H6 1_555 1_555
C6 N8 1_555 1_555
C7 C8 1_555 1_555
C8 N5 1_555 1_555
H7 C8 1_555 1_555
C9 H8 1_555 1_555
H9 C9 1_555 1_555
H10 C9 1_555 1_555
C10 S2 1_555 1_555
C11 C7 1_555 1_555
H11 C11 1_555 1_555
C12 H12 1_555 1_555
C13 N4 1_555 1_555
H13 C13 1_555 1_555
C14 N6 1_555 1_555
C15 H14 1_555 1_555
H15 C15 1_555 1_555
H16 C15 1_555 1_555
C16 C4 1_555 1_555
H17 C16 1_555 1_555
C17 N3 1_555 1_555
C18 C2 1_555 1_555
C19 N2 1_555 1_555
C20 S1 1_555 1_555
C21 N1 1_555 1_555
H18 C21 1_555 1_555
H19 C21 1_555 1_555
H20 C21 1_555 1_555
C22 C3 1_555 1_555
H21 C22 1_555 1_555
C23 N1 1_555 1_555
C24 N2 1_555 1_555
H22 C24 1_555 1_555
H23 C24 1_555 1_555
H24 C24 1_555 1_555
C25 C2 1_555 1_555
H25 C25 1_555 1_555
C26 C20 1_555 1_555
H26 C26 1_555 1_555
C27 C11 1_555 1_555
H27 C27 1_555 1_555
C28 C7 1_555 1_555
H28 C28 1_555 1_555
C29 C3 1_555 1_555
H29 C29 1_555 1_555
C30 C5 1_555 1_555
H30 C30 1_555 1_555
C31 C4 1_555 1_555
H31 C31 1_555 1_555
C32 C10 1_555 1_555
H32 C32 1_555 1_555
C5 C19 1_555 1_555
C10 C17 1_555 1_555
C12 C23 1_555 1_555
C12 C28 1_555 1_555
C13 C18 1_555 1_555
C14 C20 1_555 1_555
C14 C22 1_555 1_555
C16 C32 1_555 1_555
C17 C31 1_555 1_555
C18 C30 1_555 1_555
C19 C25 1_555 1_555
C23 C27 1_555 1_555
C26 C29 1_555 1_555

#END
