
#######################################################################
#
#                 Cambridge Crystallographic Data Centre
#                                CCDC 
#
#######################################################################
#
# If this CIF has been generated from an entry in the Cambridge 
# Structural Database, then it will include bibliographic, chemical, 
# crystal, experimental, refinement or atomic coordinate data resulting 
# from the CCDC's data processing and validation procedures.
#
#######################################################################

data_SAJRIG
_chemical_name_common            
(E)-2-(2-(4-Bromobenzylidene)hydrazino)-1,3-benzothiazole
_chemical_formula_moiety         'C14 H10 Br1 N3 S1'
_chemical_name_systematic        
(E)-2-(2-(4-bromobenzylidene)hydrazinyl)benzo[d]thiazole
_symmetry_cell_setting           monoclinic
_symmetry_space_group_name_H-M   'P 21/c'
_symmetry_Int_Tables_number      14
_space_group_name_Hall           '-P 2ybc'
loop_
_symmetry_equiv_pos_site_id
_symmetry_equiv_pos_as_xyz
1 x,y,z
2 -x,1/2+y,1/2-z
3 -x,-y,-z
4 x,1/2-y,1/2+z
_cell_length_a                   19.2048(14)
_cell_length_b                   3.9231(3)
_cell_length_c                   19.4225(13)
_cell_angle_alpha                90
_cell_angle_beta                 119.421(3)
_cell_angle_gamma                90
_cell_volume                     1274.62
_exptl_crystal_colour            colorless
_exptl_crystal_description       needle
_cell_formula_units_Z            4
loop_
_atom_site_label
_atom_site_type_symbol
_atom_site_fract_x
_atom_site_fract_y
_atom_site_fract_z
Br1 Br 0.03957(3) 0.19145(14) 0.61837(3)
S1 S -0.50119(6) 0.0110(3) 0.32713(6)
N1 N -0.3629(2) -0.1496(10) 0.4766(2)
C1 C -0.3003(3) -0.1812(12) 0.5447(3)
H1 H -0.308(3) -0.270(13) 0.584(3)
N2 N -0.5718(2) -0.2900(10) 0.3972(2)
N3 N -0.4324(2) -0.2632(11) 0.4722(2)
H2 H -0.433(3) -0.370(14) 0.508(3)
C2 C -0.0662(2) 0.0768(12) 0.5945(3)
C3 C -0.7137(3) -0.2266(12) 0.2932(2)
H3 H -0.7329 -0.3318 0.3247
C4 C -0.7667(3) -0.1146(12) 0.2183(3)
H4 H -0.8225 -0.1469 0.1979
C5 C -0.1294(3) 0.1512(12) 0.5200(3)
H5 H -0.1202 0.2556 0.4810
C6 C -0.2065(3) 0.0691(12) 0.5037(3)
H6 H -0.2503 0.1181 0.4529
C7 C -0.6316(2) -0.1855(11) 0.3229(2)
C8 C -0.6056(2) -0.0225(12) 0.2751(2)
C9 C -0.1557(3) -0.1513(13) 0.6347(3)
H7 H -0.1644 -0.2531 0.6742
C10 C -0.2208(3) -0.0833(12) 0.5602(3)
C11 C -0.0787(3) -0.0723(13) 0.6517(3)
H8 H -0.0347 -0.1206 0.7024
C12 C -0.5027(2) -0.2002(12) 0.4058(2)
C13 C -0.6585(3) 0.0943(12) 0.2000(3)
H9 H -0.6399 0.2045 0.1685
C14 C -0.7394(3) 0.0459(12) 0.1721(3)
H10 H -0.7769 0.1233 0.1206
loop_
_geom_bond_atom_site_label_1
_geom_bond_atom_site_label_2
_geom_bond_site_symmetry_1
_geom_bond_site_symmetry_2
Br1 C2 1_555 1_555
S1 C8 1_555 1_555
N1 C1 1_555 1_555
C1 H1 1_555 1_555
N2 C7 1_555 1_555
N3 N1 1_555 1_555
H2 N3 1_555 1_555
C2 C5 1_555 1_555
C3 H3 1_555 1_555
C4 C3 1_555 1_555
H4 C4 1_555 1_555
C5 H5 1_555 1_555
C6 C5 1_555 1_555
H6 C6 1_555 1_555
C7 C3 1_555 1_555
C8 C7 1_555 1_555
C9 H7 1_555 1_555
C10 C1 1_555 1_555
C11 C2 1_555 1_555
H8 C11 1_555 1_555
C12 S1 1_555 1_555
C13 C8 1_555 1_555
H9 C13 1_555 1_555
C14 C4 1_555 1_555
H10 C14 1_555 1_555
N2 C12 1_555 1_555
N3 C12 1_555 1_555
C6 C10 1_555 1_555
C9 C10 1_555 1_555
C9 C11 1_555 1_555
C13 C14 1_555 1_555

#END
