
#######################################################################
#
#                 Cambridge Crystallographic Data Centre
#                                CCDC 
#
#######################################################################
#
# If this CIF has been generated from an entry in the Cambridge 
# Structural Database, then it will include bibliographic, chemical, 
# crystal, experimental, refinement or atomic coordinate data resulting 
# from the CCDC's data processing and validation procedures.
#
#######################################################################

data_SAJSUU
_chemical_formula_moiety         'C76 H74 N4,3(C4 H8 O1)'
_chemical_name_systematic        
"4,4',4'',4'''-{octa-1,3,5,7-tetrayne-1,8-diylbis[(4,1-phenylene)(2-phenylethene-2,1,1-triyl)]}tetrakis(N,N-diethylaniline) tetrahydrofuran solvate"
_symmetry_cell_setting           monoclinic
_symmetry_space_group_name_H-M   'I 2/a'
_symmetry_Int_Tables_number      15
_space_group_name_Hall           '-I 2ya'
loop_
_symmetry_equiv_pos_site_id
_symmetry_equiv_pos_as_xyz
1 x,y,z
2 1/2-x,y,-z
3 1/2+x,1/2+y,1/2+z
4 -x,1/2+y,1/2-z
5 -x,-y,-z
6 1/2+x,-y,z
7 1/2-x,1/2-y,1/2-z
8 x,1/2-y,1/2+z
_cell_length_a                   34.0369(15)
_cell_length_b                   9.7317(4)
_cell_length_c                   22.9160(8)
_cell_angle_alpha                90
_cell_angle_beta                 90.574(3)
_cell_angle_gamma                90
_cell_volume                     7590.24
_exptl_crystal_colour            red
_exptl_crystal_description       block
_cell_formula_units_Z            4
loop_
_atom_site_label
_atom_site_type_symbol
_atom_site_fract_x
_atom_site_fract_y
_atom_site_fract_z
N1 N 0.15983(7) 0.7225(2) 0.20732(9)
N2 N 0.34938(8) 0.2834(3) 0.48541(11)
C1 C 0.21165(7) 0.2598(2) 0.34107(9)
C2 C 0.18975(7) 0.1420(2) 0.33616(9)
C3 C 0.19893(7) 0.3884(2) 0.31072(10)
C4 C 0.22517(7) 0.4680(2) 0.27951(9)
H1 H 0.2524 0.4464 0.2815
C5 C 0.21302(7) 0.5783(2) 0.24536(10)
H2 H 0.2319 0.6290 0.2240
C6 C 0.17334(8) 0.6160(2) 0.24195(10)
C7 C 0.14691(8) 0.5400(2) 0.27683(11)
H3 H 0.1199 0.5650 0.2772
C8 C 0.15962(7) 0.4311(2) 0.31006(10)
H4 H 0.1412 0.3831 0.3333
C9 C 0.11778(9) 0.7338(3) 0.19305(13)
H5 H 0.1132 0.8221 0.1727
H6 H 0.1029 0.7362 0.2299
C10 C 0.10157(10) 0.6181(3) 0.15515(14)
H7 H 0.1133 0.6230 0.1163
H8 H 0.0730 0.6275 0.1516
H9 H 0.1080 0.5294 0.1731
C11 C 0.18678(9) 0.8027(2) 0.17246(11)
H10 H 0.2114 0.8161 0.1951
H11 H 0.1751 0.8946 0.1656
C12 C 0.19694(9) 0.7397(3) 0.11375(11)
H12 H 0.1729 0.7270 0.0906
H13 H 0.2097 0.6505 0.1199
H14 H 0.2148 0.8010 0.0929
C13 C 0.24829(7) 0.2677(2) 0.37643(9)
C14 C 0.25701(7) 0.3825(2) 0.41114(10)
H15 H 0.2397 0.4589 0.4103
C15 C 0.28988(8) 0.3877(3) 0.44623(11)
H16 H 0.2944 0.4667 0.4697
C16 C 0.31677(8) 0.2798(3) 0.44828(11)
C17 C 0.30966(8) 0.1685(3) 0.41053(11)
H17 H 0.3282 0.0957 0.4087
C18 C 0.27622(7) 0.1635(2) 0.37621(10)
H18 H 0.2721 0.0862 0.3516
C19 C 0.35557(12) 0.4038(5) 0.5236(2)
H19 H 0.3741 0.3790 0.5555
H20 H 0.3303 0.4302 0.5414
C20 C 0.37207(13) 0.5266(5) 0.4897(3)
H21 H 0.3570 0.5390 0.4535
H22 H 0.3997 0.5094 0.4805
H23 H 0.3701 0.6097 0.5136
C21 C 0.37609(10) 0.1668(4) 0.49051(17)
H24 H 0.3610 0.0823 0.4817
H25 H 0.3849 0.1606 0.5317
C22 C 0.41110(13) 0.1668(4) 0.4538(2)
H26 H 0.4031 0.1706 0.4126
H27 H 0.4262 0.0827 0.4610
H28 H 0.4274 0.2470 0.4632
C23 C 0.15781(7) 0.1282(2) 0.29193(9)
C24 C 0.16359(7) 0.1667(2) 0.23368(9)
H29 H 0.1879 0.2060 0.2225
C25 C 0.13412(7) 0.1480(2) 0.19231(10)
H30 H 0.1385 0.1742 0.1530
C26 C 0.09808(7) 0.0913(2) 0.20760(10)
C27 C 0.09180(8) 0.0524(3) 0.26563(11)
H31 H 0.0674 0.0139 0.2768
C28 C 0.12157(7) 0.0707(2) 0.30647(10)
H32 H 0.1172 0.0433 0.3457
C29 C 0.06961(8) 0.0685(3) 0.16307(11)
C30 C 0.04813(8) 0.0480(3) 0.12127(12)
C31 C 0.02674(9) 0.0272(3) 0.07181(13)
C32 C 0.00934(9) 0.0094(3) 0.02565(12)
C33 C 0.19543(7) 0.0181(2) 0.37387(9)
C34 C 0.20171(7) 0.0303(2) 0.43411(10)
H33 H 0.2040 0.1188 0.4513
C35 C 0.20465(8) -0.0858(2) 0.46876(10)
H34 H 0.2088 -0.0761 0.5096
C36 C 0.20160(8) -0.2156(2) 0.44468(11)
H35 H 0.2035 -0.2947 0.4688
C37 C 0.19576(8) -0.2294(2) 0.38504(10)
H36 H 0.1940 -0.3183 0.3681
C38 C 0.19244(7) -0.1134(2) 0.34993(10)
H37 H 0.1881 -0.1238 0.3091
N1D N -0.15983(7) -0.7225(2) -0.20732(9)
N2D N -0.34938(8) -0.2834(3) -0.48541(11)
C1D C -0.21165(7) -0.2598(2) -0.34107(9)
C2D C -0.18975(7) -0.1420(2) -0.33616(9)
C3D C -0.19893(7) -0.3884(2) -0.31072(10)
C4D C -0.22517(7) -0.4680(2) -0.27951(9)
H1D H -0.2524 -0.4464 -0.2815
C5D C -0.21302(7) -0.5783(2) -0.24536(10)
H2D H -0.2319 -0.6290 -0.2240
C6D C -0.17334(8) -0.6160(2) -0.24195(10)
C7D C -0.14691(8) -0.5400(2) -0.27683(11)
H3D H -0.1199 -0.5650 -0.2772
C8D C -0.15962(7) -0.4311(2) -0.31006(10)
H4D H -0.1412 -0.3831 -0.3333
C9D C -0.11778(9) -0.7338(3) -0.19305(13)
H5D H -0.1132 -0.8221 -0.1727
H6D H -0.1029 -0.7362 -0.2299
C10D C -0.10157(10) -0.6181(3) -0.15515(14)
H7D H -0.1133 -0.6230 -0.1163
H8D H -0.0730 -0.6275 -0.1516
H9D H -0.1080 -0.5294 -0.1731
C11D C -0.18678(9) -0.8027(2) -0.17246(11)
H10D H -0.2114 -0.8161 -0.1951
H11D H -0.1751 -0.8946 -0.1656
C12D C -0.19694(9) -0.7397(3) -0.11375(11)
H12D H -0.1729 -0.7270 -0.0906
H13D H -0.2097 -0.6505 -0.1199
H14D H -0.2148 -0.8010 -0.0929
C13D C -0.24829(7) -0.2677(2) -0.37643(9)
C14D C -0.25701(7) -0.3825(2) -0.41114(10)
H15D H -0.2397 -0.4589 -0.4103
C15D C -0.28988(8) -0.3877(3) -0.44623(11)
H16D H -0.2944 -0.4667 -0.4697
C16D C -0.31677(8) -0.2798(3) -0.44828(11)
C17D C -0.30966(8) -0.1685(3) -0.41053(11)
H17D H -0.3282 -0.0957 -0.4087
C18D C -0.27622(7) -0.1635(2) -0.37621(10)
H18D H -0.2721 -0.0862 -0.3516
C19D C -0.35557(12) -0.4038(5) -0.5236(2)
H19D H -0.3741 -0.3790 -0.5555
H20D H -0.3303 -0.4302 -0.5414
C20D C -0.37207(13) -0.5266(5) -0.4897(3)
H21D H -0.3570 -0.5390 -0.4535
H22D H -0.3997 -0.5094 -0.4805
H23D H -0.3701 -0.6097 -0.5136
C21D C -0.37609(10) -0.1668(4) -0.49051(17)
H24D H -0.3610 -0.0823 -0.4817
H25D H -0.3849 -0.1606 -0.5317
C22D C -0.41110(13) -0.1668(4) -0.4538(2)
H26D H -0.4031 -0.1706 -0.4126
H27D H -0.4262 -0.0827 -0.4610
H28D H -0.4274 -0.2470 -0.4632
C23D C -0.15781(7) -0.1282(2) -0.29193(9)
C24D C -0.16359(7) -0.1667(2) -0.23368(9)
H29D H -0.1879 -0.2060 -0.2225
C25D C -0.13412(7) -0.1480(2) -0.19231(10)
H30D H -0.1385 -0.1742 -0.1530
C26D C -0.09808(7) -0.0913(2) -0.20760(10)
C27D C -0.09180(8) -0.0524(3) -0.26563(11)
H31D H -0.0674 -0.0139 -0.2768
C28D C -0.12157(7) -0.0707(2) -0.30647(10)
H32D H -0.1172 -0.0433 -0.3457
C29D C -0.06961(8) -0.0685(3) -0.16307(11)
C30D C -0.04813(8) -0.0480(3) -0.12127(12)
C31D C -0.02674(9) -0.0272(3) -0.07181(13)
C32D C -0.00934(9) -0.0094(3) -0.02565(12)
C33D C -0.19543(7) -0.0181(2) -0.37387(9)
C34D C -0.20171(7) -0.0303(2) -0.43411(10)
H33D H -0.2040 -0.1188 -0.4513
C35D C -0.20465(8) 0.0858(2) -0.46876(10)
H34D H -0.2088 0.0761 -0.5096
C36D C -0.20160(8) 0.2156(2) -0.44468(11)
H35D H -0.2035 0.2947 -0.4688
C37D C -0.19576(8) 0.2294(2) -0.38504(10)
H36D H -0.1940 0.3183 -0.3681
C38D C -0.19244(7) 0.1134(2) -0.34993(10)
H37D H -0.1881 0.1238 -0.3091
O1 O 0.05925(16) -0.0529(5) 0.4174(2)
C39 C 0.0857(2) -0.1557(7) 0.4402(3)
C40 C 0.0784(3) -0.2760(10) 0.4024(4)
C41 C 0.0480(3) -0.2420(8) 0.3569(4)
C42 C 0.0332(5) -0.1115(12) 0.3772(7)
O2 O 0.0177(3) 0.2521(9) 0.3390(4)
C43 C 0.0495(3) 0.3327(9) 0.3653(4)
C44 C 0.0522(3) 0.4504(9) 0.3302(3)
C45 C 0.0406(3) 0.3985(10) 0.2747(4)
C46 C 0.0085(3) 0.2951(9) 0.2815(4)
O3? O 0.0165(4) -0.1173(12) 0.4030(5)
C47? C 0.0268(5) -0.1244(18) 0.4609(7)
C48? C 0.0663(4) -0.1943(13) 0.4588(5)
C49? C 0.0708(6) -0.210(2) 0.3983(6)
C50? C 0.0487(4) -0.1063(14) 0.3706(6)
O4? O 0.00504(19) 0.1701(6) 0.3060(3)
C51? C 0.0207(5) 0.2485(18) 0.3604(8)
C52? C 0.0445(3) 0.3651(12) 0.3179(5)
C53? C 0.0239(5) 0.3743(15) 0.2552(6)
C54? C -0.0056(3) 0.2632(11) 0.2562(5)
loop_
_geom_bond_atom_site_label_1
_geom_bond_atom_site_label_2
_geom_bond_site_symmetry_1
_geom_bond_site_symmetry_2
N1 C6 1_555 1_555
N2 C16 1_555 1_555
C1 C2 1_555 1_555
C2 C23 1_555 1_555
C3 C1 1_555 1_555
C4 C3 1_555 1_555
H1 C4 1_555 1_555
C5 C4 1_555 1_555
H2 C5 1_555 1_555
C6 C5 1_555 1_555
C7 C6 1_555 1_555
H3 C7 1_555 1_555
C8 C3 1_555 1_555
H4 C8 1_555 1_555
C9 N1 1_555 1_555
H5 C9 1_555 1_555
H6 C9 1_555 1_555
C10 C9 1_555 1_555
H7 C10 1_555 1_555
H8 C10 1_555 1_555
H9 C10 1_555 1_555
C11 N1 1_555 1_555
H10 C11 1_555 1_555
H11 C11 1_555 1_555
C12 C11 1_555 1_555
H12 C12 1_555 1_555
H13 C12 1_555 1_555
H14 C12 1_555 1_555
C13 C1 1_555 1_555
C14 C13 1_555 1_555
H15 C14 1_555 1_555
C15 C14 1_555 1_555
H16 C15 1_555 1_555
C16 C15 1_555 1_555
C17 C16 1_555 1_555
H17 C17 1_555 1_555
C18 C13 1_555 1_555
H18 C18 1_555 1_555
C19 N2 1_555 1_555
H19 C19 1_555 1_555
H20 C19 1_555 1_555
C20 C19 1_555 1_555
H21 C20 1_555 1_555
H22 C20 1_555 1_555
H23 C20 1_555 1_555
C21 N2 1_555 1_555
H24 C21 1_555 1_555
H25 C21 1_555 1_555
C22 C21 1_555 1_555
H26 C22 1_555 1_555
H27 C22 1_555 1_555
H28 C22 1_555 1_555
C23 C24 1_555 1_555
C24 H29 1_555 1_555
C25 C24 1_555 1_555
H30 C25 1_555 1_555
C26 C25 1_555 1_555
C27 C26 1_555 1_555
H31 C27 1_555 1_555
C28 C23 1_555 1_555
H32 C28 1_555 1_555
C29 C26 1_555 1_555
C30 C29 1_555 1_555
C31 C30 1_555 1_555
C32 C31 1_555 1_555
C33 C2 1_555 1_555
C34 C33 1_555 1_555
H33 C34 1_555 1_555
C35 C34 1_555 1_555
H34 C35 1_555 1_555
C36 C35 1_555 1_555
H35 C36 1_555 1_555
C37 C36 1_555 1_555
H36 C37 1_555 1_555
C38 C33 1_555 1_555
H37 C38 1_555 1_555
O1 C39 1_555 1_555
C39 C40 1_555 1_555
C40 C41 1_555 1_555
C41 C42 1_555 1_555
C42 O1 1_555 1_555
O2 C43 1_555 1_555
C43 C44 1_555 1_555
C44 C45 1_555 1_555
C45 C46 1_555 1_555
C46 O2 1_555 1_555
N1D C6D 1_555 1_555
N2D C16D 1_555 1_555
C1D C2D 1_555 1_555
C2D C23D 1_555 1_555
C3D C1D 1_555 1_555
C4D C3D 1_555 1_555
H1D C4D 1_555 1_555
C5D C4D 1_555 1_555
H2D C5D 1_555 1_555
C6D C5D 1_555 1_555
C7D C6D 1_555 1_555
H3D C7D 1_555 1_555
C8D C3D 1_555 1_555
H4D C8D 1_555 1_555
C9D N1D 1_555 1_555
H5D C9D 1_555 1_555
H6D C9D 1_555 1_555
C10D C9D 1_555 1_555
H7D C10D 1_555 1_555
H8D C10D 1_555 1_555
H9D C10D 1_555 1_555
C11D N1D 1_555 1_555
H10D C11D 1_555 1_555
H11D C11D 1_555 1_555
C12D C11D 1_555 1_555
H12D C12D 1_555 1_555
H13D C12D 1_555 1_555
H14D C12D 1_555 1_555
C13D C1D 1_555 1_555
C14D C13D 1_555 1_555
H15D C14D 1_555 1_555
C15D C14D 1_555 1_555
H16D C15D 1_555 1_555
C16D C15D 1_555 1_555
C17D C16D 1_555 1_555
H17D C17D 1_555 1_555
C18D C13D 1_555 1_555
H18D C18D 1_555 1_555
C19D N2D 1_555 1_555
H19D C19D 1_555 1_555
H20D C19D 1_555 1_555
C20D C19D 1_555 1_555
H21D C20D 1_555 1_555
H22D C20D 1_555 1_555
H23D C20D 1_555 1_555
C21D N2D 1_555 1_555
H24D C21D 1_555 1_555
H25D C21D 1_555 1_555
C22D C21D 1_555 1_555
H26D C22D 1_555 1_555
H27D C22D 1_555 1_555
H28D C22D 1_555 1_555
C23D C24D 1_555 1_555
C24D H29D 1_555 1_555
C25D C24D 1_555 1_555
H30D C25D 1_555 1_555
C26D C25D 1_555 1_555
C27D C26D 1_555 1_555
H31D C27D 1_555 1_555
C28D C23D 1_555 1_555
H32D C28D 1_555 1_555
C29D C26D 1_555 1_555
C30D C29D 1_555 1_555
C31D C30D 1_555 1_555
C32D C32 1_555 1_555
C33D C2D 1_555 1_555
C34D C33D 1_555 1_555
H33D C34D 1_555 1_555
C35D C34D 1_555 1_555
H34D C35D 1_555 1_555
C36D C35D 1_555 1_555
H35D C36D 1_555 1_555
C37D C36D 1_555 1_555
H36D C37D 1_555 1_555
C38D C33D 1_555 1_555
H37D C38D 1_555 1_555
C7 C8 1_555 1_555
C17 C18 1_555 1_555
C27 C28 1_555 1_555
C37 C38 1_555 1_555
C7D C8D 1_555 1_555
C17D C18D 1_555 1_555
C27D C28D 1_555 1_555
C31D C32D 1_555 1_555
C37D C38D 1_555 1_555

#END
