
#######################################################################
#
#                 Cambridge Crystallographic Data Centre
#                                CCDC 
#
#######################################################################
#
# If this CIF has been generated from an entry in the Cambridge 
# Structural Database, then it will include bibliographic, chemical, 
# crystal, experimental, refinement or atomic coordinate data resulting 
# from the CCDC's data processing and validation procedures.
#
#######################################################################

data_SAJVUX
_chemical_formula_moiety         'C10 H13 N1 O1'
_chemical_name_systematic        
(2R,4R)-2-methyl-1,2,3,4-tetrahydroquinolin-4-ol
_symmetry_cell_setting           orthorhombic
_symmetry_space_group_name_H-M   'P 21 21 21'
_symmetry_Int_Tables_number      19
_space_group_name_Hall           'P 2ac 2ab'
loop_
_symmetry_equiv_pos_site_id
_symmetry_equiv_pos_as_xyz
1 x,y,z
2 1/2+x,1/2-y,-z
3 -x,1/2+y,1/2-z
4 1/2-x,-y,1/2+z
_cell_length_a                   5.98420(10)
_cell_length_b                   9.1040(2)
_cell_length_c                   16.0223(3)
_cell_angle_alpha                90
_cell_angle_beta                 90
_cell_angle_gamma                90
_cell_volume                     872.897
_exptl_crystal_colour            colorless
_exptl_crystal_description       chunk
_chemical_melting_point          '101.9-102.7 deg.C'
_cell_formula_units_Z            4
loop_
_atom_site_label
_atom_site_type_symbol
_atom_site_fract_x
_atom_site_fract_y
_atom_site_fract_z
O1 O 0.70334(18) 0.62928(11) 0.82889(7)
H1 H 0.6069 0.6925 0.8416
N1 N 0.9308(2) 0.28397(15) 0.76331(7)
H2 H 1.0135 0.2079 0.7494
C1 C 1.0835(3) 0.24456(18) 0.90171(10)
H3 H 0.9995 0.1529 0.9082
H4 H 1.1057 0.2898 0.9566
H5 H 1.2291 0.2235 0.8764
C2 C 0.9541(3) 0.34885(18) 0.84608(9)
H6 H 1.0386 0.4432 0.8412
C3 C 0.7811(3) 0.34060(17) 0.70701(8)
C4 C 0.6085(3) 0.43569(16) 0.73244(9)
C5 C 0.4506(3) 0.48234(17) 0.67424(11)
H7 H 0.3315 0.5439 0.6919
C6 C 0.4637(3) 0.44060(18) 0.59086(10)
H8 H 0.3554 0.4735 0.5518
C7 C 0.5981(3) 0.48688(16) 0.82199(9)
H9 H 0.4384 0.4945 0.8398
C8 C 0.7207(3) 0.38098(17) 0.87940(9)
H10 H 0.6352 0.2882 0.8837
H11 H 0.7320 0.4242 0.9359
C9 C 0.6383(3) 0.34971(19) 0.56567(10)
H12 H 0.6510 0.3224 0.5086
C10 C 0.7931(3) 0.29887(18) 0.62256(9)
H13 H 0.9090 0.2350 0.6045
loop_
_geom_bond_atom_site_label_1
_geom_bond_atom_site_label_2
_geom_bond_site_symmetry_1
_geom_bond_site_symmetry_2
O1 H1 1_555 1_555
N1 H2 1_555 1_555
C1 H3 1_555 1_555
H4 C1 1_555 1_555
H5 C1 1_555 1_555
C2 N1 1_555 1_555
H6 C2 1_555 1_555
C3 N1 1_555 1_555
C4 C3 1_555 1_555
C5 C4 1_555 1_555
H7 C5 1_555 1_555
C6 C5 1_555 1_555
H8 C6 1_555 1_555
C7 O1 1_555 1_555
H9 C7 1_555 1_555
C8 C2 1_555 1_555
H10 C8 1_555 1_555
H11 C8 1_555 1_555
C9 C6 1_555 1_555
H12 C9 1_555 1_555
C10 C3 1_555 1_555
H13 C10 1_555 1_555
C1 C2 1_555 1_555
C4 C7 1_555 1_555
C7 C8 1_555 1_555
C9 C10 1_555 1_555

#END
