
#######################################################################
#
#                 Cambridge Crystallographic Data Centre
#                                CCDC 
#
#######################################################################
#
# If this CIF has been generated from an entry in the Cambridge 
# Structural Database, then it will include bibliographic, chemical, 
# crystal, experimental, refinement or atomic coordinate data resulting 
# from the CCDC's data processing and validation procedures.
#
#######################################################################

data_SAJXIK
_chemical_formula_moiety         'C31 H52 N2 O9,0.5(C4 H10 O1)'
_chemical_name_systematic        
'2,3-Anhydro-6-O-methylerythromycin-10,11-carbamate diethylether solvate'
_chemical_properties_biological  
'antibacterial activity against Staphylococcus aureus, Streptococcus pyogenes, Streptococcus pneumoniae and Haemophilus influenzae'
_symmetry_cell_setting           monoclinic
_symmetry_space_group_name_H-M   'C 2'
_symmetry_Int_Tables_number      5
_space_group_name_Hall           'C 2y'
loop_
_symmetry_equiv_pos_site_id
_symmetry_equiv_pos_as_xyz
1 x,y,z
2 -x,y,-z
3 1/2+x,1/2+y,z
4 1/2-x,1/2+y,-z
_cell_length_a                   24.94(1)
_cell_length_b                   7.88(1)
_cell_length_c                   19.53(1)
_cell_angle_alpha                90
_cell_angle_beta                 110.33(4)
_cell_angle_gamma                90
_cell_volume                     3599.09
_cell_formula_units_Z            4
loop_
_atom_site_label
_atom_site_type_symbol
_atom_site_fract_x
_atom_site_fract_y
_atom_site_fract_z
O1 O 0.3701(5) 0.5542 1.3318(8)
O2 O 0.3572(7) 0.670(3) 1.2230(8)
O3 O 0.2064(5) 0.598(3) 1.1739(6)
O4 O 0.1439(7) 0.735(3) 1.2729(8)
O5 O 0.3319(7) 0.883(3) 1.4367(7)
O6 O 0.1450(5) 0.231(3) 1.0572(7)
O7 O 0.1026(5) 0.392(3) 0.9554(7)
O8 O 0.0999(6) -0.067(3) 0.9817(7)
O9 O 0.2844(8) 1.132(3) 1.4088(9)
N1 N 0.0100(7) -0.035(3) 0.8507(7)
N2 N 0.2568(8) 0.893(3) 1.3359(9)
C1 C 0.3533(10) 0.547(5) 1.258(1)
C2 C 0.3729(9) 0.724(3) 1.365(1)
C3 C 0.4356(8) 0.758(5) 1.4146(9)
C4 C 0.475(1) 0.780(4) 1.372(1)
C5 C 0.1662(9) 0.460(3) 1.147(1)
C6 C 0.1714(7) 0.353(3) 1.215(1)
C7 C 0.1421(8) 0.431(4) 1.264(1)
C8 C 0.1426(9) 0.302(4) 1.322(1)
C9 C 0.1674(10) 0.598(4) 1.295(1)
C10 C 0.3296(8) 0.379(3) 1.228(1)
C11 C 0.3417(8) 0.234(3) 1.279(1)
C12 C 0.2904(8) 0.395(4) 1.160(1)
C13 C 0.2455(9) 0.260(4) 1.1264(9)
C14 C 0.2622(7) 0.169(4) 1.0673(10)
C15 C 0.1876(9) 0.354(3) 1.094(1)
C16 C 0.2052(8) 0.678(4) 1.4239(9)
C17 C 0.2234(9) 0.606(4) 1.3634(10)
C18 C 0.2675(8) 0.714(4) 1.3458(9)
C19 C 0.3287(9) 0.718(3) 1.403(1)
C20 C 0.3436(9) 0.583(4) 1.463(1)
C21 C 0.0655(9) 0.580(4) 0.8546(9)
C22 C 0.0805(8) 0.400(4) 0.876(1)
C23 C 0.0331(8) 0.273(3) 0.8468(10)
C24 C 0.0515(8) 0.098(3) 0.876(1)
C25 C 0.0793(8) 0.095(4) 0.957(1)
C26 C -0.0054(7) -0.072(4) 0.7727(10)
C27 C 0.2020(8) 0.750(3) 1.132(1)
C28 C 0.1227(8) 0.222(4) 0.981(1)
C29 C 0.1076(8) 0.525(3) 1.1071(9)
C30 C -0.0429(9) -0.009(3) 0.8682(9)
C31 C 0.287(1) 0.984(5) 1.393(1)
H1 H 0.3617 0.8066 1.3269
H2 H 0.4366 0.8576 1.4421
H3 H 0.4487 0.6642 1.4468
H4 H 0.5132 0.7886 1.4047
H5 H 0.4714 0.6860 1.3405
H6 H 0.4649 0.8812 1.3437
H7 H 0.1547 0.2454 1.1996
H8 H 0.2108 0.3397 1.2430
H9 H 0.1033 0.4512 1.2351
H10 H 0.1199 0.3420 1.3493
H11 H 0.1275 0.1972 1.2996
H12 H 0.1808 0.2849 1.3546
H13 H 0.3257 0.2557 1.3161
H14 H 0.3252 0.1343 1.2534
H15 H 0.3818 0.2198 1.3012
H16 H 0.2913 0.4937 1.1320
H17 H 0.2442 0.1823 1.1628
H18 H 0.2349 0.0836 1.0452
H19 H 0.2633 0.2485 1.0312
H20 H 0.2989 0.1188 1.0888
H21 H 0.1909 0.4302 1.0576
H22 H 0.2376 0.6857 1.4675
H23 H 0.1892 0.7870 1.4103
H24 H 0.1776 0.6050 1.4319
H25 H 0.2381 0.4945 1.3761
H26 H 0.2703 0.6716 1.3017
H27 H 0.0981 0.6494 0.8759
H28 H 0.0531 0.5889 0.8029
H29 H 0.0356 0.6152 0.8709
H30 H 0.1106 0.3680 0.8597
H31 H 0.0016 0.3062 0.8605
H32 H 0.0217 0.2710 0.7950
H33 H 0.0811 0.0685 0.8575
H34 H 0.0507 0.1222 0.9769
H35 H -0.0282 0.0178 0.7450
H36 H 0.0284 -0.0824 0.7611
H37 H -0.0264 -0.1748 0.7616
H38 H 0.2296 0.8294 1.1600
H39 H 0.2087 0.7244 1.0884
H40 H 0.1648 0.7964 1.1208
H41 H 0.1528 0.1931 0.9639
H42 H 0.0945 0.5872 1.1399
H43 H 0.1084 0.5973 1.0685
H44 H 0.0826 0.4326 1.0876
H45 H -0.0328 0.0180 0.9185
H46 H -0.0644 0.0818 0.8395
H47 H -0.0651 -0.1095 0.8576
H48 H 0.3167 0.5874 1.4873
H49 H 0.3427 0.4743 1.4417
H50 H 0.3809 0.6043 1.4968
H51 H 0.2305 0.9413 1.2928
O10 O 0.5000 0.181(9) 1.5000
C32 C 0.528(4) 0.22(1) 1.465(5)
C33 C 0.542(2) 0.256(7) 1.423(2)
H52 H 0.5424 0.3200 1.4935
H53 H 0.5541 0.1310 1.4818
H54 H 0.5468 0.1574 1.3982
H55 H 0.5151 0.3294 1.3904
H56 H 0.5778 0.3129 1.4433
C32A C 0.472(4) 0.22(1) 1.535(5)
C33A C 0.458(2) 0.256(7) 1.577(2)
H54A H 0.4532 0.1574 1.6018
H55A H 0.4849 0.3294 1.6096
H56A H 0.4222 0.3129 1.5567
H52A H 0.4576 0.3200 1.5065
H53A H 0.4459 0.1310 1.5182
loop_
_geom_bond_atom_site_label_1
_geom_bond_atom_site_label_2
_geom_bond_site_symmetry_1
_geom_bond_site_symmetry_2
O1 C1 1_555 1_555
O2 C1 1_555 1_555
O3 C5 1_555 1_555
O4 C9 1_555 1_555
O5 C19 1_555 1_555
O6 C15 1_555 1_555
O7 C22 1_555 1_555
O8 C25 1_555 1_555
O9 C31 1_555 1_555
O10 C32 1_555 1_555
N1 C24 1_555 1_555
N2 C18 1_555 1_555
C1 C10 1_555 1_555
C2 O1 1_555 1_555
C3 C2 1_555 1_555
C4 C3 1_555 1_555
C5 C6 1_555 1_555
C6 C7 1_555 1_555
C7 C8 1_555 1_555
C8 H10 1_555 1_555
C9 C7 1_555 1_555
C10 C11 1_555 1_555
C11 H13 1_555 1_555
C12 C10 1_555 1_555
C13 C12 1_555 1_555
C14 C13 1_555 1_555
C15 C5 1_555 1_555
C16 C17 1_555 1_555
C17 C9 1_555 1_555
C18 C17 1_555 1_555
C19 C2 1_555 1_555
C20 C19 1_555 1_555
C21 C22 1_555 1_555
C22 C23 1_555 1_555
C23 C24 1_555 1_555
C24 C25 1_555 1_555
C25 C28 1_555 1_555
C26 N1 1_555 1_555
C27 O3 1_555 1_555
C28 O6 1_555 1_555
C29 C5 1_555 1_555
C30 N1 1_555 1_555
C31 O5 1_555 1_555
C32 C33 1_555 1_555
C33 H54 1_555 1_555
H1 C2 1_555 1_555
H2 C3 1_555 1_555
H3 C3 1_555 1_555
H4 C4 1_555 1_555
H5 C4 1_555 1_555
H6 C4 1_555 1_555
H7 C6 1_555 1_555
H8 C6 1_555 1_555
H9 C7 1_555 1_555
H11 C8 1_555 1_555
H12 C8 1_555 1_555
H14 C11 1_555 1_555
H15 C11 1_555 1_555
H16 C12 1_555 1_555
H17 C13 1_555 1_555
H18 C14 1_555 1_555
H19 C14 1_555 1_555
H20 C14 1_555 1_555
H21 C15 1_555 1_555
H22 C16 1_555 1_555
H23 C16 1_555 1_555
H24 C16 1_555 1_555
H25 C17 1_555 1_555
H26 C18 1_555 1_555
H27 C21 1_555 1_555
H28 C21 1_555 1_555
H29 C21 1_555 1_555
H30 C22 1_555 1_555
H31 C23 1_555 1_555
H32 C23 1_555 1_555
H33 C24 1_555 1_555
H34 C25 1_555 1_555
H35 C26 1_555 1_555
H36 C26 1_555 1_555
H37 C26 1_555 1_555
H38 C27 1_555 1_555
H39 C27 1_555 1_555
H40 C27 1_555 1_555
H41 C28 1_555 1_555
H42 C29 1_555 1_555
H43 C29 1_555 1_555
H44 C29 1_555 1_555
H45 C30 1_555 1_555
H46 C30 1_555 1_555
H47 C30 1_555 1_555
H48 C20 1_555 1_555
H49 C20 1_555 1_555
H50 C20 1_555 1_555
H51 N2 1_555 1_555
H52 C32 1_555 1_555
H53 C32 1_555 1_555
H55 C33 1_555 1_555
H56 C33 1_555 1_555
C32A O10 1_555 1_555
C33A C32A 1_555 1_555
H54A C33A 1_555 1_555
H55A C33A 1_555 1_555
H56A C33A 1_555 1_555
H52A C32A 1_555 1_555
H53A C32A 1_555 1_555
O7 C28 1_555 1_555
N2 C31 1_555 1_555
C13 C15 1_555 1_555
C18 C19 1_555 1_555

#END
