
#######################################################################
#
#                 Cambridge Crystallographic Data Centre
#                                CCDC 
#
#######################################################################
#
# If this CIF has been generated from an entry in the Cambridge 
# Structural Database, then it will include bibliographic, chemical, 
# crystal, experimental, refinement or atomic coordinate data resulting 
# from the CCDC's data processing and validation procedures.
#
#######################################################################

data_SAJYUA
_chemical_formula_moiety         'C51 H43 B1 N2,0.5(C4 H8 O1)'
_chemical_name_systematic        
"1-(4'-(dimesitylboryl)biphenyl-4-yl)-2-phenyl-1H-phenanthro[9,10-d]imidazole tetrahydrofuran solvate"
_symmetry_cell_setting           monoclinic
_symmetry_space_group_name_H-M   'P 21/n'
_symmetry_Int_Tables_number      14
_space_group_name_Hall           '-P 2yn'
loop_
_symmetry_equiv_pos_site_id
_symmetry_equiv_pos_as_xyz
1 x,y,z
2 1/2-x,1/2+y,1/2-z
3 -x,-y,-z
4 1/2+x,1/2-y,1/2+z
_cell_length_a                   10.8270(2)
_cell_length_b                   11.8600(2)
_cell_length_c                   34.3648(7)
_cell_angle_alpha                90
_cell_angle_beta                 94.6387(13)
_cell_angle_gamma                90
_cell_volume                     4398.27
_exptl_crystal_colour            colorless
_exptl_crystal_description       needle
_cell_formula_units_Z            4
loop_
_atom_site_label
_atom_site_type_symbol
_atom_site_fract_x
_atom_site_fract_y
_atom_site_fract_z
B1 B 0.5374(4) 0.8528(3) 0.73531(12)
C1 C 0.6973(4) 0.9650(4) 0.69742(12)
C2 C 0.6296(4) 0.8649(3) 0.70242(11)
C3 C 0.6442(4) 0.7763(4) 0.67559(11)
C4 C 0.7235(4) 0.7885(5) 0.64629(13)
H1 H 0.7334 0.7279 0.6296
C5 C 0.7726(4) 0.9734(5) 0.66653(14)
H2 H 0.8143 1.0408 0.6631
C6 C 0.6841(5) 1.0688(4) 0.72262(14)
H3 H 0.7474 1.0683 0.7438
H4 H 0.6041 1.0684 0.7328
H5 H 0.6922 1.1354 0.7071
C7 C 0.7883(4) 0.8860(5) 0.64067(13)
C8 C 0.5755(5) 0.6670(4) 0.67735(14)
H6 H 0.5880 0.6362 0.7032
H7 H 0.6059 0.6149 0.6590
H8 H 0.4887 0.6799 0.6710
C9 C 0.8714(5) 0.8986(6) 0.60760(15)
H9 H 0.8832 0.9771 0.6023
H10 H 0.8336 0.8624 0.5846
H11 H 0.9501 0.8641 0.6148
C10 C 0.3186(4) 0.8807(3) 0.69960(10)
C11 C 0.3456(4) 0.7253(3) 0.74435(10)
C12 C 0.1940(4) 0.8538(3) 0.69395(11)
H12 H 0.1426 0.8985 0.6773
C13 C 0.3971(3) 0.8184(3) 0.72573(10)
C14 C 0.2218(4) 0.6994(3) 0.73639(11)
H13 H 0.1906 0.6359 0.7481
C15 C 0.1429(4) 0.7624(4) 0.71222(12)
C16 C 0.3646(4) 0.9806(4) 0.67699(12)
H14 H 0.4122 1.0298 0.6946
H15 H 0.2949 1.0210 0.6648
H16 H 0.4155 0.9539 0.6573
C17 C 0.4222(4) 0.6486(4) 0.77205(12)
H17 H 0.4127 0.6710 0.7985
H18 H 0.5079 0.6539 0.7670
H19 H 0.3946 0.5721 0.7683
C18 C 0.0059(4) 0.7357(5) 0.70494(15)
H20 H -0.0114 0.6649 0.7169
H21 H -0.0159 0.7312 0.6773
H22 H -0.0417 0.7941 0.7160
C19 C 0.6571(4) 0.9408(3) 0.85712(10)
C20 C 0.6984(4) 0.9798(3) 0.89692(11)
C21 C 0.6713(4) 1.1019(4) 0.95235(11)
H23 H 0.6245 1.1551 0.9646
C22 C 0.7806(4) 1.0642(4) 0.97018(11)
C23 C 0.5809(4) 0.8795(3) 0.77855(11)
C24 C 0.5332(4) 0.9424(3) 0.84317(11)
H24 H 0.4734 0.9644 0.8596
C25 C 0.6307(4) 1.0604(4) 0.91591(11)
H25 H 0.5564 1.0868 0.9037
C26 C 0.7045(4) 0.8768(3) 0.79315(11)
H26 H 0.7640 0.8552 0.7766
C27 C 0.7425(4) 0.9050(3) 0.83132(11)
H27 H 0.8260 0.9001 0.8399
C28 C 0.4976(4) 0.9117(3) 0.80512(11)
H28 H 0.4136 0.9127 0.7969
C29 C 0.8076(4) 0.9418(4) 0.91655(12)
H29 H 0.8539 0.8870 0.9050
C30 C 0.8488(4) 0.9829(4) 0.95262(12)
H30 H 0.9224 0.9562 0.9652
C31 C 0.8198(4) 1.0306(3) 1.12571(11)
C32 C 0.8129(4) 1.0660(3) 1.04494(10)
C33 C 0.8636(4) 1.1465(3) 1.07011(10)
C34 C 0.7615(4) 0.9611(3) 1.05742(12)
C35 C 0.9181(4) 1.2132(4) 1.13765(11)
H31 H 0.9511 1.2792 1.1282
C36 C 0.8691(4) 1.1314(3) 1.11160(10)
C37 C 0.7684(4) 0.9447(3) 1.09857(11)
C38 C 0.8228(4) 1.0180(4) 1.16670(12)
H32 H 0.7921 0.9523 1.1771
C39 C 0.9180(4) 1.1968(4) 1.17679(12)
H33 H 0.9510 1.2516 1.1940
C40 C 0.7235(4) 0.8422(4) 1.11175(15)
H34 H 0.7275 0.8289 1.1385
C41 C 0.8693(5) 1.0994(4) 1.19109(12)
H35 H 0.8685 1.0895 1.2179
C42 C 0.7068(4) 0.8781(4) 1.03245(14)
H36 H 0.6991 0.8903 1.0056
C43 C 0.6647(5) 0.7792(4) 1.04741(17)
H37 H 0.6297 0.7243 1.0306
C44 C 0.6739(5) 0.7609(4) 1.08700(18)
H38 H 0.6465 0.6933 1.0969
C45 C 0.8810(4) 1.2153(4) 1.01331(11)
C46 C 0.9089(4) 1.2924(4) 0.98187(12)
C47 C 1.0057(6) 1.3364(7) 0.92338(17)
H39 H 1.0505 1.3134 0.9028
C48 C 0.8720(6) 1.4026(5) 0.98451(15)
H40 H 0.8264 1.4252 1.0049
C49 C 0.9747(5) 1.2599(5) 0.95096(14)
H41 H 0.9985 1.1850 0.9488
C50 C 0.9033(7) 1.4815(6) 0.9562(2)
H42 H 0.8789 1.5564 0.9578
C51 C 0.9704(7) 1.4459(8) 0.92626(19)
H43 H 0.9921 1.4976 0.9076
N1 N 0.8256(3) 1.1108(3) 1.00767(8)
N2 N 0.9057(3) 1.2378(3) 1.05075(9)
C52 C 0.6415(13) 0.4064(11) 0.0760(6)
H44 H 0.7287 0.3884 0.0753
H45 H 0.6336 0.4866 0.0806
C53 C 0.5989(18) 0.355(3) 0.1004(6)
H46 H 0.5489 0.4034 0.1157
H47 H 0.6634 0.3207 0.1177
C54 C 0.488(3) 0.328(3) 0.0418(8)
H48 H 0.4755 0.2746 0.0205
H49 H 0.4165 0.3766 0.0427
O1 O 0.5759(13) 0.376(3) 0.0410(6)
C55 C 0.5251(18) 0.2724(12) 0.0803(8)
H50 H 0.4530 0.2543 0.0941
H51 H 0.5721 0.2040 0.0768
loop_
_geom_bond_atom_site_label_1
_geom_bond_atom_site_label_2
_geom_bond_site_symmetry_1
_geom_bond_site_symmetry_2
B1 C2 1_555 1_555
C1 C2 1_555 1_555
C2 C3 1_555 1_555
C3 C4 1_555 1_555
C4 H1 1_555 1_555
C5 C1 1_555 1_555
H2 C5 1_555 1_555
C6 C1 1_555 1_555
H3 C6 1_555 1_555
H4 C6 1_555 1_555
H5 C6 1_555 1_555
C7 C4 1_555 1_555
C8 C3 1_555 1_555
H6 C8 1_555 1_555
H7 C8 1_555 1_555
H8 C8 1_555 1_555
C9 C7 1_555 1_555
H9 C9 1_555 1_555
H10 C9 1_555 1_555
H11 C9 1_555 1_555
C10 C12 1_555 1_555
C11 C13 1_555 1_555
C12 H12 1_555 1_555
C13 B1 1_555 1_555
C14 C11 1_555 1_555
H13 C14 1_555 1_555
C15 C12 1_555 1_555
C16 C10 1_555 1_555
H14 C16 1_555 1_555
H15 C16 1_555 1_555
H16 C16 1_555 1_555
C17 C11 1_555 1_555
H17 C17 1_555 1_555
H18 C17 1_555 1_555
H19 C17 1_555 1_555
C18 C15 1_555 1_555
H20 C18 1_555 1_555
H21 C18 1_555 1_555
H22 C18 1_555 1_555
C19 C20 1_555 1_555
C20 C25 1_555 1_555
C21 H23 1_555 1_555
C22 C21 1_555 1_555
C23 B1 1_555 1_555
C24 C19 1_555 1_555
H24 C24 1_555 1_555
C25 C21 1_555 1_555
H25 C25 1_555 1_555
C26 C23 1_555 1_555
H26 C26 1_555 1_555
C27 C19 1_555 1_555
H27 C27 1_555 1_555
C28 C23 1_555 1_555
H28 C28 1_555 1_555
C29 C20 1_555 1_555
H29 C29 1_555 1_555
C30 C22 1_555 1_555
H30 C30 1_555 1_555
C31 C36 1_555 1_555
C32 C33 1_555 1_555
C33 C36 1_555 1_555
C34 C32 1_555 1_555
C35 H31 1_555 1_555
C36 C35 1_555 1_555
C37 C31 1_555 1_555
C38 C31 1_555 1_555
H32 C38 1_555 1_555
C39 C35 1_555 1_555
H33 C39 1_555 1_555
C40 C37 1_555 1_555
H34 C40 1_555 1_555
C41 C38 1_555 1_555
H35 C41 1_555 1_555
C42 C34 1_555 1_555
H36 C42 1_555 1_555
C43 C42 1_555 1_555
H37 C43 1_555 1_555
C44 C40 1_555 1_555
H38 C44 1_555 1_555
C45 C46 1_555 1_555
C46 C48 1_555 1_555
C47 H39 1_555 1_555
C48 H40 1_555 1_555
C49 C46 1_555 1_555
H41 C49 1_555 1_555
C50 C48 1_555 1_555
H42 C50 1_555 1_555
C51 C47 1_555 1_555
H43 C51 1_555 1_555
N1 C22 1_555 1_555
N2 C33 1_555 1_555
C52 H44 1_555 1_555
H45 C52 1_555 1_555
C53 C52 1_555 1_555
H46 C53 1_555 1_555
H47 C53 1_555 1_555
C54 H48 1_555 1_555
H49 C54 1_555 1_555
O1 C52 1_555 1_555
C55 C53 1_555 1_555
H50 C55 1_555 1_555
H51 C55 1_555 1_555
C5 C7 1_555 1_555
C10 C13 1_555 1_555
C14 C15 1_555 1_555
C24 C28 1_555 1_555
C26 C27 1_555 1_555
C29 C30 1_555 1_555
C32 N1 1_555 1_555
C34 C37 1_555 1_555
C39 C41 1_555 1_555
C43 C44 1_555 1_555
C45 N1 1_555 1_555
C45 N2 1_555 1_555
C47 C49 1_555 1_555
C50 C51 1_555 1_555
C54 O1 1_555 1_555
C54 C55 1_555 1_555

#END
