
#######################################################################
#
#                 Cambridge Crystallographic Data Centre
#                                CCDC 
#
#######################################################################
#
# If this CIF has been generated from an entry in the Cambridge 
# Structural Database, then it will include bibliographic, chemical, 
# crystal, experimental, refinement or atomic coordinate data resulting 
# from the CCDC's data processing and validation procedures.
#
#######################################################################

data_SAJZAH
_chemical_formula_moiety         'C45 H39 B1 N2'
_chemical_name_systematic        
1-(4-(dimesitylboryl)phenyl)-2-phenyl-1H-phenanthro[9,10-d]imidazole
_symmetry_cell_setting           triclinic
_symmetry_space_group_name_H-M   'P -1'
_symmetry_Int_Tables_number      2
_space_group_name_Hall           '-P 1'
loop_
_symmetry_equiv_pos_site_id
_symmetry_equiv_pos_as_xyz
1 x,y,z
2 -x,-y,-z
_cell_length_a                   8.6872(2)
_cell_length_b                   13.4379(3)
_cell_length_c                   17.4444(4)
_cell_angle_alpha                84.593(2)
_cell_angle_beta                 83.569(2)
_cell_angle_gamma                84.507(2)
_cell_volume                     2007.12
_exptl_crystal_colour            colorless
_exptl_crystal_description       platy
_cell_formula_units_Z            2
loop_
_atom_site_label
_atom_site_type_symbol
_atom_site_fract_x
_atom_site_fract_y
_atom_site_fract_z
N1 N 0.21190(18) 0.99588(11) 0.55336(9)
N2 N 0.26870(18) 1.03956(12) 0.42694(9)
C1 C 0.2059(3) 1.42291(18) 0.37083(17)
H1 H 0.2024 1.4894 0.3503
C2 C 0.2454(3) 1.34742(18) 0.32237(15)
H2 H 0.2688 1.3626 0.2695
C3 C 0.2499(2) 1.24965(16) 0.35283(13)
H3 H 0.2751 1.1983 0.3202
C4 C 0.2172(2) 1.22595(14) 0.43217(12)
C5 C 0.2245(2) 1.12393(14) 0.46628(12)
C6 C 0.1891(2) 1.10044(13) 0.54368(12)
C7 C 0.2095(2) 0.93075(13) 0.62412(11)
C8 C 0.3487(2) 0.88712(14) 0.64722(12)
H4 H 0.4425 0.9037 0.6202
C9 C 0.3464(2) 0.81836(15) 0.71119(12)
H5 H 0.4401 0.7869 0.7256
C10 C 0.2090(2) 0.79447(14) 0.75477(11)
C11 C 0.3403(2) 0.62410(14) 0.82176(12)
C12 C 0.3625(3) 0.56062(16) 0.76082(13)
C13 C 0.4712(3) 0.47850(17) 0.76321(15)
H6 H 0.4814 0.4361 0.7234
C14 C 0.5655(3) 0.45705(17) 0.82266(17)
C15 C 0.6827(3) 0.36555(19) 0.82303(19)
H7 H 0.7597 0.3734 0.8569
H8 H 0.7322 0.3588 0.7715
H9 H 0.6303 0.3067 0.8409
C16 C 0.2608(2) 0.96393(14) 0.48065(12)
C17 C 0.0707(2) 0.84392(15) 0.73112(12)
H10 H -0.0229 0.8318 0.7604
C18 C 0.0695(2) 0.90994(14) 0.66575(12)
H11 H -0.0239 0.9400 0.6499
C19 C 0.5480(3) 0.52141(17) 0.88042(15)
H12 H 0.6125 0.5098 0.9200
C20 C 0.4373(3) 0.60305(15) 0.88174(13)
C21 C 0.4289(3) 0.66960(18) 0.94677(15)
H13 H 0.5018 0.6426 0.9824
H14 H 0.3257 0.6731 0.9732
H15 H 0.4538 0.7356 0.9263
C22 C 0.2696(4) 0.57845(19) 0.69145(14)
H16 H 0.3151 0.6280 0.6548
H17 H 0.1643 0.6017 0.7081
H18 H 0.2707 0.5169 0.6675
C23 C 0.0787(2) 0.71906(16) 0.89413(12)
C24 C -0.0155(3) 0.63962(17) 0.91645(13)
C25 C -0.0034(3) 0.54767(18) 0.87144(16)
H19 H -0.0634 0.4975 0.9001
H20 H 0.1035 0.5216 0.8635
H21 H -0.0425 0.5656 0.8222
C26 C -0.1262(3) 0.6449(2) 0.97929(16)
H22 H -0.1877 0.5916 0.9924
C27 C -0.1496(3) 0.7250(3) 1.02329(15)
C28 C -0.2729(4) 0.7300(3) 1.09230(17)
H23 H -0.3743 0.7352 1.0745
H24 H -0.2622 0.7877 1.1192
H25 H -0.2600 0.6704 1.1267
C29 C -0.0585(3) 0.8041(2) 1.00178(15)
H26 H -0.0722 0.8597 1.0306
C30 C 0.0535(3) 0.80253(18) 0.93767(14)
C31 C 0.1482(3) 0.89343(18) 0.91896(16)
H27 H 0.1058 0.9366 0.8780
H28 H 0.2543 0.8713 0.9029
H29 H 0.1440 0.9295 0.9642
C32 C 0.1462(2) 1.17491(14) 0.59777(13)
C33 C 0.1138(3) 1.15391(17) 0.67791(14)
H30 H 0.1180 1.0876 0.6990
C34 C 0.0759(3) 1.23024(19) 0.72565(15)
H31 H 0.0550 1.2155 0.7788
C35 C 0.0688(3) 1.32856(19) 0.69478(18)
H32 H 0.0421 1.3801 0.7271
C36 C 0.1006(3) 1.35047(17) 0.61767(16)
H33 H 0.0957 1.4174 0.5982
C37 C 0.1406(2) 1.27634(15) 0.56595(13)
C38 C 0.1759(2) 1.30193(14) 0.48296(13)
C39 C 0.1718(3) 1.40171(16) 0.44871(16)
H34 H 0.1451 1.4543 0.4800
C40 C 0.3012(2) 0.85829(14) 0.46534(11)
C41 C 0.4276(3) 0.83575(16) 0.41278(13)
H35 H 0.4846 0.8871 0.3884
C42 C 0.4708(3) 0.73856(19) 0.39590(15)
H36 H 0.5563 0.7243 0.3604
C43 C 0.3865(3) 0.66211(18) 0.43195(16)
H37 H 0.4163 0.5960 0.4216
C44 C 0.2591(3) 0.68405(16) 0.48282(14)
H38 H 0.2008 0.6327 0.5060
C45 C 0.2160(3) 0.78116(15) 0.50009(13)
H39 H 0.1296 0.7951 0.5352
B1 B 0.2090(3) 0.71295(17) 0.82437(14)
loop_
_geom_bond_atom_site_label_1
_geom_bond_atom_site_label_2
_geom_bond_site_symmetry_1
_geom_bond_site_symmetry_2
N1 C6 1_555 1_555
N2 C5 1_555 1_555
C1 H1 1_555 1_555
C2 C1 1_555 1_555
H2 C2 1_555 1_555
C3 C2 1_555 1_555
H3 C3 1_555 1_555
C4 C3 1_555 1_555
C5 C4 1_555 1_555
C6 C5 1_555 1_555
C7 N1 1_555 1_555
C8 C7 1_555 1_555
H4 C8 1_555 1_555
C9 C8 1_555 1_555
H5 C9 1_555 1_555
C10 C9 1_555 1_555
C11 C12 1_555 1_555
C12 C13 1_555 1_555
C13 H6 1_555 1_555
C14 C13 1_555 1_555
C15 C14 1_555 1_555
H7 C15 1_555 1_555
H8 C15 1_555 1_555
H9 C15 1_555 1_555
C16 N1 1_555 1_555
C17 C10 1_555 1_555
H10 C17 1_555 1_555
C18 C7 1_555 1_555
H11 C18 1_555 1_555
C19 C14 1_555 1_555
H12 C19 1_555 1_555
C20 C11 1_555 1_555
C21 C20 1_555 1_555
H13 C21 1_555 1_555
H14 C21 1_555 1_555
H15 C21 1_555 1_555
C22 C12 1_555 1_555
H16 C22 1_555 1_555
H17 C22 1_555 1_555
H18 C22 1_555 1_555
C23 C24 1_555 1_555
C24 C25 1_555 1_555
C25 H19 1_555 1_555
H20 C25 1_555 1_555
H21 C25 1_555 1_555
C26 C24 1_555 1_555
H22 C26 1_555 1_555
C27 C26 1_555 1_555
C28 C27 1_555 1_555
H23 C28 1_555 1_555
H24 C28 1_555 1_555
H25 C28 1_555 1_555
C29 C27 1_555 1_555
H26 C29 1_555 1_555
C30 C23 1_555 1_555
C31 C30 1_555 1_555
H27 C31 1_555 1_555
H28 C31 1_555 1_555
H29 C31 1_555 1_555
C32 C6 1_555 1_555
C33 C32 1_555 1_555
H30 C33 1_555 1_555
C34 C33 1_555 1_555
H31 C34 1_555 1_555
C35 C34 1_555 1_555
H32 C35 1_555 1_555
C36 C35 1_555 1_555
H33 C36 1_555 1_555
C37 C32 1_555 1_555
C38 C4 1_555 1_555
C39 C1 1_555 1_555
H34 C39 1_555 1_555
C40 C16 1_555 1_555
C41 C40 1_555 1_555
H35 C41 1_555 1_555
C42 C41 1_555 1_555
H36 C42 1_555 1_555
C43 C42 1_555 1_555
H37 C43 1_555 1_555
C44 C43 1_555 1_555
H38 C44 1_555 1_555
C45 C40 1_555 1_555
H39 C45 1_555 1_555
B1 C10 1_555 1_555
N2 C16 1_555 1_555
C11 B1 1_555 1_555
C17 C18 1_555 1_555
C19 C20 1_555 1_555
C23 B1 1_555 1_555
C29 C30 1_555 1_555
C36 C37 1_555 1_555
C37 C38 1_555 1_555
C38 C39 1_555 1_555
C44 C45 1_555 1_555

#END
