
#######################################################################
#
#                 Cambridge Crystallographic Data Centre
#                                CCDC 
#
#######################################################################
#
# If this CIF has been generated from an entry in the Cambridge 
# Structural Database, then it will include bibliographic, chemical, 
# crystal, experimental, refinement or atomic coordinate data resulting 
# from the CCDC's data processing and validation procedures.
#
#######################################################################

data_SAKCEP
_chemical_formula_moiety         'C25 H21 N1 O1'
_chemical_name_systematic        
4-((3-methyl-2,3-dihydro-1-benzofuran-3-yl)methyl)-3-phenylisoquinoline
_symmetry_cell_setting           monoclinic
_symmetry_space_group_name_H-M   'P 21'
_symmetry_Int_Tables_number      4
_space_group_name_Hall           'P 2yb'
loop_
_symmetry_equiv_pos_site_id
_symmetry_equiv_pos_as_xyz
1 x,y,z
2 -x,1/2+y,-z
_cell_length_a                   7.1675(4)
_cell_length_b                   13.1365(8)
_cell_length_c                   10.0074(6)
_cell_angle_alpha                90
_cell_angle_beta                 101.0748(19)
_cell_angle_gamma                90
_cell_volume                     924.708
_exptl_crystal_description       block
_cell_formula_units_Z            2
loop_
_atom_site_label
_atom_site_type_symbol
_atom_site_fract_x
_atom_site_fract_y
_atom_site_fract_z
N1 N 0.8018(4) 0.0186(2) 0.9705(3)
C1 C 0.4273(4) 0.0461(3) 0.6471(3)
H1 H 0.4541 -0.0193 0.6099
H2 H 0.4258 0.0967 0.5763
C2 C 0.0377(5) -0.0539(4) 0.4720(4)
H3 H 0.1074 -0.1137 0.4897
C3 C -0.0292(6) 0.1137(3) 0.5299(4)
C4 C 0.0771(4) 0.0279(3) 0.5570(3)
C5 C 0.2252(4) 0.0416(3) 0.6841(3)
C6 C -0.1751(6) 0.1228(4) 0.4188(5)
H4 H -0.2460 0.1823 0.4025
O1 O 0.0271(4) 0.1894(2) 0.6216(3)
C7 C -0.1085(6) -0.0464(4) 0.3581(4)
H5 H -0.1356 -0.1013 0.2989
C8 C -0.2115(6) 0.0408(4) 0.3335(4)
H6 H -0.3085 0.0448 0.2572
C9 C 0.1583(6) 0.1451(3) 0.7330(4)
H7 H 0.0967 0.1348 0.8102
H8 H 0.2663 0.1900 0.7609
C10 C 0.6414(4) 0.1756(3) 0.7945(3)
C11 C 0.7756(5) 0.1967(3) 0.9135(4)
C12 C 0.5864(4) 0.0715(3) 0.7645(3)
C13 C 0.6807(5) -0.0022(3) 0.8504(3)
C14 C 0.8414(5) 0.1137(3) 0.9991(4)
H9 H 0.9193 0.1281 1.0825
C15 C 0.8431(6) 0.2964(3) 0.9432(4)
H10 H 0.9323 0.3091 1.0221
C16 C 0.5756(6) 0.2596(3) 0.7093(4)
H11 H 0.4849 0.2493 0.6306
C17 C 0.6433(6) 0.3552(3) 0.7409(5)
H12 H 0.5980 0.4090 0.6835
C18 C 0.7787(7) 0.3736(3) 0.8574(5)
H13 H 0.8253 0.4392 0.8764
C19 C 0.6694(5) -0.1135(3) 0.8189(4)
C20 C 0.7201(5) -0.1488(3) 0.7004(4)
H14 H 0.7495 -0.1027 0.6370
C21 C 0.6267(6) -0.1842(3) 0.9108(4)
H15 H 0.5955 -0.1620 0.9920
C22 C 0.6293(7) -0.2864(4) 0.8844(6)
H16 H 0.5963 -0.3328 0.9461
C23 C 0.7271(6) -0.2516(4) 0.6756(5)
H17 H 0.7637 -0.2744 0.5965
C24 C 0.6808(7) -0.3208(4) 0.7665(7)
H18 H 0.6842 -0.3902 0.7487
C25 C 0.2146(5) -0.0393(4) 0.7898(4)
H19 H 0.0885 -0.0411 0.8091
H20 H 0.3040 -0.0239 0.8717
H21 H 0.2446 -0.1044 0.7558
loop_
_geom_bond_atom_site_label_1
_geom_bond_atom_site_label_2
_geom_bond_site_symmetry_1
_geom_bond_site_symmetry_2
N1 C13 1_555 1_555
C1 H1 1_555 1_555
H2 C1 1_555 1_555
C2 H3 1_555 1_555
C3 C4 1_555 1_555
C4 C2 1_555 1_555
C5 C1 1_555 1_555
C6 C3 1_555 1_555
H4 C6 1_555 1_555
O1 C3 1_555 1_555
C7 C2 1_555 1_555
H5 C7 1_555 1_555
C8 C6 1_555 1_555
H6 C8 1_555 1_555
C9 C5 1_555 1_555
H7 C9 1_555 1_555
H8 C9 1_555 1_555
C10 C11 1_555 1_555
C11 C14 1_555 1_555
C12 C1 1_555 1_555
C13 C12 1_555 1_555
C14 N1 1_555 1_555
H9 C14 1_555 1_555
C15 C11 1_555 1_555
H10 C15 1_555 1_555
C16 C10 1_555 1_555
H11 C16 1_555 1_555
C17 C16 1_555 1_555
H12 C17 1_555 1_555
C18 C15 1_555 1_555
H13 C18 1_555 1_555
C19 C13 1_555 1_555
C20 C19 1_555 1_555
H14 C20 1_555 1_555
C21 C19 1_555 1_555
H15 C21 1_555 1_555
C22 C21 1_555 1_555
H16 C22 1_555 1_555
C23 C20 1_555 1_555
H17 C23 1_555 1_555
C24 C22 1_555 1_555
H18 C24 1_555 1_555
C25 C5 1_555 1_555
H19 C25 1_555 1_555
H20 C25 1_555 1_555
H21 C25 1_555 1_555
C4 C5 1_555 1_555
O1 C9 1_555 1_555
C7 C8 1_555 1_555
C10 C12 1_555 1_555
C17 C18 1_555 1_555
C23 C24 1_555 1_555

#END
