
#######################################################################
#
#                 Cambridge Crystallographic Data Centre
#                                CCDC 
#
#######################################################################
#
# If this CIF has been generated from an entry in the Cambridge 
# Structural Database, then it will include bibliographic, chemical, 
# crystal, experimental, refinement or atomic coordinate data resulting 
# from the CCDC's data processing and validation procedures.
#
#######################################################################

data_SAKGUJ
_chemical_formula_moiety         'C24 H24 O3 S1'
_chemical_name_systematic        
2-methyl-4-((4-methylphenyl)sulfonyl)-2,5-diphenyltetrahydrofuran
_symmetry_cell_setting           monoclinic
_symmetry_space_group_name_H-M   'P 21/c'
_symmetry_Int_Tables_number      14
_space_group_name_Hall           '-P 2ybc'
loop_
_symmetry_equiv_pos_site_id
_symmetry_equiv_pos_as_xyz
1 x,y,z
2 -x,1/2+y,1/2-z
3 -x,-y,-z
4 x,1/2-y,1/2+z
_cell_length_a                   13.9520(8)
_cell_length_b                   14.5100(7)
_cell_length_c                   11.1921(6)
_cell_angle_alpha                90
_cell_angle_beta                 112.282(2)
_cell_angle_gamma                90
_cell_volume                     2096.58
_exptl_crystal_colour            colorless
_cell_formula_units_Z            4
loop_
_atom_site_label
_atom_site_type_symbol
_atom_site_fract_x
_atom_site_fract_y
_atom_site_fract_z
S1 S 0.60322(4) 0.21427(4) 1.05217(5)
O1 O 0.65744(14) 0.19764(11) 1.18716(15)
O2 O 0.49572(12) 0.18934(12) 0.9952(2)
O3 O 0.81444(10) 0.07586(10) 1.09236(14)
C1 C 0.8351(2) -0.18392(17) 0.8080(3)
H1 H 0.8557 -0.2252 0.7588
C2 C 0.7416(2) -0.19504(17) 0.8196(3)
H2 H 0.6980 -0.2430 0.7763
C3 C 0.7116(2) -0.13524(16) 0.8953(3)
H3 H 0.6483 -0.1437 0.9035
C4 C 0.77528(15) -0.06268(14) 0.9590(2)
C5 C 0.74127(16) 0.00228(15) 1.0413(2)
C6 C 0.63921(17) 0.05128(17) 0.9582(3)
H4 H 0.6138 0.0279 0.8704
H5 H 0.5867 0.0410 0.9938
C7 C 0.66397(15) 0.15309(15) 0.9601(2)
H6 H 0.6360 0.1763 0.8712
C8 C 0.61318(15) 0.33153(14) 1.02138(19)
C9 C 0.56213(18) 0.36601(18) 0.8984(2)
H7 H 0.5214 0.3278 0.8318
C10 C 0.5727(2) 0.4580(2) 0.8766(3)
H8 H 0.5390 0.4814 0.7937
C11 C 0.6311(2) 0.51645(18) 0.9724(3)
C12 C 0.6438(3) 0.6165(2) 0.9443(4)
H9 H 0.7138 0.6272 0.9520
H10 H 0.6285 0.6547 1.0047
H11 H 0.5972 0.6311 0.8581
C13 C 0.78313(14) 0.15292(14) 1.00872(19)
H12 H 0.8014 0.1397 0.9341
C14 C 0.7347(2) -0.0470(2) 1.1584(3)
H13 H 0.8020 -0.0698 1.2117
H14 H 0.6870 -0.0975 1.1299
H15 H 0.7111 -0.0046 1.2071
C15 C 0.8988(2) -0.11168(17) 0.8692(3)
H16 H 0.9618 -0.1034 0.8603
C16 C 0.86864(16) -0.05200(16) 0.9435(2)
H17 H 0.9119 -0.0032 0.9844
C17 C 0.84273(15) 0.23764(15) 1.0733(2)
C18 C 0.89744(16) 0.24116(17) 1.2052(2)
H18 H 0.8968 0.1908 1.2564
C19 C 0.9530(2) 0.3191(2) 1.2614(3)
H19 H 0.9898 0.3211 1.3502
C20 C 0.9539(2) 0.3938(2) 1.1862(4)
H20 H 0.9913 0.4463 1.2243
C21 C 0.9001(2) 0.3912(2) 1.0554(4)
H21 H 0.9008 0.4418 1.0047
C22 C 0.84447(19) 0.31294(17) 0.9987(2)
H22 H 0.8081 0.3111 0.9098
C23 C 0.67263(18) 0.38899(16) 1.1195(2)
H23 H 0.7072 0.3658 1.2023
C24 C 0.6806(2) 0.48061(17) 1.0945(3)
H24 H 0.7202 0.5193 1.1612
loop_
_geom_bond_atom_site_label_1
_geom_bond_atom_site_label_2
_geom_bond_site_symmetry_1
_geom_bond_site_symmetry_2
S1 O1 1_555 1_555
O2 S1 1_555 1_555
O3 C5 1_555 1_555
C1 H1 1_555 1_555
C2 C1 1_555 1_555
H2 C2 1_555 1_555
C3 C2 1_555 1_555
H3 C3 1_555 1_555
C4 C3 1_555 1_555
C5 C4 1_555 1_555
C6 C5 1_555 1_555
H4 C6 1_555 1_555
H5 C6 1_555 1_555
C7 S1 1_555 1_555
H6 C7 1_555 1_555
C8 S1 1_555 1_555
C9 C8 1_555 1_555
H7 C9 1_555 1_555
C10 C9 1_555 1_555
H8 C10 1_555 1_555
C11 C10 1_555 1_555
C12 C11 1_555 1_555
H9 C12 1_555 1_555
H10 C12 1_555 1_555
H11 C12 1_555 1_555
C13 O3 1_555 1_555
H12 C13 1_555 1_555
C14 C5 1_555 1_555
H13 C14 1_555 1_555
H14 C14 1_555 1_555
H15 C14 1_555 1_555
C15 C1 1_555 1_555
H16 C15 1_555 1_555
C16 C4 1_555 1_555
H17 C16 1_555 1_555
C17 C13 1_555 1_555
C18 C17 1_555 1_555
H18 C18 1_555 1_555
C19 C18 1_555 1_555
H19 C19 1_555 1_555
C20 C19 1_555 1_555
H20 C20 1_555 1_555
C21 C20 1_555 1_555
H21 C21 1_555 1_555
C22 C17 1_555 1_555
H22 C22 1_555 1_555
C23 C8 1_555 1_555
H23 C23 1_555 1_555
C24 C11 1_555 1_555
H24 C24 1_555 1_555
C6 C7 1_555 1_555
C7 C13 1_555 1_555
C15 C16 1_555 1_555
C21 C22 1_555 1_555
C23 C24 1_555 1_555

#END
