
#######################################################################
#
#                 Cambridge Crystallographic Data Centre
#                                CCDC 
#
#######################################################################
#
# If this CIF has been generated from an entry in the Cambridge 
# Structural Database, then it will include bibliographic, chemical, 
# crystal, experimental, refinement or atomic coordinate data resulting 
# from the CCDC's data processing and validation procedures.
#
#######################################################################

data_SAKHUK
_chemical_formula_moiety         'C20 H26 O2'
_chemical_name_systematic        
6-hydroxy-7-isopropyl-2,4a-dimethyl-1-methylene-2,3,4,4a,10,10a-hexahydrophenanthren-9(1H)-one
_symmetry_cell_setting           orthorhombic
_symmetry_space_group_name_H-M   'P 21 21 21'
_symmetry_Int_Tables_number      19
_space_group_name_Hall           'P 2ac 2ab'
loop_
_symmetry_equiv_pos_site_id
_symmetry_equiv_pos_as_xyz
1 x,y,z
2 1/2-x,-y,1/2+z
3 -x,1/2+y,1/2-z
4 1/2+x,1/2-y,-z
_cell_length_a                   7.8685(16)
_cell_length_b                   14.437(3)
_cell_length_c                   15.184(3)
_cell_angle_alpha                90
_cell_angle_beta                 90
_cell_angle_gamma                90
_cell_volume                     1724.86
_exptl_crystal_colour            colorless
_exptl_crystal_description       platelet
_cell_formula_units_Z            4
loop_
_atom_site_label
_atom_site_type_symbol
_atom_site_fract_x
_atom_site_fract_y
_atom_site_fract_z
O1 O 0.6878(2) 0.35278(15) 0.08595(15)
O2 O -0.0721(2) 0.48680(12) 0.07918(13)
H1 H -0.1490 0.4486 0.0812
C1 C 0.0911(3) 0.15633(18) 0.15609(19)
H2 H -0.0003 0.1862 0.1882
H3 H 0.0619 0.1573 0.0940
C2 C 0.1053(4) 0.0554(2) 0.1866(2)
H4 H 0.1198 0.0540 0.2501
H5 H 0.0006 0.0231 0.1727
C3 C 0.2533(4) 0.00528(18) 0.1436(2)
H6 H 0.2312 0.0044 0.0801
C4 C 0.4146(4) 0.05913(19) 0.15739(18)
C5 C 0.4031(3) 0.15780(17) 0.12473(17)
H7 H 0.3753 0.1545 0.0619
C6 C 0.5690(3) 0.21098(19) 0.13194(19)
H8 H 0.6084 0.2080 0.1924
H9 H 0.6535 0.1807 0.0954
C7 C 0.5570(3) 0.31111(18) 0.10493(17)
C8 C 0.3900(3) 0.35517(17) 0.10082(16)
C9 C 0.2430(3) 0.30762(15) 0.12823(15)
C10 C 0.2556(3) 0.21160(16) 0.16990(15)
C11 C 0.0889(3) 0.35389(16) 0.12084(16)
H10 H -0.0102 0.3239 0.1381
C12 C 0.0785(3) 0.44354(17) 0.08843(16)
C13 C 0.2266(3) 0.49306(17) 0.06379(17)
C14 C 0.3772(3) 0.44633(18) 0.07007(17)
H11 H 0.4763 0.4766 0.0531
C15 C 0.2138(4) 0.59251(19) 0.0344(2)
H12 H 0.1158 0.5936 -0.0054
C16 C 0.1687(7) 0.6557(3) 0.1044(4)
H13 H 0.1613 0.7175 0.0813
H14 H 0.2539 0.6536 0.1496
H15 H 0.0609 0.6381 0.1288
C17 C 0.3590(7) 0.6258(3) -0.0206(4)
H16 H 0.3411 0.6894 -0.0363
H17 H 0.3665 0.5890 -0.0731
H18 H 0.4628 0.6202 0.0122
C18 C 0.2861(4) 0.2254(2) 0.26896(18)
H19 H 0.1923 0.2588 0.2940
H20 H 0.3890 0.2598 0.2776
H21 H 0.2958 0.1661 0.2971
C19 C 0.2585(5) -0.0955(2) 0.1745(3)
H22 H 0.3522 -0.1267 0.1469
H23 H 0.1543 -0.1258 0.1586
H24 H 0.2723 -0.0973 0.2373
C20 C 0.5522(5) 0.0243(2) 0.1962(3)
H25 H 0.5518 -0.0365 0.2164
H26 H 0.6487 0.0608 0.2030
loop_
_geom_bond_atom_site_label_1
_geom_bond_atom_site_label_2
_geom_bond_site_symmetry_1
_geom_bond_site_symmetry_2
O1 C7 1_555 1_555
O2 H1 1_555 1_555
C1 H2 1_555 1_555
H3 C1 1_555 1_555
C2 C1 1_555 1_555
H4 C2 1_555 1_555
H5 C2 1_555 1_555
C3 C2 1_555 1_555
H6 C3 1_555 1_555
C4 C3 1_555 1_555
C5 C4 1_555 1_555
H7 C5 1_555 1_555
C6 C5 1_555 1_555
H8 C6 1_555 1_555
H9 C6 1_555 1_555
C7 C6 1_555 1_555
C8 C7 1_555 1_555
C9 C8 1_555 1_555
C10 C1 1_555 1_555
C11 C9 1_555 1_555
H10 C11 1_555 1_555
C12 O2 1_555 1_555
C13 C12 1_555 1_555
C14 C8 1_555 1_555
H11 C14 1_555 1_555
C15 C13 1_555 1_555
H12 C15 1_555 1_555
C16 C15 1_555 1_555
H13 C16 1_555 1_555
H14 C16 1_555 1_555
H15 C16 1_555 1_555
C17 C15 1_555 1_555
H16 C17 1_555 1_555
H17 C17 1_555 1_555
H18 C17 1_555 1_555
C18 C10 1_555 1_555
H19 C18 1_555 1_555
H20 C18 1_555 1_555
H21 C18 1_555 1_555
C19 C3 1_555 1_555
H22 C19 1_555 1_555
H23 C19 1_555 1_555
H24 C19 1_555 1_555
C20 C4 1_555 1_555
H25 C20 1_555 1_555
H26 C20 1_555 1_555
C5 C10 1_555 1_555
C9 C10 1_555 1_555
C11 C12 1_555 1_555
C13 C14 1_555 1_555

#END
