
#######################################################################
#
#                 Cambridge Crystallographic Data Centre
#                                CCDC 
#
#######################################################################
#
# If this CIF has been generated from an entry in the Cambridge 
# Structural Database, then it will include bibliographic, chemical, 
# crystal, experimental, refinement or atomic coordinate data resulting 
# from the CCDC's data processing and validation procedures.
#
#######################################################################

data_SAKJUM
_chemical_formula_moiety         'C19 H24 O4'
_chemical_name_systematic        11,15-dihydroxyandrosta-1,4-diene-3,17-dione
_symmetry_cell_setting           orthorhombic
_symmetry_space_group_name_H-M   'P 21 21 21'
_symmetry_Int_Tables_number      19
_space_group_name_Hall           'P 2ac 2ab'
loop_
_symmetry_equiv_pos_site_id
_symmetry_equiv_pos_as_xyz
1 x,y,z
2 1/2-x,-y,1/2+z
3 -x,1/2+y,1/2-z
4 1/2+x,1/2-y,-z
_cell_length_a                   6.2311(9)
_cell_length_b                   15.6747(16)
_cell_length_c                   16.3957(18)
_cell_angle_alpha                90
_cell_angle_beta                 90
_cell_angle_gamma                90
_cell_volume                     1601.38
_exptl_crystal_colour            colorless
_exptl_crystal_description       Prism
_cell_formula_units_Z            4
loop_
_atom_site_label
_atom_site_type_symbol
_atom_site_fract_x
_atom_site_fract_y
_atom_site_fract_z
O1 O 0.0366(2) 0.44206(7) 0.15238(8)
O2 O 0.3994(2) 0.06815(8) 0.22581(8)
H1 H 0.433(4) 0.0382(15) 0.2707(15)
O3 O 0.4438(3) -0.17358(8) 0.00039(9)
O4 O -0.0575(2) -0.00622(8) -0.12680(8)
H2 H -0.200(5) 0.0129(15) -0.1352(16)
C1 C 0.2065(3) 0.23176(11) 0.20537(11)
H3 H 0.3239 0.2052 0.2322
C2 C 0.2127(3) 0.31653(11) 0.19646(11)
H4 H 0.3332 0.3473 0.2164
C3 C 0.0385(3) 0.36277(11) 0.15676(11)
C4 C -0.1312(3) 0.31148(11) 0.12125(11)
H5 H -0.2449 0.3397 0.0936
C5 C -0.1349(3) 0.22594(11) 0.12569(10)
C6 C -0.3039(3) 0.17566(11) 0.08115(11)
H6 H -0.3980 0.2148 0.0500
H7 H -0.3937 0.1440 0.1207
C7 C -0.1935(3) 0.11302(10) 0.02283(11)
H8 H -0.3033 0.0802 -0.0075
H9 H -0.1059 0.1450 -0.0172
C8 C -0.0504(3) 0.05200(10) 0.07054(10)
H10 H -0.1449 0.0181 0.1077
C9 C 0.1198(3) 0.09796(10) 0.12444(10)
H11 H 0.2300 0.1222 0.0866
C10 C 0.0262(3) 0.17524(10) 0.17583(10)
C11 C 0.2350(3) 0.02941(10) 0.17724(11)
H12 H 0.1273 0.0024 0.2143
C12 C 0.3393(3) -0.04070(11) 0.12470(12)
H13 H 0.4583 -0.0156 0.0927
H14 H 0.4005 -0.0851 0.1608
C13 C 0.1790(3) -0.08173(10) 0.06687(11)
C14 C 0.0701(3) -0.01136(10) 0.01561(10)
H15 H 0.1897 0.0219 -0.0098
C15 C -0.0401(3) -0.05908(10) -0.05518(10)
H16 H -0.1837 -0.0813 -0.0383
C16 C 0.1180(3) -0.13312(11) -0.07259(11)
H17 H 0.0393 -0.1877 -0.0776
H18 H 0.1969 -0.1226 -0.1240
C17 C 0.2723(3) -0.13643(11) -0.00118(12)
C18 C 0.0164(3) -0.13914(11) 0.11274(12)
H19 H -0.0869 -0.1629 0.0738
H20 H -0.0600 -0.1051 0.1536
H21 H 0.0932 -0.1858 0.1398
C19 C -0.0965(3) 0.14177(11) 0.25276(11)
H22 H 0.0056 0.1149 0.2903
H23 H -0.2045 0.0999 0.2360
H24 H -0.1672 0.1896 0.2802
loop_
_geom_bond_atom_site_label_1
_geom_bond_atom_site_label_2
_geom_bond_site_symmetry_1
_geom_bond_site_symmetry_2
O1 C3 1_555 1_555
O2 H1 1_555 1_555
O3 C17 1_555 1_555
O4 H2 1_555 1_555
C1 H3 1_555 1_555
C2 C1 1_555 1_555
H4 C2 1_555 1_555
C3 C2 1_555 1_555
C4 C3 1_555 1_555
H5 C4 1_555 1_555
C5 C4 1_555 1_555
C6 C5 1_555 1_555
H6 C6 1_555 1_555
H7 C6 1_555 1_555
C7 C6 1_555 1_555
H8 C7 1_555 1_555
H9 C7 1_555 1_555
C8 C7 1_555 1_555
H10 C8 1_555 1_555
C9 C8 1_555 1_555
H11 C9 1_555 1_555
C10 C1 1_555 1_555
C11 O2 1_555 1_555
H12 C11 1_555 1_555
C12 C11 1_555 1_555
H13 C12 1_555 1_555
H14 C12 1_555 1_555
C13 C12 1_555 1_555
C14 C8 1_555 1_555
H15 C14 1_555 1_555
C15 O4 1_555 1_555
H16 C15 1_555 1_555
C16 C15 1_555 1_555
H17 C16 1_555 1_555
H18 C16 1_555 1_555
C17 C13 1_555 1_555
C18 C13 1_555 1_555
H19 C18 1_555 1_555
H20 C18 1_555 1_555
H21 C18 1_555 1_555
C19 C10 1_555 1_555
H22 C19 1_555 1_555
H23 C19 1_555 1_555
H24 C19 1_555 1_555
C5 C10 1_555 1_555
C9 C10 1_555 1_555
C9 C11 1_555 1_555
C13 C14 1_555 1_555
C14 C15 1_555 1_555
C16 C17 1_555 1_555

#END
