
#######################################################################
#
#                 Cambridge Crystallographic Data Centre
#                                CCDC 
#
#######################################################################
#
# If this CIF has been generated from an entry in the Cambridge 
# Structural Database, then it will include bibliographic, chemical, 
# crystal, experimental, refinement or atomic coordinate data resulting 
# from the CCDC's data processing and validation procedures.
#
#######################################################################

data_SAKJEW
_chemical_compound_source        
'Isolated from the culture of Eutypella sp. D-1 obtained from high-latitude soil of the Arctic.'
_chemical_name_common            'Eutypenoid A'
_chemical_formula_moiety         'C20 H22 O3'
_chemical_name_systematic        
4a,9,11b-trimethyl-8-vinyl-3,4,4a,5-tetrahydro-2H-benzo[i]furo[4,3,2-ef][1]benzoxepin-7(11bH)-one
_chemical_properties_biological  'tested for cytotoxic activity'
_symmetry_cell_setting           orthorhombic
_symmetry_space_group_name_H-M   'P 21 21 21'
_symmetry_Int_Tables_number      19
_space_group_name_Hall           'P 2ac 2ab'
loop_
_symmetry_equiv_pos_site_id
_symmetry_equiv_pos_as_xyz
1 x,y,z
2 1/2+x,1/2-y,-z
3 -x,1/2+y,1/2-z
4 1/2-x,-y,1/2+z
_cell_length_a                   7.55310(10)
_cell_length_b                   11.8579(2)
_cell_length_c                   18.1930(3)
_cell_angle_alpha                90
_cell_angle_beta                 90
_cell_angle_gamma                90
_cell_volume                     1629.44
_exptl_crystal_colour            colorless
_exptl_crystal_description       block
_cell_formula_units_Z            4
_exptl_crystal_recrystallization_method acetone
loop_
_atom_site_label
_atom_site_type_symbol
_atom_site_fract_x
_atom_site_fract_y
_atom_site_fract_z
O1 O 0.79428(17) 0.62010(10) 0.47806(7)
O2 O 0.5280(2) 0.29756(12) 0.56910(9)
O3 O 0.7582(3) 0.29527(17) 0.68631(12)
C1 C 0.8712(3) 0.53881(19) 0.42932(11)
H1 H 0.9241 0.4787 0.4581
H2 H 0.9647 0.5746 0.4011
C2 C 0.7368(3) 0.4889(2) 0.37708(11)
H3 H 0.8000 0.4531 0.3370
H4 H 0.6677 0.5501 0.3563
C3 C 0.6098(3) 0.40325(18) 0.40993(12)
H5 H 0.6774 0.3374 0.4245
H6 H 0.5280 0.3797 0.3718
C4 C 0.5013(3) 0.44321(16) 0.47657(11)
C5 C 0.6289(2) 0.47264(15) 0.53822(10)
C6 C 0.6416(3) 0.38501(16) 0.58358(11)
C7 C 0.7693(3) 0.37353(17) 0.64343(11)
C8 C 0.9102(2) 0.46131(15) 0.64534(9)
C9 C 0.8955(2) 0.55601(14) 0.59876(10)
C10 C 0.7366(2) 0.57678(14) 0.54785(9)
C11 C 1.0254(2) 0.63830(16) 0.60148(11)
H7 H 1.0180 0.7004 0.5704
C12 C 1.1655(3) 0.62949(18) 0.64961(12)
H8 H 1.2483 0.6874 0.6518
C13 C 1.1862(3) 0.53578(19) 0.69520(11)
C14 C 1.0594(3) 0.45000(16) 0.69245(10)
C15 C 1.0837(3) 0.34643(18) 0.73769(10)
H9 H 0.9963 0.3286 0.7717
C16 C 1.2203(4) 0.2790(2) 0.73257(13)
H10 H 1.3100 0.2945 0.6990
H11 H 1.2277 0.2155 0.7625
C17 C 1.3443(3) 0.5341(2) 0.74648(13)
H12 H 1.4412 0.4960 0.7230
H13 H 1.3134 0.4951 0.7909
H14 H 1.3784 0.6100 0.7580
C18 C 0.3671(3) 0.5323(2) 0.45449(14)
H15 H 0.3036 0.5572 0.4972
H16 H 0.2855 0.5009 0.4196
H17 H 0.4274 0.5952 0.4327
C19 C 0.4089(3) 0.3420(2) 0.51356(14)
H18 H 0.2987 0.3660 0.5361
H19 H 0.3825 0.2844 0.4773
C20 C 0.6244(3) 0.67219(16) 0.58019(11)
H20 H 0.6946 0.7395 0.5836
H21 H 0.5841 0.6511 0.6283
H22 H 0.5243 0.6858 0.5490
loop_
_geom_bond_atom_site_label_1
_geom_bond_atom_site_label_2
_geom_bond_site_symmetry_1
_geom_bond_site_symmetry_2
O1 C1 1_555 1_555
O2 C6 1_555 1_555
O3 C7 1_555 1_555
C1 H1 1_555 1_555
H2 C1 1_555 1_555
C2 C1 1_555 1_555
H3 C2 1_555 1_555
H4 C2 1_555 1_555
C3 C2 1_555 1_555
H5 C3 1_555 1_555
H6 C3 1_555 1_555
C4 C3 1_555 1_555
C5 C4 1_555 1_555
C6 C5 1_555 1_555
C7 C6 1_555 1_555
C8 C7 1_555 1_555
C9 C8 1_555 1_555
C10 O1 1_555 1_555
C11 C9 1_555 1_555
H7 C11 1_555 1_555
C12 C11 1_555 1_555
H8 C12 1_555 1_555
C13 C12 1_555 1_555
C14 C8 1_555 1_555
C15 C14 1_555 1_555
H9 C15 1_555 1_555
C16 C15 1_555 1_555
H10 C16 1_555 1_555
H11 C16 1_555 1_555
C17 C13 1_555 1_555
H12 C17 1_555 1_555
H13 C17 1_555 1_555
H14 C17 1_555 1_555
C18 C4 1_555 1_555
H15 C18 1_555 1_555
H16 C18 1_555 1_555
H17 C18 1_555 1_555
C19 O2 1_555 1_555
H18 C19 1_555 1_555
H19 C19 1_555 1_555
C20 C10 1_555 1_555
H20 C20 1_555 1_555
H21 C20 1_555 1_555
H22 C20 1_555 1_555
C4 C19 1_555 1_555
C5 C10 1_555 1_555
C9 C10 1_555 1_555
C13 C14 1_555 1_555

#END
