
#######################################################################
#
#                 Cambridge Crystallographic Data Centre
#                                CCDC 
#
#######################################################################
#
# If this CIF has been generated from an entry in the Cambridge 
# Structural Database, then it will include bibliographic, chemical, 
# crystal, experimental, refinement or atomic coordinate data resulting 
# from the CCDC's data processing and validation procedures.
#
#######################################################################

data_SAKKAS
_chemical_formula_moiety         'C25 H16 Br1 N1 O4'
_chemical_name_systematic        
'2-(2-Bromophenyl)-6-phenylhexa-3,5-diyn-2-yl 4-nitrobenzoate'
_symmetry_cell_setting           orthorhombic
_symmetry_space_group_name_H-M   'P 21 21 21'
_symmetry_Int_Tables_number      19
_space_group_name_Hall           'P 2ac 2ab'
loop_
_symmetry_equiv_pos_site_id
_symmetry_equiv_pos_as_xyz
1 x,y,z
2 1/2-x,-y,1/2+z
3 -x,1/2+y,1/2-z
4 1/2+x,1/2-y,-z
_cell_length_a                   7.0214(6)
_cell_length_b                   16.2366(16)
_cell_length_c                   19.0401(18)
_cell_angle_alpha                90
_cell_angle_beta                 90
_cell_angle_gamma                90
_cell_volume                     2170.64
_exptl_crystal_colour            yellow
_exptl_crystal_description       block
_cell_formula_units_Z            4
loop_
_atom_site_label
_atom_site_type_symbol
_atom_site_fract_x
_atom_site_fract_y
_atom_site_fract_z
C1 C 0.7945(5) 0.25330(19) 0.23364(16)
C2 C 0.7184(7) 0.1818(2) 0.2056(2)
H1 H 0.7863 0.1523 0.1720
C3 C 0.5454(8) 0.1548(2) 0.2269(2)
H2 H 0.4935 0.1074 0.2073
C4 C 0.4461(6) 0.1973(2) 0.2775(2)
H3 H 0.3300 0.1776 0.2939
C5 C 0.5217(5) 0.26962(18) 0.30357(18)
H4 H 0.4518 0.2995 0.3363
C6 C 0.6970(4) 0.29912(17) 0.28291(14)
C7 C 0.7747(5) 0.37662(17) 0.31879(14)
C8 C 0.9266(5) 0.3535(2) 0.37278(16)
H5 H 1.0263 0.3229 0.3501
H6 H 0.8703 0.3203 0.4090
H7 H 0.9788 0.4027 0.3931
C9 C 0.6228(5) 0.42437(19) 0.35340(17)
C10 C 0.5067(5) 0.46216(18) 0.38450(16)
C11 C 0.3639(5) 0.50560(19) 0.41733(18)
C12 C 0.2411(6) 0.5431(2) 0.44645(17)
C13 C 0.0920(6) 0.58908(18) 0.47908(18)
C14 C -0.0826(7) 0.5960(3) 0.4464(3)
H8 H -0.1053 0.5696 0.4039
C15 C -0.2226(8) 0.6426(3) 0.4776(3)
H9 H -0.3394 0.6488 0.4551
C16 C -0.1930(10) 0.6801(3) 0.5409(3)
H10 H -0.2892 0.7110 0.5616
C17 C -0.0237(11) 0.6717(3) 0.5729(3)
H11 H -0.0030 0.6970 0.6161
C18 C 0.1194(7) 0.6262(2) 0.5425(2)
H12 H 0.2357 0.6207 0.5654
C19 C 0.7798(4) 0.46377(18) 0.21542(15)
C20 C 0.9081(4) 0.51156(17) 0.16908(15)
C21 C 1.1042(5) 0.5136(2) 0.18008(16)
H13 H 1.1578 0.4851 0.2176
C22 C 1.2179(6) 0.5578(2) 0.13515(17)
H14 H 1.3491 0.5590 0.1416
C23 C 1.1369(5) 0.6000(2) 0.08104(16)
C24 C 0.9440(6) 0.6002(2) 0.06964(17)
H15 H 0.8915 0.6309 0.0333
C25 C 0.8299(5) 0.5538(2) 0.11305(17)
H16 H 0.6995 0.5510 0.1047
N1 N 1.2626(6) 0.6470(2) 0.03356(15)
O1 O 0.8754(3) 0.43097(12) 0.27018(10)
O2 O 0.6116(3) 0.45594(14) 0.20696(13)
O3 O 1.4356(5) 0.6387(3) 0.04038(16)
O4 O 1.1853(5) 0.68916(17) -0.01193(17)
Br1 Br 1.04053(6) 0.28106(3) 0.19901(2)
loop_
_geom_bond_atom_site_label_1
_geom_bond_atom_site_label_2
_geom_bond_site_symmetry_1
_geom_bond_site_symmetry_2
C1 C2 1_555 1_555
C2 H1 1_555 1_555
C3 C2 1_555 1_555
H2 C3 1_555 1_555
C4 C3 1_555 1_555
H3 C4 1_555 1_555
C5 C4 1_555 1_555
H4 C5 1_555 1_555
C6 C1 1_555 1_555
C7 C6 1_555 1_555
C8 C7 1_555 1_555
H5 C8 1_555 1_555
H6 C8 1_555 1_555
H7 C8 1_555 1_555
C9 C7 1_555 1_555
C10 C9 1_555 1_555
C11 C10 1_555 1_555
C12 C11 1_555 1_555
C13 C12 1_555 1_555
C14 C13 1_555 1_555
H8 C14 1_555 1_555
C15 C14 1_555 1_555
H9 C15 1_555 1_555
C16 C15 1_555 1_555
H10 C16 1_555 1_555
C17 C16 1_555 1_555
H11 C17 1_555 1_555
C18 C13 1_555 1_555
H12 C18 1_555 1_555
C19 C20 1_555 1_555
C20 C21 1_555 1_555
C21 H13 1_555 1_555
C22 C21 1_555 1_555
H14 C22 1_555 1_555
C23 C22 1_555 1_555
C24 C23 1_555 1_555
H15 C24 1_555 1_555
C25 C20 1_555 1_555
H16 C25 1_555 1_555
N1 C23 1_555 1_555
O1 C7 1_555 1_555
O2 C19 1_555 1_555
O3 N1 1_555 1_555
O4 N1 1_555 1_555
Br1 C1 1_555 1_555
C5 C6 1_555 1_555
C17 C18 1_555 1_555
C19 O1 1_555 1_555
C24 C25 1_555 1_555

#END
