
#######################################################################
#
#                 Cambridge Crystallographic Data Centre
#                                CCDC 
#
#######################################################################
#
# If this CIF has been generated from an entry in the Cambridge 
# Structural Database, then it will include bibliographic, chemical, 
# crystal, experimental, refinement or atomic coordinate data resulting 
# from the CCDC's data processing and validation procedures.
#
#######################################################################

data_SAKKEW
_chemical_formula_moiety         'C24 H20 Br1 N2 O1 1+,C1 F3 O3 S1 1-'
_chemical_name_systematic        
'6-Bromo-2-(hydroxy(diphenyl)methyl)-1,2-dihydroimidazo[1,2-a]quinolin-3-ium trifluoromethanesulfonate'
_symmetry_cell_setting           triclinic
_symmetry_space_group_name_H-M   'P 1'
_symmetry_Int_Tables_number      1
_space_group_name_Hall           'P 1'
loop_
_symmetry_equiv_pos_site_id
_symmetry_equiv_pos_as_xyz
1 x,y,z
_cell_length_a                   10.2949(19)
_cell_length_b                   10.413(2)
_cell_length_c                   12.929(3)
_cell_angle_alpha                72.372(4)
_cell_angle_beta                 66.741(3)
_cell_angle_gamma                76.339(4)
_cell_volume                     1202.76
_exptl_crystal_colour            colorless
_exptl_crystal_description       prismatic
_cell_formula_units_Z            2
loop_
_atom_site_label
_atom_site_type_symbol
_atom_site_fract_x
_atom_site_fract_y
_atom_site_fract_z
Br1 Br 0.65980(10) 0.26640(11) 0.05953(9)
N1 N 0.0102(8) 0.3780(7) 0.4460(6)
H1 H -0.0399 0.4552 0.4307
N2 N 0.1935(7) 0.2208(7) 0.4263(6)
O1 O 0.0173(6) 0.3444(6) 0.6687(5)
H3 H 0.0312 0.4215 0.6294
C1 C -0.1013(10) 0.3091(8) 0.6594(7)
C2 C -0.0468(9) 0.2668(8) 0.5436(7)
H5 H -0.1240 0.2368 0.5341
C3 C 0.0852(9) 0.1564(9) 0.5276(7)
H6 H 0.1145 0.1297 0.5946
H7 H 0.0652 0.0767 0.5155
C4 C 0.1461(9) 0.3495(8) 0.3827(7)
C5 C 0.2329(11) 0.4292(10) 0.2842(9)
H8 H 0.2005 0.5198 0.2575
C6 C 0.3624(11) 0.3747(11) 0.2287(10)
H9 H 0.4218 0.4281 0.1634
C7 C 0.4121(10) 0.2360(9) 0.2672(8)
C8 C 0.3272(9) 0.1581(8) 0.3707(7)
C9 C 0.3752(10) 0.0220(9) 0.4137(9)
H10 H 0.3215 -0.0280 0.4846
C10 C 0.5026(11) -0.0338(11) 0.3481(10)
H11 H 0.5348 -0.1244 0.3750
C11 C 0.5870(11) 0.0380(11) 0.2429(11)
H12 H 0.6726 -0.0053 0.2001
C12 C 0.5455(11) 0.1702(11) 0.2024(9)
C13 C -0.2255(9) 0.4213(8) 0.6716(7)
C14 C -0.3125(11) 0.4538(10) 0.6047(10)
H13 H -0.2900 0.4103 0.5455
C15 C -0.4298(11) 0.5486(12) 0.6260(13)
H14 H -0.4878 0.5675 0.5819
C16 C -0.4641(13) 0.6156(12) 0.7092(13)
H15 H -0.5465 0.6780 0.7242
C17 C -0.3782(15) 0.5913(13) 0.7703(12)
H16 H -0.3996 0.6413 0.8250
C18 C -0.2556(12) 0.4919(10) 0.7541(9)
H17 H -0.1977 0.4752 0.7979
C19 C -0.1488(9) 0.1808(9) 0.7564(8)
C20 C -0.0589(10) 0.1061(11) 0.8190(8)
H18 H 0.0272 0.1345 0.8040
C21 C -0.1007(12) -0.0098(10) 0.9029(9)
H19 H -0.0419 -0.0606 0.9442
C22 C -0.2303(14) -0.0509(12) 0.9260(10)
H20 H -0.2606 -0.1261 0.9857
C23 C -0.3137(13) 0.0189(10) 0.8608(11)
H21 H -0.3971 -0.0122 0.8723
C24 C -0.2731(10) 0.1333(10) 0.7798(8)
H22 H -0.3321 0.1819 0.7380
Br2 Br -0.63800(11) 1.03654(12) 0.75877(10)
N3 N -0.0524(7) 0.9011(7) 0.3145(6)
H2 H -0.0091 0.8193 0.3192
N4 N -0.2058(8) 1.0760(7) 0.3701(7)
O2 O 0.1649(7) 1.0572(6) 0.2623(5)
H4 H 0.1579 0.9892 0.3157
C25 C 0.1427(9) 1.0291(9) 0.1711(8)
C26 C -0.0138(9) 1.0118(8) 0.2126(7)
H23 H -0.0340 0.9947 0.1503
C27 C -0.1127(9) 1.1374(9) 0.2506(8)
H24 H -0.0595 1.2021 0.2516
H25 H -0.1680 1.1819 0.2006
C28 C -0.1628(10) 0.9425(9) 0.3997(8)
C29 C -0.2331(11) 0.8626(10) 0.5103(9)
H26 H -0.2017 0.7706 0.5327
C30 C -0.3480(11) 0.9265(10) 0.5819(8)
H27 H -0.3935 0.8777 0.6564
C31 C -0.4024(11) 1.0671(9) 0.5468(8)
C32 C -0.3262(10) 1.1430(9) 0.4404(9)
C33 C -0.3682(10) 1.2795(10) 0.4007(9)
H28 H -0.3143 1.3285 0.3292
C34 C -0.4916(12) 1.3404(11) 0.4699(10)
H29 H -0.5208 1.4323 0.4445
C35 C -0.5728(12) 1.2705(12) 0.5747(10)
H30 H -0.6576 1.3127 0.6197
C36 C -0.5253(12) 1.1349(11) 0.6120(10)
C37 C 0.1815(10) 1.1512(9) 0.0680(8)
C38 C 0.3055(11) 1.2036(11) 0.0384(10)
H31 H 0.3654 1.1641 0.0810
C39 C 0.3424(13) 1.3140(12) -0.0540(10)
H32 H 0.4248 1.3508 -0.0717
C40 C 0.2568(13) 1.3690(12) -0.1194(10)
H33 H 0.2816 1.4433 -0.1816
C41 C 0.1384(12) 1.3174(11) -0.0949(9)
H34 H 0.0817 1.3552 -0.1405
C42 C 0.0996(10) 1.2076(9) -0.0019(8)
H35 H 0.0177 1.1713 0.0139
C43 C 0.2448(11) 0.9024(9) 0.1346(9)
C44 C 0.3581(12) 0.8507(12) 0.1733(12)
H36 H 0.3680 0.8892 0.2255
C45 C 0.4574(15) 0.7438(14) 0.1371(13)
H37 H 0.5304 0.7072 0.1670
C46 C 0.4450(16) 0.6930(12) 0.0550(12)
H38 H 0.5149 0.6266 0.0237
C47 C 0.3316(15) 0.7395(13) 0.0202(12)
H39 H 0.3193 0.6991 -0.0298
C48 C 0.2341(13) 0.8456(11) 0.0577(10)
H40 H 0.1593 0.8791 0.0296
S1 S 0.1491(3) 0.7011(3) 0.5322(3)
F1 F 0.0589(15) 0.6236(11) 0.7544(8)
F2 F -0.0530(12) 0.8007(15) 0.6914(10)
F3 F 0.1482(12) 0.8044(10) 0.6917(8)
O3 O 0.0565(10) 0.6200(8) 0.5303(8)
O4 O 0.2847(11) 0.6384(16) 0.5275(13)
O5 O 0.1383(10) 0.8344(8) 0.4639(7)
C49 C 0.0669(16) 0.7307(13) 0.6790(11)
S2 S 0.8382(3) 0.6511(3) 0.2423(2)
F4 F 0.9795(13) 0.4390(8) 0.1686(10)
F5 F 0.8533(12) 0.5652(12) 0.0708(10)
F6 F 1.0444(12) 0.6176(12) 0.0546(9)
O6 O 0.7141(12) 0.5877(13) 0.3051(10)
O7 O 0.9363(9) 0.6335(7) 0.3003(7)
O8 O 0.8165(9) 0.7865(7) 0.1812(7)
C50 C 0.9349(17) 0.5623(13) 0.1287(15)
loop_
_geom_bond_atom_site_label_1
_geom_bond_atom_site_label_2
_geom_bond_site_symmetry_1
_geom_bond_site_symmetry_2
Br1 C12 1_555 1_555
Br2 C36 1_555 1_555
S1 O3 1_555 1_555
S2 O6 1_555 1_555
F1 C49 1_555 1_555
F2 C49 1_555 1_555
F3 C49 1_555 1_555
F4 C50 1_555 1_555
F5 C50 1_555 1_555
F6 C50 1_555 1_555
N1 H1 1_555 1_555
N2 C3 1_555 1_555
N3 H2 1_555 1_555
N4 C27 1_555 1_555
O1 H3 1_555 1_555
O2 H4 1_555 1_555
O4 S1 1_555 1_555
O5 S1 1_555 1_555
O7 S2 1_555 1_555
O8 S2 1_555 1_555
C1 O1 1_555 1_555
C2 N1 1_555 1_555
H5 C2 1_555 1_555
C3 C2 1_555 1_555
H6 C3 1_555 1_555
H7 C3 1_555 1_555
C4 N1 1_555 1_555
C5 C4 1_555 1_555
H8 C5 1_555 1_555
C6 C5 1_555 1_555
H9 C6 1_555 1_555
C7 C6 1_555 1_555
C8 N2 1_555 1_555
C9 C8 1_555 1_555
H10 C9 1_555 1_555
C10 C9 1_555 1_555
H11 C10 1_555 1_555
C11 C10 1_555 1_555
H12 C11 1_555 1_555
C12 C7 1_555 1_555
C13 C1 1_555 1_555
C14 C13 1_555 1_555
H13 C14 1_555 1_555
C15 C14 1_555 1_555
H14 C15 1_555 1_555
C16 C15 1_555 1_555
H15 C16 1_555 1_555
C17 C16 1_555 1_555
H16 C17 1_555 1_555
C18 C13 1_555 1_555
H17 C18 1_555 1_555
C19 C1 1_555 1_555
C20 C19 1_555 1_555
H18 C20 1_555 1_555
C21 C20 1_555 1_555
H19 C21 1_555 1_555
C22 C21 1_555 1_555
H20 C22 1_555 1_555
C23 C22 1_555 1_555
H21 C23 1_555 1_555
C24 C19 1_555 1_555
H22 C24 1_555 1_555
C25 O2 1_555 1_555
C26 N3 1_555 1_555
H23 C26 1_555 1_555
C27 C26 1_555 1_555
H24 C27 1_555 1_555
H25 C27 1_555 1_555
C28 N3 1_555 1_555
C29 C28 1_555 1_555
H26 C29 1_555 1_555
C30 C29 1_555 1_555
H27 C30 1_555 1_555
C31 C30 1_555 1_555
C32 N4 1_555 1_555
C33 C32 1_555 1_555
H28 C33 1_555 1_555
C34 C33 1_555 1_555
H29 C34 1_555 1_555
C35 C34 1_555 1_555
H30 C35 1_555 1_555
C36 C31 1_555 1_555
C37 C25 1_555 1_555
C38 C37 1_555 1_555
H31 C38 1_555 1_555
C39 C38 1_555 1_555
H32 C39 1_555 1_555
C40 C39 1_555 1_555
H33 C40 1_555 1_555
C41 C40 1_555 1_555
H34 C41 1_555 1_555
C42 C37 1_555 1_555
H35 C42 1_555 1_555
C43 C25 1_555 1_555
C44 C43 1_555 1_555
H36 C44 1_555 1_555
C45 C44 1_555 1_555
H37 C45 1_555 1_555
C46 C45 1_555 1_555
H38 C46 1_555 1_555
C47 C46 1_555 1_555
H39 C47 1_555 1_555
C48 C43 1_555 1_555
H40 C48 1_555 1_555
C49 S1 1_555 1_555
C50 S2 1_555 1_555
N2 C4 1_555 1_555
N4 C28 1_555 1_555
C1 C2 1_555 1_555
C7 C8 1_555 1_555
C11 C12 1_555 1_555
C17 C18 1_555 1_555
C23 C24 1_555 1_555
C25 C26 1_555 1_555
C31 C32 1_555 1_555
C35 C36 1_555 1_555
C41 C42 1_555 1_555
C47 C48 1_555 1_555

#END
