
#######################################################################
#
#                 Cambridge Crystallographic Data Centre
#                                CCDC 
#
#######################################################################
#
# If this CIF has been generated from an entry in the Cambridge 
# Structural Database, then it will include bibliographic, chemical, 
# crystal, experimental, refinement or atomic coordinate data resulting 
# from the CCDC's data processing and validation procedures.
#
#######################################################################

data_SAKLOH
_chemical_formula_moiety         'C19 H23 Cl1 N1 O4 P1'
_chemical_name_systematic        
'(R)-Diethyl 2-benzamido-2-(4-chlorophenyl)ethylphosphonate'
_symmetry_cell_setting           orthorhombic
_symmetry_space_group_name_H-M   'P 21 21 21'
_symmetry_Int_Tables_number      19
_space_group_name_Hall           'P 2ac 2ab'
loop_
_symmetry_equiv_pos_site_id
_symmetry_equiv_pos_as_xyz
1 x,y,z
2 1/2-x,-y,1/2+z
3 -x,1/2+y,1/2-z
4 1/2+x,1/2-y,-z
_cell_length_a                   5.4296(6)
_cell_length_b                   15.0581(16)
_cell_length_c                   25.237(3)
_cell_angle_alpha                90
_cell_angle_beta                 90
_cell_angle_gamma                90
_cell_volume                     2063.36
_exptl_crystal_colour            colorless
_exptl_crystal_description       prismatic
_cell_formula_units_Z            4
_exptl_crystal_recrystallization_method 'diethyl ether/n-pentane'
loop_
_atom_site_label
_atom_site_type_symbol
_atom_site_fract_x
_atom_site_fract_y
_atom_site_fract_z
P1 P 0.92294(13) 0.01489(5) 0.13744(3)
Cl1 Cl 0.1153(3) 0.46945(7) 0.03177(4)
N1 N 0.5606(5) 0.15954(14) 0.19098(9)
O1 O 0.7966(6) 0.25056(19) 0.23885(10)
O2 O 1.1590(4) 0.05028(14) 0.15393(10)
O3 O 0.7688(5) -0.03035(16) 0.18166(11)
C1 C 0.6853(5) 0.17879(16) 0.14085(10)
H1 H 0.8497 0.2016 0.1493
C2 C 0.7174(5) 0.09489(17) 0.10917(11)
H2 H 0.7776 0.1106 0.0742
H3 H 0.5573 0.0673 0.1047
C3 C 0.5474(6) 0.25133(18) 0.11112(11)
C4 C 0.3465(7) 0.2326(2) 0.07941(15)
H4 H 0.2983 0.1738 0.0747
C5 C 0.2163(8) 0.2994(3) 0.05463(14)
H5 H 0.0830 0.2856 0.0330
C6 C 0.2839(8) 0.3852(2) 0.06209(13)
C7 C 0.4827(10) 0.4057(2) 0.09265(17)
H6 H 0.5301 0.4646 0.0971
C8 C 0.6136(8) 0.33832(19) 0.11706(14)
H7 H 0.7492 0.3525 0.1379
C9 C 0.6253(6) 0.19782(19) 0.23644(11)
C10 C 0.4793(5) 0.17406(16) 0.28439(7)
C11 C 0.5524(6) 0.2140(2) 0.33150(9)
H8 H 0.6864 0.2524 0.3318
C12 C 0.4251(8) 0.1965(2) 0.37813(7)
H9 H 0.4740 0.2232 0.4096
C13 C 0.2248(7) 0.1390(2) 0.37765(8)
H10 H 0.1396 0.1273 0.4089
C14 C 0.1517(5) 0.0991(2) 0.33055(11)
H11 H 0.0177 0.0606 0.3302
C15 C 0.2790(5) 0.1166(2) 0.28392(8)
H12 H 0.2301 0.0899 0.2524
C16 C 0.8756(9) -0.0961(3) 0.21783(19)
H13 H 1.0448 -0.0805 0.2259
H14 H 0.8741 -0.1544 0.2015
C17 C 0.7281(11) -0.0970(3) 0.26653(19)
H15 H 0.7205 -0.0381 0.2810
H16 H 0.8026 -0.1362 0.2919
H17 H 0.5645 -0.1172 0.2586
O4 O 0.9345(7) -0.0612(2) 0.09510(15)
C18 C 1.141(2) -0.0722(7) 0.0622(5)
H18 H 1.2906 -0.0736 0.0832
H19 H 1.1529 -0.0233 0.0373
C19 C 1.110(2) -0.1577(6) 0.0332(4)
H20 H 0.9866 -0.1929 0.0506
H21 H 1.2632 -0.1893 0.0329
H22 H 1.0591 -0.1458 -0.0026
H25 H 0.445(4) 0.1284(15) 0.1876(10)
C20? C 1.137(3) -0.1169(7) 0.0865(5)
H23? H 1.2622 -0.1186 0.1140
H24? H 1.0139 -0.1620 0.0936
C21? C 1.246(6) -0.1272(19) 0.0331(10)
H26? H 1.1953 -0.0785 0.0111
H27? H 1.1904 -0.1820 0.0178
H28? H 1.4222 -0.1278 0.0358
O5? O 1.023(4) -0.0249(11) 0.0812(6)
loop_
_geom_bond_atom_site_label_1
_geom_bond_atom_site_label_2
_geom_bond_site_symmetry_1
_geom_bond_site_symmetry_2
P1 O2 1_555 1_555
Cl1 C6 1_555 1_555
N1 C1 1_555 1_555
O1 C9 1_555 1_555
O3 P1 1_555 1_555
C1 H1 1_555 1_555
C2 P1 1_555 1_555
H2 C2 1_555 1_555
H3 C2 1_555 1_555
C3 C1 1_555 1_555
C4 C3 1_555 1_555
H4 C4 1_555 1_555
C5 C4 1_555 1_555
H5 C5 1_555 1_555
C6 C5 1_555 1_555
C7 C6 1_555 1_555
H6 C7 1_555 1_555
C8 C3 1_555 1_555
H7 C8 1_555 1_555
C9 N1 1_555 1_555
C10 C9 1_555 1_555
C11 C10 1_555 1_555
H8 C11 1_555 1_555
C12 C11 1_555 1_555
H9 C12 1_555 1_555
C13 C12 1_555 1_555
H10 C13 1_555 1_555
C14 C13 1_555 1_555
H11 C14 1_555 1_555
C15 C10 1_555 1_555
H12 C15 1_555 1_555
C16 O3 1_555 1_555
H13 C16 1_555 1_555
H14 C16 1_555 1_555
C17 C16 1_555 1_555
H15 C17 1_555 1_555
H16 C17 1_555 1_555
H17 C17 1_555 1_555
O4 P1 1_555 1_555
C18 O4 1_555 1_555
H18 C18 1_555 1_555
H19 C18 1_555 1_555
C19 C18 1_555 1_555
H20 C19 1_555 1_555
H21 C19 1_555 1_555
H22 C19 1_555 1_555
H25 N1 1_555 1_555
C1 C2 1_555 1_555
C7 C8 1_555 1_555
C14 C15 1_555 1_555

#END
