
#######################################################################
#
#                 Cambridge Crystallographic Data Centre
#                                CCDC 
#
#######################################################################
#
# If this CIF has been generated from an entry in the Cambridge 
# Structural Database, then it will include bibliographic, chemical, 
# crystal, experimental, refinement or atomic coordinate data resulting 
# from the CCDC's data processing and validation procedures.
#
#######################################################################

data_SAKLIB
_chemical_formula_moiety         'C17 H28 N1 O5 P1'
_chemical_name_systematic        
'Diethyl (1-(((benzyloxy)carbonyl)amino)-3-methylbutyl)phosphonate'
_symmetry_cell_setting           orthorhombic
_symmetry_space_group_name_H-M   'P 21 21 21'
_symmetry_Int_Tables_number      19
_space_group_name_Hall           'P 2ac 2ab'
loop_
_symmetry_equiv_pos_site_id
_symmetry_equiv_pos_as_xyz
1 x,y,z
2 1/2-x,-y,1/2+z
3 -x,1/2+y,1/2-z
4 1/2+x,1/2-y,-z
_cell_length_a                   5.6897(6)
_cell_length_b                   16.1656(17)
_cell_length_c                   21.602(2)
_cell_angle_alpha                90
_cell_angle_beta                 90
_cell_angle_gamma                90
_cell_volume                     1986.9
_exptl_crystal_colour            colorless
_exptl_crystal_description       prismatic
_cell_formula_units_Z            4
loop_
_atom_site_label
_atom_site_type_symbol
_atom_site_fract_x
_atom_site_fract_y
_atom_site_fract_z
P1 P 0.37191(14) 1.07100(5) 0.09929(4)
N1 N 0.7309(5) 0.97168(14) 0.06120(11)
O1 O 0.6406(4) 0.83662(11) 0.04852(10)
O2 O 1.0048(3) 0.87688(11) 0.07607(9)
O3 O 0.1217(4) 1.08556(12) 0.08718(11)
O4 O 0.4319(5) 1.03915(17) 0.16492(10)
O5 O 0.5322(4) 1.14884(14) 0.09660(15)
C1 C 0.5023(5) 1.00187(15) 0.04288(13)
H1 H 0.3988 0.9536 0.0399
C2 C 0.5058(7) 1.04239(19) -0.02082(13)
H2 H 0.3657 1.0761 -0.0252
H3 H 0.6405 1.0790 -0.0231
C3 C 0.5169(7) 0.9821(2) -0.07474(14)
H4 H 0.6410 0.9417 -0.0659
C4 C 0.2929(8) 0.9360(3) -0.0831(2)
H5 H 0.2633 0.9027 -0.0471
H6 H 0.3047 0.9009 -0.1188
H7 H 0.1663 0.9745 -0.0887
C5 C 0.5841(10) 1.0281(3) -0.13382(18)
H8 H 0.5893 0.9899 -0.1678
H9 H 0.7358 1.0532 -0.1286
H10 H 0.4694 1.0702 -0.1422
C6 C 0.7802(5) 0.89051(16) 0.06077(12)
C7 C 1.0824(5) 0.79129(16) 0.07654(13)
H11 H 1.2361 0.7877 0.0573
H12 H 0.9742 0.7582 0.0522
C8 C 1.0955(5) 0.75698(17) 0.14003(13)
C9 C 1.2847(7) 0.7098(2) 0.15684(19)
H13 H 1.4073 0.7021 0.1290
C10 C 1.2958(11) 0.6738(3) 0.2143(3)
H14 H 1.4257 0.6420 0.2250
C11 C 1.1181(12) 0.6844(3) 0.2556(2)
H15 H 1.1247 0.6597 0.2944
C12 C 0.9344(10) 0.7306(4) 0.2394(2)
H16 H 0.8122 0.7380 0.2675
C13 C 0.9212(7) 0.7677(3) 0.18224(17)
H17 H 0.7919 0.8003 0.1724
C14 C 0.3025(11) 0.9730(4) 0.1926(2)
H18 H 0.1564 0.9951 0.2088
H19 H 0.2627 0.9333 0.1606
C15 C 0.4210(13) 0.9314(3) 0.2405(3)
H20 H 0.5620 0.9069 0.2245
H21 H 0.3212 0.8890 0.2571
H22 H 0.4605 0.9701 0.2726
C16 C 0.4604(9) 1.2294(2) 0.1053(3)
H23 H 0.4403 1.2385 0.1493
H24 H 0.3075 1.2360 0.0860
C17 C 0.6082(15) 1.2905(4) 0.0824(4)
H25 H 0.7546 1.2891 0.1044
H26 H 0.5357 1.3436 0.0878
H27 H 0.6365 1.2809 0.0392
H28 H 0.837(6) 1.0048(17) 0.0672(12)
loop_
_geom_bond_atom_site_label_1
_geom_bond_atom_site_label_2
_geom_bond_site_symmetry_1
_geom_bond_site_symmetry_2
P1 O3 1_555 1_555
N1 C1 1_555 1_555
O1 C6 1_555 1_555
O2 C6 1_555 1_555
O4 P1 1_555 1_555
O5 P1 1_555 1_555
C1 P1 1_555 1_555
H1 C1 1_555 1_555
C2 C1 1_555 1_555
H2 C2 1_555 1_555
H3 C2 1_555 1_555
C3 C2 1_555 1_555
H4 C3 1_555 1_555
C4 C3 1_555 1_555
H5 C4 1_555 1_555
H6 C4 1_555 1_555
H7 C4 1_555 1_555
C5 C3 1_555 1_555
H8 C5 1_555 1_555
H9 C5 1_555 1_555
H10 C5 1_555 1_555
C6 N1 1_555 1_555
C7 O2 1_555 1_555
H11 C7 1_555 1_555
H12 C7 1_555 1_555
C8 C7 1_555 1_555
C9 C8 1_555 1_555
H13 C9 1_555 1_555
C10 C9 1_555 1_555
H14 C10 1_555 1_555
C11 C10 1_555 1_555
H15 C11 1_555 1_555
C12 C11 1_555 1_555
H16 C12 1_555 1_555
C13 C8 1_555 1_555
H17 C13 1_555 1_555
C14 O4 1_555 1_555
H18 C14 1_555 1_555
H19 C14 1_555 1_555
C15 C14 1_555 1_555
H20 C15 1_555 1_555
H21 C15 1_555 1_555
H22 C15 1_555 1_555
C16 O5 1_555 1_555
H23 C16 1_555 1_555
H24 C16 1_555 1_555
C17 C16 1_555 1_555
H25 C17 1_555 1_555
H26 C17 1_555 1_555
H27 C17 1_555 1_555
H28 N1 1_555 1_555
C12 C13 1_555 1_555

#END
