
#######################################################################
#
#                 Cambridge Crystallographic Data Centre
#                                CCDC 
#
#######################################################################
#
# If this CIF has been generated from an entry in the Cambridge 
# Structural Database, then it will include bibliographic, chemical, 
# crystal, experimental, refinement or atomic coordinate data resulting 
# from the CCDC's data processing and validation procedures.
#
#######################################################################

data_SAKLUL
_chemical_formula_moiety         'C5 H12 N8 O2'
_chemical_name_systematic        N,N'-Methylene-bis(N'-(diaminomethylene)urea)
_symmetry_cell_setting           monoclinic
_symmetry_space_group_name_H-M   'P 21/c'
_symmetry_Int_Tables_number      14
_space_group_name_Hall           '-P 2ybc'
loop_
_symmetry_equiv_pos_site_id
_symmetry_equiv_pos_as_xyz
1 x,y,z
2 -x,1/2+y,1/2-z
3 -x,-y,-z
4 x,1/2-y,1/2+z
_cell_length_a                   7.954(3)
_cell_length_b                   9.553(6)
_cell_length_c                   14.963(7)
_cell_angle_alpha                90
_cell_angle_beta                 123.76(3)
_cell_angle_gamma                90
_cell_volume                     945.235
_cell_formula_units_Z            4
loop_
_atom_site_label
_atom_site_type_symbol
_atom_site_fract_x
_atom_site_fract_y
_atom_site_fract_z
O1 O 0.7204(4) 0.9549(3) 0.5855(2)
O2 O 0.6661(4) 0.5605(3) 0.4907(2)
N1 N 1.0222(4) 0.9014(3) 0.6141(2)
N2 N 0.8699(5) 0.7186(4) 0.4853(3)
N3 N 0.9685(4) 1.1271(3) 0.6354(2)
N4 N 0.6688(5) 0.5921(4) 0.3365(3)
N5 N 0.4675(6) 0.4815(4) 0.1754(3)
N6 N 0.4376(7) 0.4151(5) 0.3136(3)
N7 N 0.6442(5) 1.2304(4) 0.5611(3)
N8 N 0.9351(3) 1.3603(3) 0.6531(3)
C1 C 0.9793(6) 0.7540(4) 0.5985(3)
C2 C 0.7306(5) 0.6175(4) 0.4400(3)
C3 C 0.8902(5) 0.9948(4) 0.6097(3)
C4 C 0.5279(5) 0.4949(4) 0.2795(3)
C5 C 0.8465(5) 1.2356(4) 0.6163(3)
H1 H 1.128(7) 0.935(5) 0.624(4)
H2 H 0.916(6) 0.761(5) 0.454(3)
H3 H 0.565(8) 0.521(6) 0.157(4)
H4 H 0.436(9) 0.409(6) 0.145(5)
H5 H 0.457(7) 0.428(5) 0.365(4)
H6 H 0.358(8) 0.386(6) 0.286(4)
H7 H 0.569(7) 1.306(5) 0.554(4)
H8 H 0.574(6) 1.156(5) 0.531(3)
H9 H 0.865(9) 1.432(6) 0.638(5)
H10 H 1.085(8) 1.374(6) 0.693(4)
H11 H 1.114(7) 0.700(5) 0.645(4)
H12 H 0.906(7) 0.719(5) 0.637(4)
loop_
_geom_bond_atom_site_label_1
_geom_bond_atom_site_label_2
_geom_bond_site_symmetry_1
_geom_bond_site_symmetry_2
O1 C3 1_555 1_555
O2 C2 1_555 1_555
N1 C1 1_555 1_555
N2 C1 1_555 1_555
N3 C3 1_555 1_555
N4 C2 1_555 1_555
N5 C4 1_555 1_555
N6 C4 1_555 1_555
N7 C5 1_555 1_555
N8 C5 1_555 1_555
C1 H11 1_555 1_555
C2 N2 1_555 1_555
C3 N1 1_555 1_555
C4 N4 1_555 1_555
C5 N3 1_555 1_555
H1 N1 1_555 1_555
H2 N2 1_555 1_555
H3 N5 1_555 1_555
H4 N5 1_555 1_555
H5 N6 1_555 1_555
H6 N6 1_555 1_555
H7 N7 1_555 1_555
H8 N7 1_555 1_555
H9 N8 1_555 1_555
H10 N8 1_555 1_555
H12 C1 1_555 1_555

#END
