
#######################################################################
#
#                 Cambridge Crystallographic Data Centre
#                                CCDC 
#
#######################################################################
#
# If this CIF has been generated from an entry in the Cambridge 
# Structural Database, then it will include bibliographic, chemical, 
# crystal, experimental, refinement or atomic coordinate data resulting 
# from the CCDC's data processing and validation procedures.
#
#######################################################################

data_SAKNAW
_chemical_formula_moiety         'C34 H50 B2 O4'
_chemical_name_systematic        
2,2'-(1,2-bis(4-t-butylphenyl)ethene-1,2-diyl)bis(4,4,5,5-tetramethyl-1,3,2-dioxaborolane)
_symmetry_cell_setting           triclinic
_symmetry_space_group_name_H-M   'P -1'
_symmetry_Int_Tables_number      2
_space_group_name_Hall           '-P 1'
loop_
_symmetry_equiv_pos_site_id
_symmetry_equiv_pos_as_xyz
1 x,y,z
2 -x,-y,-z
_cell_length_a                   10.991(18)
_cell_length_b                   12.54(2)
_cell_length_c                   13.97(4)
_cell_angle_alpha                108.83(5)
_cell_angle_beta                 103.58(5)
_cell_angle_gamma                104.77(3)
_cell_volume                     1653.03
_exptl_crystal_colour            colorless
_exptl_crystal_description       block
_cell_formula_units_Z            2
loop_
_atom_site_label
_atom_site_type_symbol
_atom_site_fract_x
_atom_site_fract_y
_atom_site_fract_z
B1 B 0.6333(7) 0.2491(7) -0.1090(5)
B2 B 0.9179(7) 0.2526(7) -0.0213(5)
C1 C 0.6943(6) 0.2485(5) -0.0014(4)
C2 C 0.8190(6) 0.2538(5) 0.0407(3)
C3 C 0.6059(6) 0.2492(5) 0.0684(4)
C4 C 0.4937(6) 0.1524(5) 0.0394(4)
H1 H 0.4641 0.0883 -0.0275
C5 C 0.4227(6) 0.1485(5) 0.1093(4)
H2 H 0.3482 0.0804 0.0901
C6 C 0.4619(6) 0.2442(5) 0.2061(4)
C7 C 0.5707(6) 0.3433(5) 0.2316(4)
H3 H 0.5976 0.4093 0.2968
C8 C 0.6416(6) 0.3480(5) 0.1630(4)
H4 H 0.7134 0.4176 0.1806
C9 C 0.3896(7) 0.2371(6) 0.2861(5)
C10 C 0.2458(10) 0.1749(11) 0.2327(6)
H5 H 0.2045 0.1703 0.2854
H6 H 0.2277 0.0949 0.1821
H7 H 0.2100 0.2184 0.1954
C11 C 0.4390(13) 0.1662(12) 0.3398(9)
H8 H 0.3948 0.1589 0.3903
H9 H 0.5340 0.2057 0.3774
H10 H 0.4208 0.0873 0.2871
C12 C 0.4223(13) 0.3568(9) 0.3687(8)
H11 H 0.3770 0.3500 0.4187
H12 H 0.3939 0.4066 0.3354
H13 H 0.5174 0.3926 0.4064
C13 C 0.8754(6) 0.2574(5) 0.1504(4)
C14 C 0.8140(6) 0.1674(5) 0.1758(4)
H14 H 0.7400 0.1020 0.1231
C15 C 0.8589(6) 0.1705(6) 0.2791(4)
H15 H 0.8168 0.1070 0.2945
C16 C 0.9692(6) 0.2712(5) 0.3600(4)
C17 C 1.0305(6) 0.3570(6) 0.3321(4)
H16 H 1.1072 0.4206 0.3834
C18 C 0.9847(6) 0.3555(6) 0.2290(4)
H17 H 1.0268 0.4192 0.2138
C19 C 1.0109(7) 0.2740(7) 0.4730(4)
C20 C 1.0460(8) 0.1685(7) 0.4750(5)
H18 H 0.9709 0.0957 0.4277
H19 H 1.0685 0.1725 0.5471
H20 H 1.1215 0.1687 0.4517
C21 C 1.1310(7) 0.3901(7) 0.5505(4)
H21 H 1.2075 0.3903 0.5286
H22 H 1.1514 0.3934 0.6224
H23 H 1.1091 0.4591 0.5491
C22 C 0.8960(7) 0.2792(7) 0.5149(4)
H24 H 0.8183 0.2079 0.4695
H25 H 0.8758 0.3492 0.5147
H26 H 0.9214 0.2838 0.5872
C23 C 0.4825(10) 0.2256(12) -0.2653(6)
C24 C 0.3721(9) 0.1078(8) -0.3502(8)
H27 H 0.4048 0.0425 -0.3583
H28 H 0.3466 0.1148 -0.4179
H29 H 0.2957 0.0922 -0.3278
C25 C 0.4290(12) 0.3361(11) -0.2498(8)
H30 H 0.4983 0.4092 -0.1952
H31 H 0.3518 0.3198 -0.2285
H32 H 0.4051 0.3453 -0.3166
C26 C 0.6080(9) 0.2573(8) -0.2726(5)
C27 C 0.6639(10) 0.3691(7) -0.2905(6)
H33 H 0.6574 0.4369 -0.2378
H34 H 0.6138 0.3580 -0.3614
H35 H 0.7563 0.3836 -0.2835
C28 C 0.6171(10) 0.1439(8) -0.3608(6)
H36 H 0.5813 0.0728 -0.3492
H37 H 0.7092 0.1578 -0.3547
H38 H 0.5664 0.1331 -0.4315
C29 C 1.0289(8) 0.1863(11) -0.1277(6)
C30 C 0.9911(8) 0.1397(7) -0.2487(4)
H39 H 0.9423 0.1840 -0.2750
H40 H 0.9361 0.0556 -0.2810
H41 H 1.0710 0.1499 -0.2671
C31 C 1.1104(10) 0.1207(8) -0.0769(8)
H42 H 1.1313 0.1541 -0.0002
H43 H 1.1920 0.1315 -0.0926
H44 H 1.0579 0.0361 -0.1065
C32 C 1.0990(9) 0.3119(10) -0.0678(6)
C33 C 1.2479(8) 0.3585(7) -0.0065(5)
H45 H 1.2657 0.3148 0.0369
H46 H 1.2775 0.4428 0.0390
H47 H 1.2951 0.3476 -0.0566
C34 C 1.0664(9) 0.3855(6) -0.1395(5)
H48 H 0.9715 0.3553 -0.1776
H49 H 1.1126 0.3756 -0.1903
H50 H 1.0955 0.4696 -0.0934
O1 O 0.5129(7) 0.2020(8) -0.1698(4)
O2 O 0.6926(6) 0.2834(7) -0.1658(4)
O3 O 0.9030(5) 0.1697(5) -0.1076(3)
O4 O 1.0331(6) 0.3356(5) 0.0094(4)
loop_
_geom_bond_atom_site_label_1
_geom_bond_atom_site_label_2
_geom_bond_site_symmetry_1
_geom_bond_site_symmetry_2
B1 C1 1_555 1_555
B2 C2 1_555 1_555
C1 C2 1_555 1_555
C2 C13 1_555 1_555
C3 C1 1_555 1_555
C4 C3 1_555 1_555
H1 C4 1_555 1_555
C5 C4 1_555 1_555
H2 C5 1_555 1_555
C6 C5 1_555 1_555
C7 C6 1_555 1_555
H3 C7 1_555 1_555
C8 C3 1_555 1_555
H4 C8 1_555 1_555
C9 C6 1_555 1_555
C10 C9 1_555 1_555
H5 C10 1_555 1_555
H6 C10 1_555 1_555
H7 C10 1_555 1_555
C11 C9 1_555 1_555
H8 C11 1_555 1_555
H9 C11 1_555 1_555
H10 C11 1_555 1_555
C12 C9 1_555 1_555
H11 C12 1_555 1_555
H12 C12 1_555 1_555
H13 C12 1_555 1_555
C13 C14 1_555 1_555
C14 H14 1_555 1_555
C15 C14 1_555 1_555
H15 C15 1_555 1_555
C16 C15 1_555 1_555
C17 C16 1_555 1_555
H16 C17 1_555 1_555
C18 C13 1_555 1_555
H17 C18 1_555 1_555
C19 C16 1_555 1_555
C20 C19 1_555 1_555
H18 C20 1_555 1_555
H19 C20 1_555 1_555
H20 C20 1_555 1_555
C21 C19 1_555 1_555
H21 C21 1_555 1_555
H22 C21 1_555 1_555
H23 C21 1_555 1_555
C22 C19 1_555 1_555
H24 C22 1_555 1_555
H25 C22 1_555 1_555
H26 C22 1_555 1_555
C23 C24 1_555 1_555
C24 H27 1_555 1_555
H28 C24 1_555 1_555
H29 C24 1_555 1_555
C25 C23 1_555 1_555
H30 C25 1_555 1_555
H31 C25 1_555 1_555
H32 C25 1_555 1_555
C26 C23 1_555 1_555
C27 C26 1_555 1_555
H33 C27 1_555 1_555
H34 C27 1_555 1_555
H35 C27 1_555 1_555
C28 C26 1_555 1_555
H36 C28 1_555 1_555
H37 C28 1_555 1_555
H38 C28 1_555 1_555
C29 C30 1_555 1_555
C30 H39 1_555 1_555
H40 C30 1_555 1_555
H41 C30 1_555 1_555
C31 C29 1_555 1_555
H42 C31 1_555 1_555
H43 C31 1_555 1_555
H44 C31 1_555 1_555
C32 C29 1_555 1_555
C33 C32 1_555 1_555
H45 C33 1_555 1_555
H46 C33 1_555 1_555
H47 C33 1_555 1_555
C34 C32 1_555 1_555
H48 C34 1_555 1_555
H49 C34 1_555 1_555
H50 C34 1_555 1_555
O1 B1 1_555 1_555
O2 B1 1_555 1_555
O3 B2 1_555 1_555
O4 B2 1_555 1_555
C7 C8 1_555 1_555
C17 C18 1_555 1_555
C23 O1 1_555 1_555
C26 O2 1_555 1_555
C29 O3 1_555 1_555
C32 O4 1_555 1_555

#END
