
#######################################################################
#
#                 Cambridge Crystallographic Data Centre
#                                CCDC 
#
#######################################################################
#
# If this CIF has been generated from an entry in the Cambridge 
# Structural Database, then it will include bibliographic, chemical, 
# crystal, experimental, refinement or atomic coordinate data resulting 
# from the CCDC's data processing and validation procedures.
#
#######################################################################

data_SAKQIG
_chemical_formula_moiety         'C21 H17 Br1 O4'
_chemical_name_systematic        
'Methyl 4-(4-bromophenyl)-2-hydroxy-3,4-dihydro-2H-benzo[h]chromene-2-carboxylate'
_symmetry_cell_setting           orthorhombic
_symmetry_space_group_name_H-M   'P 21 21 21'
_symmetry_Int_Tables_number      19
_space_group_name_Hall           'P 2ac 2ab'
loop_
_symmetry_equiv_pos_site_id
_symmetry_equiv_pos_as_xyz
1 x,y,z
2 1/2-x,-y,1/2+z
3 -x,1/2+y,1/2-z
4 1/2+x,1/2-y,-z
_cell_length_a                   7.170(9)
_cell_length_b                   9.739(13)
_cell_length_c                   25.97(3)
_cell_angle_alpha                90
_cell_angle_beta                 90
_cell_angle_gamma                90
_cell_volume                     1813.45
_exptl_crystal_colour            colorless
_exptl_crystal_description       block
_cell_formula_units_Z            4
loop_
_atom_site_label
_atom_site_type_symbol
_atom_site_fract_x
_atom_site_fract_y
_atom_site_fract_z
Br1 Br 1.19787(10) 0.46621(8) 0.24756(3)
C1 C 0.2718(11) 1.1791(8) 0.1444(3)
H1 H 0.2618 1.2192 0.1767
C2 C 0.2337(11) 1.2551(8) 0.1022(3)
H2 H 0.1951 1.3457 0.1059
C3 C 0.2522(11) 1.1979(8) 0.0530(3)
H3 H 0.2355 1.2534 0.0242
C4 C 0.2935(11) 1.0646(6) 0.0466(2)
H4 H 0.2973 1.0273 0.0136
C5 C 0.3316(8) 0.9801(7) 0.0901(2)
C6 C 0.3266(9) 1.0396(8) 0.1405(2)
C7 C 0.3794(8) 0.8356(6) 0.0859(2)
C8 C 0.4279(9) 0.7588(7) 0.1275(2)
C9 C 0.4206(9) 0.8232(8) 0.1771(2)
H5 H 0.4517 0.7719 0.2060
C10 C 0.3704(10) 0.9555(8) 0.1832(2)
H6 H 0.3645 0.9923 0.2162
C11 C 0.3462(9) 0.6362(6) 0.0345(2)
C12 C 0.5044(8) 0.5701(7) 0.06466(19)
H7 H 0.6234 0.6013 0.0514
H8 H 0.4988 0.4710 0.0610
C13 C 0.4861(9) 0.6097(7) 0.1219(2)
H9 H 0.3853 0.5537 0.1363
C14 C 0.3592(9) 0.6048(7) -0.0239(2)
C15 C 0.3010(11) 0.4340(8) -0.0872(2)
H10 H 0.2088 0.4824 -0.1069
H11 H 0.2768 0.3372 -0.0888
H12 H 0.4226 0.4527 -0.1010
C16 C 0.6649(11) 0.5719(7) 0.1512(2)
C17 C 0.6942(11) 0.4378(7) 0.1701(2)
H13 H 0.6044 0.3709 0.1640
C18 C 0.8521(10) 0.4032(8) 0.1975(2)
H14 H 0.8685 0.3148 0.2103
C19 C 0.9836(9) 0.5024(7) 0.2053(2)
C20 C 0.9642(10) 0.6331(8) 0.1855(2)
H15 H 1.0576 0.6980 0.1904
C21 C 0.8047(10) 0.6670(8) 0.1581(2)
H16 H 0.7920 0.7547 0.1444
O1 O 0.3673(6) 0.7838(4) 0.03661(13)
O2 O 0.1765(6) 0.5949(5) 0.05551(14)
H17 H 0.0928 0.6442 0.0445
O3 O 0.4175(7) 0.6818(5) -0.05573(15)
O4 O 0.2932(7) 0.4796(5) -0.03349(13)
loop_
_geom_bond_atom_site_label_1
_geom_bond_atom_site_label_2
_geom_bond_site_symmetry_1
_geom_bond_site_symmetry_2
Br1 C19 1_555 1_555
C1 H1 1_555 1_555
C2 C1 1_555 1_555
H2 C2 1_555 1_555
C3 C2 1_555 1_555
H3 C3 1_555 1_555
C4 C3 1_555 1_555
H4 C4 1_555 1_555
C5 C4 1_555 1_555
C6 C1 1_555 1_555
C7 C5 1_555 1_555
C8 C7 1_555 1_555
C9 C8 1_555 1_555
H5 C9 1_555 1_555
C10 C6 1_555 1_555
H6 C10 1_555 1_555
C11 C12 1_555 1_555
C12 H7 1_555 1_555
H8 C12 1_555 1_555
C13 C8 1_555 1_555
H9 C13 1_555 1_555
C14 C11 1_555 1_555
C15 H10 1_555 1_555
H11 C15 1_555 1_555
H12 C15 1_555 1_555
C16 C13 1_555 1_555
C17 C16 1_555 1_555
H13 C17 1_555 1_555
C18 C17 1_555 1_555
H14 C18 1_555 1_555
C19 C18 1_555 1_555
C20 C19 1_555 1_555
H15 C20 1_555 1_555
C21 C16 1_555 1_555
H16 C21 1_555 1_555
O1 C7 1_555 1_555
O2 C11 1_555 1_555
H17 O2 1_555 1_555
O3 C14 1_555 1_555
O4 C14 1_555 1_555
C5 C6 1_555 1_555
C9 C10 1_555 1_555
C11 O1 1_555 1_555
C12 C13 1_555 1_555
C15 O4 1_555 1_555
C20 C21 1_555 1_555

#END
