
#######################################################################
#
#                 Cambridge Crystallographic Data Centre
#                                CCDC 
#
#######################################################################
#
# If this CIF has been generated from an entry in the Cambridge 
# Structural Database, then it will include bibliographic, chemical, 
# crystal, experimental, refinement or atomic coordinate data resulting 
# from the CCDC's data processing and validation procedures.
#
#######################################################################

data_SAKRII
_chemical_formula_moiety         'C13 H20 O4'
_chemical_name_systematic        
10-hydroxy-4,7-dimethyloctahydro-8H,10H-furo[3,2-i][2]benzopyran-8-one
_symmetry_cell_setting           orthorhombic
_symmetry_space_group_name_H-M   'P 21 21 21'
_symmetry_Int_Tables_number      19
_space_group_name_Hall           'P 2ac 2ab'
loop_
_symmetry_equiv_pos_site_id
_symmetry_equiv_pos_as_xyz
1 x,y,z
2 1/2-x,-y,1/2+z
3 -x,1/2+y,1/2-z
4 1/2+x,1/2-y,-z
_cell_length_a                   6.347(7)
_cell_length_b                   12.002(12)
_cell_length_c                   16.532(16)
_cell_angle_alpha                90
_cell_angle_beta                 90
_cell_angle_gamma                90
_cell_volume                     1259.35
_exptl_crystal_colour            colorless
_exptl_crystal_description       'Thin plate'
_cell_formula_units_Z            4
_exptl_crystal_recrystallization_method Methanol
loop_
_atom_site_label
_atom_site_type_symbol
_atom_site_fract_x
_atom_site_fract_y
_atom_site_fract_z
O1 O 0.9640(9) 0.1404(3) 0.2145(3)
O2 O 0.7756(7) 0.2206(2) 0.1229(3)
O3 O 1.0037(5) 0.4230(2) 0.0313(2)
O4 O 0.7255(6) 0.2746(2) -0.0076(2)
H1 H 0.6472 0.2213 -0.0152
C1 C 0.7013(7) 0.5262(3) 0.0567(4)
H2 H 0.7894 0.5890 0.0738
C2 C 0.7233(10) 0.5217(4) -0.0355(4)
H3 H 0.6199 0.4720 -0.0593
H4 H 0.7086 0.5952 -0.0594
C3 C 0.9442(9) 0.4773(4) -0.0460(4)
H5 H 0.9487 0.4238 -0.0899
H6 H 1.0408 0.5376 -0.0583
C4 C 0.8215(6) 0.4220(3) 0.0834(3)
C5 C 0.8823(7) 0.4338(3) 0.1728(3)
H7 H 0.9639 0.5027 0.1784
C6 C 0.6779(8) 0.4480(4) 0.2218(4)
H8 H 0.5984 0.3790 0.2193
H9 H 0.7142 0.4611 0.2780
C7 C 0.5384(8) 0.5427(4) 0.1926(4)
H10 H 0.6055 0.6127 0.2065
H11 H 0.4057 0.5393 0.2215
C8 C 0.4913(9) 0.5427(4) 0.1005(4)
H12 H 0.3979 0.4800 0.0878
C9 C 1.0254(8) 0.3367(3) 0.1981(3)
H13 H 1.1535 0.3411 0.1652
C10 C 0.9216(8) 0.2257(4) 0.1797(4)
C11 C 0.7024(7) 0.3120(3) 0.0711(3)
H14 H 0.5523 0.3248 0.0816
C12 C 1.0937(10) 0.3415(4) 0.2877(4)
H15 H 1.1598 0.4119 0.2984
H16 H 1.1916 0.2824 0.2985
H17 H 0.9723 0.3332 0.3217
C13 C 0.3850(10) 0.6516(4) 0.0742(5)
H18 H 0.2547 0.6604 0.1030
H19 H 0.3575 0.6492 0.0172
H20 H 0.4763 0.7132 0.0861
loop_
_geom_bond_atom_site_label_1
_geom_bond_atom_site_label_2
_geom_bond_site_symmetry_1
_geom_bond_site_symmetry_2
O1 C10 1_555 1_555
O2 C10 1_555 1_555
O3 C3 1_555 1_555
O4 H1 1_555 1_555
C1 H2 1_555 1_555
C2 C1 1_555 1_555
H3 C2 1_555 1_555
H4 C2 1_555 1_555
C3 C2 1_555 1_555
H5 C3 1_555 1_555
H6 C3 1_555 1_555
C4 O3 1_555 1_555
C5 C4 1_555 1_555
H7 C5 1_555 1_555
C6 C5 1_555 1_555
H8 C6 1_555 1_555
H9 C6 1_555 1_555
C7 C6 1_555 1_555
H10 C7 1_555 1_555
H11 C7 1_555 1_555
C8 C1 1_555 1_555
H12 C8 1_555 1_555
C9 C5 1_555 1_555
H13 C9 1_555 1_555
C10 C9 1_555 1_555
C11 O2 1_555 1_555
H14 C11 1_555 1_555
C12 C9 1_555 1_555
H15 C12 1_555 1_555
H16 C12 1_555 1_555
H17 C12 1_555 1_555
C13 C8 1_555 1_555
H18 C13 1_555 1_555
H19 C13 1_555 1_555
H20 C13 1_555 1_555
O4 C11 1_555 1_555
C1 C4 1_555 1_555
C4 C11 1_555 1_555
C7 C8 1_555 1_555

#END
