
#######################################################################
#
#                 Cambridge Crystallographic Data Centre
#                                CCDC 
#
#######################################################################
#
# If this CIF has been generated from an entry in the Cambridge 
# Structural Database, then it will include bibliographic, chemical, 
# crystal, experimental, refinement or atomic coordinate data resulting 
# from the CCDC's data processing and validation procedures.
#
#######################################################################

data_SAKXEK
_chemical_formula_moiety         'C22 H16 N2 O4'
_chemical_name_systematic        
10-methyl-7-(4-methylphenyl)-7,9-dihydro-6H,8H-chromeno[3',4':5,6]pyrano[2,3-d]pyrimidine-6,8-dione
_symmetry_cell_setting           monoclinic
_symmetry_space_group_name_H-M   'P 21/c'
_symmetry_Int_Tables_number      14
_space_group_name_Hall           '-P 2ybc'
loop_
_symmetry_equiv_pos_site_id
_symmetry_equiv_pos_as_xyz
1 x,y,z
2 -x,1/2+y,1/2-z
3 -x,-y,-z
4 x,1/2-y,1/2+z
_cell_length_a                   13.764(3)
_cell_length_b                   8.8079(18)
_cell_length_c                   16.517(3)
_cell_angle_alpha                90
_cell_angle_beta                 114.28(3)
_cell_angle_gamma                90
_cell_volume                     1825.27
_exptl_crystal_colour            colorless
_exptl_crystal_description       plate
_cell_formula_units_Z            4
loop_
_atom_site_label
_atom_site_type_symbol
_atom_site_fract_x
_atom_site_fract_y
_atom_site_fract_z
O1 O 0.45912(15) 0.1532(2) 0.54404(12)
O2 O 0.32605(15) 0.53709(19) 0.32390(11)
O3 O 0.26790(15) 0.85321(19) 0.48345(11)
O4 O 0.31638(16) 0.6916(2) 0.59535(12)
N1 N 0.46534(17) 0.1363(2) 0.40857(14)
H1 H 0.4962 0.0469 0.4231
N2 N 0.40210(17) 0.3253(2) 0.30046(14)
C1 C 0.4371(2) 0.2100(3) 0.46973(16)
C2 C 0.4484(2) 0.1935(3) 0.32789(17)
C3 C 0.3723(2) 0.3991(3) 0.35851(16)
C4 C 0.3842(2) 0.3514(3) 0.44029(16)
C5 C 0.4856(2) 0.1007(3) 0.27066(18)
H2 H 0.5509 0.0464 0.3080
H3 H 0.5002 0.1673 0.2294
H4 H 0.4303 0.0272 0.2369
C6 C 0.3454(2) 0.4403(3) 0.49966(16)
H5 H 0.4044 0.4455 0.5605
C7 C 0.3206(2) 0.5983(3) 0.46309(16)
C8 C 0.3084(2) 0.6360(3) 0.38062(17)
C9 C 0.2711(2) 0.7832(3) 0.34325(16)
C10 C 0.2485(2) 0.8874(3) 0.39671(17)
C11 C 0.3027(2) 0.7117(3) 0.51938(17)
C12 C 0.2531(2) 0.8261(3) 0.25653(17)
H6 H 0.2688 0.7578 0.2191
C13 C 0.2124(2) 0.9688(3) 0.22578(18)
H7 H 0.2005 0.9984 0.1672
C14 C 0.1887(2) 1.0690(3) 0.28024(18)
H8 H 0.1601 1.1662 0.2582
C15 C 0.2062(2) 1.0287(3) 0.36579(18)
H9 H 0.1894 1.0968 0.4027
C16 C 0.2483(2) 0.3663(3) 0.50640(17)
C17 C 0.1457(2) 0.4007(3) 0.4470(2)
H10 H 0.1348 0.4672 0.3988
C18 C 0.0582(3) 0.3390(4) 0.4569(3)
H11 H -0.0116 0.3659 0.4158
C19 C 0.0702(3) 0.2398(3) 0.5251(2)
C20 C 0.1726(3) 0.2011(3) 0.5820(2)
H12 H 0.1832 0.1302 0.6282
C21 C 0.2606(2) 0.2629(3) 0.57371(18)
H13 H 0.3302 0.2343 0.6144
C22 C -0.0260(3) 0.1808(5) 0.5378(3)
H14 H -0.0481 0.2559 0.5706
H15 H -0.0075 0.0855 0.5713
H16 H -0.0846 0.1629 0.4797
loop_
_geom_bond_atom_site_label_1
_geom_bond_atom_site_label_2
_geom_bond_site_symmetry_1
_geom_bond_site_symmetry_2
O1 C1 1_555 1_555
O2 C3 1_555 1_555
O3 C10 1_555 1_555
O4 C11 1_555 1_555
N1 H1 1_555 1_555
N2 C2 1_555 1_555
C1 N1 1_555 1_555
C2 N1 1_555 1_555
C3 N2 1_555 1_555
C4 C1 1_555 1_555
C5 C2 1_555 1_555
H2 C5 1_555 1_555
H3 C5 1_555 1_555
H4 C5 1_555 1_555
C6 C4 1_555 1_555
H5 C6 1_555 1_555
C7 C6 1_555 1_555
C8 O2 1_555 1_555
C9 C8 1_555 1_555
C10 C9 1_555 1_555
C11 O3 1_555 1_555
C12 C9 1_555 1_555
H6 C12 1_555 1_555
C13 C12 1_555 1_555
H7 C13 1_555 1_555
C14 C13 1_555 1_555
H8 C14 1_555 1_555
C15 C10 1_555 1_555
H9 C15 1_555 1_555
C16 C6 1_555 1_555
C17 C16 1_555 1_555
H10 C17 1_555 1_555
C18 C17 1_555 1_555
H11 C18 1_555 1_555
C19 C18 1_555 1_555
C20 C19 1_555 1_555
H12 C20 1_555 1_555
C21 C16 1_555 1_555
H13 C21 1_555 1_555
C22 C19 1_555 1_555
H14 C22 1_555 1_555
H15 C22 1_555 1_555
H16 C22 1_555 1_555
C3 C4 1_555 1_555
C7 C8 1_555 1_555
C7 C11 1_555 1_555
C14 C15 1_555 1_555
C20 C21 1_555 1_555

#END
