
#######################################################################
#
#                 Cambridge Crystallographic Data Centre
#                                CCDC 
#
#######################################################################
#
# If this CIF has been generated from an entry in the Cambridge 
# Structural Database, then it will include bibliographic, chemical, 
# crystal, experimental, refinement or atomic coordinate data resulting 
# from the CCDC's data processing and validation procedures.
#
#######################################################################

data_SAKXIN
_chemical_formula_moiety         'C28 H19 N5 S2'
_chemical_name_systematic        
((7-(5-(bis(4-Methylphenyl)amino)-2-thienyl)-2,1,3-benzothiadiazol-4-yl)methylene)malononitrile
_symmetry_cell_setting           monoclinic
_symmetry_space_group_name_H-M   'P 21/c'
_symmetry_Int_Tables_number      14
_space_group_name_Hall           '-P 2ybc'
loop_
_symmetry_equiv_pos_site_id
_symmetry_equiv_pos_as_xyz
1 x,y,z
2 -x,1/2+y,1/2-z
3 -x,-y,-z
4 x,1/2-y,1/2+z
_cell_length_a                   7.6787(2)
_cell_length_b                   16.9340(4)
_cell_length_c                   18.3591(4)
_cell_angle_alpha                90
_cell_angle_beta                 92.984(2)
_cell_angle_gamma                90
_cell_volume                     2384.02
_cell_formula_units_Z            4
loop_
_atom_site_label
_atom_site_type_symbol
_atom_site_fract_x
_atom_site_fract_y
_atom_site_fract_z
S1 S 0.31247(6) 0.96784(3) 0.65158(2)
S2 S 0.06028(5) 0.90365(2) 0.32556(2)
N1 N 0.22636(17) 0.93228(8) 0.57657(7)
N2 N 0.38339(19) 1.05220(9) 0.62403(8)
N3 N 0.6794(3) 1.36752(11) 0.57116(13)
N4 N 0.5936(2) 1.25383(11) 0.36151(10)
N5 N -0.1120(2) 0.77346(8) 0.27583(8)
C1 C 0.25019(19) 0.98659(9) 0.52491(9)
C2 C 0.34061(19) 1.05600(10) 0.55217(9)
C3 C 0.3803(2) 1.12007(9) 0.50490(9)
C4 C 0.3211(2) 1.11157(10) 0.43233(9)
H1 H 0.3416 1.1524 0.4000
C5 C 0.2327(2) 1.04475(10) 0.40575(9)
H2 H 0.1967 1.0435 0.3566
C6 C 0.19513(19) 0.97972(9) 0.44887(9)
C7 C 0.1077(2) 0.91093(9) 0.41972(8)
C8 C 0.0465(2) 0.84471(9) 0.45419(9)
H3 H 0.0602 0.8371 0.5043
C9 C -0.0377(2) 0.79004(9) 0.40738(9)
H4 H -0.0851 0.7429 0.4232
C10 C -0.0432(2) 0.81354(9) 0.33498(9)
C11 C 0.4683(2) 1.18875(10) 0.53528(10)
H5 H 0.4722 1.1927 0.5859
C12 C 0.5460(2) 1.24829(10) 0.49981(11)
C13 C 0.6204(2) 1.31441(11) 0.54037(12)
C14 C 0.5695(2) 1.25108(10) 0.42292(11)
C15 C -0.1557(2) 0.69174(9) 0.28440(8)
C16 C -0.3290(2) 0.66851(10) 0.28153(9)
H6 H -0.4170 0.7051 0.2708
C17 C -0.3702(2) 0.59022(10) 0.29473(10)
H7 H -0.4866 0.5748 0.2929
C18 C -0.2415(2) 0.53434(9) 0.31057(9)
C19 C -0.0684(2) 0.55847(10) 0.31158(9)
H8 H 0.0197 0.5216 0.3209
C20 C -0.0248(2) 0.63658(10) 0.29898(9)
H9 H 0.0916 0.6519 0.3003
C21 C -0.2871(3) 0.45036(11) 0.32944(11)
H10 H -0.1820 0.4205 0.3388
H11 H -0.3543 0.4271 0.2894
H12 H -0.3542 0.4501 0.3721
C22 C -0.1337(2) 0.80953(9) 0.20568(9)
C23 C -0.2408(2) 0.87498(10) 0.19554(10)
H13 H -0.3016 0.8946 0.2341
C24 C -0.2569(2) 0.91110(10) 0.12762(10)
H14 H -0.3275 0.9554 0.1213
C25 C -0.1690(3) 0.88208(11) 0.06867(10)
C26 C -0.0635(3) 0.81591(11) 0.08016(10)
H15 H -0.0035 0.7957 0.0416
C27 C -0.0459(3) 0.77941(11) 0.14761(10)
H16 H 0.0245 0.7350 0.1540
C28 C -0.1855(3) 0.92177(14) -0.00473(11)
H17 H -0.1162 0.8939 -0.0384
H18 H -0.1453 0.9753 -0.0003
H19 H -0.3054 0.9214 -0.0224
loop_
_geom_bond_atom_site_label_1
_geom_bond_atom_site_label_2
_geom_bond_site_symmetry_1
_geom_bond_site_symmetry_2
S1 N1 1_555 1_555
S2 C7 1_555 1_555
N1 C1 1_555 1_555
N2 S1 1_555 1_555
N3 C13 1_555 1_555
N4 C14 1_555 1_555
N5 C10 1_555 1_555
C1 C2 1_555 1_555
C2 N2 1_555 1_555
C3 C2 1_555 1_555
C4 C3 1_555 1_555
H1 C4 1_555 1_555
C5 C4 1_555 1_555
H2 C5 1_555 1_555
C6 C1 1_555 1_555
C7 C6 1_555 1_555
C8 C7 1_555 1_555
H3 C8 1_555 1_555
C9 C8 1_555 1_555
H4 C9 1_555 1_555
C10 S2 1_555 1_555
C11 C3 1_555 1_555
H5 C11 1_555 1_555
C12 C11 1_555 1_555
C13 C12 1_555 1_555
C14 C12 1_555 1_555
C15 N5 1_555 1_555
C16 C15 1_555 1_555
H6 C16 1_555 1_555
C17 C16 1_555 1_555
H7 C17 1_555 1_555
C18 C17 1_555 1_555
C19 C18 1_555 1_555
H8 C19 1_555 1_555
C20 C15 1_555 1_555
H9 C20 1_555 1_555
C21 C18 1_555 1_555
H10 C21 1_555 1_555
H11 C21 1_555 1_555
H12 C21 1_555 1_555
C22 N5 1_555 1_555
C23 C22 1_555 1_555
H13 C23 1_555 1_555
C24 C23 1_555 1_555
H14 C24 1_555 1_555
C25 C24 1_555 1_555
C26 C25 1_555 1_555
H15 C26 1_555 1_555
C27 C22 1_555 1_555
H16 C27 1_555 1_555
C28 C25 1_555 1_555
H17 C28 1_555 1_555
H18 C28 1_555 1_555
H19 C28 1_555 1_555
C5 C6 1_555 1_555
C9 C10 1_555 1_555
C19 C20 1_555 1_555
C26 C27 1_555 1_555

#END
