
#######################################################################
#
#                 Cambridge Crystallographic Data Centre
#                                CCDC 
#
#######################################################################
#
# If this CIF has been generated from an entry in the Cambridge 
# Structural Database, then it will include bibliographic, chemical, 
# crystal, experimental, refinement or atomic coordinate data resulting 
# from the CCDC's data processing and validation procedures.
#
#######################################################################

data_SALDOA
_chemical_formula_moiety         'C21 H17 N1 O4'
_chemical_name_systematic        
7-(1,3-Benzodioxol-5-yl)-5-benzyl-3,5-dihydrofuro[3,2-c]pyridin-4(2H)-one
_symmetry_cell_setting           monoclinic
_symmetry_space_group_name_H-M   'P 21/c'
_symmetry_Int_Tables_number      14
_space_group_name_Hall           '-P 2ybc'
loop_
_symmetry_equiv_pos_site_id
_symmetry_equiv_pos_as_xyz
1 x,y,z
2 -x,1/2+y,1/2-z
3 -x,-y,-z
4 x,1/2-y,1/2+z
_cell_length_a                   19.023(5)
_cell_length_b                   8.279(5)
_cell_length_c                   11.214(5)
_cell_angle_alpha                90
_cell_angle_beta                 103.913(5)
_cell_angle_gamma                90
_cell_volume                     1714.29
_exptl_crystal_colour            colorless
_exptl_crystal_description       block
_chemical_melting_point          '210-212 deg.C'
_cell_formula_units_Z            4
loop_
_atom_site_label
_atom_site_type_symbol
_atom_site_fract_x
_atom_site_fract_y
_atom_site_fract_z
C1 C 0.69984(14) 0.3440(3) 1.1844(2)
H1 H 0.6816 0.3026 1.2479
C2 C 0.76765(14) 0.4095(3) 1.2134(2)
C3 C 0.79120(15) 0.4663(3) 1.1110(2)
C4 C 0.86311(18) 0.5758(4) 0.9971(3)
H2 H 0.9014 0.5138 0.9750
H3 H 0.8742 0.6897 0.9928
C5 C 0.78976(17) 0.5371(4) 0.9087(3)
H4 H 0.7658 0.6342 0.8708
H5 H 0.7952 0.4620 0.8451
C6 C 0.74959(15) 0.4620(3) 0.9943(2)
C7 C 0.67953(15) 0.3953(3) 0.9663(2)
C8 C 0.58658(14) 0.2534(3) 1.0454(2)
H6 H 0.5509 0.3168 0.9879
H7 H 0.5713 0.2467 1.1218
C9 C 0.58928(13) 0.0855(3) 0.9942(2)
C10 C 0.56117(14) 0.0549(3) 0.8706(2)
H8 H 0.5398 0.1382 0.8188
C11 C 0.56456(16) -0.0979(4) 0.8234(3)
H9 H 0.5454 -0.1171 0.7402
C12 C 0.59597(17) -0.2212(4) 0.8987(3)
H10 H 0.5993 -0.3237 0.8665
C13 C 0.62258(16) -0.1931(4) 1.0219(3)
H11 H 0.6429 -0.2775 1.0735
C14 C 0.61940(15) -0.0406(3) 1.0696(2)
H12 H 0.6377 -0.0226 1.1531
C15 C 0.81080(15) 0.4167(3) 1.3424(2)
C16 C 0.78226(16) 0.4783(4) 1.4344(2)
H13 H 0.7352 0.5185 1.4150
C17 C 0.82262(18) 0.4817(4) 1.5571(2)
H14 H 0.8033 0.5234 1.6194
C18 C 0.89093(17) 0.4216(3) 1.5807(2)
C19 C 1.0001(2) 0.3223(5) 1.6675(3)
H15 H 1.0459 0.3762 1.7011
H16 H 1.0017 0.2167 1.7056
C20 C 0.91926(16) 0.3581(4) 1.4906(3)
C21 C 0.88129(15) 0.3539(4) 1.3714(2)
H17 H 0.9015 0.3106 1.3108
O1 O 0.94223(14) 0.4147(3) 1.69264(17)
O2 O 0.98895(12) 0.3055(3) 1.5389(2)
O3 O 0.85775(11) 0.5336(2) 1.12167(16)
O4 O 0.63725(10) 0.3876(2) 0.86228(15)
N1 N 0.65734(11) 0.3358(2) 1.06817(17)
loop_
_geom_bond_atom_site_label_1
_geom_bond_atom_site_label_2
_geom_bond_site_symmetry_1
_geom_bond_site_symmetry_2
C1 H1 1_555 1_555
C2 C1 1_555 1_555
C3 C2 1_555 1_555
C4 H2 1_555 1_555
H3 C4 1_555 1_555
C5 C4 1_555 1_555
H4 C5 1_555 1_555
H5 C5 1_555 1_555
C6 C3 1_555 1_555
C7 C6 1_555 1_555
C8 H6 1_555 1_555
H7 C8 1_555 1_555
C9 C8 1_555 1_555
C10 C9 1_555 1_555
H8 C10 1_555 1_555
C11 C10 1_555 1_555
H9 C11 1_555 1_555
C12 C11 1_555 1_555
H10 C12 1_555 1_555
C13 C12 1_555 1_555
H11 C13 1_555 1_555
C14 C9 1_555 1_555
H12 C14 1_555 1_555
C15 C2 1_555 1_555
C16 C15 1_555 1_555
H13 C16 1_555 1_555
C17 C16 1_555 1_555
H14 C17 1_555 1_555
C18 C17 1_555 1_555
C19 H15 1_555 1_555
H16 C19 1_555 1_555
C20 C18 1_555 1_555
C21 C15 1_555 1_555
H17 C21 1_555 1_555
O1 C18 1_555 1_555
O2 C19 1_555 1_555
O3 C3 1_555 1_555
O4 C7 1_555 1_555
N1 C1 1_555 1_555
C4 O3 1_555 1_555
C5 C6 1_555 1_555
C7 N1 1_555 1_555
C8 N1 1_555 1_555
C13 C14 1_555 1_555
C19 O1 1_555 1_555
C20 C21 1_555 1_555
C20 O2 1_555 1_555

#END
