
#######################################################################
#
#                 Cambridge Crystallographic Data Centre
#                                CCDC 
#
#######################################################################
#
# If this CIF has been generated from an entry in the Cambridge 
# Structural Database, then it will include bibliographic, chemical, 
# crystal, experimental, refinement or atomic coordinate data resulting 
# from the CCDC's data processing and validation procedures.
#
#######################################################################

data_SALGOD
_chemical_formula_moiety         'C17 H21 B1 F2 N2 O1'
_chemical_name_systematic        
N,N-Diethyl-5,5-difluoro-1,3-dimethyl-5H-4\l^5^,5\l^5^-pyrrolo[1,2-c][1,3,2]benzoxazaborepin-8-amine
_symmetry_cell_setting           monoclinic
_symmetry_space_group_name_H-M   'P 21/c'
_symmetry_Int_Tables_number      14
_space_group_name_Hall           '-P 2ybc'
loop_
_symmetry_equiv_pos_site_id
_symmetry_equiv_pos_as_xyz
1 x,y,z
2 -x,1/2+y,1/2-z
3 -x,-y,-z
4 x,1/2-y,1/2+z
_cell_length_a                   9.0254(19)
_cell_length_b                   11.308(2)
_cell_length_c                   16.035(4)
_cell_angle_alpha                90
_cell_angle_beta                 93.845(6)
_cell_angle_gamma                90
_cell_volume                     1632.84
_exptl_crystal_colour            'dark red'
_exptl_crystal_description       platy
_cell_formula_units_Z            4
loop_
_atom_site_label
_atom_site_type_symbol
_atom_site_fract_x
_atom_site_fract_y
_atom_site_fract_z
B1 B 0.4459(4) 0.2413(3) 0.9373(2)
O1 O 0.4342(2) 0.33852(19) 0.88013(12)
F1 F 0.5598(2) 0.17018(18) 0.91712(12)
F2 F 0.3130(2) 0.17495(18) 0.93130(13)
N1 N 0.4681(2) 0.28312(19) 1.03065(13)
N2 N 0.1202(3) 0.5456(2) 0.68377(16)
C1 C 0.2527(3) 0.4709(2) 0.93534(17)
C2 C 0.3171(3) 0.4120(3) 0.86783(17)
C3 C 0.2702(3) 0.4358(3) 0.78659(18)
H1 H 0.3111 0.3930 0.7442
C4 C 0.1626(3) 0.5223(3) 0.76461(18)
C5 C 0.1016(3) 0.5839(3) 0.8316(2)
H2 H 0.0309 0.6425 0.8201
C6 C 0.1453(3) 0.5579(3) 0.9119(2)
H3 H 0.1023 0.5996 0.9541
C7 C 0.2923(3) 0.4530(3) 1.02098(18)
H4 H 0.2453 0.5051 1.0555
C8 C 0.3855(3) 0.3752(2) 1.06436(17)
C9 C 0.4164(3) 0.3744(3) 1.15344(17)
C10 C 0.5155(3) 0.2853(3) 1.17043(18)
H5 H 0.5562 0.2645 1.2232
C11 C 0.5458(3) 0.2301(3) 1.09475(17)
C12 C 0.3518(4) 0.4576(3) 1.21410(19)
H6 H 0.3769 0.4310 1.2701
H7 H 0.2458 0.4596 1.2041
H8 H 0.3914 0.5354 1.2069
C13 C 0.6478(4) 0.1283(3) 1.0859(2)
H9 H 0.5914 0.0599 1.0679
H10 H 0.7002 0.1123 1.1388
H11 H 0.7177 0.1470 1.0453
C14 C 0.1812(4) 0.4797(3) 0.61519(19)
H12 H 0.2864 0.4669 0.6283
H13 H 0.1705 0.5270 0.5647
C15 C 0.1064(4) 0.3618(4) 0.5990(3)
H14 H 0.1227 0.3124 0.6474
H15 H 0.1473 0.3245 0.5519
H16 H 0.0017 0.3737 0.5874
C16 C 0.0114(4) 0.6382(3) 0.6591(2)
H17 H -0.0624 0.6423 0.7003
H18 H -0.0392 0.6171 0.6059
C17 C 0.0819(5) 0.7577(4) 0.6515(4)
H19 H 0.1264 0.7815 0.7049
H20 H 0.0076 0.8142 0.6328
H21 H 0.1569 0.7537 0.6118
loop_
_geom_bond_atom_site_label_1
_geom_bond_atom_site_label_2
_geom_bond_site_symmetry_1
_geom_bond_site_symmetry_2
B1 O1 1_555 1_555
O1 C2 1_555 1_555
F1 B1 1_555 1_555
F2 B1 1_555 1_555
N1 B1 1_555 1_555
N2 C4 1_555 1_555
C1 C2 1_555 1_555
C2 C3 1_555 1_555
C3 H1 1_555 1_555
C4 C3 1_555 1_555
C5 C4 1_555 1_555
H2 C5 1_555 1_555
C6 C1 1_555 1_555
H3 C6 1_555 1_555
C7 C1 1_555 1_555
H4 C7 1_555 1_555
C8 N1 1_555 1_555
C9 C8 1_555 1_555
C10 C9 1_555 1_555
H5 C10 1_555 1_555
C11 N1 1_555 1_555
C12 C9 1_555 1_555
H6 C12 1_555 1_555
H7 C12 1_555 1_555
H8 C12 1_555 1_555
C13 C11 1_555 1_555
H9 C13 1_555 1_555
H10 C13 1_555 1_555
H11 C13 1_555 1_555
C14 N2 1_555 1_555
H12 C14 1_555 1_555
H13 C14 1_555 1_555
C15 C14 1_555 1_555
H14 C15 1_555 1_555
H15 C15 1_555 1_555
H16 C15 1_555 1_555
C16 N2 1_555 1_555
H17 C16 1_555 1_555
H18 C16 1_555 1_555
C17 C16 1_555 1_555
H19 C17 1_555 1_555
H20 C17 1_555 1_555
H21 C17 1_555 1_555
C5 C6 1_555 1_555
C7 C8 1_555 1_555
C10 C11 1_555 1_555

#END
