
#######################################################################
#
#                 Cambridge Crystallographic Data Centre
#                                CCDC 
#
#######################################################################
#
# If this CIF has been generated from an entry in the Cambridge 
# Structural Database, then it will include bibliographic, chemical, 
# crystal, experimental, refinement or atomic coordinate data resulting 
# from the CCDC's data processing and validation procedures.
#
#######################################################################

data_SALGUJ
_chemical_formula_moiety         'C22 H24 B1 F2 N2 O1 S1'
_chemical_name_systematic        
N,N-Diethyl-5,5-difluoro-1-methyl-3-(2-(thiophen-2(3H)-ylidene)ethylidene)-3H-5\l^5^-pyrrolo[1,2-c][1,3,2]benzoxazaborepin-8-amine
_symmetry_cell_setting           monoclinic
_symmetry_space_group_name_H-M   'C 2/c'
_symmetry_Int_Tables_number      15
_space_group_name_Hall           '-C 2yn'
loop_
_symmetry_equiv_pos_site_id
_symmetry_equiv_pos_as_xyz
1 x,y,z
2 -x,y,1/2-z
3 1/2+x,1/2+y,z
4 1/2-x,1/2+y,1/2-z
5 -x,-y,-z
6 x,-y,1/2+z
7 1/2-x,1/2-y,-z
8 1/2+x,1/2-y,1/2+z
_cell_length_a                   20.366(9)
_cell_length_b                   7.556(3)
_cell_length_c                   27.882(12)
_cell_angle_alpha                90
_cell_angle_beta                 106.43(3)
_cell_angle_gamma                90
_cell_volume                     4115.43
_exptl_crystal_colour            yellow
_exptl_crystal_description       block
_cell_formula_units_Z            8
loop_
_atom_site_label
_atom_site_type_symbol
_atom_site_fract_x
_atom_site_fract_y
_atom_site_fract_z
S1 S 1.00571(7) -0.0674(2) 1.09173(5)
O1 O 0.75398(14) -0.1049(4) 0.87411(9)
C1 C 0.6563(2) 0.0457(6) 0.75134(14)
C2 C 0.7041(2) -0.0222(6) 0.83937(14)
C3 C 0.6510(2) 0.0687(6) 0.85208(14)
C4 C 0.7060(2) -0.0349(6) 0.79085(13)
H1 H 0.7412 -0.0987 0.7838
C5 C 0.6004(2) 0.1435(6) 0.81157(15)
H2 H 0.5638 0.2014 0.8184
C6 C 0.7775(2) -0.0057(7) 0.69304(18)
H3 H 0.7721 0.1048 0.6753
H4 H 0.8033 -0.0860 0.6787
H5 H 0.8014 0.0139 0.7276
C7 C 0.6021(2) 0.1359(6) 0.76295(15)
H6 H 0.5679 0.1895 0.7378
C8 C 0.7080(2) -0.0840(6) 0.68904(15)
H7 H 0.6877 -0.1214 0.6548
H8 H 0.7141 -0.1888 0.7099
C9 C 0.6212(2) 0.1519(7) 0.66410(15)
H9 H 0.6502 0.1888 0.6437
H10 H 0.6086 0.2569 0.6795
N1 N 0.66014(17) 0.0339(5) 0.70341(11)
N2 N 0.75404(17) -0.0078(5) 0.95887(11)
C10 C 0.6424(2) 0.0768(6) 0.90035(14)
H11 H 0.5994 0.1170 0.9009
C11 C 0.7766(2) -0.0255(6) 1.00881(14)
C12 C 0.6845(2) 0.0373(6) 0.94638(14)
C13 C 0.8471(2) -0.0555(6) 1.03600(14)
H12 H 0.8796 -0.0541 1.0183
C14 C 0.7217(2) 0.0026(6) 1.02944(15)
H13 H 0.7243 -0.0042 1.0632
C15 C 0.6648(2) 0.0409(6) 0.99226(15)
B1 B 0.7956(3) -0.0175(8) 0.91873(17)
F1 F 0.81182(12) 0.1520(4) 0.90834(8)
F2 F 0.85325(12) -0.1189(4) 0.93694(8)
C16 C 0.9377(2) -0.1011(6) 1.11515(15)
C17 C 0.8683(2) -0.0851(6) 1.08492(15)
H14 H 0.8345 -0.0967 1.1012
C18 C 0.9590(2) -0.1425(6) 1.16937(15)
H15 H 0.9410 -0.0555 1.1879
H16 H 0.9429 -0.2588 1.1755
C19 C 1.0620(3) -0.0996(7) 1.14774(19)
H17 H 1.1091 -0.0920 1.1533
C20 C 1.0325(3) -0.1373(8) 1.18385(19)
H18 H 1.0584 -0.1591 1.2166
C21 C 0.5571(3) 0.0683(7) 0.63075(17)
H19 H 0.5693 -0.0302 0.6133
H20 H 0.5325 0.1541 0.6070
H21 H 0.5287 0.0278 0.6508
C22 C 0.5949(2) 0.0796(8) 0.99702(17)
H22 H 0.5659 -0.0214 0.9862
H23 H 0.5760 0.1798 0.9766
H24 H 0.5980 0.1052 1.0313
loop_
_geom_bond_atom_site_label_1
_geom_bond_atom_site_label_2
_geom_bond_site_symmetry_1
_geom_bond_site_symmetry_2
S1 C16 1_555 1_555
O1 C2 1_555 1_555
C1 C4 1_555 1_555
C2 C3 1_555 1_555
C3 C5 1_555 1_555
C4 C2 1_555 1_555
H1 C4 1_555 1_555
C5 H2 1_555 1_555
C6 H3 1_555 1_555
H4 C6 1_555 1_555
H5 C6 1_555 1_555
C7 C1 1_555 1_555
H6 C7 1_555 1_555
C8 C6 1_555 1_555
H7 C8 1_555 1_555
H8 C8 1_555 1_555
C9 H9 1_555 1_555
H10 C9 1_555 1_555
N1 C1 1_555 1_555
N2 C11 1_555 1_555
C10 C3 1_555 1_555
H11 C10 1_555 1_555
C11 C13 1_555 1_555
C12 N2 1_555 1_555
C13 H12 1_555 1_555
C14 C11 1_555 1_555
H13 C14 1_555 1_555
C15 C12 1_555 1_555
B1 O1 1_555 1_555
F1 B1 1_555 1_555
F2 B1 1_555 1_555
C16 C17 1_555 1_555
C17 C13 1_555 1_555
H14 C17 1_555 1_555
C18 C16 1_555 1_555
H15 C18 1_555 1_555
H16 C18 1_555 1_555
C19 S1 1_555 1_555
H17 C19 1_555 1_555
C20 C18 1_555 1_555
H18 C20 1_555 1_555
C21 C9 1_555 1_555
H19 C21 1_555 1_555
H20 C21 1_555 1_555
H21 C21 1_555 1_555
C22 C15 1_555 1_555
H22 C22 1_555 1_555
H23 C22 1_555 1_555
H24 C22 1_555 1_555
C5 C7 1_555 1_555
C8 N1 1_555 1_555
C9 N1 1_555 1_555
N2 B1 1_555 1_555
C10 C12 1_555 1_555
C14 C15 1_555 1_555
C19 C20 1_555 1_555

#END
