
#######################################################################
#
#                 Cambridge Crystallographic Data Centre
#                                CCDC 
#
#######################################################################
#
# If this CIF has been generated from an entry in the Cambridge 
# Structural Database, then it will include bibliographic, chemical, 
# crystal, experimental, refinement or atomic coordinate data resulting 
# from the CCDC's data processing and validation procedures.
#
#######################################################################

data_SALHAQ
_chemical_formula_moiety         'C20 H22 B1 F2 N3'
_chemical_name_systematic        
2-(5,5-Difluoro-1,3,7,9-tetramethyl-5H-6\l^5^,5\l^5^-dipyrrolo[1,2-c:2',1'-f][1,3,2]diazaborinin-10-yl)-N-methylaniline
_symmetry_cell_setting           orthorhombic
_symmetry_space_group_name_H-M   'P b c a'
_symmetry_Int_Tables_number      61
_space_group_name_Hall           '-P 2ac 2ab'
loop_
_symmetry_equiv_pos_site_id
_symmetry_equiv_pos_as_xyz
1 x,y,z
2 1/2-x,-y,1/2+z
3 -x,1/2+y,1/2-z
4 1/2+x,1/2-y,-z
5 -x,-y,-z
6 1/2+x,y,1/2-z
7 x,1/2-y,1/2+z
8 1/2-x,1/2+y,z
_cell_length_a                   12.7459(15)
_cell_length_b                   12.7700(13)
_cell_length_c                   23.352(3)
_cell_angle_alpha                90
_cell_angle_beta                 90
_cell_angle_gamma                90
_cell_volume                     3800.89
_exptl_crystal_colour            red
_exptl_crystal_description       platy
_cell_formula_units_Z            8
loop_
_atom_site_label
_atom_site_type_symbol
_atom_site_fract_x
_atom_site_fract_y
_atom_site_fract_z
B1 B 0.1233(3) 0.1038(3) 1.03183(14)
F1 F 0.06568(17) 0.02742(15) 1.06112(7)
F2 F 0.16989(16) 0.16888(15) 1.07225(7)
N1 N 0.2072(2) 0.05156(19) 0.99385(10)
N2 N 0.0504(2) 0.1667(2) 0.99211(10)
C1 C 0.2849(3) -0.0128(3) 1.01120(14)
C2 C 0.3458(3) -0.0408(3) 0.96413(17)
H1 H 0.4036 -0.0851 0.9649
C3 C 0.3059(3) 0.0082(3) 0.91615(14)
C4 C 0.2173(3) 0.0661(2) 0.93452(12)
C5 C 0.1445(3) 0.1273(2) 0.90467(12)
C6 C 0.0607(3) 0.1754(3) 0.93259(13)
C7 C -0.0272(3) 0.2335(3) 0.91184(15)
C8 C -0.0861(3) 0.2583(3) 0.95884(17)
H2 H -0.1480 0.2968 0.9584
C9 C -0.0382(3) 0.2164(3) 1.00792(15)
N3 N 0.0438(3) -0.0079(3) 0.82524(15)
C10 C 0.1555(3) 0.1411(3) 0.84102(13)
C11 C 0.1032(3) 0.0716(3) 0.80364(14)
C12 C 0.1169(4) 0.0871(4) 0.74470(15)
H3 H 0.0846 0.0419 0.7189
C13 C 0.1772(4) 0.1677(4) 0.72451(16)
H4 H 0.1846 0.1763 0.6852
C14 C 0.2274(4) 0.2368(4) 0.76111(16)
H5 H 0.2676 0.2917 0.7469
C15 C 0.2158(3) 0.2217(3) 0.81934(13)
H6 H 0.2495 0.2669 0.8446
C16 C -0.0276(5) -0.0707(4) 0.79118(17)
H7 H -0.0757 -0.0255 0.7714
H8 H -0.0659 -0.1172 0.8158
H9 H 0.0117 -0.1108 0.7638
C17 C 0.3517(4) -0.0009(3) 0.85684(16)
H10 H 0.4080 -0.0509 0.8572
H11 H 0.3781 0.0660 0.8449
H12 H 0.2983 -0.0237 0.8307
C18 C 0.2993(4) -0.0467(3) 1.07199(16)
H13 H 0.3003 0.0138 1.0964
H14 H 0.3644 -0.0839 1.0756
H15 H 0.2423 -0.0916 1.0829
C19 C -0.0568(3) 0.2609(3) 0.85147(16)
H16 H -0.0766 0.1984 0.8313
H17 H 0.0020 0.2928 0.8326
H18 H -0.1147 0.3089 0.8519
C20 C -0.0764(4) 0.2225(4) 1.06801(17)
H19 H -0.1084 0.1571 1.0784
H20 H -0.1271 0.2778 1.0713
H21 H -0.0185 0.2364 1.0931
H22 H 0.026(3) -0.001(3) 0.8610(17)
loop_
_geom_bond_atom_site_label_1
_geom_bond_atom_site_label_2
_geom_bond_site_symmetry_1
_geom_bond_site_symmetry_2
B1 F1 1_555 1_555
F2 B1 1_555 1_555
N1 B1 1_555 1_555
N2 B1 1_555 1_555
C1 N1 1_555 1_555
C2 C1 1_555 1_555
H1 C2 1_555 1_555
C3 C2 1_555 1_555
C4 N1 1_555 1_555
C5 C4 1_555 1_555
C6 N2 1_555 1_555
C7 C6 1_555 1_555
C8 C7 1_555 1_555
H2 C8 1_555 1_555
C9 N2 1_555 1_555
N3 C11 1_555 1_555
C10 C5 1_555 1_555
C11 C10 1_555 1_555
C12 C11 1_555 1_555
H3 C12 1_555 1_555
C13 C12 1_555 1_555
H4 C13 1_555 1_555
C14 C13 1_555 1_555
H5 C14 1_555 1_555
C15 C10 1_555 1_555
H6 C15 1_555 1_555
C16 N3 1_555 1_555
H7 C16 1_555 1_555
H8 C16 1_555 1_555
H9 C16 1_555 1_555
C17 C3 1_555 1_555
H10 C17 1_555 1_555
H11 C17 1_555 1_555
H12 C17 1_555 1_555
C18 C1 1_555 1_555
H13 C18 1_555 1_555
H14 C18 1_555 1_555
H15 C18 1_555 1_555
C19 C7 1_555 1_555
H16 C19 1_555 1_555
H17 C19 1_555 1_555
H18 C19 1_555 1_555
C20 C9 1_555 1_555
H19 C20 1_555 1_555
H20 C20 1_555 1_555
H21 C20 1_555 1_555
H22 N3 1_555 1_555
C3 C4 1_555 1_555
C5 C6 1_555 1_555
C8 C9 1_555 1_555
C14 C15 1_555 1_555

#END
