
#######################################################################
#
#                 Cambridge Crystallographic Data Centre
#                                CCDC 
#
#######################################################################
#
# If this CIF has been generated from an entry in the Cambridge 
# Structural Database, then it will include bibliographic, chemical, 
# crystal, experimental, refinement or atomic coordinate data resulting 
# from the CCDC's data processing and validation procedures.
#
#######################################################################

data_SALIAZ11
_chemical_formula_moiety         'C14 H12 N2 O2'
_chemical_name_systematic        
2,2'-(Hydrazine-1,2-diylidenedimethylylidene)diphenol
_symmetry_cell_setting           monoclinic
_symmetry_space_group_name_H-M   'P 21/n'
_symmetry_Int_Tables_number      14
_space_group_name_Hall           '-P 2yn'
loop_
_symmetry_equiv_pos_site_id
_symmetry_equiv_pos_as_xyz
1 x,y,z
2 1/2-x,1/2+y,1/2-z
3 -x,-y,-z
4 1/2+x,1/2-y,1/2+z
_cell_length_a                   8.5168(8)
_cell_length_b                   6.3070(6)
_cell_length_c                   11.8129(11)
_cell_angle_alpha                90
_cell_angle_beta                 107.892(3)
_cell_angle_gamma                90
_cell_volume                     603.847
_exptl_crystal_colour            yellow
_exptl_crystal_description       block
_cell_formula_units_Z            2
loop_
_atom_site_label
_atom_site_type_symbol
_atom_site_fract_x
_atom_site_fract_y
_atom_site_fract_z
N1 N 0.50287(12) 0.08470(15) 0.03868(8)
C1 C 0.38081(14) 0.21215(19) 0.00224(9)
H1 H 0.3000 0.1855 -0.0697
C2 C 0.36622(14) 0.39708(18) 0.07088(9)
C3 C 0.48648(16) 0.4474(2) 0.17892(11)
C4 C 0.23107(16) 0.5320(2) 0.02919(12)
H2 H 0.1507 0.5009 -0.0423
C5 C 0.33451(19) 0.7583(2) 0.19684(13)
H3 H 0.3241 0.8795 0.2388
C6 C 0.46892(18) 0.6298(2) 0.23991(12)
H4 H 0.5493 0.6647 0.3107
C7 C 0.21405(18) 0.7101(2) 0.09160(14)
H5 H 0.1222 0.7972 0.0632
O1 O 0.61984(13) 0.3245(2) 0.22536(9)
H6 H 0.613(3) 0.215(4) 0.176(2)
N1B N 0.49713(12) -0.08470(15) -0.03868(8)
C1B C 0.61919(14) -0.21215(19) -0.00224(9)
H1B H 0.7000 -0.1855 0.0697
C2B C 0.63378(14) -0.39708(18) -0.07088(9)
C3B C 0.51352(16) -0.4474(2) -0.17892(11)
C4B C 0.76893(16) -0.5320(2) -0.02919(12)
H2B H 0.8493 -0.5009 0.0423
C5B C 0.66549(19) -0.7583(2) -0.19684(13)
H3B H 0.6759 -0.8795 -0.2388
C6B C 0.53108(18) -0.6298(2) -0.23991(12)
H4B H 0.4507 -0.6647 -0.3107
C7B C 0.78595(18) -0.7101(2) -0.09160(14)
H5B H 0.8778 -0.7972 -0.0632
O1B O 0.38016(13) -0.3245(2) -0.22536(9)
H6B H 0.387(3) -0.215(4) -0.176(2)
loop_
_geom_bond_atom_site_label_1
_geom_bond_atom_site_label_2
_geom_bond_site_symmetry_1
_geom_bond_site_symmetry_2
N1 C1 1_555 1_555
C1 H1 1_555 1_555
C2 C1 1_555 1_555
C3 C2 1_555 1_555
C4 C2 1_555 1_555
H2 C4 1_555 1_555
C5 H3 1_555 1_555
C6 C3 1_555 1_555
H4 C6 1_555 1_555
C7 C4 1_555 1_555
H5 C7 1_555 1_555
O1 C3 1_555 1_555
H6 O1 1_555 1_555
N1B N1 1_555 1_555
C1B N1B 1_555 1_555
H1B C1B 1_555 1_555
C2B C1B 1_555 1_555
C3B C2B 1_555 1_555
C4B C2B 1_555 1_555
H2B C4B 1_555 1_555
C5B H3B 1_555 1_555
C6B C3B 1_555 1_555
H4B C6B 1_555 1_555
C7B C4B 1_555 1_555
H5B C7B 1_555 1_555
O1B C3B 1_555 1_555
H6B O1B 1_555 1_555
C5 C6 1_555 1_555
C5 C7 1_555 1_555
C5B C6B 1_555 1_555
C5B C7B 1_555 1_555

#END
