
#######################################################################
#
#                 Cambridge Crystallographic Data Centre
#                                CCDC 
#
#######################################################################
#
# If this CIF has been generated from an entry in the Cambridge 
# Structural Database, then it will include bibliographic, chemical, 
# crystal, experimental, refinement or atomic coordinate data resulting 
# from the CCDC's data processing and validation procedures.
#
#######################################################################

data_SALKUM
_chemical_formula_moiety         'C25 H20 F1 N5 O1 S1'
_chemical_name_systematic        
6-(4-Fluorobenzylamino)-3-(methylthio)-1,5-diphenyl-1H-pyrazolo(3,4-d)pyrimidin-4(5H)-one
_symmetry_cell_setting           orthorhombic
_symmetry_space_group_name_H-M   'P b c a'
_symmetry_Int_Tables_number      61
_space_group_name_Hall           '-P 2ac 2ab'
loop_
_symmetry_equiv_pos_site_id
_symmetry_equiv_pos_as_xyz
1 x,y,z
2 1/2+x,y,1/2-z
3 x,1/2-y,1/2+z
4 1/2-x,1/2+y,z
5 -x,-y,-z
6 1/2-x,-y,1/2+z
7 -x,1/2+y,1/2-z
8 1/2+x,1/2-y,-z
_cell_length_a                   10.327(4)
_cell_length_b                   20.307(7)
_cell_length_c                   21.234(9)
_cell_angle_alpha                90
_cell_angle_beta                 90
_cell_angle_gamma                90
_cell_volume                     4452.99
_exptl_crystal_colour            colorless
_chemical_melting_point          '201.3-201.6 deg.C'
_cell_formula_units_Z            8
_exptl_crystal_recrystallization_method 'dichloromethane/petroleum ether'
loop_
_atom_site_label
_atom_site_type_symbol
_atom_site_fract_x
_atom_site_fract_y
_atom_site_fract_z
S1 S 0.47290(10) 0.14012(4) 0.67935(4)
F1 F -0.0214(2) 0.06331(10) 1.10441(11)
N1 N 0.2596(2) 0.27777(10) 0.83350(10)
N2 N 0.3678(2) 0.20963(10) 0.90791(10)
N3 N 0.5016(2) 0.12806(10) 0.85851(10)
N4 N 0.5336(2) 0.10809(10) 0.79798(11)
N5 N 0.2365(2) 0.29172(11) 0.94119(10)
H1 H 0.1867 0.3245 0.9327
O1 O 0.2698(2) 0.26093(10) 0.72770(9)
C1 C 0.3056(3) 0.24369(13) 0.77952(13)
C2 C 0.2907(3) 0.25827(13) 0.89402(13)
C3 C 0.4172(3) 0.17877(12) 0.85713(13)
C4 C 0.3915(3) 0.19230(12) 0.79502(13)
C5 C 0.4664(3) 0.14679(13) 0.76066(12)
C6 C 0.1748(3) 0.33313(13) 0.82291(13)
C7 C 0.2264(3) 0.39358(14) 0.81128(14)
H2 H 0.3157 0.3995 0.8105
C8 C 0.1444(4) 0.44596(15) 0.80065(16)
H3 H 0.1789 0.4873 0.7921
C9 C 0.0142(4) 0.43801(15) 0.80244(15)
H4 H -0.0404 0.4738 0.7957
C10 C -0.0360(3) 0.37737(15) 0.81414(15)
H5 H -0.1253 0.3718 0.8152
C11 C 0.0436(3) 0.32421(14) 0.82436(14)
H6 H 0.0087 0.2828 0.8322
C12 C 0.2593(3) 0.27434(13) 1.00602(12)
H7 H 0.2433 0.3128 1.0319
H8 H 0.3499 0.2628 1.0108
C13 C 0.1789(3) 0.21877(13) 1.03053(13)
C14 C 0.1753(3) 0.20832(16) 1.09417(14)
H9 H 0.2198 0.2369 1.1207
C15 C 0.1078(3) 0.15685(19) 1.11980(17)
H10 H 0.1057 0.1502 1.1631
C16 C 0.0440(3) 0.11571(17) 1.07994(19)
C17 C 0.0420(3) 0.12499(16) 1.01722(18)
H11 H -0.0047 0.0968 0.9912
C18 C 0.1102(3) 0.17673(15) 0.99253(14)
H12 H 0.1099 0.1835 0.9492
C19 C 0.5634(3) 0.09717(12) 0.91012(14)
C20 C 0.5113(3) 0.10053(13) 0.96955(14)
H13 H 0.4339 0.1228 0.9764
C21 C 0.5749(3) 0.07063(14) 1.01884(15)
H14 H 0.5401 0.0728 1.0592
C22 C 0.6881(4) 0.03782(15) 1.00913(18)
H15 H 0.7309 0.0182 1.0428
C23 C 0.7387(3) 0.03384(16) 0.94985(19)
H16 H 0.8153 0.0108 0.9431
C24 C 0.6772(3) 0.06357(14) 0.90004(16)
H17 H 0.7123 0.0610 0.8598
C25 C 0.5973(4) 0.07965(15) 0.67082(16)
H18 H 0.6723 0.0930 0.6943
H19 H 0.6196 0.0753 0.6271
H20 H 0.5668 0.0381 0.6865
loop_
_geom_bond_atom_site_label_1
_geom_bond_atom_site_label_2
_geom_bond_site_symmetry_1
_geom_bond_site_symmetry_2
S1 C5 1_555 1_555
F1 C16 1_555 1_555
N1 C1 1_555 1_555
N2 C2 1_555 1_555
N3 N4 1_555 1_555
N4 C5 1_555 1_555
N5 H1 1_555 1_555
O1 C1 1_555 1_555
C1 C4 1_555 1_555
C2 N1 1_555 1_555
C3 N2 1_555 1_555
C4 C3 1_555 1_555
C5 C4 1_555 1_555
C6 N1 1_555 1_555
C7 C6 1_555 1_555
H2 C7 1_555 1_555
C8 C7 1_555 1_555
H3 C8 1_555 1_555
C9 C8 1_555 1_555
H4 C9 1_555 1_555
C10 C9 1_555 1_555
H5 C10 1_555 1_555
C11 C6 1_555 1_555
H6 C11 1_555 1_555
C12 N5 1_555 1_555
H7 C12 1_555 1_555
H8 C12 1_555 1_555
C13 C12 1_555 1_555
C14 C13 1_555 1_555
H9 C14 1_555 1_555
C15 C14 1_555 1_555
H10 C15 1_555 1_555
C16 C15 1_555 1_555
C17 C16 1_555 1_555
H11 C17 1_555 1_555
C18 C13 1_555 1_555
H12 C18 1_555 1_555
C19 N3 1_555 1_555
C20 C19 1_555 1_555
H13 C20 1_555 1_555
C21 C20 1_555 1_555
H14 C21 1_555 1_555
C22 C21 1_555 1_555
H15 C22 1_555 1_555
C23 C22 1_555 1_555
H16 C23 1_555 1_555
C24 C19 1_555 1_555
H17 C24 1_555 1_555
C25 S1 1_555 1_555
H18 C25 1_555 1_555
H19 C25 1_555 1_555
H20 C25 1_555 1_555
N3 C3 1_555 1_555
N5 C2 1_555 1_555
C10 C11 1_555 1_555
C17 C18 1_555 1_555
C23 C24 1_555 1_555

#END
