
#######################################################################
#
#                 Cambridge Crystallographic Data Centre
#                                CCDC 
#
#######################################################################
#
# If this CIF has been generated from an entry in the Cambridge 
# Structural Database, then it will include bibliographic, chemical, 
# crystal, experimental, refinement or atomic coordinate data resulting 
# from the CCDC's data processing and validation procedures.
#
#######################################################################

data_SALQUT
_chemical_formula_moiety         'C10 H10 Br1 N1 O4'
_chemical_name_systematic        'Dimethyl 2-amino-5-bromoterephthalate'
_symmetry_cell_setting           triclinic
_symmetry_space_group_name_H-M   'P -1'
_symmetry_Int_Tables_number      2
_space_group_name_Hall           '-P 1'
loop_
_symmetry_equiv_pos_site_id
_symmetry_equiv_pos_as_xyz
1 x,y,z
2 -x,-y,-z
_cell_length_a                   7.2982(4)
_cell_length_b                   13.7929(8)
_cell_length_c                   16.5844(10)
_cell_angle_alpha                75.7410(10)
_cell_angle_beta                 86.5750(10)
_cell_angle_gamma                86.7400(10)
_cell_volume                     1613.59
_cell_formula_units_Z            6
loop_
_atom_site_label
_atom_site_type_symbol
_atom_site_fract_x
_atom_site_fract_y
_atom_site_fract_z
Br1 Br 0.73983(3) 0.261014(16) 0.060710(13)
O1 O 0.9814(2) 0.52572(11) -0.20117(9)
O2 O 0.7213(2) 0.01353(11) -0.06542(10)
O3 O 0.8328(2) 0.04251(11) 0.04977(10)
O4 O 1.0153(2) 0.46719(12) -0.31624(10)
N1 N 0.9858(3) 0.26763(15) -0.29733(12)
H1 H 0.9867 0.2128 -0.3133
H2 H 1.0144 0.3225 -0.3323
C1 C 0.8300(3) 0.25914(16) -0.04921(13)
C2 C 1.0251(3) 0.62431(17) -0.25232(14)
H3 H 1.0176 0.6717 -0.2183
H4 H 0.9392 0.6446 -0.2956
H5 H 1.1473 0.6217 -0.2768
C3 C 0.8392(3) 0.17096(16) -0.07800(13)
C4 C 0.7993(3) 0.07031(16) -0.02286(13)
C5 C 0.8780(3) 0.34843(16) -0.10208(13)
H6 H 0.8732 0.4059 -0.0820
C6 C 0.6942(3) -0.08884(16) -0.01937(14)
H7 H 0.6362 -0.1238 -0.0537
H8 H 0.6175 -0.0891 0.0298
H9 H 0.8109 -0.1215 -0.0037
C7 C 0.9341(3) 0.35491(16) -0.18584(13)
C8 C 0.9815(3) 0.45254(16) -0.24159(13)
C9 C 0.8930(3) 0.17681(16) -0.16043(13)
H10 H 0.8988 0.1187 -0.1795
C10 C 0.9392(3) 0.26760(16) -0.21651(14)
Br2 Br 0.49039(3) 0.263997(16) 0.266832(14)
O5 O 0.3428(2) 0.45689(13) 0.45343(10)
O6 O 0.6964(2) 0.56233(12) 0.02639(10)
O7 O 0.6768(2) 0.70917(12) 0.06104(10)
O8 O 0.2759(2) 0.32175(13) 0.41035(10)
N2 N 0.5464(3) 0.71387(14) 0.21461(12)
H11 H 0.5116 0.7418 0.2543
H12 H 0.5926 0.7491 0.1685
C11 C 0.4907(3) 0.40539(16) 0.25284(14)
C12 C 0.4328(3) 0.45498(16) 0.31562(13)
C13 C 0.5626(3) 0.46010(16) 0.17752(13)
H13 H 0.6000 0.4273 0.1362
C14 C 0.5805(3) 0.56355(16) 0.16180(13)
C15 C 0.6551(3) 0.61993(16) 0.07989(13)
C16 C 0.3426(3) 0.40185(17) 0.39746(13)
C17 C 0.5284(3) 0.61482(16) 0.22473(13)
C18 C 0.2497(4) 0.4139(2) 0.53280(15)
H14 H 0.2533 0.4587 0.5686
H15 H 0.3100 0.3510 0.5582
H16 H 0.1242 0.4034 0.5241
C19 C 0.4522(3) 0.55691(16) 0.30069(13)
H17 H 0.4136 0.5889 0.3423
C20 C 0.7674(4) 0.61602(19) -0.05476(14)
H18 H 0.7942 0.5699 -0.0893
H19 H 0.8776 0.6478 -0.0486
H20 H 0.6774 0.6659 -0.0802
Br3 Br 0.26471(3) 0.705721(17) 0.491986(14)
O9 O 0.4926(2) 0.98966(12) 0.31126(10)
O10 O 0.0135(2) 0.88384(12) 0.71579(10)
O11 O 0.0286(2) 1.05090(12) 0.67997(10)
O12 O 0.3993(3) 0.83362(14) 0.33087(11)
N3 N 0.2320(3) 1.13283(14) 0.53759(11)
H21 H 0.2813 1.1798 0.4999
H22 H 0.1826 1.1455 0.5825
C21 C 0.2543(3) 0.84143(16) 0.49911(14)
C22 C -0.0849(3) 0.89331(18) 0.79237(14)
H23 H -0.1171 0.8282 0.8248
H24 H -0.1945 0.9347 0.7793
H25 H -0.0081 0.9232 0.8237
C23 C 0.1584(3) 0.95519(16) 0.58611(13)
C24 C 0.1733(3) 0.85895(16) 0.57145(14)
H26 H 0.1270 0.8055 0.6119
C25 C 0.2322(3) 1.03660(16) 0.52600(13)
C26 C 0.0627(3) 0.97025(16) 0.66374(13)
C27 C 0.3252(3) 0.92170(17) 0.43721(13)
C28 C 0.3138(3) 1.01680(17) 0.45200(13)
H27 H 0.3619 1.0696 0.4115
C29 C 0.5744(3) 0.9812(2) 0.23107(14)
H28 H 0.6264 1.0435 0.2026
H29 H 0.4817 0.9655 0.1982
H30 H 0.6691 0.9290 0.2395
C30 C 0.4093(3) 0.90809(18) 0.35553(14)
loop_
_geom_bond_atom_site_label_1
_geom_bond_atom_site_label_2
_geom_bond_site_symmetry_1
_geom_bond_site_symmetry_2
Br1 C1 1_555 1_555
O1 C2 1_555 1_555
O2 C4 1_555 1_555
O3 C4 1_555 1_555
O4 C8 1_555 1_555
N1 H1 1_555 1_555
H2 N1 1_555 1_555
C1 C3 1_555 1_555
C2 H3 1_555 1_555
H4 C2 1_555 1_555
H5 C2 1_555 1_555
C3 C4 1_555 1_555
C5 C1 1_555 1_555
H6 C5 1_555 1_555
C6 O2 1_555 1_555
H7 C6 1_555 1_555
H8 C6 1_555 1_555
H9 C6 1_555 1_555
C7 C5 1_555 1_555
C8 O1 1_555 1_555
C9 C3 1_555 1_555
H10 C9 1_555 1_555
C10 N1 1_555 1_555
Br2 C11 1_555 1_555
O5 C16 1_555 1_555
O6 C15 1_555 1_555
O7 C15 1_555 1_555
O8 C16 1_555 1_555
N2 H11 1_555 1_555
H12 N2 1_555 1_555
C11 C12 1_555 1_555
C12 C16 1_555 1_555
C13 C11 1_555 1_555
H13 C13 1_555 1_555
C14 C13 1_555 1_555
C15 C14 1_555 1_555
C17 N2 1_555 1_555
C18 O5 1_555 1_555
H14 C18 1_555 1_555
H15 C18 1_555 1_555
H16 C18 1_555 1_555
C19 C12 1_555 1_555
H17 C19 1_555 1_555
C20 O6 1_555 1_555
H18 C20 1_555 1_555
H19 C20 1_555 1_555
H20 C20 1_555 1_555
Br3 C21 1_555 1_555
O9 C29 1_555 1_555
O10 C22 1_555 1_555
O11 C26 1_555 1_555
O12 C30 1_555 1_555
N3 H21 1_555 1_555
H22 N3 1_555 1_555
C21 C24 1_555 1_555
C22 H23 1_555 1_555
H24 C22 1_555 1_555
H25 C22 1_555 1_555
C23 C24 1_555 1_555
C24 H26 1_555 1_555
C25 N3 1_555 1_555
C26 O10 1_555 1_555
C27 C21 1_555 1_555
C28 C25 1_555 1_555
H27 C28 1_555 1_555
C29 H28 1_555 1_555
H29 C29 1_555 1_555
H30 C29 1_555 1_555
C30 O9 1_555 1_555
C7 C8 1_555 1_555
C7 C10 1_555 1_555
C9 C10 1_555 1_555
C14 C17 1_555 1_555
C17 C19 1_555 1_555
C23 C25 1_555 1_555
C23 C26 1_555 1_555
C27 C28 1_555 1_555
C27 C30 1_555 1_555

#END
