
#######################################################################
#
#                 Cambridge Crystallographic Data Centre
#                                CCDC 
#
#######################################################################
#
# If this CIF has been generated from an entry in the Cambridge 
# Structural Database, then it will include bibliographic, chemical, 
# crystal, experimental, refinement or atomic coordinate data resulting 
# from the CCDC's data processing and validation procedures.
#
#######################################################################

data_SALSEE
_chemical_formula_moiety         'C18 H21 N3 O1 S2'
_chemical_name_systematic        
'Benzyl 2-(4-((2-hydroxyethyl)methylamino)benzylidene)hydrazinedithiocarboxylate'
_symmetry_cell_setting           triclinic
_symmetry_space_group_name_H-M   'P -1'
_symmetry_Int_Tables_number      2
_space_group_name_Hall           '-P 1'
loop_
_symmetry_equiv_pos_site_id
_symmetry_equiv_pos_as_xyz
1 x,y,z
2 -x,-y,-z
_cell_length_a                   8.8644(2)
_cell_length_b                   9.7199(3)
_cell_length_c                   11.1601(1)
_cell_angle_alpha                102.908(1)
_cell_angle_beta                 103.010(1)
_cell_angle_gamma                93.9770(10)
_cell_volume                     905.933
_exptl_crystal_colour            yellow
_exptl_crystal_description       slab
_cell_formula_units_Z            2
_exptl_crystal_recrystallization_method acetonitrile
loop_
_atom_site_label
_atom_site_type_symbol
_atom_site_fract_x
_atom_site_fract_y
_atom_site_fract_z
S1 S 0.05707(9) 0.82702(8) 0.83433(9)
S2 S 0.16496(10) 0.55551(9) 0.89888(9)
O1 O -0.8079(3) 0.7119(2) 0.1971(2)
H1 H -0.8104 0.6587 0.2444
N1 N -0.1141(3) 0.5805(3) 0.7719(2)
H2 H -0.1369 0.4920 0.7682
N2 N -0.2274(3) 0.6531(3) 0.7142(2)
N3 N -0.8962(3) 0.8098(3) 0.4372(3)
C1 C 0.3151(3) 1.0212(3) 0.9052(3)
C2 C 0.3119(4) 1.1420(4) 0.9979(3)
H3 H 0.2750 1.1329 1.0678
C3 C 0.3628(5) 1.2759(4) 0.9879(4)
H4 H 0.3593 1.3557 1.0507
C4 C 0.4179(4) 1.2917(4) 0.8869(4)
H5 H 0.4534 1.3818 0.8814
C5 C 0.4210(5) 1.1745(5) 0.7934(4)
H6 H 0.4574 1.1852 0.7236
C6 C 0.3693(5) 1.0386(4) 0.8024(4)
H7 H 0.3717 0.9595 0.7385
C7 C 0.2634(4) 0.8741(4) 0.9153(4)
H8 H 0.2792 0.8722 1.0037
H9 H 0.3242 0.8062 0.8763
C8 C 0.0297(4) 0.6453(3) 0.8331(3)
C9 C -0.3666(3) 0.5891(3) 0.6819(3)
H10 H -0.3835 0.5009 0.6995
C10 C -0.4998(3) 0.6477(3) 0.6192(3)
C11 C -0.6510(3) 0.5944(3) 0.6158(3)
H11 H -0.6649 0.5213 0.6552
C12 C -0.7810(4) 0.6460(3) 0.5562(3)
H12 H -0.8798 0.6080 0.5572
C13 C -0.7660(4) 0.7556(3) 0.4936(3)
C14 C -0.6124(4) 0.8076(3) 0.4954(3)
H13 H -0.5977 0.8785 0.4539
C15 C -0.4836(4) 0.7563(3) 0.5570(3)
H14 H -0.3843 0.7944 0.5573
C16 C -1.0520(4) 0.7478(5) 0.4355(4)
H15 H -1.1290 0.7972 0.3931
H16 H -1.0607 0.7563 0.5209
H17 H -1.0686 0.6491 0.3912
C17 C -0.8903(4) 0.8947(3) 0.3449(3)
H18 H -0.7875 0.9487 0.3669
H19 H -0.9656 0.9621 0.3507
C18 C -0.9236(5) 0.8072(4) 0.2091(3)
H20 H -1.0265 0.7532 0.1854
H21 H -0.9218 0.8698 0.1527
loop_
_geom_bond_atom_site_label_1
_geom_bond_atom_site_label_2
_geom_bond_site_symmetry_1
_geom_bond_site_symmetry_2
S1 C7 1_555 1_555
S2 C8 1_555 1_555
O1 H1 1_555 1_555
N1 H2 1_555 1_555
N2 N1 1_555 1_555
N3 C13 1_555 1_555
C1 C2 1_555 1_555
C2 H3 1_555 1_555
C3 C2 1_555 1_555
H4 C3 1_555 1_555
C4 C3 1_555 1_555
H5 C4 1_555 1_555
C5 C4 1_555 1_555
H6 C5 1_555 1_555
C6 C1 1_555 1_555
H7 C6 1_555 1_555
C7 C1 1_555 1_555
H8 C7 1_555 1_555
H9 C7 1_555 1_555
C8 S1 1_555 1_555
C9 N2 1_555 1_555
H10 C9 1_555 1_555
C10 C9 1_555 1_555
C11 C10 1_555 1_555
H11 C11 1_555 1_555
C12 C11 1_555 1_555
H12 C12 1_555 1_555
C13 C12 1_555 1_555
C14 C13 1_555 1_555
H13 C14 1_555 1_555
C15 C10 1_555 1_555
H14 C15 1_555 1_555
C16 N3 1_555 1_555
H15 C16 1_555 1_555
H16 C16 1_555 1_555
H17 C16 1_555 1_555
C17 N3 1_555 1_555
H18 C17 1_555 1_555
H19 C17 1_555 1_555
C18 O1 1_555 1_555
H20 C18 1_555 1_555
H21 C18 1_555 1_555
N1 C8 1_555 1_555
C5 C6 1_555 1_555
C14 C15 1_555 1_555
C17 C18 1_555 1_555

#END
