
#######################################################################
#
#                 Cambridge Crystallographic Data Centre
#                                CCDC 
#
#######################################################################
#
# If this CIF has been generated from an entry in the Cambridge 
# Structural Database, then it will include bibliographic, chemical, 
# crystal, experimental, refinement or atomic coordinate data resulting 
# from the CCDC's data processing and validation procedures.
#
#######################################################################

data_SAMBAK
_chemical_formula_moiety         'C39 H30 N4'
_chemical_name_systematic        tris(4-(2-Pyridin-4-ylvinyl)phenyl)amine
_symmetry_cell_setting           monoclinic
_symmetry_space_group_name_H-M   'P 21/n'
_symmetry_Int_Tables_number      14
_space_group_name_Hall           '-P 2yn'
loop_
_symmetry_equiv_pos_site_id
_symmetry_equiv_pos_as_xyz
1 x,y,z
2 1/2-x,1/2+y,1/2-z
3 -x,-y,-z
4 1/2+x,1/2-y,1/2+z
_cell_length_a                   15.851(3)
_cell_length_b                   9.7932(18)
_cell_length_c                   20.084(6)
_cell_angle_alpha                90
_cell_angle_beta                 107.241(12)
_cell_angle_gamma                90
_cell_volume                     2977.59
_exptl_crystal_colour            yellow
_exptl_crystal_description       plate
_chemical_melting_point          270.5deg.C
_cell_formula_units_Z            4
_exptl_crystal_recrystallization_method 'ethyl acetate/ethanol'
loop_
_atom_site_label
_atom_site_type_symbol
_atom_site_fract_x
_atom_site_fract_y
_atom_site_fract_z
C1 C -0.1568(3) -0.9040(4) 0.1340(2)
H1 H -0.1736 -0.9606 0.1650
C2 C -0.1169(3) -0.7811(4) 0.15872(19)
H2 H -0.1079 -0.7572 0.2051
C3 C -0.0902(2) -0.6932(4) 0.11491(18)
C4 C -0.1041(2) -0.7379(4) 0.04756(18)
H3 H -0.0861 -0.6847 0.0159
C5 C -0.1449(3) -0.8623(4) 0.0272(2)
H4 H -0.1538 -0.8892 -0.0188
C6 C -0.0484(2) -0.5629(4) 0.14183(18)
H5 H -0.0328 -0.5502 0.1898
C7 C -0.0305(2) -0.4615(4) 0.10451(18)
H6 H -0.0477 -0.4721 0.0563
C8 C 0.0142(2) -0.3339(4) 0.13280(18)
C9 C 0.0721(2) -0.3296(4) 0.19984(17)
H7 H 0.0839 -0.4092 0.2263
C10 C 0.1125(2) -0.2088(4) 0.22808(17)
H8 H 0.1517 -0.2083 0.2729
C11 C 0.0949(2) -0.0891(4) 0.19008(18)
C12 C 0.0382(2) -0.0923(4) 0.12270(18)
H9 H 0.0268 -0.0129 0.0961
C13 C -0.0011(2) -0.2137(4) 0.09521(18)
H10 H -0.0391 -0.2146 0.0499
C14 C 0.0844(3) 0.5490(5) 0.6547(2)
H11 H 0.1142 0.6250 0.6780
C15 C 0.1092(3) 0.5000(4) 0.59893(19)
H12 H 0.1544 0.5421 0.5858
C16 C 0.0666(3) 0.3887(5) 0.56319(18)
C17 C 0.0012(3) 0.3296(5) 0.5856(2)
H13 H -0.0291 0.2531 0.5633
C18 C -0.0184(3) 0.3870(5) 0.6423(2)
H14 H -0.0627 0.3462 0.6570
C19 C 0.0943(3) 0.3350(4) 0.50397(19)
H15 H 0.1432 0.3758 0.4957
C20 C 0.0571(3) 0.2370(4) 0.46280(18)
H16 H 0.0093 0.1948 0.4722
C21 C 0.0821(3) 0.1840(4) 0.40199(19)
C22 C 0.0269(3) 0.0909(4) 0.35887(19)
H17 H -0.0229 0.0607 0.3701
C23 C 0.0432(2) 0.0411(4) 0.29933(18)
H18 H 0.0042 -0.0207 0.2709
C24 C 0.1176(2) 0.0834(4) 0.28220(17)
C25 C 0.1758(3) 0.1735(4) 0.32643(18)
H19 H 0.2270 0.2007 0.3165
C26 C 0.1575(3) 0.2228(4) 0.38527(17)
H20 H 0.1968 0.2834 0.4143
C27 C 0.1675(2) 0.1229(4) 0.17810(17)
C28 C 0.1501(2) 0.2614(4) 0.17076(18)
H21 H 0.1193 0.3035 0.1979
C29 C 0.1782(2) 0.3380(4) 0.12325(17)
H22 H 0.1663 0.4312 0.1196
C30 C 0.2233(2) 0.2798(4) 0.08128(17)
C31 C 0.2439(2) 0.1410(4) 0.09085(17)
H23 H 0.2754 0.0990 0.0641
C32 C 0.2181(2) 0.0658(4) 0.13940(16)
H24 H 0.2350 -0.0253 0.1464
C33 C 0.2429(2) 0.3583(4) 0.02556(17)
H25 H 0.2544 0.4511 0.0328
C34 C 0.2453(2) 0.3050(4) -0.03467(18)
H26 H 0.2357 0.2114 -0.0400
C35 C 0.2614(3) 0.3768(4) -0.0935(2)
C36 C 0.2960(2) 0.5065(4) -0.08886(19)
H27 H 0.3120 0.5524 -0.0464
C37 C 0.3068(3) 0.5679(4) -0.1478(2)
H28 H 0.3315 0.6548 -0.1430
C38 C 0.2508(3) 0.3862(5) -0.2143(2)
H29 H 0.2348 0.3427 -0.2574
C39 C 0.2382(3) 0.3167(4) -0.15864(19)
H30 H 0.2141 0.2293 -0.1648
N1 N 0.1343(2) 0.0368(3) 0.22070(14)
N2 N -0.1725(2) -0.9464(3) 0.06844(18)
N3 N 0.0217(3) 0.4964(4) 0.67744(17)
N4 N 0.2842(2) 0.5110(4) -0.21087(17)
loop_
_geom_bond_atom_site_label_1
_geom_bond_atom_site_label_2
_geom_bond_site_symmetry_1
_geom_bond_site_symmetry_2
C1 H1 1_555 1_555
C2 C1 1_555 1_555
H2 C2 1_555 1_555
C3 C2 1_555 1_555
C4 C3 1_555 1_555
H3 C4 1_555 1_555
C5 C4 1_555 1_555
H4 C5 1_555 1_555
C6 C3 1_555 1_555
H5 C6 1_555 1_555
C7 C6 1_555 1_555
H6 C7 1_555 1_555
C8 C7 1_555 1_555
C9 C8 1_555 1_555
H7 C9 1_555 1_555
C10 C9 1_555 1_555
H8 C10 1_555 1_555
C11 C10 1_555 1_555
C12 C11 1_555 1_555
H9 C12 1_555 1_555
C13 C8 1_555 1_555
H10 C13 1_555 1_555
C14 H11 1_555 1_555
C15 C14 1_555 1_555
H12 C15 1_555 1_555
C16 C15 1_555 1_555
C17 C16 1_555 1_555
H13 C17 1_555 1_555
C18 C17 1_555 1_555
H14 C18 1_555 1_555
C19 C16 1_555 1_555
H15 C19 1_555 1_555
C20 C19 1_555 1_555
H16 C20 1_555 1_555
C21 C20 1_555 1_555
C22 C21 1_555 1_555
H17 C22 1_555 1_555
C23 C22 1_555 1_555
H18 C23 1_555 1_555
C24 C23 1_555 1_555
C25 C24 1_555 1_555
H19 C25 1_555 1_555
C26 C21 1_555 1_555
H20 C26 1_555 1_555
C27 C28 1_555 1_555
C28 H21 1_555 1_555
C29 C28 1_555 1_555
H22 C29 1_555 1_555
C30 C29 1_555 1_555
C31 C30 1_555 1_555
H23 C31 1_555 1_555
C32 C27 1_555 1_555
H24 C32 1_555 1_555
C33 C30 1_555 1_555
H25 C33 1_555 1_555
C34 C33 1_555 1_555
H26 C34 1_555 1_555
C35 C34 1_555 1_555
C36 C35 1_555 1_555
H27 C36 1_555 1_555
C37 C36 1_555 1_555
H28 C37 1_555 1_555
C38 H29 1_555 1_555
C39 C35 1_555 1_555
H30 C39 1_555 1_555
N1 C11 1_555 1_555
N2 C1 1_555 1_555
N3 C14 1_555 1_555
N4 C37 1_555 1_555
C5 N2 1_555 1_555
C12 C13 1_555 1_555
C18 N3 1_555 1_555
C24 N1 1_555 1_555
C25 C26 1_555 1_555
C27 N1 1_555 1_555
C31 C32 1_555 1_555
C38 C39 1_555 1_555
C38 N4 1_555 1_555

#END
