
#######################################################################
#
#                 Cambridge Crystallographic Data Centre
#                                CCDC 
#
#######################################################################
#
# If this CIF has been generated from an entry in the Cambridge 
# Structural Database, then it will include bibliographic, chemical, 
# crystal, experimental, refinement or atomic coordinate data resulting 
# from the CCDC's data processing and validation procedures.
#
#######################################################################

data_SAMCIU
_chemical_formula_moiety         'C68 H84 N4 S24,Cl1 1-,C60,2(C1 H2 Cl2),Li1 1+'
_chemical_name_systematic        
'Lithium chloride 6,14,22,30-tetrakis(4,5-bis(propylsulfanyl)-1,3-dithiol-2-ylidene)-2,2,10,10,18,18,26,26-octamethyl-5,7,13,15,21,23,29,31-octathia-33,34,35,36-tetraazanonacyclo[25.5.1.1^3,9^.1^11,17^.1^19,25^.0^4,8^.0^12,16^.0^20,24^.0^28,32^]hexatriaconta-1(32),3,8,11,16,19,24,27-octaene C60fullerene dichloromethane solvate'
_symmetry_cell_setting           monoclinic
_symmetry_space_group_name_H-M   'P 21/m'
_symmetry_Int_Tables_number      11
_space_group_name_Hall           '-P 2yb'
loop_
_symmetry_equiv_pos_site_id
_symmetry_equiv_pos_as_xyz
1 x,y,z
2 -x,1/2+y,-z
3 -x,-y,-z
4 x,1/2-y,z
_cell_length_a                   14.8753(12)
_cell_length_b                   26.441(2)
_cell_length_c                   15.4218(15)
_cell_angle_alpha                90
_cell_angle_beta                 107.903(3)
_cell_angle_gamma                90
_cell_volume                     5771.96
_exptl_crystal_colour            black
_exptl_crystal_description       plates
_cell_formula_units_Z            2
loop_
_atom_site_label
_atom_site_type_symbol
_atom_site_fract_x
_atom_site_fract_y
_atom_site_fract_z
C37 C 0.2094(4) 0.2500 0.2442(4)
H43 H 0.2669 0.2500 0.2943
H44 H 0.1733 0.2796 0.2473
H44C H 0.1733 0.2204 0.2473
Li1 Li 0.725(3) 0.2689(16) 0.318(3)
Li1C Li 0.725(3) 0.2311(16) 0.318(3)
C38 C 1.0293(8) 0.2680(4) 0.5197(9)
C39 C 1.0395(11) 0.2223(5) 0.4742(9)
C40 C 0.9943(8) 0.1756(5) 0.4834(8)
C41 C 0.9448(8) 0.1751(5) 0.5497(8)
C42 C 0.9335(8) 0.2198(4) 0.5978(9)
C43 C 0.9752(9) 0.2667(3) 0.5817(8)
C44 C 1.0232(10) 0.3062(5) 0.4518(8)
C45 C 1.0219(9) 0.2880(3) 0.3641(8)
C46 C 1.0341(10) 0.2349(3) 0.3822(8)
C47 C 0.9911(11) 0.2982(5) 0.3089(8)
C48 C 0.9461(8) 0.3437(4) 0.3236(7)
C49 C 0.9469(8) 0.1415(5) 0.4123(8)
C50 C 0.8648(8) 0.1222(4) 0.4298(8)
C51 C 0.8649(7) 0.1421(4) 0.5153(7)
C52 C 0.7780(6) 0.1552(3) 0.5307(6)
C53 C 0.7697(8) 0.2005(4) 0.5779(8)
C54 C 0.8462(9) 0.2343(3) 0.6110(11)
C55 C 0.8289(7) 0.2124(4) 0.5997(8)
C56 C 0.9117(8) 0.1929(4) 0.5822(10)
C57 C 0.9091(10) 0.1529(5) 0.5190(10)
C58 C 0.9601(13) 0.1520(6) 0.4540(12)
C59 C 0.8978(10) 0.3698(4) 0.3648(9)
C60 C 0.9002(7) 0.3483(4) 0.2851(8)
C61 C 0.9633(9) 0.3073(5) 0.2849(10)
C62 C 0.9121(11) 0.2752(7) 0.2119(15)
C63 C 0.9336(11) 0.2770(7) 0.2254(12)
C64 C 0.8539(7) 0.3100(5) 0.1901(10)
C65 C 0.8595(8) 0.3509(4) 0.2524(9)
C66 C 0.7748(8) 0.3698(4) 0.2649(9)
C67 C 0.7801(10) 0.1168(4) 0.3569(9)
C68 C 0.6927(8) 0.1310(4) 0.3789(8)
C69 C 0.6902(6) 0.1502(4) 0.4596(8)
C70 C 0.6317(9) 0.1923(5) 0.4649(7)
C71 C 0.6791(13) 0.2221(9) 0.5329(15)
C72 C 0.6586(14) 0.2255(8) 0.5193(14)
C73 C 0.7381(9) 0.1924(6) 0.5529(11)
C74 C 0.7320(8) 0.1513(5) 0.4910(9)
C75 C 0.8173(9) 0.1318(4) 0.4795(9)
C76 C 0.8169(12) 0.1192(5) 0.3889(12)
C77 C 0.7269(9) 0.3758(4) 0.3135(9)
C78 C 0.7247(8) 0.3551(5) 0.2279(9)
C79 C 0.8118(7) 0.3427(4) 0.2134(7)
C80 C 0.8218(8) 0.2975(4) 0.1673(9)
C81 C 0.7466(8) 0.2632(3) 0.1306(10)
C82 C 0.7628(7) 0.2898(3) 0.1456(7)
C83 C 0.6805(8) 0.3093(4) 0.1621(9)
C84 C 0.6824(9) 0.3498(6) 0.2235(10)
C85 C 0.6285(10) 0.1513(5) 0.2856(11)
C86 C 0.5705(9) 0.1925(4) 0.2939(7)
C87 C 0.5717(7) 0.2115(3) 0.3805(7)
C88 C 0.5558(9) 0.2644(3) 0.3623(7)
C89 C 0.6035(10) 0.2033(4) 0.4360(8)
C90 C 0.6464(9) 0.1575(4) 0.4186(8)
C91 C 0.6440(9) 0.1456(5) 0.3275(8)
C92 C 0.6471(8) 0.3212(4) 0.1944(8)
C93 C 0.6608(8) 0.2778(4) 0.1448(8)
C94 C 0.6181(9) 0.2684(4) 0.1624(9)
C95 C 0.5635(8) 0.2291(4) 0.2242(7)
C96 C 0.5526(9) 0.2259(4) 0.2703(8)
C97 C 0.5931(9) 0.1788(5) 0.2567(8)
C38C C 1.0293(8) 0.2320(4) 0.5197(9)
C39C C 1.0395(11) 0.2777(5) 0.4742(9)
C40C C 0.9943(8) 0.3244(5) 0.4834(8)
C41C C 0.9448(8) 0.3249(5) 0.5497(8)
C42C C 0.9335(8) 0.2802(4) 0.5978(9)
C43C C 0.9752(9) 0.2333(3) 0.5817(8)
C44C C 1.0232(10) 0.1938(5) 0.4518(8)
C45C C 1.0219(9) 0.2120(3) 0.3641(8)
C46C C 1.0341(10) 0.2651(3) 0.3822(8)
C47C C 0.9911(11) 0.2018(5) 0.3089(8)
C48C C 0.9461(8) 0.1563(4) 0.3236(7)
C49C C 0.9469(8) 0.3585(5) 0.4123(8)
C50C C 0.8648(8) 0.3778(4) 0.4298(8)
C51C C 0.8649(7) 0.3579(4) 0.5153(7)
C52C C 0.7780(6) 0.3448(3) 0.5307(6)
C53C C 0.7697(8) 0.2995(4) 0.5779(8)
C54C C 0.8462(9) 0.2657(3) 0.6110(11)
C55C C 0.8289(7) 0.2876(4) 0.5997(8)
C56C C 0.9117(8) 0.3071(4) 0.5822(10)
C57C C 0.9091(10) 0.3471(5) 0.5190(10)
C58C C 0.9601(13) 0.3480(6) 0.4540(12)
C59C C 0.8978(10) 0.1302(4) 0.3648(9)
C60C C 0.9002(7) 0.1517(4) 0.2851(8)
C61C C 0.9633(9) 0.1927(5) 0.2849(10)
C62C C 0.9121(11) 0.2248(7) 0.2119(15)
C63C C 0.9336(11) 0.2230(7) 0.2254(12)
C64C C 0.8539(7) 0.1900(5) 0.1901(10)
C65C C 0.8595(8) 0.1491(4) 0.2524(9)
C66C C 0.7748(8) 0.1302(4) 0.2649(9)
C67C C 0.7801(10) 0.3832(4) 0.3569(9)
C68C C 0.6927(8) 0.3690(4) 0.3789(8)
C69C C 0.6902(6) 0.3498(4) 0.4596(8)
C70C C 0.6317(9) 0.3077(5) 0.4649(7)
C71C C 0.6791(13) 0.2779(9) 0.5329(15)
C72C C 0.6586(14) 0.2745(8) 0.5193(14)
C73C C 0.7381(9) 0.3076(6) 0.5529(11)
C74C C 0.7320(8) 0.3487(5) 0.4910(9)
C75C C 0.8173(9) 0.3682(4) 0.4795(9)
C76C C 0.8169(12) 0.3808(5) 0.3889(12)
C77C C 0.7269(9) 0.1242(4) 0.3135(9)
C78C C 0.7247(8) 0.1449(5) 0.2279(9)
C79C C 0.8118(7) 0.1573(4) 0.2134(7)
C80C C 0.8218(8) 0.2025(4) 0.1673(9)
C81C C 0.7466(8) 0.2368(3) 0.1306(10)
C82C C 0.7628(7) 0.2102(3) 0.1456(7)
C83C C 0.6805(8) 0.1907(4) 0.1621(9)
C84C C 0.6824(9) 0.1502(6) 0.2235(10)
C85C C 0.6285(10) 0.3487(5) 0.2856(11)
C86C C 0.5705(9) 0.3075(4) 0.2939(7)
C87C C 0.5717(7) 0.2885(3) 0.3805(7)
C88C C 0.5558(9) 0.2356(3) 0.3623(7)
C89C C 0.6035(10) 0.2967(4) 0.4360(8)
C90C C 0.6464(9) 0.3425(4) 0.4186(8)
C91C C 0.6440(9) 0.3544(5) 0.3275(8)
C92C C 0.6471(8) 0.1788(4) 0.1944(8)
C93C C 0.6608(8) 0.2222(4) 0.1448(8)
C94C C 0.6181(9) 0.2316(4) 0.1624(9)
C95C C 0.5635(8) 0.2709(4) 0.2242(7)
C96C C 0.5526(9) 0.2741(4) 0.2703(8)
C97C C 0.5931(9) 0.3212(5) 0.2567(8)
Cl1 Cl 0.24955(9) 0.2500 -0.12131(9)
S1 S 0.70796(7) 0.15130(4) -0.05564(7)
S2 S 0.61781(7) 0.07359(3) 0.03214(7)
S3 S 0.91283(7) 0.10751(4) 0.05653(8)
S4 S 0.82435(7) 0.03137(4) 0.14470(7)
S5 S 1.10371(8) 0.09860(5) 0.19647(8)
S6 S 1.00607(9) 0.01129(5) 0.29588(9)
S7 S 0.43486(7) 0.08089(4) 0.24136(7)
S8 S 0.34717(7) 0.15917(4) 0.33000(7)
S9 S 0.55742(7) 0.04065(4) 0.44085(7)
S10 S 0.47858(7) 0.12198(4) 0.52683(7)
S11 S 0.71023(12) 0.01665(6) 0.61912(10)
S12 S 0.62410(8) 0.10931(4) 0.70982(7)
N1 N 0.4468(2) 0.18736(11) -0.0687(2)
H1 H 0.3952 0.2045 -0.0831
N2 N 0.3045(2) 0.18710(11) 0.0688(2)
H2 H 0.2825 0.2023 0.0173
C1 C 0.5277(3) 0.20269(13) -0.0886(2)
C2 C 0.5921(3) 0.16435(13) -0.0548(3)
C3 C 0.5491(3) 0.12714(13) -0.0141(2)
C4 C 0.4581(3) 0.14174(13) -0.0235(2)
C5 C 0.3792(3) 0.11657(13) 0.0025(3)
C6 C 0.3587(3) 0.14362(13) 0.0816(3)
C7 C 0.3793(3) 0.13192(13) 0.1726(3)
C8 C 0.3375(3) 0.16862(14) 0.2147(2)
C9 C 0.2899(3) 0.20316(14) 0.1489(3)
C10 C 0.2336(4) 0.2500 0.1526(4)
C11 C 0.5316(4) 0.2500 -0.1422(4)
C12 C 0.4076(3) 0.06186(14) 0.0321(3)
H3 H 0.4633 0.0620 0.0841
H4 H 0.3570 0.0455 0.0476
H5 H 0.4202 0.0439 -0.0171
C13 C 0.2879(3) 0.11439(15) -0.0808(3)
H6 H 0.3001 0.0953 -0.1290
H7 H 0.2383 0.0984 -0.0630
H8 H 0.2690 0.1481 -0.1016
C14 C 0.1401(4) 0.2500 0.0738(4)
H9 H 0.1535 0.2500 0.0167
H10 H 0.1043 0.2204 0.0777
C15 C 0.4492(4) 0.2500 -0.2322(4)
H11 H 0.3903 0.2500 -0.2189
H12 H 0.4531 0.2796 -0.2668
C16 C 0.6242(4) 0.2500 -0.1676(4)
H13 H 0.6772 0.2500 -0.1131
H14 H 0.6264 0.2204 -0.2028
C17 C 0.7228(3) 0.09972(13) 0.0212(3)
C18 C 0.8074(3) 0.08207(14) 0.0665(3)
C19 C 0.9869(3) 0.07724(16) 0.1557(3)
C20 C 0.9466(3) 0.04267(16) 0.1943(3)
C21 C 1.1390(3) 0.08986(17) 0.0943(3)
H15 H 1.2033 0.1018 0.1065
H16 H 1.0988 0.1106 0.0459
C22 C 1.1337(3) 0.03584(17) 0.0616(3)
H17 H 1.0694 0.0238 0.0492
H18 H 1.1490 0.0349 0.0048
C23 C 1.2000(3) 0.00041(18) 0.1296(3)
H19 H 1.1827 -0.0006 0.1846
H20 H 1.1954 -0.0329 0.1040
H21 H 1.2637 0.0124 0.1431
C24 C 0.9696(5) -0.0542(2) 0.2675(4)
H22 H 0.9012 -0.0555 0.2457
H23 H 0.9904 -0.0744 0.3227
C25 C 1.0068(6) -0.0773(2) 0.1979(5)
H24 H 0.9772 -0.0601 0.1415
H25 H 1.0730 -0.0695 0.2152
C26 C 0.9980(8) -0.1307(4) 0.1786(8)
H26 H 1.0086 -0.1492 0.2344
H27 H 0.9356 -0.1379 0.1388
H28 H 1.0438 -0.1407 0.1496
C27 C 0.4294(3) 0.10903(14) 0.3433(3)
C28 C 0.4805(3) 0.09304(15) 0.4250(3)
C29 C 0.6165(3) 0.05388(15) 0.5558(3)
C30 C 0.5813(3) 0.09097(15) 0.5955(3)
C31 C 0.7364(3) -0.02615(17) 0.5421(4)
H29 H 0.7831 -0.0486 0.5796
H30 H 0.6801 -0.0460 0.5188
C32 C 0.7973(7) -0.0019(6) 0.4917(7)
H31 H 0.8499 0.0147 0.5359
H32 H 0.7605 0.0241 0.4521
C33 C 0.8349(9) -0.0358(6) 0.4369(8)
H33 H 0.7879 -0.0605 0.4078
H34 H 0.8518 -0.0167 0.3913
H35 H 0.8899 -0.0527 0.4753
C34 C 0.5630(3) 0.06361(15) 0.7605(3)
H36 H 0.5928 0.0637 0.8260
H37 H 0.5718 0.0302 0.7385
C35 C 0.4587(3) 0.07259(17) 0.7414(3)
H38 H 0.4495 0.1042 0.7695
H39 H 0.4292 0.0759 0.6761
C36 C 0.4106(4) 0.03027(18) 0.7768(3)
H40 H 0.4411 0.0259 0.8410
H41 H 0.3454 0.0387 0.7664
H42 H 0.4150 -0.0006 0.7455
S1C S 0.70796(7) 0.34870(4) -0.05564(7)
S2C S 0.61781(7) 0.42641(3) 0.03214(7)
S3C S 0.91283(7) 0.39249(4) 0.05653(8)
S4C S 0.82435(7) 0.46863(4) 0.14470(7)
S5C S 1.10371(8) 0.40140(5) 0.19647(8)
S6C S 1.00607(9) 0.48871(5) 0.29588(9)
S7C S 0.43486(7) 0.41911(4) 0.24136(7)
S8C S 0.34717(7) 0.34083(4) 0.33000(7)
S9C S 0.55742(7) 0.45935(4) 0.44085(7)
S10C S 0.47858(7) 0.37802(4) 0.52683(7)
S11C S 0.71023(12) 0.48335(6) 0.61912(10)
S12C S 0.62410(8) 0.39069(4) 0.70982(7)
N1C N 0.4468(2) 0.31264(11) -0.0687(2)
H1C H 0.3952 0.2955 -0.0831
N2C N 0.3045(2) 0.31290(11) 0.0688(2)
H2C H 0.2825 0.2977 0.0173
C1C C 0.5277(3) 0.29731(13) -0.0886(2)
C2C C 0.5921(3) 0.33565(13) -0.0548(3)
C3C C 0.5491(3) 0.37286(13) -0.0141(2)
C4C C 0.4581(3) 0.35826(13) -0.0235(2)
C5C C 0.3792(3) 0.38343(13) 0.0025(3)
C6C C 0.3587(3) 0.35638(13) 0.0816(3)
C7C C 0.3793(3) 0.36808(13) 0.1726(3)
C8C C 0.3375(3) 0.33138(14) 0.2147(2)
C9C C 0.2899(3) 0.29684(14) 0.1489(3)
C12C C 0.4076(3) 0.43814(14) 0.0321(3)
H3C H 0.4633 0.4380 0.0841
H4C H 0.3570 0.4545 0.0476
H5C H 0.4202 0.4561 -0.0171
C13C C 0.2879(3) 0.38561(15) -0.0808(3)
H6C H 0.3001 0.4047 -0.1290
H7C H 0.2383 0.4016 -0.0630
H8C H 0.2690 0.3519 -0.1016
H10C H 0.1043 0.2796 0.0777
H12C H 0.4531 0.2204 -0.2668
H14C H 0.6264 0.2796 -0.2028
C17C C 0.7228(3) 0.40028(13) 0.0212(3)
C18C C 0.8074(3) 0.41793(14) 0.0665(3)
C19C C 0.9869(3) 0.42276(16) 0.1557(3)
C20C C 0.9466(3) 0.45733(16) 0.1943(3)
C21C C 1.1390(3) 0.41014(17) 0.0943(3)
H15C H 1.2033 0.3982 0.1065
H16C H 1.0988 0.3894 0.0459
C22C C 1.1337(3) 0.46416(17) 0.0616(3)
H17C H 1.0694 0.4762 0.0492
H18C H 1.1490 0.4651 0.0048
C23C C 1.2000(3) 0.49959(18) 0.1296(3)
H19C H 1.1827 0.5006 0.1846
H20C H 1.1954 0.5329 0.1040
H21C H 1.2637 0.4876 0.1431
C24C C 0.9696(5) 0.5542(2) 0.2675(4)
H22C H 0.9012 0.5555 0.2457
H23C H 0.9904 0.5744 0.3227
C25C C 1.0068(6) 0.5773(2) 0.1979(5)
H24C H 0.9772 0.5601 0.1415
H25C H 1.0730 0.5695 0.2152
C26C C 0.9980(8) 0.6307(4) 0.1786(8)
H26C H 1.0086 0.6492 0.2344
H27C H 0.9356 0.6379 0.1388
H28C H 1.0438 0.6407 0.1496
C27C C 0.4294(3) 0.39097(14) 0.3433(3)
C28C C 0.4805(3) 0.40696(15) 0.4250(3)
C29C C 0.6165(3) 0.44612(15) 0.5558(3)
C30C C 0.5813(3) 0.40903(15) 0.5955(3)
C31C C 0.7364(3) 0.52615(17) 0.5421(4)
H29C H 0.7831 0.5486 0.5796
H30C H 0.6801 0.5460 0.5188
C32C C 0.7973(7) 0.5019(6) 0.4917(7)
H31C H 0.8499 0.4853 0.5359
H32C H 0.7605 0.4759 0.4521
C33C C 0.8349(9) 0.5358(6) 0.4369(8)
H33C H 0.7879 0.5605 0.4078
H34C H 0.8518 0.5167 0.3913
H35C H 0.8899 0.5527 0.4753
C34C C 0.5630(3) 0.43639(15) 0.7605(3)
H36C H 0.5928 0.4363 0.8260
H37C H 0.5718 0.4698 0.7385
C35C C 0.4587(3) 0.42741(17) 0.7414(3)
H38C H 0.4495 0.3958 0.7695
H39C H 0.4292 0.4241 0.6761
C36C C 0.4106(4) 0.46973(18) 0.7768(3)
H40C H 0.4411 0.4741 0.8410
H41C H 0.3454 0.4613 0.7664
H42C H 0.4150 0.5006 0.7455
Cl2? Cl -0.1048(2) 0.2447(5) -0.0461(3)
Cl3? Cl 0.0019(3) 0.27200(15) -0.1660(3)
C98? C -0.1045(9) 0.2685(6) -0.1473(9)
H45? H -0.1313 0.3022 -0.1533
H46? H -0.1460 0.2478 -0.1951
C99? C 1.0988(9) 0.6006(6) 0.2295(10)
C100? C 0.7688(12) 0.5071(15) 0.4647(16)
C101? C 0.8694(10) 0.5056(11) 0.4784(14)
H47? H 1.0090 0.5511 0.1555
H48? H 0.9642 0.6029 0.1649
H49? H 1.1151 0.6140 0.1785
H50? H 1.1448 0.5758 0.2600
H51? H 1.0978 0.6274 0.2711
H52? H 0.7705 0.5547 0.5747
H53? H 0.6789 0.5381 0.4991
H54? H 0.7441 0.4732 0.4497
H55? H 0.7401 0.5282 0.4119
H56? H 0.8987 0.5349 0.5122
H57? H 0.8807 0.5053 0.4204
H58? H 0.8956 0.4756 0.5117
loop_
_geom_bond_atom_site_label_1
_geom_bond_atom_site_label_2
_geom_bond_site_symmetry_1
_geom_bond_site_symmetry_2
S1 C2 1_555 1_555
S2 C3 1_555 1_555
S3 C18 1_555 1_555
S4 C18 1_555 1_555
S5 C19 1_555 1_555
S6 C20 1_555 1_555
S7 C7 1_555 1_555
S8 C8 1_555 1_555
S9 C28 1_555 1_555
S10 C28 1_555 1_555
S11 C29 1_555 1_555
S12 C30 1_555 1_555
N1 H1 1_555 1_555
N2 H2 1_555 1_555
C1 N1 1_555 1_555
C2 C1 1_555 1_555
C3 C2 1_555 1_555
C4 N1 1_555 1_555
C5 C4 1_555 1_555
C6 N2 1_555 1_555
C7 C6 1_555 1_555
C8 C7 1_555 1_555
C9 N2 1_555 1_555
C10 C9 1_555 1_555
C11 C1 1_555 1_555
C12 C5 1_555 1_555
H3 C12 1_555 1_555
H4 C12 1_555 1_555
H5 C12 1_555 1_555
C13 C5 1_555 1_555
H6 C13 1_555 1_555
H7 C13 1_555 1_555
H8 C13 1_555 1_555
C14 C10 1_555 1_555
H9 C14 1_555 1_555
H10 C14 1_555 1_555
C15 C11 1_555 1_555
H11 C15 1_555 1_555
H12 C15 1_555 1_555
C16 C11 1_555 1_555
H13 C16 1_555 1_555
H14 C16 1_555 1_555
C17 S1 1_555 1_555
C18 C17 1_555 1_555
C19 S3 1_555 1_555
C20 S4 1_555 1_555
C21 S5 1_555 1_555
H15 C21 1_555 1_555
H16 C21 1_555 1_555
C22 C21 1_555 1_555
H17 C22 1_555 1_555
H18 C22 1_555 1_555
C23 C22 1_555 1_555
H19 C23 1_555 1_555
H20 C23 1_555 1_555
H21 C23 1_555 1_555
C24 S6 1_555 1_555
H22 C24 1_555 1_555
H23 C24 1_555 1_555
C25 C24 1_555 1_555
H24 C25 1_555 1_555
H25 C25 1_555 1_555
C26 C25 1_555 1_555
H26 C26 1_555 1_555
H27 C26 1_555 1_555
H28 C26 1_555 1_555
C27 S7 1_555 1_555
C28 C27 1_555 1_555
C29 S9 1_555 1_555
C30 S10 1_555 1_555
C31 S11 1_555 1_555
H29 C31 1_555 1_555
H30 C31 1_555 1_555
C32 C31 1_555 1_555
H31 C32 1_555 1_555
H32 C32 1_555 1_555
C33 C32 1_555 1_555
H33 C33 1_555 1_555
H34 C33 1_555 1_555
H35 C33 1_555 1_555
C34 S12 1_555 1_555
H36 C34 1_555 1_555
H37 C34 1_555 1_555
C35 C34 1_555 1_555
H38 C35 1_555 1_555
H39 C35 1_555 1_555
C36 C35 1_555 1_555
H40 C36 1_555 1_555
H41 C36 1_555 1_555
H42 C36 1_555 1_555
C37 H43 1_555 1_555
H44 C37 1_555 1_555
Li1 Li1C 1_555 1_555
C38 C39 1_555 1_555
C39 C40 1_555 1_555
C40 C41 1_555 1_555
C41 C42 1_555 1_555
C42 C43 1_555 1_555
C43 C38 1_555 1_555
C44 C38 1_555 1_555
C45 C44 1_555 1_555
C46 C39 1_555 1_555
C47 C45 1_555 1_555
C48 C47 1_555 1_555
C49 C40 1_555 1_555
C50 C49 1_555 1_555
C51 C41 1_555 1_555
C52 C51 1_555 1_555
C53 C52 1_555 1_555
C54 C42 1_555 1_555
C55 C53 1_555 1_555
C56 C41 1_555 1_555
C57 C41 1_555 1_555
C58 C40 1_555 1_555
C59 C48 1_555 1_555
C60 C48 1_555 1_555
C61 C45 1_555 1_555
C62 C61 1_555 1_555
C63 C47 1_555 1_555
C64 C62 1_555 1_555
C65 C48 1_555 1_555
C66 C65 1_555 1_555
C67 C50 1_555 1_555
C68 C67 1_555 1_555
C69 C52 1_555 1_555
C70 C69 1_555 1_555
C71 C53 1_555 1_555
C72 C70 1_555 1_555
C73 C52 1_555 1_555
C74 C52 1_555 1_555
C75 C50 1_555 1_555
C76 C50 1_555 1_555
C77 C66 1_555 1_555
C78 C66 1_555 1_555
C79 C60 1_555 1_555
C80 C62 1_555 1_555
C81 C80 1_555 1_555
C82 C64 1_555 1_555
C83 C82 1_555 1_555
C84 C66 1_555 1_555
C85 C68 1_555 1_555
C86 C85 1_555 1_555
C87 C70 1_555 1_555
C88 C87 1_555 1_555
C89 C70 1_555 1_555
C90 C68 1_555 1_555
C91 C68 1_555 1_555
C92 C78 1_555 1_555
C93 C81 1_555 1_555
C94 C83 1_555 1_555
C95 C86 1_555 1_555
C96 C86 1_555 1_555
C97 C85 1_555 1_555
S1C C2C 1_555 1_555
S2C C3C 1_555 1_555
S3C C18C 1_555 1_555
S4C C18C 1_555 1_555
S5C C19C 1_555 1_555
S6C C20C 1_555 1_555
S7C C7C 1_555 1_555
S8C C8C 1_555 1_555
S9C C28C 1_555 1_555
S10C C28C 1_555 1_555
S11C C29C 1_555 1_555
S12C C30C 1_555 1_555
N1C H1C 1_555 1_555
N2C H2C 1_555 1_555
C1C C11 1_555 1_555
C2C C1C 1_555 1_555
C3C C2C 1_555 1_555
C4C N1C 1_555 1_555
C5C C4C 1_555 1_555
C6C N2C 1_555 1_555
C7C C6C 1_555 1_555
C8C C7C 1_555 1_555
C9C C10 1_555 1_555
C12C C5C 1_555 1_555
H3C C12C 1_555 1_555
H4C C12C 1_555 1_555
H5C C12C 1_555 1_555
C13C C5C 1_555 1_555
H6C C13C 1_555 1_555
H7C C13C 1_555 1_555
H8C C13C 1_555 1_555
H10C C14 1_555 1_555
H12C C15 1_555 1_555
H14C C16 1_555 1_555
C17C S1C 1_555 1_555
C18C C17C 1_555 1_555
C19C S3C 1_555 1_555
C20C S4C 1_555 1_555
C21C S5C 1_555 1_555
H15C C21C 1_555 1_555
H16C C21C 1_555 1_555
C22C C21C 1_555 1_555
H17C C22C 1_555 1_555
H18C C22C 1_555 1_555
C23C C22C 1_555 1_555
H19C C23C 1_555 1_555
H20C C23C 1_555 1_555
H21C C23C 1_555 1_555
C24C S6C 1_555 1_555
H22C C24C 1_555 1_555
H23C C24C 1_555 1_555
C25C C24C 1_555 1_555
H24C C25C 1_555 1_555
H25C C25C 1_555 1_555
C26C C25C 1_555 1_555
H26C C26C 1_555 1_555
H27C C26C 1_555 1_555
H28C C26C 1_555 1_555
C27C S7C 1_555 1_555
C28C C27C 1_555 1_555
C29C S9C 1_555 1_555
C30C S10C 1_555 1_555
C31C S11C 1_555 1_555
H29C C31C 1_555 1_555
H30C C31C 1_555 1_555
C32C C31C 1_555 1_555
H31C C32C 1_555 1_555
H32C C32C 1_555 1_555
C33C C32C 1_555 1_555
H33C C33C 1_555 1_555
H34C C33C 1_555 1_555
H35C C33C 1_555 1_555
C34C S12C 1_555 1_555
H36C C34C 1_555 1_555
H37C C34C 1_555 1_555
C35C C34C 1_555 1_555
H38C C35C 1_555 1_555
H39C C35C 1_555 1_555
C36C C35C 1_555 1_555
H40C C36C 1_555 1_555
H41C C36C 1_555 1_555
H42C C36C 1_555 1_555
H44C C37 1_555 1_555
C38C C38 1_555 1_555
C39C C38 1_555 1_555
C40C C44 1_555 1_555
C41C C40C 1_555 1_555
C42C C43 1_555 1_555
C43C C42 1_555 1_555
C44C C39 1_555 1_555
C45C C46 1_555 1_555
C46C C45 1_555 1_555
C47C C46 1_555 1_555
C48C C49 1_555 1_555
C49C C48 1_555 1_555
C50C C59 1_555 1_555
C51C C41C 1_555 1_555
C52C C51C 1_555 1_555
C53C C52C 1_555 1_555
C54C C54 1_555 1_555
C55C C54 1_555 1_555
C56C C43 1_555 1_555
C57C C41C 1_555 1_555
C58C C44 1_555 1_555
C59C C49 1_555 1_555
C60C C48C 1_555 1_555
C61C C45C 1_555 1_555
C62C C62 1_555 1_555
C63C C62 1_555 1_555
C64C C62C 1_555 1_555
C65C C48C 1_555 1_555
C66C C67 1_555 1_555
C67C C66 1_555 1_555
C68C C77 1_555 1_555
C69C C52C 1_555 1_555
C70C C69C 1_555 1_555
C71C C71 1_555 1_555
C72C C71 1_555 1_555
C73C C52C 1_555 1_555
C74C C52C 1_555 1_555
C75C C50C 1_555 1_555
C76C C59 1_555 1_555
C77C C67 1_555 1_555
C78C C66C 1_555 1_555
C79C C60C 1_555 1_555
C80C C62C 1_555 1_555
C81C C81 1_555 1_555
C82C C81 1_555 1_555
C83C C82C 1_555 1_555
C84C C85 1_555 1_555
C85C C84 1_555 1_555
C86C C85C 1_555 1_555
C87C C88 1_555 1_555
C88C C87 1_555 1_555
C89C C88 1_555 1_555
C90C C68C 1_555 1_555
C91C C77 1_555 1_555
C92C C97 1_555 1_555
C93C C93 1_555 1_555
C94C C93 1_555 1_555
C95C C94 1_555 1_555
C96C C88 1_555 1_555
C97C C92 1_555 1_555
S2 C17 1_555 1_555
S8 C27 1_555 1_555
C3 C4 1_555 1_555
C5 C6 1_555 1_555
C8 C9 1_555 1_555
C19 C20 1_555 1_555
C29 C30 1_555 1_555
C39 C38C 1_555 1_555
C39 C39C 1_555 1_555
C40 C44C 1_555 1_555
C42 C56 1_555 1_555
C43 C43C 1_555 1_555
C44 C39C 1_555 1_555
C45 C46 1_555 1_555
C46 C46C 1_555 1_555
C47 C61 1_555 1_555
C47 C46C 1_555 1_555
C48 C61 1_555 1_555
C49 C58 1_555 1_555
C50 C51 1_555 1_555
C50 C57 1_555 1_555
C50 C59C 1_555 1_555
C51 C57 1_555 1_555
C51 C75 1_555 1_555
C52 C75 1_555 1_555
C53 C54 1_555 1_555
C53 C73 1_555 1_555
C54 C55 1_555 1_555
C55 C56 1_555 1_555
C55 C73 1_555 1_555
C55 C54C 1_555 1_555
C56 C57 1_555 1_555
C56 C43C 1_555 1_555
C57 C58 1_555 1_555
C57 C75 1_555 1_555
C58 C44C 1_555 1_555
C58 C59C 1_555 1_555
C59 C60 1_555 1_555
C59 C49C 1_555 1_555
C59 C58C 1_555 1_555
C60 C61 1_555 1_555
C60 C65 1_555 1_555
C61 C63 1_555 1_555
C62 C63 1_555 1_555
C63 C64 1_555 1_555
C63 C62C 1_555 1_555
C63 C63C 1_555 1_555
C64 C65 1_555 1_555
C64 C79 1_555 1_555
C64 C80 1_555 1_555
C65 C79 1_555 1_555
C66 C79 1_555 1_555
C67 C76 1_555 1_555
C68 C69 1_555 1_555
C68 C77C 1_555 1_555
C69 C74 1_555 1_555
C69 C90 1_555 1_555
C70 C71 1_555 1_555
C70 C90 1_555 1_555
C71 C72 1_555 1_555
C71 C73 1_555 1_555
C72 C73 1_555 1_555
C72 C89 1_555 1_555
C72 C71C 1_555 1_555
C72 C72C 1_555 1_555
C73 C74 1_555 1_555
C74 C75 1_555 1_555
C74 C90 1_555 1_555
C75 C76 1_555 1_555
C76 C59C 1_555 1_555
C76 C77C 1_555 1_555
C77 C78 1_555 1_555
C77 C84 1_555 1_555
C77 C67C 1_555 1_555
C77 C76C 1_555 1_555
C78 C79 1_555 1_555
C78 C84 1_555 1_555
C79 C80 1_555 1_555
C80 C82 1_555 1_555
C81 C82 1_555 1_555
C82 C93 1_555 1_555
C82 C81C 1_555 1_555
C83 C84 1_555 1_555
C83 C92 1_555 1_555
C83 C93 1_555 1_555
C84 C92 1_555 1_555
C85 C91 1_555 1_555
C86 C87 1_555 1_555
C86 C97 1_555 1_555
C87 C89 1_555 1_555
C88 C88C 1_555 1_555
C89 C90 1_555 1_555
C89 C88C 1_555 1_555
C90 C91 1_555 1_555
C91 C97 1_555 1_555
C91 C77C 1_555 1_555
C92 C93 1_555 1_555
C92 C94 1_555 1_555
C93 C94 1_555 1_555
C94 C93C 1_555 1_555
C94 C94C 1_555 1_555
C95 C96 1_555 1_555
C95 C97 1_555 1_555
C95 C94C 1_555 1_555
C95 C95C 1_555 1_555
C95 C96C 1_555 1_555
C96 C97 1_555 1_555
C96 C88C 1_555 1_555
C96 C95C 1_555 1_555
C96 C96C 1_555 1_555
S2C C17C 1_555 1_555
S8C C27C 1_555 1_555
N1C C1C 1_555 1_555
N2C C9C 1_555 1_555
C3C C4C 1_555 1_555
C5C C6C 1_555 1_555
C8C C9C 1_555 1_555
C19C C20C 1_555 1_555
C29C C30C 1_555 1_555
C38C C39C 1_555 1_555
C38C C43C 1_555 1_555
C38C C44C 1_555 1_555
C39C C40C 1_555 1_555
C39C C46C 1_555 1_555
C40C C49C 1_555 1_555
C40C C58C 1_555 1_555
C41C C42C 1_555 1_555
C41C C56C 1_555 1_555
C42C C43C 1_555 1_555
C42C C54C 1_555 1_555
C42C C56C 1_555 1_555
C44C C45C 1_555 1_555
C45C C46C 1_555 1_555
C45C C47C 1_555 1_555
C47C C48C 1_555 1_555
C47C C61C 1_555 1_555
C47C C63C 1_555 1_555
C48C C59C 1_555 1_555
C48C C61C 1_555 1_555
C49C C50C 1_555 1_555
C49C C58C 1_555 1_555
C50C C51C 1_555 1_555
C50C C57C 1_555 1_555
C50C C67C 1_555 1_555
C50C C76C 1_555 1_555
C51C C57C 1_555 1_555
C51C C75C 1_555 1_555
C52C C75C 1_555 1_555
C53C C54C 1_555 1_555
C53C C55C 1_555 1_555
C53C C71C 1_555 1_555
C53C C73C 1_555 1_555
C54C C55C 1_555 1_555
C55C C56C 1_555 1_555
C55C C73C 1_555 1_555
C56C C57C 1_555 1_555
C57C C58C 1_555 1_555
C57C C75C 1_555 1_555
C59C C60C 1_555 1_555
C60C C61C 1_555 1_555
C60C C65C 1_555 1_555
C61C C62C 1_555 1_555
C61C C63C 1_555 1_555
C62C C63C 1_555 1_555
C63C C64C 1_555 1_555
C64C C65C 1_555 1_555
C64C C79C 1_555 1_555
C64C C80C 1_555 1_555
C64C C82C 1_555 1_555
C65C C66C 1_555 1_555
C65C C79C 1_555 1_555
C66C C77C 1_555 1_555
C66C C79C 1_555 1_555
C66C C84C 1_555 1_555
C67C C68C 1_555 1_555
C67C C76C 1_555 1_555
C68C C69C 1_555 1_555
C68C C85C 1_555 1_555
C68C C91C 1_555 1_555
C69C C74C 1_555 1_555
C69C C90C 1_555 1_555
C70C C71C 1_555 1_555
C70C C72C 1_555 1_555
C70C C87C 1_555 1_555
C70C C89C 1_555 1_555
C70C C90C 1_555 1_555
C71C C72C 1_555 1_555
C71C C73C 1_555 1_555
C72C C73C 1_555 1_555
C72C C89C 1_555 1_555
C73C C74C 1_555 1_555
C74C C75C 1_555 1_555
C74C C90C 1_555 1_555
C75C C76C 1_555 1_555
C77C C78C 1_555 1_555
C77C C84C 1_555 1_555
C78C C79C 1_555 1_555
C78C C84C 1_555 1_555
C78C C92C 1_555 1_555
C79C C80C 1_555 1_555
C80C C81C 1_555 1_555
C80C C82C 1_555 1_555
C81C C82C 1_555 1_555
C81C C93C 1_555 1_555
C82C C93C 1_555 1_555
C83C C84C 1_555 1_555
C83C C92C 1_555 1_555
C83C C93C 1_555 1_555
C83C C94C 1_555 1_555
C84C C92C 1_555 1_555
C85C C91C 1_555 1_555
C85C C97C 1_555 1_555
C86C C87C 1_555 1_555
C86C C95C 1_555 1_555
C86C C96C 1_555 1_555
C86C C97C 1_555 1_555
C87C C88C 1_555 1_555
C87C C89C 1_555 1_555
C89C C90C 1_555 1_555
C90C C91C 1_555 1_555
C91C C97C 1_555 1_555
C92C C93C 1_555 1_555
C92C C94C 1_555 1_555
C93C C94C 1_555 1_555
C95C C96C 1_555 1_555
C95C C97C 1_555 1_555
C96C C97C 1_555 1_555

#END
