
#######################################################################
#
#                 Cambridge Crystallographic Data Centre
#                                CCDC 
#
#######################################################################
#
# If this CIF has been generated from an entry in the Cambridge 
# Structural Database, then it will include bibliographic, chemical, 
# crystal, experimental, refinement or atomic coordinate data resulting 
# from the CCDC's data processing and validation procedures.
#
#######################################################################

data_SAMJUN
_chemical_formula_moiety         'C34 H22 O4'
_chemical_name_systematic        
2,13-Diphenyl-23,24,25,26-tetraoxapentacyclo[18.2.1.1^3,6^.1^9,12^.1^14,17^]hexacosa-1,3,5,7,9,11,13,15,17,19,21-undecaene
_symmetry_cell_setting           monoclinic
_symmetry_space_group_name_H-M   'P 21/c'
_symmetry_Int_Tables_number      14
_space_group_name_Hall           '-P 2ybc'
loop_
_symmetry_equiv_pos_site_id
_symmetry_equiv_pos_as_xyz
1 x,y,z
2 -x,1/2+y,1/2-z
3 -x,-y,-z
4 x,1/2-y,1/2+z
_cell_length_a                   13.091(3)
_cell_length_b                   9.1718(12)
_cell_length_c                   10.744(2)
_cell_angle_alpha                90
_cell_angle_beta                 107.03(2)
_cell_angle_gamma                90
_cell_volume                     1233.45
_exptl_crystal_colour            black
_exptl_crystal_description       block
_cell_formula_units_Z            2
loop_
_atom_site_label
_atom_site_type_symbol
_atom_site_fract_x
_atom_site_fract_y
_atom_site_fract_z
O1 O 0.09037(8) 0.20527(9) 0.36170(9)
O2 O 0.15311(8) -0.04427(10) 0.43687(9)
C1 C 0.03594(12) 0.33457(14) 0.35094(13)
C2 C -0.04897(12) 0.33542(15) 0.40343(13)
H1 H -0.0889 0.4200 0.3997
C3 C 0.08395(12) 0.43158(17) 0.28747(14)
H2 H 0.0634 0.5279 0.2673
C4 C 0.16742(13) 0.36160(16) 0.25903(15)
H3 H 0.2128 0.4018 0.2159
C5 C 0.17167(12) 0.22004(15) 0.30633(13)
C6 C 0.24034(12) 0.10144(15) 0.31372(13)
C7 C 0.32814(12) 0.11179(15) 0.25308(14)
C8 C 0.30834(13) 0.14103(16) 0.12205(15)
H4 H 0.2390 0.1609 0.0713
C9 C 0.39034(15) 0.14107(18) 0.06590(17)
H5 H 0.3759 0.1613 -0.0224
C10 C 0.49226(16) 0.11184(19) 0.1382(2)
H6 H 0.5468 0.1096 0.0990
C11 C 0.51459(15) 0.0857(2) 0.26905(19)
H7 H 0.5844 0.0679 0.3193
C12 C 0.43263(13) 0.0859(2) 0.32548(16)
H8 H 0.4480 0.0683 0.4143
C13 C 0.23009(12) -0.02991(15) 0.37493(13)
C14 C 0.28154(13) -0.16322(16) 0.38370(16)
H9 H 0.3379 -0.1845 0.3504
C15 C 0.23553(13) -0.25823(17) 0.44942(16)
H10 H 0.2554 -0.3548 0.4690
C16 C 0.15435(12) -0.18545(15) 0.48168(13)
C17 C 0.07457(12) -0.21311(15) 0.53929(13)
H11 H 0.0302 -0.1339 0.5390
O1B O -0.09037(8) -0.20527(9) 0.63830(9)
O2B O -0.15311(8) 0.04427(10) 0.56313(9)
C1B C -0.03594(12) -0.33457(14) 0.64906(13)
C2B C 0.04897(12) -0.33542(15) 0.59657(13)
H1B H 0.0889 -0.4200 0.6003
C3B C -0.08395(12) -0.43158(17) 0.71253(14)
H2B H -0.0634 -0.5279 0.7327
C4B C -0.16742(13) -0.36160(16) 0.74097(15)
H3B H -0.2128 -0.4018 0.7841
C5B C -0.17167(12) -0.22004(15) 0.69367(13)
C6B C -0.24034(12) -0.10144(15) 0.68628(13)
C7B C -0.32814(12) -0.11179(15) 0.74692(14)
C8B C -0.30834(13) -0.14103(16) 0.87795(15)
H4B H -0.2390 -0.1609 0.9287
C9B C -0.39034(15) -0.14107(18) 0.93410(17)
H5B H -0.3759 -0.1613 1.0224
C10B C -0.49226(16) -0.11184(19) 0.8618(2)
H6B H -0.5468 -0.1096 0.9010
C11B C -0.51459(15) -0.0857(2) 0.73095(19)
H7B H -0.5844 -0.0679 0.6807
C12B C -0.43263(13) -0.0859(2) 0.67452(16)
H8B H -0.4480 -0.0683 0.5857
C13B C -0.23009(12) 0.02991(15) 0.62507(13)
C14B C -0.28154(13) 0.16322(16) 0.61630(16)
H9B H -0.3379 0.1845 0.6496
C15B C -0.23553(13) 0.25823(17) 0.55058(16)
H10B H -0.2554 0.3548 0.5310
C16B C -0.15435(12) 0.18545(15) 0.51832(13)
C17B C -0.07457(12) 0.21311(15) 0.46071(13)
H11B H -0.0302 0.1339 0.4610
loop_
_geom_bond_atom_site_label_1
_geom_bond_atom_site_label_2
_geom_bond_site_symmetry_1
_geom_bond_site_symmetry_2
O1 C1 1_555 1_555
O2 C13 1_555 1_555
C1 C2 1_555 1_555
C2 H1 1_555 1_555
C3 C1 1_555 1_555
H2 C3 1_555 1_555
C4 C3 1_555 1_555
H3 C4 1_555 1_555
C5 O1 1_555 1_555
C6 C5 1_555 1_555
C7 C6 1_555 1_555
C8 C7 1_555 1_555
H4 C8 1_555 1_555
C9 C8 1_555 1_555
H5 C9 1_555 1_555
C10 C9 1_555 1_555
H6 C10 1_555 1_555
C11 C10 1_555 1_555
H7 C11 1_555 1_555
C12 C7 1_555 1_555
H8 C12 1_555 1_555
C13 C6 1_555 1_555
C14 C13 1_555 1_555
H9 C14 1_555 1_555
C15 C14 1_555 1_555
H10 C15 1_555 1_555
C16 O2 1_555 1_555
C17 C16 1_555 1_555
H11 C17 1_555 1_555
O1B C1B 1_555 1_555
O2B C13B 1_555 1_555
C1B C2B 1_555 1_555
C2B C17 1_555 1_555
H1B C2B 1_555 1_555
C3B C1B 1_555 1_555
H2B C3B 1_555 1_555
C4B C3B 1_555 1_555
H3B C4B 1_555 1_555
C5B O1B 1_555 1_555
C6B C5B 1_555 1_555
C7B C6B 1_555 1_555
C8B C7B 1_555 1_555
H4B C8B 1_555 1_555
C9B C8B 1_555 1_555
H5B C9B 1_555 1_555
C10B C9B 1_555 1_555
H6B C10B 1_555 1_555
C11B C10B 1_555 1_555
H7B C11B 1_555 1_555
C12B C7B 1_555 1_555
H8B C12B 1_555 1_555
C13B C6B 1_555 1_555
C14B C13B 1_555 1_555
H9B C14B 1_555 1_555
C15B C14B 1_555 1_555
H10B C15B 1_555 1_555
C16B O2B 1_555 1_555
C17B C2 1_555 1_555
H11B C17B 1_555 1_555
C4 C5 1_555 1_555
C11 C12 1_555 1_555
C15 C16 1_555 1_555
C4B C5B 1_555 1_555
C11B C12B 1_555 1_555
C15B C16B 1_555 1_555
C16B C17B 1_555 1_555

#END
