
#######################################################################
#
#                 Cambridge Crystallographic Data Centre
#                                CCDC 
#
#######################################################################
#
# If this CIF has been generated from an entry in the Cambridge 
# Structural Database, then it will include bibliographic, chemical, 
# crystal, experimental, refinement or atomic coordinate data resulting 
# from the CCDC's data processing and validation procedures.
#
#######################################################################

data_SAMLUP
_chemical_formula_moiety         'C17 H16 Cl1 N1 O5 S1'
_chemical_name_systematic        
'Methyl 3-(4-chlorophenyl)-5-oxo-2-(pyridin-2-ylsulfonyl)pentanoate'
_symmetry_cell_setting           orthorhombic
_symmetry_space_group_name_H-M   'P 21 21 21'
_symmetry_Int_Tables_number      19
_space_group_name_Hall           'P 2ac 2ab'
loop_
_symmetry_equiv_pos_site_id
_symmetry_equiv_pos_as_xyz
1 x,y,z
2 1/2+x,1/2-y,-z
3 -x,1/2+y,1/2-z
4 1/2-x,-y,1/2+z
_cell_length_a                   9.0413(8)
_cell_length_b                   13.8240(12)
_cell_length_c                   13.9065(12)
_cell_angle_alpha                90
_cell_angle_beta                 90
_cell_angle_gamma                90
_cell_volume                     1738.13
_exptl_crystal_colour            colorless
_exptl_crystal_description       block
_cell_formula_units_Z            4
loop_
_atom_site_label
_atom_site_type_symbol
_atom_site_fract_x
_atom_site_fract_y
_atom_site_fract_z
Cl1 Cl -0.06969(4) 0.69566(3) 0.33416(3)
S1 S 0.46404(3) 0.98976(2) 0.19390(2)
N1 N 0.53854(12) 0.83399(7) 0.28985(7)
O1 O 0.08824(11) 0.84328(9) -0.08526(7)
O2 O 0.52012(11) 1.04500(7) -0.02849(7)
O3 O 0.70549(10) 0.94422(7) 0.01156(7)
O4 O 0.60831(10) 1.03213(7) 0.20678(7)
O5 O 0.33629(10) 1.05176(6) 0.18915(7)
C1 C 0.20779(15) 0.81055(10) -0.10450(9)
H1 H 0.2152 0.7689 -0.1586
C2 C 0.34594(14) 0.83116(10) -0.04858(9)
H2 H 0.4171 0.8649 -0.0911
H3 H 0.3913 0.7690 -0.0292
C3 C 0.32098(13) 0.89324(9) 0.04209(9)
H4 H 0.2727 0.9552 0.0223
C4 C 0.47366(13) 0.91698(8) 0.08511(8)
H5 H 0.5267 0.8552 0.0997
C5 C 0.56745(13) 0.97723(9) 0.01570(9)
C6 C 0.80549(17) 1.00073(12) -0.04826(12)
H6 H 0.7648 1.0058 -0.1134
H7 H 0.9022 0.9688 -0.0508
H8 H 0.8167 1.0656 -0.0209
C7 C 0.22086(13) 0.84269(9) 0.11467(8)
C8 C 0.09214(14) 0.88761(9) 0.14670(9)
H9 H 0.0658 0.9493 0.1219
C9 C 0.00135(14) 0.84312(10) 0.21473(9)
H10 H -0.0864 0.8739 0.2365
C10 C 0.04186(14) 0.75323(10) 0.24979(9)
C11 C 0.16888(14) 0.70675(9) 0.21934(9)
H11 H 0.1948 0.6451 0.2445
C12 C 0.25822(13) 0.75190(9) 0.15118(9)
H12 H 0.3455 0.7206 0.1293
C13 C 0.43467(14) 0.90287(8) 0.28685(8)
C14 C 0.31480(15) 0.91135(9) 0.34776(9)
H13 H 0.2455 0.9626 0.3416
C15 C 0.30081(16) 0.84063(10) 0.41892(9)
H14 H 0.2213 0.8428 0.4635
C16 C 0.40461(17) 0.76747(10) 0.42336(10)
H15 H 0.3965 0.7181 0.4706
C17 C 0.52135(16) 0.76656(9) 0.35800(10)
H16 H 0.5919 0.7158 0.3620
loop_
_geom_bond_atom_site_label_1
_geom_bond_atom_site_label_2
_geom_bond_site_symmetry_1
_geom_bond_site_symmetry_2
Cl1 C10 1_555 1_555
S1 O4 1_555 1_555
N1 C13 1_555 1_555
O1 C1 1_555 1_555
O2 C5 1_555 1_555
O3 C5 1_555 1_555
O5 S1 1_555 1_555
C1 H1 1_555 1_555
C2 C1 1_555 1_555
H2 C2 1_555 1_555
H3 C2 1_555 1_555
C3 C2 1_555 1_555
H4 C3 1_555 1_555
C4 S1 1_555 1_555
H5 C4 1_555 1_555
C5 C4 1_555 1_555
C6 O3 1_555 1_555
H6 C6 1_555 1_555
H7 C6 1_555 1_555
H8 C6 1_555 1_555
C7 C3 1_555 1_555
C8 C7 1_555 1_555
H9 C8 1_555 1_555
C9 C8 1_555 1_555
H10 C9 1_555 1_555
C10 C9 1_555 1_555
C11 C10 1_555 1_555
H11 C11 1_555 1_555
C12 C7 1_555 1_555
H12 C12 1_555 1_555
C13 S1 1_555 1_555
C14 C13 1_555 1_555
H13 C14 1_555 1_555
C15 C14 1_555 1_555
H14 C15 1_555 1_555
C16 C15 1_555 1_555
H15 C16 1_555 1_555
C17 N1 1_555 1_555
H16 C17 1_555 1_555
C3 C4 1_555 1_555
C11 C12 1_555 1_555
C16 C17 1_555 1_555

#END
