
#######################################################################
#
#                 Cambridge Crystallographic Data Centre
#                                CCDC 
#
#######################################################################
#
# If this CIF has been generated from an entry in the Cambridge 
# Structural Database, then it will include bibliographic, chemical, 
# crystal, experimental, refinement or atomic coordinate data resulting 
# from the CCDC's data processing and validation procedures.
#
#######################################################################

data_SAMQUV
_chemical_formula_moiety         'C25 H23 N3 O3 S1'
_chemical_name_systematic        
4-methyl-N-(3-(4-methylbenzoyl)-5-(4-methylphenyl)-1H-pyrazol-4-yl)benzenesulfonamide
_symmetry_cell_setting           triclinic
_symmetry_space_group_name_H-M   'P -1'
_symmetry_Int_Tables_number      2
_space_group_name_Hall           '-P 1'
loop_
_symmetry_equiv_pos_site_id
_symmetry_equiv_pos_as_xyz
1 x,y,z
2 -x,-y,-z
_cell_length_a                   8.4034(6)
_cell_length_b                   9.8773(7)
_cell_length_c                   14.6579(8)
_cell_angle_alpha                101.168(5)
_cell_angle_beta                 101.636(6)
_cell_angle_gamma                102.436(6)
_cell_volume                     1127.36
_exptl_crystal_colour            yellow
_exptl_crystal_description       plate
_cell_formula_units_Z            2
loop_
_atom_site_label
_atom_site_type_symbol
_atom_site_fract_x
_atom_site_fract_y
_atom_site_fract_z
S1 S 0.51337(8) 0.22299(6) 0.36019(4)
N1 N 0.5825(3) 0.0802(2) 0.36217(14)
O1 O 0.3340(2) 0.17052(18) 0.32405(11)
O2 O 0.6075(2) 0.30487(19) 0.30983(13)
N2 N 1.0185(3) 0.1356(2) 0.37842(15)
O3 O 0.6870(2) 0.07271(18) 0.56904(12)
N3 N 1.0310(3) 0.1622(2) 0.47340(14)
C1 C 0.5594(3) 0.3201(3) 0.48011(17)
C2 C 0.7595(3) 0.1009(2) 0.38824(16)
C3 C 0.8579(3) 0.0976(3) 0.32411(17)
C4 C 0.7050(4) 0.4304(3) 0.5184(2)
H1 H 0.7731 0.4604 0.4795
C5 C 0.8720(3) 0.1419(2) 0.48042(16)
C6 C 0.4576(3) 0.2774(3) 0.53745(18)
H2 H 0.3592 0.2037 0.5114
C7 C 0.9419(3) 0.2298(3) 0.66564(16)
C8 C 0.8151(3) 0.0579(3) 0.21897(18)
C9 C 0.8265(3) 0.1449(2) 0.57236(16)
C10 C 0.5029(4) 0.3448(3) 0.63416(19)
H3 H 0.4334 0.3167 0.6728
C11 C 0.7478(4) 0.4955(3) 0.6157(2)
H4 H 0.8456 0.5697 0.6418
C12 C 1.0759(4) 0.3441(3) 0.67430(19)
H5 H 1.1031 0.3656 0.6194
C13 C 1.1703(4) 0.4270(3) 0.7641(2)
H6 H 1.2595 0.5045 0.7687
C14 C 1.0038(5) 0.2809(4) 0.8373(2)
H7 H 0.9809 0.2572 0.8926
C15 C 0.6496(4) 0.4533(3) 0.6747(2)
C16 C 0.6990(5) 0.5216(4) 0.7810(2)
H8 H 0.6759 0.6136 0.7920
H9 H 0.8171 0.5329 0.8061
H10 H 0.6355 0.4617 0.8127
C17 C 0.6512(5) -0.0994(4) 0.0681(3)
H11 H 0.5657 -0.1814 0.0350
C18 C 1.1349(4) 0.3972(4) 0.8458(2)
C19 C 0.9008(6) 0.1328(4) 0.1680(2)
H12 H 0.9880 0.2140 0.2004
C20 C 0.9063(4) 0.1993(3) 0.74903(18)
H13 H 0.8159 0.1232 0.7450
C21 C 0.6888(5) -0.0603(4) 0.1684(2)
H14 H 0.6272 -0.1153 0.2008
C22 C 0.7342(5) -0.0227(5) 0.0179(2)
C23 C 0.6897(6) -0.0688(6) -0.0915(2)
H15 H 0.5924 -0.1496 -0.1140
H16 H 0.7829 -0.0949 -0.1120
H17 H 0.6658 0.0088 -0.1174
C24 C 0.8614(7) 0.0912(5) 0.0687(3)
H18 H 0.9252 0.1439 0.0361
C25 C 1.2398(6) 0.4894(5) 0.9443(2)
H19 H 1.3120 0.4382 0.9738
H20 H 1.1663 0.5115 0.9840
H21 H 1.3071 0.5765 0.9371
H22 H 1.109(3) 0.139(3) 0.3591(18)
H23 H 0.523(3) 0.031(2) 0.3889(18)
loop_
_geom_bond_atom_site_label_1
_geom_bond_atom_site_label_2
_geom_bond_site_symmetry_1
_geom_bond_site_symmetry_2
S1 N1 1_555 1_555
N1 C2 1_555 1_555
O1 S1 1_555 1_555
O2 S1 1_555 1_555
N2 N3 1_555 1_555
O3 C9 1_555 1_555
N3 C5 1_555 1_555
C1 S1 1_555 1_555
C2 C3 1_555 1_555
C3 N2 1_555 1_555
C4 C1 1_555 1_555
H1 C4 1_555 1_555
C5 C2 1_555 1_555
C6 C1 1_555 1_555
H2 C6 1_555 1_555
C7 C9 1_555 1_555
C8 C3 1_555 1_555
C9 C5 1_555 1_555
C10 C6 1_555 1_555
H3 C10 1_555 1_555
C11 C4 1_555 1_555
H4 C11 1_555 1_555
C12 C7 1_555 1_555
H5 C12 1_555 1_555
C13 C12 1_555 1_555
H6 C13 1_555 1_555
C14 H7 1_555 1_555
C15 C10 1_555 1_555
C16 C15 1_555 1_555
H8 C16 1_555 1_555
H9 C16 1_555 1_555
H10 C16 1_555 1_555
C17 H11 1_555 1_555
C18 C13 1_555 1_555
C19 C8 1_555 1_555
H12 C19 1_555 1_555
C20 C7 1_555 1_555
H13 C20 1_555 1_555
C21 C8 1_555 1_555
H14 C21 1_555 1_555
C22 C17 1_555 1_555
C23 C22 1_555 1_555
H15 C23 1_555 1_555
H16 C23 1_555 1_555
H17 C23 1_555 1_555
C24 C19 1_555 1_555
H18 C24 1_555 1_555
C25 C18 1_555 1_555
H19 C25 1_555 1_555
H20 C25 1_555 1_555
H21 C25 1_555 1_555
H22 N2 1_555 1_555
H23 N1 1_555 1_555
C11 C15 1_555 1_555
C14 C18 1_555 1_555
C14 C20 1_555 1_555
C17 C21 1_555 1_555
C22 C24 1_555 1_555

#END
