
#######################################################################
#
#                 Cambridge Crystallographic Data Centre
#                                CCDC 
#
#######################################################################
#
# If this CIF has been generated from an entry in the Cambridge 
# Structural Database, then it will include bibliographic, chemical, 
# crystal, experimental, refinement or atomic coordinate data resulting 
# from the CCDC's data processing and validation procedures.
#
#######################################################################

data_SAMRIK
_chemical_formula_moiety         'C28 H31 Cl1 N2 O3'
_chemical_name_systematic        
2'-(4-chlorophenyl)-5,6',7-trimethoxy-2,2-dimethyl-2,2',3,3'-tetrahydro-1H,1'H-4,4'-spirobi[quinoline]
_symmetry_cell_setting           triclinic
_symmetry_space_group_name_H-M   'P -1'
_symmetry_Int_Tables_number      2
_space_group_name_Hall           '-P 1'
loop_
_symmetry_equiv_pos_site_id
_symmetry_equiv_pos_as_xyz
1 x,y,z
2 -x,-y,-z
_cell_length_a                   7.8118(3)
_cell_length_b                   8.2779(3)
_cell_length_c                   20.3825(8)
_cell_angle_alpha                100.537(3)
_cell_angle_beta                 93.304(3)
_cell_angle_gamma                102.748(3)
_cell_volume                     1257.26
_exptl_crystal_colour            colorless
_exptl_crystal_description       block
_cell_formula_units_Z            2
_exptl_crystal_recrystallization_method toluene
loop_
_atom_site_label
_atom_site_type_symbol
_atom_site_fract_x
_atom_site_fract_y
_atom_site_fract_z
C1 C 0.6873(3) 0.3538(3) 0.57345(12)
H1 H 0.8001 0.3342 0.5734
C2 C 0.5487(3) 0.2403(3) 0.53208(12)
H2 H 0.5678 0.1445 0.5046
C3 C 0.3828(3) 0.2710(3) 0.53214(12)
C4 C 0.3528(3) 0.4106(3) 0.57195(16)
H3 H 0.2402 0.4306 0.5713
C5 C 0.4916(3) 0.5228(3) 0.61353(14)
H4 H 0.4710 0.6179 0.6410
C6 C 0.6595(3) 0.4964(3) 0.61495(9)
C7 C 0.8092(3) 0.6187(2) 0.66135(10)
H5 H 0.7751 0.7255 0.6761
C8 C 0.8531(2) 0.5484(2) 0.72251(9)
H6 H 0.8851 0.4419 0.7076
H7 H 0.7483 0.5255 0.7458
C9 C 1.0052(2) 0.6681(2) 0.77245(9)
C10 C 1.1514(2) 0.7495(2) 0.73317(9)
C11 C 1.3136(3) 0.8395(2) 0.76682(10)
H8 H 1.3361 0.8389 0.8121
C12 C 1.4432(3) 0.9305(2) 0.73514(12)
C13 C 1.4121(3) 0.9319(3) 0.66769(13)
H9 H 1.4974 0.9929 0.6459
C14 C 1.2528(3) 0.8416(3) 0.63342(11)
H10 H 1.2316 0.8428 0.5882
C15 C 1.1221(3) 0.7481(2) 0.66454(10)
C16 C 1.7192(4) 1.1322(4) 0.7494(2)
H11 H 1.7741 1.0730 0.7148
H12 H 1.8076 1.1972 0.7847
H13 H 1.6600 1.2064 0.7310
C17 C 0.9379(3) 0.8170(2) 0.81281(10)
H14 H 1.0353 0.9164 0.8227
H15 H 0.8477 0.8415 0.7840
C18 C 0.8622(3) 0.7906(3) 0.87853(10)
C19 C 1.0758(3) 0.6169(3) 0.89097(10)
C20 C 1.1532(3) 0.5344(3) 0.93406(10)
H16 H 1.1505 0.5657 0.9801
C21 C 1.2335(3) 0.4075(3) 0.90918(11)
C22 C 1.2357(3) 0.3565(3) 0.84070(11)
H17 H 1.2870 0.2686 0.8236
C23 C 1.1593(3) 0.4401(2) 0.79815(10)
C24 C 1.0784(2) 0.5725(2) 0.82099(9)
C25 C 1.4159(5) 0.2253(5) 0.93480(16)
H18 H 1.3491 0.1271 0.9036
H19 H 1.4643 0.1912 0.9730
H20 H 1.5099 0.2839 0.9134
C26 C 1.2050(5) 0.2439(3) 0.70305(14)
H21 H 1.1698 0.2136 0.6557
H22 H 1.1468 0.1555 0.7243
H23 H 1.3305 0.2591 0.7109
C27 C 0.6903(3) 0.6538(3) 0.86933(12)
H24 H 0.7131 0.5457 0.8517
H25 H 0.6061 0.6782 0.8387
H26 H 0.6440 0.6516 0.9118
C28 C 0.8316(4) 0.9588(3) 0.91523(12)
H27 H 0.7997 0.9483 0.9593
H28 H 0.7381 0.9877 0.8906
H29 H 0.9378 1.0457 0.9188
Cl1 Cl 0.20828(10) 0.12485(9) 0.48141(4)
N1 N 0.9669(2) 0.6504(2) 0.62624(8)
H30 H 0.9647 0.6110 0.5840
N2 N 1.0000(3) 0.7476(3) 0.91872(9)
H31 H 1.0340 0.8025 0.9591
O1 O 1.5963(2) 1.0150(2) 0.77523(11)
O2 O 1.3036(3) 0.3343(3) 0.95608(9)
O3 O 1.1580(2) 0.39611(19) 0.72996(7)
loop_
_geom_bond_atom_site_label_1
_geom_bond_atom_site_label_2
_geom_bond_site_symmetry_1
_geom_bond_site_symmetry_2
C1 H1 1_555 1_555
C2 C1 1_555 1_555
H2 C2 1_555 1_555
C3 C2 1_555 1_555
C4 C3 1_555 1_555
H3 C4 1_555 1_555
C5 C4 1_555 1_555
H4 C5 1_555 1_555
C6 C1 1_555 1_555
C7 C6 1_555 1_555
H5 C7 1_555 1_555
C8 C7 1_555 1_555
H6 C8 1_555 1_555
H7 C8 1_555 1_555
C9 C8 1_555 1_555
C10 C9 1_555 1_555
C11 C10 1_555 1_555
H8 C11 1_555 1_555
C12 C11 1_555 1_555
C13 C12 1_555 1_555
H9 C13 1_555 1_555
C14 C13 1_555 1_555
H10 C14 1_555 1_555
C15 C10 1_555 1_555
C16 H11 1_555 1_555
H12 C16 1_555 1_555
H13 C16 1_555 1_555
C17 C9 1_555 1_555
H14 C17 1_555 1_555
H15 C17 1_555 1_555
C18 C17 1_555 1_555
C19 C20 1_555 1_555
C20 H16 1_555 1_555
C21 C20 1_555 1_555
C22 C21 1_555 1_555
H17 C22 1_555 1_555
C23 C22 1_555 1_555
C24 C9 1_555 1_555
C25 H18 1_555 1_555
H19 C25 1_555 1_555
H20 C25 1_555 1_555
C26 H21 1_555 1_555
H22 C26 1_555 1_555
H23 C26 1_555 1_555
C27 C18 1_555 1_555
H24 C27 1_555 1_555
H25 C27 1_555 1_555
H26 C27 1_555 1_555
C28 C18 1_555 1_555
H27 C28 1_555 1_555
H28 C28 1_555 1_555
H29 C28 1_555 1_555
Cl1 C3 1_555 1_555
N1 C7 1_555 1_555
H30 N1 1_555 1_555
N2 C18 1_555 1_555
H31 N2 1_555 1_555
O1 C12 1_555 1_555
O2 C21 1_555 1_555
O3 C23 1_555 1_555
C5 C6 1_555 1_555
C14 C15 1_555 1_555
C15 N1 1_555 1_555
C16 O1 1_555 1_555
C19 C24 1_555 1_555
C19 N2 1_555 1_555
C23 C24 1_555 1_555
C25 O2 1_555 1_555
C26 O3 1_555 1_555

#END
