
#######################################################################
#
#                 Cambridge Crystallographic Data Centre
#                                CCDC 
#
#######################################################################
#
# If this CIF has been generated from an entry in the Cambridge 
# Structural Database, then it will include bibliographic, chemical, 
# crystal, experimental, refinement or atomic coordinate data resulting 
# from the CCDC's data processing and validation procedures.
#
#######################################################################

data_SAMRIJ
_chemical_formula_moiety         'C15 H19 N1 O3'
_chemical_name_systematic        
9-(Allyloxy)-1,2,3,5,10,10a-hexahydropyrrolo[1,2-b]isoquinoline-2,10-diol
_symmetry_cell_setting           triclinic
_symmetry_space_group_name_H-M   'P 1'
_symmetry_Int_Tables_number      1
_space_group_name_Hall           'P 1'
loop_
_symmetry_equiv_pos_site_id
_symmetry_equiv_pos_as_xyz
1 x,y,z
_cell_length_a                   6.8191(2)
_cell_length_b                   7.1074(2)
_cell_length_c                   14.2337(4)
_cell_angle_alpha                77.551(3)
_cell_angle_beta                 89.980(2)
_cell_angle_gamma                83.848(2)
_cell_volume                     669.569
_exptl_crystal_colour            colorless
_exptl_crystal_description       rod
_cell_formula_units_Z            2
loop_
_atom_site_label
_atom_site_type_symbol
_atom_site_fract_x
_atom_site_fract_y
_atom_site_fract_z
O1 O 0.47055(19) 1.04493(17) 0.47417(9)
O2 O 0.0890(2) 1.09336(19) 0.50879(10)
H1 H 0.208(4) 1.131(4) 0.479(2)
O3 O -0.2250(2) 0.9318(4) 0.85376(14)
H2 H -0.341(7) 0.965(6) 0.876(3)
N1 N 0.0418(2) 0.7161(2) 0.72371(10)
C1 C 0.1489(3) 0.5514(3) 0.69379(13)
H3 H 0.0566 0.4880 0.6603
H4 H 0.2038 0.4558 0.7514
C2 C 0.3142(3) 0.6121(2) 0.62773(12)
C3 C 0.4605(3) 0.4708(3) 0.61148(14)
H5 H 0.4575 0.3398 0.6444
C4 C 0.6099(3) 0.5192(3) 0.54793(14)
H6 H 0.7086 0.4216 0.5373
C5 C 0.6159(3) 0.7096(3) 0.49987(13)
H7 H 0.7171 0.7427 0.4554
C6 C 0.4734(3) 0.8515(3) 0.51694(12)
C7 C 0.3179(2) 0.8058(2) 0.58018(12)
C8 C 0.1596(3) 0.9619(2) 0.59665(12)
H8 H 0.2130 1.0366 0.6410
C9 C -0.0197(3) 0.8721(3) 0.64044(13)
H9 H -0.0845 0.8159 0.5914
C10 C -0.1750(3) 1.0027(3) 0.68078(17)
H10 H -0.2798 1.0608 0.6318
H11 H -0.1143 1.1083 0.7013
C11 C -0.2603(3) 0.8691(4) 0.76781(15)
H12 H -0.4047 0.8647 0.7575
C12 C -0.1463(3) 0.6715(4) 0.77054(15)
H13 H -0.1226 0.5978 0.8377
H14 H -0.2193 0.5949 0.7349
C13 C 0.6041(3) 1.0995(3) 0.39599(13)
H15 H 0.6030 1.0113 0.3509
H16 H 0.7405 1.0923 0.4214
C14 C 0.5335(3) 1.3018(3) 0.34605(14)
H17 H 0.5194 1.3986 0.3831
C15 C 0.4899(3) 1.3538(3) 0.25390(14)
H18 H 0.5027 1.2601 0.2151
H19 H 0.4455 1.4852 0.2258
N2 N 0.4570(2) 1.07105(19) -0.04554(10)
O4 O 0.95208(18) 0.89654(18) 0.21864(10)
O5 O 0.57202(19) 0.83355(16) 0.20444(8)
H20 H 0.677(4) 0.804(3) 0.2347(17)
O6 O 0.3051(2) 0.7440(2) -0.12488(10)
H21 H 0.218(4) 0.761(4) -0.170(2)
C16 C 0.5125(3) 1.2625(2) -0.04209(14)
H22 H 0.3977 1.3414 -0.0223
H23 H 0.5494 1.3286 -0.1072
C17 C 0.6831(3) 1.2488(2) 0.02738(13)
C18 C 0.7822(3) 1.4125(3) 0.02486(15)
H24 H 0.7427 1.5292 -0.0208
C19 C 0.9364(3) 1.4047(3) 0.08825(17)
H25 H 1.0011 1.5173 0.0865
C20 C 0.9990(3) 1.2357(3) 0.15459(16)
H26 H 1.1066 1.2309 0.1977
C21 C 0.9011(3) 1.0736(3) 0.15662(13)
C22 C 0.7401(3) 1.0786(2) 0.09555(12)
C23 C 0.6228(2) 0.9054(2) 0.10611(12)
H27 H 0.7004 0.7998 0.0811
C24 C 0.4274(2) 0.9617(2) 0.05222(12)
H28 H 0.3404 1.0457 0.0867
C25 C 0.3165(3) 0.7950(3) 0.03713(13)
H29 H 0.2157 0.7672 0.0868
H30 H 0.4086 0.6761 0.0402
C26 C 0.2188(3) 0.8642(3) -0.06357(13)
H31 H 0.0728 0.8597 -0.0604
C27 C 0.2682(3) 1.0729(3) -0.09528(14)
H32 H 0.2815 1.1091 -0.1660
H33 H 0.1653 1.1647 -0.0754
C28 C 1.0967(3) 0.8830(3) 0.29336(14)
H34 H 1.0616 0.9849 0.3300
H35 H 1.2277 0.9018 0.2651
C29 C 1.1033(3) 0.6877(4) 0.35854(14)
H36 H 1.1858 0.6647 0.4145
C30 C 1.0067(3) 0.5444(3) 0.34643(15)
H37 H 0.9223 0.5601 0.2916
H38 H 1.0213 0.4250 0.3925
loop_
_geom_bond_atom_site_label_1
_geom_bond_atom_site_label_2
_geom_bond_site_symmetry_1
_geom_bond_site_symmetry_2
O1 C6 1_555 1_555
O2 H1 1_555 1_555
O3 H2 1_555 1_555
N1 C1 1_555 1_555
C1 H3 1_555 1_555
H4 C1 1_555 1_555
C2 C1 1_555 1_555
C3 C2 1_555 1_555
H5 C3 1_555 1_555
C4 C3 1_555 1_555
H6 C4 1_555 1_555
C5 C4 1_555 1_555
H7 C5 1_555 1_555
C6 C5 1_555 1_555
C7 C2 1_555 1_555
C8 O2 1_555 1_555
H8 C8 1_555 1_555
C9 N1 1_555 1_555
H9 C9 1_555 1_555
C10 C9 1_555 1_555
H10 C10 1_555 1_555
H11 C10 1_555 1_555
C11 O3 1_555 1_555
H12 C11 1_555 1_555
C12 N1 1_555 1_555
H13 C12 1_555 1_555
H14 C12 1_555 1_555
C13 O1 1_555 1_555
H15 C13 1_555 1_555
H16 C13 1_555 1_555
C14 C13 1_555 1_555
H17 C14 1_555 1_555
C15 C14 1_555 1_555
H18 C15 1_555 1_555
H19 C15 1_555 1_555
N2 C16 1_555 1_555
O4 C21 1_555 1_555
O5 H20 1_555 1_555
O6 H21 1_555 1_555
C16 H22 1_555 1_555
H23 C16 1_555 1_555
C17 C16 1_555 1_555
C18 C17 1_555 1_555
H24 C18 1_555 1_555
C19 C18 1_555 1_555
H25 C19 1_555 1_555
C20 C19 1_555 1_555
H26 C20 1_555 1_555
C21 C20 1_555 1_555
C22 C17 1_555 1_555
C23 O5 1_555 1_555
H27 C23 1_555 1_555
C24 N2 1_555 1_555
H28 C24 1_555 1_555
C25 C24 1_555 1_555
H29 C25 1_555 1_555
H30 C25 1_555 1_555
C26 O6 1_555 1_555
H31 C26 1_555 1_555
C27 N2 1_555 1_555
H32 C27 1_555 1_555
H33 C27 1_555 1_555
C28 O4 1_555 1_555
H34 C28 1_555 1_555
H35 C28 1_555 1_555
C29 C28 1_555 1_555
H36 C29 1_555 1_555
C30 C29 1_555 1_555
H37 C30 1_555 1_555
H38 C30 1_555 1_555
C6 C7 1_555 1_555
C7 C8 1_555 1_555
C8 C9 1_555 1_555
C10 C11 1_555 1_555
C11 C12 1_555 1_555
C21 C22 1_555 1_555
C22 C23 1_555 1_555
C23 C24 1_555 1_555
C25 C26 1_555 1_555
C26 C27 1_555 1_555

#END
