
#######################################################################
#
#                 Cambridge Crystallographic Data Centre
#                                CCDC 
#
#######################################################################
#
# If this CIF has been generated from an entry in the Cambridge 
# Structural Database, then it will include bibliographic, chemical, 
# crystal, experimental, refinement or atomic coordinate data resulting 
# from the CCDC's data processing and validation procedures.
#
#######################################################################

data_SANFUL
_chemical_formula_moiety         'C22 H20 Cl1 F2 N1 O2'
_chemical_name_systematic        
1-(4-chlorophenyl)-2,2-difluoro-3-((4-methoxyphenyl)amino)-3-phenylpropan-1-ol
_symmetry_cell_setting           orthorhombic
_symmetry_space_group_name_H-M   'P b c a'
_symmetry_Int_Tables_number      61
_space_group_name_Hall           '-P 2ac 2ab'
loop_
_symmetry_equiv_pos_site_id
_symmetry_equiv_pos_as_xyz
1 x,y,z
2 1/2-x,-y,1/2+z
3 -x,1/2+y,1/2-z
4 1/2+x,1/2-y,-z
5 -x,-y,-z
6 1/2+x,y,1/2-z
7 x,1/2-y,1/2+z
8 1/2-x,1/2+y,z
_cell_length_a                   11.2977(4)
_cell_length_b                   16.7918(5)
_cell_length_c                   20.4216(6)
_cell_angle_alpha                90
_cell_angle_beta                 90
_cell_angle_gamma                90
_cell_volume                     3874.16
_exptl_crystal_colour            colorless
_exptl_crystal_description       block
_cell_formula_units_Z            8
loop_
_atom_site_label
_atom_site_type_symbol
_atom_site_fract_x
_atom_site_fract_y
_atom_site_fract_z
Cl1 Cl 0.02247(5) 0.25231(3) 0.55450(3)
F1 F 0.08476(8) -0.01014(5) 0.33022(4)
F2 F 0.07232(8) 0.09890(5) 0.27233(5)
O1 O -0.17987(10) 0.08453(7) 0.27534(6)
H1 H -0.243(2) 0.0585(13) 0.2770(10)
O2 O 0.18915(11) -0.04605(7) -0.07093(5)
N1 N 0.12674(12) -0.03191(9) 0.19993(7)
H2 H 0.1544(15) -0.0734(11) 0.2200(8)
C1 C -0.15805(14) -0.10305(10) 0.17868(8)
H3 H -0.1702 -0.0637 0.1459
C2 C -0.22677(15) -0.17150(11) 0.17874(9)
H4 H -0.2852 -0.1788 0.1458
C3 C -0.21103(16) -0.22906(10) 0.22605(9)
H5 H -0.2591 -0.2755 0.2263
C4 C -0.12477(17) -0.21852(10) 0.27299(9)
H6 H -0.1128 -0.2582 0.3055
C5 C -0.05531(16) -0.15043(10) 0.27318(8)
H7 H 0.0039 -0.1439 0.3058
C6 C -0.07158(13) -0.09155(9) 0.22609(7)
C7 C 0.00433(13) -0.01701(9) 0.22295(8)
H8 H -0.0334 0.0191 0.1901
C8 C 0.01299(13) 0.02965(9) 0.28642(8)
C9 C -0.10228(13) 0.04924(9) 0.32172(8)
H9 H -0.1385 -0.0016 0.3375
C10 C -0.08002(13) 0.10245(9) 0.38033(8)
C11 C -0.08035(15) 0.07072(10) 0.44275(8)
H10 H -0.1005 0.0163 0.4487
C12 C -0.05191(16) 0.11666(11) 0.49697(9)
H11 H -0.0534 0.0944 0.5397
C13 C -0.02161(16) 0.19508(11) 0.48737(9)
C14 C -0.02285(15) 0.22914(10) 0.42592(9)
H12 H -0.0030 0.2837 0.4203
C15 C -0.05334(14) 0.18280(10) 0.37249(8)
H13 H -0.0561 0.2060 0.3301
C16 C 0.13006(15) 0.02097(10) 0.02384(8)
H14 H 0.1095 0.0649 -0.0031
C17 C 0.11256(14) 0.02529(10) 0.09030(8)
H15 H 0.0809 0.0725 0.1090
C18 C 0.14083(13) -0.03893(9) 0.13057(7)
C19 C 0.19032(14) -0.10574(9) 0.10254(8)
H16 H 0.2116 -0.1495 0.1296
C20 C 0.20974(14) -0.11042(10) 0.03536(8)
H17 H 0.2448 -0.1567 0.0169
C21 C 0.17776(14) -0.04740(10) -0.00418(8)
C22 C 0.23690(17) -0.11458(11) -0.10186(9)
H18 H 0.2404 -0.1058 -0.1493
H19 H 0.1865 -0.1607 -0.0926
H20 H 0.3168 -0.1246 -0.0851
loop_
_geom_bond_atom_site_label_1
_geom_bond_atom_site_label_2
_geom_bond_site_symmetry_1
_geom_bond_site_symmetry_2
Cl1 C13 1_555 1_555
F1 C8 1_555 1_555
F2 C8 1_555 1_555
O1 H1 1_555 1_555
O2 C21 1_555 1_555
N1 H2 1_555 1_555
C1 H3 1_555 1_555
C2 C1 1_555 1_555
H4 C2 1_555 1_555
C3 C2 1_555 1_555
H5 C3 1_555 1_555
C4 C3 1_555 1_555
H6 C4 1_555 1_555
C5 C4 1_555 1_555
H7 C5 1_555 1_555
C6 C1 1_555 1_555
C7 N1 1_555 1_555
H8 C7 1_555 1_555
C8 C7 1_555 1_555
C9 O1 1_555 1_555
H9 C9 1_555 1_555
C10 C9 1_555 1_555
C11 C10 1_555 1_555
H10 C11 1_555 1_555
C12 C11 1_555 1_555
H11 C12 1_555 1_555
C13 C12 1_555 1_555
C14 C13 1_555 1_555
H12 C14 1_555 1_555
C15 C10 1_555 1_555
H13 C15 1_555 1_555
C16 H14 1_555 1_555
C17 C16 1_555 1_555
H15 C17 1_555 1_555
C18 N1 1_555 1_555
C19 C18 1_555 1_555
H16 C19 1_555 1_555
C20 C19 1_555 1_555
H17 C20 1_555 1_555
C21 C16 1_555 1_555
C22 O2 1_555 1_555
H18 C22 1_555 1_555
H19 C22 1_555 1_555
H20 C22 1_555 1_555
C5 C6 1_555 1_555
C6 C7 1_555 1_555
C8 C9 1_555 1_555
C14 C15 1_555 1_555
C17 C18 1_555 1_555
C20 C21 1_555 1_555

#END
