
#######################################################################
#
#                 Cambridge Crystallographic Data Centre
#                                CCDC 
#
#######################################################################
#
# If this CIF has been generated from an entry in the Cambridge 
# Structural Database, then it will include bibliographic, chemical, 
# crystal, experimental, refinement or atomic coordinate data resulting 
# from the CCDC's data processing and validation procedures.
#
#######################################################################

data_SANJEZ
_chemical_formula_moiety         'C32 H35 Cl1 O3'
_chemical_name_systematic        
'methyl 7,9-di-t-butyl-4-(4-chlorophenyl)-8-oxo-3-phenylspiro[4.5]deca-1,6,9-triene-2-carboxylate'
_symmetry_cell_setting           triclinic
_symmetry_space_group_name_H-M   'P -1'
_symmetry_Int_Tables_number      2
_space_group_name_Hall           '-P 1'
loop_
_symmetry_equiv_pos_site_id
_symmetry_equiv_pos_as_xyz
1 x,y,z
2 -x,-y,-z
_cell_length_a                   9.902(2)
_cell_length_b                   10.463(3)
_cell_length_c                   14.653(4)
_cell_angle_alpha                102.998(8)
_cell_angle_beta                 92.934(8)
_cell_angle_gamma                105.378(7)
_cell_volume                     1416.3
_exptl_crystal_colour            colorless
_exptl_crystal_description       block
_cell_formula_units_Z            2
loop_
_atom_site_label
_atom_site_type_symbol
_atom_site_fract_x
_atom_site_fract_y
_atom_site_fract_z
C1 C -0.0569(6) 0.7171(6) 0.2644(4)
C2 C -0.0609(6) 0.5876(6) 0.2678(5)
H1 H -0.1413 0.5155 0.2426
C3 C 0.0555(6) 0.5640(6) 0.3092(5)
H2 H 0.0517 0.4755 0.3128
C4 C 0.1768(6) 0.6679(5) 0.3452(4)
C5 C 0.1762(6) 0.7992(6) 0.3416(4)
H3 H 0.2562 0.8720 0.3660
C6 C 0.0565(6) 0.8235(6) 0.3014(4)
H4 H 0.0559 0.9120 0.3006
C7 C 0.3062(6) 0.6354(5) 0.3817(4)
H5 H 0.2730 0.5636 0.4151
C8 C 0.3877(6) 0.5748(5) 0.2995(4)
C9 C 0.5329(6) 0.6095(5) 0.3547(4)
H6 H 0.6020 0.5682 0.3341
C10 C 0.5508(6) 0.7036(5) 0.4342(4)
C11 C 0.4199(6) 0.7520(5) 0.4510(4)
H7 H 0.4314 0.8355 0.4288
C12 C 0.3839(6) 0.7810(5) 0.5512(4)
C13 C 0.3911(7) 0.6946(6) 0.6089(4)
H8 H 0.4188 0.6165 0.5851
C14 C 0.3587(8) 0.7201(7) 0.7003(5)
H9 H 0.3692 0.6626 0.7385
C15 C 0.3119(7) 0.8286(8) 0.7338(5)
H10 H 0.2877 0.8454 0.7950
C16 C 0.3000(8) 0.9137(7) 0.6786(5)
H11 H 0.2670 0.9885 0.7024
C17 C 0.3364(7) 0.8912(6) 0.5859(5)
H12 H 0.3281 0.9508 0.5488
C18 C 0.6860(6) 0.7677(6) 0.4942(4)
C19 C 0.9147(7) 0.7506(9) 0.5286(5)
H13 H 0.9523 0.8387 0.5161
H14 H 0.9721 0.6924 0.5050
H15 H 0.9145 0.7609 0.5953
C20 C 0.3246(6) 0.4261(5) 0.2627(4)
H16 H 0.3287 0.3710 0.3039
C21 C 0.2625(5) 0.3647(5) 0.1757(4)
C22 C 0.2495(6) 0.4519(6) 0.1104(4)
C23 C 0.3323(6) 0.5984(5) 0.1368(4)
C24 C 0.3964(5) 0.6506(5) 0.2253(4)
H17 H 0.4505 0.7416 0.2412
C25 C 0.3356(6) 0.6863(6) 0.0649(4)
C26 C 0.3852(8) 0.6182(7) -0.0268(4)
H18 H 0.4739 0.6021 -0.0123
H19 H 0.3961 0.6774 -0.0690
H20 H 0.3165 0.5328 -0.0561
C27 C 0.1876(7) 0.6978(8) 0.0434(6)
H21 H 0.1267 0.6097 0.0104
H22 H 0.1910 0.7614 0.0050
H23 H 0.1520 0.7294 0.1014
C28 C 0.4340(7) 0.8291(6) 0.1019(5)
H24 H 0.4027 0.8743 0.1578
H25 H 0.4341 0.8797 0.0548
H26 H 0.5277 0.8239 0.1165
C29 C 0.1961(6) 0.2100(6) 0.1423(4)
C30 C 0.0366(7) 0.1795(7) 0.1329(7)
H27 H 0.0084 0.2213 0.1913
H28 H -0.0056 0.0824 0.1182
H29 H 0.0063 0.2157 0.0834
C31 C 0.2400(10) 0.1499(7) 0.0472(5)
H30 H 0.2119 0.1925 0.0007
H31 H 0.1951 0.0532 0.0283
H32 H 0.3405 0.1665 0.0529
C32 C 0.2371(8) 0.1353(6) 0.2117(5)
H33 H 0.3373 0.1494 0.2171
H34 H 0.1900 0.0392 0.1898
H35 H 0.2100 0.1699 0.2723
Cl1 Cl -0.20538(18) 0.7466(2) 0.21122(14)
O1 O 0.7166(5) 0.8793(4) 0.5488(3)
O2 O 0.7741(4) 0.6910(5) 0.4829(3)
O3 O 0.1699(6) 0.4051(5) 0.0370(3)
loop_
_geom_bond_atom_site_label_1
_geom_bond_atom_site_label_2
_geom_bond_site_symmetry_1
_geom_bond_site_symmetry_2
C1 C2 1_555 1_555
C2 H1 1_555 1_555
C3 C2 1_555 1_555
H2 C3 1_555 1_555
C4 C3 1_555 1_555
C5 C4 1_555 1_555
H3 C5 1_555 1_555
C6 C1 1_555 1_555
H4 C6 1_555 1_555
C7 C4 1_555 1_555
H5 C7 1_555 1_555
C8 C7 1_555 1_555
C9 C8 1_555 1_555
H6 C9 1_555 1_555
C10 C9 1_555 1_555
C11 C7 1_555 1_555
H7 C11 1_555 1_555
C12 C11 1_555 1_555
C13 C12 1_555 1_555
H8 C13 1_555 1_555
C14 C13 1_555 1_555
H9 C14 1_555 1_555
C15 C14 1_555 1_555
H10 C15 1_555 1_555
C16 C15 1_555 1_555
H11 C16 1_555 1_555
C17 C12 1_555 1_555
H12 C17 1_555 1_555
C18 C10 1_555 1_555
C19 H13 1_555 1_555
H14 C19 1_555 1_555
H15 C19 1_555 1_555
C20 C8 1_555 1_555
H16 C20 1_555 1_555
C21 C20 1_555 1_555
C22 C21 1_555 1_555
C23 C22 1_555 1_555
C24 C8 1_555 1_555
H17 C24 1_555 1_555
C25 C23 1_555 1_555
C26 C25 1_555 1_555
H18 C26 1_555 1_555
H19 C26 1_555 1_555
H20 C26 1_555 1_555
C27 C25 1_555 1_555
H21 C27 1_555 1_555
H22 C27 1_555 1_555
H23 C27 1_555 1_555
C28 C25 1_555 1_555
H24 C28 1_555 1_555
H25 C28 1_555 1_555
H26 C28 1_555 1_555
C29 C21 1_555 1_555
C30 C29 1_555 1_555
H27 C30 1_555 1_555
H28 C30 1_555 1_555
H29 C30 1_555 1_555
C31 C29 1_555 1_555
H30 C31 1_555 1_555
H31 C31 1_555 1_555
H32 C31 1_555 1_555
C32 C29 1_555 1_555
H33 C32 1_555 1_555
H34 C32 1_555 1_555
H35 C32 1_555 1_555
Cl1 C1 1_555 1_555
O1 C18 1_555 1_555
O2 C18 1_555 1_555
O3 C22 1_555 1_555
C5 C6 1_555 1_555
C10 C11 1_555 1_555
C16 C17 1_555 1_555
C19 O2 1_555 1_555
C23 C24 1_555 1_555

#END
