
#######################################################################
#
#                 Cambridge Crystallographic Data Centre
#                                CCDC 
#
#######################################################################
#
# If this CIF has been generated from an entry in the Cambridge 
# Structural Database, then it will include bibliographic, chemical, 
# crystal, experimental, refinement or atomic coordinate data resulting 
# from the CCDC's data processing and validation procedures.
#
#######################################################################

data_SANMUS
_chemical_formula_moiety         'C25 H34 N7 1+,C2 H3 O2 1-'
_chemical_name_systematic        
'(5-methyl-2-(1H-pyrrol-2-yl)-1,3-bis(1H-pyrrol-2-ylmethyl)hexahydropyrimidin-5-yl)-N-(1H-pyrrol-2-ylmethyl)methylammonium acetate'
_symmetry_cell_setting           monoclinic
_symmetry_space_group_name_H-M   'P 21/n'
_symmetry_Int_Tables_number      14
_space_group_name_Hall           '-P 2yn'
loop_
_symmetry_equiv_pos_site_id
_symmetry_equiv_pos_as_xyz
1 x,y,z
2 1/2-x,1/2+y,1/2-z
3 -x,-y,-z
4 1/2+x,1/2-y,1/2+z
_cell_length_a                   12.605(3)
_cell_length_b                   16.671(4)
_cell_length_c                   13.147(3)
_cell_angle_alpha                90
_cell_angle_beta                 99.243(13)
_cell_angle_gamma                90
_cell_volume                     2726.81
_exptl_crystal_colour            colorless
_exptl_crystal_description       block
_cell_formula_units_Z            4
loop_
_atom_site_label
_atom_site_type_symbol
_atom_site_fract_x
_atom_site_fract_y
_atom_site_fract_z
O1 O 0.47835(12) 0.68936(9) 0.73326(12)
O2 O 0.48617(16) 0.56431(10) 0.78793(15)
C1 C 0.51774(18) 0.61988(14) 0.73929(17)
C2 C 0.6099(3) 0.6044(2) 0.6838(3)
H1 H 0.5833 0.5882 0.6143
H2 H 0.6541 0.5625 0.7184
H3 H 0.6518 0.6524 0.6831
C3 C 0.30306(15) 0.88164(12) 0.60498(14)
H4 H 0.2795 0.9361 0.5841
C4 C 0.16276(16) 0.87377(13) 0.71298(15)
H5 H 0.1003 0.8436 0.7254
H6 H 0.1393 0.9274 0.6913
C5 C 0.24360(16) 0.87861(12) 0.81219(15)
C6 C 0.34266(17) 0.92144(13) 0.78599(15)
H7 H 0.3245 0.9770 0.7695
H8 H 0.3985 0.9209 0.8460
C7 C 0.35154(16) 0.84273(13) 0.52161(15)
C8 C 0.12667(16) 0.81937(13) 0.53950(15)
H9 H 0.1606 0.8084 0.4798
H10 H 0.0824 0.8669 0.5250
C9 C 0.05728(16) 0.74985(13) 0.55805(14)
C10 C 0.48047(16) 0.93021(13) 0.68181(17)
H11 H 0.4661 0.9872 0.6856
H12 H 0.4949 0.9187 0.6130
C11 C 0.57659(16) 0.91012(13) 0.75759(15)
C12 C 0.22788(17) 0.65456(13) 0.80117(16)
H13 H 0.1510 0.6642 0.7882
H14 H 0.2440 0.6155 0.7511
C13 C 0.25754(16) 0.62022(12) 0.90620(16)
C14 C 0.36024(18) 0.86840(16) 0.42414(16)
H15 H 0.3310 0.9152 0.3928
C15 C 0.1964(2) 0.92927(15) 0.89198(18)
H16 H 0.1336 0.9032 0.9089
H17 H 0.1773 0.9814 0.8637
H18 H 0.2490 0.9348 0.9531
C16 C 0.2687(2) 0.79556(13) 0.86008(15)
H19 H 0.3332 0.7996 0.9112
H20 H 0.2103 0.7800 0.8957
C17 C -0.03753(18) 0.74943(15) 0.59560(16)
H21 H -0.0749 0.7942 0.6128
C18 C 0.35948(19) 0.55664(13) 1.03452(17)
H22 H 0.4166 0.5286 1.0720
C19 C 0.70658(18) 0.83121(17) 0.83664(19)
H23 H 0.7458 0.7854 0.8585
C20 C 0.2698(2) 0.57905(15) 1.06899(18)
H24 H 0.2536 0.5699 1.1346
C21 C 0.4211(2) 0.81156(19) 0.38031(19)
H25 H 0.4393 0.8136 0.3146
C22 C 0.44848(18) 0.75323(17) 0.45087(19)
H26 H 0.4893 0.7080 0.4422
C23 C 0.65334(18) 0.95744(15) 0.81351(17)
H27 H 0.6514 1.0131 0.8179
C24 C 0.20439(19) 0.61898(14) 0.98792(19)
H28 H 0.1368 0.6407 0.9900
C25 C 0.73534(19) 0.90777(18) 0.86293(19)
H29 H 0.7976 0.9242 0.9056
C26 C 0.0055(3) 0.62255(17) 0.5709(2)
H30 H 0.0043 0.5668 0.5680
C27 C -0.0683(2) 0.66950(18) 0.60357(19)
H31 H -0.1298 0.6519 0.6275
N1 N 0.21069(12) 0.83454(10) 0.63024(11)
N2 N 0.28483(12) 0.73101(9) 0.78575(11)
H32 H 0.3549 0.7210 0.7912
H33 H 0.2621 0.7487 0.7221
N3 N 0.38429(12) 0.88489(10) 0.69947(12)
N4 N 0.35299(14) 0.58187(10) 0.93505(13)
H34 H 0.4014 0.5747 0.8967
N5 N 0.61019(14) 0.83311(11) 0.77259(14)
H35 H 0.5758 0.7917 0.7457
N6 N 0.40603(13) 0.77196(11) 0.53720(13)
H36 H 0.4126 0.7436 0.5925
N7 N 0.08449(19) 0.67211(13) 0.54227(16)
H37 H 0.1408 0.6564 0.5186
loop_
_geom_bond_atom_site_label_1
_geom_bond_atom_site_label_2
_geom_bond_site_symmetry_1
_geom_bond_site_symmetry_2
O1 C1 1_555 1_555
O2 C1 1_555 1_555
C1 C2 1_555 1_555
C2 H1 1_555 1_555
H2 C2 1_555 1_555
H3 C2 1_555 1_555
C3 H4 1_555 1_555
C4 H5 1_555 1_555
H6 C4 1_555 1_555
C5 C4 1_555 1_555
C6 C5 1_555 1_555
H7 C6 1_555 1_555
H8 C6 1_555 1_555
C7 C3 1_555 1_555
C8 H9 1_555 1_555
H10 C8 1_555 1_555
C9 C8 1_555 1_555
C10 H11 1_555 1_555
H12 C10 1_555 1_555
C11 C10 1_555 1_555
C12 H13 1_555 1_555
H14 C12 1_555 1_555
C13 C12 1_555 1_555
C14 C7 1_555 1_555
H15 C14 1_555 1_555
C15 C5 1_555 1_555
H16 C15 1_555 1_555
H17 C15 1_555 1_555
H18 C15 1_555 1_555
C16 C5 1_555 1_555
H19 C16 1_555 1_555
H20 C16 1_555 1_555
C17 C9 1_555 1_555
H21 C17 1_555 1_555
C18 H22 1_555 1_555
C19 H23 1_555 1_555
C20 C18 1_555 1_555
H24 C20 1_555 1_555
C21 C14 1_555 1_555
H25 C21 1_555 1_555
C22 C21 1_555 1_555
H26 C22 1_555 1_555
C23 C11 1_555 1_555
H27 C23 1_555 1_555
C24 C13 1_555 1_555
H28 C24 1_555 1_555
C25 C19 1_555 1_555
H29 C25 1_555 1_555
C26 H30 1_555 1_555
C27 C17 1_555 1_555
H31 C27 1_555 1_555
N1 C3 1_555 1_555
N2 C12 1_555 1_555
H32 N2 1_555 1_555
H33 N2 1_555 1_555
N3 C3 1_555 1_555
N4 C13 1_555 1_555
H34 N4 1_555 1_555
N5 C11 1_555 1_555
H35 N5 1_555 1_555
N6 C7 1_555 1_555
H36 N6 1_555 1_555
N7 C9 1_555 1_555
H37 N7 1_555 1_555
C4 N1 1_555 1_555
C6 N3 1_555 1_555
C8 N1 1_555 1_555
C10 N3 1_555 1_555
C16 N2 1_555 1_555
C18 N4 1_555 1_555
C19 N5 1_555 1_555
C20 C24 1_555 1_555
C22 N6 1_555 1_555
C23 C25 1_555 1_555
C26 C27 1_555 1_555
C26 N7 1_555 1_555

#END
