
#######################################################################
#
#                 Cambridge Crystallographic Data Centre
#                                CCDC 
#
#######################################################################
#
# If this CIF has been generated from an entry in the Cambridge 
# Structural Database, then it will include bibliographic, chemical, 
# crystal, experimental, refinement or atomic coordinate data resulting 
# from the CCDC's data processing and validation procedures.
#
#######################################################################

data_SANNAZ
_chemical_formula_moiety         '2(C25 H34 N7 1+),O4 S1 2-,2(H2 O1)'
_chemical_name_systematic        
'bis((5-methyl-2-(1H-pyrrol-2-yl)-1,3-bis(1H-pyrrol-2-ylmethyl)hexahydropyrimidin-5-yl)-N-(1H-pyrrol-2-ylmethyl)methylammonium) sulfate unknown solvate dihydrate'
_symmetry_cell_setting           rhombohedral
_symmetry_space_group_name_H-M   'R -3 c'
_symmetry_Int_Tables_number      167
_space_group_name_Hall           '-R 3 2"c'
loop_
_symmetry_equiv_pos_site_id
_symmetry_equiv_pos_as_xyz
1 x,y,z
2 -y,x-y,z
3 -x+y,-x,z
4 y,x,1/2-z
5 -x,-x+y,1/2-z
6 x-y,-y,1/2-z
7 2/3+x,1/3+y,1/3+z
8 2/3-y,1/3+x-y,1/3+z
9 2/3-x+y,1/3-x,1/3+z
10 2/3+y,1/3+x,5/6-z
11 2/3-x,1/3-x+y,5/6-z
12 2/3+x-y,1/3-y,5/6-z
13 1/3+x,2/3+y,2/3+z
14 1/3-y,2/3+x-y,2/3+z
15 1/3-x+y,2/3-x,2/3+z
16 1/3+y,2/3+x,1/6-z
17 1/3-x,2/3-x+y,1/6-z
18 1/3+x-y,2/3-y,1/6-z
19 -x,-y,-z
20 y,-x+y,-z
21 x-y,x,-z
22 -y,-x,1/2+z
23 x,x-y,1/2+z
24 -x+y,y,1/2+z
25 1/3-x,2/3-y,2/3-z
26 1/3+y,2/3-x+y,2/3-z
27 1/3+x-y,2/3+x,2/3-z
28 1/3-y,2/3-x,1/6+z
29 1/3+x,2/3+x-y,1/6+z
30 1/3-x+y,2/3+y,1/6+z
31 2/3-x,1/3-y,1/3-z
32 2/3+y,1/3-x+y,1/3-z
33 2/3+x-y,1/3+x,1/3-z
34 2/3-y,1/3-x,5/6+z
35 2/3+x,1/3+x-y,5/6+z
36 2/3-x+y,1/3+y,5/6+z
_cell_length_a                   23.541(4)
_cell_length_b                   23.541(4)
_cell_length_c                   59.81(3)
_cell_angle_alpha                90
_cell_angle_beta                 90
_cell_angle_gamma                120
_cell_volume                     28704.8
_exptl_crystal_colour            colorless
_exptl_crystal_description       block
_cell_formula_units_Z            18
loop_
_atom_site_label
_atom_site_type_symbol
_atom_site_fract_x
_atom_site_fract_y
_atom_site_fract_z
C1 C 0.2622(3) 0.3757(3) -0.03305(10)
H1 H 0.3067 0.4051 -0.0375
H2 H 0.2329 0.3791 -0.0434
H3 H 0.2542 0.3315 -0.0330
C2 C 0.2508(3) 0.3939(3) -0.00939(9)
C3 C 0.1807(3) 0.3435(3) -0.00307(10)
H4 H 0.1521 0.3389 -0.0154
H5 H 0.1781 0.3014 -0.0009
C4 C 0.0835(3) 0.3347(3) 0.01752(11)
H6 H 0.0721 0.3499 0.0309
H7 H 0.0725 0.3527 0.0048
C5 C 0.0437(3) 0.2615(3) 0.01662(11)
C6 C 0.0151(3) 0.2191(3) -0.00094(13)
H8 H 0.0178 0.2307 -0.0159
C7 C -0.0186(4) 0.1558(4) 0.00759(17)
H9 H -0.0424 0.1174 -0.0006
C8 C -0.0105(4) 0.1601(4) 0.03011(18)
H10 H -0.0279 0.1251 0.0401
C9 C 0.3013(3) 0.3942(3) 0.00619(9)
H11 H 0.2937 0.3499 0.0077
H12 H 0.3447 0.4211 -0.0001
C10 C 0.2609(3) 0.4637(3) -0.01005(9)
H13 H 0.3032 0.4934 -0.0167
H14 H 0.2272 0.4641 -0.0193
C11 C 0.3113(3) 0.4884(3) 0.02661(9)
H15 H 0.3535 0.5157 0.0191
C12 C 0.3461(3) 0.4146(3) 0.04330(11)
H16 H 0.3491 0.4371 0.0572
H17 H 0.3891 0.4362 0.0364
C13 C 0.3265(3) 0.3452(3) 0.04819(9)
C14 C 0.3602(4) 0.3124(4) 0.04678(11)
H18 H 0.4024 0.3290 0.0412
C15 C 0.3197(5) 0.2488(4) 0.05531(12)
H19 H 0.3307 0.2161 0.0566
C16 C 0.2622(4) 0.2438(4) 0.06134(11)
H20 H 0.2263 0.2069 0.0674
C17 C 0.2594(3) 0.5497(3) 0.01132(10)
H21 H 0.2971 0.5801 0.0025
H22 H 0.2647 0.5678 0.0262
C18 C 0.1994(3) 0.5433(3) 0.00116(11)
C19 C 0.1881(5) 0.5633(4) -0.01909(12)
H23 H 0.2192 0.5870 -0.0300
C20 C 0.1210(5) 0.5411(4) -0.02020(16)
H24 H 0.0995 0.5479 -0.0321
C21 C 0.0928(4) 0.5090(4) -0.00154(16)
H25 H 0.0484 0.4892 0.0019
C22 C 0.3132(3) 0.5158(3) 0.04904(10)
C23 C 0.3589(3) 0.5727(3) 0.05885(12)
H26 H 0.3982 0.6043 0.0525
C24 C 0.3358(4) 0.5751(3) 0.08042(12)
H27 H 0.3569 0.6087 0.0908
C25 C 0.2782(4) 0.5203(3) 0.08327(11)
H28 H 0.2522 0.5090 0.0960
N1 N 0.1561(2) 0.3599(2) 0.01746(7)
H29 H 0.1650 0.3417 0.0292
H30 H 0.1770 0.4036 0.0196
N2 N 0.0276(3) 0.2246(3) 0.03561(10)
H31 H 0.0371 0.2385 0.0491
N3 N 0.2986(2) 0.4197(2) 0.02823(7)
N4 N 0.2659(3) 0.3021(3) 0.05697(8)
H32 H 0.2334 0.3086 0.0589
N5 N 0.2578(2) 0.4863(2) 0.01267(7)
N6 N 0.1401(3) 0.5100(3) 0.01170(10)
H33 H 0.1348 0.4925 0.0247
N7 N 0.2639(2) 0.4837(2) 0.06421(8)
H34 H 0.2292 0.4461 0.0624
O1 O 0.1572(2) 0.3235(2) 0.10313(6)
O2 O 0.0621(2) 0.2758(3) 0.07988(8)
S1 S 0.12642(9) 0.3333 0.0833
O1Q O 0.1670(3) 0.3432(2) 0.06354(6)
O2Q O 0.1196(4) 0.3909(3) 0.08679(8)
O3 O 0.0981(3) 0.4563(3) 0.05434(10)
H35 H 0.0677(13) 0.4695(14) 0.0613(3)
H36 H 0.0992 0.4281 0.0666
loop_
_geom_bond_atom_site_label_1
_geom_bond_atom_site_label_2
_geom_bond_site_symmetry_1
_geom_bond_site_symmetry_2
C1 H1 1_555 1_555
H2 C1 1_555 1_555
H3 C1 1_555 1_555
C2 C1 1_555 1_555
C3 C2 1_555 1_555
H4 C3 1_555 1_555
H5 C3 1_555 1_555
C4 H6 1_555 1_555
H7 C4 1_555 1_555
C5 C4 1_555 1_555
C6 C5 1_555 1_555
H8 C6 1_555 1_555
C7 C6 1_555 1_555
H9 C7 1_555 1_555
C8 C7 1_555 1_555
H10 C8 1_555 1_555
C9 C2 1_555 1_555
H11 C9 1_555 1_555
H12 C9 1_555 1_555
C10 C2 1_555 1_555
H13 C10 1_555 1_555
H14 C10 1_555 1_555
C11 H15 1_555 1_555
C12 H16 1_555 1_555
H17 C12 1_555 1_555
C13 C12 1_555 1_555
C14 C13 1_555 1_555
H18 C14 1_555 1_555
C15 C14 1_555 1_555
H19 C15 1_555 1_555
C16 C15 1_555 1_555
H20 C16 1_555 1_555
C17 H21 1_555 1_555
H22 C17 1_555 1_555
C18 C17 1_555 1_555
C19 C18 1_555 1_555
H23 C19 1_555 1_555
C20 C19 1_555 1_555
H24 C20 1_555 1_555
C21 C20 1_555 1_555
H25 C21 1_555 1_555
C22 C11 1_555 1_555
C23 C22 1_555 1_555
H26 C23 1_555 1_555
C24 C23 1_555 1_555
H27 C24 1_555 1_555
C25 C24 1_555 1_555
H28 C25 1_555 1_555
N1 C3 1_555 1_555
H29 N1 1_555 1_555
H30 N1 1_555 1_555
N2 C5 1_555 1_555
H31 N2 1_555 1_555
N3 C9 1_555 1_555
N4 C13 1_555 1_555
H32 N4 1_555 1_555
N5 C10 1_555 1_555
N6 C18 1_555 1_555
H33 N6 1_555 1_555
N7 C22 1_555 1_555
H34 N7 1_555 1_555
O1 S1 1_555 1_555
O2 S1 1_555 1_555
S1 O1Q 1_555 1_555
O3 H35 1_555 1_555
H36 O3 1_555 1_555
O2Q S1 1_555 1_555
C4 N1 1_555 1_555
C8 N2 1_555 1_555
C11 N3 1_555 1_555
C11 N5 1_555 1_555
C12 N3 1_555 1_555
C16 N4 1_555 1_555
C17 N5 1_555 1_555
C21 N6 1_555 1_555
C25 N7 1_555 1_555

#END
