
#######################################################################
#
#                 Cambridge Crystallographic Data Centre
#                                CCDC 
#
#######################################################################
#
# If this CIF has been generated from an entry in the Cambridge 
# Structural Database, then it will include bibliographic, chemical, 
# crystal, experimental, refinement or atomic coordinate data resulting 
# from the CCDC's data processing and validation procedures.
#
#######################################################################

data_SANPII
_chemical_formula_moiety         'C24 H18 O2,C2 H6 O1'
_chemical_name_systematic        
"2''-(3-Hydroxypenta-1,4-diyn-3-yl)-6'-methyl-1,1':2',1''-terphenyl-3'-ol ethanol solvate"
_symmetry_cell_setting           monoclinic
_symmetry_space_group_name_H-M   'P 21/c'
_symmetry_Int_Tables_number      14
_space_group_name_Hall           '-P 2ybc'
loop_
_symmetry_equiv_pos_site_id
_symmetry_equiv_pos_as_xyz
1 x,y,z
2 -x,1/2+y,1/2-z
3 -x,-y,-z
4 x,1/2-y,1/2+z
_cell_length_a                   11.2056(11)
_cell_length_b                   14.9617(14)
_cell_length_c                   12.8022(13)
_cell_angle_alpha                90
_cell_angle_beta                 92.459(2)
_cell_angle_gamma                90
_cell_volume                     2144.37
_exptl_crystal_colour            colorless
_exptl_crystal_description       prismatic
_chemical_melting_point          '175-176 deg.C'
_cell_formula_units_Z            4
loop_
_atom_site_label
_atom_site_type_symbol
_atom_site_fract_x
_atom_site_fract_y
_atom_site_fract_z
O1 O 0.32824(15) 1.06859(11) 0.60706(11)
O2 O 0.50795(14) 0.98784(10) 0.71206(12)
C1 C 0.23237(18) 1.05215(13) 0.67525(14)
C2 C 0.27109(17) 1.07660(12) 0.78889(14)
C3 C 0.2469(2) 1.16327(13) 0.82221(16)
H1 H 0.2073 1.2024 0.7761
C4 C 0.2798(2) 1.19258(14) 0.92093(17)
H2 H 0.2640 1.2511 0.9405
C5 C 0.3358(2) 1.13533(14) 0.99029(17)
H3 H 0.3565 1.1540 1.0579
C6 C 0.36099(18) 1.04983(13) 0.95876(15)
H4 H 0.3987 1.0113 1.0066
C7 C 0.33256(16) 1.01820(12) 0.85807(13)
C8 C 0.37498(17) 0.92570(12) 0.83277(13)
C9 C 0.46291(18) 0.91334(13) 0.76085(15)
C10 C 0.50629(19) 0.82945(13) 0.73943(15)
H5 H 0.5627 0.8221 0.6889
C11 C 0.4661(2) 0.75700(13) 0.79269(16)
H6 H 0.4949 0.7005 0.7770
C12 C 0.38324(19) 0.76580(12) 0.86952(15)
C13 C 0.33606(17) 0.85070(12) 0.88883(14)
C14 C 0.24399(18) 0.85987(11) 0.96890(14)
C15 C 0.1264(2) 0.87838(14) 0.94064(17)
H7 H 0.1044 0.8877 0.8706
C16 C 0.0406(2) 0.88334(15) 1.0151(2)
H8 H -0.0383 0.8961 0.9951
C17 C 0.0721(3) 0.86943(15) 1.1181(2)
H9 H 0.0144 0.8719 1.1682
C18 C 0.1875(3) 0.85198(16) 1.14725(18)
H10 H 0.2089 0.8433 1.2175
C19 C 0.2734(2) 0.84704(15) 1.07381(16)
H11 H 0.3521 0.8349 1.0950
C20 C 0.3458(2) 0.68390(14) 0.92905(19)
H12 H 0.3675 0.6311 0.8917
H13 H 0.2609 0.6849 0.9362
H14 H 0.3852 0.6837 0.9971
C21 C 0.1330(2) 1.10987(14) 0.63532(16)
C22 C 0.0558(3) 1.15366(19) 0.6001(2)
H15 H -0.0061 1.1887 0.5718
C23 C 0.19074(19) 0.95921(15) 0.66344(15)
C24 C 0.1557(3) 0.88710(17) 0.64775(18)
H16 H 0.1276 0.8294 0.6352
H22 H 0.394(3) 1.0442(18) 0.639(2)
H23 H 0.573(3) 0.9724(18) 0.681(2)
O3 O 0.70001(14) 0.94430(11) 0.60767(14)
C25 C 0.8181(2) 0.9556(2) 0.6457(2)
H17 H 0.8382 1.0187 0.6458
H18 H 0.8717 0.9251 0.6000
C26 C 0.8343(3) 0.9201(2) 0.7517(3)
H19 H 0.7754 0.9455 0.7952
H20 H 0.9127 0.9351 0.7794
H21 H 0.8254 0.8563 0.7501
H24 H 0.689(3) 0.9397(17) 0.544(2)
loop_
_geom_bond_atom_site_label_1
_geom_bond_atom_site_label_2
_geom_bond_site_symmetry_1
_geom_bond_site_symmetry_2
O1 C1 1_555 1_555
O2 C9 1_555 1_555
O3 C25 1_555 1_555
C1 C2 1_555 1_555
C2 C3 1_555 1_555
C3 H1 1_555 1_555
C4 C3 1_555 1_555
H2 C4 1_555 1_555
C5 C4 1_555 1_555
H3 C5 1_555 1_555
C6 C5 1_555 1_555
H4 C6 1_555 1_555
C7 C2 1_555 1_555
C8 C7 1_555 1_555
C9 C8 1_555 1_555
C10 C9 1_555 1_555
H5 C10 1_555 1_555
C11 C10 1_555 1_555
H6 C11 1_555 1_555
C12 C11 1_555 1_555
C13 C8 1_555 1_555
C14 C13 1_555 1_555
C15 C14 1_555 1_555
H7 C15 1_555 1_555
C16 C15 1_555 1_555
H8 C16 1_555 1_555
C17 C16 1_555 1_555
H9 C17 1_555 1_555
C18 C17 1_555 1_555
H10 C18 1_555 1_555
C19 C14 1_555 1_555
H11 C19 1_555 1_555
C20 C12 1_555 1_555
H12 C20 1_555 1_555
H13 C20 1_555 1_555
H14 C20 1_555 1_555
C21 C1 1_555 1_555
C22 C21 1_555 1_555
H15 C22 1_555 1_555
C23 C1 1_555 1_555
C24 C23 1_555 1_555
H16 C24 1_555 1_555
C25 H17 1_555 1_555
H18 C25 1_555 1_555
C26 C25 1_555 1_555
H19 C26 1_555 1_555
H20 C26 1_555 1_555
H21 C26 1_555 1_555
H22 O1 1_555 1_555
H23 O2 1_555 1_555
H24 O3 1_555 1_555
C6 C7 1_555 1_555
C12 C13 1_555 1_555
C18 C19 1_555 1_555

#END
