
#######################################################################
#
#                 Cambridge Crystallographic Data Centre
#                                CCDC 
#
#######################################################################
#
# If this CIF has been generated from an entry in the Cambridge 
# Structural Database, then it will include bibliographic, chemical, 
# crystal, experimental, refinement or atomic coordinate data resulting 
# from the CCDC's data processing and validation procedures.
#
#######################################################################

data_SANPOP
_chemical_formula_moiety         'C22 H26 O5'
_chemical_name_systematic        '4-Formyl-3-hydroxyphenyl 4-(octyloxy)benzoate'
_symmetry_cell_setting           monoclinic
_symmetry_space_group_name_H-M   'P 21/c'
_symmetry_Int_Tables_number      14
_space_group_name_Hall           '-P 2ybc'
loop_
_symmetry_equiv_pos_site_id
_symmetry_equiv_pos_as_xyz
1 x,y,z
2 -x,1/2+y,1/2-z
3 -x,-y,-z
4 x,1/2-y,1/2+z
_cell_length_a                   13.233(3)
_cell_length_b                   6.0351(6)
_cell_length_c                   25.829(6)
_cell_angle_alpha                90
_cell_angle_beta                 105.99(2)
_cell_angle_gamma                90
_cell_volume                     1982.96
_exptl_crystal_colour            yellow
_exptl_crystal_description       block
_cell_formula_units_Z            4
loop_
_atom_site_label
_atom_site_type_symbol
_atom_site_fract_x
_atom_site_fract_y
_atom_site_fract_z
C1 C 0.57648(18) 0.7903(4) 0.40389(9)
C2 C 0.54409(18) 0.5806(4) 0.38243(8)
C3 C 0.55460(19) 0.5217(4) 0.33233(8)
H1 H 0.5312 0.3845 0.3174
C4 C 0.60004(18) 0.6689(4) 0.30526(8)
C5 C 0.6318(2) 0.8773(4) 0.32453(9)
H2 H 0.6614 0.9753 0.3050
C6 C 0.6182(2) 0.9360(4) 0.37362(10)
H3 H 0.6376 1.0775 0.3869
C7 C 0.68117(19) 0.4389(4) 0.25453(9)
C8 C 0.69313(18) 0.3960(4) 0.20077(8)
C9 C 0.66387(18) 0.5441(4) 0.15833(9)
H4 H 0.6324 0.6777 0.1630
C10 C 0.68086(19) 0.4960(4) 0.10966(9)
H5 H 0.6609 0.5973 0.0816
C11 C 0.72743(18) 0.2981(4) 0.10182(9)
C12 C 0.7552(2) 0.1470(4) 0.14356(9)
H6 H 0.7849 0.0117 0.1386
C13 C 0.73862(19) 0.1979(4) 0.19248(9)
H7 H 0.7585 0.0966 0.2206
C14 C 0.7910(2) 0.0640(4) 0.04337(10)
H8 H 0.7466 -0.0600 0.0467
H9 H 0.8581 0.0468 0.0702
C15 C 0.8070(2) 0.0650(4) -0.01158(9)
H10 H 0.8514 0.1894 -0.0147
H11 H 0.7397 0.0840 -0.0382
C16 C 0.8573(2) -0.1471(4) -0.02292(10)
H12 H 0.8115 -0.2697 -0.0204
H13 H 0.9229 -0.1676 0.0049
C17 C 0.8797(2) -0.1573(4) -0.07740(10)
H14 H 0.8147 -0.1327 -0.1053
H15 H 0.9278 -0.0385 -0.0796
C18 C 0.9265(2) -0.3746(5) -0.08791(11)
H16 H 0.8781 -0.4922 -0.0855
H17 H 0.9909 -0.3987 -0.0595
C19 C 0.9511(2) -0.3945(5) -0.14131(11)
H18 H 0.9975 -0.2743 -0.1447
H19 H 0.8865 -0.3790 -0.1700
C20 C 1.0033(3) -0.6165(6) -0.14812(13)
H20 H 1.0674 -0.6320 -0.1191
H21 H 0.9565 -0.7361 -0.1447
C21 C 1.0291(3) -0.6411(7) -0.19974(14)
H22 H 0.9657 -0.6343 -0.2288
H23 H 1.0629 -0.7812 -0.2005
H24 H 1.0754 -0.5236 -0.2036
C22 C 0.5685(2) 0.8544(4) 0.45644(10)
H25 H 0.5841 1.0225 0.4675
O1 O 0.61524(13) 0.6127(3) 0.25527(6)
O2 O 0.74278(14) 0.2668(3) 0.05251(6)
O3 O 0.53791(16) 0.7328(3) 0.48660(7)
O4 O 0.50351(14) 0.4289(3) 0.40957(6)
H26 H 0.5122 0.4951 0.4458
O5 O 0.72344(15) 0.3382(3) 0.29454(7)
loop_
_geom_bond_atom_site_label_1
_geom_bond_atom_site_label_2
_geom_bond_site_symmetry_1
_geom_bond_site_symmetry_2
C1 C2 1_555 1_555
C2 C3 1_555 1_555
C3 H1 1_555 1_555
C4 C3 1_555 1_555
C5 C4 1_555 1_555
H2 C5 1_555 1_555
C6 C1 1_555 1_555
H3 C6 1_555 1_555
C7 C8 1_555 1_555
C8 C9 1_555 1_555
C9 H4 1_555 1_555
C10 C9 1_555 1_555
H5 C10 1_555 1_555
C11 C10 1_555 1_555
C12 C11 1_555 1_555
H6 C12 1_555 1_555
C13 C8 1_555 1_555
H7 C13 1_555 1_555
C14 H8 1_555 1_555
H9 C14 1_555 1_555
C15 C14 1_555 1_555
H10 C15 1_555 1_555
H11 C15 1_555 1_555
C16 C15 1_555 1_555
H12 C16 1_555 1_555
H13 C16 1_555 1_555
C17 C16 1_555 1_555
H14 C17 1_555 1_555
H15 C17 1_555 1_555
C18 C17 1_555 1_555
H16 C18 1_555 1_555
H17 C18 1_555 1_555
C19 C18 1_555 1_555
H18 C19 1_555 1_555
H19 C19 1_555 1_555
C20 C19 1_555 1_555
H20 C20 1_555 1_555
H21 C20 1_555 1_555
C21 C20 1_555 1_555
H22 C21 1_555 1_555
H23 C21 1_555 1_555
H24 C21 1_555 1_555
C22 C1 1_555 1_555
H25 C22 1_555 1_555
O1 C4 1_555 1_555
O2 C11 1_555 1_555
O3 C22 1_555 1_555
O4 C2 1_555 1_555
H26 O4 1_555 1_555
O5 C7 1_555 1_555
C5 C6 1_555 1_555
C7 O1 1_555 1_555
C12 C13 1_555 1_555
C14 O2 1_555 1_555

#END
