
#######################################################################
#
#                 Cambridge Crystallographic Data Centre
#                                CCDC 
#
#######################################################################
#
# If this CIF has been generated from an entry in the Cambridge 
# Structural Database, then it will include bibliographic, chemical, 
# crystal, experimental, refinement or atomic coordinate data resulting 
# from the CCDC's data processing and validation procedures.
#
#######################################################################

data_SANQAB
_chemical_formula_moiety         'C21 H23 N1 O7 S1'
_chemical_name_systematic        
'endo-Dimethyl (2R,3R,4S,5R)-5-(4-methoxyphenyl)-3-(phenylsulfonyl)pyrrolidine-2,4-dicarboxylate'
_symmetry_cell_setting           monoclinic
_symmetry_space_group_name_H-M   'P 21'
_symmetry_Int_Tables_number      4
_space_group_name_Hall           'P 2yb'
loop_
_symmetry_equiv_pos_site_id
_symmetry_equiv_pos_as_xyz
1 x,y,z
2 -x,1/2+y,-z
_cell_length_a                   12.9796(8)
_cell_length_b                   5.7493(4)
_cell_length_c                   14.8287(10)
_cell_angle_alpha                90
_cell_angle_beta                 111.107(1)
_cell_angle_gamma                90
_cell_volume                     1032.33
_exptl_crystal_description       block
_chemical_melting_point          '138-140 deg.C'
_cell_formula_units_Z            2
loop_
_atom_site_label
_atom_site_type_symbol
_atom_site_fract_x
_atom_site_fract_y
_atom_site_fract_z
C1 C 0.45798(15) 0.6534(4) 0.13971(13)
C2 C 0.54772(17) 0.8023(4) 0.16781(15)
H1 H 0.5429 0.9478 0.1935
C3 C 0.64492(19) 0.7318(6) 0.15722(18)
H2 H 0.7060 0.8299 0.1762
C4 C 0.6511(2) 0.5179(6) 0.1189(2)
H3 H 0.7160 0.4722 0.1110
C5 C 0.5618(2) 0.3702(5) 0.09206(19)
H4 H 0.5671 0.2241 0.0672
C6 C 0.4638(2) 0.4382(4) 0.10185(16)
H5 H 0.4030 0.3394 0.0830
C7 C 0.30941(13) 0.5804(3) 0.23739(12)
H6 H 0.3456 0.4311 0.2370
C8 C 0.18683(14) 0.5224(3) 0.21839(13)
H7 H 0.1649 0.3783 0.1810
C9 C 0.19120(14) 0.4866(4) 0.32453(13)
H8 H 0.2263 0.3358 0.3469
C10 C 0.35784(14) 0.6694(4) 0.34526(13)
H9 H 0.4117 0.5536 0.3827
C11 C 0.41363(14) 0.9031(4) 0.36673(13)
C12 C 0.57194(17) 1.1175(5) 0.37621(18)
H10 H 0.5290 1.2290 0.3296
H11 H 0.6420 1.0961 0.3691
H12 H 0.5835 1.1731 0.4402
C13 C 0.10631(14) 0.7149(4) 0.17288(13)
C14 C -0.07460(19) 0.7953(7) 0.0652(2)
H13 H -0.1005 0.8553 0.1136
H14 H -0.1343 0.7193 0.0156
H15 H -0.0474 0.9210 0.0374
C15 C 0.08123(14) 0.4863(4) 0.33842(13)
C16 C 0.00758(18) 0.3064(4) 0.30111(18)
H16 H 0.0249 0.1901 0.2653
C17 C -0.09148(18) 0.2965(5) 0.31613(19)
H17 H -0.1399 0.1740 0.2904
C18 C -0.11882(15) 0.4656(4) 0.36860(14)
C19 C -0.04761(18) 0.6453(5) 0.40670(19)
H18 H -0.0655 0.7610 0.4424
C20 C 0.05234(18) 0.6531(4) 0.39144(18)
H19 H 0.1010 0.7749 0.4180
C21 C -0.2488(2) 0.6145(6) 0.4328(2)
H20 H -0.1950 0.6250 0.4971
H21 H -0.3196 0.5779 0.4359
H22 H -0.2531 0.7605 0.4002
N1 N 0.26638(12) 0.6657(3) 0.38019(11)
H23 H 0.2585 0.7518 0.4247
O1 O 0.34206(11) 0.9955(3) 0.16976(11)
O2 O 0.24567(12) 0.6848(3) 0.05503(10)
O3 O 0.37565(12) 1.0723(3) 0.39090(13)
O4 O 0.51320(9) 0.8966(3) 0.36066(10)
O5 O 0.12172(12) 0.9154(3) 0.19519(12)
O6 O 0.01369(11) 0.6295(3) 0.10904(10)
O7 O -0.21766(12) 0.4379(3) 0.38145(13)
S1 S 0.32997(4) 0.75336(8) 0.14383(3)
loop_
_geom_bond_atom_site_label_1
_geom_bond_atom_site_label_2
_geom_bond_site_symmetry_1
_geom_bond_site_symmetry_2
C1 C2 1_555 1_555
C2 H1 1_555 1_555
C3 C2 1_555 1_555
H2 C3 1_555 1_555
C4 C3 1_555 1_555
H3 C4 1_555 1_555
C5 C4 1_555 1_555
H4 C5 1_555 1_555
C6 C1 1_555 1_555
H5 C6 1_555 1_555
C7 H6 1_555 1_555
C8 C7 1_555 1_555
H7 C8 1_555 1_555
C9 C8 1_555 1_555
H8 C9 1_555 1_555
C10 C7 1_555 1_555
H9 C10 1_555 1_555
C11 C10 1_555 1_555
C12 H10 1_555 1_555
H11 C12 1_555 1_555
H12 C12 1_555 1_555
C13 C8 1_555 1_555
C14 H13 1_555 1_555
H14 C14 1_555 1_555
H15 C14 1_555 1_555
C15 C9 1_555 1_555
C16 C15 1_555 1_555
H16 C16 1_555 1_555
C17 C16 1_555 1_555
H17 C17 1_555 1_555
C18 C17 1_555 1_555
C19 C18 1_555 1_555
H18 C19 1_555 1_555
C20 C15 1_555 1_555
H19 C20 1_555 1_555
C21 H20 1_555 1_555
H21 C21 1_555 1_555
H22 C21 1_555 1_555
N1 C9 1_555 1_555
H23 N1 1_555 1_555
O1 S1 1_555 1_555
O2 S1 1_555 1_555
O3 C11 1_555 1_555
O4 C11 1_555 1_555
O5 C13 1_555 1_555
O6 C13 1_555 1_555
O7 C18 1_555 1_555
S1 C1 1_555 1_555
C5 C6 1_555 1_555
C7 S1 1_555 1_555
C10 N1 1_555 1_555
C12 O4 1_555 1_555
C14 O6 1_555 1_555
C19 C20 1_555 1_555
C21 O7 1_555 1_555

#END
