
#######################################################################
#
#                 Cambridge Crystallographic Data Centre
#                                CCDC 
#
#######################################################################
#
# If this CIF has been generated from an entry in the Cambridge 
# Structural Database, then it will include bibliographic, chemical, 
# crystal, experimental, refinement or atomic coordinate data resulting 
# from the CCDC's data processing and validation procedures.
#
#######################################################################

data_SANQOP
_chemical_formula_moiety         'C18 H21 N1'
_chemical_name_systematic        2-Methyl-1-(1-(2-methylphenyl)ethyl)indoline
_symmetry_cell_setting           monoclinic
_symmetry_space_group_name_H-M   'C 2/c'
_symmetry_Int_Tables_number      15
_space_group_name_Hall           '-C 2yn'
loop_
_symmetry_equiv_pos_site_id
_symmetry_equiv_pos_as_xyz
1 x,y,z
2 -x,y,1/2-z
3 1/2+x,1/2+y,z
4 1/2-x,1/2+y,1/2-z
5 -x,-y,-z
6 x,-y,1/2+z
7 1/2-x,1/2-y,-z
8 1/2+x,1/2-y,1/2+z
_cell_length_a                   21.944(6)
_cell_length_b                   8.862(2)
_cell_length_c                   16.008(4)
_cell_angle_alpha                90
_cell_angle_beta                 110.36(4)
_cell_angle_gamma                90
_cell_volume                     2918.55
_exptl_crystal_colour            colorless
_exptl_crystal_description       block
_cell_formula_units_Z            8
loop_
_atom_site_label
_atom_site_type_symbol
_atom_site_fract_x
_atom_site_fract_y
_atom_site_fract_z
C1 C 0.19322(9) 0.8129(2) 0.13584(13)
H1 H 0.1770 0.8886 0.1676
C2 C 0.23965(9) 0.8909(2) 0.09779(14)
H2 H 0.2627 0.9726 0.1361
H3 H 0.2710 0.8201 0.0902
C3 C 0.19566(9) 0.9495(2) 0.00970(13)
C4 C 0.13675(8) 0.87115(18) -0.01196(12)
C5 C 0.08691(9) 0.9006(2) -0.09232(13)
H4 H 0.0475 0.8498 -0.1075
C6 C 0.09724(11) 1.0068(3) -0.14897(15)
H5 H 0.0642 1.0267 -0.2028
C7 C 0.15470(12) 1.0836(3) -0.12830(17)
H6 H 0.1604 1.1549 -0.1676
C8 C 0.20459(11) 1.0544(2) -0.04806(16)
H7 H 0.2439 1.1059 -0.0336
C9 C 0.22371(11) 0.6870(3) 0.19965(15)
H8 H 0.1924 0.6465 0.2231
H9 H 0.2604 0.7252 0.2476
H10 H 0.2378 0.6090 0.1690
C10 C 0.07696(8) 0.71088(19) 0.05988(12)
H11 H 0.0470 0.7043 -0.0018
C11 C 0.08398(8) 0.5502(2) 0.09555(12)
C12 C 0.09809(8) 0.4331(2) 0.04676(13)
C13 C 0.10525(10) 0.2881(2) 0.08116(17)
H12 H 0.1152 0.2102 0.0491
C14 C 0.09815(11) 0.2560(3) 0.16120(19)
H13 H 0.1038 0.1579 0.1831
C15 C 0.08273(11) 0.3685(3) 0.20836(17)
H14 H 0.0769 0.3473 0.2620
C16 C 0.07579(10) 0.5155(3) 0.17571(14)
H15 H 0.0654 0.5922 0.2082
C17 C 0.04618(10) 0.8220(2) 0.10538(16)
H16 H 0.0734 0.8327 0.1667
H17 H 0.0042 0.7855 0.1020
H18 H 0.0415 0.9182 0.0762
C18 C 0.10474(10) 0.4611(2) -0.04239(15)
H19 H 0.1151 0.3681 -0.0652
H20 H 0.1389 0.5329 -0.0357
H21 H 0.0646 0.5001 -0.0831
N1 N 0.13864(6) 0.76806(16) 0.05431(9)
loop_
_geom_bond_atom_site_label_1
_geom_bond_atom_site_label_2
_geom_bond_site_symmetry_1
_geom_bond_site_symmetry_2
C1 H1 1_555 1_555
C2 C1 1_555 1_555
H2 C2 1_555 1_555
H3 C2 1_555 1_555
C3 C2 1_555 1_555
C4 C3 1_555 1_555
C5 C4 1_555 1_555
H4 C5 1_555 1_555
C6 C5 1_555 1_555
H5 C6 1_555 1_555
C7 C6 1_555 1_555
H6 C7 1_555 1_555
C8 C3 1_555 1_555
H7 C8 1_555 1_555
C9 C1 1_555 1_555
H8 C9 1_555 1_555
H9 C9 1_555 1_555
H10 C9 1_555 1_555
C10 H11 1_555 1_555
C11 C10 1_555 1_555
C12 C11 1_555 1_555
C13 C12 1_555 1_555
H12 C13 1_555 1_555
C14 C13 1_555 1_555
H13 C14 1_555 1_555
C15 C14 1_555 1_555
H14 C15 1_555 1_555
C16 C11 1_555 1_555
H15 C16 1_555 1_555
C17 C10 1_555 1_555
H16 C17 1_555 1_555
H17 C17 1_555 1_555
H18 C17 1_555 1_555
C18 C12 1_555 1_555
H19 C18 1_555 1_555
H20 C18 1_555 1_555
H21 C18 1_555 1_555
N1 C1 1_555 1_555
C4 N1 1_555 1_555
C7 C8 1_555 1_555
C10 N1 1_555 1_555
C15 C16 1_555 1_555

#END
