
#######################################################################
#
#                 Cambridge Crystallographic Data Centre
#                                CCDC 
#
#######################################################################
#
# If this CIF has been generated from an entry in the Cambridge 
# Structural Database, then it will include bibliographic, chemical, 
# crystal, experimental, refinement or atomic coordinate data resulting 
# from the CCDC's data processing and validation procedures.
#
#######################################################################

data_SANWEL
_chemical_formula_moiety         'C30 H25 N5 O6'
_chemical_name_systematic        
'Dimethyl 6-amino-5-cyano-1-(9-ethyl-9H-carbazol-3-yl)-4-(3-nitrophenyl)-1,4-dihydropyridine-2,3-dicarboxylate'
_symmetry_cell_setting           monoclinic
_symmetry_space_group_name_H-M   'P 21/n'
_symmetry_Int_Tables_number      14
_space_group_name_Hall           '-P 2yn'
loop_
_symmetry_equiv_pos_site_id
_symmetry_equiv_pos_as_xyz
1 x,y,z
2 1/2-x,1/2+y,1/2-z
3 -x,-y,-z
4 1/2+x,1/2-y,1/2+z
_cell_length_a                   13.147(4)
_cell_length_b                   13.598(4)
_cell_length_c                   15.907(4)
_cell_angle_alpha                90
_cell_angle_beta                 112.561(4)
_cell_angle_gamma                90
_cell_volume                     2626.11
_exptl_crystal_colour            colorless
_exptl_crystal_description       block
_chemical_melting_point          '270 deg.C'
_cell_formula_units_Z            4
loop_
_atom_site_label
_atom_site_type_symbol
_atom_site_fract_x
_atom_site_fract_y
_atom_site_fract_z
C1 C 1.0309(3) 0.6667(2) 0.3683(2)
C2 C 1.0068(3) 0.7504(2) 0.4086(2)
H1 H 1.0404 0.8120 0.4078
C3 C 0.9320(3) 0.7395(3) 0.4496(3)
H2 H 0.9149 0.7947 0.4782
C4 C 0.8807(3) 0.6499(3) 0.4502(3)
H3 H 0.8281 0.6457 0.4776
C5 C 0.9054(3) 0.5675(2) 0.4117(2)
H4 H 0.8709 0.5063 0.4125
C6 C 0.9821(2) 0.5762(2) 0.3714(2)
C7 C 1.0272(2) 0.5069(2) 0.32487(19)
C8 C 1.0154(2) 0.4057(2) 0.30970(19)
H5 H 0.9681 0.3681 0.3298
C9 C 1.0741(2) 0.3623(2) 0.26483(18)
C10 C 1.1422(2) 0.4164(2) 0.2325(2)
H6 H 1.1802 0.3838 0.2004
C11 C 1.1544(2) 0.5164(2) 0.2468(2)
H7 H 1.2002 0.5535 0.2247
C12 C 1.0978(2) 0.5619(2) 0.29456(19)
C13 C 1.1616(3) 0.7377(2) 0.3030(2)
H8 H 1.2270 0.7106 0.2945
H9 H 1.1880 0.7833 0.3555
C14 C 1.0928(3) 0.7937(3) 0.2193(3)
H10 H 1.0718 0.7501 0.1662
H11 H 1.1352 0.8493 0.2107
H12 H 1.0263 0.8182 0.2262
C15 C 1.1274(2) 0.1912(2) 0.32128(18)
C16 C 1.1013(2) 0.0941(2) 0.31543(18)
C17 C 0.9951(2) 0.0548(2) 0.24403(19)
H13 H 1.0089 -0.0133 0.2272
C18 C 0.9657(2) 0.1195(2) 0.16074(19)
C19 C 0.9951(2) 0.2146(2) 0.16968(18)
C20 C 1.1703(2) 0.0260(2) 0.3793(2)
C21 C 0.9017(2) 0.0794(2) 0.0701(2)
C22 C 0.8193(3) -0.0643(3) -0.0107(2)
H14 H 0.7437 -0.0390 -0.0341
H15 H 0.8184 -0.1354 -0.0009
H16 H 0.8529 -0.0509 -0.0549
C23 C 0.9578(2) 0.2868(2) 0.09249(19)
C24 C 1.0127(3) 0.3706(3) -0.0126(3)
H17 H 1.0771 0.3763 -0.0289
H18 H 0.9999 0.4335 0.0119
H19 H 0.9479 0.3534 -0.0668
C25 C 0.9024(2) 0.0505(2) 0.27944(19)
C26 C 0.8546(3) -0.0385(3) 0.2866(2)
H20 H 0.8781 -0.0975 0.2676
C27 C 0.7726(3) -0.0418(3) 0.3216(2)
H21 H 0.7409 -0.1031 0.3270
C28 C 0.7372(3) 0.0429(3) 0.3483(2)
H22 H 0.6809 0.0411 0.3718
C29 C 0.7847(3) 0.1306(3) 0.3403(2)
C30 C 0.8662(2) 0.1360(2) 0.3062(2)
H23 H 0.8972 0.1978 0.3010
N1 N 1.1010(2) 0.65748(18) 0.32309(18)
N2 N 1.06589(18) 0.25530(17) 0.25177(15)
N3 N 1.2140(2) 0.2320(2) 0.38968(18)
N4 N 1.2248(2) -0.0323(2) 0.42801(19)
H24 H 1.231(3) 0.2944(15) 0.391(3)
H25 H 1.243(3) 0.193(2) 0.4361(19)
N5 N 0.7476(3) 0.2234(3) 0.3668(2)
O1 O 0.87372(16) 0.33343(16) 0.07121(14)
O2 O 1.03217(16) 0.29472(15) 0.05557(14)
O3 O 0.86948(16) 0.12538(15) -0.00060(13)
O4 O 0.88265(18) -0.01629(15) 0.07468(15)
O5 O 0.7967(2) 0.2994(2) 0.3666(2)
O6 O 0.6686(3) 0.2194(3) 0.3895(3)
H26? H 0.9395 0.3991 -0.0270
H27? H 1.0167 0.3420 -0.0678
H28? H 1.0687 0.4221 0.0109
loop_
_geom_bond_atom_site_label_1
_geom_bond_atom_site_label_2
_geom_bond_site_symmetry_1
_geom_bond_site_symmetry_2
C1 C2 1_555 1_555
C2 H1 1_555 1_555
C3 C2 1_555 1_555
H2 C3 1_555 1_555
C4 C3 1_555 1_555
H3 C4 1_555 1_555
C5 C4 1_555 1_555
H4 C5 1_555 1_555
C6 C1 1_555 1_555
C7 C6 1_555 1_555
C8 C7 1_555 1_555
H5 C8 1_555 1_555
C9 C8 1_555 1_555
C10 C9 1_555 1_555
H6 C10 1_555 1_555
C11 C10 1_555 1_555
H7 C11 1_555 1_555
C12 C7 1_555 1_555
C13 H8 1_555 1_555
H9 C13 1_555 1_555
C14 C13 1_555 1_555
H10 C14 1_555 1_555
H11 C14 1_555 1_555
H12 C14 1_555 1_555
C15 C16 1_555 1_555
C16 C17 1_555 1_555
C17 H13 1_555 1_555
C18 C17 1_555 1_555
C19 C18 1_555 1_555
C20 C16 1_555 1_555
C21 C18 1_555 1_555
C22 H14 1_555 1_555
H15 C22 1_555 1_555
H16 C22 1_555 1_555
C23 C19 1_555 1_555
C24 H17 1_555 1_555
H18 C24 1_555 1_555
H19 C24 1_555 1_555
C25 C17 1_555 1_555
C26 C25 1_555 1_555
H20 C26 1_555 1_555
C27 C26 1_555 1_555
H21 C27 1_555 1_555
C28 C27 1_555 1_555
H22 C28 1_555 1_555
C29 C28 1_555 1_555
C30 C25 1_555 1_555
H23 C30 1_555 1_555
N1 C1 1_555 1_555
N2 C9 1_555 1_555
N3 C15 1_555 1_555
N4 C20 1_555 1_555
H24 N3 1_555 1_555
H25 N3 1_555 1_555
N5 C29 1_555 1_555
O1 C23 1_555 1_555
O2 C23 1_555 1_555
O3 C21 1_555 1_555
O4 C21 1_555 1_555
O5 N5 1_555 1_555
O6 N5 1_555 1_555
C5 C6 1_555 1_555
C11 C12 1_555 1_555
C12 N1 1_555 1_555
C13 N1 1_555 1_555
C15 N2 1_555 1_555
C19 N2 1_555 1_555
C22 O4 1_555 1_555
C24 O2 1_555 1_555
C29 C30 1_555 1_555

#END
