
#######################################################################
#
#                 Cambridge Crystallographic Data Centre
#                                CCDC 
#
#######################################################################
#
# If this CIF has been generated from an entry in the Cambridge 
# Structural Database, then it will include bibliographic, chemical, 
# crystal, experimental, refinement or atomic coordinate data resulting 
# from the CCDC's data processing and validation procedures.
#
#######################################################################

data_SANYAJ
_chemical_formula_moiety         'C28 H32 N2 O8'
_chemical_name_systematic        
"t-Butyl (1S,2R,3R,4S)-4-(2-ethoxy-2-oxoethyl)-5'-methoxy-3-nitro-2'-oxo-2-phenylspiro[cyclopentane-1,3'-indole]-1'(2'H)-carboxylate"
_symmetry_cell_setting           hexagonal
_symmetry_space_group_name_H-M   'P 61'
_symmetry_Int_Tables_number      169
_space_group_name_Hall           'P 61'
loop_
_symmetry_equiv_pos_site_id
_symmetry_equiv_pos_as_xyz
1 x,y,z
2 x-y,x,1/6+z
3 y,-x+y,5/6+z
4 -y,x-y,1/3+z
5 -x+y,-x,2/3+z
6 -x,-y,1/2+z
_cell_length_a                   12.5407(2)
_cell_length_b                   12.5407(2)
_cell_length_c                   29.5324(5)
_cell_angle_alpha                90
_cell_angle_beta                 90
_cell_angle_gamma                120
_cell_volume                     4022.29
_exptl_crystal_colour            colorless
_exptl_crystal_description       cone
_cell_formula_units_Z            6
loop_
_atom_site_label
_atom_site_type_symbol
_atom_site_fract_x
_atom_site_fract_y
_atom_site_fract_z
O1 O 0.53136(9) -0.08899(9) 0.01488(3)
O2 O 0.97706(8) 0.61112(8) 0.09539(3)
O3 O 0.46561(10) -0.00256(11) 0.06571(4)
O4 O 1.03776(9) 0.67778(8) 0.16718(3)
O5 O 0.92315(9) 0.37485(8) 0.08490(3)
O6 O 0.63516(8) 0.24586(8) 0.30261(3)
O7 O 0.86573(11) -0.03524(10) 0.12990(5)
O8 O 0.69976(11) -0.15829(9) 0.16611(4)
N1 N 0.91779(9) 0.47247(9) 0.15133(4)
C1 C 0.78558(11) 0.30394(11) 0.19393(4)
C2 C 0.43973(14) -0.17251(13) -0.05649(5)
H1 H 0.5200 -0.1222 -0.0710
H2 H 0.3743 -0.1855 -0.0777
H3 H 0.4302 -0.2522 -0.0478
C3 C 0.43166(14) -0.10769(15) -0.01518(5)
H4 H 0.4398 -0.0275 -0.0236
H5 H 0.3512 -0.1581 0.0000
C4 C 0.53636(12) -0.03546(12) 0.05431(5)
C5 C 0.64206(12) -0.02213(12) 0.08283(5)
H6 H 0.7204 0.0293 0.0665
H7 H 0.6331 -0.1043 0.0878
C6 C 0.64658(11) 0.03656(11) 0.12836(4)
H8 H 0.5649 -0.0113 0.1437
C7 C 0.67886(12) 0.17296(12) 0.12295(5)
H9 H 0.6898 0.1962 0.0905
H10 H 0.6116 0.1840 0.1353
C8 C 0.79983(11) 0.25478(11) 0.14925(4)
C9 C 0.88667(11) 0.37221(11) 0.12283(4)
C10 C 0.98626(11) 0.59924(11) 0.13908(4)
C11 C 1.03359(12) 0.73545(12) 0.07414(5)
C12 C 0.99452(16) 0.70338(15) 0.02544(5)
H11 H 1.0280 0.6534 0.0133
H12 H 1.0257 0.7792 0.0077
H13 H 0.9044 0.6567 0.0237
C13 C 0.86006(11) 0.43192(11) 0.19437(4)
C14 C 0.97821(16) 0.80735(15) 0.09484(6)
H14 H 0.8882 0.7575 0.0938
H15 H 1.0053 0.8835 0.0777
H16 H 1.0053 0.8275 0.1264
C15 C 1.17244(13) 0.79998(13) 0.07904(5)
H17 H 1.1948 0.8199 0.1110
H18 H 1.2100 0.8760 0.0612
H19 H 1.2023 0.7457 0.0682
C16 C 0.86451(11) 0.50060(11) 0.23161(4)
H20 H 0.9163 0.5875 0.2318
C17 C 0.79100(12) 0.43914(12) 0.26895(4)
H21 H 0.7940 0.4844 0.2952
C18 C 0.71316(11) 0.31182(12) 0.26806(4)
C19 C 0.61664(14) 0.31457(14) 0.33696(5)
H22 H 0.6929 0.3620 0.3543
H23 H 0.5508 0.2581 0.3573
H24 H 0.5935 0.3710 0.3230
C20 C 0.71053(11) 0.24340(11) 0.23042(4)
H25 H 0.6580 0.1566 0.2299
C21 C 0.86044(11) 0.17239(11) 0.15222(4)
H26 H 0.8932 0.1712 0.1215
C22 C 0.74883(12) 0.04609(11) 0.16026(4)
H27 H 0.7211 0.0410 0.1923
N2 N 0.77536(11) -0.05643(11) 0.15170(4)
C23 C 0.96644(12) 0.21651(11) 0.18526(4)
C24 C 1.08201(12) 0.30931(12) 0.17158(5)
H28 H 1.0931 0.3419 0.1418
C25 C 1.18153(13) 0.35481(13) 0.20111(5)
H29 H 1.2601 0.4183 0.1914
C26 C 1.16673(13) 0.30834(14) 0.24433(5)
H30 H 1.2349 0.3394 0.2644
C27 C 1.05192(14) 0.21609(15) 0.25836(5)
H31 H 1.0410 0.1842 0.2882
C28 C 0.95273(13) 0.17019(14) 0.22874(5)
H32 H 0.8744 0.1062 0.2384
loop_
_geom_bond_atom_site_label_1
_geom_bond_atom_site_label_2
_geom_bond_site_symmetry_1
_geom_bond_site_symmetry_2
O1 C3 1_555 1_555
O2 C10 1_555 1_555
O3 C4 1_555 1_555
O4 C10 1_555 1_555
O5 C9 1_555 1_555
O6 C18 1_555 1_555
O7 N2 1_555 1_555
O8 N2 1_555 1_555
N1 C9 1_555 1_555
C1 C8 1_555 1_555
C2 H1 1_555 1_555
H2 C2 1_555 1_555
H3 C2 1_555 1_555
C3 C2 1_555 1_555
H4 C3 1_555 1_555
H5 C3 1_555 1_555
C4 O1 1_555 1_555
C5 C4 1_555 1_555
H6 C5 1_555 1_555
H7 C5 1_555 1_555
C6 C5 1_555 1_555
H8 C6 1_555 1_555
C7 C6 1_555 1_555
H9 C7 1_555 1_555
H10 C7 1_555 1_555
C8 C7 1_555 1_555
C9 C8 1_555 1_555
C10 N1 1_555 1_555
C11 O2 1_555 1_555
C12 C11 1_555 1_555
H11 C12 1_555 1_555
H12 C12 1_555 1_555
H13 C12 1_555 1_555
C13 N1 1_555 1_555
C14 C11 1_555 1_555
H14 C14 1_555 1_555
H15 C14 1_555 1_555
H16 C14 1_555 1_555
C15 C11 1_555 1_555
H17 C15 1_555 1_555
H18 C15 1_555 1_555
H19 C15 1_555 1_555
C16 C13 1_555 1_555
H20 C16 1_555 1_555
C17 C16 1_555 1_555
H21 C17 1_555 1_555
C18 C17 1_555 1_555
C19 O6 1_555 1_555
H22 C19 1_555 1_555
H23 C19 1_555 1_555
H24 C19 1_555 1_555
C20 C1 1_555 1_555
H25 C20 1_555 1_555
C21 C8 1_555 1_555
H26 C21 1_555 1_555
C22 C6 1_555 1_555
H27 C22 1_555 1_555
N2 C22 1_555 1_555
C23 C21 1_555 1_555
C24 C23 1_555 1_555
H28 C24 1_555 1_555
C25 C24 1_555 1_555
H29 C25 1_555 1_555
C26 C25 1_555 1_555
H30 C26 1_555 1_555
C27 C26 1_555 1_555
H31 C27 1_555 1_555
C28 C23 1_555 1_555
H32 C28 1_555 1_555
C1 C13 1_555 1_555
C18 C20 1_555 1_555
C21 C22 1_555 1_555
C27 C28 1_555 1_555

#END
