
#######################################################################
#
#                 Cambridge Crystallographic Data Centre
#                                CCDC 
#
#######################################################################
#
# If this CIF has been generated from an entry in the Cambridge 
# Structural Database, then it will include bibliographic, chemical, 
# crystal, experimental, refinement or atomic coordinate data resulting 
# from the CCDC's data processing and validation procedures.
#
#######################################################################

data_SANYEM
_chemical_compound_source        'endophytic fungus Fusarium moniliforme'
_chemical_formula_moiety         'C10 H11 N1 O2,C10 H13 N1 O2'
_chemical_name_systematic        
'5-(But-3-enyl)pyridinium-2-carboxylate 5-butylpyridine-2-carboxylic acid'
_symmetry_cell_setting           monoclinic
_symmetry_space_group_name_H-M   'P 21/n'
_symmetry_Int_Tables_number      14
_space_group_name_Hall           '-P 2yn'
loop_
_symmetry_equiv_pos_site_id
_symmetry_equiv_pos_as_xyz
1 x,y,z
2 1/2-x,1/2+y,1/2-z
3 -x,-y,-z
4 1/2+x,1/2-y,1/2+z
_cell_length_a                   12.010(2)
_cell_length_b                   10.4010(10)
_cell_length_c                   16.988(2)
_cell_angle_alpha                90
_cell_angle_beta                 108.178(2)
_cell_angle_gamma                90
_cell_volume                     2016.16
_exptl_crystal_colour            colorless
_exptl_crystal_description       block
_cell_formula_units_Z            4
_exptl_crystal_recrystallization_method methanol
loop_
_atom_site_label
_atom_site_type_symbol
_atom_site_fract_x
_atom_site_fract_y
_atom_site_fract_z
O1 O 0.8342(2) 0.7036(2) 0.79470(10)
O2 O 0.8037(2) 0.9156(2) 0.79480(10)
N1 N 0.6300(2) 0.6645(2) 0.67890(10)
C1 C 0.7771(2) 0.8055(2) 0.77040(10)
C2 C 0.6614(2) 0.7862(2) 0.70240(10)
C3 C 0.5872(2) 0.8835(2) 0.6627(2)
C4 C 0.4858(2) 0.8541(2) 0.5995(2)
C5 C 0.4559(2) 0.7278(2) 0.57530(10)
C6 C 0.5320(2) 0.6332(2) 0.61820(10)
C7 C 0.3520(10) 0.696(4) 0.5009(8)
C8 C 0.2373(9) 0.685(2) 0.5185(5)
C9 C 0.1348(5) 0.6544(8) 0.4423(5)
C10 C 0.0268(7) 0.6790(10) 0.4439(7)
H2 H 0.6771(18) 0.6052(18) 0.7034(13)
H3 H 0.6052 0.9686 0.6784
H4 H 0.4366 0.9204 0.5726
H5 H 0.5149 0.5473 0.6047
H6 H 0.3442 0.7613 0.4591
H7 H 0.3669 0.6147 0.4778
H8 H 0.2218 0.7655 0.5420
H9 H 0.2436 0.6182 0.5595
H10 H 0.1472 0.6193 0.3954
H11 H 0.0154 0.7139 0.4911
H12 H -0.0373 0.6607 0.3978
O3 O 1.0363(2) 0.6638(2) 0.89950(10)
O4 O 1.0984(2) 0.8641(2) 0.9213(2)
N2 N 1.2297(2) 0.5738(2) 1.01190(10)
C15 C 1.1117(2) 0.7510(2) 0.93556(16)
C16 C 1.2191(2) 0.7003(2) 1.00000(15)
C17 C 1.2998(3) 0.7848(3) 1.04781(19)
C18 C 1.3962(3) 0.7379(4) 1.1090(2)
C19 C 1.4103(2) 0.6079(3) 1.12272(17)
C20 C 1.3228(3) 0.5321(3) 1.07149(19)
C21 C 1.5098(8) 0.5467(11) 1.1897(7)
C22 C 1.6265(9) 0.5698(11) 1.1780(7)
C23 C 1.7225(8) 0.5221(12) 1.2521(6)
C24 C 1.8077(12) 0.4404(17) 1.2292(11)
H1 H 0.9714(19) 0.688(4) 0.8637(17)
H22 H 1.2897 0.8728 1.0391
H23 H 1.4518 0.7947 1.1412
H24 H 1.3299 0.4437 1.0796
H25 H 1.5108 0.5809 1.2430
H26 H 1.4962 0.4548 1.1902
H27 H 1.6368 0.6610 1.1706
H28 H 1.6303 0.5254 1.1287
H29 H 1.7632 0.5952 1.2837
H30 H 1.6881 0.4733 1.2874
H31 H 1.8675 0.4129 1.2784
H32 H 1.8429 0.4885 1.1949
H33 H 1.7684 0.3665 1.1993
C11? C 0.341(2) 0.690(6) 0.5120(12)
C12? C 0.2430(10) 0.691(3) 0.5486(10)
C13? C 0.1234(9) 0.6660(10) 0.4872(5)
C14? C 0.0930(10) 0.635(2) 0.3982(6)
C25? C 1.5171(13) 0.555(2) 1.1876(10)
C26? C 1.6059(13) 0.5003(16) 1.1516(11)
C27? C 1.7094(11) 0.4344(19) 1.2116(10)
C28? C 1.8002(16) 0.509(2) 1.2530(17)
H13? H 0.3236 0.7502 0.4659
H14? H 0.3486 0.6053 0.4908
H15? H 0.2415 0.7736 0.5747
H16? H 0.2582 0.6258 0.5915
H17? H 0.0903 0.5973 0.5112
H18? H 0.0777 0.7424 0.4897
H19? H 0.0092 0.6271 0.3750
H20? H 0.1290 0.5550 0.3917
H21? H 0.1201 0.7019 0.3701
H34? H 1.5534 0.6240 1.2257
H35? H 1.4928 0.4892 1.2189
H36? H 1.6349 0.5692 1.1248
H37? H 1.5666 0.4389 1.1090
H38? H 1.7105 0.3459 1.2196
H39? H 1.7973 0.5969 1.2441
H40? H 1.8659 0.4716 1.2907
loop_
_geom_bond_atom_site_label_1
_geom_bond_atom_site_label_2
_geom_bond_site_symmetry_1
_geom_bond_site_symmetry_2
O1 C1 1_555 1_555
O2 C1 1_555 1_555
O3 C15 1_555 1_555
O4 C15 1_555 1_555
N1 C2 1_555 1_555
N2 C16 1_555 1_555
C1 C2 1_555 1_555
C2 C3 1_555 1_555
C3 C4 1_555 1_555
C4 C5 1_555 1_555
C5 C6 1_555 1_555
C6 N1 1_555 1_555
C7 C5 1_555 1_555
C8 C7 1_555 1_555
C9 C8 1_555 1_555
C10 C9 1_555 1_555
C15 C16 1_555 1_555
C16 C17 1_555 1_555
C17 C18 1_555 1_555
C18 C19 1_555 1_555
C19 C20 1_555 1_555
C20 N2 1_555 1_555
C21 C19 1_555 1_555
C22 C21 1_555 1_555
C23 C22 1_555 1_555
C24 C23 1_555 1_555
H1 O3 1_555 1_555
H2 N1 1_555 1_555
H3 C3 1_555 1_555
H4 C4 1_555 1_555
H5 C6 1_555 1_555
H6 C7 1_555 1_555
H7 C7 1_555 1_555
H8 C8 1_555 1_555
H9 C8 1_555 1_555
H10 C9 1_555 1_555
H11 C10 1_555 1_555
H12 C10 1_555 1_555
H22 C17 1_555 1_555
H23 C18 1_555 1_555
H24 C20 1_555 1_555
H25 C21 1_555 1_555
H26 C21 1_555 1_555
H27 C22 1_555 1_555
H28 C22 1_555 1_555
H29 C23 1_555 1_555
H30 C23 1_555 1_555
H31 C24 1_555 1_555
H32 C24 1_555 1_555
H33 C24 1_555 1_555

#END
