
#######################################################################
#
#                 Cambridge Crystallographic Data Centre
#                                CCDC 
#
#######################################################################
#
# If this CIF has been generated from an entry in the Cambridge 
# Structural Database, then it will include bibliographic, chemical, 
# crystal, experimental, refinement or atomic coordinate data resulting 
# from the CCDC's data processing and validation procedures.
#
#######################################################################

data_SANYAI
_chemical_formula_moiety         'C18 H14 Br1 N3 O2 S1'
_chemical_name_systematic        
N-(5-(E)-Styryl-1,3,4-thiadiazol-2-yl)-4-bromophenoxyacetamide
_chemical_properties_biological  'plant-growth regulatory activity'
_symmetry_cell_setting           triclinic
_symmetry_space_group_name_H-M   'P -1'
_symmetry_Int_Tables_number      2
_space_group_name_Hall           '-P 1'
loop_
_symmetry_equiv_pos_site_id
_symmetry_equiv_pos_as_xyz
1 x,y,z
2 -x,-y,-z
_cell_length_a                   5.1151(9)
_cell_length_b                   9.5790(18)
_cell_length_c                   18.426(3)
_cell_angle_alpha                87.292(3)
_cell_angle_beta                 83.782(3)
_cell_angle_gamma                87.021(4)
_cell_volume                     895.517
_exptl_crystal_colour            colorless
_exptl_crystal_description       plate
_chemical_melting_point          '525-526 K'
_cell_formula_units_Z            2
_exptl_crystal_recrystallization_method methanol/DMF
loop_
_atom_site_label
_atom_site_type_symbol
_atom_site_fract_x
_atom_site_fract_y
_atom_site_fract_z
Br1 Br 0.97554(17) 0.28458(9) 0.17115(4)
C1 C 0.2912(14) 1.2773(8) 0.9059(3)
H1 H 0.1581 1.3171 0.8799
C2 C 0.3349(18) 1.3324(9) 0.9718(4)
H2 H 0.2307 1.4081 0.9899
C3 C 0.531(2) 1.2750(11) 1.0095(4)
H3 H 0.5585 1.3113 1.0539
C4 C 0.6852(18) 1.1660(10) 0.9835(4)
H4 H 0.8212 1.1289 1.0093
C5 C 0.6411(15) 1.1099(8) 0.9189(3)
H5 H 0.7463 1.0338 0.9017
C6 C 0.4417(12) 1.1650(6) 0.8787(3)
C7 C 0.4037(12) 1.1019(6) 0.8106(3)
H6 H 0.5219 1.0290 0.7959
C8 C 0.2180(11) 1.1374(6) 0.7673(3)
H7 H 0.0943 1.2074 0.7826
C9 C 0.1918(11) 1.0765(6) 0.6983(3)
C10 C 0.2230(9) 0.9565(5) 0.5878(3)
C11 C 0.4672(10) 0.7761(5) 0.5185(3)
C12 C 0.4607(10) 0.6983(5) 0.4504(3)
H8 H 0.3012 0.6469 0.4534
H9 H 0.4625 0.7634 0.4084
C13 C 0.7298(10) 0.5363(5) 0.3789(3)
C14 C 0.9436(10) 0.4403(5) 0.3761(3)
H10 H 1.0389 0.4267 0.4163
C15 C 1.0149(11) 0.3664(6) 0.3156(3)
H11 H 1.1577 0.3021 0.3143
C16 C 0.8737(11) 0.3874(6) 0.2560(3)
C17 C 0.6547(11) 0.4795(6) 0.2580(3)
H12 H 0.5562 0.4907 0.2184
C18 C 0.5862(10) 0.5540(6) 0.3198(3)
H13 H 0.4412 0.6170 0.3217
N1 N 0.0149(9) 1.1232(5) 0.6556(2)
N2 N 0.0361(8) 1.0545(5) 0.5914(2)
N3 N 0.2708(8) 0.8757(4) 0.5278(2)
H14 H 0.1687 0.8893 0.4937
O1 O 0.6273(7) 0.7544(4) 0.5618(2)
O2 O 0.6827(7) 0.6051(4) 0.44261(19)
S1 S 0.3988(3) 0.94143(15) 0.66190(7)
loop_
_geom_bond_atom_site_label_1
_geom_bond_atom_site_label_2
_geom_bond_site_symmetry_1
_geom_bond_site_symmetry_2
Br1 C16 1_555 1_555
C1 H1 1_555 1_555
C2 C1 1_555 1_555
H2 C2 1_555 1_555
C3 C2 1_555 1_555
H3 C3 1_555 1_555
C4 C3 1_555 1_555
H4 C4 1_555 1_555
C5 C4 1_555 1_555
H5 C5 1_555 1_555
C6 C1 1_555 1_555
C7 C6 1_555 1_555
H6 C7 1_555 1_555
C8 C7 1_555 1_555
H7 C8 1_555 1_555
C9 C8 1_555 1_555
C10 N2 1_555 1_555
C11 C12 1_555 1_555
C12 H8 1_555 1_555
H9 C12 1_555 1_555
C13 C14 1_555 1_555
C14 H10 1_555 1_555
C15 C14 1_555 1_555
H11 C15 1_555 1_555
C16 C15 1_555 1_555
C17 C16 1_555 1_555
H12 C17 1_555 1_555
C18 C13 1_555 1_555
H13 C18 1_555 1_555
N1 C9 1_555 1_555
N2 N1 1_555 1_555
N3 C10 1_555 1_555
H14 N3 1_555 1_555
O1 C11 1_555 1_555
O2 C12 1_555 1_555
S1 C9 1_555 1_555
C5 C6 1_555 1_555
C10 S1 1_555 1_555
C11 N3 1_555 1_555
C13 O2 1_555 1_555
C17 C18 1_555 1_555

#END
