
#######################################################################
#
#                 Cambridge Crystallographic Data Centre
#                                CCDC 
#
#######################################################################
#
# If this CIF has been generated from an entry in the Cambridge 
# Structural Database, then it will include bibliographic, chemical, 
# crystal, experimental, refinement or atomic coordinate data resulting 
# from the CCDC's data processing and validation procedures.
#
#######################################################################

data_SAPDUJ
_chemical_name_common            
'5H-Dibenzo(b,f)azepine-5-carboxamide 2,2,2-trifluoroethanol solvate'
_chemical_formula_moiety         'C15 H12 N2 O1,C2 H3 F3 O1'
_chemical_name_systematic        'Carbamazepine 2,2,2-trifluoroethanol solvate'
_chemical_properties_biological  
'Carbamazepine is used for the treatment of epilepsy and trigeminal neuralgia'
_symmetry_cell_setting           triclinic
_symmetry_space_group_name_H-M   'P -1'
_symmetry_Int_Tables_number      2
_space_group_name_Hall           '-P 1'
loop_
_symmetry_equiv_pos_site_id
_symmetry_equiv_pos_as_xyz
1 x,y,z
2 -x,-y,-z
_cell_length_a                   10.236(2)
_cell_length_b                   12.937(2)
_cell_length_c                   13.614(2)
_cell_angle_alpha                62.419(2)
_cell_angle_beta                 88.218(2)
_cell_angle_gamma                84.286(2)
_cell_volume                     1589.76
_exptl_crystal_colour            colorless
_exptl_crystal_description       prism
_cell_formula_units_Z            4
loop_
_atom_site_label
_atom_site_type_symbol
_atom_site_fract_x
_atom_site_fract_y
_atom_site_fract_z
C1 C 0.62516(19) 0.62741(17) 0.40291(15)
C2 C 0.49428(18) 0.81621(17) 0.34867(15)
C3 C 0.3944(2) 0.8004(2) 0.42477(17)
H1 H 0.3569 0.7278 0.4596
C4 C 0.3497(2) 0.8896(2) 0.44988(19)
H2 H 0.2820 0.8785 0.5022
C5 C 0.4041(2) 0.9951(2) 0.39818(19)
H3 H 0.3739 1.0568 0.4152
C6 C 0.5017(2) 1.01148(19) 0.32223(18)
H4 H 0.5383 1.0845 0.2877
C7 C 0.54853(19) 0.92335(17) 0.29444(16)
C8 C 0.6499(2) 0.94552(18) 0.21037(17)
H5 H 0.7117 0.9977 0.2057
C9 C 0.6646(2) 0.90058(17) 0.14006(16)
H6 H 0.7359 0.9244 0.0907
C10 C 0.58403(18) 0.81870(17) 0.12966(16)
C11 C 0.5660(2) 0.82508(19) 0.02533(17)
H7 H 0.6056 0.8829 -0.0375
C12 C 0.4920(2) 0.7493(2) 0.01209(18)
H8 H 0.4804 0.7556 -0.0595
C13 C 0.4344(2) 0.6641(2) 0.10249(19)
H9 H 0.3843 0.6110 0.0934
C14 C 0.4499(2) 0.65625(19) 0.20671(18)
H10 H 0.4091 0.5987 0.2690
C15 C 0.52462(19) 0.73229(17) 0.21967(15)
N1 N 0.54444(16) 0.72083(13) 0.32864(12)
N2 N 0.64442(17) 0.62216(15) 0.50256(13)
H11 H 0.6961 0.5643 0.5524
H12 H 0.6053 0.6766 0.5179
O1 O 0.67789(15) 0.55317(12) 0.37778(11)
C16 C 0.89693(18) 0.37364(16) 0.61609(15)
C17 C 1.00371(19) 0.17696(17) 0.67247(16)
C18 C 1.1030(2) 0.1769(2) 0.60097(19)
H13 H 1.1542 0.2415 0.5672
C19 C 1.1275(2) 0.0831(3) 0.5788(2)
H14 H 1.1950 0.0834 0.5292
C20 C 1.0542(3) -0.0110(2) 0.6284(2)
H15 H 1.0717 -0.0760 0.6137
C21 C 0.9555(3) -0.01112(19) 0.6991(2)
H16 H 0.9048 -0.0762 0.7320
C22 C 0.9280(2) 0.08242(17) 0.72380(16)
C23 C 0.8224(2) 0.07978(18) 0.79914(18)
H17 H 0.7504 0.0383 0.8000
C24 C 0.8144(2) 0.12841(19) 0.86706(17)
H18 H 0.7365 0.1194 0.9089
C25 C 0.9118(2) 0.19383(17) 0.88422(16)
C26 C 0.9286(3) 0.1873(2) 0.98888(18)
H19 H 0.8725 0.1437 1.0473
C27 C 1.0247(3) 0.2426(2) 1.00850(18)
H20 H 1.0345 0.2366 1.0801
C28 C 1.1070(2) 0.3066(2) 0.92507(19)
H21 H 1.1743 0.3436 0.9395
C29 C 1.0917(2) 0.31688(18) 0.82006(17)
H22 H 1.1483 0.3610 0.7622
C30 C 0.99361(18) 0.26262(16) 0.79995(15)
N3 N 0.97371(15) 0.27746(13) 0.68995(12)
N4 N 0.86852(17) 0.37830(15) 0.51905(13)
H23 H 0.8198 0.4391 0.4694
H24 H 0.8985 0.3206 0.5047
O2 O 0.85597(14) 0.45396(11) 0.63885(11)
C31 C 0.7567(2) 0.6417(2) 0.7909(2)
C32 C 0.8727(2) 0.5565(2) 0.81410(19)
H25 H 0.9278 0.5566 0.8726
H26 H 0.8444 0.4770 0.8416
F1 F 0.68775(17) 0.61783(17) 0.88273(14)
F2 F 0.67352(16) 0.64098(17) 0.71814(14)
F3 F 0.7875(2) 0.74988(13) 0.75315(17)
O3 O 0.94704(15) 0.58468(14) 0.71770(13)
H27 H 0.9248 0.5467 0.6860
C33 C 1.2780(2) 0.6423(2) 0.8262(2)
C34 C 1.2738(3) 0.6305(2) 0.7239(2)
H28 H 1.3557 0.6552 0.6825
H29 H 1.2681 0.5473 0.7431
F4 F 1.38374(16) 0.58091(15) 0.88957(14)
F5 F 1.17429(16) 0.60327(17) 0.88993(13)
F6 F 1.28132(19) 0.75182(15) 0.80840(16)
O4 O 1.16503(17) 0.69961(15) 0.65666(13)
H30 H 1.0984 0.6622 0.6771
loop_
_geom_bond_atom_site_label_1
_geom_bond_atom_site_label_2
_geom_bond_site_symmetry_1
_geom_bond_site_symmetry_2
C1 N1 1_555 1_555
C2 C3 1_555 1_555
C3 H1 1_555 1_555
C4 C3 1_555 1_555
H2 C4 1_555 1_555
C5 C4 1_555 1_555
H3 C5 1_555 1_555
C6 C5 1_555 1_555
H4 C6 1_555 1_555
C7 C2 1_555 1_555
C8 C7 1_555 1_555
H5 C8 1_555 1_555
C9 C8 1_555 1_555
H6 C9 1_555 1_555
C10 C9 1_555 1_555
C11 C10 1_555 1_555
H7 C11 1_555 1_555
C12 C11 1_555 1_555
H8 C12 1_555 1_555
C13 C12 1_555 1_555
H9 C13 1_555 1_555
C14 C13 1_555 1_555
H10 C14 1_555 1_555
C15 C10 1_555 1_555
N1 C2 1_555 1_555
N2 C1 1_555 1_555
H11 N2 1_555 1_555
H12 N2 1_555 1_555
O1 C1 1_555 1_555
C16 N3 1_555 1_555
C17 C18 1_555 1_555
C18 H13 1_555 1_555
C19 C18 1_555 1_555
H14 C19 1_555 1_555
C20 C19 1_555 1_555
H15 C20 1_555 1_555
C21 C20 1_555 1_555
H16 C21 1_555 1_555
C22 C17 1_555 1_555
C23 C22 1_555 1_555
H17 C23 1_555 1_555
C24 C23 1_555 1_555
H18 C24 1_555 1_555
C25 C24 1_555 1_555
C26 C25 1_555 1_555
H19 C26 1_555 1_555
C27 C26 1_555 1_555
H20 C27 1_555 1_555
C28 C27 1_555 1_555
H21 C28 1_555 1_555
C29 C28 1_555 1_555
H22 C29 1_555 1_555
C30 C25 1_555 1_555
N3 C17 1_555 1_555
N4 C16 1_555 1_555
H23 N4 1_555 1_555
H24 N4 1_555 1_555
O2 C16 1_555 1_555
C31 C32 1_555 1_555
C32 H25 1_555 1_555
H26 C32 1_555 1_555
F1 C31 1_555 1_555
F2 C31 1_555 1_555
F3 C31 1_555 1_555
O3 C32 1_555 1_555
H27 O3 1_555 1_555
C33 C34 1_555 1_555
C34 H28 1_555 1_555
H29 C34 1_555 1_555
F4 C33 1_555 1_555
F5 C33 1_555 1_555
F6 C33 1_555 1_555
O4 C34 1_555 1_555
H30 O4 1_555 1_555
C6 C7 1_555 1_555
C14 C15 1_555 1_555
C15 N1 1_555 1_555
C21 C22 1_555 1_555
C29 C30 1_555 1_555
C30 N3 1_555 1_555

#END
