
#######################################################################
#
#                 Cambridge Crystallographic Data Centre
#                                CCDC 
#
#######################################################################
#
# If this CIF has been generated from an entry in the Cambridge 
# Structural Database, then it will include bibliographic, chemical, 
# crystal, experimental, refinement or atomic coordinate data resulting 
# from the CCDC's data processing and validation procedures.
#
#######################################################################

data_SAPDOD01
_chemical_formula_moiety         'C12 H10 O3'
_chemical_name_systematic        'Methyl 1-hydroxy-2-naphthoate'
_symmetry_cell_setting           triclinic
_symmetry_space_group_name_H-M   'P -1'
_symmetry_Int_Tables_number      2
_space_group_name_Hall           '-P 1'
loop_
_symmetry_equiv_pos_site_id
_symmetry_equiv_pos_as_xyz
1 x,y,z
2 -x,-y,-z
_cell_length_a                   8.5368(8)
_cell_length_b                   9.0616(9)
_cell_length_c                   13.5135(14)
_cell_angle_alpha                98.953(6)
_cell_angle_beta                 107.827(5)
_cell_angle_gamma                102.345(5)
_cell_volume                     944.292
_exptl_crystal_colour            colorless
_cell_formula_units_Z            4
loop_
_atom_site_label
_atom_site_type_symbol
_atom_site_fract_x
_atom_site_fract_y
_atom_site_fract_z
O1 O 0.12056(15) 0.80623(13) 0.80989(9)
H1 H 0.1626 0.7356 0.8248
O2 O 0.30892(16) 0.66818(13) 0.92980(9)
O3 O 0.45194(15) 0.78795(13) 1.10175(9)
C1 C 0.17012(19) 0.92144(17) 0.89859(12)
C2 C 0.10056(19) 1.04994(17) 0.88737(12)
C3 C -0.0137(2) 1.05682(18) 0.78864(12)
H3 H -0.0461 0.9752 0.7289
C4 C -0.0771(2) 1.18218(19) 0.78002(13)
H4 H -0.1516 1.1859 0.7144
C5 C -0.0304(2) 1.3052(2) 0.86949(14)
H5 H -0.0734 1.3906 0.8628
C6 C 0.0777(2) 1.30079(19) 0.96642(14)
H6 H 0.1063 1.3829 1.0253
C7 C 0.1470(2) 1.17344(18) 0.97896(12)
C8 C 0.2611(2) 1.1658(2) 1.07817(13)
H7 H 0.2914 1.2463 1.1383
C9 C 0.3263(2) 1.04272(19) 1.08658(13)
H8 H 0.4012 1.0402 1.1524
C10 C 0.28243(19) 0.91703(18) 0.99640(12)
C11 C 0.3476(2) 0.78075(18) 1.00453(12)
C12 C 0.5182(2) 0.6557(2) 1.11526(14)
H9 H 0.5921 0.6732 1.1882
H10 H 0.5817 0.6417 1.0686
H11 H 0.4248 0.5641 1.0980
O4 O 0.44252(14) 0.19125(13) 0.34778(8)
H2 H 0.3744 0.1222 0.3583
O5 O 0.29871(15) 0.04297(13) 0.46082(9)
O6 O 0.40028(15) 0.13495(13) 0.63844(9)
C13 C 0.54400(19) 0.29127(17) 0.44185(12)
C14 C 0.67072(19) 0.41800(17) 0.43683(12)
C15 C 0.6918(2) 0.43531(19) 0.33915(13)
H12 H 0.6210 0.3633 0.2758
C16 C 0.8157(2) 0.55724(19) 0.33743(13)
H13 H 0.8299 0.5671 0.2730
C17 C 0.9217(2) 0.66788(19) 0.43233(14)
H14 H 1.0052 0.7511 0.4303
C18 C 0.9032(2) 0.65421(18) 0.52728(13)
H15 H 0.9740 0.7288 0.5894
C19 C 0.77816(19) 0.52849(17) 0.53301(12)
C20 C 0.7595(2) 0.50971(18) 0.63172(12)
H16 H 0.8297 0.5824 0.6949
C21 C 0.6403(2) 0.38691(17) 0.63407(12)
H17 H 0.6300 0.3758 0.6993
C22 C 0.53004(19) 0.27412(17) 0.53884(12)
C23 C 0.3990(2) 0.14081(17) 0.54058(12)
C24 C 0.2687(2) 0.0104(2) 0.64469(15)
H18 H 0.2802 0.0164 0.7182
H19 H 0.2805 -0.0878 0.6142
H20 H 0.1580 0.0199 0.6058
loop_
_geom_bond_atom_site_label_1
_geom_bond_atom_site_label_2
_geom_bond_site_symmetry_1
_geom_bond_site_symmetry_2
O1 H1 1_555 1_555
O2 C11 1_555 1_555
O3 C11 1_555 1_555
O4 H2 1_555 1_555
O5 C23 1_555 1_555
O6 C23 1_555 1_555
C1 O1 1_555 1_555
C2 C1 1_555 1_555
C3 C2 1_555 1_555
H3 C3 1_555 1_555
C4 C3 1_555 1_555
H4 C4 1_555 1_555
C5 C4 1_555 1_555
H5 C5 1_555 1_555
C6 C5 1_555 1_555
H6 C6 1_555 1_555
C7 C2 1_555 1_555
C8 C7 1_555 1_555
H7 C8 1_555 1_555
C9 C8 1_555 1_555
H8 C9 1_555 1_555
C10 C1 1_555 1_555
C11 C10 1_555 1_555
C12 O3 1_555 1_555
H9 C12 1_555 1_555
H10 C12 1_555 1_555
H11 C12 1_555 1_555
C13 O4 1_555 1_555
C14 C13 1_555 1_555
C15 C14 1_555 1_555
H12 C15 1_555 1_555
C16 C15 1_555 1_555
H13 C16 1_555 1_555
C17 C16 1_555 1_555
H14 C17 1_555 1_555
C18 C17 1_555 1_555
H15 C18 1_555 1_555
C19 C14 1_555 1_555
C20 C19 1_555 1_555
H16 C20 1_555 1_555
C21 C20 1_555 1_555
H17 C21 1_555 1_555
C22 C13 1_555 1_555
C23 C22 1_555 1_555
C24 O6 1_555 1_555
H18 C24 1_555 1_555
H19 C24 1_555 1_555
H20 C24 1_555 1_555
C6 C7 1_555 1_555
C9 C10 1_555 1_555
C18 C19 1_555 1_555
C21 C22 1_555 1_555

#END
