
#######################################################################
#
#                 Cambridge Crystallographic Data Centre
#                                CCDC 
#
#######################################################################
#
# If this CIF has been generated from an entry in the Cambridge 
# Structural Database, then it will include bibliographic, chemical, 
# crystal, experimental, refinement or atomic coordinate data resulting 
# from the CCDC's data processing and validation procedures.
#
#######################################################################

data_SAPJUQ
_chemical_formula_moiety         'C54 H55 B2 N1,C4 H10 O1'
_chemical_name_systematic        
'3,6-bis(Dimesitylboryl)-9-phenyl-9H-carbazole diethyl ether solvate'
_symmetry_cell_setting           triclinic
_symmetry_space_group_name_H-M   'P -1'
_symmetry_Int_Tables_number      2
_space_group_name_Hall           '-P 1'
loop_
_symmetry_equiv_pos_site_id
_symmetry_equiv_pos_as_xyz
1 x,y,z
2 -x,-y,-z
_cell_length_a                   13.9868(9)
_cell_length_b                   14.1476(7)
_cell_length_c                   15.6300(10)
_cell_angle_alpha                64.206(6)
_cell_angle_beta                 69.087(6)
_cell_angle_gamma                84.192(5)
_cell_volume                     2595.86
_cell_formula_units_Z            2
loop_
_atom_site_label
_atom_site_type_symbol
_atom_site_fract_x
_atom_site_fract_y
_atom_site_fract_z
N1 N 0.34106(15) 0.56592(16) 0.29531(16)
B1 B 0.3583(2) 0.21867(19) 0.1963(2)
B2 B -0.0398(2) 0.6832(2) 0.2328(2)
C1 C 0.35817(17) 0.47776(18) 0.27521(18)
C2 C 0.43998(18) 0.4138(2) 0.2760(2)
H1 H 0.4936 0.4253 0.2929
C3 C 0.43840(19) 0.3319(2) 0.2504(2)
H2 H 0.4938 0.2896 0.2479
C4 C 0.35638(18) 0.30980(18) 0.22790(18)
C5 C 0.27428(17) 0.37418(17) 0.23063(16)
H3 H 0.2184 0.3597 0.2182
C6 C 0.27488(16) 0.46022(17) 0.25174(15)
C7 C 0.20564(16) 0.54214(16) 0.25655(15)
C8 C 0.11463(17) 0.56902(17) 0.23801(16)
H4 H 0.0873 0.5299 0.2163
C9 C 0.06308(19) 0.65474(18) 0.25163(17)
C10 C 0.1087(2) 0.71293(19) 0.2828(2)
H5 H 0.0745 0.7689 0.2936
C11 C 0.20082(19) 0.6911(2) 0.2981(2)
H6 H 0.2298 0.7323 0.3165
C12 C 0.24913(17) 0.60516(17) 0.28488(16)
C13 C 0.40808(19) 0.6092(2) 0.3218(2)
C14 C 0.4919(3) 0.6717(3) 0.2486(4)
H7 H 0.5054 0.6869 0.1811
C15 C 0.5576(4) 0.7129(4) 0.2746(6)
H8 H 0.6136 0.7593 0.2262
C16 C 0.5297(10) 0.6744(14) 0.3953(16)
H9 H 0.5591 0.7102 0.4185
C17 C 0.4637(8) 0.5905(17) 0.4614(10)
H10 H 0.4604 0.5568 0.5286
C18 C 0.3997(7) 0.5535(14) 0.4292(7)
H11 H 0.3534 0.4957 0.4743
C19 C 0.46055(19) 0.17902(18) 0.1419(2)
C20 C 0.5351(2) 0.24866(19) 0.0518(2)
C21 C 0.6152(2) 0.2111(2) -0.0056(2)
H12 H 0.6623 0.2588 -0.0655
C22 C 0.6270(3) 0.1047(3) 0.0238(3)
C23 C 0.5585(3) 0.0364(2) 0.1139(3)
H13 H 0.5673 -0.0353 0.1362
C24 C 0.4767(2) 0.0703(2) 0.1733(2)
C25 C 0.5288(3) 0.3677(2) 0.0089(3)
H14 H 0.5866 0.4006 -0.0523
H15 H 0.5293 0.3915 0.0576
H16 H 0.4666 0.3860 -0.0057
C26 C 0.7108(4) 0.0647(3) -0.0424(4)
H17 H 0.7072 -0.0108 -0.0098
H18 H 0.7763 0.0916 -0.0528
H19 H 0.7022 0.0878 -0.1066
C27 C 0.4053(3) -0.0117(3) 0.2707(3)
H20 H 0.4280 -0.0804 0.2787
H21 H 0.3371 -0.0068 0.2686
H22 H 0.4052 -0.0002 0.3269
C28 C 0.25322(19) 0.16776(17) 0.21369(19)
C29 C 0.2324(2) 0.16687(19) 0.1323(2)
C30 C 0.1420(2) 0.1171(2) 0.1498(3)
H23 H 0.1291 0.1184 0.0949
C31 C 0.0710(2) 0.0659(2) 0.2458(3)
C32 C 0.0911(2) 0.0667(2) 0.3265(3)
H24 H 0.0444 0.0318 0.3919
C33 C 0.1790(2) 0.1182(2) 0.3119(2)
C34 C 0.3053(3) 0.2196(3) 0.0242(2)
H25 H 0.2776 0.2103 -0.0198
H26 H 0.3703 0.1887 0.0187
H27 H 0.3145 0.2933 0.0050
C35 C -0.0250(3) 0.0091(4) 0.2632(4)
H28 H -0.0261 0.0170 0.1994
H29 H -0.0843 0.0386 0.2947
H30 H -0.0256 -0.0642 0.3066
C36 C 0.1938(3) 0.1131(3) 0.4044(2)
H31 H 0.2569 0.1514 0.3845
H32 H 0.1965 0.0410 0.4493
H33 H 0.1377 0.1437 0.4385
C37 C -0.0629(2) 0.6504(2) 0.1568(2)
C38 C 0.0052(4) 0.6881(3) 0.0537(3)
C39 C -0.0197(5) 0.6589(4) -0.0108(4)
H34 H 0.0234 0.6839 -0.0783
C40 C -0.1041(5) 0.5957(4) 0.0199(5)
C41 C -0.1680(4) 0.5586(3) 0.1198(4)
H35 H -0.2248 0.5141 0.1417
C42 C -0.1507(3) 0.5855(3) 0.1894(3)
C43 C 0.0993(4) 0.7584(4) 0.0122(3)
H36 H 0.1335 0.7745 -0.0582
H37 H 0.1446 0.7235 0.0488
H38 H 0.0803 0.8224 0.0195
C44 C -0.1272(6) 0.5682(5) -0.0552(5)
H39 H -0.0744 0.6005 -0.1205
H40 H -0.1922 0.5937 -0.0601
H41 H -0.1295 0.4933 -0.0321
C45 C -0.2244(3) 0.5417(3) 0.2982(4)
H42 H -0.2790 0.4996 0.3055
H43 H -0.2522 0.5986 0.3152
H44 H -0.1885 0.4990 0.3426
C46 C -0.12165(18) 0.74065(18) 0.29051(18)
C47 C -0.1640(2) 0.83252(19) 0.2372(2)
C48 C -0.2404(2) 0.8782(2) 0.2893(3)
H45 H -0.2670 0.9392 0.2530
C49 C -0.2784(2) 0.8351(3) 0.3947(3)
C50 C -0.2365(2) 0.7465(2) 0.4466(2)
H46 H -0.2606 0.7172 0.5171
C51 C -0.15937(19) 0.6996(2) 0.39708(19)
C52 C -0.1265(4) 0.8861(3) 0.1231(3)
H47 H -0.1647 0.9468 0.1013
H48 H -0.1359 0.8382 0.0978
H49 H -0.0550 0.9075 0.0975
C53 C -0.3658(3) 0.8827(4) 0.4509(4)
H50 H -0.3821 0.8423 0.5227
H51 H -0.4249 0.8819 0.4336
H52 H -0.3456 0.9539 0.4321
C54 C -0.1219(3) 0.6000(3) 0.4628(2)
H53 H -0.1570 0.5850 0.5329
H54 H -0.0495 0.6092 0.4464
H55 H -0.1355 0.5426 0.4508
O1 O 0.8303(12) 0.2382(11) 0.3792(17)
C55 C 0.6984(10) 0.2087(12) 0.2807(13)
H56 H 0.6315 0.1729 0.3179
H57 H 0.7395 0.1764 0.2382
H58 H 0.6922 0.2812 0.2395
C56 C 0.750(2) 0.2017(14) 0.3561(19)
H59 H 0.6900 0.2070 0.4090
H60 H 0.7615 0.1272 0.3821
C57 C 0.8558(17) 0.2382(17) 0.4622(13)
H61 H 0.8075 0.2744 0.4980
H62 H 0.8637 0.1681 0.5097
C58 C 0.9529(9) 0.2984(9) 0.3962(16)
H63 H 0.9883 0.3040 0.4365
H64 H 0.9406 0.3675 0.3524
H65 H 0.9941 0.2636 0.3561
C59? C 0.40808(19) 0.6092(2) 0.3218(2)
C60? C 0.4919(3) 0.6717(3) 0.2486(4)
C61? C 0.5576(4) 0.7129(4) 0.2746(6)
C62? C 0.5424(12) 0.7061(13) 0.3495(10)
C63? C 0.4443(9) 0.6664(12) 0.4269(9)
C64? C 0.3784(6) 0.6206(11) 0.4051(7)
H66? H 0.5054 0.6869 0.1811
H67? H 0.6185 0.7486 0.2240
H68? H 0.5937 0.7263 0.3641
H69? H 0.4258 0.6709 0.4883
H70? H 0.3119 0.5979 0.4509
loop_
_geom_bond_atom_site_label_1
_geom_bond_atom_site_label_2
_geom_bond_site_symmetry_1
_geom_bond_site_symmetry_2
N1 C1 1_555 1_555
B1 C4 1_555 1_555
B2 C9 1_555 1_555
C1 C2 1_555 1_555
C2 H1 1_555 1_555
C3 C2 1_555 1_555
H2 C3 1_555 1_555
C4 C3 1_555 1_555
C5 C4 1_555 1_555
H3 C5 1_555 1_555
C6 C1 1_555 1_555
C7 C6 1_555 1_555
C8 C7 1_555 1_555
H4 C8 1_555 1_555
C9 C8 1_555 1_555
C10 C9 1_555 1_555
H5 C10 1_555 1_555
C11 C10 1_555 1_555
H6 C11 1_555 1_555
C12 N1 1_555 1_555
C13 N1 1_555 1_555
C14 C13 1_555 1_555
H7 C14 1_555 1_555
C15 C14 1_555 1_555
H8 C15 1_555 1_555
C16 C15 1_555 1_555
H9 C16 1_555 1_555
C17 C16 1_555 1_555
H10 C17 1_555 1_555
C18 C13 1_555 1_555
H11 C18 1_555 1_555
C19 B1 1_555 1_555
C20 C19 1_555 1_555
C21 C20 1_555 1_555
H12 C21 1_555 1_555
C22 C21 1_555 1_555
C23 C22 1_555 1_555
H13 C23 1_555 1_555
C24 C19 1_555 1_555
C25 C20 1_555 1_555
H14 C25 1_555 1_555
H15 C25 1_555 1_555
H16 C25 1_555 1_555
C26 C22 1_555 1_555
H17 C26 1_555 1_555
H18 C26 1_555 1_555
H19 C26 1_555 1_555
C27 C24 1_555 1_555
H20 C27 1_555 1_555
H21 C27 1_555 1_555
H22 C27 1_555 1_555
C28 B1 1_555 1_555
C29 C28 1_555 1_555
C30 C29 1_555 1_555
H23 C30 1_555 1_555
C31 C30 1_555 1_555
C32 C31 1_555 1_555
H24 C32 1_555 1_555
C33 C28 1_555 1_555
C34 C29 1_555 1_555
H25 C34 1_555 1_555
H26 C34 1_555 1_555
H27 C34 1_555 1_555
C35 C31 1_555 1_555
H28 C35 1_555 1_555
H29 C35 1_555 1_555
H30 C35 1_555 1_555
C36 C33 1_555 1_555
H31 C36 1_555 1_555
H32 C36 1_555 1_555
H33 C36 1_555 1_555
C37 B2 1_555 1_555
C38 C37 1_555 1_555
C39 C38 1_555 1_555
H34 C39 1_555 1_555
C40 C39 1_555 1_555
C41 C40 1_555 1_555
H35 C41 1_555 1_555
C42 C37 1_555 1_555
C43 C38 1_555 1_555
H36 C43 1_555 1_555
H37 C43 1_555 1_555
H38 C43 1_555 1_555
C44 C40 1_555 1_555
H39 C44 1_555 1_555
H40 C44 1_555 1_555
H41 C44 1_555 1_555
C45 C42 1_555 1_555
H42 C45 1_555 1_555
H43 C45 1_555 1_555
H44 C45 1_555 1_555
C46 B2 1_555 1_555
C47 C46 1_555 1_555
C48 C47 1_555 1_555
H45 C48 1_555 1_555
C49 C48 1_555 1_555
C50 C49 1_555 1_555
H46 C50 1_555 1_555
C51 C46 1_555 1_555
C52 C47 1_555 1_555
H47 C52 1_555 1_555
H48 C52 1_555 1_555
H49 C52 1_555 1_555
C53 C49 1_555 1_555
H50 C53 1_555 1_555
H51 C53 1_555 1_555
H52 C53 1_555 1_555
C54 C51 1_555 1_555
H53 C54 1_555 1_555
H54 C54 1_555 1_555
H55 C54 1_555 1_555
O1 C56 1_555 1_555
C55 H56 1_555 1_555
H57 C55 1_555 1_555
H58 C55 1_555 1_555
C56 C55 1_555 1_555
H59 C56 1_555 1_555
H60 C56 1_555 1_555
C57 O1 1_555 1_555
H61 C57 1_555 1_555
H62 C57 1_555 1_555
C58 C57 1_555 1_555
H63 C58 1_555 1_555
H64 C58 1_555 1_555
H65 C58 1_555 1_555
C5 C6 1_555 1_555
C7 C12 1_555 1_555
C11 C12 1_555 1_555
C17 C18 1_555 1_555
C23 C24 1_555 1_555
C32 C33 1_555 1_555
C41 C42 1_555 1_555
C50 C51 1_555 1_555

#END
