
#######################################################################
#
#                 Cambridge Crystallographic Data Centre
#                                CCDC 
#
#######################################################################
#
# If this CIF has been generated from an entry in the Cambridge 
# Structural Database, then it will include bibliographic, chemical, 
# crystal, experimental, refinement or atomic coordinate data resulting 
# from the CCDC's data processing and validation procedures.
#
#######################################################################

data_SAPJUR
_chemical_formula_moiety         'C19 H57 Cl1 Si10'
_chemical_name_systematic        
1-chloro-3,3,4,4-tetramethyl-1,2,2,5,5-pentakis(trimethylsilyl)pentasilolane
_symmetry_cell_setting           monoclinic
_symmetry_space_group_name_H-M   'P 21/n'
_symmetry_Int_Tables_number      14
_space_group_name_Hall           '-P 2yn'
loop_
_symmetry_equiv_pos_site_id
_symmetry_equiv_pos_as_xyz
1 x,y,z
2 1/2-x,1/2+y,1/2-z
3 -x,-y,-z
4 1/2+x,1/2-y,1/2+z
_cell_length_a                   9.6336(6)
_cell_length_b                   17.1672(11)
_cell_length_c                   23.4256(15)
_cell_angle_alpha                90
_cell_angle_beta                 96.341(2)
_cell_angle_gamma                90
_cell_volume                     3850.47
_exptl_crystal_colour            colorless
_exptl_crystal_description       prism
_cell_formula_units_Z            4
loop_
_atom_site_label
_atom_site_type_symbol
_atom_site_fract_x
_atom_site_fract_y
_atom_site_fract_z
Si1 Si 0.46791(8) 0.24621(5) 0.12476(3)
Si2 Si 0.32219(9) 0.25195(5) 0.03649(3)
Si3 Si 0.21306(10) 0.12866(6) 0.03506(4)
Si4 Si 0.18745(9) 0.09519(6) 0.13054(4)
Si5 Si 0.36931(8) 0.15960(5) 0.18824(3)
Si6 Si 0.44682(14) 0.26476(7) -0.04449(5)
Si7 Si 0.15505(12) 0.35292(6) 0.03221(5)
Si8 Si 0.27951(11) 0.21735(6) 0.26785(4)
Si9 Si 0.54250(10) 0.06877(6) 0.22409(4)
Si10 Si 0.57512(11) 0.36092(6) 0.16325(5)
C1 C 0.0385(5) 0.1271(3) -0.0103(2)
H1 H 0.0502 0.1434 -0.0486
H2 H -0.0247 0.1618 0.0059
H3 H 0.0013 0.0751 -0.0112
C2 C 0.3289(6) 0.0533(2) 0.0063(2)
H4 H 0.2912 0.0024 0.0115
H5 H 0.4209 0.0567 0.0265
H6 H 0.3336 0.0625 -0.0339
C3 C 0.0089(4) 0.1254(3) 0.1489(2)
H7 H -0.0617 0.1016 0.1225
H8 H 0.0003 0.1811 0.1464
H9 H -0.0025 0.1090 0.1873
C4 C 0.1964(5) -0.0142(2) 0.1403(2)
H10 H 0.1955 -0.0266 0.1802
H11 H 0.2809 -0.0335 0.1272
H12 H 0.1174 -0.0379 0.1184
C5 C 0.2370(6) 0.4510(3) 0.0432(3)
H13 H 0.1723 0.4902 0.0277
H14 H 0.3199 0.4533 0.0240
H15 H 0.2609 0.4600 0.0835
C6 C 0.0508(7) 0.3543(4) -0.0392(3)
H16 H -0.0032 0.3073 -0.0442
H17 H 0.1124 0.3578 -0.0686
H18 H -0.0107 0.3984 -0.0416
C7 C 0.0320(6) 0.3410(4) 0.0872(3)
H19 H -0.0350 0.3826 0.0837
H20 H 0.0829 0.3422 0.1248
H21 H -0.0156 0.2920 0.0816
C8 C 0.6072(6) 0.2046(5) -0.0430(3)
H22 H 0.6457 0.2099 -0.0789
H23 H 0.5845 0.1510 -0.0370
H24 H 0.6744 0.2220 -0.0123
C9 C 0.4921(10) 0.3677(3) -0.0561(3)
H25 H 0.5809 0.3793 -0.0350
H26 H 0.4218 0.4008 -0.0430
H27 H 0.4972 0.3765 -0.0963
C10 C 0.3312(6) 0.2300(4) -0.10847(19)
H28 H 0.2502 0.2629 -0.1144
H29 H 0.3027 0.1774 -0.1022
H30 H 0.3811 0.2319 -0.1417
C11 C 0.4225(6) 0.2579(3) 0.31997(19)
H31 H 0.3825 0.2868 0.3492
H32 H 0.4804 0.2917 0.3001
H33 H 0.4779 0.2160 0.3374
C12 C 0.1513(5) 0.2972(3) 0.2481(2)
H34 H 0.1236 0.3204 0.2824
H35 H 0.0706 0.2762 0.2256
H36 H 0.1937 0.3361 0.2262
C13 C 0.1845(6) 0.1409(3) 0.3054(2)
H37 H 0.2507 0.1050 0.3244
H38 H 0.1216 0.1134 0.2779
H39 H 0.1326 0.1652 0.3333
C14 C 0.4747(5) 0.0100(3) 0.2831(2)
H40 H 0.5353 -0.0337 0.2924
H41 H 0.3823 -0.0084 0.2704
H42 H 0.4720 0.0421 0.3165
C15 C 0.7074(4) 0.1168(3) 0.2568(2)
H43 H 0.7733 0.0777 0.2713
H44 H 0.6868 0.1501 0.2877
H45 H 0.7465 0.1473 0.2281
C16 C 0.5904(5) 0.0009(3) 0.1668(2)
H46 H 0.6121 0.0305 0.1342
H47 H 0.5132 -0.0332 0.1554
H48 H 0.6702 -0.0294 0.1813
C17 C 0.7265(5) 0.3315(3) 0.2158(2)
H49 H 0.7776 0.3770 0.2295
H50 H 0.7868 0.2975 0.1973
H51 H 0.6929 0.3048 0.2476
C18 C 0.6465(5) 0.4162(3) 0.1043(2)
H52 H 0.5707 0.4355 0.0780
H53 H 0.7040 0.3824 0.0843
H54 H 0.7014 0.4592 0.1203
C19 C 0.4543(6) 0.4264(3) 0.1979(2)
H55 H 0.5054 0.4704 0.2145
H56 H 0.4141 0.3983 0.2275
H57 H 0.3814 0.4440 0.1697
Cl1 Cl 0.64823(11) 0.18738(8) 0.10279(5)
loop_
_geom_bond_atom_site_label_1
_geom_bond_atom_site_label_2
_geom_bond_site_symmetry_1
_geom_bond_site_symmetry_2
Si1 Si2 1_555 1_555
Si2 Si3 1_555 1_555
Si3 Si4 1_555 1_555
Si4 Si5 1_555 1_555
Si5 Si1 1_555 1_555
Si6 Si2 1_555 1_555
Si7 Si2 1_555 1_555
Si8 Si5 1_555 1_555
Si9 Si5 1_555 1_555
Si10 Si1 1_555 1_555
C1 Si3 1_555 1_555
H1 C1 1_555 1_555
H2 C1 1_555 1_555
H3 C1 1_555 1_555
C2 Si3 1_555 1_555
H4 C2 1_555 1_555
H5 C2 1_555 1_555
H6 C2 1_555 1_555
C3 Si4 1_555 1_555
H7 C3 1_555 1_555
H8 C3 1_555 1_555
H9 C3 1_555 1_555
C4 Si4 1_555 1_555
H10 C4 1_555 1_555
H11 C4 1_555 1_555
H12 C4 1_555 1_555
C5 Si7 1_555 1_555
H13 C5 1_555 1_555
H14 C5 1_555 1_555
H15 C5 1_555 1_555
C6 Si7 1_555 1_555
H16 C6 1_555 1_555
H17 C6 1_555 1_555
H18 C6 1_555 1_555
C7 Si7 1_555 1_555
H19 C7 1_555 1_555
H20 C7 1_555 1_555
H21 C7 1_555 1_555
C8 Si6 1_555 1_555
H22 C8 1_555 1_555
H23 C8 1_555 1_555
H24 C8 1_555 1_555
C9 Si6 1_555 1_555
H25 C9 1_555 1_555
H26 C9 1_555 1_555
H27 C9 1_555 1_555
C10 Si6 1_555 1_555
H28 C10 1_555 1_555
H29 C10 1_555 1_555
H30 C10 1_555 1_555
C11 Si8 1_555 1_555
H31 C11 1_555 1_555
H32 C11 1_555 1_555
H33 C11 1_555 1_555
C12 Si8 1_555 1_555
H34 C12 1_555 1_555
H35 C12 1_555 1_555
H36 C12 1_555 1_555
C13 Si8 1_555 1_555
H37 C13 1_555 1_555
H38 C13 1_555 1_555
H39 C13 1_555 1_555
C14 Si9 1_555 1_555
H40 C14 1_555 1_555
H41 C14 1_555 1_555
H42 C14 1_555 1_555
C15 Si9 1_555 1_555
H43 C15 1_555 1_555
H44 C15 1_555 1_555
H45 C15 1_555 1_555
C16 Si9 1_555 1_555
H46 C16 1_555 1_555
H47 C16 1_555 1_555
H48 C16 1_555 1_555
C17 Si10 1_555 1_555
H49 C17 1_555 1_555
H50 C17 1_555 1_555
H51 C17 1_555 1_555
C18 Si10 1_555 1_555
H52 C18 1_555 1_555
H53 C18 1_555 1_555
H54 C18 1_555 1_555
C19 Si10 1_555 1_555
H55 C19 1_555 1_555
H56 C19 1_555 1_555
H57 C19 1_555 1_555
Cl1 Si1 1_555 1_555

#END
