
#######################################################################
#
#                 Cambridge Crystallographic Data Centre
#                                CCDC 
#
#######################################################################
#
# If this CIF has been generated from an entry in the Cambridge 
# Structural Database, then it will include bibliographic, chemical, 
# crystal, experimental, refinement or atomic coordinate data resulting 
# from the CCDC's data processing and validation procedures.
#
#######################################################################

data_SAPLUT
_chemical_formula_moiety         'C24 H47 Cl1 O1 Si5'
_chemical_name_systematic        
(1-chloro-2,2,5,5-tetrakis(trimethylsilyl)silolan-1-yl)(4-methylphenyl)methanone
_symmetry_cell_setting           monoclinic
_symmetry_space_group_name_H-M   'P 21/n'
_symmetry_Int_Tables_number      14
_space_group_name_Hall           '-P 2yn'
loop_
_symmetry_equiv_pos_site_id
_symmetry_equiv_pos_as_xyz
1 x,y,z
2 1/2-x,1/2+y,1/2-z
3 -x,-y,-z
4 1/2+x,1/2-y,1/2+z
_cell_length_a                   17.2225(18)
_cell_length_b                   11.8089(12)
_cell_length_c                   30.911(3)
_cell_angle_alpha                90
_cell_angle_beta                 99.430(2)
_cell_angle_gamma                90
_cell_volume                     6201.69
_exptl_crystal_colour            colorless
_exptl_crystal_description       prism
_cell_formula_units_Z            8
loop_
_atom_site_label
_atom_site_type_symbol
_atom_site_fract_x
_atom_site_fract_y
_atom_site_fract_z
Si1 Si 0.64231(6) 0.66497(9) 0.12515(3)
Si2 Si 0.76446(7) 0.46606(10) 0.16761(4)
Si3 Si 0.76153(8) 0.88003(10) 0.12792(4)
Si4 Si 0.65623(8) 0.42338(11) 0.07820(4)
Cl1 Cl 0.52496(6) 0.63234(12) 0.09754(4)
Si5 Si 0.60811(8) 0.87245(11) 0.05867(4)
C1 C 0.5853(2) 0.6519(3) 0.21366(13)
C2 C 0.6858(2) 0.7811(3) 0.09463(12)
C3 C 0.6248(3) 0.7166(4) 0.18190(13)
C4 C 0.7283(2) 0.7023(3) 0.06481(13)
H1 H 0.6903 0.6751 0.0404
H2 H 0.7681 0.7453 0.0531
C5 C 0.7059(2) 0.5396(3) 0.11628(13)
C6 C 0.7665(2) 0.6023(3) 0.09090(13)
H3 H 0.8111 0.6285 0.1118
H4 H 0.7859 0.5493 0.0712
O1 O 0.6444(2) 0.8142(3) 0.19024(11)
C7 C 0.5580(2) 0.5425(3) 0.20592(14)
H5 H 0.5651 0.5060 0.1802
C8 C 0.5206(2) 0.4868(4) 0.23560(15)
H6 H 0.5032 0.4131 0.2297
C9 C 0.5084(2) 0.5385(4) 0.27424(14)
C10 C 0.5696(3) 0.3531(5) 0.09677(18)
H7 H 0.5219 0.3804 0.0795
H8 H 0.5695 0.3704 0.1271
H9 H 0.5732 0.2726 0.0932
C11 C 0.5349(3) 0.6476(4) 0.28157(15)
H10 H 0.5276 0.6840 0.3073
C12 C 0.8230(3) 0.8179(5) 0.17747(17)
H11 H 0.8695 0.8631 0.1856
H12 H 0.8378 0.7421 0.1711
H13 H 0.7934 0.8166 0.2012
C13 C 0.6223(3) 0.4737(5) 0.02051(15)
H14 H 0.5994 0.4116 0.0028
H15 H 0.6665 0.5028 0.0086
H16 H 0.5838 0.5324 0.0206
C14 C 0.5719(3) 0.7045(4) 0.25208(14)
H17 H 0.5882 0.7789 0.2578
C15 C 0.7825(3) 0.5515(4) 0.21913(16)
H18 H 0.7339 0.5846 0.2243
H19 H 0.8197 0.6104 0.2163
H20 H 0.8031 0.5033 0.2433
C16 C 0.7217(4) 1.0148(4) 0.14636(18)
H21 H 0.6882 0.9988 0.1675
H22 H 0.6920 1.0530 0.1216
H23 H 0.7645 1.0623 0.1595
C17 C 0.7155(3) 0.3362(4) 0.18553(17)
H24 H 0.7456 0.3077 0.2122
H25 H 0.7123 0.2793 0.1631
H26 H 0.6634 0.3551 0.1905
C18 C 0.8371(3) 0.9201(5) 0.09287(18)
H27 H 0.8110 0.9486 0.0652
H28 H 0.8676 0.8546 0.0881
H29 H 0.8712 0.9775 0.1075
C19 C 0.4659(3) 0.4783(5) 0.30677(18)
H30 H 0.4894 0.4054 0.3135
H31 H 0.4115 0.4689 0.2943
H32 H 0.4700 0.5224 0.3331
C20 C 0.8639(3) 0.4251(5) 0.15563(19)
H33 H 0.8917 0.4917 0.1490
H34 H 0.8578 0.3746 0.1310
H35 H 0.8931 0.3879 0.1808
C21 C 0.6535(4) 0.9922(4) 0.03194(19)
H36 H 0.6929 0.9630 0.0163
H37 H 0.6773 1.0444 0.0540
H38 H 0.6136 1.0304 0.0119
C22 C 0.7323(4) 0.3109(4) 0.0714(2)
H39 H 0.7141 0.2669 0.0456
H40 H 0.7400 0.2624 0.0966
H41 H 0.7812 0.3468 0.0685
C23 C 0.5536(3) 0.7957(5) 0.01041(17)
H42 H 0.5328 0.8492 -0.0119
H43 H 0.5112 0.7534 0.0192
H44 H 0.5888 0.7448 -0.0010
C24 C 0.5350(3) 0.9328(5) 0.0909(2)
H45 H 0.5621 0.9750 0.1153
H46 H 0.5058 0.8723 0.1015
H47 H 0.4995 0.9819 0.0725
Si6 Si 0.84747(6) 0.53534(9) 0.87558(3)
Si7 Si 0.72860(6) 0.33839(10) 0.82852(4)
Cl2 Cl 0.96227(6) 0.50011(11) 0.90737(4)
Si8 Si 0.73048(7) 0.75541(10) 0.86747(4)
Si9 Si 0.82239(8) 0.29596(11) 0.92209(4)
Si10 Si 0.87515(8) 0.74205(12) 0.94223(4)
C25 C 0.8009(2) 0.6533(3) 0.90328(12)
C26 C 0.7795(2) 0.4116(3) 0.88131(12)
C27 C 0.7152(2) 0.4784(3) 0.90267(14)
H48 H 0.6746 0.5064 0.8796
H49 H 0.6906 0.4271 0.9209
O2 O 0.8552(2) 0.6836(3) 0.81119(11)
C28 C 0.9162(2) 0.5198(3) 0.79031(13)
C29 C 0.7511(2) 0.5772(3) 0.93032(13)
H50 H 0.7847 0.5489 0.9564
H51 H 0.7096 0.6222 0.9396
C30 C 0.8735(2) 0.5851(4) 0.81987(13)
C31 C 0.9434(2) 0.4109(3) 0.79953(13)
H52 H 0.9348 0.3753 0.8252
C32 C 0.9973(2) 0.4048(4) 0.73223(14)
C33 C 0.9834(2) 0.3549(4) 0.77069(14)
H53 H 1.0015 0.2817 0.7773
C34 C 0.9298(3) 0.5701(4) 0.75218(15)
H54 H 0.9110 0.6428 0.7453
C35 C 0.9711(3) 0.5139(4) 0.72391(15)
H55 H 0.9813 0.5505 0.6988
C36 C 0.7159(3) 0.4249(4) 0.77754(15)
H56 H 0.7666 0.4470 0.7714
H57 H 0.6856 0.4913 0.7814
H58 H 0.6890 0.3810 0.7535
C37 C 0.6273(3) 0.2958(5) 0.8358(2)
H59 H 0.5998 0.2657 0.8088
H60 H 0.5996 0.3607 0.8441
H61 H 0.6304 0.2392 0.8583
C38 C 0.6725(3) 0.6966(5) 0.81643(17)
H62 H 0.6318 0.7492 0.8048
H63 H 0.6491 0.6261 0.8229
H64 H 0.7065 0.6843 0.7952
C39 C 0.7770(3) 0.8860(4) 0.85031(18)
H65 H 0.8160 0.8661 0.8328
H66 H 0.8014 0.9268 0.8758
H67 H 0.7376 0.9328 0.8335
C40 C 0.9102(3) 0.2189(4) 0.90685(19)
H68 H 0.9052 0.1393 0.9120
H69 H 0.9575 0.2468 0.9244
H70 H 0.9125 0.2315 0.8764
C41 C 0.8538(3) 0.3489(5) 0.97950(15)
H71 H 0.8096 0.3830 0.9898
H72 H 0.8948 0.4041 0.9798
H73 H 0.8729 0.2867 0.9982
C42 C 0.7458(4) 0.1884(5) 0.9274(2)
H74 H 0.7671 0.1326 0.9487
H75 H 0.7293 0.1525 0.8996
H76 H 0.7015 0.2247 0.9368
C43 C 1.0406(3) 0.3431(4) 0.70097(17)
H77 H 1.0885 0.3121 0.7168
H78 H 1.0528 0.3949 0.6791
H79 H 1.0083 0.2830 0.6870
C44 C 0.7799(3) 0.2096(4) 0.81267(18)
H80 H 0.7783 0.1513 0.8342
H81 H 0.8338 0.2278 0.8111
H82 H 0.7543 0.1833 0.7846
C45 C 0.9573(3) 0.7956(5) 0.9155(2)
H83 H 0.9362 0.8314 0.8882
H84 H 0.9903 0.7334 0.9100
H85 H 0.9878 0.8495 0.9344
C46 C 0.8291(4) 0.8670(5) 0.96507(19)
H86 H 0.8673 0.9037 0.9866
H87 H 0.7855 0.8423 0.9785
H88 H 0.8107 0.9192 0.9418
C47 C 0.9180(3) 0.6641(5) 0.99321(17)
H89 H 0.9516 0.6046 0.9860
H90 H 0.8763 0.6321 1.0064
H91 H 0.9480 0.7156 1.0134
C48 C 0.6513(3) 0.8018(5) 0.89935(19)
H92 H 0.6753 0.8277 0.9279
H93 H 0.6172 0.7391 0.9024
H94 H 0.6213 0.8623 0.8840
loop_
_geom_bond_atom_site_label_1
_geom_bond_atom_site_label_2
_geom_bond_site_symmetry_1
_geom_bond_site_symmetry_2
Si1 Cl1 1_555 1_555
Si2 C5 1_555 1_555
Si3 C2 1_555 1_555
Si4 C5 1_555 1_555
Si5 C2 1_555 1_555
C1 C3 1_555 1_555
C2 Si1 1_555 1_555
C3 Si1 1_555 1_555
C4 C2 1_555 1_555
H1 C4 1_555 1_555
H2 C4 1_555 1_555
C5 Si1 1_555 1_555
C6 C4 1_555 1_555
H3 C6 1_555 1_555
H4 C6 1_555 1_555
O1 C3 1_555 1_555
C7 C1 1_555 1_555
H5 C7 1_555 1_555
C8 C7 1_555 1_555
H6 C8 1_555 1_555
C9 C8 1_555 1_555
C10 Si4 1_555 1_555
H7 C10 1_555 1_555
H8 C10 1_555 1_555
H9 C10 1_555 1_555
C11 C9 1_555 1_555
H10 C11 1_555 1_555
C12 Si3 1_555 1_555
H11 C12 1_555 1_555
H12 C12 1_555 1_555
H13 C12 1_555 1_555
C13 Si4 1_555 1_555
H14 C13 1_555 1_555
H15 C13 1_555 1_555
H16 C13 1_555 1_555
C14 C1 1_555 1_555
H17 C14 1_555 1_555
C15 Si2 1_555 1_555
H18 C15 1_555 1_555
H19 C15 1_555 1_555
H20 C15 1_555 1_555
C16 Si3 1_555 1_555
H21 C16 1_555 1_555
H22 C16 1_555 1_555
H23 C16 1_555 1_555
C17 Si2 1_555 1_555
H24 C17 1_555 1_555
H25 C17 1_555 1_555
H26 C17 1_555 1_555
C18 Si3 1_555 1_555
H27 C18 1_555 1_555
H28 C18 1_555 1_555
H29 C18 1_555 1_555
C19 C9 1_555 1_555
H30 C19 1_555 1_555
H31 C19 1_555 1_555
H32 C19 1_555 1_555
C20 Si2 1_555 1_555
H33 C20 1_555 1_555
H34 C20 1_555 1_555
H35 C20 1_555 1_555
C21 Si5 1_555 1_555
H36 C21 1_555 1_555
H37 C21 1_555 1_555
H38 C21 1_555 1_555
C22 Si4 1_555 1_555
H39 C22 1_555 1_555
H40 C22 1_555 1_555
H41 C22 1_555 1_555
C23 Si5 1_555 1_555
H42 C23 1_555 1_555
H43 C23 1_555 1_555
H44 C23 1_555 1_555
C24 Si5 1_555 1_555
H45 C24 1_555 1_555
H46 C24 1_555 1_555
H47 C24 1_555 1_555
Si6 Cl2 1_555 1_555
Si7 C26 1_555 1_555
Si8 C25 1_555 1_555
Si9 C26 1_555 1_555
Si10 C25 1_555 1_555
C25 Si6 1_555 1_555
C26 Si6 1_555 1_555
C27 C26 1_555 1_555
H48 C27 1_555 1_555
H49 C27 1_555 1_555
O2 C30 1_555 1_555
C28 C30 1_555 1_555
C29 C25 1_555 1_555
H50 C29 1_555 1_555
H51 C29 1_555 1_555
C30 Si6 1_555 1_555
C31 C28 1_555 1_555
H52 C31 1_555 1_555
C32 C33 1_555 1_555
C33 C31 1_555 1_555
H53 C33 1_555 1_555
C34 C28 1_555 1_555
H54 C34 1_555 1_555
C35 C32 1_555 1_555
H55 C35 1_555 1_555
C36 Si7 1_555 1_555
H56 C36 1_555 1_555
H57 C36 1_555 1_555
H58 C36 1_555 1_555
C37 Si7 1_555 1_555
H59 C37 1_555 1_555
H60 C37 1_555 1_555
H61 C37 1_555 1_555
C38 Si8 1_555 1_555
H62 C38 1_555 1_555
H63 C38 1_555 1_555
H64 C38 1_555 1_555
C39 Si8 1_555 1_555
H65 C39 1_555 1_555
H66 C39 1_555 1_555
H67 C39 1_555 1_555
C40 Si9 1_555 1_555
H68 C40 1_555 1_555
H69 C40 1_555 1_555
H70 C40 1_555 1_555
C41 Si9 1_555 1_555
H71 C41 1_555 1_555
H72 C41 1_555 1_555
H73 C41 1_555 1_555
C42 Si9 1_555 1_555
H74 C42 1_555 1_555
H75 C42 1_555 1_555
H76 C42 1_555 1_555
C43 C32 1_555 1_555
H77 C43 1_555 1_555
H78 C43 1_555 1_555
H79 C43 1_555 1_555
C44 Si7 1_555 1_555
H80 C44 1_555 1_555
H81 C44 1_555 1_555
H82 C44 1_555 1_555
C45 Si10 1_555 1_555
H83 C45 1_555 1_555
H84 C45 1_555 1_555
H85 C45 1_555 1_555
C46 Si10 1_555 1_555
H86 C46 1_555 1_555
H87 C46 1_555 1_555
H88 C46 1_555 1_555
C47 Si10 1_555 1_555
H89 C47 1_555 1_555
H90 C47 1_555 1_555
H91 C47 1_555 1_555
C48 Si8 1_555 1_555
H92 C48 1_555 1_555
H93 C48 1_555 1_555
H94 C48 1_555 1_555
C5 C6 1_555 1_555
C11 C14 1_555 1_555
C27 C29 1_555 1_555
C34 C35 1_555 1_555

#END
