
#######################################################################
#
#                 Cambridge Crystallographic Data Centre
#                                CCDC 
#
#######################################################################
#
# If this CIF has been generated from an entry in the Cambridge 
# Structural Database, then it will include bibliographic, chemical, 
# crystal, experimental, refinement or atomic coordinate data resulting 
# from the CCDC's data processing and validation procedures.
#
#######################################################################

data_SAPLIG
_chemical_formula_moiety         'C23 H19 N5 O1'
_chemical_name_systematic        
N-(4-Methyl-3-((4-(pyridin-3-yl)pyrimidin-2-yl)amino)phenyl)benzamide
_symmetry_cell_setting           monoclinic
_symmetry_space_group_name_H-M   'P 21/n'
_symmetry_Int_Tables_number      14
_space_group_name_Hall           '-P 2yn'
loop_
_symmetry_equiv_pos_site_id
_symmetry_equiv_pos_as_xyz
1 x,y,z
2 1/2-x,1/2+y,1/2-z
3 -x,-y,-z
4 1/2+x,1/2-y,1/2+z
_cell_length_a                   8.0283(16)
_cell_length_b                   15.129(3)
_cell_length_c                   16.088(3)
_cell_angle_alpha                90
_cell_angle_beta                 94.38(3)
_cell_angle_gamma                90
_cell_volume                     1948.34
_exptl_crystal_colour            colorless
_exptl_crystal_description       block
_cell_formula_units_Z            4
_exptl_crystal_recrystallization_method ethanol
loop_
_atom_site_label
_atom_site_type_symbol
_atom_site_fract_x
_atom_site_fract_y
_atom_site_fract_z
O1 O -0.2950(2) 0.59863(9) 0.15317(9)
N1 N 0.2795(2) 1.11335(11) 0.07448(12)
N2 N 0.18335(19) 0.85432(11) 0.01431(9)
N3 N 0.2523(2) 0.70102(11) -0.00057(10)
N4 N -0.0076(2) 0.75826(11) -0.04675(10)
H1 H -0.0643 0.8056 -0.0635
N5 N -0.2382(2) 0.48832(11) 0.06393(10)
H2 H -0.2304 0.4307 0.0579
C1 C 0.2628(2) 1.02930(13) 0.05094(13)
H3 H 0.1714 1.0146 0.0125
C2 C 0.4103(3) 1.13312(15) 0.12772(14)
H4 H 0.4254 1.1928 0.1449
C3 C 0.5239(3) 1.07128(14) 0.15868(14)
H5 H 0.6151 1.0881 0.1965
C4 C 0.5038(3) 0.98435(14) 0.13414(13)
H6 H 0.5808 0.9405 0.1550
C5 C 0.3699(2) 0.96165(13) 0.07869(12)
C6 C 0.3367(2) 0.86932(13) 0.05053(11)
C7 C 0.4539(2) 0.80209(13) 0.06171(12)
H7 H 0.5631 0.8129 0.0866
C8 C 0.4047(2) 0.71917(14) 0.03505(12)
H8 H 0.4830 0.6722 0.0423
C9 C 0.1480(2) 0.77085(13) -0.00957(11)
C10 C -0.0871(2) 0.67490(12) -0.06095(12)
C11 C -0.1151(2) 0.62150(13) 0.00697(12)
H9 H -0.0749 0.6393 0.0615
C12 C -0.2010(2) 0.54281(13) -0.00424(12)
C13 C -0.2527(3) 0.51536(14) -0.08460(12)
H10 H -0.3079 0.4602 -0.0934
C14 C -0.2233(3) 0.56894(15) -0.15161(13)
H11 H -0.2582 0.5492 -0.2062
C15 C -0.1445(2) 0.65051(14) -0.14202(12)
C16 C -0.1261(3) 0.70924(15) -0.21634(13)
H12 H -0.0686 0.7638 -0.1982
H13 H -0.2369 0.7236 -0.2427
H14 H -0.0608 0.6785 -0.2565
C17 C -0.2848(2) 0.51951(13) 0.13780(12)
C18 C -0.3264(2) 0.45179(14) 0.20146(12)
C19 C -0.4093(3) 0.48223(16) 0.26934(13)
H15 H -0.4391 0.5428 0.2729
C20 C -0.4479(3) 0.42380(17) 0.33142(13)
H16 H -0.5047 0.4445 0.3773
C21 C -0.4049(3) 0.33627(17) 0.32707(14)
H17 H -0.4319 0.2967 0.3699
C22 C -0.3223(3) 0.30557(16) 0.26054(13)
H18 H -0.2921 0.2450 0.2577
C23 C -0.2836(3) 0.36348(14) 0.19786(13)
H19 H -0.2272 0.3422 0.1521
loop_
_geom_bond_atom_site_label_1
_geom_bond_atom_site_label_2
_geom_bond_site_symmetry_1
_geom_bond_site_symmetry_2
O1 C17 1_555 1_555
N1 C1 1_555 1_555
N2 C6 1_555 1_555
N3 C8 1_555 1_555
N4 H1 1_555 1_555
N5 H2 1_555 1_555
C1 H3 1_555 1_555
C2 N1 1_555 1_555
H4 C2 1_555 1_555
C3 C2 1_555 1_555
H5 C3 1_555 1_555
C4 C3 1_555 1_555
H6 C4 1_555 1_555
C5 C1 1_555 1_555
C6 C5 1_555 1_555
C7 C6 1_555 1_555
H7 C7 1_555 1_555
C8 C7 1_555 1_555
H8 C8 1_555 1_555
C9 N2 1_555 1_555
C10 N4 1_555 1_555
C11 C10 1_555 1_555
H9 C11 1_555 1_555
C12 N5 1_555 1_555
C13 C12 1_555 1_555
H10 C13 1_555 1_555
C14 C13 1_555 1_555
H11 C14 1_555 1_555
C15 C10 1_555 1_555
C16 C15 1_555 1_555
H12 C16 1_555 1_555
H13 C16 1_555 1_555
H14 C16 1_555 1_555
C17 N5 1_555 1_555
C18 C17 1_555 1_555
C19 C18 1_555 1_555
H15 C19 1_555 1_555
C20 C19 1_555 1_555
H16 C20 1_555 1_555
C21 C20 1_555 1_555
H17 C21 1_555 1_555
C22 C21 1_555 1_555
H18 C22 1_555 1_555
C23 C18 1_555 1_555
H19 C23 1_555 1_555
N3 C9 1_555 1_555
N4 C9 1_555 1_555
C4 C5 1_555 1_555
C11 C12 1_555 1_555
C14 C15 1_555 1_555
C22 C23 1_555 1_555

#END
