
#######################################################################
#
#                 Cambridge Crystallographic Data Centre
#                                CCDC 
#
#######################################################################
#
# If this CIF has been generated from an entry in the Cambridge 
# Structural Database, then it will include bibliographic, chemical, 
# crystal, experimental, refinement or atomic coordinate data resulting 
# from the CCDC's data processing and validation procedures.
#
#######################################################################

data_SAPLON
_chemical_formula_moiety         'C23 H45 Cl1 O1 Si5'
_chemical_name_systematic        
(1-chloro-2,2,5,5-tetrakis(trimethylsilyl)silolan-1-yl)(phenyl)methanone
_symmetry_cell_setting           monoclinic
_symmetry_space_group_name_H-M   'P 21/c'
_symmetry_Int_Tables_number      14
_space_group_name_Hall           '-P 2ybc'
loop_
_symmetry_equiv_pos_site_id
_symmetry_equiv_pos_as_xyz
1 x,y,z
2 -x,1/2+y,1/2-z
3 -x,-y,-z
4 x,1/2-y,1/2+z
_cell_length_a                   19.074(4)
_cell_length_b                   15.060(4)
_cell_length_c                   22.556(5)
_cell_angle_alpha                90
_cell_angle_beta                 112.076(5)
_cell_angle_gamma                90
_cell_volume                     6004.29
_exptl_crystal_colour            colorless
_exptl_crystal_description       block
_cell_formula_units_Z            8
loop_
_atom_site_label
_atom_site_type_symbol
_atom_site_fract_x
_atom_site_fract_y
_atom_site_fract_z
Si1 Si 0.41742(3) 0.21488(5) 0.23553(3)
Si2 Si 0.46837(4) 0.11667(6) 0.37611(3)
Si3 Si 0.58593(4) 0.14100(6) 0.31140(3)
Si4 Si 0.35995(4) 0.19012(6) 0.08357(3)
Si5 Si 0.26678(4) 0.10127(6) 0.15513(3)
Cl1 Cl 0.48227(4) 0.31170(5) 0.21241(3)
O1 O 0.28663(10) 0.29852(16) 0.21708(10)
C1 C 0.47940(12) 0.13203(16) 0.29522(10)
C2 C 0.45020(14) 0.04412(17) 0.25439(11)
H1 H 0.4909 0.0010 0.2660
H2 H 0.4092 0.0188 0.2644
C3 C 0.42262(14) 0.06281(18) 0.18268(11)
H3 H 0.3977 0.0105 0.1591
H4 H 0.4655 0.0762 0.1711
C4 C 0.36589(12) 0.14336(17) 0.16428(10)
C5 C 0.37774(16) 0.1566(2) 0.38119(14)
H5 H 0.3357 0.1324 0.3463
H6 H 0.3759 0.2203 0.3789
H7 H 0.3752 0.1377 0.4210
C6 C 0.54214(17) 0.1731(3) 0.44563(13)
H8 H 0.5354 0.1572 0.4844
H9 H 0.5374 0.2362 0.4398
H10 H 0.5915 0.1547 0.4484
C7 C 0.4734(2) -0.0045(2) 0.39564(15)
H11 H 0.5174 -0.0298 0.3913
H12 H 0.4289 -0.0337 0.3668
H13 H 0.4765 -0.0121 0.4388
C8 C 0.63153(15) 0.2482(2) 0.34817(15)
H14 H 0.6855 0.2411 0.3656
H15 H 0.6146 0.2646 0.3817
H16 H 0.6178 0.2938 0.3161
C9 C 0.63888(16) 0.0486(2) 0.36522(16)
H17 H 0.6216 -0.0073 0.3445
H18 H 0.6302 0.0509 0.4044
H19 H 0.6920 0.0550 0.3743
C10 C 0.60793(15) 0.1252(2) 0.23840(14)
H20 H 0.5821 0.1696 0.2073
H21 H 0.5915 0.0673 0.2209
H22 H 0.6615 0.1306 0.2494
C11 C 0.45377(18) 0.1991(3) 0.07556(15)
H23 H 0.4814 0.1448 0.0896
H24 H 0.4819 0.2474 0.1014
H25 H 0.4462 0.2097 0.0316
C12 C 0.3070(2) 0.1121(3) 0.01714(13)
H26 H 0.2566 0.1041 0.0160
H27 H 0.3325 0.0558 0.0242
H28 H 0.3048 0.1364 -0.0229
C13 C 0.3149(2) 0.3024(2) 0.06687(16)
H29 H 0.2757 0.3028 0.0249
H30 H 0.3523 0.3461 0.0690
H31 H 0.2935 0.3158 0.0981
C14 C 0.25350(19) -0.0148(2) 0.12142(16)
H32 H 0.2831 -0.0555 0.1539
H33 H 0.2696 -0.0171 0.0859
H34 H 0.2010 -0.0308 0.1072
C15 C 0.18602(16) 0.1701(3) 0.10209(15)
H35 H 0.1393 0.1460 0.1019
H36 H 0.1855 0.1695 0.0594
H37 H 0.1918 0.2300 0.1177
C16 C 0.24893(17) 0.0885(2) 0.23014(14)
H38 H 0.2487 0.1459 0.2486
H39 H 0.2881 0.0526 0.2598
H40 H 0.2008 0.0603 0.2208
C17 C 0.35210(13) 0.29805(18) 0.25541(12)
C18 C 0.37690(14) 0.36199(17) 0.30982(11)
C19 C 0.32334(15) 0.41274(19) 0.32157(13)
H41 H 0.2728 0.4082 0.2945
C20 C 0.34358(19) 0.4694(2) 0.37228(14)
H42 H 0.3069 0.5023 0.3805
C21 C 0.4192(2) 0.4778(2) 0.41160(14)
H43 H 0.4333 0.5172 0.4458
C22 C 0.47323(18) 0.4285(2) 0.40050(14)
H44 H 0.5239 0.4343 0.4270
C23 C 0.45199(15) 0.3703(2) 0.34975(13)
H45 H 0.4885 0.3363 0.3423
Si6 Si 0.08265(3) 0.70032(4) 0.26581(3)
Si7 Si 0.23660(4) 0.81011(6) 0.34657(3)
Si8 Si 0.14366(4) 0.72201(6) 0.41786(3)
Si9 Si 0.02818(4) 0.80004(5) 0.12654(3)
Si10 Si -0.08580(4) 0.77748(6) 0.19495(3)
Cl2 Cl 0.01777(4) 0.60364(4) 0.28897(3)
O2 O 0.21197(10) 0.61623(16) 0.27985(10)
C24 C 0.13690(12) 0.77051(16) 0.33744(10)
C25 C 0.08160(13) 0.85201(18) 0.32071(11)
H46 H 0.0394 0.8394 0.3335
H47 H 0.1079 0.9037 0.3443
C26 C 0.05206(14) 0.87162(17) 0.24922(11)
H48 H 0.0927 0.8958 0.2382
H49 H 0.0123 0.9159 0.2389
C27 C 0.01997(12) 0.78493(16) 0.20835(10)
C28 C 0.25369(17) 0.8273(2) 0.27129(15)
H50 H 0.2155 0.8660 0.2433
H51 H 0.2517 0.7712 0.2506
H52 H 0.3026 0.8536 0.2812
C29 C 0.31589(15) 0.7373(2) 0.39667(14)
H53 H 0.3631 0.7615 0.3981
H54 H 0.3093 0.6789 0.3785
H55 H 0.3162 0.7342 0.4393
C30 C 0.25285(18) 0.9237(2) 0.38323(17)
H56 H 0.2389 0.9242 0.4199
H57 H 0.2226 0.9661 0.3524
H58 H 0.3053 0.9391 0.3961
C31 C 0.18607(19) 0.6100(2) 0.43216(15)
H59 H 0.2054 0.5962 0.3996
H60 H 0.1482 0.5672 0.4309
H61 H 0.2266 0.6083 0.4734
C32 C 0.20024(19) 0.7971(3) 0.48592(14)
H62 H 0.2049 0.7703 0.5258
H63 H 0.1750 0.8533 0.4816
H64 H 0.2497 0.8061 0.4850
C33 C 0.05011(17) 0.7163(2) 0.42679(14)
H65 H 0.0199 0.6702 0.3997
H66 H 0.0245 0.7722 0.4148
H67 H 0.0579 0.7034 0.4705
C34 C -0.10497(14) 0.7918(2) 0.26957(13)
H68 H -0.0858 0.8483 0.2885
H69 H -0.0805 0.7452 0.2992
H70 H -0.1585 0.7894 0.2595
C35 C -0.13751(16) 0.8728(3) 0.14384(16)
H71 H -0.1903 0.8690 0.1368
H72 H -0.1315 0.8705 0.1035
H73 H -0.1173 0.9276 0.1650
C36 C -0.13426(15) 0.6717(2) 0.15652(14)
H74 H -0.1881 0.6795 0.1415
H75 H -0.1193 0.6244 0.1873
H76 H -0.1201 0.6571 0.1211
C37 C -0.04597(17) 0.7414(3) 0.05890(12)
H77 H -0.0951 0.7600 0.0564
H78 H -0.0409 0.6784 0.0660
H79 H -0.0400 0.7555 0.0196
C38 C 0.0211(2) 0.9213(2) 0.10551(16)
H80 H 0.0630 0.9525 0.1362
H81 H -0.0254 0.9448 0.1061
H82 H 0.0222 0.9285 0.0636
C39 C 0.11941(16) 0.7619(2) 0.12202(13)
H83 H 0.1267 0.7907 0.0868
H84 H 0.1179 0.6988 0.1158
H85 H 0.1605 0.7767 0.1611
C40 C 0.14567(13) 0.61802(17) 0.24273(11)
C41 C 0.11963(14) 0.55545(18) 0.18721(11)
C42 C 0.04410(15) 0.5445(2) 0.15005(12)
H86 H 0.0077 0.5746 0.1604
C43 C 0.02241(19) 0.4892(2) 0.09769(14)
H87 H -0.0286 0.4823 0.0726
C44 C 0.0761(2) 0.4443(2) 0.08243(15)
H88 H 0.0614 0.4067 0.0471
C45 C 0.1519(2) 0.4549(2) 0.11966(16)
H89 H 0.1883 0.4247 0.1093
C46 C 0.17351(17) 0.5098(2) 0.17174(14)
H90 H 0.2246 0.5165 0.1969
loop_
_geom_bond_atom_site_label_1
_geom_bond_atom_site_label_2
_geom_bond_site_symmetry_1
_geom_bond_site_symmetry_2
Si1 Cl1 1_555 1_555
Si2 C1 1_555 1_555
Si3 C1 1_555 1_555
Si4 C4 1_555 1_555
Si5 C4 1_555 1_555
O1 C17 1_555 1_555
C1 Si1 1_555 1_555
C2 C1 1_555 1_555
H1 C2 1_555 1_555
H2 C2 1_555 1_555
C3 C2 1_555 1_555
H3 C3 1_555 1_555
H4 C3 1_555 1_555
C4 Si1 1_555 1_555
C5 Si2 1_555 1_555
H5 C5 1_555 1_555
H6 C5 1_555 1_555
H7 C5 1_555 1_555
C6 Si2 1_555 1_555
H8 C6 1_555 1_555
H9 C6 1_555 1_555
H10 C6 1_555 1_555
C7 Si2 1_555 1_555
H11 C7 1_555 1_555
H12 C7 1_555 1_555
H13 C7 1_555 1_555
C8 Si3 1_555 1_555
H14 C8 1_555 1_555
H15 C8 1_555 1_555
H16 C8 1_555 1_555
C9 Si3 1_555 1_555
H17 C9 1_555 1_555
H18 C9 1_555 1_555
H19 C9 1_555 1_555
C10 Si3 1_555 1_555
H20 C10 1_555 1_555
H21 C10 1_555 1_555
H22 C10 1_555 1_555
C11 Si4 1_555 1_555
H23 C11 1_555 1_555
H24 C11 1_555 1_555
H25 C11 1_555 1_555
C12 Si4 1_555 1_555
H26 C12 1_555 1_555
H27 C12 1_555 1_555
H28 C12 1_555 1_555
C13 Si4 1_555 1_555
H29 C13 1_555 1_555
H30 C13 1_555 1_555
H31 C13 1_555 1_555
C14 Si5 1_555 1_555
H32 C14 1_555 1_555
H33 C14 1_555 1_555
H34 C14 1_555 1_555
C15 Si5 1_555 1_555
H35 C15 1_555 1_555
H36 C15 1_555 1_555
H37 C15 1_555 1_555
C16 Si5 1_555 1_555
H38 C16 1_555 1_555
H39 C16 1_555 1_555
H40 C16 1_555 1_555
C17 Si1 1_555 1_555
C18 C17 1_555 1_555
C19 C18 1_555 1_555
H41 C19 1_555 1_555
C20 C19 1_555 1_555
H42 C20 1_555 1_555
C21 C20 1_555 1_555
H43 C21 1_555 1_555
C22 C21 1_555 1_555
H44 C22 1_555 1_555
C23 C18 1_555 1_555
H45 C23 1_555 1_555
Si6 Cl2 1_555 1_555
Si7 C24 1_555 1_555
Si8 C24 1_555 1_555
Si9 C27 1_555 1_555
Si10 C27 1_555 1_555
O2 C40 1_555 1_555
C24 Si6 1_555 1_555
C25 C24 1_555 1_555
H46 C25 1_555 1_555
H47 C25 1_555 1_555
C26 C25 1_555 1_555
H48 C26 1_555 1_555
H49 C26 1_555 1_555
C27 Si6 1_555 1_555
C28 Si7 1_555 1_555
H50 C28 1_555 1_555
H51 C28 1_555 1_555
H52 C28 1_555 1_555
C29 Si7 1_555 1_555
H53 C29 1_555 1_555
H54 C29 1_555 1_555
H55 C29 1_555 1_555
C30 Si7 1_555 1_555
H56 C30 1_555 1_555
H57 C30 1_555 1_555
H58 C30 1_555 1_555
C31 Si8 1_555 1_555
H59 C31 1_555 1_555
H60 C31 1_555 1_555
H61 C31 1_555 1_555
C32 Si8 1_555 1_555
H62 C32 1_555 1_555
H63 C32 1_555 1_555
H64 C32 1_555 1_555
C33 Si8 1_555 1_555
H65 C33 1_555 1_555
H66 C33 1_555 1_555
H67 C33 1_555 1_555
C34 Si10 1_555 1_555
H68 C34 1_555 1_555
H69 C34 1_555 1_555
H70 C34 1_555 1_555
C35 Si10 1_555 1_555
H71 C35 1_555 1_555
H72 C35 1_555 1_555
H73 C35 1_555 1_555
C36 Si10 1_555 1_555
H74 C36 1_555 1_555
H75 C36 1_555 1_555
H76 C36 1_555 1_555
C37 Si9 1_555 1_555
H77 C37 1_555 1_555
H78 C37 1_555 1_555
H79 C37 1_555 1_555
C38 Si9 1_555 1_555
H80 C38 1_555 1_555
H81 C38 1_555 1_555
H82 C38 1_555 1_555
C39 Si9 1_555 1_555
H83 C39 1_555 1_555
H84 C39 1_555 1_555
H85 C39 1_555 1_555
C40 Si6 1_555 1_555
C41 C40 1_555 1_555
C42 C41 1_555 1_555
H86 C42 1_555 1_555
C43 C42 1_555 1_555
H87 C43 1_555 1_555
C44 C43 1_555 1_555
H88 C44 1_555 1_555
C45 C44 1_555 1_555
H89 C45 1_555 1_555
C46 C41 1_555 1_555
H90 C46 1_555 1_555
C3 C4 1_555 1_555
C22 C23 1_555 1_555
C26 C27 1_555 1_555
C45 C46 1_555 1_555

#END
