
#######################################################################
#
#                 Cambridge Crystallographic Data Centre
#                                CCDC 
#
#######################################################################
#
# If this CIF has been generated from an entry in the Cambridge 
# Structural Database, then it will include bibliographic, chemical, 
# crystal, experimental, refinement or atomic coordinate data resulting 
# from the CCDC's data processing and validation procedures.
#
#######################################################################

data_SAPMUT
_chemical_formula_moiety         'C25 H29 N1 O9 S1'
_chemical_name_systematic        
'4-(2-Ethyl-1-hydroxybut-3-en-1-yl)-7-hydroxy-2,2-dioxido-1,2,3-oxathiazocane-5,6-diyl dibenzoate'
_symmetry_cell_setting           monoclinic
_symmetry_space_group_name_H-M   'P 21'
_symmetry_Int_Tables_number      4
_space_group_name_Hall           'P 2yb'
loop_
_symmetry_equiv_pos_site_id
_symmetry_equiv_pos_as_xyz
1 x,y,z
2 -x,1/2+y,-z
_cell_length_a                   14.2985(4)
_cell_length_b                   8.2394(2)
_cell_length_c                   22.1560(7)
_cell_angle_alpha                90
_cell_angle_beta                 91.610(2)
_cell_angle_gamma                90
_cell_volume                     2609.19
_exptl_crystal_colour            colorless
_exptl_crystal_description       block
_cell_formula_units_Z            4
loop_
_atom_site_label
_atom_site_type_symbol
_atom_site_fract_x
_atom_site_fract_y
_atom_site_fract_z
C1 C 0.99362(19) -0.0108(4) 0.41628(12)
H1 H 1.0622 -0.0269 0.4153
H2 H 0.9661 -0.1108 0.4330
C2 C 0.97372(16) 0.1295(3) 0.45879(11)
H3 H 0.9755 0.0834 0.5006
C3 C 0.87554(17) 0.2024(3) 0.44863(11)
H4 H 0.8347 0.1233 0.4261
C4 C 0.87197(16) 0.3685(3) 0.41662(11)
H5 H 0.9123 0.4477 0.4396
C5 C 0.89710(18) 0.3714(3) 0.34977(12)
H6 H 0.8516 0.3020 0.3263
C6 C 0.8925(2) 0.5445(4) 0.32498(13)
H7 H 0.8292 0.5903 0.3327
C7 C 0.9091(2) 0.5504(4) 0.25666(13)
H8 H 0.9610 0.4724 0.2491
C8 C 0.9433(3) 0.7134(5) 0.23786(18)
H9 H 0.8993 0.7996 0.2362
C9 C 1.0296(3) 0.7468(6) 0.2235(2)
H10 H 1.0757 0.6638 0.2245
H11 H 1.0459 0.8539 0.2119
C10 C 0.8248(2) 0.4886(5) 0.22082(14)
H12 H 0.8096 0.3780 0.2350
H13 H 0.7706 0.5593 0.2289
C11 C 0.8385(3) 0.4830(7) 0.15438(18)
H14 H 0.8443 0.5938 0.1388
H15 H 0.7847 0.4296 0.1345
H16 H 0.8956 0.4219 0.1461
C12 C 0.80495(17) 0.1012(4) 0.53583(13)
C13 C 0.77290(17) 0.1395(5) 0.59750(13)
C14 C 0.7492(2) 0.0110(5) 0.63448(15)
H17 H 0.7553 -0.0974 0.6205
C15 C 0.7168(2) 0.0401(7) 0.69152(17)
H18 H 0.6999 -0.0479 0.7166
C16 C 0.7091(3) 0.1952(8) 0.71168(16)
H19 H 0.6867 0.2139 0.7510
C17 C 0.7331(2) 0.3267(6) 0.67638(16)
H20 H 0.7280 0.4343 0.6913
C18 C 0.76538(19) 0.2972(5) 0.61762(14)
H21 H 0.7817 0.3851 0.5923
C19 C 0.75360(16) 0.5343(3) 0.45863(11)
C20 C 0.65493(17) 0.5876(3) 0.45173(12)
C21 C 0.6215(2) 0.6908(5) 0.49493(17)
H22 H 0.6603 0.7203 0.5287
C22 C 0.5311(2) 0.7519(6) 0.4893(2)
H23 H 0.5076 0.8223 0.5193
C23 C 0.4767(2) 0.7098(5) 0.4406(2)
H24 H 0.4148 0.7512 0.4367
C24 C 0.5098(2) 0.6081(5) 0.39680(17)
H25 H 0.4713 0.5810 0.3626
C25 C 0.59918(18) 0.5457(4) 0.40276(13)
H26 H 0.6220 0.4739 0.3730
N1 N 0.99170(17) 0.3109(3) 0.34088(11)
H53 H 1.023(2) 0.321(4) 0.3719(13)
O1 O 0.95819(19) 0.1236(3) 0.25757(9)
O2 O 1.10664(16) 0.1078(3) 0.31611(11)
O3 O 0.95777(14) 0.0107(2) 0.35468(8)
O4 O 1.04017(12) 0.2586(2) 0.45882(9)
H55 H 1.0908 0.2268 0.4749
O5 O 0.80336(14) -0.0318(3) 0.51344(10)
O6 O 0.83728(12) 0.2345(2) 0.50707(8)
O7 O 0.80801(12) 0.5849(2) 0.49641(8)
O8 O 0.77592(11) 0.4219(2) 0.41685(7)
O9 O 0.9603(2) 0.6331(3) 0.35982(10)
H56 H 0.9804 0.7105 0.3392
S1 S 1.00876(6) 0.13560(10) 0.31266(3)
C26 C 0.5235(2) 0.4388(4) 0.09096(13)
H27 H 0.4582 0.4053 0.0981
H28 H 0.5529 0.3529 0.0667
C27 C 0.52208(18) 0.5953(4) 0.05499(12)
H29 H 0.5164 0.5643 0.0114
C28 C 0.61440(17) 0.6898(3) 0.06322(11)
H30 H 0.6629 0.6162 0.0817
C29 C 0.60964(17) 0.8452(4) 0.10085(12)
H31 H 0.5632 0.9219 0.0820
C30 C 0.59149(19) 0.8275(4) 0.16886(12)
H32 H 0.6479 0.7766 0.1887
C31 C 0.5770(2) 0.9933(4) 0.19744(13)
H33 H 0.6269 1.0681 0.1833
C32 C 0.5820(2) 0.9882(4) 0.26682(13)
H34 H 0.5393 0.9005 0.2807
C33 C 0.5483(7) 1.1441(7) 0.2904(3)
H35 H 0.5831 1.2389 0.2814
C34 C 0.4761(4) 1.1606(9) 0.3217(4)
H36 H 0.4396 1.0684 0.3314
H37 H 0.4585 1.2652 0.3354
C35 C 0.6830(4) 0.9482(8) 0.2897(3)
H38 H 0.7002 0.8398 0.2742
H39 H 0.7263 1.0281 0.2722
C36 C 0.6975(4) 0.9485(8) 0.3558(3)
H40 H 0.6929 1.0599 0.3710
H41 H 0.7597 0.9049 0.3662
H42 H 0.6497 0.8810 0.3743
C37 C 0.68369(18) 0.6282(4) -0.03027(12)
C38 C 0.72599(18) 0.6951(4) -0.08520(13)
C39 C 0.7499(2) 0.5860(5) -0.12999(14)
H43 H 0.7360 0.4738 -0.1259
C40 C 0.7942(2) 0.6420(6) -0.18061(14)
H44 H 0.8104 0.5685 -0.2117
C41 C 0.8147(3) 0.8044(6) -0.18591(16)
H45 H 0.8459 0.8418 -0.2206
C42 C 0.7910(2) 0.9130(5) -0.14214(16)
H46 H 0.8058 1.0248 -0.1463
C43 C 0.7453(2) 0.8583(4) -0.09163(14)
H47 H 0.7273 0.9330 -0.0615
C44 C 0.71675(18) 1.0445(4) 0.06407(11)
C45 C 0.81561(18) 1.0934(4) 0.06259(12)
C46 C 0.8835(2) 1.0282(5) 0.10198(15)
H48 H 0.8669 0.9479 0.1305
C47 C 0.9749(2) 1.0810(6) 0.09931(18)
H49 H 1.0209 1.0390 0.1268
C48 C 0.9995(2) 1.1936(5) 0.05722(19)
H50 H 1.0626 1.2292 0.0556
C49 C 0.9338(3) 1.2550(6) 0.0176(2)
H51 H 0.9517 1.3310 -0.0122
C50 C 0.8411(2) 1.2071(4) 0.02045(16)
H52 H 0.7953 1.2524 -0.0065
N2 N 0.50977(17) 0.7259(3) 0.18167(11)
H54 H 0.459(2) 0.745(5) 0.1616(15)
O10 O 0.58872(15) 0.5325(3) 0.25068(9)
O11 O 0.43195(14) 0.4731(3) 0.20656(10)
O12 O 0.57400(13) 0.4514(2) 0.14917(9)
O13 O 0.44452(13) 0.6980(3) 0.06702(9)
H57 H 0.4015 0.6812 0.0412
O14 O 0.68188(15) 0.4871(3) -0.01693(10)
O15 O 0.64626(12) 0.7458(2) 0.00490(8)
O16 O 0.65331(13) 1.1124(3) 0.03636(9)
O17 O 0.70261(12) 0.9154(2) 0.09984(8)
O18 O 0.48855(16) 1.0485(3) 0.17313(10)
H58 H 0.4672 1.1207 0.1957
S2 S 0.52263(5) 0.54091(10) 0.20179(3)
C51? C 0.537(4) 1.121(3) 0.3052(13)
C52? C 0.5168(19) 1.115(2) 0.3641(10)
C53? C 0.6805(14) 1.014(3) 0.2866(14)
C54? C 0.7177(18) 0.885(3) 0.3209(10)
H59? H 0.5608 0.8793 0.2809
H60? H 0.5225 1.2191 0.2849
H61? H 0.5301 1.0194 0.3870
H62? H 0.4890 1.2057 0.3828
H63? H 0.7189 1.0297 0.2506
H64? H 0.6847 1.1147 0.3110
H65? H 0.6947 0.8905 0.3621
H66? H 0.7862 0.8916 0.3221
H67? H 0.6983 0.7816 0.3024
loop_
_geom_bond_atom_site_label_1
_geom_bond_atom_site_label_2
_geom_bond_site_symmetry_1
_geom_bond_site_symmetry_2
C1 H1 1_555 1_555
H2 C1 1_555 1_555
C2 C1 1_555 1_555
H3 C2 1_555 1_555
C3 C2 1_555 1_555
H4 C3 1_555 1_555
C4 C3 1_555 1_555
H5 C4 1_555 1_555
C5 C4 1_555 1_555
H6 C5 1_555 1_555
C6 C5 1_555 1_555
H7 C6 1_555 1_555
C7 C6 1_555 1_555
H8 C7 1_555 1_555
C8 C7 1_555 1_555
H9 C8 1_555 1_555
C9 C8 1_555 1_555
H10 C9 1_555 1_555
H11 C9 1_555 1_555
C10 C7 1_555 1_555
H12 C10 1_555 1_555
H13 C10 1_555 1_555
C11 C10 1_555 1_555
H14 C11 1_555 1_555
H15 C11 1_555 1_555
H16 C11 1_555 1_555
C12 C13 1_555 1_555
C13 C14 1_555 1_555
C14 H17 1_555 1_555
C15 C14 1_555 1_555
H18 C15 1_555 1_555
C16 C15 1_555 1_555
H19 C16 1_555 1_555
C17 C16 1_555 1_555
H20 C17 1_555 1_555
C18 C13 1_555 1_555
H21 C18 1_555 1_555
C19 C20 1_555 1_555
C20 C21 1_555 1_555
C21 H22 1_555 1_555
C22 C21 1_555 1_555
H23 C22 1_555 1_555
C23 C22 1_555 1_555
H24 C23 1_555 1_555
C24 C23 1_555 1_555
H25 C24 1_555 1_555
C25 C20 1_555 1_555
H26 C25 1_555 1_555
C26 H27 1_555 1_555
H28 C26 1_555 1_555
C27 C26 1_555 1_555
H29 C27 1_555 1_555
C28 C27 1_555 1_555
H30 C28 1_555 1_555
C29 C28 1_555 1_555
H31 C29 1_555 1_555
C30 C29 1_555 1_555
H32 C30 1_555 1_555
C31 C30 1_555 1_555
H33 C31 1_555 1_555
C32 C31 1_555 1_555
H34 C32 1_555 1_555
C33 C32 1_555 1_555
H35 C33 1_555 1_555
C34 C33 1_555 1_555
H36 C34 1_555 1_555
H37 C34 1_555 1_555
C35 C32 1_555 1_555
H38 C35 1_555 1_555
H39 C35 1_555 1_555
C36 C35 1_555 1_555
H40 C36 1_555 1_555
H41 C36 1_555 1_555
H42 C36 1_555 1_555
C37 C38 1_555 1_555
C38 C39 1_555 1_555
C39 H43 1_555 1_555
C40 C39 1_555 1_555
H44 C40 1_555 1_555
C41 C40 1_555 1_555
H45 C41 1_555 1_555
C42 C41 1_555 1_555
H46 C42 1_555 1_555
C43 C38 1_555 1_555
H47 C43 1_555 1_555
C44 C45 1_555 1_555
C45 C46 1_555 1_555
C46 H48 1_555 1_555
C47 C46 1_555 1_555
H49 C47 1_555 1_555
C48 C47 1_555 1_555
H50 C48 1_555 1_555
C49 C48 1_555 1_555
H51 C49 1_555 1_555
C50 C45 1_555 1_555
H52 C50 1_555 1_555
N1 C5 1_555 1_555
H53 N1 1_555 1_555
N2 C30 1_555 1_555
H54 N2 1_555 1_555
O1 S1 1_555 1_555
O2 S1 1_555 1_555
O3 C1 1_555 1_555
O4 C2 1_555 1_555
H55 O4 1_555 1_555
O5 C12 1_555 1_555
O6 C3 1_555 1_555
O7 C19 1_555 1_555
O8 C4 1_555 1_555
O9 C6 1_555 1_555
H56 O9 1_555 1_555
O10 S2 1_555 1_555
O11 S2 1_555 1_555
O12 C26 1_555 1_555
O13 C27 1_555 1_555
H57 O13 1_555 1_555
O14 C37 1_555 1_555
O15 C28 1_555 1_555
O16 C44 1_555 1_555
O17 C29 1_555 1_555
O18 C31 1_555 1_555
H58 O18 1_555 1_555
S1 N1 1_555 1_555
S2 N2 1_555 1_555
C12 O6 1_555 1_555
C17 C18 1_555 1_555
C19 O8 1_555 1_555
C24 C25 1_555 1_555
C37 O15 1_555 1_555
C42 C43 1_555 1_555
C44 O17 1_555 1_555
C49 C50 1_555 1_555
O3 S1 1_555 1_555
O12 S2 1_555 1_555

#END
