
#######################################################################
#
#                 Cambridge Crystallographic Data Centre
#                                CCDC 
#
#######################################################################
#
# If this CIF has been generated from an entry in the Cambridge 
# Structural Database, then it will include bibliographic, chemical, 
# crystal, experimental, refinement or atomic coordinate data resulting 
# from the CCDC's data processing and validation procedures.
#
#######################################################################

data_SAPNEF
_chemical_name_common            
"4',6'-dihydroxy-2', 4-dimethoxy-5'-(2"-hydroxybenzyl)dihydrochalcone"
_chemical_formula_moiety         'C24 H24 O6'
_chemical_name_systematic        
1-(2,4-dihydroxy-3-(2-hydroxybenzyl)-6-methoxyphenyl)-3-(4-methoxyphenyl)propan-1-one
_symmetry_cell_setting           monoclinic
_symmetry_space_group_name_H-M   'P c'
_symmetry_Int_Tables_number      7
_space_group_name_Hall           'P -2yc'
loop_
_symmetry_equiv_pos_site_id
_symmetry_equiv_pos_as_xyz
1 x,y,z
2 x,-y,1/2+z
_cell_length_a                   11.1360(6)
_cell_length_b                   10.2061(6)
_cell_length_c                   8.9779(4)
_cell_angle_alpha                90
_cell_angle_beta                 94.756(3)
_cell_angle_gamma                90
_cell_volume                     1016.87
_exptl_crystal_colour            colorless
_exptl_crystal_description       needle
_cell_formula_units_Z            2
loop_
_atom_site_label
_atom_site_type_symbol
_atom_site_fract_x
_atom_site_fract_y
_atom_site_fract_z
O1 O 0.43213(17) 1.25792(19) 0.1398(2)
O2 O 1.02886(14) 0.95338(15) 0.70343(19)
O3 O 0.74853(14) 0.75923(15) 0.4659(2)
O4 O 0.88031(16) 0.35762(16) 0.6754(2)
H1 H 0.9412 0.3215 0.7133
O5 O 1.06469(17) 0.20787(16) 0.7781(2)
H2 H 1.0648 0.1322 0.7474
O6 O 1.09128(14) 0.74309(15) 0.82400(18)
H3 H 1.0888 0.8224 0.8094
C1 C 0.3235(3) 1.1929(3) 0.0870(4)
H4 H 0.3425 1.1098 0.0448
H5 H 0.2804 1.2457 0.0119
H6 H 0.2744 1.1795 0.1687
C2 C 0.5029(2) 1.1988(2) 0.2530(2)
C3 C 0.4823(2) 1.0775(2) 0.3117(3)
H7 H 0.4148 1.0293 0.2770
C4 C 0.56274(19) 1.0276(2) 0.4226(2)
H8 H 0.5480 0.9454 0.4620
C5 C 0.66421(19) 1.0954(2) 0.4772(2)
C6 C 0.7545(2) 1.0354(2) 0.5924(2)
H9 H 0.7177 0.9617 0.6394
H10 H 0.7770 1.0997 0.6693
C7 C 0.8685(2) 0.9885(2) 0.5213(2)
H11 H 0.8450 0.9419 0.4293
H12 H 0.9161 1.0639 0.4968
C8 C 0.94367(18) 0.9001(2) 0.6249(2)
C9 C 0.9218(2) 0.7600(2) 0.6398(3)
C10 C 1.00165(19) 0.6850(2) 0.7400(2)
C11 C 0.99290(18) 0.5488(2) 0.7550(2)
C12 C 1.0830(2) 0.4737(2) 0.8578(2)
H13 H 1.1225 0.5342 0.9294
H14 H 1.0401 0.4098 0.9131
C13 C 1.17755(19) 0.4041(2) 0.7768(2)
C14 C 1.2805(2) 0.4691(2) 0.7387(3)
H15 H 1.2915 0.5565 0.7655
C15 C 1.3667(3) 0.4071(3) 0.6622(4)
H16 H 1.4347 0.4527 0.6379
C16 C 1.3520(3) 0.2785(3) 0.6224(3)
H17 H 1.4099 0.2369 0.5704
C17 C 0.82654(18) 0.6901(2) 0.5583(2)
C18 C 0.6529(2) 0.6901(3) 0.3801(3)
H18 H 0.6868 0.6223 0.3225
H19 H 0.6087 0.7502 0.3142
H20 H 0.5996 0.6517 0.4468
C19 C 0.8162(2) 0.5571(2) 0.5759(3)
H21 H 0.7530 0.5124 0.5241
C20 C 0.89896(19) 0.4883(2) 0.6703(2)
C21 C 1.2519(2) 0.2104(3) 0.6588(3)
H22 H 1.2421 0.1229 0.6315
C22 C 1.1661(2) 0.2726(2) 0.7361(3)
C23 C 0.6833(2) 1.2181(2) 0.4174(3)
H23 H 0.7510 1.2661 0.4515
C24 C 0.6026(2) 1.2699(2) 0.3074(3)
H24 H 0.6156 1.3532 0.2699
loop_
_geom_bond_atom_site_label_1
_geom_bond_atom_site_label_2
_geom_bond_site_symmetry_1
_geom_bond_site_symmetry_2
O1 C1 1_555 1_555
O2 C8 1_555 1_555
O3 C17 1_555 1_555
O4 H1 1_555 1_555
O5 H2 1_555 1_555
O6 H3 1_555 1_555
C1 H4 1_555 1_555
H5 C1 1_555 1_555
H6 C1 1_555 1_555
C2 O1 1_555 1_555
C3 C2 1_555 1_555
H7 C3 1_555 1_555
C4 C3 1_555 1_555
H8 C4 1_555 1_555
C5 C4 1_555 1_555
C6 C5 1_555 1_555
H9 C6 1_555 1_555
H10 C6 1_555 1_555
C7 C6 1_555 1_555
H11 C7 1_555 1_555
H12 C7 1_555 1_555
C8 C7 1_555 1_555
C9 C8 1_555 1_555
C10 O6 1_555 1_555
C11 C10 1_555 1_555
C12 C11 1_555 1_555
H13 C12 1_555 1_555
H14 C12 1_555 1_555
C13 C12 1_555 1_555
C14 C13 1_555 1_555
H15 C14 1_555 1_555
C15 C14 1_555 1_555
H16 C15 1_555 1_555
C16 C15 1_555 1_555
H17 C16 1_555 1_555
C17 C9 1_555 1_555
C18 O3 1_555 1_555
H18 C18 1_555 1_555
H19 C18 1_555 1_555
H20 C18 1_555 1_555
C19 C17 1_555 1_555
H21 C19 1_555 1_555
C20 O4 1_555 1_555
C21 C16 1_555 1_555
H22 C21 1_555 1_555
C22 O5 1_555 1_555
C23 C5 1_555 1_555
H23 C23 1_555 1_555
C24 C2 1_555 1_555
H24 C24 1_555 1_555
C9 C10 1_555 1_555
C11 C20 1_555 1_555
C13 C22 1_555 1_555
C19 C20 1_555 1_555
C21 C22 1_555 1_555
C23 C24 1_555 1_555

#END
