
#######################################################################
#
#                 Cambridge Crystallographic Data Centre
#                                CCDC 
#
#######################################################################
#
# If this CIF has been generated from an entry in the Cambridge 
# Structural Database, then it will include bibliographic, chemical, 
# crystal, experimental, refinement or atomic coordinate data resulting 
# from the CCDC's data processing and validation procedures.
#
#######################################################################

data_SAPNII
_chemical_formula_moiety         'C24 H16 N2'
_chemical_name_systematic        
3,3'-(1,4-Phenylene)bis(2-phenylacrylonitrile)
_symmetry_cell_setting           triclinic
_symmetry_space_group_name_H-M   'P -1'
_symmetry_Int_Tables_number      2
_space_group_name_Hall           '-P 1'
loop_
_symmetry_equiv_pos_site_id
_symmetry_equiv_pos_as_xyz
1 x,y,z
2 -x,-y,-z
_cell_length_a                   6.737(2)
_cell_length_b                   8.541(3)
_cell_length_c                   8.965(3)
_cell_angle_alpha                79.742(7)
_cell_angle_beta                 68.025(7)
_cell_angle_gamma                67.714(7)
_cell_volume                     442.248
_exptl_crystal_colour            colorless
_exptl_crystal_description       needle
_cell_formula_units_Z            1
loop_
_atom_site_label
_atom_site_type_symbol
_atom_site_fract_x
_atom_site_fract_y
_atom_site_fract_z
N1 N 0.1966(5) 1.2298(4) 0.3277(4)
C1 C -0.3110(6) 1.3798(4) 0.6427(4)
H1 H -0.175(4) 1.408(3) 0.589(3)
C2 C -0.4623(6) 1.4482(4) 0.7886(4)
H2 H -0.420(5) 1.522(4) 0.834(4)
C3 C -0.6619(6) 1.4189(4) 0.8584(4)
H3 H -0.778(5) 1.465(4) 0.962(4)
C4 C -0.7152(6) 1.3180(5) 0.7861(4)
H4 H -0.866(5) 1.295(4) 0.845(3)
C5 C -0.5639(5) 1.2482(4) 0.6427(4)
H5 H -0.599(5) 1.176(4) 0.590(3)
C6 C -0.3602(4) 1.2773(3) 0.5669(3)
C7 C -0.1995(4) 1.2047(3) 0.4109(3)
C8 C -0.2558(5) 1.1426(4) 0.3105(3)
H6 H -0.417(4) 1.149(3) 0.348(3)
C9 C -0.1175(4) 1.0693(3) 0.1530(3)
C10 C -0.2321(5) 1.0797(4) 0.0475(4)
H7 H -0.398(5) 1.136(3) 0.080(3)
C11 C -0.1165(5) 1.0124(4) -0.1026(4)
H8 H -0.196(5) 1.028(3) -0.179(3)
C12 C 0.0218(5) 1.2155(4) 0.3626(4)
N1A N -0.1966(5) 0.7702(4) -0.3277(4)
C1A C 0.3110(6) 0.6202(4) -0.6427(4)
H1A H 0.175(4) 0.592(3) -0.589(3)
C2A C 0.4623(6) 0.5518(4) -0.7886(4)
H2A H 0.420(5) 0.478(4) -0.834(4)
C3A C 0.6619(6) 0.5811(4) -0.8584(4)
H3A H 0.778(5) 0.535(4) -0.962(4)
C4A C 0.7152(6) 0.6820(5) -0.7861(4)
H4A H 0.866(5) 0.705(4) -0.845(3)
C5A C 0.5639(5) 0.7518(4) -0.6427(4)
H5A H 0.599(5) 0.824(4) -0.590(3)
C6A C 0.3602(4) 0.7227(3) -0.5669(3)
C7A C 0.1995(4) 0.7953(3) -0.4109(3)
C8A C 0.2558(5) 0.8574(4) -0.3105(3)
H6A H 0.417(4) 0.851(3) -0.348(3)
C9A C 0.1175(4) 0.9307(3) -0.1530(3)
C10A C 0.2321(5) 0.9203(4) -0.0475(4)
H7A H 0.398(5) 0.864(3) -0.080(3)
C11A C 0.1165(5) 0.9876(4) 0.1026(4)
H8A H 0.196(5) 0.972(3) 0.179(3)
C12A C -0.0218(5) 0.7845(4) -0.3626(4)
loop_
_geom_bond_atom_site_label_1
_geom_bond_atom_site_label_2
_geom_bond_site_symmetry_1
_geom_bond_site_symmetry_2
N1 C12 1_555 1_555
C1 H1 1_555 1_555
C2 C1 1_555 1_555
H2 C2 1_555 1_555
C3 C2 1_555 1_555
H3 C3 1_555 1_555
C4 C3 1_555 1_555
H4 C4 1_555 1_555
C5 C4 1_555 1_555
H5 C5 1_555 1_555
C6 C1 1_555 1_555
C7 C6 1_555 1_555
C8 C7 1_555 1_555
H6 C8 1_555 1_555
C9 C8 1_555 1_555
C10 C9 1_555 1_555
H7 C10 1_555 1_555
C11 C10 1_555 1_555
H8 C11 1_555 1_555
C12 C7 1_555 1_555
N1A C12A 1_555 1_555
C1A H1A 1_555 1_555
C2A C1A 1_555 1_555
H2A C2A 1_555 1_555
C3A C2A 1_555 1_555
H3A C3A 1_555 1_555
C4A C3A 1_555 1_555
H4A C4A 1_555 1_555
C5A C4A 1_555 1_555
H5A C5A 1_555 1_555
C6A C1A 1_555 1_555
C7A C6A 1_555 1_555
C8A C7A 1_555 1_555
H6A C8A 1_555 1_555
C9A C11 1_555 1_555
C10A C9A 1_555 1_555
H7A C10A 1_555 1_555
C11A C9 1_555 1_555
H8A C11A 1_555 1_555
C12A C7A 1_555 1_555
C5 C6 1_555 1_555
C5A C6A 1_555 1_555
C8A C9A 1_555 1_555
C10A C11A 1_555 1_555

#END
