
#######################################################################
#
#                 Cambridge Crystallographic Data Centre
#                                CCDC 
#
#######################################################################
#
# If this CIF has been generated from an entry in the Cambridge 
# Structural Database, then it will include bibliographic, chemical, 
# crystal, experimental, refinement or atomic coordinate data resulting 
# from the CCDC's data processing and validation procedures.
#
#######################################################################

data_SAPQEF
_chemical_formula_moiety         'C19 H26 O3'
_chemical_name_systematic        12\a,17\b-Dihydroxyandrosta-1,4-dien-3-one
_symmetry_cell_setting           orthorhombic
_symmetry_space_group_name_H-M   'P 21 21 21'
_symmetry_Int_Tables_number      19
_space_group_name_Hall           'P 2ac 2ab'
loop_
_symmetry_equiv_pos_site_id
_symmetry_equiv_pos_as_xyz
1 x,y,z
2 1/2-x,-y,1/2+z
3 1/2+x,1/2-y,-z
4 -x,1/2+y,1/2-z
_cell_length_a                   13.584(7)
_cell_length_b                   10.911(5)
_cell_length_c                   10.749(5)
_cell_angle_alpha                90
_cell_angle_beta                 90
_cell_angle_gamma                90
_cell_volume                     1593.16
_exptl_crystal_colour            white
_exptl_crystal_description       prismatic
_chemical_melting_point          215-217deg.C
_cell_formula_units_Z            4
_exptl_crystal_recrystallization_method 'ethyl acetate/methanol'
loop_
_atom_site_label
_atom_site_type_symbol
_atom_site_fract_x
_atom_site_fract_y
_atom_site_fract_z
O1 O 0.4344(2) -0.2926(2) -0.0100(3)
O2 O 0.4032(1) 0.3249(2) -0.1448(2)
O3 O 0.5535(2) 0.6094(2) -0.1964(2)
C1 C 0.4556(3) -0.0024(3) 0.1351(3)
C2 C 0.4179(3) -0.1101(3) 0.1038(3)
C3 C 0.4736(3) -0.1970(3) 0.0287(3)
C4 C 0.5752(3) -0.1654(3) 0.0024(3)
C5 C 0.6136(2) -0.0572(3) 0.0330(3)
C6 C 0.7145(2) -0.0209(3) -0.0109(4)
C7 C 0.7033(3) 0.0828(3) -0.1046(4)
C8 C 0.6448(2) 0.1908(3) -0.0521(3)
C9 C 0.5445(2) 0.1490(3) -0.0003(3)
C10 C 0.5553(3) 0.0421(3) 0.0977(3)
C11 C 0.4828(2) 0.2579(3) 0.0479(3)
C12 C 0.4702(2) 0.3604(3) -0.0486(3)
C13 C 0.5710(2) 0.4005(3) -0.0984(3)
C14 C 0.6261(2) 0.2887(3) -0.1493(3)
C15 C 0.7129(2) 0.3435(3) -0.2210(4)
C16 C 0.6721(2) 0.4628(3) -0.2744(3)
C17 C 0.5699(2) 0.4807(3) -0.2158(3)
C18 C 0.6277(3) 0.4676(3) 0.0055(3)
C19 C 0.6088(3) 0.0848(4) 0.2171(4)
H1 H 0.4154 0.0529 0.1842
H2 H 0.3527 -0.1327 0.1328
H3 H 0.6174 -0.2251 -0.0379
H4 H 0.7537 0.0075 0.0588
H5 H 0.7469 -0.0903 -0.0497
H6 H 0.6682 0.0520 -0.1767
H7 H 0.7679 0.1114 -0.1298
H8 H 0.6845 0.2221 0.0158
H9 H 0.5083 0.1167 -0.0708
H10 H 0.5159 0.2922 0.1200
H11 H 0.4185 0.2276 0.0722
H12 H 0.4392 0.4307 -0.0096
H13 H 0.5878 0.2400 -0.2072
H14 H 0.7677 0.3583 -0.1651
H15 H 0.7336 0.2891 -0.2873
H16 H 0.7144 0.5303 -0.2502
H17 H 0.6685 0.4585 -0.3644
H18 H 0.5156 0.4553 -0.2684
H19 H 0.6513 0.4135 0.0707
H20 H 0.5900 0.5339 0.0423
H21 H 0.6834 0.5013 -0.0395
H22 H 0.6712 0.1259 0.2034
H23 H 0.6190 0.0138 0.2698
H24 H 0.5633 0.1407 0.2573
loop_
_geom_bond_atom_site_label_1
_geom_bond_atom_site_label_2
_geom_bond_site_symmetry_1
_geom_bond_site_symmetry_2
O1 C3 1_555 1_555
O2 C12 1_555 1_555
O3 C17 1_555 1_555
C1 C2 1_555 1_555
C2 C3 1_555 1_555
C3 C4 1_555 1_555
C4 C5 1_555 1_555
C5 C6 1_555 1_555
C6 C7 1_555 1_555
C7 C8 1_555 1_555
C8 C9 1_555 1_555
C9 C10 1_555 1_555
C10 C1 1_555 1_555
C11 C9 1_555 1_555
C12 C11 1_555 1_555
C13 C12 1_555 1_555
C14 C8 1_555 1_555
C15 C14 1_555 1_555
C16 C15 1_555 1_555
C17 C13 1_555 1_555
C18 C13 1_555 1_555
C19 C10 1_555 1_555
H1 C1 1_555 1_555
H2 C2 1_555 1_555
H3 C4 1_555 1_555
H4 C6 1_555 1_555
H5 C6 1_555 1_555
H6 C7 1_555 1_555
H7 C7 1_555 1_555
H8 C8 1_555 1_555
H9 C9 1_555 1_555
H10 C11 1_555 1_555
H11 C11 1_555 1_555
H12 C12 1_555 1_555
H13 C14 1_555 1_555
H14 C15 1_555 1_555
H15 C15 1_555 1_555
H16 C16 1_555 1_555
H17 C16 1_555 1_555
H18 C17 1_555 1_555
H19 C18 1_555 1_555
H20 C18 1_555 1_555
H21 C18 1_555 1_555
H22 C19 1_555 1_555
H23 C19 1_555 1_555
H24 C19 1_555 1_555
C5 C10 1_555 1_555
C13 C14 1_555 1_555
C16 C17 1_555 1_555

#END
