
#######################################################################
#
#                 Cambridge Crystallographic Data Centre
#                                CCDC 
#
#######################################################################
#
# If this CIF has been generated from an entry in the Cambridge 
# Structural Database, then it will include bibliographic, chemical, 
# crystal, experimental, refinement or atomic coordinate data resulting 
# from the CCDC's data processing and validation procedures.
#
#######################################################################

data_SAPRUX
_chemical_formula_moiety         'C19 H1 Cl9 O1'
_chemical_name_systematic        
6H-1,2,4,5,7,8,9,10,11-Nonachlorobenzo(cd)pyrene-3-one
_symmetry_cell_setting           monoclinic
_symmetry_space_group_name_H-M   'C 2/c'
_symmetry_Int_Tables_number      15
_space_group_name_Hall           '-C 2yn'
loop_
_symmetry_equiv_pos_site_id
_symmetry_equiv_pos_as_xyz
1 x,y,z
2 1/2+x,1/2+y,z
3 -x,y,1/2-z
4 1/2-x,1/2+y,1/2-z
5 -x,-y,-z
6 1/2-x,1/2-y,-z
7 x,-y,1/2+z
8 1/2+x,1/2-y,1/2+z
_cell_length_a                   22.0902(16)
_cell_length_b                   7.0697(6)
_cell_length_c                   25.853(2)
_cell_angle_alpha                90
_cell_angle_beta                 113.836(2)
_cell_angle_gamma                90
_cell_volume                     3693.12
_exptl_crystal_colour            brown-red
_exptl_crystal_description       prism
_cell_formula_units_Z            8
loop_
_atom_site_label
_atom_site_type_symbol
_atom_site_fract_x
_atom_site_fract_y
_atom_site_fract_z
Cl1 Cl 0.43134(13) 0.3182(6) 0.27973(12)
Cl2 Cl 0.40074(12) 0.3132(5) 0.15699(12)
Cl3 Cl 0.30862(13) 0.5201(4) 0.05493(11)
Cl4 Cl 0.17044(13) 0.4835(4) -0.02885(10)
Cl5 Cl 0.04792(15) 0.2550(5) -0.05225(12)
Cl6 Cl -0.05754(12) 0.2105(4) -0.00913(12)
Cl7 Cl -0.02582(12) 0.2450(5) 0.11818(12)
Cl8 Cl 0.12908(14) 0.3440(5) 0.31161(11)
Cl9 Cl 0.27465(14) 0.3853(4) 0.40091(10)
O1 O 0.3720(4) 0.3773(14) 0.3544(3)
C1 C 0.3505(4) 0.3442(14) 0.2338(4)
C2 C 0.3360(4) 0.3519(14) 0.1764(4)
C3 C 0.2708(4) 0.3760(12) 0.1360(4)
C4 C 0.2520(4) 0.4180(12) 0.0770(4)
C5 C 0.1896(4) 0.4043(13) 0.0387(4)
C6 C 0.1360(4) 0.3433(13) 0.0549(4)
C7 C 0.0713(4) 0.2962(13) 0.0178(4)
C8 C 0.0209(4) 0.2650(13) 0.0378(4)
C9 C 0.0359(5) 0.2798(14) 0.0947(4)
C10 C 0.1004(4) 0.3191(13) 0.1335(4)
C11 C 0.1162(4) 0.3277(14) 0.1923(4)
H1 H 0.077(5) 0.302(16) 0.204(5)
C12 C 0.1796(5) 0.3455(13) 0.2313(4)
C13 C 0.1942(5) 0.3515(14) 0.2909(4)
C14 C 0.2568(5) 0.3668(14) 0.3301(4)
C15 C 0.3141(5) 0.3634(14) 0.3151(4)
C16 C 0.2994(4) 0.3554(13) 0.2537(4)
C17 C 0.2338(4) 0.3531(13) 0.2136(4)
C18 C 0.2181(4) 0.3603(13) 0.1545(4)
C19 C 0.1520(4) 0.3443(13) 0.1140(4)
loop_
_geom_bond_atom_site_label_1
_geom_bond_atom_site_label_2
_geom_bond_site_symmetry_1
_geom_bond_site_symmetry_2
Cl1 C1 1_555 1_555
Cl2 C2 1_555 1_555
Cl3 C4 1_555 1_555
Cl4 C5 1_555 1_555
Cl5 C7 1_555 1_555
Cl6 C8 1_555 1_555
Cl7 C9 1_555 1_555
Cl8 C13 1_555 1_555
Cl9 C14 1_555 1_555
O1 C15 1_555 1_555
C1 C2 1_555 1_555
C2 C3 1_555 1_555
C3 C4 1_555 1_555
C4 C5 1_555 1_555
C5 C6 1_555 1_555
C6 C7 1_555 1_555
C7 C8 1_555 1_555
C8 C9 1_555 1_555
C9 C10 1_555 1_555
C10 C11 1_555 1_555
C11 H1 1_555 1_555
C12 C11 1_555 1_555
C13 C12 1_555 1_555
C14 C13 1_555 1_555
C15 C14 1_555 1_555
C16 C1 1_555 1_555
C17 C12 1_555 1_555
C18 C3 1_555 1_555
C19 C6 1_555 1_555
C10 C19 1_555 1_555
C15 C16 1_555 1_555
C16 C17 1_555 1_555
C17 C18 1_555 1_555
C18 C19 1_555 1_555

#END
