
#######################################################################
#
#                 Cambridge Crystallographic Data Centre
#                                CCDC 
#
#######################################################################
#
# If this CIF has been generated from an entry in the Cambridge 
# Structural Database, then it will include bibliographic, chemical, 
# crystal, experimental, refinement or atomic coordinate data resulting 
# from the CCDC's data processing and validation procedures.
#
#######################################################################

data_SAPTAH
_chemical_formula_moiety         'C28 H26 N2 O2 S1'
_chemical_name_systematic        
3-butyl-5-[(4-methylphenyl)sulfonyl]-4-phenyl-5H-pyrido[3,2-b]indole
_symmetry_cell_setting           orthorhombic
_symmetry_space_group_name_H-M   'P 21 21 21'
_symmetry_Int_Tables_number      19
_space_group_name_Hall           'P 2ac 2ab'
loop_
_symmetry_equiv_pos_site_id
_symmetry_equiv_pos_as_xyz
1 x,y,z
2 1/2-x,-y,1/2+z
3 -x,1/2+y,1/2-z
4 1/2+x,1/2-y,-z
_cell_length_a                   10.818(3)
_cell_length_b                   14.183(4)
_cell_length_c                   15.569(4)
_cell_angle_alpha                90
_cell_angle_beta                 90
_cell_angle_gamma                90
_cell_volume                     2388.78
_exptl_crystal_colour            colorless
_exptl_crystal_description       prismatic
_cell_formula_units_Z            4
loop_
_atom_site_label
_atom_site_type_symbol
_atom_site_fract_x
_atom_site_fract_y
_atom_site_fract_z
S1 S 0.96286(8) 0.48760(5) 1.05711(5)
N1 N 0.8625(2) 0.43355(18) 0.98953(15)
N2 N 0.9226(3) 0.3188(2) 0.78856(17)
O1 O 0.8927(3) 0.55636(18) 1.10210(15)
O2 O 1.0253(3) 0.41612(16) 1.10273(14)
C1 C 0.8051(3) 0.4969(2) 0.9292(2)
C2 C 0.7395(3) 0.5778(3) 0.9453(3)
H1 H 0.7301 0.6010 1.0008
C3 C 0.6879(4) 0.6234(3) 0.8753(4)
H2 H 0.6428 0.6784 0.8842
C4 C 0.7012(4) 0.5898(3) 0.7934(3)
H3 H 0.6644 0.6220 0.7480
C5 C 0.7677(4) 0.5100(3) 0.7770(3)
H4 H 0.7764 0.4874 0.7212
C6 C 0.8222(3) 0.4630(2) 0.8462(2)
C7 C 0.8899(3) 0.3756(2) 0.85231(19)
C8 C 0.9088(3) 0.3557(2) 0.93903(18)
C9 C 0.9507(3) 0.2674(2) 0.96477(18)
C10 C 0.9884(3) 0.2077(2) 0.8976(2)
C11 C 0.9736(4) 0.2387(3) 0.8132(2)
H5 H 1.0026 0.1990 0.7701
C12 C 0.9425(3) 0.23309(18) 1.05507(18)
C13 C 1.0435(3) 0.1999(2) 1.1007(2)
H6 H 1.1218 0.2016 1.0761
C14 C 1.0283(4) 0.1642(2) 1.1828(2)
H7 H 1.0964 0.1417 1.2129
C15 C 0.9145(4) 0.1619(3) 1.2196(2)
H8 H 0.9048 0.1374 1.2747
C16 C 0.8142(4) 0.1955(2) 1.1757(2)
H9 H 0.7364 0.1945 1.2011
C17 C 0.8282(3) 0.2310(2) 1.09360(19)
H10 H 0.7596 0.2536 1.0641
C18 C 1.0276(4) 0.1067(2) 0.9117(2)
H11 H 1.0499 0.0983 0.9716
H12 H 1.1006 0.0939 0.8774
C19 C 0.9277(4) 0.0363(2) 0.8885(3)
H13 H 0.8528 0.0532 0.9191
H14 H 0.9105 0.0419 0.8275
C20 C 0.9573(4) -0.0643(2) 0.9077(3)
H15 H 1.0326 -0.0811 0.8776
H16 H 0.9734 -0.0703 0.9688
C21 C 0.8586(4) -0.1325(3) 0.8835(3)
H17 H 0.7828 -0.1153 0.9115
H18 H 0.8824 -0.1948 0.9011
H19 H 0.8471 -0.1313 0.8224
C22 C 1.0662(3) 0.5446(2) 0.9880(2)
C23 C 1.0525(4) 0.6397(2) 0.9691(2)
H20 H 0.9886 0.6743 0.9936
C24 C 1.1343(4) 0.6818(3) 0.9140(3)
H21 H 1.1250 0.7455 0.9016
C25 C 1.2296(4) 0.6327(3) 0.8766(3)
C26 C 1.2414(4) 0.5384(3) 0.8964(3)
H22 H 1.3058 0.5040 0.8723
C27 C 1.1599(3) 0.4942(2) 0.9510(2)
H23 H 1.1684 0.4302 0.9627
C28 C 1.3190(5) 0.6807(4) 0.8165(4)
H24 H 1.3292 0.7453 0.8335
H25 H 1.2874 0.6782 0.7589
H26 H 1.3975 0.6491 0.8188
loop_
_geom_bond_atom_site_label_1
_geom_bond_atom_site_label_2
_geom_bond_site_symmetry_1
_geom_bond_site_symmetry_2
S1 N1 1_555 1_555
N1 C1 1_555 1_555
N2 C7 1_555 1_555
O1 S1 1_555 1_555
O2 S1 1_555 1_555
C1 C2 1_555 1_555
C2 H1 1_555 1_555
C3 C2 1_555 1_555
H2 C3 1_555 1_555
C4 C3 1_555 1_555
H3 C4 1_555 1_555
C5 C4 1_555 1_555
H4 C5 1_555 1_555
C6 C1 1_555 1_555
C7 C6 1_555 1_555
C8 N1 1_555 1_555
C9 C8 1_555 1_555
C10 C9 1_555 1_555
C11 N2 1_555 1_555
H5 C11 1_555 1_555
C12 C9 1_555 1_555
C13 C12 1_555 1_555
H6 C13 1_555 1_555
C14 C13 1_555 1_555
H7 C14 1_555 1_555
C15 C14 1_555 1_555
H8 C15 1_555 1_555
C16 C15 1_555 1_555
H9 C16 1_555 1_555
C17 C12 1_555 1_555
H10 C17 1_555 1_555
C18 C10 1_555 1_555
H11 C18 1_555 1_555
H12 C18 1_555 1_555
C19 C18 1_555 1_555
H13 C19 1_555 1_555
H14 C19 1_555 1_555
C20 C19 1_555 1_555
H15 C20 1_555 1_555
H16 C20 1_555 1_555
C21 C20 1_555 1_555
H17 C21 1_555 1_555
H18 C21 1_555 1_555
H19 C21 1_555 1_555
C22 S1 1_555 1_555
C23 C22 1_555 1_555
H20 C23 1_555 1_555
C24 C23 1_555 1_555
H21 C24 1_555 1_555
C25 C24 1_555 1_555
C26 C25 1_555 1_555
H22 C26 1_555 1_555
C27 C22 1_555 1_555
H23 C27 1_555 1_555
C28 C25 1_555 1_555
H24 C28 1_555 1_555
H25 C28 1_555 1_555
H26 C28 1_555 1_555
C5 C6 1_555 1_555
C7 C8 1_555 1_555
C10 C11 1_555 1_555
C16 C17 1_555 1_555
C26 C27 1_555 1_555

#END
