
#######################################################################
#
#                 Cambridge Crystallographic Data Centre
#                                CCDC 
#
#######################################################################
#
# If this CIF has been generated from an entry in the Cambridge 
# Structural Database, then it will include bibliographic, chemical, 
# crystal, experimental, refinement or atomic coordinate data resulting 
# from the CCDC's data processing and validation procedures.
#
#######################################################################

data_SAPTIP
_chemical_formula_moiety         'C31 H24 N2 O2 S1'
_chemical_name_systematic        
2-methyl-5-[(4-methylphenyl)sulfonyl]-3,4-diphenyl-5H-pyrido[3,2-b]indole
_symmetry_cell_setting           orthorhombic
_symmetry_space_group_name_H-M   'P 21 21 21'
_symmetry_Int_Tables_number      19
_space_group_name_Hall           'P 2ac 2ab'
loop_
_symmetry_equiv_pos_site_id
_symmetry_equiv_pos_as_xyz
1 x,y,z
2 1/2-x,-y,1/2+z
3 -x,1/2+y,1/2-z
4 1/2+x,1/2-y,-z
_cell_length_a                   10.0999(12)
_cell_length_b                   10.3460(12)
_cell_length_c                   23.725(3)
_cell_angle_alpha                90
_cell_angle_beta                 90
_cell_angle_gamma                90
_cell_volume                     2479.11
_exptl_crystal_colour            colorless
_exptl_crystal_description       prismatic
_cell_formula_units_Z            4
loop_
_atom_site_label
_atom_site_type_symbol
_atom_site_fract_x
_atom_site_fract_y
_atom_site_fract_z
S1 S 0.53680(11) 0.55035(10) 0.88001(4)
N1 N 0.4700(3) 0.7007(3) 0.87774(14)
N2 N 0.1467(4) 0.8300(4) 0.90383(15)
O1 O 0.6682(3) 0.5678(3) 0.89852(12)
O2 O 0.5117(3) 0.4900(3) 0.82781(11)
C1 C 0.4916(4) 0.7803(4) 0.92678(16)
C2 C 0.6096(5) 0.8068(4) 0.95416(18)
H1 H 0.6887 0.7684 0.9430
C3 C 0.6047(6) 0.8925(5) 0.9987(2)
H2 H 0.6821 0.9119 1.0181
C4 C 0.4881(5) 0.9500(5) 1.01506(19)
H3 H 0.4883 1.0073 1.0452
C5 C 0.3713(5) 0.9240(5) 0.98745(18)
H4 H 0.2926 0.9634 0.9984
C6 C 0.3744(4) 0.8373(4) 0.94273(16)
C7 C 0.2733(4) 0.7947(4) 0.90382(16)
C8 C 0.3325(4) 0.7156(4) 0.86402(15)
C9 C 0.2605(4) 0.6773(4) 0.81627(16)
C10 C 0.1253(4) 0.7085(4) 0.81747(17)
C11 C 0.0727(4) 0.7816(5) 0.86206(19)
C12 C -0.0700(5) 0.8211(6) 0.8639(2)
H5 H -0.0873 0.8667 0.8983
H6 H -0.1250 0.7456 0.8620
H7 H -0.0890 0.8764 0.8324
C13 C 0.0359(5) 0.6749(4) 0.76891(19)
C14 C 0.0513(5) 0.7352(5) 0.71733(19)
H8 H 0.1207 0.7929 0.7117
C15 C -0.0368(7) 0.7094(6) 0.6741(2)
H9 H -0.0253 0.7496 0.6394
C16 C -0.1388(7) 0.6272(7) 0.6813(3)
H10 H -0.1981 0.6125 0.6520
C17 C -0.1549(6) 0.5655(6) 0.7318(3)
H11 H -0.2243 0.5076 0.7368
C18 C -0.0672(6) 0.5894(5) 0.7758(2)
H12 H -0.0783 0.5473 0.8101
C19 C 0.3235(4) 0.6227(4) 0.76501(16)
C20 C 0.4163(5) 0.6968(4) 0.73780(18)
H13 H 0.4371 0.7786 0.7515
C21 C 0.4787(6) 0.6505(5) 0.6904(2)
H14 H 0.5411 0.7016 0.6721
C22 C 0.4501(6) 0.5309(6) 0.6700(2)
H15 H 0.4927 0.5005 0.6379
C23 C 0.3589(5) 0.4556(5) 0.6967(2)
H16 H 0.3407 0.3731 0.6832
C24 C 0.2934(5) 0.5015(5) 0.74362(19)
H17 H 0.2290 0.4510 0.7610
C25 C 0.4457(4) 0.4686(4) 0.93241(17)
C26 C 0.3460(5) 0.3855(4) 0.9167(2)
H18 H 0.3242 0.3749 0.8789
C27 C 0.2792(5) 0.3187(5) 0.9577(2)
H19 H 0.2119 0.2623 0.9472
C28 C 0.3089(6) 0.3326(5) 1.0142(2)
C29 C 0.4092(5) 0.4151(5) 1.02861(19)
H20 H 0.4316 0.4245 1.0664
C30 C 0.4783(5) 0.4849(4) 0.98864(17)
H21 H 0.5453 0.5416 0.9993
C31 C 0.2322(7) 0.2610(6) 1.0589(2)
H22 H 0.2588 0.1719 1.0591
H23 H 0.1392 0.2667 1.0509
H24 H 0.2499 0.2988 1.0951
loop_
_geom_bond_atom_site_label_1
_geom_bond_atom_site_label_2
_geom_bond_site_symmetry_1
_geom_bond_site_symmetry_2
S1 N1 1_555 1_555
N1 C1 1_555 1_555
N2 C7 1_555 1_555
O1 S1 1_555 1_555
O2 S1 1_555 1_555
C1 C2 1_555 1_555
C2 H1 1_555 1_555
C3 C2 1_555 1_555
H2 C3 1_555 1_555
C4 C3 1_555 1_555
H3 C4 1_555 1_555
C5 C4 1_555 1_555
H4 C5 1_555 1_555
C6 C1 1_555 1_555
C7 C6 1_555 1_555
C8 N1 1_555 1_555
C9 C8 1_555 1_555
C10 C9 1_555 1_555
C11 N2 1_555 1_555
C12 C11 1_555 1_555
H5 C12 1_555 1_555
H6 C12 1_555 1_555
H7 C12 1_555 1_555
C13 C10 1_555 1_555
C14 C13 1_555 1_555
H8 C14 1_555 1_555
C15 C14 1_555 1_555
H9 C15 1_555 1_555
C16 C15 1_555 1_555
H10 C16 1_555 1_555
C17 C16 1_555 1_555
H11 C17 1_555 1_555
C18 C13 1_555 1_555
H12 C18 1_555 1_555
C19 C9 1_555 1_555
C20 C19 1_555 1_555
H13 C20 1_555 1_555
C21 C20 1_555 1_555
H14 C21 1_555 1_555
C22 C21 1_555 1_555
H15 C22 1_555 1_555
C23 C22 1_555 1_555
H16 C23 1_555 1_555
C24 C19 1_555 1_555
H17 C24 1_555 1_555
C25 S1 1_555 1_555
C26 C25 1_555 1_555
H18 C26 1_555 1_555
C27 C26 1_555 1_555
H19 C27 1_555 1_555
C28 C27 1_555 1_555
C29 C28 1_555 1_555
H20 C29 1_555 1_555
C30 C25 1_555 1_555
H21 C30 1_555 1_555
C31 C28 1_555 1_555
H22 C31 1_555 1_555
H23 C31 1_555 1_555
H24 C31 1_555 1_555
C5 C6 1_555 1_555
C7 C8 1_555 1_555
C10 C11 1_555 1_555
C17 C18 1_555 1_555
C23 C24 1_555 1_555
C29 C30 1_555 1_555

#END
