
#######################################################################
#
#                 Cambridge Crystallographic Data Centre
#                                CCDC 
#
#######################################################################
#
# If this CIF has been generated from an entry in the Cambridge 
# Structural Database, then it will include bibliographic, chemical, 
# crystal, experimental, refinement or atomic coordinate data resulting 
# from the CCDC's data processing and validation procedures.
#
#######################################################################

data_SAPXOZ
_chemical_name_common            beta-2,3,7,12,13,17-hexaethylporphycene
_chemical_formula_moiety         'C32 H38 N4'
_chemical_name_systematic        
4,9,10,14,19,20-hexaethyl-21,22,23,24-tetraazapentacyclo[16.2.1.1^2,5^.1^8,11^.1^12,15^]tetracosa-1(21),2,4,6,8(23),9,11,13,15,17,19-undecaene
_symmetry_cell_setting           monoclinic
_symmetry_space_group_name_H-M   'P 21/c'
_symmetry_Int_Tables_number      14
_space_group_name_Hall           '-P 2ybc'
loop_
_symmetry_equiv_pos_site_id
_symmetry_equiv_pos_as_xyz
1 x,y,z
2 -x,1/2+y,1/2-z
3 -x,-y,-z
4 x,1/2-y,1/2+z
_cell_length_a                   9.517(3)
_cell_length_b                   18.851(7)
_cell_length_c                   7.525(3)
_cell_angle_alpha                90
_cell_angle_beta                 104.876(7)
_cell_angle_gamma                90
_cell_volume                     1304.77
_exptl_crystal_colour            blue
_exptl_crystal_description       plate
_cell_formula_units_Z            2
loop_
_atom_site_label
_atom_site_type_symbol
_atom_site_fract_x
_atom_site_fract_y
_atom_site_fract_z
N1 N 0.85202(18) 1.06782(9) 0.5132(2)
N2 N 0.96753(18) 0.94501(9) 0.7042(2)
C1 C 0.8006(2) 1.04379(11) 0.6561(3)
C2 C 1.0052(2) 0.88812(11) 0.8205(3)
C3 C 1.1097(2) 0.83716(12) 0.8122(3)
H1 H 1.1183 0.8010 0.8984
C4 C 0.7747(2) 1.12756(11) 0.4454(3)
C5 C 0.8317(2) 0.94845(11) 0.9095(3)
H2 H 0.7641 0.9636 0.9713
C6 C 0.6843(2) 1.08949(11) 0.6803(3)
C7 C 0.6684(2) 1.14098(11) 0.5482(3)
C8 C 0.9179(2) 0.89011(11) 0.9523(3)
C9 C 0.8619(2) 0.98243(11) 0.7542(3)
C10 C 1.2027(2) 0.83081(12) 0.6989(3)
H3 H 1.2622 0.7910 0.7235
C11 C 0.5930(2) 1.07969(12) 0.8134(3)
H4 H 0.5468 1.1244 0.8279
H5 H 0.6554 1.0666 0.9322
C12 C 0.5548(2) 1.19831(11) 0.5054(3)
H6 H 0.5964 1.2403 0.4646
H7 H 0.5269 1.2105 0.6168
C13 C 0.9265(3) 0.83738(13) 1.1033(3)
H8 H 1.0259 0.8357 1.1786
H9 H 0.9027 0.7908 1.0491
C14 C 0.8272(3) 0.85323(15) 1.2253(3)
H10 H 0.8511 0.8988 1.2819
H11 H 0.8391 0.8175 1.3189
H12 H 0.7282 0.8535 1.1530
C15 C 0.4756(3) 1.02293(14) 0.7523(4)
H13 H 0.4131 1.0357 0.6350
H14 H 0.4195 1.0194 0.8412
H15 H 0.5207 0.9781 0.7424
C16 C 0.4196(3) 1.17673(14) 0.3580(4)
H16 H 0.4466 1.1637 0.2480
H17 H 0.3528 1.2158 0.3324
H18 H 0.3741 1.1371 0.4008
H19 H 1.035(3) 0.9502(13) 0.596(4)
N1B N 1.14798(18) 0.93218(9) 0.4868(2)
N2B N 1.03247(18) 1.05499(9) 0.2958(2)
C1B C 1.1994(2) 0.95621(11) 0.3439(3)
C2B C 0.9948(2) 1.11188(11) 0.1795(3)
C3B C 0.8903(2) 1.16284(12) 0.1878(3)
H1B H 0.8817 1.1990 0.1016
C4B C 1.2253(2) 0.87244(11) 0.5546(3)
C5B C 1.1683(2) 1.05155(11) 0.0905(3)
H2B H 1.2359 1.0364 0.0287
C6B C 1.3157(2) 0.91051(11) 0.3197(3)
C7B C 1.3316(2) 0.85902(11) 0.4518(3)
C8B C 1.0821(2) 1.10989(11) 0.0477(3)
C9B C 1.1381(2) 1.01757(11) 0.2458(3)
C10B C 0.7973(2) 1.16919(12) 0.3011(3)
H3B H 0.7378 1.2090 0.2765
C11B C 1.4070(2) 0.92031(12) 0.1866(3)
H4B H 1.4532 0.8756 0.1721
H5B H 1.3446 0.9334 0.0678
C12B C 1.4452(2) 0.80169(11) 0.4946(3)
H6B H 1.4036 0.7597 0.5354
H7B H 1.4731 0.7895 0.3832
C13B C 1.0735(3) 1.16262(13) -0.1033(3)
H8B H 0.9741 1.1643 -0.1786
H9B H 1.0973 1.2092 -0.0491
C14B C 1.1728(3) 1.14677(15) -0.2253(3)
H10B H 1.1489 1.1012 -0.2819
H11B H 1.1609 1.1825 -0.3189
H12B H 1.2718 1.1465 -0.1530
C15B C 1.5244(3) 0.97707(14) 0.2477(4)
H13B H 1.5869 0.9643 0.3650
H14B H 1.5805 0.9806 0.1588
H15B H 1.4793 1.0219 0.2576
C16B C 1.5804(3) 0.82327(14) 0.6420(4)
H16B H 1.5534 0.8363 0.7520
H17B H 1.6472 0.7842 0.6676
H18B H 1.6259 0.8629 0.5992
H19B H 0.965(3) 1.0498(13) 0.404(4)
loop_
_geom_bond_atom_site_label_1
_geom_bond_atom_site_label_2
_geom_bond_site_symmetry_1
_geom_bond_site_symmetry_2
N1 C1 1_555 1_555
N2 C2 1_555 1_555
C1 C6 1_555 1_555
C2 C3 1_555 1_555
C3 H1 1_555 1_555
C4 N1 1_555 1_555
C5 H2 1_555 1_555
C6 C7 1_555 1_555
C7 C4 1_555 1_555
C8 C2 1_555 1_555
C9 N2 1_555 1_555
C10 C3 1_555 1_555
H3 C10 1_555 1_555
C11 C6 1_555 1_555
H4 C11 1_555 1_555
H5 C11 1_555 1_555
C12 C7 1_555 1_555
H6 C12 1_555 1_555
H7 C12 1_555 1_555
C13 C8 1_555 1_555
H8 C13 1_555 1_555
H9 C13 1_555 1_555
C14 C13 1_555 1_555
H10 C14 1_555 1_555
H11 C14 1_555 1_555
H12 C14 1_555 1_555
C15 C11 1_555 1_555
H13 C15 1_555 1_555
H14 C15 1_555 1_555
H15 C15 1_555 1_555
C16 C12 1_555 1_555
H16 C16 1_555 1_555
H17 C16 1_555 1_555
H18 C16 1_555 1_555
H19 N2 1_555 1_555
N1B C1B 1_555 1_555
N2B C2B 1_555 1_555
C1B C6B 1_555 1_555
C2B C3B 1_555 1_555
C3B H1B 1_555 1_555
C4B C10 1_555 1_555
C5B H2B 1_555 1_555
C6B C7B 1_555 1_555
C7B C4B 1_555 1_555
C8B C2B 1_555 1_555
C9B N2B 1_555 1_555
C10B C4 1_555 1_555
H3B C10B 1_555 1_555
C11B C6B 1_555 1_555
H4B C11B 1_555 1_555
H5B C11B 1_555 1_555
C12B C7B 1_555 1_555
H6B C12B 1_555 1_555
H7B C12B 1_555 1_555
C13B C8B 1_555 1_555
H8B C13B 1_555 1_555
H9B C13B 1_555 1_555
C14B C13B 1_555 1_555
H10B C14B 1_555 1_555
H11B C14B 1_555 1_555
H12B C14B 1_555 1_555
C15B C11B 1_555 1_555
H13B C15B 1_555 1_555
H14B C15B 1_555 1_555
H15B C15B 1_555 1_555
C16B C12B 1_555 1_555
H16B C16B 1_555 1_555
H17B C16B 1_555 1_555
H18B C16B 1_555 1_555
H19B N2B 1_555 1_555
C1 C9 1_555 1_555
C5 C8 1_555 1_555
C5 C9 1_555 1_555
N1B C4B 1_555 1_555
C1B C9B 1_555 1_555
C3B C10B 1_555 1_555
C5B C8B 1_555 1_555
C5B C9B 1_555 1_555

#END
