
#######################################################################
#
#                 Cambridge Crystallographic Data Centre
#                                CCDC 
#
#######################################################################
#
# If this CIF has been generated from an entry in the Cambridge 
# Structural Database, then it will include bibliographic, chemical, 
# crystal, experimental, refinement or atomic coordinate data resulting 
# from the CCDC's data processing and validation procedures.
#
#######################################################################

data_SAQHEA
_chemical_name_common            
'(10S)-10-O- -D-4 -methoxymannopyranosyldiaporthin'
_chemical_formula_moiety         'C20 H26 O10'
_chemical_name_systematic        
3-(2-((3,4-dihydroxy-6-(hydroxymethyl)-5-methoxytetrahydro-2H-pyran-2-yl)oxy)propyl)-8-hydroxy-6-methoxy-1H-isochromen-1-one
_symmetry_cell_setting           orthorhombic
_symmetry_space_group_name_H-M   'P 21 21 21'
_symmetry_Int_Tables_number      19
_space_group_name_Hall           'P 2ac 2ab'
loop_
_symmetry_equiv_pos_site_id
_symmetry_equiv_pos_as_xyz
1 x,y,z
2 1/2+x,1/2-y,-z
3 -x,1/2+y,1/2-z
4 1/2-x,-y,1/2+z
_cell_length_a                   4.5852(2)
_cell_length_b                   14.6372(5)
_cell_length_c                   28.9003(10)
_cell_angle_alpha                90
_cell_angle_beta                 90
_cell_angle_gamma                90
_cell_volume                     1939.63
_exptl_crystal_colour            colorless
_exptl_crystal_description       needle
_chemical_melting_point          '163-165 deg.C'
_cell_formula_units_Z            4
loop_
_atom_site_label
_atom_site_type_symbol
_atom_site_fract_x
_atom_site_fract_y
_atom_site_fract_z
O1 O -0.7231(7) -0.12759(18) 0.10016(10)
O2 O 0.3121(6) 0.24261(18) 0.14430(8)
O3 O 0.1435(6) 0.16606(18) 0.32719(9)
O4 O 0.1843(7) 0.15194(18) 0.01644(9)
O5 O 0.2340(7) 0.04136(19) -0.03490(9)
O6 O -0.0680(8) -0.1095(2) -0.02804(11)
H1 H 0.0610 -0.0740 -0.0382
O7 O 0.2645(6) 0.43267(17) 0.27667(9)
H2 H 0.3867 0.4444 0.2559
O8 O 0.3357(6) 0.28170(17) 0.22074(9)
O9 O 0.2396(7) 0.01245(16) 0.26149(9)
H3 H 0.1095 -0.0239 0.2525
O10 O 0.5647(6) 0.10926(19) 0.19349(9)
H4 H 0.6061 0.0554 0.2010
C1 C -0.7881(11) -0.2209(3) 0.08914(16)
H5 H -0.8810 -0.2239 0.0586
H6 H -0.9207 -0.2460 0.1125
H7 H -0.6072 -0.2565 0.0888
C2 C -0.5233(10) -0.0844(3) 0.07380(14)
C3 C -0.4480(10) 0.0039(3) 0.08886(13)
H8 H -0.5405 0.0296 0.1152
C4 C -0.2390(9) 0.0531(3) 0.06511(13)
C5 C -0.1415(9) 0.1432(3) 0.07990(13)
H9 H -0.2246 0.1706 0.1066
C6 C 0.0621(9) 0.1869(3) 0.05635(13)
C7 C 0.1942(10) 0.2789(3) 0.06680(13)
H10 H 0.1056 0.3250 0.0460
H11 H 0.4056 0.2766 0.0600
C8 C 0.1520(9) 0.3093(2) 0.11675(13)
H12 H -0.0597 0.3078 0.1250
C9 C 0.1965(9) 0.2234(2) 0.18745(13)
H13 H -0.0187 0.2344 0.1874
C10 C 0.2603(9) 0.1241(3) 0.19951(12)
H14 H 0.1507 0.0836 0.1777
C11 C 0.1598(9) 0.1046(2) 0.24891(13)
H15 H -0.0578 0.1092 0.2497
C12 C 0.2830(9) 0.1733(2) 0.28359(12)
H16 H 0.4986 0.1654 0.2869
C13 C 0.2711(11) 0.0995(3) 0.35718(13)
H17 H 0.2305 0.0381 0.3452
H18 H 0.1878 0.1057 0.3883
H19 H 0.4824 0.1090 0.3586
C14 C 0.1097(9) 0.0655(3) 0.00023(13)
C15 C -0.1113(10) 0.0170(3) 0.02514(14)
C16 C -0.1913(10) -0.0728(3) 0.00983(14)
C17 C -0.3974(10) -0.1218(3) 0.03447(14)
H20 H -0.4527 -0.1812 0.0245
C18 C 0.2104(9) 0.2696(2) 0.26481(13)
H21 H -0.0061 0.2760 0.2622
C19 C 0.3260(10) 0.3436(3) 0.29620(13)
H22 H 0.2336 0.3384 0.3270
H23 H 0.5392 0.3361 0.3001
C20 C 0.2737(10) 0.4040(3) 0.12454(14)
H24 H 0.2489 0.4210 0.1571
H25 H 0.1694 0.4478 0.1049
H26 H 0.4815 0.4047 0.1167
loop_
_geom_bond_atom_site_label_1
_geom_bond_atom_site_label_2
_geom_bond_site_symmetry_1
_geom_bond_site_symmetry_2
O1 C1 1_555 1_555
O2 C8 1_555 1_555
O3 C12 1_555 1_555
O4 C6 1_555 1_555
O5 C14 1_555 1_555
O6 H1 1_555 1_555
O7 H2 1_555 1_555
O8 C9 1_555 1_555
O9 H3 1_555 1_555
O10 H4 1_555 1_555
C1 H5 1_555 1_555
H6 C1 1_555 1_555
H7 C1 1_555 1_555
C2 O1 1_555 1_555
C3 C2 1_555 1_555
H8 C3 1_555 1_555
C4 C3 1_555 1_555
C5 C4 1_555 1_555
H9 C5 1_555 1_555
C6 C5 1_555 1_555
C7 C6 1_555 1_555
H10 C7 1_555 1_555
H11 C7 1_555 1_555
C8 C7 1_555 1_555
H12 C8 1_555 1_555
C9 O2 1_555 1_555
H13 C9 1_555 1_555
C10 O10 1_555 1_555
H14 C10 1_555 1_555
C11 O9 1_555 1_555
H15 C11 1_555 1_555
C12 C11 1_555 1_555
H16 C12 1_555 1_555
C13 O3 1_555 1_555
H17 C13 1_555 1_555
H18 C13 1_555 1_555
H19 C13 1_555 1_555
C14 O4 1_555 1_555
C15 C4 1_555 1_555
C16 O6 1_555 1_555
C17 C2 1_555 1_555
H20 C17 1_555 1_555
C18 O8 1_555 1_555
H21 C18 1_555 1_555
C19 O7 1_555 1_555
H22 C19 1_555 1_555
H23 C19 1_555 1_555
C20 C8 1_555 1_555
H24 C20 1_555 1_555
H25 C20 1_555 1_555
H26 C20 1_555 1_555
C9 C10 1_555 1_555
C10 C11 1_555 1_555
C12 C18 1_555 1_555
C14 C15 1_555 1_555
C15 C16 1_555 1_555
C16 C17 1_555 1_555
C18 C19 1_555 1_555

#END
