
#######################################################################
#
#                 Cambridge Crystallographic Data Centre
#                                CCDC 
#
#######################################################################
#
# If this CIF has been generated from an entry in the Cambridge 
# Structural Database, then it will include bibliographic, chemical, 
# crystal, experimental, refinement or atomic coordinate data resulting 
# from the CCDC's data processing and validation procedures.
#
#######################################################################

data_SAQKEB
_chemical_formula_moiety         'C26 H20 Cl3 N6 O1 1+,Cl1 1-'
_chemical_name_systematic        
'(S)-1-(4-Chlorophenyl)-2-(3-cyanobenzoyl)-3-(2,4-dichloro-\a-(imidazolylmethyl)benzyl)guanidine hydrochloride'
_symmetry_cell_setting           orthorhombic
_symmetry_space_group_name_H-M   'P 21 21 21'
_symmetry_Int_Tables_number      19
_space_group_name_Hall           'P 2ac 2ab'
loop_
_symmetry_equiv_pos_site_id
_symmetry_equiv_pos_as_xyz
1 x,y,z
2 1/2-x,-y,1/2+z
3 1/2+x,1/2-y,-z
4 -x,1/2+y,1/2-z
_cell_length_a                   13.281(1)
_cell_length_b                   24.965(5)
_cell_length_c                   7.910(1)
_cell_angle_alpha                90
_cell_angle_beta                 90
_cell_angle_gamma                90
_cell_volume                     2622.64
_exptl_crystal_colour            colorless
_exptl_crystal_description       prism
_chemical_melting_point          240-243deg.C
_cell_formula_units_Z            4
_exptl_crystal_recrystallization_method acetonitrile
loop_
_atom_site_label
_atom_site_type_symbol
_atom_site_fract_x
_atom_site_fract_y
_atom_site_fract_z
Cl1 Cl 0.19467 0.14118 0.55829
Cl2 Cl -0.11279 -0.23717 0.24916
Cl3 Cl -0.25614 -0.19728 -0.36928
O1 O -0.34835 -0.02209 0.45099
N1 N -0.06095 -0.06281 0.29583
N2 N -0.22799 -0.07936 0.33815
N3 N -0.40114 -0.27743 0.07245
N4 N -0.15844 0.00457 0.41071
N5 N 0.11399 -0.11828 0.41938
N6 N 0.20626 -0.07675 0.59955
C1 C -0.04748 -0.12017 0.26280
C2 C -0.15173 -0.04555 0.34800
C3 C -0.32115 -0.06544 0.39101
C4 C -0.39576 -0.11034 0.37468
C5 C -0.37384 -0.15511 0.27650
C6 C -0.44225 -0.19696 0.26703
C7 C -0.53212 -0.19561 0.35652
C8 C -0.55437 -0.15063 0.45355
C9 C -0.48793 -0.10766 0.45981
C10 C -0.41963 -0.24213 0.15928
C11 C -0.07421 0.03777 0.44803
C12 C -0.00165 0.02044 0.56245
C13 C 0.08174 0.05214 0.59715
C14 C 0.08898 0.10169 0.51776
C15 C 0.01625 0.12058 0.41009
C16 C -0.06675 0.08830 0.37379
C17 C 0.06629 -0.13285 0.25742
C18 C 0.18115 -0.07941 0.43659
C19 C 0.15403 -0.11452 0.68797
C20 C 0.09541 -0.14170 0.57391
C21 C -0.09520 -0.14004 0.09863
C22 C -0.12878 -0.19190 0.08427
C23 C -0.17883 -0.21072 -0.05900
C24 C -0.19106 -0.17472 -0.19150
C25 C -0.15584 -0.12365 -0.18493
C26 C -0.10782 -0.10563 -0.03984
H1 H -0.08030 -0.14240 0.36660
H2 H 0.00030 -0.03460 0.27270
H3 H -0.30340 -0.15750 0.20680
H4 H -0.58630 -0.22880 0.34850
H5 H -0.62250 -0.14930 0.52870
H6 H -0.50710 -0.07180 0.53150
H7 H -0.23300 0.02020 0.43340
H8 H -0.01180 -0.01710 0.62970
H9 H 0.14080 0.03800 0.68040
H10 H 0.02410 0.15960 0.35000
H11 H -0.12480 0.10260 0.29010
H12 H 0.07620 -0.17500 0.23020
H13 H 0.10000 -0.10990 0.15400
H14 H 0.26000 -0.04790 0.65090
H15 H 0.15860 -0.12160 0.82390
H16 H 0.04330 -0.17540 0.59830
H17 H -0.20820 -0.25160 -0.06770
H18 H -0.16730 -0.09700 -0.29250
H19 H -0.07810 -0.06480 -0.03540
H20 H 0.21030 -0.05440 0.33660
Cl4 Cl 0.36646 0.00813 0.59203
loop_
_geom_bond_atom_site_label_1
_geom_bond_atom_site_label_2
_geom_bond_site_symmetry_1
_geom_bond_site_symmetry_2
Cl1 C14 1_555 1_555
Cl2 C22 1_555 1_555
Cl3 C24 1_555 1_555
O1 C3 1_555 1_555
N1 C1 1_555 1_555
N2 C2 1_555 1_555
N3 C10 1_555 1_555
N4 C2 1_555 1_555
N5 C17 1_555 1_555
N6 C18 1_555 1_555
C1 C17 1_555 1_555
C2 N1 1_555 1_555
C3 N2 1_555 1_555
C4 C3 1_555 1_555
C5 C4 1_555 1_555
C6 C5 1_555 1_555
C7 C6 1_555 1_555
C8 C7 1_555 1_555
C9 C4 1_555 1_555
C10 C6 1_555 1_555
C11 N4 1_555 1_555
C12 C11 1_555 1_555
C13 C12 1_555 1_555
C14 C13 1_555 1_555
C15 C14 1_555 1_555
C16 C11 1_555 1_555
C17 H12 1_555 1_555
C18 N5 1_555 1_555
C19 N6 1_555 1_555
C20 N5 1_555 1_555
C21 C1 1_555 1_555
C22 C21 1_555 1_555
C23 C22 1_555 1_555
C24 C23 1_555 1_555
C25 C24 1_555 1_555
C26 C21 1_555 1_555
H1 C1 1_555 1_555
H2 N1 1_555 1_555
H3 C5 1_555 1_555
H4 C7 1_555 1_555
H5 C8 1_555 1_555
H6 C9 1_555 1_555
H7 N4 1_555 1_555
H8 C12 1_555 1_555
H9 C13 1_555 1_555
H10 C15 1_555 1_555
H11 C16 1_555 1_555
H13 C17 1_555 1_555
H14 N6 1_555 1_555
H15 C19 1_555 1_555
H16 C20 1_555 1_555
H17 C23 1_555 1_555
H18 C25 1_555 1_555
H19 C26 1_555 1_555
H20 C18 1_555 1_555
C8 C9 1_555 1_555
C15 C16 1_555 1_555
C19 C20 1_555 1_555
C25 C26 1_555 1_555

#END
