
#######################################################################
#
#                 Cambridge Crystallographic Data Centre
#                                CCDC 
#
#######################################################################
#
# If this CIF has been generated from an entry in the Cambridge 
# Structural Database, then it will include bibliographic, chemical, 
# crystal, experimental, refinement or atomic coordinate data resulting 
# from the CCDC's data processing and validation procedures.
#
#######################################################################

data_SAQLUT
_chemical_formula_moiety         'C21 H17 N2 O1 1+,Br1 1-'
_chemical_name_systematic        
'1-(4-Hydroxyphenyl)-2,3-dihydroimidazo[1,2-f]phenanthridin-1-ium bromide'
_symmetry_cell_setting           monoclinic
_symmetry_space_group_name_H-M   'P 21/n'
_symmetry_Int_Tables_number      14
_space_group_name_Hall           '-P 2yn'
loop_
_symmetry_equiv_pos_site_id
_symmetry_equiv_pos_as_xyz
1 x,y,z
2 1/2-x,1/2+y,1/2-z
3 -x,-y,-z
4 1/2+x,1/2-y,1/2+z
_cell_length_a                   9.0792(3)
_cell_length_b                   13.8548(4)
_cell_length_c                   13.5655(4)
_cell_angle_alpha                90
_cell_angle_beta                 101.341(3)
_cell_angle_gamma                90
_cell_volume                     1673.09
_exptl_crystal_colour            brown
_exptl_crystal_description       needle
_cell_formula_units_Z            4
loop_
_atom_site_label
_atom_site_type_symbol
_atom_site_fract_x
_atom_site_fract_y
_atom_site_fract_z
H1 H 1.331(3) 0.4543(19) 0.987(2)
H2 H 1.391(3) 0.3823(19) 1.141(2)
H3 H 1.209(3) 0.300(2) 1.209(3)
H4 H 0.981(4) 0.291(2) 1.120(2)
H5 H 0.753(3) 0.278(2) 1.036(2)
H6 H 0.523(3) 0.280(2) 0.938(2)
H7 H 0.469(3) 0.3531(19) 0.779(2)
H8 H 0.656(3) 0.4258(18) 0.721(2)
H9 H 1.215(3) 0.5607(19) 0.851(2)
H10 H 1.269(3) 0.461(2) 0.807(2)
H11 H 1.126(3) 0.487(2) 0.658(3)
H12 H 1.077(3) 0.5989(19) 0.696(2)
H13 H 0.761(3) 0.6080(18) 0.603(2)
H14 H 0.608(3) 0.5884(18) 0.443(2)
H15 H 0.581(4) 0.381(2) 0.316(3)
H16 H 0.736(3) 0.3090(18) 0.4495(18)
H17 H 0.890(3) 0.3301(18) 0.609(2)
C1 C 1.2639(4) 0.4212(2) 1.0105(2)
C2 C 1.2997(4) 0.3807(2) 1.1056(2)
C3 C 1.1925(4) 0.3324(2) 1.1459(2)
C4 C 1.0501(4) 0.32146(19) 1.0914(2)
C5 C 1.0073(3) 0.36037(16) 0.99370(19)
C6 C 1.1179(3) 0.41116(16) 0.95535(18)
C7 C 0.8569(3) 0.35266(16) 0.93326(19)
C8 C 0.7384(3) 0.30761(19) 0.9692(2)
C9 C 0.5960(4) 0.3061(2) 0.9124(2)
C10 C 0.5631(3) 0.3497(2) 0.8186(2)
C11 C 0.6759(3) 0.39435(18) 0.7807(2)
C12 C 0.8228(3) 0.39498(16) 0.83610(19)
C13 C 0.9434(3) 0.44229(15) 0.79956(18)
C14 C 1.1840(3) 0.5044(2) 0.8098(2)
C15 C 1.0899(3) 0.5261(2) 0.7077(2)
C16 C 0.8379(3) 0.47011(17) 0.61787(18)
C17 C 0.7545(3) 0.54621(18) 0.5700(2)
C18 C 0.6643(3) 0.53227(19) 0.4762(2)
C19 C 0.6566(3) 0.44142(18) 0.43127(18)
C20 C 0.7390(3) 0.36523(18) 0.48031(19)
C21 C 0.8319(3) 0.37949(18) 0.57248(19)
N1 N 1.0788(2) 0.45161(14) 0.86011(16)
N2 N 0.9409(2) 0.48593(14) 0.71173(15)
O1 O 0.5683(2) 0.43252(16) 0.33777(15)
Br1 Br 0.17125(3) 0.253924(16) 0.726793(18)
loop_
_geom_bond_atom_site_label_1
_geom_bond_atom_site_label_2
_geom_bond_site_symmetry_1
_geom_bond_site_symmetry_2
H1 C1 1_555 1_555
H2 C2 1_555 1_555
H3 C3 1_555 1_555
H4 C4 1_555 1_555
H5 C8 1_555 1_555
H6 C9 1_555 1_555
H7 C10 1_555 1_555
H8 C11 1_555 1_555
H9 C14 1_555 1_555
H10 C14 1_555 1_555
H11 C15 1_555 1_555
H12 C15 1_555 1_555
H13 C17 1_555 1_555
H14 C18 1_555 1_555
H15 O1 1_555 1_555
H16 C20 1_555 1_555
H17 C21 1_555 1_555
C1 C2 1_555 1_555
C2 C3 1_555 1_555
C3 C4 1_555 1_555
C4 C5 1_555 1_555
C5 C6 1_555 1_555
C6 C1 1_555 1_555
C7 C5 1_555 1_555
C8 C7 1_555 1_555
C9 C8 1_555 1_555
C10 C9 1_555 1_555
C11 C10 1_555 1_555
C12 C7 1_555 1_555
C13 C12 1_555 1_555
C14 C15 1_555 1_555
C15 N2 1_555 1_555
C16 C17 1_555 1_555
C17 C18 1_555 1_555
C18 C19 1_555 1_555
C19 C20 1_555 1_555
C20 C21 1_555 1_555
C21 C16 1_555 1_555
N1 C6 1_555 1_555
N2 C13 1_555 1_555
O1 C19 1_555 1_555
C11 C12 1_555 1_555
C13 N1 1_555 1_555
C14 N1 1_555 1_555
C16 N2 1_555 1_555

#END
