
#######################################################################
#
#                 Cambridge Crystallographic Data Centre
#                                CCDC 
#
#######################################################################
#
# If this CIF has been generated from an entry in the Cambridge 
# Structural Database, then it will include bibliographic, chemical, 
# crystal, experimental, refinement or atomic coordinate data resulting 
# from the CCDC's data processing and validation procedures.
#
#######################################################################

data_SAQMUU
_chemical_name_common            
'(S)-1-(5-Methoxy-2-nitrophenyl)-2,2-dimethylpropyl (1S)-camphanate'
_chemical_formula_moiety         'C22 H29 N1 O7'
_chemical_name_systematic        
'1-(5-Methoxy-2-nitrophenyl)-2,2-dimethylpropyl 4,7,7-trimethyl-3-oxo-2-oxabicyclo[2.2.1]heptane-1-carboxylate'
_symmetry_cell_setting           orthorhombic
_symmetry_space_group_name_H-M   'P 21 21 21'
_symmetry_Int_Tables_number      19
_space_group_name_Hall           'P 2ac 2ab'
loop_
_symmetry_equiv_pos_site_id
_symmetry_equiv_pos_as_xyz
1 x,y,z
2 1/2-x,-y,1/2+z
3 -x,1/2+y,1/2-z
4 1/2+x,1/2-y,-z
_cell_length_a                   6.2856(2)
_cell_length_b                   14.9977(5)
_cell_length_c                   22.2690(9)
_cell_angle_alpha                90
_cell_angle_beta                 90
_cell_angle_gamma                90
_cell_volume                     2099.29
_exptl_crystal_colour            colorless
_exptl_crystal_description       needle
_cell_formula_units_Z            4
loop_
_atom_site_label
_atom_site_type_symbol
_atom_site_fract_x
_atom_site_fract_y
_atom_site_fract_z
O1 O 0.6334(5) 0.5336(2) 0.47159(16)
O2 O 0.5569(6) 0.4123(3) 0.5264(2)
O3 O 0.5657(6) 0.6473(2) 0.38205(17)
O4 O 0.9171(5) 0.6641(2) 0.36427(16)
O5 O 0.5760(6) 0.7952(3) 0.23609(18)
O6 O 0.5967(7) 0.7607(3) 0.14362(17)
O7 O 1.4387(6) 0.5820(3) 0.2108(2)
N1 N 0.6713(7) 0.7596(3) 0.1942(2)
C1 C 0.8210(7) 0.5612(3) 0.4369(2)
C2 C 0.6832(8) 0.4522(3) 0.4962(3)
C3 C 0.9088(8) 0.4312(3) 0.4797(3)
C4 C 1.0415(9) 0.5011(3) 0.5148(3)
H1 H 1.1956 0.4884 0.5114
H2 H 1.0011 0.5020 0.5577
C5 C 0.9845(8) 0.5910(3) 0.4837(3)
H3 H 0.9221 0.6339 0.5125
H4 H 1.1108 0.6183 0.4645
C6 C 0.9109(8) 0.4708(3) 0.4140(2)
C7 C 0.9712(9) 0.3345(3) 0.4880(3)
H5 H 0.9592 0.3185 0.5305
H6 H 1.1183 0.3260 0.4746
H7 H 0.8764 0.2966 0.4642
C8 C 1.1298(8) 0.4755(3) 0.3852(3)
H8 H 1.1204 0.5080 0.3472
H9 H 1.1823 0.4150 0.3777
H10 H 1.2280 0.5066 0.4123
C9 C 0.7577(8) 0.4237(3) 0.3717(3)
H11 H 0.7418 0.4588 0.3349
H12 H 0.6189 0.4173 0.3913
H13 H 0.8138 0.3645 0.3618
C10 C 0.7474(7) 0.6285(3) 0.3924(2)
C11 C 0.8791(7) 0.7352(3) 0.3202(2)
H14 H 0.7220 0.7433 0.3157
C12 C 0.9744(8) 0.8223(3) 0.3445(2)
C13 C 0.9463(10) 0.8966(3) 0.2979(3)
H15 H 1.0271 0.8817 0.2616
H16 H 0.9986 0.9530 0.3144
H17 H 0.7952 0.9025 0.2877
C14 C 1.2108(8) 0.8144(4) 0.3599(3)
H18 H 1.2317 0.7653 0.3884
H19 H 1.2601 0.8703 0.3780
H20 H 1.2920 0.8026 0.3232
C15 C 0.8540(9) 0.8478(4) 0.4018(3)
H21 H 0.8775 0.8022 0.4326
H22 H 0.7016 0.8522 0.3930
H23 H 0.9059 0.9055 0.4165
C16 C 0.9685(7) 0.7025(3) 0.2611(2)
C17 C 0.8762(7) 0.7149(3) 0.2040(2)
C18 C 0.9695(9) 0.6819(4) 0.1520(3)
H24 H 0.9007 0.6896 0.1143
C19 C 1.1615(7) 0.6382(4) 0.1550(3)
H25 H 1.2312 0.6185 0.1196
C20 C 1.2494(6) 0.6240(3) 0.2103(3)
C21 C 1.1658(7) 0.6545(3) 0.2596(3)
H26 H 1.2388 0.6445 0.2964
C22 C 1.5054(13) 0.5477(7) 0.2635(3)
H27 H 1.6346 0.5125 0.2569
H28 H 1.3939 0.5094 0.2803
H29 H 1.5361 0.5963 0.2916
C23? C 1.504(2) 0.5444(14) 0.1590(4)
H30? H 1.6329 0.5093 0.1663
H31? H 1.5349 0.5912 0.1295
H32? H 1.3918 0.5054 0.1434
loop_
_geom_bond_atom_site_label_1
_geom_bond_atom_site_label_2
_geom_bond_site_symmetry_1
_geom_bond_site_symmetry_2
O1 C1 1_555 1_555
O2 C2 1_555 1_555
O3 C10 1_555 1_555
O4 C10 1_555 1_555
O5 N1 1_555 1_555
O6 N1 1_555 1_555
O7 C20 1_555 1_555
N1 C17 1_555 1_555
C1 C5 1_555 1_555
C2 O1 1_555 1_555
C3 C2 1_555 1_555
C4 C3 1_555 1_555
H1 C4 1_555 1_555
H2 C4 1_555 1_555
C5 C4 1_555 1_555
H3 C5 1_555 1_555
H4 C5 1_555 1_555
C6 C1 1_555 1_555
C7 C3 1_555 1_555
H5 C7 1_555 1_555
H6 C7 1_555 1_555
H7 C7 1_555 1_555
C8 C6 1_555 1_555
H8 C8 1_555 1_555
H9 C8 1_555 1_555
H10 C8 1_555 1_555
C9 C6 1_555 1_555
H11 C9 1_555 1_555
H12 C9 1_555 1_555
H13 C9 1_555 1_555
C10 C1 1_555 1_555
C11 O4 1_555 1_555
H14 C11 1_555 1_555
C12 C11 1_555 1_555
C13 C12 1_555 1_555
H15 C13 1_555 1_555
H16 C13 1_555 1_555
H17 C13 1_555 1_555
C14 C12 1_555 1_555
H18 C14 1_555 1_555
H19 C14 1_555 1_555
H20 C14 1_555 1_555
C15 C12 1_555 1_555
H21 C15 1_555 1_555
H22 C15 1_555 1_555
H23 C15 1_555 1_555
C16 C11 1_555 1_555
C17 C16 1_555 1_555
C18 C17 1_555 1_555
H24 C18 1_555 1_555
C19 C18 1_555 1_555
H25 C19 1_555 1_555
C20 C19 1_555 1_555
C21 C16 1_555 1_555
H26 C21 1_555 1_555
C22 O7 1_555 1_555
H27 C22 1_555 1_555
H28 C22 1_555 1_555
H29 C22 1_555 1_555
C3 C6 1_555 1_555
C20 C21 1_555 1_555

#END
