
#######################################################################
#
#                 Cambridge Crystallographic Data Centre
#                                CCDC 
#
#######################################################################
#
# If this CIF has been generated from an entry in the Cambridge 
# Structural Database, then it will include bibliographic, chemical, 
# crystal, experimental, refinement or atomic coordinate data resulting 
# from the CCDC's data processing and validation procedures.
#
#######################################################################

data_SAQNON
_chemical_formula_moiety         'C42 H36 Br4 O4,3(C6 H6)'
_chemical_name_systematic        
'18,37,40,44-Tetrabromo-11,16,30,35-tetraoxaheptacyclo(34.2.2.2^17,20^.1^3,7^.1^6,10^.1^22,26^.1^25,29^)-hexatetraconta-3,5,7(46),8,10(45),17,19,22,24,26(42),27,29(41),36,38,39,43-hexadecaene tribenzene clathrate'
_symmetry_cell_setting           triclinic
_symmetry_space_group_name_H-M   'P -1'
_symmetry_Int_Tables_number      2
_space_group_name_Hall           '-P 1'
loop_
_symmetry_equiv_pos_site_id
_symmetry_equiv_pos_as_xyz
1 x,y,z
2 -x,-y,-z
_cell_length_a                   8.598(3)
_cell_length_b                   11.079(3)
_cell_length_c                   14.225(8)
_cell_angle_alpha                83.23(3)
_cell_angle_beta                 75.70(4)
_cell_angle_gamma                81.65(3)
_cell_volume                     1294.37
_exptl_crystal_colour            white
_chemical_melting_point          'above 240deg.C'
_cell_formula_units_Z            1
loop_
_atom_site_label
_atom_site_type_symbol
_atom_site_fract_x
_atom_site_fract_y
_atom_site_fract_z
Br1 Br -0.0320(1) 0.0274(1) 0.3679(1)
Br2 Br -0.4917(1) -0.3078(1) 0.4944(1)
C1 C 0.5044(5) -0.0368(5) -0.3445(3)
C2 C 0.6296(6) -0.1292(5) -0.3079(3)
C3 C 0.5730(5) -0.1873(4) -0.2056(3)
C4 C 0.4859(6) -0.2890(5) -0.1883(4)
C5 C 0.4289(6) -0.3403(4) -0.0954(4)
C6 C 0.4578(6) -0.2922(4) -0.0140(3)
C7 C 0.5497(6) -0.1929(4) -0.0307(3)
C8 C 0.6073(5) -0.1418(4) -0.1283(3)
C9 C 0.5797(6) -0.1442(4) 0.0499(3)
C10 C 0.5131(6) -0.1901(5) 0.1434(3)
C11 C 0.4192(6) -0.2871(4) 0.1594(3)
C12 C 0.3936(6) -0.3395(4) 0.0834(3)
O1 O 0.3572(4) -0.3217(3) 0.2565(2)
C13 C 0.2541(6) -0.4169(5) 0.2764(4)
C14 C 0.1945(6) -0.4384(5) 0.3856(4)
C15 C 0.0900(6) -0.3306(5) 0.4346(3)
C16 C -0.0609(6) -0.2921(5) 0.3980(3)
O2 O -0.1676(4) -0.2066(3) 0.4627(2)
C17 C -0.2755(5) -0.1301(5) 0.4208(3)
C18 C -0.4327(6) -0.1563(5) 0.4287(3)
C19 C 0.5439(6) 0.0749(5) -0.3921(3)
C20 C -0.3474(6) 0.0649(5) 0.3353(3)
C21 C -0.2390(6) -0.0177(5) 0.3742(3)
C18A C 0.4327(6) 0.1563(5) -0.4287(3)
Br2A Br 0.4917(1) 0.3078(1) -0.4944(1)
C17A C 0.2755(5) 0.1301(5) -0.4208(3)
O2A O 0.1676(4) 0.2066(3) -0.4627(2)
C16A C 0.0609(6) 0.2921(5) -0.3980(3)
C15A C -0.0900(6) 0.3306(5) -0.4346(3)
C14A C -0.1945(6) 0.4384(5) -0.3856(4)
C13A C -0.2541(6) 0.4169(5) -0.2764(4)
O1A O -0.3572(4) 0.3217(3) -0.2565(2)
C11A C -0.4192(6) 0.2871(4) -0.1594(3)
C10A C -0.5131(6) 0.1901(5) -0.1434(3)
C9A C -0.5797(6) 0.1442(4) -0.0499(3)
C7A C -0.5497(6) 0.1929(4) 0.0307(3)
C6A C -0.4578(6) 0.2922(4) 0.0140(3)
C5A C -0.4289(6) 0.3403(4) 0.0954(4)
C4A C -0.4859(6) 0.2890(5) 0.1883(4)
C3A C -0.5730(5) 0.1873(4) 0.2056(3)
C2A C -0.6296(6) 0.1292(5) 0.3079(3)
C1A C -0.5044(5) 0.0368(5) 0.3445(3)
C19A C -0.5439(6) -0.0749(5) 0.3921(3)
C8A C -0.6073(5) 0.1418(4) 0.1283(3)
C12A C -0.3936(6) 0.3395(4) -0.0834(3)
C21A C 0.2390(6) 0.0177(5) -0.3742(3)
Br1A Br 0.0320(1) -0.0274(1) -0.3679(1)
C20A C 0.3474(6) -0.0649(5) -0.3353(3)
C22 C 0.0076(11) 0.4756(8) -0.1162(6)
C23 C 0.1431(13) 0.4276(8) -0.1636(9)
C24 C 0.2257(9) 0.4811(13) -0.2517(10)
C25 C 0.1471(11) 0.6032(11) -0.2847(6)
C26 C 0.0048(9) 0.6455(7) -0.2253(6)
C27 C -0.0564(10) 0.5813(7) -0.1451(6)
loop_
_geom_bond_atom_site_label_1
_geom_bond_atom_site_label_2
_geom_bond_site_symmetry_1
_geom_bond_site_symmetry_2
Br1 C21 1_555 1_555
Br2 C18 1_555 1_555
C1 C2 1_555 1_555
C2 C3 1_555 1_555
C3 C4 1_555 1_555
C4 C5 1_555 1_555
C5 C6 1_555 1_555
C6 C7 1_555 1_555
C7 C8 1_555 1_555
C8 C3 1_555 1_555
C9 C7 1_555 1_555
C10 C9 1_555 1_555
C11 C10 1_555 1_555
C12 C6 1_555 1_555
O1 C11 1_555 1_555
C13 O1 1_555 1_555
C14 C13 1_555 1_555
C15 C14 1_555 1_555
C16 C15 1_555 1_555
O2 C16 1_555 1_555
C17 O2 1_555 1_555
C18 C17 1_555 1_555
C19 C1 1_555 1_555
C20 C21 1_555 1_555
C21 C17 1_555 1_555
C22 C23 1_555 1_555
C23 C24 1_555 1_555
C24 C25 1_555 1_555
C25 C26 1_555 1_555
C26 C27 1_555 1_555
C27 C22 1_555 1_555
C18A C19 1_555 1_555
Br2A C18A 1_555 1_555
C17A C18A 1_555 1_555
O2A C17A 1_555 1_555
C16A O2A 1_555 1_555
C15A C16A 1_555 1_555
C14A C15A 1_555 1_555
C13A C14A 1_555 1_555
O1A C13A 1_555 1_555
C11A O1A 1_555 1_555
C10A C11A 1_555 1_555
C9A C10A 1_555 1_555
C7A C9A 1_555 1_555
C6A C7A 1_555 1_555
C5A C6A 1_555 1_555
C4A C5A 1_555 1_555
C3A C4A 1_555 1_555
C2A C3A 1_555 1_555
C1A C20 1_555 1_555
C19A C18 1_555 1_555
C8A C7A 1_555 1_555
C12A C11A 1_555 1_555
C21A C17A 1_555 1_555
Br1A C21A 1_555 1_555
C20A C1 1_555 1_555
C11 C12 1_555 1_555
C6A C12A 1_555 1_555
C3A C8A 1_555 1_555
C2A C1A 1_555 1_555
C1A C19A 1_555 1_555
C21A C20A 1_555 1_555

#END
