
#######################################################################
#
#                 Cambridge Crystallographic Data Centre
#                                CCDC 
#
#######################################################################
#
# If this CIF has been generated from an entry in the Cambridge 
# Structural Database, then it will include bibliographic, chemical, 
# crystal, experimental, refinement or atomic coordinate data resulting 
# from the CCDC's data processing and validation procedures.
#
#######################################################################

data_SAQPIJ
_chemical_formula_moiety         'C46 H52 N2 O8,C1 H1 Cl3,0.5(H2 O1)'
_chemical_name_systematic        
"bis(1-Acetyl-4-(3',4'-dimethoxyphenyl)-4-(4''-methoxyphenyl)piperidine-5'-yl)acetylene chloroform solvate hemihydrate"
_symmetry_cell_setting           monoclinic
_symmetry_space_group_name_H-M   'P 21/n'
_symmetry_Int_Tables_number      14
_space_group_name_Hall           '-P 2yn'
loop_
_symmetry_equiv_pos_site_id
_symmetry_equiv_pos_as_xyz
1 x,y,z
2 1/2-x,1/2+y,1/2-z
3 -x,-y,-z
4 1/2+x,1/2-y,1/2+z
_cell_length_a                   21.469(11)
_cell_length_b                   17.281(9)
_cell_length_c                   24.760(12)
_cell_angle_alpha                90
_cell_angle_beta                 101.03(3)
_cell_angle_gamma                90
_cell_volume                     9016.41
_exptl_crystal_colour            colorless
_chemical_melting_point          222-225deg.C
_cell_formula_units_Z            8
_exptl_crystal_recrystallization_method 'chloroform diethyl ether'
loop_
_atom_site_label
_atom_site_type_symbol
_atom_site_fract_x
_atom_site_fract_y
_atom_site_fract_z
Cl1 Cl 0.3183(1) 0.6745(2) 0.1093(1)
Cl2 Cl 0.3788(2) 0.6404(2) 0.0215(1)
Cl3 Cl 0.4151(2) 0.5604(2) 0.1236(2)
C1 C 0.3525(4) 0.6017(5) 0.0777(4)
H1 H 0.3212(4) 0.5626(5) 0.0652(4)
O1 O -0.2727(2) 0.4040(2) 0.2266(2)
O2 O -0.0205(2) 0.8396(2) 0.4328(2)
N1 N -0.1629(2) 0.4880(2) 0.0135(2)
O3 O -0.2220(2) 0.5281(2) 0.2850(2)
O4 O -0.1054(2) 0.7378(2) 0.3799(2)
C2 C -0.0361(2) 0.7068(3) 0.3180(2)
C3 C -0.1017(2) 0.4065(3) 0.1156(2)
O5 O -0.2319(2) 0.4890(3) -0.0674(2)
C4 C -0.0536(3) 0.3465(3) 0.1440(2)
C5 C -0.1353(2) 0.4401(3) 0.1600(2)
C6 C 0.0199(2) 0.7206(3) 0.2991(2)
C7 C 0.0640(2) 0.7748(3) 0.3243(2)
N2 N 0.2263(2) 0.7029(3) 0.3735(2)
C8 C -0.2187(2) 0.4344(3) 0.2134(2)
O6 O 0.3145(2) 0.7046(3) 0.4385(2)
C9 C -0.0053(3) 0.8027(3) 0.3881(2)
C10 C -0.1151(3) 0.5262(3) 0.0546(2)
C11 C -0.0694(2) 0.4690(3) 0.0864(2)
C12 C -0.1925(2) 0.4980(3) 0.2453(2)
C13 C -0.0786(2) 0.6478(3) 0.2913(2)
C14 C -0.1900(2) 0.4072(3) 0.1721(2)
C15 C -0.1961(2) 0.4257(3) 0.0360(2)
C16 C -0.0491(2) 0.7481(3) 0.3625(2)
C17 C 0.1032(2) 0.8409(3) 0.2491(2)
O7 O 0.0737(3) 0.1817(3) 0.2246(2)
C18 C 0.1783(3) 0.8289(4) 0.3415(3)
C19 C -0.1835(3) 0.5143(3) -0.0380(2)
C20 C -0.0722(3) 0.2745(4) 0.1602(2)
O8 O 0.0388(3) 0.9714(3) 0.1084(2)
C21 C -0.1501(2) 0.3680(3) 0.0680(2)
C22 C -0.1082(2) 0.5960(3) 0.2663(2)
C23 C -0.3009(3) 0.3396(4) 0.1950(3)
C24 C 0.0595(3) 0.9326(4) 0.1562(3)
C25 C 0.0545(3) 0.3097(4) 0.1843(3)
C26 C 0.2060(3) 0.7792(4) 0.3897(3)
C27 C 0.0739(3) 0.9663(4) 0.2077(3)
C28 C 0.1238(2) 0.7901(3) 0.3001(2)
C29 C 0.0874(2) 0.8097(4) 0.1964(3)
C30 C 0.0664(3) 0.8545(4) 0.1510(3)
C31 C -0.2115(3) 0.4863(5) 0.3352(3)
C32 C -0.1447(3) 0.5745(4) -0.0608(3)
C33 C 0.0345(4) 0.2394(4) 0.1987(2)
C34 C 0.1774(3) 0.6625(4) 0.3343(3)
C35 C 0.1530(3) 0.7129(3) 0.2850(2)
C36 C 0.0944(3) 0.9206(4) 0.2529(3)
C37 C 0.0115(3) 0.3630(3) 0.1573(2)
C38 C -0.0294(4) 0.2217(4) 0.1865(3)
C39 C 0.0502(3) 0.8153(3) 0.3684(2)
C40 C -0.1046(4) 0.6861(5) 0.4229(3)
C41 C 0.2932(4) 0.5896(5) 0.3881(3)
C42 C 0.2790(3) 0.6701(5) 0.4021(3)
C43 C 0.0228(5) 1.0468(6) 0.1110(4)
C44 C 0.0248(3) 0.8904(5) 0.4635(3)
C45 C -0.1093(2) 0.5028(3) 0.1920(2)
C46 C -0.1375(2) 0.5316(3) 0.2342(2)
C47 C 0.1386(5) 0.1968(6) 0.2365(4)
H2 H 0.0282(2) 0.6922(3) 0.2679(2)
H3 H -0.1352(3) 0.5546(3) 0.0799(2)
H4 H -0.0923(3) 0.5622(3) 0.0361(2)
H5 H -0.0470(2) 0.4440(3) 0.0612(2)
H6 H -0.0387(2) 0.4956(3) 0.1134(2)
H7 H -0.2079(2) 0.3629(3) 0.1515(2)
H8 H -0.2239(2) 0.4003(3) 0.0063(2)
H9 H -0.2215(2) 0.4474(3) 0.0602(2)
H10 H 0.2120(3) 0.8418(4) 0.3226(3)
H11 H 0.1624(3) 0.8761(4) 0.3541(3)
H12 H -0.1167(3) 0.2624(4) 0.1519(2)
H13 H -0.1731(2) 0.3286(3) 0.0832(2)
H14 H -0.1271(2) 0.3437(3) 0.0430(2)
H15 H -0.3381(3) 0.3230(4) 0.2081(3)
H16 H -0.3124(3) 0.3542(4) 0.1570(3)
H17 H -0.2708(3) 0.2979(4) 0.1987(3)
H18 H 0.0991(3) 0.3215(4) 0.1927(3)
H19 H 0.2414(3) 0.8044(4) 0.4124(3)
H20 H 0.1738(3) 0.7716(4) 0.4113(3)
H21 H 0.0684(3) 1.0210(4) 0.2115(3)
H22 H 0.0914(2) 0.7547(4) 0.1925(3)
H23 H 0.0562(3) 0.8310(4) 0.1153(3)
H24 H -0.2337(3) 0.5107(5) 0.3608(3)
H25 H -0.2267(3) 0.4343(5) 0.3283(3)
H26 H -0.1669(3) 0.4854(5) 0.3504(3)
H27 H -0.1651(3) 0.5875(4) -0.0976(3)
H28 H -0.1411(3) 0.6199(4) -0.0381(3)
H29 H -0.1031(3) 0.5542(4) -0.0612(3)
H30 H 0.1426(3) 0.6494(4) 0.3519(3)
H31 H 0.1951(3) 0.6154(4) 0.3233(3)
H32 H 0.1878(3) 0.7238(3) 0.2670(2)
H33 H 0.1214(3) 0.6852(3) 0.2596(2)
H34 H 0.1041(3) 0.9436(4) 0.2888(3)
H35 H 0.0261(3) 0.4124(3) 0.1471(2)
H36 H -0.0437(4) 0.1722(4) 0.1967(3)
H37 H 0.0795(3) 0.8540(3) 0.3854(2)
H38 H -0.1460(4) 0.6828(5) 0.4321(3)
H39 H -0.0925(4) 0.6362(5) 0.4114(3)
H40 H -0.0745(4) 0.7029(5) 0.4545(3)
H41 H 0.3320(4) 0.5726(5) 0.4109(3)
H42 H 0.2591(4) 0.5566(5) 0.3937(3)
H43 H 0.2973(4) 0.5874(5) 0.3502(3)
H44 H 0.0090(5) 1.0659(6) 0.0743(4)
H45 H -0.0107(5) 1.0526(6) 0.1313(4)
H46 H 0.0593(5) 1.0755(6) 0.1288(4)
H47 H 0.0078(3) 0.9124(5) 0.4932(3)
H48 H 0.0630(3) 0.8624(5) 0.4781(3)
H49 H 0.0343(3) 0.9310(5) 0.4398(3)
H50 H -0.0713(2) 0.5266(3) 0.1849(2)
H51 H 0.1621(5) 0.1535(6) 0.2542(4)
H52 H 0.1520(5) 0.2076(6) 0.2024(4)
H53 H 0.1463(5) 0.2413(6) 0.2601(4)
Cl4 Cl 0.1301(2) 0.8957(4) 0.0097(2)
C48 C 0.1941(5) 0.8841(6) -0.0216(4)
Cl5 Cl 0.2435(2) 0.9610(2) -0.0064(2)
Cl6 Cl 0.2381(2) 0.8013(2) 0.0023(2)
H54 H 0.1799(5) 0.8808(6) -0.0608(4)
O9 O 0.7784(3) 0.1726(4) 0.1567(3)
O10 O -0.0061(2) 0.2808(2) 0.0084(1)
O11 O -0.0747(2) 0.3736(2) -0.0659(1)
O12 O -0.1829(2) 0.5250(3) -0.2046(2)
C49 C -0.0044(2) 0.3495(3) -0.1285(2)
C50 C -0.0406(2) 0.4005(3) -0.1686(2)
C51 C -0.0417(2) 0.5777(3) -0.3753(2)
C52 C -0.0226(2) 0.3371(3) -0.0785(2)
O13 O 0.3427(2) 0.4554(3) -0.0557(2)
N3 N 0.0418(2) 0.7070(3) -0.3279(2)
C53 C -0.0807(2) 0.5601(3) -0.3306(2)
C54 C -0.0587(2) 0.5112(3) -0.2872(2)
O14 O -0.2339(2) 0.6113(3) -0.2926(2)
C55 C -0.1409(2) 0.5917(3) -0.3338(2)
C56 C 0.0688(2) 0.2542(3) -0.0519(2)
O15 O 0.1361(2) -0.0536(3) -0.1439(2)
C57 C -0.0619(2) 0.5191(3) -0.4221(2)
C58 C 0.1481(2) 0.2293(3) -0.1162(2)
C59 C -0.0676(2) 0.4441(3) -0.2025(2)
O16 O 0.0666(2) 0.8322(3) -0.3341(2)
C60 C -0.0944(2) 0.4951(3) -0.2468(2)
C61 C 0.0149(2) 0.2890(3) -0.0400(2)
C62 C 0.0868(2) 0.2654(3) -0.1025(2)
C63 C -0.1526(2) 0.5306(3) -0.2489(2)
C64 C 0.2003(2) 0.2907(3) -0.1023(2)
C65 C 0.0908(3) 0.1400(3) -0.1919(2)
C66 C 0.0250(3) 0.2271(4) 0.0465(2)
C67 C 0.1212(3) 0.0888(3) -0.0986(2)
N4 N 0.1106(2) 0.0723(3) -0.1577(2)
C68 C 0.1383(2) 0.2050(3) -0.1774(2)
C69 C -0.1763(2) 0.5781(4) -0.2938(2)
C70 C -0.0501(3) 0.6619(3) -0.3952(2)
C71 C 0.2255(3) 0.3294(3) -0.1415(2)
C72 C 0.2241(3) 0.3107(3) -0.0473(2)
C73 C 0.0499(2) 0.3137(3) -0.1402(2)
C74 C 0.0827(3) 0.7671(4) -0.3192(3)
C75 C 0.0550(3) 0.6287(3) -0.3076(2)
C76 C 0.2960(3) 0.4028(3) -0.0736(3)
C77 C -0.0250(3) 0.7214(3) -0.3508(3)
C78 C 0.2733(3) 0.3848(3) -0.1282(3)
C79 C 0.1674(3) 0.1540(3) -0.0832(2)
C80 C 0.2702(3) 0.3659(4) -0.0333(2)
O17 O -0.1209(3) 0.3632(3) -0.5500(2)
C81 C 0.0307(2) 0.5696(3) -0.3519(2)
C82 C -0.2632(3) 0.6533(6) -0.3394(3)
C83 C -0.0997(4) 0.4098(4) -0.5060(3)
C84 C -0.0874(5) 0.5410(4) -0.4744(3)
C85 C 0.1183(3) 0.0004(4) -0.1758(3)
C86 C -0.0728(4) 0.3876(4) -0.4551(3)
C87 C 0.1487(3) 0.7510(4) -0.2892(3)
C88 C -0.1186(5) 0.2853(5) -0.5428(4)
C89 C 0.1050(4) -0.0135(4) -0.2372(3)
C90 C -0.1060(5) 0.4863(5) -0.5153(3)
C91 C -0.2348(3) 0.4759(5) -0.2108(3)
C92 C -0.0534(3) 0.4424(4) -0.4140(3)
C93 C 0.3736(4) 0.4891(5) -0.0958(3)
C94 C -0.1324(3) 0.3342(4) -0.0846(3)
H55 H -0.0179(2) 0.4874(3) -0.2846(2)
H56 H -0.1580(2) 0.6246(3) -0.3643(2)
H57 H 0.0944(2) 0.2220(3) -0.0248(2)
H58 H 0.0501(3) 0.1572(3) -0.1860(2)
H59 H 0.0868(3) 0.1262(3) -0.2299(2)
H60 H 0.0060(3) 0.2264(4) 0.0785(2)
H61 H 0.0218(3) 0.1766(4) 0.0300(2)
H62 H 0.0690(3) 0.2412(4) 0.0569(2)
H63 H 0.1368(3) 0.0430(3) -0.0785(2)
H64 H 0.0813(3) 0.1025(3) -0.0887(2)
H65 H 0.1784(2) 0.1884(3) -0.1851(2)
H66 H 0.1246(2) 0.2493(3) -0.1999(2)
H67 H -0.0943(3) 0.6709(3) -0.4098(2)
H68 H -0.0271(3) 0.6692(3) -0.4244(2)
H69 H 0.2097(3) 0.3165(3) -0.1793(2)
H70 H 0.2071(3) 0.2844(3) -0.0192(2)
H71 H 0.0618(2) 0.3228(3) -0.1751(2)
H72 H 0.0348(3) 0.6196(3) -0.2768(2)
H73 H 0.1000(3) 0.6230(3) -0.2953(2)
H74 H -0.0302(3) 0.7730(3) -0.3653(3)
H75 H -0.0493(3) 0.7165(3) -0.3223(3)
H76 H 0.2900(3) 0.4108(3) -0.1566(3)
H77 H 0.1716(3) 0.1655(3) -0.0448(2)
H78 H 0.2082(3) 0.1379(3) -0.0896(2)
H79 H 0.2841(3) 0.3801(4) 0.0046(2)
H80 H 0.0532(2) 0.5765(3) -0.3816(2)
H81 H 0.0390(2) 0.5182(3) -0.3377(2)
H82 H -0.3034(3) 0.6738(6) -0.3346(3)
H83 H -0.2360(3) 0.6949(6) -0.3460(3)
H84 H -0.2697(3) 0.6185(6) -0.3703(3)
H85 H -0.0945(5) 0.5951(4) -0.4817(3)
H86 H -0.0659(4) 0.3336(4) -0.4470(3)
H87 H 0.1733(3) 0.7978(4) -0.2857(3)
H88 H 0.1478(3) 0.7305(4) -0.2534(3)
H89 H 0.1675(3) 0.7138(4) -0.3100(3)
H90 H -0.1354(5) 0.2594(5) -0.5768(4)
H91 H -0.0748(5) 0.2712(5) -0.5309(4)
H92 H -0.1422(5) 0.2702(5) -0.5153(4)
H93 H 0.1120(4) -0.0672(4) -0.2440(3)
H94 H 0.0618(4) -0.0004(4) -0.2526(3)
H95 H 0.1330(4) 0.0177(4) -0.2541(3)
H96 H -0.1220(5) 0.5033(5) -0.5523(3)
H97 H -0.2529(3) 0.4759(5) -0.1782(3)
H98 H -0.2661(3) 0.4928(5) -0.2416(3)
H99 H -0.2212(3) 0.4244(5) -0.2176(3)
H100 H -0.0338(3) 0.4254(4) -0.3778(3)
H101 H 0.4053(4) 0.5251(5) -0.0786(3)
H102 H 0.3933(4) 0.4487(5) -0.1132(3)
H103 H 0.3430(4) 0.5156(5) -0.1229(3)
H104 H -0.1669(3) 0.3628(4) -0.0748(3)
H105 H -0.1393(3) 0.3282(4) -0.1238(3)
H106 H -0.1300(3) 0.2841(4) -0.0675(3)
loop_
_geom_bond_atom_site_label_1
_geom_bond_atom_site_label_2
_geom_bond_site_symmetry_1
_geom_bond_site_symmetry_2
Cl1 C1 1_555 1_555
Cl2 C1 1_555 1_555
Cl3 C1 1_555 1_555
C1 H1 1_555 1_555
O1 C8 1_555 1_555
O2 C9 1_555 1_555
N1 C10 1_555 1_555
O3 C12 1_555 1_555
O4 C16 1_555 1_555
C2 C6 1_555 1_555
C3 C4 1_555 1_555
O5 C19 1_555 1_555
C4 C20 1_555 1_555
C5 C3 1_555 1_555
C6 C7 1_555 1_555
C7 C28 1_555 1_555
N2 C26 1_555 1_555
C8 C12 1_555 1_555
O6 C42 1_555 1_555
C9 C16 1_555 1_555
C10 C11 1_555 1_555
C11 C3 1_555 1_555
C12 C46 1_555 1_555
C13 C2 1_555 1_555
C14 C5 1_555 1_555
C15 N1 1_555 1_555
C16 C2 1_555 1_555
C17 C28 1_555 1_555
O7 C33 1_555 1_555
C18 C26 1_555 1_555
C19 N1 1_555 1_555
C20 C38 1_555 1_555
O8 C24 1_555 1_555
C21 C3 1_555 1_555
C22 C13 1_555 1_555
C23 O1 1_555 1_555
C24 C27 1_555 1_555
C25 C33 1_555 1_555
C26 H19 1_555 1_555
C27 C36 1_555 1_555
C28 C18 1_555 1_555
C29 C17 1_555 1_555
C30 C24 1_555 1_555
C31 O3 1_555 1_555
C32 C19 1_555 1_555
C33 C38 1_555 1_555
C34 N2 1_555 1_555
C35 C28 1_555 1_555
C36 C17 1_555 1_555
C37 C4 1_555 1_555
C38 H36 1_555 1_555
C39 C7 1_555 1_555
C40 O4 1_555 1_555
C41 C42 1_555 1_555
C42 N2 1_555 1_555
C43 O8 1_555 1_555
C44 O2 1_555 1_555
Cl4 C48 1_555 1_555
C45 C5 1_555 1_555
C46 C22 1_555 1_555
C47 O7 1_555 1_555
C48 Cl5 1_555 1_555
Cl6 C48 1_555 1_555
O10 C61 1_555 1_555
O11 C52 1_555 1_555
O12 C63 1_555 1_555
C49 C50 1_555 1_555
C50 C59 1_555 1_555
C51 C53 1_555 1_555
C52 C49 1_555 1_555
O13 C76 1_555 1_555
N3 C74 1_555 1_555
C53 C54 1_555 1_555
C54 C60 1_555 1_555
O14 C69 1_555 1_555
C55 C53 1_555 1_555
C56 C61 1_555 1_555
O15 C85 1_555 1_555
C57 C51 1_555 1_555
C58 C62 1_555 1_555
C59 C60 1_555 1_555
O16 C74 1_555 1_555
C60 C63 1_555 1_555
C61 C52 1_555 1_555
C62 C56 1_555 1_555
C63 C69 1_555 1_555
C64 C58 1_555 1_555
C65 N4 1_555 1_555
C66 O10 1_555 1_555
C67 N4 1_555 1_555
N4 C85 1_555 1_555
C68 C58 1_555 1_555
C69 C55 1_555 1_555
C70 C51 1_555 1_555
C71 C64 1_555 1_555
C72 C64 1_555 1_555
C73 C49 1_555 1_555
C74 C87 1_555 1_555
C75 N3 1_555 1_555
C76 C78 1_555 1_555
C77 N3 1_555 1_555
C78 C71 1_555 1_555
C79 C58 1_555 1_555
C80 C72 1_555 1_555
O17 C83 1_555 1_555
C81 C51 1_555 1_555
C82 O14 1_555 1_555
C83 C86 1_555 1_555
C84 C57 1_555 1_555
C85 C89 1_555 1_555
C86 C92 1_555 1_555
C87 H87 1_555 1_555
C88 O17 1_555 1_555
C89 H93 1_555 1_555
C90 C83 1_555 1_555
C91 O12 1_555 1_555
C92 C57 1_555 1_555
C93 O13 1_555 1_555
C94 O11 1_555 1_555
H2 C6 1_555 1_555
H3 C10 1_555 1_555
H4 C10 1_555 1_555
H5 C11 1_555 1_555
H6 C11 1_555 1_555
H7 C14 1_555 1_555
H8 C15 1_555 1_555
H9 C15 1_555 1_555
H10 C18 1_555 1_555
H11 C18 1_555 1_555
H12 C20 1_555 1_555
H13 C21 1_555 1_555
H14 C21 1_555 1_555
H15 C23 1_555 1_555
H16 C23 1_555 1_555
H17 C23 1_555 1_555
H18 C25 1_555 1_555
H20 C26 1_555 1_555
H21 C27 1_555 1_555
H22 C29 1_555 1_555
H23 C30 1_555 1_555
H24 C31 1_555 1_555
H25 C31 1_555 1_555
H26 C31 1_555 1_555
H27 C32 1_555 1_555
H28 C32 1_555 1_555
H29 C32 1_555 1_555
H30 C34 1_555 1_555
H31 C34 1_555 1_555
H32 C35 1_555 1_555
H33 C35 1_555 1_555
H34 C36 1_555 1_555
H35 C37 1_555 1_555
H37 C39 1_555 1_555
H38 C40 1_555 1_555
H39 C40 1_555 1_555
H40 C40 1_555 1_555
H41 C41 1_555 1_555
H42 C41 1_555 1_555
H43 C41 1_555 1_555
H44 C43 1_555 1_555
H45 C43 1_555 1_555
H46 C43 1_555 1_555
H47 C44 1_555 1_555
H48 C44 1_555 1_555
H49 C44 1_555 1_555
H50 C45 1_555 1_555
H51 C47 1_555 1_555
H52 C47 1_555 1_555
H53 C47 1_555 1_555
H54 C48 1_555 1_555
H55 C54 1_555 1_555
H56 C55 1_555 1_555
H57 C56 1_555 1_555
H58 C65 1_555 1_555
H59 C65 1_555 1_555
H60 C66 1_555 1_555
H61 C66 1_555 1_555
H62 C66 1_555 1_555
H63 C67 1_555 1_555
H64 C67 1_555 1_555
H65 C68 1_555 1_555
H66 C68 1_555 1_555
H67 C70 1_555 1_555
H68 C70 1_555 1_555
H69 C71 1_555 1_555
H70 C72 1_555 1_555
H71 C73 1_555 1_555
H72 C75 1_555 1_555
H73 C75 1_555 1_555
H74 C77 1_555 1_555
H75 C77 1_555 1_555
H76 C78 1_555 1_555
H77 C79 1_555 1_555
H78 C79 1_555 1_555
H79 C80 1_555 1_555
H80 C81 1_555 1_555
H81 C81 1_555 1_555
H82 C82 1_555 1_555
H83 C82 1_555 1_555
H84 C82 1_555 1_555
H85 C84 1_555 1_555
H86 C86 1_555 1_555
H88 C87 1_555 1_555
H89 C87 1_555 1_555
H90 C88 1_555 1_555
H91 C88 1_555 1_555
H92 C88 1_555 1_555
H94 C89 1_555 1_555
H95 C89 1_555 1_555
H96 C90 1_555 1_555
H97 C91 1_555 1_555
H98 C91 1_555 1_555
H99 C91 1_555 1_555
H100 C92 1_555 1_555
H101 C93 1_555 1_555
H102 C93 1_555 1_555
H103 C93 1_555 1_555
H104 C94 1_555 1_555
H105 C94 1_555 1_555
H106 C94 1_555 1_555
C8 C14 1_555 1_555
C9 C39 1_555 1_555
C15 C21 1_555 1_555
C25 C37 1_555 1_555
C29 C30 1_555 1_555
C34 C35 1_555 1_555
C45 C46 1_555 1_555
C62 C73 1_555 1_555
C65 C68 1_555 1_555
C67 C79 1_555 1_555
C70 C77 1_555 1_555
C75 C81 1_555 1_555
C76 C80 1_555 1_555
C84 C90 1_555 1_555

#END
