
#######################################################################
#
#                 Cambridge Crystallographic Data Centre
#                                CCDC 
#
#######################################################################
#
# If this CIF has been generated from an entry in the Cambridge 
# Structural Database, then it will include bibliographic, chemical, 
# crystal, experimental, refinement or atomic coordinate data resulting 
# from the CCDC's data processing and validation procedures.
#
#######################################################################

data_SAQSUA
_chemical_formula_moiety         'C32 H30 N2 O4'
_chemical_name_systematic        
5,5-Dimethyl-2-((4-methylphenyl)(2-(4-nitrobenzyl)isoquinolinium-4-yl)methyl)-1,3-dioxocyclohexan-2-ide
_symmetry_cell_setting           triclinic
_symmetry_space_group_name_H-M   'P -1'
_symmetry_Int_Tables_number      2
_space_group_name_Hall           '-P 1'
loop_
_symmetry_equiv_pos_site_id
_symmetry_equiv_pos_as_xyz
1 x,y,z
2 -x,-y,-z
_cell_length_a                   9.822(3)
_cell_length_b                   12.203(4)
_cell_length_c                   12.763(4)
_cell_angle_alpha                86.613(4)
_cell_angle_beta                 76.168(4)
_cell_angle_gamma                84.075(4)
_cell_volume                     1476.51
_cell_formula_units_Z            2
loop_
_atom_site_label
_atom_site_type_symbol
_atom_site_fract_x
_atom_site_fract_y
_atom_site_fract_z
C1 C 0.7952(7) 0.1326(6) 0.5416(5)
C2 C 0.7156(7) 0.1851(6) 0.4712(5)
H1 H 0.6220 0.1718 0.4797
C3 C 0.7763(8) 0.2546(7) 0.3915(6)
H2 H 0.7219 0.2896 0.3467
C4 C 0.9141(9) 0.2758(6) 0.3737(7)
H3 H 0.9519 0.3240 0.3176
C5 C 0.9958(8) 0.2259(6) 0.4386(6)
H4 H 1.0897 0.2398 0.4263
C6 C 0.9383(7) 0.1528(6) 0.5247(5)
C7 C 1.0183(7) 0.1019(6) 0.5917(6)
H5 H 1.1121 0.1155 0.5809
C8 C 1.0492(7) -0.0156(6) 0.7463(6)
H6 H 1.0140 -0.0848 0.7766
H7 H 1.1459 -0.0314 0.7062
C9 C 1.0462(6) 0.0584(6) 0.8356(5)
C10 C 0.9385(7) 0.1415(6) 0.8692(6)
H8 H 0.8614 0.1503 0.8380
C11 C 0.9464(9) 0.2109(7) 0.9494(6)
H9 H 0.8768 0.2681 0.9709
C12 C 1.0596(8) 0.1933(6) 0.9966(6)
C13 C 1.1608(8) 0.1142(7) 0.9676(6)
H10 H 1.2345 0.1040 1.0024
C14 C 1.1583(7) 0.0466(6) 0.8864(5)
H11 H 1.2319 -0.0077 0.8648
C15 C 0.8259(6) 0.0105(6) 0.6904(5)
H12 H 0.7922 -0.0400 0.7456
C16 C 0.7365(6) 0.0609(5) 0.6291(5)
C17 C 0.5840(6) 0.0388(5) 0.6545(5)
H13 H 0.5643 0.0217 0.5858
C18 C 0.5524(6) -0.0616(5) 0.7289(5)
C19 C 0.5612(7) -0.1638(6) 0.6848(6)
H14 H 0.5859 -0.1690 0.6101
C20 C 0.5344(9) -0.2588(7) 0.7488(7)
H15 H 0.5422 -0.3262 0.7165
C21 C 0.4958(8) -0.2539(7) 0.8608(7)
C22 C 0.4877(8) -0.1533(7) 0.9039(6)
H16 H 0.4642 -0.1483 0.9787
C23 C 0.5132(7) -0.0586(6) 0.8407(5)
H17 H 0.5039 0.0086 0.8737
C24 C 0.4646(11) -0.3611(8) 0.9305(8)
H18 H 0.5373 -0.4186 0.9047
H19 H 0.3753 -0.3830 0.9254
H20 H 0.4619 -0.3480 1.0044
C25 C 0.4884(6) 0.1441(5) 0.6930(5)
C26 C 0.3659(6) 0.1648(6) 0.6544(5)
C27 C 0.2691(7) 0.2684(6) 0.6846(6)
H21 H 0.1916 0.2498 0.7437
H22 H 0.2298 0.2933 0.6235
C28 C 0.3359(7) 0.3634(6) 0.7178(6)
C29 C 0.4237(8) 0.3188(6) 0.7961(6)
H23 H 0.3606 0.3019 0.8648
H24 H 0.4791 0.3763 0.8076
C30 C 0.5226(7) 0.2166(6) 0.7614(5)
C31 C 0.4311(9) 0.4148(7) 0.6183(7)
H25 H 0.4761 0.4730 0.6400
H26 H 0.3757 0.4442 0.5689
H27 H 0.5015 0.3595 0.5837
C32 C 0.2232(9) 0.4521(7) 0.7712(7)
H28 H 0.1583 0.4193 0.8302
H29 H 0.1734 0.4848 0.7192
H30 H 0.2672 0.5079 0.7977
N1 N 0.9630(5) 0.0340(5) 0.6712(5)
N2 N 1.0672(9) 0.2670(7) 1.0817(6)
O1 O 0.9812(11) 0.3455(7) 1.1016(6)
O2 O 1.1529(8) 0.2462(7) 1.1335(6)
O3 O 0.6295(5) 0.2008(4) 0.8009(4)
O4 O 0.3317(5) 0.1001(4) 0.5927(4)
loop_
_geom_bond_atom_site_label_1
_geom_bond_atom_site_label_2
_geom_bond_site_symmetry_1
_geom_bond_site_symmetry_2
C1 C2 1_555 1_555
C2 H1 1_555 1_555
C3 C2 1_555 1_555
H2 C3 1_555 1_555
C4 C3 1_555 1_555
H3 C4 1_555 1_555
C5 C4 1_555 1_555
H4 C5 1_555 1_555
C6 C1 1_555 1_555
C7 C6 1_555 1_555
H5 C7 1_555 1_555
C8 H6 1_555 1_555
H7 C8 1_555 1_555
C9 C8 1_555 1_555
C10 C9 1_555 1_555
H8 C10 1_555 1_555
C11 C10 1_555 1_555
H9 C11 1_555 1_555
C12 C11 1_555 1_555
C13 C12 1_555 1_555
H10 C13 1_555 1_555
C14 C9 1_555 1_555
H11 C14 1_555 1_555
C15 H12 1_555 1_555
C16 C1 1_555 1_555
C17 C16 1_555 1_555
H13 C17 1_555 1_555
C18 C17 1_555 1_555
C19 C18 1_555 1_555
H14 C19 1_555 1_555
C20 C19 1_555 1_555
H15 C20 1_555 1_555
C21 C20 1_555 1_555
C22 C21 1_555 1_555
H16 C22 1_555 1_555
C23 C18 1_555 1_555
H17 C23 1_555 1_555
C24 C21 1_555 1_555
H18 C24 1_555 1_555
H19 C24 1_555 1_555
H20 C24 1_555 1_555
C25 C17 1_555 1_555
C26 C25 1_555 1_555
C27 C26 1_555 1_555
H21 C27 1_555 1_555
H22 C27 1_555 1_555
C28 C27 1_555 1_555
C29 C28 1_555 1_555
H23 C29 1_555 1_555
H24 C29 1_555 1_555
C30 C25 1_555 1_555
C31 C28 1_555 1_555
H25 C31 1_555 1_555
H26 C31 1_555 1_555
H27 C31 1_555 1_555
C32 C28 1_555 1_555
H28 C32 1_555 1_555
H29 C32 1_555 1_555
H30 C32 1_555 1_555
N1 C7 1_555 1_555
N2 C12 1_555 1_555
O1 N2 1_555 1_555
O2 N2 1_555 1_555
O3 C30 1_555 1_555
O4 C26 1_555 1_555
C5 C6 1_555 1_555
C8 N1 1_555 1_555
C13 C14 1_555 1_555
C15 C16 1_555 1_555
C15 N1 1_555 1_555
C22 C23 1_555 1_555
C29 C30 1_555 1_555

#END
