
#######################################################################
#
#                 Cambridge Crystallographic Data Centre
#                                CCDC 
#
#######################################################################
#
# If this CIF has been generated from an entry in the Cambridge 
# Structural Database, then it will include bibliographic, chemical, 
# crystal, experimental, refinement or atomic coordinate data resulting 
# from the CCDC's data processing and validation procedures.
#
#######################################################################

data_SAQTAH
_chemical_formula_moiety         'C29 H23 Cl1 N2 O6'
_chemical_name_systematic        
5-((4-Chlorophenyl)(2-(4-nitrobenzyl)isoquinolinium-4-yl)methyl)-2,2-dimethyl-4,6-dioxo-1,3-dioxan-5-ide
_symmetry_cell_setting           monoclinic
_symmetry_space_group_name_H-M   'P 21/c'
_symmetry_Int_Tables_number      14
_space_group_name_Hall           '-P 2ybc'
loop_
_symmetry_equiv_pos_site_id
_symmetry_equiv_pos_as_xyz
1 x,y,z
2 -x,1/2+y,1/2-z
3 -x,-y,-z
4 x,1/2-y,1/2+z
_cell_length_a                   14.6580(19)
_cell_length_b                   10.0334(13)
_cell_length_c                   22.667(3)
_cell_angle_alpha                90
_cell_angle_beta                 94.465(2)
_cell_angle_gamma                90
_cell_volume                     3323.51
_exptl_crystal_colour            yellow
_cell_formula_units_Z            4
loop_
_atom_site_label
_atom_site_type_symbol
_atom_site_fract_x
_atom_site_fract_y
_atom_site_fract_z
C1 C 0.02992(16) 0.5494(2) 0.92173(9)
H1 H 0.0169 0.6386 0.9137
C2 C -0.04030(14) 0.4548(2) 0.91543(9)
C3 C -0.13135(16) 0.4934(2) 0.89638(11)
H2 H -0.1447 0.5824 0.8881
C4 C -0.19829(17) 0.4008(3) 0.89027(11)
H3 H -0.2578 0.4258 0.8777
C5 C -0.17756(15) 0.2659(3) 0.90304(10)
H4 H -0.2243 0.2031 0.8990
C6 C -0.09170(15) 0.2250(2) 0.92096(9)
H5 H -0.0805 0.1354 0.9292
C7 C -0.01873(13) 0.31865(18) 0.92726(8)
C8 C 0.07374(13) 0.28378(18) 0.94444(8)
C9 C 0.13717(14) 0.38299(19) 0.95125(9)
H6 H 0.1971 0.3620 0.9645
C10 C 0.10093(14) 0.13813(18) 0.95457(8)
H7 H 0.0550 0.1008 0.9791
C11 C 0.19223(14) 0.12144(18) 0.99059(9)
C12 C 0.27322(15) 0.0991(2) 0.96490(10)
H8 H 0.2726 0.0947 0.9239
C13 C 0.35546(17) 0.0832(3) 0.99862(12)
H9 H 0.4091 0.0673 0.9804
C14 C 0.35720(17) 0.0911(2) 1.05935(12)
C15 C 0.27735(18) 0.1129(3) 1.08684(11)
H10 H 0.2784 0.1174 1.1279
C16 C 0.19568(16) 0.1279(2) 1.05211(9)
H11 H 0.1419 0.1425 1.0704
C17 C 0.09145(14) 0.05975(18) 0.89699(8)
C18 C 0.06172(14) -0.07318(18) 0.90059(9)
C19 C 0.03910(16) -0.0744(2) 0.79486(9)
C20 C -0.05752(18) -0.0192(3) 0.78821(13)
H12 H -0.0688 0.0201 0.7497
H13 H -0.0645 0.0473 0.8180
H14 H -0.1004 -0.0900 0.7927
C21 C 0.0590(2) -0.1697(3) 0.74650(11)
H15 H 0.0583 -0.1226 0.7096
H16 H 0.0132 -0.2383 0.7436
H17 H 0.1181 -0.2092 0.7554
C22 C 0.11962(15) 0.1101(2) 0.84372(9)
C23 C 0.18801(15) 0.6162(2) 0.94400(10)
H18 H 0.2349 0.5887 0.9741
H19 H 0.1624 0.6996 0.9568
C24 C 0.23108(15) 0.6390(2) 0.88721(10)
C25 C 0.23271(16) 0.5433(2) 0.84261(10)
H20 H 0.2059 0.4605 0.8478
C26 C 0.27341(17) 0.5693(3) 0.79093(11)
H21 H 0.2735 0.5058 0.7611
C27 C 0.31387(17) 0.6920(3) 0.78473(12)
C28 C 0.31485(18) 0.7884(3) 0.82813(13)
H22 H 0.3430 0.8702 0.8230
C29 C 0.27335(17) 0.7611(2) 0.87904(11)
H23 H 0.2735 0.8254 0.9086
Cl1 Cl 0.46105(5) 0.07597(10) 1.10173(4)
N1 N 0.35554(17) 0.7218(3) 0.72898(13)
N2 N 0.11445(12) 0.51336(16) 0.93894(7)
O1 O 0.05242(10) -0.14674(13) 0.84888(6)
O2 O 0.10479(11) 0.03081(14) 0.79359(6)
O3 O 0.15894(12) 0.21680(15) 0.83586(7)
O4 O 0.04601(11) -0.13469(14) 0.94580(6)
O5 O 0.3537(2) 0.6380(3) 0.69042(11)
O6 O 0.3909(2) 0.8300(3) 0.72315(13)
loop_
_geom_bond_atom_site_label_1
_geom_bond_atom_site_label_2
_geom_bond_site_symmetry_1
_geom_bond_site_symmetry_2
C1 H1 1_555 1_555
C2 C1 1_555 1_555
C3 C2 1_555 1_555
H2 C3 1_555 1_555
C4 C3 1_555 1_555
H3 C4 1_555 1_555
C5 C4 1_555 1_555
H4 C5 1_555 1_555
C6 C5 1_555 1_555
H5 C6 1_555 1_555
C7 C2 1_555 1_555
C8 C7 1_555 1_555
C9 C8 1_555 1_555
H6 C9 1_555 1_555
C10 C8 1_555 1_555
H7 C10 1_555 1_555
C11 C10 1_555 1_555
C12 C11 1_555 1_555
H8 C12 1_555 1_555
C13 C12 1_555 1_555
H9 C13 1_555 1_555
C14 C13 1_555 1_555
C15 C14 1_555 1_555
H10 C15 1_555 1_555
C16 C11 1_555 1_555
H11 C16 1_555 1_555
C17 C10 1_555 1_555
C18 C17 1_555 1_555
C19 C20 1_555 1_555
C20 H12 1_555 1_555
H13 C20 1_555 1_555
H14 C20 1_555 1_555
C21 C19 1_555 1_555
H15 C21 1_555 1_555
H16 C21 1_555 1_555
H17 C21 1_555 1_555
C22 C17 1_555 1_555
C23 H18 1_555 1_555
H19 C23 1_555 1_555
C24 C23 1_555 1_555
C25 C24 1_555 1_555
H20 C25 1_555 1_555
C26 C25 1_555 1_555
H21 C26 1_555 1_555
C27 C26 1_555 1_555
C28 C27 1_555 1_555
H22 C28 1_555 1_555
C29 C24 1_555 1_555
H23 C29 1_555 1_555
Cl1 C14 1_555 1_555
N1 C27 1_555 1_555
N2 C1 1_555 1_555
O1 C18 1_555 1_555
O2 C19 1_555 1_555
O3 C22 1_555 1_555
O4 C18 1_555 1_555
O5 N1 1_555 1_555
O6 N1 1_555 1_555
C6 C7 1_555 1_555
C9 N2 1_555 1_555
C15 C16 1_555 1_555
C19 O1 1_555 1_555
C22 O2 1_555 1_555
C23 N2 1_555 1_555
C28 C29 1_555 1_555

#END
