
#######################################################################
#
#                 Cambridge Crystallographic Data Centre
#                                CCDC 
#
#######################################################################
#
# If this CIF has been generated from an entry in the Cambridge 
# Structural Database, then it will include bibliographic, chemical, 
# crystal, experimental, refinement or atomic coordinate data resulting 
# from the CCDC's data processing and validation procedures.
#
#######################################################################

data_SAQYAM
_chemical_formula_moiety         'C72 H84 N12,12(H2 O1)'
_chemical_name_systematic        
'5,12,20,27,35,42,50,57,62,69,74,81-Dodecaazatridecacyclo[29.29.10.10^16,46^.1^3,59^.1^14,18^.1^29,33^.1^44,48^.0^6,11^.0^21,26^.0^36,41^.0^51,56^.0^63,68^.0^75,80^]tetraoctaconta-1,3(71),4,12,14(84),15,17,19,27,29(83),30,32,34,42,44(72),45,47,49,57,59,61,69,73,81-tetracosaene dodecahydrate'
_symmetry_cell_setting           cubic
_symmetry_space_group_name_H-M   'F 41 3 2'
_symmetry_Int_Tables_number      210
_space_group_name_Hall           'F 4d 2 3'
loop_
_symmetry_equiv_pos_site_id
_symmetry_equiv_pos_as_xyz
1 x,y,z
2 -x,1/2-y,1/2+z
3 1/2-x,1/2+y,-z
4 1/2+x,-y,1/2-z
5 z,x,y
6 1/2+z,-x,1/2-y
7 -z,1/2-x,1/2+y
8 1/2-z,1/2+x,-y
9 y,z,x
10 1/2-y,1/2+z,-x
11 1/2+y,-z,1/2-x
12 -y,1/2-z,1/2+x
13 3/4+y,1/4+x,3/4-z
14 1/4-y,1/4-x,1/4-z
15 1/4+y,3/4-x,3/4+z
16 3/4-y,3/4+x,1/4+z
17 3/4+x,1/4+z,3/4-y
18 3/4-x,3/4+z,1/4+y
19 1/4-x,1/4-z,1/4-y
20 1/4+x,3/4-z,3/4+y
21 3/4+z,1/4+y,3/4-x
22 1/4+z,3/4-y,3/4+x
23 3/4-z,3/4+y,1/4+x
24 1/4-z,1/4-y,1/4-x
25 x,1/2+y,1/2+z
26 -x,-y,z
27 1/2-x,y,1/2-z
28 1/2+x,1/2-y,-z
29 z,1/2+x,1/2+y
30 1/2+z,1/2-x,-y
31 -z,-x,y
32 1/2-z,x,1/2-y
33 y,1/2+z,1/2+x
34 1/2-y,z,1/2-x
35 1/2+y,1/2-z,-x
36 -y,-z,x
37 3/4+y,3/4+x,1/4-z
38 1/4-y,3/4-x,3/4-z
39 1/4+y,1/4-x,1/4+z
40 3/4-y,1/4+x,3/4+z
41 3/4+x,3/4+z,1/4-y
42 3/4-x,1/4+z,3/4+y
43 1/4-x,3/4-z,3/4-y
44 1/4+x,1/4-z,1/4+y
45 3/4+z,3/4+y,1/4-x
46 1/4+z,1/4-y,1/4+x
47 3/4-z,1/4+y,3/4+x
48 1/4-z,3/4-y,3/4-x
49 1/2+x,y,1/2+z
50 1/2-x,1/2-y,z
51 -x,1/2+y,1/2-z
52 x,-y,-z
53 1/2+z,x,1/2+y
54 z,-x,-y
55 1/2-z,1/2-x,y
56 -z,1/2+x,1/2-y
57 1/2+y,z,1/2+x
58 -y,1/2+z,1/2-x
59 y,-z,-x
60 1/2-y,1/2-z,x
61 1/4+y,1/4+x,1/4-z
62 3/4-y,1/4-x,3/4-z
63 3/4+y,3/4-x,1/4+z
64 1/4-y,3/4+x,3/4+z
65 1/4+x,1/4+z,1/4-y
66 1/4-x,3/4+z,3/4+y
67 3/4-x,1/4-z,3/4-y
68 3/4+x,3/4-z,1/4+y
69 1/4+z,1/4+y,1/4-x
70 3/4+z,3/4-y,1/4+x
71 1/4-z,3/4+y,3/4+x
72 3/4-z,1/4-y,3/4-x
73 1/2+x,1/2+y,z
74 1/2-x,-y,1/2+z
75 -x,y,-z
76 x,1/2-y,1/2-z
77 1/2+z,1/2+x,y
78 z,1/2-x,1/2-y
79 1/2-z,-x,1/2+y
80 -z,x,-y
81 1/2+y,1/2+z,x
82 -y,z,-x
83 y,1/2-z,1/2-x
84 1/2-y,-z,1/2+x
85 1/4+y,3/4+x,3/4-z
86 3/4-y,3/4-x,1/4-z
87 3/4+y,1/4-x,3/4+z
88 1/4-y,1/4+x,1/4+z
89 1/4+x,3/4+z,3/4-y
90 1/4-x,1/4+z,1/4+y
91 3/4-x,3/4-z,1/4-y
92 3/4+x,1/4-z,3/4+y
93 1/4+z,3/4+y,3/4-x
94 3/4+z,1/4-y,3/4+x
95 1/4-z,1/4+y,1/4+x
96 3/4-z,3/4-y,1/4-x
_cell_length_a                   25.1381(7)
_cell_length_b                   25.1381(7)
_cell_length_c                   25.1381(7)
_cell_angle_alpha                90
_cell_angle_beta                 90
_cell_angle_gamma                90
_cell_volume                     15885.4
_exptl_crystal_colour            colorless
_exptl_crystal_description       block
_cell_formula_units_Z            8
loop_
_atom_site_label
_atom_site_type_symbol
_atom_site_fract_x
_atom_site_fract_y
_atom_site_fract_z
N1 N 0.29549(16) 0.28497(19) 0.47089(16)
C1 C 0.3053(2) 0.3790(2) 0.3621(2)
H1 H 0.2762 0.3998 0.3715
C2 C 0.3179(2) 0.3347(2) 0.39304(19)
C3 C 0.2843(2) 0.3221(2) 0.4390(2)
H2 H 0.2538 0.3422 0.4449
C4 C 0.26155(19) 0.2779(2) 0.51731(17)
H3 H 0.2322 0.3035 0.5153
C5 C 0.2924(3) 0.2881(4) 0.5673(2)
H4 H 0.3037 0.3250 0.5678
H5 H 0.3240 0.2661 0.5674
C6 C 0.2604(5) 0.2768(3) 0.6170(2)
H6 H 0.2828 0.2818 0.6480
H7 H 0.2311 0.3018 0.6193
N1D N 0.47089(16) 0.29549(16) 0.28497(19)
N1YB N 0.47089(16) 0.20451(16) 0.21503(19)
N1DC N 0.28497(19) 0.02911(16) 0.20451(16)
N1GB N 0.21503(19) 0.02911(16) 0.29549(16)
N1WA N 0.20451(16) 0.21503(19) 0.47089(16)
N1BB N 0.02911(16) 0.20451(16) 0.28497(19)
N1EA N 0.02911(16) 0.29549(16) 0.21503(19)
N1GA N 0.21503(19) 0.47089(16) 0.20451(16)
N1H N 0.28497(19) 0.47089(16) 0.29549(16)
N1Z N 0.20451(16) 0.28497(19) 0.02911(16)
N1WB N 0.29549(16) 0.21503(19) 0.02911(16)
C1H C 0.3790(2) 0.3621(2) 0.3053(2)
C1D C 0.3621(2) 0.3053(2) 0.3790(2)
C1YB C 0.3621(2) 0.1947(2) 0.1210(2)
C1WB C 0.3053(2) 0.1210(2) 0.1379(2)
C1DC C 0.3790(2) 0.1379(2) 0.1947(2)
C1GB C 0.1210(2) 0.1379(2) 0.3053(2)
C1BB C 0.1379(2) 0.1947(2) 0.3790(2)
C1WA C 0.1947(2) 0.1210(2) 0.3621(2)
C1EA C 0.1379(2) 0.3053(2) 0.1210(2)
C1Z C 0.1947(2) 0.3790(2) 0.1379(2)
C1GA C 0.1210(2) 0.3621(2) 0.1947(2)
H1H H 0.3998 0.3715 0.2762
H1D H 0.3715 0.2762 0.3998
H1YB H 0.3715 0.2238 0.1002
H1WB H 0.2762 0.1002 0.1285
H1DC H 0.3998 0.1285 0.2238
H1GB H 0.1002 0.1285 0.2762
H1BB H 0.1285 0.2238 0.3998
H1WA H 0.2238 0.1002 0.3715
H1EA H 0.1285 0.2762 0.1002
H1Z H 0.2238 0.3998 0.1285
H1GA H 0.1002 0.3715 0.2238
C2H C 0.3347(2) 0.39304(19) 0.3179(2)
C2D C 0.39304(19) 0.3179(2) 0.3347(2)
C2YB C 0.39304(19) 0.1821(2) 0.1653(2)
C2WB C 0.3179(2) 0.1653(2) 0.10696(19)
C2DC C 0.3347(2) 0.10696(19) 0.1821(2)
C2GB C 0.1653(2) 0.10696(19) 0.3179(2)
C2BB C 0.10696(19) 0.1821(2) 0.3347(2)
C2WA C 0.1821(2) 0.1653(2) 0.39304(19)
C2EA C 0.10696(19) 0.3179(2) 0.1653(2)
C2Z C 0.1821(2) 0.3347(2) 0.10696(19)
C2GA C 0.1653(2) 0.39304(19) 0.1821(2)
C3D C 0.4390(2) 0.2843(2) 0.3221(2)
C3YB C 0.4390(2) 0.2157(2) 0.1779(2)
C3DC C 0.3221(2) 0.0610(2) 0.2157(2)
C3GB C 0.1779(2) 0.0610(2) 0.2843(2)
C3WA C 0.2157(2) 0.1779(2) 0.4390(2)
C3BB C 0.0610(2) 0.2157(2) 0.3221(2)
C3EA C 0.0610(2) 0.2843(2) 0.1779(2)
C3GA C 0.1779(2) 0.4390(2) 0.2157(2)
C3H C 0.3221(2) 0.4390(2) 0.2843(2)
C3Z C 0.2157(2) 0.3221(2) 0.0610(2)
C3WB C 0.2843(2) 0.1779(2) 0.0610(2)
H2WA H 0.2462 0.1578 0.4449
H2H H 0.3422 0.4449 0.2538
H2GA H 0.1578 0.4449 0.2462
H2WB H 0.2538 0.1578 0.0551
H2Z H 0.2462 0.3422 0.0551
H2EA H 0.0551 0.2538 0.1578
H2BB H 0.0551 0.2462 0.3422
H2GB H 0.1578 0.0551 0.2538
H2DC H 0.3422 0.0551 0.2462
H2YB H 0.4449 0.2462 0.1578
H2D H 0.4449 0.2538 0.3422
C4D C 0.51731(17) 0.26155(19) 0.2779(2)
C4YB C 0.51731(17) 0.23845(19) 0.2221(2)
C4DC C 0.2779(2) -0.01731(17) 0.23845(19)
C4GB C 0.2221(2) -0.01731(17) 0.26155(19)
C4WA C 0.23845(19) 0.2221(2) 0.51731(17)
C4BB C -0.01731(17) 0.23845(19) 0.2779(2)
C4EA C -0.01731(17) 0.26155(19) 0.2221(2)
C4GA C 0.2221(2) 0.51731(17) 0.23845(19)
C4H C 0.2779(2) 0.51731(17) 0.26155(19)
C4Z C 0.23845(19) 0.2779(2) -0.01731(17)
C4WB C 0.26155(19) 0.2221(2) -0.01731(17)
H3WA H 0.2678 0.1965 0.5153
H3H H 0.3035 0.5153 0.2322
H3GA H 0.1965 0.5153 0.2678
H3WB H 0.2322 0.1965 -0.0153
H3Z H 0.2678 0.3035 -0.0153
H3EA H -0.0153 0.2322 0.1965
H3BB H -0.0153 0.2678 0.3035
H3GB H 0.1965 -0.0153 0.2322
H3DC H 0.3035 -0.0153 0.2678
H3YB H 0.5153 0.2678 0.1965
H3D H 0.5153 0.2322 0.3035
C5WA C 0.2076(3) 0.2119(4) 0.5673(2)
C5H C 0.2881(4) 0.5673(2) 0.2924(3)
C5GA C 0.2119(4) 0.5673(2) 0.2076(3)
C5WB C 0.2924(3) 0.2119(4) -0.0673(2)
C5Z C 0.2076(3) 0.2881(4) -0.0673(2)
C5EA C -0.0673(2) 0.2924(3) 0.2119(4)
C5BB C -0.0673(2) 0.2076(3) 0.2881(4)
C5GB C 0.2119(4) -0.0673(2) 0.2924(3)
C5DC C 0.2881(4) -0.0673(2) 0.2076(3)
C5YB C 0.5673(2) 0.2076(3) 0.2119(4)
C5D C 0.5673(2) 0.2924(3) 0.2881(4)
H4WA H 0.1963 0.1750 0.5678
H4H H 0.3250 0.5678 0.3037
H4GA H 0.1750 0.5678 0.1963
H4WB H 0.3037 0.1750 -0.0678
H4Z H 0.1963 0.3250 -0.0678
H4EA H -0.0678 0.3037 0.1750
H4BB H -0.0678 0.1963 0.3250
H4GB H 0.1750 -0.0678 0.3037
H4DC H 0.3250 -0.0678 0.1963
H4YB H 0.5678 0.1963 0.1750
H4D H 0.5678 0.3037 0.3250
H5WA H 0.1760 0.2339 0.5674
H5H H 0.2661 0.5674 0.3240
H5GA H 0.2339 0.5674 0.1760
H5WB H 0.3240 0.2339 -0.0674
H5Z H 0.1760 0.2661 -0.0674
H5EA H -0.0674 0.3240 0.2339
H5BB H -0.0674 0.1760 0.2661
H5GB H 0.2339 -0.0674 0.3240
H5DC H 0.2661 -0.0674 0.1760
H5YB H 0.5674 0.1760 0.2339
H5D H 0.5674 0.3240 0.2661
C6WA C 0.2396(5) 0.2232(3) 0.6170(2)
C6H C 0.2768(3) 0.6170(2) 0.2604(5)
C6GA C 0.2232(3) 0.6170(2) 0.2396(5)
C6WB C 0.2604(5) 0.2232(3) -0.1170(2)
C6Z C 0.2396(5) 0.2768(3) -0.1170(2)
C6EA C -0.1170(2) 0.2604(5) 0.2232(3)
C6BB C -0.1170(2) 0.2396(5) 0.2768(3)
C6GB C 0.2232(3) -0.1170(2) 0.2604(5)
C6DC C 0.2768(3) -0.1170(2) 0.2396(5)
C6YB C 0.6170(2) 0.2396(5) 0.2232(3)
C6D C 0.6170(2) 0.2604(5) 0.2768(3)
H6WA H 0.2172 0.2182 0.6480
H6GA H 0.2182 0.6480 0.2172
H6H H 0.2818 0.6480 0.2828
H6Z H 0.2172 0.2818 -0.1480
H6WB H 0.2828 0.2182 -0.1480
H6BB H -0.1480 0.2172 0.2818
H6EA H -0.1480 0.2828 0.2182
H6DC H 0.2818 -0.1480 0.2172
H6GB H 0.2182 -0.1480 0.2828
H6D H 0.6480 0.2828 0.2818
H6YB H 0.6480 0.2172 0.2182
H7WA H 0.2689 0.1982 0.6193
H7GA H 0.1982 0.6193 0.2689
H7H H 0.3018 0.6193 0.2311
H7Z H 0.2689 0.3018 -0.1193
H7WB H 0.2311 0.1982 -0.1193
H7BB H -0.1193 0.2689 0.3018
H7EA H -0.1193 0.2311 0.1982
H7DC H 0.3018 -0.1193 0.2689
H7GB H 0.1982 -0.1193 0.2311
H7D H 0.6193 0.2311 0.3018
H7YB H 0.6193 0.2689 0.1982
O1 O 0.3750 0.2982(4) 0.0482(4)
O2 O 0.2982(9) 0.2982(9) 0.2018(9)
O3? O 0.3551(7) 0.3551(7) 0.1449(7)
loop_
_geom_bond_atom_site_label_1
_geom_bond_atom_site_label_2
_geom_bond_site_symmetry_1
_geom_bond_site_symmetry_2
N1 C3 1_555 1_555
C1 H1 1_555 1_555
C2 C1 1_555 1_555
C3 C2 1_555 1_555
H2 C3 1_555 1_555
C4 N1 1_555 1_555
H3 C4 1_555 1_555
C5 C4 1_555 1_555
H4 C5 1_555 1_555
H5 C5 1_555 1_555
C6 C5 1_555 1_555
H6 C6 1_555 1_555
H7 C6 1_555 1_555
N1D C3D 1_555 1_555
N1YB C3YB 1_555 1_555
N1DC C3DC 1_555 1_555
N1GB C3GB 1_555 1_555
N1WA C3WA 1_555 1_555
N1BB C3BB 1_555 1_555
N1EA C3EA 1_555 1_555
N1GA C3GA 1_555 1_555
N1H C3H 1_555 1_555
N1Z C3Z 1_555 1_555
N1WB C3WB 1_555 1_555
C1H H1H 1_555 1_555
C1D C2 1_555 1_555
C1YB H1YB 1_555 1_555
C1WB H1WB 1_555 1_555
C1DC H1DC 1_555 1_555
C1GB H1GB 1_555 1_555
C1BB H1BB 1_555 1_555
C1WA H1WA 1_555 1_555
C1EA H1EA 1_555 1_555
C1Z H1Z 1_555 1_555
C1GA H1GA 1_555 1_555
H1D C1D 1_555 1_555
C2H C1 1_555 1_555
C2D C1H 1_555 1_555
C2YB C1YB 1_555 1_555
C2WB C1YB 1_555 1_555
C2DC C1WB 1_555 1_555
C2GB C1GB 1_555 1_555
C2BB C1GB 1_555 1_555
C2WA C1BB 1_555 1_555
C2EA C1EA 1_555 1_555
C2Z C1EA 1_555 1_555
C2GA C1Z 1_555 1_555
C3D C2D 1_555 1_555
C3YB C2YB 1_555 1_555
C3DC C2DC 1_555 1_555
C3GB C2GB 1_555 1_555
C3WA C2WA 1_555 1_555
C3BB C2BB 1_555 1_555
C3EA C2EA 1_555 1_555
C3GA C2GA 1_555 1_555
C3H C2H 1_555 1_555
C3Z C2Z 1_555 1_555
C3WB C2WB 1_555 1_555
H2WA C3WA 1_555 1_555
H2H C3H 1_555 1_555
H2GA C3GA 1_555 1_555
H2WB C3WB 1_555 1_555
H2Z C3Z 1_555 1_555
H2EA C3EA 1_555 1_555
H2BB C3BB 1_555 1_555
H2GB C3GB 1_555 1_555
H2DC C3DC 1_555 1_555
H2YB C3YB 1_555 1_555
H2D C3D 1_555 1_555
C4D N1D 1_555 1_555
C4YB N1YB 1_555 1_555
C4DC N1DC 1_555 1_555
C4GB N1GB 1_555 1_555
C4WA C4 1_555 1_555
C4BB N1BB 1_555 1_555
C4EA N1EA 1_555 1_555
C4GA N1GA 1_555 1_555
C4H N1H 1_555 1_555
C4Z N1Z 1_555 1_555
C4WB N1WB 1_555 1_555
H3WA C4WA 1_555 1_555
H3H C4H 1_555 1_555
H3GA C4GA 1_555 1_555
H3WB C4WB 1_555 1_555
H3Z C4Z 1_555 1_555
H3EA C4EA 1_555 1_555
H3BB C4BB 1_555 1_555
H3GB C4GB 1_555 1_555
H3DC C4DC 1_555 1_555
H3YB C4YB 1_555 1_555
H3D C4D 1_555 1_555
C5WA C4WA 1_555 1_555
C5H C4H 1_555 1_555
C5GA C4GA 1_555 1_555
C5WB C4WB 1_555 1_555
C5Z C4Z 1_555 1_555
C5EA C4EA 1_555 1_555
C5BB C4BB 1_555 1_555
C5GB C4GB 1_555 1_555
C5DC C4DC 1_555 1_555
C5YB C4YB 1_555 1_555
C5D C4D 1_555 1_555
H4WA C5WA 1_555 1_555
H4H C5H 1_555 1_555
H4GA C5GA 1_555 1_555
H4WB C5WB 1_555 1_555
H4Z C5Z 1_555 1_555
H4EA C5EA 1_555 1_555
H4BB C5BB 1_555 1_555
H4GB C5GB 1_555 1_555
H4DC C5DC 1_555 1_555
H4YB C5YB 1_555 1_555
H4D C5D 1_555 1_555
H5WA C5WA 1_555 1_555
H5H C5H 1_555 1_555
H5GA C5GA 1_555 1_555
H5WB C5WB 1_555 1_555
H5Z C5Z 1_555 1_555
H5EA C5EA 1_555 1_555
H5BB C5BB 1_555 1_555
H5GB C5GB 1_555 1_555
H5DC C5DC 1_555 1_555
H5YB C5YB 1_555 1_555
H5D C5D 1_555 1_555
C6WA C6 1_555 1_555
C6H C5H 1_555 1_555
C6GA C5GA 1_555 1_555
C6WB C5WB 1_555 1_555
C6Z C5Z 1_555 1_555
C6EA C5EA 1_555 1_555
C6BB C5BB 1_555 1_555
C6GB C5GB 1_555 1_555
C6DC C5DC 1_555 1_555
C6YB C5YB 1_555 1_555
C6D C5D 1_555 1_555
H6WA C6WA 1_555 1_555
H6GA C6GA 1_555 1_555
H6H C6H 1_555 1_555
H6Z C6Z 1_555 1_555
H6WB C6WB 1_555 1_555
H6BB C6BB 1_555 1_555
H6EA C6EA 1_555 1_555
H6DC C6DC 1_555 1_555
H6GB C6GB 1_555 1_555
H6D C6D 1_555 1_555
H6YB C6YB 1_555 1_555
H7WA C6WA 1_555 1_555
H7GA C6GA 1_555 1_555
H7H C6H 1_555 1_555
H7Z C6Z 1_555 1_555
H7WB C6WB 1_555 1_555
H7BB C6BB 1_555 1_555
H7EA C6EA 1_555 1_555
H7DC C6DC 1_555 1_555
H7GB C6GB 1_555 1_555
H7D C6D 1_555 1_555
H7YB C6YB 1_555 1_555
N1WA C4WA 1_555 1_555
C1H C2H 1_555 1_555
C1D C2D 1_555 1_555
C1WB C2WB 1_555 1_555
C1DC C2YB 1_555 1_555
C1DC C2DC 1_555 1_555
C1BB C2BB 1_555 1_555
C1WA C2GB 1_555 1_555
C1WA C2WA 1_555 1_555
C1Z C2Z 1_555 1_555
C1GA C2EA 1_555 1_555
C1GA C2GA 1_555 1_555
C4D C4YB 1_555 1_555
C4DC C4GB 1_555 1_555
C4BB C4EA 1_555 1_555
C4GA C4H 1_555 1_555
C4Z C4WB 1_555 1_555
C5WA C6WA 1_555 1_555
C6H C6GA 1_555 1_555
C6WB C6Z 1_555 1_555
C6EA C6BB 1_555 1_555
C6GB C6DC 1_555 1_555
C6YB C6D 1_555 1_555

#END
