
#######################################################################
#
#                 Cambridge Crystallographic Data Centre
#                                CCDC 
#
#######################################################################
#
# If this CIF has been generated from an entry in the Cambridge 
# Structural Database, then it will include bibliographic, chemical, 
# crystal, experimental, refinement or atomic coordinate data resulting 
# from the CCDC's data processing and validation procedures.
#
#######################################################################

data_SAQYUG
_chemical_formula_moiety         'C19 H15 Br1 O1'
_chemical_name_systematic        
1-((1R,2S)-2-(4-Bromophenyl)-1-(phenylethynyl)cyclopropyl)ethanone
_symmetry_cell_setting           orthorhombic
_symmetry_space_group_name_H-M   'P 21 21 21'
_symmetry_Int_Tables_number      19
_space_group_name_Hall           'P 2ac 2ab'
loop_
_symmetry_equiv_pos_site_id
_symmetry_equiv_pos_as_xyz
1 x,y,z
2 1/2-x,-y,1/2+z
3 -x,1/2+y,1/2-z
4 1/2+x,1/2-y,-z
_cell_length_a                   5.3417(12)
_cell_length_b                   9.098(2)
_cell_length_c                   32.164(7)
_cell_angle_alpha                90
_cell_angle_beta                 90
_cell_angle_gamma                90
_cell_volume                     1563.13
_exptl_crystal_colour            colorless
_exptl_crystal_description       block
_cell_formula_units_Z            4
loop_
_atom_site_label
_atom_site_type_symbol
_atom_site_fract_x
_atom_site_fract_y
_atom_site_fract_z
Br1 Br 0.52297(9) 0.91349(5) 0.133435(14)
O1 O -0.3195(6) 0.1584(3) 0.01968(10)
C1 C 0.1718(8) 0.6167(4) 0.05587(12)
H1 H 0.1837 0.5912 0.0279
C2 C 0.3299(8) 0.7220(4) 0.07154(13)
H2 H 0.4487 0.7652 0.0543
C3 C 0.3143(8) 0.7642(5) 0.11253(13)
C4 C 0.1393(8) 0.6985(5) 0.13754(13)
H3 H 0.1258 0.7270 0.1652
C5 C -0.0170(9) 0.5907(5) 0.12224(10)
H4 H -0.1319 0.5462 0.1399
C6 C -0.0058(8) 0.5472(3) 0.08070(10)
C7 C -0.1647(7) 0.4321(4) 0.06220(12)
H5 H -0.1652 0.4335 0.0317
C8 C -0.3984(7) 0.3761(4) 0.08018(12)
H6 H -0.5337 0.3530 0.0611
H7 H -0.4520 0.4175 0.1065
C9 C -0.1781(7) 0.2745(4) 0.08079(11)
C10 C -0.0587(7) 0.2428(4) 0.11993(12)
C11 C 0.0335(8) 0.2191(4) 0.15274(11)
C12 C 0.1356(8) 0.1906(4) 0.19305(11)
C13 C 0.3389(9) 0.2684(5) 0.20761(13)
H8 H 0.4146 0.3379 0.1905
C14 C 0.4317(9) 0.2455(6) 0.24684(13)
H9 H 0.5671 0.3004 0.2563
C15 C 0.3265(9) 0.1430(5) 0.27185(14)
H10 H 0.3904 0.1274 0.2984
C16 C 0.1291(10) 0.0632(5) 0.25844(13)
H11 H 0.0584 -0.0076 0.2757
C17 C 0.0329(8) 0.0863(5) 0.21948(11)
H12 H -0.1036 0.0312 0.2106
C18 C -0.1724(8) 0.1569(4) 0.04819(13)
C19 C 0.0265(9) 0.0438(4) 0.05104(11)
H13 H 0.0082 -0.0250 0.0286
H14 H 0.0128 -0.0070 0.0771
H15 H 0.1875 0.0903 0.0492
loop_
_geom_bond_atom_site_label_1
_geom_bond_atom_site_label_2
_geom_bond_site_symmetry_1
_geom_bond_site_symmetry_2
Br1 C3 1_555 1_555
O1 C18 1_555 1_555
C1 H1 1_555 1_555
C2 C1 1_555 1_555
H2 C2 1_555 1_555
C3 C2 1_555 1_555
C4 C3 1_555 1_555
H3 C4 1_555 1_555
C5 C4 1_555 1_555
H4 C5 1_555 1_555
C6 C1 1_555 1_555
C7 C6 1_555 1_555
H5 C7 1_555 1_555
C8 C7 1_555 1_555
H6 C8 1_555 1_555
H7 C8 1_555 1_555
C9 C7 1_555 1_555
C10 C9 1_555 1_555
C11 C10 1_555 1_555
C12 C11 1_555 1_555
C13 C12 1_555 1_555
H8 C13 1_555 1_555
C14 C13 1_555 1_555
H9 C14 1_555 1_555
C15 C14 1_555 1_555
H10 C15 1_555 1_555
C16 C15 1_555 1_555
H11 C16 1_555 1_555
C17 C12 1_555 1_555
H12 C17 1_555 1_555
C18 C9 1_555 1_555
C19 C18 1_555 1_555
H13 C19 1_555 1_555
H14 C19 1_555 1_555
H15 C19 1_555 1_555
C5 C6 1_555 1_555
C8 C9 1_555 1_555
C16 C17 1_555 1_555

#END
