
#######################################################################
#
#                 Cambridge Crystallographic Data Centre
#                                CCDC 
#
#######################################################################
#
# If this CIF has been generated from an entry in the Cambridge 
# Structural Database, then it will include bibliographic, chemical, 
# crystal, experimental, refinement or atomic coordinate data resulting 
# from the CCDC's data processing and validation procedures.
#
#######################################################################

data_SAQYIU
_chemical_formula_moiety         'C45 H27 F3 O3'
_chemical_name_systematic        
(3,4,6-tris(3-fluorophenyl)-1-phenyl-4H-cyclopenta[c]furan-4,5-diyl)bis(phenylmethanone)
_symmetry_cell_setting           monoclinic
_symmetry_space_group_name_H-M   'P 21/c'
_symmetry_Int_Tables_number      14
_space_group_name_Hall           '-P 2ybc'
loop_
_symmetry_equiv_pos_site_id
_symmetry_equiv_pos_as_xyz
1 x,y,z
2 -x,1/2+y,1/2-z
3 -x,-y,-z
4 x,1/2-y,1/2+z
_cell_length_a                   20.293(4)
_cell_length_b                   9.2343(18)
_cell_length_c                   20.400(4)
_cell_angle_alpha                90
_cell_angle_beta                 117.20(3)
_cell_angle_gamma                90
_cell_volume                     3400.05
_cell_formula_units_Z            4
loop_
_atom_site_label
_atom_site_type_symbol
_atom_site_fract_x
_atom_site_fract_y
_atom_site_fract_z
O1 O 0.40718(11) 0.5959(2) 0.44688(10)
C1 C 0.18940(17) 0.3983(4) 0.43652(15)
C2 C 0.39649(16) 0.5086(3) 0.38778(15)
C3 C 0.45257(16) 0.5206(3) 0.36291(16)
C4 C 0.21991(16) 0.3164(3) 0.33526(15)
C5 C 0.50867(16) 0.6237(4) 0.39418(17)
H1 H 0.5114 0.6834 0.4320
O2 O 0.12369(13) 0.2476(3) 0.22268(12)
C6 C 0.35016(17) 0.5748(4) 0.46496(15)
C7 C 0.23585(16) 0.3912(3) 0.39769(15)
C8 C 0.28027(16) 0.3324(3) 0.30993(15)
C9 C 0.33306(16) 0.4332(3) 0.36903(15)
C10 C 0.34958(18) 0.6772(4) 0.51935(16)
O3 O 0.27435(14) 0.3674(3) 0.19120(12)
F1 F 0.02280(15) 0.5704(3) 0.41793(16)
C11 C 0.30510(16) 0.4700(3) 0.41896(15)
C12 C 0.31154(17) 0.1825(3) 0.30938(16)
C13 C 0.12534(18) 0.4800(4) 0.40762(18)
H2 H 0.1101 0.5289 0.3632
C14 C 0.2738(2) 0.0863(4) 0.25227(18)
H3 H 0.2304 0.1158 0.2118
F2 F 0.61266(15) 0.7356(3) 0.39765(18)
C15 C 0.25192(18) 0.4092(4) 0.23361(16)
C16 C 0.15319(17) 0.2317(3) 0.28931(16)
C17 C 0.12335(18) 0.1254(4) 0.32348(17)
C18 C 0.45164(19) 0.4328(4) 0.30707(18)
H4 H 0.4148 0.3632 0.2856
C19 C 0.2971(2) 0.6701(4) 0.54449(19)
H5 H 0.2630 0.5947 0.5293
C20 C 0.0844(2) 0.4877(4) 0.4461(2)
C21 C 0.3754(2) 0.1349(4) 0.36802(19)
H6 H 0.4020 0.1966 0.4074
C22 C 0.55973(19) 0.6350(4) 0.3679(2)
C23 C 0.5049(2) 0.4479(5) 0.2833(2)
H7 H 0.5035 0.3875 0.2462
C24 C 0.2097(2) 0.3251(4) 0.50237(18)
H8 H 0.2524 0.2688 0.5223
C25 C 0.5595(2) 0.5494(5) 0.3129(2)
H9 H 0.5950 0.5601 0.2964
F3 F 0.46327(17) -0.0465(3) 0.42564(17)
C26 C 0.1036(3) 0.4193(5) 0.5101(2)
H10 H 0.0750 0.4282 0.5349
C27 C 0.0481(2) 0.0948(5) 0.2897(2)
H11 H 0.0170 0.1456 0.2474
C28 C 0.19920(18) 0.5347(4) 0.21204(18)
C29 C 0.1943(2) 0.6346(4) 0.2604(2)
H12 H 0.2251 0.6254 0.3107
C30 C 0.1663(3) 0.3360(5) 0.5383(2)
H13 H 0.1799 0.2859 0.5821
C31 C 0.1691(2) 0.0496(4) 0.3857(2)
H14 H 0.2198 0.0681 0.4095
C32 C 0.2997(3) -0.0532(4) 0.2548(2)
H15 H 0.2736 -0.1163 0.2159
C33 C 0.4000(2) -0.0048(4) 0.3684(2)
C34 C 0.2949(2) 0.7748(5) 0.5925(2)
H16 H 0.2587 0.7700 0.6084
C35 C 0.1447(3) 0.7469(5) 0.2351(3)
H17 H 0.1420 0.8126 0.2684
C36 C 0.1533(2) 0.5527(5) 0.1378(2)
H18 H 0.1553 0.4870 0.1043
C37 C 0.4004(3) 0.7851(6) 0.5455(3)
H19 H 0.4378 0.7892 0.5312
C38 C 0.0187(3) -0.0067(6) 0.3164(3)
H20 H -0.0320 -0.0245 0.2929
C39 C 0.3631(2) -0.0997(4) 0.3134(2)
H21 H 0.3803 -0.1937 0.3154
C40 C 0.1380(4) -0.0571(5) 0.4131(3)
H22 H 0.1678 -0.1104 0.4549
C41 C 0.1037(3) 0.6686(7) 0.1124(3)
H23 H 0.0738 0.6814 0.0622
C42 C 0.0624(4) -0.0804(6) 0.3762(4)
H24 H 0.0416 -0.1501 0.3941
C43 C 0.0994(3) 0.7631(6) 0.1619(3)
H25 H 0.0654 0.8386 0.1454
C44 C 0.3443(3) 0.8818(6) 0.6158(3)
H26 H 0.3423 0.9515 0.6478
C45 C 0.3978(4) 0.8892(7) 0.5929(4)
H27 H 0.4323 0.9640 0.6092
loop_
_geom_bond_atom_site_label_1
_geom_bond_atom_site_label_2
_geom_bond_site_symmetry_1
_geom_bond_site_symmetry_2
O1 C2 1_555 1_555
C1 C7 1_555 1_555
C2 C3 1_555 1_555
C3 C5 1_555 1_555
C4 C7 1_555 1_555
C5 H1 1_555 1_555
O2 C16 1_555 1_555
C6 O1 1_555 1_555
C7 C11 1_555 1_555
C8 C4 1_555 1_555
C9 C2 1_555 1_555
C10 C6 1_555 1_555
O3 C15 1_555 1_555
F1 C20 1_555 1_555
C11 C6 1_555 1_555
C12 C8 1_555 1_555
C13 C1 1_555 1_555
H2 C13 1_555 1_555
C14 C12 1_555 1_555
H3 C14 1_555 1_555
F2 C22 1_555 1_555
C15 C8 1_555 1_555
C16 C4 1_555 1_555
C17 C16 1_555 1_555
C18 C3 1_555 1_555
H4 C18 1_555 1_555
C19 C10 1_555 1_555
H5 C19 1_555 1_555
C20 C13 1_555 1_555
C21 C12 1_555 1_555
H6 C21 1_555 1_555
C22 C5 1_555 1_555
C23 C18 1_555 1_555
H7 C23 1_555 1_555
C24 C1 1_555 1_555
H8 C24 1_555 1_555
C25 C22 1_555 1_555
H9 C25 1_555 1_555
F3 C33 1_555 1_555
C26 C20 1_555 1_555
H10 C26 1_555 1_555
C27 C17 1_555 1_555
H11 C27 1_555 1_555
C28 C15 1_555 1_555
C29 C28 1_555 1_555
H12 C29 1_555 1_555
C30 C24 1_555 1_555
H13 C30 1_555 1_555
C31 C17 1_555 1_555
H14 C31 1_555 1_555
C32 C14 1_555 1_555
H15 C32 1_555 1_555
C33 C21 1_555 1_555
C34 C19 1_555 1_555
H16 C34 1_555 1_555
C35 C29 1_555 1_555
H17 C35 1_555 1_555
C36 C28 1_555 1_555
H18 C36 1_555 1_555
C37 C10 1_555 1_555
H19 C37 1_555 1_555
C38 C27 1_555 1_555
H20 C38 1_555 1_555
C39 C32 1_555 1_555
H21 C39 1_555 1_555
C40 C31 1_555 1_555
H22 C40 1_555 1_555
C41 C36 1_555 1_555
H23 C41 1_555 1_555
C42 C38 1_555 1_555
H24 C42 1_555 1_555
C43 C35 1_555 1_555
H25 C43 1_555 1_555
C44 C34 1_555 1_555
H26 C44 1_555 1_555
C45 C37 1_555 1_555
H27 C45 1_555 1_555
C8 C9 1_555 1_555
C9 C11 1_555 1_555
C23 C25 1_555 1_555
C26 C30 1_555 1_555
C33 C39 1_555 1_555
C40 C42 1_555 1_555
C41 C43 1_555 1_555
C44 C45 1_555 1_555

#END
