
#######################################################################
#
#                 Cambridge Crystallographic Data Centre
#                                CCDC 
#
#######################################################################
#
# If this CIF has been generated from an entry in the Cambridge 
# Structural Database, then it will include bibliographic, chemical, 
# crystal, experimental, refinement or atomic coordinate data resulting 
# from the CCDC's data processing and validation procedures.
#
#######################################################################

data_SAQZAK
_chemical_formula_moiety         'C2 H2 N6 O4'
_chemical_name_systematic        5-Nitro-2-nitromethyl-2H-1,2,3,4-tetrazole
_symmetry_cell_setting           monoclinic
_symmetry_space_group_name_H-M   'P 21/c'
_symmetry_Int_Tables_number      14
_space_group_name_Hall           '-P 2ybc'
loop_
_symmetry_equiv_pos_site_id
_symmetry_equiv_pos_as_xyz
1 x,y,z
2 x,1/2-y,1/2+z
3 -x,-y,-z
4 -x,1/2+y,1/2-z
_cell_length_a                   9.213(3)
_cell_length_b                   7.7610(10)
_cell_length_c                   10.180(2)
_cell_angle_alpha                90
_cell_angle_beta                 118.04(2)
_cell_angle_gamma                90
_cell_volume                     642.451
_exptl_crystal_colour            colorless
_chemical_melting_point          '408 K(dec.)'
_cell_formula_units_Z            4
_exptl_crystal_recrystallization_method ethanol
loop_
_atom_site_label
_atom_site_type_symbol
_atom_site_fract_x
_atom_site_fract_y
_atom_site_fract_z
N1 N 0.78114(16) 0.06306(16) 0.14153(14)
N2 N 0.68669(16) -0.04660(17) 0.16623(14)
C1 C 0.79818(19) -0.12610(19) 0.28404(17)
N3 N 0.95226(16) -0.07072(18) 0.33079(16)
N4 N 0.94009(16) 0.05169(17) 0.23875(16)
N5 N 0.75872(19) -0.26157(17) 0.35885(16)
O1 O 0.61480(17) -0.30129(18) 0.30911(16)
O2 O 0.87374(19) -0.3256(2) 0.46669(17)
C2 C 0.7208(2) 0.1880(2) 0.02458(18)
H1 H 0.803(2) 0.206(3) -0.009(2)
H2 H 0.615(3) 0.156(3) -0.052(3)
N6 N 0.69709(16) 0.35816(18) 0.08235(16)
O3 O 0.7142(2) 0.36613(18) 0.20688(17)
O4 O 0.66258(18) 0.47800(19) -0.00477(18)
loop_
_geom_bond_atom_site_label_1
_geom_bond_atom_site_label_2
_geom_bond_site_symmetry_1
_geom_bond_site_symmetry_2
N1 N2 1_555 1_555
N2 C1 1_555 1_555
C1 N3 1_555 1_555
N3 N4 1_555 1_555
N4 N1 1_555 1_555
N5 C1 1_555 1_555
O1 N5 1_555 1_555
O2 N5 1_555 1_555
C2 N1 1_555 1_555
H1 C2 1_555 1_555
H2 C2 1_555 1_555
N6 C2 1_555 1_555
O3 N6 1_555 1_555
O4 N6 1_555 1_555

#END
