
#######################################################################
#
#                 Cambridge Crystallographic Data Centre
#                                CCDC 
#
#######################################################################
#
# If this CIF has been generated from an entry in the Cambridge 
# Structural Database, then it will include bibliographic, chemical, 
# crystal, experimental, refinement or atomic coordinate data resulting 
# from the CCDC's data processing and validation procedures.
#
#######################################################################

data_SARBET
_chemical_formula_moiety         'C10 H10 F9 N1 O2 S2'
_chemical_name_systematic        
syn-4,5-Dimethyl-2-(nonafluorobutanesulfinyl)-3,6-dihydro-2H-(1,2)thiazine-1-oxide
_symmetry_cell_setting           orthorhombic
_symmetry_space_group_name_H-M   'P c c n'
_symmetry_Int_Tables_number      56
_space_group_name_Hall           '-P 2ab 2ac'
loop_
_symmetry_equiv_pos_site_id
_symmetry_equiv_pos_as_xyz
1 x,y,z
2 1/2-x,1/2-y,z
3 -x,1/2+y,1/2-z
4 1/2+x,-y,1/2-z
5 -x,-y,-z
6 1/2+x,1/2+y,-z
7 x,1/2-y,1/2+z
8 1/2-x,y,1/2+z
_cell_length_a                   16.0627(12)
_cell_length_b                   17.8521(14)
_cell_length_c                   11.3740(8)
_cell_angle_alpha                90
_cell_angle_beta                 90
_cell_angle_gamma                90
_cell_volume                     3261.53
_exptl_crystal_colour            colorless
_chemical_melting_point          74-75deg.C
_cell_formula_units_Z            8
loop_
_atom_site_label
_atom_site_type_symbol
_atom_site_fract_x
_atom_site_fract_y
_atom_site_fract_z
S1 S 0.32079(6) 0.66963(7) 0.68881(8)
S2 S 0.19066(6) 0.61108(6) 0.54922(8)
O1 O 0.34707(19) 0.74767(16) 0.6784(2)
O2 O 0.14925(16) 0.63963(17) 0.4442(2)
N1 N 0.28707(19) 0.6409(2) 0.5545(2)
F1 F 0.2537(2) 0.50893(17) 0.4019(3)
F2 F 0.2757(2) 0.48604(18) 0.5847(4)
F3 F 0.1046(3) 0.4681(2) 0.6063(4)
F4 F 0.0917(3) 0.4823(3) 0.4279(5)
F5 F 0.2353(4) 0.3559(3) 0.4606(14)
F6 F 0.1923(10) 0.3526(5) 0.6188(13)
F7 F 0.0280(7) 0.3477(6) 0.4490(19)
F8 F 0.0558(11) 0.3275(6) 0.5865(16)
F9 F 0.1250(5) 0.2532(5) 0.4838(14)
C1 C 0.4154(3) 0.6153(3) 0.6817(4)
C2 C 0.4603(2) 0.6147(2) 0.5674(3)
C3 C 0.4265(2) 0.6348(2) 0.4647(3)
C4 C 0.3386(3) 0.6595(3) 0.4515(3)
C5 C 0.5487(3) 0.5877(3) 0.5800(4)
H1 H 0.5717 0.5782 0.5035
H2 H 0.5495 0.5424 0.6254
H3 H 0.5812 0.6253 0.6190
C6 C 0.4729(3) 0.6368(3) 0.3496(4)
H4 H 0.5315 0.6415 0.3645
H5 H 0.4543 0.6789 0.3040
H6 H 0.4625 0.5914 0.3068
C7 C 0.2183(3) 0.5121(3) 0.5058(4)
C8 C 0.1467(4) 0.4589(3) 0.5103(5)
C9 C 0.1601(6) 0.3746(5) 0.4965(13)
C10 C 0.0994(12) 0.3169(11) 0.503(3)
H7 H 0.452(2) 0.640(2) 0.739(4)
H8 H 0.403(2) 0.561(2) 0.706(3)
H9 H 0.331(2) 0.711(2) 0.439(3)
H10 H 0.314(2) 0.629(2) 0.384(4)
F10? F 0.1648(10) 0.3782(6) 0.3453(16)
F11? F 0.0989(13) 0.3131(13) 0.390(2)
loop_
_geom_bond_atom_site_label_1
_geom_bond_atom_site_label_2
_geom_bond_site_symmetry_1
_geom_bond_site_symmetry_2
S1 O1 1_555 1_555
S2 O2 1_555 1_555
N1 S1 1_555 1_555
F1 C7 1_555 1_555
F2 C7 1_555 1_555
F3 C8 1_555 1_555
F4 C8 1_555 1_555
F5 C9 1_555 1_555
F6 C9 1_555 1_555
F7 C10 1_555 1_555
F8 C10 1_555 1_555
F9 C10 1_555 1_555
C1 S1 1_555 1_555
C2 C1 1_555 1_555
C3 C2 1_555 1_555
C4 N1 1_555 1_555
C5 C2 1_555 1_555
H1 C5 1_555 1_555
H2 C5 1_555 1_555
H3 C5 1_555 1_555
C6 C3 1_555 1_555
H4 C6 1_555 1_555
H5 C6 1_555 1_555
H6 C6 1_555 1_555
C7 S2 1_555 1_555
C8 C7 1_555 1_555
C9 C8 1_555 1_555
C10 C9 1_555 1_555
H7 C1 1_555 1_555
H8 C1 1_555 1_555
H9 C4 1_555 1_555
H10 C4 1_555 1_555
S2 N1 1_555 1_555
C3 C4 1_555 1_555

#END
