
#######################################################################
#
#                 Cambridge Crystallographic Data Centre
#                                CCDC 
#
#######################################################################
#
# If this CIF has been generated from an entry in the Cambridge 
# Structural Database, then it will include bibliographic, chemical, 
# crystal, experimental, refinement or atomic coordinate data resulting 
# from the CCDC's data processing and validation procedures.
#
#######################################################################

data_SARCOD
_chemical_formula_moiety         'C16 H24 N2 O1 S1'
_chemical_name_systematic        
1-Isopropyl-4-methoxy-4-phenyl-5,5-dimethylperhydro-1,3-diazine-2-thione
_symmetry_cell_setting           monoclinic
_symmetry_space_group_name_H-M   'P 21/n'
_symmetry_Int_Tables_number      14
_space_group_name_Hall           '-P 2yn'
loop_
_symmetry_equiv_pos_site_id
_symmetry_equiv_pos_as_xyz
1 x,y,z
2 1/2-x,1/2+y,1/2-z
3 -x,-y,-z
4 1/2+x,1/2-y,1/2+z
_cell_length_a                   15.744(5)
_cell_length_b                   12.090(3)
_cell_length_c                   8.356(2)
_cell_angle_alpha                90
_cell_angle_beta                 93.81(2)
_cell_angle_gamma                90
_cell_volume                     1587.01
_cell_formula_units_Z            4
loop_
_atom_site_label
_atom_site_type_symbol
_atom_site_fract_x
_atom_site_fract_y
_atom_site_fract_z
N1 N 0.3271(1) 0.8762(2) 0.2505(2)
C1 C 0.3898(1) 0.9208(2) 0.1709(3)
N2 N 0.4651(1) 0.8659(2) 0.1738(2)
C2 C 0.4798(1) 0.7571(2) 0.2422(3)
C3 C 0.4319(1) 0.7525(2) 0.3994(3)
C4 C 0.3390(2) 0.7765(2) 0.3495(3)
C5 C 0.2432(2) 0.9314(2) 0.2538(3)
C6 C 0.1710(2) 0.8475(3) 0.2438(5)
C7 C 0.2433(2) 1.0053(3) 0.4001(4)
S1 S 0.3797 1.0419(1) 0.0694(1)
O1 O 0.4400(1) 0.6738(1) 0.1410(2)
C8 C 0.4654(2) 0.6718(3) -0.0192(3)
C9 C 0.5749(1) 0.7331(2) 0.2681(2)
C10 C 0.6023(2) 0.6230(3) 0.2781(3)
C11 C 0.6870(2) 0.5969(2) 0.3075(3)
C12 C 0.7469(2) 0.6798(2) 0.3228(3)
C13 C 0.7216(2) 0.7879(2) 0.3122(3)
C14 C 0.6358(2) 0.8154(2) 0.2865(3)
C15 C 0.4352(2) 0.6388(2) 0.4781(4)
C16 C 0.4672(2) 0.8395(3) 0.5190(3)
loop_
_geom_bond_atom_site_label_1
_geom_bond_atom_site_label_2
_geom_bond_site_symmetry_1
_geom_bond_site_symmetry_2
N1 C1 1_555 1_555
C1 N2 1_555 1_555
N2 C2 1_555 1_555
C2 C3 1_555 1_555
C3 C4 1_555 1_555
C4 N1 1_555 1_555
C5 N1 1_555 1_555
C6 C5 1_555 1_555
C7 C5 1_555 1_555
S1 C1 1_555 1_555
O1 C2 1_555 1_555
C8 O1 1_555 1_555
C9 C2 1_555 1_555
C10 C9 1_555 1_555
C11 C10 1_555 1_555
C12 C11 1_555 1_555
C13 C12 1_555 1_555
C14 C9 1_555 1_555
C15 C3 1_555 1_555
C16 C3 1_555 1_555
C13 C14 1_555 1_555

#END
