
#######################################################################
#
#                 Cambridge Crystallographic Data Centre
#                                CCDC 
#
#######################################################################
#
# If this CIF has been generated from an entry in the Cambridge 
# Structural Database, then it will include bibliographic, chemical, 
# crystal, experimental, refinement or atomic coordinate data resulting 
# from the CCDC's data processing and validation procedures.
#
#######################################################################

data_SARDOH
_chemical_formula_moiety         'C16 H18 O5'
_chemical_name_systematic        
3,6a,7a-trimethyl-2a-(prop-1-en-1-yl)-2a,3,6a,7a,7b,7c-hexahydrodifuro[2,3,4-cd:4',3',2'-hi][2]benzofuran-2,5-dione
_symmetry_cell_setting           monoclinic
_symmetry_space_group_name_H-M   'P 21/c'
_symmetry_Int_Tables_number      14
_space_group_name_Hall           '-P 2ybc'
loop_
_symmetry_equiv_pos_site_id
_symmetry_equiv_pos_as_xyz
1 x,y,z
2 -x,1/2+y,1/2-z
3 -x,-y,-z
4 x,1/2-y,1/2+z
_cell_length_a                   10.2015(7)
_cell_length_b                   6.6038(4)
_cell_length_c                   21.6062(14)
_cell_angle_alpha                90
_cell_angle_beta                 97.781(1)
_cell_angle_gamma                90
_cell_volume                     1442.18
_exptl_crystal_colour            colorless
_exptl_crystal_description       needle
_chemical_melting_point          '200-201 deg.C'
_cell_formula_units_Z            4
_exptl_crystal_recrystallization_method dichloromethane/pentane
loop_
_atom_site_label
_atom_site_type_symbol
_atom_site_fract_x
_atom_site_fract_y
_atom_site_fract_z
O1 O 0.09537(10) 0.21469(15) 0.45111(4)
O2 O 0.25256(9) 0.44420(15) 0.48252(4)
O3 O 0.41270(9) 0.46200(15) 0.56975(4)
O4 O 0.39434(9) 0.19966(13) 0.63864(5)
O5 O 0.26898(11) -0.03163(13) 0.67671(5)
C1 C 0.14618(12) 0.32757(19) 0.49094(6)
C2 C 0.11389(11) 0.36464(18) 0.55441(5)
C3 C 0.04950(12) 0.23955(18) 0.58784(6)
H1 H -0.0010 0.1300 0.5687
C4 C 0.05912(12) 0.27674(18) 0.65707(6)
H2 H 0.0347 0.1487 0.6774
C5 C 0.20728(12) 0.32515(16) 0.68143(5)
C6 C 0.22754(12) 0.34294(19) 0.75196(6)
H3 H 0.2033 0.2273 0.7740
C7 C 0.27407(13) 0.4965(2) 0.78683(6)
H4 H 0.2980 0.6157 0.7664
C8 C 0.29167(15) 0.4952(2) 0.85679(6)
H5 H 0.2601 0.3660 0.8715
H6 H 0.2408 0.6064 0.8718
H7 H 0.3856 0.5122 0.8728
C9 C 0.29933(12) 0.56054(19) 0.53815(5)
C10 C 0.40089(12) 0.41953(18) 0.63240(6)
C11 C 0.28941(12) 0.14303(18) 0.66593(6)
C12 C 0.19251(11) 0.54191(17) 0.58144(5)
H8 H 0.1373 0.6672 0.5809
C13 C 0.26634(11) 0.49855(16) 0.64667(5)
H9 H 0.2769 0.6243 0.6727
C14 C -0.03318(13) 0.4451(2) 0.67392(7)
H10 H -0.0056 0.5747 0.6577
H11 H -0.0288 0.4535 0.7194
H12 H -0.1241 0.4149 0.6554
C15 C 0.52250(13) 0.4930(2) 0.67344(7)
H13 H 0.6015 0.4366 0.6586
H14 H 0.5193 0.4490 0.7165
H15 H 0.5260 0.6412 0.6719
C16 C 0.33581(16) 0.7679(2) 0.51774(7)
H16 H 0.3653 0.8510 0.5546
H17 H 0.2585 0.8311 0.4934
H18 H 0.4074 0.7569 0.4919
loop_
_geom_bond_atom_site_label_1
_geom_bond_atom_site_label_2
_geom_bond_site_symmetry_1
_geom_bond_site_symmetry_2
O1 C1 1_555 1_555
O2 C1 1_555 1_555
O3 C9 1_555 1_555
O4 C10 1_555 1_555
O5 C11 1_555 1_555
C1 C2 1_555 1_555
C2 C3 1_555 1_555
C3 H1 1_555 1_555
C4 C3 1_555 1_555
H2 C4 1_555 1_555
C5 C4 1_555 1_555
C6 C5 1_555 1_555
H3 C6 1_555 1_555
C7 C6 1_555 1_555
H4 C7 1_555 1_555
C8 C7 1_555 1_555
H5 C8 1_555 1_555
H6 C8 1_555 1_555
H7 C8 1_555 1_555
C9 O2 1_555 1_555
C10 O3 1_555 1_555
C11 O4 1_555 1_555
C12 C2 1_555 1_555
H8 C12 1_555 1_555
C13 C5 1_555 1_555
H9 C13 1_555 1_555
C14 C4 1_555 1_555
H10 C14 1_555 1_555
H11 C14 1_555 1_555
H12 C14 1_555 1_555
C15 C10 1_555 1_555
H13 C15 1_555 1_555
H14 C15 1_555 1_555
H15 C15 1_555 1_555
C16 C9 1_555 1_555
H16 C16 1_555 1_555
H17 C16 1_555 1_555
H18 C16 1_555 1_555
C5 C11 1_555 1_555
C9 C12 1_555 1_555
C10 C13 1_555 1_555
C12 C13 1_555 1_555

#END
