
#######################################################################
#
#                 Cambridge Crystallographic Data Centre
#                                CCDC 
#
#######################################################################
#
# If this CIF has been generated from an entry in the Cambridge 
# Structural Database, then it will include bibliographic, chemical, 
# crystal, experimental, refinement or atomic coordinate data resulting 
# from the CCDC's data processing and validation procedures.
#
#######################################################################

data_SARMEG
_chemical_formula_moiety         'C19 H15 N1 O3'
_chemical_name_systematic        
(2R,3R)-1'-methyl-4-methylene-3-phenyl-3H-spiro[furan-2,3'-indoline]-2',5(4H)-dione
_symmetry_cell_setting           monoclinic
_symmetry_space_group_name_H-M   'P 21'
_symmetry_Int_Tables_number      4
_space_group_name_Hall           'P 2yb'
loop_
_symmetry_equiv_pos_site_id
_symmetry_equiv_pos_as_xyz
1 x,y,z
2 -x,1/2+y,-z
_cell_length_a                   10.3062(5)
_cell_length_b                   10.6362(6)
_cell_length_c                   14.2809(7)
_cell_angle_alpha                90
_cell_angle_beta                 94.7880(10)
_cell_angle_gamma                90
_cell_volume                     1559.99
_exptl_crystal_colour            colorless
_exptl_crystal_description       prism
_cell_formula_units_Z            4
loop_
_atom_site_label
_atom_site_type_symbol
_atom_site_fract_x
_atom_site_fract_y
_atom_site_fract_z
O1 O 0.55427(9) 0.62769(11) 0.04233(7)
O2 O 0.67213(10) 0.60168(12) -0.08104(8)
O3 O 0.43675(11) 0.38500(12) 0.04416(7)
N1 N 0.33406(14) 0.47369(14) 0.16631(9)
C1 C -0.04249(15) 0.48982(18) -0.07292(10)
H1 H -0.1275 0.4549 -0.0815
C2 C -0.02545(15) 0.61156(18) -0.04112(10)
H2 H -0.0987 0.6602 -0.0272
C3 C 0.09890(14) 0.66337(17) -0.02940(10)
H3 H 0.1100 0.7475 -0.0080
C4 C 0.20693(14) 0.59266(16) -0.04889(9)
C5 C 0.34083(14) 0.65159(16) -0.03325(9)
H4 H 0.3289 0.7449 -0.0321
C6 C 0.41911(14) 0.61326(16) 0.06051(10)
C7 C 0.38114(14) 0.68285(17) 0.14531(10)
C8 C 0.32524(15) 0.59607(17) 0.20295(10)
C9 C 0.27208(17) 0.63280(19) 0.28458(11)
H5 H 0.2329 0.5736 0.3233
C10 C 0.27832(17) 0.7596(2) 0.30748(11)
H6 H 0.2435 0.7873 0.3635
C11 C 0.06470(15) 0.41832(17) -0.09232(10)
H7 H 0.0531 0.3341 -0.1135
C12 C 0.18885(15) 0.46970(17) -0.08080(10)
H8 H 0.2618 0.4207 -0.0948
C13 C 0.56723(14) 0.61590(16) -0.05150(10)
C14 C 0.43688(13) 0.62296(16) -0.10387(10)
C15 C 0.41970(15) 0.61116(17) -0.19604(10)
H9 H 0.4924 0.5976 -0.2315
H10 H 0.3346 0.6163 -0.2270
C16 C 0.39936(15) 0.47508(17) 0.08677(10)
C17 C 0.38526(15) 0.80865(18) 0.16796(11)
H11 H 0.4221 0.8681 0.1282
C18 C 0.33394(16) 0.84682(19) 0.25085(12)
H12 H 0.3372 0.9330 0.2685
C19 C 0.2929(2) 0.36050(19) 0.21182(13)
H13 H 0.3082 0.2875 0.1723
H14 H 0.1999 0.3664 0.2210
H15 H 0.3427 0.3511 0.2729
O4 O -0.07780(10) 0.14207(12) 0.52551(7)
O5 O 0.12236(11) 0.32912(12) 0.50405(7)
O6 O -0.19975(10) 0.16345(13) 0.38920(7)
N2 N 0.19852(12) 0.24870(15) 0.64837(9)
C20 C 0.52602(17) 0.0645(2) 0.48276(14)
H16 H 0.6182 0.0723 0.4874
C21 C 0.46758(19) -0.0253(2) 0.53398(16)
H17 H 0.5199 -0.0803 0.5736
C22 C 0.33292(17) -0.03665(19) 0.52860(13)
H18 H 0.2938 -0.1002 0.5636
C23 C 0.25542(15) 0.04459(17) 0.47228(10)
C24 C 0.10900(15) 0.03736(17) 0.47496(10)
H19 H 0.0867 -0.0521 0.4882
C25 C 0.05821(14) 0.11946(17) 0.55484(10)
C26 C 0.08322(15) 0.06389(18) 0.65132(10)
C27 C 0.04480(17) -0.04783(19) 0.68915(11)
H20 H -0.0136 -0.1028 0.6542
C28 C 0.09416(19) -0.0781(2) 0.78051(12)
H21 H 0.0675 -0.1537 0.8087
C29 C 0.1813(2) 0.0007(2) 0.83017(11)
H22 H 0.2141 -0.0223 0.8919
C30 C 0.02027(15) 0.07941(17) 0.39192(11)
C31 C 0.03229(17) 0.0731(2) 0.30098(11)
H23 H -0.0356 0.1032 0.2577
H24 H 0.1089 0.0385 0.2787
C32 C -0.09803(15) 0.13287(17) 0.42995(10)
C33 C 0.17138(14) 0.14210(18) 0.70203(10)
C34 C 0.12839(14) 0.24633(17) 0.56340(10)
C35 C 0.28649(19) 0.3489(2) 0.67941(12)
H25 H 0.2931 0.4091 0.6281
H26 H 0.3727 0.3138 0.6980
H27 H 0.2533 0.3918 0.7332
C36 C 0.22248(17) 0.1132(2) 0.79214(11)
H28 H 0.2826 0.1672 0.8264
C37 C 0.31541(16) 0.13423(18) 0.41995(10)
H29 H 0.2639 0.1901 0.3805
C38 C 0.45025(17) 0.14288(19) 0.42488(11)
H30 H 0.4903 0.2036 0.3879
loop_
_geom_bond_atom_site_label_1
_geom_bond_atom_site_label_2
_geom_bond_site_symmetry_1
_geom_bond_site_symmetry_2
O1 C6 1_555 1_555
O2 C13 1_555 1_555
O3 C16 1_555 1_555
N1 C8 1_555 1_555
C1 H1 1_555 1_555
C2 C1 1_555 1_555
H2 C2 1_555 1_555
C3 C2 1_555 1_555
H3 C3 1_555 1_555
C4 C3 1_555 1_555
C5 C4 1_555 1_555
H4 C5 1_555 1_555
C6 C5 1_555 1_555
C7 C6 1_555 1_555
C8 C7 1_555 1_555
C9 C8 1_555 1_555
H5 C9 1_555 1_555
C10 C9 1_555 1_555
H6 C10 1_555 1_555
C11 C1 1_555 1_555
H7 C11 1_555 1_555
C12 C4 1_555 1_555
H8 C12 1_555 1_555
C13 O1 1_555 1_555
C14 C5 1_555 1_555
C15 C14 1_555 1_555
H9 C15 1_555 1_555
H10 C15 1_555 1_555
C16 N1 1_555 1_555
C17 C7 1_555 1_555
H11 C17 1_555 1_555
C18 C10 1_555 1_555
H12 C18 1_555 1_555
C19 N1 1_555 1_555
H13 C19 1_555 1_555
H14 C19 1_555 1_555
H15 C19 1_555 1_555
O4 C25 1_555 1_555
O5 C34 1_555 1_555
O6 C32 1_555 1_555
N2 C33 1_555 1_555
C20 H16 1_555 1_555
C21 C20 1_555 1_555
H17 C21 1_555 1_555
C22 C21 1_555 1_555
H18 C22 1_555 1_555
C23 C22 1_555 1_555
C24 C23 1_555 1_555
H19 C24 1_555 1_555
C25 C24 1_555 1_555
C26 C25 1_555 1_555
C27 C26 1_555 1_555
H20 C27 1_555 1_555
C28 C27 1_555 1_555
H21 C28 1_555 1_555
C29 C28 1_555 1_555
H22 C29 1_555 1_555
C30 C24 1_555 1_555
C31 C30 1_555 1_555
H23 C31 1_555 1_555
H24 C31 1_555 1_555
C32 O4 1_555 1_555
C33 C26 1_555 1_555
C34 N2 1_555 1_555
C35 N2 1_555 1_555
H25 C35 1_555 1_555
H26 C35 1_555 1_555
H27 C35 1_555 1_555
C36 C29 1_555 1_555
H28 C36 1_555 1_555
C37 C23 1_555 1_555
H29 C37 1_555 1_555
C38 C20 1_555 1_555
H30 C38 1_555 1_555
C6 C16 1_555 1_555
C11 C12 1_555 1_555
C13 C14 1_555 1_555
C17 C18 1_555 1_555
C25 C34 1_555 1_555
C30 C32 1_555 1_555
C33 C36 1_555 1_555
C37 C38 1_555 1_555

#END
