
#######################################################################
#
#                 Cambridge Crystallographic Data Centre
#                                CCDC 
#
#######################################################################
#
# If this CIF has been generated from an entry in the Cambridge 
# Structural Database, then it will include bibliographic, chemical, 
# crystal, experimental, refinement or atomic coordinate data resulting 
# from the CCDC's data processing and validation procedures.
#
#######################################################################

data_SARMOP
_chemical_formula_moiety         
'C40 H30 F1 N9 O8,0.75(C1 H4 O1),0.13(C1 H2 Cl2)'
_chemical_name_systematic        
'Methyl 3-(((6-(((6-(((6-(((6-(((benzyloxy)carbonyl)amino)pyridin-2-yl)carbonyl)amino)pyridin-2-yl)carbonyl)amino)pyridin-2-yl)carbonyl)amino)pyridin-2-yl)carbonyl)amino)-2-fluorobenzoate methanol dichloromethane solvate'
_symmetry_cell_setting           orthorhombic
_symmetry_space_group_name_H-M   'P 21 21 21'
_symmetry_Int_Tables_number      19
_space_group_name_Hall           'P 2ac 2ab'
loop_
_symmetry_equiv_pos_site_id
_symmetry_equiv_pos_as_xyz
1 x,y,z
2 1/2-x,-y,1/2+z
3 -x,1/2+y,1/2-z
4 1/2+x,1/2-y,-z
_cell_length_a                   10.4183(10)
_cell_length_b                   13.6836(13)
_cell_length_c                   25.671(2)
_cell_angle_alpha                90
_cell_angle_beta                 90
_cell_angle_gamma                90
_cell_volume                     3659.65
_exptl_crystal_colour            colorless
_exptl_crystal_description       block
_cell_formula_units_Z            4
loop_
_atom_site_label
_atom_site_type_symbol
_atom_site_fract_x
_atom_site_fract_y
_atom_site_fract_z
O3 O 0.6298(5) -0.0482(5) 0.98849(18)
O4 O 0.6423(6) -0.1152(8) 0.9089(5)
N1 N 0.6668(6) 0.0491(4) 0.9188(2)
H11 H 0.7099 0.0882 0.9397
F1 F 0.3100(2) 0.17269(14) 0.91260(7)
O5 O 0.5532(2) 0.38847(17) 0.78902(8)
O6 O 0.4680(2) 0.64352(16) 1.04880(8)
O7 O 0.4328(3) 0.17769(18) 1.20849(9)
O8 O 0.3179(2) -0.15805(17) 0.97810(9)
O9 O 0.2535(3) 0.27703(17) 0.82949(10)
O10 O 0.2735(2) 0.20232(16) 0.75282(8)
N2 N 0.6109(3) 0.18511(19) 0.87108(10)
N3 N 0.5658(3) 0.37433(19) 0.87780(10)
H12 H 0.585(3) 0.3256(16) 0.8995(10)
N4 N 0.5228(3) 0.47373(19) 0.94694(10)
N5 N 0.4747(3) 0.4765(2) 1.04796(10)
H13 H 0.479(3) 0.4268(17) 1.0253(10)
N6 N 0.4497(3) 0.3567(2) 1.10856(9)
N7 N 0.4010(3) 0.1678(2) 1.12033(10)
H14 H 0.403(3) 0.2124(18) 1.0948(9)
N8 N 0.3661(3) 0.04602(19) 1.06100(9)
N9 N 0.3313(3) 0.0035(2) 0.95975(10)
H15 H 0.336(3) 0.0630(12) 0.9742(12)
C4 C 0.6732(3) -0.1186(2) 1.07128(12)
C5 C 0.6559(3) -0.1954(2) 1.10599(12)
H16 H 0.6366 -0.2589 1.0933
C6 C 0.6667(3) -0.1792(2) 1.15911(12)
H17 H 0.6542 -0.2318 1.1828
C7 C 0.6954(3) -0.0873(3) 1.17787(12)
H18 H 0.7037 -0.0769 1.2143
C8 C 0.7123(3) -0.0102(2) 1.14370(13)
H19 H 0.7313 0.0532 1.1566
C9 C 0.7013(3) -0.0259(2) 1.09050(12)
H20 H 0.7130 0.0270 1.0670
C10 C 0.6607(3) -0.1392(2) 1.01404(12)
H21 H 0.583(3) -0.172(2) 1.0063(12)
H22 H 0.733(3) -0.173(3) 1.0015(13)
C11 C 0.6458(2) -0.0456(2) 0.93592(11)
C12 C 0.6252(3) 0.0886(2) 0.87088(12)
C13 C 0.6167(3) 0.0322(2) 0.82528(12)
H23 H 0.6251 -0.0369 0.8263
C14 C 0.5959(3) 0.0803(2) 0.77958(12)
H24 H 0.5902 0.0444 0.7480
C15 C 0.5829(3) 0.1809(2) 0.77874(12)
H25 H 0.5692 0.2149 0.7469
C16 C 0.5906(3) 0.2306(2) 0.82532(11)
C17 C 0.5680(3) 0.3391(2) 0.82783(11)
C18 C 0.5419(3) 0.4692(2) 0.89552(11)
C19 C 0.5400(3) 0.5511(2) 0.86267(12)
H26 H 0.5550 0.5453 0.8263
C20 C 0.5156(3) 0.6402(2) 0.88541(13)
H27 H 0.5136 0.6974 0.8644
C21 C 0.4942(3) 0.6476(2) 0.93822(13)
H28 H 0.4765 0.7089 0.9540
C22 C 0.4993(3) 0.5628(2) 0.96747(12)
C23 C 0.4797(3) 0.5669(2) 1.02527(13)
C24 C 0.4652(3) 0.4519(2) 1.10068(12)
C25 C 0.4752(3) 0.5198(2) 1.14156(13)
H29 H 0.4836 0.5878 1.1349
C26 C 0.4723(3) 0.4840(3) 1.19176(13)
H30 H 0.4783 0.5278 1.2204
C27 C 0.4606(3) 0.3840(3) 1.20074(13)
H31 H 0.4618 0.3581 1.2351
C28 C 0.4471(3) 0.3240(2) 1.15769(12)
C29 C 0.4275(3) 0.2158(2) 1.16560(12)
C30 C 0.3812(3) 0.0686(2) 1.11127(12)
C31 C 0.3792(3) -0.0010(2) 1.15103(12)
H32 H 0.3897 0.0175 1.1864
C32 C 0.3618(3) -0.0966(2) 1.13741(13)
H33 H 0.3606 -0.1455 1.1636
C33 C 0.3457(3) -0.1228(2) 1.08546(12)
H34 H 0.3341 -0.1891 1.0754
C34 C 0.3474(3) -0.0483(2) 1.04897(12)
C35 C 0.3308(3) -0.0746(2) 0.99254(12)
C36 C 0.3174(3) 0.0041(2) 0.90545(12)
C37 C 0.3182(3) -0.0804(2) 0.87385(12)
H35 H 0.3271 -0.1434 0.8890
C38 C 0.3056(3) -0.0698(2) 0.82047(12)
H36 H 0.3077 -0.1264 0.7990
C39 C 0.2903(3) 0.0204(2) 0.79768(12)
H37 H 0.2813 0.0250 0.7609
C40 C 0.2878(3) 0.1048(2) 0.82771(12)
C41 C 0.3035(3) 0.0935(2) 0.88077(12)
C42 C 0.2700(3) 0.2038(2) 0.80477(12)
C43 C 0.2601(4) 0.2976(3) 0.72841(14)
H38 H 0.3251 0.3422 0.7424
H39 H 0.1743 0.3237 0.7356
H40 H 0.2718 0.2911 0.6907
C3 C 0.1338(8) 0.2810(8) 0.9783(4)
H7 H 0.2038 0.3275 0.9845
H8 H 0.1213 0.2726 0.9408
H9 H 0.1555 0.2179 0.9941
O2 O 0.0186(6) 0.3175(5) 1.0011(3)
H10 H -0.0034 0.3692 0.9859
C1? C 0.1421(17) 0.245(3) 0.9731(10)
H1? H 0.1456 0.2777 0.9386
H2? H 0.1519 0.1740 0.9684
Cl1? Cl 0.0022(7) 0.2727(7) 1.0051(3)
Cl2? Cl 0.2587(8) 0.2914(11) 1.0145(4)
C2? C 0.1341(8) 0.2664(9) 0.9901(4)
H3? H 0.1215 0.1985 1.0011
H4? H 0.1164 0.2722 0.9527
H5? H 0.0755 0.3090 1.0095
O1? O 0.2667(7) 0.2957(8) 1.0004(3)
H6? H 0.2705 0.3251 1.0291
H41? H 0.5992 0.0903 0.9468
N10? N 0.6205(6) 0.0497(4) 0.9216(2)
O11? O 0.6824(5) -0.0447(5) 0.98659(18)
O12? O 0.6370(6) -0.1152(8) 0.9091(5)
loop_
_geom_bond_atom_site_label_1
_geom_bond_atom_site_label_2
_geom_bond_site_symmetry_1
_geom_bond_site_symmetry_2
C3 H7 1_555 1_555
H8 C3 1_555 1_555
H9 C3 1_555 1_555
O2 C3 1_555 1_555
H10 O2 1_555 1_555
O3 C10 1_555 1_555
O4 C11 1_555 1_555
N1 H11 1_555 1_555
F1 C41 1_555 1_555
O5 C17 1_555 1_555
O6 C23 1_555 1_555
O7 C29 1_555 1_555
O8 C35 1_555 1_555
O9 C42 1_555 1_555
O10 C42 1_555 1_555
N2 C12 1_555 1_555
N3 H12 1_555 1_555
N4 C18 1_555 1_555
N5 H13 1_555 1_555
N6 C24 1_555 1_555
N7 H14 1_555 1_555
N8 C30 1_555 1_555
N9 H15 1_555 1_555
C4 C5 1_555 1_555
C5 H16 1_555 1_555
C6 C5 1_555 1_555
H17 C6 1_555 1_555
C7 C6 1_555 1_555
H18 C7 1_555 1_555
C8 C7 1_555 1_555
H19 C8 1_555 1_555
C9 C4 1_555 1_555
H20 C9 1_555 1_555
C10 C4 1_555 1_555
H21 C10 1_555 1_555
H22 C10 1_555 1_555
C11 O3 1_555 1_555
C12 N1 1_555 1_555
C13 C12 1_555 1_555
H23 C13 1_555 1_555
C14 C13 1_555 1_555
H24 C14 1_555 1_555
C15 C14 1_555 1_555
H25 C15 1_555 1_555
C16 N2 1_555 1_555
C17 N3 1_555 1_555
C18 N3 1_555 1_555
C19 C18 1_555 1_555
H26 C19 1_555 1_555
C20 C19 1_555 1_555
H27 C20 1_555 1_555
C21 C20 1_555 1_555
H28 C21 1_555 1_555
C22 N4 1_555 1_555
C23 N5 1_555 1_555
C24 N5 1_555 1_555
C25 C24 1_555 1_555
H29 C25 1_555 1_555
C26 C25 1_555 1_555
H30 C26 1_555 1_555
C27 C26 1_555 1_555
H31 C27 1_555 1_555
C28 N6 1_555 1_555
C29 N7 1_555 1_555
C30 N7 1_555 1_555
C31 C30 1_555 1_555
H32 C31 1_555 1_555
C32 C31 1_555 1_555
H33 C32 1_555 1_555
C33 C32 1_555 1_555
H34 C33 1_555 1_555
C34 N8 1_555 1_555
C35 N9 1_555 1_555
C36 N9 1_555 1_555
C37 C36 1_555 1_555
H35 C37 1_555 1_555
C38 C37 1_555 1_555
H36 C38 1_555 1_555
C39 C38 1_555 1_555
H37 C39 1_555 1_555
C40 C39 1_555 1_555
C41 C36 1_555 1_555
C42 C40 1_555 1_555
C43 O10 1_555 1_555
H38 C43 1_555 1_555
H39 C43 1_555 1_555
H40 C43 1_555 1_555
N1 C11 1_555 1_555
C8 C9 1_555 1_555
C15 C16 1_555 1_555
C16 C17 1_555 1_555
C21 C22 1_555 1_555
C22 C23 1_555 1_555
C27 C28 1_555 1_555
C28 C29 1_555 1_555
C33 C34 1_555 1_555
C34 C35 1_555 1_555
C40 C41 1_555 1_555

#END
