
#######################################################################
#
#                 Cambridge Crystallographic Data Centre
#                                CCDC 
#
#######################################################################
#
# If this CIF has been generated from an entry in the Cambridge 
# Structural Database, then it will include bibliographic, chemical, 
# crystal, experimental, refinement or atomic coordinate data resulting 
# from the CCDC's data processing and validation procedures.
#
#######################################################################

data_SARMUV
_chemical_formula_moiety         'C41 H33 N9 O9'
_chemical_name_systematic        
'Methyl 3-(((6-(((6-(((6-(((6-(((benzyloxy)carbonyl)amino)pyridin-2-yl)carbonyl)amino)pyridin-2-yl)carbonyl)amino)pyridin-2-yl)carbonyl)amino)pyridin-2-yl)carbonyl)amino)-2-methoxybenzoate'
_symmetry_cell_setting           monoclinic
_symmetry_space_group_name_H-M   'P 21/n'
_symmetry_Int_Tables_number      14
_space_group_name_Hall           '-P 2yn'
loop_
_symmetry_equiv_pos_site_id
_symmetry_equiv_pos_as_xyz
1 x,y,z
2 1/2-x,1/2+y,1/2-z
3 -x,-y,-z
4 1/2+x,1/2-y,1/2+z
_cell_length_a                   7.8466(7)
_cell_length_b                   33.387(3)
_cell_length_c                   14.0698(14)
_cell_angle_alpha                90
_cell_angle_beta                 94.602(2)
_cell_angle_gamma                90
_cell_volume                     3674.04
_exptl_crystal_colour            colorless
_exptl_crystal_description       block
_cell_formula_units_Z            4
loop_
_atom_site_label
_atom_site_type_symbol
_atom_site_fract_x
_atom_site_fract_y
_atom_site_fract_z
O1 O 0.1380(2) 0.16081(4) 0.70209(11)
O2 O 0.1500(2) 0.22043(4) 0.62704(12)
O3 O 0.5127(2) 0.12884(4) 0.19688(11)
O4 O 0.8439(2) -0.06375(5) 0.42426(12)
O5 O 0.7001(2) -0.00334(5) 0.93217(11)
O6 O 0.5022(2) 0.21021(4) 0.81382(12)
O7 O 0.67820(18) 0.13425(4) 0.53804(10)
O8 O 0.8784(2) 0.14701(4) 0.37931(12)
O9 O 0.7984(2) 0.20565(4) 0.31218(11)
N1 N 0.2271(2) 0.16149(5) 0.55753(14)
H1 H 0.235(3) 0.1351(3) 0.5680(17)
N2 N 0.3506(2) 0.14642(5) 0.42040(13)
N3 N 0.5395(2) 0.09227(5) 0.33496(13)
H2 H 0.525(3) 0.0936(7) 0.3970(8)
N4 N 0.6711(2) 0.03308(5) 0.37844(13)
N5 N 0.7766(2) -0.01336(5) 0.52490(14)
H3 H 0.727(3) 0.0110(4) 0.5236(17)
N6 N 0.7447(2) -0.00758(5) 0.68346(13)
N7 N 0.6162(2) 0.03897(5) 0.80878(13)
H4 H 0.629(3) 0.0409(7) 0.7461(8)
N8 N 0.5559(2) 0.10532(5) 0.80311(13)
N9 N 0.5811(2) 0.16801(5) 0.69611(13)
H5 H 0.591(3) 0.1419(3) 0.6847(16)
C1 C -0.0702(3) 0.16274(7) 0.92800(17)
H6 H -0.0925 0.1904 0.9365
C2 C -0.1206(3) 0.13517(8) 0.99391(17)
H7 H -0.1782 0.1440 1.0470
C3 C -0.0875(3) 0.09500(8) 0.98278(17)
H8 H -0.1218 0.0762 1.0281
C4 C -0.0043(3) 0.08218(7) 0.90539(18)
H9 H 0.0199 0.0545 0.8980
C5 C 0.0442(3) 0.10953(7) 0.83838(17)
H10 H 0.0992 0.1004 0.7846
C6 C 0.0129(3) 0.15009(7) 0.84934(16)
C7 C 0.0644(3) 0.18115(7) 0.77958(17)
H11 H -0.0368 0.1968 0.7550
H12 H 0.1489 0.1998 0.8114
C8 C 0.1697(3) 0.18488(6) 0.62809(16)
C9 C 0.2774(3) 0.17492(6) 0.46944(16)
C10 C 0.2525(3) 0.21402(7) 0.43669(17)
H13 H 0.1992 0.2335 0.4736
C11 C 0.3078(3) 0.22341(6) 0.34893(17)
H14 H 0.2941 0.2499 0.3247
C12 C 0.3834(3) 0.19437(6) 0.29578(17)
H15 H 0.4213 0.2002 0.2349
C13 C 0.4012(3) 0.15667(6) 0.33504(16)
C14 C 0.4894(3) 0.12476(6) 0.28128(16)
C15 C 0.6265(3) 0.05822(6) 0.30709(16)
C16 C 0.6602(3) 0.05064(6) 0.21217(16)
H16 H 0.6277 0.0692 0.1629
C17 C 0.7417(3) 0.01552(7) 0.19294(16)
H17 H 0.7666 0.0095 0.1295
C18 C 0.7879(3) -0.01128(6) 0.26594(16)
H18 H 0.8439 -0.0358 0.2537
C19 C 0.7494(3) -0.00108(6) 0.35702(16)
C20 C 0.7951(3) -0.02969(6) 0.43791(16)
C21 C 0.8054(3) -0.03016(6) 0.61612(16)
C22 C 0.8905(3) -0.06631(6) 0.63495(17)
H19 H 0.9351 -0.0814 0.5853
C23 C 0.9078(3) -0.07946(6) 0.72844(17)
H20 H 0.9648 -0.1040 0.7439
C24 C 0.8418(3) -0.05683(6) 0.79948(16)
H21 H 0.8509 -0.0656 0.8639
C25 C 0.7624(3) -0.02110(6) 0.77331(16)
C26 C 0.6902(3) 0.00525(6) 0.84769(16)
C27 C 0.5507(3) 0.07196(6) 0.85431(15)
C28 C 0.4857(3) 0.07054(7) 0.94369(16)
H22 H 0.4799 0.0461 0.9778
C29 C 0.4299(3) 0.10620(7) 0.98062(16)
H23 H 0.3831 0.1065 1.0408
C30 C 0.4422(3) 0.14135(7) 0.93022(16)
H24 H 0.4089 0.1662 0.9560
C31 C 0.5041(3) 0.13949(6) 0.84141(15)
C32 C 0.5271(3) 0.17668(6) 0.78304(16)
C33 C 0.6374(3) 0.19388(6) 0.62633(16)
C34 C 0.6973(3) 0.17518(6) 0.54557(15)
C35 C 0.7591(3) 0.19869(6) 0.47373(16)
C36 C 0.7612(3) 0.24017(6) 0.48310(16)
H25 H 0.8040 0.2562 0.4346
C37 C 0.7018(3) 0.25808(6) 0.56211(16)
H26 H 0.7049 0.2864 0.5679
C38 C 0.6375(3) 0.23526(6) 0.63340(16)
H27 H 0.5937 0.2479 0.6868
C39 C 0.8261(3) 0.11109(6) 0.57296(17)
H28 H 0.9262 0.1200 0.5413
H29 H 0.8051 0.0827 0.5593
H30 H 0.8471 0.1149 0.6420
C40 C 0.8190(3) 0.18007(6) 0.38575(16)
C41 C 0.8523(3) 0.19108(7) 0.22299(17)
H31 H 0.9752 0.1854 0.2300
H32 H 0.8288 0.2114 0.1735
H33 H 0.7896 0.1665 0.2048
loop_
_geom_bond_atom_site_label_1
_geom_bond_atom_site_label_2
_geom_bond_site_symmetry_1
_geom_bond_site_symmetry_2
O1 C7 1_555 1_555
O2 C8 1_555 1_555
O3 C14 1_555 1_555
O4 C20 1_555 1_555
O5 C26 1_555 1_555
O6 C32 1_555 1_555
O7 C34 1_555 1_555
O8 C40 1_555 1_555
O9 C40 1_555 1_555
N1 H1 1_555 1_555
N2 C9 1_555 1_555
N3 H2 1_555 1_555
N4 C15 1_555 1_555
N5 H3 1_555 1_555
N6 C21 1_555 1_555
N7 H4 1_555 1_555
N8 C27 1_555 1_555
N9 H5 1_555 1_555
C1 H6 1_555 1_555
C2 C1 1_555 1_555
H7 C2 1_555 1_555
C3 C2 1_555 1_555
H8 C3 1_555 1_555
C4 C3 1_555 1_555
H9 C4 1_555 1_555
C5 C4 1_555 1_555
H10 C5 1_555 1_555
C6 C1 1_555 1_555
C7 C6 1_555 1_555
H11 C7 1_555 1_555
H12 C7 1_555 1_555
C8 O1 1_555 1_555
C9 N1 1_555 1_555
C10 C9 1_555 1_555
H13 C10 1_555 1_555
C11 C10 1_555 1_555
H14 C11 1_555 1_555
C12 C11 1_555 1_555
H15 C12 1_555 1_555
C13 N2 1_555 1_555
C14 N3 1_555 1_555
C15 N3 1_555 1_555
C16 C15 1_555 1_555
H16 C16 1_555 1_555
C17 C16 1_555 1_555
H17 C17 1_555 1_555
C18 C17 1_555 1_555
H18 C18 1_555 1_555
C19 N4 1_555 1_555
C20 N5 1_555 1_555
C21 N5 1_555 1_555
C22 C21 1_555 1_555
H19 C22 1_555 1_555
C23 C22 1_555 1_555
H20 C23 1_555 1_555
C24 C23 1_555 1_555
H21 C24 1_555 1_555
C25 N6 1_555 1_555
C26 N7 1_555 1_555
C27 N7 1_555 1_555
C28 C27 1_555 1_555
H22 C28 1_555 1_555
C29 C28 1_555 1_555
H23 C29 1_555 1_555
C30 C29 1_555 1_555
H24 C30 1_555 1_555
C31 N8 1_555 1_555
C32 N9 1_555 1_555
C33 N9 1_555 1_555
C34 C33 1_555 1_555
C35 C34 1_555 1_555
C36 C35 1_555 1_555
H25 C36 1_555 1_555
C37 C36 1_555 1_555
H26 C37 1_555 1_555
C38 C33 1_555 1_555
H27 C38 1_555 1_555
C39 O7 1_555 1_555
H28 C39 1_555 1_555
H29 C39 1_555 1_555
H30 C39 1_555 1_555
C40 C35 1_555 1_555
C41 O9 1_555 1_555
H31 C41 1_555 1_555
H32 C41 1_555 1_555
H33 C41 1_555 1_555
N1 C8 1_555 1_555
C5 C6 1_555 1_555
C12 C13 1_555 1_555
C13 C14 1_555 1_555
C18 C19 1_555 1_555
C19 C20 1_555 1_555
C24 C25 1_555 1_555
C25 C26 1_555 1_555
C30 C31 1_555 1_555
C31 C32 1_555 1_555
C37 C38 1_555 1_555

#END
