
#######################################################################
#
#                 Cambridge Crystallographic Data Centre
#                                CCDC 
#
#######################################################################
#
# If this CIF has been generated from an entry in the Cambridge 
# Structural Database, then it will include bibliographic, chemical, 
# crystal, experimental, refinement or atomic coordinate data resulting 
# from the CCDC's data processing and validation procedures.
#
#######################################################################

data_SARMAB
_chemical_formula_moiety         'C39 H30 N10 O8,C1 H4 O1'
_chemical_name_systematic        
'M-Methyl 6-(((6-(((6-(((6-(((6-(((benzyloxy)carbonyl)amino)pyridin-2-yl)carbonyl)amino)pyridin-2-yl)carbonyl)amino)pyridin-2-yl)carbonyl)amino)pyridin-2-yl)carbonyl)amino)pyridine-2-carboxylate methanol solvate'
_symmetry_cell_setting           orthorhombic
_symmetry_space_group_name_H-M   'P 21 21 21'
_symmetry_Int_Tables_number      19
_space_group_name_Hall           'P 2ac 2ab'
loop_
_symmetry_equiv_pos_site_id
_symmetry_equiv_pos_as_xyz
1 x,y,z
2 1/2-x,-y,1/2+z
3 -x,1/2+y,1/2-z
4 1/2+x,1/2-y,-z
_cell_length_a                   10.3551(9)
_cell_length_b                   13.6824(11)
_cell_length_c                   25.595(2)
_cell_angle_alpha                90
_cell_angle_beta                 90
_cell_angle_gamma                90
_cell_volume                     3626.37
_exptl_crystal_colour            colorless
_exptl_crystal_description       block
_cell_formula_units_Z            4
loop_
_atom_site_label
_atom_site_type_symbol
_atom_site_fract_x
_atom_site_fract_y
_atom_site_fract_z
O1 O 0.7418(2) 0.20762(14) 0.24156(8)
O2 O 0.7340(2) 0.27202(15) 0.16115(8)
O3 O 0.7015(2) -0.16030(15) 0.02584(8)
O4 O 0.5730(3) 0.17348(17) -0.20441(8)
O5 O 0.5450(2) 0.64451(15) -0.04832(8)
O6 O 0.4492(2) 0.38902(15) 0.21195(8)
O7 O 0.3694(2) -0.11398(15) 0.08816(8)
O8 O 0.3596(2) -0.04347(15) 0.00859(8)
N1 N 0.7070(2) 0.09140(17) 0.11873(9)
N2 N 0.6808(2) 0.00190(17) 0.04453(9)
H1 H 0.675(3) 0.0598(16) 0.0300(12)
N3 N 0.6404(2) 0.04197(18) -0.05683(9)
N4 N 0.5920(3) 0.16209(18) -0.11537(9)
H2 H 0.587(3) 0.200(2) -0.0880(10)
N5 N 0.5543(2) 0.35378(18) -0.10468(9)
N6 N 0.5332(3) 0.47757(18) -0.04564(10)
H3 H 0.519(3) 0.435(2) -0.0203(10)
N7 N 0.4833(2) 0.47825(17) 0.05459(9)
N8 N 0.4385(3) 0.37733(18) 0.12285(9)
H4 H 0.436(3) 0.3336(19) 0.0989(10)
N9 N 0.3982(2) 0.18748(17) 0.12713(9)
N10 N 0.3714(3) 0.05271(18) 0.07610(9)
H5 H 0.369(3) 0.1000(19) 0.0524(10)
C1 C 0.7518(4) 0.3064(2) 0.26206(13)
H6 H 0.8322 0.3363 0.2498
H7 H 0.7518 0.3042 0.3003
H8 H 0.6781 0.3451 0.2499
C2 C 0.7325(3) 0.2025(2) 0.18934(12)
C3 C 0.7186(3) 0.0989(2) 0.17122(12)
C4 C 0.7159(3) 0.0198(2) 0.20436(11)
H9 H 0.7240 0.0281 0.2411
C5 C 0.7013(3) -0.0721(2) 0.18281(11)
H10 H 0.6992 -0.1279 0.2049
C6 C 0.6897(3) -0.0833(2) 0.12946(11)
H11 H 0.6799 -0.1460 0.1140
C7 C 0.6931(3) 0.0022(2) 0.09884(11)
C8 C 0.6838(3) -0.0767(2) 0.01172(11)
C9 C 0.6645(3) -0.0516(2) -0.04518(11)
C10 C 0.6691(3) -0.1265(2) -0.08130(11)
H12 H 0.6854 -0.1921 -0.0711
C11 C 0.6486(3) -0.1014(2) -0.13369(11)
H13 H 0.6523 -0.1503 -0.1600
C12 C 0.6228(3) -0.0053(2) -0.14721(12)
H14 H 0.6088 0.0131 -0.1826
C13 C 0.6182(3) 0.0636(2) -0.10696(11)
C14 C 0.5730(3) 0.2108(2) -0.16109(12)
C15 C 0.5561(3) 0.3197(2) -0.15376(11)
C16 C 0.5423(3) 0.3789(2) -0.19742(11)
H15 H 0.5401 0.3519 -0.2316
C17 C 0.5319(3) 0.4784(2) -0.18952(12)
H16 H 0.5235 0.5210 -0.2187
C18 C 0.5336(3) 0.5167(2) -0.13959(12)
H17 H 0.5298 0.5851 -0.1336
C19 C 0.5413(3) 0.4493(2) -0.09788(11)
C20 C 0.5307(3) 0.5677(2) -0.02412(11)
C21 C 0.5087(3) 0.5666(2) 0.03422(11)
C22 C 0.5145(3) 0.6510(2) 0.06336(12)
H18 H 0.5334 0.7121 0.0475
C23 C 0.4921(3) 0.6441(2) 0.11638(12)
H19 H 0.4942 0.7012 0.1375
C24 C 0.4665(3) 0.5540(2) 0.13880(11)
H20 H 0.4517 0.5479 0.1753
C25 C 0.4633(3) 0.4725(2) 0.10595(11)
C26 C 0.4347(3) 0.3405(2) 0.17198(11)
C27 C 0.4145(3) 0.2321(2) 0.17322(11)
C28 C 0.4194(3) 0.1816(2) 0.22025(11)
H21 H 0.4304 0.2149 0.2525
C29 C 0.4075(3) 0.0799(2) 0.21824(12)
H22 H 0.4119 0.0430 0.2496
C30 C 0.3898(3) 0.0329(2) 0.17177(11)
H23 H 0.3806 -0.0361 0.1702
C31 C 0.3857(3) 0.0903(2) 0.12629(11)
C32 C 0.3664(3) -0.0431(2) 0.06095(11)
C33 C 0.3519(3) -0.1372(2) -0.01717(11)
H24 H 0.2768 -0.1746 -0.0040
H25 H 0.4312 -0.1757 -0.0105
C34 C 0.3375(3) -0.1175(2) -0.07501(11)
C35 C 0.3563(3) -0.1938(2) -0.10971(11)
H26 H 0.3794 -0.2566 -0.0970
C36 C 0.3415(3) -0.1790(2) -0.16313(11)
H27 H 0.3532 -0.2318 -0.1868
C37 C 0.3098(3) -0.0874(2) -0.18168(11)
H28 H 0.3003 -0.0772 -0.2182
C38 C 0.2916(3) -0.0097(2) -0.14735(12)
H29 H 0.2697 0.0533 -0.1602
C39 C 0.3057(3) -0.0255(2) -0.09418(11)
H30 H 0.2936 0.0272 -0.0705
C40 C 0.7520(7) 0.2573(5) 0.0183(3)
H31 H 0.7879 0.3146 0.0361
H32 H 0.7402 0.2719 -0.0189
H33 H 0.8114 0.2020 0.0222
O9 O 0.6375(4) 0.2344(3) 0.03969(15)
H34 H 0.5843 0.2213 0.0159
C41? C 0.8179(13) 0.2498(10) 0.0178(6)
H35? H 0.9800 0.2834 -0.0163
H36? H 0.8383 0.2025 0.0453
H37? H 0.7921 0.2148 -0.0140
H38? H 0.7468 0.2919 0.0293
O10? O 0.9345(11) 0.3111(8) 0.0065(5)
loop_
_geom_bond_atom_site_label_1
_geom_bond_atom_site_label_2
_geom_bond_site_symmetry_1
_geom_bond_site_symmetry_2
O1 C1 1_555 1_555
O2 C2 1_555 1_555
O3 C8 1_555 1_555
O4 C14 1_555 1_555
O5 C20 1_555 1_555
O6 C26 1_555 1_555
O7 C32 1_555 1_555
O8 C32 1_555 1_555
N1 C3 1_555 1_555
N2 H1 1_555 1_555
N3 C9 1_555 1_555
N4 H2 1_555 1_555
N5 C15 1_555 1_555
N6 H3 1_555 1_555
N7 C21 1_555 1_555
N8 H4 1_555 1_555
N9 C27 1_555 1_555
N10 H5 1_555 1_555
C1 H6 1_555 1_555
H7 C1 1_555 1_555
H8 C1 1_555 1_555
C2 O1 1_555 1_555
C3 C2 1_555 1_555
C4 C3 1_555 1_555
H9 C4 1_555 1_555
C5 C4 1_555 1_555
H10 C5 1_555 1_555
C6 C5 1_555 1_555
H11 C6 1_555 1_555
C7 N1 1_555 1_555
C8 N2 1_555 1_555
C9 C8 1_555 1_555
C10 C9 1_555 1_555
H12 C10 1_555 1_555
C11 C10 1_555 1_555
H13 C11 1_555 1_555
C12 C11 1_555 1_555
H14 C12 1_555 1_555
C13 N3 1_555 1_555
C14 N4 1_555 1_555
C15 C14 1_555 1_555
C16 C15 1_555 1_555
H15 C16 1_555 1_555
C17 C16 1_555 1_555
H16 C17 1_555 1_555
C18 C17 1_555 1_555
H17 C18 1_555 1_555
C19 N5 1_555 1_555
C20 N6 1_555 1_555
C21 C20 1_555 1_555
C22 C21 1_555 1_555
H18 C22 1_555 1_555
C23 C22 1_555 1_555
H19 C23 1_555 1_555
C24 C23 1_555 1_555
H20 C24 1_555 1_555
C25 N7 1_555 1_555
C26 N8 1_555 1_555
C27 C26 1_555 1_555
C28 C27 1_555 1_555
H21 C28 1_555 1_555
C29 C28 1_555 1_555
H22 C29 1_555 1_555
C30 C29 1_555 1_555
H23 C30 1_555 1_555
C31 N9 1_555 1_555
C32 N10 1_555 1_555
C33 O8 1_555 1_555
H24 C33 1_555 1_555
H25 C33 1_555 1_555
C34 C33 1_555 1_555
C35 C34 1_555 1_555
H26 C35 1_555 1_555
C36 C35 1_555 1_555
H27 C36 1_555 1_555
C37 C36 1_555 1_555
H28 C37 1_555 1_555
C38 C37 1_555 1_555
H29 C38 1_555 1_555
C39 C34 1_555 1_555
H30 C39 1_555 1_555
C40 H31 1_555 1_555
H32 C40 1_555 1_555
H33 C40 1_555 1_555
O9 C40 1_555 1_555
H34 O9 1_555 1_555
N2 C7 1_555 1_555
N4 C13 1_555 1_555
N6 C19 1_555 1_555
N8 C25 1_555 1_555
N10 C31 1_555 1_555
C6 C7 1_555 1_555
C12 C13 1_555 1_555
C18 C19 1_555 1_555
C24 C25 1_555 1_555
C30 C31 1_555 1_555
C38 C39 1_555 1_555

#END
