
#######################################################################
#
#                 Cambridge Crystallographic Data Centre
#                                CCDC 
#
#######################################################################
#
# If this CIF has been generated from an entry in the Cambridge 
# Structural Database, then it will include bibliographic, chemical, 
# crystal, experimental, refinement or atomic coordinate data resulting 
# from the CCDC's data processing and validation procedures.
#
#######################################################################

data_SARNUW
_chemical_formula_moiety         'C108 H168 N12'
_chemical_name_systematic        
3,6,10,13,17,20,24,27,30,33,36,39-dodeca-n-pentyl-3,6,10,13,17,20,24,27,30,33,36,39-dodecaaza-1,8,15,22(1,3,5)-tetrabenzenatricyclo[13.13.6.68,22]tetracontaphane-2,6,9,13,16,20,23,27,29,33,35,39-dodecaene
_symmetry_cell_setting           orthorhombic
_symmetry_space_group_name_H-M   'C 2 2 21'
_symmetry_Int_Tables_number      20
_space_group_name_Hall           'C 2n 2'
loop_
_symmetry_equiv_pos_site_id
_symmetry_equiv_pos_as_xyz
1 x,y,z
2 -x,-y,1/2+z
3 -x,y,1/2-z
4 x,-y,-z
5 1/2+x,1/2+y,z
6 1/2-x,1/2-y,1/2+z
7 1/2-x,1/2+y,1/2-z
8 1/2+x,1/2-y,-z
_cell_length_a                   18.9708(7)
_cell_length_b                   25.2751(7)
_cell_length_c                   26.5778(7)
_cell_angle_alpha                90
_cell_angle_beta                 90
_cell_angle_gamma                90
_cell_volume                     12743.8
_exptl_crystal_colour            colorless
_exptl_crystal_description       block
_cell_formula_units_Z            4
loop_
_atom_site_label
_atom_site_type_symbol
_atom_site_fract_x
_atom_site_fract_y
_atom_site_fract_z
N1 N 0.3637(3) 0.6238(2) 0.1791(2)
N2 N 0.1254(3) 0.5058(2) 0.0519(2)
N3 N 0.3505(3) 0.3688(2) 0.1735(2)
N4 N 0.4459(3) 0.6896(2) 0.11802(19)
N5 N 0.6866(3) 0.5571(3) 0.0058(2)
N6 N 0.4600(3) 0.6838(2) -0.1233(2)
C1 C 0.3021(3) 0.5504(3) 0.1401(3)
C2 C 0.2445(3) 0.5381(3) 0.1101(3)
H1 H 0.2164 0.5657 0.0965
C3 C 0.2276(3) 0.4856(3) 0.0997(3)
C4 C 0.2683(3) 0.4463(3) 0.1205(3)
H2 H 0.2573 0.4102 0.1140
C5 C 0.3269(3) 0.4590(3) 0.1520(3)
C6 C 0.3428(3) 0.5104(3) 0.1593(3)
H3 H 0.3835 0.5192 0.1783
C7 C 0.3157(4) 0.6079(3) 0.1509(3)
H4 H 0.2861 0.6334 0.1355
C8 C 0.1650(3) 0.4717(3) 0.0697(3)
H5 H 0.1548 0.4354 0.0639
C9 C 0.3668(3) 0.4159(3) 0.1768(3)
H6 H 0.4071 0.4250 0.1963
C10 C 0.5111(3) 0.6491(3) 0.0507(3)
C11 C 0.5689(3) 0.6175(3) 0.0375(2)
H7 H 0.5976 0.6028 0.0632
C12 C 0.5846(4) 0.6075(3) -0.0118(3)
C13 C 0.5426(4) 0.6291(3) -0.0493(3)
H8 H 0.5534 0.6220 -0.0835
C14 C 0.4856(4) 0.6604(3) -0.0380(2)
C15 C 0.4695(4) 0.6692(3) 0.0123(2)
H9 H 0.4290 0.6895 0.0205
C16 C 0.4953(4) 0.6593(3) 0.1034(3)
H10 H 0.5234 0.6423 0.1282
C17 C 0.6467(3) 0.5748(3) -0.0259(3)
H11 H 0.6555 0.5676 -0.0605
C18 C 0.4414(4) 0.6862(3) -0.0776(3)
H12 H 0.3994 0.7044 -0.0685
C19 C 0.3686(4) 0.6801(3) 0.1900(3)
H13 H 0.3319 0.6978 0.1688
C20 C 0.3509(12) 0.6935(10) 0.2445(7)
H14 H 0.3514 0.7325 0.2484
H15 H 0.3882 0.6788 0.2664
C21 C 0.2773(14) 0.6720(14) 0.2630(8)
H16 H 0.2693 0.6353 0.2513
H17 H 0.2383 0.6947 0.2508
C22 C 0.2832(11) 0.6743(10) 0.3242(7)
H18 H 0.3228 0.6522 0.3362
H19 H 0.2907 0.7111 0.3358
C23 C 0.2141(10) 0.6533(8) 0.3432(7)
H20 H 0.2036 0.6675 0.3771
H21 H 0.1752 0.6631 0.3202
C24 C 0.2229(18) 0.5943(10) 0.3451(14)
H22 H 0.1792 0.5780 0.3573
H23 H 0.2616 0.5853 0.3679
H24 H 0.2336 0.5810 0.3113
C25 C 0.4392(4) 0.7006(3) 0.1714(2)
H25 H 0.4783 0.6828 0.1902
C26 C 0.4442(9) 0.7612(6) 0.1785(12)
H26 H 0.4076 0.7787 0.1579
H27 H 0.4353 0.7701 0.2142
C27 C 0.5173(8) 0.7819(5) 0.1630(9)
H28 H 0.5539 0.7634 0.1829
H29 H 0.5255 0.7737 0.1271
C28 C 0.5250(6) 0.8419(5) 0.1711(5)
H30 H 0.5135 0.8501 0.2065
H31 H 0.4900 0.8603 0.1496
C29 C 0.5983(7) 0.8638(5) 0.1592(5)
H32 H 0.6116 0.8533 0.1246
H33 H 0.5965 0.9030 0.1603
C30 C 0.6554(6) 0.8443(6) 0.1963(6)
H34 H 0.7012 0.8588 0.1865
H35 H 0.6574 0.8055 0.1955
H36 H 0.6436 0.8561 0.2304
C31 C 0.0603(3) 0.4894(3) 0.0259(3)
H37 H 0.0594 0.4499 0.0241
C32 C -0.0020(6) 0.5080(6) 0.0594(4)
H38 H 0.0009 0.5470 0.0629
H39 H -0.0465 0.4999 0.0417
C33 C -0.0060(6) 0.4844(7) 0.1115(5)
H40 H -0.0013 0.4455 0.1090
H41 H 0.0340 0.4977 0.1318
C34 C -0.0743(7) 0.4975(7) 0.1382(5)
H42 H -0.0804 0.5364 0.1383
H43 H -0.1139 0.4822 0.1188
C35 C -0.0790(10) 0.4779(8) 0.1916(6)
H44 H -0.0456 0.4976 0.2132
H45 H -0.0666 0.4399 0.1930
C36 C -0.1579(8) 0.4866(9) 0.2111(6)
H46 H -0.1619 0.4739 0.2459
H47 H -0.1906 0.4667 0.1897
H48 H -0.1697 0.5243 0.2098
C37 C 0.3930(4) 0.3286(3) 0.1998(3)
H49 H 0.4348 0.3451 0.2164
C38 C 0.3457(8) 0.3013(7) 0.2386(5)
H50 H 0.3723 0.2724 0.2551
H51 H 0.3045 0.2855 0.2214
C39 C 0.3194(12) 0.3419(9) 0.2798(6)
H52 H 0.3600 0.3539 0.3002
H53 H 0.2986 0.3732 0.2631
C40 C 0.2626(14) 0.3156(9) 0.3154(8)
H54 H 0.2286 0.2943 0.2958
H55 H 0.2366 0.3428 0.3347
C41 C 0.3069(16) 0.2800(10) 0.3509(8)
H56 H 0.3156 0.2456 0.3342
H57 H 0.3532 0.2970 0.3569
C42 C 0.269(2) 0.2696(16) 0.4045(8)
H58 H 0.2970 0.2447 0.4243
H59 H 0.2218 0.2546 0.3988
H60 H 0.2644 0.3031 0.4228
C43 C 0.7501(3) 0.5266(3) -0.0124(3)
H61 H 0.7499 0.5231 -0.0499
C44 C 0.8135(16) 0.5614(11) 0.0060(14)
H62 H 0.8575 0.5405 0.0051
H63 H 0.8053 0.5728 0.0412
C45 C 0.8210(10) 0.6118(8) -0.0292(9)
H64 H 0.7833 0.6380 -0.0226
H65 H 0.8203 0.6019 -0.0653
C46 C 0.8983(11) 0.6341(12) -0.0121(13)
H66 H 0.8918 0.6722 -0.0051
H67 H 0.9088 0.6171 0.0206
C47 C 0.9600(12) 0.6301(13) -0.0406(14)
H68 H 0.9496 0.6352 -0.0767
H69 H 0.9818 0.5948 -0.0360
C48 C 1.0113(18) 0.6749(16) -0.021(2)
H70 H 1.0541 0.6752 -0.0417
H71 H 1.0239 0.6678 0.0141
H72 H 0.9877 0.7093 -0.0234
C49 C 0.4162(4) 0.7119(3) -0.1603(3)
H73 H 0.3731 0.7250 -0.1427
C50 C 0.4582(11) 0.7601(6) -0.1786(6)
H74 H 0.4290 0.7802 -0.2028
H75 H 0.5006 0.7476 -0.1967
C51 C 0.4821(11) 0.7989(6) -0.1345(6)
H76 H 0.4416 0.8049 -0.1118
H77 H 0.5197 0.7814 -0.1147
C52 C 0.5108(8) 0.8550(6) -0.1539(6)
H78 H 0.4760 0.8705 -0.1775
H79 H 0.5155 0.8793 -0.1249
C53 C 0.5799(8) 0.8502(6) -0.1797(7)
H80 H 0.5756 0.8242 -0.2074
H81 H 0.6151 0.8364 -0.1555
C54 C 0.6077(10) 0.9039(7) -0.2019(7)
H82 H 0.6533 0.8981 -0.2183
H83 H 0.6132 0.9297 -0.1747
H84 H 0.5739 0.9174 -0.2267
N1C N 0.3637(3) 0.3762(2) -0.1791(2)
N2C N 0.1254(3) 0.4942(2) -0.0519(2)
N3C N 0.3505(3) 0.6312(2) -0.1735(2)
N4C N 0.4459(3) 0.3104(2) -0.11802(19)
N5C N 0.6866(3) 0.4429(3) -0.0058(2)
N6C N 0.4600(3) 0.3162(2) 0.1233(2)
C1C C 0.3021(3) 0.4496(3) -0.1401(3)
C2C C 0.2445(3) 0.4619(3) -0.1101(3)
H1C H 0.2164 0.4343 -0.0965
C3C C 0.2276(3) 0.5144(3) -0.0997(3)
C4C C 0.2683(3) 0.5537(3) -0.1205(3)
H2C H 0.2573 0.5898 -0.1140
C5C C 0.3269(3) 0.5410(3) -0.1520(3)
C6C C 0.3428(3) 0.4896(3) -0.1593(3)
H3C H 0.3835 0.4808 -0.1783
C7C C 0.3157(4) 0.3921(3) -0.1509(3)
H4C H 0.2861 0.3666 -0.1355
C8C C 0.1650(3) 0.5283(3) -0.0697(3)
H5C H 0.1548 0.5646 -0.0639
C9C C 0.3668(3) 0.5841(3) -0.1768(3)
H6C H 0.4071 0.5750 -0.1963
C10C C 0.5111(3) 0.3509(3) -0.0507(3)
C11C C 0.5689(3) 0.3825(3) -0.0375(2)
H7C H 0.5976 0.3972 -0.0632
C12C C 0.5846(4) 0.3925(3) 0.0118(3)
C13C C 0.5426(4) 0.3709(3) 0.0493(3)
H8C H 0.5534 0.3780 0.0835
C14C C 0.4856(4) 0.3396(3) 0.0380(2)
C15C C 0.4695(4) 0.3308(3) -0.0123(2)
H9C H 0.4290 0.3105 -0.0205
C16C C 0.4953(4) 0.3407(3) -0.1034(3)
H10C H 0.5234 0.3577 -0.1282
C17C C 0.6467(3) 0.4252(3) 0.0259(3)
H11C H 0.6555 0.4324 0.0605
C18C C 0.4414(4) 0.3138(3) 0.0776(3)
H12C H 0.3994 0.2956 0.0685
C19C C 0.3686(4) 0.3199(3) -0.1900(3)
H13C H 0.3319 0.3022 -0.1688
C20C C 0.3509(12) 0.3065(10) -0.2445(7)
H14C H 0.3514 0.2675 -0.2484
H15C H 0.3882 0.3212 -0.2664
C21C C 0.2773(14) 0.3280(14) -0.2630(8)
H16C H 0.2693 0.3647 -0.2513
H17C H 0.2383 0.3053 -0.2508
C22C C 0.2832(11) 0.3257(10) -0.3242(7)
H18C H 0.3228 0.3478 -0.3362
H19C H 0.2907 0.2889 -0.3358
C23C C 0.2141(10) 0.3467(8) -0.3432(7)
H20C H 0.2036 0.3325 -0.3771
H21C H 0.1752 0.3369 -0.3202
C24C C 0.2229(18) 0.4057(10) -0.3451(14)
H22C H 0.1792 0.4220 -0.3573
H23C H 0.2616 0.4147 -0.3679
H24C H 0.2336 0.4190 -0.3113
C25C C 0.4392(4) 0.2994(3) -0.1714(2)
H25C H 0.4783 0.3172 -0.1902
C26C C 0.4442(9) 0.2388(6) -0.1785(12)
H26C H 0.4076 0.2213 -0.1579
H27C H 0.4353 0.2299 -0.2142
C27C C 0.5173(8) 0.2181(5) -0.1630(9)
H28C H 0.5539 0.2366 -0.1829
H29C H 0.5255 0.2263 -0.1271
C28C C 0.5250(6) 0.1581(5) -0.1711(5)
H30C H 0.5135 0.1499 -0.2065
H31C H 0.4900 0.1397 -0.1496
C29C C 0.5983(7) 0.1362(5) -0.1592(5)
H32C H 0.6116 0.1467 -0.1246
H33C H 0.5965 0.0970 -0.1603
C30C C 0.6554(6) 0.1557(6) -0.1963(6)
H34C H 0.7012 0.1412 -0.1865
H35C H 0.6574 0.1945 -0.1955
H36C H 0.6436 0.1439 -0.2304
C31C C 0.0603(3) 0.5106(3) -0.0259(3)
H37C H 0.0594 0.5501 -0.0241
C32C C -0.0020(6) 0.4920(6) -0.0594(4)
H38C H 0.0009 0.4530 -0.0629
H39C H -0.0465 0.5001 -0.0417
C33C C -0.0060(6) 0.5156(7) -0.1115(5)
H40C H -0.0013 0.5545 -0.1090
H41C H 0.0340 0.5023 -0.1318
C34C C -0.0743(7) 0.5025(7) -0.1382(5)
H42C H -0.0804 0.4636 -0.1383
H43C H -0.1139 0.5178 -0.1188
C35C C -0.0790(10) 0.5221(8) -0.1916(6)
H44C H -0.0456 0.5024 -0.2132
H45C H -0.0666 0.5601 -0.1930
C36C C -0.1579(8) 0.5134(9) -0.2111(6)
H46C H -0.1619 0.5261 -0.2459
H47C H -0.1906 0.5333 -0.1897
H48C H -0.1697 0.4757 -0.2098
C37C C 0.3930(4) 0.6714(3) -0.1998(3)
H49C H 0.4348 0.6549 -0.2164
C38C C 0.3457(8) 0.6987(7) -0.2386(5)
H50C H 0.3723 0.7276 -0.2551
H51C H 0.3045 0.7145 -0.2214
C39C C 0.3194(12) 0.6581(9) -0.2798(6)
H52C H 0.3600 0.6461 -0.3002
H53C H 0.2986 0.6268 -0.2631
C40C C 0.2626(14) 0.6844(9) -0.3154(8)
H54C H 0.2286 0.7057 -0.2958
H55C H 0.2366 0.6572 -0.3347
C41C C 0.3069(16) 0.7200(10) -0.3509(8)
H56C H 0.3156 0.7544 -0.3342
H57C H 0.3532 0.7030 -0.3569
C42C C 0.269(2) 0.7304(16) -0.4045(8)
H58C H 0.2970 0.7553 -0.4243
H59C H 0.2218 0.7454 -0.3988
H60C H 0.2644 0.6969 -0.4228
C43C C 0.7501(3) 0.4734(3) 0.0124(3)
H61C H 0.7499 0.4769 0.0499
C44C C 0.8135(16) 0.4386(11) -0.0060(14)
H62C H 0.8575 0.4595 -0.0051
H63C H 0.8053 0.4272 -0.0412
C45C C 0.8210(10) 0.3882(8) 0.0292(9)
H64C H 0.7833 0.3620 0.0226
H65C H 0.8203 0.3981 0.0653
C46C C 0.8983(11) 0.3659(12) 0.0121(13)
H66C H 0.8918 0.3278 0.0051
H67C H 0.9088 0.3829 -0.0206
C47C C 0.9600(12) 0.3699(13) 0.0406(14)
H68C H 0.9496 0.3648 0.0767
H69C H 0.9818 0.4052 0.0360
C48C C 1.0113(18) 0.3251(16) 0.021(2)
H70C H 1.0541 0.3248 0.0417
H71C H 1.0239 0.3322 -0.0141
H72C H 0.9877 0.2907 0.0234
C49C C 0.4162(4) 0.2881(3) 0.1603(3)
H73C H 0.3731 0.2750 0.1427
C50C C 0.4582(11) 0.2399(6) 0.1786(6)
H74C H 0.4290 0.2198 0.2028
H75C H 0.5006 0.2524 0.1967
C51C C 0.4821(11) 0.2011(6) 0.1345(6)
H76C H 0.4416 0.1951 0.1118
H77C H 0.5197 0.2186 0.1147
C52C C 0.5108(8) 0.1450(6) 0.1539(6)
H78C H 0.4760 0.1295 0.1775
H79C H 0.5155 0.1207 0.1249
C53C C 0.5799(8) 0.1498(6) 0.1797(7)
H80C H 0.5756 0.1758 0.2074
H81C H 0.6151 0.1636 0.1555
C54C C 0.6077(10) 0.0961(7) 0.2019(7)
H82C H 0.6533 0.1019 0.2183
H83C H 0.6132 0.0703 0.1747
H84C H 0.5739 0.0826 0.2267
C55? C 0.3686(4) 0.6801(3) 0.1900(3)
C56? C 0.3640(19) 0.6835(15) 0.2469(10)
C57? C 0.290(2) 0.6637(19) 0.2646(12)
C58? C 0.2559(17) 0.6824(14) 0.3143(9)
C59? C 0.2793(15) 0.6549(14) 0.3584(9)
C60? C 0.2108(14) 0.6564(12) 0.3965(7)
C61? C 0.4392(4) 0.7006(3) 0.1714(2)
C62? C 0.458(3) 0.7589(15) 0.182(3)
C63? C 0.533(2) 0.7750(17) 0.166(3)
C64? C 0.5525(18) 0.8325(14) 0.1805(16)
C65? C 0.629(2) 0.8494(16) 0.1697(19)
C66? C 0.636(2) 0.9036(14) 0.2008(13)
C67? C 0.0603(3) 0.4894(3) 0.0259(3)
C68? C -0.010(2) 0.503(3) 0.0485(18)
C69? C -0.020(3) 0.479(3) 0.1002(17)
C70? C -0.093(3) 0.494(3) 0.1252(19)
C71? C -0.096(3) 0.466(3) 0.1753(19)
C72? C -0.169(3) 0.437(3) 0.181(2)
C73? C 0.3930(4) 0.3286(3) 0.1998(3)
C74? C 0.3631(19) 0.3077(13) 0.2491(10)
C75? C 0.348(2) 0.3487(16) 0.2902(10)
C76? C 0.303(2) 0.3259(16) 0.3351(11)
C77? C 0.339(2) 0.2967(16) 0.3772(13)
C78? C 0.291(3) 0.275(3) 0.4233(17)
C79? C 0.7501(3) 0.5266(3) -0.0124(3)
C80? C 0.8183(16) 0.5592(11) -0.0004(16)
C81? C 0.8092(12) 0.6195(9) -0.0077(13)
C82? C 0.8698(12) 0.6541(12) 0.0162(13)
C83? C 0.9293(13) 0.6555(14) -0.0104(15)
C84? C 0.9959(14) 0.6883(15) -0.0134(19)
C85? C 0.4162(4) 0.7119(3) -0.1603(3)
C86? C 0.4631(15) 0.7481(10) -0.1912(10)
C87? C 0.4890(15) 0.7910(9) -0.1552(10)
C88? C 0.5288(12) 0.8376(8) -0.1836(9)
C89? C 0.5604(12) 0.8758(8) -0.1499(9)
C90? C 0.6038(19) 0.9194(11) -0.1805(11)
H85? H 0.3289 0.6999 0.1739
H86? H 0.3712 0.7205 0.2579
H87? H 0.4014 0.6614 0.2623
H88? H 0.2565 0.6723 0.2374
H89? H 0.2928 0.6246 0.2663
H90? H 0.2659 0.7206 0.3187
H91? H 0.2042 0.6783 0.3114
H92? H 0.3203 0.6730 0.3737
H93? H 0.2925 0.6180 0.3502
H94? H 0.2244 0.6422 0.4294
H95? H 0.1727 0.6348 0.3823
H96? H 0.1946 0.6930 0.4004
H97? H 0.4760 0.6788 0.1886
H98? H 0.4243 0.7817 0.1636
H99? H 0.4526 0.7658 0.2181
H100? H 0.5372 0.7708 0.1295
H101? H 0.5666 0.7506 0.1824
H102? H 0.5434 0.8373 0.2169
H103? H 0.5205 0.8567 0.1622
H104? H 0.6362 0.8553 0.1333
H105? H 0.6627 0.8225 0.1818
H106? H 0.6846 0.9163 0.1989
H107? H 0.6233 0.8973 0.2361
H108? H 0.6042 0.9302 0.1865
H109? H 0.0618 0.4500 0.0230
H110? H -0.0481 0.4913 0.0257
H111? H -0.0138 0.5424 0.0515
H112? H 0.0185 0.4898 0.1225
H113? H -0.0182 0.4396 0.0969
H114? H -0.0956 0.5332 0.1305
H115? H -0.1331 0.4836 0.1035
H116? H -0.0577 0.4395 0.1772
H117? H -0.0903 0.4913 0.2031
H118? H -0.1704 0.4188 0.2141
H119? H -0.1740 0.4104 0.1544
H120? H -0.2071 0.4625 0.1792
H121? H 0.4373 0.3474 0.2096
H122? H 0.3188 0.2886 0.2416
H123? H 0.3968 0.2815 0.2629
H124? H 0.3219 0.3788 0.2750
H125? H 0.3929 0.3623 0.3035
H126? H 0.2770 0.3559 0.3503
H127? H 0.2672 0.3018 0.3206
H128? H 0.3751 0.3205 0.3915
H129? H 0.3637 0.2661 0.3623
H130? H 0.3221 0.2633 0.4507
H131? H 0.2625 0.2452 0.4117
H132? H 0.2604 0.3034 0.4354
H133? H 0.7464 0.5216 -0.0497
H134? H 0.8324 0.5523 0.0348
H135? H 0.8569 0.5467 -0.0225
H136? H 0.7637 0.6303 0.0073
H137? H 0.8069 0.6271 -0.0442
H138? H 0.8523 0.6907 0.0204
H139? H 0.8805 0.6400 0.0501
H140? H 0.9117 0.6566 -0.0454
H141? H 0.9479 0.6192 -0.0060
H142? H 1.0312 0.6694 -0.0334
H143? H 1.0142 0.6944 0.0206
H144? H 0.9853 0.7223 -0.0293
H145? H 0.3756 0.7310 -0.1446
H146? H 0.5035 0.7281 -0.2053
H147? H 0.4362 0.7640 -0.2193
H148? H 0.5213 0.7749 -0.1302
H149? H 0.4482 0.8057 -0.1367
H150? H 0.5661 0.8222 -0.2052
H151? H 0.4949 0.8560 -0.2059
H152? H 0.5923 0.8574 -0.1262
H153? H 0.5229 0.8934 -0.1301
H154? H 0.6239 0.9451 -0.1570
H155? H 0.5722 0.9376 -0.2041
H156? H 0.6418 0.9021 -0.1994
loop_
_geom_bond_atom_site_label_1
_geom_bond_atom_site_label_2
_geom_bond_site_symmetry_1
_geom_bond_site_symmetry_2
N1 C7 1_555 1_555
N2 C8 1_555 1_555
N3 C9 1_555 1_555
N4 C16 1_555 1_555
N5 C17 1_555 1_555
N6 C18 1_555 1_555
C1 C2 1_555 1_555
C2 H1 1_555 1_555
C3 C2 1_555 1_555
C4 C3 1_555 1_555
H2 C4 1_555 1_555
C5 C4 1_555 1_555
C6 C1 1_555 1_555
H3 C6 1_555 1_555
C7 C1 1_555 1_555
H4 C7 1_555 1_555
C8 C3 1_555 1_555
H5 C8 1_555 1_555
C9 C5 1_555 1_555
H6 C9 1_555 1_555
C10 C11 1_555 1_555
C11 H7 1_555 1_555
C12 C11 1_555 1_555
C13 C12 1_555 1_555
H8 C13 1_555 1_555
C14 C13 1_555 1_555
C15 C10 1_555 1_555
H9 C15 1_555 1_555
C16 C10 1_555 1_555
H10 C16 1_555 1_555
C17 C12 1_555 1_555
H11 C17 1_555 1_555
C18 C14 1_555 1_555
H12 C18 1_555 1_555
C19 N1 1_555 1_555
H13 C19 1_555 1_555
C20 C19 1_555 1_555
H14 C20 1_555 1_555
H15 C20 1_555 1_555
C21 C20 1_555 1_555
H16 C21 1_555 1_555
H17 C21 1_555 1_555
C22 C21 1_555 1_555
H18 C22 1_555 1_555
H19 C22 1_555 1_555
C23 C22 1_555 1_555
H20 C23 1_555 1_555
H21 C23 1_555 1_555
C24 C23 1_555 1_555
H22 C24 1_555 1_555
H23 C24 1_555 1_555
H24 C24 1_555 1_555
C25 N4 1_555 1_555
H25 C25 1_555 1_555
C26 C25 1_555 1_555
H26 C26 1_555 1_555
H27 C26 1_555 1_555
C27 C26 1_555 1_555
H28 C27 1_555 1_555
H29 C27 1_555 1_555
C28 C27 1_555 1_555
H30 C28 1_555 1_555
H31 C28 1_555 1_555
C29 C28 1_555 1_555
H32 C29 1_555 1_555
H33 C29 1_555 1_555
C30 C29 1_555 1_555
H34 C30 1_555 1_555
H35 C30 1_555 1_555
H36 C30 1_555 1_555
C31 N2 1_555 1_555
H37 C31 1_555 1_555
C32 C31 1_555 1_555
H38 C32 1_555 1_555
H39 C32 1_555 1_555
C33 C32 1_555 1_555
H40 C33 1_555 1_555
H41 C33 1_555 1_555
C34 C33 1_555 1_555
H42 C34 1_555 1_555
H43 C34 1_555 1_555
C35 C34 1_555 1_555
H44 C35 1_555 1_555
H45 C35 1_555 1_555
C36 C35 1_555 1_555
H46 C36 1_555 1_555
H47 C36 1_555 1_555
H48 C36 1_555 1_555
C37 N3 1_555 1_555
H49 C37 1_555 1_555
C38 C37 1_555 1_555
H50 C38 1_555 1_555
H51 C38 1_555 1_555
C39 C38 1_555 1_555
H52 C39 1_555 1_555
H53 C39 1_555 1_555
C40 C39 1_555 1_555
H54 C40 1_555 1_555
H55 C40 1_555 1_555
C41 C40 1_555 1_555
H56 C41 1_555 1_555
H57 C41 1_555 1_555
C42 C41 1_555 1_555
H58 C42 1_555 1_555
H59 C42 1_555 1_555
H60 C42 1_555 1_555
C43 N5 1_555 1_555
H61 C43 1_555 1_555
C44 C43 1_555 1_555
H62 C44 1_555 1_555
H63 C44 1_555 1_555
C45 C44 1_555 1_555
H64 C45 1_555 1_555
H65 C45 1_555 1_555
C46 C45 1_555 1_555
H66 C46 1_555 1_555
H67 C46 1_555 1_555
C47 C46 1_555 1_555
H68 C47 1_555 1_555
H69 C47 1_555 1_555
C48 C47 1_555 1_555
H70 C48 1_555 1_555
H71 C48 1_555 1_555
H72 C48 1_555 1_555
C49 N6 1_555 1_555
H73 C49 1_555 1_555
C50 C49 1_555 1_555
H74 C50 1_555 1_555
H75 C50 1_555 1_555
C51 C50 1_555 1_555
H76 C51 1_555 1_555
H77 C51 1_555 1_555
C52 C51 1_555 1_555
H78 C52 1_555 1_555
H79 C52 1_555 1_555
C53 C52 1_555 1_555
H80 C53 1_555 1_555
H81 C53 1_555 1_555
C54 C53 1_555 1_555
H82 C54 1_555 1_555
H83 C54 1_555 1_555
H84 C54 1_555 1_555
N1C C7C 1_555 1_555
N2C C8C 1_555 1_555
N3C C9C 1_555 1_555
N4C C16C 1_555 1_555
N5C C17C 1_555 1_555
N6C C18C 1_555 1_555
C1C C2C 1_555 1_555
C2C H1C 1_555 1_555
C3C C2C 1_555 1_555
C4C C3C 1_555 1_555
H2C C4C 1_555 1_555
C5C C4C 1_555 1_555
C6C C1C 1_555 1_555
H3C C6C 1_555 1_555
C7C C1C 1_555 1_555
H4C C7C 1_555 1_555
C8C C3C 1_555 1_555
H5C C8C 1_555 1_555
C9C C5C 1_555 1_555
H6C C9C 1_555 1_555
C10C C11C 1_555 1_555
C11C H7C 1_555 1_555
C12C C11C 1_555 1_555
C13C C12C 1_555 1_555
H8C C13C 1_555 1_555
C14C C13C 1_555 1_555
C15C C10C 1_555 1_555
H9C C15C 1_555 1_555
C16C C10C 1_555 1_555
H10C C16C 1_555 1_555
C17C C12C 1_555 1_555
H11C C17C 1_555 1_555
C18C C14C 1_555 1_555
H12C C18C 1_555 1_555
C19C N1C 1_555 1_555
H13C C19C 1_555 1_555
C20C C19C 1_555 1_555
H14C C20C 1_555 1_555
H15C C20C 1_555 1_555
C21C C20C 1_555 1_555
H16C C21C 1_555 1_555
H17C C21C 1_555 1_555
C22C C21C 1_555 1_555
H18C C22C 1_555 1_555
H19C C22C 1_555 1_555
C23C C22C 1_555 1_555
H20C C23C 1_555 1_555
H21C C23C 1_555 1_555
C24C C23C 1_555 1_555
H22C C24C 1_555 1_555
H23C C24C 1_555 1_555
H24C C24C 1_555 1_555
C25C N4C 1_555 1_555
H25C C25C 1_555 1_555
C26C C25C 1_555 1_555
H26C C26C 1_555 1_555
H27C C26C 1_555 1_555
C27C C26C 1_555 1_555
H28C C27C 1_555 1_555
H29C C27C 1_555 1_555
C28C C27C 1_555 1_555
H30C C28C 1_555 1_555
H31C C28C 1_555 1_555
C29C C28C 1_555 1_555
H32C C29C 1_555 1_555
H33C C29C 1_555 1_555
C30C C29C 1_555 1_555
H34C C30C 1_555 1_555
H35C C30C 1_555 1_555
H36C C30C 1_555 1_555
C31C C31 1_555 1_555
H37C C31C 1_555 1_555
C32C C31C 1_555 1_555
H38C C32C 1_555 1_555
H39C C32C 1_555 1_555
C33C C32C 1_555 1_555
H40C C33C 1_555 1_555
H41C C33C 1_555 1_555
C34C C33C 1_555 1_555
H42C C34C 1_555 1_555
H43C C34C 1_555 1_555
C35C C34C 1_555 1_555
H44C C35C 1_555 1_555
H45C C35C 1_555 1_555
C36C C35C 1_555 1_555
H46C C36C 1_555 1_555
H47C C36C 1_555 1_555
H48C C36C 1_555 1_555
C37C C49 1_555 1_555
H49C C37C 1_555 1_555
C38C C37C 1_555 1_555
H50C C38C 1_555 1_555
H51C C38C 1_555 1_555
C39C C38C 1_555 1_555
H52C C39C 1_555 1_555
H53C C39C 1_555 1_555
C40C C39C 1_555 1_555
H54C C40C 1_555 1_555
H55C C40C 1_555 1_555
C41C C40C 1_555 1_555
H56C C41C 1_555 1_555
H57C C41C 1_555 1_555
C42C C41C 1_555 1_555
H58C C42C 1_555 1_555
H59C C42C 1_555 1_555
H60C C42C 1_555 1_555
C43C C43 1_555 1_555
H61C C43C 1_555 1_555
C44C C43C 1_555 1_555
H62C C44C 1_555 1_555
H63C C44C 1_555 1_555
C45C C44C 1_555 1_555
H64C C45C 1_555 1_555
H65C C45C 1_555 1_555
C46C C45C 1_555 1_555
H66C C46C 1_555 1_555
H67C C46C 1_555 1_555
C47C C46C 1_555 1_555
H68C C47C 1_555 1_555
H69C C47C 1_555 1_555
C48C C47C 1_555 1_555
H70C C48C 1_555 1_555
H71C C48C 1_555 1_555
H72C C48C 1_555 1_555
C49C C37 1_555 1_555
H73C C49C 1_555 1_555
C50C C49C 1_555 1_555
H74C C50C 1_555 1_555
H75C C50C 1_555 1_555
C51C C50C 1_555 1_555
H76C C51C 1_555 1_555
H77C C51C 1_555 1_555
C52C C51C 1_555 1_555
H78C C52C 1_555 1_555
H79C C52C 1_555 1_555
C53C C52C 1_555 1_555
H80C C53C 1_555 1_555
H81C C53C 1_555 1_555
C54C C53C 1_555 1_555
H82C C54C 1_555 1_555
H83C C54C 1_555 1_555
H84C C54C 1_555 1_555
C5 C6 1_555 1_555
C14 C15 1_555 1_555
C19 C25 1_555 1_555
N2C C31C 1_555 1_555
N3C C37C 1_555 1_555
N5C C43C 1_555 1_555
N6C C49C 1_555 1_555
C5C C6C 1_555 1_555
C14C C15C 1_555 1_555
C19C C25C 1_555 1_555

#END
