
#######################################################################
#
#                 Cambridge Crystallographic Data Centre
#                                CCDC 
#
#######################################################################
#
# If this CIF has been generated from an entry in the Cambridge 
# Structural Database, then it will include bibliographic, chemical, 
# crystal, experimental, refinement or atomic coordinate data resulting 
# from the CCDC's data processing and validation procedures.
#
#######################################################################

data_SARNAC
_chemical_formula_moiety         'C46 H36 N10 O9,0.05(H2 O1)'
_chemical_name_systematic        
'Methyl 1-benzyl-5-(((6-(((6-(((6-(((6-(((benzyloxy)carbonyl)amino)pyridin-2-yl)carbonyl)amino)pyridin-2-yl)carbonyl)amino)pyridin-2-yl)carbonyl)amino)pyridin-2-yl)carbonyl)amino)-4-oxo-1,4-dihydropyridine-3-carboxylate hydrate'
_symmetry_cell_setting           triclinic
_symmetry_space_group_name_H-M   'P -1'
_symmetry_Int_Tables_number      2
_space_group_name_Hall           '-P 1'
loop_
_symmetry_equiv_pos_site_id
_symmetry_equiv_pos_as_xyz
1 x,y,z
2 -x,-y,-z
_cell_length_a                   10.6110(10)
_cell_length_b                   12.9590(12)
_cell_length_c                   16.4525(16)
_cell_angle_alpha                73.499(2)
_cell_angle_beta                 77.989(3)
_cell_angle_gamma                72.668(3)
_cell_volume                     2051.75
_exptl_crystal_colour            colorless
_exptl_crystal_description       block
_cell_formula_units_Z            2
loop_
_atom_site_label
_atom_site_type_symbol
_atom_site_fract_x
_atom_site_fract_y
_atom_site_fract_z
O1 O 0.98436(12) 0.69439(11) 0.23371(8)
O2 O 1.01204(14) 0.69847(13) 0.09286(9)
O3 O 0.39331(13) 0.49774(12) 0.14544(8)
O4 O 0.22225(14) 0.50438(12) 0.61709(8)
O5 O 0.62893(14) 0.90132(12) 0.60565(8)
O6 O 0.88930(13) 0.99978(11) 0.13249(8)
O7 O 0.49573(13) 0.85952(12) 0.18642(8)
O8 O 0.33401(13) 0.80319(12) 0.09864(8)
O9 O 0.41935(13) 0.79100(12) -0.03538(8)
N1 N 0.84511(16) 0.63421(14) 0.18788(10)
H1 H 0.812(2) 0.6264(17) 0.2381(14)
N2 N 0.66072(15) 0.58933(12) 0.17288(9)
N3 N 0.43152(15) 0.55588(13) 0.25566(9)
H2 H 0.491(2) 0.5836(18) 0.2678(13)
N4 N 0.35277(14) 0.54232(12) 0.39685(9)
N5 N 0.36436(15) 0.60838(13) 0.53305(10)
H3 H 0.401(2) 0.6239(18) 0.4802(14)
N6 N 0.46688(14) 0.73000(12) 0.55326(9)
N7 N 0.61843(15) 0.87148(13) 0.47696(10)
H4 H 0.582(2) 0.8375(18) 0.4553(13)
N8 N 0.71225(14) 0.92562(12) 0.33925(9)
N9 N 0.70881(16) 0.92612(13) 0.17856(10)
H5 H 0.654(2) 0.9101(19) 0.2220(15)
N10 N 0.72591(14) 0.91714(12) -0.04448(9)
C1 C 1.22135(18) 0.80483(15) 0.29921(12)
H6 H 1.2839 0.8149 0.2490
C2 C 1.2373(2) 0.83086(16) 0.37174(13)
H7 H 1.3096 0.8605 0.3706
C3 C 1.1487(2) 0.81408(16) 0.44585(13)
H8 H 1.1601 0.8319 0.4956
C4 C 1.0431(2) 0.77108(16) 0.44720(12)
H9 H 0.9831 0.7582 0.4984
C5 C 1.02444(19) 0.74664(15) 0.37444(12)
H10 H 0.9510 0.7183 0.3757
C6 C 1.11297(18) 0.76354(14) 0.29970(12)
C7 C 1.09821(18) 0.74040(16) 0.21812(12)
H11 H 1.0851 0.8101 0.1726
H12 H 1.1797 0.6870 0.1990
C8 C 0.95370(18) 0.67783(15) 0.16415(11)
C9 C 0.77693(17) 0.61085(14) 0.13403(11)
C10 C 0.82533(18) 0.60701(15) 0.04895(11)
H13 H 0.9087 0.6222 0.0231
C11 C 0.74874(19) 0.58061(16) 0.00364(12)
H14 H 0.7788 0.5779 -0.0545
C12 C 0.62713(18) 0.55781(15) 0.04304(11)
H15 H 0.5730 0.5393 0.0128
C13 C 0.58824(17) 0.56305(14) 0.12758(11)
C14 C 0.46001(18) 0.53533(15) 0.17598(11)
C15 C 0.34034(17) 0.52043(14) 0.32465(11)
C16 C 0.24514(18) 0.46840(15) 0.31938(12)
H16 H 0.2374 0.4555 0.2668
C17 C 0.16284(19) 0.43659(16) 0.39356(12)
H17 H 0.0968 0.4013 0.3923
C18 C 0.17577(19) 0.45564(15) 0.46958(12)
H18 H 0.1211 0.4325 0.5212
C19 C 0.27171(17) 0.50985(14) 0.46763(11)
C20 C 0.28333(17) 0.53940(15) 0.54757(11)
C21 C 0.38521(17) 0.66329(15) 0.58903(11)
C22 C 0.32591(18) 0.65055(15) 0.67412(11)
H19 H 0.2664 0.6041 0.6972
C23 C 0.35626(19) 0.70733(16) 0.72365(12)
H20 H 0.3167 0.7007 0.7817
C24 C 0.44400(19) 0.77395(16) 0.68931(12)
H21 H 0.4683 0.8116 0.7231
C25 C 0.49489(17) 0.78344(15) 0.60371(11)
C26 C 0.58811(18) 0.85808(15) 0.56299(11)
C27 C 0.70477(17) 0.93116(15) 0.42003(11)
C28 C 0.77741(18) 0.98832(15) 0.44502(12)
H22 H 0.7669 0.9931 0.5027
C29 C 0.86476(18) 1.03743(16) 0.38280(12)
H23 H 0.9172 1.0756 0.3976
C30 C 0.87641(18) 1.03126(15) 0.29867(12)
H24 H 0.9366 1.0644 0.2552
C31 C 0.79773(17) 0.97544(15) 0.28033(11)
C32 C 0.80483(17) 0.96857(15) 0.18956(11)
C33 C 0.76046(17) 0.93276(15) 0.02591(11)
H25 H 0.8375 0.9583 0.0208
C34 C 0.68459(17) 0.91171(15) 0.10307(11)
C35 C 0.56380(17) 0.87311(15) 0.11488(11)
C36 C 0.53799(17) 0.85454(14) 0.03765(11)
C37 C 0.61939(17) 0.87796(14) -0.03773(11)
H26 H 0.5997 0.8660 -0.0875
C38 C 0.80257(18) 0.94871(15) -0.13006(11)
H27 H 0.8745 0.9794 -0.1245
H28 H 0.7428 1.0075 -0.1681
C39 C 0.86246(17) 0.85035(15) -0.16949(11)
C40 C 0.96758(18) 0.76456(15) -0.13625(12)
H29 H 1.0015 0.7680 -0.0883
C41 C 1.02255(19) 0.67448(16) -0.17301(13)
H30 H 1.0938 0.6161 -0.1500
C42 C 0.9741(2) 0.66914(17) -0.24328(14)
H31 H 1.0120 0.6072 -0.2683
C43 C 0.8704(2) 0.75419(18) -0.27693(13)
H32 H 0.8374 0.7508 -0.3253
C44 C 0.81470(19) 0.84442(16) -0.24002(12)
H33 H 0.7434 0.9025 -0.2632
C45 C 0.41992(18) 0.81457(14) 0.03889(11)
C46 C 0.3085(2) 0.74781(19) -0.03667(14)
H34 H 0.3036 0.6848 0.0127
H35 H 0.3218 0.7231 -0.0896
H36 H 0.2254 0.8064 -0.0340
O10 O 0.5589(11) 0.7190(9) 0.3566(7)
loop_
_geom_bond_atom_site_label_1
_geom_bond_atom_site_label_2
_geom_bond_site_symmetry_1
_geom_bond_site_symmetry_2
O1 C7 1_555 1_555
O2 C8 1_555 1_555
O3 C14 1_555 1_555
O4 C20 1_555 1_555
O5 C26 1_555 1_555
O6 C32 1_555 1_555
O7 C35 1_555 1_555
O8 C45 1_555 1_555
O9 C45 1_555 1_555
N1 H1 1_555 1_555
N2 C9 1_555 1_555
N3 H2 1_555 1_555
N4 C15 1_555 1_555
N5 H3 1_555 1_555
N6 C21 1_555 1_555
N7 H4 1_555 1_555
N8 C27 1_555 1_555
N9 H5 1_555 1_555
N10 C33 1_555 1_555
C1 H6 1_555 1_555
C2 C1 1_555 1_555
H7 C2 1_555 1_555
C3 C2 1_555 1_555
H8 C3 1_555 1_555
C4 C3 1_555 1_555
H9 C4 1_555 1_555
C5 C4 1_555 1_555
H10 C5 1_555 1_555
C6 C1 1_555 1_555
C7 C6 1_555 1_555
H11 C7 1_555 1_555
H12 C7 1_555 1_555
C8 O1 1_555 1_555
C9 N1 1_555 1_555
C10 C9 1_555 1_555
H13 C10 1_555 1_555
C11 C10 1_555 1_555
H14 C11 1_555 1_555
C12 C11 1_555 1_555
H15 C12 1_555 1_555
C13 N2 1_555 1_555
C14 N3 1_555 1_555
C15 N3 1_555 1_555
C16 C15 1_555 1_555
H16 C16 1_555 1_555
C17 C16 1_555 1_555
H17 C17 1_555 1_555
C18 C17 1_555 1_555
H18 C18 1_555 1_555
C19 N4 1_555 1_555
C20 N5 1_555 1_555
C21 N5 1_555 1_555
C22 C21 1_555 1_555
H19 C22 1_555 1_555
C23 C22 1_555 1_555
H20 C23 1_555 1_555
C24 C23 1_555 1_555
H21 C24 1_555 1_555
C25 N6 1_555 1_555
C26 N7 1_555 1_555
C27 N7 1_555 1_555
C28 C27 1_555 1_555
H22 C28 1_555 1_555
C29 C28 1_555 1_555
H23 C29 1_555 1_555
C30 C29 1_555 1_555
H24 C30 1_555 1_555
C31 N8 1_555 1_555
C32 N9 1_555 1_555
C33 H25 1_555 1_555
C34 N9 1_555 1_555
C35 C34 1_555 1_555
C36 C35 1_555 1_555
C37 N10 1_555 1_555
H26 C37 1_555 1_555
C38 N10 1_555 1_555
H27 C38 1_555 1_555
H28 C38 1_555 1_555
C39 C38 1_555 1_555
C40 C39 1_555 1_555
H29 C40 1_555 1_555
C41 C40 1_555 1_555
H30 C41 1_555 1_555
C42 C41 1_555 1_555
H31 C42 1_555 1_555
C43 C42 1_555 1_555
H32 C43 1_555 1_555
C44 C39 1_555 1_555
H33 C44 1_555 1_555
C45 C36 1_555 1_555
C46 O9 1_555 1_555
H34 C46 1_555 1_555
H35 C46 1_555 1_555
H36 C46 1_555 1_555
N1 C8 1_555 1_555
C5 C6 1_555 1_555
C12 C13 1_555 1_555
C13 C14 1_555 1_555
C18 C19 1_555 1_555
C19 C20 1_555 1_555
C24 C25 1_555 1_555
C25 C26 1_555 1_555
C30 C31 1_555 1_555
C31 C32 1_555 1_555
C33 C34 1_555 1_555
C36 C37 1_555 1_555
C43 C44 1_555 1_555

#END
