
#######################################################################
#
#                 Cambridge Crystallographic Data Centre
#                                CCDC 
#
#######################################################################
#
# If this CIF has been generated from an entry in the Cambridge 
# Structural Database, then it will include bibliographic, chemical, 
# crystal, experimental, refinement or atomic coordinate data resulting 
# from the CCDC's data processing and validation procedures.
#
#######################################################################

data_SARPAE
_chemical_formula_moiety         'C120 H192 N12,3(C1 H1 Cl3)'
_chemical_name_systematic        
'3,6,10,13,17,20,24,27,30,33,36,39-dodecaisohexyl-3,6,10,13,17,20,24,27,30,33,36,39-dodecaaza-1,8,15,22(1,3,5)-tetrabenzenatricyclo[13.13.6.68,22]tetracontaphane-2,6,9,13,16,20,23,27,29,33,35,39-dodecaene chloroform solvate'
_symmetry_cell_setting           cubic
_symmetry_space_group_name_H-M   'I 2 3'
_symmetry_Int_Tables_number      197
_space_group_name_Hall           'I 2 2 3'
loop_
_symmetry_equiv_pos_site_id
_symmetry_equiv_pos_as_xyz
1 x,y,z
2 -x,-y,z
3 -x,y,-z
4 x,-y,-z
5 z,x,y
6 z,-x,-y
7 -z,-x,y
8 -z,x,-y
9 y,z,x
10 -y,z,-x
11 y,-z,-x
12 -y,-z,x
13 1/2+x,1/2+y,1/2+z
14 1/2-x,1/2-y,1/2+z
15 1/2-x,1/2+y,1/2-z
16 1/2+x,1/2-y,1/2-z
17 1/2+z,1/2+x,1/2+y
18 1/2+z,1/2-x,1/2-y
19 1/2-z,1/2-x,1/2+y
20 1/2-z,1/2+x,1/2-y
21 1/2+y,1/2+z,1/2+x
22 1/2-y,1/2+z,1/2-x
23 1/2+y,1/2-z,1/2-x
24 1/2-y,1/2-z,1/2+x
_cell_length_a                   19.23620(10)
_cell_length_b                   19.23620(10)
_cell_length_c                   19.23620(10)
_cell_angle_alpha                90
_cell_angle_beta                 90
_cell_angle_gamma                90
_cell_volume                     7118
_exptl_crystal_colour            colorless
_exptl_crystal_description       prism
_cell_formula_units_Z            2
loop_
_atom_site_label
_atom_site_type_symbol
_atom_site_fract_x
_atom_site_fract_y
_atom_site_fract_z
Cl1 Cl 0.0674(19) 0.0309(10) -0.083(2)
Cl2 Cl 0.049(4) 0.0571(19) -0.040(3)
Cl1G Cl 0.083(2) 0.0674(19) -0.0309(10)
Cl1J Cl 0.0309(10) 0.083(2) -0.0674(19)
Cl2J Cl 0.0571(19) 0.040(3) -0.049(4)
Cl2G Cl 0.040(3) 0.049(4) -0.0571(19)
N1 N 0.0573(2) 0.2865(2) 0.0464(2)
C1 C 0.1430(3) 0.1671(3) 0.0694(3)
H1 H 0.1539 0.1946 0.0298
C2 C 0.0859(3) 0.1840(2) 0.1104(3)
C3 C 0.0430(3) 0.2465(2) 0.0946(3)
H2 H 0.0034 0.2559 0.1224
C4 C 0.0144(3) 0.3493(2) 0.0380(3)
H3 H -0.0252 0.3481 0.0716
C5 C 0.0605(3) 0.4119(3) 0.0533(3)
H4 H 0.1022 0.4092 0.0232
H5 H 0.0349 0.4546 0.0405
C6 C 0.0840(3) 0.4182(3) 0.1277(3)
H6 H 0.1111 0.3765 0.1407
H7 H 0.0428 0.4207 0.1584
C7 C 0.1284(14) 0.4828(11) 0.1379(11)
H8 H 0.1026 0.5232 0.1191
H9 H 0.1712 0.4775 0.1098
C8 C 0.1501(11) 0.5001(9) 0.2136(10)
H10 H 0.1099 0.5055 0.2461
C9 C 0.1932(15) 0.5688(11) 0.2034(15)
H11 H 0.2114 0.5842 0.2484
H12 H 0.1631 0.6049 0.1839
H13 H 0.2319 0.5599 0.1715
C10 C 0.208(2) 0.4536(15) 0.242(2)
H14 H 0.2143 0.4629 0.2919
H15 H 0.2515 0.4634 0.2175
H16 H 0.1953 0.4047 0.2356
N1D N 0.0464(2) 0.0573(2) 0.2865(2)
N1F N -0.0464(2) -0.0573(2) 0.2865(2)
N1K N -0.2865(2) -0.0464(2) 0.0573(2)
N1I N -0.2865(2) 0.0464(2) -0.0573(2)
N1B N -0.0573(2) 0.2865(2) -0.0464(2)
N1G N -0.0464(2) 0.0573(2) -0.2865(2)
N1E N 0.0464(2) -0.0573(2) -0.2865(2)
N1J N 0.2865(2) -0.0464(2) -0.0573(2)
N1H N 0.2865(2) 0.0464(2) 0.0573(2)
N1C N 0.0573(2) -0.2865(2) -0.0464(2)
N1A N -0.0573(2) -0.2865(2) 0.0464(2)
C1H C 0.1671(3) 0.0694(3) 0.1430(3)
C1D C 0.0694(3) 0.1430(3) 0.1671(3)
C1F C -0.0694(3) -0.1430(3) 0.1671(3)
C1A C -0.1430(3) -0.1671(3) 0.0694(3)
C1K C -0.1671(3) -0.0694(3) 0.1430(3)
C1I C -0.1671(3) 0.0694(3) -0.1430(3)
C1G C -0.0694(3) 0.1430(3) -0.1671(3)
C1B C -0.1430(3) 0.1671(3) -0.0694(3)
C1E C 0.0694(3) -0.1430(3) -0.1671(3)
C1C C 0.1430(3) -0.1671(3) -0.0694(3)
C1J C 0.1671(3) -0.0694(3) -0.1430(3)
H1H H 0.1946 0.0298 0.1539
H1D H 0.0298 0.1539 0.1946
H1F H -0.0298 -0.1539 0.1946
H1A H -0.1539 -0.1946 0.0298
H1K H -0.1946 -0.0298 0.1539
H1I H -0.1946 0.0298 -0.1539
H1G H -0.0298 0.1539 -0.1946
H1B H -0.1539 0.1946 -0.0298
H1E H 0.0298 -0.1539 -0.1946
H1C H 0.1539 -0.1946 -0.0298
H1J H 0.1946 -0.0298 -0.1539
C2H C 0.1840(2) 0.1104(3) 0.0859(3)
C2D C 0.1104(3) 0.0859(3) 0.1840(2)
C2F C -0.1104(3) -0.0859(3) 0.1840(2)
C2A C -0.0859(3) -0.1840(2) 0.1104(3)
C2K C -0.1840(2) -0.1104(3) 0.0859(3)
C2I C -0.1840(2) 0.1104(3) -0.0859(3)
C2G C -0.1104(3) 0.0859(3) -0.1840(2)
C2B C -0.0859(3) 0.1840(2) -0.1104(3)
C2E C 0.1104(3) -0.0859(3) -0.1840(2)
C2C C 0.0859(3) -0.1840(2) -0.1104(3)
C2J C 0.1840(2) -0.1104(3) -0.0859(3)
C3D C 0.0946(3) 0.0430(3) 0.2465(2)
C3F C -0.0946(3) -0.0430(3) 0.2465(2)
C3K C -0.2465(2) -0.0946(3) 0.0430(3)
C3I C -0.2465(2) 0.0946(3) -0.0430(3)
C3B C -0.0430(3) 0.2465(2) -0.0946(3)
C3G C -0.0946(3) 0.0430(3) -0.2465(2)
C3E C 0.0946(3) -0.0430(3) -0.2465(2)
C3J C 0.2465(2) -0.0946(3) -0.0430(3)
C3H C 0.2465(2) 0.0946(3) 0.0430(3)
C3C C 0.0430(3) -0.2465(2) -0.0946(3)
C3A C -0.0430(3) -0.2465(2) 0.0946(3)
H2B H -0.0034 0.2559 -0.1224
H2H H 0.2559 0.1224 0.0034
H2J H 0.2559 -0.1224 -0.0034
H2A H -0.0034 -0.2559 0.1224
H2C H 0.0034 -0.2559 -0.1224
H2E H 0.1224 -0.0034 -0.2559
H2G H -0.1224 0.0034 -0.2559
H2I H -0.2559 0.1224 -0.0034
H2K H -0.2559 -0.1224 0.0034
H2F H -0.1224 -0.0034 0.2559
H2D H 0.1224 0.0034 0.2559
C4D C 0.0380(3) 0.0144(3) 0.3493(2)
C4F C -0.0380(3) -0.0144(3) 0.3493(2)
C4K C -0.3493(2) -0.0380(3) 0.0144(3)
C4I C -0.3493(2) 0.0380(3) -0.0144(3)
C4B C -0.0144(3) 0.3493(2) -0.0380(3)
C4G C -0.0380(3) 0.0144(3) -0.3493(2)
C4E C 0.0380(3) -0.0144(3) -0.3493(2)
C4J C 0.3493(2) -0.0380(3) -0.0144(3)
C4H C 0.3493(2) 0.0380(3) 0.0144(3)
C4C C 0.0144(3) -0.3493(2) -0.0380(3)
C4A C -0.0144(3) -0.3493(2) 0.0380(3)
H3B H 0.0252 0.3481 -0.0716
H3H H 0.3481 0.0716 -0.0252
H3J H 0.3481 -0.0716 0.0252
H3A H 0.0252 -0.3481 0.0716
H3C H -0.0252 -0.3481 -0.0716
H3E H 0.0716 0.0252 -0.3481
H3G H -0.0716 -0.0252 -0.3481
H3I H -0.3481 0.0716 0.0252
H3K H -0.3481 -0.0716 -0.0252
H3F H -0.0716 0.0252 0.3481
H3D H 0.0716 -0.0252 0.3481
C5B C -0.0605(3) 0.4119(3) -0.0533(3)
C5H C 0.4119(3) 0.0533(3) 0.0605(3)
C5J C 0.4119(3) -0.0533(3) -0.0605(3)
C5A C -0.0605(3) -0.4119(3) 0.0533(3)
C5C C 0.0605(3) -0.4119(3) -0.0533(3)
C5E C 0.0533(3) -0.0605(3) -0.4119(3)
C5G C -0.0533(3) 0.0605(3) -0.4119(3)
C5I C -0.4119(3) 0.0533(3) -0.0605(3)
C5K C -0.4119(3) -0.0533(3) 0.0605(3)
C5F C -0.0533(3) -0.0605(3) 0.4119(3)
C5D C 0.0533(3) 0.0605(3) 0.4119(3)
H4B H -0.1022 0.4092 -0.0232
H4H H 0.4092 0.0232 0.1022
H4J H 0.4092 -0.0232 -0.1022
H4A H -0.1022 -0.4092 0.0232
H4C H 0.1022 -0.4092 -0.0232
H4E H 0.0232 -0.1022 -0.4092
H4G H -0.0232 0.1022 -0.4092
H4I H -0.4092 0.0232 -0.1022
H4K H -0.4092 -0.0232 0.1022
H4F H -0.0232 -0.1022 0.4092
H4D H 0.0232 0.1022 0.4092
H5B H -0.0349 0.4546 -0.0405
H5H H 0.4546 0.0405 0.0349
H5J H 0.4546 -0.0405 -0.0349
H5A H -0.0349 -0.4546 0.0405
H5C H 0.0349 -0.4546 -0.0405
H5E H 0.0405 -0.0349 -0.4546
H5G H -0.0405 0.0349 -0.4546
H5I H -0.4546 0.0405 -0.0349
H5K H -0.4546 -0.0405 0.0349
H5F H -0.0405 -0.0349 0.4546
H5D H 0.0405 0.0349 0.4546
C6B C -0.0840(3) 0.4182(3) -0.1277(3)
C6H C 0.4182(3) 0.1277(3) 0.0840(3)
C6J C 0.4182(3) -0.1277(3) -0.0840(3)
C6A C -0.0840(3) -0.4182(3) 0.1277(3)
C6C C 0.0840(3) -0.4182(3) -0.1277(3)
C6E C 0.1277(3) -0.0840(3) -0.4182(3)
C6G C -0.1277(3) 0.0840(3) -0.4182(3)
C6I C -0.4182(3) 0.1277(3) -0.0840(3)
C6K C -0.4182(3) -0.1277(3) 0.0840(3)
C6F C -0.1277(3) -0.0840(3) 0.4182(3)
C6D C 0.1277(3) 0.0840(3) 0.4182(3)
H6B H -0.1111 0.3765 -0.1407
H6H H 0.3765 0.1407 0.1111
H6J H 0.3765 -0.1407 -0.1111
H6A H -0.1111 -0.3765 0.1407
H6C H 0.1111 -0.3765 -0.1407
H6E H 0.1407 -0.1111 -0.3765
H6G H -0.1407 0.1111 -0.3765
H6I H -0.3765 0.1407 -0.1111
H6K H -0.3765 -0.1407 0.1111
H6F H -0.1407 -0.1111 0.3765
H6D H 0.1407 0.1111 0.3765
H7B H -0.0428 0.4207 -0.1584
H7H H 0.4207 0.1584 0.0428
H7J H 0.4207 -0.1584 -0.0428
H7A H -0.0428 -0.4207 0.1584
H7C H 0.0428 -0.4207 -0.1584
H7E H 0.1584 -0.0428 -0.4207
H7G H -0.1584 0.0428 -0.4207
H7I H -0.4207 0.1584 -0.0428
H7K H -0.4207 -0.1584 0.0428
H7F H -0.1584 -0.0428 0.4207
H7D H 0.1584 0.0428 0.4207
C7B C -0.1284(14) 0.4828(11) -0.1379(11)
C7H C 0.4828(11) 0.1379(11) 0.1284(14)
C7J C 0.4828(11) -0.1379(11) -0.1284(14)
C7A C -0.1284(14) -0.4828(11) 0.1379(11)
C7C C 0.1284(14) -0.4828(11) -0.1379(11)
C7E C 0.1379(11) -0.1284(14) -0.4828(11)
C7G C -0.1379(11) 0.1284(14) -0.4828(11)
C7I C -0.4828(11) 0.1379(11) -0.1284(14)
C7K C -0.4828(11) -0.1379(11) 0.1284(14)
C7F C -0.1379(11) -0.1284(14) 0.4828(11)
C7D C 0.1379(11) 0.1284(14) 0.4828(11)
H8B H -0.1026 0.5232 -0.1191
H8H H 0.5232 0.1191 0.1026
H8J H 0.5232 -0.1191 -0.1026
H8A H -0.1026 -0.5232 0.1191
H8C H 0.1026 -0.5232 -0.1191
H8E H 0.1191 -0.1026 -0.5232
H8G H -0.1191 0.1026 -0.5232
H8I H -0.5232 0.1191 -0.1026
H8K H -0.5232 -0.1191 0.1026
H8F H -0.1191 -0.1026 0.5232
H8D H 0.1191 0.1026 0.5232
H9B H -0.1712 0.4775 -0.1098
H9H H 0.4775 0.1098 0.1712
H9J H 0.4775 -0.1098 -0.1712
H9A H -0.1712 -0.4775 0.1098
H9C H 0.1712 -0.4775 -0.1098
H9E H 0.1098 -0.1712 -0.4775
H9G H -0.1098 0.1712 -0.4775
H9I H -0.4775 0.1098 -0.1712
H9K H -0.4775 -0.1098 0.1712
H9F H -0.1098 -0.1712 0.4775
H9D H 0.1098 0.1712 0.4775
C8B C -0.1501(11) 0.5001(9) -0.2136(10)
C8H C 0.5001(9) 0.2136(10) 0.1501(11)
C8J C 0.5001(9) -0.2136(10) -0.1501(11)
C8A C -0.1501(11) -0.5001(9) 0.2136(10)
C8C C 0.1501(11) -0.5001(9) -0.2136(10)
C8E C 0.2136(10) -0.1501(11) -0.5001(9)
C8G C -0.2136(10) 0.1501(11) -0.5001(9)
C8I C -0.5001(9) 0.2136(10) -0.1501(11)
C8K C -0.5001(9) -0.2136(10) 0.1501(11)
C8F C -0.2136(10) -0.1501(11) 0.5001(9)
C8D C 0.2136(10) 0.1501(11) 0.5001(9)
H10B H -0.1099 0.5055 -0.2461
H10H H 0.5055 0.2461 0.1099
H10J H 0.5055 -0.2461 -0.1099
H10A H -0.1099 -0.5055 0.2461
H10C H 0.1099 -0.5055 -0.2461
H10E H 0.2461 -0.1099 -0.5055
H10G H -0.2461 0.1099 -0.5055
H10I H -0.5055 0.2461 -0.1099
H10K H -0.5055 -0.2461 0.1099
H10F H -0.2461 -0.1099 0.5055
H10D H 0.2461 0.1099 0.5055
C9B C -0.1932(15) 0.5688(11) -0.2034(15)
C9H C 0.5688(11) 0.2034(15) 0.1932(15)
C9J C 0.5688(11) -0.2034(15) -0.1932(15)
C9A C -0.1932(15) -0.5688(11) 0.2034(15)
C9C C 0.1932(15) -0.5688(11) -0.2034(15)
C9E C 0.2034(15) -0.1932(15) -0.5688(11)
C9G C -0.2034(15) 0.1932(15) -0.5688(11)
C9I C -0.5688(11) 0.2034(15) -0.1932(15)
C9K C -0.5688(11) -0.2034(15) 0.1932(15)
C9F C -0.2034(15) -0.1932(15) 0.5688(11)
C9D C 0.2034(15) 0.1932(15) 0.5688(11)
H11B H -0.2114 0.5842 -0.2484
H11H H 0.5842 0.2484 0.2114
H11J H 0.5842 -0.2484 -0.2114
H11A H -0.2114 -0.5842 0.2484
H11C H 0.2114 -0.5842 -0.2484
H11E H 0.2484 -0.2114 -0.5842
H11G H -0.2484 0.2114 -0.5842
H11I H -0.5842 0.2484 -0.2114
H11K H -0.5842 -0.2484 0.2114
H11F H -0.2484 -0.2114 0.5842
H11D H 0.2484 0.2114 0.5842
H12B H -0.1631 0.6049 -0.1839
H12H H 0.6049 0.1839 0.1631
H12J H 0.6049 -0.1839 -0.1631
H12A H -0.1631 -0.6049 0.1839
H12C H 0.1631 -0.6049 -0.1839
H12E H 0.1839 -0.1631 -0.6049
H12G H -0.1839 0.1631 -0.6049
H12I H -0.6049 0.1839 -0.1631
H12K H -0.6049 -0.1839 0.1631
H12F H -0.1839 -0.1631 0.6049
H12D H 0.1839 0.1631 0.6049
H13B H -0.2319 0.5599 -0.1715
H13H H 0.5599 0.1715 0.2319
H13J H 0.5599 -0.1715 -0.2319
H13A H -0.2319 -0.5599 0.1715
H13C H 0.2319 -0.5599 -0.1715
H13E H 0.1715 -0.2319 -0.5599
H13G H -0.1715 0.2319 -0.5599
H13I H -0.5599 0.1715 -0.2319
H13K H -0.5599 -0.1715 0.2319
H13F H -0.1715 -0.2319 0.5599
H13D H 0.1715 0.2319 0.5599
C10B C -0.208(2) 0.4536(15) -0.242(2)
C10H C 0.4536(15) 0.242(2) 0.208(2)
C10J C 0.4536(15) -0.242(2) -0.208(2)
C10A C -0.208(2) -0.4536(15) 0.242(2)
C10C C 0.208(2) -0.4536(15) -0.242(2)
C10E C 0.242(2) -0.208(2) -0.4536(15)
C10G C -0.242(2) 0.208(2) -0.4536(15)
C10I C -0.4536(15) 0.242(2) -0.208(2)
C10K C -0.4536(15) -0.242(2) 0.208(2)
C10F C -0.242(2) -0.208(2) 0.4536(15)
C10D C 0.242(2) 0.208(2) 0.4536(15)
H14B H -0.2143 0.4629 -0.2919
H14H H 0.4629 0.2919 0.2143
H14J H 0.4629 -0.2919 -0.2143
H14A H -0.2143 -0.4629 0.2919
H14C H 0.2143 -0.4629 -0.2919
H14E H 0.2919 -0.2143 -0.4629
H14G H -0.2919 0.2143 -0.4629
H14I H -0.4629 0.2919 -0.2143
H14K H -0.4629 -0.2919 0.2143
H14F H -0.2919 -0.2143 0.4629
H14D H 0.2919 0.2143 0.4629
H15B H -0.2515 0.4634 -0.2175
H15H H 0.4634 0.2175 0.2515
H15J H 0.4634 -0.2175 -0.2515
H15A H -0.2515 -0.4634 0.2175
H15C H 0.2515 -0.4634 -0.2175
H15E H 0.2175 -0.2515 -0.4634
H15G H -0.2175 0.2515 -0.4634
H15I H -0.4634 0.2175 -0.2515
H15K H -0.4634 -0.2175 0.2515
H15F H -0.2175 -0.2515 0.4634
H15D H 0.2175 0.2515 0.4634
H16B H -0.1953 0.4047 -0.2356
H16H H 0.4047 0.2356 0.1953
H16J H 0.4047 -0.2356 -0.1953
H16A H -0.1953 -0.4047 0.2356
H16C H 0.1953 -0.4047 -0.2356
H16E H 0.2356 -0.1953 -0.4047
H16G H -0.2356 0.1953 -0.4047
H16I H -0.4047 0.2356 -0.1953
H16K H -0.4047 -0.2356 0.1953
H16F H -0.2356 -0.1953 0.4047
H16D H 0.2356 0.1953 0.4047
Cl3? Cl -0.052(2) -0.0618(19) -0.066(4)
C11? C 0.009(2) -0.0088(19) -0.025(3)
H17? H -0.0179 0.0294 -0.0016
Cl4? Cl 0.2550(17) 0.2554(13) 0.2548(13)
Cl5? Cl 0.2682(12) 0.3712(9) 0.3527(8)
Cl6? Cl 0.3395(12) 0.2476(9) 0.3814(9)
C12? C 0.309(2) 0.2998(14) 0.3146(15)
H18? H 0.3500 0.3174 0.2883
C13? C 0.1770(16) 0.4538(10) 0.2569(12)
C14? C 0.0840(3) 0.4182(3) 0.1277(3)
C15? C 0.1178(15) 0.4890(9) 0.1454(12)
C16? C 0.1242(16) 0.5041(10) 0.2251(13)
C17? C 0.1626(14) 0.5755(8) 0.2304(10)
H19? H 0.1779 0.4597 0.3074
H20? H 0.2233 0.4635 0.2379
H21? H 0.1637 0.4059 0.2456
H22? H 0.1178 0.3807 0.1376
H23? H 0.0433 0.4111 0.1585
H24? H 0.0899 0.5265 0.1238
H25? H 0.1648 0.4906 0.1245
H26? H 0.0784 0.5038 0.2497
H27? H 0.1600 0.5926 0.2783
H28? H 0.1404 0.6090 0.1992
H29? H 0.2114 0.5695 0.2171
loop_
_geom_bond_atom_site_label_1
_geom_bond_atom_site_label_2
_geom_bond_site_symmetry_1
_geom_bond_site_symmetry_2
N1 C3 1_555 1_555
C1 H1 1_555 1_555
C2 C1 1_555 1_555
C3 C2 1_555 1_555
H2 C3 1_555 1_555
C4 N1 1_555 1_555
H3 C4 1_555 1_555
C5 C4 1_555 1_555
H4 C5 1_555 1_555
H5 C5 1_555 1_555
C6 C5 1_555 1_555
H6 C6 1_555 1_555
H7 C6 1_555 1_555
C7 C6 1_555 1_555
H8 C7 1_555 1_555
H9 C7 1_555 1_555
C8 C7 1_555 1_555
H10 C8 1_555 1_555
C9 C8 1_555 1_555
H11 C9 1_555 1_555
H12 C9 1_555 1_555
H13 C9 1_555 1_555
C10 C8 1_555 1_555
H14 C10 1_555 1_555
H15 C10 1_555 1_555
H16 C10 1_555 1_555
Cl1 Cl2 1_555 1_555
Cl2 Cl1G 1_555 1_555
N1D C3D 1_555 1_555
N1F C3F 1_555 1_555
N1K C3K 1_555 1_555
N1I C3I 1_555 1_555
N1B C3B 1_555 1_555
N1G C3G 1_555 1_555
N1E C3E 1_555 1_555
N1J C3J 1_555 1_555
N1H C3H 1_555 1_555
N1C C3C 1_555 1_555
N1A C3A 1_555 1_555
C1H H1H 1_555 1_555
C1D C2 1_555 1_555
C1F H1F 1_555 1_555
C1A H1A 1_555 1_555
C1K H1K 1_555 1_555
C1I H1I 1_555 1_555
C1G H1G 1_555 1_555
C1B H1B 1_555 1_555
C1E H1E 1_555 1_555
C1C H1C 1_555 1_555
C1J H1J 1_555 1_555
H1D C1D 1_555 1_555
C2H C1 1_555 1_555
C2D C1H 1_555 1_555
C2F C1F 1_555 1_555
C2A C1F 1_555 1_555
C2K C1A 1_555 1_555
C2I C1I 1_555 1_555
C2G C1I 1_555 1_555
C2B C1G 1_555 1_555
C2E C1E 1_555 1_555
C2C C1E 1_555 1_555
C2J C1C 1_555 1_555
C3D C2D 1_555 1_555
C3F C2F 1_555 1_555
C3K C2K 1_555 1_555
C3I C2I 1_555 1_555
C3B C2B 1_555 1_555
C3G C2G 1_555 1_555
C3E C2E 1_555 1_555
C3J C2J 1_555 1_555
C3H C2H 1_555 1_555
C3C C2C 1_555 1_555
C3A C2A 1_555 1_555
H2B C3B 1_555 1_555
H2H C3H 1_555 1_555
H2J C3J 1_555 1_555
H2A C3A 1_555 1_555
H2C C3C 1_555 1_555
H2E C3E 1_555 1_555
H2G C3G 1_555 1_555
H2I C3I 1_555 1_555
H2K C3K 1_555 1_555
H2F C3F 1_555 1_555
H2D C3D 1_555 1_555
C4D N1D 1_555 1_555
C4F N1F 1_555 1_555
C4K N1K 1_555 1_555
C4I N1I 1_555 1_555
C4B C4 1_555 1_555
C4G N1G 1_555 1_555
C4E N1E 1_555 1_555
C4J N1J 1_555 1_555
C4H N1H 1_555 1_555
C4C N1C 1_555 1_555
C4A N1A 1_555 1_555
H3B C4B 1_555 1_555
H3H C4H 1_555 1_555
H3J C4J 1_555 1_555
H3A C4A 1_555 1_555
H3C C4C 1_555 1_555
H3E C4E 1_555 1_555
H3G C4G 1_555 1_555
H3I C4I 1_555 1_555
H3K C4K 1_555 1_555
H3F C4F 1_555 1_555
H3D C4D 1_555 1_555
C5B C4B 1_555 1_555
C5H C4H 1_555 1_555
C5J C4J 1_555 1_555
C5A C4A 1_555 1_555
C5C C4C 1_555 1_555
C5E C4E 1_555 1_555
C5G C4G 1_555 1_555
C5I C4I 1_555 1_555
C5K C4K 1_555 1_555
C5F C4F 1_555 1_555
C5D C4D 1_555 1_555
H4B C5B 1_555 1_555
H4H C5H 1_555 1_555
H4J C5J 1_555 1_555
H4A C5A 1_555 1_555
H4C C5C 1_555 1_555
H4E C5E 1_555 1_555
H4G C5G 1_555 1_555
H4I C5I 1_555 1_555
H4K C5K 1_555 1_555
H4F C5F 1_555 1_555
H4D C5D 1_555 1_555
H5B C5B 1_555 1_555
H5H C5H 1_555 1_555
H5J C5J 1_555 1_555
H5A C5A 1_555 1_555
H5C C5C 1_555 1_555
H5E C5E 1_555 1_555
H5G C5G 1_555 1_555
H5I C5I 1_555 1_555
H5K C5K 1_555 1_555
H5F C5F 1_555 1_555
H5D C5D 1_555 1_555
C6B C5B 1_555 1_555
C6H C5H 1_555 1_555
C6J C5J 1_555 1_555
C6A C5A 1_555 1_555
C6C C5C 1_555 1_555
C6E C5E 1_555 1_555
C6G C5G 1_555 1_555
C6I C5I 1_555 1_555
C6K C5K 1_555 1_555
C6F C5F 1_555 1_555
C6D C5D 1_555 1_555
H6B C6B 1_555 1_555
H6H C6H 1_555 1_555
H6J C6J 1_555 1_555
H6A C6A 1_555 1_555
H6C C6C 1_555 1_555
H6E C6E 1_555 1_555
H6G C6G 1_555 1_555
H6I C6I 1_555 1_555
H6K C6K 1_555 1_555
H6F C6F 1_555 1_555
H6D C6D 1_555 1_555
H7B C6B 1_555 1_555
H7H C6H 1_555 1_555
H7J C6J 1_555 1_555
H7A C6A 1_555 1_555
H7C C6C 1_555 1_555
H7E C6E 1_555 1_555
H7G C6G 1_555 1_555
H7I C6I 1_555 1_555
H7K C6K 1_555 1_555
H7F C6F 1_555 1_555
H7D C6D 1_555 1_555
C7B C6B 1_555 1_555
C7H C6H 1_555 1_555
C7J C6J 1_555 1_555
C7A C6A 1_555 1_555
C7C C6C 1_555 1_555
C7E C6E 1_555 1_555
C7G C6G 1_555 1_555
C7I C6I 1_555 1_555
C7K C6K 1_555 1_555
C7F C6F 1_555 1_555
C7D C6D 1_555 1_555
H8B C7B 1_555 1_555
H8H C7H 1_555 1_555
H8J C7J 1_555 1_555
H8A C7A 1_555 1_555
H8C C7C 1_555 1_555
H8E C7E 1_555 1_555
H8G C7G 1_555 1_555
H8I C7I 1_555 1_555
H8K C7K 1_555 1_555
H8F C7F 1_555 1_555
H8D C7D 1_555 1_555
H9B C7B 1_555 1_555
H9H C7H 1_555 1_555
H9J C7J 1_555 1_555
H9A C7A 1_555 1_555
H9C C7C 1_555 1_555
H9E C7E 1_555 1_555
H9G C7G 1_555 1_555
H9I C7I 1_555 1_555
H9K C7K 1_555 1_555
H9F C7F 1_555 1_555
H9D C7D 1_555 1_555
C8B C7B 1_555 1_555
C8H C7H 1_555 1_555
C8J C7J 1_555 1_555
C8A C7A 1_555 1_555
C8C C7C 1_555 1_555
C8E C7E 1_555 1_555
C8G C7G 1_555 1_555
C8I C7I 1_555 1_555
C8K C7K 1_555 1_555
C8F C7F 1_555 1_555
C8D C7D 1_555 1_555
H10B C8B 1_555 1_555
H10H C8H 1_555 1_555
H10J C8J 1_555 1_555
H10A C8A 1_555 1_555
H10C C8C 1_555 1_555
H10E C8E 1_555 1_555
H10G C8G 1_555 1_555
H10I C8I 1_555 1_555
H10K C8K 1_555 1_555
H10F C8F 1_555 1_555
H10D C8D 1_555 1_555
C9B C8B 1_555 1_555
C9H C8H 1_555 1_555
C9J C8J 1_555 1_555
C9A C8A 1_555 1_555
C9C C8C 1_555 1_555
C9E C8E 1_555 1_555
C9G C8G 1_555 1_555
C9I C8I 1_555 1_555
C9K C8K 1_555 1_555
C9F C8F 1_555 1_555
C9D C8D 1_555 1_555
H11B C9B 1_555 1_555
H11H C9H 1_555 1_555
H11J C9J 1_555 1_555
H11A C9A 1_555 1_555
H11C C9C 1_555 1_555
H11E C9E 1_555 1_555
H11G C9G 1_555 1_555
H11I C9I 1_555 1_555
H11K C9K 1_555 1_555
H11F C9F 1_555 1_555
H11D C9D 1_555 1_555
H12B C9B 1_555 1_555
H12H C9H 1_555 1_555
H12J C9J 1_555 1_555
H12A C9A 1_555 1_555
H12C C9C 1_555 1_555
H12E C9E 1_555 1_555
H12G C9G 1_555 1_555
H12I C9I 1_555 1_555
H12K C9K 1_555 1_555
H12F C9F 1_555 1_555
H12D C9D 1_555 1_555
H13B C9B 1_555 1_555
H13H C9H 1_555 1_555
H13J C9J 1_555 1_555
H13A C9A 1_555 1_555
H13C C9C 1_555 1_555
H13E C9E 1_555 1_555
H13G C9G 1_555 1_555
H13I C9I 1_555 1_555
H13K C9K 1_555 1_555
H13F C9F 1_555 1_555
H13D C9D 1_555 1_555
C10B C8B 1_555 1_555
C10H C8H 1_555 1_555
C10J C8J 1_555 1_555
C10A C8A 1_555 1_555
C10C C8C 1_555 1_555
C10E C8E 1_555 1_555
C10G C8G 1_555 1_555
C10I C8I 1_555 1_555
C10K C8K 1_555 1_555
C10F C8F 1_555 1_555
C10D C8D 1_555 1_555
H14B C10B 1_555 1_555
H14H C10H 1_555 1_555
H14J C10J 1_555 1_555
H14A C10A 1_555 1_555
H14C C10C 1_555 1_555
H14E C10E 1_555 1_555
H14G C10G 1_555 1_555
H14I C10I 1_555 1_555
H14K C10K 1_555 1_555
H14F C10F 1_555 1_555
H14D C10D 1_555 1_555
H15B C10B 1_555 1_555
H15H C10H 1_555 1_555
H15J C10J 1_555 1_555
H15A C10A 1_555 1_555
H15C C10C 1_555 1_555
H15E C10E 1_555 1_555
H15G C10G 1_555 1_555
H15I C10I 1_555 1_555
H15K C10K 1_555 1_555
H15F C10F 1_555 1_555
H15D C10D 1_555 1_555
H16B C10B 1_555 1_555
H16H C10H 1_555 1_555
H16J C10J 1_555 1_555
H16A C10A 1_555 1_555
H16C C10C 1_555 1_555
H16E C10E 1_555 1_555
H16G C10G 1_555 1_555
H16I C10I 1_555 1_555
H16K C10K 1_555 1_555
H16F C10F 1_555 1_555
H16D C10D 1_555 1_555
Cl1G Cl1 1_555 1_555
Cl1J Cl1 1_555 1_555
Cl2J Cl1 1_555 1_555
Cl2G Cl1 1_555 1_555
Cl2 Cl1J 1_555 1_555
Cl2 Cl2J 1_555 1_555
Cl2 Cl2G 1_555 1_555
N1B C4B 1_555 1_555
C1H C2H 1_555 1_555
C1D C2D 1_555 1_555
C1A C2A 1_555 1_555
C1K C2F 1_555 1_555
C1K C2K 1_555 1_555
C1G C2G 1_555 1_555
C1B C2I 1_555 1_555
C1B C2B 1_555 1_555
C1C C2C 1_555 1_555
C1J C2E 1_555 1_555
C1J C2J 1_555 1_555
C4D C4F 1_555 1_555
C4K C4I 1_555 1_555
C4G C4E 1_555 1_555
C4J C4H 1_555 1_555
C4C C4A 1_555 1_555
Cl1G Cl1J 1_555 1_555
Cl1G Cl2J 1_555 1_555
Cl1G Cl2G 1_555 1_555
Cl1J Cl2J 1_555 1_555
Cl1J Cl2G 1_555 1_555
Cl2J Cl2G 1_555 1_555

#END
