
#######################################################################
#
#                 Cambridge Crystallographic Data Centre
#                                CCDC 
#
#######################################################################
#
# If this CIF has been generated from an entry in the Cambridge 
# Structural Database, then it will include bibliographic, chemical, 
# crystal, experimental, refinement or atomic coordinate data resulting 
# from the CCDC's data processing and validation procedures.
#
#######################################################################

data_SARQAF
_chemical_formula_moiety         'C18 H16 O2'
_chemical_name_systematic        2,7-Diphenyl-3-oxabicyclo[3.1.1]heptan-6-one
_symmetry_cell_setting           orthorhombic
_symmetry_space_group_name_H-M   'P n a 21'
_symmetry_Int_Tables_number      33
_space_group_name_Hall           'P 2c -2n'
loop_
_symmetry_equiv_pos_site_id
_symmetry_equiv_pos_as_xyz
1 x,y,z
2 -x,-y,1/2+z
3 1/2+x,1/2-y,z
4 1/2-x,1/2+y,1/2+z
_cell_length_a                   19.372(13)
_cell_length_b                   5.761(4)
_cell_length_c                   24.488(16)
_cell_angle_alpha                90
_cell_angle_beta                 90
_cell_angle_gamma                90
_cell_volume                     2732.91
_exptl_crystal_colour            colorless
_exptl_crystal_description       stick
_cell_formula_units_Z            8
loop_
_atom_site_label
_atom_site_type_symbol
_atom_site_fract_x
_atom_site_fract_y
_atom_site_fract_z
C1 C 0.2223(4) 0.9728(15) 0.0993(3)
H1 H 0.2245 1.0998 0.1226
C2 C 0.2623(4) 0.9709(17) 0.0532(4)
H2 H 0.2892 1.0998 0.0446
C3 C 0.2632(5) 0.7790(17) 0.0195(4)
H3 H 0.2930 0.7725 -0.0102
C4 C 0.2192(5) 0.5974(16) 0.0306(3)
H4 H 0.2178 0.4699 0.0073
C5 C 0.1775(4) 0.6035(14) 0.0757(3)
H5 H 0.1478 0.4797 0.0823
C6 C 0.1780(5) 0.7886(14) 0.1121(3)
C7 C 0.1381(4) 0.7781(11) 0.1640(3)
H6 H 0.1010 0.6628 0.1619
C8 C 0.1100(3) 1.0214(12) 0.1854(3)
H7 H 0.1037 1.1451 0.1583
C9 C 0.1764(3) 1.0221(13) 0.2181(3)
C10 C 0.1775(4) 0.7580(10) 0.2169(3)
H8 H 0.2224 0.6800 0.2162
C11 C 0.1271(5) 0.6894(17) 0.2601(3)
H9 H 0.1298 0.5227 0.2652
H10 H 0.1409 0.7616 0.2942
C12 C 0.0504(3) 0.9810(12) 0.2274(3)
H11 H 0.0544 1.0939 0.2572
C13 C -0.0192(3) 1.0020(12) 0.2016(3)
C14 C -0.0480(4) 0.8293(15) 0.1708(4)
H12 H -0.0235 0.6922 0.1655
C15 C -0.1121(4) 0.8528(17) 0.1474(3)
H13 H -0.1297 0.7357 0.1252
C16 C -0.1504(4) 1.0512(17) 0.1569(4)
H14 H -0.1936 1.0716 0.1410
C17 C -0.1205(4) 1.2300(14) 0.1933(4)
H15 H -0.1465 1.3591 0.2031
C18 C -0.0588(4) 1.2069(15) 0.2112(4)
H16 H -0.0392 1.3275 0.2311
O1 O 0.2157(3) 1.1648(13) 0.2337(3)
O2 O 0.0556(3) 0.7513(7) 0.2491(3)
C19 C 0.4709(4) 0.9801(16) 0.4758(3)
H17 H 0.4706 1.1086 0.4528
C20 C 0.5134(5) 0.9790(17) 0.5220(4)
H18 H 0.5443 1.0993 0.5287
C21 C 0.5076(6) 0.786(2) 0.5585(4)
H19 H 0.5326 0.7850 0.5909
C22 C 0.4667(5) 0.608(2) 0.5463(4)
H20 H 0.4657 0.4792 0.5692
C23 C 0.4254(4) 0.6119(15) 0.4999(3)
H21 H 0.3949 0.4903 0.4935
C24 C 0.4289(4) 0.7898(13) 0.4640(3)
C25 C 0.3808(4) 0.7813(12) 0.4146(3)
H22 H 0.3432 0.6684 0.4178
C26 C 0.3580(3) 1.0245(11) 0.3900(3)
H23 H 0.3506 1.1516 0.4159
C27 C 0.4249(4) 1.0265(16) 0.3582(3)
C28 C 0.4246(5) 0.7633(14) 0.3570(3)
H24 H 0.4693 0.6837 0.3579
C29 C 0.3725(4) 0.6903(18) 0.3118(4)
H25 H 0.3843 0.7667 0.2777
H26 H 0.3751 0.5239 0.3060
C30 C 0.2998(4) 0.9741(14) 0.3493(3)
H27 H 0.3036 1.0861 0.3193
C31 C 0.2282(3) 0.9987(12) 0.3742(3)
C32 C 0.1905(4) 1.2051(14) 0.3653(3)
H28 H 0.2083 1.3246 0.3440
C33 C 0.1229(5) 1.2244(15) 0.3908(4)
H29 H 0.0974 1.3606 0.3875
C34 C 0.0980(4) 1.0476(17) 0.4185(4)
H30 H 0.0531 1.0574 0.4317
C35 C 0.1353(4) 0.8483(18) 0.4290(3)
H31 H 0.1164 0.7328 0.4509
C36 C 0.2021(4) 0.8189(16) 0.4066(3)
H32 H 0.2277 0.6852 0.4132
O3 O 0.4604(3) 1.1923(12) 0.3401(2)
O4 O 0.3060(3) 0.7510(7) 0.32710(19)
loop_
_geom_bond_atom_site_label_1
_geom_bond_atom_site_label_2
_geom_bond_site_symmetry_1
_geom_bond_site_symmetry_2
C1 H1 1_555 1_555
C2 C1 1_555 1_555
H2 C2 1_555 1_555
C3 C2 1_555 1_555
H3 C3 1_555 1_555
C4 C3 1_555 1_555
H4 C4 1_555 1_555
C5 C4 1_555 1_555
H5 C5 1_555 1_555
C6 C1 1_555 1_555
C7 C6 1_555 1_555
H6 C7 1_555 1_555
C8 C7 1_555 1_555
H7 C8 1_555 1_555
C9 C8 1_555 1_555
C10 C7 1_555 1_555
H8 C10 1_555 1_555
C11 C10 1_555 1_555
H9 C11 1_555 1_555
H10 C11 1_555 1_555
C12 C8 1_555 1_555
H11 C12 1_555 1_555
C13 C12 1_555 1_555
C14 C13 1_555 1_555
H12 C14 1_555 1_555
C15 C14 1_555 1_555
H13 C15 1_555 1_555
C16 C15 1_555 1_555
H14 C16 1_555 1_555
C17 C16 1_555 1_555
H15 C17 1_555 1_555
C18 C13 1_555 1_555
H16 C18 1_555 1_555
C19 H17 1_555 1_555
C20 C19 1_555 1_555
H18 C20 1_555 1_555
C21 C20 1_555 1_555
H19 C21 1_555 1_555
C22 C21 1_555 1_555
H20 C22 1_555 1_555
C23 C22 1_555 1_555
H21 C23 1_555 1_555
C24 C19 1_555 1_555
C25 C24 1_555 1_555
H22 C25 1_555 1_555
C26 C25 1_555 1_555
H23 C26 1_555 1_555
C27 C26 1_555 1_555
C28 C25 1_555 1_555
H24 C28 1_555 1_555
C29 C28 1_555 1_555
H25 C29 1_555 1_555
H26 C29 1_555 1_555
C30 C26 1_555 1_555
H27 C30 1_555 1_555
C31 C30 1_555 1_555
C32 C31 1_555 1_555
H28 C32 1_555 1_555
C33 C32 1_555 1_555
H29 C33 1_555 1_555
C34 C33 1_555 1_555
H30 C34 1_555 1_555
C35 C34 1_555 1_555
H31 C35 1_555 1_555
C36 C31 1_555 1_555
H32 C36 1_555 1_555
O1 C9 1_555 1_555
O2 C11 1_555 1_555
O3 C27 1_555 1_555
O4 C29 1_555 1_555
C5 C6 1_555 1_555
C9 C10 1_555 1_555
C12 O2 1_555 1_555
C17 C18 1_555 1_555
C23 C24 1_555 1_555
C27 C28 1_555 1_555
C30 O4 1_555 1_555
C35 C36 1_555 1_555

#END
