
#######################################################################
#
#                 Cambridge Crystallographic Data Centre
#                                CCDC 
#
#######################################################################
#
# If this CIF has been generated from an entry in the Cambridge 
# Structural Database, then it will include bibliographic, chemical, 
# crystal, experimental, refinement or atomic coordinate data resulting 
# from the CCDC's data processing and validation procedures.
#
#######################################################################

data_SARQUA01
_chemical_formula_moiety         'C18 H16 Cl2 O8,C1 H4 O1'
_chemical_name_systematic        
'methyl 3,5-dichloro-2-hydroxy-6-[4-hydroxy-2-methoxy-6-(methoxycarbonyl)phenoxy]-4-methylbenzoate methanol solvate'
_symmetry_cell_setting           monoclinic
_symmetry_space_group_name_H-M   'P 21/n'
_symmetry_Int_Tables_number      14
_space_group_name_Hall           '-P 2yn'
loop_
_symmetry_equiv_pos_site_id
_symmetry_equiv_pos_as_xyz
1 x,y,z
2 1/2-x,1/2+y,1/2-z
3 -x,-y,-z
4 1/2+x,1/2-y,1/2+z
_cell_length_a                   11.144(2)
_cell_length_b                   15.361(3)
_cell_length_c                   12.124(2)
_cell_angle_alpha                90
_cell_angle_beta                 94.79(3)
_cell_angle_gamma                90
_cell_volume                     2068.17
_exptl_crystal_colour            colorless
_exptl_crystal_description       block
_cell_formula_units_Z            4
loop_
_atom_site_label
_atom_site_type_symbol
_atom_site_fract_x
_atom_site_fract_y
_atom_site_fract_z
Cl1 Cl 0.37649(6) 0.22852(5) 0.68589(6)
Cl2 Cl 0.46955(7) 0.45285(6) 0.36133(6)
O1 O 0.13442(13) 0.27587(9) 0.63385(12)
O2 O 0.21700(13) 0.41834(11) 0.75245(13)
O3 O -0.20952(14) 0.19109(11) 0.66925(14)
C1 C -0.04475(18) 0.27739(13) 0.72856(17)
C2 C 0.03774(18) 0.42059(14) 0.85254(17)
H1 H 0.0649 0.4688 0.8938
C3 C 0.10690(18) 0.38667(14) 0.77343(17)
C4 C 0.06581(18) 0.31492(13) 0.71017(16)
C5 C -0.0916(2) 0.20084(15) 0.66262(18)
C6 C -0.11322(19) 0.31238(14) 0.80918(17)
H2 H -0.1872 0.2877 0.8213
O4 O -0.03826(14) 0.34257(13) 0.49368(15)
O5 O -0.03447(17) 0.15264(12) 0.60990(16)
C7 C 0.20805(18) 0.32221(13) 0.56936(17)
C8 C 0.1644(2) 0.37968(14) 0.48557(18)
C9 C -0.07192(19) 0.38304(14) 0.87065(17)
C10 C 0.32902(19) 0.30257(14) 0.58385(18)
O6 O 0.21861(19) 0.48172(14) 0.34585(16)
H3 H 0.1453 0.4880 0.3405
C11 C 0.3705(2) 0.40132(16) 0.4430(2)
C12 C 0.4134(2) 0.34107(16) 0.5205(2)
C13 C 0.2498(2) 0.42196(16) 0.42401(19)
O7 O 0.0029(2) 0.44992(16) 0.3833(2)
C14 C 0.0362(2) 0.39490(18) 0.4511(2)
C15 C 0.2560(2) 0.49746(17) 0.8035(2)
H4 H 0.3299 0.5155 0.7752
H5 H 0.2686 0.4891 0.8820
H6 H 0.1957 0.5414 0.7878
C16 C -0.2648(3) 0.11864(19) 0.6084(2)
H7 H -0.2602 0.1278 0.5306
H8 H -0.3477 0.1141 0.6238
H9 H -0.2234 0.0659 0.6305
C17 C -0.1659(2) 0.3544(2) 0.4636(3)
H10 H -0.1806 0.4133 0.4398
H11 H -0.2100 0.3424 0.5266
H12 H -0.1915 0.3153 0.4045
C18 C 0.5443(2) 0.3182(2) 0.5359(3)
H13 H 0.5606 0.2882 0.6050
H14 H 0.5916 0.3704 0.5362
H15 H 0.5646 0.2812 0.4764
O8 O -0.13359(15) 0.41957(11) 0.95156(13)
H16 H -0.1992 0.3956 0.9529
O9 O 0.14218(16) 0.13829(14) 0.45966(17)
H17 H 0.1062 0.1503 0.5140
C19 C 0.0623(3) 0.1088(3) 0.3769(3)
H18 H 0.1045 0.0940 0.3137
H19 H 0.0042 0.1535 0.3569
H20 H 0.0218 0.0582 0.4018
loop_
_geom_bond_atom_site_label_1
_geom_bond_atom_site_label_2
_geom_bond_site_symmetry_1
_geom_bond_site_symmetry_2
Cl1 C10 1_555 1_555
Cl2 C11 1_555 1_555
O1 C4 1_555 1_555
O2 C3 1_555 1_555
O3 C5 1_555 1_555
C1 C4 1_555 1_555
C2 H1 1_555 1_555
C3 C2 1_555 1_555
C4 C3 1_555 1_555
C5 C1 1_555 1_555
C6 C1 1_555 1_555
H2 C6 1_555 1_555
O4 C14 1_555 1_555
O5 C5 1_555 1_555
C7 O1 1_555 1_555
C8 C7 1_555 1_555
C9 C2 1_555 1_555
C10 C7 1_555 1_555
O6 H3 1_555 1_555
C11 C12 1_555 1_555
C12 C10 1_555 1_555
C13 C8 1_555 1_555
O7 C14 1_555 1_555
C14 C8 1_555 1_555
C15 O2 1_555 1_555
H4 C15 1_555 1_555
H5 C15 1_555 1_555
H6 C15 1_555 1_555
C16 O3 1_555 1_555
H7 C16 1_555 1_555
H8 C16 1_555 1_555
H9 C16 1_555 1_555
C17 O4 1_555 1_555
H10 C17 1_555 1_555
H11 C17 1_555 1_555
H12 C17 1_555 1_555
C18 C12 1_555 1_555
H13 C18 1_555 1_555
H14 C18 1_555 1_555
H15 C18 1_555 1_555
O8 C9 1_555 1_555
H16 O8 1_555 1_555
O9 H17 1_555 1_555
C19 O9 1_555 1_555
H18 C19 1_555 1_555
H19 C19 1_555 1_555
H20 C19 1_555 1_555
C6 C9 1_555 1_555
O6 C13 1_555 1_555
C11 C13 1_555 1_555

#END
