
#######################################################################
#
#                 Cambridge Crystallographic Data Centre
#                                CCDC 
#
#######################################################################
#
# If this CIF has been generated from an entry in the Cambridge 
# Structural Database, then it will include bibliographic, chemical, 
# crystal, experimental, refinement or atomic coordinate data resulting 
# from the CCDC's data processing and validation procedures.
#
#######################################################################

data_SARSOW
_chemical_formula_moiety         'C26 H31 N1 O4 P2'
_chemical_name_systematic        
'diethyl (3-((4-(diphenylphosphino)benzoyl)amino)propyl)phosphonate'
_symmetry_cell_setting           monoclinic
_symmetry_space_group_name_H-M   'P 21/n'
_symmetry_Int_Tables_number      14
_space_group_name_Hall           '-P 2yn'
loop_
_symmetry_equiv_pos_site_id
_symmetry_equiv_pos_as_xyz
1 x,y,z
2 1/2-x,1/2+y,1/2-z
3 -x,-y,-z
4 1/2+x,1/2-y,1/2+z
_cell_length_a                   9.7377(3)
_cell_length_b                   26.4771(7)
_cell_length_c                   10.0424(3)
_cell_angle_alpha                90
_cell_angle_beta                 95.850(2)
_cell_angle_gamma                90
_cell_volume                     2575.71
_exptl_crystal_colour            colorless
_exptl_crystal_description       plate
_cell_formula_units_Z            4
loop_
_atom_site_label
_atom_site_type_symbol
_atom_site_fract_x
_atom_site_fract_y
_atom_site_fract_z
C1 C 0.2260(2) 0.18331(8) 0.59661(19)
C2 C 0.1969(2) 0.13494(8) 0.5473(2)
H1 H 0.1201 0.1170 0.5748
C3 C 0.2785(3) 0.11270(9) 0.4587(2)
H2 H 0.2593 0.0793 0.4276
C4 C 0.3880(3) 0.13911(10) 0.4156(2)
H3 H 0.4435 0.1241 0.3539
C5 C 0.4165(3) 0.18712(10) 0.4621(2)
H4 H 0.4913 0.2054 0.4316
C6 C 0.3370(2) 0.20917(9) 0.5531(2)
H5 H 0.3585 0.2422 0.5858
P1 P 0.11027(6) 0.20931(2) 0.71151(6)
C7 C 0.1728(15) 0.1698(6) 0.8632(13)
C8 C 0.2968(14) 0.1424(7) 0.8817(13)
H6 H 0.3600 0.1458 0.8161
C9 C 0.3335(12) 0.1101(4) 0.9916(9)
H7 H 0.4165 0.0911 0.9960
C10 C 0.2470(15) 0.1064(5) 1.0932(8)
H8 H 0.2693 0.0846 1.1674
C11 C 0.1274(18) 0.1352(7) 1.0839(13)
H9 H 0.0694 0.1342 1.1545
C12 C 0.0911(13) 0.1655(4) 0.9727(11)
H10 H 0.0076 0.1842 0.9695
C13 C 0.1891(2) 0.27084(8) 0.7541(2)
C14 C 0.2866(2) 0.27968(8) 0.8630(2)
H11 H 0.3181 0.2524 0.9197
C15 C 0.3380(2) 0.32781(8) 0.8893(2)
H12 H 0.4030 0.3333 0.9650
C16 C 0.2962(2) 0.36817(8) 0.8069(2)
C17 C 0.1990(2) 0.35947(8) 0.6975(2)
H13 H 0.1694 0.3866 0.6395
C18 C 0.1456(2) 0.31158(9) 0.6730(2)
H14 H 0.0778 0.3064 0.5993
C19 C 0.3574(2) 0.41924(8) 0.8409(2)
O1 O 0.41421(19) 0.42805(6) 0.95350(19)
N1 N 0.3480(2) 0.45380(7) 0.7429(2)
H15 H 0.3055 0.4456 0.6643
C20 C 0.4054(2) 0.50441(8) 0.7611(3)
H16 H 0.4090 0.5139 0.8567
H17 H 0.3442 0.5287 0.7090
C21 C 0.5490(2) 0.50782(8) 0.7165(2)
H18 H 0.5476 0.4947 0.6241
H19 H 0.6129 0.4866 0.7756
C22 C 0.6012(2) 0.56231(9) 0.7210(3)
H20 H 0.6071 0.5745 0.8146
H21 H 0.5335 0.5837 0.6669
P2 P 0.76384(8) 0.56934(3) 0.66089(6)
O2 O 0.7972(18) 0.5438(5) 0.5299(5)
O3 O 0.7848(12) 0.6310(2) 0.6590(4)
C23 C 0.7917(10) 0.6621(3) 0.7771(6)
H22 H 0.8584 0.6476 0.8479
H23 H 0.7000 0.6636 0.8113
C24 C 0.837(2) 0.7144(3) 0.7411(16)
H24 H 0.9313 0.7129 0.7148
H25 H 0.8352 0.7367 0.8187
H26 H 0.7746 0.7275 0.6665
O4 O 0.86189(17) 0.54390(8) 0.77548(16)
C25 C 0.9978(7) 0.5394(3) 0.7292(7)
H27 H 1.0715 0.5473 0.8015
H28 H 1.0074 0.5618 0.6518
C26 C 1.0011(6) 0.4862(2) 0.6906(7)
H29 H 0.9873 0.4650 0.7682
H30 H 1.0907 0.4784 0.6592
H31 H 0.9274 0.4796 0.6188
C27? C 0.1443(18) 0.1752(9) 0.8629(14)
C28? C 0.2580(17) 0.1455(8) 0.8869(15)
H32? H 0.3224 0.1424 0.8224
C29? C 0.2781(17) 0.1197(5) 1.0090(11)
H33? H 0.3591 0.1003 1.0318
C30? C 0.177(2) 0.1232(7) 1.0948(13)
H34? H 0.1881 0.1050 1.1767
C31? C 0.0613(16) 0.1522(5) 1.0655(9)
H35? H -0.0059 0.1542 1.1275
C32? C 0.0420(12) 0.1784(5) 0.9472(9)
H36? H -0.0389 0.1979 0.9244
O5? O 0.7391(18) 0.5563(4) 0.5204(7)
O6? O 0.8423(17) 0.6181(6) 0.6660(9)
C33? C 0.844(2) 0.6465(8) 0.7877(13)
H37? H 0.9319 0.6404 0.8446
H38? H 0.7668 0.6360 0.8380
C34? C 0.831(3) 0.7016(9) 0.752(3)
H39? H 0.8987 0.7102 0.6893
H40? H 0.8486 0.7221 0.8330
H41? H 0.7378 0.7083 0.7094
C35? C 1.0114(7) 0.5246(3) 0.7842(7)
H42? H 1.0205 0.5019 0.7073
H43? H 1.0732 0.5539 0.7752
C36? C 1.0597(5) 0.4972(2) 0.9090(5)
H44? H 1.0425 0.5179 0.9865
H45? H 1.1588 0.4905 0.9110
H46? H 1.0096 0.4652 0.9119
loop_
_geom_bond_atom_site_label_1
_geom_bond_atom_site_label_2
_geom_bond_site_symmetry_1
_geom_bond_site_symmetry_2
C1 C2 1_555 1_555
C2 H1 1_555 1_555
C3 C2 1_555 1_555
H2 C3 1_555 1_555
C4 C3 1_555 1_555
H3 C4 1_555 1_555
C5 C4 1_555 1_555
H4 C5 1_555 1_555
C6 C1 1_555 1_555
H5 C6 1_555 1_555
P1 C1 1_555 1_555
C7 P1 1_555 1_555
C8 C7 1_555 1_555
H6 C8 1_555 1_555
C9 C8 1_555 1_555
H7 C9 1_555 1_555
C10 C9 1_555 1_555
H8 C10 1_555 1_555
C11 C10 1_555 1_555
H9 C11 1_555 1_555
C12 C7 1_555 1_555
H10 C12 1_555 1_555
C13 P1 1_555 1_555
C14 C13 1_555 1_555
H11 C14 1_555 1_555
C15 C14 1_555 1_555
H12 C15 1_555 1_555
C16 C15 1_555 1_555
C17 C16 1_555 1_555
H13 C17 1_555 1_555
C18 C13 1_555 1_555
H14 C18 1_555 1_555
C19 C16 1_555 1_555
O1 C19 1_555 1_555
N1 C19 1_555 1_555
H15 N1 1_555 1_555
C20 N1 1_555 1_555
H16 C20 1_555 1_555
H17 C20 1_555 1_555
C21 C20 1_555 1_555
H18 C21 1_555 1_555
H19 C21 1_555 1_555
C22 C21 1_555 1_555
H20 C22 1_555 1_555
H21 C22 1_555 1_555
P2 C22 1_555 1_555
O2 P2 1_555 1_555
O3 P2 1_555 1_555
C23 O3 1_555 1_555
H22 C23 1_555 1_555
H23 C23 1_555 1_555
C24 C23 1_555 1_555
H24 C24 1_555 1_555
H25 C24 1_555 1_555
H26 C24 1_555 1_555
O4 P2 1_555 1_555
C25 O4 1_555 1_555
H27 C25 1_555 1_555
H28 C25 1_555 1_555
C26 C25 1_555 1_555
H29 C26 1_555 1_555
H30 C26 1_555 1_555
H31 C26 1_555 1_555
C5 C6 1_555 1_555
C11 C12 1_555 1_555
C17 C18 1_555 1_555

#END
