
#######################################################################
#
#                 Cambridge Crystallographic Data Centre
#                                CCDC 
#
#######################################################################
#
# If this CIF has been generated from an entry in the Cambridge 
# Structural Database, then it will include bibliographic, chemical, 
# crystal, experimental, refinement or atomic coordinate data resulting 
# from the CCDC's data processing and validation procedures.
#
#######################################################################

data_SARYUI
_chemical_formula_moiety         'C28 H19 N1 O1'
_chemical_name_systematic        
phenyl(4-(1-phenylisoquinolin-3-yl)phenyl)methanone
_symmetry_cell_setting           triclinic
_symmetry_space_group_name_H-M   'P -1'
_symmetry_Int_Tables_number      2
_space_group_name_Hall           '-P 1'
loop_
_symmetry_equiv_pos_site_id
_symmetry_equiv_pos_as_xyz
1 x,y,z
2 -x,-y,-z
_cell_length_a                   10.157(3)
_cell_length_b                   10.266(3)
_cell_length_c                   10.409(3)
_cell_angle_alpha                64.341(4)
_cell_angle_beta                 80.820(4)
_cell_angle_gamma                88.352(4)
_cell_volume                     964.811
_exptl_crystal_colour            colorless
_exptl_crystal_description       Block
_cell_formula_units_Z            2
loop_
_atom_site_label
_atom_site_type_symbol
_atom_site_fract_x
_atom_site_fract_y
_atom_site_fract_z
N1 N 0.30737(9) 0.65045(10) 0.31711(10)
O1 O 0.77625(8) 0.97020(9) 0.53223(9)
C1 C 0.57280(11) 0.82105(12) 0.87484(12)
H1 H 0.4920 0.8202 0.8438
C2 C 0.57378(12) 0.79943(13) 1.01549(13)
H2 H 0.4938 0.7865 1.0781
C3 C 0.69396(13) 0.79705(12) 1.06249(12)
H3 H 0.6946 0.7826 1.1570
C4 C 0.81363(12) 0.81608(13) 0.96982(13)
H4 H 0.8942 0.8116 1.0029
C5 C 0.81288(11) 0.84176(12) 0.82831(12)
H5 H 0.8931 0.8576 0.7653
C6 C 0.69229(11) 0.84407(11) 0.77965(12)
C7 C 0.69484(11) 0.88018(12) 0.62410(12)
C8 C 0.59707(11) 0.80474(12) 0.58394(12)
C9 C 0.54269(11) 0.66738(12) 0.67853(12)
H6 H 0.5648 0.6221 0.7708
C10 C 0.45629(11) 0.59769(12) 0.63685(12)
H7 H 0.4231 0.5046 0.7005
C11 C 0.41768(11) 0.66397(12) 0.50100(12)
C12 C 0.47357(11) 0.80139(12) 0.40546(12)
H8 H 0.4502 0.8473 0.3138
C13 C 0.56307(11) 0.86967(12) 0.44560(12)
H9 H 0.6012 0.9600 0.3798
C14 C 0.32052(11) 0.59075(12) 0.45947(12)
C15 C 0.24661(11) 0.46981(12) 0.55910(12)
H10 H 0.2567 0.4324 0.6557
C16 C 0.15583(11) 0.40190(12) 0.51673(12)
C17 C 0.07629(12) 0.27754(12) 0.61756(12)
H11 H 0.0855 0.2374 0.7145
C18 C -0.01306(12) 0.21694(12) 0.57327(13)
H12 H -0.0637 0.1344 0.6397
C19 C -0.02955(12) 0.27806(13) 0.42769(14)
H13 H -0.0921 0.2365 0.3988
C20 C 0.04518(11) 0.39772(13) 0.32816(13)
H14 H 0.0324 0.4375 0.2323
C21 C 0.14176(11) 0.46189(12) 0.36930(12)
C22 C 0.22328(11) 0.58872(12) 0.27383(12)
C23 C 0.21420(11) 0.66343(12) 0.11734(12)
C24 C 0.21977(11) 0.58993(13) 0.03162(13)
H15 H 0.2295 0.4905 0.0721
C25 C 0.21097(12) 0.66405(14) -0.11390(13)
H16 H 0.2146 0.6141 -0.1705
C26 C 0.19673(12) 0.81220(14) -0.17522(13)
H17 H 0.1898 0.8618 -0.2726
C27 C 0.19299(13) 0.88560(13) -0.09082(13)
H18 H 0.1842 0.9852 -0.1319
C28 C 0.20212(11) 0.81269(12) 0.05404(12)
H19 H 0.2002 0.8635 0.1096
loop_
_geom_bond_atom_site_label_1
_geom_bond_atom_site_label_2
_geom_bond_site_symmetry_1
_geom_bond_site_symmetry_2
N1 C14 1_555 1_555
O1 C7 1_555 1_555
C1 H1 1_555 1_555
C2 C1 1_555 1_555
H2 C2 1_555 1_555
C3 C2 1_555 1_555
H3 C3 1_555 1_555
C4 C3 1_555 1_555
H4 C4 1_555 1_555
C5 C4 1_555 1_555
H5 C5 1_555 1_555
C6 C1 1_555 1_555
C7 C6 1_555 1_555
C8 C7 1_555 1_555
C9 C8 1_555 1_555
H6 C9 1_555 1_555
C10 C9 1_555 1_555
H7 C10 1_555 1_555
C11 C10 1_555 1_555
C12 C11 1_555 1_555
H8 C12 1_555 1_555
C13 C8 1_555 1_555
H9 C13 1_555 1_555
C14 C11 1_555 1_555
C15 C14 1_555 1_555
H10 C15 1_555 1_555
C16 C15 1_555 1_555
C17 C16 1_555 1_555
H11 C17 1_555 1_555
C18 C17 1_555 1_555
H12 C18 1_555 1_555
C19 C18 1_555 1_555
H13 C19 1_555 1_555
C20 C19 1_555 1_555
H14 C20 1_555 1_555
C21 C16 1_555 1_555
C22 N1 1_555 1_555
C23 C22 1_555 1_555
C24 C23 1_555 1_555
H15 C24 1_555 1_555
C25 C24 1_555 1_555
H16 C25 1_555 1_555
C26 C25 1_555 1_555
H17 C26 1_555 1_555
C27 C26 1_555 1_555
H18 C27 1_555 1_555
C28 C23 1_555 1_555
H19 C28 1_555 1_555
C5 C6 1_555 1_555
C12 C13 1_555 1_555
C20 C21 1_555 1_555
C21 C22 1_555 1_555
C27 C28 1_555 1_555

#END
