
#######################################################################
#
#                 Cambridge Crystallographic Data Centre
#                                CCDC 
#
#######################################################################
#
# If this CIF has been generated from an entry in the Cambridge 
# Structural Database, then it will include bibliographic, chemical, 
# crystal, experimental, refinement or atomic coordinate data resulting 
# from the CCDC's data processing and validation procedures.
#
#######################################################################

data_SARZOC
_chemical_formula_moiety         'C26 H28 O5'
_chemical_name_systematic        
'Methyl 3,7-diallyl-1-benzoyl-9,9-dimethyl-2,8-dioxobicyclo[3.3.1]non-6-ene-3-carboxylate'
_symmetry_cell_setting           monoclinic
_symmetry_space_group_name_H-M   'P 21/c'
_symmetry_Int_Tables_number      14
_space_group_name_Hall           '-P 2ybc'
loop_
_symmetry_equiv_pos_site_id
_symmetry_equiv_pos_as_xyz
1 x,y,z
2 -x,1/2+y,1/2-z
3 -x,-y,-z
4 x,1/2-y,1/2+z
_cell_length_a                   8.5279(4)
_cell_length_b                   12.1776(7)
_cell_length_c                   21.2420(12)
_cell_angle_alpha                90
_cell_angle_beta                 93.029(2)
_cell_angle_gamma                90
_cell_volume                     2202.89
_exptl_crystal_colour            colorless
_exptl_crystal_description       block
_cell_formula_units_Z            4
loop_
_atom_site_label
_atom_site_type_symbol
_atom_site_fract_x
_atom_site_fract_y
_atom_site_fract_z
O1 O 0.13357(11) 0.40929(8) 0.04982(4)
O2 O 0.19352(12) 0.26433(8) 0.23326(5)
O3 O 0.39987(11) 0.48076(8) 0.17390(5)
O4 O 0.33740(12) 0.65691(9) 0.19366(5)
O5 O -0.09557(12) 0.21201(9) 0.11257(5)
C1 C 0.12567(13) 0.44204(10) 0.10319(6)
C2 C 0.16552(15) 0.56093(10) 0.12133(6)
C3 C 0.02079(15) 0.61348(11) 0.14860(6)
H1 H 0.049(2) 0.6833(15) 0.1680(8)
H2 H -0.056(2) 0.6311(15) 0.1131(9)
C4 C -0.06149(15) 0.53925(11) 0.19496(6)
H3 H -0.156(2) 0.5740(14) 0.2065(8)
C5 C -0.10916(14) 0.42618(11) 0.16656(6)
C6 C 0.05194(14) 0.36732(10) 0.15256(6)
C7 C 0.14124(14) 0.35362(11) 0.21764(6)
C8 C 0.14481(17) 0.44683(12) 0.26278(6)
C9 C 0.04540(16) 0.52956(11) 0.25331(6)
H4 H 0.048(2) 0.5896(15) 0.2803(8)
C10 C 0.31179(15) 0.55915(11) 0.16687(6)
C11 C 0.48591(17) 0.66876(14) 0.22916(8)
H5 H 0.4914 0.6159 0.2640
H6 H 0.4949 0.7435 0.2461
H7 H 0.5721 0.6550 0.2014
C12 C 0.21244(16) 0.62920(11) 0.06339(6)
H8 H 0.129(2) 0.6139(15) 0.0288(9)
H9 H 0.203(2) 0.7071(15) 0.0749(8)
C13 C 0.37335(17) 0.60451(13) 0.04217(7)
H10 H 0.392(2) 0.5302(16) 0.0296(9)
C14 C 0.4875(2) 0.67714(16) 0.04038(8)
H11 H 0.588(3) 0.6570(18) 0.0253(10)
H12 H 0.468(3) 0.7551(19) 0.0561(11)
C15 C -0.21641(16) 0.44283(13) 0.10694(7)
H13 H -0.161(2) 0.4784(16) 0.0738(9)
H14 H -0.257(2) 0.3729(17) 0.0901(9)
H15 H -0.304(2) 0.4869(16) 0.1189(9)
C16 C -0.20299(17) 0.36162(13) 0.21412(7)
H16 H -0.233(2) 0.2909(17) 0.1947(10)
H17 H -0.298(2) 0.4055(17) 0.2220(10)
H18 H -0.144(2) 0.3474(16) 0.2556(10)
C17 C 0.03435(15) 0.25100(11) 0.12273(6)
C18 C 0.17621(16) 0.18404(11) 0.10784(6)
C19 C 0.1490(2) 0.07365(12) 0.09367(8)
H19 H 0.046(3) 0.0489(17) 0.0937(10)
C20 C 0.2713(2) 0.00485(14) 0.07955(9)
H20 H 0.245(3) -0.070(2) 0.0685(12)
C21 C 0.4226(2) 0.04496(14) 0.07893(8)
H21 H 0.507(3) -0.0013(19) 0.0689(11)
C22 C 0.45189(18) 0.15427(14) 0.09330(7)
H22 H 0.560(2) 0.1832(16) 0.0940(9)
C23 C 0.32945(16) 0.22367(12) 0.10830(7)
H23 H 0.352(2) 0.2983(15) 0.1195(8)
C24 C 0.25972(18) 0.43950(13) 0.31972(7)
H24 H 0.362(2) 0.4226(16) 0.3063(9)
H25 H 0.267(2) 0.5097(16) 0.3394(9)
C25 C 0.21775(18) 0.35550(13) 0.36718(7)
H26 H 0.219(2) 0.2791(16) 0.3529(9)
C26 C 0.1866(2) 0.37743(19) 0.42600(8)
H27 H 0.164(3) 0.315(2) 0.4546(11)
H28 H 0.186(3) 0.449(2) 0.4415(11)
loop_
_geom_bond_atom_site_label_1
_geom_bond_atom_site_label_2
_geom_bond_site_symmetry_1
_geom_bond_site_symmetry_2
O1 C1 1_555 1_555
O2 C7 1_555 1_555
O3 C10 1_555 1_555
O4 C10 1_555 1_555
O5 C17 1_555 1_555
C1 C2 1_555 1_555
C2 C3 1_555 1_555
C3 H1 1_555 1_555
H2 C3 1_555 1_555
C4 C3 1_555 1_555
H3 C4 1_555 1_555
C5 C4 1_555 1_555
C6 C1 1_555 1_555
C7 C6 1_555 1_555
C8 C7 1_555 1_555
C9 C4 1_555 1_555
H4 C9 1_555 1_555
C10 C2 1_555 1_555
C11 O4 1_555 1_555
H5 C11 1_555 1_555
H6 C11 1_555 1_555
H7 C11 1_555 1_555
C12 C2 1_555 1_555
H8 C12 1_555 1_555
H9 C12 1_555 1_555
C13 C12 1_555 1_555
H10 C13 1_555 1_555
C14 C13 1_555 1_555
H11 C14 1_555 1_555
H12 C14 1_555 1_555
C15 C5 1_555 1_555
H13 C15 1_555 1_555
H14 C15 1_555 1_555
H15 C15 1_555 1_555
C16 C5 1_555 1_555
H16 C16 1_555 1_555
H17 C16 1_555 1_555
H18 C16 1_555 1_555
C17 C6 1_555 1_555
C18 C17 1_555 1_555
C19 C18 1_555 1_555
H19 C19 1_555 1_555
C20 C19 1_555 1_555
H20 C20 1_555 1_555
C21 C20 1_555 1_555
H21 C21 1_555 1_555
C22 C21 1_555 1_555
H22 C22 1_555 1_555
C23 C18 1_555 1_555
H23 C23 1_555 1_555
C24 C8 1_555 1_555
H24 C24 1_555 1_555
H25 C24 1_555 1_555
C25 C24 1_555 1_555
H26 C25 1_555 1_555
C26 C25 1_555 1_555
H27 C26 1_555 1_555
H28 C26 1_555 1_555
C5 C6 1_555 1_555
C8 C9 1_555 1_555
C22 C23 1_555 1_555

#END
