
#######################################################################
#
#                 Cambridge Crystallographic Data Centre
#                                CCDC 
#
#######################################################################
#
# If this CIF has been generated from an entry in the Cambridge 
# Structural Database, then it will include bibliographic, chemical, 
# crystal, experimental, refinement or atomic coordinate data resulting 
# from the CCDC's data processing and validation procedures.
#
#######################################################################

data_SARZAP
_chemical_formula_moiety         'C13 H12 F3 N1 O2'
_chemical_name_systematic        
1,1,1-trifluoro-3-(6-methoxy-3,4-dihydroisoquinolin-1(2H)-ylidene)propan-2-one
_symmetry_cell_setting           monoclinic
_symmetry_space_group_name_H-M   'P 21/c'
_symmetry_Int_Tables_number      14
_space_group_name_Hall           '-P 2ybc'
loop_
_symmetry_equiv_pos_site_id
_symmetry_equiv_pos_as_xyz
1 x,y,z
2 -x,1/2+y,1/2-z
3 -x,-y,-z
4 x,1/2-y,1/2+z
_cell_length_a                   7.8606(2)
_cell_length_b                   8.5158(2)
_cell_length_c                   18.6068(4)
_cell_angle_alpha                90
_cell_angle_beta                 98.7710(10)
_cell_angle_gamma                90
_cell_volume                     1230.96
_exptl_crystal_colour            silver
_exptl_crystal_description       BLOCK
_cell_formula_units_Z            4
loop_
_atom_site_label
_atom_site_type_symbol
_atom_site_fract_x
_atom_site_fract_y
_atom_site_fract_z
F4 F 0.1478(9) 0.5054(6) 0.5517(4)
F5 F 0.4043(6) 0.4442(7) 0.5843(4)
F6 F 0.1489(11) 0.4040(10) 0.6142(6)
O1 O 0.85117(12) 0.00525(13) 0.25064(6)
O2 O 0.08770(13) 0.17107(12) 0.52217(6)
N1 N 0.21195(14) -0.00898(13) 0.42195(6)
H1 H 0.1303 0.0066 0.4471
C1 C 0.34280(16) 0.09080(14) 0.42931(6)
C2 C 0.2000(2) -0.14369(18) 0.37327(9)
H2 H 0.0814 -0.1788 0.3627
H3 H 0.2690 -0.2294 0.3964
C3 C 0.26326(18) -0.0985(2) 0.30379(8)
H4 H 0.2678 -0.1909 0.2736
H5 H 0.1842 -0.0240 0.2771
C4 C 0.56176(17) -0.04890(16) 0.27523(7)
H6 H 0.5357 -0.1100 0.2336
C5 C 0.72261(16) 0.01947(16) 0.29180(7)
C6 C 0.76127(17) 0.11120(16) 0.35385(7)
H7 H 0.8693 0.1573 0.3650
C7 C 0.64027(17) 0.13392(15) 0.39872(7)
H8 H 0.6675 0.1952 0.4403
C8 C 0.47683(15) 0.06650(14) 0.38301(6)
C9 C 0.43933(16) -0.02654(15) 0.32051(7)
C10 C 0.35034(17) 0.21684(15) 0.47810(7)
H9 H 0.4448 0.2839 0.4823
C11 C 0.22237(18) 0.24590(15) 0.52051(7)
C12 C 0.2487(2) 0.39026(19) 0.57053(10)
C13 C 0.8209(2) -0.0921(2) 0.18789(10)
H10 H 0.9211 -0.0926 0.1642
H11 H 0.7243 -0.0523 0.1551
H12 H 0.7967 -0.1972 0.2021
F1? F 0.2379(15) 0.5183(5) 0.5251(3)
F2? F 0.4023(9) 0.4050(13) 0.6027(5)
F3? F 0.2195(9) 0.3483(7) 0.63852(19)
loop_
_geom_bond_atom_site_label_1
_geom_bond_atom_site_label_2
_geom_bond_site_symmetry_1
_geom_bond_site_symmetry_2
F4 C12 1_555 1_555
F5 C12 1_555 1_555
F6 C12 1_555 1_555
O1 C5 1_555 1_555
O2 C11 1_555 1_555
N1 H1 1_555 1_555
C1 N1 1_555 1_555
C2 N1 1_555 1_555
H2 C2 1_555 1_555
H3 C2 1_555 1_555
C3 C2 1_555 1_555
H4 C3 1_555 1_555
H5 C3 1_555 1_555
C4 H6 1_555 1_555
C5 C4 1_555 1_555
C6 C5 1_555 1_555
H7 C6 1_555 1_555
C7 C6 1_555 1_555
H8 C7 1_555 1_555
C8 C1 1_555 1_555
C9 C3 1_555 1_555
C10 C1 1_555 1_555
H9 C10 1_555 1_555
C11 C10 1_555 1_555
C12 C11 1_555 1_555
C13 O1 1_555 1_555
H10 C13 1_555 1_555
H11 C13 1_555 1_555
H12 C13 1_555 1_555
C4 C9 1_555 1_555
C7 C8 1_555 1_555
C8 C9 1_555 1_555

#END
