
#######################################################################
#
#                 Cambridge Crystallographic Data Centre
#                                CCDC 
#
#######################################################################
#
# If this CIF has been generated from an entry in the Cambridge 
# Structural Database, then it will include bibliographic, chemical, 
# crystal, experimental, refinement or atomic coordinate data resulting 
# from the CCDC's data processing and validation procedures.
#
#######################################################################

data_SASHUS
_chemical_formula_moiety         'C34 H28 N2 O4'
_chemical_name_systematic        
2-((2-((2-((2-(((2-hydroxyphenyl)imino)methyl)phenoxy)methyl)benzyl)oxy)benzylidene)amino)phenol
_symmetry_cell_setting           monoclinic
_symmetry_space_group_name_H-M   'P 21/c'
_symmetry_Int_Tables_number      14
_space_group_name_Hall           '-P 2ybc'
loop_
_symmetry_equiv_pos_site_id
_symmetry_equiv_pos_as_xyz
1 x,y,z
2 -x,1/2+y,1/2-z
3 -x,-y,-z
4 x,1/2-y,1/2+z
_cell_length_a                   19.251(7)
_cell_length_b                   6.3681(14)
_cell_length_c                   23.562(9)
_cell_angle_alpha                90
_cell_angle_beta                 110.33(4)
_cell_angle_gamma                90
_cell_volume                     2708.59
_exptl_crystal_colour            yellow
_exptl_crystal_description       prismatic
_cell_formula_units_Z            4
loop_
_atom_site_label
_atom_site_type_symbol
_atom_site_fract_x
_atom_site_fract_y
_atom_site_fract_z
O1 O 0.5031(4) 1.5274(6) 0.4435(3)
H1 H 0.4867 1.4446 0.4623
O2 O 0.3256(3) 0.6231(6) 0.3743(2)
O3 O 0.1673(3) -0.0955(6) 0.2603(2)
O4 O 0.0686(4) -0.9647(6) 0.1068(3)
H2 H 0.0556 -0.9134 0.1334
N1 N 0.4395(3) 1.1566(8) 0.4144(3)
N2 N 0.0833(3) -0.5859(7) 0.1531(3)
C1 C 0.0930(4) -0.6065(10) 0.0967(3)
C2 C 0.1087(5) -0.4494(10) 0.0623(3)
H3 H 0.1140 -0.3117 0.0764
C3 C 0.1166(5) -0.4936(11) 0.0075(4)
H4 H 0.1284 -0.3876 -0.0147
C4 C 0.1069(5) -0.6959(12) -0.0136(4)
H5 H 0.1116 -0.7260 -0.0507
C5 C 0.0905(5) -0.8545(11) 0.0188(4)
H6 H 0.0845 -0.9914 0.0041
C6 C 0.0831(4) -0.8083(10) 0.0731(4)
C7 C 0.1081(4) -0.4300(9) 0.1869(3)
H7 H 0.1327 -0.3252 0.1739
C8 C 0.0996(4) -0.4072(9) 0.2457(3)
C9 C 0.0623(4) -0.5571(9) 0.2660(3)
H8 H 0.0411 -0.6707 0.2412
C10 C 0.0556(4) -0.5427(9) 0.3221(3)
H9 H 0.0302 -0.6453 0.3352
C11 C 0.0870(4) -0.3739(10) 0.3587(3)
H10 H 0.0829 -0.3643 0.3968
C12 C 0.1240(4) -0.2196(9) 0.3400(3)
H11 H 0.1437 -0.1049 0.3649
C13 C 0.1320(4) -0.2358(9) 0.2839(3)
C14 C 0.2098(4) 0.0601(8) 0.2997(3)
H12 H 0.2468 -0.0052 0.3342
H13 H 0.1781 0.1465 0.3143
C15 C 0.2471(4) 0.1940(9) 0.2660(3)
C16 C 0.2462(4) 0.1407(10) 0.2101(4)
H14 H 0.2255 0.0133 0.1933
C17 C 0.2755(4) 0.2720(11) 0.1778(3)
H15 H 0.2725 0.2352 0.1388
C18 C 0.3089(4) 0.4555(12) 0.2025(4)
H16 H 0.3293 0.5433 0.1809
C19 C 0.3118(4) 0.5086(10) 0.2596(4)
H17 H 0.3343 0.6340 0.2766
C20 C 0.2819(4) 0.3805(10) 0.2929(3)
C21 C 0.2838(4) 0.4363(8) 0.3554(3)
H18 H 0.2338 0.4570 0.3551
H19 H 0.3063 0.3230 0.3832
C22 C 0.3289(4) 0.7101(11) 0.4288(4)
C23 C 0.2928(4) 0.6296(11) 0.4652(4)
H20 H 0.2665 0.5044 0.4550
C24 C 0.2960(5) 0.7365(12) 0.5171(4)
H21 H 0.2720 0.6830 0.5421
C25 C 0.3348(5) 0.9235(12) 0.5317(4)
H22 H 0.3361 0.9963 0.5662
C26 C 0.3715(4) 1.0028(10) 0.4957(4)
H23 H 0.3974 1.1285 0.5062
C27 C 0.3701(4) 0.8968(10) 0.4438(4)
C28 C 0.4111(4) 0.9750(10) 0.4075(3)
H24 H 0.4170 0.8884 0.3777
C29 C 0.4795(5) 1.2303(11) 0.3789(4)
C30 C 0.4899(5) 1.1342(11) 0.3302(4)
H25 H 0.4677 1.0049 0.3171
C31 C 0.5328(5) 1.2262(12) 0.3004(4)
H26 H 0.5390 1.1606 0.2672
C32 C 0.5662(5) 1.4179(14) 0.3210(4)
H27 H 0.5966 1.4781 0.3022
C33 C 0.5557(5) 1.5195(11) 0.3679(4)
H28 H 0.5770 1.6504 0.3801
C34 C 0.5134(5) 1.4279(12) 0.3968(4)
loop_
_geom_bond_atom_site_label_1
_geom_bond_atom_site_label_2
_geom_bond_site_symmetry_1
_geom_bond_site_symmetry_2
O1 H1 1_555 1_555
O2 C21 1_555 1_555
O3 C13 1_555 1_555
O4 H2 1_555 1_555
N1 C28 1_555 1_555
N2 C1 1_555 1_555
C1 C2 1_555 1_555
C2 H3 1_555 1_555
C3 C2 1_555 1_555
H4 C3 1_555 1_555
C4 C3 1_555 1_555
H5 C4 1_555 1_555
C5 C4 1_555 1_555
H6 C5 1_555 1_555
C6 O4 1_555 1_555
C7 N2 1_555 1_555
H7 C7 1_555 1_555
C8 C7 1_555 1_555
C9 C8 1_555 1_555
H8 C9 1_555 1_555
C10 C9 1_555 1_555
H9 C10 1_555 1_555
C11 C10 1_555 1_555
H10 C11 1_555 1_555
C12 C11 1_555 1_555
H11 C12 1_555 1_555
C13 C8 1_555 1_555
C14 O3 1_555 1_555
H12 C14 1_555 1_555
H13 C14 1_555 1_555
C15 C14 1_555 1_555
C16 C15 1_555 1_555
H14 C16 1_555 1_555
C17 C16 1_555 1_555
H15 C17 1_555 1_555
C18 C17 1_555 1_555
H16 C18 1_555 1_555
C19 C18 1_555 1_555
H17 C19 1_555 1_555
C20 C15 1_555 1_555
C21 C20 1_555 1_555
H18 C21 1_555 1_555
H19 C21 1_555 1_555
C22 O2 1_555 1_555
C23 C22 1_555 1_555
H20 C23 1_555 1_555
C24 C23 1_555 1_555
H21 C24 1_555 1_555
C25 C24 1_555 1_555
H22 C25 1_555 1_555
C26 C25 1_555 1_555
H23 C26 1_555 1_555
C27 C22 1_555 1_555
C28 C27 1_555 1_555
H24 C28 1_555 1_555
C29 N1 1_555 1_555
C30 C29 1_555 1_555
H25 C30 1_555 1_555
C31 C30 1_555 1_555
H26 C31 1_555 1_555
C32 C31 1_555 1_555
H27 C32 1_555 1_555
C33 C32 1_555 1_555
H28 C33 1_555 1_555
C34 O1 1_555 1_555
C1 C6 1_555 1_555
C5 C6 1_555 1_555
C12 C13 1_555 1_555
C19 C20 1_555 1_555
C26 C27 1_555 1_555
C29 C34 1_555 1_555
C33 C34 1_555 1_555

#END
