
#######################################################################
#
#                 Cambridge Crystallographic Data Centre
#                                CCDC 
#
#######################################################################
#
# If this CIF has been generated from an entry in the Cambridge 
# Structural Database, then it will include bibliographic, chemical, 
# crystal, experimental, refinement or atomic coordinate data resulting 
# from the CCDC's data processing and validation procedures.
#
#######################################################################

data_SASHUR
_chemical_formula_moiety         'C10 H10 F2 O4'
_chemical_name_systematic        
'Methyl 2-(difluoromethyl)-6-hydroxy-4-methoxybenzoate'
_symmetry_cell_setting           monoclinic
_symmetry_space_group_name_H-M   'C 2/c'
_symmetry_Int_Tables_number      15
_space_group_name_Hall           '-C 2yn'
loop_
_symmetry_equiv_pos_site_id
_symmetry_equiv_pos_as_xyz
1 x,y,z
2 -x,y,1/2-z
3 1/2+x,1/2+y,z
4 1/2-x,1/2+y,1/2-z
5 -x,-y,-z
6 x,-y,1/2+z
7 1/2-x,1/2-y,-z
8 1/2+x,1/2-y,1/2+z
_cell_length_a                   41.3776(16)
_cell_length_b                   4.05817(10)
_cell_length_c                   23.7933(9)
_cell_angle_alpha                90
_cell_angle_beta                 94.726(3)
_cell_angle_gamma                90
_cell_volume                     3981.72
_exptl_crystal_colour            colorless
_exptl_crystal_description       prism
_cell_formula_units_Z            16
loop_
_atom_site_label
_atom_site_type_symbol
_atom_site_fract_x
_atom_site_fract_y
_atom_site_fract_z
C1 C 0.98741(3) 0.4683(3) 0.58387(6)
H1 H 0.9848 0.2476 0.5654
C2 C 0.96074(3) 0.5271(3) 0.62233(5)
C3 C 0.92829(3) 0.4195(3) 0.60813(5)
C4 C 0.90569(3) 0.4769(3) 0.64805(5)
C5 C 0.91398(3) 0.6404(4) 0.69831(6)
H2 H 0.8981 0.6797 0.7242
C6 C 0.94536(3) 0.7452(3) 0.71035(6)
C7 C 0.96880(3) 0.6839(3) 0.67245(6)
H3 H 0.9906 0.7520 0.6816
C8 C 0.91664(3) 0.2543(3) 0.55549(6)
C9 C 0.92695(4) 0.0828(4) 0.46414(6)
H4 H 0.9216 -0.1466 0.4722
H5 H 0.9445 0.0881 0.4389
H6 H 0.9078 0.1936 0.4460
C10 C 0.93356(4) 0.9741(4) 0.79846(6)
H7 H 0.9157 1.1073 0.7809
H8 H 0.9444 1.0954 0.8303
H9 H 0.9250 0.7664 0.8120
F1 F 1.016939(18) 0.4932(3) 0.61349(4)
F2 F 0.98736(2) 0.7127(2) 0.54429(4)
O1 O 0.87451(2) 0.3752(3) 0.63984(5)
O2 O 0.88951(2) 0.1327(3) 0.54746(4)
O3 O 0.93728(2) 0.2500(3) 0.51631(4)
O4 O 0.95627(2) 0.9060(3) 0.75796(4)
H19 H 0.8736(4) 0.268(5) 0.6057(8)
C11 C 0.76407(3) 0.1767(3) 0.33777(5)
H10 H 0.7730 -0.0256 0.3207
C12 C 0.78924(3) 0.3368(3) 0.37840(5)
C13 C 0.82081(3) 0.4146(3) 0.36267(5)
C14 C 0.84175(3) 0.5853(3) 0.40200(5)
C15 C 0.83271(3) 0.6699(3) 0.45520(5)
H11 H 0.8474 0.7823 0.4813
C16 C 0.80228(3) 0.5884(3) 0.46926(5)
C17 C 0.78049(3) 0.4216(3) 0.43087(5)
H12 H 0.7595 0.3669 0.4413
C18 C 0.83341(3) 0.3278(3) 0.30869(5)
C19 C 0.82582(4) 0.0636(4) 0.22045(6)
H13 H 0.8298 0.2673 0.2000
H14 H 0.8094 -0.0683 0.1985
H15 H 0.8460 -0.0625 0.2262
C20 C 0.81111(4) 0.8341(4) 0.56000(6)
H16 H 0.8306 0.7033 0.5706
H17 H 0.7995 0.8763 0.5935
H18 H 0.8174 1.0441 0.5437
F3 F 0.753914(19) 0.39856(19) 0.29681(3)
F4 F 0.736973(18) 0.1034(2) 0.36427(3)
O5 O 0.87196(2) 0.6773(3) 0.39097(5)
O6 O 0.86009(2) 0.4145(3) 0.29539(4)
O7 O 0.81425(2) 0.1441(3) 0.27463(4)
O8 O 0.79055(2) 0.6572(3) 0.51943(4)
H20 H 0.8746(4) 0.604(5) 0.3559(8)
loop_
_geom_bond_atom_site_label_1
_geom_bond_atom_site_label_2
_geom_bond_site_symmetry_1
_geom_bond_site_symmetry_2
C1 H1 1_555 1_555
C2 C1 1_555 1_555
C3 C2 1_555 1_555
C4 C3 1_555 1_555
C5 C4 1_555 1_555
H2 C5 1_555 1_555
C6 C5 1_555 1_555
C7 C2 1_555 1_555
H3 C7 1_555 1_555
C8 C3 1_555 1_555
C9 H4 1_555 1_555
H5 C9 1_555 1_555
H6 C9 1_555 1_555
C10 H7 1_555 1_555
H8 C10 1_555 1_555
H9 C10 1_555 1_555
C11 H10 1_555 1_555
C12 C11 1_555 1_555
C13 C12 1_555 1_555
C14 C13 1_555 1_555
C15 C14 1_555 1_555
H11 C15 1_555 1_555
C16 C15 1_555 1_555
C17 C12 1_555 1_555
H12 C17 1_555 1_555
C18 C13 1_555 1_555
C19 H13 1_555 1_555
H14 C19 1_555 1_555
H15 C19 1_555 1_555
C20 H16 1_555 1_555
H17 C20 1_555 1_555
H18 C20 1_555 1_555
F1 C1 1_555 1_555
F2 C1 1_555 1_555
F3 C11 1_555 1_555
F4 C11 1_555 1_555
O1 C4 1_555 1_555
O2 C8 1_555 1_555
O3 C8 1_555 1_555
O4 C6 1_555 1_555
O5 C14 1_555 1_555
O6 C18 1_555 1_555
O7 C18 1_555 1_555
O8 C16 1_555 1_555
H19 O1 1_555 1_555
H20 O5 1_555 1_555
C6 C7 1_555 1_555
C9 O3 1_555 1_555
C10 O4 1_555 1_555
C16 C17 1_555 1_555
C19 O7 1_555 1_555
C20 O8 1_555 1_555

#END
