
#######################################################################
#
#                 Cambridge Crystallographic Data Centre
#                                CCDC 
#
#######################################################################
#
# If this CIF has been generated from an entry in the Cambridge 
# Structural Database, then it will include bibliographic, chemical, 
# crystal, experimental, refinement or atomic coordinate data resulting 
# from the CCDC's data processing and validation procedures.
#
#######################################################################

data_SASJED
_chemical_formula_moiety         'C18 H27 Cl1 F2 O5'
_chemical_name_systematic        
'Ethyl 6-(chloro(difluoro)methyl)-3-heptyl-6-hydroxy-4-methoxy-2-oxocyclohex-3-ene-1-carboxylate'
_symmetry_cell_setting           triclinic
_symmetry_space_group_name_H-M   'P -1'
_symmetry_Int_Tables_number      2
_space_group_name_Hall           '-P 1'
loop_
_symmetry_equiv_pos_site_id
_symmetry_equiv_pos_as_xyz
1 x,y,z
2 -x,-y,-z
_cell_length_a                   8.8671(18)
_cell_length_b                   10.008(2)
_cell_length_c                   12.184(2)
_cell_angle_alpha                87.18(3)
_cell_angle_beta                 73.57(3)
_cell_angle_gamma                71.50(3)
_cell_volume                     982.51
_exptl_crystal_colour            colorless
_exptl_crystal_description       block
_cell_formula_units_Z            2
loop_
_atom_site_label
_atom_site_type_symbol
_atom_site_fract_x
_atom_site_fract_y
_atom_site_fract_z
Cl1 Cl 0.10543(4) 0.50250(3) 0.29004(3)
O1 O 0.20044(11) 0.56096(9) 0.50246(8)
O2 O -0.24286(11) 0.84994(10) 0.65446(8)
O3 O 0.49980(11) 0.79233(11) 0.32348(9)
O4 O 0.49813(12) 0.63259(11) 0.45858(10)
O5 O 0.26934(13) 0.91359(12) 0.59038(10)
F1 F 0.36971(10) 0.55715(10) 0.27303(9)
F2 F 0.17024(13) 0.72949(9) 0.24047(7)
C1 C 0.23876(14) 0.78919(12) 0.44250(11)
H1 H 0.2080 0.8640 0.3880
C2 C 0.15587(13) 0.67712(12) 0.43526(10)
C3 C -0.03197(14) 0.74476(12) 0.47709(10)
H2 H -0.0693 0.8110 0.4199
H3 H -0.0855 0.6705 0.4840
C4 C 0.01536(15) 0.86688(12) 0.63515(11)
C5 C -0.08527(14) 0.82253(12) 0.59035(10)
C6 C 0.17892(15) 0.85881(12) 0.56329(11)
C7 C 0.42646(15) 0.72890(13) 0.41019(12)
C8 C 0.6804(2) 0.7276(2) 0.28025(17)
H4 H 0.7076 0.6385 0.2360
H5 H 0.7305 0.7065 0.3447
C9 C 0.7448(2) 0.8316(2) 0.20504(19)
H6 H 0.6855 0.8592 0.1466
H7 H 0.8635 0.7885 0.1677
H8 H 0.7277 0.9152 0.2515
C10 C 0.20487(16) 0.62233(13) 0.30986(12)
C11 C -0.36521(16) 0.82828(16) 0.60713(14)
H9 H -0.3660 0.8800 0.5368
H10 H -0.4748 0.8626 0.6628
H11 H -0.3382 0.7274 0.5896
C12 C -0.04364(18) 0.93138(14) 0.75494(11)
H12 H -0.1536 1.0036 0.7658
H13 H 0.0341 0.9794 0.7643
C13 C -0.0573(2) 0.82272(17) 0.84802(13)
H14 H -0.1028 0.8734 0.9239
H15 H -0.1374 0.7769 0.8394
C14 C 0.1035(3) 0.7097(3) 0.8460(2)
H16 H 0.0781 0.6562 0.9156
H17 H 0.1264 0.6446 0.7803
C15 C 0.1996(5) 0.7956(4) 0.9052(4)
H18 H 0.2360 0.8638 0.8512
H19 H 0.1213 0.8487 0.9760
C16 C 0.3430(5) 0.6951(4) 0.9323(3)
H20 H 0.4117 0.6311 0.8648
H21 H 0.3052 0.6373 0.9960
C17 C 0.4445(8) 0.7725(7) 0.9660(7)
H22 H 0.3750 0.8402 1.0311
H23 H 0.4889 0.8255 0.9009
C18 C 0.5877(7) 0.6628(7) 1.0004(5)
H24 H 0.5428 0.6176 1.0696
H25 H 0.6619 0.7096 1.0155
H26 H 0.6495 0.5912 0.9379
H27 H 0.300(3) 0.541(2) 0.5000(18)
C19? C 0.2632(4) 0.7298(4) 0.8396(3)
C20? C 0.2436(5) 0.7984(6) 0.9549(4)
C21? C 0.3903(8) 0.8366(8) 0.9688(8)
C22? C 0.5041(6) 0.7206(4) 0.9747(5)
C23? C 0.678(3) 0.784(3) 0.294(2)
C24? C 0.740(3) 0.751(3) 0.175(2)
H28? H 0.2914 0.7914 0.7764
H29? H 0.3527 0.6379 0.8258
H30? H 0.1471 0.8855 0.9687
H31? H 0.2164 0.7335 1.0157
H32? H 0.4320 0.8894 0.9026
H33? H 0.3566 0.8965 1.0394
H34? H 0.4593 0.6665 1.0376
H35? H 0.5977 0.7419 0.9887
H36? H 0.5417 0.6650 0.9024
H37? H 0.6884 0.8752 0.3126
H38? H 0.7381 0.7096 0.3368
H39? H 0.7191 0.6656 0.1573
H40? H 0.8601 0.7359 0.1508
H41? H 0.6856 0.8297 0.1337
loop_
_geom_bond_atom_site_label_1
_geom_bond_atom_site_label_2
_geom_bond_site_symmetry_1
_geom_bond_site_symmetry_2
Cl1 C10 1_555 1_555
O1 C2 1_555 1_555
O2 C5 1_555 1_555
O3 C7 1_555 1_555
O4 C7 1_555 1_555
O5 C6 1_555 1_555
F1 C10 1_555 1_555
F2 C10 1_555 1_555
C1 H1 1_555 1_555
C2 C1 1_555 1_555
C3 C2 1_555 1_555
H2 C3 1_555 1_555
H3 C3 1_555 1_555
C4 C5 1_555 1_555
C5 C3 1_555 1_555
C6 C1 1_555 1_555
C7 C1 1_555 1_555
C8 O3 1_555 1_555
H4 C8 1_555 1_555
H5 C8 1_555 1_555
C9 C8 1_555 1_555
H6 C9 1_555 1_555
H7 C9 1_555 1_555
H8 C9 1_555 1_555
C10 C2 1_555 1_555
C11 O2 1_555 1_555
H9 C11 1_555 1_555
H10 C11 1_555 1_555
H11 C11 1_555 1_555
C12 C4 1_555 1_555
H12 C12 1_555 1_555
H13 C12 1_555 1_555
C13 C12 1_555 1_555
H14 C13 1_555 1_555
H15 C13 1_555 1_555
C14 C13 1_555 1_555
H16 C14 1_555 1_555
H17 C14 1_555 1_555
C15 C14 1_555 1_555
H18 C15 1_555 1_555
H19 C15 1_555 1_555
C16 C15 1_555 1_555
H20 C16 1_555 1_555
H21 C16 1_555 1_555
C17 C16 1_555 1_555
H22 C17 1_555 1_555
H23 C17 1_555 1_555
C18 C17 1_555 1_555
H24 C18 1_555 1_555
H25 C18 1_555 1_555
H26 C18 1_555 1_555
H27 O1 1_555 1_555
C4 C6 1_555 1_555

#END
