
#######################################################################
#
#                 Cambridge Crystallographic Data Centre
#                                CCDC 
#
#######################################################################
#
# If this CIF has been generated from an entry in the Cambridge 
# Structural Database, then it will include bibliographic, chemical, 
# crystal, experimental, refinement or atomic coordinate data resulting 
# from the CCDC's data processing and validation procedures.
#
#######################################################################

data_SASMEH
_chemical_formula_moiety         'C15 H13 N5 O5'
_chemical_name_systematic        
1-ethyl-5-(2-(2-hydroxy-4-nitrophenyl)hydrazinylidene)-4-methyl-2,6-dioxo-1,2,5,6-tetrahydropyridine-3-carbonitrile
_symmetry_cell_setting           monoclinic
_symmetry_space_group_name_H-M   'P 21/c'
_symmetry_Int_Tables_number      14
_space_group_name_Hall           '-P 2ybc'
loop_
_symmetry_equiv_pos_site_id
_symmetry_equiv_pos_as_xyz
1 x,y,z
2 -x,1/2+y,1/2-z
3 -x,-y,-z
4 x,1/2-y,1/2+z
_cell_length_a                   12.2577(10)
_cell_length_b                   17.2712(14)
_cell_length_c                   18.9856(16)
_cell_angle_alpha                90
_cell_angle_beta                 129.1300(10)
_cell_angle_gamma                90
_cell_volume                     3117.87
_exptl_crystal_colour            orange
_exptl_crystal_description       block
_cell_formula_units_Z            8
loop_
_atom_site_label
_atom_site_type_symbol
_atom_site_fract_x
_atom_site_fract_y
_atom_site_fract_z
C1 C 1.31994(18) 0.22666(10) 0.97100(12)
C2 C 1.21645(19) 0.24761(11) 0.97597(13)
H1 H 1.2126 0.2975 0.9927
C3 C 1.11905(19) 0.19264(11) 0.95550(13)
H2 H 1.0486 0.2051 0.9588
C4 C 1.12557(18) 0.11887(10) 0.93004(12)
C5 C 1.23235(18) 0.09863(10) 0.92592(13)
C6 C 1.33131(19) 0.15328(11) 0.94750(13)
H3 H 1.4039 0.1410 0.9462
C7 C 0.83540(18) 0.01835(10) 0.88704(12)
C8 C 0.72570(19) 0.03874(11) 0.89166(13)
C9 C 0.63120(19) -0.01734(11) 0.86955(13)
C10 C 0.6336(2) -0.09581(11) 0.84151(14)
C11 C 0.84430(19) -0.06009(11) 0.86135(13)
C12 C 0.7199(2) 0.11805(12) 0.91998(17)
H4 H 0.6418 0.1216 0.9200
H5 H 0.7086 0.1553 0.8783
H6 H 0.8056 0.1284 0.9799
C13 C 0.5218(2) -0.00322(11) 0.87534(14)
C14 C 0.7588(2) -0.19478(11) 0.82195(14)
H7 H 0.7269 -0.2299 0.8454
H8 H 0.8571 -0.2059 0.8527
C15 C 0.6756(3) -0.20850(14) 0.72270(16)
H9 H 0.5776 -0.2005 0.6924
H10 H 0.6900 -0.2607 0.7128
H11 H 0.7057 -0.1731 0.6990
N1 N 1.42391(17) 0.28452(10) 0.99196(11)
N2 N 1.03014(15) 0.06029(9) 0.90752(10)
H12 H 1.0396 0.0151 0.8929
N3 N 0.92591(15) 0.07385(9) 0.90864(11)
N4 N 0.74536(16) -0.11378(9) 0.84198(11)
N5 N 0.43761(19) 0.00820(10) 0.88225(14)
O1 O 1.52791(15) 0.26291(9) 1.00201(12)
O2 O 1.40096(17) 0.35253(9) 0.99712(12)
O3 O 1.22947(14) 0.02521(7) 0.90018(11)
H13 H 1.2931 0.0192 0.8975
O4 O 0.93775(14) -0.07858(8) 0.85782(10)
O5 O 0.54554(16) -0.14384(9) 0.82032(12)
C16 C 0.20991(19) -0.09918(11) 0.55552(14)
C17 C 0.3071(2) -0.12016(11) 0.54489(14)
H14 H 0.2986 -0.1667 0.5172
C18 C 0.41739(19) -0.07042(11) 0.57638(13)
H15 H 0.4832 -0.0827 0.5687
C19 C 0.43018(18) -0.00253(10) 0.61923(13)
C20 C 0.3296(2) 0.01818(11) 0.62867(14)
C21 C 0.2178(2) -0.03084(12) 0.59557(14)
H16 H 0.1490 -0.0179 0.6003
C22 C 0.73990(17) 0.08760(10) 0.67996(12)
C23 C 0.85090(18) 0.06595(11) 0.67725(12)
C24 C 0.94574(18) 0.12169(11) 0.69843(13)
C25 C 0.9440(2) 0.20090(12) 0.72533(14)
C26 C 0.7360(2) 0.16534(11) 0.70902(14)
C27 C 0.8581(2) -0.01403(11) 0.65147(15)
H17 H 0.9278 -0.0162 0.6433
H18 H 0.7682 -0.0282 0.5958
H19 H 0.8831 -0.0493 0.6986
C28 C 1.0577(2) 0.10726(12) 0.69531(14)
C29 C 0.8376(3) 0.29626(13) 0.76227(18)
H20 H 0.7875 0.2947 0.7863
H21 H 0.9337 0.3120 0.8109
C30 C 0.7716(3) 0.35294(17) 0.6892(2)
H22 H 0.8212 0.3547 0.6655
H23 H 0.7744 0.4030 0.7123
H24 H 0.6756 0.3384 0.6418
N6 N 0.09149(18) -0.15126(11) 0.52251(13)
N7 N 0.54038(15) 0.04977(9) 0.65461(11)
H25 H 0.5402 0.0929 0.6772
N8 N 0.64398(15) 0.03390(9) 0.65379(10)
N9 N 0.83779(17) 0.21754(9) 0.73038(12)
N10 N 1.14639(19) 0.09741(12) 0.69266(14)
O6 O -0.00086(17) -0.12890(10) 0.52465(13)
O7 O 0.09097(18) -0.21494(10) 0.49409(15)
O8 O 0.35026(15) 0.08628(9) 0.67062(12)
H26 H 0.2927 0.0908 0.6791
O9 O 0.64569(15) 0.18441(8) 0.71545(11)
O10 O 1.03036(16) 0.24900(9) 0.74389(12)
loop_
_geom_bond_atom_site_label_1
_geom_bond_atom_site_label_2
_geom_bond_site_symmetry_1
_geom_bond_site_symmetry_2
C1 C2 1_555 1_555
C2 H1 1_555 1_555
C3 C2 1_555 1_555
H2 C3 1_555 1_555
C4 C3 1_555 1_555
C5 C4 1_555 1_555
C6 C1 1_555 1_555
H3 C6 1_555 1_555
C7 C8 1_555 1_555
C8 C9 1_555 1_555
C9 C10 1_555 1_555
C10 N4 1_555 1_555
C11 C7 1_555 1_555
C12 C8 1_555 1_555
H4 C12 1_555 1_555
H5 C12 1_555 1_555
H6 C12 1_555 1_555
C13 C9 1_555 1_555
C14 H7 1_555 1_555
H8 C14 1_555 1_555
C15 C14 1_555 1_555
H9 C15 1_555 1_555
H10 C15 1_555 1_555
H11 C15 1_555 1_555
N1 C1 1_555 1_555
N2 C4 1_555 1_555
H12 N2 1_555 1_555
N3 C7 1_555 1_555
N4 C11 1_555 1_555
N5 C13 1_555 1_555
O1 N1 1_555 1_555
O2 N1 1_555 1_555
O3 C5 1_555 1_555
H13 O3 1_555 1_555
O4 C11 1_555 1_555
O5 C10 1_555 1_555
C16 C17 1_555 1_555
C17 H14 1_555 1_555
C18 C17 1_555 1_555
H15 C18 1_555 1_555
C19 C18 1_555 1_555
C20 C19 1_555 1_555
C21 C16 1_555 1_555
H16 C21 1_555 1_555
C22 C23 1_555 1_555
C23 C24 1_555 1_555
C24 C25 1_555 1_555
C25 N9 1_555 1_555
C26 C22 1_555 1_555
C27 C23 1_555 1_555
H17 C27 1_555 1_555
H18 C27 1_555 1_555
H19 C27 1_555 1_555
C28 C24 1_555 1_555
C29 H20 1_555 1_555
H21 C29 1_555 1_555
C30 C29 1_555 1_555
H22 C30 1_555 1_555
H23 C30 1_555 1_555
H24 C30 1_555 1_555
N6 C16 1_555 1_555
N7 C19 1_555 1_555
H25 N7 1_555 1_555
N8 C22 1_555 1_555
N9 C26 1_555 1_555
N10 C28 1_555 1_555
O6 N6 1_555 1_555
O7 N6 1_555 1_555
O8 C20 1_555 1_555
H26 O8 1_555 1_555
O9 C26 1_555 1_555
O10 C25 1_555 1_555
C5 C6 1_555 1_555
C14 N4 1_555 1_555
N2 N3 1_555 1_555
C20 C21 1_555 1_555
C29 N9 1_555 1_555
N7 N8 1_555 1_555

#END
