
#######################################################################
#
#                 Cambridge Crystallographic Data Centre
#                                CCDC 
#
#######################################################################
#
# If this CIF has been generated from an entry in the Cambridge 
# Structural Database, then it will include bibliographic, chemical, 
# crystal, experimental, refinement or atomic coordinate data resulting 
# from the CCDC's data processing and validation procedures.
#
#######################################################################

data_SASPIM
_chemical_formula_moiety         'C14 H18 O4 S1'
_chemical_name_systematic        
'3-Methyl-1-(p-tolylsulfonyl)cyclopropane-2-carboxylic acid ethyl ester'
_symmetry_cell_setting           monoclinic
_symmetry_space_group_name_H-M   'P 21/n'
_symmetry_Int_Tables_number      14
_space_group_name_Hall           '-P 2yn'
loop_
_symmetry_equiv_pos_site_id
_symmetry_equiv_pos_as_xyz
1 x,y,z
2 1/2-x,1/2+y,1/2-z
3 -x,-y,-z
4 1/2+x,1/2-y,1/2+z
_cell_length_a                   9.3162(19)
_cell_length_b                   17.800(4)
_cell_length_c                   9.3600(19)
_cell_angle_alpha                90.00
_cell_angle_beta                 107.19(3)
_cell_angle_gamma                90.00
_cell_volume                     1482.82
_exptl_crystal_colour            colorless
_exptl_crystal_description       block
_cell_formula_units_Z            4
loop_
_atom_site_label
_atom_site_type_symbol
_atom_site_fract_x
_atom_site_fract_y
_atom_site_fract_z
S1 S 0.81542(9) 0.11450(4) 0.79776(8)
O1 O 0.7023(2) 0.15415(13) 0.6859(2)
O2 O 0.7718(3) 0.04925(13) 0.8665(3)
O3 O 0.7087(3) 0.32209(14) 0.7411(3)
O4 O 0.9317(3) 0.31402(19) 0.7090(3)
C1 C 1.3225(4) 0.0287(3) 0.5507(5)
H1 H 1.2933 0.0357 0.4442
H2 H 1.3504 -0.0227 0.5740
H3 H 1.4065 0.0607 0.5967
C2 C 1.1930(4) 0.0485(2) 0.6088(4)
C3 C 1.1722(4) 0.0135(2) 0.7348(4)
H4 H 1.2387 -0.0240 0.7824
C4 C 1.0566(4) 0.03297(19) 0.7901(4)
H5 H 1.0449 0.0086 0.8739
C5 C 0.9590(3) 0.08805(16) 0.7220(3)
C6 C 0.9755(4) 0.12279(17) 0.5950(3)
H6 H 0.9077 0.1596 0.5466
C7 C 1.0914(4) 0.10295(19) 0.5407(4)
H7 H 1.1016 0.1269 0.4559
C8 C 0.9028(3) 0.17619(17) 0.9444(3)
H8 H 0.9910 0.1551 1.0184
C9 C 0.9066(3) 0.26055(18) 0.9290(3)
H9 H 0.9973 0.2846 0.9935
C10 C 0.8083(4) 0.22632(18) 1.0096(3)
H10 H 0.7013 0.2266 0.9536
C11 C 0.8403(4) 0.2320(2) 1.1788(3)
H11 H 0.9470 0.2332 1.2256
H12 H 0.7983 0.1892 1.2144
H13 H 0.7959 0.2771 1.2029
C12 C 0.8349(4) 0.30125(19) 0.7838(4)
C13 C 0.8711(7) 0.3516(4) 0.5582(7)
H14 H 0.8336 0.3135 0.4823
H15 H 0.7874 0.3837 0.5597
C14 C 0.9660(8) 0.3892(4) 0.5248(9)
H16 H 1.0109 0.4236 0.6045
H17 H 0.9197 0.4169 0.4349
H18 H 1.0420 0.3567 0.5088
loop_
_geom_bond_atom_site_label_1
_geom_bond_atom_site_label_2
_geom_bond_site_symmetry_1
_geom_bond_site_symmetry_2
S1 O1 1_555 1_555
O2 S1 1_555 1_555
O3 C12 1_555 1_555
O4 C12 1_555 1_555
C1 H1 1_555 1_555
H2 C1 1_555 1_555
H3 C1 1_555 1_555
C2 C1 1_555 1_555
C3 C2 1_555 1_555
H4 C3 1_555 1_555
C4 C3 1_555 1_555
H5 C4 1_555 1_555
C5 S1 1_555 1_555
C6 C5 1_555 1_555
H6 C6 1_555 1_555
C7 C2 1_555 1_555
H7 C7 1_555 1_555
C8 S1 1_555 1_555
H8 C8 1_555 1_555
C9 C8 1_555 1_555
H9 C9 1_555 1_555
C10 C8 1_555 1_555
H10 C10 1_555 1_555
C11 C10 1_555 1_555
H11 C11 1_555 1_555
H12 C11 1_555 1_555
H13 C11 1_555 1_555
C12 C9 1_555 1_555
C13 O4 1_555 1_555
H14 C13 1_555 1_555
H15 C13 1_555 1_555
C14 C13 1_555 1_555
H16 C14 1_555 1_555
H17 C14 1_555 1_555
H18 C14 1_555 1_555
C4 C5 1_555 1_555
C6 C7 1_555 1_555
C9 C10 1_555 1_555

#END
