
#######################################################################
#
#                 Cambridge Crystallographic Data Centre
#                                CCDC 
#
#######################################################################
#
# If this CIF has been generated from an entry in the Cambridge 
# Structural Database, then it will include bibliographic, chemical, 
# crystal, experimental, refinement or atomic coordinate data resulting 
# from the CCDC's data processing and validation procedures.
#
#######################################################################

data_SASPIN
_chemical_formula_moiety         'C28 H4 Cl4 F14 N4'
_chemical_name_systematic        
4,7,11,14-Tetrachloro-2,9-bis(heptafluoropropyl)-pyrimido[4',5',6':6,7]phenaleno[1,2,3-gh]perimidine
_symmetry_cell_setting           triclinic
_symmetry_space_group_name_H-M   'P -1'
_symmetry_Int_Tables_number      2
_space_group_name_Hall           '-P 1'
loop_
_symmetry_equiv_pos_site_id
_symmetry_equiv_pos_as_xyz
1 x,y,z
2 -x,-y,-z
_cell_length_a                   4.949(3)
_cell_length_b                   9.876(6)
_cell_length_c                   13.664(7)
_cell_angle_alpha                102.988(9)
_cell_angle_beta                 95.324(11)
_cell_angle_gamma                91.551(9)
_cell_volume                     647.162
_exptl_crystal_colour            red
_exptl_crystal_description       irregular
_cell_formula_units_Z            1
loop_
_atom_site_label
_atom_site_type_symbol
_atom_site_fract_x
_atom_site_fract_y
_atom_site_fract_z
Cl1 Cl 1.02712(15) 0.44856(7) 0.62039(4)
Cl2 Cl 0.79274(11) 0.12024(6) 1.07678(4)
F1 F 0.3283(3) 0.12114(14) 0.63109(9)
F2 F 0.2416(3) 0.04133(14) 0.76180(10)
F3 F 0.7571(3) -0.04568(15) 0.60323(10)
F4 F 0.6811(3) -0.12381(14) 0.73620(10)
F5 F 0.2389(3) -0.14550(16) 0.51863(10)
F6 F 0.1852(3) -0.22665(15) 0.64965(12)
F7 F 0.5090(3) -0.29689(16) 0.55829(13)
N1 N 0.7775(4) 0.25675(19) 0.72676(13)
N2 N 0.7061(4) 0.15497(19) 0.86695(13)
C1 C 0.9816(4) 0.3396(2) 0.78337(15)
C2 C 1.1279(5) 0.4370(2) 0.74130(15)
C3 C 1.3404(4) 0.5181(2) 0.79633(15)
H1 H 1.4346 0.5810 0.7665
C4 C 1.4262(4) 0.5111(2) 0.89850(14)
C5 C 1.2822(4) 0.4170(2) 0.94259(14)
C6 C 1.0617(4) 0.3329(2) 0.88398(14)
C7 C 0.9099(4) 0.2373(2) 0.92316(15)
C8 C 0.9835(4) 0.2297(2) 1.02616(15)
C9 C 1.1950(4) 0.3092(2) 1.08217(15)
H2 H 1.2402 0.3011 1.1497
C10 C 1.3530(4) 0.4049(2) 1.04327(14)
C11 C 0.6583(4) 0.1700(2) 0.77261(15)
C12 C 0.4424(4) 0.0678(2) 0.70635(15)
C13 C 0.5634(5) -0.0717(2) 0.66039(16)
C14 C 0.3673(5) -0.1872(2) 0.59456(18)
Cl1A Cl 1.97288(15) 0.55144(7) 1.37961(4)
Cl2A Cl 2.20726(11) 0.87976(6) 0.92322(4)
F1A F 2.6717(3) 0.87886(14) 1.36891(9)
F2A F 2.7584(3) 0.95867(14) 1.23820(10)
F3A F 2.2429(3) 1.04568(15) 1.39677(10)
F4A F 2.3189(3) 1.12381(14) 1.26380(10)
F5A F 2.7611(3) 1.14550(16) 1.48137(10)
F6A F 2.8148(3) 1.22665(15) 1.35035(12)
F7A F 2.4910(3) 1.29689(16) 1.44171(13)
N1A N 2.2225(4) 0.74325(19) 1.27324(13)
N2A N 2.2939(4) 0.84503(19) 1.13305(13)
C1A C 2.0184(4) 0.6604(2) 1.21663(15)
C2A C 1.8721(5) 0.5630(2) 1.25870(15)
C3A C 1.6596(4) 0.4819(2) 1.20367(15)
H1A H 1.5654 0.4190 1.2335
C4A C 1.5738(4) 0.4889(2) 1.10150(14)
C5A C 1.7178(4) 0.5830(2) 1.05741(14)
C6A C 1.9383(4) 0.6671(2) 1.11602(14)
C7A C 2.0901(4) 0.7627(2) 1.07684(15)
C8A C 2.0165(4) 0.7703(2) 0.97384(15)
C9A C 1.8050(4) 0.6908(2) 0.91783(15)
H2A H 1.7598 0.6989 0.8503
C10A C 1.6470(4) 0.5951(2) 0.95673(14)
C11A C 2.3417(4) 0.8300(2) 1.22739(15)
C12A C 2.5576(4) 0.9322(2) 1.29365(15)
C13A C 2.4366(5) 1.0717(2) 1.33961(16)
C14A C 2.6327(5) 1.1872(2) 1.40544(18)
loop_
_geom_bond_atom_site_label_1
_geom_bond_atom_site_label_2
_geom_bond_site_symmetry_1
_geom_bond_site_symmetry_2
Cl1 C2 1_555 1_555
Cl2 C8 1_555 1_555
F1 C12 1_555 1_555
F2 C12 1_555 1_555
F3 C13 1_555 1_555
F4 C13 1_555 1_555
F5 C14 1_555 1_555
F6 C14 1_555 1_555
F7 C14 1_555 1_555
N1 C1 1_555 1_555
N2 C7 1_555 1_555
C1 C2 1_555 1_555
C2 C3 1_555 1_555
C3 H1 1_555 1_555
C4 C3 1_555 1_555
C5 C4 1_555 1_555
C6 C1 1_555 1_555
C7 C6 1_555 1_555
C8 C7 1_555 1_555
C9 C8 1_555 1_555
H2 C9 1_555 1_555
C10 C5 1_555 1_555
C11 N1 1_555 1_555
C12 C11 1_555 1_555
C13 C12 1_555 1_555
C14 C13 1_555 1_555
Cl1A C2A 1_555 1_555
Cl2A C8A 1_555 1_555
F1A C12A 1_555 1_555
F2A C12A 1_555 1_555
F3A C13A 1_555 1_555
F4A C13A 1_555 1_555
F5A C14A 1_555 1_555
F6A C14A 1_555 1_555
F7A C14A 1_555 1_555
N1A C1A 1_555 1_555
N2A C7A 1_555 1_555
C1A C2A 1_555 1_555
C2A C3A 1_555 1_555
C3A H1A 1_555 1_555
C4A C10 1_555 1_555
C5A C4A 1_555 1_555
C6A C1A 1_555 1_555
C7A C6A 1_555 1_555
C8A C7A 1_555 1_555
C9A C8A 1_555 1_555
H2A C9A 1_555 1_555
C10A C4 1_555 1_555
C11A N1A 1_555 1_555
C12A C11A 1_555 1_555
C13A C12A 1_555 1_555
C14A C13A 1_555 1_555
N2 C11 1_555 1_555
C5 C6 1_555 1_555
C9 C10 1_555 1_555
N2A C11A 1_555 1_555
C3A C4A 1_555 1_555
C5A C6A 1_555 1_555
C5A C10A 1_555 1_555
C9A C10A 1_555 1_555

#END
