
#######################################################################
#
#                 Cambridge Crystallographic Data Centre
#                                CCDC 
#
#######################################################################
#
# If this CIF has been generated from an entry in the Cambridge 
# Structural Database, then it will include bibliographic, chemical, 
# crystal, experimental, refinement or atomic coordinate data resulting 
# from the CCDC's data processing and validation procedures.
#
#######################################################################

data_SASPEI
_chemical_formula_moiety         'C18 H24 O4 S1'
_chemical_name_systematic        
'cis-1-(p-Tolylsulfonyl)-spiro[2.4]octane-2-carboxylic acid ethyl ester'
_symmetry_cell_setting           triclinic
_symmetry_space_group_name_H-M   'P -1'
_symmetry_Int_Tables_number      2
_space_group_name_Hall           '-P 1'
loop_
_symmetry_equiv_pos_site_id
_symmetry_equiv_pos_as_xyz
1 x,y,z
2 -x,-y,-z
_cell_length_a                   9.0592(18)
_cell_length_b                   9.6194(19)
_cell_length_c                   12.332(3)
_cell_angle_alpha                94.17(3)
_cell_angle_beta                 104.87(3)
_cell_angle_gamma                117.63(3)
_cell_volume                     896.858
_exptl_crystal_colour            colorless
_exptl_crystal_description       block
_cell_formula_units_Z            2
loop_
_atom_site_label
_atom_site_type_symbol
_atom_site_fract_x
_atom_site_fract_y
_atom_site_fract_z
S1 S 0.51681(6) 0.96130(5) 0.29000(4)
O1 O 0.66148(16) 1.09837(16) 0.37640(11)
O2 O 0.55334(17) 0.85147(15) 0.23233(12)
O3 O 0.4633(2) 0.54693(18) 0.35234(14)
O4 O 0.63615(17) 0.77197(16) 0.49087(12)
C1 C 0.3574(2) 0.8575(2) 0.35438(15)
H1 H 0.3332 0.9276 0.3997
C2 C 0.3524(2) 0.7171(2) 0.40626(15)
H2 H 0.3249 0.7159 0.4781
C3 C 0.2012(2) 0.6878(2) 0.30372(15)
C4 C 0.1611(2) 0.5905(2) 0.18660(16)
H3 H 0.2696 0.6026 0.1779
H4 H 0.1106 0.6307 0.1264
C5 C 0.0322(3) 0.4131(2) 0.17444(19)
H5 H 0.0009 0.3545 0.0972
H6 H 0.0894 0.3700 0.2280
C6 C -0.1347(3) 0.3872(3) 0.1975(2)
H7 H -0.2103 0.2737 0.1925
H8 H -0.1984 0.4206 0.1394
C7 C -0.0899(3) 0.4838(3) 0.3169(2)
H9 H -0.1973 0.4701 0.3286
H10 H -0.0360 0.4437 0.3753
C8 C 0.0359(2) 0.6614(2) 0.32916(17)
H11 H -0.0232 0.7041 0.2765
H12 H 0.0685 0.7194 0.4069
C9 C 0.4854(3) 0.6659(2) 0.40814(17)
C10 C 0.7841(3) 0.7457(3) 0.5090(2)
H13 H 0.8217 0.7546 0.4417
H14 H 0.7517 0.6391 0.5231
C11 C 0.9290(3) 0.8710(3) 0.6109(3)
H15 H 0.9564 0.9759 0.5973
H16 H 1.0318 0.8600 0.6235
H17 H 0.8922 0.8578 0.6776
C12 C 0.4150(2) 1.0343(2) 0.18671(15)
C13 C 0.3449(3) 0.9571(2) 0.07158(17)
H18 H 0.3463 0.8635 0.0487
C14 C 0.2732(3) 1.0200(3) -0.00836(18)
H19 H 0.2268 0.9684 -0.0857
C15 C 0.2685(3) 1.1580(3) 0.02321(19)
C16 C 0.3384(3) 1.2326(3) 0.1389(2)
H20 H 0.3360 1.3256 0.1618
C17 C 0.4111(3) 1.1726(2) 0.22021(18)
H21 H 0.4576 1.2244 0.2975
C18 C 0.1934(5) 1.2274(4) -0.0670(2)
H22 H 0.2466 1.2374 -0.1262
H23 H 0.2179 1.3315 -0.0320
H24 H 0.0682 1.1572 -0.1001
loop_
_geom_bond_atom_site_label_1
_geom_bond_atom_site_label_2
_geom_bond_site_symmetry_1
_geom_bond_site_symmetry_2
S1 O1 1_555 1_555
O2 S1 1_555 1_555
O3 C9 1_555 1_555
O4 C9 1_555 1_555
C1 S1 1_555 1_555
H1 C1 1_555 1_555
C2 C1 1_555 1_555
H2 C2 1_555 1_555
C3 C1 1_555 1_555
C4 C3 1_555 1_555
H3 C4 1_555 1_555
H4 C4 1_555 1_555
C5 C4 1_555 1_555
H5 C5 1_555 1_555
H6 C5 1_555 1_555
C6 C5 1_555 1_555
H7 C6 1_555 1_555
H8 C6 1_555 1_555
C7 C6 1_555 1_555
H9 C7 1_555 1_555
H10 C7 1_555 1_555
C8 C3 1_555 1_555
H11 C8 1_555 1_555
H12 C8 1_555 1_555
C9 C2 1_555 1_555
C10 O4 1_555 1_555
H13 C10 1_555 1_555
H14 C10 1_555 1_555
C11 C10 1_555 1_555
H15 C11 1_555 1_555
H16 C11 1_555 1_555
H17 C11 1_555 1_555
C12 S1 1_555 1_555
C13 C12 1_555 1_555
H18 C13 1_555 1_555
C14 C13 1_555 1_555
H19 C14 1_555 1_555
C15 C14 1_555 1_555
C16 C15 1_555 1_555
H20 C16 1_555 1_555
C17 C12 1_555 1_555
H21 C17 1_555 1_555
C18 C15 1_555 1_555
H22 C18 1_555 1_555
H23 C18 1_555 1_555
H24 C18 1_555 1_555
C2 C3 1_555 1_555
C7 C8 1_555 1_555
C16 C17 1_555 1_555

#END
