
#######################################################################
#
#                 Cambridge Crystallographic Data Centre
#                                CCDC 
#
#######################################################################
#
# If this CIF has been generated from an entry in the Cambridge 
# Structural Database, then it will include bibliographic, chemical, 
# crystal, experimental, refinement or atomic coordinate data resulting 
# from the CCDC's data processing and validation procedures.
#
#######################################################################

data_SASQAG
_chemical_formula_moiety         'C17 H17 Cl1 N2 O3'
_chemical_name_systematic        
'1-Acetyl-6-(2-chlorophenyl)-5-(prop-1-en-2-yl)-1,6-dihydropyridazin-4-yl acetate'
_symmetry_cell_setting           triclinic
_symmetry_space_group_name_H-M   'P -1'
_symmetry_Int_Tables_number      2
_space_group_name_Hall           '-P 1'
loop_
_symmetry_equiv_pos_site_id
_symmetry_equiv_pos_as_xyz
1 x,y,z
2 -x,-y,-z
_cell_length_a                   8.9747(12)
_cell_length_b                   9.5980(13)
_cell_length_c                   10.4249(14)
_cell_angle_alpha                108.391(2)
_cell_angle_beta                 106.239(2)
_cell_angle_gamma                91.038(2)
_cell_volume                     812.539
_exptl_crystal_colour            colorless
_exptl_crystal_description       block
_cell_formula_units_Z            2
loop_
_atom_site_label
_atom_site_type_symbol
_atom_site_fract_x
_atom_site_fract_y
_atom_site_fract_z
Cl1 Cl 0.19263(3) 0.48911(3) 0.60166(3)
N1 N 0.18375(12) 0.83880(11) 0.43366(10)
N2 N 0.22386(13) 0.97797(12) 0.43326(12)
O1 O 0.11300(12) 0.59871(10) 0.29903(10)
O2 O 0.43727(12) 1.27874(12) 0.82857(12)
O3 O 0.18246(11) 1.19718(10) 0.77076(10)
C1 C 0.19438(13) 0.80088(12) 0.56294(12)
H1 H 0.1071 0.7222 0.5400
C2 C 0.17772(13) 0.93485(13) 0.68160(12)
C3 C 0.20241(14) 1.06777(13) 0.67031(12)
C4 C 0.23333(15) 1.08550(13) 0.54665(14)
H2 H 0.2623 1.1826 0.5500
C5 C 0.14844(14) 0.72489(13) 0.30524(13)
C6 C 0.15814(17) 0.76446(16) 0.17909(14)
H3 H 0.2679 0.7895 0.1883
H4 H 0.1009 0.8496 0.1743
H5 H 0.1119 0.6801 0.0924
C7 C 0.26802(18) 1.43419(15) 0.94029(15)
H6 H 0.3552 1.5133 0.9793
H7 H 0.2450 1.4100 1.0179
H8 H 0.1755 1.4671 0.8869
C8 C 0.31117(15) 1.29998(14) 0.84376(14)
C9 C 0.14888(15) 0.90783(14) 0.80544(13)
C10 C 0.05168(17) 0.79237(16) 0.78852(15)
H9 H -0.0003 0.7260 0.6961
H10 H 0.0343 0.7764 0.8689
C11 C 0.2360(2) 1.01159(19) 0.95160(15)
H11 H 0.1851 1.1021 0.9721
H12 H 0.3441 1.0364 0.9560
H13 H 0.2353 0.9637 1.0217
C12 C 0.34898(14) 0.74135(12) 0.61227(12)
C13 C 0.48905(14) 0.82829(13) 0.64031(13)
H14 H 0.4852 0.9226 0.6288
C14 C 0.63308(14) 0.77996(14) 0.68449(13)
H15 H 0.7265 0.8406 0.7025
C15 C 0.64038(15) 0.64187(14) 0.70236(13)
H16 H 0.7388 0.6081 0.7320
C16 C 0.50402(15) 0.55429(14) 0.67682(13)
H17 H 0.5085 0.4607 0.6899
C17 C 0.36040(14) 0.60407(13) 0.63194(12)
loop_
_geom_bond_atom_site_label_1
_geom_bond_atom_site_label_2
_geom_bond_site_symmetry_1
_geom_bond_site_symmetry_2
Cl1 C17 1_555 1_555
N1 N2 1_555 1_555
N2 C4 1_555 1_555
O1 C5 1_555 1_555
O2 C8 1_555 1_555
O3 C3 1_555 1_555
C1 N1 1_555 1_555
H1 C1 1_555 1_555
C2 C1 1_555 1_555
C3 C2 1_555 1_555
C4 C3 1_555 1_555
H2 C4 1_555 1_555
C5 N1 1_555 1_555
C6 C5 1_555 1_555
H3 C6 1_555 1_555
H4 C6 1_555 1_555
H5 C6 1_555 1_555
C7 H6 1_555 1_555
H7 C7 1_555 1_555
H8 C7 1_555 1_555
C8 O3 1_555 1_555
C9 C2 1_555 1_555
C10 C9 1_555 1_555
H9 C10 1_555 1_555
H10 C10 1_555 1_555
C11 C9 1_555 1_555
H11 C11 1_555 1_555
H12 C11 1_555 1_555
H13 C11 1_555 1_555
C12 C1 1_555 1_555
C13 C12 1_555 1_555
H14 C13 1_555 1_555
C14 C13 1_555 1_555
H15 C14 1_555 1_555
C15 C14 1_555 1_555
H16 C15 1_555 1_555
C16 C15 1_555 1_555
H17 C16 1_555 1_555
C17 C12 1_555 1_555
C7 C8 1_555 1_555
C16 C17 1_555 1_555

#END
