
#######################################################################
#
#                 Cambridge Crystallographic Data Centre
#                                CCDC 
#
#######################################################################
#
# If this CIF has been generated from an entry in the Cambridge 
# Structural Database, then it will include bibliographic, chemical, 
# crystal, experimental, refinement or atomic coordinate data resulting 
# from the CCDC's data processing and validation procedures.
#
#######################################################################

data_SASQEL
_chemical_compound_source        'Flueggea virosa'
_chemical_name_common            '2-episecurinol A'
_chemical_formula_moiety         'C13 H17 N1 O3'
_chemical_name_systematic        
12-hydroxy-4,5,8,9,10,10a-hexahydro-2H,7H-5,10b-ethanofuro[2,3-a]quinolizin-2-one
_symmetry_cell_setting           monoclinic
_symmetry_space_group_name_H-M   'P 21/c'
_symmetry_Int_Tables_number      14
_space_group_name_Hall           '-P 2ybc'
loop_
_symmetry_equiv_pos_site_id
_symmetry_equiv_pos_as_xyz
1 x,y,z
2 -x,1/2+y,1/2-z
3 -x,-y,-z
4 x,1/2-y,1/2+z
_cell_length_a                   12.857(7)
_cell_length_b                   6.629(4)
_cell_length_c                   14.608(9)
_cell_angle_alpha                90
_cell_angle_beta                 110.15(3)
_cell_angle_gamma                90
_cell_volume                     1168.82
_exptl_crystal_colour            colorless
_cell_formula_units_Z            4
_exptl_crystal_recrystallization_method 'acetone/petroleum ether'
loop_
_atom_site_label
_atom_site_type_symbol
_atom_site_fract_x
_atom_site_fract_y
_atom_site_fract_z
O1 O 0.41825(14) 0.0967(3) 0.16601(12)
H1 H 0.357(2) 0.050(4) 0.127(2)
O2 O 0.25002(12) -0.2075(2) 0.37916(10)
O3 O 0.26752(15) -0.3004(3) 0.53040(13)
N1 N 0.22997(15) 0.2276(3) 0.21662(13)
C1 C 0.3324(2) 0.0265(4) 0.49845(18)
H2 H 0.3596 0.0866 0.5597
C2 C 0.33289(18) 0.1074(4) 0.41635(16)
C3 C 0.28225(17) -0.0362(3) 0.33445(15)
C4 C 0.18294(17) 0.0730(3) 0.26234(15)
H3 H 0.1438 0.1423 0.3002
C5 C 0.09770(18) -0.0442(4) 0.18200(16)
H4 H 0.0665 -0.1514 0.2097
H5 H 0.1319 -0.1041 0.1388
C6 C 0.0068(2) 0.1035(4) 0.12561(18)
H6 H -0.0442 0.0356 0.0691
H7 H -0.0344 0.1453 0.1669
C7 C 0.0533(2) 0.2893(4) 0.0921(2)
H8 H 0.0780 0.2518 0.0388
H9 H -0.0053 0.3883 0.0676
C8 C 0.41424(19) 0.1043(4) 0.26179(17)
H10 H 0.4900 0.1215 0.3077
C9 C 0.36687(17) -0.0928(3) 0.28781(16)
H11 H 0.3321 -0.1721 0.2294
H12 H 0.4258 -0.1723 0.3328
C10 C 0.2822(2) -0.1734(4) 0.47736(17)
C11 C 0.3643(2) 0.3054(4) 0.38381(18)
H13 H 0.4415 0.3360 0.4193
H14 H 0.3189 0.4134 0.3946
C12 C 0.3444(2) 0.2811(4) 0.27476(17)
H15 H 0.3659 0.4049 0.2492
C13 C 0.1493(2) 0.3850(4) 0.17256(19)
H16 H 0.1829 0.4900 0.1458
H17 H 0.1232 0.4450 0.2212
loop_
_geom_bond_atom_site_label_1
_geom_bond_atom_site_label_2
_geom_bond_site_symmetry_1
_geom_bond_site_symmetry_2
O1 H1 1_555 1_555
O2 C3 1_555 1_555
O3 C10 1_555 1_555
N1 C4 1_555 1_555
C1 H2 1_555 1_555
C2 C1 1_555 1_555
C3 C2 1_555 1_555
C4 C3 1_555 1_555
H3 C4 1_555 1_555
C5 C4 1_555 1_555
H4 C5 1_555 1_555
H5 C5 1_555 1_555
C6 C5 1_555 1_555
H6 C6 1_555 1_555
H7 C6 1_555 1_555
C7 C6 1_555 1_555
H8 C7 1_555 1_555
H9 C7 1_555 1_555
C8 O1 1_555 1_555
H10 C8 1_555 1_555
C9 C3 1_555 1_555
H11 C9 1_555 1_555
H12 C9 1_555 1_555
C10 O2 1_555 1_555
C11 C2 1_555 1_555
H13 C11 1_555 1_555
H14 C11 1_555 1_555
C12 N1 1_555 1_555
H15 C12 1_555 1_555
C13 N1 1_555 1_555
H16 C13 1_555 1_555
H17 C13 1_555 1_555
C1 C10 1_555 1_555
C7 C13 1_555 1_555
C8 C9 1_555 1_555
C8 C12 1_555 1_555
C11 C12 1_555 1_555

#END
