
#######################################################################
#
#                 Cambridge Crystallographic Data Centre
#                                CCDC 
#
#######################################################################
#
# If this CIF has been generated from an entry in the Cambridge 
# Structural Database, then it will include bibliographic, chemical, 
# crystal, experimental, refinement or atomic coordinate data resulting 
# from the CCDC's data processing and validation procedures.
#
#######################################################################

data_SASSIP
_chemical_formula_moiety         'C9 H13 N1 O5 S1,H2 O1'
_chemical_name_systematic        
'(3,3-Dimethyl-4,4,7-trioxo-4-thia-1-azabicyclo(3.2.0)hept-2-yl)acetic acid monohydrate'
_symmetry_cell_setting           orthorhombic
_symmetry_space_group_name_H-M   'P 21 21 21'
_symmetry_Int_Tables_number      19
_space_group_name_Hall           'P 2ac 2ab'
loop_
_symmetry_equiv_pos_site_id
_symmetry_equiv_pos_as_xyz
1 x,y,z
2 1/2-x,-y,1/2+z
3 1/2+x,1/2-y,-z
4 -x,1/2+y,1/2-z
_cell_length_a                   5.9918(4)
_cell_length_b                   14.0938(12)
_cell_length_c                   14.2367(15)
_cell_angle_alpha                90
_cell_angle_beta                 90
_cell_angle_gamma                90
_cell_volume                     1202.25
_cell_formula_units_Z            4
loop_
_atom_site_label
_atom_site_type_symbol
_atom_site_fract_x
_atom_site_fract_y
_atom_site_fract_z
S1 S 1.0951(2) 0.8121(1) 0.3178(1)
C1 C 0.9710(6) 0.9056(2) 0.2449(2)
C2 C 0.8338(5) 0.9616(2) 0.3181(2)
N1 N 0.9443(5) 0.9510(2) 0.4102(2)
C3 C 1.1394(6) 0.8890(2) 0.4168(2)
C4 C 1.0536(8) 0.8531(3) 0.5120(3)
C5 C 0.8456(8) 0.9098(3) 0.4898(2)
O1 O 0.6596(6) 0.9186(3) 0.5193(2)
O2 O 0.9226(5) 0.7456(2) 0.3417(2)
O3 O 1.3015(5) 0.7770(2) 0.2797(2)
C6 C 0.8257(7) 0.8602(3) 0.1702(3)
C7 C 1.1598(6) 0.9626(3) 0.1999(3)
C8 C 0.8012(7) 1.0673(2) 0.2935(2)
C9 C 0.6634(6) 1.1154(2) 0.3661(2)
O4 O 0.7408(4) 1.1662(2) 0.4270(2)
O5 O 0.4505(4) 1.0969(2) 0.3597(2)
H1 H 0.6859 0.9322 0.3223
H2 H 1.2841 0.9214 0.4184
H3 H 1.0304 0.7851 0.5150
H4 H 1.1372 0.8760 0.5657
H5 H 0.7590 0.9087 0.1321
H6 H 0.7106 0.8234 0.1997
H7 H 0.9155 0.8196 0.1314
H8 H 1.2571 0.9204 0.1664
H9 H 1.2427 0.9948 0.2480
H10 H 1.0982 1.0083 0.1572
H11 H 0.9456 1.0981 0.2893
H12 H 0.7286 1.0727 0.2328
H13 H 0.3837 1.1238 0.4023
O6 O 0.6830(5) 0.3434(2) 0.5108(2)
H14 H 0.7056 0.2760 0.4781
H15 H 0.5036 0.3521 0.5212
loop_
_geom_bond_atom_site_label_1
_geom_bond_atom_site_label_2
_geom_bond_site_symmetry_1
_geom_bond_site_symmetry_2
S1 C1 1_555 1_555
C1 C2 1_555 1_555
C2 N1 1_555 1_555
N1 C3 1_555 1_555
C3 S1 1_555 1_555
C4 C3 1_555 1_555
C5 N1 1_555 1_555
O1 C5 1_555 1_555
O2 S1 1_555 1_555
O3 S1 1_555 1_555
C6 C1 1_555 1_555
C7 C1 1_555 1_555
C8 C2 1_555 1_555
C9 C8 1_555 1_555
O4 C9 1_555 1_555
O5 C9 1_555 1_555
O6 H14 1_555 1_555
H1 C2 1_555 1_555
H2 C3 1_555 1_555
H3 C4 1_555 1_555
H4 C4 1_555 1_555
H5 C6 1_555 1_555
H6 C6 1_555 1_555
H7 C6 1_555 1_555
H8 C7 1_555 1_555
H9 C7 1_555 1_555
H10 C7 1_555 1_555
H11 C8 1_555 1_555
H12 C8 1_555 1_555
H13 O5 1_555 1_555
H15 O6 1_555 1_555
C4 C5 1_555 1_555

#END
