
#######################################################################
#
#                 Cambridge Crystallographic Data Centre
#                                CCDC 
#
#######################################################################
#
# If this CIF has been generated from an entry in the Cambridge 
# Structural Database, then it will include bibliographic, chemical, 
# crystal, experimental, refinement or atomic coordinate data resulting 
# from the CCDC's data processing and validation procedures.
#
#######################################################################

data_SASVAM
_chemical_formula_moiety         'C4 N8 O8'
_chemical_name_systematic        
"(E)-3,3'-(diazene-1,2-diyl)bis(4-nitro-1,2,5-oxadiazole) 2,2'-dioxide"
_symmetry_cell_setting           monoclinic
_symmetry_space_group_name_H-M   'P 21/c'
_symmetry_Int_Tables_number      14
_space_group_name_Hall           '-P 2ybc'
loop_
_symmetry_equiv_pos_site_id
_symmetry_equiv_pos_as_xyz
1 x,y,z
2 -x,1/2+y,1/2-z
3 -x,-y,-z
4 x,1/2-y,1/2+z
_cell_length_a                   6.2571(13)
_cell_length_b                   9.3216(18)
_cell_length_c                   24.860(5)
_cell_angle_alpha                90
_cell_angle_beta                 92.153(4)
_cell_angle_gamma                90
_cell_volume                     1448.97
_exptl_crystal_colour            'brick red'
_exptl_crystal_description       rhabdolith
_cell_formula_units_Z            6
_chemical_properties_physical    explosive
loop_
_atom_site_label
_atom_site_type_symbol
_atom_site_fract_x
_atom_site_fract_y
_atom_site_fract_z
N1 N 0.7041(3) 0.6194(2) 0.29099(9)
N2 N 0.5614(3) 0.4796(2) 0.35999(8)
N3 N 0.2363(3) 0.4126(2) 0.32046(8)
N4 N 0.2752(3) 0.52485(19) 0.23303(7)
N5 N 0.0878(3) 0.48095(19) 0.22042(7)
N6 N 0.1201(3) 0.6028(2) 0.13506(8)
N7 N -0.2094(3) 0.5415(2) 0.09588(8)
N8 N -0.3410(3) 0.3866(2) 0.16186(9)
O1 O 0.6830(3) 0.65536(18) 0.24398(7)
O2 O 0.8522(3) 0.65234(19) 0.32174(7)
O3 O 0.3834(3) 0.40161(17) 0.36941(6)
O4 O 0.0655(3) 0.35350(17) 0.32128(6)
O5 O 0.2871(3) 0.66615(18) 0.13545(7)
O6 O -0.0316(3) 0.62104(18) 0.08700(6)
O7 O -0.3076(3) 0.33301(19) 0.20585(8)
O8 O -0.4981(3) 0.3652(2) 0.13311(8)
C1 C 0.5365(4) 0.5297(2) 0.31175(9)
C2 C 0.3426(4) 0.4914(2) 0.28511(8)
C3 C 0.0190(4) 0.5169(2) 0.16900(9)
C4 C -0.1777(4) 0.4826(2) 0.14231(10)
N9 N -0.0094(3) 0.1056(2) 0.06605(8)
N10 N 0.1417(3) 0.3300(2) 0.04750(8)
N11 N 0.4531(3) 0.2628(2) 0.00689(7)
N12 N 0.4093(3) 0.0049(2) 0.01050(7)
O9 O -0.1530(3) 0.16833(19) 0.08861(7)
O10 O 0.0040(3) -0.02357(19) 0.06026(6)
O11 O 0.3171(3) 0.38605(16) 0.02446(6)
O12 O 0.6176(3) 0.28978(18) -0.01440(7)
C5 C 0.1596(4) 0.1925(3) 0.04449(9)
C6 C 0.3464(4) 0.1442(2) 0.02027(8)
N9B N 1.0094(3) -0.1056(2) -0.06605(8)
N10B N 0.8583(3) -0.3300(2) -0.04750(8)
N11B N 0.5469(3) -0.2628(2) -0.00689(7)
N12B N 0.5907(3) -0.0049(2) -0.01050(7)
O9B O 1.1530(3) -0.16833(19) -0.08861(7)
O10B O 0.9960(3) 0.02357(19) -0.06026(6)
O11B O 0.6829(3) -0.38605(16) -0.02446(6)
O12B O 0.3824(3) -0.28978(18) 0.01440(7)
C5B C 0.8404(4) -0.1925(3) -0.04449(9)
C6B C 0.6536(4) -0.1442(2) -0.02027(8)
loop_
_geom_bond_atom_site_label_1
_geom_bond_atom_site_label_2
_geom_bond_site_symmetry_1
_geom_bond_site_symmetry_2
N1 O1 1_555 1_555
N2 O3 1_555 1_555
N3 O3 1_555 1_555
N4 N5 1_555 1_555
N5 C3 1_555 1_555
N6 O5 1_555 1_555
N7 O6 1_555 1_555
N8 O7 1_555 1_555
O2 N1 1_555 1_555
O4 N3 1_555 1_555
O6 N6 1_555 1_555
O8 N8 1_555 1_555
C1 N1 1_555 1_555
C2 N3 1_555 1_555
C3 N6 1_555 1_555
C4 N7 1_555 1_555
N9 O9 1_555 1_555
N10 O11 1_555 1_555
N11 O11 1_555 1_555
N12 C6 1_555 1_555
O10 N9 1_555 1_555
O12 N11 1_555 1_555
C5 N9 1_555 1_555
C6 N11 1_555 1_555
N9B O9B 1_555 1_555
N10B O11B 1_555 1_555
N11B O11B 1_555 1_555
N12B N12 1_555 1_555
O10B N9B 1_555 1_555
O12B N11B 1_555 1_555
C5B N9B 1_555 1_555
C6B N11B 1_555 1_555
N2 C1 1_555 1_555
N4 C2 1_555 1_555
N8 C4 1_555 1_555
C1 C2 1_555 1_555
C3 C4 1_555 1_555
N10 C5 1_555 1_555
C5 C6 1_555 1_555
N10B C5B 1_555 1_555
N12B C6B 1_555 1_555
C5B C6B 1_555 1_555

#END
