
#######################################################################
#
#                 Cambridge Crystallographic Data Centre
#                                CCDC 
#
#######################################################################
#
# If this CIF has been generated from an entry in the Cambridge 
# Structural Database, then it will include bibliographic, chemical, 
# crystal, experimental, refinement or atomic coordinate data resulting 
# from the CCDC's data processing and validation procedures.
#
#######################################################################

data_SASYET
_chemical_compound_source        'whole plant of Caryopteris nepetaefolia'
_chemical_name_common            'Nepetaefolin A'
_chemical_formula_moiety         'C20 H32 O4'
_chemical_name_systematic        
'(1S,2S,6S,7R,10S,15R)-11-hydroxy-11-isopropyl-14-oxopodocarpan-15-oic acid'
_symmetry_cell_setting           orthorhombic
_symmetry_space_group_name_H-M   'P 21 21 2'
_symmetry_Int_Tables_number      18
_space_group_name_Hall           'P 2 2ab'
loop_
_symmetry_equiv_pos_site_id
_symmetry_equiv_pos_as_xyz
1 x,y,z
2 1/2+x,1/2-y,-z
3 1/2-x,1/2+y,-z
4 -x,-y,z
_cell_length_a                   13.1529(3)
_cell_length_b                   14.7263(3)
_cell_length_c                   9.7876(2)
_cell_angle_alpha                90
_cell_angle_beta                 90
_cell_angle_gamma                90
_cell_volume                     1895.8
_exptl_crystal_colour            colorless
_exptl_crystal_description       block
_chemical_melting_point          '165.7-167.8 deg.C'
_cell_formula_units_Z            4
loop_
_atom_site_label
_atom_site_type_symbol
_atom_site_fract_x
_atom_site_fract_y
_atom_site_fract_z
O1 O -0.0084(2) -0.61540(15) -0.4880(4)
H1 H 0.0263 -0.5694 -0.4949
O2 O -0.1307(2) -0.51334(14) -0.5059(3)
O3 O 0.07483(17) -0.8418(2) -0.8423(4)
O4 O -0.2452(2) -0.75332(17) -1.0107(3)
H2 H -0.3040 -0.7476 -1.0373
C1 C -0.30512(19) -0.6996(2) -0.7290(4)
H3 H -0.3240 -0.6850 -0.8223
H4 H -0.3511 -0.7464 -0.6967
C2 C -0.3180(2) -0.6150(2) -0.6404(5)
H5 H -0.2759 -0.5664 -0.6764
H6 H -0.3883 -0.5951 -0.6440
C3 C -0.2890(3) -0.6332(2) -0.4951(5)
H7 H -0.3362 -0.6769 -0.4569
H8 H -0.2955 -0.5774 -0.4433
C4 C -0.1802(3) -0.66978(18) -0.4780(3)
C5 C -0.1646(2) -0.75294(16) -0.5754(3)
H9 H -0.2124 -0.7989 -0.5421
C6 C -0.0601(3) -0.79753(18) -0.5627(3)
H10 H -0.0093 -0.7595 -0.6061
H11 H -0.0424 -0.8038 -0.4670
C7 C -0.0611(3) -0.89087(19) -0.6303(4)
H12 H 0.0067 -0.9168 -0.6262
H13 H -0.1065 -0.9306 -0.5803
C8 C -0.09503(19) -0.88601(18) -0.7783(3)
H14 H -0.1102 -0.9488 -0.8046
C9 C -0.19573(17) -0.83310(16) -0.7984(3)
H15 H -0.2460 -0.8681 -0.7466
C10 C -0.19567(17) -0.73700(16) -0.7277(3)
C11 C -0.2321(2) -0.8417(2) -0.9528(3)
C12 C -0.1509(3) -0.8868(3) -1.0419(4)
H16 H -0.1483 -0.9512 -1.0212
H17 H -0.1694 -0.8803 -1.1373
C13 C -0.0469(3) -0.8456(4) -1.0190(5)
H18 H 0.0019 -0.8751 -1.0786
H19 H -0.0489 -0.7817 -1.0431
C14 C -0.0130(2) -0.8550(2) -0.8754(4)
C15 C -0.3336(2) -0.8945(2) -0.9612(4)
H20 H -0.3844 -0.8587 -0.9117
C16 C -0.3305(3) -0.9883(3) -0.8943(5)
H21 H -0.2839 -1.0266 -0.9432
H22 H -0.3972 -1.0148 -0.8965
H23 H -0.3085 -0.9824 -0.8012
C17 C -0.3717(3) -0.9042(3) -1.1083(5)
H24 H -0.4400 -0.9272 -1.1076
H25 H -0.3285 -0.9455 -1.1571
H26 H -0.3705 -0.8459 -1.1522
C18 C -0.1022(3) -0.59423(18) -0.4945(3)
C19 C -0.1678(5) -0.7023(3) -0.3276(4)
H27 H -0.1980 -0.6586 -0.2672
H28 H -0.0968 -0.7084 -0.3066
H29 H -0.2008 -0.7599 -0.3163
C20 C -0.12329(18) -0.66988(17) -0.7960(3)
H30 H -0.1266 -0.6126 -0.7495
H31 H -0.1426 -0.6619 -0.8898
H32 H -0.0551 -0.6930 -0.7916
loop_
_geom_bond_atom_site_label_1
_geom_bond_atom_site_label_2
_geom_bond_site_symmetry_1
_geom_bond_site_symmetry_2
O1 H1 1_555 1_555
O2 C18 1_555 1_555
O3 C14 1_555 1_555
O4 H2 1_555 1_555
C1 H3 1_555 1_555
H4 C1 1_555 1_555
C2 C1 1_555 1_555
H5 C2 1_555 1_555
H6 C2 1_555 1_555
C3 C2 1_555 1_555
H7 C3 1_555 1_555
H8 C3 1_555 1_555
C4 C3 1_555 1_555
C5 C4 1_555 1_555
H9 C5 1_555 1_555
C6 C5 1_555 1_555
H10 C6 1_555 1_555
H11 C6 1_555 1_555
C7 C6 1_555 1_555
H12 C7 1_555 1_555
H13 C7 1_555 1_555
C8 C7 1_555 1_555
H14 C8 1_555 1_555
C9 C8 1_555 1_555
H15 C9 1_555 1_555
C10 C1 1_555 1_555
C11 O4 1_555 1_555
C12 C11 1_555 1_555
H16 C12 1_555 1_555
H17 C12 1_555 1_555
C13 C12 1_555 1_555
H18 C13 1_555 1_555
H19 C13 1_555 1_555
C14 C8 1_555 1_555
C15 C11 1_555 1_555
H20 C15 1_555 1_555
C16 C15 1_555 1_555
H21 C16 1_555 1_555
H22 C16 1_555 1_555
H23 C16 1_555 1_555
C17 C15 1_555 1_555
H24 C17 1_555 1_555
H25 C17 1_555 1_555
H26 C17 1_555 1_555
C18 O1 1_555 1_555
C19 C4 1_555 1_555
H27 C19 1_555 1_555
H28 C19 1_555 1_555
H29 C19 1_555 1_555
C20 C10 1_555 1_555
H30 C20 1_555 1_555
H31 C20 1_555 1_555
H32 C20 1_555 1_555
C4 C18 1_555 1_555
C5 C10 1_555 1_555
C9 C10 1_555 1_555
C9 C11 1_555 1_555
C13 C14 1_555 1_555

#END
