
#######################################################################
#
#                 Cambridge Crystallographic Data Centre
#                                CCDC 
#
#######################################################################
#
# If this CIF has been generated from an entry in the Cambridge 
# Structural Database, then it will include bibliographic, chemical, 
# crystal, experimental, refinement or atomic coordinate data resulting 
# from the CCDC's data processing and validation procedures.
#
#######################################################################

data_SASZIW
_chemical_formula_moiety         'C8 H7 N3 O3,0.03(H2 O1)'
_chemical_name_systematic        
'Glyoxal 4-nitrophenylhydrazone hydrate clathrate'
_symmetry_cell_setting           tetragonal
_symmetry_space_group_name_H-M   'I 41/a'
_symmetry_Int_Tables_number      88
_space_group_name_Hall           '-I 4ad'
loop_
_symmetry_equiv_pos_site_id
_symmetry_equiv_pos_as_xyz
1 x,y,z
2 3/4-y,1/4+x,1/4+z
3 1/2+x,1/2+y,1/2+z
4 1/4-y,3/4+x,3/4+z
5 1/4+y,1/4-x,1/4+z
6 1/2-x,-y,1/2+z
7 3/4+y,3/4-x,3/4+z
8 -x,1/2-y,z
9 -x,-y,-z
10 1/4+y,3/4-x,3/4-z
11 1/2-x,1/2-y,1/2-z
12 3/4+y,1/4-x,1/4-z
13 3/4-y,3/4+x,3/4-z
14 1/2+x,y,1/2-z
15 1/4-y,1/4+x,1/4-z
16 x,1/2+y,-z
_cell_length_a                   31.4722(12)
_cell_length_b                   31.4722(12)
_cell_length_c                   3.65600(10)
_cell_angle_alpha                90
_cell_angle_beta                 90
_cell_angle_gamma                90
_cell_volume                     3621.27
_exptl_crystal_colour            red
_exptl_crystal_description       rod
_cell_formula_units_Z            16
_exptl_crystal_recrystallization_method ethanol
loop_
_atom_site_label
_atom_site_type_symbol
_atom_site_fract_x
_atom_site_fract_y
_atom_site_fract_z
O1 O 0.32156(3) 0.43155(3) 1.0674(3)
O2 O 0.58550(3) 0.60724(3) 0.4461(3)
O3 O 0.55171(3) 0.65953(3) 0.1969(3)
N1 N 0.39639(3) 0.54756(3) 0.6609(3)
N2 N 0.39389(3) 0.50918(3) 0.8129(3)
N3 N 0.55227(3) 0.62552(3) 0.3606(3)
C1 C 0.43568(4) 0.56610(4) 0.5942(3)
C2 C 0.47373(4) 0.54547(4) 0.6818(3)
C3 C 0.51203(4) 0.56520(4) 0.6087(3)
C4 C 0.51188(4) 0.60533(4) 0.4491(3)
C5 C 0.47447(4) 0.62627(4) 0.3621(3)
C6 C 0.43627(4) 0.60645(4) 0.4337(3)
C7 C 0.35626(4) 0.49273(4) 0.8496(4)
C8 C 0.35452(4) 0.45120(4) 1.0175(4)
H1 H 0.3730 0.5613 0.6022
H2 H 0.4732 0.5181 0.7909
H3 H 0.5381 0.5515 0.6665
H4 H 0.4751 0.6538 0.2551
H5 H 0.4103 0.6202 0.3739
H6 H 0.3314 0.5071 0.7707
H7 H 0.3804 0.4385 1.0933
loop_
_geom_bond_atom_site_label_1
_geom_bond_atom_site_label_2
_geom_bond_site_symmetry_1
_geom_bond_site_symmetry_2
O1 C8 1_555 1_555
O2 N3 1_555 1_555
O3 N3 1_555 1_555
N1 N2 1_555 1_555
N2 C7 1_555 1_555
N3 C4 1_555 1_555
C1 N1 1_555 1_555
C2 C1 1_555 1_555
C3 C2 1_555 1_555
C4 C3 1_555 1_555
C5 C4 1_555 1_555
C6 C1 1_555 1_555
C7 C8 1_555 1_555
C8 H7 1_555 1_555
H1 N1 1_555 1_555
H2 C2 1_555 1_555
H3 C3 1_555 1_555
H4 C5 1_555 1_555
H5 C6 1_555 1_555
H6 C7 1_555 1_555
C5 C6 1_555 1_555

#END
