
#######################################################################
#
#                 Cambridge Crystallographic Data Centre
#                                CCDC 
#
#######################################################################
#
# If this CIF has been generated from an entry in the Cambridge 
# Structural Database, then it will include bibliographic, chemical, 
# crystal, experimental, refinement or atomic coordinate data resulting 
# from the CCDC's data processing and validation procedures.
#
#######################################################################

data_SATDEX
_chemical_formula_moiety         'C14 H10 I1 N3 O3'
_chemical_name_systematic        '2-Nitrobenzaldehyde 2-iodobenzoylhydrazone'
_symmetry_cell_setting           orthorhombic
_symmetry_space_group_name_H-M   'P c a 21'
_symmetry_Int_Tables_number      29
_space_group_name_Hall           'P 2c -2ac'
loop_
_symmetry_equiv_pos_site_id
_symmetry_equiv_pos_as_xyz
1 x,y,z
2 -x,-y,1/2+z
3 1/2-x,y,1/2+z
4 1/2+x,-y,z
_cell_length_a                   21.6122(8)
_cell_length_b                   5.0393(2)
_cell_length_c                   12.7868(5)
_cell_angle_alpha                90
_cell_angle_beta                 90
_cell_angle_gamma                90
_cell_volume                     1392.61
_exptl_crystal_colour            green
_exptl_crystal_description       plate
_chemical_melting_point          'above 520 K'
_cell_formula_units_Z            4
_exptl_crystal_recrystallization_method 'ethanol/2-propanol 1:1'
loop_
_atom_site_label
_atom_site_type_symbol
_atom_site_fract_x
_atom_site_fract_y
_atom_site_fract_z
I1 I 0.218672(9) 1.14431(4) 0.18746(3)
O1 O 0.35439(14) 1.0376(5) 0.2880(2)
O2 O 0.51157(14) 0.1203(6) 0.4398(2)
O3 O 0.53559(14) -0.1309(6) 0.5706(3)
N1 N 0.39015(15) 0.6282(6) 0.4133(2)
N2 N 0.36433(19) 0.5915(8) 0.3143(3)
N3 N 0.50990(15) 0.0622(7) 0.5329(3)
C1 C 0.40790(17) 0.4105(8) 0.4563(3)
C2 C 0.34859(19) 0.8076(8) 0.2566(3)
C3 C 0.43163(19) 0.4209(8) 0.5645(3)
C4 C 0.47550(18) 0.2408(8) 0.6041(3)
C5 C 0.49059(18) 0.2288(8) 0.7098(3)
C6 C 0.4634(2) 0.4062(9) 0.7785(3)
C7 C 0.4064(2) 0.5965(12) 0.6355(4)
C8 C 0.4210(3) 0.5966(12) 0.7408(4)
C9 C 0.32548(19) 0.7445(8) 0.1504(3)
C10 C 0.27457(17) 0.8738(7) 0.1046(3)
C11 C 0.2557(2) 0.8143(8) 0.0036(3)
C12 C 0.2873(2) 0.6247(9) -0.0540(3)
C13 C 0.3375(2) 0.4930(8) -0.0110(3)
C14 C 0.3569(2) 0.5553(10) 0.0908(4)
H1 H 0.4058 0.2471 0.4194
H2 H 0.3583 0.4305 0.2896
H3 H 0.5192 0.1003 0.7345
H4 H 0.4733 0.3999 0.8508
H5 H 0.3774 0.7238 0.6107
H6 H 0.4029 0.7225 0.7868
H7 H 0.2211 0.9033 -0.0260
H8 H 0.2744 0.5849 -0.1233
H9 H 0.3587 0.3613 -0.0503
H10 H 0.3919 0.4676 0.1196
loop_
_geom_bond_atom_site_label_1
_geom_bond_atom_site_label_2
_geom_bond_site_symmetry_1
_geom_bond_site_symmetry_2
I1 C10 1_555 1_555
O1 C2 1_555 1_555
O2 N3 1_555 1_555
O3 N3 1_555 1_555
N1 N2 1_555 1_555
N2 C2 1_555 1_555
N3 C4 1_555 1_555
C1 N1 1_555 1_555
C2 C9 1_555 1_555
C3 C1 1_555 1_555
C4 C3 1_555 1_555
C5 C4 1_555 1_555
C6 C5 1_555 1_555
C7 C3 1_555 1_555
C8 C6 1_555 1_555
C9 C10 1_555 1_555
C10 C11 1_555 1_555
C11 C12 1_555 1_555
C12 C13 1_555 1_555
C13 C14 1_555 1_555
C14 C9 1_555 1_555
H1 C1 1_555 1_555
H2 N2 1_555 1_555
H3 C5 1_555 1_555
H4 C6 1_555 1_555
H5 C7 1_555 1_555
H6 C8 1_555 1_555
H7 C11 1_555 1_555
H8 C12 1_555 1_555
H9 C13 1_555 1_555
H10 C14 1_555 1_555
C7 C8 1_555 1_555

#END
