
#######################################################################
#
#                 Cambridge Crystallographic Data Centre
#                                CCDC 
#
#######################################################################
#
# If this CIF has been generated from an entry in the Cambridge 
# Structural Database, then it will include bibliographic, chemical, 
# crystal, experimental, refinement or atomic coordinate data resulting 
# from the CCDC's data processing and validation procedures.
#
#######################################################################

data_SATFUP
_chemical_formula_moiety         'C6 H16 N2 2+,2(C1 H5 O6 P2 1-)'
_chemical_name_systematic        
"N,N'-Dimethylpiperazinium bis(methylene-hydrogen-diphosphonate)"
_symmetry_cell_setting           triclinic
_symmetry_space_group_name_H-M   'P -1'
_symmetry_Int_Tables_number      2
_space_group_name_Hall           '-P 1'
loop_
_symmetry_equiv_pos_site_id
_symmetry_equiv_pos_as_xyz
1 x,y,z
2 -x,-y,-z
_cell_length_a                   6.9881(6)
_cell_length_b                   8.9148(6)
_cell_length_c                   16.6251(10)
_cell_angle_alpha                98.910(5)
_cell_angle_beta                 95.882(6)
_cell_angle_gamma                112.244(6)
_cell_volume                     932.242
_exptl_crystal_colour            colorless
_exptl_crystal_description       block
_cell_formula_units_Z            2
loop_
_atom_site_label
_atom_site_type_symbol
_atom_site_fract_x
_atom_site_fract_y
_atom_site_fract_z
P1 P 0.72874(6) 0.26531(5) 0.14321(2)
P2 P 0.25336(6) 0.05401(5) 0.11556(2)
C1 C 0.5149(2) 0.08775(19) 0.16149(10)
H1 H 0.5392 -0.0127 0.1409
H2 H 0.5212 0.0993 0.2220
O1 O 0.92324(18) 0.27350(16) 0.20257(7)
H3 H 1.003(3) 0.242(3) 0.1799(13)
O2 O 0.68992(18) 0.41979(14) 0.16996(7)
O3 O 0.75543(18) 0.23748(14) 0.05337(7)
O4 O 0.10390(18) -0.11161(15) 0.13683(7)
H4 H 0.134(3) -0.123(3) 0.1844(10)
O5 O 0.23587(19) 0.02151(14) 0.02082(7)
H5 H 0.241(3) -0.067(2) -0.0027(12)
O6 O 0.20780(18) 0.20123(15) 0.14673(7)
P3 P 1.01122(6) 0.79458(5) 0.33650(2)
P4 P 0.72510(6) 0.96071(5) 0.39958(2)
C2 C 0.9692(2) 0.98231(19) 0.36560(10)
H6 H 1.0856 1.0583 0.4105
H7 H 0.9788 1.0364 0.3176
O7 O 0.79361(19) 0.67144(16) 0.28394(8)
H8 H 0.785(4) 0.590(2) 0.2495(12)
O8 O 1.17930(18) 0.83067(16) 0.28150(7)
O9 O 1.0655(2) 0.73429(14) 0.41184(7)
O10 O 0.56949(19) 0.90998(16) 0.31701(7)
H9 H 0.444(3) 0.888(3) 0.3155(13)
O11 O 0.7503(2) 1.13825(15) 0.44042(7)
H10 H 0.801(3) 1.169(3) 0.4905(10)
O12 O 0.66895(18) 0.84128(14) 0.45641(7)
N1 N 0.4264(2) 0.52382(16) 0.07827(8)
H11 H 0.476(3) 0.467(2) 0.1047(11)
C3 C 0.6069(2) 0.65879(19) 0.05574(10)
H12 H 0.7063 0.7294 0.1067
H13 H 0.5533 0.7294 0.0281
C4 C 0.2785(2) 0.41262(19) 0.00124(10)
H14 H 0.2157 0.4764 -0.0278
H15 H 0.1635 0.3212 0.0162
C5 C 0.3156(3) 0.5972(2) 0.13405(10)
H16 H 0.2560 0.6615 0.1050
H17 H 0.4155 0.6700 0.1836
H18 H 0.2026 0.5082 0.1502
N1A N 0.5736(2) 0.47618(16) -0.07827(8)
H11A H 0.524(3) 0.533(2) -0.1047(11)
C3A C 0.3931(2) 0.34121(19) -0.05574(10)
H12A H 0.2937 0.2706 -0.1067
H13A H 0.4467 0.2706 -0.0281
C4A C 0.7215(2) 0.58738(19) -0.00124(10)
H14A H 0.7843 0.5236 0.0278
H15A H 0.8365 0.6788 -0.0162
C5A C 0.6844(3) 0.4028(2) -0.13405(10)
H16A H 0.7440 0.3385 -0.1050
H17A H 0.5845 0.3300 -0.1836
H18A H 0.7974 0.4918 -0.1502
N2 N 0.4365(2) 0.51721(17) 0.41761(8)
H19 H 0.513(3) 0.6236(19) 0.4239(12)
C6 C 0.5842(3) 0.4356(2) 0.43334(10)
H20 H 0.6815 0.4544 0.3931
H21 H 0.5037 0.3146 0.4259
C7 C 0.2916(3) 0.4945(2) 0.47959(10)
H22 H 0.2037 0.3750 0.4734
H23 H 0.1972 0.5515 0.4692
C8 C 0.3153(3) 0.4548(2) 0.33170(11)
H24 H 0.2222 0.3375 0.3244
H25 H 0.4127 0.4669 0.2923
H26 H 0.2313 0.5188 0.3218
N2A N 0.5635(2) 0.48279(17) 0.58239(8)
H19A H 0.487(3) 0.3764(19) 0.5761(12)
C6A C 0.4158(3) 0.5644(2) 0.56666(10)
H20A H 0.3185 0.5456 0.6069
H21A H 0.4963 0.6854 0.5741
C7A C 0.7084(3) 0.5055(2) 0.52041(10)
H22A H 0.7963 0.6250 0.5266
H23A H 0.8028 0.4485 0.5308
C8A C 0.6847(3) 0.5452(2) 0.66830(11)
H24A H 0.7778 0.6625 0.6756
H25A H 0.5873 0.5331 0.7077
H26A H 0.7687 0.4812 0.6782
loop_
_geom_bond_atom_site_label_1
_geom_bond_atom_site_label_2
_geom_bond_site_symmetry_1
_geom_bond_site_symmetry_2
P1 C1 1_555 1_555
P2 C1 1_555 1_555
C1 H1 1_555 1_555
H2 C1 1_555 1_555
O1 P1 1_555 1_555
H3 O1 1_555 1_555
O2 P1 1_555 1_555
O3 P1 1_555 1_555
O4 P2 1_555 1_555
H4 O4 1_555 1_555
O5 P2 1_555 1_555
H5 O5 1_555 1_555
O6 P2 1_555 1_555
P3 C2 1_555 1_555
P4 C2 1_555 1_555
C2 H6 1_555 1_555
H7 C2 1_555 1_555
O7 P3 1_555 1_555
H8 O7 1_555 1_555
O8 P3 1_555 1_555
O9 P3 1_555 1_555
O10 P4 1_555 1_555
H9 O10 1_555 1_555
O11 P4 1_555 1_555
H10 O11 1_555 1_555
O12 P4 1_555 1_555
N1 H11 1_555 1_555
C3 N1 1_555 1_555
H12 C3 1_555 1_555
H13 C3 1_555 1_555
C4 N1 1_555 1_555
H14 C4 1_555 1_555
H15 C4 1_555 1_555
C5 N1 1_555 1_555
H16 C5 1_555 1_555
H17 C5 1_555 1_555
H18 C5 1_555 1_555
N2 H19 1_555 1_555
C6 N2 1_555 1_555
H20 C6 1_555 1_555
H21 C6 1_555 1_555
C7 N2 1_555 1_555
H22 C7 1_555 1_555
H23 C7 1_555 1_555
C8 N2 1_555 1_555
H24 C8 1_555 1_555
H25 C8 1_555 1_555
H26 C8 1_555 1_555
N1A H11A 1_555 1_555
C3A C4 1_555 1_555
H12A C3A 1_555 1_555
H13A C3A 1_555 1_555
C4A C3 1_555 1_555
H14A C4A 1_555 1_555
H15A C4A 1_555 1_555
C5A N1A 1_555 1_555
H16A C5A 1_555 1_555
H17A C5A 1_555 1_555
H18A C5A 1_555 1_555
N2A H19A 1_555 1_555
C6A C7 1_555 1_555
H20A C6A 1_555 1_555
H21A C6A 1_555 1_555
C7A C6 1_555 1_555
H22A C7A 1_555 1_555
H23A C7A 1_555 1_555
C8A N2A 1_555 1_555
H24A C8A 1_555 1_555
H25A C8A 1_555 1_555
H26A C8A 1_555 1_555
N1A C3A 1_555 1_555
N1A C4A 1_555 1_555
N2A C6A 1_555 1_555
N2A C7A 1_555 1_555

#END
