
#######################################################################
#
#                 Cambridge Crystallographic Data Centre
#                                CCDC 
#
#######################################################################
#
# If this CIF has been generated from an entry in the Cambridge 
# Structural Database, then it will include bibliographic, chemical, 
# crystal, experimental, refinement or atomic coordinate data resulting 
# from the CCDC's data processing and validation procedures.
#
#######################################################################

data_SATJAB
_chemical_name_common            
5alpha,8alpha-epidioxyandrost-5,7-diene-3beta-ol-17-(O-phenylacetamide)oxime
_chemical_formula_moiety         'C27 H34 N2 O5'
_chemical_name_systematic        
2-(((13-hydroxy-6,10-dimethyl-16,17-dioxapentacyclo[13.2.2.0^1,9^.0^2,6^.0^10,15^]nonadec-18-en-5-ylidene)amino)oxy)-N-phenylacetamide
_chemical_properties_biological  'anti-proliferative activity'
_symmetry_cell_setting           orthorhombic
_symmetry_space_group_name_H-M   'P 21 21 21'
_symmetry_Int_Tables_number      19
_space_group_name_Hall           'P 2ac 2ab'
loop_
_symmetry_equiv_pos_site_id
_symmetry_equiv_pos_as_xyz
1 x,y,z
2 1/2-x,-y,1/2+z
3 1/2+x,1/2-y,-z
4 -x,1/2+y,1/2-z
_cell_length_a                   7.00270(10)
_cell_length_b                   10.96370(10)
_cell_length_c                   30.4595(3)
_cell_angle_alpha                90
_cell_angle_beta                 90
_cell_angle_gamma                90
_cell_volume                     2338.54
_exptl_crystal_colour            colorless
_exptl_crystal_description       Block
_cell_formula_units_Z            4
_exptl_crystal_recrystallization_method 'n-hexane/ethyl acetate'
loop_
_atom_site_label
_atom_site_type_symbol
_atom_site_fract_x
_atom_site_fract_y
_atom_site_fract_z
O1 O -0.14810(16) 0.06034(9) 0.66997(3)
H1 H -0.0890 0.1031 0.6884
O2 O -0.16538(14) 0.11736(9) 0.53490(3)
O3 O -0.13219(14) 0.13959(8) 0.48730(3)
O4 O 0.28180(15) 0.12271(10) 0.28771(3)
O5 O 0.57667(16) 0.28129(10) 0.27671(3)
N1 N 0.34126(17) 0.07415(11) 0.32926(4)
N2 N 0.71174(17) 0.16430(10) 0.22281(3)
H2 H 0.6893 0.1001 0.2062
C1 C 0.2094(2) 0.11222(13) 0.57864(4)
H3 H 0.3507 0.1141 0.5786
H4 H 0.1638 0.1931 0.5687
C2 C 0.1396(2) 0.09065(14) 0.62556(4)
H5 H 0.1923 0.0128 0.6367
H6 H 0.1855 0.1572 0.6448
C3 C -0.0772(2) 0.08599(12) 0.62675(4)
H7 H -0.1282 0.1669 0.6171
C4 C -0.1537(2) -0.01207(12) 0.59604(4)
H8 H -0.2949 -0.0082 0.5957
H9 H -0.1162 -0.0932 0.6074
C5 C -0.0793(2) 0.00205(11) 0.54897(4)
C6 C -0.1461(2) -0.09466(12) 0.51749(4)
H10 H -0.2145 -0.1652 0.5265
C7 C -0.1003(2) -0.07191(12) 0.47589(4)
H11 H -0.1286 -0.1258 0.4523
C8 C 0.00107(18) 0.04813(11) 0.47000(4)
C9 C 0.18417(19) 0.06017(12) 0.49807(4)
H12 H 0.2074 0.1498 0.5008
C10 C 0.1416(2) 0.01475(12) 0.54581(4)
C11 C 0.3650(2) 0.00846(14) 0.47656(4)
H13 H 0.3569 -0.0817 0.4762
H14 H 0.4774 0.0315 0.4945
C12 C 0.39375(19) 0.05476(15) 0.42937(4)
H15 H 0.4187 0.1436 0.4297
H16 H 0.5055 0.0137 0.4160
C13 C 0.21525(19) 0.02834(12) 0.40208(4)
C14 C 0.04258(18) 0.09295(11) 0.42381(4)
H17 H 0.0827 0.1799 0.4273
C15 C -0.11061(19) 0.09456(13) 0.38807(4)
H18 H -0.2134 0.1536 0.3949
H19 H -0.1670 0.0127 0.3836
C16 C 0.0073(2) 0.13529(13) 0.34797(4)
H20 H -0.0477 0.1024 0.3205
H21 H 0.0121 0.2254 0.3460
C17 C 0.2036(2) 0.08322(12) 0.35620(4)
C18 C 0.1901(2) -0.11042(13) 0.39579(5)
H22 H 0.2999 -0.1431 0.3797
H23 H 0.0729 -0.1262 0.3791
H24 H 0.1816 -0.1501 0.4246
C19 C 0.2347(3) -0.10887(14) 0.55603(5)
H25 H 0.3738 -0.0991 0.5572
H26 H 0.2015 -0.1676 0.5330
H27 H 0.1884 -0.1388 0.5844
C20 C 0.4220(2) 0.09369(13) 0.25603(4)
H28 H 0.3603 0.0855 0.2269
H29 H 0.4807 0.0142 0.2635
C21 C 0.5768(2) 0.19030(12) 0.25348(4)
C22 C 0.8833(2) 0.22728(12) 0.21423(4)
C23 C 0.9361(2) 0.33510(13) 0.23542(5)
H30 H 0.8548 0.3702 0.2570
C24 C 1.1075(2) 0.39052(14) 0.22483(5)
H31 H 1.1431 0.4634 0.2396
C25 C 1.2280(2) 0.34282(15) 0.19347(5)
H32 H 1.3441 0.3828 0.1862
C26 C 1.1761(2) 0.23543(15) 0.17285(5)
H33 H 1.2584 0.2008 0.1514
C27 C 1.0060(2) 0.17754(13) 0.18295(4)
H34 H 0.9728 0.1037 0.1685
loop_
_geom_bond_atom_site_label_1
_geom_bond_atom_site_label_2
_geom_bond_site_symmetry_1
_geom_bond_site_symmetry_2
O1 H1 1_555 1_555
O2 O3 1_555 1_555
O3 C8 1_555 1_555
O4 N1 1_555 1_555
O5 C21 1_555 1_555
N1 C17 1_555 1_555
N2 H2 1_555 1_555
C1 H3 1_555 1_555
H4 C1 1_555 1_555
C2 C1 1_555 1_555
H5 C2 1_555 1_555
H6 C2 1_555 1_555
C3 O1 1_555 1_555
H7 C3 1_555 1_555
C4 C3 1_555 1_555
H8 C4 1_555 1_555
H9 C4 1_555 1_555
C5 O2 1_555 1_555
C6 C5 1_555 1_555
H10 C6 1_555 1_555
C7 C6 1_555 1_555
H11 C7 1_555 1_555
C8 C7 1_555 1_555
C9 C8 1_555 1_555
H12 C9 1_555 1_555
C10 C1 1_555 1_555
C11 C9 1_555 1_555
H13 C11 1_555 1_555
H14 C11 1_555 1_555
C12 C11 1_555 1_555
H15 C12 1_555 1_555
H16 C12 1_555 1_555
C13 C12 1_555 1_555
C14 C8 1_555 1_555
H17 C14 1_555 1_555
C15 C14 1_555 1_555
H18 C15 1_555 1_555
H19 C15 1_555 1_555
C16 C15 1_555 1_555
H20 C16 1_555 1_555
H21 C16 1_555 1_555
C17 C13 1_555 1_555
C18 C13 1_555 1_555
H22 C18 1_555 1_555
H23 C18 1_555 1_555
H24 C18 1_555 1_555
C19 C10 1_555 1_555
H25 C19 1_555 1_555
H26 C19 1_555 1_555
H27 C19 1_555 1_555
C20 O4 1_555 1_555
H28 C20 1_555 1_555
H29 C20 1_555 1_555
C21 N2 1_555 1_555
C22 N2 1_555 1_555
C23 C22 1_555 1_555
H30 C23 1_555 1_555
C24 C23 1_555 1_555
H31 C24 1_555 1_555
C25 C24 1_555 1_555
H32 C25 1_555 1_555
C26 C25 1_555 1_555
H33 C26 1_555 1_555
C27 C22 1_555 1_555
H34 C27 1_555 1_555
C2 C3 1_555 1_555
C4 C5 1_555 1_555
C5 C10 1_555 1_555
C9 C10 1_555 1_555
C13 C14 1_555 1_555
C16 C17 1_555 1_555
C20 C21 1_555 1_555
C26 C27 1_555 1_555

#END
