
#######################################################################
#
#                 Cambridge Crystallographic Data Centre
#                                CCDC 
#
#######################################################################
#
# If this CIF has been generated from an entry in the Cambridge 
# Structural Database, then it will include bibliographic, chemical, 
# crystal, experimental, refinement or atomic coordinate data resulting 
# from the CCDC's data processing and validation procedures.
#
#######################################################################

data_SATJEF01
_chemical_formula_moiety         'C8 H7 N1 O3 S1'
_chemical_name_systematic        
'5-oxo-2,3-dihydro-5H-[1,3]thiazolo[3,2-a]pyridine-7-carboxylic acid'
_symmetry_cell_setting           triclinic
_symmetry_space_group_name_H-M   'P -1'
_symmetry_Int_Tables_number      2
_space_group_name_Hall           '-P 1'
loop_
_symmetry_equiv_pos_site_id
_symmetry_equiv_pos_as_xyz
1 x,y,z
2 -x,-y,-z
_cell_length_a                   8.082(4)
_cell_length_b                   11.900(6)
_cell_length_c                   18.387(9)
_cell_angle_alpha                96.689(7)
_cell_angle_beta                 97.921(8)
_cell_angle_gamma                102.152(8)
_cell_volume                     1692.83
_exptl_crystal_colour            colorless
_exptl_crystal_description       block
_cell_formula_units_Z            8
loop_
_atom_site_label
_atom_site_type_symbol
_atom_site_fract_x
_atom_site_fract_y
_atom_site_fract_z
S1 S 0.20043(11) 0.50927(7) 0.44315(4)
N1 N 0.2459(3) 0.65494(17) 0.35010(11)
O1 O 0.3235(3) 0.80580(16) 0.28906(11)
O2 O -0.1943(3) 0.53608(17) 0.12123(11)
O3 O -0.2390(3) 0.38452(16) 0.18357(11)
H1 H -0.3106 0.3548 0.1466
C1 C 0.4023(4) 0.6150(3) 0.46073(18)
H2 H 0.4307 0.6484 0.5128
H3 H 0.4933 0.5787 0.4479
C2 C 0.3825(4) 0.7082(2) 0.41324(15)
H4 H 0.3522 0.7726 0.4416
H5 H 0.4892 0.7373 0.3959
C3 C 0.2227(4) 0.7102(2) 0.28875(15)
C4 C 0.0855(3) 0.6505(2) 0.23155(15)
H6 H 0.0650 0.6831 0.1886
C5 C -0.0166(3) 0.5471(2) 0.23796(14)
C6 C -0.1598(3) 0.4893(2) 0.17457(16)
C7 C 0.0114(3) 0.4948(2) 0.30194(15)
H7 H -0.0578 0.4237 0.3063
C8 C 0.1423(3) 0.5509(2) 0.35721(15)
S2 S 0.90374(11) 0.65636(7) 0.93236(4)
N2 N 0.6664(3) 0.55489(18) 0.82094(12)
O4 O 0.4471(3) 0.43873(17) 0.73866(11)
O5 O 0.8697(4) 0.8914(2) 0.69549(13)
O6 O 0.6624(3) 0.77696(18) 0.61149(12)
H8 H 0.6870 0.8292 0.5867
C9 C 0.7987(4) 0.5076(3) 0.93496(17)
H9 H 0.8745 0.4566 0.9246
H10 H 0.7688 0.4995 0.9837
C10 C 0.6389(4) 0.4762(2) 0.87674(15)
H11 H 0.6192 0.3959 0.8537
H12 H 0.5398 0.4858 0.8990
C11 C 0.5586(4) 0.5315(2) 0.75274(15)
C12 C 0.5908(4) 0.6180(2) 0.70616(15)
H13 H 0.5214 0.6084 0.6601
C13 C 0.7210(3) 0.7150(2) 0.72737(15)
C14 C 0.8268(4) 0.7335(2) 0.79696(15)
H14 H 0.9159 0.7994 0.8114
C15 C 0.7951(3) 0.6520(2) 0.84294(15)
C16 C 0.7586(4) 0.8047(3) 0.67695(17)
S3 S 0.79267(12) 0.22265(8) 0.36378(5)
N3 N 0.7576(3) 0.06511(18) 0.44940(12)
O7 O 0.6772(2) -0.08736(15) 0.51029(10)
O8 O 1.2217(3) 0.34004(17) 0.62362(11)
H15 H 1.2943 0.3689 0.6605
O9 O 1.1791(3) 0.18760(19) 0.68400(12)
C17 C 0.6781(5) 0.0776(3) 0.32144(17)
H16 H 0.5783 0.0801 0.2863
H17 H 0.7517 0.0385 0.2955
C18 C 0.6242(4) 0.0149(2) 0.38430(15)
H18 H 0.5135 0.0265 0.3939
H19 H 0.6160 -0.0678 0.3721
C19 C 0.7752(3) 0.0097(2) 0.51137(14)
C20 C 0.9054(3) 0.0709(2) 0.57116(15)
H20 H 0.9227 0.0382 0.6143
C21 C 1.0054(3) 0.1765(2) 0.56674(14)
C22 C 1.1443(4) 0.2344(2) 0.63152(16)
C23 C 0.9813(4) 0.2301(2) 0.50317(15)
H21 H 1.0488 0.3026 0.5004
C24 C 0.8562(4) 0.1726(2) 0.44588(15)
S4 S 0.84532(14) 0.96701(8) 1.13802(5)
N4 N 0.6515(3) 0.84502(18) 1.01945(12)
O10 O 0.4716(3) 0.70985(17) 0.93119(12)
O11 O 0.6560(3) 1.05554(19) 0.80602(12)
H22 H 0.6705 1.1088 0.7813
O12 O 0.7850(4) 1.19605(19) 0.89883(13)
C25 C 0.7619(7) 0.8194(3) 1.1406(2)
H23 H 0.8554 0.7800 1.1460
H24 H 0.7053 0.8119 1.1836
C26 C 0.6408(4) 0.7640(3) 1.07433(16)
H25 H 0.5254 0.7458 1.0858
H26 H 0.6684 0.6923 1.0546
C27 C 0.5631(4) 0.8107(2) 0.94812(15)
C28 C 0.5873(4) 0.8967(2) 0.90060(15)
H27 H 0.5323 0.8790 0.8514
C29 C 0.6896(4) 1.0047(2) 0.92584(15)
C30 C 0.7725(4) 1.0351(2) 0.99930(16)
H28 H 0.8395 1.1096 1.0166
C31 C 0.7529(4) 0.9529(2) 1.04517(15)
C32 C 0.7147(4) 1.0958(3) 0.87528(18)
loop_
_geom_bond_atom_site_label_1
_geom_bond_atom_site_label_2
_geom_bond_site_symmetry_1
_geom_bond_site_symmetry_2
S1 C1 1_555 1_555
N1 C2 1_555 1_555
O1 C3 1_555 1_555
O2 C6 1_555 1_555
O3 H1 1_555 1_555
C1 H2 1_555 1_555
H3 C1 1_555 1_555
C2 C1 1_555 1_555
H4 C2 1_555 1_555
H5 C2 1_555 1_555
C3 N1 1_555 1_555
C4 C3 1_555 1_555
H6 C4 1_555 1_555
C5 C4 1_555 1_555
C6 O3 1_555 1_555
C7 C5 1_555 1_555
H7 C7 1_555 1_555
C8 S1 1_555 1_555
S2 C9 1_555 1_555
N2 C10 1_555 1_555
O4 C11 1_555 1_555
O5 C16 1_555 1_555
O6 H8 1_555 1_555
C9 H9 1_555 1_555
H10 C9 1_555 1_555
C10 C9 1_555 1_555
H11 C10 1_555 1_555
H12 C10 1_555 1_555
C11 N2 1_555 1_555
C12 C11 1_555 1_555
H13 C12 1_555 1_555
C13 C12 1_555 1_555
C14 C13 1_555 1_555
H14 C14 1_555 1_555
C15 S2 1_555 1_555
C16 O6 1_555 1_555
S3 C17 1_555 1_555
N3 C18 1_555 1_555
O7 C19 1_555 1_555
O8 H15 1_555 1_555
O9 C22 1_555 1_555
C17 H16 1_555 1_555
H17 C17 1_555 1_555
C18 C17 1_555 1_555
H18 C18 1_555 1_555
H19 C18 1_555 1_555
C19 N3 1_555 1_555
C20 C19 1_555 1_555
H20 C20 1_555 1_555
C21 C20 1_555 1_555
C22 O8 1_555 1_555
C23 C21 1_555 1_555
H21 C23 1_555 1_555
C24 S3 1_555 1_555
S4 C25 1_555 1_555
N4 C26 1_555 1_555
O10 C27 1_555 1_555
O11 H22 1_555 1_555
O12 C32 1_555 1_555
C25 H23 1_555 1_555
H24 C25 1_555 1_555
C26 C25 1_555 1_555
H25 C26 1_555 1_555
H26 C26 1_555 1_555
C27 N4 1_555 1_555
C28 C27 1_555 1_555
H27 C28 1_555 1_555
C29 C28 1_555 1_555
C30 C29 1_555 1_555
H28 C30 1_555 1_555
C31 S4 1_555 1_555
C32 O11 1_555 1_555
N1 C8 1_555 1_555
C5 C6 1_555 1_555
C7 C8 1_555 1_555
N2 C15 1_555 1_555
C13 C16 1_555 1_555
C14 C15 1_555 1_555
N3 C24 1_555 1_555
C21 C22 1_555 1_555
C23 C24 1_555 1_555
N4 C31 1_555 1_555
C29 C32 1_555 1_555
C30 C31 1_555 1_555

#END
