
#######################################################################
#
#                 Cambridge Crystallographic Data Centre
#                                CCDC 
#
#######################################################################
#
# If this CIF has been generated from an entry in the Cambridge 
# Structural Database, then it will include bibliographic, chemical, 
# crystal, experimental, refinement or atomic coordinate data resulting 
# from the CCDC's data processing and validation procedures.
#
#######################################################################

data_SATMAE
_chemical_formula_moiety         'C20 H21 Cl2 N3 O3'
_chemical_name_systematic        
(4S,5R,6S)-5-benzoyl-4-(dichloromethyl)-6-(4-(dimethylamino)phenyl)-4-hydroxytetrahydropyrimidin-2(1H)-one
_symmetry_cell_setting           orthorhombic
_symmetry_space_group_name_H-M   'P 21 21 21'
_symmetry_Int_Tables_number      19
_space_group_name_Hall           'P 2ac 2ab'
loop_
_symmetry_equiv_pos_site_id
_symmetry_equiv_pos_as_xyz
1 x,y,z
2 1/2-x,-y,1/2+z
3 1/2+x,1/2-y,-z
4 -x,1/2+y,1/2-z
_cell_length_a                   6.3194(9)
_cell_length_b                   15.750(9)
_cell_length_c                   19.038(8)
_cell_angle_alpha                90
_cell_angle_beta                 90
_cell_angle_gamma                90
_cell_volume                     1894.86
_exptl_crystal_colour            colorless
_exptl_crystal_description       prism
_cell_formula_units_Z            4
loop_
_atom_site_label
_atom_site_type_symbol
_atom_site_fract_x
_atom_site_fract_y
_atom_site_fract_z
Cl1 Cl 1.1964(3) 0.69010(11) 0.35199(9)
Cl2 Cl 0.7496(3) 0.71435(10) 0.32883(9)
O1 O 1.3327(8) 0.5895(2) 0.5676(2)
O2 O 0.7124(8) 0.6729(2) 0.4843(2)
O3 O 0.5029(7) 0.5512(3) 0.4142(2)
N1 N 1.0901(8) 0.5007(3) 0.5179(2)
H1 H 1.1608 0.4564 0.5299
N2 N 1.0738(9) 0.6450(3) 0.4993(2)
H2 H 1.1209 0.6946 0.5099
N3 N 0.7061(8) 0.1569(3) 0.3782(3)
C1 C 1.1727(11) 0.5779(4) 0.5310(3)
C2 C 0.9000(9) 0.6424(3) 0.4503(3)
C3 C 0.8754(9) 0.5523(3) 0.4228(3)
H3 H 0.9937 0.5405 0.3910
C4 C 0.8879(10) 0.4898(4) 0.4845(3)
H4 H 0.7778 0.5053 0.5185
C5 C 0.9499(10) 0.7093(4) 0.3924(3)
H5 H 0.9577 0.7649 0.4153
C6 C 0.6708(10) 0.5342(3) 0.3839(3)
C7 C 0.8763(14) 0.1138(4) 0.3391(3)
H6 H 0.8285 0.0588 0.3244
H7 H 0.9979 0.1077 0.3689
H8 H 0.9133 0.1470 0.2986
C8 C 0.4994(12) 0.1478(5) 0.3469(4)
H9 H 0.4803 0.0902 0.3316
H10 H 0.4876 0.1853 0.3073
H11 H 0.3928 0.1618 0.3809
C9 C 0.8468(10) 0.4000(3) 0.4606(3)
C10 C 0.9991(11) 0.3561(4) 0.4210(3)
H12 H 1.1301 0.3809 0.4124
C11 C 0.9554(10) 0.2765(4) 0.3947(3)
H13 H 1.0601 0.2466 0.3709
C12 C 0.7547(10) 0.2401(3) 0.4035(3)
C13 C 0.6041(12) 0.2848(4) 0.4425(3)
H14 H 0.4713 0.2612 0.4503
C14 C 0.6519(10) 0.3640(4) 0.4696(3)
H15 H 0.5488 0.3935 0.4945
C15 C 0.6646(11) 0.4909(4) 0.3165(3)
C16 C 0.4703(12) 0.4580(4) 0.2944(3)
H16 H 0.3503 0.4654 0.3220
C17 C 0.4564(14) 0.4144(4) 0.2310(4)
H17 H 0.3268 0.3919 0.2172
C18 C 0.6294(14) 0.4037(4) 0.1883(3)
H18 H 0.6170 0.3752 0.1458
C19 C 0.8201(14) 0.4358(5) 0.2094(3)
H19 H 0.9386 0.4277 0.1812
C20 C 0.8405(12) 0.4806(5) 0.2727(3)
H20 H 0.9707 0.5033 0.2856
H21 H 0.6742 0.6329 0.5207
loop_
_geom_bond_atom_site_label_1
_geom_bond_atom_site_label_2
_geom_bond_site_symmetry_1
_geom_bond_site_symmetry_2
Cl1 C5 1_555 1_555
Cl2 C5 1_555 1_555
O1 C1 1_555 1_555
O2 C2 1_555 1_555
O3 C6 1_555 1_555
N1 H1 1_555 1_555
N2 H2 1_555 1_555
N3 C7 1_555 1_555
C1 N1 1_555 1_555
C2 N2 1_555 1_555
C3 C2 1_555 1_555
H3 C3 1_555 1_555
C4 N1 1_555 1_555
H4 C4 1_555 1_555
C5 C2 1_555 1_555
H5 C5 1_555 1_555
C6 C3 1_555 1_555
C7 H6 1_555 1_555
H7 C7 1_555 1_555
H8 C7 1_555 1_555
C8 N3 1_555 1_555
H9 C8 1_555 1_555
H10 C8 1_555 1_555
H11 C8 1_555 1_555
C9 C4 1_555 1_555
C10 C9 1_555 1_555
H12 C10 1_555 1_555
C11 C10 1_555 1_555
H13 C11 1_555 1_555
C12 N3 1_555 1_555
C13 C12 1_555 1_555
H14 C13 1_555 1_555
C14 C9 1_555 1_555
H15 C14 1_555 1_555
C15 C6 1_555 1_555
C16 C15 1_555 1_555
H16 C16 1_555 1_555
C17 C16 1_555 1_555
H17 C17 1_555 1_555
C18 C17 1_555 1_555
H18 C18 1_555 1_555
C19 C18 1_555 1_555
H19 C19 1_555 1_555
C20 C15 1_555 1_555
H20 C20 1_555 1_555
H21 O2 1_555 1_555
N2 C1 1_555 1_555
C3 C4 1_555 1_555
C11 C12 1_555 1_555
C13 C14 1_555 1_555
C19 C20 1_555 1_555

#END
