
#######################################################################
#
#                 Cambridge Crystallographic Data Centre
#                                CCDC 
#
#######################################################################
#
# If this CIF has been generated from an entry in the Cambridge 
# Structural Database, then it will include bibliographic, chemical, 
# crystal, experimental, refinement or atomic coordinate data resulting 
# from the CCDC's data processing and validation procedures.
#
#######################################################################

data_SATNAF
_chemical_formula_moiety         'C30 H24 F3 N3 O3'
_chemical_name_systematic        
3-(1-(3,4-dihydroquinolin-1(2H)-ylacetyl)-5-(2-(trifluoromethyl)phenyl)-4,5-dihydro-1H-pyrazol-3-yl)-2H-chromen-2-one
_chemical_properties_biological  'anti-inflammatory activity'
_symmetry_cell_setting           triclinic
_symmetry_space_group_name_H-M   'P -1'
_symmetry_Int_Tables_number      2
_space_group_name_Hall           '-P 1'
loop_
_symmetry_equiv_pos_site_id
_symmetry_equiv_pos_as_xyz
1 x,y,z
2 -x,-y,-z
_cell_length_a                   8.518(4)
_cell_length_b                   11.528(6)
_cell_length_c                   13.779(7)
_cell_angle_alpha                107.561(4)
_cell_angle_beta                 92.912(5)
_cell_angle_gamma                101.897(5)
_cell_volume                     1252.98
_exptl_crystal_colour            yellow
_exptl_crystal_description       block
_chemical_melting_point          '199-200 deg.C'
_cell_formula_units_Z            2
loop_
_atom_site_label
_atom_site_type_symbol
_atom_site_fract_x
_atom_site_fract_y
_atom_site_fract_z
C1 C 1.0579(3) 1.0358(3) 0.1488(2)
C2 C 1.1127(4) 0.9342(3) 0.0889(2)
H1 H 1.0416 0.8561 0.0622
C3 C 1.2734(5) 0.9489(4) 0.0687(3)
H2 H 1.3088 0.8812 0.0280
C4 C 1.3791(5) 1.0640(6) 0.1093(3)
H3 H 1.4863 1.0744 0.0963
C5 C 1.3259(5) 1.1621(4) 0.1685(3)
H4 H 1.3989 1.2392 0.1957
C6 C 1.1694(4) 1.1524(3) 0.1897(2)
C7 C 1.1190(5) 1.2643(3) 0.2590(3)
H5 H 1.2081 1.3147 0.3112
H6 H 1.0920 1.3155 0.2192
C8 C 0.9751(5) 1.2220(3) 0.3093(3)
H7 H 1.0057 1.1811 0.3569
H8 H 0.9354 1.2936 0.3472
C9 C 0.8470(4) 1.1337(3) 0.2284(2)
H9 H 0.7532 1.1066 0.2601
H10 H 0.8148 1.1764 0.1827
C10 C 0.7778(3) 0.9119(3) 0.1322(2)
H11 H 0.8181 0.8508 0.0807
H12 H 0.6842 0.9276 0.0998
C11 C 0.7271(3) 0.8585(3) 0.2174(2)
C12 C 0.5092(3) 0.7061(3) 0.2633(2)
H13 H 0.5827 0.6767 0.3024
C13 C 0.3836(3) 0.5943(2) 0.1884(2)
H14 H 0.4098 0.5154 0.1853
H15 H 0.2755 0.5933 0.2077
C14 C 0.3988(3) 0.6199(2) 0.0882(2)
C15 C 0.2971(3) 0.5516(2) -0.0105(2)
C16 C 0.1705(4) 0.4415(3) -0.0181(3)
C17 C 0.1138(3) 0.4095(3) -0.1992(2)
C18 C 0.0258(4) 0.3323(3) -0.2913(3)
H16 H -0.0507 0.2606 -0.2941
C19 C 0.0536(4) 0.3635(3) -0.3781(3)
H17 H -0.0052 0.3126 -0.4404
C20 C 0.1673(4) 0.4690(3) -0.3746(2)
H18 H 0.1848 0.4889 -0.4344
C21 C 0.2548(4) 0.5448(3) -0.2828(2)
H19 H 0.3319 0.6159 -0.2808
C22 C 0.2293(3) 0.5163(2) -0.1928(2)
C23 C 0.3203(3) 0.5861(2) -0.0947(2)
H20 H 0.3984 0.6581 -0.0890
C24 C 0.4299(3) 0.7989(2) 0.3350(2)
C25 C 0.3749(3) 0.8865(3) 0.3009(2)
H21 H 0.3948 0.8909 0.2362
C26 C 0.2918(4) 0.9670(3) 0.3593(3)
H22 H 0.2550 1.0236 0.3335
C27 C 0.2632(4) 0.9641(3) 0.4555(3)
H23 H 0.2079 1.0192 0.4954
C28 C 0.3164(4) 0.8796(3) 0.4927(2)
H24 H 0.2973 0.8778 0.5581
C29 C 0.3994(3) 0.7958(3) 0.4332(2)
C30 C 0.4527(5) 0.7046(3) 0.4761(3)
F1 F 0.3987(3) 0.58569(18) 0.41597(16)
F2 F 0.6138(3) 0.72146(19) 0.48977(15)
F3 F 0.4048(3) 0.7095(2) 0.56786(16)
N1 N 0.9006(3) 1.0261(2) 0.17009(17)
N2 N 0.5953(3) 0.7602(2) 0.19104(17)
N3 N 0.5182(3) 0.7105(2) 0.09127(17)
O1 O 0.7936(2) 0.90046(19) 0.30526(16)
O2 O 0.1326(3) 0.4022(2) 0.05105(18)
O3 O 0.0844(2) 0.37520(17) -0.11294(16)
loop_
_geom_bond_atom_site_label_1
_geom_bond_atom_site_label_2
_geom_bond_site_symmetry_1
_geom_bond_site_symmetry_2
C1 C2 1_555 1_555
C2 H1 1_555 1_555
C3 C2 1_555 1_555
H2 C3 1_555 1_555
C4 C3 1_555 1_555
H3 C4 1_555 1_555
C5 C4 1_555 1_555
H4 C5 1_555 1_555
C6 C1 1_555 1_555
C7 C6 1_555 1_555
H5 C7 1_555 1_555
H6 C7 1_555 1_555
C8 C7 1_555 1_555
H7 C8 1_555 1_555
H8 C8 1_555 1_555
C9 C8 1_555 1_555
H9 C9 1_555 1_555
H10 C9 1_555 1_555
C10 H11 1_555 1_555
H12 C10 1_555 1_555
C11 C10 1_555 1_555
C12 H13 1_555 1_555
C13 C12 1_555 1_555
H14 C13 1_555 1_555
H15 C13 1_555 1_555
C14 C13 1_555 1_555
C15 C14 1_555 1_555
C16 C15 1_555 1_555
C17 C18 1_555 1_555
C18 H16 1_555 1_555
C19 C18 1_555 1_555
H17 C19 1_555 1_555
C20 C19 1_555 1_555
H18 C20 1_555 1_555
C21 C20 1_555 1_555
H19 C21 1_555 1_555
C22 C17 1_555 1_555
C23 C15 1_555 1_555
H20 C23 1_555 1_555
C24 C12 1_555 1_555
C25 C24 1_555 1_555
H21 C25 1_555 1_555
C26 C25 1_555 1_555
H22 C26 1_555 1_555
C27 C26 1_555 1_555
H23 C27 1_555 1_555
C28 C27 1_555 1_555
H24 C28 1_555 1_555
C29 C24 1_555 1_555
C30 C29 1_555 1_555
F1 C30 1_555 1_555
F2 C30 1_555 1_555
F3 C30 1_555 1_555
N1 C1 1_555 1_555
N2 C11 1_555 1_555
N3 C14 1_555 1_555
O1 C11 1_555 1_555
O2 C16 1_555 1_555
O3 C16 1_555 1_555
C5 C6 1_555 1_555
C9 N1 1_555 1_555
C10 N1 1_555 1_555
C12 N2 1_555 1_555
C17 O3 1_555 1_555
C21 C22 1_555 1_555
C22 C23 1_555 1_555
C28 C29 1_555 1_555
N2 N3 1_555 1_555

#END
