
#######################################################################
#
#                 Cambridge Crystallographic Data Centre
#                                CCDC 
#
#######################################################################
#
# If this CIF has been generated from an entry in the Cambridge 
# Structural Database, then it will include bibliographic, chemical, 
# crystal, experimental, refinement or atomic coordinate data resulting 
# from the CCDC's data processing and validation procedures.
#
#######################################################################

data_SATSIQ
_chemical_formula_moiety         'C21 H22 O6'
_chemical_name_systematic        
10-Hydroxy-6,7,11-trimethoxy-3a,4,13,13a-tetrahydrodibenzo(4,5:6,7)cyclo-octa(1,2-c)furan-1(3H)-one
_symmetry_cell_setting           orthorhombic
_symmetry_space_group_name_H-M   'P n a 21'
_symmetry_Int_Tables_number      33
_space_group_name_Hall           'P 2c -2n'
loop_
_symmetry_equiv_pos_site_id
_symmetry_equiv_pos_as_xyz
1 x,y,z
2 -x,-y,1/2+z
3 1/2-x,1/2+y,1/2+z
4 1/2+x,1/2-y,z
_cell_length_a                   13.49(1)
_cell_length_b                   14.63(1)
_cell_length_c                   9.50(1)
_cell_angle_alpha                90
_cell_angle_beta                 90
_cell_angle_gamma                90
_cell_volume                     1874.91
_cell_formula_units_Z            4
loop_
_atom_site_label
_atom_site_type_symbol
_atom_site_fract_x
_atom_site_fract_y
_atom_site_fract_z
O1 O 0.7544(3) 0.1209(2) 0.8417(75)
O2 O 0.7175(3) -0.0550(2) 0.8351(80)
O3 O 0.4370(3) 0.3868(2) 0.3912(80)
O4 O 0.6615(3) -0.2077(2) 0.3126(70)
O5 O 0.4780(3) 0.3771(3) 0.1221(75)
O6 O 0.7841(3) -0.1263(2) 0.2150(75)
C1 C 0.7025(3) 0.0888(3) 0.7284(88)
C2 C 0.6703(3) 0.1441(3) 0.6208(90)
C3 C 0.6218(3) 0.1082(3) 0.5017(90)
C4 C 0.6032(3) 0.0148(3) 0.4972(75)
C5 C 0.6349(3) -0.0404(3) 0.6083(80)
C6 C 0.6845(3) -0.0050(3) 0.7226(85)
C7 C 0.7121(5) -0.1509(3) 0.8252(85)
C8 C 0.5576(3) -0.0295(3) 0.3700(90)
C9 C 0.6360(4) -0.0467(3) 0.2547(85)
C10 C 0.7198(4) 0.0221(3) 0.2462(85)
C11 C 0.6951(4) 0.1122(3) 0.1766(75)
C12 C 0.6165(3) 0.1730(3) 0.2483(90)
C13 C 0.5896(3) 0.1744(3) 0.3888(90)
C14 C 0.6909(4) -0.1354(3) 0.2675(90)
C15 C 0.7991(4) -0.0324(4) 0.1677(80)
C16 C 0.5781(4) 0.2392(3) 0.1574(90)
C17 C 0.5170(4) 0.3095(3) 0.2046(80)
C18 C 0.4952(3) 0.3142(3) 0.3485(95)
C19 C 0.5287(3) 0.2471(3) 0.4379(95)
C20 C 0.4951(6) 0.3709(5) -0.0266(80)
C21 C 0.4222(5) 0.3977(5) 0.5381(90)
H1 H 0.6828(29) 0.2128(29) 0.6419(45)
H2 H 0.6238(32) -0.1113(33) 0.5958(50)
H3 H 0.6551(39) -0.1714(34) 0.8117(55)
H4 H 0.7431(47) -0.1846(46) 0.9237(45)
H6 H 0.5089(40) 0.0130(37) 0.3182(78)
H7 H 0.5242(33) -0.0988(32) 0.3929(80)
H8 H 0.6029(43) -0.0498(40) 0.1612(45)
H9 H 0.7408(34) 0.0286(31) 0.3287(66)
H10 H 0.7615(39) 0.1518(34) 0.1607(57)
H11 H 0.6729(66) 0.1195(62) 0.0385(89)
H12 H 0.7888(45) -0.0272(40) 0.0672(86)
H13 H 0.8731(45) -0.0185(35) 0.1969(56)
H14 H 0.6070(38) 0.2447(34) 0.0377(90)
H15 H 0.5171(39) 0.2454(36) 0.5403(95)
H16 H 0.4571(45) 0.4240(42) -0.0727(99)
H17 H 0.4617(63) 0.2903(60) -0.0687(89)
H18 H 0.5744(42) 0.3799(35) -0.0507(90)
H19 H 0.3849(48) 0.4601(42) 0.5542(56)
H20 H 0.4880(91) 0.4665(65) 0.5989(73)
H21 H 0.3828(52) 0.3388(46) 0.6033(90)
H22 H 0.7677(46) 0.1952(47) 0.8232(90)
H5? H 0.2523(80) 0.2129(83) 0.0807(67)
loop_
_geom_bond_atom_site_label_1
_geom_bond_atom_site_label_2
_geom_bond_site_symmetry_1
_geom_bond_site_symmetry_2
O1 C1 1_555 1_555
O2 C6 1_555 1_555
O3 C18 1_555 1_555
O4 C14 1_555 1_555
O5 C17 1_555 1_555
O6 C14 1_555 1_555
C1 C2 1_555 1_555
C2 C3 1_555 1_555
C3 C4 1_555 1_555
C4 C5 1_555 1_555
C5 C6 1_555 1_555
C6 C1 1_555 1_555
C7 O2 1_555 1_555
C8 C4 1_555 1_555
C9 C8 1_555 1_555
C10 C9 1_555 1_555
C11 C10 1_555 1_555
C12 C11 1_555 1_555
C13 C3 1_555 1_555
C14 C9 1_555 1_555
C15 O6 1_555 1_555
C16 C12 1_555 1_555
C17 C16 1_555 1_555
C18 C17 1_555 1_555
C19 C13 1_555 1_555
C20 O5 1_555 1_555
C21 O3 1_555 1_555
H1 C2 1_555 1_555
H2 C5 1_555 1_555
H3 C7 1_555 1_555
H4 C7 1_555 1_555
H6 C8 1_555 1_555
H7 C8 1_555 1_555
H8 C9 1_555 1_555
H9 C10 1_555 1_555
H10 C11 1_555 1_555
H11 C11 1_555 1_555
H12 C15 1_555 1_555
H13 C15 1_555 1_555
H14 C16 1_555 1_555
H15 C19 1_555 1_555
H16 C20 1_555 1_555
H17 C20 1_555 1_555
H18 C20 1_555 1_555
H19 C21 1_555 1_555
H20 C21 1_555 1_555
H21 C21 1_555 1_555
H22 O1 1_555 1_555
C10 C15 1_555 1_555
C12 C13 1_555 1_555
C18 C19 1_555 1_555

#END
