
#######################################################################
#
#                 Cambridge Crystallographic Data Centre
#                                CCDC 
#
#######################################################################
#
# If this CIF has been generated from an entry in the Cambridge 
# Structural Database, then it will include bibliographic, chemical, 
# crystal, experimental, refinement or atomic coordinate data resulting 
# from the CCDC's data processing and validation procedures.
#
#######################################################################

data_SATVIV
_chemical_formula_moiety         'C15 H17 N1 O5'
_chemical_name_systematic        
'ethyl 2-(acetylamino)-3-(acetyloxy)-3-phenylprop-2-enoate'
_symmetry_cell_setting           orthorhombic
_symmetry_space_group_name_H-M   'P b c a'
_symmetry_Int_Tables_number      61
_space_group_name_Hall           '-P 2ac 2ab'
loop_
_symmetry_equiv_pos_site_id
_symmetry_equiv_pos_as_xyz
1 x,y,z
2 1/2-x,-y,1/2+z
3 -x,1/2+y,1/2-z
4 1/2+x,1/2-y,-z
5 -x,-y,-z
6 1/2+x,y,1/2-z
7 x,1/2-y,1/2+z
8 1/2-x,1/2+y,z
_cell_length_a                   9.8219(11)
_cell_length_b                   16.4158(18)
_cell_length_c                   18.583(2)
_cell_angle_alpha                90
_cell_angle_beta                 90
_cell_angle_gamma                90
_cell_volume                     2996.22
_exptl_crystal_colour            colorless
_exptl_crystal_description       block
_cell_formula_units_Z            8
loop_
_atom_site_label
_atom_site_type_symbol
_atom_site_fract_x
_atom_site_fract_y
_atom_site_fract_z
C1 C 0.75398(16) 0.29469(9) 0.62127(9)
H1 H 0.7988 0.2672 0.5845
C2 C 0.81577(17) 0.36074(10) 0.65404(10)
H2 H 0.9020 0.3773 0.6394
C3 C 0.7503(2) 0.40184(10) 0.70810(10)
H3 H 0.7927 0.4455 0.7308
C4 C 0.6217(2) 0.37835(10) 0.72874(10)
H4 H 0.5766 0.4070 0.7647
C5 C 0.55909(18) 0.31245(10) 0.69644(9)
H5 H 0.4720 0.2970 0.7107
C6 C 0.62576(15) 0.26923(9) 0.64284(8)
C7 C 0.56265(14) 0.19770(8) 0.60858(8)
C8 C 0.49091(14) 0.13926(8) 0.64154(8)
C9 C 0.37204(15) 0.11843(8) 0.75361(8)
C10 C 0.38950(19) 0.09972(11) 0.83185(9)
H6 H 0.3028 0.1029 0.8556
H7 H 0.4509 0.1384 0.8530
H8 H 0.4260 0.0458 0.8372
C11 C 0.43042(14) 0.06693(8) 0.60448(8)
C12 C 0.2964(2) 0.01675(11) 0.50960(10)
H9 H 0.3565 -0.0301 0.5104
H10 H 0.2785 0.0306 0.4597
C13 C 0.1659(2) -0.00413(15) 0.54616(15)
H11 H 0.1841 -0.0205 0.5948
H12 H 0.1223 -0.0480 0.5209
H13 H 0.1072 0.0426 0.5463
C14 C 0.57370(16) 0.24097(10) 0.48637(9)
C15 C 0.6544(2) 0.22545(13) 0.42021(9)
H14 H 0.6264 0.2625 0.3831
H15 H 0.6397 0.1705 0.4044
H16 H 0.7494 0.2333 0.4303
N1 N 0.48788(12) 0.13416(7) 0.71736(6)
H17 H 0.5621 0.1413 0.7411
O1 O 0.26159(11) 0.11874(8) 0.72313(6)
O2 O 0.44249(12) -0.00086(6) 0.62800(6)
O3 O 0.36286(12) 0.08541(6) 0.54522(6)
O4 O 0.60219(11) 0.18301(6) 0.53743(5)
O5 O 0.49440(14) 0.29426(8) 0.49696(7)
loop_
_geom_bond_atom_site_label_1
_geom_bond_atom_site_label_2
_geom_bond_site_symmetry_1
_geom_bond_site_symmetry_2
C1 H1 1_555 1_555
C2 C1 1_555 1_555
H2 C2 1_555 1_555
C3 C2 1_555 1_555
H3 C3 1_555 1_555
C4 C3 1_555 1_555
H4 C4 1_555 1_555
C5 C4 1_555 1_555
H5 C5 1_555 1_555
C6 C1 1_555 1_555
C7 C6 1_555 1_555
C8 C7 1_555 1_555
C9 C10 1_555 1_555
C10 H6 1_555 1_555
H7 C10 1_555 1_555
H8 C10 1_555 1_555
C11 C8 1_555 1_555
C12 H9 1_555 1_555
H10 C12 1_555 1_555
C13 C12 1_555 1_555
H11 C13 1_555 1_555
H12 C13 1_555 1_555
H13 C13 1_555 1_555
C14 C15 1_555 1_555
C15 H14 1_555 1_555
H15 C15 1_555 1_555
H16 C15 1_555 1_555
N1 C8 1_555 1_555
H17 N1 1_555 1_555
O1 C9 1_555 1_555
O2 C11 1_555 1_555
O3 C11 1_555 1_555
O4 C7 1_555 1_555
O5 C14 1_555 1_555
C5 C6 1_555 1_555
C9 N1 1_555 1_555
C12 O3 1_555 1_555
C14 O4 1_555 1_555

#END
