
#######################################################################
#
#                 Cambridge Crystallographic Data Centre
#                                CCDC 
#
#######################################################################
#
# If this CIF has been generated from an entry in the Cambridge 
# Structural Database, then it will include bibliographic, chemical, 
# crystal, experimental, refinement or atomic coordinate data resulting 
# from the CCDC's data processing and validation procedures.
#
#######################################################################

data_SATYEU
_chemical_formula_moiety         'C17 H17 N3 O1'
_chemical_name_systematic        
2-(5-(4-(dimethylamino)phenyl)-1H-pyrazol-3-yl)phenol
_symmetry_cell_setting           monoclinic
_symmetry_space_group_name_H-M   'P 21'
_symmetry_Int_Tables_number      4
_space_group_name_Hall           'P 2yb'
loop_
_symmetry_equiv_pos_site_id
_symmetry_equiv_pos_as_xyz
1 x,y,z
2 -x,1/2+y,-z
_cell_length_a                   5.9445(11)
_cell_length_b                   7.7091(14)
_cell_length_c                   15.328(3)
_cell_angle_alpha                90
_cell_angle_beta                 93.942(3)
_cell_angle_gamma                90
_cell_volume                     700.77
_exptl_crystal_colour            colorless
_exptl_crystal_description       slab-like
_cell_formula_units_Z            2
loop_
_atom_site_label
_atom_site_type_symbol
_atom_site_fract_x
_atom_site_fract_y
_atom_site_fract_z
O1 O 0.0251(5) 1.0626(4) 0.16165(18)
H1 H 0.0803 1.1253 0.2152
N1 N 0.3060(6) 1.0907(5) 0.3000(2)
N2 N 0.3963(6) 1.1100(5) 0.3830(2)
H2 H 0.3298 1.1820 0.4267
N3 N 1.0763(5) 0.9957(5) 0.7326(2)
C1 C 0.1836(7) 0.9619(6) 0.1267(2)
C2 C 0.1280(8) 0.8923(6) 0.0446(3)
H3 H -0.014(9) 0.908(7) 0.016(3)
C3 C 0.2794(8) 0.7868(6) 0.0055(3)
H4 H 0.246(6) 0.747(6) -0.048(2)
C4 C 0.4884(9) 0.7511(7) 0.0475(3)
H5 H 0.599(8) 0.674(7) 0.021(3)
C5 C 0.5411(8) 0.8212(6) 0.1294(3)
H6 H 0.683(7) 0.797(5) 0.154(2)
C6 C 0.3918(7) 0.9251(6) 0.1710(2)
C7 C 0.4459(6) 0.9833(5) 0.2618(2)
C8 C 0.6252(7) 0.9333(6) 0.3208(2)
H7 H 0.744(7) 0.856(7) 0.310(3)
C9 C 0.5904(6) 1.0168(5) 0.3991(2)
C10 C 0.7163(6) 1.0123(6) 0.4846(2)
C11 C 0.9196(7) 0.9265(6) 0.4966(3)
H8 H 0.992(6) 0.878(5) 0.449(2)
C12 C 1.0401(7) 0.9194(6) 0.5777(3)
H9 H 1.182(7) 0.856(6) 0.589(2)
C13 C 0.9587(6) 1.0002(5) 0.6514(2)
C14 C 0.7536(7) 1.0890(6) 0.6386(3)
H10 H 0.697(6) 1.153(5) 0.690(2)
C15 C 0.6364(7) 1.0951(6) 0.5580(3)
H11 H 0.496(7) 1.160(6) 0.553(3)
C16 C 0.9543(7) 1.0250(7) 0.8109(2)
H12 H 0.8895 1.1391 0.8087
H13 H 1.0567 1.0148 0.8619
H14 H 0.8367 0.9402 0.8135
C17 C 1.2772(6) 0.8876(6) 0.7451(3)
H15 H 1.2353 0.7677 0.7392
H16 H 1.3479 0.9073 0.8025
H17 H 1.3805 0.9165 0.7019
loop_
_geom_bond_atom_site_label_1
_geom_bond_atom_site_label_2
_geom_bond_site_symmetry_1
_geom_bond_site_symmetry_2
O1 H1 1_555 1_555
N1 N2 1_555 1_555
N2 H2 1_555 1_555
N3 C13 1_555 1_555
C1 O1 1_555 1_555
C2 C1 1_555 1_555
H3 C2 1_555 1_555
C3 C2 1_555 1_555
H4 C3 1_555 1_555
C4 C3 1_555 1_555
H5 C4 1_555 1_555
C5 C4 1_555 1_555
H6 C5 1_555 1_555
C6 C1 1_555 1_555
C7 N1 1_555 1_555
C8 C7 1_555 1_555
H7 C8 1_555 1_555
C9 N2 1_555 1_555
C10 C9 1_555 1_555
C11 C10 1_555 1_555
H8 C11 1_555 1_555
C12 C11 1_555 1_555
H9 C12 1_555 1_555
C13 C12 1_555 1_555
C14 C13 1_555 1_555
H10 C14 1_555 1_555
C15 C10 1_555 1_555
H11 C15 1_555 1_555
C16 N3 1_555 1_555
H12 C16 1_555 1_555
H13 C16 1_555 1_555
H14 C16 1_555 1_555
C17 N3 1_555 1_555
H15 C17 1_555 1_555
H16 C17 1_555 1_555
H17 C17 1_555 1_555
C5 C6 1_555 1_555
C6 C7 1_555 1_555
C8 C9 1_555 1_555
C14 C15 1_555 1_555

#END
