
#######################################################################
#
#                 Cambridge Crystallographic Data Centre
#                                CCDC 
#
#######################################################################
#
# If this CIF has been generated from an entry in the Cambridge 
# Structural Database, then it will include bibliographic, chemical, 
# crystal, experimental, refinement or atomic coordinate data resulting 
# from the CCDC's data processing and validation procedures.
#
#######################################################################

data_SATZAR
_chemical_formula_moiety         'C17 H17 N3 O1,C2 H4 O2'
_chemical_name_systematic        
'2-(3-(4-(dimethylamino)phenyl)-1H-pyrazol-5-yl)phenol acetic acid solvate'
_symmetry_cell_setting           orthorhombic
_symmetry_space_group_name_H-M   'P 21 21 21'
_symmetry_Int_Tables_number      19
_space_group_name_Hall           'P 2ac 2ab'
loop_
_symmetry_equiv_pos_site_id
_symmetry_equiv_pos_as_xyz
1 x,y,z
2 1/2-x,-y,1/2+z
3 -x,1/2+y,1/2-z
4 1/2+x,1/2-y,-z
_cell_length_a                   6.4775(13)
_cell_length_b                   7.7267(15)
_cell_length_c                   35.195(7)
_cell_angle_alpha                90
_cell_angle_beta                 90
_cell_angle_gamma                90
_cell_volume                     1761.5
_exptl_crystal_colour            colorless
_exptl_crystal_description       needle-like
_cell_formula_units_Z            4
loop_
_atom_site_label
_atom_site_type_symbol
_atom_site_fract_x
_atom_site_fract_y
_atom_site_fract_z
O1 O -0.7583(7) 1.4139(6) 0.47378(10)
H1 H -0.7788 1.4015 0.4966
N1 N -0.5998(8) 1.3530(6) 0.40406(12)
H2 H -0.5797 1.3267 0.4307
N2 N -0.4644(7) 1.3229(6) 0.37586(11)
N3 N -0.1197(8) 1.4133(7) 0.20298(13)
C1 C -0.9218(8) 1.4947(7) 0.45786(14)
C2 C -1.0912(9) 1.5521(8) 0.47963(16)
H3 H -1.0910 1.5361 0.5058
C3 C -1.2555(10) 1.6309(9) 0.4626(2)
H4 H -1.3671 1.6673 0.4771
C4 C -1.2566(9) 1.6567(9) 0.4235(2)
H5 H -1.3686 1.7108 0.4120
C5 C -1.0923(9) 1.6024(8) 0.40184(16)
H6 H -1.0945 1.6209 0.3757
C6 C -0.9214(8) 1.5198(7) 0.41830(14)
C7 C -0.7529(8) 1.4659(6) 0.39380(14)
C8 C -0.7091(8) 1.5092(7) 0.35612(14)
H7 H -0.7852 1.5834 0.3407
C9 C -0.5290(7) 1.4199(6) 0.34574(13)
C10 C -0.4177(8) 1.4198(6) 0.30967(13)
C11 C -0.5032(8) 1.5020(7) 0.27790(15)
H8 H -0.6305 1.5567 0.2802
C12 C -0.4049(9) 1.5040(8) 0.24367(14)
H9 H -0.4645 1.5631 0.2234
C13 C -0.2143(8) 1.4182(6) 0.23827(13)
C14 C -0.1288(9) 1.3373(8) 0.26966(14)
H10 H -0.0031 1.2803 0.2672
C15 C -0.2269(10) 1.3393(7) 0.30483(15)
H11 H -0.1640 1.2860 0.3255
C16 C -0.2159(11) 1.4962(11) 0.17105(16)
H12 H -0.3403 1.4356 0.1645
H13 H -0.1231 1.4947 0.1498
H14 H -0.2485 1.6138 0.1775
C17 C 0.0846(11) 1.3511(9) 0.19916(16)
H15 H 0.1731 1.4112 0.2166
H16 H 0.1318 1.3706 0.1737
H17 H 0.0877 1.2294 0.2046
O2 O -0.1574(7) 1.1282(6) 0.39404(11)
H18 H -0.2683 1.1706 0.3877
O3 O -0.3016(7) 1.1390(6) 0.45083(11)
C18 C -0.1565(9) 1.1024(7) 0.43011(15)
C19 C 0.0396(10) 1.0218(9) 0.44469(19)
H19 H 0.1329 1.0031 0.4239
H20 H 0.0085 0.9130 0.4566
H21 H 0.1026 1.0977 0.4629
loop_
_geom_bond_atom_site_label_1
_geom_bond_atom_site_label_2
_geom_bond_site_symmetry_1
_geom_bond_site_symmetry_2
O1 H1 1_555 1_555
N1 H2 1_555 1_555
N2 N1 1_555 1_555
N3 C13 1_555 1_555
C1 O1 1_555 1_555
C2 C1 1_555 1_555
H3 C2 1_555 1_555
C3 C2 1_555 1_555
H4 C3 1_555 1_555
C4 C3 1_555 1_555
H5 C4 1_555 1_555
C5 C4 1_555 1_555
H6 C5 1_555 1_555
C6 C1 1_555 1_555
C7 N1 1_555 1_555
C8 C7 1_555 1_555
H7 C8 1_555 1_555
C9 N2 1_555 1_555
C10 C9 1_555 1_555
C11 C10 1_555 1_555
H8 C11 1_555 1_555
C12 C11 1_555 1_555
H9 C12 1_555 1_555
C13 C12 1_555 1_555
C14 C13 1_555 1_555
H10 C14 1_555 1_555
C15 C10 1_555 1_555
H11 C15 1_555 1_555
C16 N3 1_555 1_555
H12 C16 1_555 1_555
H13 C16 1_555 1_555
H14 C16 1_555 1_555
C17 N3 1_555 1_555
H15 C17 1_555 1_555
H16 C17 1_555 1_555
H17 C17 1_555 1_555
O2 H18 1_555 1_555
O3 C18 1_555 1_555
C18 O2 1_555 1_555
C19 C18 1_555 1_555
H19 C19 1_555 1_555
H20 C19 1_555 1_555
H21 C19 1_555 1_555
C5 C6 1_555 1_555
C6 C7 1_555 1_555
C8 C9 1_555 1_555
C14 C15 1_555 1_555

#END
