
#######################################################################
#
#                 Cambridge Crystallographic Data Centre
#                                CCDC 
#
#######################################################################
#
# If this CIF has been generated from an entry in the Cambridge 
# Structural Database, then it will include bibliographic, chemical, 
# crystal, experimental, refinement or atomic coordinate data resulting 
# from the CCDC's data processing and validation procedures.
#
#######################################################################

data_SATZOC
_chemical_name_common            6,6,9-(4)Peristylan-2-one
_chemical_formula_moiety         'C12 H11 N3 O7'
_chemical_name_systematic        
2,2,9-Trinitropentacyclo(5.4.1.0^3,10^.0^5,9^.0^8,11^)dodecan-6-one
_symmetry_cell_setting           monoclinic
_symmetry_space_group_name_H-M   'P 21'
_symmetry_Int_Tables_number      4
_space_group_name_Hall           'P 2yb'
loop_
_symmetry_equiv_pos_site_id
_symmetry_equiv_pos_as_xyz
1 x,y,z
2 -x,1/2+y,-z
_cell_length_a                   7.225(1)
_cell_length_b                   11.735(2)
_cell_length_c                   7.770(1)
_cell_angle_alpha                90
_cell_angle_beta                 112.07(1)
_cell_angle_gamma                90
_cell_volume                     610.51
_exptl_crystal_colour            colorless
_chemical_melting_point          210deg.C(dec.)
_cell_formula_units_Z            2
loop_
_atom_site_label
_atom_site_type_symbol
_atom_site_fract_x
_atom_site_fract_y
_atom_site_fract_z
O1 O -0.5965(6) -0.8211 -1.6132(6)
O2 O -0.1319(6) -0.8782(5) -0.9731(5)
O3 O 0.0233(6) -0.7574(5) -1.0798(6)
O4 O 0.0069(7) -0.6695(7) -0.7395(6)
O5 O -0.2545(8) -0.5751(6) -0.7842(6)
O6 O -0.7762(7) -0.4425(5) -1.6417(6)
O7 O -0.8302(8) -0.4067(5) -1.3953(7)
N1 N -0.1095(6) -0.7839(6) -1.0294(6)
N2 N -0.1566(7) -0.6413(6) -0.8322(6)
N3 N -0.7562(7) -0.4633(6) -1.4833(6)
C1 C -0.2577(7) -0.6918(6) -1.0301(6)
C2 C -0.2826(7) -0.5938(6) -1.1690(7)
C3 C -0.3028(7) -0.6271(7) -1.3686(7)
C4 C -0.5301(8) -0.6298(6) -1.4927(7)
C5 C -0.6116(7) -0.7499(6) -1.5091(7)
C6 C -0.7103(8) -0.7672(7) -1.3693(7)
C7 C -0.5658(8) -0.8266(6) -1.1916(8)
C8 C -0.4661(7) -0.7333(6) -1.0458(7)
C9 C -0.5969(7) -0.6257(6) -1.1106(7)
C10 C -0.4844(7) -0.5396(6) -1.1861(6)
C11 C -0.6316(7) -0.5640(6) -1.3874(7)
C12 C -0.7496(8) -0.6487(6) -1.3112(7)
H1 H -0.166 -0.548 -1.124
H2 H -0.236 -0.573 -1.415
H3 H -0.246 -0.700 -1.367
H4 H -0.551 -0.600 -1.612
H5 H -0.827 -0.812 -1.422
H6 H -0.467 -0.868 -1.219
H7 H -0.638 -0.878 -1.145
H8 H -0.453 -0.766 -0.931
H9 H -0.639 -0.605 -1.013
H10 H -0.458 -0.465 -1.136
H11 H -0.889 -0.643 -1.341
loop_
_geom_bond_atom_site_label_1
_geom_bond_atom_site_label_2
_geom_bond_site_symmetry_1
_geom_bond_site_symmetry_2
O1 C5 1_555 1_555
O2 N1 1_555 1_555
O3 N1 1_555 1_555
O4 N2 1_555 1_555
O5 N2 1_555 1_555
O6 N3 1_555 1_555
O7 N3 1_555 1_555
N1 C1 1_555 1_555
N2 C1 1_555 1_555
N3 C11 1_555 1_555
C1 C2 1_555 1_555
C2 C3 1_555 1_555
C3 C4 1_555 1_555
C4 C5 1_555 1_555
C5 C6 1_555 1_555
C6 C7 1_555 1_555
C7 C8 1_555 1_555
C8 C1 1_555 1_555
C9 C8 1_555 1_555
C10 C2 1_555 1_555
C11 C4 1_555 1_555
C12 C6 1_555 1_555
H1 C2 1_555 1_555
H2 C3 1_555 1_555
H3 C3 1_555 1_555
H4 C4 1_555 1_555
H5 C6 1_555 1_555
H6 C7 1_555 1_555
H7 C7 1_555 1_555
H8 C8 1_555 1_555
H9 C9 1_555 1_555
H10 C10 1_555 1_555
H11 C12 1_555 1_555
C9 C10 1_555 1_555
C9 C12 1_555 1_555
C10 C11 1_555 1_555
C11 C12 1_555 1_555

#END
