
#######################################################################
#
#                 Cambridge Crystallographic Data Centre
#                                CCDC 
#
#######################################################################
#
# If this CIF has been generated from an entry in the Cambridge 
# Structural Database, then it will include bibliographic, chemical, 
# crystal, experimental, refinement or atomic coordinate data resulting 
# from the CCDC's data processing and validation procedures.
#
#######################################################################

data_SAVBOG
_chemical_compound_source        'Ascidian Lissoclinum patella'
_chemical_formula_moiety         'C38 H48 N8 O6 S2,2(H2 O1)'
_chemical_name_systematic        'Patellamide D dihydrate'
_symmetry_cell_setting           orthorhombic
_symmetry_space_group_name_H-M   'P 21 21 21'
_symmetry_Int_Tables_number      19
_space_group_name_Hall           'P 2ac 2ab'
loop_
_symmetry_equiv_pos_site_id
_symmetry_equiv_pos_as_xyz
1 x,y,z
2 1/2+x,1/2-y,-z
3 -x,1/2+y,1/2-z
4 1/2-x,-y,1/2+z
_cell_length_a                   13.976(2)
_cell_length_b                   24.360(4)
_cell_length_c                   12.289(3)
_cell_angle_alpha                90
_cell_angle_beta                 90
_cell_angle_gamma                90
_cell_volume                     4183.86
_chemical_melting_point          144-145deg.C
_cell_formula_units_Z            4
loop_
_atom_site_label
_atom_site_type_symbol
_atom_site_fract_x
_atom_site_fract_y
_atom_site_fract_z
S1 S 0.95266(6) 0.21214(3) -0.13670(6)
S2 S 0.69955(6) 0.15866(3) 0.01631(6)
N1 N 0.9080(2) 0.37619(9) -0.1630(2)
N2 N 0.9409(2) 0.29545(9) -0.0105(2)
N3 N 0.9491(2) 0.30696(8) 0.2115(2)
N4 N 0.8307(2) 0.27647(8) 0.4430(2)
N5 N 0.7453(2) 0.19846(8) 0.3316(2)
N6 N 0.7135(2) 0.24470(8) 0.1349(2)
N7 N 0.7079(2) 0.35547(8) 0.0875(2)
N8 N 0.8285(2) 0.45778(8) -0.0485(2)
O1 O 0.9489(2) 0.21451(8) 0.2344(1)
O2 O 0.7858(1) 0.34673(7) 0.3345(1)
O3 O 0.5957(1) 0.22541(8) 0.3754(2)
O4 O 0.7034(2) 0.33750(8) -0.0932(1)
O5 O 0.8793(1) 0.41796(7) 0.1083(1)
O6 O 1.0564(1) 0.41436(8) -0.1581(2)
C1 C 0.9423(2) 0.2824(1) -0.1138(2)
C2 C 0.9351(2) 0.3232(1) -0.2064(2)
C3 C 0.8636(2) 0.3041(1) -0.2921(2)
C4 C 0.9480(2) 0.2551(1) 0.1740(2)
C5 C 0.9475(2) 0.2497(1) 0.0542(2)
C6 C 0.9547(2) 0.2011(1) 0.0006(2)
C7 C 0.8546(2) 0.3132(1) 0.3746(2)
C8 C 0.9533(2) 0.3191(1) 0.3277(2)
C9 C 0.9982(2) 0.3758(1) 0.3476(2)
C10 C 1.0998(2) 0.3793(1) 0.3011(2)
C11 C 1.1711(2) 0.3379(1) 0.3471(3)
C12 C 0.9962(2) 0.3892(1) 0.4697(2)
C13 C 0.6830(2) 0.2310(1) 0.3825(2)
C14 C 0.7248(2) 0.2783(1) 0.4486(2)
C15 C 0.6989(2) 0.3340(1) 0.3987(2)
C16 C 0.6815(2) 0.3792(1) 0.4793(2)
C17 C 0.7107(2) 0.1913(1) 0.1410(2)
C18 C 0.7161(2) 0.1601(1) 0.2479(2)
C19 C 0.7850(2) 0.1109(1) 0.2441(2)
C20 C 0.7902(2) 0.0824(1) 0.3530(2)
C21 C 0.7297(2) 0.0389(1) 0.3773(3)
C22 C 0.7336(3) 0.0138(1) 0.4788(3)
C23 C 0.7983(3) 0.0318(1) 0.5573(3)
C24 C 0.8578(2) 0.0756(1) 0.5329(3)
C25 C 0.8545(2) 0.1003(1) 0.4315(3)
C26 C 0.7064(2) 0.3210(1) 0.0018(2)
C27 C 0.7062(2) 0.2618(1) 0.0278(2)
C28 C 0.6989(2) 0.2212(1) -0.0471(2)
C29 C 0.8070(2) 0.4326(1) 0.0392(2)
C30 C 0.7089(2) 0.4151(1) 0.0723(2)
C31 C 0.6743(2) 0.4449(1) 0.1748(2)
C32 C 0.5714(2) 0.4285(1) 0.2041(2)
C33 C 0.4942(2) 0.4457(1) 0.1235(4)
C34 C 0.6838(2) 0.5072(1) 0.1591(3)
C35 C 0.9713(2) 0.4142(1) -0.1315(2)
C36 C 0.9345(2) 0.4577(1) -0.0535(2)
C37 C 0.9662(2) 0.4438(1) 0.0632(2)
C38 C 0.9915(2) 0.4929(1) 0.1327(3)
H1 H 0.853(2) 0.379(1) -0.138(2)
H2 H 0.940(2) 0.332(1) 0.172(2)
H3 H 0.803(2) 0.208(1) 0.336(2)
H4 H 0.720(2) 0.341(1) 0.152(2)
H5 H 0.998(2) 0.327(1) -0.234(2)
H6 H 0.869(2) 0.326(1) -0.351(3)
H7 H 0.795(2) 0.303(1) -0.266(3)
H8 H 0.881(2) 0.267(1) -0.322(2)
H9 H 0.961(2) 0.163(1) 0.030(2)
H10 H 0.991(2) 0.292(1) 0.360(2)
H11 H 0.957(2) 0.403(1) 0.311(2)
H12 H 1.098(2) 0.374(1) 0.219(2)
H13 H 1.127(2) 0.419(1) 0.309(2)
H14 H 1.151(2) 0.298(1) 0.326(2)
H15 H 1.179(2) 0.345(1) 0.431(3)
H16 H 1.237(2) 0.342(1) 0.318(3)
H17 H 0.929(2) 0.393(1) 0.489(3)
H18 H 1.028(2) 0.362(1) 0.508(2)
H19 H 1.033(2) 0.424(1) 0.486(2)
H20 H 0.701(2) 0.275(1) 0.527(2)
H21 H 0.647(2) 0.334(1) 0.348(2)
H22 H 0.616(2) 0.373(1) 0.522(2)
H23 H 0.676(2) 0.415(1) 0.440(3)
O7 O 0.4707(2) 0.3022(1) 0.4590(3)
O8 O 1.0549(4) 0.1099(2) -0.7942(5)
O9? O 1.1294(5) 0.1953(4) -0.6943(6)
O10? O 0.130(1) 0.0080(7) 0.136(1)
loop_
_geom_bond_atom_site_label_1
_geom_bond_atom_site_label_2
_geom_bond_site_symmetry_1
_geom_bond_site_symmetry_2
S1 C1 1_555 1_555
S2 C17 1_555 1_555
N1 C2 1_555 1_555
N2 C1 1_555 1_555
N3 C4 1_555 1_555
N4 C7 1_555 1_555
N5 C13 1_555 1_555
N6 C17 1_555 1_555
N7 C26 1_555 1_555
N8 C29 1_555 1_555
O1 C4 1_555 1_555
O2 C7 1_555 1_555
O3 C13 1_555 1_555
O4 C26 1_555 1_555
O5 C29 1_555 1_555
O6 C35 1_555 1_555
C1 C2 1_555 1_555
C2 C3 1_555 1_555
C3 H6 1_555 1_555
C4 C5 1_555 1_555
C5 N2 1_555 1_555
C6 S1 1_555 1_555
C7 C8 1_555 1_555
C8 N3 1_555 1_555
C9 C8 1_555 1_555
C10 C9 1_555 1_555
C11 C10 1_555 1_555
C12 C9 1_555 1_555
C13 C14 1_555 1_555
C14 N4 1_555 1_555
C15 O2 1_555 1_555
C16 C15 1_555 1_555
C17 C18 1_555 1_555
C18 N5 1_555 1_555
C19 C18 1_555 1_555
C20 C19 1_555 1_555
C21 C20 1_555 1_555
C22 C21 1_555 1_555
C23 C22 1_555 1_555
C24 C23 1_555 1_555
C25 C20 1_555 1_555
C26 C27 1_555 1_555
C27 N6 1_555 1_555
C28 S2 1_555 1_555
C29 C30 1_555 1_555
C30 N7 1_555 1_555
C31 C30 1_555 1_555
C32 C31 1_555 1_555
C33 C32 1_555 1_555
C34 C31 1_555 1_555
C35 N1 1_555 1_555
C36 N8 1_555 1_555
C37 O5 1_555 1_555
C38 C37 1_555 1_555
H1 N1 1_555 1_555
H2 N3 1_555 1_555
H3 N5 1_555 1_555
H4 N7 1_555 1_555
H5 C2 1_555 1_555
H7 C3 1_555 1_555
H8 C3 1_555 1_555
H9 C6 1_555 1_555
H10 C8 1_555 1_555
H11 C9 1_555 1_555
H12 C10 1_555 1_555
H13 C10 1_555 1_555
H14 C11 1_555 1_555
H15 C11 1_555 1_555
H16 C11 1_555 1_555
H17 C12 1_555 1_555
H18 C12 1_555 1_555
H19 C12 1_555 1_555
H20 C14 1_555 1_555
H21 C15 1_555 1_555
H22 C16 1_555 1_555
H23 C16 1_555 1_555
C5 C6 1_555 1_555
C14 C15 1_555 1_555
C24 C25 1_555 1_555
C27 C28 1_555 1_555
C35 C36 1_555 1_555
C36 C37 1_555 1_555

#END
