
#######################################################################
#
#                 Cambridge Crystallographic Data Centre
#                                CCDC 
#
#######################################################################
#
# If this CIF has been generated from an entry in the Cambridge 
# Structural Database, then it will include bibliographic, chemical, 
# crystal, experimental, refinement or atomic coordinate data resulting 
# from the CCDC's data processing and validation procedures.
#
#######################################################################

data_SAVDEB
_chemical_compound_source        
'Isolated from the submerged fermentation broth of Paecilomyces gunnii, an entomogenous fungus identified as the anamorph of Cordyceps gunnii.'
_chemical_name_common            'gunnilactam B'
_chemical_formula_moiety         'C20 H28 N4 O5'
_chemical_name_systematic        
2,8-dihydroxy-3,11,17-trimethyl-1,2,3,4,9,10,11,12,14,16-decahydro-2,14-methanopyrido[4,3-e][1,4,9]triazacyclohexadecine-5,13,15(8H)-trione
_symmetry_cell_setting           orthorhombic
_symmetry_space_group_name_H-M   'P 21 21 21'
_symmetry_Int_Tables_number      19
_space_group_name_Hall           'P 2ac 2ab'
loop_
_symmetry_equiv_pos_site_id
_symmetry_equiv_pos_as_xyz
1 x,y,z
2 1/2+x,1/2-y,-z
3 -x,1/2+y,1/2-z
4 1/2-x,-y,1/2+z
_cell_length_a                   9.4557(13)
_cell_length_b                   12.8247(17)
_cell_length_c                   15.429(2)
_cell_angle_alpha                90
_cell_angle_beta                 90
_cell_angle_gamma                90
_cell_volume                     1871.02
_cell_formula_units_Z            4
loop_
_atom_site_label
_atom_site_type_symbol
_atom_site_fract_x
_atom_site_fract_y
_atom_site_fract_z
N1 N 0.5078(2) 0.97884(15) 0.03289(12)
O1 O 0.6365(2) 1.11833(16) 0.07244(12)
N2 N 0.8851(2) 1.01256(15) 0.00071(12)
N3 N 0.5335(2) 0.83350(16) -0.20086(13)
N4 N 0.8598(2) 1.03421(13) -0.16925(12)
O2 O 0.3800(2) 0.93895(16) -0.14056(14)
O3 O 0.9855(2) 1.05050(18) 0.12919(13)
O4 O 0.9341(2) 1.20261(15) -0.16359(13)
O5 O 0.6947(2) 0.72362(17) 0.18478(13)
C1 C 0.7625(3) 0.8400(2) 0.06727(17)
H1 H 0.7568(3) 0.8583(2) 0.00906(17)
C2 C 0.4370(3) 0.8376(2) 0.12338(18)
H2 H 0.4347(3) 0.8138(2) 0.18305(18)
H3 H 0.3406(3) 0.8351(2) 0.10191(18)
C3 C 0.5864(3) 1.0628(2) 0.01786(17)
C4 C 0.6775(3) 0.7470(2) 0.09430(18)
H4 H 0.7134(3) 0.6871(2) 0.06167(18)
C5 C 0.5030(3) 0.9227(2) -0.15631(18)
C6 C 0.7469(3) 0.9702(2) -0.17318(17)
C7 C 0.6648(3) 0.8137(2) -0.23506(18)
C8 C 0.5961(3) 1.0846(2) -0.07964(17)
H5 H 0.5041(3) 1.1130(2) -0.09704(17)
C9 C 0.9134(3) 0.9943(2) 0.08536(17)
C10 C 0.4825(3) 0.9503(2) 0.12392(17)
H6 H 0.5709(3) 0.9571(2) 0.15662(17)
C11 C 0.8576(3) 1.1296(2) -0.11714(17)
C12 C 0.3719(3) 1.0210(2) 0.1631(2)
H7 H 0.3563(3) 1.0017(2) 0.2225(2)
H8 H 0.4040(3) 1.0920(2) 0.1605(2)
H9 H 0.2851(3) 1.0143(2) 0.1313(2)
C13 C 0.9461(3) 1.1066(2) -0.03614(18)
H10 H 0.9360(3) 1.1642(2) 0.00516(18)
C14 C 0.5232(3) 0.7591(2) 0.07161(18)
H11 H 0.4785(3) 0.6914(2) 0.07773(18)
H12 H 0.5172(3) 0.7783(2) 0.01091(18)
C15 C 0.6655(4) 0.7174(3) -0.2860(2)
H13 H 0.5741(4) 0.6850(3) -0.2827(2)
H14 H 0.6871(4) 0.7333(3) -0.3453(2)
H15 H 0.7357(4) 0.6707(3) -0.2633(2)
C16 C 0.8449(3) 0.8993(2) 0.11621(18)
H16 H 0.8600(3) 0.8792(2) 0.17340(18)
C17 C 0.6205(3) 0.9899(2) -0.13437(16)
C18 C 0.7693(3) 0.8795(2) -0.22355(17)
H17 H 0.8573(3) 0.8667(2) -0.24829(17)
C19 C 1.1001(3) 1.0891(3) -0.0549(2)
H18 H 1.1401(3) 1.1514(3) -0.0792(2)
H19 H 1.1485(3) 1.0721(3) -0.0021(2)
H20 H 1.1101(3) 1.0327(3) -0.0953(2)
C20 C 0.7067(3) 1.1674(2) -0.10272(18)
H21 H 0.6757(3) 1.2026(2) -0.15499(18)
H22 H 0.7081(3) 1.2188(2) -0.05661(18)
H23 H 0.768(4) 0.655(3) 0.194(2)
H24 H 0.888(4) 1.224(3) -0.215(3)
loop_
_geom_bond_atom_site_label_1
_geom_bond_atom_site_label_2
_geom_bond_site_symmetry_1
_geom_bond_site_symmetry_2
N1 C3 1_555 1_555
O1 C3 1_555 1_555
N2 C9 1_555 1_555
N3 C5 1_555 1_555
N4 C6 1_555 1_555
O2 C5 1_555 1_555
O3 C9 1_555 1_555
O4 C11 1_555 1_555
O5 C4 1_555 1_555
C1 H1 1_555 1_555
C2 H2 1_555 1_555
H3 C2 1_555 1_555
C3 C8 1_555 1_555
C4 C1 1_555 1_555
H4 C4 1_555 1_555
C5 C17 1_555 1_555
C6 C17 1_555 1_555
C7 N3 1_555 1_555
C8 H5 1_555 1_555
C9 C16 1_555 1_555
C10 N1 1_555 1_555
H6 C10 1_555 1_555
C11 N4 1_555 1_555
C12 C10 1_555 1_555
H7 C12 1_555 1_555
H8 C12 1_555 1_555
H9 C12 1_555 1_555
C13 N2 1_555 1_555
H10 C13 1_555 1_555
C14 C2 1_555 1_555
H11 C14 1_555 1_555
H12 C14 1_555 1_555
C15 C7 1_555 1_555
H13 C15 1_555 1_555
H14 C15 1_555 1_555
H15 C15 1_555 1_555
C16 C1 1_555 1_555
H16 C16 1_555 1_555
C17 C8 1_555 1_555
C18 C6 1_555 1_555
H17 C18 1_555 1_555
C19 C13 1_555 1_555
H18 C19 1_555 1_555
H19 C19 1_555 1_555
H20 C19 1_555 1_555
C20 C8 1_555 1_555
H21 C20 1_555 1_555
H22 C20 1_555 1_555
H23 O5 1_555 1_555
H24 O4 1_555 1_555
C2 C10 1_555 1_555
C4 C14 1_555 1_555
C7 C18 1_555 1_555
C11 C13 1_555 1_555
C11 C20 1_555 1_555

#END
