
#######################################################################
#
#                 Cambridge Crystallographic Data Centre
#                                CCDC 
#
#######################################################################
#
# If this CIF has been generated from an entry in the Cambridge 
# Structural Database, then it will include bibliographic, chemical, 
# crystal, experimental, refinement or atomic coordinate data resulting 
# from the CCDC's data processing and validation procedures.
#
#######################################################################

data_SAVDIF
_chemical_compound_source        
'obtained from the leaves of the Australian rainforest vine, Celastrus subspicata'
_chemical_name_common            'celastrofuran B'
_chemical_formula_moiety         'C31 H36 O7'
_chemical_name_systematic        
'7-(acetyloxy)-2,2,5a,9-tetramethyloctahydro-2H-3,9a-methano-1-benzoxepine-5,6-diyl dibenzoate'
_chemical_properties_biological  
'Inhibitory activity on leucine transport in the human prostate cancer cell line LNCaP.'
_symmetry_cell_setting           orthorhombic
_symmetry_space_group_name_H-M   'P 21 21 21'
_symmetry_Int_Tables_number      19
_space_group_name_Hall           'P 2ac 2ab'
loop_
_symmetry_equiv_pos_site_id
_symmetry_equiv_pos_as_xyz
1 x,y,z
2 1/2-x,-y,1/2+z
3 -x,1/2+y,1/2-z
4 1/2+x,1/2-y,-z
_cell_length_a                   12.6896(2)
_cell_length_b                   13.48560(10)
_cell_length_c                   16.1709(2)
_cell_angle_alpha                90
_cell_angle_beta                 90
_cell_angle_gamma                90
_cell_volume                     2767.28
_exptl_crystal_colour            colorless
_exptl_crystal_description       rod
_cell_formula_units_Z            4
loop_
_atom_site_label
_atom_site_type_symbol
_atom_site_fract_x
_atom_site_fract_y
_atom_site_fract_z
C1 C 0.54676(12) 0.55038(11) 0.67937(9)
H1 H 0.5052 0.6132 0.6749
C2 C 0.66316(13) 0.57359(11) 0.67090(10)
H2 H 0.7068 0.5126 0.6789
C3 C 0.68474(13) 0.62060(12) 0.58713(10)
H3 H 0.7609 0.6357 0.5824
H4 H 0.6455 0.6839 0.5829
C4 C 0.65204(13) 0.55238(13) 0.51592(10)
H5 H 0.6534 0.5944 0.4650
C5 C 0.53686(13) 0.51841(11) 0.52632(9)
C6 C 0.49869(13) 0.44664(13) 0.45896(10)
H6 H 0.5327 0.4600 0.4050
H7 H 0.5104 0.3765 0.4747
C7 C 0.38185(13) 0.47322(12) 0.45808(10)
H8 H 0.3459 0.4461 0.4079
C8 C 0.33299(13) 0.43176(12) 0.53828(10)
H9 H 0.2580 0.4519 0.5403
H10 H 0.3349 0.3584 0.5355
C9 C 0.38612(12) 0.46453(11) 0.61949(10)
H11 H 0.3707 0.4131 0.6624
C10 C 0.50807(12) 0.47615(11) 0.61344(9)
C11 C 0.38850(14) 0.58686(13) 0.45510(10)
C12 C 0.28854(15) 0.64164(14) 0.47870(11)
H12 H 0.2598 0.6133 0.5298
H13 H 0.2366 0.6350 0.4342
H14 H 0.3046 0.7120 0.4874
C13 C 0.42433(17) 0.62560(15) 0.37040(11)
H15 H 0.4280 0.6982 0.3718
H16 H 0.3738 0.6048 0.3280
H17 H 0.4941 0.5986 0.3573
C14 C 0.73366(14) 0.46997(16) 0.50165(13)
H18 H 0.7987 0.4990 0.4797
H19 H 0.7056 0.4218 0.4620
H20 H 0.7487 0.4366 0.5542
C15 C 0.55415(14) 0.37218(11) 0.62975(11)
H21 H 0.6296 0.3722 0.6168
H22 H 0.5181 0.3235 0.5948
H23 H 0.5441 0.3547 0.6880
C16 C 0.48835(13) 0.56357(11) 0.82069(10)
C17 C 0.48672(13) 0.50913(12) 0.90119(10)
C18 C 0.46861(14) 0.56399(13) 0.97294(11)
H24 H 0.4550 0.6331 0.9695
C19 C 0.47056(15) 0.51717(16) 1.04947(11)
H25 H 0.4598 0.5545 1.0986
C20 C 0.48820(15) 0.41603(16) 1.05414(11)
H26 H 0.4896 0.3843 1.1066
C21 C 0.50388(14) 0.36082(14) 0.98303(11)
H27 H 0.5148 0.2913 0.9867
C22 C 0.50369(13) 0.40735(12) 0.90625(10)
H28 H 0.5151 0.3697 0.8574
C23 C 0.78126(13) 0.64813(12) 0.76885(10)
C24 C 0.78814(15) 0.72972(13) 0.83185(11)
H29 H 0.8502 0.7193 0.8669
H30 H 0.7245 0.7294 0.8662
H31 H 0.7942 0.7937 0.8036
C25 C 0.25312(13) 0.55516(12) 0.69239(10)
C26 C 0.21707(13) 0.65672(12) 0.71535(9)
C27 C 0.27279(13) 0.74129(12) 0.69188(10)
H32 H 0.3352 0.7352 0.6598
C28 C 0.23707(14) 0.83427(13) 0.71544(11)
H33 H 0.2747 0.8919 0.6989
C29 C 0.14667(15) 0.84352(14) 0.76309(11)
H34 H 0.1230 0.9072 0.7799
C30 C 0.09109(15) 0.75933(15) 0.78605(12)
H35 H 0.0293 0.7657 0.8188
C31 C 0.12484(13) 0.66587(13) 0.76169(10)
H36 H 0.0855 0.6086 0.7764
O1 O 0.52939(9) 0.50628(8) 0.76015(6)
O2 O 0.45827(11) 0.64748(9) 0.81157(7)
O3 O 0.68483(9) 0.64651(9) 0.73515(7)
O4 O 0.85140(11) 0.59301(11) 0.75017(9)
O5 O 0.47193(9) 0.60683(8) 0.51511(6)
O6 O 0.34204(9) 0.55804(8) 0.64786(7)
O7 O 0.20739(11) 0.47972(9) 0.71043(8)
loop_
_geom_bond_atom_site_label_1
_geom_bond_atom_site_label_2
_geom_bond_site_symmetry_1
_geom_bond_site_symmetry_2
C1 H1 1_555 1_555
C2 C1 1_555 1_555
H2 C2 1_555 1_555
C3 C2 1_555 1_555
H3 C3 1_555 1_555
H4 C3 1_555 1_555
C4 C3 1_555 1_555
H5 C4 1_555 1_555
C5 C4 1_555 1_555
C6 C5 1_555 1_555
H6 C6 1_555 1_555
H7 C6 1_555 1_555
C7 C6 1_555 1_555
H8 C7 1_555 1_555
C8 C7 1_555 1_555
H9 C8 1_555 1_555
H10 C8 1_555 1_555
C9 C8 1_555 1_555
H11 C9 1_555 1_555
C10 C1 1_555 1_555
C11 C7 1_555 1_555
C12 C11 1_555 1_555
H12 C12 1_555 1_555
H13 C12 1_555 1_555
H14 C12 1_555 1_555
C13 C11 1_555 1_555
H15 C13 1_555 1_555
H16 C13 1_555 1_555
H17 C13 1_555 1_555
C14 C4 1_555 1_555
H18 C14 1_555 1_555
H19 C14 1_555 1_555
H20 C14 1_555 1_555
C15 C10 1_555 1_555
H21 C15 1_555 1_555
H22 C15 1_555 1_555
H23 C15 1_555 1_555
C16 C17 1_555 1_555
C17 C18 1_555 1_555
C18 H24 1_555 1_555
C19 C18 1_555 1_555
H25 C19 1_555 1_555
C20 C19 1_555 1_555
H26 C20 1_555 1_555
C21 C20 1_555 1_555
H27 C21 1_555 1_555
C22 C17 1_555 1_555
H28 C22 1_555 1_555
C23 C24 1_555 1_555
C24 H29 1_555 1_555
H30 C24 1_555 1_555
H31 C24 1_555 1_555
C25 C26 1_555 1_555
C26 C27 1_555 1_555
C27 H32 1_555 1_555
C28 C27 1_555 1_555
H33 C28 1_555 1_555
C29 C28 1_555 1_555
H34 C29 1_555 1_555
C30 C29 1_555 1_555
H35 C30 1_555 1_555
C31 C26 1_555 1_555
H36 C31 1_555 1_555
O1 C1 1_555 1_555
O2 C16 1_555 1_555
O3 C2 1_555 1_555
O4 C23 1_555 1_555
O5 C5 1_555 1_555
O6 C9 1_555 1_555
O7 C25 1_555 1_555
C5 C10 1_555 1_555
C9 C10 1_555 1_555
C11 O5 1_555 1_555
C16 O1 1_555 1_555
C21 C22 1_555 1_555
C23 O3 1_555 1_555
C25 O6 1_555 1_555
C30 C31 1_555 1_555

#END
