
#######################################################################
#
#                 Cambridge Crystallographic Data Centre
#                                CCDC 
#
#######################################################################
#
# If this CIF has been generated from an entry in the Cambridge 
# Structural Database, then it will include bibliographic, chemical, 
# crystal, experimental, refinement or atomic coordinate data resulting 
# from the CCDC's data processing and validation procedures.
#
#######################################################################

data_SAVDAX
_chemical_compound_source        
'Isolated from the submerged fermentation broth of Paecilomyces gunnii, an entomogenous fungus identified as the anamorph of Cordyceps gunnii.'
_chemical_name_common            'gunnilactam A'
_chemical_formula_moiety         'C20 H30 N4 O5'
_chemical_name_systematic        
2,8-dihydroxy-3,11,17-trimethyl-1,2,3,4,9,10,11,12,14,16,17,18-dodecahydro-2,14-methanopyrido[4,3-e][1,4,9]triazacyclohexadecine-5,13,15(8H)-trione
_chemical_properties_biological  
'Selective cytotoxic activity against human prostate cancer C42B cells with an IC50 value of 5.4  M.'
_symmetry_cell_setting           orthorhombic
_symmetry_space_group_name_H-M   'P 21 21 21'
_symmetry_Int_Tables_number      19
_space_group_name_Hall           'P 2ac 2ab'
loop_
_symmetry_equiv_pos_site_id
_symmetry_equiv_pos_as_xyz
1 x,y,z
2 1/2+x,1/2-y,-z
3 -x,1/2+y,1/2-z
4 1/2-x,-y,1/2+z
_cell_length_a                   9.8604(16)
_cell_length_b                   12.364(2)
_cell_length_c                   15.752(3)
_cell_angle_alpha                90
_cell_angle_beta                 90
_cell_angle_gamma                90
_cell_volume                     1920.39
_cell_formula_units_Z            4
loop_
_atom_site_label
_atom_site_type_symbol
_atom_site_fract_x
_atom_site_fract_y
_atom_site_fract_z
N1 N 0.5270(2) 0.52085(19) 0.47762(15)
N2 N 0.8507(2) 0.47084(18) 0.68250(14)
O1 O 0.6492(3) 0.3752(2) 0.44225(17)
N3 N 0.8860(2) 0.48710(19) 0.51437(15)
O2 O 0.9266(2) 0.2979(2) 0.68114(16)
O3 O 0.7078(2) 0.7771(2) 0.32354(15)
O4 O 0.9829(3) 0.4406(2) 0.39087(19)
O5 O 0.3897(3) 0.5528(2) 0.64979(16)
N4 N 0.5257(2) 0.6758(2) 0.69943(15)
C1 C 0.7407(3) 0.5337(2) 0.6828(2)
C2 C 0.4591(3) 0.6656(3) 0.3870(2)
C3 C 0.8493(4) 0.5987(3) 0.3967(2)
C4 C 0.6065(3) 0.4132(3) 0.5896(2)
C5 C 0.6608(4) 0.7178(3) 0.7057(2)
C6 C 0.8544(3) 0.3710(3) 0.6331(2)
C7 C 0.6239(3) 0.5134(3) 0.6420(2)
C8 C 0.6001(3) 0.4331(2) 0.4944(2)
C9 C 0.5052(3) 0.5802(3) 0.6626(2)
C10 C 0.6926(3) 0.7586(3) 0.4118(2)
C11 C 0.9437(3) 0.3926(3) 0.5553(2)
C12 C 0.7113(3) 0.3289(3) 0.6159(2)
C13 C 0.5030(3) 0.5473(3) 0.3887(2)
C14 C 0.7572(3) 0.6321(3) 0.7362(2)
C15 C 0.9138(3) 0.5012(3) 0.4314(2)
C16 C 0.7720(3) 0.6632(3) 0.4426(2)
C17 C 0.5448(4) 0.7487(3) 0.4352(2)
C18 C 0.6554(4) 0.8151(3) 0.7623(3)
C19 C 0.3952(4) 0.4737(3) 0.3529(3)
C20 C 1.0904(4) 0.4133(3) 0.5763(3)
H1 H 0.4951(2) 0.56057(19) 0.51774(15)
H2 H 0.9204(2) 0.48944(18) 0.71186(14)
H3 H 0.8362(2) 0.53217(19) 0.54189(15)
H4 H 0.8789(17) 0.276(3) 0.7200(19)
H5 H 0.755(4) 0.831(2) 0.31601(15)
H6 H 0.4583(2) 0.7120(2) 0.71931(15)
H7 H 0.4553(3) 0.6881(3) 0.3280(2)
H8 H 0.3674(3) 0.6694(3) 0.4091(2)
H9 H 0.8636(4) 0.6157(3) 0.3399(2)
H10 H 0.5180(3) 0.3832(3) 0.6054(2)
H11 H 0.6898(4) 0.7412(3) 0.6491(2)
H12 H 0.7282(3) 0.8224(3) 0.4412(2)
H13 H 0.9377(3) 0.3307(3) 0.5166(2)
H14 H 0.6789(3) 0.2932(3) 0.6669(2)
H15 H 0.7166(3) 0.2747(3) 0.5716(2)
H16 H 0.5872(3) 0.5385(3) 0.3564(2)
H17 H 0.7383(3) 0.6148(3) 0.7951(2)
H18 H 0.8498(3) 0.6582(3) 0.7324(2)
H19 H 0.7662(3) 0.6477(3) 0.5002(2)
H20 H 0.5031(4) 0.8191(3) 0.4276(2)
H21 H 0.5396(4) 0.7315(3) 0.4952(2)
H22 H 0.590(3) 0.8654(13) 0.7407(12)
H23 H 0.630(3) 0.7933(5) 0.8186(6)
H24 H 0.7430(10) 0.8490(16) 0.7639(17)
H25 H 0.4267(15) 0.4003(5) 0.354(2)
H26 H 0.3140(12) 0.480(2) 0.3862(14)
H27 H 0.376(3) 0.4940(18) 0.2953(8)
H28 H 1.1371(9) 0.437(3) 0.5263(6)
H29 H 1.0963(4) 0.4680(19) 0.6195(15)
H30 H 1.1314(10) 0.3478(7) 0.597(2)
loop_
_geom_bond_atom_site_label_1
_geom_bond_atom_site_label_2
_geom_bond_site_symmetry_1
_geom_bond_site_symmetry_2
N1 C8 1_555 1_555
N2 C1 1_555 1_555
O1 C8 1_555 1_555
N3 C11 1_555 1_555
O2 C6 1_555 1_555
O3 C10 1_555 1_555
O4 C15 1_555 1_555
O5 C9 1_555 1_555
N4 C5 1_555 1_555
C1 C7 1_555 1_555
C2 C13 1_555 1_555
C3 C15 1_555 1_555
C4 C7 1_555 1_555
C5 C14 1_555 1_555
C6 N2 1_555 1_555
C7 C9 1_555 1_555
C8 C4 1_555 1_555
C9 N4 1_555 1_555
C10 C16 1_555 1_555
C11 C6 1_555 1_555
C12 C4 1_555 1_555
C13 N1 1_555 1_555
C14 C1 1_555 1_555
C15 N3 1_555 1_555
C16 C3 1_555 1_555
C17 C2 1_555 1_555
C18 C5 1_555 1_555
C19 C13 1_555 1_555
C20 C11 1_555 1_555
H1 N1 1_555 1_555
H2 N2 1_555 1_555
H3 N3 1_555 1_555
H4 O2 1_555 1_555
H5 O3 1_555 1_555
H6 N4 1_555 1_555
H7 C2 1_555 1_555
H8 C2 1_555 1_555
H9 C3 1_555 1_555
H10 C4 1_555 1_555
H11 C5 1_555 1_555
H12 C10 1_555 1_555
H13 C11 1_555 1_555
H14 C12 1_555 1_555
H15 C12 1_555 1_555
H16 C13 1_555 1_555
H17 C14 1_555 1_555
H18 C14 1_555 1_555
H19 C16 1_555 1_555
H20 C17 1_555 1_555
H21 C17 1_555 1_555
H22 C18 1_555 1_555
H23 C18 1_555 1_555
H24 C18 1_555 1_555
H25 C19 1_555 1_555
H26 C19 1_555 1_555
H27 C19 1_555 1_555
H28 C20 1_555 1_555
H29 C20 1_555 1_555
H30 C20 1_555 1_555
C6 C12 1_555 1_555
C10 C17 1_555 1_555

#END
