
#######################################################################
#
#                 Cambridge Crystallographic Data Centre
#                                CCDC 
#
#######################################################################
#
# If this CIF has been generated from an entry in the Cambridge 
# Structural Database, then it will include bibliographic, chemical, 
# crystal, experimental, refinement or atomic coordinate data resulting 
# from the CCDC's data processing and validation procedures.
#
#######################################################################

data_SAVHUV
_chemical_name_common            
'14,15,29,30-Tetrahydro-5H,20H-dibenzo[h,s]bis([1,2,3]triazolo)[5,1-c:5 ,1 -n][1,4,7,12,15,18]hexaazacyclodocosine-6,12,13,21,27,28-(7H,22H)-hexaone dihydrate'
_chemical_formula_moiety         'C26 H22 N10 O6,2(H2 O1)'
_chemical_name_systematic        
"4H,19H-dibenzo[h,s]bis[1,2,3]triazolo[5,1-c:5',1'-n][1,4,7,12,15,18]hexaazacyclodocosine-6,7,13,21,22,28(5H,12H,14H,20H,27H,29H)-hexone dihydrate"
_symmetry_cell_setting           triclinic
_symmetry_space_group_name_H-M   'P -1'
_symmetry_Int_Tables_number      2
_space_group_name_Hall           '-P 1'
loop_
_symmetry_equiv_pos_site_id
_symmetry_equiv_pos_as_xyz
1 x,y,z
2 -x,-y,-z
_cell_length_a                   7.428(4)
_cell_length_b                   10.364(7)
_cell_length_c                   10.401(6)
_cell_angle_alpha                60.81(2)
_cell_angle_beta                 86.52(3)
_cell_angle_gamma                88.14(3)
_cell_volume                     697.732
_exptl_crystal_colour            'light white'
_exptl_crystal_description       plate
_cell_formula_units_Z            1
loop_
_atom_site_label
_atom_site_type_symbol
_atom_site_fract_x
_atom_site_fract_y
_atom_site_fract_z
O1 O 0.4627(5) 0.6434(4) 0.7705(4)
O2 O 0.1315(4) 0.4933(3) 0.6600(3)
O3 O 0.2510(4) 0.7862(3) 0.4275(3)
N1 N 0.8027(5) 0.1741(4) 0.8556(3)
N2 N 0.7760(5) 0.0460(4) 0.9837(4)
N3 N 0.6456(5) 0.0698(4) 1.0620(4)
N4 N 0.4852(5) 0.4716(4) 0.6926(4)
H1 H 0.4283 0.4306 0.6499
N5 N -0.0513(5) 0.7841(4) 0.4784(4)
H2 H -0.1575 0.7837 0.4454
C1 C 0.5892(6) 0.2119(5) 0.9837(5)
H3 H 0.4959 0.2567 1.0152
C2 C 0.6881(6) 0.2811(5) 0.8518(4)
C3 C 0.6733(6) 0.4342(5) 0.7248(5)
H4 H 0.7267 0.5054 0.7493
H5 H 0.7411 0.4407 0.6369
C4 C 0.3947(7) 0.5676(6) 0.7261(5)
C5 C 0.1951(7) 0.5775(5) 0.6973(4)
C6 C 0.0754(6) 0.6811(5) 0.7228(5)
C7 C -0.0480(6) 0.7732(5) 0.6210(5)
C8 C -0.1718(6) 0.8550(5) 0.6551(5)
H6 H -0.2554 0.9166 0.5847
C9 C -0.1749(7) 0.8476(5) 0.7915(5)
H7 H -0.2620 0.9028 0.8154
C10 C -0.0510(7) 0.7598(5) 0.8935(5)
H8 H -0.0530 0.7550 0.9871
C11 C 0.0756(6) 0.6789(5) 0.8589(5)
H9 H 0.1632 0.6217 0.9276
C12 C 0.9553(6) 0.1846(5) 0.7584(4)
H10 H 1.0289 0.0936 0.8079
H11 H 1.0310 0.2689 0.7413
C13 C 0.0955(6) 0.7949(5) 0.3908(5)
O1A O 0.5373(5) 0.3566(4) 0.2295(4)
O2A O 0.8685(4) 0.5067(3) 0.3400(3)
O3A O 0.7490(4) 0.2138(3) 0.5725(3)
N1A N 0.1973(5) 0.8259(4) 0.1444(3)
N2A N 0.2240(5) 0.9540(4) 0.0163(4)
N3A N 0.3544(5) 0.9302(4) -0.0620(4)
N4A N 0.5148(5) 0.5284(4) 0.3074(4)
H1A H 0.5717 0.5694 0.3501
N5A N 1.0513(5) 0.2159(4) 0.5216(4)
H2A H 1.1575 0.2163 0.5546
C1A C 0.4108(6) 0.7881(5) 0.0163(5)
H3A H 0.5041 0.7433 -0.0152
C2A C 0.3119(6) 0.7189(5) 0.1482(4)
C3A C 0.3267(6) 0.5658(5) 0.2752(5)
H4A H 0.2733 0.4946 0.2507
H5A H 0.2589 0.5593 0.3631
C4A C 0.6053(7) 0.4324(6) 0.2739(5)
C5A C 0.8049(7) 0.4225(5) 0.3027(4)
C6A C 0.9246(6) 0.3189(5) 0.2772(5)
C7A C 1.0480(6) 0.2268(5) 0.3790(5)
C8A C 1.1718(6) 0.1450(5) 0.3449(5)
H6A H 1.2554 0.0834 0.4153
C9A C 1.1749(7) 0.1524(5) 0.2085(5)
H7A H 1.2620 0.0972 0.1846
C10A C 1.0510(7) 0.2402(5) 0.1065(5)
H8A H 1.0530 0.2450 0.0129
C11A C 0.9244(6) 0.3211(5) 0.1411(5)
H9A H 0.8368 0.3783 0.0724
C12A C 0.0447(6) 0.8154(5) 0.2416(4)
H10A H -0.0289 0.9064 0.1921
H11A H -0.0310 0.7311 0.2587
C13A C 0.9045(6) 0.2051(5) 0.6092(5)
O4 O 0.6178(5) 0.8044(4) 0.3406(4)
H12 H 0.630(8) 0.875(6) 0.261(6)
H13 H 0.494(11) 0.788(8) 0.376(7)
loop_
_geom_bond_atom_site_label_1
_geom_bond_atom_site_label_2
_geom_bond_site_symmetry_1
_geom_bond_site_symmetry_2
O1 C4 1_555 1_555
O2 C5 1_555 1_555
O3 C13 1_555 1_555
N1 N2 1_555 1_555
N2 N3 1_555 1_555
N3 C1 1_555 1_555
N4 H1 1_555 1_555
N5 H2 1_555 1_555
C1 H3 1_555 1_555
C2 N1 1_555 1_555
C3 N4 1_555 1_555
H4 C3 1_555 1_555
H5 C3 1_555 1_555
C4 N4 1_555 1_555
C5 C4 1_555 1_555
C6 C5 1_555 1_555
C7 N5 1_555 1_555
C8 C7 1_555 1_555
H6 C8 1_555 1_555
C9 C8 1_555 1_555
H7 C9 1_555 1_555
C10 C9 1_555 1_555
H8 C10 1_555 1_555
C11 C6 1_555 1_555
H9 C11 1_555 1_555
C12 N1 1_555 1_555
H10 C12 1_555 1_555
H11 C12 1_555 1_555
C13 N5 1_555 1_555
O4 H12 1_555 1_555
H13 O4 1_555 1_555
O1A C4A 1_555 1_555
O2A C5A 1_555 1_555
O3A C13A 1_555 1_555
N1A N2A 1_555 1_555
N2A N3A 1_555 1_555
N3A C1A 1_555 1_555
N4A H1A 1_555 1_555
N5A H2A 1_555 1_555
C1A H3A 1_555 1_555
C2A N1A 1_555 1_555
C3A N4A 1_555 1_555
H4A C3A 1_555 1_555
H5A C3A 1_555 1_555
C4A N4A 1_555 1_555
C5A C4A 1_555 1_555
C6A C5A 1_555 1_555
C7A N5A 1_555 1_555
C8A C7A 1_555 1_555
H6A C8A 1_555 1_555
C9A C8A 1_555 1_555
H7A C9A 1_555 1_555
C10A C9A 1_555 1_555
H8A C10A 1_555 1_555
C11A C6A 1_555 1_555
H9A C11A 1_555 1_555
C12A C13 1_555 1_555
H10A C12A 1_555 1_555
H11A C12A 1_555 1_555
C13A C12 1_555 1_555
C1 C2 1_555 1_555
C2 C3 1_555 1_555
C6 C7 1_555 1_555
C10 C11 1_555 1_555
N1A C12A 1_555 1_555
N5A C13A 1_555 1_555
C1A C2A 1_555 1_555
C2A C3A 1_555 1_555
C6A C7A 1_555 1_555
C10A C11A 1_555 1_555

#END
