
#######################################################################
#
#                 Cambridge Crystallographic Data Centre
#                                CCDC 
#
#######################################################################
#
# If this CIF has been generated from an entry in the Cambridge 
# Structural Database, then it will include bibliographic, chemical, 
# crystal, experimental, refinement or atomic coordinate data resulting 
# from the CCDC's data processing and validation procedures.
#
#######################################################################

data_SAVKEI
_chemical_formula_moiety         'C33 H24 N4 O3'
_chemical_name_systematic        
7-nitro-N-{[4-(triphenylethenyl)phenyl]methyl}-2,1,3-benzoxadiazol-4-amine
_symmetry_cell_setting           monoclinic
_symmetry_space_group_name_H-M   'P 21/c'
_symmetry_Int_Tables_number      14
_space_group_name_Hall           '-P 2ybc'
loop_
_symmetry_equiv_pos_site_id
_symmetry_equiv_pos_as_xyz
1 x,y,z
2 -x,1/2+y,1/2-z
3 -x,-y,-z
4 x,1/2-y,1/2+z
_cell_length_a                   22.854(3)
_cell_length_b                   9.0152(13)
_cell_length_c                   13.197(2)
_cell_angle_alpha                90
_cell_angle_beta                 96.266(3)
_cell_angle_gamma                90
_cell_volume                     2702.78
_exptl_crystal_colour            red
_exptl_crystal_description       block
_cell_formula_units_Z            4
loop_
_atom_site_label
_atom_site_type_symbol
_atom_site_fract_x
_atom_site_fract_y
_atom_site_fract_z
C1 C 0.46858(8) 0.33987(19) 0.35795(13)
C2 C 0.41393(8) 0.3038(2) 0.31315(14)
H1 H 0.3878 0.3806 0.2943
C3 C 0.39475(8) 0.1584(2) 0.29386(14)
H2 H 0.3566 0.1423 0.2638
C4 C 0.43099(7) 0.03723(18) 0.31826(12)
C5 C 0.48854(7) 0.07345(18) 0.36649(12)
C6 C 0.50803(7) 0.22210(19) 0.38707(12)
C7 C 0.36029(8) -0.1522(2) 0.24776(14)
H3 H 0.3633 -0.2544 0.2258
H4 H 0.3503 -0.0917 0.1876
C8 C 0.31175(7) -0.14009(18) 0.31646(13)
C9 C 0.26382(8) -0.0482(2) 0.29251(14)
H5 H 0.2594 0.0012 0.2303
C10 C 0.22241(7) -0.0294(2) 0.36060(14)
H6 H 0.1905 0.0333 0.3438
C11 C 0.22782(7) -0.10256(18) 0.45331(13)
C12 C 0.27454(7) -0.20005(19) 0.47458(14)
H7 H 0.2779 -0.2542 0.5349
C13 C 0.31596(7) -0.21737(18) 0.40742(14)
H8 H 0.3473 -0.2821 0.4234
C14 C 0.18484(7) -0.07509(19) 0.52865(13)
C15 C 0.18221(7) 0.05904(19) 0.57370(13)
C16 C 0.22662(7) 0.17597(19) 0.55783(13)
C17 C 0.20815(9) 0.3138(2) 0.52080(16)
H9 H 0.1682 0.3364 0.5125
C18 C 0.24835(10) 0.4180(2) 0.49606(17)
H10 H 0.2353 0.5093 0.4697
C19 C 0.30740(10) 0.3879(2) 0.50998(17)
H11 H 0.3343 0.4579 0.4921
C20 C 0.32661(9) 0.2545(2) 0.55024(16)
H12 H 0.3667 0.2348 0.5616
C21 C 0.28655(8) 0.1493(2) 0.57406(14)
H13 H 0.3000 0.0589 0.6015
C22 C 0.13387(7) 0.10391(19) 0.63454(14)
C23 C 0.07533(8) 0.0856(2) 0.59706(18)
H14 H 0.0658 0.0411 0.5338
C24 C 0.03102(9) 0.1324(3) 0.6525(2)
H15 H -0.0081 0.1178 0.6266
C25 C 0.04379(11) 0.2000(3) 0.7448(2)
H16 H 0.0137 0.2318 0.7816
C26 C 0.10097(10) 0.2203(3) 0.78239(18)
H17 H 0.1100 0.2660 0.8453
C27 C 0.14580(9) 0.1738(2) 0.72807(16)
H18 H 0.1847 0.1895 0.7546
C28 C 0.14668(7) -0.20405(18) 0.54732(14)
C29 C 0.12064(8) -0.2859(2) 0.46596(16)
H19 H 0.1269 -0.2595 0.3999
C30 C 0.08521(8) -0.4070(2) 0.48170(19)
H20 H 0.0669 -0.4590 0.4262
C31 C 0.07720(9) -0.4497(2) 0.5786(2)
H21 H 0.0538 -0.5314 0.5892
C32 C 0.10388(9) -0.3718(2) 0.65998(19)
H22 H 0.0988 -0.4014 0.7260
C33 C 0.13808(8) -0.2501(2) 0.64475(16)
H23 H 0.1557 -0.1978 0.7007
N1 N 0.48575(9) 0.49155(17) 0.37159(12)
O1 O 0.57647(5) 0.06848(16) 0.43567(11)
N2 N 0.41709(6) -0.10472(15) 0.29852(11)
H24 H 0.4430 -0.1715 0.3167
O2 O 0.44940(8) 0.58878(15) 0.34120(12)
O3 O 0.53559(7) 0.51946(16) 0.41117(12)
N3 N 0.56260(7) 0.21899(18) 0.43022(12)
N4 N 0.53068(6) -0.01963(17) 0.39591(11)
loop_
_geom_bond_atom_site_label_1
_geom_bond_atom_site_label_2
_geom_bond_site_symmetry_1
_geom_bond_site_symmetry_2
C1 C2 1_555 1_555
C2 H1 1_555 1_555
C3 C2 1_555 1_555
H2 C3 1_555 1_555
C4 C3 1_555 1_555
C5 C4 1_555 1_555
C6 C1 1_555 1_555
C7 H3 1_555 1_555
H4 C7 1_555 1_555
C8 C7 1_555 1_555
C9 C8 1_555 1_555
H5 C9 1_555 1_555
C10 C9 1_555 1_555
H6 C10 1_555 1_555
C11 C10 1_555 1_555
C12 C11 1_555 1_555
H7 C12 1_555 1_555
C13 C8 1_555 1_555
H8 C13 1_555 1_555
C14 C11 1_555 1_555
C15 C14 1_555 1_555
C16 C15 1_555 1_555
C17 C16 1_555 1_555
H9 C17 1_555 1_555
C18 C17 1_555 1_555
H10 C18 1_555 1_555
C19 C18 1_555 1_555
H11 C19 1_555 1_555
C20 C19 1_555 1_555
H12 C20 1_555 1_555
C21 C16 1_555 1_555
H13 C21 1_555 1_555
C22 C15 1_555 1_555
C23 C22 1_555 1_555
H14 C23 1_555 1_555
C24 C23 1_555 1_555
H15 C24 1_555 1_555
C25 C24 1_555 1_555
H16 C25 1_555 1_555
C26 C25 1_555 1_555
H17 C26 1_555 1_555
C27 C22 1_555 1_555
H18 C27 1_555 1_555
C28 C14 1_555 1_555
C29 C28 1_555 1_555
H19 C29 1_555 1_555
C30 C29 1_555 1_555
H20 C30 1_555 1_555
C31 C30 1_555 1_555
H21 C31 1_555 1_555
C32 C31 1_555 1_555
H22 C32 1_555 1_555
C33 C28 1_555 1_555
H23 C33 1_555 1_555
N1 C1 1_555 1_555
O1 N3 1_555 1_555
N2 C4 1_555 1_555
H24 N2 1_555 1_555
O2 N1 1_555 1_555
O3 N1 1_555 1_555
N3 C6 1_555 1_555
N4 C5 1_555 1_555
C5 C6 1_555 1_555
C7 N2 1_555 1_555
C12 C13 1_555 1_555
C20 C21 1_555 1_555
C26 C27 1_555 1_555
C32 C33 1_555 1_555
O1 N4 1_555 1_555

#END
