
#######################################################################
#
#                 Cambridge Crystallographic Data Centre
#                                CCDC 
#
#######################################################################
#
# If this CIF has been generated from an entry in the Cambridge 
# Structural Database, then it will include bibliographic, chemical, 
# crystal, experimental, refinement or atomic coordinate data resulting 
# from the CCDC's data processing and validation procedures.
#
#######################################################################

data_SAVKAE
_chemical_formula_moiety         'C39 H34 N2 O2 S1'
_chemical_name_systematic        
5-(dimethylamino)-N-{[4-(triphenylethenyl)phenyl]methyl}naphthalene-1-sulfonamide
_symmetry_cell_setting           monoclinic
_symmetry_space_group_name_H-M   'C c'
_symmetry_Int_Tables_number      9
_space_group_name_Hall           'C -2yc'
loop_
_symmetry_equiv_pos_site_id
_symmetry_equiv_pos_as_xyz
1 x,y,z
2 x,-y,1/2+z
3 1/2+x,1/2+y,z
4 1/2+x,1/2-y,1/2+z
_cell_length_a                   9.805(5)
_cell_length_b                   39.34(2)
_cell_length_c                   9.106(5)
_cell_angle_alpha                90
_cell_angle_beta                 115.444(8)
_cell_angle_gamma                90
_cell_volume                     3171.76
_exptl_crystal_colour            colorless
_exptl_crystal_description       block
_cell_formula_units_Z            4
loop_
_atom_site_label
_atom_site_type_symbol
_atom_site_fract_x
_atom_site_fract_y
_atom_site_fract_z
C1 C 0.1254(5) 0.08416(12) 0.7870(5)
C2 C 0.2177(6) 0.06071(15) 0.8971(7)
H1 H 0.3185 0.0661 0.9610
C3 C 0.1627(6) 0.02944(14) 0.9137(7)
H2 H 0.2279 0.0140 0.9883
C4 C 0.0154(5) 0.02040(12) 0.8239(6)
C5 C -0.0787(6) 0.04417(14) 0.7161(7)
H3 H -0.1801 0.0390 0.6544
C6 C -0.0235(5) 0.07555(14) 0.6989(6)
H4 H -0.0889 0.0912 0.6259
C7 C 0.1837(5) 0.11841(13) 0.7680(6)
C8 C 0.1602(6) 0.14610(13) 0.8650(6)
C9 C 0.0459(8) 0.16876(17) 0.8015(8)
H5 H -0.0209 0.1672 0.6920
C10 C 0.0253(10) 0.19443(19) 0.8953(11)
H6 H -0.0541 0.2098 0.8490
C11 C 0.1234(11) 0.1969(2) 1.0567(11)
H7 H 0.1143 0.2146 1.1196
C12 C 0.2323(11) 0.1736(3) 1.1228(12)
H8 H 0.2949 0.1744 1.2337
C13 C 0.2530(8) 0.1485(2) 1.0290(8)
H9 H 0.3310 0.1329 1.0771
C14 C 0.2844(6) 0.09635(14) 0.5762(7)
C15 C 0.2084(7) 0.09594(17) 0.4082(8)
H10 H 0.1338 0.1120 0.3542
C16 C 0.3946(8) 0.07239(17) 0.6512(9)
H11 H 0.4455 0.0722 0.7641
C17 C 0.4310(10) 0.0488(2) 0.5643(13)
H12 H 0.5069 0.0331 0.6179
C18 C 0.3561(11) 0.0484(2) 0.3987(14)
H13 H 0.3811 0.0325 0.3389
C19 C 0.2444(9) 0.0715(2) 0.3213(9)
H14 H 0.1917 0.0708 0.2087
C20 C 0.2519(6) 0.12387(13) 0.6716(6)
C21 C 0.2891(10) 0.15838(16) 0.6304(12)
C22 C 0.1803(10) 0.1813(2) 0.5324(11)
H15 H 0.0788 0.1752 0.4863
C23 C 0.2231(14) 0.2134(2) 0.5031(12)
H16 H 0.1503 0.2287 0.4374
C24 C 0.3748(15) 0.22245(19) 0.5719(16)
H17 H 0.4035 0.2439 0.5523
C25 C 0.4836(11) 0.1995(3) 0.6699(16)
H18 H 0.5851 0.2056 0.7160
C26 C 0.4408(10) 0.1675(2) 0.6992(13)
H19 H 0.5136 0.1521 0.7649
C27 C -0.0333(6) -0.01522(14) 0.8416(8)
H20 H -0.0014 -0.0304 0.7784
H21 H 0.0205 -0.0219 0.9548
C28 C -0.2560(5) -0.07984(13) 0.6293(6)
C29 C -0.1846(7) -0.08993(18) 0.5352(7)
H22 H -0.1633 -0.0741 0.4722
C30 C -0.1442(8) -0.12393(18) 0.5341(9)
H23 H -0.0922 -0.1303 0.4739
C31 C -0.1791(7) -0.14755(17) 0.6185(8)
H24 H -0.1526 -0.1701 0.6138
C32 C -0.2559(6) -0.13889(14) 0.7152(6)
C33 C -0.2951(7) -0.16387(15) 0.8020(7)
C34 C -0.3589(7) -0.15406(17) 0.9017(8)
H25 H -0.3804 -0.1702 0.9633
C35 C -0.3922(7) -0.11997(16) 0.9119(7)
H26 H -0.4365 -0.1139 0.9802
C36 C -0.3628(6) -0.09545(14) 0.8268(6)
H27 H -0.3880 -0.0730 0.8350
C37 C -0.2923(5) -0.10431(13) 0.7237(6)
C38 C -0.2429(19) -0.2212(3) 0.9182(15)
H28 H -0.1792 -0.2399 0.9196
H29 H -0.3388 -0.2298 0.9062
H30 H -0.1959 -0.2088 1.0182
C39 C -0.3745(18) -0.2131(3) 0.6334(16)
H31 H -0.3315 -0.2324 0.6044
H32 H -0.4032 -0.1964 0.5484
H33 H -0.4618 -0.2200 0.6476
N1 N -0.1930(5) -0.02053(11) 0.7927(6)
H34 H -0.230(6) -0.0120(14) 0.855(6)
N2 N -0.2653(7) -0.19874(13) 0.7818(7)
O1 O -0.2718(6) -0.02221(12) 0.4956(5)
O2 O -0.4521(4) -0.03310(10) 0.6105(5)
S1 S -0.30334(16) -0.03654(3) 0.62189(17)
C40? C 0.3318(14) 0.1572(3) 0.6860(16)
C41? C 0.2832(16) 0.1762(3) 0.5439(13)
H35? H 0.2018 0.1688 0.4503
C42? C 0.3563(19) 0.2064(3) 0.5416(14)
H36? H 0.3238 0.2191 0.4465
C43? C 0.4779(17) 0.2175(3) 0.6815(18)
H37? H 0.5268 0.2377 0.6800
C44? C 0.5265(15) 0.1985(3) 0.8237(16)
H38? H 0.6079 0.2060 0.9173
C45? C 0.4535(15) 0.1684(3) 0.8260(15)
H39? H 0.4860 0.1556 0.9211
C46? C -0.374(3) -0.2233(6) 0.778(4)
H40? H -0.3432 -0.2456 0.7614
H41? H -0.4708 -0.2181 0.6916
H42? H -0.3818 -0.2229 0.8801
C47? C -0.1106(18) -0.2093(7) 0.868(3)
H43? H -0.0777 -0.2054 0.9826
H44? H -0.0486 -0.1964 0.8307
H45? H -0.1023 -0.2330 0.8493
loop_
_geom_bond_atom_site_label_1
_geom_bond_atom_site_label_2
_geom_bond_site_symmetry_1
_geom_bond_site_symmetry_2
C1 C2 1_555 1_555
C2 H1 1_555 1_555
C3 C2 1_555 1_555
H2 C3 1_555 1_555
C4 C3 1_555 1_555
C5 C4 1_555 1_555
H3 C5 1_555 1_555
C6 C1 1_555 1_555
H4 C6 1_555 1_555
C7 C1 1_555 1_555
C8 C7 1_555 1_555
C9 C8 1_555 1_555
H5 C9 1_555 1_555
C10 C9 1_555 1_555
H6 C10 1_555 1_555
C11 C10 1_555 1_555
H7 C11 1_555 1_555
C12 C11 1_555 1_555
H8 C12 1_555 1_555
C13 C8 1_555 1_555
H9 C13 1_555 1_555
C14 C15 1_555 1_555
C15 H10 1_555 1_555
C16 C14 1_555 1_555
H11 C16 1_555 1_555
C17 C16 1_555 1_555
H12 C17 1_555 1_555
C18 C17 1_555 1_555
H13 C18 1_555 1_555
C19 C15 1_555 1_555
H14 C19 1_555 1_555
C20 C7 1_555 1_555
C21 C20 1_555 1_555
C22 C21 1_555 1_555
H15 C22 1_555 1_555
C23 C22 1_555 1_555
H16 C23 1_555 1_555
C24 C23 1_555 1_555
H17 C24 1_555 1_555
C25 C24 1_555 1_555
H18 C25 1_555 1_555
C26 C21 1_555 1_555
H19 C26 1_555 1_555
C27 C4 1_555 1_555
H20 C27 1_555 1_555
H21 C27 1_555 1_555
C28 C29 1_555 1_555
C29 H22 1_555 1_555
C30 C29 1_555 1_555
H23 C30 1_555 1_555
C31 C30 1_555 1_555
H24 C31 1_555 1_555
C32 C31 1_555 1_555
C33 C32 1_555 1_555
C34 C33 1_555 1_555
H25 C34 1_555 1_555
C35 C34 1_555 1_555
H26 C35 1_555 1_555
C36 C35 1_555 1_555
H27 C36 1_555 1_555
C37 C28 1_555 1_555
C38 H28 1_555 1_555
H29 C38 1_555 1_555
H30 C38 1_555 1_555
C39 H31 1_555 1_555
H32 C39 1_555 1_555
H33 C39 1_555 1_555
N1 C27 1_555 1_555
H34 N1 1_555 1_555
N2 C33 1_555 1_555
O1 S1 1_555 1_555
O2 S1 1_555 1_555
S1 C28 1_555 1_555
C5 C6 1_555 1_555
C12 C13 1_555 1_555
C14 C20 1_555 1_555
C18 C19 1_555 1_555
C25 C26 1_555 1_555
C32 C37 1_555 1_555
C36 C37 1_555 1_555
C38 N2 1_555 1_555
C39 N2 1_555 1_555
N1 S1 1_555 1_555

#END
