
#######################################################################
#
#                 Cambridge Crystallographic Data Centre
#                                CCDC 
#
#######################################################################
#
# If this CIF has been generated from an entry in the Cambridge 
# Structural Database, then it will include bibliographic, chemical, 
# crystal, experimental, refinement or atomic coordinate data resulting 
# from the CCDC's data processing and validation procedures.
#
#######################################################################

data_SAVNAH
_chemical_formula_moiety         'C32 H34 N2 O6'
_chemical_name_systematic        
"di-t-butyl (3R,3'R,5'R)-2-oxo-2',3'-diphenylspiro[indole-3,4'-[1,2]oxazolidine]-1,5'(2H)-dicarboxylate"
_symmetry_cell_setting           orthorhombic
_symmetry_space_group_name_H-M   'P 21 21 21'
_symmetry_Int_Tables_number      19
_space_group_name_Hall           'P 2ac 2ab'
loop_
_symmetry_equiv_pos_site_id
_symmetry_equiv_pos_as_xyz
1 x,y,z
2 1/2-x,-y,1/2+z
3 -x,1/2+y,1/2-z
4 1/2+x,1/2-y,-z
_cell_length_a                   10.21904(12)
_cell_length_b                   11.88874(13)
_cell_length_c                   24.5399(3)
_cell_angle_alpha                90
_cell_angle_beta                 90
_cell_angle_gamma                90
_cell_volume                     2981.39
_exptl_crystal_colour            colorless
_exptl_crystal_description       block
_cell_formula_units_Z            4
_exptl_crystal_recrystallization_method 'ethyl acetate'
loop_
_atom_site_label
_atom_site_type_symbol
_atom_site_fract_x
_atom_site_fract_y
_atom_site_fract_z
O1 O 0.67993(19) 0.59455(18) 0.58976(8)
O2 O 0.6800(3) 0.6825(3) 0.68924(10)
O3 O 0.4982(2) 0.58528(17) 0.71107(7)
O4 O 0.0695(4) 0.5712(3) 0.6878(2)
O5 O 0.1170(3) 0.3990(2) 0.65835(13)
O6 O 0.3687(2) 0.37736(16) 0.62771(8)
N1 N 0.6427(2) 0.55218(19) 0.53661(9)
N2 N 0.2458(2) 0.5427(2) 0.63347(9)
C1 C 0.8657(3) 0.4790(3) 0.53524(14)
H1 H 0.8899 0.5305 0.5619
C2 C 0.9575(4) 0.4072(4) 0.51372(19)
H2 H 1.0427 0.4086 0.5270
C3 C 0.9249(4) 0.3332(3) 0.47263(19)
H3 H 0.9879 0.2859 0.4577
C4 C 0.7992(4) 0.3303(3) 0.45419(16)
H4 H 0.7766 0.2808 0.4264
C5 C 0.7049(3) 0.3998(2) 0.47622(12)
H5 H 0.6193 0.3963 0.4635
C6 C 0.7375(3) 0.4752(2) 0.51741(11)
C7 C 0.3238(4) 0.4729(3) 0.47582(14)
H6 H 0.3089 0.4063 0.4947
C8 C 0.2457(4) 0.5007(5) 0.43179(17)
H7 H 0.1785 0.4526 0.4213
C9 C 0.2663(4) 0.5977(4) 0.40369(14)
H8 H 0.2135 0.6158 0.3741
C10 C 0.3652(4) 0.6684(3) 0.41911(14)
H9 H 0.3792 0.7351 0.4001
C11 C 0.4441(3) 0.6414(3) 0.46269(12)
H10 H 0.5118 0.6895 0.4726
C12 C 0.4236(3) 0.5434(2) 0.49191(10)
C13 C 0.5061(2) 0.5106(2) 0.54039(10)
H11 H 0.5089 0.4283 0.5421
C14 C 0.3469(6) 0.5881(6) 0.78176(19)
H12 H 0.2805 0.6081 0.7558
H13 H 0.3228 0.6160 0.8171
H14 H 0.3553 0.5078 0.7832
C15 C 0.5862(6) 0.6083(5) 0.80226(16)
H15 H 0.5998 0.5285 0.8010
H16 H 0.5645 0.6304 0.8388
H17 H 0.6646 0.6462 0.7910
C16 C 0.4623(5) 0.7632(4) 0.75782(18)
H18 H 0.5442 0.7944 0.7460
H19 H 0.4376 0.7965 0.7919
H20 H 0.3962 0.7785 0.7310
C17 C 0.4762(4) 0.6395(3) 0.76474(12)
C18 C 0.5974(3) 0.6154(2) 0.67958(11)
C19 C 0.5902(3) 0.5478(2) 0.62708(10)
H21 H 0.6127 0.4690 0.6343
C20 C 0.0307(8) 0.2188(6) 0.6704(5)
H22 H 0.0181 0.2194 0.6317
H23 H -0.0346 0.1720 0.6871
H24 H 0.1161 0.1897 0.6787
C21 C 0.0633(7) 0.3439(9) 0.7491(3)
H25 H 0.1571 0.3397 0.7500
H26 H 0.0270 0.2816 0.7688
H27 H 0.0354 0.4131 0.7655
C22 C -0.1152(5) 0.3812(7) 0.6807(4)
H28 H -0.1233 0.4579 0.6924
H29 H -0.1780 0.3356 0.6996
H30 H -0.1310 0.3768 0.6422
C23 C 0.0186(4) 0.3400(5) 0.6927(2)
C24 C 0.1333(3) 0.5075(3) 0.66202(14)
C25 C 0.3552(3) 0.4765(2) 0.62091(10)
C26 C 0.4591(2) 0.5545(2) 0.59658(10)
C27 C 0.3957(3) 0.6680(2) 0.59905(9)
C28 C 0.4442(3) 0.7725(2) 0.58450(11)
H31 H 0.5271 0.7796 0.5692
C29 C 0.3664(4) 0.8664(3) 0.59326(13)
H32 H 0.3975 0.9375 0.5841
C30 C 0.2447(4) 0.8551(3) 0.61520(15)
H33 H 0.1937 0.9190 0.6203
C31 C 0.1945(3) 0.7514(3) 0.63008(13)
H34 H 0.1113 0.7447 0.6451
C32 C 0.2727(3) 0.6583(2) 0.62169(10)
loop_
_geom_bond_atom_site_label_1
_geom_bond_atom_site_label_2
_geom_bond_site_symmetry_1
_geom_bond_site_symmetry_2
O1 N1 1_555 1_555
O2 C18 1_555 1_555
O3 C17 1_555 1_555
O4 C24 1_555 1_555
O5 C23 1_555 1_555
O6 C25 1_555 1_555
N1 C6 1_555 1_555
N2 C24 1_555 1_555
C1 H1 1_555 1_555
C2 C1 1_555 1_555
H2 C2 1_555 1_555
C3 C2 1_555 1_555
H3 C3 1_555 1_555
C4 C3 1_555 1_555
H4 C4 1_555 1_555
C5 C4 1_555 1_555
H5 C5 1_555 1_555
C6 C1 1_555 1_555
C7 H6 1_555 1_555
C8 C7 1_555 1_555
H7 C8 1_555 1_555
C9 C8 1_555 1_555
H8 C9 1_555 1_555
C10 C9 1_555 1_555
H9 C10 1_555 1_555
C11 C10 1_555 1_555
H10 C11 1_555 1_555
C12 C7 1_555 1_555
C13 N1 1_555 1_555
H11 C13 1_555 1_555
C14 H12 1_555 1_555
H13 C14 1_555 1_555
H14 C14 1_555 1_555
C15 H15 1_555 1_555
H16 C15 1_555 1_555
H17 C15 1_555 1_555
C16 H18 1_555 1_555
H19 C16 1_555 1_555
H20 C16 1_555 1_555
C17 C14 1_555 1_555
C18 O3 1_555 1_555
C19 O1 1_555 1_555
H21 C19 1_555 1_555
C20 H22 1_555 1_555
H23 C20 1_555 1_555
H24 C20 1_555 1_555
C21 H25 1_555 1_555
H26 C21 1_555 1_555
H27 C21 1_555 1_555
C22 H28 1_555 1_555
H29 C22 1_555 1_555
H30 C22 1_555 1_555
C23 C20 1_555 1_555
C24 O5 1_555 1_555
C25 N2 1_555 1_555
C26 C13 1_555 1_555
C27 C26 1_555 1_555
C28 C27 1_555 1_555
H31 C28 1_555 1_555
C29 C28 1_555 1_555
H32 C29 1_555 1_555
C30 C29 1_555 1_555
H33 C30 1_555 1_555
C31 C30 1_555 1_555
H34 C31 1_555 1_555
C32 N2 1_555 1_555
C5 C6 1_555 1_555
C11 C12 1_555 1_555
C12 C13 1_555 1_555
C15 C17 1_555 1_555
C16 C17 1_555 1_555
C18 C19 1_555 1_555
C19 C26 1_555 1_555
C21 C23 1_555 1_555
C22 C23 1_555 1_555
C25 C26 1_555 1_555
C27 C32 1_555 1_555
C31 C32 1_555 1_555

#END
