
#######################################################################
#
#                 Cambridge Crystallographic Data Centre
#                                CCDC 
#
#######################################################################
#
# If this CIF has been generated from an entry in the Cambridge 
# Structural Database, then it will include bibliographic, chemical, 
# crystal, experimental, refinement or atomic coordinate data resulting 
# from the CCDC's data processing and validation procedures.
#
#######################################################################

data_SAVSOA
_chemical_formula_moiety         'C25 H25 N2 1+,I1 1-,1.12(H2 O1)'
_chemical_name_systematic        
'1-ethyl-4-(3-(1-ethylquinolin-4(1H)-ylidene)prop-1-en-1-yl)quinolin-1-ium iodide hydrate'
_symmetry_cell_setting           monoclinic
_symmetry_space_group_name_H-M   'C 2/c'
_symmetry_Int_Tables_number      15
_space_group_name_Hall           '-C 2yn'
loop_
_symmetry_equiv_pos_site_id
_symmetry_equiv_pos_as_xyz
1 x,y,z
2 -x,y,1/2-z
3 1/2+x,1/2+y,z
4 1/2-x,1/2+y,1/2-z
5 -x,-y,-z
6 x,-y,1/2+z
7 1/2-x,1/2-y,-z
8 1/2+x,1/2-y,1/2+z
_cell_length_a                   40.637(2)
_cell_length_b                   21.1073(10)
_cell_length_c                   11.1894(5)
_cell_angle_alpha                90
_cell_angle_beta                 93.085(4)
_cell_angle_gamma                90
_cell_volume                     9583.66
_exptl_crystal_colour            'dark blue'
_exptl_crystal_description       plate
_cell_formula_units_Z            16
_exptl_crystal_recrystallization_method acetonitrile/water
loop_
_atom_site_label
_atom_site_type_symbol
_atom_site_fract_x
_atom_site_fract_y
_atom_site_fract_z
I1 I 0.23626(3) 0.18662(15) 0.75776(16)
I2 I 0.03087(9) 0.2961(3) 0.9749(4)
N1 N 0.0813(2) 0.3539(3) 0.5034(7)
N2 N 0.1082(2) 0.0448(4) 1.1760(8)
C1 C 0.0684(2) 0.3222(4) 0.5946(9)
H1 H 0.0459 0.3288 0.6086
C2 C 0.0859(2) 0.2814(5) 0.6675(8)
H2 H 0.0755 0.2608 0.7309
C3 C 0.1195(2) 0.2694(4) 0.6494(7)
C4 C 0.1335(2) 0.3011(3) 0.5515(7)
C5 C 0.1669(3) 0.2941(4) 0.5248(8)
H3 H 0.1807 0.2670 0.5731
C6 C 0.1799(3) 0.3258(4) 0.4296(9)
H4 H 0.2025 0.3208 0.4133
C7 C 0.1596(3) 0.3648(4) 0.3585(8)
H5 H 0.1685 0.3854 0.2919
C8 C 0.1276(3) 0.3746(4) 0.3804(8)
H6 H 0.1144 0.4018 0.3299
C9 C 0.1138(2) 0.3445(4) 0.4780(8)
C10 C 0.1387(2) 0.2259(3) 0.7242(7)
H7 H 0.1611 0.2193 0.7071
C11 C 0.1266(2) 0.1934(3) 0.8181(7)
H8 H 0.1042 0.2000 0.8355
C12 C 0.1454(2) 0.1509(3) 0.8905(7)
H9 H 0.1679 0.1454 0.8736
C13 C 0.0885(3) 0.0861(5) 1.1104(9)
H10 H 0.0662 0.0908 1.1300
C14 C 0.0996(3) 0.1204(4) 1.0191(9)
H11 H 0.0850 0.1481 0.9756
C15 C 0.1335(2) 0.1158(3) 0.9862(7)
C16 C 0.1546(2) 0.0726(4) 1.0579(8)
C17 C 0.1882(3) 0.0654(4) 1.0414(9)
H12 H 0.1979 0.0896 0.9810
C18 C 0.2075(3) 0.0249(5) 1.1086(9)
H13 H 0.2304 0.0219 1.0972
C19 C 0.1929(3) -0.0122(4) 1.1947(9)
H14 H 0.2061 -0.0419 1.2396
C20 C 0.1611(3) -0.0070(4) 1.2156(9)
H15 H 0.1521 -0.0325 1.2756
C21 C 0.1404(3) 0.0363(4) 1.1493(9)
C22 C 0.0594(3) 0.3970(5) 0.4332(9)
H16 H 0.0718 0.4356 0.4132
H17 H 0.0410 0.4100 0.4823
C23 C 0.0453(3) 0.3662(6) 0.3169(11)
H18 H 0.0320 0.3973 0.2706
H19 H 0.0315 0.3300 0.3365
H20 H 0.0634 0.3516 0.2695
C24 C 0.0923(4) 0.0079(5) 1.2729(10)
H21 H 0.1084 0.0009 1.3414
H22 H 0.0733 0.0317 1.3017
C25 C 0.0813(4) -0.0536(6) 1.2209(12)
H23 H 0.0705 -0.0784 1.2816
H24 H 0.1003 -0.0769 1.1939
H25 H 0.0656 -0.0460 1.1526
N3 N 0.1721(3) 0.4551(6) 0.6491(10)
N4 N 0.1739(2) 0.1613(4) 1.3461(8)
C26 C 0.1894(4) 0.4129(9) 0.7237(13)
H26 H 0.2121 0.4057 0.7128
C27 C 0.1747(4) 0.3822(7) 0.8106(11)
H27 H 0.1876 0.3544 0.8608
C28 C 0.1414(3) 0.3890(5) 0.8313(9)
C29 C 0.1229(3) 0.4356(5) 0.7542(9)
C30 C 0.0899(3) 0.4476(5) 0.7638(8)
H28 H 0.0779 0.4250 0.8206
C31 C 0.0739(4) 0.4926(5) 0.6905(10)
H29 H 0.0511 0.5001 0.6971
C32 C 0.0908(4) 0.5262(5) 0.6091(9)
H30 H 0.0798 0.5574 0.5607
C33 C 0.1234(4) 0.5147(6) 0.5976(10)
H31 H 0.1349 0.5382 0.5406
C34 C 0.1404(3) 0.4695(6) 0.6671(10)
C35 C 0.1248(3) 0.3542(5) 0.9183(9)
H32 H 0.1016 0.3594 0.9220
C36 C 0.1410(3) 0.3125(5) 0.9987(8)
H33 H 0.1639 0.3053 0.9921
C37 C 0.1250(3) 0.2815(4) 1.0877(9)
H34 H 0.1020 0.2881 1.0933
C38 C 0.1902(3) 0.1869(5) 1.2541(10)
H35 H 0.2129 0.1775 1.2481
C39 C 0.1748(3) 0.2263(5) 1.1693(9)
H36 H 0.1873 0.2442 1.1085
C40 C 0.1416(3) 0.2401(4) 1.1711(8)
C41 C 0.1240(3) 0.2103(4) 1.2669(9)
C42 C 0.0899(3) 0.2196(5) 1.2779(10)
H37 H 0.0782 0.2454 1.2206
C43 C 0.0731(3) 0.1929(6) 1.3682(11)
H38 H 0.0502 0.2002 1.3741
C44 C 0.0912(4) 0.1533(5) 1.4542(11)
H39 H 0.0801 0.1343 1.5178
C45 C 0.1234(3) 0.1432(5) 1.4447(10)
H40 H 0.1351 0.1173 1.5019
C46 C 0.1401(3) 0.1704(4) 1.3515(9)
C47 C 0.1906(4) 0.4836(7) 0.5501(14)
H41 H 0.2077 0.4538 0.5245
H42 H 0.1754 0.4932 0.4803
C48 C 0.2059(4) 0.5423(7) 0.5979(12)
H43 H 0.2204 0.5599 0.5391
H44 H 0.2188 0.5328 0.6723
H45 H 0.1887 0.5731 0.6141
C49 C 0.1914(3) 0.1211(6) 1.4384(11)
H46 H 0.1819 0.0779 1.4344
H47 H 0.1876 0.1385 1.5185
C50 C 0.2277(4) 0.1167(7) 1.4242(13)
H48 H 0.2381 0.0951 1.4938
H49 H 0.2369 0.1594 1.4181
H50 H 0.2318 0.0928 1.3515
O1 O 0.0068(3) 0.0370(7) 1.4321(13)
O2 O 0.2440(3) 0.3285(5) 0.9196(10)
O3 O 0.0115(6) 0.4664(13) 0.888(3)
I3? I 0.2452(5) 0.1631(6) 0.805(3)
I4? I 0.0234(2) 0.2422(8) 0.9926(12)
I5? I 0.0187(4) 0.2044(9) 0.9540(15)
I6? I 0.03041(19) 0.3276(3) 0.9541(6)
O4? O 0.0000 0.0625(9) 1.2500
O5? O 0.0058(4) 0.0502(9) 1.3382(19)
loop_
_geom_bond_atom_site_label_1
_geom_bond_atom_site_label_2
_geom_bond_site_symmetry_1
_geom_bond_site_symmetry_2
N1 C1 1_555 1_555
N2 C13 1_555 1_555
C1 H1 1_555 1_555
C2 C1 1_555 1_555
H2 C2 1_555 1_555
C3 C2 1_555 1_555
C4 C3 1_555 1_555
C5 C4 1_555 1_555
H3 C5 1_555 1_555
C6 C5 1_555 1_555
H4 C6 1_555 1_555
C7 C6 1_555 1_555
H5 C7 1_555 1_555
C8 C7 1_555 1_555
H6 C8 1_555 1_555
C9 N1 1_555 1_555
C10 C3 1_555 1_555
H7 C10 1_555 1_555
C11 C10 1_555 1_555
H8 C11 1_555 1_555
C12 C11 1_555 1_555
H9 C12 1_555 1_555
C13 H10 1_555 1_555
C14 C13 1_555 1_555
H11 C14 1_555 1_555
C15 C12 1_555 1_555
C16 C15 1_555 1_555
C17 C16 1_555 1_555
H12 C17 1_555 1_555
C18 C17 1_555 1_555
H13 C18 1_555 1_555
C19 C18 1_555 1_555
H14 C19 1_555 1_555
C20 C19 1_555 1_555
H15 C20 1_555 1_555
C21 N2 1_555 1_555
C22 N1 1_555 1_555
H16 C22 1_555 1_555
H17 C22 1_555 1_555
C23 C22 1_555 1_555
H18 C23 1_555 1_555
H19 C23 1_555 1_555
H20 C23 1_555 1_555
C24 N2 1_555 1_555
H21 C24 1_555 1_555
H22 C24 1_555 1_555
C25 C24 1_555 1_555
H23 C25 1_555 1_555
H24 C25 1_555 1_555
H25 C25 1_555 1_555
N3 C26 1_555 1_555
N4 C38 1_555 1_555
C26 H26 1_555 1_555
C27 C26 1_555 1_555
H27 C27 1_555 1_555
C28 C27 1_555 1_555
C29 C28 1_555 1_555
C30 C29 1_555 1_555
H28 C30 1_555 1_555
C31 C30 1_555 1_555
H29 C31 1_555 1_555
C32 C31 1_555 1_555
H30 C32 1_555 1_555
C33 C32 1_555 1_555
H31 C33 1_555 1_555
C34 N3 1_555 1_555
C35 C28 1_555 1_555
H32 C35 1_555 1_555
C36 C35 1_555 1_555
H33 C36 1_555 1_555
C37 C36 1_555 1_555
H34 C37 1_555 1_555
C38 H35 1_555 1_555
C39 C38 1_555 1_555
H36 C39 1_555 1_555
C40 C37 1_555 1_555
C41 C40 1_555 1_555
C42 C41 1_555 1_555
H37 C42 1_555 1_555
C43 C42 1_555 1_555
H38 C43 1_555 1_555
C44 C43 1_555 1_555
H39 C44 1_555 1_555
C45 C44 1_555 1_555
H40 C45 1_555 1_555
C46 N4 1_555 1_555
C47 N3 1_555 1_555
H41 C47 1_555 1_555
H42 C47 1_555 1_555
C48 C47 1_555 1_555
H43 C48 1_555 1_555
H44 C48 1_555 1_555
H45 C48 1_555 1_555
C49 N4 1_555 1_555
H46 C49 1_555 1_555
H47 C49 1_555 1_555
C50 C49 1_555 1_555
H48 C50 1_555 1_555
H49 C50 1_555 1_555
H50 C50 1_555 1_555
C4 C9 1_555 1_555
C8 C9 1_555 1_555
C14 C15 1_555 1_555
C16 C21 1_555 1_555
C20 C21 1_555 1_555
C29 C34 1_555 1_555
C33 C34 1_555 1_555
C39 C40 1_555 1_555
C41 C46 1_555 1_555
C45 C46 1_555 1_555

#END
