
#######################################################################
#
#                 Cambridge Crystallographic Data Centre
#                                CCDC 
#
#######################################################################
#
# If this CIF has been generated from an entry in the Cambridge 
# Structural Database, then it will include bibliographic, chemical, 
# crystal, experimental, refinement or atomic coordinate data resulting 
# from the CCDC's data processing and validation procedures.
#
#######################################################################

data_SAVSAM
_chemical_formula_moiety         'C32 H25 O1 P1'
_chemical_name_systematic        
6a,7-diphenyl-6,6a,7,13c-tetrahydro-5H-7-benzo[e]naphtho[2,1-b]phosphindol-7-one
_symmetry_cell_setting           monoclinic
_symmetry_space_group_name_H-M   'P 21/c'
_symmetry_Int_Tables_number      14
_space_group_name_Hall           '-P 2ybc'
loop_
_symmetry_equiv_pos_site_id
_symmetry_equiv_pos_as_xyz
1 x,y,z
2 -x,1/2+y,1/2-z
3 -x,-y,-z
4 x,1/2-y,1/2+z
_cell_length_a                   12.38850(10)
_cell_length_b                   18.8197(2)
_cell_length_c                   10.45830(10)
_cell_angle_alpha                90
_cell_angle_beta                 103.8280(10)
_cell_angle_gamma                90
_cell_volume                     2367.66
_exptl_crystal_description       block
_cell_formula_units_Z            4
loop_
_atom_site_label
_atom_site_type_symbol
_atom_site_fract_x
_atom_site_fract_y
_atom_site_fract_z
P1 P 0.72688(3) 0.17332(2) 0.25553(3)
O1 O 0.76995(9) 0.24712(5) 0.26798(11)
C1 C 0.79332(11) 0.05153(7) 0.17918(12)
C2 C 0.78512(11) 0.03680(7) 0.31859(12)
H1 H 0.8527 0.0111 0.3622
C3 C 0.83241(11) 0.00118(7) 0.09935(13)
C4 C 0.90747(12) 0.13524(8) 0.44899(13)
C5 C 0.83573(11) 0.02176(8) -0.03085(13)
C6 C 0.66532(13) -0.01844(8) 0.45090(15)
C7 C 0.93283(15) 0.18493(8) 0.55096(16)
H2 H 0.8764 0.2026 0.5867
C8 C 0.72662(14) 0.03012(9) 0.55670(15)
H3 H 0.8036 0.0153 0.5859
H4 H 0.6932 0.0290 0.6316
C9 C 0.87096(13) -0.06735(8) 0.14460(15)
H5 H 0.8684 -0.0815 0.2290
C10 C 0.76224(11) 0.11844(7) 0.13169(13)
C11 C 0.34976(15) 0.17411(11) 0.2104(2)
H6 H 0.2734 0.1749 0.2023
C12 C 0.62313(14) -0.04724(8) 0.22053(16)
H7 H 0.6357 -0.0410 0.1371
C13 C 0.68687(12) -0.01032(7) 0.32644(14)
C14 C 0.87850(13) -0.02742(9) -0.10879(15)
H8 H 0.8813 -0.0148 -0.1939
C15 C 0.76663(12) 0.13888(8) 0.00281(14)
H9 H 0.7457 0.1845 -0.0277
C16 C 0.99530(13) 0.11171(9) 0.39793(17)
H10 H 0.9815 0.0786 0.3300
C17 C 0.72009(13) 0.10527(8) 0.49919(15)
H11 H 0.7494 0.1390 0.5690
H12 H 0.6430 0.1174 0.4609
C18 C 0.58369(16) -0.06594(9) 0.46688(19)
H13 H 0.5700 -0.0722 0.5498
C19 C 0.78723(11) 0.11034(7) 0.39245(13)
C20 C 0.91182(14) -0.11298(9) 0.06587(17)
H14 H 0.9373 -0.1577 0.0971
C21 C 0.57704(13) 0.17256(8) 0.23132(16)
C22 C 0.52277(18) -0.10381(10) 0.3614(2)
H15 H 0.4696 -0.1363 0.3736
C23 C 0.80180(13) 0.09116(9) -0.07583(14)
H16 H 0.8037 0.1043 -0.1610
C24 C 0.91534(14) -0.09235(9) -0.06205(16)
H17 H 0.9432 -0.1236 -0.1152
C25 C 1.04095(17) 0.20832(9) 0.59960(19)
H18 H 1.0561 0.2408 0.6687
C26 C 1.12633(16) 0.18434(10) 0.5473(2)
H19 H 1.1986 0.2004 0.5803
C27 C 0.54068(16) -0.09346(10) 0.2381(2)
H20 H 0.4974 -0.1175 0.1662
C28 C 1.10284(14) 0.13648(10) 0.4459(2)
H21 H 1.1595 0.1204 0.4088
C29 C 0.41619(16) 0.22156(11) 0.2905(3)
H22 H 0.3855 0.2541 0.3386
C30 C 0.39481(16) 0.12520(13) 0.1416(2)
H23 H 0.3489 0.0925 0.0878
C31 C 0.50823(14) 0.12399(10) 0.15140(17)
H24 H 0.5383 0.0905 0.1043
C32 C 0.52952(15) 0.22131(10) 0.3004(2)
H25 H 0.5744 0.2544 0.3543
loop_
_geom_bond_atom_site_label_1
_geom_bond_atom_site_label_2
_geom_bond_site_symmetry_1
_geom_bond_site_symmetry_2
P1 O1 1_555 1_555
C1 C2 1_555 1_555
C2 H1 1_555 1_555
C3 C1 1_555 1_555
C4 C7 1_555 1_555
C5 C3 1_555 1_555
C6 C8 1_555 1_555
C7 H2 1_555 1_555
C8 H3 1_555 1_555
H4 C8 1_555 1_555
C9 C3 1_555 1_555
H5 C9 1_555 1_555
C10 P1 1_555 1_555
C11 H6 1_555 1_555
C12 H7 1_555 1_555
C13 C2 1_555 1_555
C14 C5 1_555 1_555
H8 C14 1_555 1_555
C15 C10 1_555 1_555
H9 C15 1_555 1_555
C16 C4 1_555 1_555
H10 C16 1_555 1_555
C17 C8 1_555 1_555
H11 C17 1_555 1_555
H12 C17 1_555 1_555
C18 C6 1_555 1_555
H13 C18 1_555 1_555
C19 P1 1_555 1_555
C20 C9 1_555 1_555
H14 C20 1_555 1_555
C21 P1 1_555 1_555
C22 C18 1_555 1_555
H15 C22 1_555 1_555
C23 C5 1_555 1_555
H16 C23 1_555 1_555
C24 C14 1_555 1_555
H17 C24 1_555 1_555
C25 C7 1_555 1_555
H18 C25 1_555 1_555
C26 C25 1_555 1_555
H19 C26 1_555 1_555
C27 C12 1_555 1_555
H20 C27 1_555 1_555
C28 C16 1_555 1_555
H21 C28 1_555 1_555
C29 C11 1_555 1_555
H22 C29 1_555 1_555
C30 C11 1_555 1_555
H23 C30 1_555 1_555
C31 C21 1_555 1_555
H24 C31 1_555 1_555
C32 C21 1_555 1_555
H25 C32 1_555 1_555
C1 C10 1_555 1_555
C2 C19 1_555 1_555
C4 C19 1_555 1_555
C6 C13 1_555 1_555
C12 C13 1_555 1_555
C15 C23 1_555 1_555
C17 C19 1_555 1_555
C20 C24 1_555 1_555
C22 C27 1_555 1_555
C26 C28 1_555 1_555
C29 C32 1_555 1_555
C30 C31 1_555 1_555

#END
