
#######################################################################
#
#                 Cambridge Crystallographic Data Centre
#                                CCDC 
#
#######################################################################
#
# If this CIF has been generated from an entry in the Cambridge 
# Structural Database, then it will include bibliographic, chemical, 
# crystal, experimental, refinement or atomic coordinate data resulting 
# from the CCDC's data processing and validation procedures.
#
#######################################################################

data_SAVTAM
_chemical_formula_moiety         'C24 H26 Cl1 N1 O3 S1'
_chemical_name_systematic        
(8-(Chloro((4-methylphenyl)sulfinyl)methyl)-1,4-dioxaspiro[4.5]dec-8-yl)(phenyl)acetonitrile
_symmetry_cell_setting           monoclinic
_symmetry_space_group_name_H-M   'P 21/n'
_symmetry_Int_Tables_number      14
_space_group_name_Hall           '-P 2yn'
loop_
_symmetry_equiv_pos_site_id
_symmetry_equiv_pos_as_xyz
1 x,y,z
2 1/2-x,1/2+y,1/2-z
3 -x,-y,-z
4 1/2+x,1/2-y,1/2+z
_cell_length_a                   11.0600(12)
_cell_length_b                   13.5162(15)
_cell_length_c                   14.9278(17)
_cell_angle_alpha                90
_cell_angle_beta                 105.227(2)
_cell_angle_gamma                90
_cell_volume                     2153.2
_exptl_crystal_colour            colorless
_exptl_crystal_description       block
_cell_formula_units_Z            4
loop_
_atom_site_label
_atom_site_type_symbol
_atom_site_fract_x
_atom_site_fract_y
_atom_site_fract_z
S1 S 1.06697(4) 0.70359(4) 0.19203(3)
Cl1 Cl 1.04509(4) 0.67191(4) -0.00640(3)
O1 O 0.66302(11) 0.97546(9) -0.01439(9)
O2 O 0.83517(11) 1.06956(9) -0.00524(9)
C1 C 1.31813(17) 0.67960(14) 0.20856(13)
H1 H 1.3002 0.6111 0.1990
C2 C 1.22237(16) 0.74673(14) 0.20255(11)
C3 C 0.81317(16) 0.82963(13) 0.11932(12)
H2 H 0.7214 0.8266 0.1106
H3 H 0.8538 0.8088 0.1838
C4 C 0.99386(16) 0.74911(14) 0.07294(11)
H4 H 1.0265 0.8173 0.0678
O3 O 1.06966(13) 0.59412(11) 0.18694(10)
C5 C 0.79503(16) 0.79550(13) -0.04803(12)
H5 H 0.8235 0.7524 -0.0921
H6 H 0.7025 0.7916 -0.0634
C6 C 0.84961(15) 0.75577(13) 0.05165(12)
C7 C 0.79456(16) 0.64883(14) 0.06229(12)
H7 H 0.8543 0.5994 0.0481
C8 C 0.83324(16) 0.90220(13) -0.06098(12)
H8 H 0.9251 0.9055 -0.0517
H9 H 0.7927 0.9239 -0.1252
C9 C 0.66593(16) 0.62733(14) -0.00303(12)
N1 N 0.77604(16) 0.61347(14) 0.23048(12)
C10 C 1.24737(18) 0.84736(15) 0.21497(12)
H10 H 1.1810 0.8931 0.2111
C11 C 0.85019(16) 0.93676(13) 0.10668(12)
H11 H 0.8192 0.9802 0.1493
H12 H 0.9427 0.9422 0.1228
C12 C 0.65927(16) 0.57514(14) -0.08392(12)
H13 H 0.7340 0.5534 -0.0978
C13 C 0.43449(17) 0.58549(15) -0.12501(14)
H14 H 0.3556 0.5714 -0.1670
C14 C 0.79564(15) 0.97089(13) 0.00684(12)
C15 C 0.54395(18) 0.55441(15) -0.14477(13)
H15 H 0.5400 0.5187 -0.2003
C16 C 1.44142(17) 0.71331(15) 0.22874(13)
H16 H 1.5077 0.6672 0.2336
C17 C 1.46873(17) 0.81318(15) 0.24181(13)
C18 C 0.63169(17) 1.07058(15) 0.01470(15)
H17 H 0.6139 1.0664 0.0762
H18 H 0.5572 1.0980 -0.0306
C19 C 0.78802(17) 0.63003(15) 0.15850(14)
C20 C 0.55569(17) 0.65816(15) 0.01689(14)
H19 H 0.5594 0.6937 0.0724
C21 C 1.60194(19) 0.85140(19) 0.26701(15)
H20 H 1.6601 0.7957 0.2720
H21 H 1.6191 0.8862 0.3266
H22 H 1.6130 0.8970 0.2188
C22 C 1.37001(18) 0.88030(16) 0.23302(13)
H23 H 1.3873 0.9492 0.2395
C23 C 0.74621(17) 1.13463(15) 0.01969(14)
H24 H 0.7250 1.1907 -0.0243
H25 H 0.7802 1.1611 0.0832
C24 C 0.44033(17) 0.63709(15) -0.04413(14)
H26 H 0.3653 0.6582 -0.0302
loop_
_geom_bond_atom_site_label_1
_geom_bond_atom_site_label_2
_geom_bond_site_symmetry_1
_geom_bond_site_symmetry_2
S1 C2 1_555 1_555
Cl1 C4 1_555 1_555
O1 C14 1_555 1_555
O2 C14 1_555 1_555
C1 H1 1_555 1_555
C2 C1 1_555 1_555
C3 H2 1_555 1_555
H3 C3 1_555 1_555
C4 S1 1_555 1_555
H4 C4 1_555 1_555
O3 S1 1_555 1_555
C5 H5 1_555 1_555
H6 C5 1_555 1_555
C6 C3 1_555 1_555
C7 C6 1_555 1_555
H7 C7 1_555 1_555
C8 C5 1_555 1_555
H8 C8 1_555 1_555
H9 C8 1_555 1_555
C9 C7 1_555 1_555
N1 C19 1_555 1_555
C10 C2 1_555 1_555
H10 C10 1_555 1_555
C11 C3 1_555 1_555
H11 C11 1_555 1_555
H12 C11 1_555 1_555
C12 C9 1_555 1_555
H13 C12 1_555 1_555
C13 H14 1_555 1_555
C14 C8 1_555 1_555
C15 C12 1_555 1_555
H15 C15 1_555 1_555
C16 C1 1_555 1_555
H16 C16 1_555 1_555
C17 C16 1_555 1_555
C18 O1 1_555 1_555
H17 C18 1_555 1_555
H18 C18 1_555 1_555
C19 C7 1_555 1_555
C20 C9 1_555 1_555
H19 C20 1_555 1_555
C21 C17 1_555 1_555
H20 C21 1_555 1_555
H21 C21 1_555 1_555
H22 C21 1_555 1_555
C22 C10 1_555 1_555
H23 C22 1_555 1_555
C23 O2 1_555 1_555
H24 C23 1_555 1_555
H25 C23 1_555 1_555
C24 C13 1_555 1_555
H26 C24 1_555 1_555
C4 C6 1_555 1_555
C5 C6 1_555 1_555
C11 C14 1_555 1_555
C13 C15 1_555 1_555
C17 C22 1_555 1_555
C18 C23 1_555 1_555
C20 C24 1_555 1_555

#END
