
#######################################################################
#
#                 Cambridge Crystallographic Data Centre
#                                CCDC 
#
#######################################################################
#
# If this CIF has been generated from an entry in the Cambridge 
# Structural Database, then it will include bibliographic, chemical, 
# crystal, experimental, refinement or atomic coordinate data resulting 
# from the CCDC's data processing and validation procedures.
#
#######################################################################

data_SAVZEW
_chemical_formula_moiety         'C24 H26 Br2 O4'
_chemical_name_systematic        
3,6-bis(3-bromopropyl)-4,5-dimethoxy-9,10-dihydroanthracene-1,8-dicarbaldehyde
_symmetry_cell_setting           triclinic
_symmetry_space_group_name_H-M   'P -1'
_symmetry_Int_Tables_number      2
_space_group_name_Hall           '-P 1'
loop_
_symmetry_equiv_pos_site_id
_symmetry_equiv_pos_as_xyz
1 x,y,z
2 -x,-y,-z
_cell_length_a                   7.6246(11)
_cell_length_b                   9.7269(14)
_cell_length_c                   15.411(2)
_cell_angle_alpha                78.804(2)
_cell_angle_beta                 82.453(2)
_cell_angle_gamma                89.762(2)
_cell_volume                     1111.21
_exptl_crystal_colour            yellow
_exptl_crystal_description       block
_cell_formula_units_Z            2
loop_
_atom_site_label
_atom_site_type_symbol
_atom_site_fract_x
_atom_site_fract_y
_atom_site_fract_z
Br1 Br 0.19375(10) 0.80053(7) 0.02007(4)
Br2 Br 0.24090(10) 0.41113(7) 1.02579(4)
C1 C 0.3110(7) 1.3075(5) 0.3717(3)
H1 H 0.3107 1.3745 0.3197
C2 C 0.3510(7) 1.0840(5) 0.7094(3)
H2 H 0.3791 1.1589 0.6619
C3 C 0.2983(6) 0.9481(5) 0.6886(3)
C4 C 0.2764(6) 0.8330(5) 0.7565(3)
H3 H 0.3000 0.8418 0.8128
C5 C 0.2200(6) 0.7031(5) 0.7438(3)
C6 C 0.1876(6) 0.6970(4) 0.6576(3)
C7 C 0.2140(6) 0.8113(4) 0.5871(3)
C8 C 0.1769(7) 0.7900(4) 0.4970(3)
H4 H 0.2580 0.7212 0.4779
H5 H 0.0579 0.7512 0.5032
C9 C 0.1931(5) 0.9197(4) 0.4251(2)
C10 C 0.1542(6) 0.9067(4) 0.3403(3)
C11 C 0.1642(6) 1.0196(5) 0.2685(3)
C12 C 0.2172(6) 1.1466(5) 0.2847(3)
H6 H 0.2256 1.2242 0.2383
C13 C 0.2584(6) 1.1643(4) 0.3667(3)
C14 C 0.2459(5) 1.0495(4) 0.4395(3)
C15 C 0.2881(6) 1.0681(4) 0.5286(3)
H7 H 0.2125 1.1400 0.5477
H8 H 0.4093 1.1027 0.5213
C16 C 0.2672(6) 0.9386(4) 0.6024(3)
C17 C 0.2383(10) 0.4744(6) 0.6149(5)
H9 H 0.1742 0.3940 0.6069
H10 H 0.3151 0.4459 0.6594
H11 H 0.3075 0.5162 0.5595
C18 C 0.2186(9) 0.6891(6) 0.2960(4)
H12 H 0.1620 0.6030 0.2921
H13 H 0.3085 0.6695 0.3346
H14 H 0.2715 0.7350 0.2376
C19 C 0.1238(6) 1.0049(5) 0.1774(3)
H15 H 0.0430 1.0775 0.1566
H16 H 0.0655 0.9149 0.1819
C20 C 0.2897(6) 1.0161(6) 0.1098(3)
H17 H 0.3449 1.1078 0.1033
H18 H 0.3727 0.9464 0.1320
C21 C 0.2523(7) 0.9951(6) 0.0205(3)
H19 H 0.3553 1.0250 -0.0231
H20 H 0.1545 1.0534 0.0030
C22 C 0.1937(7) 0.5777(6) 0.8191(3)
H21 H 0.1355 0.6071 0.8722
H22 H 0.1160 0.5101 0.8037
C23 C 0.3627(8) 0.5081(6) 0.8399(4)
H23 H 0.4367 0.5745 0.8589
H24 H 0.4245 0.4853 0.7855
C24 C 0.3410(10) 0.3753(7) 0.9114(4)
H25 H 0.4557 0.3332 0.9164
H26 H 0.2652 0.3089 0.8936
O1 O 0.3545(6) 1.3491(4) 0.4350(3)
O2 O 0.3599(6) 1.1039(5) 0.7833(3)
O3 O 0.0894(5) 0.7789(3) 0.3315(2)
O4 O 0.1166(5) 0.5738(3) 0.6429(2)
loop_
_geom_bond_atom_site_label_1
_geom_bond_atom_site_label_2
_geom_bond_site_symmetry_1
_geom_bond_site_symmetry_2
Br1 C21 1_555 1_555
Br2 C24 1_555 1_555
C1 H1 1_555 1_555
C2 H2 1_555 1_555
C3 C2 1_555 1_555
C4 C3 1_555 1_555
H3 C4 1_555 1_555
C5 C4 1_555 1_555
C6 C5 1_555 1_555
C7 C6 1_555 1_555
C8 C7 1_555 1_555
H4 C8 1_555 1_555
H5 C8 1_555 1_555
C9 C8 1_555 1_555
C10 C9 1_555 1_555
C11 C10 1_555 1_555
C12 C11 1_555 1_555
H6 C12 1_555 1_555
C13 C1 1_555 1_555
C14 C9 1_555 1_555
C15 C14 1_555 1_555
H7 C15 1_555 1_555
H8 C15 1_555 1_555
C16 C3 1_555 1_555
C17 H9 1_555 1_555
H10 C17 1_555 1_555
H11 C17 1_555 1_555
C18 H12 1_555 1_555
H13 C18 1_555 1_555
H14 C18 1_555 1_555
C19 C11 1_555 1_555
H15 C19 1_555 1_555
H16 C19 1_555 1_555
C20 C19 1_555 1_555
H17 C20 1_555 1_555
H18 C20 1_555 1_555
C21 C20 1_555 1_555
H19 C21 1_555 1_555
H20 C21 1_555 1_555
C22 C5 1_555 1_555
H21 C22 1_555 1_555
H22 C22 1_555 1_555
C23 C22 1_555 1_555
H23 C23 1_555 1_555
H24 C23 1_555 1_555
C24 C23 1_555 1_555
H25 C24 1_555 1_555
H26 C24 1_555 1_555
O1 C1 1_555 1_555
O2 C2 1_555 1_555
O3 C10 1_555 1_555
O4 C6 1_555 1_555
C7 C16 1_555 1_555
C12 C13 1_555 1_555
C13 C14 1_555 1_555
C15 C16 1_555 1_555
C17 O4 1_555 1_555
C18 O3 1_555 1_555

#END
