
#######################################################################
#
#                 Cambridge Crystallographic Data Centre
#                                CCDC 
#
#######################################################################
#
# If this CIF has been generated from an entry in the Cambridge 
# Structural Database, then it will include bibliographic, chemical, 
# crystal, experimental, refinement or atomic coordinate data resulting 
# from the CCDC's data processing and validation procedures.
#
#######################################################################

data_SAVZOG
_chemical_formula_moiety         'C22 H24 O2'
_chemical_name_systematic        
2,7-Diallyl-1,8-dimethoxy-9,10-dihydroanthracene
_symmetry_cell_setting           monoclinic
_symmetry_space_group_name_H-M   'P 21/n'
_symmetry_Int_Tables_number      14
_space_group_name_Hall           '-P 2yn'
loop_
_symmetry_equiv_pos_site_id
_symmetry_equiv_pos_as_xyz
1 x,y,z
2 1/2-x,1/2+y,1/2-z
3 -x,-y,-z
4 1/2+x,1/2-y,1/2+z
_cell_length_a                   8.5980(17)
_cell_length_b                   16.267(3)
_cell_length_c                   13.035(3)
_cell_angle_alpha                90
_cell_angle_beta                 101.15(3)
_cell_angle_gamma                90
_cell_volume                     1788.71
_exptl_crystal_colour            yellow
_exptl_crystal_description       block
_chemical_melting_point          '358-360 K'
_cell_formula_units_Z            4
loop_
_atom_site_label
_atom_site_type_symbol
_atom_site_fract_x
_atom_site_fract_y
_atom_site_fract_z
O1 O 0.2858(3) 0.36894(16) -0.13389(18)
O2 O 0.0870(3) 0.42367(16) 0.18513(19)
C1 C 0.7247(7) 0.3240(5) -0.3503(4)
H1 H 0.7516 0.2685 -0.3483
H2 H 0.7747 0.3607 -0.3880
C2 C 0.6194(6) 0.3495(4) -0.3016(4)
H3 H 0.5990 0.4056 -0.3073
C3 C 0.5266(5) 0.3048(3) -0.2386(3)
H4 H 0.5487 0.2466 -0.2433
H5 H 0.4151 0.3131 -0.2677
C4 C 0.5573(5) 0.3292(3) -0.1244(3)
C5 C 0.4382(4) 0.3605(2) -0.0766(3)
C6 C 0.4700(4) 0.3881(2) 0.0267(3)
C7 C 0.6239(4) 0.3819(2) 0.0847(3)
C8 C 0.7399(5) 0.3475(2) 0.0388(3)
H6 H 0.8414 0.3405 0.0781
C9 C 0.7079(5) 0.3233(3) -0.0638(3)
H7 H 0.7897 0.3024 -0.0935
C10 C 0.3423(4) 0.4280(3) 0.0750(3)
H8 H 0.3376 0.4861 0.0578
H9 H 0.2407 0.4039 0.0442
C11 C 0.3678(4) 0.4188(2) 0.1907(3)
C12 C 0.5213(4) 0.4106(2) 0.2495(3)
C13 C 0.6572(4) 0.4153(3) 0.1937(3)
H10 H 0.7460 0.3853 0.2340
H11 H 0.6892 0.4723 0.1912
C14 C 0.2407(4) 0.4184(2) 0.2428(3)
C15 C 0.2596(5) 0.4089(3) 0.3499(3)
C16 C 0.4129(5) 0.3998(3) 0.4059(3)
H12 H 0.4292 0.3929 0.4781
C17 C 0.5420(5) 0.4008(2) 0.3573(3)
H13 H 0.6435 0.3948 0.3970
C18 C 0.1925(5) 0.2966(3) -0.1324(4)
H14 H 0.0877 0.3060 -0.1719
H15 H 0.1865 0.2834 -0.0615
H16 H 0.2405 0.2518 -0.1627
C19 C 0.0374(5) 0.5063(3) 0.1573(3)
H17 H -0.0696 0.5058 0.1186
H18 H 0.1059 0.5298 0.1151
H19 H 0.0428 0.5384 0.2196
C20 C 0.1184(5) 0.4075(3) 0.4037(3)
H20 H 0.0436 0.4490 0.3714
H21 H 0.0666 0.3545 0.3905
C21 C 0.1510(6) 0.4212(4) 0.5137(4)
H22 H 0.1971 0.4720 0.5329
C22 C 0.1304(6) 0.3795(3) 0.5879(4)
H23 H 0.0849 0.3276 0.5767
H24 H 0.1602 0.3997 0.6556
loop_
_geom_bond_atom_site_label_1
_geom_bond_atom_site_label_2
_geom_bond_site_symmetry_1
_geom_bond_site_symmetry_2
O1 C5 1_555 1_555
O2 C14 1_555 1_555
C1 H1 1_555 1_555
H2 C1 1_555 1_555
C2 C1 1_555 1_555
H3 C2 1_555 1_555
C3 C2 1_555 1_555
H4 C3 1_555 1_555
H5 C3 1_555 1_555
C4 C3 1_555 1_555
C5 C4 1_555 1_555
C6 C5 1_555 1_555
C7 C6 1_555 1_555
C8 C7 1_555 1_555
H6 C8 1_555 1_555
C9 C4 1_555 1_555
H7 C9 1_555 1_555
C10 C6 1_555 1_555
H8 C10 1_555 1_555
H9 C10 1_555 1_555
C11 C10 1_555 1_555
C12 C11 1_555 1_555
C13 C7 1_555 1_555
H10 C13 1_555 1_555
H11 C13 1_555 1_555
C14 C11 1_555 1_555
C15 C14 1_555 1_555
C16 C15 1_555 1_555
H12 C16 1_555 1_555
C17 C12 1_555 1_555
H13 C17 1_555 1_555
C18 O1 1_555 1_555
H14 C18 1_555 1_555
H15 C18 1_555 1_555
H16 C18 1_555 1_555
C19 O2 1_555 1_555
H17 C19 1_555 1_555
H18 C19 1_555 1_555
H19 C19 1_555 1_555
C20 C15 1_555 1_555
H20 C20 1_555 1_555
H21 C20 1_555 1_555
C21 C20 1_555 1_555
H22 C21 1_555 1_555
C22 C21 1_555 1_555
H23 C22 1_555 1_555
H24 C22 1_555 1_555
C8 C9 1_555 1_555
C12 C13 1_555 1_555
C16 C17 1_555 1_555

#END
