
#######################################################################
#
#                 Cambridge Crystallographic Data Centre
#                                CCDC 
#
#######################################################################
#
# If this CIF has been generated from an entry in the Cambridge 
# Structural Database, then it will include bibliographic, chemical, 
# crystal, experimental, refinement or atomic coordinate data resulting 
# from the CCDC's data processing and validation procedures.
#
#######################################################################

data_SAWBID
_chemical_compound_source        'South China Sea sponge Acanthella cavernosa'
_chemical_name_common            'Kalihinol M'
_chemical_formula_moiety         'C22 H35 Cl1 N2 O3 S1'
_chemical_name_systematic        
N-(8-(5-(2-Chloropropan-2-yl)-2-methyltetrahydrofuran-2-yl)-1-hydroxy-5-isothiocyanato-2,5-dimethyldecahydronaphthalen-2-yl)formamide
_symmetry_cell_setting           orthorhombic
_symmetry_space_group_name_H-M   'P 21 21 21'
_symmetry_Int_Tables_number      19
_space_group_name_Hall           'P 2ac 2ab'
loop_
_symmetry_equiv_pos_site_id
_symmetry_equiv_pos_as_xyz
1 x,y,z
2 1/2+x,1/2-y,-z
3 -x,1/2+y,1/2-z
4 1/2-x,-y,1/2+z
_cell_length_a                   9.64290(10)
_cell_length_b                   15.4190(2)
_cell_length_c                   15.6278(2)
_cell_angle_alpha                90
_cell_angle_beta                 90
_cell_angle_gamma                90
_cell_volume                     2323.6
_exptl_crystal_colour            colorless
_exptl_crystal_description       block
_cell_formula_units_Z            4
loop_
_atom_site_label
_atom_site_type_symbol
_atom_site_fract_x
_atom_site_fract_y
_atom_site_fract_z
S1 S 0.04172(13) 0.83387(8) 0.17291(8)
Cl1 Cl 0.81183(9) 0.51128(5) 0.47190(6)
O1 O 0.52375(17) 0.45962(11) 0.53204(12)
O2 O 0.3383(2) 0.55081(13) 0.60787(11)
H1 H 0.4128 0.5260 0.6021
O3 O 0.1350(3) 0.8199(2) 0.6989(2)
N1 N 0.1871(3) 0.70381(18) 0.25128(16)
N2 N 0.2846(2) 0.71140(17) 0.66079(15)
C1 C 0.2514(3) 0.65588(15) 0.39410(16)
H2 H 0.3396 0.6863 0.3857
C2 C 0.1509(3) 0.72203(18) 0.43303(17)
H3 H 0.1405 0.7706 0.3941
H4 H 0.0606 0.6952 0.4401
C3 C 0.2007(3) 0.75505(16) 0.51864(18)
H5 H 0.1338 0.7959 0.5416
H6 H 0.2882 0.7852 0.5114
C4 C 0.2194(2) 0.68012(16) 0.58097(16)
C5 C 0.3236(2) 0.61497(15) 0.54309(15)
H7 H 0.4129 0.6446 0.5369
C6 C 0.2824(2) 0.57833(14) 0.45467(15)
H8 H 0.1973 0.5442 0.4613
C7 C 0.3957(3) 0.51930(16) 0.41166(16)
H9 H 0.4791 0.5551 0.4057
C8 C 0.3499(3) 0.4948(2) 0.32053(18)
H10 H 0.4231 0.4612 0.2937
H11 H 0.2684 0.4580 0.3241
C9 C 0.3169(3) 0.5719(2) 0.26443(16)
H12 H 0.2874 0.5519 0.2085
H13 H 0.3995 0.6070 0.2571
C10 C 0.2027(3) 0.62638(18) 0.30452(16)
C11 C 0.4411(3) 0.43470(15) 0.45783(17)
C12 C 0.5452(3) 0.38159(18) 0.4062(2)
H14 H 0.4981 0.3395 0.3705
H15 H 0.6014 0.4189 0.3703
C13 C 0.6336(3) 0.33679(17) 0.4731(2)
H16 H 0.7270 0.3273 0.4521
H17 H 0.5936 0.2814 0.4893
C14 C 0.6339(3) 0.39902(16) 0.54827(19)
H18 H 0.6102 0.3661 0.5999
C15 C 0.7672(3) 0.45008(19) 0.56628(19)
C16 C 0.7434(3) 0.5175(2) 0.6400(2)
H19 H 0.7194 0.4874 0.6917
H20 H 0.6695 0.5561 0.6244
H21 H 0.8269 0.5502 0.6490
C17 C 0.8901(3) 0.3853(2) 0.5857(2)
H22 H 0.8686 0.3520 0.6358
H23 H 0.9739 0.4176 0.5952
H24 H 0.9026 0.3470 0.5379
C18 C 0.3187(3) 0.37862(17) 0.4880(2)
H25 H 0.3534 0.3275 0.5158
H26 H 0.2634 0.3622 0.4395
H27 H 0.2629 0.4112 0.5274
C19 C 0.0813(3) 0.6365(2) 0.60335(19)
H28 H 0.0189 0.6789 0.6266
H29 H 0.0970 0.5917 0.6448
H30 H 0.0416 0.6117 0.5526
C20 C 0.0635(3) 0.5799(2) 0.3041(2)
H31 H 0.0406 0.5631 0.2466
H32 H -0.0069 0.6180 0.3258
H33 H 0.0689 0.5291 0.3395
C21 C 0.1226(3) 0.7577(2) 0.21910(18)
C22 C 0.2337(4) 0.7738(3) 0.7117(2)
H34 H 0.2803 0.7826 0.7630
H35 H 0.348(4) 0.677(2) 0.680(2)
loop_
_geom_bond_atom_site_label_1
_geom_bond_atom_site_label_2
_geom_bond_site_symmetry_1
_geom_bond_site_symmetry_2
S1 C21 1_555 1_555
Cl1 C15 1_555 1_555
O1 C11 1_555 1_555
O2 H1 1_555 1_555
O3 C22 1_555 1_555
N1 C10 1_555 1_555
N2 C4 1_555 1_555
C1 H2 1_555 1_555
C2 C1 1_555 1_555
H3 C2 1_555 1_555
H4 C2 1_555 1_555
C3 C2 1_555 1_555
H5 C3 1_555 1_555
H6 C3 1_555 1_555
C4 C3 1_555 1_555
C5 O2 1_555 1_555
H7 C5 1_555 1_555
C6 C1 1_555 1_555
H8 C6 1_555 1_555
C7 C6 1_555 1_555
H9 C7 1_555 1_555
C8 C7 1_555 1_555
H10 C8 1_555 1_555
H11 C8 1_555 1_555
C9 C8 1_555 1_555
H12 C9 1_555 1_555
H13 C9 1_555 1_555
C10 C1 1_555 1_555
C11 C7 1_555 1_555
C12 C11 1_555 1_555
H14 C12 1_555 1_555
H15 C12 1_555 1_555
C13 C12 1_555 1_555
H16 C13 1_555 1_555
H17 C13 1_555 1_555
C14 O1 1_555 1_555
H18 C14 1_555 1_555
C15 C14 1_555 1_555
C16 C15 1_555 1_555
H19 C16 1_555 1_555
H20 C16 1_555 1_555
H21 C16 1_555 1_555
C17 C15 1_555 1_555
H22 C17 1_555 1_555
H23 C17 1_555 1_555
H24 C17 1_555 1_555
C18 C11 1_555 1_555
H25 C18 1_555 1_555
H26 C18 1_555 1_555
H27 C18 1_555 1_555
C19 C4 1_555 1_555
H28 C19 1_555 1_555
H29 C19 1_555 1_555
H30 C19 1_555 1_555
C20 C10 1_555 1_555
H31 C20 1_555 1_555
H32 C20 1_555 1_555
H33 C20 1_555 1_555
C21 N1 1_555 1_555
C22 N2 1_555 1_555
H34 C22 1_555 1_555
H35 N2 1_555 1_555
C4 C5 1_555 1_555
C5 C6 1_555 1_555
C9 C10 1_555 1_555
C13 C14 1_555 1_555

#END
