
#######################################################################
#
#                 Cambridge Crystallographic Data Centre
#                                CCDC 
#
#######################################################################
#
# If this CIF has been generated from an entry in the Cambridge 
# Structural Database, then it will include bibliographic, chemical, 
# crystal, experimental, refinement or atomic coordinate data resulting 
# from the CCDC's data processing and validation procedures.
#
#######################################################################

data_SAWCEB
_chemical_formula_moiety         'C29 H28 N4 O4'
_chemical_name_systematic        
"diethyl 2,2'-((4-(2,2':6',2''-terpyridin-4'-yl)phenyl)imino)diacetate"
_symmetry_cell_setting           orthorhombic
_symmetry_space_group_name_H-M   'A b a 2'
_symmetry_Int_Tables_number      41
_space_group_name_Hall           'A 2 -2ab'
loop_
_symmetry_equiv_pos_site_id
_symmetry_equiv_pos_as_xyz
1 x,y,z
2 -x,-y,z
3 1/2+x,1/2-y,z
4 1/2-x,1/2+y,z
5 x,1/2+y,1/2+z
6 -x,1/2-y,1/2+z
7 1/2+x,-y,1/2+z
8 1/2-x,y,1/2+z
_cell_length_a                   11.3361(13)
_cell_length_b                   48.595(6)
_cell_length_c                   9.4566(11)
_cell_angle_alpha                90
_cell_angle_beta                 90
_cell_angle_gamma                90
_cell_volume                     5209.43
_exptl_crystal_description       needle
_cell_formula_units_Z            8
loop_
_atom_site_label
_atom_site_type_symbol
_atom_site_fract_x
_atom_site_fract_y
_atom_site_fract_z
C1 C 0.9832(3) 0.23236(8) 0.0701(5)
H1 H 1.0636 0.2352 0.0838
C2 C 0.9286(3) 0.24754(7) -0.0322(5)
H2 H 0.9702 0.2603 -0.0861
C3 C 0.8106(3) 0.24339(7) -0.0526(4)
H3 H 0.7701 0.2534 -0.1210
C4 C 0.7526(3) 0.22433(6) 0.0290(4)
H4 H 0.6723 0.2212 0.0165
C5 C 0.8151(2) 0.20979(5) 0.1304(4)
C6 C 0.7551(2) 0.18908(5) 0.2204(4)
C7 C 0.8195(2) 0.16968(6) 0.2962(4)
H5 H 0.9012 0.1691 0.2880
C8 C 0.7622(2) 0.15127(5) 0.3835(3)
C9 C 0.6393(3) 0.15302(6) 0.3906(4)
H6 H 0.5969 0.1413 0.4495
C10 C 0.5814(2) 0.17243(6) 0.3089(4)
C11 C 0.4493(2) 0.17422(6) 0.3092(4)
C12 C 0.3924(3) 0.19290(7) 0.2271(5)
H7 H 0.4354 0.2053 0.1730
C13 C 0.2704(3) 0.19351(9) 0.2239(6)
H8 H 0.2304 0.2060 0.1667
C14 C 0.2104(3) 0.17534(9) 0.3067(6)
H9 H 0.1284 0.1752 0.3089
N1 N 0.3918(2) 0.15622(7) 0.3907(4)
C15 C 0.8281(2) 0.13061(6) 0.4674(3)
C16 C 0.9418(2) 0.13596(6) 0.5160(4)
H10 H 0.9770 0.1527 0.4944
C17 C 1.0039(3) 0.11694(6) 0.5956(4)
H11 H 1.0796 0.1211 0.6266
C18 C 0.9545(3) 0.09173(6) 0.6298(4)
C19 C 0.8407(3) 0.08620(6) 0.5817(4)
H12 H 0.8054 0.0695 0.6047
C20 C 0.7798(3) 0.10480(6) 0.5015(4)
H13 H 0.7049 0.1003 0.4687
C21 C 0.9823(3) 0.04401(6) 0.7136(5)
H14 H 1.0528 0.0327 0.7173
H15 H 0.9412 0.0397 0.6264
C22 C 0.9044(3) 0.03673(7) 0.8364(5)
C23 C 0.7852(7) 0.00137(13) 0.9402(9)
H16 H 0.8197 -0.0157 0.9740
H17 H 0.7810 0.0144 1.0176
C24 C 0.6667(9) -0.0034(2) 0.8764(13)
H18 H 0.6312 0.0139 0.8532
H19 H 0.6176 -0.0130 0.9427
H20 H 0.6750 -0.0142 0.7921
C25 C 1.1202(3) 0.08071(7) 0.7869(4)
H21 H 1.1252 0.0696 0.8720
H22 H 1.1123 0.0998 0.8157
C26 C 1.2341(3) 0.07756(8) 0.7048(5)
C27 C 1.4404(6) 0.0960(2) 0.6937(10)
H23 H 1.4360 0.0959 0.5913
H24 H 1.4812 0.1123 0.7263
C28 C 1.4919(9) 0.0702(2) 0.7516(12)
H25 H 1.4824 0.0700 0.8525
H26 H 1.5743 0.0694 0.7287
H27 H 1.4523 0.0547 0.7111
N2 N 0.9294(2) 0.21376(6) 0.1520(4)
N3 N 0.6371(2) 0.19032(5) 0.2249(3)
C29 C 0.2735(3) 0.15750(9) 0.3854(6)
H28 H 0.2316 0.1450 0.4407
N4 N 1.0169(2) 0.07295(6) 0.7112(4)
O1 O 0.8879(3) 0.05024(7) 0.9388(4)
O2 O 1.2475(3) 0.06393(7) 0.6018(4)
O3 O 1.3184(3) 0.09226(9) 0.7644(4)
O4 O 0.8545(4) 0.01303(6) 0.8159(5)
loop_
_geom_bond_atom_site_label_1
_geom_bond_atom_site_label_2
_geom_bond_site_symmetry_1
_geom_bond_site_symmetry_2
C1 H1 1_555 1_555
C2 C1 1_555 1_555
H2 C2 1_555 1_555
C3 C2 1_555 1_555
H3 C3 1_555 1_555
C4 C3 1_555 1_555
H4 C4 1_555 1_555
C5 C4 1_555 1_555
C6 C5 1_555 1_555
C7 C6 1_555 1_555
H5 C7 1_555 1_555
C8 C7 1_555 1_555
C9 C8 1_555 1_555
H6 C9 1_555 1_555
C10 C9 1_555 1_555
C11 C10 1_555 1_555
C12 C11 1_555 1_555
H7 C12 1_555 1_555
C13 C12 1_555 1_555
H8 C13 1_555 1_555
C14 C13 1_555 1_555
H9 C14 1_555 1_555
N1 C11 1_555 1_555
C15 C8 1_555 1_555
C16 C15 1_555 1_555
H10 C16 1_555 1_555
C17 C16 1_555 1_555
H11 C17 1_555 1_555
C18 C17 1_555 1_555
C19 C18 1_555 1_555
H12 C19 1_555 1_555
C20 C15 1_555 1_555
H13 C20 1_555 1_555
C21 H14 1_555 1_555
H15 C21 1_555 1_555
C22 C21 1_555 1_555
C23 H16 1_555 1_555
H17 C23 1_555 1_555
C24 C23 1_555 1_555
H18 C24 1_555 1_555
H19 C24 1_555 1_555
H20 C24 1_555 1_555
C25 H21 1_555 1_555
H22 C25 1_555 1_555
C26 C25 1_555 1_555
C27 H23 1_555 1_555
H24 C27 1_555 1_555
C28 C27 1_555 1_555
H25 C28 1_555 1_555
H26 C28 1_555 1_555
H27 C28 1_555 1_555
N2 C1 1_555 1_555
N3 C6 1_555 1_555
C29 C14 1_555 1_555
H28 C29 1_555 1_555
N4 C18 1_555 1_555
O1 C22 1_555 1_555
O2 C26 1_555 1_555
O3 C26 1_555 1_555
O4 C22 1_555 1_555
C5 N2 1_555 1_555
C10 N3 1_555 1_555
N1 C29 1_555 1_555
C19 C20 1_555 1_555
C21 N4 1_555 1_555
C23 O4 1_555 1_555
C25 N4 1_555 1_555
C27 O3 1_555 1_555

#END
