
#######################################################################
#
#                 Cambridge Crystallographic Data Centre
#                                CCDC 
#
#######################################################################
#
# If this CIF has been generated from an entry in the Cambridge 
# Structural Database, then it will include bibliographic, chemical, 
# crystal, experimental, refinement or atomic coordinate data resulting 
# from the CCDC's data processing and validation procedures.
#
#######################################################################

data_SAWCAW
_chemical_compound_source        'South China Sea sponge Acanthella cavernosa'
_chemical_name_common            'Kalihinol P'
_chemical_formula_moiety         'C22 H33 Cl1 N2 O2 S1'
_chemical_name_systematic        
8-(5-Chloro-2,6,6-trimethyltetrahydro-2H-pyran-2-yl)-1-isothiocyanato-5-isocyano-2,5-dimethyldecahydronaphthalen-2-ol
_symmetry_cell_setting           orthorhombic
_symmetry_space_group_name_H-M   'P 21 21 21'
_symmetry_Int_Tables_number      19
_space_group_name_Hall           'P 2ac 2ab'
loop_
_symmetry_equiv_pos_site_id
_symmetry_equiv_pos_as_xyz
1 x,y,z
2 1/2-x,-y,1/2+z
3 -x,1/2+y,1/2-z
4 1/2+x,1/2-y,-z
_cell_length_a                   14.49390(10)
_cell_length_b                   16.90950(10)
_cell_length_c                   19.3080(2)
_cell_angle_alpha                90
_cell_angle_beta                 90
_cell_angle_gamma                90
_cell_volume                     4732.09
_exptl_crystal_colour            colorless
_exptl_crystal_description       block
_cell_formula_units_Z            8
loop_
_atom_site_label
_atom_site_type_symbol
_atom_site_fract_x
_atom_site_fract_y
_atom_site_fract_z
Cl1 Cl 1.03018(5) 0.60420(5) 0.97370(4)
S1 S 0.68062(8) 0.54100(10) 0.76643(4)
O1 O 0.76578(11) 0.53391(9) 0.97253(8)
O2 O 0.47318(12) 0.56348(9) 1.05718(8)
H1 H 0.5103 0.5952 1.0732
N1 N 0.4490(3) 0.26733(15) 0.91783(14)
N2 N 0.58493(16) 0.54311(12) 0.88815(10)
C1 C 0.50646(19) 0.39625(14) 0.94926(12)
H2 H 0.5091 0.4048 0.8991
C2 C 0.41344(19) 0.42763(15) 0.97374(15)
H3 H 0.3646 0.3968 0.9524
H4 H 0.4088 0.4208 1.0235
C3 C 0.39941(19) 0.51434(16) 0.95624(14)
H5 H 0.3952 0.5202 0.9064
H6 H 0.3415 0.5321 0.9761
C4 C 0.47696(16) 0.56601(13) 0.98306(11)
C5 C 0.57169(16) 0.53281(12) 0.96196(11)
H7 H 0.6191 0.5638 0.9859
C6 C 0.58621(16) 0.44460(12) 0.98140(11)
H8 H 0.5790 0.4410 1.0318
C7 C 0.68411(18) 0.41351(12) 0.96441(12)
H9 H 0.6940 0.4224 0.9148
C8 C 0.6876(2) 0.32335(15) 0.97616(18)
H10 H 0.7470 0.3035 0.9607
H11 H 0.6825 0.3126 1.0254
C9 C 0.6127(3) 0.28020(16) 0.93872(18)
H12 H 0.6191 0.2239 0.9472
H13 H 0.6194 0.2890 0.8893
C10 C 0.5171(2) 0.30662(14) 0.96123(14)
C11 C 0.76424(17) 0.45566(13) 1.00306(11)
C12 C 0.85635(19) 0.41530(15) 0.98719(16)
H14 H 0.8609 0.3672 1.0143
H15 H 0.8577 0.4006 0.9386
C13 C 0.9389(2) 0.46727(18) 1.00279(16)
H16 H 0.9418 0.4783 1.0520
H17 H 0.9953 0.4404 0.9894
C14 C 0.92920(17) 0.54281(16) 0.96308(13)
H18 H 0.9251 0.5289 0.9139
C15 C 0.84163(18) 0.58828(14) 0.98167(13)
C16 C 0.8450(2) 0.6241(2) 1.05425(17)
H19 H 0.7885 0.6519 1.0633
H20 H 0.8960 0.6602 1.0573
H21 H 0.8527 0.5827 1.0878
C17 C 0.8210(2) 0.65220(17) 0.92885(19)
H22 H 0.8190 0.6293 0.8834
H23 H 0.8684 0.6918 0.9305
H24 H 0.7625 0.6760 0.9392
C18 C 0.7468(2) 0.4590(2) 1.08112(13)
H25 H 0.7974 0.4853 1.1034
H26 H 0.7413 0.4062 1.0990
H27 H 0.6907 0.4876 1.0899
C19 C 0.4655(2) 0.65142(15) 0.95966(15)
H28 H 0.4059 0.6704 0.9735
H29 H 0.4708 0.6542 0.9102
H30 H 0.5126 0.6835 0.9805
C20 C 0.4959(2) 0.28147(16) 1.03585(14)
H31 H 0.5036 0.2253 1.0402
H32 H 0.4335 0.2954 1.0471
H33 H 0.5373 0.3079 1.0670
C21 C 0.3965(5) 0.2349(3) 0.8835(2)
C22 C 0.62760(19) 0.54195(17) 0.83757(13)
Cl2 Cl 0.45260(9) 0.26789(6) 0.68740(8)
S2 S 0.16637(7) 0.39811(7) 0.91718(5)
O3 O 0.26950(12) 0.44181(9) 0.71800(9)
O4 O 0.00454(13) 0.56523(10) 0.64999(8)
H34 H 0.0182 0.5272 0.6257
N3 N 0.15041(16) 0.78432(12) 0.84092(12)
N4 N 0.10763(15) 0.49067(11) 0.80947(10)
C23 C 0.12786(15) 0.66220(12) 0.78134(11)
H35 H 0.1216 0.6407 0.8283
C24 C 0.03046(17) 0.68258(14) 0.75644(13)
H36 H 0.0059 0.7253 0.7844
H37 H 0.0331 0.7005 0.7088
C25 C -0.03253(18) 0.61206(16) 0.76141(14)
H38 H -0.0930 0.6264 0.7439
H39 H -0.0393 0.5971 0.8096
C26 C 0.00380(16) 0.54192(14) 0.72075(11)
C27 C 0.10419(15) 0.52367(12) 0.74067(10)
H40 H 0.1273 0.4835 0.7085
C28 C 0.16935(14) 0.59569(11) 0.73627(10)
H41 H 0.1684 0.6142 0.6882
C29 C 0.27051(16) 0.57485(12) 0.75396(11)
H42 H 0.2697 0.5499 0.7998
C30 C 0.32860(18) 0.65104(15) 0.76095(17)
H43 H 0.3900 0.6373 0.7769
H44 H 0.3345 0.6758 0.7158
C31 C 0.28591(19) 0.70930(16) 0.81100(18)
H45 H 0.3256 0.7552 0.8151
H46 H 0.2809 0.6850 0.8564
C32 C 0.19069(18) 0.73542(13) 0.78696(13)
C33 C 0.31756(16) 0.51503(13) 0.70373(12)
C34 C 0.41901(19) 0.50390(18) 0.72324(17)
H47 H 0.4544 0.5484 0.7059
H48 H 0.4247 0.5034 0.7733
C35 C 0.4592(2) 0.4273(2) 0.69398(18)
H49 H 0.4599 0.4295 0.6438
H50 H 0.5221 0.4204 0.7101
C36 C 0.4010(2) 0.35919(19) 0.71759(19)
H51 H 0.4010 0.3586 0.7683
C37 C 0.3021(2) 0.36593(15) 0.69316(17)
C38 C 0.2393(3) 0.30753(17) 0.7311(2)
H52 H 0.2478 0.3131 0.7802
H53 H 0.2546 0.2545 0.7175
H54 H 0.1761 0.3183 0.7195
C39 C 0.2875(3) 0.35603(19) 0.61557(19)
H55 H 0.3266 0.3923 0.5910
H56 H 0.2242 0.3666 0.6044
H57 H 0.3027 0.3029 0.6023
C40 C 0.3067(2) 0.54054(16) 0.62806(13)
H58 H 0.3363 0.5026 0.5985
H59 H 0.3346 0.5915 0.6216
H60 H 0.2423 0.5435 0.6167
C41 C -0.0569(2) 0.46938(18) 0.73133(16)
H61 H -0.1193 0.4818 0.7187
H62 H -0.0550 0.4538 0.7791
H63 H -0.0348 0.4268 0.7029
C42 C 0.1935(3) 0.78514(16) 0.72067(16)
H64 H 0.2336 0.8297 0.7274
H65 H 0.1325 0.8035 0.7099
H66 H 0.2162 0.7534 0.6831
C43 C 0.1140(2) 0.82104(16) 0.88252(16)
C44 C 0.13376(17) 0.45009(15) 0.85347(14)
loop_
_geom_bond_atom_site_label_1
_geom_bond_atom_site_label_2
_geom_bond_site_symmetry_1
_geom_bond_site_symmetry_2
Cl1 C14 1_555 1_555
S1 C22 1_555 1_555
O1 C11 1_555 1_555
O2 H1 1_555 1_555
N1 C10 1_555 1_555
N2 C5 1_555 1_555
C1 H2 1_555 1_555
C2 C1 1_555 1_555
H3 C2 1_555 1_555
H4 C2 1_555 1_555
C3 C2 1_555 1_555
H5 C3 1_555 1_555
H6 C3 1_555 1_555
C4 O2 1_555 1_555
C5 C4 1_555 1_555
H7 C5 1_555 1_555
C6 C1 1_555 1_555
H8 C6 1_555 1_555
C7 C6 1_555 1_555
H9 C7 1_555 1_555
C8 C7 1_555 1_555
H10 C8 1_555 1_555
H11 C8 1_555 1_555
C9 C8 1_555 1_555
H12 C9 1_555 1_555
H13 C9 1_555 1_555
C10 C1 1_555 1_555
C11 C7 1_555 1_555
C12 C11 1_555 1_555
H14 C12 1_555 1_555
H15 C12 1_555 1_555
C13 C12 1_555 1_555
H16 C13 1_555 1_555
H17 C13 1_555 1_555
C14 C13 1_555 1_555
H18 C14 1_555 1_555
C15 O1 1_555 1_555
C16 C15 1_555 1_555
H19 C16 1_555 1_555
H20 C16 1_555 1_555
H21 C16 1_555 1_555
C17 C15 1_555 1_555
H22 C17 1_555 1_555
H23 C17 1_555 1_555
H24 C17 1_555 1_555
C18 C11 1_555 1_555
H25 C18 1_555 1_555
H26 C18 1_555 1_555
H27 C18 1_555 1_555
C19 C4 1_555 1_555
H28 C19 1_555 1_555
H29 C19 1_555 1_555
H30 C19 1_555 1_555
C20 C10 1_555 1_555
H31 C20 1_555 1_555
H32 C20 1_555 1_555
H33 C20 1_555 1_555
C21 N1 1_555 1_555
C22 N2 1_555 1_555
Cl2 C36 1_555 1_555
S2 C44 1_555 1_555
O3 C33 1_555 1_555
O4 H34 1_555 1_555
N3 C32 1_555 1_555
N4 C27 1_555 1_555
C23 H35 1_555 1_555
C24 C23 1_555 1_555
H36 C24 1_555 1_555
H37 C24 1_555 1_555
C25 C24 1_555 1_555
H38 C25 1_555 1_555
H39 C25 1_555 1_555
C26 O4 1_555 1_555
C27 C26 1_555 1_555
H40 C27 1_555 1_555
C28 C23 1_555 1_555
H41 C28 1_555 1_555
C29 C28 1_555 1_555
H42 C29 1_555 1_555
C30 C29 1_555 1_555
H43 C30 1_555 1_555
H44 C30 1_555 1_555
C31 C30 1_555 1_555
H45 C31 1_555 1_555
H46 C31 1_555 1_555
C32 C23 1_555 1_555
C33 C29 1_555 1_555
C34 C33 1_555 1_555
H47 C34 1_555 1_555
H48 C34 1_555 1_555
C35 C34 1_555 1_555
H49 C35 1_555 1_555
H50 C35 1_555 1_555
C36 C35 1_555 1_555
H51 C36 1_555 1_555
C37 O3 1_555 1_555
C38 C37 1_555 1_555
H52 C38 1_555 1_555
H53 C38 1_555 1_555
H54 C38 1_555 1_555
C39 C37 1_555 1_555
H55 C39 1_555 1_555
H56 C39 1_555 1_555
H57 C39 1_555 1_555
C40 C33 1_555 1_555
H58 C40 1_555 1_555
H59 C40 1_555 1_555
H60 C40 1_555 1_555
C41 C26 1_555 1_555
H61 C41 1_555 1_555
H62 C41 1_555 1_555
H63 C41 1_555 1_555
C42 C32 1_555 1_555
H64 C42 1_555 1_555
H65 C42 1_555 1_555
H66 C42 1_555 1_555
C43 N3 1_555 1_555
C44 N4 1_555 1_555
C3 C4 1_555 1_555
C5 C6 1_555 1_555
C9 C10 1_555 1_555
C14 C15 1_555 1_555
C25 C26 1_555 1_555
C27 C28 1_555 1_555
C31 C32 1_555 1_555
C36 C37 1_555 1_555

#END
