
#######################################################################
#
#                 Cambridge Crystallographic Data Centre
#                                CCDC 
#
#######################################################################
#
# If this CIF has been generated from an entry in the Cambridge 
# Structural Database, then it will include bibliographic, chemical, 
# crystal, experimental, refinement or atomic coordinate data resulting 
# from the CCDC's data processing and validation procedures.
#
#######################################################################

data_SAWDOK
_chemical_formula_moiety         'C27 H20'
_chemical_name_systematic        1,1,3,3-Tetraphenyl-1,2-propadiene
_symmetry_cell_setting           monoclinic
_symmetry_space_group_name_H-M   'P 21/c'
_symmetry_Int_Tables_number      14
_space_group_name_Hall           '-P 2ybc'
loop_
_symmetry_equiv_pos_site_id
_symmetry_equiv_pos_as_xyz
1 x,y,z
2 -x,1/2+y,1/2-z
3 -x,-y,-z
4 x,1/2-y,1/2+z
_cell_length_a                   12.1405(1)
_cell_length_b                   8.4186(1)
_cell_length_c                   19.2201(2)
_cell_angle_alpha                90
_cell_angle_beta                 101.0624(5)
_cell_angle_gamma                90
_cell_volume                     1927.91
_exptl_crystal_colour            colorless
_exptl_crystal_description       block
_chemical_melting_point          165-166deg.C
_cell_formula_units_Z            4
loop_
_atom_site_label
_atom_site_type_symbol
_atom_site_fract_x
_atom_site_fract_y
_atom_site_fract_z
C1 C 0.36382(10) 0.31910(15) 0.07873(7)
C2 C 0.27253(11) 0.37971(17) 0.09535(7)
C3 C 0.18151(10) 0.45166(17) 0.10687(6)
C4 C 0.46814(11) 0.31334(15) 0.13516(7)
C5 C 0.55877(12) 0.41208(19) 0.13254(8)
H1 H 0.5562 0.4814 0.0926
C6 C 0.65190(13) 0.4113(2) 0.18699(10)
H2 H 0.7148 0.4790 0.1849
C7 C 0.65634(16) 0.3132(3) 0.24372(9)
H3 H 0.7205 0.3150 0.2817
C8 C 0.56804(16) 0.2149(3) 0.24717(9)
H4 H 0.5704 0.1444 0.2867
C9 C 0.47383(13) 0.2145(2) 0.19319(8)
H5 H 0.4121 0.1450 0.1958
C10 C 0.36265(11) 0.25769(15) 0.00598(7)
C11 C 0.45894(12) 0.20017(17) -0.01433(8)
H6 H 0.5288 0.2019 0.0190
C12 C 0.45515(15) 0.1405(2) -0.08183(9)
H7 H 0.5221 0.1020 -0.0958
C13 C 0.35629(16) 0.1353(2) -0.12978(9)
H8 H 0.3540 0.0928 -0.1764
C14 C 0.25985(15) 0.1920(2) -0.11047(9)
H9 H 0.1901 0.1867 -0.1438
C15 C 0.26297(13) 0.2538(2) -0.04405(8)
H10 H 0.1956 0.2971 -0.0324
C16 C 0.16505(10) 0.62389(17) 0.08968(6)
C17 C 0.23739(12) 0.70335(19) 0.05393(8)
H11 H 0.2974 0.6469 0.0388
C18 C 0.22464(14) 0.8630(2) 0.03873(10)
H12 H 0.2762 0.9149 0.0140
C19 C 0.13921(15) 0.9474(2) 0.05851(11)
H13 H 0.1299 1.0587 0.0483
C20 C 0.06696(16) 0.8716(2) 0.09358(11)
H14 H 0.0074 0.9307 0.1079
C21 C 0.07913(13) 0.7115(2) 0.10970(8)
H15 H 0.0270 0.6599 0.1340
C22 C 0.09690(11) 0.35847(19) 0.13727(7)
C23 C -0.01589(12) 0.3570(2) 0.10569(8)
H16 H -0.0415 0.4188 0.0638
C24 C -0.09201(13) 0.2682(2) 0.13475(10)
H17 H -0.1697 0.2660 0.1122
C25 C -0.05757(15) 0.1803(2) 0.19477(10)
H18 H -0.1109 0.1218 0.2156
C26 C 0.05367(15) 0.1775(2) 0.22540(9)
H19 H 0.0780 0.1126 0.2666
C27 C 0.13029(13) 0.2662(2) 0.19721(8)
H20 H 0.2079 0.2643 0.2200
loop_
_geom_bond_atom_site_label_1
_geom_bond_atom_site_label_2
_geom_bond_site_symmetry_1
_geom_bond_site_symmetry_2
C1 C2 1_555 1_555
C2 C3 1_555 1_555
C3 C16 1_555 1_555
C4 C1 1_555 1_555
C5 C4 1_555 1_555
H1 C5 1_555 1_555
C6 C5 1_555 1_555
H2 C6 1_555 1_555
C7 C6 1_555 1_555
H3 C7 1_555 1_555
C8 C7 1_555 1_555
H4 C8 1_555 1_555
C9 C4 1_555 1_555
H5 C9 1_555 1_555
C10 C1 1_555 1_555
C11 C10 1_555 1_555
H6 C11 1_555 1_555
C12 C11 1_555 1_555
H7 C12 1_555 1_555
C13 C12 1_555 1_555
H8 C13 1_555 1_555
C14 C13 1_555 1_555
H9 C14 1_555 1_555
C15 C10 1_555 1_555
H10 C15 1_555 1_555
C16 C17 1_555 1_555
C17 H11 1_555 1_555
C18 C17 1_555 1_555
H12 C18 1_555 1_555
C19 C18 1_555 1_555
H13 C19 1_555 1_555
C20 C19 1_555 1_555
H14 C20 1_555 1_555
C21 C16 1_555 1_555
H15 C21 1_555 1_555
C22 C3 1_555 1_555
C23 C22 1_555 1_555
H16 C23 1_555 1_555
C24 C23 1_555 1_555
H17 C24 1_555 1_555
C25 C24 1_555 1_555
H18 C25 1_555 1_555
C26 C25 1_555 1_555
H19 C26 1_555 1_555
C27 C22 1_555 1_555
H20 C27 1_555 1_555
C8 C9 1_555 1_555
C14 C15 1_555 1_555
C20 C21 1_555 1_555
C26 C27 1_555 1_555

#END
