
#######################################################################
#
#                 Cambridge Crystallographic Data Centre
#                                CCDC 
#
#######################################################################
#
# If this CIF has been generated from an entry in the Cambridge 
# Structural Database, then it will include bibliographic, chemical, 
# crystal, experimental, refinement or atomic coordinate data resulting 
# from the CCDC's data processing and validation procedures.
#
#######################################################################

data_SAWFOM
_chemical_formula_moiety         'C16 H23 N3 O6'
_chemical_name_systematic        
'Diethyl 1-(1-anilino-2-ethoxy-2-oxoethyl)-1,2-hydrazinedicarboxylate'
_symmetry_cell_setting           monoclinic
_symmetry_space_group_name_H-M   'C c'
_symmetry_Int_Tables_number      9
_space_group_name_Hall           'C -2yc'
loop_
_symmetry_equiv_pos_site_id
_symmetry_equiv_pos_as_xyz
1 x,y,z
2 x,-y,1/2+z
3 1/2+x,1/2+y,z
4 1/2+x,1/2-y,1/2+z
_cell_length_a                   9.514(1)
_cell_length_b                   21.178(3)
_cell_length_c                   9.742(1)
_cell_angle_alpha                90
_cell_angle_beta                 109.441(9)
_cell_angle_gamma                90
_cell_volume                     1850.98
_cell_formula_units_Z            4
loop_
_atom_site_label
_atom_site_type_symbol
_atom_site_fract_x
_atom_site_fract_y
_atom_site_fract_z
O1 O 0.5008(2) 0.19710(10) 0.5184(2)
O2 O 0.3170(3) 0.20985(13) 0.3056(3)
O3 O 0.1799(2) 0.18298(10) 0.7895(2)
O4 O 0.3587(3) 0.25592(9) 0.8169(2)
O5 O 0.0152(3) 0.09523(9) 0.3982(3)
O6 O 0.2598(3) 0.09725(10) 0.5346(3)
N1 N 0.2029(3) 0.30517(12) 0.4175(3)
N2 N 0.2234(3) 0.22148(11) 0.5930(2)
N3 N 0.1098(3) 0.18284(11) 0.5089(3)
C1 C 0.1742(4) 0.37832(14) 0.6002(3)
H1 H 0.2448 0.3564 0.6743
C2 C 0.1064(4) 0.43214(14) 0.6322(4)
H2 H 0.1320 0.4459 0.7281
C3 C 0.0021(4) 0.46526(16) 0.5234(4)
H3 H -0.0416 0.5015 0.5452
C4 C -0.0364(4) 0.44407(16) 0.3829(4)
H4 H -0.1086 0.4655 0.3092
C5 C 0.0312(4) 0.39102(14) 0.3495(3)
H5 H 0.0056 0.3778 0.2532
C6 C 0.1358(3) 0.35765(13) 0.4571(3)
C7 C 0.2988(4) 0.26246(12) 0.5166(3)
H6 H 0.3769 0.2865 0.5890
C8 C 0.3713(4) 0.22031(14) 0.4326(4)
C9 C 0.5725(4) 0.15135(18) 0.4518(5)
H7 H 0.5868 0.1696 0.3661
H8 H 0.5099 0.1142 0.4222
C10 C 0.7180(5) 0.1334(2) 0.5583(5)
H9 H 0.7768 0.1707 0.5923
H10 H 0.7693 0.1058 0.5126
H11 H 0.7027 0.1121 0.6391
C11 C 0.2612(3) 0.22232(13) 0.7411(3)
C12 C 0.2212(4) 0.18111(16) 0.9485(4)
H12 H 0.2137 0.2229 0.9863
H13 H 0.3228 0.1662 0.9921
C13 C 0.1159(6) 0.1372(2) 0.9820(5)
H14 H 0.0157 0.1480 0.9239
H15 H 0.1266 0.1404 1.0832
H16 H 0.1371 0.0947 0.9604
C14 C 0.1412(4) 0.12201(14) 0.4847(3)
C15 C 0.0088(7) 0.02776(14) 0.3702(5)
H17 H -0.0907 0.0116 0.3545
H18 H 0.0787 0.0053 0.4511
C16 C 0.0498(9) 0.0208(3) 0.2368(6)
H19 H -0.0174 0.0452 0.1595
H20 H 0.0435 -0.0228 0.2089
H21 H 0.1498 0.0357 0.2556
H22 H 0.160(3) 0.2909(13) 0.3319(17)
H23 H 0.028(2) 0.2027(15) 0.465(4)
C17? C 0.0715(15) 0.0365(6) 0.3558(16)
H24? H 0.0901 0.0063 0.4347
H25? H 0.1658 0.0451 0.3414
C18? C -0.032(2) 0.0078(7) 0.2215(14)
H26? H 0.0114 -0.0304 0.1999
H27? H -0.0488 0.0369 0.1420
H28? H -0.1247 -0.0019 0.2354
H29? H -0.1194 0.0335 0.1850
H30? H -0.0592 -0.0338 0.2428
H31? H 0.0166 0.0050 0.1495
loop_
_geom_bond_atom_site_label_1
_geom_bond_atom_site_label_2
_geom_bond_site_symmetry_1
_geom_bond_site_symmetry_2
O1 C8 1_555 1_555
O2 C8 1_555 1_555
O3 C11 1_555 1_555
O4 C11 1_555 1_555
O5 C14 1_555 1_555
O6 C14 1_555 1_555
N1 C6 1_555 1_555
N2 N3 1_555 1_555
N3 C14 1_555 1_555
C1 H1 1_555 1_555
C2 C1 1_555 1_555
H2 C2 1_555 1_555
C3 C2 1_555 1_555
H3 C3 1_555 1_555
C4 C3 1_555 1_555
H4 C4 1_555 1_555
C5 C4 1_555 1_555
H5 C5 1_555 1_555
C6 C1 1_555 1_555
C7 N1 1_555 1_555
H6 C7 1_555 1_555
C8 C7 1_555 1_555
C9 O1 1_555 1_555
H7 C9 1_555 1_555
H8 C9 1_555 1_555
C10 C9 1_555 1_555
H9 C10 1_555 1_555
H10 C10 1_555 1_555
H11 C10 1_555 1_555
C11 N2 1_555 1_555
C12 O3 1_555 1_555
H12 C12 1_555 1_555
H13 C12 1_555 1_555
C13 C12 1_555 1_555
H14 C13 1_555 1_555
H15 C13 1_555 1_555
H16 C13 1_555 1_555
C15 O5 1_555 1_555
H17 C15 1_555 1_555
H18 C15 1_555 1_555
C16 C15 1_555 1_555
H19 C16 1_555 1_555
H20 C16 1_555 1_555
H21 C16 1_555 1_555
H22 N1 1_555 1_555
H23 N3 1_555 1_555
N2 C7 1_555 1_555
C5 C6 1_555 1_555

#END
