
#######################################################################
#
#                 Cambridge Crystallographic Data Centre
#                                CCDC 
#
#######################################################################
#
# If this CIF has been generated from an entry in the Cambridge 
# Structural Database, then it will include bibliographic, chemical, 
# crystal, experimental, refinement or atomic coordinate data resulting 
# from the CCDC's data processing and validation procedures.
#
#######################################################################

data_SAWGON
_chemical_formula_moiety         'C24 H36 N2 O2 S2,H2 O1'
_chemical_name_systematic        
'(R,R)-1,2-bis(t-butylsulfinylamino)-1,2-di-o-tolylethane monohydrate'
_symmetry_cell_setting           orthorhombic
_symmetry_space_group_name_H-M   'P 21 21 21'
_symmetry_Int_Tables_number      19
_space_group_name_Hall           'P 2ac 2ab'
loop_
_symmetry_equiv_pos_site_id
_symmetry_equiv_pos_as_xyz
1 x,y,z
2 1/2-x,-y,1/2+z
3 -x,1/2+y,1/2-z
4 1/2+x,1/2-y,-z
_cell_length_a                   7.100(1)
_cell_length_b                   19.026(2)
_cell_length_c                   20.197(2)
_cell_angle_alpha                90
_cell_angle_beta                 90
_cell_angle_gamma                90
_cell_volume                     2728.3
_exptl_crystal_colour            colorless
_cell_formula_units_Z            4
_exptl_crystal_recrystallization_method 'diethyl ether'
loop_
_atom_site_label
_atom_site_type_symbol
_atom_site_fract_x
_atom_site_fract_y
_atom_site_fract_z
S1 S 0.58452(11) 0.46839(3) 0.21200(3)
S2 S 0.29670(12) 0.57359(4) 0.41974(4)
O1 O 0.6490(3) 0.54064(10) 0.23031(9)
O2 O 0.1244(3) 0.60074(12) 0.38818(15)
N1 N 0.3816(3) 0.45184(11) 0.24492(11)
N2 N 0.3994(3) 0.51450(9) 0.37153(10)
C1 C 0.2982(4) 0.27509(13) 0.30470(13)
C2 C 0.1745(5) 0.21977(15) 0.28891(16)
H1 H 0.2060 0.1740 0.3007
C3 C 0.0108(6) 0.23210(16) 0.25693(19)
H2 H -0.0675 0.1945 0.2464
C4 C -0.0430(5) 0.29969(16) 0.23943(18)
H3 H -0.1571 0.3078 0.2182
C5 C 0.0755(5) 0.35414(14) 0.25416(16)
H4 H 0.0430 0.3995 0.2414
C6 C 0.2459(4) 0.34283(12) 0.28819(13)
C7 C 0.3670(4) 0.40695(11) 0.30405(11)
H5 H 0.4937 0.3905 0.3154
C8 C 0.2891(3) 0.44853(10) 0.36354(11)
H6 H 0.1576 0.4609 0.3545
C9 C 0.2967(4) 0.40573(11) 0.42696(12)
C10 C 0.4648(4) 0.40097(13) 0.46041(13)
H7 H 0.5683 0.4262 0.4452
C11 C 0.4833(5) 0.35931(14) 0.51641(14)
H8 H 0.5978 0.3565 0.5386
C12 C 0.3295(6) 0.32229(14) 0.53849(15)
H9 H 0.3400 0.2937 0.5757
C13 C 0.1631(5) 0.32728(14) 0.50635(15)
H10 H 0.0606 0.3020 0.5223
C14 C 0.1398(4) 0.36858(13) 0.45070(14)
C15 C 0.4747(4) 0.25781(14) 0.33843(15)
H11 H 0.5786 0.2772 0.3141
H12 H 0.4881 0.2077 0.3410
H13 H 0.4732 0.2772 0.3823
C16 C -0.0495(4) 0.37383(16) 0.41970(17)
H14 H -0.1408 0.3514 0.4476
H15 H -0.0476 0.3511 0.3773
H16 H -0.0823 0.4224 0.4141
C17 C 0.5131(6) 0.47364(16) 0.12459(13)
C18 C 0.3496(7) 0.5233(2) 0.11554(16)
H17 H 0.3295 0.5314 0.0692
H18 H 0.3769 0.5671 0.1371
H19 H 0.2383 0.5030 0.1346
C19 C 0.6872(7) 0.5016(2) 0.08951(18)
H20 H 0.6693 0.4987 0.0425
H21 H 0.7948 0.4741 0.1020
H22 H 0.7074 0.5497 0.1019
C20 C 0.4707(7) 0.39993(17) 0.10290(15)
H23 H 0.3495 0.3862 0.1195
H24 H 0.5653 0.3687 0.1199
H25 H 0.4701 0.3977 0.0554
C21 C 0.4711(4) 0.64420(13) 0.41355(14)
C22 C 0.3946(6) 0.70133(15) 0.45770(18)
H26 H 0.3793 0.6834 0.5018
H27 H 0.2750 0.7168 0.4411
H28 H 0.4809 0.7402 0.4583
C23 C 0.4832(6) 0.67032(16) 0.34343(17)
H29 H 0.5643 0.7106 0.3417
H30 H 0.3597 0.6831 0.3282
H31 H 0.5331 0.6339 0.3156
C24 C 0.6539(5) 0.61770(19) 0.4369(2)
H32 H 0.7417 0.6559 0.4398
H33 H 0.7006 0.5832 0.4063
H34 H 0.6387 0.5966 0.4797
H35 H 0.282(2) 0.4753(10) 0.2378(11)
H36 H 0.439(3) 0.5310(11) 0.3348(7)
O3 O 0.0427(4) 0.54719(14) 0.2594(2)
H37 H -0.0719(16) 0.544(2) 0.256(2)
H38 H 0.054(8) 0.569(2) 0.2944(14)
loop_
_geom_bond_atom_site_label_1
_geom_bond_atom_site_label_2
_geom_bond_site_symmetry_1
_geom_bond_site_symmetry_2
S1 O1 1_555 1_555
S2 O2 1_555 1_555
N1 S1 1_555 1_555
N2 S2 1_555 1_555
C1 C2 1_555 1_555
C2 H1 1_555 1_555
C3 C2 1_555 1_555
H2 C3 1_555 1_555
C4 C3 1_555 1_555
H3 C4 1_555 1_555
C5 C4 1_555 1_555
H4 C5 1_555 1_555
C6 C1 1_555 1_555
C7 N1 1_555 1_555
H5 C7 1_555 1_555
C8 N2 1_555 1_555
H6 C8 1_555 1_555
C9 C8 1_555 1_555
C10 C9 1_555 1_555
H7 C10 1_555 1_555
C11 C10 1_555 1_555
H8 C11 1_555 1_555
C12 C11 1_555 1_555
H9 C12 1_555 1_555
C13 C12 1_555 1_555
H10 C13 1_555 1_555
C14 C9 1_555 1_555
C15 C1 1_555 1_555
H11 C15 1_555 1_555
H12 C15 1_555 1_555
H13 C15 1_555 1_555
C16 C14 1_555 1_555
H14 C16 1_555 1_555
H15 C16 1_555 1_555
H16 C16 1_555 1_555
C17 S1 1_555 1_555
C18 C17 1_555 1_555
H17 C18 1_555 1_555
H18 C18 1_555 1_555
H19 C18 1_555 1_555
C19 C17 1_555 1_555
H20 C19 1_555 1_555
H21 C19 1_555 1_555
H22 C19 1_555 1_555
C20 C17 1_555 1_555
H23 C20 1_555 1_555
H24 C20 1_555 1_555
H25 C20 1_555 1_555
C21 S2 1_555 1_555
C22 C21 1_555 1_555
H26 C22 1_555 1_555
H27 C22 1_555 1_555
H28 C22 1_555 1_555
C23 C21 1_555 1_555
H29 C23 1_555 1_555
H30 C23 1_555 1_555
H31 C23 1_555 1_555
C24 C21 1_555 1_555
H32 C24 1_555 1_555
H33 C24 1_555 1_555
H34 C24 1_555 1_555
H35 N1 1_555 1_555
H36 N2 1_555 1_555
O3 H37 1_555 1_555
H38 O3 1_555 1_555
C5 C6 1_555 1_555
C6 C7 1_555 1_555
C7 C8 1_555 1_555
C13 C14 1_555 1_555

#END
