
#######################################################################
#
#                 Cambridge Crystallographic Data Centre
#                                CCDC 
#
#######################################################################
#
# If this CIF has been generated from an entry in the Cambridge 
# Structural Database, then it will include bibliographic, chemical, 
# crystal, experimental, refinement or atomic coordinate data resulting 
# from the CCDC's data processing and validation procedures.
#
#######################################################################

data_SAWJIL
_chemical_formula_moiety         'C23 H21 N1 O3 S1,C1 H1 Cl3'
_chemical_name_systematic        
'4-Methyl-N-(1-methyl-16-oxatetracyclo[7.6.1.0^2,7^.0^10,15^]hexadeca-2,4,6,10,12,14-hexaen-8-yl)benzenesulfonamide chloroform solvate'
_symmetry_cell_setting           monoclinic
_symmetry_space_group_name_H-M   'P 21/n'
_symmetry_Int_Tables_number      14
_space_group_name_Hall           '-P 2yn'
loop_
_symmetry_equiv_pos_site_id
_symmetry_equiv_pos_as_xyz
1 x,y,z
2 1/2-x,1/2+y,1/2-z
3 -x,-y,-z
4 1/2+x,1/2-y,1/2+z
_cell_length_a                   10.1969(5)
_cell_length_b                   19.8386(7)
_cell_length_c                   11.9163(5)
_cell_angle_alpha                90
_cell_angle_beta                 92.3060(10)
_cell_angle_gamma                90
_cell_volume                     2408.62
_exptl_crystal_colour            colorless
_cell_formula_units_Z            4
loop_
_atom_site_label
_atom_site_type_symbol
_atom_site_fract_x
_atom_site_fract_y
_atom_site_fract_z
S1 S -0.04628(9) 0.10494(5) 0.55818(8)
O1 O 0.3347(3) 0.17725(13) 0.4594(2)
O2 O -0.1156(2) 0.05812(12) 0.4855(2)
O3 O -0.0688(3) 0.17557(13) 0.5431(2)
N1 N 0.1082(3) 0.09009(15) 0.5418(2)
C1 C 0.4584(4) 0.1687(2) 0.5222(4)
C2 C 0.4474(4) 0.10371(19) 0.5898(3)
C3 C 0.5541(5) 0.0615(3) 0.6148(5)
H1 H 0.6357 0.0712 0.5864
C4 C 0.5386(5) 0.0053(3) 0.6818(5)
H2 H 0.6100 -0.0227 0.6982
C5 C 0.4203(5) -0.0093(2) 0.7237(4)
H3 H 0.4114 -0.0469 0.7694
C6 C 0.3141(4) 0.03067(18) 0.6991(3)
H4 H 0.2331 0.0197 0.7272
C7 C 0.3259(4) 0.08774(19) 0.6326(3)
C8 C 0.2064(3) 0.13113(18) 0.6066(3)
H5 H 0.1687 0.1446 0.6775
C9 C 0.2423(4) 0.19511(19) 0.5417(3)
H6 H 0.1645 0.2173 0.5079
C10 C 0.3217(4) 0.2423(2) 0.6177(3)
C11 C 0.2822(5) 0.2920(2) 0.6924(3)
H7 H 0.1941 0.3024 0.7000
C12 C 0.3796(6) 0.3249(3) 0.7540(4)
H8 H 0.3562 0.3581 0.8044
C13 C 0.5099(6) 0.3103(3) 0.7437(4)
H9 H 0.5729 0.3339 0.7864
C14 C 0.5486(5) 0.2604(2) 0.6697(4)
H10 H 0.6369 0.2498 0.6633
C15 C 0.4523(4) 0.2268(2) 0.6057(3)
C16 C 0.5687(5) 0.1723(3) 0.4420(5)
H11 H 0.5643 0.1340 0.3928
H12 H 0.6512 0.1722 0.4837
H13 H 0.5608 0.2129 0.3985
C17 C -0.0839(3) 0.08587(18) 0.6981(3)
C18 C -0.0920(4) 0.0192(2) 0.7316(3)
H14 H -0.0737 -0.0155 0.6821
C19 C -0.1273(5) 0.0054(2) 0.8384(4)
H15 H -0.1330 -0.0394 0.8607
C20 C -0.1552(5) 0.0557(3) 0.9150(4)
C21 C -0.1441(5) 0.1212(3) 0.8798(4)
H16 H -0.1604 0.1559 0.9298
C22 C -0.1093(5) 0.1371(2) 0.7718(4)
H17 H -0.1032 0.1818 0.7494
C23 C -0.1988(6) 0.0390(3) 1.0312(4)
H18 H -0.2035 0.0797 1.0746
H19 H -0.1370 0.0087 1.0671
H20 H -0.2838 0.0181 1.0260
C24 C 0.3731(6) 0.1745(3) -0.0104(4)
H21 H 0.3820 0.2233 -0.0208
Cl1 Cl 0.4953(2) 0.13607(12) -0.0836(2)
Cl2 Cl 0.21707(16) 0.15130(8) -0.06488(13)
Cl3 Cl 0.38563(19) 0.15853(9) 0.13411(14)
loop_
_geom_bond_atom_site_label_1
_geom_bond_atom_site_label_2
_geom_bond_site_symmetry_1
_geom_bond_site_symmetry_2
S1 O2 1_555 1_555
O1 C1 1_555 1_555
O3 S1 1_555 1_555
N1 S1 1_555 1_555
C1 C2 1_555 1_555
C2 C3 1_555 1_555
C3 H1 1_555 1_555
C4 C3 1_555 1_555
H2 C4 1_555 1_555
C5 C4 1_555 1_555
H3 C5 1_555 1_555
C6 C5 1_555 1_555
H4 C6 1_555 1_555
C7 C2 1_555 1_555
C8 N1 1_555 1_555
H5 C8 1_555 1_555
C9 O1 1_555 1_555
H6 C9 1_555 1_555
C10 C9 1_555 1_555
C11 C10 1_555 1_555
H7 C11 1_555 1_555
C12 C11 1_555 1_555
H8 C12 1_555 1_555
C13 C12 1_555 1_555
H9 C13 1_555 1_555
C14 C13 1_555 1_555
H10 C14 1_555 1_555
C15 C1 1_555 1_555
C16 C1 1_555 1_555
H11 C16 1_555 1_555
H12 C16 1_555 1_555
H13 C16 1_555 1_555
C17 S1 1_555 1_555
C18 C17 1_555 1_555
H14 C18 1_555 1_555
C19 C18 1_555 1_555
H15 C19 1_555 1_555
C20 C19 1_555 1_555
C21 C20 1_555 1_555
H16 C21 1_555 1_555
C22 C17 1_555 1_555
H17 C22 1_555 1_555
C23 C20 1_555 1_555
H18 C23 1_555 1_555
H19 C23 1_555 1_555
H20 C23 1_555 1_555
C24 H21 1_555 1_555
Cl1 C24 1_555 1_555
Cl2 C24 1_555 1_555
Cl3 C24 1_555 1_555
C6 C7 1_555 1_555
C7 C8 1_555 1_555
C8 C9 1_555 1_555
C10 C15 1_555 1_555
C14 C15 1_555 1_555
C21 C22 1_555 1_555

#END
