
#######################################################################
#
#                 Cambridge Crystallographic Data Centre
#                                CCDC 
#
#######################################################################
#
# If this CIF has been generated from an entry in the Cambridge 
# Structural Database, then it will include bibliographic, chemical, 
# crystal, experimental, refinement or atomic coordinate data resulting 
# from the CCDC's data processing and validation procedures.
#
#######################################################################

data_SAWJEH
_chemical_formula_moiety         'C22 H19 N1 O3 S1'
_chemical_name_systematic        
1-((4-Methylphenyl)sulfonyl)-1,1a,6,10b-tetrahydrodibenzo[3,4:6,7]cyclohepta[1,2-b]aziren-6-ol
_symmetry_cell_setting           monoclinic
_symmetry_space_group_name_H-M   'P 21/n'
_symmetry_Int_Tables_number      14
_space_group_name_Hall           '-P 2yn'
loop_
_symmetry_equiv_pos_site_id
_symmetry_equiv_pos_as_xyz
1 x,y,z
2 1/2-x,1/2+y,1/2-z
3 -x,-y,-z
4 1/2+x,1/2-y,1/2+z
_cell_length_a                   14.2587(8)
_cell_length_b                   8.4693(5)
_cell_length_c                   14.9626(7)
_cell_angle_alpha                90
_cell_angle_beta                 90.942(3)
_cell_angle_gamma                90
_cell_volume                     1806.66
_exptl_crystal_colour            colorless
_cell_formula_units_Z            4
loop_
_atom_site_label
_atom_site_type_symbol
_atom_site_fract_x
_atom_site_fract_y
_atom_site_fract_z
S1 S 0.17525(5) 0.48693(8) 0.85616(5)
O1 O -0.11027(15) 0.4353(2) 0.79181(13)
H1 H -0.0548 0.4431 0.8111
O2 O 0.17117(16) 0.6202(2) 0.91486(14)
O3 O 0.25869(14) 0.4636(3) 0.80500(14)
N1 N 0.08165(16) 0.5005(3) 0.78678(15)
C1 C -0.1528(2) 0.9496(3) 0.69359(19)
H2 H -0.2039 1.0199 0.6842
C2 C -0.1675(2) 0.7877(4) 0.69454(19)
H3 H -0.2296 0.7484 0.6870
C3 C -0.0939(2) 0.6810(3) 0.70625(18)
C4 C -0.00246(19) 0.7407(3) 0.71771(17)
C5 C 0.08356(19) 0.6434(3) 0.72738(18)
H4 H 0.1423 0.7071 0.7340
C6 C 0.15175(19) 0.3139(3) 0.91590(18)
C7 C 0.1618(2) 0.1688(3) 0.87369(19)
H5 H 0.1779 0.1640 0.8124
C8 C 0.1481(2) 0.0317(4) 0.9217(2)
H6 H 0.1549 -0.0676 0.8929
C9 C 0.1244(2) 0.0367(4) 1.01188(19)
C10 C 0.1128(2) -0.1145(4) 1.0642(2)
H7 H 0.1740 -0.1656 1.0723
H8 H 0.0703 -0.1855 1.0314
H9 H 0.0866 -0.0904 1.1227
C11 C -0.1177(2) 0.5063(3) 0.7047(2)
H10 H -0.1857 0.5004 0.6876
C12 C -0.0633(2) 1.0074(3) 0.70641(19)
H11 H -0.0525 1.1181 0.7072
C13 C 0.0112(2) 0.9036(3) 0.71822(17)
H12 H 0.0727 0.9444 0.7268
C14 C 0.09886(19) 0.4841(3) 0.68822(18)
H13 H 0.1659 0.4622 0.6738
C15 C 0.1272(2) 0.3229(3) 1.00555(19)
H14 H 0.1197 0.4223 1.0340
C16 C 0.1141(2) 0.1838(4) 1.05216(19)
H15 H 0.0976 0.1887 1.1133
C17 C 0.0310(2) 0.3965(3) 0.63083(18)
C18 C 0.0707(2) 0.2969(3) 0.56712(19)
H16 H 0.1369 0.2862 0.5650
C19 C 0.0146(2) 0.2138(3) 0.50704(19)
H17 H 0.0422 0.1450 0.4648
C20 C -0.0816(2) 0.2314(4) 0.50888(19)
H18 H -0.1203 0.1767 0.4669
C21 C -0.1217(2) 0.3288(3) 0.5721(2)
H19 H -0.1880 0.3397 0.5729
C22 C -0.0671(2) 0.4113(3) 0.63448(18)
loop_
_geom_bond_atom_site_label_1
_geom_bond_atom_site_label_2
_geom_bond_site_symmetry_1
_geom_bond_site_symmetry_2
S1 O2 1_555 1_555
O1 H1 1_555 1_555
O3 S1 1_555 1_555
N1 S1 1_555 1_555
C1 H2 1_555 1_555
C2 C1 1_555 1_555
H3 C2 1_555 1_555
C3 C2 1_555 1_555
C4 C3 1_555 1_555
C5 N1 1_555 1_555
H4 C5 1_555 1_555
C6 S1 1_555 1_555
C7 C6 1_555 1_555
H5 C7 1_555 1_555
C8 C7 1_555 1_555
H6 C8 1_555 1_555
C9 C8 1_555 1_555
C10 C9 1_555 1_555
H7 C10 1_555 1_555
H8 C10 1_555 1_555
H9 C10 1_555 1_555
C11 O1 1_555 1_555
H10 C11 1_555 1_555
C12 C1 1_555 1_555
H11 C12 1_555 1_555
C13 C4 1_555 1_555
H12 C13 1_555 1_555
C14 N1 1_555 1_555
H13 C14 1_555 1_555
C15 C6 1_555 1_555
H14 C15 1_555 1_555
C16 C9 1_555 1_555
H15 C16 1_555 1_555
C17 C14 1_555 1_555
C18 C17 1_555 1_555
H16 C18 1_555 1_555
C19 C18 1_555 1_555
H17 C19 1_555 1_555
C20 C19 1_555 1_555
H18 C20 1_555 1_555
C21 C20 1_555 1_555
H19 C21 1_555 1_555
C22 C11 1_555 1_555
C3 C11 1_555 1_555
C4 C5 1_555 1_555
C5 C14 1_555 1_555
C12 C13 1_555 1_555
C15 C16 1_555 1_555
C17 C22 1_555 1_555
C21 C22 1_555 1_555

#END
