
#######################################################################
#
#                 Cambridge Crystallographic Data Centre
#                                CCDC 
#
#######################################################################
#
# If this CIF has been generated from an entry in the Cambridge 
# Structural Database, then it will include bibliographic, chemical, 
# crystal, experimental, refinement or atomic coordinate data resulting 
# from the CCDC's data processing and validation procedures.
#
#######################################################################

data_SAWPAJ
_chemical_formula_moiety         'C18 H20 I1 N3 O1 S1'
_chemical_name_systematic        
2-((1-Ethyl-2-(2-(5-iodo-2-thienyl)vinyl)-1H-benzimidazol-6-yl)(methyl)amino)ethanol
_symmetry_cell_setting           monoclinic
_symmetry_space_group_name_H-M   'P 21/n'
_symmetry_Int_Tables_number      14
_space_group_name_Hall           '-P 2yn'
loop_
_symmetry_equiv_pos_site_id
_symmetry_equiv_pos_as_xyz
1 x,y,z
2 1/2-x,1/2+y,1/2-z
3 -x,-y,-z
4 1/2+x,1/2-y,1/2+z
_cell_length_a                   12.7486(5)
_cell_length_b                   8.9305(2)
_cell_length_c                   17.1823(5)
_cell_angle_alpha                90
_cell_angle_beta                 104.3590(10)
_cell_angle_gamma                90
_cell_volume                     1895.12
_exptl_crystal_colour            yellow
_exptl_crystal_description       needle
_chemical_melting_point          '411 K'
_cell_formula_units_Z            4
loop_
_atom_site_label
_atom_site_type_symbol
_atom_site_fract_x
_atom_site_fract_y
_atom_site_fract_z
I1 I 1.11076(3) 1.13369(5) 0.11391(2)
S1 S 1.11952(12) 0.9322(2) 0.27387(9)
N1 N 1.1033(4) 0.6784(5) 0.5539(2)
C1 C 1.0511(4) 1.0650(5) 0.2103(2)
C2 C 1.0262(4) 0.9355(7) 0.3311(2)
O1 O 1.2049(2) 0.2423(7) 0.9865(2)
H1 H 1.2408 0.195 0.9614
C3 C 1.0437(5) 0.8395(8) 0.4016(4)
H2 H 1.1071 0.7832 0.4139
C4 C 0.9781(5) 0.8248(9) 0.4497(4)
H3 H 0.9124 0.8756 0.4377
C5 C 1.0061(5) 0.7311(9) 0.5210(4)
N2 N 0.9314(4) 0.6933(8) 0.5643(2)
C6 C 0.9858(4) 0.6066(7) 0.6280(4)
C7 C 0.9519(4) 0.5408(8) 0.6907(4)
H4 H 0.88 0.546 0.6933
C8 C 1.0289(4) 0.4671(7) 0.7495(2)
N3 N 1.0031(4) 0.4063(7) 0.8167(2)
C9 C 1.0772(7) 0.2883(10) 0.8690(5)
H5 H 1.0344 0.2135 0.8881
H6 H 1.1217 0.2386 0.8384
C10 C 1.1405(10) 0.3669(11) 0.9321(7)
H7 H 1.0963 0.4236 0.9602
H8 H 1.1887 0.4349 0.9139
C11 C 0.9462(4) 1.0372(8) 0.3010(2)
H9 H 0.8882 1.0558 0.3235
C12 C 0.9616(5) 1.1114(7) 0.2312(4)
H10 H 0.9149 1.184 0.2033
C13 C 1.0923(4) 0.5989(8) 0.6203(2)
C14 C 1.1687(4) 0.5239(9) 0.6791(4)
H11 H 1.2404 0.5177 0.676
C15 C 1.1368(4) 0.4596(8) 0.7415(4)
H12 H 1.1881 0.4087 0.7804
C16 C 0.8946(5) 0.4223(9) 0.8273(4)
H13 H 0.8776 0.5267 0.8294
H14 H 0.8902 0.3747 0.8765
H15 H 0.844 0.3761 0.783
C17 C 0.8138(5) 0.7632(10) 0.5553(4)
H16 H 0.7897 0.7531 0.6044
H17 H 0.8109 0.8676 0.5394
C18 C 0.7553(13) 0.6736(13) 0.4950(8)
H18 H 0.7593 0.7133 0.4439
H19 H 0.6811 0.6707 0.4979
H20 H 0.7847 0.5741 0.501
loop_
_geom_bond_atom_site_label_1
_geom_bond_atom_site_label_2
_geom_bond_site_symmetry_1
_geom_bond_site_symmetry_2
I1 C1 1_555 1_555
S1 C1 1_555 1_555
N1 C5 1_555 1_555
C1 C12 1_555 1_555
C2 S1 1_555 1_555
O1 H1 1_555 1_555
C3 C2 1_555 1_555
H2 C3 1_555 1_555
C4 C3 1_555 1_555
H3 C4 1_555 1_555
C5 C4 1_555 1_555
N2 C5 1_555 1_555
C6 N2 1_555 1_555
C7 C6 1_555 1_555
H4 C7 1_555 1_555
C8 C7 1_555 1_555
N3 C8 1_555 1_555
C9 N3 1_555 1_555
H5 C9 1_555 1_555
H6 C9 1_555 1_555
C10 O1 1_555 1_555
H7 C10 1_555 1_555
H8 C10 1_555 1_555
C11 C2 1_555 1_555
H9 C11 1_555 1_555
C12 C11 1_555 1_555
H10 C12 1_555 1_555
C13 N1 1_555 1_555
C14 C13 1_555 1_555
H11 C14 1_555 1_555
C15 C8 1_555 1_555
H12 C15 1_555 1_555
C16 N3 1_555 1_555
H13 C16 1_555 1_555
H14 C16 1_555 1_555
H15 C16 1_555 1_555
C17 N2 1_555 1_555
H16 C17 1_555 1_555
H17 C17 1_555 1_555
C18 C17 1_555 1_555
H18 C18 1_555 1_555
H19 C18 1_555 1_555
H20 C18 1_555 1_555
C6 C13 1_555 1_555
C9 C10 1_555 1_555
C14 C15 1_555 1_555

#END
