
#######################################################################
#
#                 Cambridge Crystallographic Data Centre
#                                CCDC 
#
#######################################################################
#
# If this CIF has been generated from an entry in the Cambridge 
# Structural Database, then it will include bibliographic, chemical, 
# crystal, experimental, refinement or atomic coordinate data resulting 
# from the CCDC's data processing and validation procedures.
#
#######################################################################

data_SAWTAO
_chemical_formula_moiety         'C16 H13 N2 O2 1+,0.5(H2 O1),I1 1-'
_chemical_name_systematic        
'1-methyl-4-(8-nitronaphthalen-2-yl)pyridin-1-ium iodide hemihydrate'
_symmetry_cell_setting           monoclinic
_symmetry_space_group_name_H-M   'P 21/c'
_symmetry_Int_Tables_number      14
_space_group_name_Hall           '-P 2ybc'
loop_
_symmetry_equiv_pos_site_id
_symmetry_equiv_pos_as_xyz
1 x,y,z
2 -x,1/2+y,1/2-z
3 -x,-y,-z
4 x,1/2-y,1/2+z
_cell_length_a                   11.6219(3)
_cell_length_b                   9.3299(2)
_cell_length_c                   14.6117(4)
_cell_angle_alpha                90
_cell_angle_beta                 100.4590(10)
_cell_angle_gamma                90
_cell_volume                     1558.04
_exptl_crystal_colour            brownish
_exptl_crystal_description       block
_cell_formula_units_Z            4
_exptl_crystal_recrystallization_method acetonitrile/benzene
loop_
_atom_site_label
_atom_site_type_symbol
_atom_site_fract_x
_atom_site_fract_y
_atom_site_fract_z
I1 I 0.55174(2) 0.22222(2) 0.10957(2)
O1 O 0.3167(4) 0.9983(6) 0.0402(4)
O2 O 0.17402(14) 0.75878(18) 0.10830(15)
O3 O 0.04664(14) 0.92697(18) 0.10616(13)
N1 N 0.43399(13) 0.17756(17) 0.32373(10)
N2 N 0.07309(16) 0.80018(19) 0.10208(13)
C1 C 0.35702(16) 0.0938(2) 0.26770(13)
C2 C 0.24942(16) 0.1463(2) 0.22592(13)
C3 C 0.21922(15) 0.28837(18) 0.24041(13)
C4 C 0.30110(16) 0.3719(2) 0.29934(13)
C5 C 0.40718(16) 0.3151(2) 0.33979(13)
C6 C 0.10597(15) 0.34887(19) 0.19372(12)
C7 C 0.09968(15) 0.49109(19) 0.16739(12)
C8 C -0.00605(15) 0.5506(2) 0.11784(12)
C9 C -0.02295(16) 0.6951(2) 0.08637(13)
C10 C -0.12787(17) 0.7459(2) 0.03922(14)
C11 C -0.22524(16) 0.6543(2) 0.02007(13)
C12 C -0.21501(16) 0.5155(2) 0.05004(13)
C13 C -0.10694(15) 0.4607(2) 0.09890(12)
C14 C -0.09834(16) 0.3153(2) 0.12828(14)
C15 C 0.00557(17) 0.2597(2) 0.17313(14)
C16 C 0.55175(17) 0.1223(2) 0.36287(14)
H1 H 0.3846(18) -0.003(2) 0.2586(15)
H2 H 0.201(2) 0.088(3) 0.1892(16)
H3 H 0.2823(19) 0.467(3) 0.3148(16)
H4 H 0.4635(19) 0.365(3) 0.3802(15)
H5 H 0.1666(17) 0.549(2) 0.1796(14)
H6 H -0.293(2) 0.686(3) -0.0094(18)
H7 H -0.132(2) 0.849(3) 0.0199(17)
H8 H -0.2801(19) 0.455(2) 0.0394(15)
H9 H -0.168(2) 0.260(2) 0.1121(17)
H10 H 0.012(2) 0.163(3) 0.1919(17)
H11 H 0.604(3) 0.139(3) 0.316(2)
H12 H 0.549(3) 0.034(4) 0.373(2)
H13 H 0.582(2) 0.177(3) 0.420(2)
loop_
_geom_bond_atom_site_label_1
_geom_bond_atom_site_label_2
_geom_bond_site_symmetry_1
_geom_bond_site_symmetry_2
O2 N2 1_555 1_555
O3 N2 1_555 1_555
N1 C1 1_555 1_555
N2 C9 1_555 1_555
C1 C2 1_555 1_555
C2 C3 1_555 1_555
C3 C4 1_555 1_555
C4 C5 1_555 1_555
C5 N1 1_555 1_555
C6 C3 1_555 1_555
C7 C6 1_555 1_555
C8 C7 1_555 1_555
C9 C8 1_555 1_555
C10 C9 1_555 1_555
C11 C10 1_555 1_555
C12 C11 1_555 1_555
C13 C8 1_555 1_555
C14 C13 1_555 1_555
C15 C6 1_555 1_555
C16 N1 1_555 1_555
H1 C1 1_555 1_555
H2 C2 1_555 1_555
H3 C4 1_555 1_555
H4 C5 1_555 1_555
H5 C7 1_555 1_555
H6 C11 1_555 1_555
H7 C10 1_555 1_555
H8 C12 1_555 1_555
H9 C14 1_555 1_555
H10 C15 1_555 1_555
H11 C16 1_555 1_555
H12 C16 1_555 1_555
H13 C16 1_555 1_555
C12 C13 1_555 1_555
C14 C15 1_555 1_555

#END
