
#######################################################################
#
#                 Cambridge Crystallographic Data Centre
#                                CCDC 
#
#######################################################################
#
# If this CIF has been generated from an entry in the Cambridge 
# Structural Database, then it will include bibliographic, chemical, 
# crystal, experimental, refinement or atomic coordinate data resulting 
# from the CCDC's data processing and validation procedures.
#
#######################################################################

data_SAWTES
_chemical_formula_moiety         'C16 H13 N2 O2 1+,I1 1-'
_chemical_name_systematic        
'1-methyl-4-(5-nitronaphthalen-2-yl)pyridin-1-ium iodide'
_symmetry_cell_setting           triclinic
_symmetry_space_group_name_H-M   'P -1'
_symmetry_Int_Tables_number      2
_space_group_name_Hall           '-P 1'
loop_
_symmetry_equiv_pos_site_id
_symmetry_equiv_pos_as_xyz
1 x,y,z
2 -x,-y,-z
_cell_length_a                   7.6850(5)
_cell_length_b                   8.1879(5)
_cell_length_c                   12.3983(8)
_cell_angle_alpha                89.966(3)
_cell_angle_beta                 84.603(3)
_cell_angle_gamma                71.529(2)
_cell_volume                     736.328
_exptl_crystal_colour            yellow
_exptl_crystal_description       block
_cell_formula_units_Z            2
_exptl_crystal_recrystallization_method acetonitrile/benzene
loop_
_atom_site_label
_atom_site_type_symbol
_atom_site_fract_x
_atom_site_fract_y
_atom_site_fract_z
I1 I 0.07440(2) 0.22204(3) 0.15189(2)
N1 N 0.3922(4) 0.7562(3) 0.0275(2)
N2 N 0.2989(5) 0.1649(4) 0.6728(3)
O1 O 0.1579(5) 0.2894(7) 0.6756(3)
O2 O 0.3171(6) 0.0404(7) 0.7279(4)
C1 C 0.2375(4) 0.7465(4) 0.0837(3)
H1 H 0.1210 0.8103 0.0612
C2 C 0.2446(5) 0.6459(4) 0.1733(3)
H2 H 0.1337 0.6389 0.2108
C3 C 0.4149(4) 0.5538(4) 0.2094(2)
C4 C 0.5731(4) 0.5669(4) 0.1486(3)
H3 H 0.6915 0.5054 0.1696
C5 C 0.5590(4) 0.6673(4) 0.0594(3)
H4 H 0.6677 0.6748 0.0194
C6 C 0.4257(4) 0.4505(4) 0.3080(3)
C7 C 0.5916(4) 0.3747(4) 0.3505(3)
H5 H 0.7019 0.3847 0.3139
C8 C 0.6001(5) 0.2823(4) 0.4476(3)
C9 C 0.7737(5) 0.2064(5) 0.4883(3)
H6 H 0.8818 0.2197 0.4508
C10 C 0.7864(5) 0.1136(5) 0.5818(3)
H7 H 0.9032 0.0616 0.6077
C11 C 0.6282(5) 0.0960(4) 0.6383(3)
H8 H 0.6372 0.0294 0.7015
C12 C 0.4586(5) 0.1757(4) 0.6020(3)
C13 C 0.4364(5) 0.2681(4) 0.5043(3)
C14 C 0.2671(5) 0.3444(4) 0.4585(3)
H9 H 0.1554 0.3365 0.4943
C15 C 0.2647(5) 0.4286(5) 0.3636(3)
H10 H 0.1507 0.4746 0.3334
C16 C 0.3771(5) 0.8663(4) -0.0681(3)
H11 H 0.2961 0.8383 -0.1165
H12 H 0.4997 0.8457 -0.1069
H13 H 0.3256 0.9877 -0.0444
O3? O 0.133(4) 0.186(5) 0.637(3)
O4? O 0.299(4) 0.118(5) 0.768(3)
loop_
_geom_bond_atom_site_label_1
_geom_bond_atom_site_label_2
_geom_bond_site_symmetry_1
_geom_bond_site_symmetry_2
N1 C1 1_555 1_555
N2 O1 1_555 1_555
O2 N2 1_555 1_555
C1 H1 1_555 1_555
C2 C1 1_555 1_555
H2 C2 1_555 1_555
C3 C2 1_555 1_555
C4 C3 1_555 1_555
H3 C4 1_555 1_555
C5 N1 1_555 1_555
H4 C5 1_555 1_555
C6 C3 1_555 1_555
C7 C6 1_555 1_555
H5 C7 1_555 1_555
C8 C7 1_555 1_555
C9 C8 1_555 1_555
H6 C9 1_555 1_555
C10 C9 1_555 1_555
H7 C10 1_555 1_555
C11 C10 1_555 1_555
H8 C11 1_555 1_555
C12 N2 1_555 1_555
C13 C8 1_555 1_555
C14 C13 1_555 1_555
H9 C14 1_555 1_555
C15 C6 1_555 1_555
H10 C15 1_555 1_555
C16 N1 1_555 1_555
H11 C16 1_555 1_555
H12 C16 1_555 1_555
H13 C16 1_555 1_555
C4 C5 1_555 1_555
C11 C12 1_555 1_555
C12 C13 1_555 1_555
C14 C15 1_555 1_555

#END
