
#######################################################################
#
#                 Cambridge Crystallographic Data Centre
#                                CCDC 
#
#######################################################################
#
# If this CIF has been generated from an entry in the Cambridge 
# Structural Database, then it will include bibliographic, chemical, 
# crystal, experimental, refinement or atomic coordinate data resulting 
# from the CCDC's data processing and validation procedures.
#
#######################################################################

data_SAXHEE01
_chemical_formula_moiety         'C20 H22 O5 S1'
_chemical_name_systematic        
5,6-Dihydro-6-(hydroxymethyl)-1,2,3-trimethoxy-9-methylthio-8H-cyclohepta(a)naphthalen-8-one
_chemical_properties_biological  'strong antitubulin activity'
_symmetry_cell_setting           monoclinic
_symmetry_space_group_name_H-M   'P 21'
_symmetry_Int_Tables_number      4
_space_group_name_Hall           'P 2yb'
loop_
_symmetry_equiv_pos_site_id
_symmetry_equiv_pos_as_xyz
1 x,y,z
2 -x,1/2+y,-z
_cell_length_a                   11.130(1)
_cell_length_b                   8.776(1)
_cell_length_c                   9.400(1)
_cell_angle_alpha                90
_cell_angle_beta                 95.59(1)
_cell_angle_gamma                90
_cell_volume                     913.796
_exptl_crystal_colour            yellow
_chemical_melting_point          201-203deg.C
_cell_formula_units_Z            2
loop_
_atom_site_label
_atom_site_type_symbol
_atom_site_fract_x
_atom_site_fract_y
_atom_site_fract_z
C1 C 0.0140(2) -0.3514(3) 0.3730(2)
C2 C -0.1030(2) -0.4016(3) 0.3819(2)
C3 C -0.1663(2) -0.4773(3) 0.2669(2)
C4 C -0.1104(2) -0.4997(3) 0.1425(2)
C5 C 0.0057(2) -0.4451(3) 0.1319(2)
C6 C 0.0671(2) -0.4707(4) -0.0015(2)
C7 C 0.2011(2) -0.5101(3) 0.0385(2)
C8 C 0.2621(2) -0.3801(3) 0.1266(2)
C9 C 0.3771(2) -0.3472(3) 0.0984(2)
C10 C 0.4643(2) -0.2319(3) 0.1461(2)
C11 C 0.4423(2) -0.1148(3) 0.2496(2)
C12 C 0.3365(2) -0.0892(3) 0.3084(2)
C13 C 0.2267(2) -0.1712(3) 0.2968(2)
C14 C 0.1911(2) -0.3042(3) 0.2257(2)
C15 C 0.0701(2) -0.3660(3) 0.2451(2)
O1 O 0.0754(2) -0.2798(3) 0.4881(2)
C16 C 0.0831(3) -0.3575(5) 0.6236(3)
O2 O -0.1588(1) -0.3774(2) 0.5047(2)
C17 C -0.2223(3) -0.2387(5) 0.5002(4)
O3 O -0.2795(1) -0.5217(3) 0.2892(2)
C18 C -0.3517(2) -0.5871(4) 0.1719(3)
C19 C 0.2121(2) -0.6644(3) 0.1147(3)
O4 O 0.3318(2) -0.7063(3) 0.1627(2)
O5 O 0.5632(2) -0.2283(3) 0.0937(2)
S1 S 0.57040(5) 0.0000 0.28580(7)
C20 C 0.5327(3) 0.1239(5) 0.4254(4)
H1 H -0.1540 -0.5554 0.0602
H2 H 0.0609 -0.3713 -0.0640
H3 H 0.0248 -0.5611 -0.0599
H4 H 0.2463 -0.5212 -0.0539
H5 H 0.4082 -0.4197 0.0285
H6 H 0.3369 0.0035 0.3703
H7 H 0.1626 -0.1242 0.3501
H8 H 0.1321 -0.2904 0.7015
H9 H -0.0042 -0.3763 0.6534
H10 H 0.1270 -0.4625 0.6147
H11 H -0.2633 -0.2248 0.5954
H12 H -0.1622 -0.1483 0.4888
H13 H -0.2889 -0.2394 0.4130
H14 H -0.4366 -0.6161 0.2038
H15 H -0.3627 -0.5081 0.0878
H16 H -0.3092 -0.6854 0.1375
H17 H 0.1758 -0.7483 0.0434
H18 H 0.1619 -0.6598 0.2036
H19 H 0.3737 -0.7182 0.0793
H20 H 0.6054 0.1976 0.4541
H21 H 0.4560 0.1881 0.3896
H22 H 0.5145 0.0589 0.5146
loop_
_geom_bond_atom_site_label_1
_geom_bond_atom_site_label_2
_geom_bond_site_symmetry_1
_geom_bond_site_symmetry_2
C1 C2 1_555 1_555
C2 C3 1_555 1_555
C3 C4 1_555 1_555
C4 C5 1_555 1_555
C5 C6 1_555 1_555
C6 C7 1_555 1_555
C7 C8 1_555 1_555
C8 C9 1_555 1_555
C9 C10 1_555 1_555
C10 C11 1_555 1_555
C11 C12 1_555 1_555
C12 C13 1_555 1_555
C13 C14 1_555 1_555
C14 C8 1_555 1_555
C15 C1 1_555 1_555
O1 C1 1_555 1_555
C16 O1 1_555 1_555
O2 C2 1_555 1_555
C17 O2 1_555 1_555
O3 C3 1_555 1_555
C18 O3 1_555 1_555
C19 C7 1_555 1_555
O4 C19 1_555 1_555
O5 C10 1_555 1_555
S1 C11 1_555 1_555
C20 S1 1_555 1_555
H1 C4 1_555 1_555
H2 C6 1_555 1_555
H3 C6 1_555 1_555
H4 C7 1_555 1_555
H5 C9 1_555 1_555
H6 C12 1_555 1_555
H7 C13 1_555 1_555
H8 C16 1_555 1_555
H9 C16 1_555 1_555
H10 C16 1_555 1_555
H11 C17 1_555 1_555
H12 C17 1_555 1_555
H13 C17 1_555 1_555
H14 C18 1_555 1_555
H15 C18 1_555 1_555
H16 C18 1_555 1_555
H17 C19 1_555 1_555
H18 C19 1_555 1_555
H19 O4 1_555 1_555
H20 C20 1_555 1_555
H21 C20 1_555 1_555
H22 C20 1_555 1_555
C5 C15 1_555 1_555
C14 C15 1_555 1_555

#END
