
#######################################################################
#
#                 Cambridge Crystallographic Data Centre
#                                CCDC 
#
#######################################################################
#
# If this CIF has been generated from an entry in the Cambridge 
# Structural Database, then it will include bibliographic, chemical, 
# crystal, experimental, refinement or atomic coordinate data resulting 
# from the CCDC's data processing and validation procedures.
#
#######################################################################

data_SAXJOR
_chemical_name_common            'Fluorescin aldehyde'
_chemical_formula_moiety         'C21 H12 O6'
_chemical_name_systematic        
4'-Formyl-3',6'-dihydroxy-spiro(isobenzofuran-3-one-1(3H),9'(9H)-xanthene)
_symmetry_cell_setting           monoclinic
_symmetry_space_group_name_H-M   'P 21/c'
_symmetry_Int_Tables_number      14
_space_group_name_Hall           '-P 2ybc'
loop_
_symmetry_equiv_pos_site_id
_symmetry_equiv_pos_as_xyz
1 x,y,z
2 -x,1/2+y,1/2-z
3 -x,-y,-z
4 x,1/2-y,1/2+z
_cell_length_a                   7.891(6)
_cell_length_b                   21.304(15)
_cell_length_c                   9.977(8)
_cell_angle_alpha                90
_cell_angle_beta                 104.80(3)
_cell_angle_gamma                90
_cell_volume                     1621.59
_exptl_crystal_colour            yellow
_exptl_crystal_description       lath
_cell_formula_units_Z            4
loop_
_atom_site_label
_atom_site_type_symbol
_atom_site_fract_x
_atom_site_fract_y
_atom_site_fract_z
O1 O 0.3013(5) 0.5298(2) 0.5371(4)
O2 O -0.0278(6) 0.3645(2) 0.2795(4)
H1 H -0.0116 0.3493 0.3595
O3 O 0.6368(6) 0.6841(2) 0.8308(5)
H2 H 0.6057 0.6626 0.8909
O4 O 0.0311(6) 0.3731(2) 0.5446(4)
O5 O 0.5116(5) 0.5751(2) 0.2299(4)
O6 O 0.6207(6) 0.6078(2) 0.0536(5)
C1 C 0.1391(7) 0.4478(3) 0.4102(6)
C2 C 0.0665(8) 0.4184(3) 0.2856(7)
C3 C 0.0930(9) 0.4415(3) 0.1627(7)
H3 H 0.0471 0.4201 0.0776
C4 C 0.1875(8) 0.4964(3) 0.1665(7)
H4 H 0.2047 0.5126 0.0822
C5 C 0.2584(7) 0.5288(3) 0.2888(6)
C6 C 0.3589(8) 0.5896(3) 0.2887(6)
C7 C 0.4276(8) 0.6144(3) 0.4320(6)
C8 C 0.5271(8) 0.6696(3) 0.4560(7)
H5 H 0.5489 0.6919 0.3797
C9 C 0.5944(8) 0.6923(3) 0.5900(7)
H6 H 0.6614 0.7299 0.6041
C10 C 0.5642(8) 0.6602(3) 0.7035(7)
C11 C 0.4649(8) 0.6061(3) 0.6826(7)
H7 H 0.4422 0.5841 0.7590
C12 C 0.3980(7) 0.5842(3) 0.5471(6)
C13 C 0.2356(7) 0.5029(3) 0.4097(6)
C14 C 0.1153(8) 0.4223(3) 0.5383(7)
H8 H 0.1664 0.4439 0.6221
C15 C 0.2580(8) 0.6369(3) 0.1867(6)
C16 C 0.0978(7) 0.6654(3) 0.1834(6)
H9 H 0.0332 0.6555 0.2491
C17 C 0.0381(8) 0.7091(3) 0.0780(6)
H10 H -0.0703 0.7298 0.0720
C18 C 0.1316(9) 0.7236(3) -0.0186(6)
H11 H 0.0865 0.7542 -0.0877
C19 C 0.2838(9) 0.6952(3) -0.0163(7)
H12 H 0.3465 0.7048 -0.0833
C20 C 0.3467(8) 0.6513(3) 0.0876(6)
C21 C 0.5035(9) 0.6124(3) 0.1153(7)
loop_
_geom_bond_atom_site_label_1
_geom_bond_atom_site_label_2
_geom_bond_site_symmetry_1
_geom_bond_site_symmetry_2
O1 C12 1_555 1_555
O2 H1 1_555 1_555
O3 H2 1_555 1_555
O4 C14 1_555 1_555
O5 C6 1_555 1_555
O6 C21 1_555 1_555
C1 C2 1_555 1_555
C2 O2 1_555 1_555
C3 C2 1_555 1_555
H3 C3 1_555 1_555
C4 C3 1_555 1_555
H4 C4 1_555 1_555
C5 C4 1_555 1_555
C6 C5 1_555 1_555
C7 C6 1_555 1_555
C8 C7 1_555 1_555
H5 C8 1_555 1_555
C9 C8 1_555 1_555
H6 C9 1_555 1_555
C10 O3 1_555 1_555
C11 C10 1_555 1_555
H7 C11 1_555 1_555
C12 C7 1_555 1_555
C13 O1 1_555 1_555
C14 C1 1_555 1_555
H8 C14 1_555 1_555
C15 C6 1_555 1_555
C16 C15 1_555 1_555
H9 C16 1_555 1_555
C17 C16 1_555 1_555
H10 C17 1_555 1_555
C18 C17 1_555 1_555
H11 C18 1_555 1_555
C19 C18 1_555 1_555
H12 C19 1_555 1_555
C20 C15 1_555 1_555
C21 O5 1_555 1_555
C1 C13 1_555 1_555
C5 C13 1_555 1_555
C9 C10 1_555 1_555
C11 C12 1_555 1_555
C19 C20 1_555 1_555
C20 C21 1_555 1_555

#END
