
#######################################################################
#
#                 Cambridge Crystallographic Data Centre
#                                CCDC 
#
#######################################################################
#
# If this CIF has been generated from an entry in the Cambridge 
# Structural Database, then it will include bibliographic, chemical, 
# crystal, experimental, refinement or atomic coordinate data resulting 
# from the CCDC's data processing and validation procedures.
#
#######################################################################

data_SAXLIP
_chemical_formula_moiety         'C31 H46 N2 O5 S2'
_chemical_name_systematic        
(1S,3S,7S,10R,11S,12S,16R)-17-(but-3-yn-1-yl)-7,11-dihydroxy-8,8,10,12,16-pentamethyl-3-{(1E)-1-[2-(methylsulfanyl)-1,3-thiazol-4-yl]prop-1-en-2-yl}-4-oxa-17-azabicyclo[14.1.0]heptadecane-5,9-dione
_symmetry_cell_setting           monoclinic
_symmetry_space_group_name_H-M   'P 21'
_symmetry_Int_Tables_number      4
_space_group_name_Hall           'P 2yb'
loop_
_symmetry_equiv_pos_site_id
_symmetry_equiv_pos_as_xyz
1 x,y,z
2 -x,1/2+y,-z
_cell_length_a                   11.9788(4)
_cell_length_b                   10.6825(4)
_cell_length_c                   13.4023(4)
_cell_angle_alpha                90
_cell_angle_beta                 112.179(2)
_cell_angle_gamma                90
_cell_volume                     1588.11
_cell_formula_units_Z            2
loop_
_atom_site_label
_atom_site_type_symbol
_atom_site_fract_x
_atom_site_fract_y
_atom_site_fract_z
S1 S 1.17705(5) 0.34067(5) 1.05595(4)
S2 S 1.23932(5) 0.61141(5) 1.09310(5)
O1 O 0.60010(12) 0.46402(13) 0.61684(11)
O2 O 0.60977(12) 0.31203(13) 0.73701(12)
O3 O 0.32464(13) 0.26484(13) 0.61241(11)
H1 H 0.333289 0.191306 0.636344
O4 O 0.05942(13) 0.39102(14) 0.57712(12)
O5 O 0.10472(13) 0.70905(13) 0.41871(12)
H2 H 0.045291 0.751037 0.418372
N1 N 0.64829(15) 0.50456(15) 0.32199(13)
N2 N 1.04869(15) 0.51093(16) 0.92862(14)
C1 C 0.99410(18) 0.3966(2) 0.88970(17)
C2 C 0.43806(18) 0.45039(17) 0.67491(16)
H3 H 0.393715 0.484567 0.601917
H4 H 0.452638 0.519872 0.727193
C3 C 1.05037(18) 0.2953(2) 0.94950(17)
H5 H 1.023164 0.211327 0.934287
C4 C 0.15070(18) 0.45112(18) 0.62301(16)
C5 C 0.15479(17) 0.49680(18) 0.39920(16)
H6 H 0.175955 0.416819 0.440933
C6 C 0.88849(17) 0.38401(18) 0.78978(16)
H7 H 0.867933 0.300456 0.765516
C7 C 0.09793(17) 0.58558(17) 0.45664(16)
H8 H 0.010978 0.562784 0.434947
C8 C 0.55270(18) 0.43316(18) 0.34322(16)
C9 C 0.46039(17) 0.51937(18) 0.35977(16)
H9 H 0.428126 0.575665 0.296636
H10 H 0.502177 0.572283 0.423683
C10 C 0.25106(18) 0.39822(19) 0.72390(16)
C11 C 0.55740(17) 0.39819(18) 0.68058(16)
C12 C 0.72136(17) 0.43007(18) 0.62172(16)
H11 H 0.726591 0.337366 0.614053
C13 C 0.68141(17) 0.42697(18) 0.42034(16)
H12 H 0.723315 0.347004 0.417100
C14 C 0.15737(17) 0.58271(18) 0.58078(16)
H13 H 0.243531 0.609413 0.604415
C15 C 0.68498(19) 0.4681(2) 0.23356(17)
H14 H 0.687946 0.375782 0.229032
H15 H 0.766180 0.501735 0.246028
C16 C 0.81608(17) 0.47225(19) 0.72702(16)
C17 C 0.36137(17) 0.35047(18) 0.69967(16)
H16 H 0.415065 0.303906 0.764847
C18 C 0.50244(18) 0.31481(19) 0.27948(17)
H17 H 0.440953 0.337025 0.209297
H18 H 0.466196 0.262374 0.319211
H19 H 0.567703 0.268598 0.268752
C19 C 0.1997(2) 0.2853(2) 0.76301(19)
H20 H 0.124627 0.309486 0.771003
H21 H 0.258271 0.257024 0.832672
H22 H 0.183510 0.217282 0.710360
C20 C 0.27071(17) 0.55235(18) 0.39350(15)
H23 H 0.248410 0.614233 0.334176
H24 H 0.315086 0.597391 0.461566
C21 C 0.35420(17) 0.45472(18) 0.37536(16)
H25 H 0.308947 0.404134 0.310817
H26 H 0.384536 0.397776 0.438182
C22 C 0.6361(2) 0.5293(2) 0.04036(19)
C23 C 0.2938(2) 0.4957(2) 0.81475(17)
H27 H 0.316847 0.572793 0.787788
H28 H 0.363430 0.462783 0.874800
H29 H 0.228350 0.513748 0.839650
C24 C 0.82213(18) 0.6105(2) 0.74944(17)
H30 H 0.875313 0.625861 0.824475
H31 H 0.741162 0.641948 0.737189
H32 H 0.853869 0.653783 0.701275
C25 C 0.6722(3) 0.5384(3) -0.0301(2)
H33 H 0.701160 0.545697 -0.086705
C26 C 0.5924(2) 0.5214(2) 0.12840(17)
H34 H 0.519447 0.468131 0.105143
H35 H 0.568693 0.606238 0.142774
C27 C 1.14394(19) 0.49500(19) 1.01441(16)
C28 C 0.08909(19) 0.67222(19) 0.62830(18)
H36 H 0.004585 0.646134 0.604576
H37 H 0.093224 0.757690 0.603340
H38 H 0.126096 0.669680 0.707151
C29 C 0.73607(17) 0.49587(18) 0.52620(16)
H39 H 0.698597 0.579796 0.517975
H40 H 0.823156 0.507977 0.542616
C30 C 0.06291(19) 0.4675(2) 0.28625(18)
H41 H -0.005680 0.422501 0.292031
H42 H 0.100922 0.415442 0.247736
H43 H 0.034678 0.545823 0.246653
C31 C 1.2103(3) 0.7354(2) 0.9955(2)
H44 H 1.238943 0.710380 0.938956
H45 H 1.252731 0.811338 1.031086
H46 H 1.123487 0.751976 0.963462
loop_
_geom_bond_atom_site_label_1
_geom_bond_atom_site_label_2
_geom_bond_site_symmetry_1
_geom_bond_site_symmetry_2
S1 C3 1_555 1_555
S2 C27 1_555 1_555
O1 C11 1_555 1_555
O2 C11 1_555 1_555
O3 H1 1_555 1_555
O4 C4 1_555 1_555
O5 H2 1_555 1_555
N1 C8 1_555 1_555
N2 C1 1_555 1_555
C1 C3 1_555 1_555
C2 H3 1_555 1_555
H4 C2 1_555 1_555
C3 H5 1_555 1_555
C4 C10 1_555 1_555
C5 H6 1_555 1_555
C6 C1 1_555 1_555
H7 C6 1_555 1_555
C7 O5 1_555 1_555
H8 C7 1_555 1_555
C8 C9 1_555 1_555
C9 H9 1_555 1_555
H10 C9 1_555 1_555
C10 C17 1_555 1_555
C11 C2 1_555 1_555
C12 O1 1_555 1_555
H11 C12 1_555 1_555
C13 N1 1_555 1_555
H12 C13 1_555 1_555
C14 C4 1_555 1_555
H13 C14 1_555 1_555
C15 N1 1_555 1_555
H14 C15 1_555 1_555
H15 C15 1_555 1_555
C16 C6 1_555 1_555
C17 O3 1_555 1_555
H16 C17 1_555 1_555
C18 C8 1_555 1_555
H17 C18 1_555 1_555
H18 C18 1_555 1_555
H19 C18 1_555 1_555
C19 C10 1_555 1_555
H20 C19 1_555 1_555
H21 C19 1_555 1_555
H22 C19 1_555 1_555
C20 C5 1_555 1_555
H23 C20 1_555 1_555
H24 C20 1_555 1_555
C21 C9 1_555 1_555
H25 C21 1_555 1_555
H26 C21 1_555 1_555
C22 C25 1_555 1_555
C23 C10 1_555 1_555
H27 C23 1_555 1_555
H28 C23 1_555 1_555
H29 C23 1_555 1_555
C24 C16 1_555 1_555
H30 C24 1_555 1_555
H31 C24 1_555 1_555
H32 C24 1_555 1_555
C25 H33 1_555 1_555
C26 C15 1_555 1_555
H34 C26 1_555 1_555
H35 C26 1_555 1_555
C27 S1 1_555 1_555
C28 C14 1_555 1_555
H36 C28 1_555 1_555
H37 C28 1_555 1_555
H38 C28 1_555 1_555
C29 C12 1_555 1_555
H39 C29 1_555 1_555
H40 C29 1_555 1_555
C30 C5 1_555 1_555
H41 C30 1_555 1_555
H42 C30 1_555 1_555
H43 C30 1_555 1_555
C31 S2 1_555 1_555
H44 C31 1_555 1_555
H45 C31 1_555 1_555
H46 C31 1_555 1_555
N2 C27 1_555 1_555
C2 C17 1_555 1_555
C5 C7 1_555 1_555
C7 C14 1_555 1_555
C8 C13 1_555 1_555
C12 C16 1_555 1_555
C13 C29 1_555 1_555
C20 C21 1_555 1_555
C22 C26 1_555 1_555

#END
