
#######################################################################
#
#                 Cambridge Crystallographic Data Centre
#                                CCDC 
#
#######################################################################
#
# If this CIF has been generated from an entry in the Cambridge 
# Structural Database, then it will include bibliographic, chemical, 
# crystal, experimental, refinement or atomic coordinate data resulting 
# from the CCDC's data processing and validation procedures.
#
#######################################################################

data_SAXLEL
_chemical_formula_moiety         'C27 H42 N2 O5 S1,C4 H8 O2'
_chemical_name_systematic        
'(1S,3S,7S,10R,11S,12S,16R)-7,11-dihydroxy-8,8,10,12,16-pentamethyl-3-[(1E)-1-(2-methyl-1,3-thiazol-4-yl)prop-1-en-2-yl]-4-oxa-17-azabicyclo[14.1.0]heptadecane-5,9-dione ethyl acetate solvate'
_symmetry_cell_setting           monoclinic
_symmetry_space_group_name_H-M   'P 21'
_symmetry_Int_Tables_number      4
_space_group_name_Hall           'P 2yb'
loop_
_symmetry_equiv_pos_site_id
_symmetry_equiv_pos_as_xyz
1 x,y,z
2 -x,1/2+y,-z
_cell_length_a                   11.9195(4)
_cell_length_b                   10.5514(4)
_cell_length_c                   13.7743(4)
_cell_angle_alpha                90
_cell_angle_beta                 112.165(2)
_cell_angle_gamma                90
_cell_volume                     1604.34
_cell_formula_units_Z            2
loop_
_atom_site_label
_atom_site_type_symbol
_atom_site_fract_x
_atom_site_fract_y
_atom_site_fract_z
S1 S -0.19999(6) 0.36320(6) -0.05565(5)
O1 O 0.39694(15) 0.47514(17) 0.36551(14)
O2 O 0.89150(16) 0.71771(17) 0.58386(15)
H1 H 0.946693 0.763074 0.578319
O3 O 0.68047(17) 0.28332(17) 0.39750(14)
H2 H 0.681089 0.206574 0.381511
O4 O 0.38965(17) 0.32539(17) 0.24678(16)
O5 O 0.95365(16) 0.40472(17) 0.43102(15)
N1 N -0.05009(19) 0.5310(2) 0.05338(17)
N2 N 0.3210(2) 0.5222(2) 0.64424(18)
C1 C 0.0968(2) 0.4007(2) 0.1987(2)
H3 H 0.107415 0.318459 0.228811
C2 C -0.0093(2) 0.4147(3) 0.1011(2)
C3 C 0.2738(2) 0.4442(2) 0.3572(2)
H4 H 0.267024 0.350762 0.366056
C4 C 0.5644(2) 0.4621(3) 0.3156(2)
H5 H 0.602081 0.504261 0.384579
H6 H 0.553542 0.526544 0.260522
C5 C 0.8983(2) 0.5936(2) 0.5454(2)
H7 H 0.985551 0.568634 0.569973
C6 C 0.2567(2) 0.5139(2) 0.4473(2)
H8 H 0.299151 0.596363 0.457277
H9 H 0.169316 0.531562 0.427661
C7 C 0.1812(2) 0.4853(2) 0.2523(2)
C8 C 0.3023(2) 0.4433(2) 0.5498(2)
H10 H 0.259681 0.361291 0.548394
C9 C 0.8595(2) 0.4601(2) 0.3848(2)
C10 C 0.8453(2) 0.5920(2) 0.4246(2)
H11 H 0.757577 0.615334 0.398205
C11 C 0.6483(2) 0.3583(3) 0.30627(19)
H12 H 0.599778 0.303415 0.245811
C12 C 0.6287(2) 0.4684(2) 0.6127(2)
H13 H 0.671474 0.415408 0.675023
H14 H 0.597241 0.411970 0.550824
C13 C 0.4418(2) 0.4099(2) 0.3046(2)
C14 C 0.7633(2) 0.4020(2) 0.2864(2)
C15 C 0.4252(2) 0.4521(2) 0.6350(2)
C16 C 0.5233(2) 0.5370(2) 0.6271(2)
H15 H 0.555791 0.589046 0.691609
H16 H 0.486347 0.595607 0.567371
C17 C 0.9221(2) 0.4732(3) 0.7081(2)
H17 H 0.989942 0.423139 0.704920
H18 H 0.879283 0.424206 0.743848
H19 H 0.952988 0.551848 0.746713
C18 C 0.7283(2) 0.4966(3) 0.1948(2)
H20 H 0.705524 0.577671 0.216942
H21 H 0.659584 0.463015 0.135392
H22 H 0.797381 0.509372 0.173840
C19 C 0.7172(2) 0.5634(2) 0.5974(2)
H23 H 0.738139 0.627186 0.654257
H24 H 0.676046 0.608369 0.530224
C20 C 0.8350(2) 0.5048(2) 0.5969(2)
H25 H 0.814222 0.424347 0.555502
C21 C -0.1491(2) 0.5181(3) -0.0290(2)
C22 C 0.8164(2) 0.2831(3) 0.2563(2)
H26 H 0.894499 0.303825 0.251811
H27 H 0.760596 0.251835 0.188168
H28 H 0.828269 0.217435 0.309573
C23 C 0.9142(3) 0.6869(2) 0.3817(2)
H29 H 0.899945 0.773349 0.400347
H30 H 0.885239 0.679092 0.305289
H31 H 1.001156 0.668266 0.412415
C24 C 0.4676(2) 0.3368(3) 0.7043(2)
H32 H 0.522694 0.363105 0.774250
H33 H 0.509979 0.279108 0.673899
H34 H 0.397450 0.293292 0.709603
C25 C -0.0785(3) 0.3144(3) 0.0518(2)
H35 H -0.061838 0.228714 0.073873
C26 C 0.1902(3) 0.6193(3) 0.2208(3)
H36 H 0.124053 0.637061 0.153780
H37 H 0.268079 0.632021 0.213496
H38 H 0.184405 0.676817 0.274635
C27 C -0.2163(3) 0.6229(3) -0.0978(2)
H39 H -0.234490 0.600200 -0.171178
H40 H -0.166723 0.699998 -0.080463
H41 H -0.292065 0.638057 -0.087367
H42 H 0.294(3) 0.482(4) 0.688(3)
O6 O 0.3530(3) 0.5505(2) 0.97118(19)
O7 O 0.2804(2) 0.4100(2) 0.84009(19)
C28 C 0.4443(3) 0.5886(3) 0.9322(3)
H43 H 0.407321 0.603289 0.855605
H44 H 0.506590 0.521634 0.946086
C29 C 0.2758(3) 0.4594(3) 0.9168(3)
C30 C 0.5008(4) 0.7096(4) 0.9884(3)
H45 H 0.560552 0.740670 0.960993
H46 H 0.540852 0.692716 1.063647
H47 H 0.437602 0.773687 0.976980
C31 C 0.1855(4) 0.4298(4) 0.9648(3)
H48 H 0.227870 0.413540 1.039898
H49 H 0.138871 0.354556 0.931031
H50 H 0.130425 0.501897 0.954991
loop_
_geom_bond_atom_site_label_1
_geom_bond_atom_site_label_2
_geom_bond_site_symmetry_1
_geom_bond_site_symmetry_2
S1 C21 1_555 1_555
O1 C3 1_555 1_555
O2 H1 1_555 1_555
O3 H2 1_555 1_555
O4 C13 1_555 1_555
O5 C9 1_555 1_555
N1 C2 1_555 1_555
N2 C8 1_555 1_555
C1 H3 1_555 1_555
C2 C1 1_555 1_555
C3 H4 1_555 1_555
C4 H5 1_555 1_555
H6 C4 1_555 1_555
C5 O2 1_555 1_555
H7 C5 1_555 1_555
C6 C3 1_555 1_555
H8 C6 1_555 1_555
H9 C6 1_555 1_555
C7 C1 1_555 1_555
C8 C6 1_555 1_555
H10 C8 1_555 1_555
C9 C10 1_555 1_555
C10 C5 1_555 1_555
H11 C10 1_555 1_555
C11 O3 1_555 1_555
H12 C11 1_555 1_555
C12 H13 1_555 1_555
H14 C12 1_555 1_555
C13 O1 1_555 1_555
C14 C9 1_555 1_555
C15 N2 1_555 1_555
C16 C12 1_555 1_555
H15 C16 1_555 1_555
H16 C16 1_555 1_555
C17 H17 1_555 1_555
H18 C17 1_555 1_555
H19 C17 1_555 1_555
C18 C14 1_555 1_555
H20 C18 1_555 1_555
H21 C18 1_555 1_555
H22 C18 1_555 1_555
C19 C12 1_555 1_555
H23 C19 1_555 1_555
H24 C19 1_555 1_555
C20 C5 1_555 1_555
H25 C20 1_555 1_555
C21 N1 1_555 1_555
C22 C14 1_555 1_555
H26 C22 1_555 1_555
H27 C22 1_555 1_555
H28 C22 1_555 1_555
C23 C10 1_555 1_555
H29 C23 1_555 1_555
H30 C23 1_555 1_555
H31 C23 1_555 1_555
C24 C15 1_555 1_555
H32 C24 1_555 1_555
H33 C24 1_555 1_555
H34 C24 1_555 1_555
C25 S1 1_555 1_555
H35 C25 1_555 1_555
C26 C7 1_555 1_555
H36 C26 1_555 1_555
H37 C26 1_555 1_555
H38 C26 1_555 1_555
C27 C21 1_555 1_555
H39 C27 1_555 1_555
H40 C27 1_555 1_555
H41 C27 1_555 1_555
H42 N2 1_555 1_555
O6 C28 1_555 1_555
O7 C29 1_555 1_555
C28 H43 1_555 1_555
H44 C28 1_555 1_555
C29 O6 1_555 1_555
C30 C28 1_555 1_555
H45 C30 1_555 1_555
H46 C30 1_555 1_555
H47 C30 1_555 1_555
C31 C29 1_555 1_555
H48 C31 1_555 1_555
H49 C31 1_555 1_555
H50 C31 1_555 1_555
C2 C25 1_555 1_555
C3 C7 1_555 1_555
C4 C11 1_555 1_555
C4 C13 1_555 1_555
C8 C15 1_555 1_555
C11 C14 1_555 1_555
C15 C16 1_555 1_555
C17 C20 1_555 1_555
C19 C20 1_555 1_555

#END
