
#######################################################################
#
#                 Cambridge Crystallographic Data Centre
#                                CCDC 
#
#######################################################################
#
# If this CIF has been generated from an entry in the Cambridge 
# Structural Database, then it will include bibliographic, chemical, 
# crystal, experimental, refinement or atomic coordinate data resulting 
# from the CCDC's data processing and validation procedures.
#
#######################################################################

data_SAXMOW
_chemical_formula_moiety         'C24 H22 F3 N5 O1,1.5(C4 H8 O1)'
_chemical_name_systematic        
'6-amino-3-methyl-4-[3-(2-methylpyridin-3-yl)-5-(trifluoromethyl)phenyl]-4-(propan-2-yl)-2,4-dihydropyrano[2,3-c]pyrazole-5-carbonitrile tetrahydrofuran solvate'
_chemical_properties_biological  'Plasmodium falciparum PfNF54 inhibitor'
_symmetry_cell_setting           triclinic
_symmetry_space_group_name_H-M   'P -1'
_symmetry_Int_Tables_number      2
_space_group_name_Hall           '-P 1'
loop_
_symmetry_equiv_pos_site_id
_symmetry_equiv_pos_as_xyz
1 x,y,z
2 -x,-y,-z
_cell_length_a                   11.389(4)
_cell_length_b                   11.456(3)
_cell_length_c                   12.388(4)
_cell_angle_alpha                72.397(8)
_cell_angle_beta                 70.668(8)
_cell_angle_gamma                68.692(9)
_cell_volume                     1390.07
_exptl_crystal_colour            colorless
_exptl_crystal_description       block
_chemical_melting_point          '488 K'
_cell_formula_units_Z            2
_exptl_crystal_recrystallization_method tetrahydrofuran
loop_
_atom_site_label
_atom_site_type_symbol
_atom_site_fract_x
_atom_site_fract_y
_atom_site_fract_z
O1 O 0.64639(11) -0.00715(10) 0.93165(8)
F1 F 1.14437(11) 0.31302(11) 0.38573(10)
F2 F 1.02589(12) 0.49704(10) 0.31860(10)
F3 F 1.01061(14) 0.32654(14) 0.29276(10)
N1 N 0.68657(13) 0.19812(12) 1.05634(11)
H1 H 0.6655(18) 0.2341(17) 1.1176(14)
N2 N 0.62854(13) 0.11080(12) 1.06191(11)
N3 N 0.40726(13) 0.70185(13) 0.73513(11)
N4 N 0.64202(14) -0.09891(13) 0.79867(11)
H2 H 0.5641(15) -0.1003(18) 0.8405(14)
H3 H 0.6582(17) -0.1086(18) 0.7260(12)
N5 N 0.83943(13) 0.01286(13) 0.52545(11)
C1 C 0.68368(15) 0.07983(14) 0.95830(12)
C2 C 0.77654(14) 0.04384(14) 0.73690(12)
C3 C 0.77385(15) 0.22066(14) 0.95326(12)
C4 C 0.81201(14) 0.02560(14) 0.62028(12)
C5 C 0.83952(15) 0.24474(14) 0.67123(12)
C6 C 0.77544(14) 0.14213(14) 0.88564(12)
C7 C 0.69126(15) -0.01772(14) 0.81683(12)
C8 C 0.72660(15) 0.34800(14) 0.68540(12)
H4 H 0.6591 0.3408 0.7548
C9 C 0.70961(15) 0.46171(14) 0.60066(12)
C10 C 0.84867(14) 0.11806(14) 0.76413(12)
C11 C 0.52526(15) 0.61440(14) 0.71978(13)
C12 C 0.58505(15) 0.56701(14) 0.61596(13)
C13 C 0.93667(15) 0.25595(14) 0.56757(12)
H5 H 1.0139 0.1868 0.5549
C14 C 0.84326(16) 0.31738(15) 0.92976(13)
H6 H 0.7850 0.3890 0.9673
H7 H 0.8699 0.3491 0.8452
H8 H 0.9204 0.2776 0.9613
C15 C 0.99243(15) 0.03197(15) 0.75945(13)
H9 H 1.0327 0.0144 0.6788
C16 C 0.92011(16) 0.36885(15) 0.48266(13)
C17 C 0.80836(16) 0.47151(14) 0.49785(13)
H10 H 0.7990 0.5476 0.4390
C18 C 0.52152(16) 0.61947(15) 0.52556(13)
H11 H 0.5616 0.5932 0.4528
C19 C 0.58951(17) 0.57451(16) 0.81908(13)
H12 H 0.5638 0.6468 0.8571
H13 H 0.6843 0.5481 0.7887
H14 H 0.5623 0.5027 0.8761
C20 C 0.99698(16) -0.09715(16) 0.84533(13)
H15 H 0.9553 -0.0827 0.9251
H16 H 1.0878 -0.1492 0.8403
H17 H 0.9508 -0.1421 0.8255
C21 C 0.34621(17) 0.74661(16) 0.64838(14)
H18 H 0.2620 0.8065 0.6608
C22 C 1.02434(18) 0.37624(16) 0.37055(14)
C23 C 0.40045(17) 0.70949(15) 0.54158(14)
H19 H 0.3558 0.7448 0.4811
C24 C 1.07563(16) 0.09535(17) 0.78332(14)
H20 H 1.0682 0.1806 0.7324
H21 H 1.1667 0.0428 0.7676
H22 H 1.0454 0.1034 0.8653
O2 O 0.3999(2) 0.3721(3) 0.7833(2)
C25 C 0.3906(7) 0.2456(5) 0.8094(6)
H23 H 0.4360 0.2057 0.7403
H24 H 0.4304 0.1922 0.8749
C26 C 0.2611(6) 0.2562(5) 0.8395(6)
H25 H 0.2437 0.1778 0.8944
H26 H 0.2304 0.2701 0.7693
C27 C 0.2817(6) 0.4477(6) 0.8463(7)
H27 H 0.2439 0.5264 0.7930
H28 H 0.2984 0.4729 0.9084
C28 C 0.1941(7) 0.3704(8) 0.8969(10)
H29 H 0.1083 0.4175 0.8793
H30 H 0.1818 0.3438 0.9828
O3? O 0.3703(7) 0.3483(10) 0.8948(6)
C29? C 0.4063(11) 0.2688(14) 0.8093(13)
H31? H 0.4209 0.1773 0.8484
H32? H 0.4869 0.2791 0.7496
C30? C 0.2960(6) 0.3135(7) 0.7548(5)
H33? H 0.2855 0.4013 0.7064
H34? H 0.3005 0.2540 0.7089
C31? C 0.2278(8) 0.3626(8) 0.9422(6)
H35? H 0.2088 0.3143 1.0239
H36? H 0.1767 0.4537 0.9392
C32? C 0.1993(10) 0.3084(14) 0.8635(8)
H37? H 0.1996 0.2185 0.8996
H38? H 0.1120 0.3579 0.8500
O4? O 0.5815(2) -0.1139(2) 0.5904(2)
C33? C 0.6464(4) -0.1075(4) 0.4683(3)
H39? H 0.690(3) -0.1969(15) 0.458(4)
H40? H 0.714(2) -0.064(3) 0.447(4)
C34? C 0.4336(4) 0.0500(4) 0.4868(4)
H41? H 0.423(3) 0.1426(14) 0.454(4)
H42? H 0.3471(19) 0.036(3) 0.507(4)
C35? C 0.4726(2) 0.0176(2) 0.59744(17)
H43? H 0.3985 0.0087 0.6660
H44? H 0.5071 0.0834 0.6018
loop_
_geom_bond_atom_site_label_1
_geom_bond_atom_site_label_2
_geom_bond_site_symmetry_1
_geom_bond_site_symmetry_2
O1 C1 1_555 1_555
F1 C22 1_555 1_555
F2 C22 1_555 1_555
F3 C22 1_555 1_555
N1 H1 1_555 1_555
N2 N1 1_555 1_555
N3 C11 1_555 1_555
N4 H2 1_555 1_555
H3 N4 1_555 1_555
N5 C4 1_555 1_555
C1 N2 1_555 1_555
C2 C4 1_555 1_555
C3 N1 1_555 1_555
C5 C8 1_555 1_555
C6 C1 1_555 1_555
C7 O1 1_555 1_555
C8 H4 1_555 1_555
C9 C8 1_555 1_555
C10 C2 1_555 1_555
C11 C12 1_555 1_555
C12 C9 1_555 1_555
C13 C5 1_555 1_555
H5 C13 1_555 1_555
C14 C3 1_555 1_555
H6 C14 1_555 1_555
H7 C14 1_555 1_555
H8 C14 1_555 1_555
C15 C10 1_555 1_555
H9 C15 1_555 1_555
C16 C13 1_555 1_555
C17 C9 1_555 1_555
H10 C17 1_555 1_555
C18 C12 1_555 1_555
H11 C18 1_555 1_555
C19 C11 1_555 1_555
H12 C19 1_555 1_555
H13 C19 1_555 1_555
H14 C19 1_555 1_555
C20 C15 1_555 1_555
H15 C20 1_555 1_555
H16 C20 1_555 1_555
H17 C20 1_555 1_555
C21 N3 1_555 1_555
H18 C21 1_555 1_555
C22 C16 1_555 1_555
C23 C18 1_555 1_555
H19 C23 1_555 1_555
C24 C15 1_555 1_555
H20 C24 1_555 1_555
H21 C24 1_555 1_555
H22 C24 1_555 1_555
O2 C25 1_555 1_555
C25 H23 1_555 1_555
H24 C25 1_555 1_555
C26 C25 1_555 1_555
H25 C26 1_555 1_555
H26 C26 1_555 1_555
C27 O2 1_555 1_555
H27 C27 1_555 1_555
H28 C27 1_555 1_555
C28 C26 1_555 1_555
H29 C28 1_555 1_555
H30 C28 1_555 1_555
N4 C7 1_555 1_555
C2 C7 1_555 1_555
C3 C6 1_555 1_555
C5 C10 1_555 1_555
C6 C10 1_555 1_555
C16 C17 1_555 1_555
C21 C23 1_555 1_555
C27 C28 1_555 1_555

#END
