
#######################################################################
#
#                 Cambridge Crystallographic Data Centre
#                                CCDC 
#
#######################################################################
#
# If this CIF has been generated from an entry in the Cambridge 
# Structural Database, then it will include bibliographic, chemical, 
# crystal, experimental, refinement or atomic coordinate data resulting 
# from the CCDC's data processing and validation procedures.
#
#######################################################################

data_SAXQEQ
_chemical_formula_moiety         'C27 H28 O3'
_chemical_name_systematic        
3,3,6,6-tetramethyl-9-(naphthalen-1-yl)-3,4,5,6,7,9-hexahydro-1H-xanthene-1,8(2H)-dione
_symmetry_cell_setting           orthorhombic
_symmetry_space_group_name_H-M   'P n a 21'
_symmetry_Int_Tables_number      33
_space_group_name_Hall           'P 2c -2n'
loop_
_symmetry_equiv_pos_site_id
_symmetry_equiv_pos_as_xyz
1 x,y,z
2 -x,-y,1/2+z
3 1/2-x,1/2+y,1/2+z
4 1/2+x,1/2-y,z
_cell_length_a                   12.608(5)
_cell_length_b                   16.361(5)
_cell_length_c                   10.675(5)
_cell_angle_alpha                90
_cell_angle_beta                 90
_cell_angle_gamma                90
_cell_volume                     2202.03
_exptl_crystal_colour            colorless
_exptl_crystal_description       Block
_cell_formula_units_Z            4
loop_
_atom_site_label
_atom_site_type_symbol
_atom_site_fract_x
_atom_site_fract_y
_atom_site_fract_z
O1 O -0.1402(3) -0.04128(18) 0.9177(3)
O2 O 0.0609(3) 0.1648(3) 0.7231(5)
C1 C -0.1173(4) 0.0380(3) 0.8825(4)
C2 C -0.0694(3) -0.1012(3) 0.8863(4)
C3 C 0.3484(4) 0.0530(3) 0.9180(6)
C4 C 0.2634(4) 0.0358(2) 0.8359(5)
C5 C 0.1597(3) 0.0217(3) 0.8878(4)
C6 C 0.0246(4) -0.0852(3) 0.8340(5)
C7 C -0.0256(3) 0.0590(3) 0.8308(5)
C8 C 0.0631(4) 0.0002(3) 0.8074(5)
H1 H 0.0834 0.0036 0.7190
C9 C -0.1978(4) 0.1780(3) 0.8554(6)
C10 C -0.2077(4) 0.0933(3) 0.9116(5)
H2 H -0.2139 0.0984 1.0018
H3 H -0.2726 0.0684 0.8810
O3 O 0.1711(4) -0.1444(3) 0.7346(7)
C11 C 0.4511(4) 0.0659(3) 0.8670(8)
H4 H 0.5075 0.0769 0.9207
C12 C 0.4685(4) 0.0627(4) 0.7427(8)
H5 H 0.5367 0.0697 0.7112
C13 C 0.3307(4) 0.0590(3) 1.0487(5)
H6 H 0.3863 0.0722 1.1024
C14 C -0.1129(4) -0.1838(3) 0.9159(6)
H7 H -0.1859 -0.1866 0.8875
H8 H -0.1129 -0.1912 1.0061
C15 C -0.0511(5) -0.2529(3) 0.8565(6)
C16 C 0.2322(5) 0.0455(4) 1.0950(6)
H9 H 0.2207 0.0480 1.1810
C17 C 0.1472(4) 0.0276(3) 1.0143(5)
H10 H 0.0801 0.0197 1.0484
C18 C 0.2849(4) 0.0348(3) 0.7055(5)
H11 H 0.2303 0.0244 0.6493
C19 C -0.0116(4) 0.1449(3) 0.7936(6)
C20 C -0.0872(5) 0.2074(4) 0.8532(7)
H12 H -0.0642 0.2187 0.9382
H13 H -0.0838 0.2581 0.8063
C21 C 0.0933(5) -0.1549(4) 0.8036(8)
C22 C -0.0814(6) -0.3341(4) 0.9147(9)
H14 H -0.1569 -0.3413 0.9096
H15 H -0.0599 -0.3349 1.0010
H16 H -0.0467 -0.3776 0.8704
C23 C 0.3847(5) 0.0490(4) 0.6618(7)
H17 H 0.3967 0.0494 0.5759
C24 C -0.2733(5) 0.2367(4) 0.9169(8)
H18 H -0.3437 0.2143 0.9153
H19 H -0.2724 0.2877 0.8726
H20 H -0.2520 0.2455 1.0022
C25 C -0.0843(7) -0.2592(5) 0.7171(8)
H21 H -0.1592 -0.2691 0.7119
H22 H -0.0467 -0.3035 0.6782
H23 H -0.0676 -0.2090 0.6750
C26 C 0.0648(5) -0.2365(4) 0.8640(10)
H24 H 0.1030 -0.2801 0.8220
H25 H 0.0866 -0.2361 0.9512
C27 C -0.2362(6) 0.1728(5) 0.7144(8)
H26 H -0.3082 0.1538 0.7117
H27 H -0.1916 0.1355 0.6691
H28 H -0.2320 0.2260 0.6767
loop_
_geom_bond_atom_site_label_1
_geom_bond_atom_site_label_2
_geom_bond_site_symmetry_1
_geom_bond_site_symmetry_2
O1 C1 1_555 1_555
O2 C19 1_555 1_555
C1 C7 1_555 1_555
C2 O1 1_555 1_555
C3 C4 1_555 1_555
C4 C5 1_555 1_555
C5 C8 1_555 1_555
C6 C2 1_555 1_555
C7 C8 1_555 1_555
C8 C6 1_555 1_555
H1 C8 1_555 1_555
C9 C10 1_555 1_555
C10 C1 1_555 1_555
H2 C10 1_555 1_555
H3 C10 1_555 1_555
O3 C21 1_555 1_555
C11 C3 1_555 1_555
H4 C11 1_555 1_555
C12 C11 1_555 1_555
H5 C12 1_555 1_555
C13 C3 1_555 1_555
H6 C13 1_555 1_555
C14 C2 1_555 1_555
H7 C14 1_555 1_555
H8 C14 1_555 1_555
C15 C14 1_555 1_555
C16 C13 1_555 1_555
H9 C16 1_555 1_555
C17 C5 1_555 1_555
H10 C17 1_555 1_555
C18 C4 1_555 1_555
H11 C18 1_555 1_555
C19 C7 1_555 1_555
C20 C9 1_555 1_555
H12 C20 1_555 1_555
H13 C20 1_555 1_555
C21 C6 1_555 1_555
C22 C15 1_555 1_555
H14 C22 1_555 1_555
H15 C22 1_555 1_555
H16 C22 1_555 1_555
C23 C12 1_555 1_555
H17 C23 1_555 1_555
C24 C9 1_555 1_555
H18 C24 1_555 1_555
H19 C24 1_555 1_555
H20 C24 1_555 1_555
C25 C15 1_555 1_555
H21 C25 1_555 1_555
H22 C25 1_555 1_555
H23 C25 1_555 1_555
C26 C15 1_555 1_555
H24 C26 1_555 1_555
H25 C26 1_555 1_555
C27 C9 1_555 1_555
H26 C27 1_555 1_555
H27 C27 1_555 1_555
H28 C27 1_555 1_555
C16 C17 1_555 1_555
C18 C23 1_555 1_555
C19 C20 1_555 1_555
C21 C26 1_555 1_555

#END
