
#######################################################################
#
#                 Cambridge Crystallographic Data Centre
#                                CCDC 
#
#######################################################################
#
# If this CIF has been generated from an entry in the Cambridge 
# Structural Database, then it will include bibliographic, chemical, 
# crystal, experimental, refinement or atomic coordinate data resulting 
# from the CCDC's data processing and validation procedures.
#
#######################################################################

data_SAXQOA
_chemical_formula_moiety         'C33 H32 O4'
_chemical_name_systematic        
2,2'-[(pyren-1-yl)methylene]bis(3-hydroxy-5,5-dimethylcyclohex-2-en-1-one)
_symmetry_cell_setting           monoclinic
_symmetry_space_group_name_H-M   'P 21/n'
_symmetry_Int_Tables_number      14
_space_group_name_Hall           '-P 2yn'
loop_
_symmetry_equiv_pos_site_id
_symmetry_equiv_pos_as_xyz
1 x,y,z
2 1/2-x,1/2+y,1/2-z
3 -x,-y,-z
4 1/2+x,1/2-y,1/2+z
_cell_length_a                   11.1175(11)
_cell_length_b                   21.230(2)
_cell_length_c                   11.5023(11)
_cell_angle_alpha                90
_cell_angle_beta                 109.711(3)
_cell_angle_gamma                90
_cell_volume                     2555.75
_exptl_crystal_colour            colorless
_exptl_crystal_description       Block
_cell_formula_units_Z            4
loop_
_atom_site_label
_atom_site_type_symbol
_atom_site_fract_x
_atom_site_fract_y
_atom_site_fract_z
H1 H 0.8192(14) 0.1639(7) 0.7926(15)
H2 H 1.0746(16) 0.0132(7) 0.6126(15)
H3 H 0.7229(15) 0.0161(7) 1.0082(15)
H4 H 0.7415(16) 0.0932(8) 0.8705(15)
H5 H 1.0185(18) 0.3310(8) 0.7713(18)
H6 H 0.8908(19) 0.3487(9) 0.6654(17)
H7 H 0.4415(17) 0.0523(10) 0.4761(17)
H8 H 0.8763(18) -0.1905(10) 1.1054(18)
H9 H 0.8569(18) 0.2951(9) 0.4493(17)
H10 H 0.9983(19) -0.2083(10) 0.9735(18)
H11 H 0.2176(19) 0.0673(11) 0.4940(19)
H12 H 0.9720(16) 0.1119(8) 0.5913(16)
H13 H 1.1140(18) -0.0950(9) 0.6877(17)
H14 H 0.7803(18) -0.0881(8) 1.1017(18)
H15 H 0.9645(15) 0.2507(8) 0.4370(16)
H16 H 1.108(2) 0.3908(11) 0.619(2)
H17 H 0.4186(18) 0.1219(9) 0.4333(19)
H18 H 0.3986(18) 0.2050(10) 0.6024(18)
H19 H 0.517(3) 0.0492(11) 0.740(2)
H20 H 0.220(2) 0.1419(12) 0.473(2)
H21 H 1.080(2) -0.1748(11) 0.8186(18)
H22 H 1.1742(19) 0.2571(10) 0.591(2)
H23 H 1.1196(18) 0.2213(10) 0.6879(18)
H24 H 1.195(2) 0.2852(9) 0.725(2)
H25 H 0.4058(19) 0.1782(9) 0.7231(19)
H26 H 0.383(2) 0.0637(11) 0.755(2)
H27 H 1.097(2) 0.3553(10) 0.486(2)
H28 H 0.390(2) 0.0148(12) 0.658(2)
H29 H 0.202(2) 0.1159(11) 0.595(2)
H30 H 0.981(2) 0.3929(11) 0.519(2)
H31 H 0.750(3) 0.1275(14) 0.469(3)
H32 H 0.7157(19) 0.2330(12) 0.809(3)
O1 O 0.62338(12) 0.21789(6) 0.79402(12)
O2 O 0.65494(12) 0.08818(6) 0.47542(12)
O3 O 0.85144(12) 0.27012(6) 0.82206(11)
O4 O 0.81176(12) 0.17123(6) 0.44891(11)
C1 C 0.85518(15) 0.04269(8) 0.79356(15)
C2 C 0.80115(15) 0.15257(7) 0.70353(16)
C3 C 0.78247(17) 0.05208(9) 0.87347(17)
C4 C 0.87163(15) 0.08954(8) 0.71245(15)
C5 C 0.91797(15) -0.01654(8) 0.80128(15)
C6 C 0.90333(16) -0.06436(8) 0.88249(16)
C7 C 0.59441(16) 0.10913(8) 0.54272(16)
C8 C 0.57934(16) 0.17768(8) 0.70200(17)
C9 C 0.85474(15) 0.20841(8) 0.65354(15)
C10 C 1.01824(18) 0.02046(9) 0.65881(18)
C11 C 0.83137(16) -0.05263(8) 0.96068(16)
C12 C 0.65597(15) 0.14605(7) 0.64927(15)
C13 C 0.95663(17) 0.07768(9) 0.64994(17)
C14 C 0.99893(17) -0.02791(8) 0.73153(16)
C15 C 1.0586(2) -0.08842(10) 0.7383(2)
C16 C 0.45457(18) 0.09546(11) 0.50256(19)
C17 C 0.77181(18) 0.00734(9) 0.95276(18)
C18 C 0.86133(15) 0.21304(8) 0.53620(16)
C19 C 1.01803(17) 0.30364(9) 0.60034(17)
C20 C 0.96492(17) -0.12363(8) 0.88809(18)
C21 C 0.88514(16) 0.26363(8) 0.72780(16)
C22 C 0.9539(2) 0.31767(10) 0.6953(2)
C23 C 0.39014(17) 0.10682(9) 0.59823(17)
C24 C 0.82296(19) -0.09918(10) 1.04327(19)
C25 C 0.43718(18) 0.17023(10) 0.6579(2)
C26 C 0.8826(2) -0.15659(10) 1.0473(2)
C27 C 0.9231(2) 0.26740(10) 0.49509(18)
C28 C 1.0403(2) -0.13372(11) 0.8107(2)
C29 C 0.9517(2) -0.16887(10) 0.9700(2)
C30 C 0.2457(2) 0.10880(15) 0.5333(3)
C31 C 1.0551(3) 0.36542(12) 0.5525(3)
C32 C 1.1387(2) 0.26420(13) 0.6563(3)
C33 C 0.4237(3) 0.05458(12) 0.6952(3)
loop_
_geom_bond_atom_site_label_1
_geom_bond_atom_site_label_2
_geom_bond_site_symmetry_1
_geom_bond_site_symmetry_2
H1 C2 1_555 1_555
H2 C10 1_555 1_555
H3 C17 1_555 1_555
H4 C3 1_555 1_555
H5 C22 1_555 1_555
H6 C22 1_555 1_555
H7 C16 1_555 1_555
H8 C26 1_555 1_555
H9 C27 1_555 1_555
H10 C29 1_555 1_555
H11 C30 1_555 1_555
H12 C13 1_555 1_555
H13 C15 1_555 1_555
H14 C24 1_555 1_555
H15 C27 1_555 1_555
H16 C31 1_555 1_555
H17 C16 1_555 1_555
H18 C25 1_555 1_555
H19 C33 1_555 1_555
H20 C30 1_555 1_555
H21 C28 1_555 1_555
H22 C32 1_555 1_555
H23 C32 1_555 1_555
H24 C32 1_555 1_555
H25 C25 1_555 1_555
H26 C33 1_555 1_555
H27 C31 1_555 1_555
H28 C33 1_555 1_555
H29 C30 1_555 1_555
H30 C31 1_555 1_555
H31 O4 1_555 1_555
H32 O1 1_555 1_555
O1 C8 1_555 1_555
O2 C7 1_555 1_555
O3 C21 1_555 1_555
O4 C18 1_555 1_555
C1 C3 1_555 1_555
C2 C4 1_555 1_555
C3 C17 1_555 1_555
C4 C1 1_555 1_555
C5 C1 1_555 1_555
C6 C5 1_555 1_555
C7 C12 1_555 1_555
C8 C12 1_555 1_555
C9 C2 1_555 1_555
C10 C13 1_555 1_555
C11 C6 1_555 1_555
C12 C2 1_555 1_555
C13 C4 1_555 1_555
C14 C5 1_555 1_555
C15 C14 1_555 1_555
C16 C7 1_555 1_555
C17 C11 1_555 1_555
C18 C9 1_555 1_555
C19 C22 1_555 1_555
C20 C6 1_555 1_555
C21 C9 1_555 1_555
C22 C21 1_555 1_555
C23 C16 1_555 1_555
C24 C11 1_555 1_555
C25 C8 1_555 1_555
C26 C24 1_555 1_555
C27 C18 1_555 1_555
C28 C15 1_555 1_555
C29 C20 1_555 1_555
C30 C23 1_555 1_555
C31 C19 1_555 1_555
C32 C19 1_555 1_555
C33 C23 1_555 1_555
C10 C14 1_555 1_555
C19 C27 1_555 1_555
C20 C28 1_555 1_555
C23 C25 1_555 1_555
C26 C29 1_555 1_555

#END
