
#######################################################################
#
#                 Cambridge Crystallographic Data Centre
#                                CCDC 
#
#######################################################################
#
# If this CIF has been generated from an entry in the Cambridge 
# Structural Database, then it will include bibliographic, chemical, 
# crystal, experimental, refinement or atomic coordinate data resulting 
# from the CCDC's data processing and validation procedures.
#
#######################################################################

data_SAXRER
_chemical_formula_moiety         'C33 H42 O5'
_chemical_name_systematic        
5-(benzenecarbonyl)-9a-hydroxy-2,2,6,6-tetramethyl-3a,9-bis(3-methylbut-2-en-1-yl)octahydro-3,7:5,9-dimethanocycloocta[b]furan-4,10(2H)-dione
_symmetry_cell_setting           orthorhombic
_symmetry_space_group_name_H-M   'P 21 21 21'
_symmetry_Int_Tables_number      19
_space_group_name_Hall           'P 2ac 2ab'
loop_
_symmetry_equiv_pos_site_id
_symmetry_equiv_pos_as_xyz
1 x,y,z
2 1/2-x,-y,1/2+z
3 1/2+x,1/2-y,-z
4 -x,1/2+y,1/2-z
_cell_length_a                   9.8352(5)
_cell_length_b                   11.5100(7)
_cell_length_c                   49.946(3)
_cell_angle_alpha                90
_cell_angle_beta                 90
_cell_angle_gamma                90
_cell_volume                     5654.04
_exptl_crystal_colour            colorless
_exptl_crystal_description       block
_cell_formula_units_Z            8
loop_
_atom_site_label
_atom_site_type_symbol
_atom_site_fract_x
_atom_site_fract_y
_atom_site_fract_z
O1 O -0.5473(3) -0.4387(3) 0.01219(5)
O2 O -0.3352(2) -0.6313(2) -0.02514(5)
O3 O -0.1853(2) -0.4162(2) -0.10036(5)
O4 O -0.5648(2) -0.3127(2) -0.04901(5)
O5 O -0.4106(2) -0.4721(2) -0.09994(4)
H1 H -0.409100 -0.435603 -0.114039
C1 C -0.4030(3) -0.4346(3) -0.02684(6)
C2 C -0.3335(3) -0.5427(3) -0.03823(6)
C3 C -0.2595(3) -0.5397(3) -0.06520(6)
C4 C -0.3013(3) -0.4366(3) -0.08367(6)
C5 C -0.3419(3) -0.3208(3) -0.06906(7)
C6 C -0.2222(3) -0.2678(3) -0.05325(8)
H2 H -0.147040 -0.256077 -0.065523
H3 H -0.249811 -0.191863 -0.046786
C7 C -0.1704(3) -0.3389(3) -0.02928(8)
H4 H -0.113141 -0.284660 -0.019189
C8 C -0.2897(3) -0.3682(4) -0.00993(7)
C9 C -0.4501(3) -0.3521(3) -0.04886(6)
C10 C -0.5294(3) -0.4736(3) -0.01060(7)
C11 C -0.6321(3) -0.5519(3) -0.02351(8)
C12 C -0.7315(4) -0.6006(4) -0.00729(10)
H5 H -0.734928 -0.582030 0.010812
C13 C -0.8259(5) -0.6773(5) -0.01810(15)
H6 H -0.892032 -0.710238 -0.007167
C14 C -0.8219(5) -0.7044(4) -0.04465(15)
H7 H -0.885407 -0.755956 -0.051676
C15 C -0.7255(4) -0.6566(4) -0.06110(11)
H8 H -0.723596 -0.675421 -0.079204
C16 C -0.6307(4) -0.5800(3) -0.05056(8)
H9 H -0.565483 -0.547049 -0.061715
C17 C -0.2403(4) -0.4411(4) 0.01399(7)
H10 H -0.311966 -0.447493 0.026948
H11 H -0.162996 -0.403975 0.022043
H12 H -0.214988 -0.517171 0.007905
C18 C -0.3462(4) -0.2539(4) 0.00142(9)
H13 H -0.395160 -0.213356 -0.012338
H14 H -0.272409 -0.206388 0.007620
H15 H -0.406341 -0.270491 0.016069
C19 C -0.0742(3) -0.4400(3) -0.03675(7)
H16 H 0.015853 -0.407456 -0.039267
H17 H -0.069174 -0.491366 -0.021379
C20 C -0.1058(3) -0.5153(3) -0.06132(7)
H18 H -0.060594 -0.590307 -0.058712
C21 C -0.0604(3) -0.4675(4) -0.08901(7)
C22 C 0.0517(4) -0.3767(4) -0.08874(9)
H19 H 0.067945 -0.349944 -0.106668
H20 H 0.133430 -0.410302 -0.081659
H21 H 0.024468 -0.312361 -0.077739
C23 C -0.0141(4) -0.5653(4) -0.10778(7)
H22 H -0.085537 -0.621564 -0.109546
H23 H 0.065368 -0.602021 -0.100498
H24 H 0.006991 -0.533415 -0.125056
C24 C -0.2898(4) -0.6581(3) -0.07917(7)
H25 H -0.383910 -0.678440 -0.075787
H26 H -0.279630 -0.647778 -0.098341
C25 C -0.2020(4) -0.7581(3) -0.07066(7)
H27 H -0.176613 -0.760613 -0.052733
C26 C -0.1569(4) -0.8438(3) -0.08625(8)
C27 C -0.1909(5) -0.8549(4) -0.11554(8)
H28 H -0.251131 -0.919526 -0.118124
H29 H -0.108921 -0.867207 -0.125580
H30 H -0.234313 -0.784924 -0.121590
C28 C -0.0674(4) -0.9392(3) -0.07564(8)
H31 H 0.019696 -0.935763 -0.084292
H32 H -0.108902 -1.013100 -0.079166
H33 H -0.055755 -0.929629 -0.056679
C29 C -0.3976(4) -0.2344(3) -0.09009(8)
H34 H -0.334025 -0.232115 -0.104936
H35 H -0.482557 -0.265177 -0.096919
C30 C -0.4223(4) -0.1122(4) -0.08114(9)
H36 H -0.347116 -0.072431 -0.074564
C31 C -0.5386(4) -0.0537(4) -0.08143(8)
C32 C -0.6720(4) -0.1026(4) -0.09004(8)
H37 H -0.697248 -0.069670 -0.106995
H38 H -0.740092 -0.084031 -0.076944
H39 H -0.664656 -0.185394 -0.091738
C33 C -0.5433(5) 0.0718(4) -0.07273(11)
H40 H -0.455395 0.094819 -0.066263
H41 H -0.609224 0.080775 -0.058706
H42 H -0.568220 0.119700 -0.087680
O6 O -0.1999(3) -0.6338(3) -0.26851(5)
O7 O -0.4924(2) -0.6357(2) -0.22835(5)
O8 O -0.4049(2) -0.3887(2) -0.15455(4)
O9 O -0.0575(2) -0.5324(2) -0.21068(5)
O10 O -0.2853(2) -0.5619(2) -0.15582(4)
H43 H -0.325069 -0.564465 -0.141410
C34 C -0.2822(3) -0.5370(3) -0.22901(6)
C35 C -0.4177(3) -0.5715(3) -0.21609(6)
C36 C -0.4599(3) -0.5242(3) -0.18878(6)
C37 C -0.3415(3) -0.4728(3) -0.17172(6)
C38 C -0.2239(3) -0.4145(3) -0.18758(6)
C39 C -0.2683(4) -0.3055(3) -0.20347(7)
H44 H -0.309784 -0.251017 -0.191117
H45 H -0.187665 -0.268676 -0.210769
C40 C -0.3685(3) -0.3283(3) -0.22654(7)
H46 H -0.368292 -0.256257 -0.237008
C41 C -0.3131(3) -0.4222(3) -0.24604(6)
C42 C -0.1747(3) -0.5007(3) -0.20850(7)
C43 C -0.2282(4) -0.6425(3) -0.24503(7)
C44 C -0.2126(3) -0.7579(3) -0.23133(7)
C45 C -0.1810(3) -0.8531(3) -0.24739(8)
H47 H -0.166954 -0.842686 -0.265648
C46 C -0.1704(4) -0.9635(4) -0.23631(9)
H48 H -0.149757 -1.026676 -0.247170
C47 C -0.1904(4) -0.9794(3) -0.20928(9)
H49 H -0.184260 -1.053395 -0.201912
C48 C -0.2196(4) -0.8850(3) -0.19308(8)
H50 H -0.232256 -0.895688 -0.174790
C49 C -0.2301(3) -0.7750(3) -0.20402(7)
H51 H -0.249114 -0.711918 -0.192994
C50 C -0.4136(4) -0.4462(4) -0.26917(7)
H52 H -0.368997 -0.491125 -0.282777
H53 H -0.443699 -0.373787 -0.276646
H54 H -0.490459 -0.488527 -0.262461
C51 C -0.1818(4) -0.3763(4) -0.25907(8)
H55 H -0.114806 -0.362407 -0.245458
H56 H -0.200826 -0.305128 -0.268349
H57 H -0.147814 -0.432833 -0.271526
C52 C -0.5173(3) -0.3432(3) -0.21744(7)
H58 H -0.554637 -0.266039 -0.214799
H59 H -0.566765 -0.377913 -0.232210
C53 C -0.5504(3) -0.4147(3) -0.19216(7)
H60 H -0.644554 -0.441523 -0.193896
C54 C -0.5387(4) -0.3519(3) -0.16472(7)
C55 C -0.6487(4) -0.3935(4) -0.14513(8)
H61 H -0.648782 -0.476872 -0.144497
H62 H -0.735978 -0.366453 -0.151043
H63 H -0.630040 -0.363205 -0.127603
C56 C -0.5426(4) -0.2200(4) -0.16519(8)
H64 H -0.525958 -0.190676 -0.147497
H65 H -0.630423 -0.194556 -0.171187
H66 H -0.473991 -0.191519 -0.177169
C57 C -0.5277(3) -0.6260(3) -0.17335(7)
H67 H -0.474399 -0.695589 -0.176475
H68 H -0.522807 -0.608931 -0.154357
C58 C -0.6747(4) -0.6526(3) -0.18028(7)
H69 H -0.708988 -0.621176 -0.196044
C59 C -0.7568(4) -0.7163(3) -0.16585(7)
C60 C -0.7160(5) -0.7728(5) -0.14003(10)
H70 H -0.685514 -0.850545 -0.143485
H71 H -0.792693 -0.774875 -0.128134
H72 H -0.643834 -0.729037 -0.131921
C61 C -0.9016(4) -0.7392(4) -0.17423(8)
H73 H -0.919964 -0.699721 -0.190777
H74 H -0.962437 -0.711286 -0.160642
H75 H -0.914746 -0.821203 -0.176622
C62 C -0.1084(3) -0.3843(3) -0.16749(7)
H76 H -0.150041 -0.366802 -0.150353
H77 H -0.053117 -0.453247 -0.165058
C63 C -0.0155(3) -0.2856(3) -0.17453(7)
H78 H 0.040263 -0.295816 -0.189389
C64 C -0.0050(3) -0.1857(3) -0.16169(7)
C65 C -0.0933(5) -0.1527(4) -0.13845(10)
H79 H -0.153631 -0.091199 -0.143696
H80 H -0.037305 -0.126866 -0.123875
H81 H -0.145572 -0.218872 -0.132880
C66 C 0.0949(4) -0.0931(4) -0.16949(8)
H82 H 0.155604 -0.078537 -0.154812
H83 H 0.046867 -0.023043 -0.173869
H84 H 0.146157 -0.118541 -0.184758
loop_
_geom_bond_atom_site_label_1
_geom_bond_atom_site_label_2
_geom_bond_site_symmetry_1
_geom_bond_site_symmetry_2
O1 C10 1_555 1_555
O2 C2 1_555 1_555
O3 C4 1_555 1_555
O4 C9 1_555 1_555
O5 H1 1_555 1_555
C1 C2 1_555 1_555
C2 C3 1_555 1_555
C3 C4 1_555 1_555
C4 O5 1_555 1_555
C5 C4 1_555 1_555
C6 C5 1_555 1_555
H2 C6 1_555 1_555
H3 C6 1_555 1_555
C7 C6 1_555 1_555
H4 C7 1_555 1_555
C8 C1 1_555 1_555
C9 C1 1_555 1_555
C10 C1 1_555 1_555
C11 C10 1_555 1_555
C12 C11 1_555 1_555
H5 C12 1_555 1_555
C13 C12 1_555 1_555
H6 C13 1_555 1_555
C14 C13 1_555 1_555
H7 C14 1_555 1_555
C15 C14 1_555 1_555
H8 C15 1_555 1_555
C16 C11 1_555 1_555
H9 C16 1_555 1_555
C17 C8 1_555 1_555
H10 C17 1_555 1_555
H11 C17 1_555 1_555
H12 C17 1_555 1_555
C18 C8 1_555 1_555
H13 C18 1_555 1_555
H14 C18 1_555 1_555
H15 C18 1_555 1_555
C19 C7 1_555 1_555
H16 C19 1_555 1_555
H17 C19 1_555 1_555
C20 C3 1_555 1_555
H18 C20 1_555 1_555
C21 O3 1_555 1_555
C22 C21 1_555 1_555
H19 C22 1_555 1_555
H20 C22 1_555 1_555
H21 C22 1_555 1_555
C23 C21 1_555 1_555
H22 C23 1_555 1_555
H23 C23 1_555 1_555
H24 C23 1_555 1_555
C24 C3 1_555 1_555
H25 C24 1_555 1_555
H26 C24 1_555 1_555
C25 C24 1_555 1_555
H27 C25 1_555 1_555
C26 C25 1_555 1_555
C27 C26 1_555 1_555
H28 C27 1_555 1_555
H29 C27 1_555 1_555
H30 C27 1_555 1_555
C28 C26 1_555 1_555
H31 C28 1_555 1_555
H32 C28 1_555 1_555
H33 C28 1_555 1_555
C29 C5 1_555 1_555
H34 C29 1_555 1_555
H35 C29 1_555 1_555
C30 C29 1_555 1_555
H36 C30 1_555 1_555
C31 C30 1_555 1_555
C32 C31 1_555 1_555
H37 C32 1_555 1_555
H38 C32 1_555 1_555
H39 C32 1_555 1_555
C33 C31 1_555 1_555
H40 C33 1_555 1_555
H41 C33 1_555 1_555
H42 C33 1_555 1_555
O6 C43 1_555 1_555
O7 C35 1_555 1_555
O8 C37 1_555 1_555
O9 C42 1_555 1_555
O10 H43 1_555 1_555
C34 C35 1_555 1_555
C35 C36 1_555 1_555
C36 C37 1_555 1_555
C37 O10 1_555 1_555
C38 C37 1_555 1_555
C39 C38 1_555 1_555
H44 C39 1_555 1_555
H45 C39 1_555 1_555
C40 C39 1_555 1_555
H46 C40 1_555 1_555
C41 C34 1_555 1_555
C42 C34 1_555 1_555
C43 C34 1_555 1_555
C44 C43 1_555 1_555
C45 C44 1_555 1_555
H47 C45 1_555 1_555
C46 C45 1_555 1_555
H48 C46 1_555 1_555
C47 C46 1_555 1_555
H49 C47 1_555 1_555
C48 C47 1_555 1_555
H50 C48 1_555 1_555
C49 C44 1_555 1_555
H51 C49 1_555 1_555
C50 C41 1_555 1_555
H52 C50 1_555 1_555
H53 C50 1_555 1_555
H54 C50 1_555 1_555
C51 C41 1_555 1_555
H55 C51 1_555 1_555
H56 C51 1_555 1_555
H57 C51 1_555 1_555
C52 C40 1_555 1_555
H58 C52 1_555 1_555
H59 C52 1_555 1_555
C53 C36 1_555 1_555
H60 C53 1_555 1_555
C54 O8 1_555 1_555
C55 C54 1_555 1_555
H61 C55 1_555 1_555
H62 C55 1_555 1_555
H63 C55 1_555 1_555
C56 C54 1_555 1_555
H64 C56 1_555 1_555
H65 C56 1_555 1_555
H66 C56 1_555 1_555
C57 C36 1_555 1_555
H67 C57 1_555 1_555
H68 C57 1_555 1_555
C58 C57 1_555 1_555
H69 C58 1_555 1_555
C59 C58 1_555 1_555
C60 C59 1_555 1_555
H70 C60 1_555 1_555
H71 C60 1_555 1_555
H72 C60 1_555 1_555
C61 C59 1_555 1_555
H73 C61 1_555 1_555
H74 C61 1_555 1_555
H75 C61 1_555 1_555
C62 C38 1_555 1_555
H76 C62 1_555 1_555
H77 C62 1_555 1_555
C63 C62 1_555 1_555
H78 C63 1_555 1_555
C64 C63 1_555 1_555
C65 C64 1_555 1_555
H79 C65 1_555 1_555
H80 C65 1_555 1_555
H81 C65 1_555 1_555
C66 C64 1_555 1_555
H82 C66 1_555 1_555
H83 C66 1_555 1_555
H84 C66 1_555 1_555
C5 C9 1_555 1_555
C7 C8 1_555 1_555
C15 C16 1_555 1_555
C19 C20 1_555 1_555
C20 C21 1_555 1_555
C38 C42 1_555 1_555
C40 C41 1_555 1_555
C48 C49 1_555 1_555
C52 C53 1_555 1_555
C53 C54 1_555 1_555

#END
