
#######################################################################
#
#                 Cambridge Crystallographic Data Centre
#                                CCDC 
#
#######################################################################
#
# If this CIF has been generated from an entry in the Cambridge 
# Structural Database, then it will include bibliographic, chemical, 
# crystal, experimental, refinement or atomic coordinate data resulting 
# from the CCDC's data processing and validation procedures.
#
#######################################################################

data_SAXRAN
_chemical_formula_moiety         'C33 H42 O5'
_chemical_name_systematic        
9-benzoyl-3-(2-hydroxypropan-2-yl)-4,4,8,8-tetramethyl-11-(3-methylbut-2-en-1-yl)tetracyclo[7.3.1.1^7,11^.0^1,5^]tetradecane-10,12,13-trione
_symmetry_cell_setting           orthorhombic
_symmetry_space_group_name_H-M   'P 21 21 21'
_symmetry_Int_Tables_number      19
_space_group_name_Hall           'P 2ac 2ab'
loop_
_symmetry_equiv_pos_site_id
_symmetry_equiv_pos_as_xyz
1 x,y,z
2 1/2-x,-y,1/2+z
3 1/2+x,1/2-y,-z
4 -x,1/2+y,1/2-z
_cell_length_a                   14.15822(19)
_cell_length_b                   17.0208(3)
_cell_length_c                   24.2524(4)
_cell_angle_alpha                90
_cell_angle_beta                 90
_cell_angle_gamma                90
_cell_volume                     5844.45
_exptl_crystal_colour            colorless
_exptl_crystal_description       block
_cell_formula_units_Z            8
loop_
_atom_site_label
_atom_site_type_symbol
_atom_site_fract_x
_atom_site_fract_y
_atom_site_fract_z
C1 C 0.0632(2) -0.23214(18) -0.37272(12)
H1 H 0.046739 -0.285721 -0.378039
C2 C -0.0842(2) -0.44038(18) -0.41745(12)
C3 C -0.13952(18) -0.3151(2) -0.37786(12)
C4 C 0.0482(2) -0.43403(19) -0.48784(12)
H2 H 0.073518 -0.467987 -0.458191
H3 H 0.092993 -0.390243 -0.493941
C5 C -0.3347(2) -0.4579(2) -0.28550(13)
C6 C -0.1249(2) -0.27127(19) -0.43212(12)
C7 C -0.05152(19) -0.31175(18) -0.46776(11)
C8 C -0.16242(19) -0.4014(2) -0.38337(12)
C9 C 0.0041(2) -0.17342(18) -0.39292(12)
C10 C -0.2261(2) -0.2747(2) -0.46311(13)
C11 C 0.0361(2) -0.48220(19) -0.54169(12)
H4 H 0.053129 -0.445589 -0.572359
C12 C -0.0494(2) -0.40145(18) -0.47106(12)
C13 C -0.2586(2) -0.3622(2) -0.47028(13)
H5 H -0.327412 -0.357889 -0.479025
C14 C -0.2541(2) -0.4186(2) -0.29347(13)
H6 H -0.248710 -0.369266 -0.275445
C15 C 0.2077(3) -0.5179(2) -0.54316(16)
H7 H 0.216821 -0.480562 -0.573436
H8 H 0.253146 -0.561088 -0.546779
H9 H 0.217637 -0.491130 -0.507870
C16 C -0.1725(2) -0.4433(2) -0.32711(13)
H10 H -0.177374 -0.500526 -0.333776
H11 H -0.114175 -0.434071 -0.305552
C17 C -0.0894(2) -0.18635(19) -0.42079(13)
C18 C 0.1137(2) -0.07672(19) -0.35783(14)
H12 H 0.131477 -0.023334 -0.353116
C19 C 0.0316(2) -0.09493(19) -0.38529(14)
H13 H -0.007053 -0.053876 -0.399272
C20 C 0.1703(2) -0.1357(2) -0.33709(14)
H14 H 0.226180 -0.122905 -0.317403
C21 C 0.1074(3) -0.55073(19) -0.54534(13)
C22 C -0.1109(2) -0.4195(2) -0.52374(13)
H15 H -0.091699 -0.378531 -0.551105
C23 C -0.0725(3) -0.4975(2) -0.54778(13)
C24 C 0.0957(3) -0.5995(2) -0.59774(15)
H16 H 0.036220 -0.628935 -0.595916
H17 H 0.148553 -0.636386 -0.601053
H18 H 0.094695 -0.564644 -0.629872
C25 C 0.1457(2) -0.2133(2) -0.34493(13)
H19 H 0.185339 -0.253941 -0.331268
C26 C -0.2231(3) -0.2337(2) -0.51881(14)
H20 H -0.208706 -0.177923 -0.513480
H21 H -0.284628 -0.238989 -0.536998
H22 H -0.174196 -0.257816 -0.541844
C27 C -0.3001(2) -0.2338(3) -0.42633(15)
H23 H -0.301557 -0.259294 -0.390088
H24 H -0.362502 -0.237919 -0.443598
H25 H -0.283335 -0.178341 -0.421919
C28 C -0.2563(2) -0.4087(2) -0.41654(13)
H26 H -0.267256 -0.464870 -0.425096
H27 H -0.309010 -0.390752 -0.392874
C29 C -0.1047(3) -0.5012(3) -0.60852(15)
H28 H -0.078727 -0.456247 -0.628696
H29 H -0.173845 -0.499651 -0.610179
H30 H -0.082023 -0.550101 -0.625251
C30 C -0.2181(2) -0.4103(2) -0.51859(14)
H31 H -0.245750 -0.463604 -0.516514
H32 H -0.241286 -0.386134 -0.553192
C31 C -0.4120(3) -0.4207(3) -0.25293(16)
H33 H -0.388781 -0.371930 -0.236215
H34 H -0.432573 -0.456800 -0.223850
H35 H -0.465312 -0.408837 -0.277290
C32 C -0.3594(3) -0.5354(3) -0.3096(2)
H36 H -0.307097 -0.554017 -0.332558
H37 H -0.416420 -0.530134 -0.332207
H38 H -0.371077 -0.573159 -0.279845
C33 C -0.1083(3) -0.5708(2) -0.51811(15)
H39 H -0.083767 -0.617764 -0.536599
H40 H -0.177490 -0.571610 -0.518953
H41 H -0.086600 -0.570112 -0.479738
O1 O 0.09491(17) -0.60545(13) -0.50063(9)
H42 H 0.121706 -0.588028 -0.472246
O2 O -0.13417(14) -0.28209(15) -0.33385(9)
O3 O 0.00024(15) -0.27210(13) -0.49631(9)
O4 O -0.04918(16) -0.50087(13) -0.40137(9)
O5 O -0.13666(19) -0.13046(15) -0.43352(12)
C34 C -0.6062(3) -0.2511(3) -0.2150(3)
H43 H -0.666247 -0.225253 -0.223565
H44 H -0.585946 -0.236256 -0.177773
H45 H -0.614292 -0.308210 -0.216891
C35 C -0.5585(4) -0.2332(4) -0.3151(3)
H46 H -0.596454 -0.280656 -0.320612
H47 H -0.500873 -0.236534 -0.337401
H48 H -0.595089 -0.187005 -0.326412
C36 C -0.20015(17) -0.07063(16) -0.14729(12)
C37 C -0.2972(2) 0.04853(19) -0.15401(13)
C38 C -0.32201(19) -0.05841(18) -0.22315(12)
C39 C -0.0903(2) 0.0575(2) -0.20554(15)
H49 H -0.113593 0.105001 -0.187195
H50 H -0.043267 0.072034 -0.233384
H51 H -0.061229 0.022666 -0.178213
C40 C -0.2889(2) -0.1339(2) -0.24944(12)
C41 C -0.2373(2) -0.18718(18) -0.20844(12)
C42 C -0.0212(3) -0.2804(2) -0.20640(14)
H52 H -0.086516 -0.298861 -0.203280
H53 H 0.022032 -0.322487 -0.195296
H54 H -0.008210 -0.265417 -0.244675
C43 C -0.24819(19) -0.01608(16) -0.18875(12)
C44 C -0.3747(2) 0.0252(2) -0.11553(13)
C45 C -0.4032(2) -0.0510(2) -0.10521(14)
H55 H -0.373428 -0.093427 -0.123823
C46 C -0.0563(2) -0.1072(2) -0.24600(12)
H56 H -0.050229 -0.153515 -0.270428
H57 H 0.003713 -0.077513 -0.248518
C47 C -0.17246(19) 0.01520(18) -0.23331(13)
C48 C -0.06630(19) -0.13674(18) -0.18708(12)
H58 H -0.042291 -0.092642 -0.163722
C49 C 0.0974(2) -0.1848(2) -0.17050(15)
H59 H 0.137198 -0.229773 -0.160703
H60 H 0.108041 -0.142068 -0.144100
H61 H 0.113660 -0.166731 -0.207691
C50 C -0.4486(2) -0.2007(2) -0.24022(17)
H62 H -0.437272 -0.197253 -0.201691
C51 C -0.2211(2) 0.0742(2) -0.27228(15)
H63 H -0.240561 0.120677 -0.251320
H64 H -0.276810 0.049539 -0.288921
H65 H -0.176941 0.089835 -0.301383
C52 C -0.0470(2) -0.21864(18) -0.10918(13)
H66 H -0.025894 -0.170544 -0.088966
C53 C -0.1699(2) -0.15237(16) -0.16527(12)
C54 C -0.1543(2) -0.20878(18) -0.11648(13)
H67 H -0.182646 -0.186825 -0.082502
H68 H -0.184077 -0.260244 -0.124157
C55 C -0.0069(2) -0.20936(18) -0.16894(12)
C56 C -0.1358(2) -0.0546(2) -0.26920(12)
H69 H -0.106713 -0.028659 -0.302093
C57 C -0.3695(2) -0.1770(2) -0.27776(15)
H70 H -0.395336 -0.142803 -0.307136
H71 H -0.343901 -0.224726 -0.295672
C58 C -0.4187(3) 0.0867(3) -0.08689(14)
H72 H -0.398991 0.139211 -0.093551
C59 C -0.2163(2) -0.1042(2) -0.29318(13)
H73 H -0.188751 -0.150239 -0.312270
H74 H -0.250294 -0.072547 -0.321082
C60 C -0.5328(3) -0.2260(2) -0.2559(2)
C61 C -0.0206(3) -0.2885(2) -0.07107(15)
C62 C -0.5178(3) -0.0007(3) -0.04112(16)
H75 H -0.568566 -0.009773 -0.016283
C63 C -0.0571(5) -0.3677(2) -0.0893(2)
H76 H -0.125333 -0.364346 -0.095814
H77 H -0.044554 -0.406638 -0.060467
H78 H -0.025247 -0.383408 -0.123406
C64 C -0.4885(3) 0.0731(3) -0.05000(17)
H79 H -0.516465 0.115562 -0.030516
C65 C -0.4749(3) -0.0659(3) -0.06798(16)
H80 H -0.494837 -0.118130 -0.060530
C66 C 0.0849(3) -0.2926(3) -0.06079(19)
H81 H 0.117016 -0.309137 -0.094629
H82 H 0.097720 -0.330558 -0.031372
H83 H 0.108024 -0.240652 -0.049723
O6 O -0.18143(13) -0.04557(12) -0.10175(8)
O7 O -0.39692(14) -0.02832(13) -0.23382(9)
O8 O -0.25072(17) -0.25714(14) -0.21035(11)
O9 O -0.27350(18) 0.11685(13) -0.15731(12)
O10 O -0.0667(2) -0.27487(15) -0.01883(10)
H84 H -0.070391 -0.226320 -0.013012
loop_
_geom_bond_atom_site_label_1
_geom_bond_atom_site_label_2
_geom_bond_site_symmetry_1
_geom_bond_site_symmetry_2
C1 H1 1_555 1_555
C2 C8 1_555 1_555
C3 C6 1_555 1_555
C4 H2 1_555 1_555
H3 C4 1_555 1_555
C5 C14 1_555 1_555
C6 C7 1_555 1_555
C7 C12 1_555 1_555
C8 C3 1_555 1_555
C9 C1 1_555 1_555
C10 C6 1_555 1_555
C11 C4 1_555 1_555
H4 C11 1_555 1_555
C12 C2 1_555 1_555
C13 C10 1_555 1_555
H5 C13 1_555 1_555
C14 H6 1_555 1_555
C15 H7 1_555 1_555
H8 C15 1_555 1_555
H9 C15 1_555 1_555
C16 C8 1_555 1_555
H10 C16 1_555 1_555
H11 C16 1_555 1_555
C17 C6 1_555 1_555
C18 H12 1_555 1_555
C19 C9 1_555 1_555
H13 C19 1_555 1_555
C20 C18 1_555 1_555
H14 C20 1_555 1_555
C21 C11 1_555 1_555
C22 C12 1_555 1_555
H15 C22 1_555 1_555
C23 C11 1_555 1_555
C24 C21 1_555 1_555
H16 C24 1_555 1_555
H17 C24 1_555 1_555
H18 C24 1_555 1_555
C25 C1 1_555 1_555
H19 C25 1_555 1_555
C26 C10 1_555 1_555
H20 C26 1_555 1_555
H21 C26 1_555 1_555
H22 C26 1_555 1_555
C27 C10 1_555 1_555
H23 C27 1_555 1_555
H24 C27 1_555 1_555
H25 C27 1_555 1_555
C28 C8 1_555 1_555
H26 C28 1_555 1_555
H27 C28 1_555 1_555
C29 C23 1_555 1_555
H28 C29 1_555 1_555
H29 C29 1_555 1_555
H30 C29 1_555 1_555
C30 C13 1_555 1_555
H31 C30 1_555 1_555
H32 C30 1_555 1_555
C31 C5 1_555 1_555
H33 C31 1_555 1_555
H34 C31 1_555 1_555
H35 C31 1_555 1_555
C32 C5 1_555 1_555
H36 C32 1_555 1_555
H37 C32 1_555 1_555
H38 C32 1_555 1_555
C33 C23 1_555 1_555
H39 C33 1_555 1_555
H40 C33 1_555 1_555
H41 C33 1_555 1_555
O1 C21 1_555 1_555
H42 O1 1_555 1_555
O2 C3 1_555 1_555
O3 C7 1_555 1_555
O4 C2 1_555 1_555
O5 C17 1_555 1_555
C34 H43 1_555 1_555
H44 C34 1_555 1_555
H45 C34 1_555 1_555
C35 H46 1_555 1_555
H47 C35 1_555 1_555
H48 C35 1_555 1_555
C36 C43 1_555 1_555
C37 C43 1_555 1_555
C38 C40 1_555 1_555
C39 H49 1_555 1_555
H50 C39 1_555 1_555
H51 C39 1_555 1_555
C40 C41 1_555 1_555
C41 C53 1_555 1_555
C42 H52 1_555 1_555
H53 C42 1_555 1_555
H54 C42 1_555 1_555
C43 C38 1_555 1_555
C44 C37 1_555 1_555
C45 C44 1_555 1_555
H55 C45 1_555 1_555
C46 H56 1_555 1_555
H57 C46 1_555 1_555
C47 C39 1_555 1_555
C48 C46 1_555 1_555
H58 C48 1_555 1_555
C49 H59 1_555 1_555
H60 C49 1_555 1_555
H61 C49 1_555 1_555
C50 H62 1_555 1_555
C51 C47 1_555 1_555
H63 C51 1_555 1_555
H64 C51 1_555 1_555
H65 C51 1_555 1_555
C52 H66 1_555 1_555
C53 C36 1_555 1_555
C54 C52 1_555 1_555
H67 C54 1_555 1_555
H68 C54 1_555 1_555
C55 C42 1_555 1_555
C56 C46 1_555 1_555
H69 C56 1_555 1_555
C57 C40 1_555 1_555
H70 C57 1_555 1_555
H71 C57 1_555 1_555
C58 C44 1_555 1_555
H72 C58 1_555 1_555
C59 C40 1_555 1_555
H73 C59 1_555 1_555
H74 C59 1_555 1_555
C60 C34 1_555 1_555
C61 C52 1_555 1_555
C62 H75 1_555 1_555
C63 C61 1_555 1_555
H76 C63 1_555 1_555
H77 C63 1_555 1_555
H78 C63 1_555 1_555
C64 C58 1_555 1_555
H79 C64 1_555 1_555
C65 C45 1_555 1_555
H80 C65 1_555 1_555
C66 C61 1_555 1_555
H81 C66 1_555 1_555
H82 C66 1_555 1_555
H83 C66 1_555 1_555
O6 C36 1_555 1_555
O7 C38 1_555 1_555
O8 C41 1_555 1_555
O9 C37 1_555 1_555
O10 C61 1_555 1_555
H84 O10 1_555 1_555
C4 C12 1_555 1_555
C9 C17 1_555 1_555
C13 C28 1_555 1_555
C14 C16 1_555 1_555
C15 C21 1_555 1_555
C18 C19 1_555 1_555
C20 C25 1_555 1_555
C22 C23 1_555 1_555
C22 C30 1_555 1_555
C35 C60 1_555 1_555
C43 C47 1_555 1_555
C47 C56 1_555 1_555
C48 C53 1_555 1_555
C48 C55 1_555 1_555
C49 C55 1_555 1_555
C50 C57 1_555 1_555
C50 C60 1_555 1_555
C52 C55 1_555 1_555
C53 C54 1_555 1_555
C56 C59 1_555 1_555
C62 C64 1_555 1_555
C62 C65 1_555 1_555

#END
