
#######################################################################
#
#                 Cambridge Crystallographic Data Centre
#                                CCDC 
#
#######################################################################
#
# If this CIF has been generated from an entry in the Cambridge 
# Structural Database, then it will include bibliographic, chemical, 
# crystal, experimental, refinement or atomic coordinate data resulting 
# from the CCDC's data processing and validation procedures.
#
#######################################################################

data_SAXWET
_chemical_formula_moiety         'C21 H29 O5 P3 S3'
_chemical_name_systematic        
7,10-Diethoxy-2,5-dimethyl-12-p-methoxyphenyl-10-oxo-7,12-dithioxo-11-oxa-13-thia-7,10,12-triphosphatricyclo(7.4.0.0^4,8^)trideca-2,5-diene
_symmetry_cell_setting           orthorhombic
_symmetry_space_group_name_H-M   'P 21 21 21'
_symmetry_Int_Tables_number      19
_space_group_name_Hall           'P 2ac 2ab'
loop_
_symmetry_equiv_pos_site_id
_symmetry_equiv_pos_as_xyz
1 x,y,z
2 1/2+x,1/2-y,-z
3 -x,1/2+y,1/2-z
4 1/2-x,-y,1/2+z
_cell_length_a                   11.844(1)
_cell_length_b                   13.737(4)
_cell_length_c                   16.731(5)
_cell_angle_alpha                90
_cell_angle_beta                 90
_cell_angle_gamma                90
_cell_volume                     2722.15
_exptl_crystal_colour            colorless
_chemical_melting_point          159-161deg.C
_cell_formula_units_Z            4
loop_
_atom_site_label
_atom_site_type_symbol
_atom_site_fract_x
_atom_site_fract_y
_atom_site_fract_z
S1 S 0.11122(9) 0.11700(6) 0.67774(6)
S2 S 0.3132(1) 0.52409(8) 0.61478(7)
S3 S 0.3594(1) 0.00679(8) 0.73064(6)
P1 P 0.35007(8) 0.23575(6) 0.59905(5)
P2 P 0.19545(8) 0.45943(7) 0.55406(6)
P3 P 0.25903(8) 0.04505(7) 0.64578(5)
O1 O 0.3144(2) 0.1235(2) 0.5844(1)
O2 O 0.4416(2) 0.2339(2) 0.6654(2)
O3 O 0.3826(3) 0.2777(2) 0.5212(1)
O4 O 0.2186(2) 0.4472(2) 0.4607(2)
O5 O 0.1184(3) -0.2746(2) 0.4318(2)
C1 C 0.1508(3) 0.3380(2) 0.5908(2)
C2 C 0.2335(3) 0.2932(2) 0.6503(2)
C3 C 0.1772(3) 0.2304(3) 0.7164(2)
C4 C 0.0821(3) 0.2849(3) 0.7562(2)
C5 C 0.0167(3) 0.3423(3) 0.7129(2)
C6 C 0.0280(3) 0.3540(2) 0.6224(2)
C7 C -0.0152(3) 0.4523(3) 0.5941(2)
C8 C 0.0580(4) 0.5097(3) 0.5586(2)
C9 C 0.0669(4) 0.2683(4) 0.8437(2)
C10 C -0.1372(3) 0.4747(4) 0.6062(3)
C11 C 0.5548(3) 0.1946(4) 0.6485(3)
C12 C 0.6344(5) 0.2733(5) 0.6369(5)
C13 C 0.3222(4) 0.4705(5) 0.4201(3)
C14 C 0.3023(6) 0.4851(6) 0.3368(3)
C15 C 0.0430(5) -0.2587(4) 0.3648(3)
C16 C 0.2109(3) -0.0492(3) 0.5805(2)
C17 C 0.2511(4) -0.1440(3) 0.5907(3)
C18 C 0.2198(4) -0.2161(3) 0.5383(3)
C19 C 0.1454(4) -0.1971(3) 0.4779(2)
C20 C 0.1008(3) -0.1044(3) 0.4685(2)
C21 C 0.1338(3) -0.0315(3) 0.5202(2)
H1 H 0.150 0.288 0.549
H2 H 0.266 0.347 0.681
H3 H 0.239 0.216 0.754
H4 H -0.042 0.380 0.740
H5 H -0.019 0.302 0.600
H6 H 0.039 0.574 0.537
H7 H 0.303 -0.158 0.635
H8 H 0.250 -0.282 0.545
H9 H 0.047 -0.091 0.425
H10 H 0.102 0.034 0.515
H11 H 0.020 0.320 0.865
H12 H 0.030 0.205 0.853
H13 H 0.141 0.269 0.870
H14 H -0.155 0.535 0.578
H15 H -0.152 0.483 0.663
H16 H -0.184 0.422 0.585
H17 H 0.553 0.155 0.600
H18 H 0.578 0.154 0.694
H19 H 0.710 0.247 0.627
H20 H 0.611 0.314 0.592
H21 H 0.636 0.313 0.686
H22 H 0.375 0.416 0.427
H23 H 0.355 0.530 0.443
H24 H 0.374 0.500 0.310
H25 H 0.270 0.426 0.313
H26 H 0.250 0.540 0.330
H27 H 0.031 -0.320 0.336
H28 H -0.029 -0.235 0.386
H29 H 0.075 -0.210 0.328
loop_
_geom_bond_atom_site_label_1
_geom_bond_atom_site_label_2
_geom_bond_site_symmetry_1
_geom_bond_site_symmetry_2
S1 P3 1_555 1_555
S2 P2 1_555 1_555
S3 P3 1_555 1_555
P1 O1 1_555 1_555
P2 O4 1_555 1_555
P3 O1 1_555 1_555
O2 P1 1_555 1_555
O3 P1 1_555 1_555
O4 C13 1_555 1_555
O5 C15 1_555 1_555
C1 P2 1_555 1_555
C2 P1 1_555 1_555
C3 S1 1_555 1_555
C4 C3 1_555 1_555
C5 C4 1_555 1_555
C6 C1 1_555 1_555
C7 C6 1_555 1_555
C8 P2 1_555 1_555
C9 C4 1_555 1_555
C10 C7 1_555 1_555
C11 O2 1_555 1_555
C12 C11 1_555 1_555
C13 C14 1_555 1_555
C14 H24 1_555 1_555
C15 H27 1_555 1_555
C16 P3 1_555 1_555
C17 C16 1_555 1_555
C18 C17 1_555 1_555
C19 O5 1_555 1_555
C20 C19 1_555 1_555
C21 C16 1_555 1_555
H1 C1 1_555 1_555
H2 C2 1_555 1_555
H3 C3 1_555 1_555
H4 C5 1_555 1_555
H5 C6 1_555 1_555
H6 C8 1_555 1_555
H7 C17 1_555 1_555
H8 C18 1_555 1_555
H9 C20 1_555 1_555
H10 C21 1_555 1_555
H11 C9 1_555 1_555
H12 C9 1_555 1_555
H13 C9 1_555 1_555
H14 C10 1_555 1_555
H15 C10 1_555 1_555
H16 C10 1_555 1_555
H17 C11 1_555 1_555
H18 C11 1_555 1_555
H19 C12 1_555 1_555
H20 C12 1_555 1_555
H21 C12 1_555 1_555
H22 C13 1_555 1_555
H23 C13 1_555 1_555
H25 C14 1_555 1_555
H26 C14 1_555 1_555
H28 C15 1_555 1_555
H29 C15 1_555 1_555
C1 C2 1_555 1_555
C2 C3 1_555 1_555
C5 C6 1_555 1_555
C7 C8 1_555 1_555
C18 C19 1_555 1_555
C20 C21 1_555 1_555

#END
