
#######################################################################
#
#                 Cambridge Crystallographic Data Centre
#                                CCDC 
#
#######################################################################
#
# If this CIF has been generated from an entry in the Cambridge 
# Structural Database, then it will include bibliographic, chemical, 
# crystal, experimental, refinement or atomic coordinate data resulting 
# from the CCDC's data processing and validation procedures.
#
#######################################################################

data_SAYJOU
_chemical_formula_moiety         'C25 H29 N2 S2 2+,C1 H2 Cl2,2(B1 F4 1-)'
_chemical_name_systematic        
'5-[(t-butylimino)methyl]-2-[{5-[(t-butylimino)methyl]thiophen-1-ium-2-yl}(phenyl)methylidene]-2H-thiophen-1-ium radical cation bis(tetrafluoroborate) dichloromethane solvate'
_symmetry_cell_setting           monoclinic
_symmetry_space_group_name_H-M   'P 21/c'
_symmetry_Int_Tables_number      14
_space_group_name_Hall           '-P 2ybc'
loop_
_symmetry_equiv_pos_site_id
_symmetry_equiv_pos_as_xyz
1 x,y,z
2 -x,1/2+y,1/2-z
3 -x,-y,-z
4 x,1/2-y,1/2+z
_cell_length_a                   9.2047(12)
_cell_length_b                   28.642(4)
_cell_length_c                   13.2579(16)
_cell_angle_alpha                90
_cell_angle_beta                 109.040(14)
_cell_angle_gamma                90
_cell_volume                     3304.1
_exptl_crystal_colour            orange
_exptl_crystal_description       block
_cell_formula_units_Z            4
loop_
_atom_site_label
_atom_site_type_symbol
_atom_site_fract_x
_atom_site_fract_y
_atom_site_fract_z
S1 S 0.2607(3) 0.43930(10) 0.36879(18)
S2 S 0.4129(3) 0.46292(9) 0.59531(18)
N1 N 0.2802(9) 0.3558(3) 0.2202(6)
N2 N 0.5926(9) 0.4052(3) 0.7969(6)
C1 C 0.2056(11) 0.3932(4) 0.1797(8)
H1 H 0.1607 0.3933 0.1059
C2 C 0.1373(11) 0.5718(4) 0.4360(8)
C3 C 0.2128(10) 0.5249(4) 0.4541(7)
C4 C 0.1038(10) 0.5070(4) 0.2575(7)
H2 H 0.0521 0.5351 0.2380
C5 C 0.4777(11) 0.4784(4) 0.7291(7)
C6 C 0.1836(10) 0.4327(4) 0.2311(7)
C7 C 0.1877(10) 0.4957(4) 0.3627(7)
C8 C 0.1045(11) 0.4729(4) 0.1856(7)
H3 H 0.0561 0.4763 0.1126
C9 C 0.3095(10) 0.5141(4) 0.5597(7)
C10 C 0.4217(13) 0.5216(4) 0.7427(7)
H4 H 0.4449 0.5362 0.8087
C11 C 0.2244(12) 0.6119(4) 0.4507(8)
H5 H 0.3310 0.6095 0.4740
C12 C 0.5638(12) 0.4474(4) 0.8092(8)
H6 H 0.6032 0.4593 0.8780
C13 C 0.6730(13) 0.3703(4) 0.8805(8)
C14 C 0.3266(12) 0.5415(4) 0.6480(8)
H7 H 0.2795 0.5704 0.6450
C15 C 0.1576(13) 0.6552(4) 0.4318(9)
H8 H 0.2183 0.6819 0.4422
C16 C -0.0226(11) 0.5757(4) 0.3976(9)
H9 H -0.0834 0.5490 0.3831
C17 C 0.3179(12) 0.3149(4) 0.1655(8)
C18 C -0.0900(13) 0.6192(5) 0.3813(11)
H10 H -0.1965 0.6216 0.3593
C19 C -0.0033(15) 0.6589(5) 0.3968(10)
H11 H -0.0503 0.6881 0.3843
C20 C 0.2969(16) 0.2716(4) 0.2223(9)
H12 H 0.3642 0.2726 0.2949
H13 H 0.3207 0.2448 0.1873
H14 H 0.1922 0.2697 0.2212
C21 C 0.7435(16) 0.3946(5) 0.9888(8)
H15 H 0.8062 0.4203 0.9810
H16 H 0.8055 0.3728 1.0397
H17 H 0.6628 0.4061 1.0132
C22 C 0.2179(17) 0.3135(5) 0.0490(8)
H18 H 0.1119 0.3111 0.0443
H19 H 0.2456 0.2869 0.0150
H20 H 0.2332 0.3415 0.0141
C23 C 0.4858(14) 0.3208(5) 0.1734(12)
H21 H 0.4963 0.3482 0.1345
H22 H 0.5190 0.2939 0.1437
H23 H 0.5477 0.3242 0.2469
C24 C 0.7979(16) 0.3492(6) 0.8440(10)
H24 H 0.7535 0.3369 0.7732
H25 H 0.8479 0.3246 0.8917
H26 H 0.8718 0.3729 0.8438
C25 C 0.5576(17) 0.3346(5) 0.8843(11)
H27 H 0.4773 0.3492 0.9045
H28 H 0.6063 0.3110 0.9357
H29 H 0.5145 0.3205 0.8152
Cl1 Cl -0.0886(5) 0.36175(15) 0.2875(3)
Cl2 Cl -0.1289(6) 0.2659(2) 0.2227(6)
C26 C -0.0766(16) 0.3035(7) 0.3294(11)
H30 H 0.0279 0.2968 0.3740
H31 H -0.1434 0.2988 0.3720
F1 F 0.4385(7) 0.3444(2) 0.4365(4)
F2 F 0.4618(8) 0.3475(3) 0.6110(5)
F3 F 0.2730(7) 0.3039(3) 0.4979(6)
F4 F 0.5172(8) 0.2804(3) 0.5373(6)
B1 B 0.4237(14) 0.3185(5) 0.5216(8)
F5 F 0.1154(7) 0.4351(3) 0.9476(5)
F6 F 0.3705(8) 0.4274(3) 1.0300(6)
F7 F 0.2763(10) 0.4382(4) 0.8546(6)
F8 F 0.2722(12) 0.4959(3) 0.9644(8)
B2 B 0.2577(15) 0.4497(5) 0.9474(9)
loop_
_geom_bond_atom_site_label_1
_geom_bond_atom_site_label_2
_geom_bond_site_symmetry_1
_geom_bond_site_symmetry_2
S1 C6 1_555 1_555
S2 C5 1_555 1_555
N1 C1 1_555 1_555
N2 C12 1_555 1_555
C1 H1 1_555 1_555
C2 C3 1_555 1_555
C3 C7 1_555 1_555
C4 H2 1_555 1_555
C5 C10 1_555 1_555
C6 C1 1_555 1_555
C7 S1 1_555 1_555
C8 C4 1_555 1_555
H3 C8 1_555 1_555
C9 S2 1_555 1_555
C10 H4 1_555 1_555
C11 C2 1_555 1_555
H5 C11 1_555 1_555
C12 C5 1_555 1_555
H6 C12 1_555 1_555
C13 N2 1_555 1_555
C14 C9 1_555 1_555
H7 C14 1_555 1_555
C15 C11 1_555 1_555
H8 C15 1_555 1_555
C16 C2 1_555 1_555
H9 C16 1_555 1_555
C17 N1 1_555 1_555
C18 C16 1_555 1_555
H10 C18 1_555 1_555
C19 C15 1_555 1_555
H11 C19 1_555 1_555
C20 C17 1_555 1_555
H12 C20 1_555 1_555
H13 C20 1_555 1_555
H14 C20 1_555 1_555
C21 C13 1_555 1_555
H15 C21 1_555 1_555
H16 C21 1_555 1_555
H17 C21 1_555 1_555
C22 C17 1_555 1_555
H18 C22 1_555 1_555
H19 C22 1_555 1_555
H20 C22 1_555 1_555
C23 C17 1_555 1_555
H21 C23 1_555 1_555
H22 C23 1_555 1_555
H23 C23 1_555 1_555
C24 C13 1_555 1_555
H24 C24 1_555 1_555
H25 C24 1_555 1_555
H26 C24 1_555 1_555
C25 C13 1_555 1_555
H27 C25 1_555 1_555
H28 C25 1_555 1_555
H29 C25 1_555 1_555
Cl1 C26 1_555 1_555
Cl2 C26 1_555 1_555
C26 H30 1_555 1_555
H31 C26 1_555 1_555
F1 B1 1_555 1_555
F2 B1 1_555 1_555
F3 B1 1_555 1_555
F4 B1 1_555 1_555
F5 B2 1_555 1_555
F6 B2 1_555 1_555
F7 B2 1_555 1_555
F8 B2 1_555 1_555
C3 C9 1_555 1_555
C4 C7 1_555 1_555
C6 C8 1_555 1_555
C10 C14 1_555 1_555
C18 C19 1_555 1_555

#END
