
#######################################################################
#
#                 Cambridge Crystallographic Data Centre
#                                CCDC 
#
#######################################################################
#
# If this CIF has been generated from an entry in the Cambridge 
# Structural Database, then it will include bibliographic, chemical, 
# crystal, experimental, refinement or atomic coordinate data resulting 
# from the CCDC's data processing and validation procedures.
#
#######################################################################

data_SAYMUB
_chemical_formula_moiety         '0.67(C9 H6 O6),C12 H12 N2'
_chemical_name_systematic        
'bis(Benzene-1,3,5-tricarboxylic acid) tris(1,2-bis(4-pyridyl)ethane)'
_symmetry_cell_setting           monoclinic
_symmetry_space_group_name_H-M   'P 21/n'
_symmetry_Int_Tables_number      14
_space_group_name_Hall           '-P 2yn'
loop_
_symmetry_equiv_pos_site_id
_symmetry_equiv_pos_as_xyz
1 x,y,z
2 1/2-x,1/2+y,1/2-z
3 -x,-y,-z
4 1/2+x,1/2-y,1/2+z
_cell_length_a                   10.344(2)
_cell_length_b                   12.313(2)
_cell_length_c                   18.914(4)
_cell_angle_alpha                90
_cell_angle_beta                 94.309(4)
_cell_angle_gamma                90
_cell_volume                     2402.18
_exptl_crystal_colour            colorless
_exptl_crystal_description       block
_cell_formula_units_Z            6
_exptl_crystal_recrystallization_method dimethylsulfoxide
loop_
_atom_site_label
_atom_site_type_symbol
_atom_site_fract_x
_atom_site_fract_y
_atom_site_fract_z
O1 O 0.7875(2) 0.0962(2) 1.17910(12)
H1 H 0.7892 0.0817 1.2379
O2 O 0.8337(2) -0.0830(2) 1.17296(12)
O3 O 0.9237(2) -0.2384(2) 0.93708(12)
O4 O 0.9032(2) -0.1292(2) 0.84127(12)
H2 H 0.9176 -0.1991 0.8117
O5 O 0.7743(2) 0.2606(2) 0.86552(13)
O6 O 0.6626(2) 0.2945(2) 0.96111(13)
H3 H 0.6460 0.3737 0.9330
C1 C 0.8120(3) 0.0209(3) 1.06573(18)
C2 C 0.8512(3) -0.0657(3) 1.02508(18)
H4 H 0.8753 -0.1325 1.0474
C3 C 0.8556(3) -0.0552(3) 0.95156(18)
C4 C 0.8203(3) 0.0440(3) 0.91978(19)
H5 H 0.8253 0.0528 0.8702
C5 C 0.7781(3) 0.1296(3) 0.95969(17)
C6 C 0.7734(3) 0.1168(3) 1.03257(18)
H6 H 0.7433 0.1750 1.0600
C7 C 0.8133(3) 0.0058(3) 1.14433(19)
C8 C 0.8978(3) -0.1500(3) 0.90953(19)
C9 C 0.7402(4) 0.2345(3) 0.9237(2)
N1 N 0.8992(3) -0.0198(3) 0.59934(16)
N2 N 0.9501(3) 0.6947(3) 0.77132(16)
C10 C 0.9072(3) -0.0115(3) 0.6703(2)
H7 H 0.8973 -0.0755 0.6974
C11 C 0.9290(3) 0.0845(3) 0.7057(2)
H8 H 0.9360 0.0856 0.7560
C12 C 0.9409(4) 0.1810(3) 0.6676(2)
C13 C 0.9336(4) 0.1721(3) 0.5939(2)
H9 H 0.9426 0.2348 0.5653
C14 C 0.9134(4) 0.0719(3) 0.5628(2)
H10 H 0.9094 0.0676 0.5125
C15 C 0.9572(5) 0.2857(4) 0.7073(2)
H11 H 1.0407 0.2833 0.7364
H12 H 0.8874 0.2912 0.7402
C16 C 0.9547(4) 0.3870(3) 0.66235(19)
H13 H 0.8761 0.3850 0.6291
H14 H 1.0308 0.3857 0.6336
C17 C 0.9558(3) 0.4936(3) 0.70274(19)
C18 C 1.0067(3) 0.5861(3) 0.6735(2)
H15 H 1.0444 0.5820 0.6293
C19 C 1.0024(4) 0.6849(3) 0.7089(2)
H16 H 1.0377 0.7475 0.6882
C20 C 0.9011(3) 0.6057(3) 0.79968(19)
H17 H 0.8633 0.6120 0.8437
C21 C 0.9031(3) 0.5051(3) 0.76766(19)
H18 H 0.8685 0.4437 0.7901
N3 N 0.7507(3) 0.0625(3) 0.31157(15)
C22 C 0.7370(3) -0.0414(3) 0.33209(19)
H19 H 0.7665 -0.0976 0.3029
C23 C 0.6820(3) -0.0696(3) 0.39367(18)
H20 H 0.6742 -0.1438 0.4063
C24 C 0.6380(3) 0.0110(3) 0.43722(18)
C25 C 0.6548(4) 0.1178(3) 0.41701(18)
H21 H 0.6284 0.1752 0.4462
C26 C 0.7097(3) 0.1410(3) 0.35466(19)
H22 H 0.7192 0.2148 0.3414
C27 C 0.5719(3) -0.0167(3) 0.50352(19)
H23 H 0.6165 0.0213 0.5446
H24 H 0.5786 -0.0958 0.5124
N3B N 0.2493(3) -0.0625(3) 0.68843(15)
C22B C 0.2630(3) 0.0414(3) 0.66791(19)
H19B H 0.2335 0.0976 0.6971
C23B C 0.3180(3) 0.0696(3) 0.60633(18)
H20B H 0.3258 0.1438 0.5937
C24B C 0.3620(3) -0.0110(3) 0.56278(18)
C25B C 0.3452(4) -0.1178(3) 0.58299(18)
H21B H 0.3716 -0.1752 0.5538
C26B C 0.2903(3) -0.1410(3) 0.64534(19)
H22B H 0.2808 -0.2148 0.6586
C27B C 0.4281(3) 0.0167(3) 0.49648(19)
H23B H 0.3835 -0.0213 0.4554
H24B H 0.4214 0.0958 0.4876
loop_
_geom_bond_atom_site_label_1
_geom_bond_atom_site_label_2
_geom_bond_site_symmetry_1
_geom_bond_site_symmetry_2
O1 H1 1_555 1_555
O2 C7 1_555 1_555
O3 C8 1_555 1_555
O4 H2 1_555 1_555
O5 C9 1_555 1_555
O6 H3 1_555 1_555
C1 C2 1_555 1_555
C2 H4 1_555 1_555
C3 C2 1_555 1_555
C4 C3 1_555 1_555
H5 C4 1_555 1_555
C5 C4 1_555 1_555
C6 C1 1_555 1_555
H6 C6 1_555 1_555
C7 O1 1_555 1_555
C8 O4 1_555 1_555
C9 O6 1_555 1_555
N1 C10 1_555 1_555
N2 C19 1_555 1_555
C10 H7 1_555 1_555
C11 C10 1_555 1_555
H8 C11 1_555 1_555
C12 C11 1_555 1_555
C13 C12 1_555 1_555
H9 C13 1_555 1_555
C14 N1 1_555 1_555
H10 C14 1_555 1_555
C15 C12 1_555 1_555
H11 C15 1_555 1_555
H12 C15 1_555 1_555
C16 C15 1_555 1_555
H13 C16 1_555 1_555
H14 C16 1_555 1_555
C17 C16 1_555 1_555
C18 C17 1_555 1_555
H15 C18 1_555 1_555
C19 C18 1_555 1_555
H16 C19 1_555 1_555
C20 N2 1_555 1_555
H17 C20 1_555 1_555
C21 C17 1_555 1_555
H18 C21 1_555 1_555
N3 C22 1_555 1_555
C22 H19 1_555 1_555
C23 C22 1_555 1_555
H20 C23 1_555 1_555
C24 C23 1_555 1_555
C25 C24 1_555 1_555
H21 C25 1_555 1_555
C26 N3 1_555 1_555
H22 C26 1_555 1_555
C27 C24 1_555 1_555
H23 C27 1_555 1_555
H24 C27 1_555 1_555
N3B C22B 1_555 1_555
C22B H19B 1_555 1_555
C23B C22B 1_555 1_555
H20B C23B 1_555 1_555
C24B C23B 1_555 1_555
C25B C24B 1_555 1_555
H21B C25B 1_555 1_555
C26B N3B 1_555 1_555
H22B C26B 1_555 1_555
C27B C27 1_555 1_555
H23B C27B 1_555 1_555
H24B C27B 1_555 1_555
C1 C7 1_555 1_555
C3 C8 1_555 1_555
C5 C6 1_555 1_555
C5 C9 1_555 1_555
C13 C14 1_555 1_555
C20 C21 1_555 1_555
C25 C26 1_555 1_555
C24B C27B 1_555 1_555
C25B C26B 1_555 1_555

#END
