
#######################################################################
#
#                 Cambridge Crystallographic Data Centre
#                                CCDC 
#
#######################################################################
#
# If this CIF has been generated from an entry in the Cambridge 
# Structural Database, then it will include bibliographic, chemical, 
# crystal, experimental, refinement or atomic coordinate data resulting 
# from the CCDC's data processing and validation procedures.
#
#######################################################################

data_SAYNIS
_chemical_formula_moiety         'C15 H11 F4 I1 N2'
_chemical_name_systematic        
N,N-dimethyl-4-{[(2,3,5,6-tetrafluoro-4-iodophenyl)imino]methyl}aniline
_symmetry_cell_setting           monoclinic
_symmetry_space_group_name_H-M   'P 21'
_symmetry_Int_Tables_number      4
_space_group_name_Hall           'P 2yb'
loop_
_symmetry_equiv_pos_site_id
_symmetry_equiv_pos_as_xyz
1 x,y,z
2 -x,1/2+y,-z
_cell_length_a                   6.2963(13)
_cell_length_b                   10.568(2)
_cell_length_c                   22.978(5)
_cell_angle_alpha                90
_cell_angle_beta                 92.70(3)
_cell_angle_gamma                90
_cell_volume                     1527.24
_exptl_crystal_colour            yellow
_exptl_crystal_description       block
_cell_formula_units_Z            4
loop_
_atom_site_label
_atom_site_type_symbol
_atom_site_fract_x
_atom_site_fract_y
_atom_site_fract_z
C1 C 0.3700(13) 0.5334(7) 0.5482(3)
C2 C 0.5600(13) 0.5385(7) 0.5803(4)
C3 C 0.6094(13) 0.4498(8) 0.6230(4)
C4 C 0.4719(11) 0.3529(7) 0.6369(3)
C5 C 0.2801(12) 0.3510(7) 0.6043(3)
C6 C 0.2302(14) 0.4395(8) 0.5624(4)
C7 C 0.6824(12) 0.2145(7) 0.6918(3)
H1 H 0.7924 0.2385 0.6685
C8 C 0.7258(12) 0.1207(7) 0.7372(3)
C9 C 0.9228(12) 0.0596(8) 0.7414(3)
H2 H 1.0269 0.0832 0.7162
C10 C 0.9676(12) -0.0338(9) 0.7814(3)
H3 H 1.1012 -0.0716 0.7830
C11 C 0.8126(13) -0.0738(7) 0.8205(4)
C12 C 0.6163(12) -0.0072(8) 0.8173(3)
H4 H 0.5142 -0.0272 0.8438
C13 C 0.5719(12) 0.0854(8) 0.7768(3)
H5 H 0.4399 0.1250 0.7753
C14 C 1.0511(14) -0.2355(11) 0.8620(4)
H6 H 1.0913 -0.2556 0.8232
H7 H 1.0373 -0.3122 0.8838
H8 H 1.1582 -0.1829 0.8807
C15 C 0.6800(14) -0.2182(10) 0.8944(4)
H9 H 0.6213 -0.1502 0.9162
H10 H 0.7369 -0.2815 0.9207
H11 H 0.5705 -0.2549 0.8693
F1 F 0.7028(9) 0.6295(5) 0.5704(3)
F2 F 0.7980(8) 0.4612(5) 0.6534(2)
F3 F 0.0405(9) 0.4286(5) 0.5319(3)
F4 F 0.1365(7) 0.2597(5) 0.6148(2)
I1 I 0.29452(12) 0.66584(6) 0.48408(3)
N1 N 0.5008(9) 0.2649(7) 0.6825(2)
N2 N 0.8504(11) -0.1691(7) 0.8591(3)
C16 C 0.1024(13) 0.6551(9) 0.0579(3)
C17 C 0.2896(14) 0.7196(8) 0.0522(3)
C18 C 0.3545(12) 0.8154(8) 0.0903(4)
C19 C 0.2324(14) 0.8517(8) 0.1374(3)
C20 C 0.0428(13) 0.7829(8) 0.1420(3)
C21 C -0.0192(13) 0.6904(7) 0.1037(3)
C22 C 0.4641(14) 0.9567(8) 0.2011(4)
H12 H 0.5587 0.8911 0.1947
C23 C 0.5341(13) 1.0590(7) 0.2401(3)
C24 C 0.7389(13) 1.0586(8) 0.2651(3)
H13 H 0.8316 0.9940 0.2558
C25 C 0.8081(11) 1.1514(9) 0.3034(3)
H14 H 0.9462 1.1486 0.3196
C26 C 0.6723(11) 1.2504(7) 0.3183(3)
C27 C 0.4679(12) 1.2521(8) 0.2921(3)
H15 H 0.3763 1.3181 0.3003
C28 C 0.3998(11) 1.1586(9) 0.2546(3)
H16 H 0.2618 1.1613 0.2383
C29 C 0.9560(14) 1.3472(9) 0.3808(4)
H17 H 0.9818 1.2733 0.4044
H18 H 0.9763 1.4216 0.4044
H19 H 1.0533 1.3486 0.3499
C30 C 0.5998(17) 1.4392(9) 0.3775(5)
H20 H 0.6001 1.5116 0.3523
H21 H 0.6472 1.4638 0.4161
H22 H 0.4583 1.4056 0.3782
F5 F 0.4180(10) 0.6930(7) 0.0076(2)
F6 F 0.5372(9) 0.8766(7) 0.0812(3)
F7 F -0.2049(8) 0.6301(5) 0.1119(2)
F8 F -0.0797(7) 0.8106(5) 0.1865(2)
I2 I 0.00697(14) 0.51270(7) 0.00050(3)
N3 N 0.2801(11) 0.9522(7) 0.1751(3)
N4 N 0.7401(11) 1.3444(7) 0.3563(3)
loop_
_geom_bond_atom_site_label_1
_geom_bond_atom_site_label_2
_geom_bond_site_symmetry_1
_geom_bond_site_symmetry_2
C1 C2 1_555 1_555
C2 C3 1_555 1_555
C3 C4 1_555 1_555
C4 C5 1_555 1_555
C5 C6 1_555 1_555
C6 C1 1_555 1_555
C7 H1 1_555 1_555
C8 C7 1_555 1_555
C9 C8 1_555 1_555
H2 C9 1_555 1_555
C10 C9 1_555 1_555
H3 C10 1_555 1_555
C11 C10 1_555 1_555
C12 C11 1_555 1_555
H4 C12 1_555 1_555
C13 C8 1_555 1_555
H5 C13 1_555 1_555
C14 H6 1_555 1_555
H7 C14 1_555 1_555
H8 C14 1_555 1_555
C15 H9 1_555 1_555
H10 C15 1_555 1_555
H11 C15 1_555 1_555
F1 C2 1_555 1_555
F2 C3 1_555 1_555
F3 C6 1_555 1_555
F4 C5 1_555 1_555
I1 C1 1_555 1_555
N1 C4 1_555 1_555
N2 C11 1_555 1_555
C16 C17 1_555 1_555
C17 C18 1_555 1_555
C18 C19 1_555 1_555
C19 C20 1_555 1_555
C20 C21 1_555 1_555
C21 C16 1_555 1_555
C22 H12 1_555 1_555
C23 C22 1_555 1_555
C24 C23 1_555 1_555
H13 C24 1_555 1_555
C25 C24 1_555 1_555
H14 C25 1_555 1_555
C26 C25 1_555 1_555
C27 C26 1_555 1_555
H15 C27 1_555 1_555
C28 C23 1_555 1_555
H16 C28 1_555 1_555
C29 H17 1_555 1_555
H18 C29 1_555 1_555
H19 C29 1_555 1_555
C30 H20 1_555 1_555
H21 C30 1_555 1_555
H22 C30 1_555 1_555
F5 C17 1_555 1_555
F6 C18 1_555 1_555
F7 C21 1_555 1_555
F8 C20 1_555 1_555
I2 C16 1_555 1_555
N3 C19 1_555 1_555
N4 C26 1_555 1_555
C7 N1 1_555 1_555
C12 C13 1_555 1_555
C14 N2 1_555 1_555
C15 N2 1_555 1_555
C22 N3 1_555 1_555
C27 C28 1_555 1_555
C29 N4 1_555 1_555
C30 N4 1_555 1_555

#END
