
#######################################################################
#
#                 Cambridge Crystallographic Data Centre
#                                CCDC 
#
#######################################################################
#
# If this CIF has been generated from an entry in the Cambridge 
# Structural Database, then it will include bibliographic, chemical, 
# crystal, experimental, refinement or atomic coordinate data resulting 
# from the CCDC's data processing and validation procedures.
#
#######################################################################

data_SAYRAL
_chemical_compound_source        'Bulbs of Fritillaria ebeiensis var. purpurea'
_chemical_formula_moiety         'C27 H43 N1 O2,H2 O1'
_chemical_name_systematic        'Ebeienine monohydrate'
_chemical_properties_biological  'antitussive and expectorant agent'
_symmetry_cell_setting           monoclinic
_symmetry_space_group_name_H-M   'P 21'
_symmetry_Int_Tables_number      4
_space_group_name_Hall           'P 2yb'
loop_
_symmetry_equiv_pos_site_id
_symmetry_equiv_pos_as_xyz
1 x,y,z
2 -x,1/2+y,-z
_cell_length_a                   13.508(1)
_cell_length_b                   7.853(1)
_cell_length_c                   11.912(1)
_cell_angle_alpha                90
_cell_angle_beta                 104.18(1)
_cell_angle_gamma                90
_cell_volume                     1225.1
_exptl_crystal_colour            colorless
_chemical_melting_point          274.5-278.5deg.C
_cell_formula_units_Z            2
loop_
_atom_site_label
_atom_site_type_symbol
_atom_site_fract_x
_atom_site_fract_y
_atom_site_fract_z
C1 C 0.3266(3) 0.6824(2) 0.9390(5)
C2 C 0.2574(4) 0.7191(2) 1.0220(5)
C3 C 0.1485(3) 0.6630(2) 0.9644(5)
C4 C 0.1462(3) 0.4735(2) 0.9372(4)
C5 C 0.2132(3) 0.4400(2) 0.8527(4)
C6 C 0.1978(3) 0.2611(2) 0.7985(4)
C7 C 0.2599(3) 0.2396(2) 0.7068(4)
C8 C 0.3702(3) 0.2920(2) 0.7561(4)
C9 C 0.3777(3) 0.4741(2) 0.8034(4)
C10 C 0.3258(3) 0.4943(2) 0.9039(4)
C11 C 0.4905(3) 0.5193(2) 0.8159(5)
C12 C 0.5043(3) 0.4590(2) 0.6978(4)
C13 C 0.6125(3) 0.4514(2) 0.6811(4)
C14 C 0.4442(3) 0.2892(2) 0.6741(4)
C15 C 0.5145(3) 0.1363(3) 0.6976(5)
C16 C 0.5957(3) 0.1453(2) 0.6270(5)
C17 C 0.6502(3) 0.3138(2) 0.6417(4)
C18 C 0.6675(3) 0.6183(3) 0.6976(5)
C19 C 0.3813(3) 0.3884(2) 1.0093(4)
C20 C 0.7538(3) 0.3177(2) 0.6116(5)
C21 C 0.7457(4) 0.2297(3) 0.4944(8)
C22 C 0.7950(3) 0.4991(3) 0.6079(5)
C23 C 0.9104(4) 0.4931(3) 0.6145(6)
C24 C 0.9556(3) 0.6697(3) 0.6120(6)
C25 C 0.9320(3) 0.7818(3) 0.7065(5)
C26 C 0.8168(3) 0.7784(3) 0.6954(5)
C27 C 0.9703(4) 0.9628(3) 0.7010(5)
N1 N 0.7776(5) 0.6057(4) 0.7031(11)
O1 O 0.0850(6) 0.7061(6) 1.0412(11)
O2 O 0.2253(4) 0.1271(2) 0.8786(5)
O3 O 0.1093(4) 0.0579(3) 1.0564(6)
loop_
_geom_bond_atom_site_label_1
_geom_bond_atom_site_label_2
_geom_bond_site_symmetry_1
_geom_bond_site_symmetry_2
C1 C2 1_555 1_555
C2 C3 1_555 1_555
C3 C4 1_555 1_555
C4 C5 1_555 1_555
C5 C6 1_555 1_555
C6 C7 1_555 1_555
C7 C8 1_555 1_555
C8 C9 1_555 1_555
C9 C10 1_555 1_555
C10 C1 1_555 1_555
C11 C9 1_555 1_555
C12 C11 1_555 1_555
C13 C12 1_555 1_555
C14 C8 1_555 1_555
C15 C14 1_555 1_555
C16 C15 1_555 1_555
C17 C13 1_555 1_555
C18 C13 1_555 1_555
C19 C10 1_555 1_555
C20 C17 1_555 1_555
C21 C20 1_555 1_555
C22 C20 1_555 1_555
C23 C22 1_555 1_555
C24 C23 1_555 1_555
C25 C24 1_555 1_555
C26 C25 1_555 1_555
C27 C25 1_555 1_555
N1 C18 1_555 1_555
O1 C3 1_555 1_555
O2 C6 1_555 1_555
C5 C10 1_555 1_555
C12 C14 1_555 1_555
C16 C17 1_555 1_555
C22 N1 1_555 1_555
C26 N1 1_555 1_555

#END
