
#######################################################################
#
#                 Cambridge Crystallographic Data Centre
#                                CCDC 
#
#######################################################################
#
# If this CIF has been generated from an entry in the Cambridge 
# Structural Database, then it will include bibliographic, chemical, 
# crystal, experimental, refinement or atomic coordinate data resulting 
# from the CCDC's data processing and validation procedures.
#
#######################################################################

data_SAYVIX
_chemical_formula_moiety         'C26 H52 B2 N2'
_chemical_name_systematic        
N,N,N',N'-Tetramethyl-N,N'-bis(3-pinanylboranyl)-ethylenediamine
_symmetry_cell_setting           tetragonal
_symmetry_space_group_name_H-M   'P 43 21 2'
_symmetry_Int_Tables_number      96
_space_group_name_Hall           'P 4nw 2abw'
loop_
_symmetry_equiv_pos_site_id
_symmetry_equiv_pos_as_xyz
1 x,y,z
2 1/2-y,1/2+x,3/4+z
3 -x,-y,1/2+z
4 1/2+y,1/2-x,1/4+z
5 y,x,-z
6 1/2+x,1/2-y,1/4-z
7 -y,-x,1/2-z
8 1/2-x,1/2+y,3/4-z
_cell_length_a                   13.846(3)
_cell_length_b                   13.846(3)
_cell_length_c                   14.444(3)
_cell_angle_alpha                90
_cell_angle_beta                 90
_cell_angle_gamma                90
_cell_volume                     2769.08
_cell_formula_units_Z            4
loop_
_atom_site_label
_atom_site_type_symbol
_atom_site_fract_x
_atom_site_fract_y
_atom_site_fract_z
C1 C 0.2150(1) 0.6005(1) 0.5300(1)
C2 C 0.3188(1) 0.6209(1) 0.56121(9)
C3 C 0.38931(9) 0.63629(9) 0.47757(8)
C4 C 0.3359(1) 0.6430(1) 0.38224(9)
C5 C 0.2282(1) 0.6223(1) 0.3863(1)
C6 C 0.2050(1) 0.5318(1) 0.44519(9)
C7 C 0.1846(1) 0.6830(1) 0.4644(2)
C8 C 0.2689(1) 0.4433(1) 0.4352(1)
C9 C 0.0998(1) 0.4986(1) 0.4330(1)
C10 C 0.3568(1) 0.5470(1) 0.6294(1)
B1 B 0.4572(1) 0.7282(1) 0.5035(1)
N1 N 0.55920(8) 0.73632(8) 0.44240(7)
C11 C 0.62319(9) 0.6492(1) 0.45062(8)
C12 C 0.5402(1) 0.7494(1) 0.3419(1)
C13 C 0.6112(1) 0.8250(1) 0.4739(1)
C11D C 0.6492(1) 0.62319(9) 0.54938(8)
N1D N 0.73632(8) 0.55920(8) 0.55760(7)
B1D B 0.7282(1) 0.4572(1) 0.4965(1)
C12D C 0.7494(1) 0.5402(1) 0.6581(1)
C13D C 0.8250(1) 0.6112(1) 0.5261(1)
C3D C 0.63629(9) 0.38931(9) 0.52243(8)
C2D C 0.6209(1) 0.3188(1) 0.43879(9)
C4D C 0.6430(1) 0.3359(1) 0.61776(9)
C1D C 0.6005(1) 0.2150(1) 0.4700(1)
C10D C 0.5470(1) 0.3568(1) 0.3706(1)
C5D C 0.6223(1) 0.2282(1) 0.6137(1)
C6D C 0.5318(1) 0.2050(1) 0.55481(9)
C7D C 0.6830(1) 0.1846(1) 0.5356(2)
C8D C 0.4433(1) 0.2689(1) 0.5648(1)
C9D C 0.4986(1) 0.0998(1) 0.5670(1)
loop_
_geom_bond_atom_site_label_1
_geom_bond_atom_site_label_2
_geom_bond_site_symmetry_1
_geom_bond_site_symmetry_2
C1 C2 1_555 1_555
C2 C3 1_555 1_555
C3 C4 1_555 1_555
C4 C5 1_555 1_555
C5 C6 1_555 1_555
C6 C1 1_555 1_555
C7 C1 1_555 1_555
C8 C6 1_555 1_555
C9 C6 1_555 1_555
C10 C2 1_555 1_555
B1 C3 1_555 1_555
N1 B1 1_555 1_555
C11 N1 1_555 1_555
C12 N1 1_555 1_555
C13 N1 1_555 1_555
C11D C11 1_555 1_555
N1D C11D 1_555 1_555
B1D N1D 1_555 1_555
C12D N1D 1_555 1_555
C13D N1D 1_555 1_555
C3D B1D 1_555 1_555
C2D C3D 1_555 1_555
C4D C3D 1_555 1_555
C1D C2D 1_555 1_555
C10D C2D 1_555 1_555
C5D C4D 1_555 1_555
C6D C1D 1_555 1_555
C7D C1D 1_555 1_555
C8D C6D 1_555 1_555
C9D C6D 1_555 1_555
C5 C7 1_555 1_555
C5D C6D 1_555 1_555
C5D C7D 1_555 1_555

#END
