
#######################################################################
#
#                 Cambridge Crystallographic Data Centre
#                                CCDC 
#
#######################################################################
#
# If this CIF has been generated from an entry in the Cambridge 
# Structural Database, then it will include bibliographic, chemical, 
# crystal, experimental, refinement or atomic coordinate data resulting 
# from the CCDC's data processing and validation procedures.
#
#######################################################################

data_SAYXUM
_chemical_formula_moiety         'C11 H11 N7 O4'
_chemical_name_systematic        'bis(2-Azidoethyl) pyridine-2,6-dicarboxylate'
_symmetry_cell_setting           monoclinic
_symmetry_space_group_name_H-M   'C 2/c'
_symmetry_Int_Tables_number      15
_space_group_name_Hall           '-C 2yn'
loop_
_symmetry_equiv_pos_site_id
_symmetry_equiv_pos_as_xyz
1 x,y,z
2 1/2+x,1/2+y,z
3 -x,y,1/2-z
4 1/2-x,1/2+y,1/2-z
5 -x,-y,-z
6 1/2-x,1/2-y,-z
7 x,-y,1/2+z
8 1/2+x,1/2-y,1/2+z
_cell_length_a                   14.407(3)
_cell_length_b                   11.854(3)
_cell_length_c                   8.942(2)
_cell_angle_alpha                90
_cell_angle_beta                 111.142(3)
_cell_angle_gamma                90
_cell_volume                     1424.33
_exptl_crystal_colour            colorless
_exptl_crystal_description       needle
_cell_formula_units_Z            4
_exptl_crystal_recrystallization_method 'ethyl acetate'
loop_
_atom_site_label
_atom_site_type_symbol
_atom_site_fract_x
_atom_site_fract_y
_atom_site_fract_z
O1 O 0.19434(13) 0.30279(12) 0.62244(19)
O2 O 0.10863(8) 0.14788(9) 0.51612(12)
N1 N 0.13452(17) -0.09088(15) 0.5125(2)
N2 N 0.13037(14) -0.19311(15) 0.5167(2)
N3 N 0.1290(2) -0.28773(18) 0.5058(3)
N4 N 0.0000 0.25984(14) 0.2500
C1 C 0.0000 0.4952(2) 0.2500
H1 H 0.0000 0.5736 0.2500
C2 C 0.06356(15) 0.43658(15) 0.3780(2)
H2 H 0.1078 0.4745 0.4658
C3 C 0.06074(12) 0.31924(13) 0.37417(19)
C4 C 0.12839(13) 0.25668(14) 0.51653(19)
C5 C 0.17262(14) 0.08486(16) 0.6543(2)
H3 H 0.1775 0.1237 0.7523
H4 H 0.2389 0.0787 0.6507
C6 C 0.12965(13) -0.02960(14) 0.6518(2)
H5 H 0.1670 -0.0698 0.7496
H6 H 0.0611 -0.0235 0.6448
O1B O -0.19434(13) 0.30279(12) -0.12244(19)
O2B O -0.10863(8) 0.14788(9) -0.01612(12)
N1B N -0.13452(17) -0.09088(15) -0.0125(2)
N2B N -0.13037(14) -0.19311(15) -0.0167(2)
N3B N -0.1290(2) -0.28773(18) -0.0058(3)
C2B C -0.06356(15) 0.43658(15) 0.1220(2)
H2B H -0.1078 0.4745 0.0342
C3B C -0.06074(12) 0.31924(13) 0.12583(19)
C4B C -0.12839(13) 0.25668(14) -0.01653(19)
C5B C -0.17262(14) 0.08486(16) -0.1543(2)
H3B H -0.1775 0.1237 -0.2523
H4B H -0.2389 0.0787 -0.1507
C6B C -0.12965(13) -0.02960(14) -0.1518(2)
H5B H -0.1670 -0.0698 -0.2496
H6B H -0.0611 -0.0235 -0.1448
loop_
_geom_bond_atom_site_label_1
_geom_bond_atom_site_label_2
_geom_bond_site_symmetry_1
_geom_bond_site_symmetry_2
O1 C4 1_555 1_555
O2 C4 1_555 1_555
N1 N2 1_555 1_555
N2 N3 1_555 1_555
N4 C3 1_555 1_555
C1 H1 1_555 1_555
C2 C1 1_555 1_555
H2 C2 1_555 1_555
C3 C2 1_555 1_555
C4 C3 1_555 1_555
C5 O2 1_555 1_555
H3 C5 1_555 1_555
H4 C5 1_555 1_555
C6 N1 1_555 1_555
H5 C6 1_555 1_555
H6 C6 1_555 1_555
O1B C4B 1_555 1_555
O2B C4B 1_555 1_555
N1B N2B 1_555 1_555
N2B N3B 1_555 1_555
C2B C1 1_555 1_555
H2B C2B 1_555 1_555
C3B N4 1_555 1_555
C4B C3B 1_555 1_555
C5B O2B 1_555 1_555
H3B C5B 1_555 1_555
H4B C5B 1_555 1_555
C6B N1B 1_555 1_555
H5B C6B 1_555 1_555
H6B C6B 1_555 1_555
C5 C6 1_555 1_555
C2B C3B 1_555 1_555
C5B C6B 1_555 1_555

#END
