
#######################################################################
#
#                 Cambridge Crystallographic Data Centre
#                                CCDC 
#
#######################################################################
#
# If this CIF has been generated from an entry in the Cambridge 
# Structural Database, then it will include bibliographic, chemical, 
# crystal, experimental, refinement or atomic coordinate data resulting 
# from the CCDC's data processing and validation procedures.
#
#######################################################################

data_SAZBEB
_chemical_formula_moiety         'C13 H9 Cl2 N3 O1'
_chemical_name_systematic        '2,4-Dichlorobenzaldehyde picolinoylhydrazone'
_symmetry_cell_setting           monoclinic
_symmetry_space_group_name_H-M   'P 21/n'
_symmetry_Int_Tables_number      14
_space_group_name_Hall           '-P 2yn'
loop_
_symmetry_equiv_pos_site_id
_symmetry_equiv_pos_as_xyz
1 x,y,z
2 1/2-x,1/2+y,1/2-z
3 -x,-y,-z
4 1/2+x,1/2-y,1/2+z
_cell_length_a                   10.500(11)
_cell_length_b                   17.763(18)
_cell_length_c                   14.757(15)
_cell_angle_alpha                90
_cell_angle_beta                 103.794(14)
_cell_angle_gamma                90
_cell_volume                     2672.97
_exptl_crystal_colour            colorless
_exptl_crystal_description       block
_cell_formula_units_Z            8
_exptl_crystal_recrystallization_method methanol
loop_
_atom_site_label
_atom_site_type_symbol
_atom_site_fract_x
_atom_site_fract_y
_atom_site_fract_z
Cl1 Cl 0.60990(8) 0.26040(6) 0.77328(5)
Cl2 Cl 0.11780(6) 0.20950(5) 0.58473(5)
O1 O 0.78793(15) 0.34118(10) 0.36026(12)
N1 N 0.69216(18) 0.31731(12) 0.51088(15)
N2 N 0.8176(2) 0.34107(12) 0.51667(17)
H1 H 0.8685(19) 0.3497(12) 0.5701(14)
N3 N 1.0534(2) 0.40302(13) 0.53949(15)
C1 C 0.5286(2) 0.28335(13) 0.58821(16)
C2 C 0.4936(2) 0.26115(14) 0.66864(17)
C3 C 0.3678(2) 0.23952(14) 0.66968(17)
H3 H 0.3468 0.2255 0.7250
C4 C 0.2749(2) 0.23930(14) 0.58714(18)
C5 C 0.3043(2) 0.26203(16) 0.50649(18)
H4 H 0.2395 0.2630 0.4512
C6 C 0.4300(2) 0.28347(15) 0.50710(17)
H5 H 0.4495 0.2985 0.4515
C7 C 0.6621(2) 0.30586(13) 0.58793(18)
H6 H 0.7246 0.3118 0.6439
C8 C 0.8560(2) 0.35431(14) 0.4379(2)
C9 C 0.9880(2) 0.38946(14) 0.4517(2)
C10 C 1.0330(2) 0.40863(16) 0.3758(2)
H7 H 0.9848 0.3970 0.3160
C11 C 1.1506(3) 0.44537(18) 0.3889(2)
H8 H 1.1831 0.4598 0.3382
C12 C 1.2189(3) 0.46041(18) 0.4774(3)
H9 H 1.2986 0.4858 0.4884
C13 C 1.1686(3) 0.43769(18) 0.5498(2)
H10 H 1.2175 0.4469 0.6102
Cl3 Cl 0.98526(8) -0.00943(5) 0.84983(6)
Cl4 Cl 0.62373(10) -0.08061(5) 0.54437(7)
O2 O 0.93330(16) 0.36868(10) 0.72803(12)
N4 N 0.95502(18) 0.21837(14) 0.74889(14)
N5 N 1.0505(2) 0.26718(14) 0.79340(15)
H2 H 1.132(2) 0.2493(13) 0.8295(15)
N6 N 1.2617(2) 0.35264(14) 0.85374(16)
C14 C 0.8866(2) 0.09309(15) 0.71616(17)
C15 C 0.8839(2) 0.01927(17) 0.74561(19)
C16 C 0.8021(3) -0.03335(16) 0.6946(2)
H11 H 0.8013 -0.0824 0.7164
C17 C 0.7215(3) -0.01285(18) 0.6111(2)
C18 C 0.7197(3) 0.06002(18) 0.5792(2)
H12 H 0.6633 0.0740 0.5231
C19 C 0.8025(2) 0.11133(16) 0.63186(18)
H13 H 0.8022 0.1605 0.6101
C20 C 0.9760(2) 0.14867(17) 0.76794(17)
H14 H 1.0479 0.1338 0.8145
C21 C 1.0337(2) 0.34125(17) 0.77425(17)
C22 C 1.1524(2) 0.38846(17) 0.81344(17)
C23 C 1.1443(3) 0.4640(2) 0.8043(2)
H15 H 1.0648 0.4869 0.7769
C24 C 1.2546(4) 0.5064(2) 0.8358(2)
H16 H 1.2515 0.5585 0.8287
C25 C 1.3677(3) 0.4721(2) 0.8772(2)
H17 H 1.4438 0.4998 0.9001
C26 C 1.3678(3) 0.3957(2) 0.8845(2)
H18 H 1.4463 0.3720 0.9125
loop_
_geom_bond_atom_site_label_1
_geom_bond_atom_site_label_2
_geom_bond_site_symmetry_1
_geom_bond_site_symmetry_2
Cl1 C2 1_555 1_555
Cl2 C4 1_555 1_555
Cl3 C15 1_555 1_555
Cl4 C17 1_555 1_555
O1 C8 1_555 1_555
O2 C21 1_555 1_555
N1 N2 1_555 1_555
N2 H1 1_555 1_555
N3 C9 1_555 1_555
N4 N5 1_555 1_555
N5 H2 1_555 1_555
N6 C22 1_555 1_555
C1 C2 1_555 1_555
C2 C3 1_555 1_555
C3 H3 1_555 1_555
C4 C3 1_555 1_555
C5 C4 1_555 1_555
H4 C5 1_555 1_555
C6 C1 1_555 1_555
H5 C6 1_555 1_555
C7 N1 1_555 1_555
H6 C7 1_555 1_555
C8 N2 1_555 1_555
C9 C8 1_555 1_555
C10 C9 1_555 1_555
H7 C10 1_555 1_555
C11 C10 1_555 1_555
H8 C11 1_555 1_555
C12 C11 1_555 1_555
H9 C12 1_555 1_555
C13 N3 1_555 1_555
H10 C13 1_555 1_555
C14 C15 1_555 1_555
C15 C16 1_555 1_555
C16 H11 1_555 1_555
C17 C16 1_555 1_555
C18 C17 1_555 1_555
H12 C18 1_555 1_555
C19 C14 1_555 1_555
H13 C19 1_555 1_555
C20 N4 1_555 1_555
H14 C20 1_555 1_555
C21 N5 1_555 1_555
C22 C21 1_555 1_555
C23 C22 1_555 1_555
H15 C23 1_555 1_555
C24 C23 1_555 1_555
H16 C24 1_555 1_555
C25 C24 1_555 1_555
H17 C25 1_555 1_555
C26 N6 1_555 1_555
H18 C26 1_555 1_555
C1 C7 1_555 1_555
C5 C6 1_555 1_555
C12 C13 1_555 1_555
C14 C20 1_555 1_555
C18 C19 1_555 1_555
C25 C26 1_555 1_555

#END
