
#######################################################################
#
#                 Cambridge Crystallographic Data Centre
#                                CCDC 
#
#######################################################################
#
# If this CIF has been generated from an entry in the Cambridge 
# Structural Database, then it will include bibliographic, chemical, 
# crystal, experimental, refinement or atomic coordinate data resulting 
# from the CCDC's data processing and validation procedures.
#
#######################################################################

data_SAZBIF
_chemical_formula_moiety         'C14 H13 N3 O2'
_chemical_name_systematic        '2-Methoxybenzaldehyde isonicotinoylhydrazone'
_symmetry_cell_setting           monoclinic
_symmetry_space_group_name_H-M   'P 21/c'
_symmetry_Int_Tables_number      14
_space_group_name_Hall           '-P 2ybc'
loop_
_symmetry_equiv_pos_site_id
_symmetry_equiv_pos_as_xyz
1 x,y,z
2 -x,1/2+y,1/2-z
3 -x,-y,-z
4 x,1/2-y,1/2+z
_cell_length_a                   9.766(2)
_cell_length_b                   15.935(4)
_cell_length_c                   17.428(4)
_cell_angle_alpha                90
_cell_angle_beta                 95.404(4)
_cell_angle_gamma                90
_cell_volume                     2700.11
_exptl_crystal_colour            colorless
_exptl_crystal_description       plate
_cell_formula_units_Z            8
_exptl_crystal_recrystallization_method methanol
loop_
_atom_site_label
_atom_site_type_symbol
_atom_site_fract_x
_atom_site_fract_y
_atom_site_fract_z
O1 O 0.9712(5) 0.1291(3) 0.1523(3)
O2 O 0.9032(5) -0.1310(4) 0.4449(3)
N1 N 1.2620(7) -0.0437(5) -0.0064(4)
N2 N 1.0003(5) 0.0099(3) 0.2226(3)
H1 H 1.0343 -0.0399 0.2250
N3 N 0.9289(5) 0.0387(3) 0.2809(3)
C1 C 1.1036(6) 0.0194(4) 0.1044(3)
C2 C 1.1959(8) 0.0692(4) 0.0722(4)
H3 H 1.2073 0.1251 0.0868
C3 C 1.2716(8) 0.0349(6) 0.0176(5)
H4 H 1.3342 0.0696 -0.0041
C4 C 1.1710(7) -0.0889(5) 0.0246(4)
H5 H 1.1594 -0.1439 0.0076
C5 C 1.0899(6) -0.0619(4) 0.0808(4)
H6 H 1.0284 -0.0980 0.1017
C6 C 1.0181(6) 0.0584(4) 0.1614(4)
C7 C 0.9240(6) -0.0131(4) 0.3361(4)
H7 H 0.9675 -0.0648 0.3331
C8 C 0.8528(7) 0.0057(5) 0.4036(4)
C9 C 0.7950(8) 0.0829(5) 0.4155(5)
H8 H 0.7986 0.1246 0.3784
C10 C 0.7323(10) 0.0995(7) 0.4812(6)
H9 H 0.6949 0.1520 0.4894
C11 C 0.7263(11) 0.0363(8) 0.5343(6)
H10 H 0.6821 0.0465 0.5783
C12 C 0.7821(9) -0.0402(6) 0.5251(5)
H11 H 0.7787 -0.0811 0.5629
C13 C 0.8443(7) -0.0568(6) 0.4589(5)
C14 C 0.8976(9) -0.1965(5) 0.5011(5)
H12 H 0.9339 -0.2473 0.4815
H13 H 0.8038 -0.2053 0.5114
H14 H 0.9512 -0.1805 0.5478
O3 O 0.7864(4) 0.3931(3) 0.2393(3)
O4 O 1.3172(5) 0.1379(4) 0.2976(4)
N4 N 0.4246(6) 0.2252(4) 0.0912(4)
N5 N 0.8971(5) 0.2709(3) 0.2338(3)
H2 H 0.8921 0.2184 0.2221
N6 N 1.0168(5) 0.3038(3) 0.2676(3)
C15 C 0.6646(6) 0.2828(4) 0.1742(4)
C16 C 0.5442(6) 0.3285(4) 0.1703(4)
H15 H 0.5412 0.3800 0.1951
C17 C 0.4288(7) 0.2966(5) 0.1291(5)
H16 H 0.3481 0.3277 0.1281
C18 C 0.5417(8) 0.1854(5) 0.0941(5)
H17 H 0.5436 0.1362 0.0654
C19 C 0.6618(7) 0.2086(4) 0.1350(4)
H18 H 0.7396 0.1747 0.1362
C20 C 0.7883(6) 0.3202(4) 0.2190(4)
C21 C 1.1161(7) 0.2524(4) 0.2778(4)
H19 H 1.1005 0.1964 0.2646
C22 C 1.2521(7) 0.2771(4) 0.3088(4)
C23 C 1.2868(7) 0.3586(5) 0.3279(4)
H20 H 1.2184 0.3993 0.3224
C24 C 1.4171(8) 0.3824(6) 0.3546(5)
H21 H 1.4385 0.4383 0.3656
C25 C 1.5149(8) 0.3207(7) 0.3646(5)
H22 H 1.6033 0.3351 0.3850
C26 C 1.4867(8) 0.2379(6) 0.3455(5)
H23 H 1.5556 0.1974 0.3511
C27 C 1.3559(7) 0.2166(5) 0.3181(4)
C28 C 1.4202(8) 0.0773(5) 0.2895(6)
H24 H 1.3793 0.0279 0.2656
H25 H 1.4641 0.0631 0.3395
H26 H 1.4872 0.0996 0.2581
loop_
_geom_bond_atom_site_label_1
_geom_bond_atom_site_label_2
_geom_bond_site_symmetry_1
_geom_bond_site_symmetry_2
O1 C6 1_555 1_555
O2 C13 1_555 1_555
O3 C20 1_555 1_555
O4 C27 1_555 1_555
N1 C3 1_555 1_555
N2 H1 1_555 1_555
N3 N2 1_555 1_555
N4 C17 1_555 1_555
N5 H2 1_555 1_555
N6 N5 1_555 1_555
C1 C2 1_555 1_555
C2 H3 1_555 1_555
C3 C2 1_555 1_555
H4 C3 1_555 1_555
C4 N1 1_555 1_555
H5 C4 1_555 1_555
C5 C1 1_555 1_555
H6 C5 1_555 1_555
C6 N2 1_555 1_555
C7 N3 1_555 1_555
H7 C7 1_555 1_555
C8 C7 1_555 1_555
C9 C8 1_555 1_555
H8 C9 1_555 1_555
C10 C9 1_555 1_555
H9 C10 1_555 1_555
C11 C10 1_555 1_555
H10 C11 1_555 1_555
C12 C11 1_555 1_555
H11 C12 1_555 1_555
C13 C8 1_555 1_555
C14 O2 1_555 1_555
H12 C14 1_555 1_555
H13 C14 1_555 1_555
H14 C14 1_555 1_555
C15 C16 1_555 1_555
C16 H15 1_555 1_555
C17 C16 1_555 1_555
H16 C17 1_555 1_555
C18 N4 1_555 1_555
H17 C18 1_555 1_555
C19 C15 1_555 1_555
H18 C19 1_555 1_555
C20 N5 1_555 1_555
C21 N6 1_555 1_555
H19 C21 1_555 1_555
C22 C21 1_555 1_555
C23 C22 1_555 1_555
H20 C23 1_555 1_555
C24 C23 1_555 1_555
H21 C24 1_555 1_555
C25 C24 1_555 1_555
H22 C25 1_555 1_555
C26 C25 1_555 1_555
H23 C26 1_555 1_555
C27 C22 1_555 1_555
C28 O4 1_555 1_555
H24 C28 1_555 1_555
H25 C28 1_555 1_555
H26 C28 1_555 1_555
C1 C6 1_555 1_555
C4 C5 1_555 1_555
C12 C13 1_555 1_555
C15 C20 1_555 1_555
C18 C19 1_555 1_555
C26 C27 1_555 1_555

#END
