
#######################################################################
#
#                 Cambridge Crystallographic Data Centre
#                                CCDC 
#
#######################################################################
#
# If this CIF has been generated from an entry in the Cambridge 
# Structural Database, then it will include bibliographic, chemical, 
# crystal, experimental, refinement or atomic coordinate data resulting 
# from the CCDC's data processing and validation procedures.
#
#######################################################################

data_SAZBIF01
_chemical_formula_moiety         'C14 H13 N3 O2'
_chemical_name_systematic        
'(E)-N-isonicotinoyl 2-methoxybenzaldehydehydrazone'
_symmetry_cell_setting           monoclinic
_symmetry_space_group_name_H-M   'P 21/c'
_symmetry_Int_Tables_number      14
_space_group_name_Hall           '-P 2ybc'
loop_
_symmetry_equiv_pos_site_id
_symmetry_equiv_pos_as_xyz
1 x,y,z
2 -x,1/2+y,1/2-z
3 -x,-y,-z
4 x,1/2-y,1/2+z
_cell_length_a                   9.8899(3)
_cell_length_b                   15.8189(4)
_cell_length_c                   17.0380(5)
_cell_angle_alpha                90
_cell_angle_beta                 97.236(2)
_cell_angle_gamma                90
_cell_volume                     2644.32
_exptl_crystal_colour            colorless
_exptl_crystal_description       needle
_chemical_melting_point          '464-466 K'
_cell_formula_units_Z            8
_exptl_crystal_recrystallization_method ethanol
loop_
_atom_site_label
_atom_site_type_symbol
_atom_site_fract_x
_atom_site_fract_y
_atom_site_fract_z
N1 N 0.24285(13) 0.46023(9) 0.50833(8)
C1 C 0.32844(16) 0.41087(10) 0.47406(9)
C2 C 0.40675(15) 0.43834(9) 0.41718(9)
C3 C 0.39903(15) 0.52289(9) 0.39537(9)
C4 C 0.31165(16) 0.57525(10) 0.43039(9)
C5 C 0.23589(16) 0.54106(11) 0.48509(10)
C6 C 0.48363(15) 0.56099(9) 0.33778(9)
O1 O 0.53411(11) 0.63194(6) 0.34959(6)
N2 N 0.49667(13) 0.51292(8) 0.27459(7)
N3 N 0.57270(13) 0.54065(8) 0.21639(8)
C7 C 0.57442(15) 0.48788(10) 0.15936(9)
C8 C 0.64948(15) 0.50540(10) 0.09265(9)
C9 C 0.65393(16) 0.44324(10) 0.03400(9)
O2 O 0.58912(12) 0.36911(7) 0.04609(7)
C10 C 0.58917(19) 0.30389(12) -0.01257(11)
C11 C 0.72338(18) 0.45857(12) -0.03076(10)
C12 C 0.78696(19) 0.53524(12) -0.03723(11)
C13 C 0.78403(19) 0.59739(12) 0.01980(11)
C14 C 0.71520(17) 0.58195(11) 0.08420(10)
H1 H 0.3359 0.3533 0.4898
H2 H 0.4642 0.4003 0.3937
H3 H 0.3041 0.6335 0.4170
H4 H 0.1747 0.5773 0.5078
H5 H 0.4566 0.4632 0.2698
H6 H 0.5257 0.4362 0.1605
H7 H 0.5466 0.3253 -0.0638
H8 H 0.5378 0.2550 0.0030
H9 H 0.6832 0.2869 -0.0169
H10 H 0.7269 0.4164 -0.0702
H11 H 0.8337 0.5457 -0.0817
H12 H 0.8287 0.6499 0.0148
H13 H 0.7128 0.6245 0.1234
N4 N -0.07965(14) 0.22436(9) 0.07857(9)
C15 C 0.03832(17) 0.18196(11) 0.08414(11)
C16 C 0.15787(16) 0.20838(10) 0.12824(10)
C17 C 0.15779(15) 0.28436(9) 0.16890(9)
C18 C 0.03634(15) 0.32914(10) 0.16381(9)
C19 C -0.07832(16) 0.29678(10) 0.11920(10)
C20 C 0.28144(15) 0.32300(9) 0.21527(9)
O3 O 0.28046(10) 0.39774(6) 0.23568(6)
N5 N 0.39079(12) 0.27253(8) 0.23228(8)
N6 N 0.51289(12) 0.30839(8) 0.26555(7)
C21 C 0.61228(16) 0.25583(10) 0.27639(9)
C22 C 0.75064(15) 0.28293(10) 0.30607(9)
C23 C 0.85552(16) 0.22238(10) 0.31390(9)
O4 O 0.81679(11) 0.14148(7) 0.29343(7)
C24 C 0.92104(19) 0.08051(11) 0.28666(13)
C25 C 0.98840(17) 0.24604(12) 0.34073(10)
C26 C 1.01772(17) 0.32986(12) 0.35887(10)
C27 C 0.91641(17) 0.39039(12) 0.35039(10)
C28 C 0.78383(17) 0.36693(11) 0.32432(9)
H14 H 0.0400 0.1303 0.0559
H15 H 0.2383 0.1752 0.1306
H16 H 0.0321 0.3815 0.1907
H17 H -0.1610 0.3278 0.1173
H18 H 0.3850 0.2179 0.2225
H19 H 0.5955 0.1977 0.2648
H20 H 0.9816 0.1011 0.2495
H21 H 0.8794 0.0271 0.2672
H22 H 0.9738 0.0714 0.3386
H23 H 1.0589 0.2049 0.3466
H24 H 1.1087 0.3459 0.3774
H25 H 0.9378 0.4479 0.3624
H26 H 0.7142 0.4086 0.3187
loop_
_geom_bond_atom_site_label_1
_geom_bond_atom_site_label_2
_geom_bond_site_symmetry_1
_geom_bond_site_symmetry_2
N1 C1 1_555 1_555
C1 C2 1_555 1_555
C2 C3 1_555 1_555
C3 C4 1_555 1_555
C4 C5 1_555 1_555
C5 N1 1_555 1_555
C6 C3 1_555 1_555
O1 C6 1_555 1_555
N2 C6 1_555 1_555
N3 N2 1_555 1_555
C7 N3 1_555 1_555
C8 C7 1_555 1_555
C9 C8 1_555 1_555
O2 C9 1_555 1_555
C10 O2 1_555 1_555
C11 C9 1_555 1_555
C12 C11 1_555 1_555
C13 C12 1_555 1_555
C14 C8 1_555 1_555
N4 C15 1_555 1_555
C15 C16 1_555 1_555
C16 C17 1_555 1_555
C17 C18 1_555 1_555
C18 C19 1_555 1_555
C19 N4 1_555 1_555
C20 C17 1_555 1_555
O3 C20 1_555 1_555
N5 C20 1_555 1_555
N6 N5 1_555 1_555
C21 N6 1_555 1_555
C22 C21 1_555 1_555
C23 C22 1_555 1_555
O4 C23 1_555 1_555
C24 O4 1_555 1_555
C25 C23 1_555 1_555
C26 C25 1_555 1_555
C27 C26 1_555 1_555
C28 C22 1_555 1_555
H1 C1 1_555 1_555
H2 C2 1_555 1_555
H3 C4 1_555 1_555
H4 C5 1_555 1_555
H5 N2 1_555 1_555
H6 C7 1_555 1_555
H7 C10 1_555 1_555
H8 C10 1_555 1_555
H9 C10 1_555 1_555
H10 C11 1_555 1_555
H11 C12 1_555 1_555
H12 C13 1_555 1_555
H13 C14 1_555 1_555
H14 C15 1_555 1_555
H15 C16 1_555 1_555
H16 C18 1_555 1_555
H17 C19 1_555 1_555
H18 N5 1_555 1_555
H19 C21 1_555 1_555
H20 C24 1_555 1_555
H21 C24 1_555 1_555
H22 C24 1_555 1_555
H23 C25 1_555 1_555
H24 C26 1_555 1_555
H25 C27 1_555 1_555
H26 C28 1_555 1_555
C13 C14 1_555 1_555
C27 C28 1_555 1_555

#END
