
#######################################################################
#
#                 Cambridge Crystallographic Data Centre
#                                CCDC 
#
#######################################################################
#
# If this CIF has been generated from an entry in the Cambridge 
# Structural Database, then it will include bibliographic, chemical, 
# crystal, experimental, refinement or atomic coordinate data resulting 
# from the CCDC's data processing and validation procedures.
#
#######################################################################

data_SAZBEA01
_chemical_formula_moiety         'C30 H46 Se2'
_chemical_name_systematic        'bis(2,4,6-Tri-isopropylphenyl) diselenide'
_symmetry_cell_setting           orthorhombic
_symmetry_space_group_name_H-M   'P c a b'
_symmetry_Int_Tables_number      61
_space_group_name_Hall           '-P 2bc 2ac'
loop_
_symmetry_equiv_pos_site_id
_symmetry_equiv_pos_as_xyz
1 x,y,z
2 -x,1/2-y,1/2+z
3 1/2+x,-y,1/2-z
4 1/2-x,1/2+y,-z
5 -x,-y,-z
6 x,1/2+y,1/2-z
7 1/2-x,y,1/2+z
8 1/2+x,1/2-y,z
_cell_length_a                   15.546(9)
_cell_length_b                   17.587(16)
_cell_length_c                   22.445(4)
_cell_angle_alpha                90
_cell_angle_beta                 90
_cell_angle_gamma                90
_cell_volume                     6136.63
_exptl_crystal_colour            colorless
_exptl_crystal_description       block
_cell_formula_units_Z            8
_exptl_crystal_recrystallization_method pentane
loop_
_atom_site_label
_atom_site_type_symbol
_atom_site_fract_x
_atom_site_fract_y
_atom_site_fract_z
Se1 Se 0.0699(2) 0.7890(1) 0.62283(8)
Se2 Se 0.0649(2) 0.7125(1) 0.70782(8)
C1 C 0.167(2) 0.751(1) 0.5846(9)
C2 C 0.241(2) 0.793(1) 0.5827(9)
C3 C 0.315(2) 0.770(1) 0.553(1)
C4 C 0.310(2) 0.700(1) 0.521(1)
C5 C 0.236(2) 0.657(1) 0.523(1)
C6 C 0.164(2) 0.680(1) 0.5537(9)
C7 C 0.337(2) 0.873(1) 0.650(1)
C8 C 0.255(2) 0.865(1) 0.615(1)
C9 C 0.228(2) 0.933(1) 0.575(1)
C10 C 0.425(2) 0.598(1) 0.510(1)
C11 C 0.391(2) 0.673(1) 0.488(1)
C12 C 0.366(2) 0.668(1) 0.415(1)
C13 C 0.037(2) 0.629(1) 0.493(1)
C14 C 0.092(1) 0.628(1) 0.5520(9)
C15 C 0.112(1) 0.553(1) 0.5764(9)
C16 C 0.153(2) 0.757(1) 0.753(1)
C17 C 0.143(2) 0.827(1) 0.782(1)
C18 C 0.210(2) 0.855(1) 0.814(1)
C19 C 0.291(2) 0.818(1) 0.8178(9)
C20 C 0.302(2) 0.754(1) 0.789(1)
C21 C 0.237(2) 0.720(1) 0.758(1)
C22 C 0.058(2) 0.951(1) 0.756(1)
C23 C 0.051(2) 0.866(1) 0.779(1)
C24 C 0.016(2) 0.866(1) 0.843(1)
C25 C 0.350(2) 0.836(1) 0.923(1)
C26 C 0.356(2) 0.847(1) 0.856(1)
C27 C 0.398(2) 0.915(1) 0.839(1)
C28 C 0.332(2) 0.640(1) 0.691(1)
C29 C 0.252(2) 0.640(1) 0.726(1)
C30 C 0.276(2) 0.578(1) 0.770(1)
H1 H 0.3821 0.8812 0.6220
H2 H 0.3311 0.9156 0.6749
H3 H 0.3536 0.8308 0.6741
H4 H 0.2163 0.8646 0.6478
H5 H 0.2217 0.9759 0.6003
H6 H 0.2726 0.9414 0.5473
H7 H 0.1757 0.9279 0.5531
H8 H 0.3657 0.8004 0.5527
H9 H 0.3825 0.5604 0.5037
H10 H 0.4751 0.5856 0.4874
H11 H 0.4392 0.6011 0.5506
H12 H 0.4365 0.7077 0.4960
H13 H 0.4164 0.6550 0.3933
H14 H 0.3237 0.6299 0.4096
H15 H 0.3448 0.7153 0.4017
H16 H 0.2344 0.6098 0.5030
H17 H 0.0670 0.6015 0.4636
H18 H -0.0163 0.6041 0.5016
H19 H 0.0235 0.6779 0.4775
H20 H 0.0525 0.6497 0.5795
H21 H 0.0595 0.5279 0.5847
H22 H 0.1428 0.5253 0.5468
H23 H 0.1459 0.5526 0.6117
H24 H 0.0033 0.9740 0.7569
H25 H 0.0968 0.9779 0.7808
H26 H 0.0795 0.9506 0.7162
H27 H 0.0140 0.8397 0.7517
H28 H 0.0549 0.8932 0.8675
H29 H -0.0386 0.8893 0.8436
H30 H 0.0119 0.8149 0.8563
H31 H 0.2026 0.9017 0.8342
H32 H 0.4064 0.8353 0.9393
H33 H 0.3189 0.8777 0.9397
H34 H 0.3216 0.7903 0.9349
H35 H 0.3946 0.8069 0.8466
H36 H 0.3672 0.9569 0.8553
H37 H 0.4547 0.9145 0.8549
H38 H 0.4019 0.9219 0.7971
H39 H 0.3574 0.7314 0.7895
H40 H 0.3804 0.6543 0.7149
H41 H 0.3430 0.5929 0.6726
H42 H 0.3170 0.6787 0.6634
H43 H 0.2005 0.6315 0.7039
H44 H 0.2870 0.5308 0.7517
H45 H 0.3244 0.5922 0.7940
H46 H 0.2243 0.5779 0.7928
loop_
_geom_bond_atom_site_label_1
_geom_bond_atom_site_label_2
_geom_bond_site_symmetry_1
_geom_bond_site_symmetry_2
Se1 Se2 1_555 1_555
Se2 C16 1_555 1_555
C1 Se1 1_555 1_555
C2 C1 1_555 1_555
C3 C2 1_555 1_555
C4 C3 1_555 1_555
C5 C4 1_555 1_555
C6 C1 1_555 1_555
C7 C8 1_555 1_555
C8 C2 1_555 1_555
C9 C8 1_555 1_555
C10 C11 1_555 1_555
C11 C4 1_555 1_555
C12 C11 1_555 1_555
C13 C14 1_555 1_555
C14 C6 1_555 1_555
C15 C14 1_555 1_555
C16 C17 1_555 1_555
C17 C18 1_555 1_555
C18 C19 1_555 1_555
C19 C20 1_555 1_555
C20 C21 1_555 1_555
C21 C16 1_555 1_555
C22 C23 1_555 1_555
C23 C17 1_555 1_555
C24 C23 1_555 1_555
C25 C26 1_555 1_555
C26 C19 1_555 1_555
C27 C26 1_555 1_555
C28 C29 1_555 1_555
C29 C21 1_555 1_555
C30 C29 1_555 1_555
H1 C7 1_555 1_555
H2 C7 1_555 1_555
H3 C7 1_555 1_555
H4 C8 1_555 1_555
H5 C9 1_555 1_555
H6 C9 1_555 1_555
H7 C9 1_555 1_555
H8 C3 1_555 1_555
H9 C10 1_555 1_555
H10 C10 1_555 1_555
H11 C10 1_555 1_555
H12 C11 1_555 1_555
H13 C12 1_555 1_555
H14 C12 1_555 1_555
H15 C12 1_555 1_555
H16 C5 1_555 1_555
H17 C13 1_555 1_555
H18 C13 1_555 1_555
H19 C13 1_555 1_555
H20 C14 1_555 1_555
H21 C15 1_555 1_555
H22 C15 1_555 1_555
H23 C15 1_555 1_555
H24 C22 1_555 1_555
H25 C22 1_555 1_555
H26 C22 1_555 1_555
H27 C23 1_555 1_555
H28 C24 1_555 1_555
H29 C24 1_555 1_555
H30 C24 1_555 1_555
H31 C18 1_555 1_555
H32 C25 1_555 1_555
H33 C25 1_555 1_555
H34 C25 1_555 1_555
H35 C26 1_555 1_555
H36 C27 1_555 1_555
H37 C27 1_555 1_555
H38 C27 1_555 1_555
H39 C20 1_555 1_555
H40 C28 1_555 1_555
H41 C28 1_555 1_555
H42 C28 1_555 1_555
H43 C29 1_555 1_555
H44 C30 1_555 1_555
H45 C30 1_555 1_555
H46 C30 1_555 1_555
C5 C6 1_555 1_555

#END
