
#######################################################################
#
#                 Cambridge Crystallographic Data Centre
#                                CCDC 
#
#######################################################################
#
# If this CIF has been generated from an entry in the Cambridge 
# Structural Database, then it will include bibliographic, chemical, 
# crystal, experimental, refinement or atomic coordinate data resulting 
# from the CCDC's data processing and validation procedures.
#
#######################################################################

data_SAZBOL
_chemical_formula_moiety         'C14 H14 N4 O1'
_chemical_name_systematic        
'1-(4-Aminophenyl)ethanone isonicotinoylhydrazone'
_symmetry_cell_setting           monoclinic
_symmetry_space_group_name_H-M   'P 21/n'
_symmetry_Int_Tables_number      14
_space_group_name_Hall           '-P 2yn'
loop_
_symmetry_equiv_pos_site_id
_symmetry_equiv_pos_as_xyz
1 x,y,z
2 1/2-x,1/2+y,1/2-z
3 -x,-y,-z
4 1/2+x,1/2-y,1/2+z
_cell_length_a                   7.9137(15)
_cell_length_b                   5.3466(10)
_cell_length_c                   29.650(6)
_cell_angle_alpha                90
_cell_angle_beta                 95.415(3)
_cell_angle_gamma                90
_cell_volume                     1248.93
_exptl_crystal_colour            colorless
_exptl_crystal_description       block
_cell_formula_units_Z            4
_exptl_crystal_recrystallization_method methanol
loop_
_atom_site_label
_atom_site_type_symbol
_atom_site_fract_x
_atom_site_fract_y
_atom_site_fract_z
O1 O 0.7070(5) 0.6729(6) -0.00750(10)
N1 N 0.9652(7) 0.6134(9) 0.26696(13)
H1 H 1.021(6) 0.529(9) 0.2871(16)
H2 H 0.896(6) 0.729(9) 0.2747(15)
N2 N 0.7709(4) 0.3526(6) 0.06240(10)
N3 N 0.7454(5) 0.2766(7) 0.01766(11)
H3 H 0.749(4) 0.124(7) 0.0101(12)
N4 N 0.6067(5) 0.1699(7) -0.14986(11)
C1 C 0.8754(5) 0.2929(7) 0.13793(12)
C2 C 0.7838(6) 0.4994(8) 0.15080(14)
H4 H 0.705(4) 0.572(6) 0.1293(12)
C3 C 0.8106(6) 0.6030(8) 0.19332(14)
H5 H 0.742(5) 0.748(8) 0.1996(13)
C4 C 0.9308(6) 0.5017(8) 0.22575(13)
C5 C 1.0166(6) 0.2902(9) 0.21401(14)
H6 H 1.089(5) 0.217(7) 0.2360(14)
C6 C 0.9887(6) 0.1890(8) 0.17131(14)
H7 H 1.059(5) 0.058(8) 0.1648(13)
C7 C 0.8539(5) 0.2061(7) 0.09040(12)
C8 C 0.9342(8) -0.0317(11) 0.07727(19)
H8 H 0.856(6) -0.137(9) 0.0653(17)
H9 H 1.010(6) 0.002(9) 0.0545(17)
H10 H 1.004(7) -0.101(10) 0.1000(18)
C9 C 0.7076(5) 0.4484(8) -0.01463(13)
C10 C 0.6681(5) 0.3456(7) -0.06160(12)
C11 C 0.7245(6) 0.4743(8) -0.09750(14)
H11 H 0.791(5) 0.622(8) -0.0937(13)
C12 C 0.6912(6) 0.3807(9) -0.14050(14)
H12 H 0.735(5) 0.468(7) -0.1673(13)
C13 C 0.5499(6) 0.0522(9) -0.11515(15)
H13 H 0.484(5) -0.089(7) -0.1217(12)
C14 C 0.5767(6) 0.1298(8) -0.07084(14)
H14 H 0.537(5) 0.047(7) -0.0481(13)
loop_
_geom_bond_atom_site_label_1
_geom_bond_atom_site_label_2
_geom_bond_site_symmetry_1
_geom_bond_site_symmetry_2
O1 C9 1_555 1_555
N1 H1 1_555 1_555
H2 N1 1_555 1_555
N2 N3 1_555 1_555
N3 H3 1_555 1_555
N4 C12 1_555 1_555
C1 C2 1_555 1_555
C2 H4 1_555 1_555
C3 C2 1_555 1_555
H5 C3 1_555 1_555
C4 N1 1_555 1_555
C5 C4 1_555 1_555
H6 C5 1_555 1_555
C6 C1 1_555 1_555
H7 C6 1_555 1_555
C7 N2 1_555 1_555
C8 C7 1_555 1_555
H8 C8 1_555 1_555
H9 C8 1_555 1_555
H10 C8 1_555 1_555
C9 N3 1_555 1_555
C10 C9 1_555 1_555
C11 C10 1_555 1_555
H11 C11 1_555 1_555
C12 C11 1_555 1_555
H12 C12 1_555 1_555
C13 N4 1_555 1_555
H13 C13 1_555 1_555
C14 C10 1_555 1_555
H14 C14 1_555 1_555
C1 C7 1_555 1_555
C3 C4 1_555 1_555
C5 C6 1_555 1_555
C13 C14 1_555 1_555

#END
