
#######################################################################
#
#                 Cambridge Crystallographic Data Centre
#                                CCDC 
#
#######################################################################
#
# If this CIF has been generated from an entry in the Cambridge 
# Structural Database, then it will include bibliographic, chemical, 
# crystal, experimental, refinement or atomic coordinate data resulting 
# from the CCDC's data processing and validation procedures.
#
#######################################################################

data_SAZCOM
_chemical_formula_moiety         'C15 H23 N3 O9 S1'
_chemical_name_systematic        
'4-(2,3,4,6-Tetra-O-acetyl-\b-D-galactopyranosyl) thiosemicarbazide'
_symmetry_cell_setting           orthorhombic
_symmetry_space_group_name_H-M   'P 21 21 21'
_symmetry_Int_Tables_number      19
_space_group_name_Hall           'P 2ac 2ab'
loop_
_symmetry_equiv_pos_site_id
_symmetry_equiv_pos_as_xyz
1 x,y,z
2 1/2-x,-y,1/2+z
3 -x,1/2+y,1/2-z
4 1/2+x,1/2-y,-z
_cell_length_a                   7.5445(11)
_cell_length_b                   8.6792(13)
_cell_length_c                   31.229(5)
_cell_angle_alpha                90
_cell_angle_beta                 90
_cell_angle_gamma                90
_cell_volume                     2044.88
_exptl_crystal_colour            colorless
_exptl_crystal_description       needle
_cell_formula_units_Z            4
_exptl_crystal_recrystallization_method 'ethyl acetate/petroleum ether'
loop_
_atom_site_label
_atom_site_type_symbol
_atom_site_fract_x
_atom_site_fract_y
_atom_site_fract_z
S1 S 0.31442(12) 0.74323(11) 0.22479(3)
O1 O 0.2707(2) 0.37388(19) 0.17692(5)
O2 O -0.1450(3) 0.1768(3) 0.17125(7)
O3 O -0.1156(4) -0.0515(3) 0.20197(12)
O4 O 0.2116(2) 0.14298(18) 0.11188(6)
O6 O 0.023(3) 0.0456(16) 0.0633(10)
O7 O 0.2609(2) 0.3429(2) 0.04584(5)
O8 O 0.0654(4) 0.4995(4) 0.01537(8)
O9 O 0.4767(2) 0.56774(19) 0.08519(6)
O10 O 0.7509(3) 0.4849(3) 0.10133(7)
N1 N 0.5056(3) 0.5449(3) 0.17836(7)
H1 H 0.6066 0.5061 0.1715
N2 N 0.6524(3) 0.6699(3) 0.23097(7)
H2 H 0.6550 0.7271 0.2534
N3 N 0.8091(4) 0.6027(3) 0.21635(8)
H3 H 0.8079 0.5453 0.1939
H4 H 0.9069 0.6188 0.2298
C1 C 0.3539(3) 0.4987(3) 0.15507(8)
H5 H 0.2709 0.5854 0.1535
C2 C 0.3979(3) 0.4443(3) 0.10951(8)
H6 H 0.4766 0.3545 0.1102
C3 C 0.2238(3) 0.4047(3) 0.08758(7)
H7 H 0.1531 0.4988 0.0845
C4 C 0.1188(3) 0.2877(3) 0.11283(8)
H8 H 0.0010 0.2753 0.1001
C5 C 0.1008(3) 0.3405(3) 0.15916(8)
H9 H 0.0266 0.4331 0.1603
C6 C 0.0242(4) 0.2193(4) 0.18814(9)
H10 H 0.1017 0.1302 0.1891
H11 H 0.0112 0.2595 0.2170
C7 C -0.1999(5) 0.0364(4) 0.17996(12)
C8 C -0.3802(6) 0.0061(6) 0.16217(16)
H12 H -0.4149 -0.0976 0.1688
H13 H -0.3782 0.0195 0.1317
H14 H -0.4634 0.0768 0.1746
C9 C 0.1405(5) 0.0281(4) 0.08892(13)
C10 C 0.2534(6) -0.1120(4) 0.09034(17)
H15 H 0.1999 -0.1918 0.0734
H16 H 0.2646 -0.1464 0.1194
H17 H 0.3687 -0.0884 0.0791
C11 C 0.1620(4) 0.3929(4) 0.01282(9)
C12 C 0.1868(5) 0.2940(5) -0.02565(9)
H18 H 0.1159 0.3331 -0.0488
H19 H 0.1511 0.1905 -0.0191
H20 H 0.3094 0.2948 -0.0339
C13 C 0.6576(4) 0.5724(3) 0.08259(9)
C14 C 0.7158(5) 0.6992(4) 0.05388(13)
H21 H 0.8429 0.7004 0.0523
H22 H 0.6744 0.7959 0.0650
H23 H 0.6676 0.6833 0.0258
C15 C 0.4988(4) 0.6473(3) 0.21088(8)
O5? O -0.0234(19) 0.0254(18) 0.0862(18)
loop_
_geom_bond_atom_site_label_1
_geom_bond_atom_site_label_2
_geom_bond_site_symmetry_1
_geom_bond_site_symmetry_2
S1 C15 1_555 1_555
O1 C1 1_555 1_555
O2 C6 1_555 1_555
O3 C7 1_555 1_555
O4 C4 1_555 1_555
O6 C9 1_555 1_555
O7 C3 1_555 1_555
O8 C11 1_555 1_555
O9 C2 1_555 1_555
O10 C13 1_555 1_555
N1 H1 1_555 1_555
N2 H2 1_555 1_555
N3 N2 1_555 1_555
H3 N3 1_555 1_555
H4 N3 1_555 1_555
C1 N1 1_555 1_555
H5 C1 1_555 1_555
C2 C1 1_555 1_555
H6 C2 1_555 1_555
C3 C2 1_555 1_555
H7 C3 1_555 1_555
C4 C3 1_555 1_555
H8 C4 1_555 1_555
C5 O1 1_555 1_555
H9 C5 1_555 1_555
C6 C5 1_555 1_555
H10 C6 1_555 1_555
H11 C6 1_555 1_555
C7 O2 1_555 1_555
C8 C7 1_555 1_555
H12 C8 1_555 1_555
H13 C8 1_555 1_555
H14 C8 1_555 1_555
C9 O4 1_555 1_555
C10 C9 1_555 1_555
H15 C10 1_555 1_555
H16 C10 1_555 1_555
H17 C10 1_555 1_555
C11 O7 1_555 1_555
C12 C11 1_555 1_555
H18 C12 1_555 1_555
H19 C12 1_555 1_555
H20 C12 1_555 1_555
C13 O9 1_555 1_555
C14 C13 1_555 1_555
H21 C14 1_555 1_555
H22 C14 1_555 1_555
H23 C14 1_555 1_555
C15 N1 1_555 1_555
N2 C15 1_555 1_555
C4 C5 1_555 1_555

#END
