
#######################################################################
#
#                 Cambridge Crystallographic Data Centre
#                                CCDC 
#
#######################################################################
#
# If this CIF has been generated from an entry in the Cambridge 
# Structural Database, then it will include bibliographic, chemical, 
# crystal, experimental, refinement or atomic coordinate data resulting 
# from the CCDC's data processing and validation procedures.
#
#######################################################################

data_SAZDOO
_chemical_formula_moiety         'C33 H27 Br1 N2 O3'
_chemical_name_systematic        
1-Benzyl-3-(1,3-dibenzyl-6-bromo-2-oxo-2,3-dihydro-1H-indol-3-yl)pyrrolidine-2,5-dione
_symmetry_cell_setting           monoclinic
_symmetry_space_group_name_H-M   'P 21'
_symmetry_Int_Tables_number      4
_space_group_name_Hall           'P 2yb'
loop_
_symmetry_equiv_pos_site_id
_symmetry_equiv_pos_as_xyz
1 x,y,z
2 -x,1/2+y,-z
_cell_length_a                   11.654(11)
_cell_length_b                   8.990(8)
_cell_length_c                   14.054(13)
_cell_angle_alpha                90
_cell_angle_beta                 108.273(17)
_cell_angle_gamma                90
_cell_volume                     1398.18
_cell_formula_units_Z            2
loop_
_atom_site_label
_atom_site_type_symbol
_atom_site_fract_x
_atom_site_fract_y
_atom_site_fract_z
Br1 Br -0.18792(3) 0.68525(5) 0.19302(2)
O1 O 0.3912(2) 1.0428(3) 0.17439(17)
O2 O 0.4714(2) 0.7976(3) 0.51807(17)
O3 O 0.2264(3) 1.1881(5) 0.5206(2)
N1 N 0.1975(2) 0.9549(3) 0.14577(16)
N2 N 0.3473(2) 0.9817(3) 0.5385(2)
C1 C -0.0177(3) 0.9303(3) -0.1042(2)
H1 H -0.0695 1.0036 -0.0950
C2 C -0.0562(3) 0.8365(4) -0.1861(2)
H2 H -0.1334 0.8471 -0.2315
C3 C 0.0191(4) 0.7286(4) -0.2002(3)
H3 H -0.0063 0.6671 -0.2561
C4 C 0.1326(3) 0.7101(5) -0.1320(3)
H4 H 0.1830 0.6349 -0.1410
C5 C 0.1712(3) 0.8040(4) -0.0498(3)
H5 H 0.2477 0.7913 -0.0038
C6 C 0.0969(3) 0.9165(3) -0.0356(2)
C7 C 0.1408(3) 1.0267(3) 0.0493(2)
H6 H 0.1987 1.0935 0.0349
H7 H 0.0730 1.0858 0.0535
C8 C 0.1387(2) 0.8613(3) 0.1956(2)
C9 C 0.0170(3) 0.8283(4) 0.1668(2)
H8 H -0.0369 0.8671 0.1085
C10 C -0.0205(2) 0.7341(3) 0.2295(2)
C11 C 0.0566(2) 0.6782(5) 0.3165(2)
H9 H 0.0276 0.6169 0.3571
C12 C 0.1799(3) 0.7139(4) 0.3440(2)
H10 H 0.2336 0.6747 0.4022
C13 C 0.2206(2) 0.8075(3) 0.2840(2)
C14 C 0.3182(3) 0.9682(4) 0.1987(2)
C15 C 0.3435(2) 0.8718(3) 0.2940(2)
C16 C 0.4424(3) 0.7555(4) 0.2971(2)
H11 H 0.5188 0.8073 0.3100
H12 H 0.4499 0.6894 0.3533
C17 C 0.4227(2) 0.6622(4) 0.2048(2)
C18 C 0.3540(3) 0.5337(4) 0.1887(3)
H13 H 0.3158 0.5050 0.2348
C19 C 0.3415(4) 0.4468(5) 0.1039(5)
H14 H 0.2938 0.3617 0.0931
C20 C 0.3984(4) 0.4856(7) 0.0374(4)
H15 H 0.3902 0.4263 -0.0186
C21 C 0.4673(4) 0.6098(6) 0.0514(4)
H16 H 0.5068 0.6349 0.0054
C22 C 0.4795(3) 0.7005(6) 0.1346(3)
H17 H 0.5256 0.7868 0.1432
C23 C 0.4100(3) 0.9050(4) 0.4858(2)
C24 C 0.3888(3) 0.9804(3) 0.3853(2)
H18 H 0.4654 1.0242 0.3841
C25 C 0.3010(3) 1.1080(4) 0.3860(3)
H19 H 0.3349 1.2028 0.3755
H20 H 0.2246 1.0938 0.3336
C26 C 0.2834(3) 1.1036(4) 0.4874(3)
C27 C 0.3447(3) 0.9342(5) 0.6383(3)
H21 H 0.3119 1.0138 0.6685
H22 H 0.4266 0.9148 0.6810
C28 C 0.2696(3) 0.7968(5) 0.6318(3)
C29 C 0.1476(4) 0.7978(6) 0.5833(3)
H23 H 0.1093 0.8859 0.5563
C30 C 0.0805(4) 0.6663(9) 0.5744(3)
H24 H -0.0022 0.6670 0.5411
C31 C 0.1360(7) 0.5382(7) 0.6144(4)
H25 H 0.0919 0.4504 0.6073
C32 C 0.2565(6) 0.5382(7) 0.6651(5)
H26 H 0.2940 0.4508 0.6943
C33 C 0.3218(4) 0.6637(8) 0.6733(3)
H27 H 0.4042 0.6611 0.7078
loop_
_geom_bond_atom_site_label_1
_geom_bond_atom_site_label_2
_geom_bond_site_symmetry_1
_geom_bond_site_symmetry_2
Br1 C10 1_555 1_555
O1 C14 1_555 1_555
O2 C23 1_555 1_555
O3 C26 1_555 1_555
N1 C7 1_555 1_555
N2 C23 1_555 1_555
C1 H1 1_555 1_555
C2 C1 1_555 1_555
H2 C2 1_555 1_555
C3 C2 1_555 1_555
H3 C3 1_555 1_555
C4 C3 1_555 1_555
H4 C4 1_555 1_555
C5 C4 1_555 1_555
H5 C5 1_555 1_555
C6 C1 1_555 1_555
C7 C6 1_555 1_555
H6 C7 1_555 1_555
H7 C7 1_555 1_555
C8 N1 1_555 1_555
C9 C8 1_555 1_555
H8 C9 1_555 1_555
C10 C9 1_555 1_555
C11 C10 1_555 1_555
H9 C11 1_555 1_555
C12 C11 1_555 1_555
H10 C12 1_555 1_555
C13 C8 1_555 1_555
C14 N1 1_555 1_555
C15 C13 1_555 1_555
C16 C15 1_555 1_555
H11 C16 1_555 1_555
H12 C16 1_555 1_555
C17 C16 1_555 1_555
C18 C17 1_555 1_555
H13 C18 1_555 1_555
C19 C18 1_555 1_555
H14 C19 1_555 1_555
C20 C19 1_555 1_555
H15 C20 1_555 1_555
C21 C20 1_555 1_555
H16 C21 1_555 1_555
C22 C17 1_555 1_555
H17 C22 1_555 1_555
C23 C24 1_555 1_555
C24 C15 1_555 1_555
H18 C24 1_555 1_555
C25 C24 1_555 1_555
H19 C25 1_555 1_555
H20 C25 1_555 1_555
C26 N2 1_555 1_555
C27 N2 1_555 1_555
H21 C27 1_555 1_555
H22 C27 1_555 1_555
C28 C27 1_555 1_555
C29 C28 1_555 1_555
H23 C29 1_555 1_555
C30 C29 1_555 1_555
H24 C30 1_555 1_555
C31 C30 1_555 1_555
H25 C31 1_555 1_555
C32 C31 1_555 1_555
H26 C32 1_555 1_555
C33 C28 1_555 1_555
H27 C33 1_555 1_555
C5 C6 1_555 1_555
C12 C13 1_555 1_555
C14 C15 1_555 1_555
C21 C22 1_555 1_555
C25 C26 1_555 1_555
C32 C33 1_555 1_555

#END
