
#######################################################################
#
#                 Cambridge Crystallographic Data Centre
#                                CCDC 
#
#######################################################################
#
# If this CIF has been generated from an entry in the Cambridge 
# Structural Database, then it will include bibliographic, chemical, 
# crystal, experimental, refinement or atomic coordinate data resulting 
# from the CCDC's data processing and validation procedures.
#
#######################################################################

data_SAZDED
_chemical_formula_moiety         'C13 H20 O4 S1'
_chemical_name_systematic        
(4aRS,7SR,9aRS)-7-t-Butyl-5,5-dioxo-1,2,4a,9a-tetrahydro-8-oxa-5\l^6^-thiabenzocycloheptan-9-one
_symmetry_cell_setting           monoclinic
_symmetry_space_group_name_H-M   'P 21/n'
_symmetry_Int_Tables_number      14
_space_group_name_Hall           '-P 2yn'
loop_
_symmetry_equiv_pos_site_id
_symmetry_equiv_pos_as_xyz
1 x,y,z
2 1/2-x,1/2+y,1/2-z
3 -x,-y,-z
4 1/2+x,1/2-y,1/2+z
_cell_length_a                   11.8554(8)
_cell_length_b                   5.6653(4)
_cell_length_c                   20.2326(14)
_cell_angle_alpha                90
_cell_angle_beta                 92.6810(10)
_cell_angle_gamma                90
_cell_volume                     1357.42
_exptl_crystal_colour            colorless
_exptl_crystal_description       block
_chemical_melting_point          '462 K'
_cell_formula_units_Z            4
loop_
_atom_site_label
_atom_site_type_symbol
_atom_site_fract_x
_atom_site_fract_y
_atom_site_fract_z
C1 C 0.01198(11) 0.5087(3) 0.26033(7)
H1 H -0.0263 0.6170 0.2281
H2 H 0.0637 0.6034 0.2896
O1 O -0.11615(8) 0.1872(2) 0.06305(5)
C2 C -0.07571(12) 0.3881(3) 0.30145(7)
H3 H -0.0374 0.3104 0.3402
H4 H -0.1281 0.5081 0.3180
O2 O -0.01989(8) 0.55452(17) 0.10105(4)
C3 C -0.14147(12) 0.2078(3) 0.26138(8)
H5 H -0.2114 0.1558 0.2772
O3 O 0.20304(8) 0.6403(2) 0.19016(5)
C4 C -0.10813(11) 0.1162(3) 0.20519(7)
H6 H -0.1577 0.0111 0.1816
C5 C 0.00434(10) 0.1704(2) 0.17689(6)
H7 H 0.0445 0.0170 0.1713
S1 S -0.01895(2) 0.29984(6) 0.094887(15)
C6 C 0.10047(10) 0.2180(2) 0.04937(6)
H8 H 0.1097 0.0445 0.0514
H9 H 0.0861 0.2622 0.0024
C7 C 0.20965(10) 0.3344(2) 0.07516(6)
H10 H 0.2029 0.5094 0.0699
O4 O 0.22015(7) 0.27662(17) 0.14540(4)
C8 C 0.17296(10) 0.4388(2) 0.18640(6)
C9 C 0.07954(10) 0.3259(2) 0.22368(6)
H11 H 0.1161 0.2192 0.2577
C10 C 0.31605(10) 0.2488(2) 0.04198(6)
C11 C 0.33213(11) -0.0176(2) 0.05052(7)
H12 H 0.3288 -0.0586 0.0974
H13 H 0.4057 -0.0636 0.0345
H14 H 0.2721 -0.1011 0.0251
C12 C 0.30485(11) 0.3102(2) -0.03199(6)
H15 H 0.3750 0.2693 -0.0530
H16 H 0.2903 0.4796 -0.0372
H17 H 0.2421 0.2208 -0.0529
C13 C 0.41877(10) 0.3765(2) 0.07401(6)
H18 H 0.4244 0.3410 0.1215
H19 H 0.4101 0.5471 0.0676
H20 H 0.4875 0.3228 0.0534
loop_
_geom_bond_atom_site_label_1
_geom_bond_atom_site_label_2
_geom_bond_site_symmetry_1
_geom_bond_site_symmetry_2
C1 H1 1_555 1_555
H2 C1 1_555 1_555
O1 S1 1_555 1_555
C2 C1 1_555 1_555
H3 C2 1_555 1_555
H4 C2 1_555 1_555
O2 S1 1_555 1_555
C3 C2 1_555 1_555
H5 C3 1_555 1_555
O3 C8 1_555 1_555
C4 C3 1_555 1_555
H6 C4 1_555 1_555
C5 C4 1_555 1_555
H7 C5 1_555 1_555
S1 C5 1_555 1_555
C6 S1 1_555 1_555
H8 C6 1_555 1_555
H9 C6 1_555 1_555
C7 C6 1_555 1_555
H10 C7 1_555 1_555
O4 C7 1_555 1_555
C8 O4 1_555 1_555
C9 C1 1_555 1_555
H11 C9 1_555 1_555
C10 C7 1_555 1_555
C11 C10 1_555 1_555
H12 C11 1_555 1_555
H13 C11 1_555 1_555
H14 C11 1_555 1_555
C12 C10 1_555 1_555
H15 C12 1_555 1_555
H16 C12 1_555 1_555
H17 C12 1_555 1_555
C13 C10 1_555 1_555
H18 C13 1_555 1_555
H19 C13 1_555 1_555
H20 C13 1_555 1_555
C5 C9 1_555 1_555
C8 C9 1_555 1_555

#END
