
#######################################################################
#
#                 Cambridge Crystallographic Data Centre
#                                CCDC 
#
#######################################################################
#
# If this CIF has been generated from an entry in the Cambridge 
# Structural Database, then it will include bibliographic, chemical, 
# crystal, experimental, refinement or atomic coordinate data resulting 
# from the CCDC's data processing and validation procedures.
#
#######################################################################

data_SAZFUV
_chemical_formula_moiety         'C21 H20 N4 O1 S2'
_chemical_name_systematic        
5-Benzylamino-6-phenyl-2-propylsulfanylthiazolo(5,4-d)pyrimidin-7(6H)-one
_chemical_properties_biological  'potential biological activity'
_symmetry_cell_setting           tetragonal
_symmetry_space_group_name_H-M   'P 42/n'
_symmetry_Int_Tables_number      86
_space_group_name_Hall           '-P 4bc'
loop_
_symmetry_equiv_pos_site_id
_symmetry_equiv_pos_as_xyz
1 x,y,z
2 -y,1/2+x,1/2+z
3 1/2+y,-x,1/2+z
4 1/2-x,1/2-y,z
5 -x,-y,-z
6 y,1/2-x,1/2-z
7 1/2-y,x,1/2-z
8 1/2+x,1/2+y,-z
_cell_length_a                   23.3140(6)
_cell_length_b                   23.3140(6)
_cell_length_c                   7.7925(4)
_cell_angle_alpha                90
_cell_angle_beta                 90
_cell_angle_gamma                90
_cell_volume                     4235.56
_exptl_crystal_colour            colorless
_exptl_crystal_description       plate
_chemical_melting_point          '460 K'
_cell_formula_units_Z            8
_exptl_crystal_recrystallization_method ethanol/dichloromethane
loop_
_atom_site_label
_atom_site_type_symbol
_atom_site_fract_x
_atom_site_fract_y
_atom_site_fract_z
S1 S 0.55334(5) 0.56594(5) 1.10174(16)
S2 S 0.6239(4) 0.4500(3) 1.0534(9)
O1 O 0.65866(12) 0.62054(12) 0.5825(3)
N1 N 0.52552(12) 0.75071(12) 0.7841(4)
N2 N 0.53566(12) 0.66679(13) 0.9338(4)
N3 N 0.59301(11) 0.68446(12) 0.6859(4)
N4 N 0.62944(14) 0.54410(14) 0.8690(5)
C1 C 0.3984(2) 0.7227(2) 1.0339(8)
C2 C 0.3456(3) 0.6969(3) 1.0269(12)
C3 C 0.3192(3) 0.6915(3) 0.8739(13)
C4 C 0.3446(3) 0.7092(3) 0.7279(12)
C5 C 0.3998(2) 0.7352(2) 0.7347(9)
C6 C 0.42588(17) 0.74259(16) 0.8878(7)
C7 C 0.48311(15) 0.77110(16) 0.9041(6)
C8 C 0.61077(15) 0.72495(15) 0.5556(4)
C9 C 0.58091(18) 0.73072(19) 0.4047(5)
C10 C 0.6004(2) 0.7695(2) 0.2832(5)
C11 C 0.6487(2) 0.80113(18) 0.3115(6)
C12 C 0.67853(18) 0.79437(17) 0.4603(5)
C13 C 0.65939(16) 0.75657(15) 0.5830(4)
C14 C 0.55141(14) 0.69969(15) 0.8061(5)
C15 C 0.62214(16) 0.63135(16) 0.6904(5)
C16 C 0.60515(15) 0.59689(15) 0.8311(5)
C17 C 0.56412(15) 0.61624(16) 0.9402(5)
C18 C 0.60648(19) 0.52334(18) 1.0048(7)
C19 C 0.5727(4) 0.4319(4) 1.2132(11)
C20 C 0.5871(6) 0.4350(9) 1.3978(13)
C21 C 0.545(4) 0.418(11) 1.535(4)
H1 H 0.32820 0.68330 1.12640
H2 H 0.28280 0.67520 0.86890
H3 H 0.32610 0.70450 0.62310
H4 H 0.41630 0.72690 1.13980
H5 H 0.53440 0.77150 0.69700
H6 H 0.54820 0.70900 0.38440
H7 H 0.58020 0.77410 0.18110
H8 H 0.66120 0.82720 0.22930
H9 H 0.71190 0.81530 0.47890
H10 H 0.67960 0.75250 0.68520
H11 H 0.53960 0.45640 1.19500
H12 H 0.56040 0.39290 1.19020
H13 H 0.59790 0.47440 1.42160
H14 H 0.62120 0.41190 1.41480
H15 H 0.50630 0.42580 1.49600
H16 H 0.55220 0.43850 1.63820
H17 H 0.54810 0.37720 1.55670
H18 H 0.41780 0.74710 0.63430
H19 H 0.47820 0.81200 0.88780
H20 H 0.49740 0.76520 1.01970
C22? C 0.5505(7) 0.4243(10) 1.326(3)
C23? C 0.548(5) 0.418(15) 1.519(5)
S3? S 0.6322(6) 0.4655(4) 1.1230(11)
C24? C 0.6035(5) 0.4587(6) 1.3245(18)
H21? H 0.63160 0.44080 1.39920
H22? H 0.59530 0.49650 1.37000
H23? H 0.55480 0.38790 1.26670
H24? H 0.51780 0.44510 1.28020
H25? H 0.56390 0.38120 1.55050
H26? H 0.50920 0.42030 1.55680
H27? H 0.57040 0.44780 1.57130
loop_
_geom_bond_atom_site_label_1
_geom_bond_atom_site_label_2
_geom_bond_site_symmetry_1
_geom_bond_site_symmetry_2
S1 C17 1_555 1_555
S2 C18 1_555 1_555
O1 C15 1_555 1_555
N1 C7 1_555 1_555
N2 C14 1_555 1_555
N3 C8 1_555 1_555
N4 C16 1_555 1_555
C1 C2 1_555 1_555
C2 C3 1_555 1_555
C3 C4 1_555 1_555
C4 C5 1_555 1_555
C5 C6 1_555 1_555
C6 C1 1_555 1_555
C7 C6 1_555 1_555
C8 C9 1_555 1_555
C9 C10 1_555 1_555
C10 C11 1_555 1_555
C11 C12 1_555 1_555
C12 C13 1_555 1_555
C13 C8 1_555 1_555
C14 N1 1_555 1_555
C15 N3 1_555 1_555
C16 C15 1_555 1_555
C17 N2 1_555 1_555
C18 S1 1_555 1_555
C19 S2 1_555 1_555
C20 C19 1_555 1_555
C21 C20 1_555 1_555
H1 C2 1_555 1_555
H2 C3 1_555 1_555
H3 C4 1_555 1_555
H4 C1 1_555 1_555
H5 N1 1_555 1_555
H6 C9 1_555 1_555
H7 C10 1_555 1_555
H8 C11 1_555 1_555
H9 C12 1_555 1_555
H10 C13 1_555 1_555
H11 C19 1_555 1_555
H12 C19 1_555 1_555
H13 C20 1_555 1_555
H14 C20 1_555 1_555
H15 C21 1_555 1_555
H16 C21 1_555 1_555
H17 C21 1_555 1_555
H18 C5 1_555 1_555
H19 C7 1_555 1_555
H20 C7 1_555 1_555
N3 C14 1_555 1_555
N4 C18 1_555 1_555
C16 C17 1_555 1_555

#END
