
#######################################################################
#
#                 Cambridge Crystallographic Data Centre
#                                CCDC 
#
#######################################################################
#
# If this CIF has been generated from an entry in the Cambridge 
# Structural Database, then it will include bibliographic, chemical, 
# crystal, experimental, refinement or atomic coordinate data resulting 
# from the CCDC's data processing and validation procedures.
#
#######################################################################

data_SAZFIK
_chemical_formula_moiety         
'C36 H32 N4 4+,4(C18 Cl12 O6 P1 1-),6(C2 H3 N1)'
_chemical_name_systematic        
'(4,9(1,4)-dibenzena-1,2,7(4,1),6(1,4)-tetrapyridinacyclodecaphane) tetrakis(tris(3,4,5,6-tetrachlorobenzene-1,2-diolato)phosphate) acetonitrile solvate'
_symmetry_cell_setting           triclinic
_symmetry_space_group_name_H-M   'P -1'
_symmetry_Int_Tables_number      2
_space_group_name_Hall           '-P 1'
loop_
_symmetry_equiv_pos_site_id
_symmetry_equiv_pos_as_xyz
1 x,y,z
2 -x,-y,-z
_cell_length_a                   14.821(4)
_cell_length_b                   15.650(5)
_cell_length_c                   17.686(5)
_cell_angle_alpha                74.787(4)
_cell_angle_beta                 87.859(4)
_cell_angle_gamma                66.476(4)
_cell_volume                     3618.97
_exptl_crystal_colour            yellow
_exptl_crystal_description       block
_cell_formula_units_Z            1
loop_
_atom_site_label
_atom_site_type_symbol
_atom_site_fract_x
_atom_site_fract_y
_atom_site_fract_z
C1 C 0.1508(9) 0.7908(7) 0.3367(6)
H1 H 0.2095 0.7962 0.3532
H2 H 0.1176 0.8447 0.2913
C2 C 0.1783(8) 0.6958(7) 0.3161(5)
C3 C 0.1088(8) 0.6769(7) 0.2842(6)
H3 H 0.0448 0.7244 0.2725
C4 C 0.1302(9) 0.5897(8) 0.2686(6)
H4 H 0.0808 0.5787 0.2472
C5 C 0.2249(9) 0.5181(8) 0.2847(6)
C6 C 0.2956(8) 0.5375(9) 0.3151(6)
H5 H 0.3600 0.4908 0.3255
C7 C 0.2725(9) 0.6271(9) 0.3310(6)
H6 H 0.3215 0.6393 0.3516
C8 C 0.2485(9) 0.4215(8) 0.2677(7)
H7 H 0.2286 0.4320 0.2132
H8 H 0.3190 0.3828 0.2763
N1 N 0.1946(7) 0.3686(6) 0.3208(5)
C9 C 0.1126(9) 0.3654(8) 0.2934(6)
H9 H 0.0903 0.3929 0.2407
C10 C 0.0631(8) 0.3213(7) 0.3441(6)
H10 H 0.0070 0.3184 0.3251
C11 C 0.0939(7) 0.2806(7) 0.4235(5)
C12 C 0.1812(8) 0.2820(7) 0.4479(6)
H11 H 0.2067 0.2528 0.4999
C13 C 0.2306(8) 0.3268(8) 0.3947(7)
H12 H 0.2891 0.3275 0.4110
C14 C 0.0338(8) 0.2446(6) 0.4817(5)
C15 C -0.0674(8) 0.2844(7) 0.4688(6)
H13 H -0.0968 0.3252 0.4198
C16 C -0.1252(8) 0.2650(7) 0.5269(6)
H14 H -0.1934 0.2912 0.5170
N2 N -0.0838(7) 0.2083(5) 0.5980(5)
C17 C 0.0127(9) 0.1627(7) 0.6109(6)
H15 H 0.0395 0.1183 0.6592
C18 C 0.0747(8) 0.1789(7) 0.5548(6)
H16 H 0.1427 0.1468 0.5651
C1A C -0.1508(9) 0.2092(7) 0.6633(6)
H1A H -0.2095 0.2038 0.6468
H2A H -0.1176 0.1553 0.7087
C2A C -0.1783(8) 0.3042(7) 0.6839(5)
C3A C -0.1088(8) 0.3231(7) 0.7158(6)
H3A H -0.0448 0.2756 0.7275
C4A C -0.1302(9) 0.4103(8) 0.7314(6)
H4A H -0.0808 0.4213 0.7528
C5A C -0.2249(9) 0.4819(8) 0.7153(6)
C6A C -0.2956(8) 0.4625(9) 0.6849(6)
H5A H -0.3600 0.5092 0.6745
C7A C -0.2725(9) 0.3729(9) 0.6690(6)
H6A H -0.3215 0.3607 0.6484
C8A C -0.2485(9) 0.5785(8) 0.7323(7)
H7A H -0.2286 0.5680 0.7868
H8A H -0.3190 0.6172 0.7237
N1A N -0.1946(7) 0.6314(6) 0.6792(5)
C9A C -0.1126(9) 0.6346(8) 0.7066(6)
H9A H -0.0903 0.6071 0.7593
C10A C -0.0631(8) 0.6787(7) 0.6559(6)
H10A H -0.0070 0.6816 0.6749
C11A C -0.0939(7) 0.7194(7) 0.5765(5)
C12A C -0.1812(8) 0.7180(7) 0.5521(6)
H11A H -0.2067 0.7472 0.5001
C13A C -0.2306(8) 0.6732(8) 0.6053(7)
H12A H -0.2891 0.6725 0.5890
C14A C -0.0338(8) 0.7554(6) 0.5183(5)
C15A C 0.0674(8) 0.7156(7) 0.5312(6)
H13A H 0.0968 0.6748 0.5802
C16A C 0.1252(8) 0.7350(7) 0.4731(6)
H14A H 0.1934 0.7088 0.4830
N2A N 0.0838(7) 0.7917(5) 0.4020(5)
C17A C -0.0127(9) 0.8373(7) 0.3891(6)
H15A H -0.0395 0.8817 0.3408
C18A C -0.0747(8) 0.8211(7) 0.4452(6)
H16A H -0.1427 0.8532 0.4349
P1 P 0.01434(15) 1.10127(14) 0.24055(11)
O1 O 0.1075(4) 1.1417(3) 0.2361(3)
C19 C 0.1664(6) 1.1031(5) 0.3031(4)
C20 C 0.2511(6) 1.1168(6) 0.3161(5)
C21 C 0.3022(6) 1.0726(6) 0.3903(4)
C22 C 0.2678(6) 1.0184(6) 0.4483(4)
C23 C 0.1834(6) 1.0029(6) 0.4349(4)
C24 C 0.1349(6) 1.0446(5) 0.3615(4)
O2 O 0.0546(4) 1.0355(4) 0.3373(3)
Cl1 Cl 0.29044(18) 1.18526(17) 0.24119(13)
Cl2 Cl 0.40779(19) 1.0869(2) 0.40808(16)
Cl3 Cl 0.3288(2) 0.9672(2) 0.54148(14)
Cl4 Cl 0.13742(19) 0.93868(19) 0.50802(12)
O3 O -0.0210(4) 1.1666(3) 0.1457(3)
C25 C 0.0249(6) 1.1142(5) 0.0958(4)
C26 C 0.0180(6) 1.1467(6) 0.0146(4)
C27 C 0.0706(6) 1.0822(6) -0.0272(4)
C28 C 0.1298(6) 0.9864(6) 0.0097(5)
C29 C 0.1366(6) 0.9546(5) 0.0924(4)
C30 C 0.0860(5) 1.0189(5) 0.1339(4)
O4 O 0.0872(4) 1.0005(3) 0.2128(3)
Cl5 Cl -0.05364(18) 1.26667(17) -0.02965(13)
Cl6 Cl 0.06304(19) 1.1210(2) -0.12914(12)
Cl7 Cl 0.19454(18) 0.90698(19) -0.04345(13)
Cl8 Cl 0.21010(17) 0.83587(15) 0.14017(13)
O5 O -0.0774(4) 1.0598(4) 0.2490(3)
C31 C -0.1637(6) 1.1256(5) 0.2631(4)
C32 C -0.2519(6) 1.1165(6) 0.2654(4)
C33 C -0.3352(6) 1.1928(7) 0.2797(4)
C34 C -0.3285(6) 1.2739(6) 0.2903(4)
C35 C -0.2360(6) 1.2817(6) 0.2868(4)
C36 C -0.1546(6) 1.2059(5) 0.2735(4)
O6 O -0.0623(4) 1.2024(4) 0.2678(3)
Cl9 Cl -0.25785(18) 1.01521(19) 0.25173(15)
Cl10 Cl -0.44860(17) 1.1857(2) 0.28148(15)
Cl11 Cl -0.42969(19) 1.3688(2) 0.30650(16)
Cl12 Cl -0.22514(18) 1.38426(16) 0.29492(14)
P2 P 0.56207(17) 0.67753(15) 0.16025(13)
O7 O 0.6659(4) 0.6956(4) 0.1775(3)
C37 C 0.7052(6) 0.6526(5) 0.2514(4)
C38 C 0.7914(7) 0.6480(6) 0.2815(5)
C39 C 0.8219(7) 0.6001(6) 0.3607(5)
C40 C 0.7644(8) 0.5606(6) 0.4075(5)
C41 C 0.6761(8) 0.5644(6) 0.3779(5)
C42 C 0.6486(7) 0.6094(6) 0.2979(5)
O8 O 0.5696(4) 0.6166(4) 0.2588(3)
Cl13 Cl 0.8567(2) 0.7035(2) 0.22108(16)
Cl14 Cl 0.9317(2) 0.5909(2) 0.39915(17)
Cl15 Cl 0.8004(3) 0.5056(2) 0.50635(14)
Cl16 Cl 0.6049(3) 0.5136(2) 0.43422(15)
O9 O 0.4619(4) 0.6546(4) 0.1456(3)
C43 C 0.4887(6) 0.5698(5) 0.1269(4)
C44 C 0.4256(6) 0.5305(5) 0.1122(4)
C45 C 0.4650(6) 0.4402(6) 0.0974(4)
C46 C 0.5673(6) 0.3950(5) 0.0910(4)
C47 C 0.6299(6) 0.4375(5) 0.1030(4)
C48 C 0.5890(6) 0.5248(5) 0.1219(4)
O10 O 0.6394(4) 0.5757(4) 0.1363(3)
Cl17 Cl 0.30024(16) 0.59402(17) 0.11285(13)
Cl18 Cl 0.38875(19) 0.38650(17) 0.08306(14)
Cl19 Cl 0.61516(19) 0.28490(16) 0.07023(14)
Cl20 Cl 0.75447(16) 0.38537(16) 0.09403(12)
O11 O 0.4846(4) 0.7792(4) 0.1853(3)
C49 C 0.4469(6) 0.8541(6) 0.1205(6)
C50 C 0.3766(7) 0.9440(7) 0.1203(7)
C51 C 0.3445(7) 1.0148(7) 0.0494(9)
C52 C 0.3829(7) 0.9946(6) -0.0181(7)
C53 C 0.4565(6) 0.9030(6) -0.0193(6)
C54 C 0.4864(6) 0.8340(6) 0.0522(6)
O12 O 0.5554(4) 0.7420(4) 0.0647(3)
Cl21 Cl 0.3277(2) 0.9639(2) 0.2066(2)
Cl22 Cl 0.2567(2) 1.12808(18) 0.0480(3)
Cl23 Cl 0.3423(2) 1.08280(19) -0.1070(2)
Cl24 Cl 0.5075(2) 0.87637(18) -0.10243(15)
C55 C 0.8857(19) 0.5568(18) -0.0925(13)
H17 H 0.9561 0.5355 -0.0907
H18 H 0.8564 0.6084 -0.1392
H19 H 0.8686 0.5038 -0.0928
N3 N 0.8360(18) 0.6024(18) 0.0478(12)
C56 C 0.847(2) 0.593(2) -0.0203(14)
C57 C 0.6253(14) 0.8553(14) 0.3487(12)
N4 N 0.6919(12) 0.8180(11) 0.3919(9)
C58 C 0.5510(13) 0.9107(12) 0.2879(10)
H20 H 0.5771 0.9017 0.2386
H21 H 0.5277 0.9778 0.2866
H22 H 0.4974 0.8904 0.2966
N5 N 0.3462(14) 0.7459(16) 0.4592(15)
C59 C 0.5197(15) 0.7403(17) 0.4997(15)
H23 H 0.5088 0.7727 0.5405
H24 H 0.5500 0.7697 0.4579
H25 H 0.5622 0.6733 0.5205
C60 C 0.4213(15) 0.749(2) 0.4682(18)
loop_
_geom_bond_atom_site_label_1
_geom_bond_atom_site_label_2
_geom_bond_site_symmetry_1
_geom_bond_site_symmetry_2
C1 H1 1_555 1_555
H2 C1 1_555 1_555
C2 C1 1_555 1_555
C3 C2 1_555 1_555
H3 C3 1_555 1_555
C4 C3 1_555 1_555
H4 C4 1_555 1_555
C5 C4 1_555 1_555
C6 C5 1_555 1_555
H5 C6 1_555 1_555
C7 C2 1_555 1_555
H6 C7 1_555 1_555
C8 C5 1_555 1_555
H7 C8 1_555 1_555
H8 C8 1_555 1_555
N1 C8 1_555 1_555
C9 N1 1_555 1_555
H9 C9 1_555 1_555
C10 C9 1_555 1_555
H10 C10 1_555 1_555
C11 C10 1_555 1_555
C12 C11 1_555 1_555
H11 C12 1_555 1_555
C13 N1 1_555 1_555
H12 C13 1_555 1_555
C14 C11 1_555 1_555
C15 C14 1_555 1_555
H13 C15 1_555 1_555
C16 C15 1_555 1_555
H14 C16 1_555 1_555
N2 C16 1_555 1_555
C17 N2 1_555 1_555
H15 C17 1_555 1_555
C18 C14 1_555 1_555
H16 C18 1_555 1_555
P1 O1 1_555 1_555
O1 C19 1_555 1_555
C19 C20 1_555 1_555
C20 C21 1_555 1_555
C21 C22 1_555 1_555
C22 C23 1_555 1_555
C23 C24 1_555 1_555
C24 C19 1_555 1_555
O2 P1 1_555 1_555
Cl1 C20 1_555 1_555
Cl2 C21 1_555 1_555
Cl3 C22 1_555 1_555
Cl4 C23 1_555 1_555
O3 P1 1_555 1_555
C25 O3 1_555 1_555
C26 C25 1_555 1_555
C27 C26 1_555 1_555
C28 C27 1_555 1_555
C29 C28 1_555 1_555
C30 C25 1_555 1_555
O4 P1 1_555 1_555
Cl5 C26 1_555 1_555
Cl6 C27 1_555 1_555
Cl7 C28 1_555 1_555
Cl8 C29 1_555 1_555
O5 P1 1_555 1_555
C31 O5 1_555 1_555
C32 C31 1_555 1_555
C33 C32 1_555 1_555
C34 C33 1_555 1_555
C35 C34 1_555 1_555
C36 C31 1_555 1_555
O6 P1 1_555 1_555
Cl9 C32 1_555 1_555
Cl10 C33 1_555 1_555
Cl11 C34 1_555 1_555
Cl12 C35 1_555 1_555
P2 O7 1_555 1_555
O7 C37 1_555 1_555
C37 C38 1_555 1_555
C38 C39 1_555 1_555
C39 C40 1_555 1_555
C40 C41 1_555 1_555
C41 C42 1_555 1_555
C42 C37 1_555 1_555
O8 P2 1_555 1_555
Cl13 C38 1_555 1_555
Cl14 C39 1_555 1_555
Cl15 C40 1_555 1_555
Cl16 C41 1_555 1_555
O9 P2 1_555 1_555
C43 O9 1_555 1_555
C44 C43 1_555 1_555
C45 C44 1_555 1_555
C46 C45 1_555 1_555
C47 C46 1_555 1_555
C48 C43 1_555 1_555
O10 P2 1_555 1_555
Cl17 C44 1_555 1_555
Cl18 C45 1_555 1_555
Cl19 C46 1_555 1_555
Cl20 C47 1_555 1_555
O11 P2 1_555 1_555
C49 O11 1_555 1_555
C50 C49 1_555 1_555
C51 C50 1_555 1_555
C52 C51 1_555 1_555
C53 C52 1_555 1_555
C54 C49 1_555 1_555
O12 P2 1_555 1_555
Cl21 C50 1_555 1_555
Cl22 C51 1_555 1_555
Cl23 C52 1_555 1_555
Cl24 C53 1_555 1_555
C55 H17 1_555 1_555
H18 C55 1_555 1_555
H19 C55 1_555 1_555
N3 C56 1_555 1_555
C56 C55 1_555 1_555
C57 N4 1_555 1_555
C58 C57 1_555 1_555
H20 C58 1_555 1_555
H21 C58 1_555 1_555
H22 C58 1_555 1_555
N5 C60 1_555 1_555
C59 H23 1_555 1_555
H24 C59 1_555 1_555
H25 C59 1_555 1_555
C60 C59 1_555 1_555
C1A N2 1_555 1_555
H1A C1A 1_555 1_555
H2A C1A 1_555 1_555
C2A C1A 1_555 1_555
C3A C2A 1_555 1_555
H3A C3A 1_555 1_555
C4A C3A 1_555 1_555
H4A C4A 1_555 1_555
C5A C4A 1_555 1_555
C6A C5A 1_555 1_555
H5A C6A 1_555 1_555
C7A C2A 1_555 1_555
H6A C7A 1_555 1_555
C8A C5A 1_555 1_555
H7A C8A 1_555 1_555
H8A C8A 1_555 1_555
N1A C8A 1_555 1_555
C9A N1A 1_555 1_555
H9A C9A 1_555 1_555
C10A C9A 1_555 1_555
H10A C10A 1_555 1_555
C11A C10A 1_555 1_555
C12A C11A 1_555 1_555
H11A C12A 1_555 1_555
C13A N1A 1_555 1_555
H12A C13A 1_555 1_555
C14A C11A 1_555 1_555
C15A C14A 1_555 1_555
H13A C15A 1_555 1_555
C16A C15A 1_555 1_555
H14A C16A 1_555 1_555
N2A C1 1_555 1_555
C17A N2A 1_555 1_555
H15A C17A 1_555 1_555
C18A C14A 1_555 1_555
H16A C18A 1_555 1_555
C6 C7 1_555 1_555
C12 C13 1_555 1_555
C17 C18 1_555 1_555
C24 O2 1_555 1_555
C29 C30 1_555 1_555
C30 O4 1_555 1_555
C35 C36 1_555 1_555
C36 O6 1_555 1_555
C42 O8 1_555 1_555
C47 C48 1_555 1_555
C48 O10 1_555 1_555
C53 C54 1_555 1_555
C54 O12 1_555 1_555
C6A C7A 1_555 1_555
C12A C13A 1_555 1_555
C16A N2A 1_555 1_555
C17A C18A 1_555 1_555

#END
