
#######################################################################
#
#                 Cambridge Crystallographic Data Centre
#                                CCDC 
#
#######################################################################
#
# If this CIF has been generated from an entry in the Cambridge 
# Structural Database, then it will include bibliographic, chemical, 
# crystal, experimental, refinement or atomic coordinate data resulting 
# from the CCDC's data processing and validation procedures.
#
#######################################################################

data_SAZGEH
_chemical_formula_moiety         'C22 H21 Cl1 N2 O5'
_chemical_name_systematic        
"4'-Ethyl 5'-methyl 5-chloro-2-oxo-5'-phenyl-1,2-dihydrospiro[indole-3,3'-pyrrolidine]-4',5'-dicarboxylate"
_symmetry_cell_setting           monoclinic
_symmetry_space_group_name_H-M   'P 21'
_symmetry_Int_Tables_number      4
_space_group_name_Hall           'P 2yb'
loop_
_symmetry_equiv_pos_site_id
_symmetry_equiv_pos_as_xyz
1 x,y,z
2 -x,1/2+y,-z
_cell_length_a                   12.6866(15)
_cell_length_b                   5.7581(7)
_cell_length_c                   14.9160(18)
_cell_angle_alpha                90
_cell_angle_beta                 113.145(2)
_cell_angle_gamma                90
_cell_volume                     1001.92
_exptl_crystal_colour            colorless
_exptl_crystal_description       piece
_cell_formula_units_Z            2
loop_
_atom_site_label
_atom_site_type_symbol
_atom_site_fract_x
_atom_site_fract_y
_atom_site_fract_z
Cl1 Cl 0.61270(3) 0.21546(9) 0.70268(3)
O1 O -0.08563(9) 0.2389(2) 0.69458(8)
O2 O -0.04227(9) 0.6131(2) 0.73704(8)
O3 O 0.34785(8) 0.7421(2) 0.82801(7)
O4 O 0.36296(9) 0.3702(2) 0.87906(8)
O5 O -0.00995(9) 0.5166(2) 0.55518(8)
N1 N 0.14192(11) 0.1107(2) 0.77564(9)
H1 H 0.1539 -0.0104 0.8144
N2 N 0.14876(11) 0.5976(2) 0.52190(9)
H2 H 0.1168 0.6921 0.4722
C1 C 0.45377(14) 0.4833(3) 0.56630(12)
H3 H 0.5121 0.5167 0.5433
C2 C 0.47662(13) 0.3379(3) 0.64599(12)
C3 C 0.39471(13) 0.2865(3) 0.68410(11)
H4 H 0.4117 0.1852 0.7383
C4 C 0.28783(12) 0.3890(3) 0.63984(10)
C5 C 0.18142(12) 0.3711(3) 0.66196(10)
C6 C 0.18481(11) 0.5069(3) 0.75470(10)
H5 H 0.1487 0.6637 0.7366
C7 C 0.11296(12) 0.3475(3) 0.79378(10)
C8 C 0.13226(12) 0.3849(3) 0.90066(10)
C9 C 0.17319(13) 0.5954(3) 0.94786(11)
H6 H 0.1915 0.7183 0.9140
C10 C 0.18729(13) 0.6258(3) 1.04468(11)
H7 H 0.2172 0.7677 1.0772
C11 C 0.15759(13) 0.4487(3) 1.09374(11)
H8 H 0.1673 0.4697 1.1597
C12 C 0.34505(14) 0.5800(3) 0.52016(12)
H9 H 0.3271 0.6770 0.4646
C13 C 0.26386(13) 0.5299(3) 0.55813(11)
C14 C 0.14666(12) 0.1191(3) 0.67883(10)
H10 H 0.0709 0.0790 0.6279
H11 H 0.2037 0.0060 0.6753
C15 C 0.10182(12) 0.2084(3) 0.94982(10)
H12 H 0.0729 0.0654 0.9178
C16 C 0.11374(12) 0.2412(3) 1.04630(11)
H13 H 0.0918 0.1216 1.0793
C17 C -0.01690(12) 0.3888(3) 0.73466(10)
C18 C -0.15929(13) 0.6764(3) 0.67733(12)
H14 H -0.1789 0.6214 0.6105
H15 H -0.1674 0.8457 0.6771
H16 H -0.2110 0.6050 0.7039
C19 C 0.30804(12) 0.5267(3) 0.82815(10)
C20 C 0.46381(13) 0.7904(3) 0.90008(12)
H17 H 0.4726 0.7208 0.9633
H18 H 0.4738 0.9604 0.9094
C21 C 0.55616(14) 0.6963(4) 0.87035(14)
H19 H 0.5541 0.5262 0.8705
H20 H 0.6312 0.7500 0.9165
H21 H 0.5433 0.7516 0.8047
C22 C 0.09223(12) 0.4987(3) 0.57336(10)
loop_
_geom_bond_atom_site_label_1
_geom_bond_atom_site_label_2
_geom_bond_site_symmetry_1
_geom_bond_site_symmetry_2
Cl1 C2 1_555 1_555
O1 C17 1_555 1_555
O2 C17 1_555 1_555
O3 C19 1_555 1_555
O4 C19 1_555 1_555
O5 C22 1_555 1_555
N1 H1 1_555 1_555
N2 H2 1_555 1_555
C1 H3 1_555 1_555
C2 C1 1_555 1_555
C3 C2 1_555 1_555
H4 C3 1_555 1_555
C4 C3 1_555 1_555
C5 C4 1_555 1_555
C6 C5 1_555 1_555
H5 C6 1_555 1_555
C7 N1 1_555 1_555
C8 C7 1_555 1_555
C9 C8 1_555 1_555
H6 C9 1_555 1_555
C10 C9 1_555 1_555
H7 C10 1_555 1_555
C11 C10 1_555 1_555
H8 C11 1_555 1_555
C12 C1 1_555 1_555
H9 C12 1_555 1_555
C13 N2 1_555 1_555
C14 N1 1_555 1_555
H10 C14 1_555 1_555
H11 C14 1_555 1_555
C15 C8 1_555 1_555
H12 C15 1_555 1_555
C16 C11 1_555 1_555
H13 C16 1_555 1_555
C17 C7 1_555 1_555
C18 O2 1_555 1_555
H14 C18 1_555 1_555
H15 C18 1_555 1_555
H16 C18 1_555 1_555
C19 C6 1_555 1_555
C20 O3 1_555 1_555
H17 C20 1_555 1_555
H18 C20 1_555 1_555
C21 C20 1_555 1_555
H19 C21 1_555 1_555
H20 C21 1_555 1_555
H21 C21 1_555 1_555
C22 N2 1_555 1_555
C4 C13 1_555 1_555
C5 C14 1_555 1_555
C5 C22 1_555 1_555
C6 C7 1_555 1_555
C12 C13 1_555 1_555
C15 C16 1_555 1_555

#END
