
#######################################################################
#
#                 Cambridge Crystallographic Data Centre
#                                CCDC 
#
#######################################################################
#
# If this CIF has been generated from an entry in the Cambridge 
# Structural Database, then it will include bibliographic, chemical, 
# crystal, experimental, refinement or atomic coordinate data resulting 
# from the CCDC's data processing and validation procedures.
#
#######################################################################

data_SAZGOS
_chemical_formula_moiety         'C22 H13 N1'
_chemical_name_systematic        7H-phenaleno[1,9-bc]carbazole
_symmetry_cell_setting           monoclinic
_symmetry_space_group_name_H-M   'P 21/c'
_symmetry_Int_Tables_number      14
_space_group_name_Hall           '-P 2ybc'
loop_
_symmetry_equiv_pos_site_id
_symmetry_equiv_pos_as_xyz
1 x,y,z
2 -x,1/2+y,1/2-z
3 -x,-y,-z
4 x,1/2-y,1/2+z
_cell_length_a                   20.449(7)
_cell_length_b                   5.3313(16)
_cell_length_c                   26.614(8)
_cell_angle_alpha                90
_cell_angle_beta                 101.870(5)
_cell_angle_gamma                90
_cell_volume                     2839.41
_exptl_crystal_colour            yellow
_exptl_crystal_description       block
_cell_formula_units_Z            8
loop_
_atom_site_label
_atom_site_type_symbol
_atom_site_fract_x
_atom_site_fract_y
_atom_site_fract_z
N1 N 0.9326(2) 0.9693(9) 0.77626(17)
H1 H 0.9567 1.0974 0.7876
C1 C 0.9270(2) 0.8661(10) 0.7280(2)
C2 C 0.9573(2) 0.9372(11) 0.6892(2)
H2 H 0.9866 1.0723 0.6943
C3 C 0.9458(2) 0.8169(10) 0.6435(2)
C4 C 0.9746(3) 0.8793(13) 0.6014(2)
H3 H 1.0057 1.0087 0.6062
C5 C 0.9615(3) 0.7712(13) 0.5561(3)
H4 H 0.9825 0.8257 0.5302
C6 C 0.9137(3) 0.5648(12) 0.5468(2)
C7 C 0.8984(3) 0.4569(14) 0.5005(2)
H5 H 0.9183 0.5120 0.4741
C8 C 0.8505(4) 0.2526(16) 0.4920(3)
H6 H 0.8396 0.1746 0.4601
C9 C 0.8210(3) 0.1747(14) 0.5320(2)
H7 H 0.7901 0.0446 0.5260
C10 C 0.8354(3) 0.2804(12) 0.5794(2)
C11 C 0.8085(3) 0.2080(12) 0.6212(2)
H8 H 0.7785 0.0749 0.6162
C12 C 0.8221(2) 0.3140(10) 0.6682(2)
H9 H 0.8028 0.2532 0.6945
C13 C 0.8687(2) 0.5295(10) 0.67684(19)
C14 C 0.8813(2) 0.6526(9) 0.72341(19)
C15 C 0.8976(2) 0.6031(10) 0.63587(19)
C16 C 0.8851(3) 0.4902(11) 0.5876(2)
C17 C 0.8616(2) 0.6386(9) 0.77251(18)
C18 C 0.8198(2) 0.4779(10) 0.7930(2)
H10 H 0.7980 0.3453 0.7738
C19 C 0.8113(3) 0.5209(11) 0.8428(2)
H11 H 0.7838 0.4150 0.8570
C20 C 0.8433(3) 0.7193(12) 0.8718(2)
H12 H 0.8367 0.7442 0.9050
C21 C 0.8836(3) 0.8755(11) 0.8526(2)
H13 H 0.9044 1.0087 0.8721
C22 C 0.8936(2) 0.8364(10) 0.80382(19)
N2 N 0.5713(2) 0.5341(8) 0.80030(16)
H14 H 0.5478 0.6629 0.8047
C23 C 0.5748(2) 0.4316(10) 0.75321(19)
C24 C 0.5418(2) 0.5057(10) 0.7048(2)
H15 H 0.5125 0.6408 0.7009
C25 C 0.5529(2) 0.3778(10) 0.6628(2)
C26 C 0.5189(3) 0.4386(11) 0.6120(2)
H16 H 0.4876 0.5675 0.6076
C27 C 0.5299(3) 0.3189(11) 0.5705(2)
H17 H 0.5069 0.3680 0.5381
C28 C 0.5773(3) 0.1131(11) 0.5752(2)
C29 C 0.5910(3) -0.0085(13) 0.5325(2)
H18 H 0.5697 0.0412 0.4998
C30 C 0.6366(3) -0.2044(13) 0.5388(2)
H19 H 0.6450 -0.2874 0.5100
C31 C 0.6695(3) -0.2778(12) 0.5868(2)
H20 H 0.7003 -0.4082 0.5902
C32 C 0.6572(2) -0.1585(10) 0.63054(19)
C33 C 0.6907(2) -0.2259(11) 0.6805(2)
H21 H 0.7213 -0.3571 0.6843
C34 C 0.6801(2) -0.1064(10) 0.72345(19)
H22 H 0.7035 -0.1553 0.7557
C35 C 0.6325(2) 0.0951(9) 0.71877(18)
C36 C 0.6199(2) 0.2226(9) 0.76166(18)
C37 C 0.5993(2) 0.1670(9) 0.66912(19)
C38 C 0.6114(2) 0.0436(10) 0.62517(18)
C39 C 0.6412(2) 0.2020(9) 0.81650(18)
C40 C 0.6819(2) 0.0343(10) 0.84935(19)
H23 H 0.7015 -0.1006 0.8360
C41 C 0.6927(3) 0.0704(11) 0.9020(2)
H24 H 0.7204 -0.0393 0.9239
C42 C 0.6627(3) 0.2685(12) 0.9224(2)
H25 H 0.6705 0.2889 0.9578
C43 C 0.6224(3) 0.4318(11) 0.8922(2)
H26 H 0.6025 0.5636 0.9063
C44 C 0.6113(2) 0.3988(9) 0.83943(19)
loop_
_geom_bond_atom_site_label_1
_geom_bond_atom_site_label_2
_geom_bond_site_symmetry_1
_geom_bond_site_symmetry_2
N1 H1 1_555 1_555
C1 N1 1_555 1_555
C2 C1 1_555 1_555
H2 C2 1_555 1_555
C3 C2 1_555 1_555
C4 C3 1_555 1_555
H3 C4 1_555 1_555
C5 C4 1_555 1_555
H4 C5 1_555 1_555
C6 C5 1_555 1_555
C7 C6 1_555 1_555
H5 C7 1_555 1_555
C8 C7 1_555 1_555
H6 C8 1_555 1_555
C9 C8 1_555 1_555
H7 C9 1_555 1_555
C10 C9 1_555 1_555
C11 C10 1_555 1_555
H8 C11 1_555 1_555
C12 C11 1_555 1_555
H9 C12 1_555 1_555
C13 C12 1_555 1_555
C14 C1 1_555 1_555
C15 C3 1_555 1_555
C16 C6 1_555 1_555
C17 C14 1_555 1_555
C18 C17 1_555 1_555
H10 C18 1_555 1_555
C19 C18 1_555 1_555
H11 C19 1_555 1_555
C20 C19 1_555 1_555
H12 C20 1_555 1_555
C21 C20 1_555 1_555
H13 C21 1_555 1_555
C22 N1 1_555 1_555
N2 H14 1_555 1_555
C23 N2 1_555 1_555
C24 C23 1_555 1_555
H15 C24 1_555 1_555
C25 C24 1_555 1_555
C26 C25 1_555 1_555
H16 C26 1_555 1_555
C27 C26 1_555 1_555
H17 C27 1_555 1_555
C28 C27 1_555 1_555
C29 C28 1_555 1_555
H18 C29 1_555 1_555
C30 C29 1_555 1_555
H19 C30 1_555 1_555
C31 C30 1_555 1_555
H20 C31 1_555 1_555
C32 C31 1_555 1_555
C33 C32 1_555 1_555
H21 C33 1_555 1_555
C34 C33 1_555 1_555
H22 C34 1_555 1_555
C35 C34 1_555 1_555
C36 C23 1_555 1_555
C37 C25 1_555 1_555
C38 C28 1_555 1_555
C39 C36 1_555 1_555
C40 C39 1_555 1_555
H23 C40 1_555 1_555
C41 C40 1_555 1_555
H24 C41 1_555 1_555
C42 C41 1_555 1_555
H25 C42 1_555 1_555
C43 C42 1_555 1_555
H26 C43 1_555 1_555
C44 N2 1_555 1_555
C10 C16 1_555 1_555
C13 C14 1_555 1_555
C13 C15 1_555 1_555
C15 C16 1_555 1_555
C17 C22 1_555 1_555
C21 C22 1_555 1_555
C32 C38 1_555 1_555
C35 C36 1_555 1_555
C35 C37 1_555 1_555
C37 C38 1_555 1_555
C39 C44 1_555 1_555
C43 C44 1_555 1_555

#END
