
#######################################################################
#
#                 Cambridge Crystallographic Data Centre
#                                CCDC 
#
#######################################################################
#
# If this CIF has been generated from an entry in the Cambridge 
# Structural Database, then it will include bibliographic, chemical, 
# crystal, experimental, refinement or atomic coordinate data resulting 
# from the CCDC's data processing and validation procedures.
#
#######################################################################

data_SAZHOR01
_chemical_formula_moiety         'C19 H19 N3 O2'
_chemical_name_systematic        
4-((4-Methoxybenzylidene)amino)-1,5-dimethyl-2-phenyl-1H-pyrazol-3(2H)-one
_symmetry_cell_setting           monoclinic
_symmetry_space_group_name_H-M   'P 21/c'
_symmetry_Int_Tables_number      14
_space_group_name_Hall           '-P 2ybc'
loop_
_symmetry_equiv_pos_site_id
_symmetry_equiv_pos_as_xyz
1 x,y,z
2 -x,1/2+y,1/2-z
3 -x,-y,-z
4 x,1/2-y,1/2+z
_cell_length_a                   7.139(2)
_cell_length_b                   24.886(3)
_cell_length_c                   9.473(3)
_cell_angle_alpha                90
_cell_angle_beta                 96.660(2)
_cell_angle_gamma                90
_cell_volume                     1671.63
_exptl_crystal_colour            yellow
_exptl_crystal_description       flake
_cell_formula_units_Z            4
loop_
_atom_site_label
_atom_site_type_symbol
_atom_site_fract_x
_atom_site_fract_y
_atom_site_fract_z
N1 N 0.5307(3) 0.51687(9) 0.2063(2)
N2 N 0.5601(3) 0.39406(9) 0.4121(2)
N3 N 0.3959(3) 0.41879(9) 0.4493(2)
O1 O 0.8013(3) 0.41878(8) 0.2818(2)
O2 O 0.7719(3) 0.70607(8) -0.1949(2)
C1 C 0.6449(3) 0.42794(11) 0.3199(3)
C2 C 0.5148(3) 0.47167(10) 0.2904(3)
C3 C 0.3661(3) 0.46343(10) 0.3662(3)
C4 C 0.2452(4) 0.38410(12) 0.4877(3)
H1 H 0.2986 0.3552 0.5464
H2 H 0.1765 0.3697 0.4031
H3 H 0.1614 0.4046 0.5390
C5 C 0.1907(4) 0.49549(12) 0.3638(3)
H4 H 0.1113 0.4799 0.4281
H5 H 0.1254 0.4956 0.2694
H6 H 0.2218 0.5317 0.3926
C6 C 0.6750(4) 0.52413(11) 0.1405(3)
H7 H 0.7705 0.4985 0.1488
C7 C 0.6941(4) 0.57150(11) 0.0527(3)
C8 C 0.8626(4) 0.58207(12) -0.0020(3)
H8 H 0.9631 0.5584 0.0177
C9 C 0.8848(4) 0.62660(12) -0.0844(3)
H9 H 0.9983 0.6325 -0.1211
C10 C 0.7372(4) 0.66267(11) -0.1126(3)
C11 C 0.5670(4) 0.65282(11) -0.0614(3)
H10 H 0.4667 0.6765 -0.0815
C12 C 0.5465(4) 0.60754(11) 0.0199(3)
H11 H 0.4313 0.6010 0.0534
C13 C 0.6293(5) 0.74561(13) -0.2206(4)
H12 H 0.6712 0.7733 -0.2802
H13 H 0.6034 0.7610 -0.1320
H14 H 0.5168 0.7294 -0.2672
C14 C 0.6644(3) 0.35866(10) 0.5095(3)
C15 C 0.6595(4) 0.36346(11) 0.6540(3)
H15 H 0.5853 0.3897 0.6900
C16 C 0.7663(4) 0.32876(13) 0.7448(3)
H16 H 0.7628 0.3315 0.8423
C17 C 0.8777(4) 0.29023(12) 0.6920(3)
H17 H 0.9491 0.2671 0.7537
C18 C 0.8830(4) 0.28615(12) 0.5475(3)
H18 H 0.9588 0.2603 0.5117
C19 C 0.7768(4) 0.32009(11) 0.4563(3)
H19 H 0.7804 0.3172 0.3587
loop_
_geom_bond_atom_site_label_1
_geom_bond_atom_site_label_2
_geom_bond_site_symmetry_1
_geom_bond_site_symmetry_2
N1 C2 1_555 1_555
N2 N3 1_555 1_555
N3 C3 1_555 1_555
O1 C1 1_555 1_555
O2 C10 1_555 1_555
C1 N2 1_555 1_555
C2 C1 1_555 1_555
C3 C2 1_555 1_555
C4 N3 1_555 1_555
H1 C4 1_555 1_555
H2 C4 1_555 1_555
H3 C4 1_555 1_555
C5 C3 1_555 1_555
H4 C5 1_555 1_555
H5 C5 1_555 1_555
H6 C5 1_555 1_555
C6 N1 1_555 1_555
H7 C6 1_555 1_555
C7 C6 1_555 1_555
C8 C7 1_555 1_555
H8 C8 1_555 1_555
C9 C8 1_555 1_555
H9 C9 1_555 1_555
C10 C9 1_555 1_555
C11 C10 1_555 1_555
H10 C11 1_555 1_555
C12 C7 1_555 1_555
H11 C12 1_555 1_555
C13 O2 1_555 1_555
H12 C13 1_555 1_555
H13 C13 1_555 1_555
H14 C13 1_555 1_555
C14 N2 1_555 1_555
C15 C14 1_555 1_555
H15 C15 1_555 1_555
C16 C15 1_555 1_555
H16 C16 1_555 1_555
C17 C16 1_555 1_555
H17 C17 1_555 1_555
C18 C17 1_555 1_555
H18 C18 1_555 1_555
C19 C14 1_555 1_555
H19 C19 1_555 1_555
C11 C12 1_555 1_555
C18 C19 1_555 1_555

#END
