
#######################################################################
#
#                 Cambridge Crystallographic Data Centre
#                                CCDC 
#
#######################################################################
#
# If this CIF has been generated from an entry in the Cambridge 
# Structural Database, then it will include bibliographic, chemical, 
# crystal, experimental, refinement or atomic coordinate data resulting 
# from the CCDC's data processing and validation procedures.
#
#######################################################################

data_SAZJOV
_chemical_formula_moiety         'C12 H16 N10 O4,2(C2 H6 O1)'
_chemical_name_systematic        
"N,N',N'',N'''-((4H,4'H-3,3'-bi-1,2,4-triazole)-4,4',5,5'-tetrayl)tetraacetamide ethanol solvate"
_symmetry_cell_setting           monoclinic
_symmetry_space_group_name_H-M   'P 21/n'
_symmetry_Int_Tables_number      14
_space_group_name_Hall           '-P 2yn'
loop_
_symmetry_equiv_pos_site_id
_symmetry_equiv_pos_as_xyz
1 x,y,z
2 1/2-x,1/2+y,1/2-z
3 -x,-y,-z
4 1/2+x,1/2-y,1/2+z
_cell_length_a                   8.908(3)
_cell_length_b                   11.918(4)
_cell_length_c                   10.997(4)
_cell_angle_alpha                90
_cell_angle_beta                 103.321(4)
_cell_angle_gamma                90
_cell_volume                     1136.09
_exptl_crystal_colour            colorless
_cell_formula_units_Z            2
loop_
_atom_site_label
_atom_site_type_symbol
_atom_site_fract_x
_atom_site_fract_y
_atom_site_fract_z
O1 O 0.59622(14) 0.74787(11) 0.43023(16)
O2 O 0.94412(11) 0.44892(9) 0.36836(9)
N1 N 0.50713(13) 0.45669(11) 0.24406(10)
N2 N 0.42843(13) 0.45065(11) 0.33947(10)
N3 N 0.65373(12) 0.53163(9) 0.41251(9)
N4 N 0.76152(12) 0.60357(9) 0.48179(10)
N5 N 0.75081(13) 0.52781(10) 0.22346(10)
C1 C 0.51770(14) 0.49565(11) 0.43889(11)
C2 C 0.63964(14) 0.50570(11) 0.28942(11)
C3 C 0.71897(17) 0.71298(12) 0.49035(16)
C4 C 0.8356(2) 0.78267(15) 0.5790(2)
H1 H 0.9249 0.7361 0.6165
H2 H 0.7892 0.8124 0.6449
H3 H 0.8688 0.8451 0.5334
C5 C 0.90007(15) 0.49093(11) 0.26486(11)
C6 C 1.00014(16) 0.50432(13) 0.17307(13)
H4 H 1.1082 0.4919 0.2156
H5 H 0.9881 0.5803 0.1382
H6 H 0.9694 0.4495 0.1055
H7 H 0.846(2) 0.5746(15) 0.5260(16)
H8 H 0.718(2) 0.5488(16) 0.1453(19)
O1B O 0.40378(14) 0.25213(11) 0.56977(16)
O2B O 0.05588(11) 0.55108(9) 0.63164(9)
N1B N 0.49287(13) 0.54331(11) 0.75594(10)
N2B N 0.57157(13) 0.54935(11) 0.66053(10)
N3B N 0.34627(12) 0.46837(9) 0.58749(9)
N4B N 0.23848(12) 0.39643(9) 0.51821(10)
N5B N 0.24919(13) 0.47219(10) 0.77654(10)
C1B C 0.48230(14) 0.50435(11) 0.56111(11)
C2B C 0.36036(14) 0.49430(11) 0.71058(11)
C3B C 0.28103(17) 0.28702(12) 0.50965(16)
C4B C 0.1644(2) 0.21733(15) 0.4210(2)
H1B H 0.0751 0.2639 0.3835
H2B H 0.2108 0.1876 0.3551
H3B H 0.1312 0.1549 0.4666
C5B C 0.09993(15) 0.50907(11) 0.73514(11)
C6B C -0.00014(16) 0.49568(13) 0.82693(13)
H4B H -0.1082 0.5081 0.7844
H5B H 0.0119 0.4197 0.8618
H6B H 0.0306 0.5505 0.8945
H7B H 0.154(2) 0.4254(15) 0.4740(16)
H8B H 0.282(2) 0.4512(16) 0.8547(19)
O3 O 0.66190(14) 0.61559(10) -0.00986(10)
C7 C 0.7440(2) 0.71487(16) -0.02326(19)
H12 H 0.8402 0.6939 -0.0481
H13 H 0.7736 0.7525 0.0590
C8 C 0.6585(2) 0.79546(15) -0.11516(17)
H14 H 0.6286 0.7593 -0.1973
H15 H 0.7242 0.8604 -0.1202
H16 H 0.5658 0.8202 -0.0891
H17 H 0.611(3) 0.5940(19) -0.077(2)
H9? H 0.7970 0.8596 0.5800
H10? H 0.9328 0.7833 0.5516
H11? H 0.8531 0.7506 0.6631
loop_
_geom_bond_atom_site_label_1
_geom_bond_atom_site_label_2
_geom_bond_site_symmetry_1
_geom_bond_site_symmetry_2
O1 C3 1_555 1_555
O2 C5 1_555 1_555
N1 N2 1_555 1_555
N2 C1 1_555 1_555
N3 N4 1_555 1_555
N4 C3 1_555 1_555
N5 C2 1_555 1_555
C1 N3 1_555 1_555
C2 N1 1_555 1_555
C3 C4 1_555 1_555
C4 H1 1_555 1_555
H2 C4 1_555 1_555
H3 C4 1_555 1_555
C5 N5 1_555 1_555
C6 C5 1_555 1_555
H4 C6 1_555 1_555
H5 C6 1_555 1_555
H6 C6 1_555 1_555
H7 N4 1_555 1_555
H8 N5 1_555 1_555
O3 C7 1_555 1_555
C7 H12 1_555 1_555
H13 C7 1_555 1_555
C8 C7 1_555 1_555
H14 C8 1_555 1_555
H15 C8 1_555 1_555
H16 C8 1_555 1_555
H17 O3 1_555 1_555
O1B C3B 1_555 1_555
O2B C5B 1_555 1_555
N1B N2B 1_555 1_555
N2B C1B 1_555 1_555
N3B N4B 1_555 1_555
N4B C3B 1_555 1_555
N5B C2B 1_555 1_555
C1B C1 1_555 1_555
C2B N1B 1_555 1_555
C3B C4B 1_555 1_555
C4B H1B 1_555 1_555
H2B C4B 1_555 1_555
H3B C4B 1_555 1_555
C5B N5B 1_555 1_555
C6B C5B 1_555 1_555
H4B C6B 1_555 1_555
H5B C6B 1_555 1_555
H6B C6B 1_555 1_555
H7B N4B 1_555 1_555
H8B N5B 1_555 1_555
N3 C2 1_555 1_555
N3B C1B 1_555 1_555
N3B C2B 1_555 1_555

#END
