
#######################################################################
#
#                 Cambridge Crystallographic Data Centre
#                                CCDC 
#
#######################################################################
#
# If this CIF has been generated from an entry in the Cambridge 
# Structural Database, then it will include bibliographic, chemical, 
# crystal, experimental, refinement or atomic coordinate data resulting 
# from the CCDC's data processing and validation procedures.
#
#######################################################################

data_SAZKUA
_chemical_formula_moiety         'C12 H12 O1'
_chemical_name_systematic        
7-(Hydroxymethyl)-1a,7b-dihydro-1H-cyclopropa(a)naphthalene
_symmetry_cell_setting           tetragonal
_symmetry_space_group_name_H-M   'I 41/a'
_symmetry_Int_Tables_number      88
_space_group_name_Hall           '-I 4ad'
loop_
_symmetry_equiv_pos_site_id
_symmetry_equiv_pos_as_xyz
1 x,y,z
2 3/4-y,1/4+x,1/4+z
3 1/2+x,1/2+y,1/2+z
4 1/4-y,3/4+x,3/4+z
5 1/4+y,1/4-x,1/4+z
6 1/2-x,-y,1/2+z
7 3/4+y,3/4-x,3/4+z
8 -x,1/2-y,z
9 -x,-y,-z
10 1/4+y,3/4-x,3/4-z
11 1/2-x,1/2-y,1/2-z
12 3/4+y,1/4-x,1/4-z
13 3/4-y,3/4+x,3/4-z
14 1/2+x,y,1/2-z
15 1/4-y,1/4+x,1/4-z
16 x,1/2+y,-z
_cell_length_a                   20.373(3)
_cell_length_b                   20.373(3)
_cell_length_c                   8.618(2)
_cell_angle_alpha                90
_cell_angle_beta                 90
_cell_angle_gamma                90
_cell_volume                     3576.98
_exptl_crystal_colour            yellow
_exptl_crystal_description       block
_cell_formula_units_Z            16
_exptl_crystal_recrystallization_method 'absolute ethanol'
loop_
_atom_site_label
_atom_site_type_symbol
_atom_site_fract_x
_atom_site_fract_y
_atom_site_fract_z
O1 O 0.19915(11) 0.52687(12) 0.0917(3)
H1 H 0.2063 0.5000 0.1605
C1 C 0.08691(15) 0.48980(16) 0.1096(4)
C2 C 0.05625(17) 0.4777(2) 0.2485(5)
H2 H 0.0637 0.5057 0.3320
C3 C 0.01502(19) 0.4254(2) 0.2663(6)
H3 H -0.0051 0.4171 0.3612
C4 C 0.00383(17) 0.3853(2) 0.1411(6)
H4 H -0.0244 0.3497 0.1525
C5 C 0.0162(2) 0.3567(2) -0.1367(7)
H5 H -0.0133 0.3222 -0.1259
C6 C 0.0419(2) 0.3690(2) -0.2748(6)
H6 H 0.0269 0.3447 -0.3590
C7 C 0.0916(2) 0.4174(2) -0.3024(5)
H7 H 0.0910 0.4392 -0.4038
C8 C 0.11099(17) 0.45903(18) -0.1648(4)
H8 H 0.1220 0.5048 -0.1884
C9 C 0.07653(15) 0.44813(16) -0.0160(4)
C10 C 0.03308(17) 0.39598(18) -0.0012(5)
C11 C 0.15706(19) 0.4093(2) -0.2268(5)
H9 H 0.1643 0.3700 -0.1656
H10 H 0.1953 0.4249 -0.2828
C12 C 0.13251(17) 0.54598(17) 0.0968(5)
H11 H 0.1222 0.5705 0.0035
H12 H 0.1259 0.5749 0.1849
loop_
_geom_bond_atom_site_label_1
_geom_bond_atom_site_label_2
_geom_bond_site_symmetry_1
_geom_bond_site_symmetry_2
O1 H1 1_555 1_555
C1 C2 1_555 1_555
C2 H2 1_555 1_555
C3 C2 1_555 1_555
H3 C3 1_555 1_555
C4 C3 1_555 1_555
H4 C4 1_555 1_555
C5 H5 1_555 1_555
C6 C5 1_555 1_555
H6 C6 1_555 1_555
C7 C6 1_555 1_555
H7 C7 1_555 1_555
C8 C7 1_555 1_555
H8 C8 1_555 1_555
C9 C1 1_555 1_555
C10 C4 1_555 1_555
C11 C7 1_555 1_555
H9 C11 1_555 1_555
H10 C11 1_555 1_555
C12 O1 1_555 1_555
H11 C12 1_555 1_555
H12 C12 1_555 1_555
C1 C12 1_555 1_555
C5 C10 1_555 1_555
C8 C9 1_555 1_555
C8 C11 1_555 1_555
C9 C10 1_555 1_555

#END
