
#######################################################################
#
#                 Cambridge Crystallographic Data Centre
#                                CCDC 
#
#######################################################################
#
# If this CIF has been generated from an entry in the Cambridge 
# Structural Database, then it will include bibliographic, chemical, 
# crystal, experimental, refinement or atomic coordinate data resulting 
# from the CCDC's data processing and validation procedures.
#
#######################################################################

data_SAZKOU
_chemical_formula_moiety         'C24 H26 F1 N1 O4'
_chemical_name_systematic        
'4-Cyano-3-fluorophenyl (2E)-3-(4-heptyloxy-3-methoxyphenyl)acrylate'
_symmetry_cell_setting           triclinic
_symmetry_space_group_name_H-M   'P -1'
_symmetry_Int_Tables_number      2
_space_group_name_Hall           '-P 1'
loop_
_symmetry_equiv_pos_site_id
_symmetry_equiv_pos_as_xyz
1 x,y,z
2 -x,-y,-z
_cell_length_a                   7.763(4)
_cell_length_b                   11.207(5)
_cell_length_c                   13.631(7)
_cell_angle_alpha                82.499(8)
_cell_angle_beta                 82.269(8)
_cell_angle_gamma                75.662(8)
_cell_volume                     1132.66
_exptl_crystal_colour            colorless
_exptl_crystal_description       column
_cell_formula_units_Z            2
_exptl_crystal_recrystallization_method 'ethyl acetate/petroleum ether'
loop_
_atom_site_label
_atom_site_type_symbol
_atom_site_fract_x
_atom_site_fract_y
_atom_site_fract_z
F1 F 1.3298(3) 0.5588(2) -0.03105(17)
O1 O 0.90084(18) 0.50358(15) 0.24027(11)
O2 O 1.09918(18) 0.44984(17) 0.35172(11)
O3 O 0.32486(16) 0.73331(13) 0.70325(10)
O4 O 0.03389(16) 0.82917(13) 0.62448(10)
N1 N 1.5186(4) 0.2853(3) -0.12883(19)
C1 C 1.4108(3) 0.3189(3) -0.06614(18)
C2 C 1.2789(3) 0.3641(2) 0.01323(14)
C3 C 1.1821(3) 0.2890(2) 0.07330(17)
H1 H 1.2027 0.2061 0.0615
C4 C 1.0577(3) 0.3333(2) 0.15023(15)
H2 H 0.9926 0.2821 0.1897
C5 C 1.0326(2) 0.4545(2) 0.16688(14)
C6 C 1.1255(3) 0.5322(2) 0.10843(17)
H3 H 1.1071 0.6144 0.1206
C7 C 1.2458(3) 0.4856(2) 0.03190(16)
C8 C 0.9499(2) 0.49779(18) 0.33385(14)
C9 C 0.8024(2) 0.55344(18) 0.40399(14)
H5 H 0.8242 0.5521 0.4696
C10 C 0.6382(2) 0.60614(17) 0.37956(14)
H6 H 0.6215 0.6072 0.3131
C11 C 0.4817(2) 0.66220(16) 0.44386(14)
C12 C 0.4864(2) 0.66910(16) 0.54524(14)
H7 H 0.5928 0.6366 0.5736
C13 C 0.3353(2) 0.72345(16) 0.60375(13)
C14 C 0.1740(2) 0.77489(16) 0.56066(14)
C15 C 0.1680(2) 0.76596(18) 0.46207(15)
H8 H 0.0614 0.7975 0.4337
C16 C 0.3214(3) 0.70970(19) 0.40393(15)
H9 H 0.3155 0.7041 0.3370
C17 C 0.4760(3) 0.6696(2) 0.75340(16)
H10 H 0.4982 0.5825 0.7476
H11 H 0.4528 0.6837 0.8224
H12 H 0.5787 0.6996 0.7240
C18 C -0.1367(2) 0.87871(19) 0.58684(15)
H13 H -0.1790 0.8133 0.5646
H14 H -0.1265 0.9407 0.5310
C19 C -0.2645(2) 0.93578(19) 0.67025(15)
H15 H -0.2202 1.0010 0.6913
H16 H -0.2687 0.8734 0.7264
C20 C -0.4530(2) 0.98946(18) 0.64097(15)
H17 H -0.4503 1.0567 0.5886
H18 H -0.4932 0.9260 0.6145
C21 C -0.5851(3) 1.0371(2) 0.72710(17)
H19 H -0.5456 1.1016 0.7526
H20 H -0.5853 0.9702 0.7799
C22 C -0.7742(3) 1.0884(2) 0.70024(19)
H21 H -0.7721 1.1520 0.6448
H22 H -0.8149 1.0225 0.6777
C23 C -0.9079(4) 1.1426(3) 0.7826(2)
H23 H -0.8632 1.2045 0.8084
H24 H -1.0184 1.1845 0.7548
C24 C -0.9472(6) 1.0554(5) 0.8636(3)
H25 H -0.9556 0.9813 0.8382
H26 H -1.0587 1.0904 0.9004
H27 H -0.8535 1.0359 0.9065
F2? F 1.2113(7) 0.1760(4) 0.0527(4)
H4? H 1.3073 0.5380 -0.0093
loop_
_geom_bond_atom_site_label_1
_geom_bond_atom_site_label_2
_geom_bond_site_symmetry_1
_geom_bond_site_symmetry_2
F1 C7 1_555 1_555
O1 C5 1_555 1_555
O2 C8 1_555 1_555
O3 C13 1_555 1_555
O4 C14 1_555 1_555
N1 C1 1_555 1_555
C1 C2 1_555 1_555
C2 C3 1_555 1_555
C3 H1 1_555 1_555
C4 C3 1_555 1_555
H2 C4 1_555 1_555
C5 C4 1_555 1_555
C6 C5 1_555 1_555
H3 C6 1_555 1_555
C7 C2 1_555 1_555
C8 O1 1_555 1_555
C9 C8 1_555 1_555
H5 C9 1_555 1_555
C10 C9 1_555 1_555
H6 C10 1_555 1_555
C11 C10 1_555 1_555
C12 C11 1_555 1_555
H7 C12 1_555 1_555
C13 C12 1_555 1_555
C14 C13 1_555 1_555
C15 C14 1_555 1_555
H8 C15 1_555 1_555
C16 C11 1_555 1_555
H9 C16 1_555 1_555
C17 O3 1_555 1_555
H10 C17 1_555 1_555
H11 C17 1_555 1_555
H12 C17 1_555 1_555
C18 O4 1_555 1_555
H13 C18 1_555 1_555
H14 C18 1_555 1_555
C19 C18 1_555 1_555
H15 C19 1_555 1_555
H16 C19 1_555 1_555
C20 C19 1_555 1_555
H17 C20 1_555 1_555
H18 C20 1_555 1_555
C21 C20 1_555 1_555
H19 C21 1_555 1_555
H20 C21 1_555 1_555
C22 C21 1_555 1_555
H21 C22 1_555 1_555
H22 C22 1_555 1_555
C23 C22 1_555 1_555
H23 C23 1_555 1_555
H24 C23 1_555 1_555
C24 C23 1_555 1_555
H25 C24 1_555 1_555
H26 C24 1_555 1_555
H27 C24 1_555 1_555
C6 C7 1_555 1_555
C15 C16 1_555 1_555

#END
