
#######################################################################
#
#                 Cambridge Crystallographic Data Centre
#                                CCDC 
#
#######################################################################
#
# If this CIF has been generated from an entry in the Cambridge 
# Structural Database, then it will include bibliographic, chemical, 
# crystal, experimental, refinement or atomic coordinate data resulting 
# from the CCDC's data processing and validation procedures.
#
#######################################################################

data_SAZLEL
_chemical_formula_moiety         'C8 H8 F1 N1 O1'
_chemical_name_systematic        N-(4-Fluorophenyl)acetamide
_symmetry_cell_setting           monoclinic
_symmetry_space_group_name_H-M   'C c'
_symmetry_Int_Tables_number      9
_space_group_name_Hall           'C -2yc'
loop_
_symmetry_equiv_pos_site_id
_symmetry_equiv_pos_as_xyz
1 x,y,z
2 x,-y,1/2+z
3 1/2+x,1/2+y,z
4 1/2+x,1/2-y,1/2+z
_cell_length_a                   4.7307(15)
_cell_length_b                   17.067(5)
_cell_length_c                   9.634(3)
_cell_angle_alpha                90
_cell_angle_beta                 92.871(5)
_cell_angle_gamma                90
_cell_volume                     776.862
_exptl_crystal_colour            colorless
_exptl_crystal_description       prism
_chemical_melting_point          '426 K'
_cell_formula_units_Z            4
_exptl_crystal_recrystallization_method 'ethyl acetate'
loop_
_atom_site_label
_atom_site_type_symbol
_atom_site_fract_x
_atom_site_fract_y
_atom_site_fract_z
F1 F 1.0201(4) 0.21729(10) 0.6452(3)
N1 N 0.2536(4) 0.45829(11) 0.69842(18)
O1 O 0.1838(4) 0.50743(13) 0.48266(18)
C1 C 0.4496(4) 0.39733(12) 0.6780(2)
H1 H 0.207(6) 0.4652(16) 0.782(3)
C2 C 0.5455(5) 0.35617(14) 0.7945(3)
H2 H 0.4808 0.3694 0.8810
C3 C 0.7373(6) 0.29523(18) 0.7837(3)
H3 H 0.8007 0.2671 0.8619
C4 C 0.8305(5) 0.27759(15) 0.6561(3)
C5 C 0.7410(6) 0.31689(18) 0.5394(3)
H4 H 0.8092 0.3033 0.4538
C6 C 0.5485(5) 0.37702(16) 0.5488(3)
H5 H 0.4847 0.4039 0.4694
C7 C 0.1352(5) 0.50850(14) 0.6060(2)
C8 C -0.0605(6) 0.56781(15) 0.6638(3)
H6 H 0.0273 0.6185 0.6637
H7 H -0.1004 0.5537 0.7573
H8 H -0.2337 0.5692 0.6076
loop_
_geom_bond_atom_site_label_1
_geom_bond_atom_site_label_2
_geom_bond_site_symmetry_1
_geom_bond_site_symmetry_2
F1 C4 1_555 1_555
N1 C1 1_555 1_555
O1 C7 1_555 1_555
C1 C2 1_555 1_555
H1 N1 1_555 1_555
C2 H2 1_555 1_555
C3 C2 1_555 1_555
H3 C3 1_555 1_555
C4 C3 1_555 1_555
C5 C4 1_555 1_555
H4 C5 1_555 1_555
C6 C1 1_555 1_555
H5 C6 1_555 1_555
C7 N1 1_555 1_555
C8 C7 1_555 1_555
H6 C8 1_555 1_555
H7 C8 1_555 1_555
H8 C8 1_555 1_555
C5 C6 1_555 1_555

#END
