
#######################################################################
#
#                 Cambridge Crystallographic Data Centre
#                                CCDC 
#
#######################################################################
#
# If this CIF has been generated from an entry in the Cambridge 
# Structural Database, then it will include bibliographic, chemical, 
# crystal, experimental, refinement or atomic coordinate data resulting 
# from the CCDC's data processing and validation procedures.
#
#######################################################################

data_SAZLAI
_chemical_formula_moiety         'C26 H24 N4 O6 S2'
_chemical_name_systematic        
N-(3-(But-2-yn-1-yl((4-methylphenyl)sulfonyl)hydrazono)-2-phenylprop-1-en-1-yl)-4-nitrobenzenesulfonamide
_symmetry_cell_setting           triclinic
_symmetry_space_group_name_H-M   'P -1'
_symmetry_Int_Tables_number      2
_space_group_name_Hall           '-P 1'
loop_
_symmetry_equiv_pos_site_id
_symmetry_equiv_pos_as_xyz
1 x,y,z
2 -x,-y,-z
_cell_length_a                   9.0221(10)
_cell_length_b                   12.4227(14)
_cell_length_c                   12.8373(14)
_cell_angle_alpha                69.652(2)
_cell_angle_beta                 74.456(2)
_cell_angle_gamma                87.696(2)
_cell_volume                     1297.43
_exptl_crystal_colour            yellow
_exptl_crystal_description       block
_cell_formula_units_Z            2
loop_
_atom_site_label
_atom_site_type_symbol
_atom_site_fract_x
_atom_site_fract_y
_atom_site_fract_z
N1 N 0.0002(2) 0.85631(16) 0.48801(15)
N2 N 0.1041(2) 0.84806(15) 0.39068(15)
N3 N 0.3931(2) 0.86711(16) 0.26396(16)
H1 H 0.3467 0.8390 0.3383
N4 N 0.3965(3) 1.42849(19) 0.13345(19)
O1 O -0.0303(2) 0.85153(16) 0.68590(15)
O2 O 0.2185(2) 0.92544(14) 0.53624(15)
O3 O 0.62761(19) 0.90522(15) 0.31263(15)
O4 O 0.63566(18) 0.93272(15) 0.10983(15)
O5 O 0.4611(3) 1.48655(17) 0.1699(2)
O6 O 0.3021(3) 1.46466(19) 0.0789(2)
S1 S 0.08877(7) 0.84415(5) 0.58990(5)
S2 S 0.55787(6) 0.94098(5) 0.21965(5)
C1 C -0.1630(2) 0.81582(19) 0.52043(19)
H2 H -0.2078 0.8560 0.4556
H3 H -0.2203 0.8361 0.5878
C2 C -0.1827(3) 0.6902(2) 0.54937(19)
C3 C -0.1883(3) 0.5893(2) 0.5745(2)
C4 C -0.1899(3) 0.4630(2) 0.6088(3)
H4 H -0.1159 0.4336 0.6542
H5 H -0.1613 0.4418 0.5396
H6 H -0.2934 0.4298 0.6553
C5 C 0.0578(2) 0.83176(18) 0.31075(17)
H7 H -0.0493 0.8226 0.3189
C6 C 0.1715(2) 0.82747(17) 0.20682(17)
C7 C 0.3243(2) 0.84763(18) 0.18623(18)
H8 H 0.3893 0.8486 0.1141
C8 C 0.1156(2) 0.80023(18) 0.11940(17)
C9 C 0.1891(2) 0.72181(19) 0.06937(18)
H9 H 0.2733 0.6831 0.0939
C10 C 0.1409(3) 0.6996(2) -0.01558(19)
H10 H 0.1922 0.6463 -0.0489
C11 C 0.0180(3) 0.7553(2) -0.0515(2)
H11 H -0.0152 0.7406 -0.1098
C12 C -0.0566(3) 0.8329(2) -0.0021(2)
H12 H -0.1407 0.8716 -0.0272
C13 C -0.0096(3) 0.8546(2) 0.08365(19)
H13 H -0.0629 0.9065 0.1180
C14 C 0.1622(3) 0.70662(19) 0.62765(18)
C15 C 0.0715(3) 0.6136(2) 0.7157(2)
H14 H -0.0300 0.6240 0.7554
C16 C 0.1312(3) 0.5064(2) 0.7441(2)
H15 H 0.0697 0.4432 0.8042
C17 C 0.2783(3) 0.4889(2) 0.6872(2)
C18 C 0.3687(3) 0.5822(2) 0.6004(2)
H16 H 0.4705 0.5713 0.5617
C19 C 0.3116(3) 0.69135(19) 0.56975(19)
H17 H 0.3736 0.7546 0.5102
C20 C 0.3423(3) 0.3703(2) 0.7181(3)
H18 H 0.3137 0.3325 0.8022
H19 H 0.4548 0.3778 0.6884
H20 H 0.2996 0.3241 0.6836
C21 C 0.5083(2) 1.08465(19) 0.19677(19)
C22 C 0.4279(3) 1.1359(2) 0.11509(19)
H21 H 0.4004 1.0939 0.0730
C23 C 0.3887(3) 1.2483(2) 0.0958(2)
H22 H 0.3317 1.2846 0.0419
C24 C 0.4343(3) 1.3066(2) 0.1569(2)
C25 C 0.5132(3) 1.2588(2) 0.2368(2)
H23 H 0.5428 1.3025 0.2764
C26 C 0.5503(3) 1.1441(2) 0.2594(2)
H24 H 0.6029 1.1075 0.3163
loop_
_geom_bond_atom_site_label_1
_geom_bond_atom_site_label_2
_geom_bond_site_symmetry_1
_geom_bond_site_symmetry_2
N1 N2 1_555 1_555
N2 C5 1_555 1_555
N3 H1 1_555 1_555
N4 O5 1_555 1_555
O1 S1 1_555 1_555
O2 S1 1_555 1_555
O3 S2 1_555 1_555
O4 S2 1_555 1_555
O6 N4 1_555 1_555
S1 N1 1_555 1_555
S2 N3 1_555 1_555
C1 N1 1_555 1_555
H2 C1 1_555 1_555
H3 C1 1_555 1_555
C2 C1 1_555 1_555
C3 C2 1_555 1_555
C4 C3 1_555 1_555
H4 C4 1_555 1_555
H5 C4 1_555 1_555
H6 C4 1_555 1_555
C5 H7 1_555 1_555
C6 C5 1_555 1_555
C7 N3 1_555 1_555
H8 C7 1_555 1_555
C8 C6 1_555 1_555
C9 C8 1_555 1_555
H9 C9 1_555 1_555
C10 C9 1_555 1_555
H10 C10 1_555 1_555
C11 C10 1_555 1_555
H11 C11 1_555 1_555
C12 C11 1_555 1_555
H12 C12 1_555 1_555
C13 C8 1_555 1_555
H13 C13 1_555 1_555
C14 S1 1_555 1_555
C15 C14 1_555 1_555
H14 C15 1_555 1_555
C16 C15 1_555 1_555
H15 C16 1_555 1_555
C17 C16 1_555 1_555
C18 C17 1_555 1_555
H16 C18 1_555 1_555
C19 C14 1_555 1_555
H17 C19 1_555 1_555
C20 C17 1_555 1_555
H18 C20 1_555 1_555
H19 C20 1_555 1_555
H20 C20 1_555 1_555
C21 S2 1_555 1_555
C22 C21 1_555 1_555
H21 C22 1_555 1_555
C23 C22 1_555 1_555
H22 C23 1_555 1_555
C24 N4 1_555 1_555
C25 C24 1_555 1_555
H23 C25 1_555 1_555
C26 C21 1_555 1_555
H24 C26 1_555 1_555
C6 C7 1_555 1_555
C12 C13 1_555 1_555
C18 C19 1_555 1_555
C23 C24 1_555 1_555
C25 C26 1_555 1_555

#END
