
#######################################################################
#
#                 Cambridge Crystallographic Data Centre
#                                CCDC 
#
#######################################################################
#
# If this CIF has been generated from an entry in the Cambridge 
# Structural Database, then it will include bibliographic, chemical, 
# crystal, experimental, refinement or atomic coordinate data resulting 
# from the CCDC's data processing and validation procedures.
#
#######################################################################

data_SAZPEQ
_chemical_name_common            
6,14,22,30-Tetrahexyl-5,13,21,29-tetrathia-2,10,18,26,33,34,35,36-octaazanonacyclo[25.5.1.1$3,9!.1$11,17!.1$19,25!.0$4,8!.0$12,16!.0$20,24!.0$28,32!]hexatriaconta-1(33),2,4(8),6,9,11(35),12(16),14,17,19,22,24,26,28(32),30-pentadecaene
_chemical_formula_moiety         'C48 H58 N8 S4'
_chemical_name_systematic        
1,2:3,4:5,6:7,8-tetrakis(5-hexylthieno)porphyrazine
_symmetry_cell_setting           monoclinic
_symmetry_space_group_name_H-M   'P 21/c'
_symmetry_Int_Tables_number      14
_space_group_name_Hall           '-P 2ybc'
loop_
_symmetry_equiv_pos_site_id
_symmetry_equiv_pos_as_xyz
1 x,y,z
2 -x,1/2+y,1/2-z
3 -x,-y,-z
4 x,1/2-y,1/2+z
_cell_length_a                   17.173(8)
_cell_length_b                   6.043(3)
_cell_length_c                   22.627(13)
_cell_angle_alpha                90
_cell_angle_beta                 103.433(18)
_cell_angle_gamma                90
_cell_volume                     2283.91
_exptl_crystal_description       platelet
_cell_formula_units_Z            2
loop_
_atom_site_label
_atom_site_type_symbol
_atom_site_fract_x
_atom_site_fract_y
_atom_site_fract_z
N1 N 0.5276(2) 0.1026(6) 0.42370(16)
H1 H 0.5179 0.0618 0.4665
N2 N 0.6263(2) -0.1784(6) 0.41746(16)
N3 N 0.5718(2) -0.2481(6) 0.50534(15)
N4 N 0.5520(2) -0.4369(6) 0.59599(16)
S1 S 0.5466(3) 0.4993(7) 0.28914(16)
S2 S 0.7390(3) -0.6407(9) 0.4650(3)
C1 C 0.5005(3) 0.2957(8) 0.3930(2)
C2 C 0.5427(3) 0.3149(7) 0.34513(19)
C3 C 0.6183(8) 0.3389(19) 0.2667(6)
C4 C 0.6400(11) 0.152(3) 0.3023(8)
H2 H 0.6785 0.0504 0.2975
C5 C 0.5932(3) 0.1395(8) 0.34883(19)
C6 C 0.5842(3) 0.0024(8) 0.3988(2)
C7 C 0.6197(3) -0.2920(8) 0.4660(2)
C8 C 0.6668(3) -0.4880(8) 0.4857(2)
C9 C 0.7410(8) -0.822(2) 0.5247(5)
C10 C 0.6887(12) -0.767(3) 0.5603(9)
H3 H 0.6821 -0.8444 0.5943
C11 C 0.6451(3) -0.5650(8) 0.5359(2)
C12 C 0.5865(3) -0.4127(7) 0.5490(2)
C13 C 0.6435(4) 0.4811(16) 0.2196(3)
H4 H 0.6016 0.5784 0.1977
H5 H 0.6519 0.3702 0.1915
C14 C 0.7153(5) 0.6107(10) 0.2385(3)
H6 H 0.7062 0.7163 0.2679
H7 H 0.7565 0.5102 0.2596
C15 C 0.7510(4) 0.7328(11) 0.1956(3)
H8 H 0.7100 0.8295 0.1728
H9 H 0.7637 0.6278 0.1672
C16 C 0.8224(5) 0.8699(11) 0.2195(3)
H10 H 0.8100 0.9648 0.2498
H11 H 0.8638 0.7677 0.2405
C17 C 0.8588(4) 1.0021(13) 0.1809(3)
H12 H 0.8188 1.1044 0.1593
H13 H 0.8737 0.9086 0.1509
C18 C 0.9282(5) 1.1380(12) 0.2073(3)
H14 H 0.9467 1.2173 0.1769
H15 H 0.9163 1.2357 0.2361
H16 H 0.9713 1.0404 0.2275
C19 C 0.8003(4) -0.9962(11) 0.5121(4)
H17 H 0.8101 -0.9980 0.4717
H18 H 0.7748 -1.1341 0.5174
C20 C 0.8770(3) -0.9838(9) 0.5561(3)
H19 H 0.9028 -0.8465 0.5516
H20 H 0.8683 -0.9887 0.5965
C21 C 0.9331(4) -1.1739(11) 0.5495(3)
H21 H 0.9447 -1.1675 0.5093
H22 H 0.9071 -1.3138 0.5517
C22 C 1.0094(4) -1.1728(16) 0.5964(3)
H23 H 1.0403 -1.0338 0.5927
H24 H 1.0002 -1.1629 0.6370
C23 C 1.0629(6) -1.382(2) 0.5890(4)
H25 H 1.0813 -1.3664 0.5525
H26 H 1.0259 -1.5087 0.5825
C24 C 1.1222(8) -1.436(2) 0.6336(5)
H27 H 1.1609 -1.3145 0.6402
H28 H 1.1054 -1.4572 0.6702
H29 H 1.1496 -1.5644 0.6249
N1B N 0.4724(2) -0.1026(6) 0.57630(16)
H1B H 0.4821 -0.0618 0.5335
N2B N 0.3737(2) 0.1784(6) 0.58254(16)
N3B N 0.4282(2) 0.2481(6) 0.49466(15)
N4B N 0.4480(2) 0.4369(6) 0.40401(16)
S1B S 0.4534(3) -0.4993(7) 0.71086(16)
S2B S 0.2610(3) 0.6407(9) 0.5350(3)
C1B C 0.4995(3) -0.2957(8) 0.6070(2)
C2B C 0.4573(3) -0.3149(7) 0.65487(19)
C3B C 0.3817(8) -0.3389(19) 0.7333(6)
C4B C 0.3600(11) -0.152(3) 0.6977(8)
H2B H 0.3215 -0.0504 0.7025
C5B C 0.4068(3) -0.1395(8) 0.65117(19)
C6B C 0.4158(3) -0.0024(8) 0.6012(2)
C7B C 0.3803(3) 0.2920(8) 0.5340(2)
C8B C 0.3332(3) 0.4880(8) 0.5143(2)
C9B C 0.2590(8) 0.822(2) 0.4753(5)
C10B C 0.3113(12) 0.767(3) 0.4397(9)
H3B H 0.3179 0.8444 0.4057
C11B C 0.3549(3) 0.5650(8) 0.4641(2)
C12B C 0.4135(3) 0.4127(7) 0.4510(2)
C13B C 0.3565(4) -0.4811(16) 0.7804(3)
H4B H 0.3984 -0.5784 0.8023
H5B H 0.3481 -0.3702 0.8085
C14B C 0.2847(5) -0.6107(10) 0.7615(3)
H6B H 0.2938 -0.7163 0.7321
H7B H 0.2435 -0.5102 0.7404
C15B C 0.2490(4) -0.7328(11) 0.8044(3)
H8B H 0.2900 -0.8295 0.8272
H9B H 0.2363 -0.6278 0.8328
C16B C 0.1776(5) -0.8699(11) 0.7805(3)
H10B H 0.1900 -0.9648 0.7502
H11B H 0.1362 -0.7677 0.7595
C17B C 0.1412(4) -1.0021(13) 0.8191(3)
H12B H 0.1812 -1.1044 0.8407
H13B H 0.1263 -0.9086 0.8491
C18B C 0.0718(5) -1.1380(12) 0.7927(3)
H14B H 0.0533 -1.2173 0.8231
H15B H 0.0837 -1.2357 0.7639
H16B H 0.0287 -1.0404 0.7725
C19B C 0.1997(4) 0.9962(11) 0.4879(4)
H17B H 0.1899 0.9980 0.5283
H18B H 0.2252 1.1341 0.4826
C20B C 0.1230(3) 0.9838(9) 0.4439(3)
H19B H 0.0972 0.8465 0.4484
H20B H 0.1317 0.9887 0.4035
C21B C 0.0669(4) 1.1739(11) 0.4505(3)
H21B H 0.0553 1.1675 0.4907
H22B H 0.0929 1.3138 0.4483
C22B C -0.0094(4) 1.1728(16) 0.4036(3)
H23B H -0.0403 1.0338 0.4073
H24B H -0.0002 1.1629 0.3630
C23B C -0.0629(6) 1.382(2) 0.4110(4)
H25B H -0.0813 1.3664 0.4475
H26B H -0.0259 1.5087 0.4175
C24B C -0.1222(8) 1.436(2) 0.3664(5)
H27B H -0.1609 1.3145 0.3598
H28B H -0.1054 1.4572 0.3298
H29B H -0.1496 1.5644 0.3751
C25? C 0.7436(7) -0.8054(18) 0.5063(4)
C26? C 0.7199(10) -0.627(3) 0.4668(8)
C27? C 0.6089(6) 0.3956(16) 0.2697(5)
C28? C 0.5549(10) 0.466(3) 0.3024(7)
H30? H 0.5292 0.6027 0.2962
H31? H 0.7380 -0.6043 0.4317
S3? S 0.6514(2) 0.1451(8) 0.29770(18)
S4? S 0.6934(3) -0.7981(6) 0.56474(17)
loop_
_geom_bond_atom_site_label_1
_geom_bond_atom_site_label_2
_geom_bond_site_symmetry_1
_geom_bond_site_symmetry_2
N1 H1 1_555 1_555
N2 C6 1_555 1_555
N3 C7 1_555 1_555
N4 C12 1_555 1_555
S1 C2 1_555 1_555
S2 C8 1_555 1_555
C1 N1 1_555 1_555
C2 C1 1_555 1_555
C3 S1 1_555 1_555
C4 C3 1_555 1_555
H2 C4 1_555 1_555
C5 C2 1_555 1_555
C6 N1 1_555 1_555
C7 N2 1_555 1_555
C8 C7 1_555 1_555
C9 S2 1_555 1_555
C10 C9 1_555 1_555
H3 C10 1_555 1_555
C11 C8 1_555 1_555
C12 N3 1_555 1_555
C13 C3 1_555 1_555
H4 C13 1_555 1_555
H5 C13 1_555 1_555
C14 C13 1_555 1_555
H6 C14 1_555 1_555
H7 C14 1_555 1_555
C15 C14 1_555 1_555
H8 C15 1_555 1_555
H9 C15 1_555 1_555
C16 C15 1_555 1_555
H10 C16 1_555 1_555
H11 C16 1_555 1_555
C17 C16 1_555 1_555
H12 C17 1_555 1_555
H13 C17 1_555 1_555
C18 C17 1_555 1_555
H14 C18 1_555 1_555
H15 C18 1_555 1_555
H16 C18 1_555 1_555
C19 C9 1_555 1_555
H17 C19 1_555 1_555
H18 C19 1_555 1_555
C20 C19 1_555 1_555
H19 C20 1_555 1_555
H20 C20 1_555 1_555
C21 C20 1_555 1_555
H21 C21 1_555 1_555
H22 C21 1_555 1_555
C22 C21 1_555 1_555
H23 C22 1_555 1_555
H24 C22 1_555 1_555
C23 C22 1_555 1_555
H25 C23 1_555 1_555
H26 C23 1_555 1_555
C24 C23 1_555 1_555
H27 C24 1_555 1_555
H28 C24 1_555 1_555
H29 C24 1_555 1_555
N1B H1B 1_555 1_555
N2B C6B 1_555 1_555
N3B C7B 1_555 1_555
N4B C1 1_555 1_555
S1B C2B 1_555 1_555
S2B C8B 1_555 1_555
C1B N4 1_555 1_555
C2B C1B 1_555 1_555
C3B S1B 1_555 1_555
C4B C3B 1_555 1_555
H2B C4B 1_555 1_555
C5B C2B 1_555 1_555
C6B N1B 1_555 1_555
C7B N2B 1_555 1_555
C8B C7B 1_555 1_555
C9B S2B 1_555 1_555
C10B C9B 1_555 1_555
H3B C10B 1_555 1_555
C11B C8B 1_555 1_555
C12B N3B 1_555 1_555
C13B C3B 1_555 1_555
H4B C13B 1_555 1_555
H5B C13B 1_555 1_555
C14B C13B 1_555 1_555
H6B C14B 1_555 1_555
H7B C14B 1_555 1_555
C15B C14B 1_555 1_555
H8B C15B 1_555 1_555
H9B C15B 1_555 1_555
C16B C15B 1_555 1_555
H10B C16B 1_555 1_555
H11B C16B 1_555 1_555
C17B C16B 1_555 1_555
H12B C17B 1_555 1_555
H13B C17B 1_555 1_555
C18B C17B 1_555 1_555
H14B C18B 1_555 1_555
H15B C18B 1_555 1_555
H16B C18B 1_555 1_555
C19B C9B 1_555 1_555
H17B C19B 1_555 1_555
H18B C19B 1_555 1_555
C20B C19B 1_555 1_555
H19B C20B 1_555 1_555
H20B C20B 1_555 1_555
C21B C20B 1_555 1_555
H21B C21B 1_555 1_555
H22B C21B 1_555 1_555
C22B C21B 1_555 1_555
H23B C22B 1_555 1_555
H24B C22B 1_555 1_555
C23B C22B 1_555 1_555
H25B C23B 1_555 1_555
H26B C23B 1_555 1_555
C24B C23B 1_555 1_555
H27B C24B 1_555 1_555
H28B C24B 1_555 1_555
H29B C24B 1_555 1_555
C4 C5 1_555 1_555
C5 C6 1_555 1_555
C10 C11 1_555 1_555
C11 C12 1_555 1_555
N1B C1B 1_555 1_555
N4B C12B 1_555 1_555
C4B C5B 1_555 1_555
C5B C6B 1_555 1_555
C10B C11B 1_555 1_555
C11B C12B 1_555 1_555

#END
