
#######################################################################
#
#                 Cambridge Crystallographic Data Centre
#                                CCDC 
#
#######################################################################
#
# If this CIF has been generated from an entry in the Cambridge 
# Structural Database, then it will include bibliographic, chemical, 
# crystal, experimental, refinement or atomic coordinate data resulting 
# from the CCDC's data processing and validation procedures.
#
#######################################################################

data_SAZPAN
_chemical_formula_moiety         'C22 H13 N1'
_chemical_name_systematic        11H-phenaleno[1,9-ab]carbazole
_symmetry_cell_setting           tetragonal
_symmetry_space_group_name_H-M   'I 41 c d'
_symmetry_Int_Tables_number      110
_space_group_name_Hall           'I 4bw -2c'
loop_
_symmetry_equiv_pos_site_id
_symmetry_equiv_pos_as_xyz
1 x,y,z
2 1/2-x,1/2-y,1/2+z
3 -y,1/2+x,1/4+z
4 1/2+y,-x,3/4+z
5 x,-y,1/2+z
6 1/2-x,1/2+y,z
7 -y,1/2-x,3/4+z
8 1/2+y,x,1/4+z
9 1/2+x,1/2+y,1/2+z
10 -x,-y,z
11 1/2-y,x,3/4+z
12 y,1/2-x,1/4+z
13 1/2+x,1/2-y,z
14 -x,y,1/2+z
15 1/2-y,-x,1/4+z
16 y,1/2+x,3/4+z
_cell_length_a                   7.304
_cell_length_b                   7.304
_cell_length_c                   53.3006(14)
_cell_angle_alpha                90
_cell_angle_beta                 90
_cell_angle_gamma                90
_cell_volume                     2843.5
_exptl_crystal_colour            yellow
_exptl_crystal_description       block
_cell_formula_units_Z            8
loop_
_atom_site_label
_atom_site_type_symbol
_atom_site_fract_x
_atom_site_fract_y
_atom_site_fract_z
C1 C 0.0040(18) 0.4396(12) 0.14882(9)
H1 H 0.0066 0.4160 0.1660
C2 C 0.0513(18) 0.3029(12) 0.13188(13)
H2 H 0.0855 0.1878 0.1377
C3 C 0.047(2) 0.3382(15) 0.10626(11)
C4 C -0.004(2) 0.5102(17) 0.09758(9)
C5 C -0.051(2) 0.6470(14) 0.11452(14)
C6 C -0.047(2) 0.6117(12) 0.14014(13)
H3 H -0.0788 0.7031 0.1515
C7 C 0.0000 0.5000 0.07162(13)
C8 C 0.0495(10) 0.3540(9) 0.05759(10)
C9 C 0.089(2) 0.1925(13) 0.06833(13)
H4 H 0.1169 0.0892 0.0589
C10 C 0.0872(15) 0.1887(13) 0.09356(14)
H5 H 0.1138 0.0806 0.1020
C11 C 0.0000 0.5000 0.01969(16)
C12 C -0.0040(15) 0.4989(15) -0.00778(12)
C13 C 0.0556(15) 0.3246(15) -0.01429(16)
C14 C 0.075(2) 0.2774(17) -0.03941(18)
H6 H 0.1151 0.1607 -0.0438
C15 C 0.035(3) 0.405(2) -0.05802(13)
H7 H 0.0484 0.3731 -0.0748
C16 C -0.024(3) 0.5790(19) -0.05150(14)
H8 H -0.0511 0.6641 -0.0640
C17 C -0.0440(18) 0.6261(15) -0.02638(16)
H9 H -0.0839 0.7428 -0.0220
C18 C 0.0549(12) 0.3427(12) 0.03184(10)
H10 H 0.0932 0.2344 0.0231
N1 N 0.0917(16) 0.217(2) 0.0093(2)
H11 H 0.1268 0.1044 0.0101
C1I C -0.0040(18) 0.5604(12) 0.14882(9)
H1I H -0.0066 0.5840 0.1660
C2I C -0.0513(18) 0.6971(12) 0.13188(13)
H2I H -0.0855 0.8122 0.1377
C3I C -0.047(2) 0.6618(15) 0.10626(11)
C4I C 0.004(2) 0.4898(17) 0.09758(9)
C5I C 0.051(2) 0.3530(14) 0.11452(14)
C6I C 0.047(2) 0.3883(12) 0.14014(13)
H3I H 0.0788 0.2969 0.1515
C8I C -0.0495(10) 0.6460(9) 0.05759(10)
C9I C -0.089(2) 0.8075(13) 0.06833(13)
H4I H -0.1169 0.9108 0.0589
C10I C -0.0872(15) 0.8113(13) 0.09356(14)
H5I H -0.1138 0.9194 0.1020
C12I C 0.0040(15) 0.5011(15) -0.00778(12)
C13I C -0.0556(15) 0.6754(15) -0.01429(16)
C14I C -0.075(2) 0.7226(17) -0.03941(18)
H6I H -0.1151 0.8393 -0.0438
C15I C -0.035(3) 0.595(2) -0.05802(13)
H7I H -0.0484 0.6269 -0.0748
C16I C 0.024(3) 0.4210(19) -0.05150(14)
H8I H 0.0511 0.3359 -0.0640
C17I C 0.0440(18) 0.3739(15) -0.02638(16)
H9I H 0.0839 0.2572 -0.0220
C18I C -0.0549(12) 0.6573(12) 0.03184(10)
H10I H -0.0932 0.7656 0.0231
N1I N -0.0917(16) 0.783(2) 0.0093(2)
H11I H -0.1268 0.8956 0.0101
loop_
_geom_bond_atom_site_label_1
_geom_bond_atom_site_label_2
_geom_bond_site_symmetry_1
_geom_bond_site_symmetry_2
C1 H1 1_555 1_555
C2 C1 1_555 1_555
H2 C2 1_555 1_555
C3 C2 1_555 1_555
C4 C3 1_555 1_555
C5 C4 1_555 1_555
C6 C1 1_555 1_555
H3 C6 1_555 1_555
C7 C4 1_555 1_555
C8 C7 1_555 1_555
C9 C8 1_555 1_555
H4 C9 1_555 1_555
C10 C3 1_555 1_555
H5 C10 1_555 1_555
C11 C12 1_555 1_555
C12 C13 1_555 1_555
C13 C14 1_555 1_555
C14 H6 1_555 1_555
C15 C14 1_555 1_555
H7 C15 1_555 1_555
C16 C15 1_555 1_555
H8 C16 1_555 1_555
C17 C12 1_555 1_555
H9 C17 1_555 1_555
C18 C8 1_555 1_555
H10 C18 1_555 1_555
N1 C13 1_555 1_555
H11 N1 1_555 1_555
C1I C1 1_555 1_555
H1I C1I 1_555 1_555
C2I C5 1_555 1_555
H2I C2I 1_555 1_555
C3I C4 1_555 1_555
C4I C3 1_555 1_555
C5I C2 1_555 1_555
C6I C1 1_555 1_555
H3I C1 1_555 1_555
C8I C7 1_555 1_555
C9I C8I 1_555 1_555
H4I C9I 1_555 1_555
C10I C5 1_555 1_555
H5I C10I 1_555 1_555
C12I C11 1_555 1_555
C13I C12 1_555 1_555
C14I C16 1_555 1_555
H6I C14I 1_555 1_555
C15I C15 1_555 1_555
H7I C16 1_555 1_555
C16I C14 1_555 1_555
H8I C15 1_555 1_555
C17I C12 1_555 1_555
H9I C13 1_555 1_555
C18I C11 1_555 1_555
H10I C18I 1_555 1_555
N1I C13I 1_555 1_555
H11I N1I 1_555 1_555
C2 C6I 1_555 1_555
C2 H3I 1_555 1_555
C4 C5I 1_555 1_555
C5 C6 1_555 1_555
C5 C4I 1_555 1_555
C6 C1I 1_555 1_555
C6 C2I 1_555 1_555
C6 C6I 1_555 1_555
H3 C1I 1_555 1_555
H3 C2I 1_555 1_555
C7 C4I 1_555 1_555
C9 C10 1_555 1_555
C10 C5I 1_555 1_555
C11 C18 1_555 1_555
C13 C12I 1_555 1_555
C13 C17I 1_555 1_555
C14 C17I 1_555 1_555
C14 H9I 1_555 1_555
C15 C17I 1_555 1_555
H7 C16I 1_555 1_555
C16 C17 1_555 1_555
C16 C16I 1_555 1_555
H8 C15I 1_555 1_555
C17 C12I 1_555 1_555
C17 C13I 1_555 1_555
C17 C14I 1_555 1_555
C17 C15I 1_555 1_555
H9 C13I 1_555 1_555
H9 C14I 1_555 1_555
C18 N1 1_555 1_555
H10 N1 1_555 1_555
C1I C2I 1_555 1_555
C1I C6I 1_555 1_555
C2I C3I 1_555 1_555
C3I C4I 1_555 1_555
C3I C10I 1_555 1_555
C4I C5I 1_555 1_555
C5I C6I 1_555 1_555
C6I H3I 1_555 1_555
C8I C18I 1_555 1_555
C9I C10I 1_555 1_555
C12I C13I 1_555 1_555
C12I C17I 1_555 1_555
C13I C14I 1_555 1_555
C14I C15I 1_555 1_555
C15I H7I 1_555 1_555
C15I C16I 1_555 1_555
C16I H8I 1_555 1_555
C16I C17I 1_555 1_555
C17I H9I 1_555 1_555
C18I N1I 1_555 1_555
H10I N1I 1_555 1_555

#END
