
#######################################################################
#
#                 Cambridge Crystallographic Data Centre
#                                CCDC 
#
#######################################################################
#
# If this CIF has been generated from an entry in the Cambridge 
# Structural Database, then it will include bibliographic, chemical, 
# crystal, experimental, refinement or atomic coordinate data resulting 
# from the CCDC's data processing and validation procedures.
#
#######################################################################

data_SAZQAO
_chemical_formula_moiety         'C17 H20 N2 O3 S1'
_chemical_name_systematic        
'methyl 7,7-dimethyl-3-(methylsulfanyl)-5-oxo-1-phenyl-6,7-dihydro-1H,5H-pyrazolo[1,2-a]pyrazole-2-carboxylate'
_symmetry_cell_setting           monoclinic
_symmetry_space_group_name_H-M   'P 21/c'
_symmetry_Int_Tables_number      14
_space_group_name_Hall           '-P 2ybc'
loop_
_symmetry_equiv_pos_site_id
_symmetry_equiv_pos_as_xyz
1 x,y,z
2 -x,1/2+y,1/2-z
3 -x,-y,-z
4 x,1/2-y,1/2+z
_cell_length_a                   13.4576(8)
_cell_length_b                   5.9101(5)
_cell_length_c                   21.4449(14)
_cell_angle_alpha                90
_cell_angle_beta                 92.551(5)
_cell_angle_gamma                90
_cell_volume                     1703.95
_exptl_crystal_colour            yellow
_exptl_crystal_description       Needle
_cell_formula_units_Z            4
_exptl_crystal_recrystallization_method 'ethyl acetate'
loop_
_atom_site_label
_atom_site_type_symbol
_atom_site_fract_x
_atom_site_fract_y
_atom_site_fract_z
C1 C 0.41966(16) 0.3461(4) 0.11599(10)
S1 S 0.38004(5) 0.01255(12) 0.23359(3)
N1 N 0.15746(11) 0.1240(3) 0.10794(7)
N2 N 0.20126(12) 0.0435(3) 0.16690(7)
C2 C 0.24558(13) 0.2157(3) 0.01317(9)
C3 C 0.23354(13) 0.2752(3) 0.08109(8)
H1 H 0.2127 0.4334 0.0845
O1 O 0.40940(12) 0.5245(3) 0.07855(9)
C4 C 0.30201(14) 0.0995(4) 0.17138(9)
O2 O 0.14452(13) -0.0519(4) 0.26335(7)
C5 C 0.32399(14) 0.2334(3) 0.12341(9)
C6 C 0.06063(14) 0.2254(4) 0.12524(10)
C7 C 0.03264(15) 0.0635(4) 0.17653(10)
H2 H -0.0128 0.1345 0.2045
H3 H 0.0019 -0.0723 0.1592
C8 C 0.21936(16) 0.3706(4) -0.03262(10)
H4 H 0.1952 0.5115 -0.0214
C9 C 0.13016(16) 0.0103(4) 0.20981(10)
O3 O 0.49736(12) 0.2931(4) 0.14062(10)
C10 C 0.2926(2) -0.0390(5) -0.06695(12)
H5 H 0.3180 -0.1782 -0.0787
C11 C 0.22834(19) 0.3205(5) -0.09465(11)
H6 H 0.2089 0.4258 -0.1250
C12 C -0.00997(18) 0.2154(7) 0.06889(14)
H7 H 0.0133 0.3139 0.0371
H8 H -0.0749 0.2628 0.0803
H9 H -0.0133 0.0631 0.0534
C13 C 0.3429(2) -0.2745(5) 0.24407(13)
H10 H 0.2793 -0.2782 0.2626
H11 H 0.3912 -0.3503 0.2710
H12 H 0.3384 -0.3494 0.2043
C14 C 0.2654(2) 0.1177(6) -0.11152(12)
H13 H 0.2725 0.0847 -0.1535
C15 C 0.28225(17) 0.0091(4) -0.00431(11)
H14 H 0.3001 -0.0982 0.0259
C16 C 0.0708(2) 0.4623(4) 0.15200(18)
H15 H 0.1251 0.4661 0.1826
H16 H 0.0104 0.5037 0.1712
H17 H 0.0835 0.5671 0.1191
C17 C 0.4973(2) 0.6653(5) 0.07339(16)
H18 H 0.5148 0.7316 0.1133
H19 H 0.4836 0.7831 0.0434
H20 H 0.5515 0.5743 0.0601
loop_
_geom_bond_atom_site_label_1
_geom_bond_atom_site_label_2
_geom_bond_site_symmetry_1
_geom_bond_site_symmetry_2
C1 O1 1_555 1_555
S1 C4 1_555 1_555
N1 N2 1_555 1_555
N2 C4 1_555 1_555
C2 C3 1_555 1_555
C3 N1 1_555 1_555
H1 C3 1_555 1_555
O1 C17 1_555 1_555
C4 C5 1_555 1_555
O2 C9 1_555 1_555
C5 C1 1_555 1_555
C6 N1 1_555 1_555
C7 C6 1_555 1_555
H2 C7 1_555 1_555
H3 C7 1_555 1_555
C8 C2 1_555 1_555
H4 C8 1_555 1_555
C9 N2 1_555 1_555
O3 C1 1_555 1_555
C10 H5 1_555 1_555
C11 C8 1_555 1_555
H6 C11 1_555 1_555
C12 C6 1_555 1_555
H7 C12 1_555 1_555
H8 C12 1_555 1_555
H9 C12 1_555 1_555
C13 S1 1_555 1_555
H10 C13 1_555 1_555
H11 C13 1_555 1_555
H12 C13 1_555 1_555
C14 C10 1_555 1_555
H13 C14 1_555 1_555
C15 C2 1_555 1_555
H14 C15 1_555 1_555
C16 C6 1_555 1_555
H15 C16 1_555 1_555
H16 C16 1_555 1_555
H17 C16 1_555 1_555
C17 H18 1_555 1_555
H19 C17 1_555 1_555
H20 C17 1_555 1_555
C3 C5 1_555 1_555
C7 C9 1_555 1_555
C10 C15 1_555 1_555
C11 C14 1_555 1_555

#END
