
#######################################################################
#
#                 Cambridge Crystallographic Data Centre
#                                CCDC 
#
#######################################################################
#
# If this CIF has been generated from an entry in the Cambridge 
# Structural Database, then it will include bibliographic, chemical, 
# crystal, experimental, refinement or atomic coordinate data resulting 
# from the CCDC's data processing and validation procedures.
#
#######################################################################

data_SAZRIW
_chemical_name_common            
meso-tetra(3,4,5-trimethoxyphenyl)-2(R),3(S),12(R),13(S)-tetrahydroxybacteriochlorin
_chemical_formula_moiety         'C56 H58 N4 O16,4.62(C1 H1 Cl3)'
_chemical_name_systematic        
'meso-5,10,15,20-tetrakis(3,4,5-trimethoxyphenyl)-2,3,12,13-tetrahydroporphyrin-2,3,12,13-tetrol chloroform solvate'
_symmetry_cell_setting           triclinic
_symmetry_space_group_name_H-M   'P -1'
_symmetry_Int_Tables_number      2
_space_group_name_Hall           '-P 1'
loop_
_symmetry_equiv_pos_site_id
_symmetry_equiv_pos_as_xyz
1 x,y,z
2 -x,-y,-z
_cell_length_a                   11.6873(9)
_cell_length_b                   15.6713(12)
_cell_length_c                   22.2525(17)
_cell_angle_alpha                69.9290(10)
_cell_angle_beta                 82.0790(10)
_cell_angle_gamma                72.1360(10)
_cell_volume                     3641.16
_exptl_crystal_colour            black
_exptl_crystal_description       block
_cell_formula_units_Z            2
loop_
_atom_site_label
_atom_site_type_symbol
_atom_site_fract_x
_atom_site_fract_y
_atom_site_fract_z
C1 C 0.7356(4) 0.2073(3) 0.3308(2)
C2 C 0.7492(5) 0.2028(4) 0.3990(2)
H1 H 0.8326 0.2007 0.4064
C3 C 0.6571(5) 0.2948(4) 0.4025(2)
H2 H 0.6986 0.3453 0.3937
C4 C 0.5768(5) 0.3180(4) 0.3471(2)
C5 C 0.4636(5) 0.3847(3) 0.3395(2)
C6 C 0.3836(4) 0.4060(3) 0.2920(2)
C7 C 0.2711(5) 0.4789(4) 0.2809(2)
H3 H 0.2385 0.5217 0.3046
C8 C 0.2193(5) 0.4761(4) 0.2307(2)
H4 H 0.1443 0.5164 0.2135
C9 C 0.2968(4) 0.4024(3) 0.2084(2)
C10 C 0.2752(4) 0.3771(3) 0.1575(2)
C11 C 0.3541(4) 0.3073(3) 0.1333(2)
C12 C 0.3206(4) 0.2837(4) 0.0783(2)
H5 H 0.3264 0.3349 0.0371
C13 C 0.4217(5) 0.1929(4) 0.0795(2)
H6 H 0.4507 0.1905 0.0355
C14 C 0.5168(4) 0.2011(3) 0.1155(2)
C15 C 0.6366(4) 0.1514(3) 0.1141(2)
C16 C 0.7261(4) 0.1407(3) 0.1550(2)
C17 C 0.8444(5) 0.0808(4) 0.1584(2)
H7 H 0.8823 0.0467 0.1297
C18 C 0.8954(5) 0.0802(4) 0.2108(2)
H8 H 0.9745 0.0449 0.2247
C19 C 0.8112(4) 0.1402(3) 0.2405(2)
C20 C 0.8219(4) 0.1510(3) 0.3001(2)
C21 C 0.4180(4) 0.4389(4) 0.3867(2)
C22 C 0.4672(4) 0.5093(3) 0.3872(2)
H9 H 0.5328 0.5226 0.3589
C23 C 0.4183(4) 0.5597(3) 0.4299(2)
C24 C 0.3234(4) 0.5405(4) 0.4713(2)
C25 C 0.2749(5) 0.4693(4) 0.4708(2)
C26 C 0.3239(5) 0.4184(4) 0.4284(3)
H10 H 0.2924 0.3693 0.4282
C27 C 0.5544(5) 0.6561(4) 0.3927(3)
H11 H 0.6239 0.6001 0.3987
H12 H 0.5760 0.7054 0.4026
H13 H 0.5301 0.6797 0.3482
C28 C 0.1825(5) 0.6751(4) 0.4863(3)
H14 H 0.2127 0.7126 0.4458
H15 H 0.1579 0.7122 0.5158
H16 H 0.1133 0.6580 0.4785
C29 C 0.1272(6) 0.3855(5) 0.5120(3)
H17 H 0.1002 0.4013 0.4687
H18 H 0.0582 0.3844 0.5424
H19 H 0.1864 0.3232 0.5237
C30 C 0.1579(4) 0.4321(3) 0.1268(2)
C31 C 0.0520(5) 0.4122(3) 0.1551(2)
H20 H 0.0545 0.3596 0.1928
C32 C -0.0587(4) 0.4690(3) 0.1286(2)
C33 C -0.0613(4) 0.5472(3) 0.0737(2)
C34 C 0.0446(5) 0.5665(4) 0.0447(2)
C35 C 0.1550(5) 0.5093(3) 0.0706(2)
H21 H 0.2276 0.5224 0.0504
C36 C -0.1682(5) 0.3682(4) 0.2017(3)
H22 H -0.1178 0.3150 0.1880
H23 H -0.2507 0.3631 0.2106
H24 H -0.1364 0.3670 0.2406
C37 C -0.2220(5) 0.6788(4) 0.0771(3)
H25 H -0.2433 0.6505 0.1223
H26 H -0.2943 0.7226 0.0547
H27 H -0.1631 0.7132 0.0741
C38 C 0.1369(5) 0.6639(4) -0.0430(3)
H28 H 0.1880 0.6708 -0.0145
H29 H 0.1155 0.7224 -0.0792
H30 H 0.1806 0.6112 -0.0588
C39 C 0.6786(4) 0.0979(4) 0.0661(2)
C40 C 0.6368(5) 0.0211(4) 0.0736(2)
H31 H 0.5855 0.0007 0.1093
C41 C 0.6709(5) -0.0261(4) 0.0282(3)
C42 C 0.7490(5) 0.0010(4) -0.0223(2)
C43 C 0.7923(5) 0.0774(4) -0.0290(2)
C44 C 0.7567(5) 0.1265(4) 0.0156(2)
H32 H 0.7857 0.1787 0.0112
C45 C 0.5438(5) -0.1255(4) 0.0811(3)
H33 H 0.5832 -0.1489 0.1220
H34 H 0.5153 -0.1752 0.0760
H35 H 0.4754 -0.0701 0.0802
C46 C 0.8931(5) -0.1117(5) -0.0626(3)
H36 H 0.9552 -0.0821 -0.0616
H37 H 0.9101 -0.1363 -0.0989
H38 H 0.8926 -0.1638 -0.0226
C47 C 0.9079(8) 0.1820(7) -0.0924(3)
H39 H 0.8377 0.2359 -0.0926
H40 H 0.9512 0.1954 -0.1340
H41 H 0.9613 0.1712 -0.0587
C48 C 0.9394(4) 0.0938(3) 0.3316(2)
C49 C 1.0457(5) 0.1164(4) 0.3064(2)
H42 H 1.0449 0.1687 0.2686
C50 C 1.1535(5) 0.0627(4) 0.3363(2)
C51 C 1.1547(5) -0.0129(4) 0.3925(2)
C52 C 1.0483(5) -0.0346(3) 0.4179(2)
C53 C 0.9406(5) 0.0171(3) 0.3868(2)
H43 H 0.8685 -0.0001 0.4033
C54 C 1.2660(6) 0.1567(5) 0.2589(3)
H44 H 1.2344 0.1486 0.2232
H45 H 1.3493 0.1596 0.2484
H46 H 1.2168 0.2155 0.2663
C55 C 1.3527(5) -0.1197(4) 0.3965(3)
H47 H 1.3207 -0.1646 0.3872
H48 H 1.4198 -0.1546 0.4253
H49 H 1.3811 -0.0796 0.3565
C56 C 0.9481(5) -0.1286(4) 0.5027(3)
H50 H 0.8903 -0.0711 0.5081
H51 H 0.9641 -0.1774 0.5447
H52 H 0.9149 -0.1515 0.4751
N1 N 0.6289(4) 0.2679(3) 0.30689(18)
N2 N 0.3948(4) 0.3627(3) 0.24636(18)
H58 H 0.4567 0.3159 0.2421
N3 N 0.4670(4) 0.2600(3) 0.15135(19)
N4 N 0.7098(4) 0.1770(3) 0.20464(19)
H59 H 0.6438 0.2180 0.2125
O1 O 0.7155(4) 0.1218(3) 0.44023(17)
H60 H 0.7161 0.1195 0.4785
O2 O 0.5979(4) 0.2817(3) 0.46340(17)
H61 H 0.5996 0.3244 0.4776
O3 O 0.2060(3) 0.2668(3) 0.08494(17)
H62 H 0.1615 0.3088 0.0562
O4 O 0.3876(3) 0.1099(2) 0.11825(17)
H63 H 0.3406 0.0991 0.0982
O5 O 0.4569(3) 0.6315(3) 0.43443(18)
O6 O 0.2759(3) 0.5905(3) 0.51409(17)
O7 O 0.1813(3) 0.4555(3) 0.51379(18)
O8 O -0.1676(3) 0.4555(2) 0.15192(17)
O9 O -0.1711(3) 0.6053(2) 0.04828(16)
O10 O 0.0304(3) 0.6455(3) -0.00863(17)
O11 O 0.6279(3) -0.0996(3) 0.02987(19)
O12 O 0.7768(4) -0.0422(3) -0.06957(19)
O13 O 0.8691(4) 0.0994(3) -0.08076(19)
O14 O 1.0576(3) -0.1079(3) 0.47412(17)
O15 O 1.2591(3) -0.0613(3) 0.42658(17)
O16 O 1.2626(3) 0.0784(3) 0.31533(18)
C57 C 0.5610(5) 0.5521(4) 0.1033(3)
H53 H 0.6443 0.5571 0.0891
Cl1 Cl 0.54955(14) 0.44675(11) 0.09799(9)
Cl2 Cl 0.53465(15) 0.55291(13) 0.18332(8)
Cl3 Cl 0.45773(15) 0.65103(12) 0.05345(9)
C58 C 0.8789(6) 0.4936(5) 0.3486(3)
H54 H 0.8342 0.4903 0.3906
Cl4 Cl 0.97396(16) 0.38033(13) 0.35300(8)
Cl5 Cl 0.77346(15) 0.53133(14) 0.28812(8)
Cl6 Cl 0.96280(17) 0.57491(15) 0.33271(10)
C59 C 0.7123(12) 0.9100(8) 0.2724(6)
H55 H 0.7631 0.9543 0.2524
Cl10 Cl 0.5685(3) 0.9712(3) 0.25220(16)
Cl11 Cl 0.7358(7) 0.8669(5) 0.3528(2)
Cl12 Cl 0.7639(6) 0.8151(4) 0.2393(3)
C60 C 0.2302(10) 0.8578(7) 0.2174(5)
H56 H 0.1876 0.8928 0.1762
Cl13 Cl 0.3081(6) 0.9272(3) 0.22824(16)
Cl14 Cl 0.3307(4) 0.7532(3) 0.2096(2)
Cl15 Cl 0.1235(4) 0.8375(3) 0.27750(19)
Cl7 Cl 0.2515(3) 0.22899(18) 0.38966(14)
C61 C 0.3497(14) 0.1298(11) 0.4239(6)
H57 H 0.3109 0.0787 0.4294
Cl8 Cl 0.3740(12) 0.1243(9) 0.5012(6)
Cl9 Cl 0.4866(3) 0.1046(3) 0.37462(16)
C62? C 0.423(2) 0.1452(15) 0.4276(9)
Cl16? Cl 0.3920(10) 0.0899(15) 0.5010(4)
H64? H 0.4665 0.1905 0.4292
loop_
_geom_bond_atom_site_label_1
_geom_bond_atom_site_label_2
_geom_bond_site_symmetry_1
_geom_bond_site_symmetry_2
C1 C2 1_555 1_555
C2 H1 1_555 1_555
C3 C2 1_555 1_555
H2 C3 1_555 1_555
C4 C3 1_555 1_555
C5 C4 1_555 1_555
C6 C5 1_555 1_555
C7 C6 1_555 1_555
H3 C7 1_555 1_555
C8 C7 1_555 1_555
H4 C8 1_555 1_555
C9 C8 1_555 1_555
C10 C9 1_555 1_555
C11 C10 1_555 1_555
C12 C11 1_555 1_555
H5 C12 1_555 1_555
C13 C12 1_555 1_555
H6 C13 1_555 1_555
C14 C13 1_555 1_555
C15 C14 1_555 1_555
C16 C15 1_555 1_555
C17 C16 1_555 1_555
H7 C17 1_555 1_555
C18 C17 1_555 1_555
H8 C18 1_555 1_555
C19 C18 1_555 1_555
C20 C1 1_555 1_555
C21 C5 1_555 1_555
C22 C21 1_555 1_555
H9 C22 1_555 1_555
C23 C22 1_555 1_555
C24 C23 1_555 1_555
C25 C24 1_555 1_555
C26 C21 1_555 1_555
H10 C26 1_555 1_555
C27 H11 1_555 1_555
H12 C27 1_555 1_555
H13 C27 1_555 1_555
C28 H14 1_555 1_555
H15 C28 1_555 1_555
H16 C28 1_555 1_555
C29 H17 1_555 1_555
H18 C29 1_555 1_555
H19 C29 1_555 1_555
C30 C10 1_555 1_555
C31 C30 1_555 1_555
H20 C31 1_555 1_555
C32 C31 1_555 1_555
C33 C32 1_555 1_555
C34 C33 1_555 1_555
C35 C30 1_555 1_555
H21 C35 1_555 1_555
C36 H22 1_555 1_555
H23 C36 1_555 1_555
H24 C36 1_555 1_555
C37 H25 1_555 1_555
H26 C37 1_555 1_555
H27 C37 1_555 1_555
C38 H28 1_555 1_555
H29 C38 1_555 1_555
H30 C38 1_555 1_555
C39 C15 1_555 1_555
C40 C39 1_555 1_555
H31 C40 1_555 1_555
C41 C40 1_555 1_555
C42 C41 1_555 1_555
C43 C42 1_555 1_555
C44 C39 1_555 1_555
H32 C44 1_555 1_555
C45 H33 1_555 1_555
H34 C45 1_555 1_555
H35 C45 1_555 1_555
C46 H36 1_555 1_555
H37 C46 1_555 1_555
H38 C46 1_555 1_555
C47 H39 1_555 1_555
H40 C47 1_555 1_555
H41 C47 1_555 1_555
C48 C20 1_555 1_555
C49 C48 1_555 1_555
H42 C49 1_555 1_555
C50 C49 1_555 1_555
C51 C50 1_555 1_555
C52 C51 1_555 1_555
C53 C48 1_555 1_555
H43 C53 1_555 1_555
C54 H44 1_555 1_555
H45 C54 1_555 1_555
H46 C54 1_555 1_555
C55 H47 1_555 1_555
H48 C55 1_555 1_555
H49 C55 1_555 1_555
C56 H50 1_555 1_555
H51 C56 1_555 1_555
H52 C56 1_555 1_555
C57 H53 1_555 1_555
C58 H54 1_555 1_555
C59 H55 1_555 1_555
C60 H56 1_555 1_555
Cl1 C57 1_555 1_555
Cl2 C57 1_555 1_555
Cl3 C57 1_555 1_555
Cl4 C58 1_555 1_555
Cl5 C58 1_555 1_555
Cl6 C58 1_555 1_555
Cl7 C61 1_555 1_555
C61 H57 1_555 1_555
Cl8 C61 1_555 1_555
Cl9 C61 1_555 1_555
Cl10 C59 1_555 1_555
Cl11 C59 1_555 1_555
Cl12 C59 1_555 1_555
Cl13 C60 1_555 1_555
Cl14 C60 1_555 1_555
Cl15 C60 1_555 1_555
N1 C1 1_555 1_555
N2 C6 1_555 1_555
H58 N2 1_555 1_555
N3 C11 1_555 1_555
N4 C16 1_555 1_555
H59 N4 1_555 1_555
O1 C2 1_555 1_555
H60 O1 1_555 1_555
O2 C3 1_555 1_555
H61 O2 1_555 1_555
O3 C12 1_555 1_555
H62 O3 1_555 1_555
O4 C13 1_555 1_555
H63 O4 1_555 1_555
O5 C23 1_555 1_555
O6 C24 1_555 1_555
O7 C25 1_555 1_555
O8 C32 1_555 1_555
O9 C33 1_555 1_555
O10 C34 1_555 1_555
O11 C41 1_555 1_555
O12 C42 1_555 1_555
O13 C43 1_555 1_555
O14 C52 1_555 1_555
O15 C51 1_555 1_555
O16 C50 1_555 1_555
C4 N1 1_555 1_555
C9 N2 1_555 1_555
C14 N3 1_555 1_555
C19 C20 1_555 1_555
C19 N4 1_555 1_555
C25 C26 1_555 1_555
C27 O5 1_555 1_555
C28 O6 1_555 1_555
C29 O7 1_555 1_555
C34 C35 1_555 1_555
C36 O8 1_555 1_555
C37 O9 1_555 1_555
C38 O10 1_555 1_555
C43 C44 1_555 1_555
C45 O11 1_555 1_555
C46 O12 1_555 1_555
C47 O13 1_555 1_555
C52 C53 1_555 1_555
C54 O16 1_555 1_555
C55 O15 1_555 1_555
C56 O14 1_555 1_555

#END
