
#######################################################################
#
#                 Cambridge Crystallographic Data Centre
#                                CCDC 
#
#######################################################################
#
# If this CIF has been generated from an entry in the Cambridge 
# Structural Database, then it will include bibliographic, chemical, 
# crystal, experimental, refinement or atomic coordinate data resulting 
# from the CCDC's data processing and validation procedures.
#
#######################################################################

data_SAZRES
_chemical_name_common            
'meso-Tetra(4-isopropylphenyl)-2(R),3(S),12(S),13(R)-tetrahydroxybacteriochlorin methanol solvate'
_chemical_formula_moiety         'C56 H58 N4 O4,4(C1 H4 O1)'
_chemical_name_systematic        
'meso-5,10,15,20-tetrakis(4-isopropylphenyl)-2,3,12,13-tetrahydroporphyrin-2,3,12,13-tetrol methanol solvate'
_symmetry_cell_setting           triclinic
_symmetry_space_group_name_H-M   'P -1'
_symmetry_Int_Tables_number      2
_space_group_name_Hall           '-P 1'
loop_
_symmetry_equiv_pos_site_id
_symmetry_equiv_pos_as_xyz
1 x,y,z
2 -x,-y,-z
_cell_length_a                   8.1709(10)
_cell_length_b                   11.1196(14)
_cell_length_c                   15.653(2)
_cell_angle_alpha                76.5000(17)
_cell_angle_beta                 84.6620(19)
_cell_angle_gamma                79.0700(18)
_cell_volume                     1356.03
_exptl_crystal_colour            black
_exptl_crystal_description       rod
_cell_formula_units_Z            1
loop_
_atom_site_label
_atom_site_type_symbol
_atom_site_fract_x
_atom_site_fract_y
_atom_site_fract_z
C1 C -0.23361(16) 0.58497(12) 0.84751(8)
C2 C -0.26923(17) 0.68575(12) 0.77351(9)
H1 H -0.3546 0.6954 0.7340
C3 C -0.16012(17) 0.76652(12) 0.76870(9)
H2 H -0.1561 0.8414 0.7250
C4 C -0.05346(16) 0.71944(12) 0.84034(8)
C5 C 0.08211(16) 0.77195(11) 0.85534(8)
C6 C 0.18306(15) 0.72924(11) 0.92688(8)
C7 C 0.32741(16) 0.79122(12) 0.94059(9)
H3 H 0.4287 0.7597 0.9058
C8 C 0.35393(16) 0.73781(12) 1.03904(9)
H4 H 0.4755 0.7171 1.0506
C9 C 0.27871(15) 0.61899(12) 1.05428(8)
C10 C 0.30981(15) 0.52262(12) 1.12826(8)
C11 C 0.12241(16) 0.87734(12) 0.78182(8)
C12 C 0.02568(17) 0.99645(12) 0.76846(9)
H5 H -0.0629 1.0152 0.8097
C13 C 0.05782(17) 1.08848(12) 0.69492(9)
H6 H -0.0093 1.1696 0.6867
C14 C 0.18641(16) 1.06398(12) 0.63315(8)
C15 C 0.28358(17) 0.94484(13) 0.64762(9)
H7 H 0.3729 0.9263 0.6067
C16 C 0.25250(16) 0.85250(12) 0.72073(9)
H8 H 0.3204 0.7717 0.7292
C17 C 0.21698(18) 1.16346(13) 0.55134(9)
H9 H 0.1360 1.2419 0.5553
C18 C 0.1842(2) 1.12486(16) 0.46795(10)
H10 H 0.2644 1.0497 0.4612
H11 H 0.1965 1.1934 0.4169
H12 H 0.0706 1.1067 0.4723
C19 C 0.39319(19) 1.19449(15) 0.54534(10)
H13 H 0.4090 1.2261 0.5969
H14 H 0.4076 1.2587 0.4918
H15 H 0.4756 1.1185 0.5435
C20 C 0.43164(16) 0.53012(12) 1.19230(8)
C21 C 0.60308(16) 0.51005(12) 1.17270(9)
H16 H 0.6441 0.5012 1.1153
C22 C 0.71491(16) 0.50276(12) 1.23627(9)
H17 H 0.8314 0.4894 1.2215
C23 C 0.65923(16) 0.51469(12) 1.32110(8)
C24 C 0.48787(17) 0.54085(14) 1.33902(9)
H18 H 0.4468 0.5534 1.3956
C25 C 0.37589(17) 0.54890(14) 1.27563(9)
H19 H 0.2594 0.5675 1.2894
C26 C 0.77681(16) 0.49191(13) 1.39537(9)
H20 H 0.7275 0.5489 1.4355
C27 C 0.7872(2) 0.35675(15) 1.44827(11)
H21 H 0.6747 0.3408 1.4689
H22 H 0.8555 0.3440 1.4990
H23 H 0.8381 0.2988 1.4109
C28 C 0.95090(18) 0.51970(16) 1.36397(11)
H24 H 1.0071 0.4588 1.3299
H25 H 1.0156 0.5135 1.4150
H26 H 0.9418 0.6047 1.3269
N1 N 0.17079(13) 0.62567(10) 0.99156(7)
N2 N -0.10464(13) 0.61079(10) 0.88767(7)
H33 H -0.0613 0.5644 0.9366
O1 O 0.29499(12) 0.92323(8) 0.91734(6)
H34 H 0.3852 0.9501 0.9026
O2 O 0.26613(13) 0.81840(9) 1.09325(6)
H35 H 0.1655 0.8382 1.0806
C1A C 0.23361(16) 0.41503(12) 1.15249(8)
C2A C 0.26923(17) 0.31425(12) 1.22649(9)
H1A H 0.3546 0.3046 1.2660
C3A C 0.16012(17) 0.23348(12) 1.23130(9)
H2A H 0.1561 0.1586 1.2750
C4A C 0.05346(16) 0.28056(12) 1.15966(8)
C5A C -0.08211(16) 0.22805(11) 1.14466(8)
C6A C -0.18306(15) 0.27076(11) 1.07312(8)
C7A C -0.32741(16) 0.20878(12) 1.05941(9)
H3A H -0.4287 0.2403 1.0942
C8A C -0.35393(16) 0.26219(12) 0.96096(9)
H4A H -0.4755 0.2829 0.9494
C9A C -0.27871(15) 0.38101(12) 0.94572(8)
C10A C -0.30981(15) 0.47738(12) 0.87174(8)
C11A C -0.12241(16) 0.12266(12) 1.21818(8)
C12A C -0.02568(17) 0.00355(12) 1.23154(9)
H5A H 0.0629 -0.0152 1.1903
C13A C -0.05782(17) -0.08848(12) 1.30508(9)
H6A H 0.0093 -0.1696 1.3133
C14A C -0.18641(16) -0.06398(12) 1.36685(8)
C15A C -0.28358(17) 0.05516(13) 1.35238(9)
H7A H -0.3729 0.0737 1.3933
C16A C -0.25250(16) 0.14750(12) 1.27927(9)
H8A H -0.3204 0.2283 1.2708
C17A C -0.21698(18) -0.16346(13) 1.44866(9)
H9A H -0.1360 -0.2419 1.4447
C18A C -0.1842(2) -0.12486(16) 1.53205(10)
H10A H -0.2644 -0.0497 1.5388
H11A H -0.1965 -0.1934 1.5831
H12A H -0.0706 -0.1067 1.5277
C19A C -0.39319(19) -0.19449(15) 1.45466(10)
H13A H -0.4090 -0.2261 1.4031
H14A H -0.4076 -0.2587 1.5082
H15A H -0.4756 -0.1185 1.4565
C20A C -0.43164(16) 0.46988(12) 0.80770(8)
C21A C -0.60308(16) 0.48995(12) 0.82730(9)
H16A H -0.6441 0.4988 0.8847
C22A C -0.71491(16) 0.49724(12) 0.76373(9)
H17A H -0.8314 0.5106 0.7785
C23A C -0.65923(16) 0.48531(12) 0.67890(8)
C24A C -0.48787(17) 0.45915(14) 0.66098(9)
H18A H -0.4468 0.4466 0.6044
C25A C -0.37589(17) 0.45110(14) 0.72437(9)
H19A H -0.2594 0.4325 0.7106
C26A C -0.77681(16) 0.50809(13) 0.60463(9)
H20A H -0.7275 0.4511 0.5645
C27A C -0.7872(2) 0.64325(15) 0.55173(11)
H21A H -0.6747 0.6592 0.5311
H22A H -0.8555 0.6560 0.5010
H23A H -0.8381 0.7012 0.5891
C28A C -0.95090(18) 0.48030(16) 0.63603(11)
H24A H -1.0071 0.5412 0.6701
H25A H -1.0156 0.4865 0.5850
H26A H -0.9418 0.3953 0.6731
N1A N -0.17079(13) 0.37433(10) 1.00844(7)
N2A N 0.10464(13) 0.38921(10) 1.11233(7)
H33A H 0.0613 0.4356 1.0634
O1A O -0.29499(12) 0.07677(8) 1.08266(6)
H34A H -0.3852 0.0499 1.0974
O2A O -0.26613(13) 0.18160(9) 0.90675(6)
H35A H -0.1655 0.1618 0.9194
C29 C 0.4548(2) 0.91434(17) 0.22911(10)
H27 H 0.5451 0.9427 0.2519
H28 H 0.4846 0.8241 0.2314
H29 H 0.3518 0.9307 0.2651
O3 O 0.42987(13) 0.98030(10) 0.14068(7)
H36 H 0.3789 0.9404 0.1157
C30 C 0.8378(3) 0.79098(18) 0.08153(19)
H30 H 0.7901 0.7963 0.1406
H31 H 0.9021 0.7066 0.0831
H32 H 0.7477 0.8077 0.0409
O4 O 0.94342(13) 0.88024(10) 0.05273(8)
H37 H 0.8904 0.9518 0.0556
loop_
_geom_bond_atom_site_label_1
_geom_bond_atom_site_label_2
_geom_bond_site_symmetry_1
_geom_bond_site_symmetry_2
C1 C2 1_555 1_555
C2 H1 1_555 1_555
C3 C2 1_555 1_555
H2 C3 1_555 1_555
C4 C3 1_555 1_555
C5 C4 1_555 1_555
C6 C5 1_555 1_555
C7 C6 1_555 1_555
H3 C7 1_555 1_555
C8 C7 1_555 1_555
H4 C8 1_555 1_555
C9 C8 1_555 1_555
C10 C9 1_555 1_555
C11 C5 1_555 1_555
C12 C11 1_555 1_555
H5 C12 1_555 1_555
C13 C12 1_555 1_555
H6 C13 1_555 1_555
C14 C13 1_555 1_555
C15 C14 1_555 1_555
H7 C15 1_555 1_555
C16 C11 1_555 1_555
H8 C16 1_555 1_555
C17 C14 1_555 1_555
H9 C17 1_555 1_555
C18 C17 1_555 1_555
H10 C18 1_555 1_555
H11 C18 1_555 1_555
H12 C18 1_555 1_555
C19 C17 1_555 1_555
H13 C19 1_555 1_555
H14 C19 1_555 1_555
H15 C19 1_555 1_555
C20 C10 1_555 1_555
C21 C20 1_555 1_555
H16 C21 1_555 1_555
C22 C21 1_555 1_555
H17 C22 1_555 1_555
C23 C22 1_555 1_555
C24 C23 1_555 1_555
H18 C24 1_555 1_555
C25 C20 1_555 1_555
H19 C25 1_555 1_555
C26 C23 1_555 1_555
H20 C26 1_555 1_555
C27 C26 1_555 1_555
H21 C27 1_555 1_555
H22 C27 1_555 1_555
H23 C27 1_555 1_555
C28 C26 1_555 1_555
H24 C28 1_555 1_555
H25 C28 1_555 1_555
H26 C28 1_555 1_555
C29 H27 1_555 1_555
H28 C29 1_555 1_555
H29 C29 1_555 1_555
C30 H30 1_555 1_555
H31 C30 1_555 1_555
H32 C30 1_555 1_555
N1 C6 1_555 1_555
N2 C1 1_555 1_555
H33 N2 1_555 1_555
O1 C7 1_555 1_555
H34 O1 1_555 1_555
O2 C8 1_555 1_555
H35 O2 1_555 1_555
O3 C29 1_555 1_555
H36 O3 1_555 1_555
O4 C30 1_555 1_555
H37 O4 1_555 1_555
C1A C10 1_555 1_555
C2A C1A 1_555 1_555
H1A C2A 1_555 1_555
C3A C2A 1_555 1_555
H2A C3A 1_555 1_555
C4A C3A 1_555 1_555
C5A C4A 1_555 1_555
C6A C5A 1_555 1_555
C7A C6A 1_555 1_555
H3A C7A 1_555 1_555
C8A C7A 1_555 1_555
H4A C8A 1_555 1_555
C9A C8A 1_555 1_555
C10A C1 1_555 1_555
C11A C5A 1_555 1_555
C12A C11A 1_555 1_555
H5A C12A 1_555 1_555
C13A C12A 1_555 1_555
H6A C13A 1_555 1_555
C14A C13A 1_555 1_555
C15A C14A 1_555 1_555
H7A C15A 1_555 1_555
C16A C11A 1_555 1_555
H8A C16A 1_555 1_555
C17A C14A 1_555 1_555
H9A C17A 1_555 1_555
C18A C17A 1_555 1_555
H10A C18A 1_555 1_555
H11A C18A 1_555 1_555
H12A C18A 1_555 1_555
C19A C17A 1_555 1_555
H13A C19A 1_555 1_555
H14A C19A 1_555 1_555
H15A C19A 1_555 1_555
C20A C10A 1_555 1_555
C21A C20A 1_555 1_555
H16A C21A 1_555 1_555
C22A C21A 1_555 1_555
H17A C22A 1_555 1_555
C23A C22A 1_555 1_555
C24A C23A 1_555 1_555
H18A C24A 1_555 1_555
C25A C20A 1_555 1_555
H19A C25A 1_555 1_555
C26A C23A 1_555 1_555
H20A C26A 1_555 1_555
C27A C26A 1_555 1_555
H21A C27A 1_555 1_555
H22A C27A 1_555 1_555
H23A C27A 1_555 1_555
C28A C26A 1_555 1_555
H24A C28A 1_555 1_555
H25A C28A 1_555 1_555
H26A C28A 1_555 1_555
N1A C6A 1_555 1_555
N2A C1A 1_555 1_555
H33A N2A 1_555 1_555
O1A C7A 1_555 1_555
H34A O1A 1_555 1_555
O2A C8A 1_555 1_555
H35A O2A 1_555 1_555
C4 N2 1_555 1_555
C9 N1 1_555 1_555
C15 C16 1_555 1_555
C24 C25 1_555 1_555
C4A N2A 1_555 1_555
C9A C10A 1_555 1_555
C9A N1A 1_555 1_555
C15A C16A 1_555 1_555
C24A C25A 1_555 1_555

#END
