
#######################################################################
#
#                 Cambridge Crystallographic Data Centre
#                                CCDC 
#
#######################################################################
#
# If this CIF has been generated from an entry in the Cambridge 
# Structural Database, then it will include bibliographic, chemical, 
# crystal, experimental, refinement or atomic coordinate data resulting 
# from the CCDC's data processing and validation procedures.
#
#######################################################################

data_SAZROC
_chemical_formula_moiety         'C46 H36 N4 O2'
_chemical_name_systematic        
2,3-Dimethoxy-5,10,15,20-tetraphenyl-2,3-dihydroporphyrin
_symmetry_cell_setting           monoclinic
_symmetry_space_group_name_H-M   'P 21/n'
_symmetry_Int_Tables_number      14
_space_group_name_Hall           '-P 2yn'
loop_
_symmetry_equiv_pos_site_id
_symmetry_equiv_pos_as_xyz
1 x,y,z
2 1/2-x,1/2+y,1/2-z
3 -x,-y,-z
4 1/2+x,1/2-y,1/2+z
_cell_length_a                   14.3828(4)
_cell_length_b                   10.2429(3)
_cell_length_c                   24.0675(7)
_cell_angle_alpha                90
_cell_angle_beta                 98.0890(10)
_cell_angle_gamma                90
_cell_volume                     3510.39
_exptl_crystal_colour            'dark purple'
_exptl_crystal_description       'triangular plate'
_cell_formula_units_Z            4
loop_
_atom_site_label
_atom_site_type_symbol
_atom_site_fract_x
_atom_site_fract_y
_atom_site_fract_z
N1 N 0.00420(8) 0.59254(12) 0.10175(5)
O1 O -0.20575(7) 0.72623(11) 0.07228(5)
C1 C -0.05710(10) 0.63811(14) 0.05780(6)
O2 O -0.20808(7) 0.54587(11) 0.15440(5)
C2 C -0.15893(10) 0.60805(15) 0.06342(6)
H1 H -0.1906 0.5622 0.0292
N2 N 0.16368(8) 0.52695(13) 0.19082(5)
H2 H 0.1616 0.5726 0.1615
C3 C -0.14818(10) 0.51602(15) 0.11477(6)
H3 H -0.1608 0.4244 0.1014
N3 N 0.29362(8) 0.62674(12) 0.11806(5)
C4 C -0.04433(10) 0.52884(14) 0.13772(6)
N4 N 0.14112(8) 0.70573(12) 0.03275(5)
H4 H 0.1516 0.6753 0.0665
C5 C -0.00609(10) 0.47242(15) 0.18878(6)
C6 C 0.08978(10) 0.46999(15) 0.21157(6)
C7 C 0.12840(11) 0.39812(16) 0.26025(7)
H5 H 0.0937 0.3500 0.2841
C8 C 0.22371(11) 0.41062(16) 0.26652(7)
H6 H 0.2669 0.3715 0.2952
C9 C 0.24757(10) 0.49221(15) 0.22271(6)
C10 C 0.33730(10) 0.52426(15) 0.21129(6)
C11 C 0.35751(10) 0.59191(15) 0.16324(6)
C12 C 0.45160(10) 0.63091(16) 0.15498(6)
H7 H 0.5074 0.6199 0.1808
C13 C 0.44465(10) 0.68568(16) 0.10375(6)
H8 H 0.4945 0.7201 0.0862
C14 C 0.34588(10) 0.68168(15) 0.08068(6)
C15 C 0.31067(10) 0.72906(15) 0.02683(6)
C16 C 0.21556(10) 0.74119(14) 0.00542(6)
C17 C 0.17560(11) 0.79388(15) -0.04721(6)
H9 H 0.2094 0.8261 -0.0755
C18 C 0.08009(11) 0.79007(15) -0.04999(6)
H10 H 0.0362 0.8202 -0.0805
C19 C 0.05726(10) 0.73366(14) 0.00027(6)
C20 C -0.03382(10) 0.70720(14) 0.01205(6)
C21 C -0.30126(12) 0.7292(2) 0.04740(9)
H11 H -0.3049 0.7214 0.0066
H12 H -0.3297 0.8119 0.0567
H13 H -0.3351 0.6564 0.0618
C22 C -0.29025(11) 0.46595(19) 0.15005(8)
H14 H -0.2725 0.3741 0.1471
H15 H -0.3335 0.4909 0.1166
H16 H -0.3211 0.4780 0.1835
C23 C -0.06992(10) 0.40100(16) 0.22260(6)
C24 C -0.09869(12) 0.45936(18) 0.26967(7)
H17 H -0.0766 0.5441 0.2808
C25 C -0.15895(13) 0.3951(2) 0.30028(8)
H18 H -0.1788 0.4363 0.3320
C26 C -0.19055(12) 0.2708(2) 0.28500(8)
H19 H -0.2326 0.2270 0.3058
C27 C -0.16073(12) 0.21075(19) 0.23938(8)
H20 H -0.1813 0.1248 0.2292
C28 C -0.10058(11) 0.27568(17) 0.20807(7)
H21 H -0.0805 0.2338 0.1766
C29 C 0.41832(10) 0.47218(15) 0.25089(6)
C30 C 0.43043(11) 0.50239(17) 0.30786(7)
H22 H 0.3882 0.5607 0.3222
C31 C 0.50420(12) 0.44743(18) 0.34393(7)
H23 H 0.5109 0.4665 0.3829
C32 C 0.56766(12) 0.36549(18) 0.32352(8)
H24 H 0.6185 0.3296 0.3482
C33 C 0.55685(12) 0.33599(18) 0.26697(8)
H25 H 0.6006 0.2800 0.2527
C34 C 0.48245(11) 0.38778(17) 0.23108(7)
H26 H 0.4749 0.3656 0.1924
C35 C 0.37978(10) 0.76772(16) -0.01122(6)
C36 C 0.43858(11) 0.67325(19) -0.02955(7)
H27 H 0.4356 0.5859 -0.0167
C37 C 0.50112(12) 0.7053(2) -0.06620(7)
H28 H 0.5407 0.6401 -0.0784
C38 C 0.50580(13) 0.8319(2) -0.08491(8)
H29 H 0.5480 0.8538 -0.1105
C39 C 0.44926(14) 0.9270(2) -0.06647(9)
H30 H 0.4534 1.0145 -0.0790
C40 C 0.38658(12) 0.89527(19) -0.02981(8)
H31 H 0.3480 0.9612 -0.0173
C41 C -0.11146(10) 0.76002(15) -0.03063(6)
C42 C -0.13303(11) 0.89233(16) -0.03120(7)
H32 H -0.1001 0.9484 -0.0037
C43 C -0.20206(11) 0.94350(17) -0.07137(7)
H33 H -0.2159 1.0342 -0.0714
C44 C -0.25051(11) 0.86288(17) -0.11121(7)
H34 H -0.2975 0.8979 -0.1389
C45 C -0.23057(12) 0.73080(18) -0.11077(7)
H35 H -0.2645 0.6748 -0.1379
C46 C -0.16102(12) 0.67973(17) -0.07073(7)
H36 H -0.1473 0.5890 -0.0708
loop_
_geom_bond_atom_site_label_1
_geom_bond_atom_site_label_2
_geom_bond_site_symmetry_1
_geom_bond_site_symmetry_2
N1 C1 1_555 1_555
O1 C2 1_555 1_555
C1 C2 1_555 1_555
O2 C3 1_555 1_555
C2 H1 1_555 1_555
N2 H2 1_555 1_555
C3 C2 1_555 1_555
H3 C3 1_555 1_555
N3 C11 1_555 1_555
C4 N1 1_555 1_555
N4 H4 1_555 1_555
C5 C4 1_555 1_555
C6 N2 1_555 1_555
C7 C6 1_555 1_555
H5 C7 1_555 1_555
C8 C7 1_555 1_555
H6 C8 1_555 1_555
C9 N2 1_555 1_555
C10 C9 1_555 1_555
C11 C10 1_555 1_555
C12 C11 1_555 1_555
H7 C12 1_555 1_555
C13 C12 1_555 1_555
H8 C13 1_555 1_555
C14 N3 1_555 1_555
C15 C14 1_555 1_555
C16 N4 1_555 1_555
C17 C16 1_555 1_555
H9 C17 1_555 1_555
C18 C17 1_555 1_555
H10 C18 1_555 1_555
C19 N4 1_555 1_555
C20 C1 1_555 1_555
C21 O1 1_555 1_555
H11 C21 1_555 1_555
H12 C21 1_555 1_555
H13 C21 1_555 1_555
C22 O2 1_555 1_555
H14 C22 1_555 1_555
H15 C22 1_555 1_555
H16 C22 1_555 1_555
C23 C5 1_555 1_555
C24 C23 1_555 1_555
H17 C24 1_555 1_555
C25 C24 1_555 1_555
H18 C25 1_555 1_555
C26 C25 1_555 1_555
H19 C26 1_555 1_555
C27 C26 1_555 1_555
H20 C27 1_555 1_555
C28 C23 1_555 1_555
H21 C28 1_555 1_555
C29 C10 1_555 1_555
C30 C29 1_555 1_555
H22 C30 1_555 1_555
C31 C30 1_555 1_555
H23 C31 1_555 1_555
C32 C31 1_555 1_555
H24 C32 1_555 1_555
C33 C32 1_555 1_555
H25 C33 1_555 1_555
C34 C29 1_555 1_555
H26 C34 1_555 1_555
C35 C15 1_555 1_555
C36 C35 1_555 1_555
H27 C36 1_555 1_555
C37 C36 1_555 1_555
H28 C37 1_555 1_555
C38 C37 1_555 1_555
H29 C38 1_555 1_555
C39 C38 1_555 1_555
H30 C39 1_555 1_555
C40 C35 1_555 1_555
H31 C40 1_555 1_555
C41 C20 1_555 1_555
C42 C41 1_555 1_555
H32 C42 1_555 1_555
C43 C42 1_555 1_555
H33 C43 1_555 1_555
C44 C43 1_555 1_555
H34 C44 1_555 1_555
C45 C44 1_555 1_555
H35 C45 1_555 1_555
C46 C41 1_555 1_555
H36 C46 1_555 1_555
C3 C4 1_555 1_555
C5 C6 1_555 1_555
C8 C9 1_555 1_555
C13 C14 1_555 1_555
C15 C16 1_555 1_555
C18 C19 1_555 1_555
C19 C20 1_555 1_555
C27 C28 1_555 1_555
C33 C34 1_555 1_555
C39 C40 1_555 1_555
C45 C46 1_555 1_555

#END
