
#######################################################################
#
#                 Cambridge Crystallographic Data Centre
#                                CCDC 
#
#######################################################################
#
# If this CIF has been generated from an entry in the Cambridge 
# Structural Database, then it will include bibliographic, chemical, 
# crystal, experimental, refinement or atomic coordinate data resulting 
# from the CCDC's data processing and validation procedures.
#
#######################################################################

data_SAZVIB
_chemical_formula_moiety         'C22 H28 N4'
_chemical_name_systematic        
6,6,10,10-tetramethyl-4-(pyridin-4-yl)-5,7,8,9,10,10a-hexahydro-6H-6a,9-methanobenzo[h]quinazolin-2-amine
_symmetry_cell_setting           triclinic
_symmetry_space_group_name_H-M   'P -1'
_symmetry_Int_Tables_number      2
_space_group_name_Hall           '-P 1'
loop_
_symmetry_equiv_pos_site_id
_symmetry_equiv_pos_as_xyz
1 x,y,z
2 -x,-y,-z
_cell_length_a                   7.6253(3)
_cell_length_b                   10.0149(4)
_cell_length_c                   12.9039(5)
_cell_angle_alpha                95.695(2)
_cell_angle_beta                 93.482(2)
_cell_angle_gamma                97.522(2)
_cell_volume                     969.407
_cell_formula_units_Z            2
loop_
_atom_site_label
_atom_site_type_symbol
_atom_site_fract_x
_atom_site_fract_y
_atom_site_fract_z
N1 N 0.3799(3) 0.18555(19) 0.15438(15)
N2 N 0.2081(3) -0.02354(19) 0.08118(15)
N3 N 0.1277(3) 0.1816(2) 0.04617(17)
H1 H 0.0366 0.1374 0.0063
H2 H 0.1446 0.2707 0.0536
C1 C 0.3069(3) -0.0880(2) 0.14293(18)
C2 C 0.4752(3) 0.1170(2) 0.21425(17)
C3 C 0.4389(3) -0.0231(2) 0.21701(18)
C4 C 0.7511(3) 0.1201(3) 0.34341(19)
C5 C 0.6361(3) 0.2001(2) 0.27435(18)
H3 H 0.7139 0.2380 0.2217
C6 C 0.2402(3) 0.1134(2) 0.09532(18)
C7 C 0.5481(3) -0.0960(3) 0.2874(2)
H4 H 0.5426 -0.1913 0.2570
H5 H 0.4967 -0.0963 0.3560
C8 C 0.7429(3) -0.0311(3) 0.30369(19)
C9 C 0.2671(3) -0.2392(2) 0.1244(2)
C10 C 0.8376(4) -0.1089(3) 0.3820(2)
H6 H 0.7844 -0.0995 0.4492
H7 H 0.9637 -0.0720 0.3916
H8 H 0.8251 -0.2050 0.3552
C11 C 0.4051(4) 0.3162(3) 0.3789(2)
H9 H 0.3909 0.3956 0.4269
H10 H 0.3724 0.2337 0.4123
H11 H 0.3281 0.3142 0.3149
N4 N 0.1900(3) -0.5206(2) 0.0831(2)
C12 C 0.9381(3) 0.2030(3) 0.3565(2)
H12 H 0.9769 0.2289 0.2885
H13 H 1.0259 0.1510 0.3876
C13 C 0.6866(4) 0.1545(3) 0.45293(19)
H14 H 0.5603 0.1190 0.4578
H15 H 0.7612 0.1246 0.5094
C14 C 0.5983(3) 0.3244(3) 0.3517(2)
C15 C 0.9148(4) 0.3293(3) 0.4309(2)
H16 H 0.9889 0.3339 0.4972
H17 H 0.9462 0.4135 0.3980
C16 C 0.1924(4) -0.3157(3) 0.1972(3)
H18 H 0.1667 -0.2740 0.2628
C17 C 0.7174(4) 0.3075(3) 0.4493(2)
H19 H 0.6877 0.3601 0.5144
C18 C 0.8288(4) -0.0470(3) 0.2006(2)
H20 H 0.7701 0.0021 0.1496
H21 H 0.8169 -0.1432 0.1744
H22 H 0.9548 -0.0099 0.2114
C19 C 0.6450(4) 0.4592(3) 0.3062(2)
H23 H 0.6203 0.5337 0.3559
H24 H 0.5734 0.4582 0.2404
H25 H 0.7711 0.4716 0.2933
C20 C 0.3041(5) -0.3060(3) 0.0311(2)
H26 H 0.3563 -0.2570 -0.0212
C21 C 0.1553(4) -0.4551(3) 0.1730(3)
H27 H 0.1020 -0.5069 0.2234
C22 C 0.2636(5) -0.4454(3) 0.0154(3)
H28 H 0.2910 -0.4900 -0.0488
loop_
_geom_bond_atom_site_label_1
_geom_bond_atom_site_label_2
_geom_bond_site_symmetry_1
_geom_bond_site_symmetry_2
N1 C2 1_555 1_555
N2 C1 1_555 1_555
N3 H1 1_555 1_555
H2 N3 1_555 1_555
C1 C3 1_555 1_555
C2 C3 1_555 1_555
C3 C7 1_555 1_555
C4 C5 1_555 1_555
C5 C2 1_555 1_555
H3 C5 1_555 1_555
C6 N1 1_555 1_555
C7 H4 1_555 1_555
H5 C7 1_555 1_555
C8 C4 1_555 1_555
C9 C1 1_555 1_555
C10 C8 1_555 1_555
H6 C10 1_555 1_555
H7 C10 1_555 1_555
H8 C10 1_555 1_555
C11 H9 1_555 1_555
H10 C11 1_555 1_555
H11 C11 1_555 1_555
N4 C21 1_555 1_555
C12 C4 1_555 1_555
H12 C12 1_555 1_555
H13 C12 1_555 1_555
C13 C4 1_555 1_555
H14 C13 1_555 1_555
H15 C13 1_555 1_555
C14 C5 1_555 1_555
C15 C12 1_555 1_555
H16 C15 1_555 1_555
H17 C15 1_555 1_555
C16 C9 1_555 1_555
H18 C16 1_555 1_555
C17 C13 1_555 1_555
H19 C17 1_555 1_555
C18 C8 1_555 1_555
H20 C18 1_555 1_555
H21 C18 1_555 1_555
H22 C18 1_555 1_555
C19 C14 1_555 1_555
H23 C19 1_555 1_555
H24 C19 1_555 1_555
H25 C19 1_555 1_555
C20 C9 1_555 1_555
H26 C20 1_555 1_555
C21 C16 1_555 1_555
H27 C21 1_555 1_555
C22 N4 1_555 1_555
H28 C22 1_555 1_555
N2 C6 1_555 1_555
N3 C6 1_555 1_555
C7 C8 1_555 1_555
C11 C14 1_555 1_555
C14 C17 1_555 1_555
C15 C17 1_555 1_555
C20 C22 1_555 1_555

#END
