
#######################################################################
#
#                 Cambridge Crystallographic Data Centre
#                                CCDC 
#
#######################################################################
#
# If this CIF has been generated from an entry in the Cambridge 
# Structural Database, then it will include bibliographic, chemical, 
# crystal, experimental, refinement or atomic coordinate data resulting 
# from the CCDC's data processing and validation procedures.
#
#######################################################################

data_SAZYUN
_chemical_compound_source        'Fritillaria thunbergii Miq'
_chemical_formula_moiety         'C27 H43 N1 O2,H2 O1'
_chemical_name_systematic        
'11-Hydroxy-2,5,13a-trimethyl-perhydrobenzo(i)fluoreno(2,1-b)quinolizin-9-one monohydrate'
_symmetry_cell_setting           orthorhombic
_symmetry_space_group_name_H-M   'P 21 21 21'
_symmetry_Int_Tables_number      19
_space_group_name_Hall           'P 2ac 2ab'
loop_
_symmetry_equiv_pos_site_id
_symmetry_equiv_pos_as_xyz
1 x,y,z
2 1/2+x,1/2-y,-z
3 -x,1/2+y,1/2-z
4 1/2-x,-y,1/2+z
_cell_length_a                   8.526(2)
_cell_length_b                   9.970(2)
_cell_length_c                   29.787(6)
_cell_angle_alpha                90
_cell_angle_beta                 90
_cell_angle_gamma                90
_cell_volume                     2532.02
_exptl_crystal_colour            colorless
_chemical_melting_point          120deg.C
_cell_formula_units_Z            4
loop_
_atom_site_label
_atom_site_type_symbol
_atom_site_fract_x
_atom_site_fract_y
_atom_site_fract_z
O1 O 0.5734(7) 1.1814(6) 0.5759(2)
O2 O 1.0934(7) 1.0095(6) 0.5144(2)
N1 N 0.6718(7) 0.4276(6) 0.3249(2)
C1 C 0.5582(9) 0.9928(8) 0.4668(3)
C2 C 0.5067(9) 1.0381(9) 0.5127(3)
C3 C 0.6160(9) 1.1423(7) 0.5315(2)
C4 C 0.7839(8) 1.0925(7) 0.5329(2)
C5 C 0.8350(8) 1.0511(6) 0.4859(2)
C6 C 1.0069(9) 1.0096(7) 0.4828(3)
C7 C 1.0611(8) 0.9698(8) 0.4356(3)
C8 C 0.9502(8) 0.8744(6) 0.4127(2)
C9 C 0.7811(8) 0.9207(6) 0.4168(2)
C10 C 0.7281(8) 0.9409(6) 0.4657(2)
C11 C 0.6906(9) 0.8288(7) 0.3862(2)
C12 C 0.8089(9) 0.7841(7) 0.3496(2)
C13 C 0.8219(8) 0.6315(7) 0.3465(2)
C14 C 0.9668(9) 0.8536(7) 0.3621(3)
C15 C 1.1136(9) 0.7864(8) 0.3445(3)
C16 C 1.1109(9) 0.6347(8) 0.3443(3)
C17 C 0.9645(9) 0.5830(8) 0.3210(2)
C18 C 0.6727(9) 0.5732(8) 0.3268(2)
C19 C 0.742(1) 0.8084(8) 0.4924(3)
C20 C 0.9620(8) 0.4294(7) 0.3147(2)
C21 C 1.092 0.386(1) 0.2820(3)
C22 C 0.8032(9) 0.3763(8) 0.2977(2)
C23 C 0.797(1) 0.2245(8) 0.2965(3)
C24 C 0.642(1) 0.1726(9) 0.2780(3)
C25 C 0.499(1) 0.2345(8) 0.3023(3)
C26 C 0.5229(9) 0.3847(9) 0.3049(3)
C27 C 0.466(1) 0.169(1) 0.3462(4)
H1 H 0.4843 1.1781 0.5791
O3 O 0.7383(7) 1.3352(6) 0.4137(2)
H2 H 0.7099 1.3661 0.4348
H3 H 0.7110 1.3578 0.3806
loop_
_geom_bond_atom_site_label_1
_geom_bond_atom_site_label_2
_geom_bond_site_symmetry_1
_geom_bond_site_symmetry_2
O1 C3 1_555 1_555
O2 C6 1_555 1_555
O3 H2 1_555 1_555
N1 C18 1_555 1_555
C1 C2 1_555 1_555
C2 C3 1_555 1_555
C3 C4 1_555 1_555
C4 C5 1_555 1_555
C5 C6 1_555 1_555
C6 C7 1_555 1_555
C7 C8 1_555 1_555
C8 C9 1_555 1_555
C9 C10 1_555 1_555
C10 C1 1_555 1_555
C11 C9 1_555 1_555
C12 C11 1_555 1_555
C13 C12 1_555 1_555
C14 C8 1_555 1_555
C15 C14 1_555 1_555
C16 C15 1_555 1_555
C17 C13 1_555 1_555
C18 C13 1_555 1_555
C19 C10 1_555 1_555
C20 C17 1_555 1_555
C21 C20 1_555 1_555
C22 N1 1_555 1_555
C23 C22 1_555 1_555
C24 C23 1_555 1_555
C25 C24 1_555 1_555
C26 N1 1_555 1_555
C27 C25 1_555 1_555
H1 O1 1_555 1_555
H3 O3 1_555 1_555
C5 C10 1_555 1_555
C12 C14 1_555 1_555
C16 C17 1_555 1_555
C20 C22 1_555 1_555
C25 C26 1_555 1_555

#END
