
#######################################################################
#
#                 Cambridge Crystallographic Data Centre
#                                CCDC 
#
#######################################################################
#
# If this CIF has been generated from an entry in the Cambridge 
# Structural Database, then it will include bibliographic, chemical, 
# crystal, experimental, refinement or atomic coordinate data resulting 
# from the CCDC's data processing and validation procedures.
#
#######################################################################

data_SBTHAZ12
_chemical_formula_moiety         'C7 H5 N1 S2'
_chemical_name_systematic        2-Mercaptobenzothiazole
_symmetry_cell_setting           monoclinic
_symmetry_space_group_name_H-M   'P 21/n'
_symmetry_Int_Tables_number      14
_space_group_name_Hall           '-P 2yn'
loop_
_symmetry_equiv_pos_site_id
_symmetry_equiv_pos_as_xyz
1 x,y,z
2 1/2-x,1/2+y,1/2-z
3 -x,-y,-z
4 1/2+x,1/2-y,1/2+z
_cell_length_a                   8.028(3)
_cell_length_b                   6.000(2)
_cell_length_c                   15.385(5)
_cell_angle_alpha                90
_cell_angle_beta                 100.750(5)
_cell_angle_gamma                90
_cell_volume                     728.059
_cell_formula_units_Z            4
loop_
_atom_site_label
_atom_site_type_symbol
_atom_site_fract_x
_atom_site_fract_y
_atom_site_fract_z
N1 N 0.5467(2) 0.2583(3) 0.42468(12)
S1 S 0.32162(7) 0.50627(10) 0.33801(4)
S2 S 0.23650(7) 0.08190(10) 0.42189(4)
C1 C 0.3773(2) 0.2662(3) 0.40006(13)
C2 C 0.6377(3) 0.4315(3) 0.39654(12)
C3 C 0.5321(3) 0.5885(3) 0.34751(12)
C4 C 0.5989(3) 0.7755(4) 0.31411(15)
C5 C 0.7720(3) 0.8018(4) 0.33000(15)
C6 C 0.8767(3) 0.6422(4) 0.37716(15)
C7 C 0.8126(3) 0.4549(4) 0.41096(15)
H1 H 0.591(3) 0.152(4) 0.4593(14)
H2 H 0.527(3) 0.877(4) 0.2800(14)
H3 H 0.815(3) 0.919(4) 0.3063(15)
H4 H 0.990(2) 0.660(3) 0.3862(12)
H5 H 0.882(3) 0.343(3) 0.4454(13)
loop_
_geom_bond_atom_site_label_1
_geom_bond_atom_site_label_2
_geom_bond_site_symmetry_1
_geom_bond_site_symmetry_2
N1 C1 1_555 1_555
S1 C1 1_555 1_555
S2 C1 1_555 1_555
C2 N1 1_555 1_555
C3 S1 1_555 1_555
C4 C3 1_555 1_555
C5 C4 1_555 1_555
C6 C5 1_555 1_555
C7 C2 1_555 1_555
H1 N1 1_555 1_555
H2 C4 1_555 1_555
H3 C5 1_555 1_555
H4 C6 1_555 1_555
H5 C7 1_555 1_555
C2 C3 1_555 1_555
C6 C7 1_555 1_555

#END
