
#######################################################################
#
#                 Cambridge Crystallographic Data Centre
#                                CCDC 
#
#######################################################################
#
# If this CIF has been generated from an entry in the Cambridge 
# Structural Database, then it will include bibliographic, chemical, 
# crystal, experimental, refinement or atomic coordinate data resulting 
# from the CCDC's data processing and validation procedures.
#
#######################################################################

data_SDPPCX
_chemical_formula_moiety         'C16 H14 O2'
_chemical_name_systematic        
'S-(+)-2,2-Diphenyl-cyclopropanecarboxylic acid'
_symmetry_cell_setting           monoclinic
_symmetry_space_group_name_H-M   'P 21'
_symmetry_Int_Tables_number      4
_space_group_name_Hall           'P 2yb'
loop_
_symmetry_equiv_pos_site_id
_symmetry_equiv_pos_as_xyz
1 x,y,z
2 -x,1/2+y,-z
_cell_length_a                   14.657(5)
_cell_length_b                   6.238(2)
_cell_length_c                   7.967(3)
_cell_angle_alpha                90
_cell_angle_beta                 117.25(3)
_cell_angle_gamma                90
_cell_volume                     647.583
_cell_formula_units_Z            2
loop_
_atom_site_label
_atom_site_type_symbol
_atom_site_fract_x
_atom_site_fract_y
_atom_site_fract_z
C1 C 0.23780 0.07200 0.21690
C2 C 0.28460 0.21430 0.11930
C3 C 0.25770 0.30780 0.26190
C4 C 0.39710 0.17650 0.17940
C5 C 0.43330 -0.01720 0.15250
C6 C 0.53600 -0.04700 0.19840
C7 C 0.60360 0.11500 0.27470
C8 C 0.57030 0.30810 0.30430
C9 C 0.46700 0.34450 0.25760
C10 C 0.22210 0.26860 -0.08700
C11 C 0.20700 0.11760 -0.22320
C12 C 0.15090 0.16700 -0.41420
C13 C 0.10980 0.36720 -0.46980
C14 C 0.12490 0.51870 -0.33610
C15 C 0.18080 0.46970 -0.14550
C16 C 0.13100 -0.00270 0.11740
O1 O 0.05930 0.10230 0.00990
O2 O 0.12100 -0.20240 0.16040
H1 H 0.28000 -0.02200 0.30200
H2 H 0.31200 0.35700 0.38900
H3 H 0.19500 0.39400 0.22700
H4 H 0.39300 -0.13400 0.11200
H5 H 0.55900 -0.17900 0.18400
H6 H 0.67900 0.07700 0.30900
H7 H 0.61100 0.42600 0.35500
H8 H 0.43900 0.46500 0.28700
H9 H 0.23700 -0.02400 -0.19300
H10 H 0.14500 0.05400 -0.49800
H11 H 0.06500 0.42100 -0.61900
H12 H 0.09700 0.66800 -0.35800
H13 H 0.18700 0.56400 -0.05200
H14 H 0.05200 -0.25200 0.10800
loop_
_geom_bond_atom_site_label_1
_geom_bond_atom_site_label_2
_geom_bond_site_symmetry_1
_geom_bond_site_symmetry_2
C1 C2 1_555 1_555
C2 C3 1_555 1_555
C3 C1 1_555 1_555
C4 C2 1_555 1_555
C5 C4 1_555 1_555
C6 C5 1_555 1_555
C7 C6 1_555 1_555
C8 C7 1_555 1_555
C9 C4 1_555 1_555
C10 C2 1_555 1_555
C11 C10 1_555 1_555
C12 C11 1_555 1_555
C13 C12 1_555 1_555
C14 C13 1_555 1_555
C15 C10 1_555 1_555
C16 C1 1_555 1_555
O1 C16 1_555 1_555
O2 C16 1_555 1_555
H1 C1 1_555 1_555
H2 C3 1_555 1_555
H3 C3 1_555 1_555
H4 C5 1_555 1_555
H5 C6 1_555 1_555
H6 C7 1_555 1_555
H7 C8 1_555 1_555
H8 C9 1_555 1_555
H9 C11 1_555 1_555
H10 C12 1_555 1_555
H11 C13 1_555 1_555
H12 C14 1_555 1_555
H13 C15 1_555 1_555
H14 O2 1_555 1_555
C8 C9 1_555 1_555
C14 C15 1_555 1_555

#END
