
#######################################################################
#
#                 Cambridge Crystallographic Data Centre
#                                CCDC 
#
#######################################################################
#
# If this CIF has been generated from an entry in the Cambridge 
# Structural Database, then it will include bibliographic, chemical, 
# crystal, experimental, refinement or atomic coordinate data resulting 
# from the CCDC's data processing and validation procedures.
#
#######################################################################

data_SEBAAC03
_chemical_name_common            'Octane-1,8-dicarboxylic acid'
_chemical_formula_moiety         'C10 H18 O4'
_chemical_name_systematic        'Sebacic acid'
_symmetry_cell_setting           monoclinic
_symmetry_space_group_name_H-M   'P 21/c'
_symmetry_Int_Tables_number      14
_space_group_name_Hall           '-P 2ybc'
loop_
_symmetry_equiv_pos_site_id
_symmetry_equiv_pos_as_xyz
1 x,y,z
2 -x,1/2+y,1/2-z
3 -x,-y,-z
4 x,1/2-y,1/2+z
_cell_length_a                   10.9197(7)
_cell_length_b                   4.9876(6)
_cell_length_c                   9.9640(10)
_cell_angle_alpha                90
_cell_angle_beta                 92.273(6)
_cell_angle_gamma                90
_cell_volume                     542.243
_exptl_crystal_colour            colorless
_exptl_crystal_description       plate
_chemical_melting_point          406-408K
_cell_formula_units_Z            2
_exptl_crystal_recrystallization_method ethanol
loop_
_atom_site_label
_atom_site_type_symbol
_atom_site_fract_x
_atom_site_fract_y
_atom_site_fract_z
O1 O 0.12859(9) 0.4028(2) 0.92528(12)
O2 O 0.01144(9) 0.7593(3) 0.88045(12)
H1 H -0.042(2) 0.685(6) 0.959(3)
C1 C 0.10498(13) 0.6043(4) 0.85865(16)
C2 C 0.18124(13) 0.6970(4) 0.74613(16)
H2 H 0.2144 0.8767 0.7691
H3 H 0.1273 0.7166 0.6645
C3 C 0.28703(13) 0.5157(3) 0.71336(16)
H4 H 0.2551 0.3343 0.6919
H5 H 0.3434 0.5007 0.7933
C4 C 0.35752(14) 0.6183(4) 0.59603(18)
H6 H 0.3005 0.6314 0.5166
H7 H 0.3870 0.8017 0.6174
C5 C 0.46563(15) 0.4497(4) 0.55935(18)
H8 H 0.4364 0.2655 0.5395
H9 H 0.5235 0.4395 0.6382
C5B C 0.53437(15) 0.5503(4) 0.44065(18)
C4B C 0.64248(14) 0.3817(4) 0.40397(18)
C3B C 0.71297(13) 0.4843(3) 0.28664(16)
C2B C 0.81876(13) 0.3030(4) 0.25387(16)
C1B C 0.89502(13) 0.3957(4) 0.14135(16)
O1B O 0.87141(9) 0.5972(2) 0.07472(12)
O2B O 0.98856(9) 0.2407(3) 0.11955(12)
H1B H 1.042(2) 0.315(6) 0.041(3)
H2B H 0.7856 0.1233 0.2309
H3B H 0.8727 0.2834 0.3355
H4B H 0.7449 0.6657 0.3081
H5B H 0.6566 0.4993 0.2067
H6B H 0.6995 0.3686 0.4834
H7B H 0.6130 0.1983 0.3826
H8B H 0.5636 0.7345 0.4605
H9B H 0.4765 0.5605 0.3618
loop_
_geom_bond_atom_site_label_1
_geom_bond_atom_site_label_2
_geom_bond_site_symmetry_1
_geom_bond_site_symmetry_2
O1 C1 1_555 1_555
O2 H1 1_555 1_555
C1 O2 1_555 1_555
C2 C1 1_555 1_555
H2 C2 1_555 1_555
H3 C2 1_555 1_555
C3 C2 1_555 1_555
H4 C3 1_555 1_555
H5 C3 1_555 1_555
C4 C3 1_555 1_555
H6 C4 1_555 1_555
H7 C4 1_555 1_555
C5 C4 1_555 1_555
H8 C5 1_555 1_555
H9 C5 1_555 1_555
C5B C5 1_555 1_555
C4B C5B 1_555 1_555
C3B C4B 1_555 1_555
C2B C3B 1_555 1_555
C1B C2B 1_555 1_555
O1B C1B 1_555 1_555
O2B C1B 1_555 1_555
H1B O2B 1_555 1_555
H2B C2B 1_555 1_555
H3B C2B 1_555 1_555
H4B C3B 1_555 1_555
H5B C3B 1_555 1_555
H6B C4B 1_555 1_555
H7B C4B 1_555 1_555
H8B C5B 1_555 1_555
H9B C5B 1_555 1_555

#END
