
#######################################################################
#
#                 Cambridge Crystallographic Data Centre
#                                CCDC 
#
#######################################################################
#
# If this CIF has been generated from an entry in the Cambridge 
# Structural Database, then it will include bibliographic, chemical, 
# crystal, experimental, refinement or atomic coordinate data resulting 
# from the CCDC's data processing and validation procedures.
#
#######################################################################

data_SEBGOV
_chemical_formula_moiety         'C36 H42 Si2,2(C3 H6 O1)'
_chemical_name_systematic        
'4b,5,9b,10-Tetrahydro-4b,9b-dimesityl-2,4,7,9-tetramethyl-4b,9b-disilaindeno(2,1-a)indene acetone solvate'
_symmetry_cell_setting           monoclinic
_symmetry_space_group_name_H-M   'C 2/c'
_symmetry_Int_Tables_number      15
_space_group_name_Hall           '-C 2yn'
loop_
_symmetry_equiv_pos_site_id
_symmetry_equiv_pos_as_xyz
1 x,y,z
2 1/2+x,1/2+y,z
3 -x,y,1/2-z
4 1/2-x,1/2+y,1/2-z
5 -x,-y,-z
6 1/2-x,1/2-y,-z
7 x,-y,1/2+z
8 1/2+x,1/2-y,1/2+z
_cell_length_a                   20.267(6)
_cell_length_b                   10.427(3)
_cell_length_c                   18.654(6)
_cell_angle_alpha                90
_cell_angle_beta                 107.70(2)
_cell_angle_gamma                90
_cell_volume                     3755.43
_cell_formula_units_Z            4
loop_
_atom_site_label
_atom_site_type_symbol
_atom_site_fract_x
_atom_site_fract_y
_atom_site_fract_z
Si1 Si 0.4449(1) 0.2206(1) 0.2078(1)
C1 C 0.4151(2) 0.3450(4) 0.2642(2)
C2 C 0.3524(2) 0.4131(4) 0.2396(2)
C3 C 0.3365(2) 0.5028(4) 0.2853(2)
C4 C 0.3797(2) 0.5304(4) 0.3563(3)
C5 C 0.4417(2) 0.4645(4) 0.3805(2)
C6 C 0.4595(2) 0.3745(4) 0.3359(2)
C7 C 0.4709(2) 0.3023(4) 0.1309(2)
C8 C 0.3841(2) 0.0795(4) 0.1805(2)
C9 C 0.3430(2) 0.0502(4) 0.1065(2)
C10 C 0.2987(2) -0.0539(4) 0.0931(3)
C11 C 0.2923(2) -0.1306(4) 0.1501(3)
C12 C 0.3315(2) -0.1035(4) 0.2218(3)
C13 C 0.3769(2) 0.0009(4) 0.2383(2)
C14 C 0.3023(2) 0.3898(4) 0.1621(3)
C15 C 0.3613(2) 0.6272(4) 0.4060(3)
C16 C 0.3443(3) 0.1280(5) 0.0390(3)
C17 C 0.2426(3) -0.2427(4) 0.1320(3)
C18 C 0.4167(2) 0.0234(5) 0.3200(2)
H1 H 0.2933 0.5478 0.2674
H2 H 0.4730 0.4817 0.4296
H3 H 0.4422 0.3041 0.0794
H4 H 0.2716 -0.0729 0.0423
H5 H 0.3276 -0.1573 0.2621
H6 H 0.3207 0.3248 0.1370
H7 H 0.2960 0.4678 0.1335
H8 H 0.2586 0.3619 0.1665
H9 H 0.3169 0.6636 0.3803
H10 H 0.3956 0.6939 0.4181
H11 H 0.3594 0.5863 0.4514
H12 H 0.3766 0.1973 0.0549
H13 H 0.2989 0.1620 0.0148
H14 H 0.3582 0.0745 0.0042
H15 H 0.2442 -0.2867 0.1777
H16 H 0.2555 -0.3007 0.0987
H17 H 0.1964 -0.2119 0.1084
H18 H 0.4460 0.0971 0.3240
H19 H 0.4446 -0.0505 0.3397
H20 H 0.3848 0.0379 0.3481
Si1B Si 0.5551(1) 0.2206(1) 0.2922(1)
C7B C 0.5291(2) 0.3023(4) 0.3691(2)
C6B C 0.5405(2) 0.3745(4) 0.1641(2)
C1B C 0.5849(2) 0.3450(4) 0.2358(2)
C8B C 0.6159(2) 0.0795(4) 0.3195(2)
H3B H 0.5578 0.3041 0.4206
C5B C 0.5583(2) 0.4645(4) 0.1195(2)
C2B C 0.6476(2) 0.4131(4) 0.2604(2)
C9B C 0.6570(2) 0.0502(4) 0.3935(2)
C13B C 0.6231(2) 0.0009(4) 0.2617(2)
C4B C 0.6203(2) 0.5304(4) 0.1437(3)
H2B H 0.5270 0.4817 0.0704
C3B C 0.6635(2) 0.5028(4) 0.2147(2)
C14B C 0.6977(2) 0.3898(4) 0.3379(3)
C10B C 0.7013(2) -0.0539(4) 0.4069(3)
C16B C 0.6557(3) 0.1280(5) 0.4610(3)
C12B C 0.6685(2) -0.1035(4) 0.2782(3)
C18B C 0.5833(2) 0.0234(5) 0.1800(2)
C15B C 0.6387(2) 0.6272(4) 0.0940(3)
H1B H 0.7067 0.5478 0.2326
H6B H 0.6793 0.3248 0.3630
H7B H 0.7040 0.4678 0.3665
H8B H 0.7414 0.3619 0.3335
C11B C 0.7077(2) -0.1306(4) 0.3499(3)
H4B H 0.7284 -0.0729 0.4577
H12B H 0.6234 0.1973 0.4451
H13B H 0.7011 0.1620 0.4852
H14B H 0.6418 0.0745 0.4958
H5B H 0.6724 -0.1573 0.2379
H18B H 0.5540 0.0971 0.1760
H19B H 0.5554 -0.0505 0.1603
H20B H 0.6152 0.0379 0.1519
H9B H 0.6831 0.6636 0.1197
H10B H 0.6044 0.6939 0.0819
H11B H 0.6406 0.5863 0.0486
C17B C 0.7574(3) -0.2427(4) 0.3680(3)
H15B H 0.7558 -0.2867 0.3223
H16B H 0.7445 -0.3007 0.4013
H17B H 0.8036 -0.2119 0.3916
C19 C 0.5845(3) -0.3106(7) 0.4240(4)
C20 C 0.5610(3) -0.2155(6) 0.4698(4)
C21 C 0.5539(3) -0.3038(6) 0.3426(3)
O1 O 0.6273(3) -0.3903(5) 0.4531(3)
H21 H 0.5271 -0.1600 0.4372
H22 H 0.5997 -0.1655 0.4986
H23 H 0.5407 -0.2593 0.5032
H24 H 0.5213 -0.2343 0.3306
H25 H 0.5305 -0.3828 0.3243
H26 H 0.5895 -0.2892 0.3194
H27? H 0.5182 0.3178 0.1333
loop_
_geom_bond_atom_site_label_1
_geom_bond_atom_site_label_2
_geom_bond_site_symmetry_1
_geom_bond_site_symmetry_2
Si1 C1 1_555 1_555
C1 C2 1_555 1_555
C2 C3 1_555 1_555
C3 C4 1_555 1_555
C4 C5 1_555 1_555
C5 C6 1_555 1_555
C6 C1 1_555 1_555
C7 Si1 1_555 1_555
C8 Si1 1_555 1_555
C9 C8 1_555 1_555
C10 C9 1_555 1_555
C11 C10 1_555 1_555
C12 C11 1_555 1_555
C13 C8 1_555 1_555
C14 C2 1_555 1_555
C15 C4 1_555 1_555
C16 C9 1_555 1_555
C17 C11 1_555 1_555
C18 C13 1_555 1_555
H1 C3 1_555 1_555
H2 C5 1_555 1_555
H3 C7 1_555 1_555
H4 C10 1_555 1_555
H5 C12 1_555 1_555
H6 C14 1_555 1_555
H7 C14 1_555 1_555
H8 C14 1_555 1_555
H9 C15 1_555 1_555
H10 C15 1_555 1_555
H11 C15 1_555 1_555
H12 C16 1_555 1_555
H13 C16 1_555 1_555
H14 C16 1_555 1_555
H15 C17 1_555 1_555
H16 C17 1_555 1_555
H17 C17 1_555 1_555
H18 C18 1_555 1_555
H19 C18 1_555 1_555
H20 C18 1_555 1_555
C19 C20 1_555 1_555
C20 H21 1_555 1_555
C21 C19 1_555 1_555
O1 C19 1_555 1_555
H22 C20 1_555 1_555
H23 C20 1_555 1_555
H24 C21 1_555 1_555
H25 C21 1_555 1_555
H26 C21 1_555 1_555
Si1B Si1 1_555 1_555
C7B C6 1_555 1_555
C6B C7 1_555 1_555
C1B Si1B 1_555 1_555
C8B Si1B 1_555 1_555
H3B C7B 1_555 1_555
C5B C6B 1_555 1_555
C2B C1B 1_555 1_555
C9B C8B 1_555 1_555
C13B C8B 1_555 1_555
C4B C5B 1_555 1_555
H2B C5B 1_555 1_555
C3B C2B 1_555 1_555
C14B C2B 1_555 1_555
C10B C9B 1_555 1_555
C16B C9B 1_555 1_555
C12B C13B 1_555 1_555
C18B C13B 1_555 1_555
C15B C4B 1_555 1_555
H1B C3B 1_555 1_555
H6B C14B 1_555 1_555
H7B C14B 1_555 1_555
H8B C14B 1_555 1_555
C11B C10B 1_555 1_555
H4B C10B 1_555 1_555
H12B C16B 1_555 1_555
H13B C16B 1_555 1_555
H14B C16B 1_555 1_555
H5B C12B 1_555 1_555
H18B C18B 1_555 1_555
H19B C18B 1_555 1_555
H20B C18B 1_555 1_555
H9B C15B 1_555 1_555
H10B C15B 1_555 1_555
H11B C15B 1_555 1_555
C17B C11B 1_555 1_555
H15B C17B 1_555 1_555
H16B C17B 1_555 1_555
H17B C17B 1_555 1_555
C12 C13 1_555 1_555
Si1B C7B 1_555 1_555
C6B C1B 1_555 1_555
C4B C3B 1_555 1_555
C12B C11B 1_555 1_555

#END
