
#######################################################################
#
#                 Cambridge Crystallographic Data Centre
#                                CCDC 
#
#######################################################################
#
# If this CIF has been generated from an entry in the Cambridge 
# Structural Database, then it will include bibliographic, chemical, 
# crystal, experimental, refinement or atomic coordinate data resulting 
# from the CCDC's data processing and validation procedures.
#
#######################################################################

data_SEBJER
_chemical_formula_moiety         
'C10 H12 N3 1+,C10 H11 N3,C6 H2 Cl3 O1 1-,H2 O1'
_chemical_name_systematic        
'2-amino-5,7-dimethyl-1,8-naphthyridin-1-ium 2,4,6-trichlorophenolate 5,7-dimethyl-1,8-naphthyridin-2-amine'
_symmetry_cell_setting           triclinic
_symmetry_space_group_name_H-M   'P -1'
_symmetry_Int_Tables_number      2
_space_group_name_Hall           '-P 1'
loop_
_symmetry_equiv_pos_site_id
_symmetry_equiv_pos_as_xyz
1 x,y,z
2 -x,-y,-z
_cell_length_a                   8.4910(8)
_cell_length_b                   12.5631(11)
_cell_length_c                   13.5634(12)
_cell_angle_alpha                78.2670(10)
_cell_angle_beta                 86.002(2)
_cell_angle_gamma                71.2830(10)
_cell_volume                     1341.69
_exptl_crystal_colour            colorless
_exptl_crystal_description       block
_cell_formula_units_Z            2
loop_
_atom_site_label
_atom_site_type_symbol
_atom_site_fract_x
_atom_site_fract_y
_atom_site_fract_z
Cl1 Cl 0.0706(3) 0.09790(18) 0.33117(17)
Cl2 Cl 0.2175(4) 0.2419(2) -0.05637(19)
Cl3 Cl 0.7120(3) -0.0023(2) 0.20499(19)
O1 O 0.4381(6) -0.0023(4) 0.3544(4)
C1 C 0.3905(10) 0.0525(5) 0.2644(6)
C2 C 0.2168(10) 0.1072(6) 0.2379(6)
C3 C 0.1659(11) 0.1650(6) 0.1412(7)
H1 H 0.0533 0.2004 0.1275
C4 C 0.2808(14) 0.1700(7) 0.0660(7)
C5 C 0.4485(12) 0.1171(6) 0.0850(6)
H2 H 0.5255 0.1192 0.0330
C6 C 0.5019(10) 0.0608(6) 0.1816(6)
N1 N 0.5422(7) 0.4792(5) 0.3019(4)
H3 H 0.5763 0.5085 0.3449
N2 N 0.4070(7) 0.6636(5) 0.2188(4)
N3 N 0.6748(8) 0.2970(5) 0.3900(5)
H4 H 0.7077 0.3257 0.4341
H5 H 0.7010 0.2239 0.3962
C7 C 0.5831(9) 0.3661(6) 0.3119(6)
C8 C 0.5274(10) 0.3155(6) 0.2399(7)
H6 H 0.5570 0.2363 0.2480
C9 C 0.4338(10) 0.3819(6) 0.1619(6)
H7 H 0.3994 0.3489 0.1155
C10 C 0.3863(9) 0.5039(6) 0.1497(5)
C11 C 0.4455(8) 0.5488(6) 0.2225(5)
C12 C 0.3131(10) 0.7333(6) 0.1431(6)
C13 C 0.2531(10) 0.6959(6) 0.0681(6)
H8 H 0.1883 0.7491 0.0166
C14 C 0.2893(10) 0.5804(7) 0.0696(6)
C15 C 0.2658(11) 0.8619(6) 0.1428(6)
H9 H 0.1913 0.8803 0.1979
H10 H 0.2123 0.9045 0.0805
H11 H 0.3644 0.8814 0.1500
C16 C 0.2220(10) 0.5386(7) -0.0117(6)
H12 H 0.1321 0.5106 0.0155
H13 H 0.3091 0.4780 -0.0344
H14 H 0.1825 0.6008 -0.0675
N4 N 0.6637(6) 0.5808(4) 0.4535(4)
N5 N 0.8026(7) 0.3976(5) 0.5346(4)
N6 N 0.5280(7) 0.7599(4) 0.3645(5)
H15 H 0.4905 0.7287 0.3245
H16 H 0.5022 0.8333 0.3551
C17 C 0.6229(9) 0.6967(6) 0.4386(5)
C18 C 0.6864(9) 0.7459(6) 0.5076(5)
H17 H 0.6567 0.8251 0.5003
C19 C 0.7887(9) 0.6779(6) 0.5827(5)
H18 H 0.8289 0.7116 0.6262
C20 C 0.8373(8) 0.5559(5) 0.5979(5)
C21 C 0.7676(8) 0.5103(5) 0.5300(5)
C22 C 0.9073(9) 0.3240(6) 0.6051(5)
C23 C 0.9797(9) 0.3638(6) 0.6738(6)
H19 H 1.0526 0.3109 0.7218
C24 C 0.9466(9) 0.4783(6) 0.6724(5)
C25 C 0.9438(9) 0.1986(6) 0.6067(6)
H20 H 0.8422 0.1796 0.6166
H21 H 1.0190 0.1549 0.6607
H22 H 0.9936 0.1810 0.5438
C26 C 1.0261(9) 0.5195(7) 0.7454(6)
H23 H 0.9418 0.5611 0.7867
H24 H 1.0855 0.5688 0.7092
H25 H 1.1020 0.4551 0.7872
O2 O 0.6928(6) 0.0541(4) 0.4472(4)
H26 H 0.6250 0.0399 0.4125
H27 H 0.6650 0.0411 0.5088
loop_
_geom_bond_atom_site_label_1
_geom_bond_atom_site_label_2
_geom_bond_site_symmetry_1
_geom_bond_site_symmetry_2
Cl1 C2 1_555 1_555
Cl2 C4 1_555 1_555
Cl3 C6 1_555 1_555
O1 C1 1_555 1_555
C1 C2 1_555 1_555
C2 C3 1_555 1_555
C3 H1 1_555 1_555
C4 C3 1_555 1_555
C5 C4 1_555 1_555
H2 C5 1_555 1_555
C6 C1 1_555 1_555
N1 H3 1_555 1_555
N2 C11 1_555 1_555
N3 H4 1_555 1_555
H5 N3 1_555 1_555
C7 N1 1_555 1_555
C8 C7 1_555 1_555
H6 C8 1_555 1_555
C9 C8 1_555 1_555
H7 C9 1_555 1_555
C10 C9 1_555 1_555
C11 N1 1_555 1_555
C12 N2 1_555 1_555
C13 C12 1_555 1_555
H8 C13 1_555 1_555
C14 C10 1_555 1_555
C15 C12 1_555 1_555
H9 C15 1_555 1_555
H10 C15 1_555 1_555
H11 C15 1_555 1_555
C16 C14 1_555 1_555
H12 C16 1_555 1_555
H13 C16 1_555 1_555
H14 C16 1_555 1_555
N4 C17 1_555 1_555
N5 C21 1_555 1_555
N6 H15 1_555 1_555
H16 N6 1_555 1_555
C17 N6 1_555 1_555
C18 C17 1_555 1_555
H17 C18 1_555 1_555
C19 C18 1_555 1_555
H18 C19 1_555 1_555
C20 C19 1_555 1_555
C21 N4 1_555 1_555
C22 N5 1_555 1_555
C23 C22 1_555 1_555
H19 C23 1_555 1_555
C24 C20 1_555 1_555
C25 C22 1_555 1_555
H20 C25 1_555 1_555
H21 C25 1_555 1_555
H22 C25 1_555 1_555
C26 C24 1_555 1_555
H23 C26 1_555 1_555
H24 C26 1_555 1_555
H25 C26 1_555 1_555
O2 H26 1_555 1_555
H27 O2 1_555 1_555
C5 C6 1_555 1_555
N3 C7 1_555 1_555
C10 C11 1_555 1_555
C13 C14 1_555 1_555
C20 C21 1_555 1_555
C23 C24 1_555 1_555

#END
