
#######################################################################
#
#                 Cambridge Crystallographic Data Centre
#                                CCDC 
#
#######################################################################
#
# If this CIF has been generated from an entry in the Cambridge 
# Structural Database, then it will include bibliographic, chemical, 
# crystal, experimental, refinement or atomic coordinate data resulting 
# from the CCDC's data processing and validation procedures.
#
#######################################################################

data_SEBKUI
_chemical_formula_moiety         'C10 H12 N3 1+,C8 H4 N1 O6 1-'
_chemical_name_systematic        
'2-amino-5,7-dimethyl-1,8-naphthyridin-1-ium 3-carboxy-5-nitrobenzoate'
_symmetry_cell_setting           monoclinic
_symmetry_space_group_name_H-M   'P 21'
_symmetry_Int_Tables_number      4
_space_group_name_Hall           'P 2yb'
loop_
_symmetry_equiv_pos_site_id
_symmetry_equiv_pos_as_xyz
1 x,y,z
2 -x,1/2+y,-z
_cell_length_a                   7.6383(8)
_cell_length_b                   7.1941(6)
_cell_length_c                   16.3952(15)
_cell_angle_alpha                90
_cell_angle_beta                 91.390(2)
_cell_angle_gamma                90
_cell_volume                     900.663
_exptl_crystal_colour            colorless
_exptl_crystal_description       block
_cell_formula_units_Z            2
loop_
_atom_site_label
_atom_site_type_symbol
_atom_site_fract_x
_atom_site_fract_y
_atom_site_fract_z
N1 N 0.4101(7) 0.2844(9) 0.2035(4)
H1 H 0.4590 0.3895 0.2143
N2 N 0.3846(7) 0.2479(10) 0.3454(4)
N3 N 0.4455(7) 0.3454(10) 0.0648(4)
H2 H 0.4953 0.4495 0.0766
H3 H 0.4315 0.3122 0.0147
C1 C 0.3897(9) 0.2353(12) 0.1244(5)
C2 C 0.3082(9) 0.0555(12) 0.1066(5)
H4 H 0.2922 0.0159 0.0529
C3 C 0.2564(9) -0.0527(11) 0.1691(5)
H5 H 0.2043 -0.1663 0.1565
C4 C 0.2767(8) -0.0032(11) 0.2533(4)
C5 C 0.3559(9) 0.1733(11) 0.2700(4)
C6 C 0.3308(10) 0.1447(13) 0.4077(5)
C7 C 0.2520(10) -0.0334(13) 0.3990(5)
H6 H 0.2183 -0.0994 0.4448
C8 C 0.2257(9) -0.1081(13) 0.3216(5)
C9 C 0.3584(12) 0.2302(16) 0.4938(5)
H7 H 0.3723 0.3624 0.4891
H8 H 0.4614 0.1777 0.5193
H9 H 0.2585 0.2036 0.5262
C10 C 0.1505(11) -0.3017(13) 0.3115(5)
H10 H 0.2422 -0.3918 0.3188
H11 H 0.0989 -0.3142 0.2578
H12 H 0.0626 -0.3217 0.3515
N4 N 0.8368(9) 0.2093(12) 0.3763(4)
O1 O 1.0010(7) 0.4816(8) 0.1041(3)
H13 H 1.0359 0.5403 0.0648
O2 O 0.9347(6) 0.2670(8) 0.0068(3)
O3 O 0.5917(7) -0.3785(8) 0.2288(3)
O4 O 0.6173(6) -0.3132(8) 0.0944(3)
O5 O 0.7898(9) 0.1034(10) 0.4303(4)
O6 O 0.8993(10) 0.3631(10) 0.3901(4)
C11 C 0.9381(9) 0.3161(11) 0.0788(4)
C12 C 0.6399(9) -0.2780(13) 0.1709(5)
C13 C 0.8724(8) 0.2001(11) 0.1481(4)
C14 C 0.7956(8) 0.0247(11) 0.1297(4)
H14 H 0.7889 -0.0157 0.0758
C15 C 0.7293(8) -0.0892(10) 0.1918(4)
C16 C 0.7444(9) -0.0307(11) 0.2737(4)
H15 H 0.7047 -0.1050 0.3158
C17 C 0.8212(9) 0.1435(11) 0.2896(4)
C18 C 0.8835(8) 0.2582(10) 0.2303(4)
H16 H 0.9323 0.3728 0.2439
loop_
_geom_bond_atom_site_label_1
_geom_bond_atom_site_label_2
_geom_bond_site_symmetry_1
_geom_bond_site_symmetry_2
N1 H1 1_555 1_555
N2 C5 1_555 1_555
N3 H2 1_555 1_555
H3 N3 1_555 1_555
C1 N1 1_555 1_555
C2 C1 1_555 1_555
H4 C2 1_555 1_555
C3 C2 1_555 1_555
H5 C3 1_555 1_555
C4 C3 1_555 1_555
C5 N1 1_555 1_555
C6 N2 1_555 1_555
C7 C6 1_555 1_555
H6 C7 1_555 1_555
C8 C4 1_555 1_555
C9 C6 1_555 1_555
H7 C9 1_555 1_555
H8 C9 1_555 1_555
H9 C9 1_555 1_555
C10 C8 1_555 1_555
H10 C10 1_555 1_555
H11 C10 1_555 1_555
H12 C10 1_555 1_555
N4 O5 1_555 1_555
O1 H13 1_555 1_555
O2 C11 1_555 1_555
O3 C12 1_555 1_555
O4 C12 1_555 1_555
O6 N4 1_555 1_555
C11 O1 1_555 1_555
C12 C15 1_555 1_555
C13 C11 1_555 1_555
C14 C13 1_555 1_555
H14 C14 1_555 1_555
C15 C14 1_555 1_555
C16 C15 1_555 1_555
H15 C16 1_555 1_555
C17 N4 1_555 1_555
C18 C13 1_555 1_555
H16 C18 1_555 1_555
N3 C1 1_555 1_555
C4 C5 1_555 1_555
C7 C8 1_555 1_555
C16 C17 1_555 1_555
C17 C18 1_555 1_555

#END
