
#######################################################################
#
#                 Cambridge Crystallographic Data Centre
#                                CCDC 
#
#######################################################################
#
# If this CIF has been generated from an entry in the Cambridge 
# Structural Database, then it will include bibliographic, chemical, 
# crystal, experimental, refinement or atomic coordinate data resulting 
# from the CCDC's data processing and validation procedures.
#
#######################################################################

data_SEBKAO
_chemical_formula_moiety         
'C10 H12 N3 1+,C10 H11 N3,C8 H8 O2,C8 H7 O2 1-,1.5(H2 O1)'
_chemical_name_systematic        
'2-amino-5,7-dimethyl-1,8-naphthyridin-1-ium 3-methylbenzoate 5,7-dimethyl-1,8-naphthyridin-2-amine 3-methylbenzoic acid sesquihydrate'
_symmetry_cell_setting           triclinic
_symmetry_space_group_name_H-M   'P -1'
_symmetry_Int_Tables_number      2
_space_group_name_Hall           '-P 1'
loop_
_symmetry_equiv_pos_site_id
_symmetry_equiv_pos_as_xyz
1 x,y,z
2 -x,-y,-z
_cell_length_a                   12.3584(11)
_cell_length_b                   14.1746(14)
_cell_length_c                   21.029(2)
_cell_angle_alpha                71.1360(10)
_cell_angle_beta                 74.7790(10)
_cell_angle_gamma                86.655(2)
_cell_volume                     3362.2
_exptl_crystal_colour            colorless
_exptl_crystal_description       block
_cell_formula_units_Z            4
loop_
_atom_site_label
_atom_site_type_symbol
_atom_site_fract_x
_atom_site_fract_y
_atom_site_fract_z
N1 N 0.9570(3) 0.3838(3) 0.42400(18)
N2 N 1.1199(3) 0.3787(3) 0.3413(2)
N3 N 0.7997(3) 0.3882(3) 0.5089(2)
H1 H 0.8409 0.3799 0.5374
H2 H 0.7284 0.3937 0.5228
C1 C 0.8457(4) 0.3926(3) 0.4442(2)
C2 C 0.7788(4) 0.4050(4) 0.3963(3)
H3 H 0.7013 0.4093 0.4110
C3 C 0.8274(4) 0.4105(4) 0.3300(2)
H4 H 0.7830 0.4194 0.2992
C4 C 0.9450(4) 0.4031(3) 0.3062(2)
C5 C 1.0084(4) 0.3887(3) 0.3559(2)
C6 C 1.1742(4) 0.3850(4) 0.2759(3)
C7 C 1.1170(5) 0.4022(4) 0.2242(3)
H5 H 1.1576 0.4074 0.1792
C8 C 1.0032(5) 0.4117(4) 0.2380(2)
C9 C 1.2974(4) 0.3738(5) 0.2616(3)
H6 H 1.3316 0.4311 0.2643
H7 H 1.3260 0.3683 0.2159
H8 H 1.3143 0.3149 0.2955
C10 C 0.9437(5) 0.4282(5) 0.1813(3)
H9 H 0.9057 0.4903 0.1751
H10 H 0.8900 0.3746 0.1940
H11 H 0.9975 0.4301 0.1386
N4 N -0.0443(3) 0.1452(3) 0.38213(18)
H12 H -0.0088 0.1360 0.4137
N5 N 0.1240(3) 0.1396(3) 0.30442(19)
N6 N -0.2080(3) 0.1506(3) 0.4621(2)
H13 H -0.1707 0.1417 0.4927
H14 H -0.2796 0.1566 0.4734
C11 C -0.1547(4) 0.1549(4) 0.3968(2)
C12 C -0.2162(4) 0.1684(4) 0.3468(3)
H15 H -0.2936 0.1744 0.3589
C13 C -0.1620(4) 0.1726(4) 0.2814(2)
H16 H -0.2023 0.1804 0.2485
C14 C -0.0438(4) 0.1652(4) 0.2625(2)
C15 C 0.0118(4) 0.1501(3) 0.3157(2)
C16 C 0.1814(4) 0.1449(4) 0.2398(3)
C17 C 0.1339(5) 0.1602(4) 0.1852(2)
H17 H 0.1791 0.1644 0.1413
C18 C 0.0209(5) 0.1692(4) 0.1951(2)
C19 C 0.3076(5) 0.1329(5) 0.2282(3)
H18 H 0.3283 0.1285 0.2699
H19 H 0.3457 0.1895 0.1910
H20 H 0.3284 0.0733 0.2162
C20 C -0.0326(5) 0.1850(5) 0.1363(3)
H21 H 0.0228 0.1792 0.0962
H22 H -0.0633 0.2504 0.1253
H23 H -0.0914 0.1358 0.1497
N7 N 0.0950(3) 0.3610(3) 0.5249(2)
H24 H 0.0559 0.3695 0.4953
N8 N -0.0679(3) 0.3724(3) 0.6055(2)
N9 N 0.2531(3) 0.3484(3) 0.4418(2)
H25 H 0.2128 0.3563 0.4129
H26 H 0.3241 0.3405 0.4289
C21 C 0.2059(4) 0.3485(4) 0.5061(3)
C22 C 0.2717(4) 0.3356(4) 0.5538(3)
H27 H 0.3485 0.3271 0.5400
C23 C 0.2240(5) 0.3354(4) 0.6190(3)
H28 H 0.2677 0.3273 0.6502
C24 C 0.1071(4) 0.3478(4) 0.6403(3)
C25 C 0.0440(4) 0.3602(3) 0.5914(2)
C26 C -0.1202(4) 0.3721(4) 0.6691(3)
C27 C -0.0656(5) 0.3600(4) 0.7212(3)
H29 H -0.1061 0.3612 0.7649
C28 C 0.0497(5) 0.3462(4) 0.7078(3)
C29 C -0.2445(4) 0.3851(5) 0.6832(3)
H30 H -0.2599 0.4500 0.6548
H31 H -0.2749 0.3788 0.7314
H32 H -0.2782 0.3349 0.6723
C30 C 0.1082(5) 0.3319(4) 0.7639(3)
H33 H 0.0551 0.3363 0.8052
H34 H 0.1659 0.3827 0.7490
H35 H 0.1412 0.2675 0.7735
N10 N 0.0792(3) 0.1152(3) 0.49255(18)
N11 N -0.0869(3) 0.1231(3) 0.57003(19)
N12 N 0.2407(3) 0.1052(3) 0.4110(2)
H36 H 0.2018 0.1138 0.3812
H37 H 0.3119 0.0978 0.3989
C31 C 0.1916(4) 0.1034(4) 0.4744(3)
C32 C 0.2542(4) 0.0907(4) 0.5248(3)
H38 H 0.3315 0.0839 0.5126
C33 C 0.2013(5) 0.0888(4) 0.5895(3)
H39 H 0.2427 0.0800 0.6220
C34 C 0.0824(4) 0.0999(3) 0.6101(2)
C35 C 0.0234(4) 0.1124(3) 0.5597(2)
C36 C -0.1462(4) 0.1207(4) 0.6341(2)
C37 C -0.0944(5) 0.1089(4) 0.6870(3)
H40 H -0.1378 0.1079 0.7307
C38 C 0.0202(5) 0.0986(4) 0.6766(2)
C39 C -0.2694(5) 0.1327(5) 0.6442(3)
H41 H -0.2837 0.1973 0.6149
H42 H -0.3041 0.1265 0.6919
H43 H -0.3000 0.0821 0.6321
C40 C 0.0747(5) 0.0851(4) 0.7350(3)
H44 H 0.0184 0.0846 0.7764
H45 H 0.1277 0.1391 0.7225
H46 H 0.1129 0.0231 0.7432
O1 O 0.5488(4) -0.0561(5) 0.3762(3)
O2 O 0.4697(4) 0.0909(5) 0.3676(3)
C41 C 0.5295(6) 0.0325(8) 0.3436(4)
C42 C 0.5858(5) 0.0643(6) 0.2681(3)
C43 C 0.6427(5) 0.0019(6) 0.2351(3)
H47 H 0.6468 -0.0646 0.2611
C44 C 0.6960(6) 0.0324(9) 0.1634(4)
C45 C 0.6867(8) 0.1301(10) 0.1261(5)
H48 H 0.7208 0.1512 0.0786
C46 C 0.6312(7) 0.1969(8) 0.1542(5)
H49 H 0.6267 0.2628 0.1274
C47 C 0.5795(6) 0.1627(7) 0.2271(5)
H50 H 0.5401 0.2075 0.2479
C48 C 0.7590(9) -0.0335(10) 0.1303(5)
H51 H 0.7383 -0.0266 0.0882
H52 H 0.7439 -0.1009 0.1608
H53 H 0.8376 -0.0176 0.1196
O3 O 0.5196(3) 0.5028(3) 0.43806(18)
H54 H 0.4943 0.4992 0.4790
O4 O 0.4366(3) 0.6474(3) 0.4210(2)
C49 C 0.4911(5) 0.5853(5) 0.3989(3)
C50 C 0.5326(4) 0.5998(5) 0.3234(3)
C51 C 0.5583(4) 0.5215(5) 0.2985(3)
H55 H 0.5510 0.4568 0.3294
C52 C 0.5956(5) 0.5372(7) 0.2270(4)
C53 C 0.6082(6) 0.6344(9) 0.1837(4)
H56 H 0.6353 0.6462 0.1360
C54 C 0.5837(6) 0.7120(8) 0.2064(5)
H57 H 0.5931 0.7765 0.1752
C55 C 0.5442(5) 0.6961(6) 0.2766(4)
H58 H 0.5252 0.7501 0.2929
C56 C 0.6215(6) 0.4503(7) 0.2010(4)
H59 H 0.5539 0.4118 0.2117
H60 H 0.6747 0.4095 0.2229
H61 H 0.6526 0.4737 0.1515
O5 O 0.2781(4) 0.3188(4) 0.0090(3)
O6 O 0.1347(4) 0.3838(3) -0.0312(2)
C57 C 0.2177(5) 0.3870(5) -0.0021(3)
C58 C 0.2253(5) 0.4812(5) 0.0138(3)
C59 C 0.3115(5) 0.4920(5) 0.0413(3)
H62 H 0.3642 0.4425 0.0473
C60 C 0.3212(6) 0.5767(6) 0.0605(3)
C61 C 0.2386(7) 0.6477(6) 0.0511(4)
H63 H 0.2407 0.7038 0.0646
C62 C 0.1543(6) 0.6365(6) 0.0223(4)
H64 H 0.1023 0.6863 0.0146
C63 C 0.1463(5) 0.5535(5) 0.0050(3)
H65 H 0.0874 0.5453 -0.0128
C64 C 0.4183(7) 0.5916(6) 0.0877(4)
H66 H 0.4694 0.5381 0.0865
H67 H 0.3908 0.5922 0.1347
H68 H 0.4566 0.6539 0.0591
O7 O 0.0637(4) 0.8515(4) 0.0860(2)
O8 O 0.0808(3) 1.0104(3) 0.0228(2)
H69 H 0.0232 0.9973 0.0145
C65 C 0.1140(5) 0.9311(6) 0.0628(3)
C66 C 0.2191(4) 0.9441(4) 0.0824(3)
C67 C 0.2871(5) 1.0295(4) 0.0508(3)
H70 H 0.2655 1.0823 0.0171
C68 C 0.3855(5) 1.0391(5) 0.0674(3)
C69 C 0.4134(5) 0.9603(6) 0.1189(3)
H71 H 0.4788 0.9649 0.1318
C70 C 0.3471(6) 0.8760(5) 0.1513(3)
H72 H 0.3681 0.8241 0.1857
C71 C 0.2500(5) 0.8668(5) 0.1338(3)
H73 H 0.2051 0.8091 0.1562
C72 C 0.4591(5) 1.1317(5) 0.0319(3)
H74 H 0.5148 1.1234 -0.0073
H75 H 0.4953 1.1432 0.0640
H76 H 0.4141 1.1876 0.0163
O9 O 0.5578(3) 0.2081(4) 0.5135(2)
H77 H 0.5243 0.1578 0.5463
H78 H 0.5619 0.2544 0.5303
O10 O 0.4808(4) 0.2746(4) 0.3950(2)
H79 H 0.4759 0.2222 0.3845
H80 H 0.5040 0.2585 0.4316
O11 O 0.8885(4) 0.7845(3) 0.0544(2)
H81 H 0.8926 0.7279 0.0482
H82 H 0.9483 0.7958 0.0639
loop_
_geom_bond_atom_site_label_1
_geom_bond_atom_site_label_2
_geom_bond_site_symmetry_1
_geom_bond_site_symmetry_2
N1 C1 1_555 1_555
N2 C5 1_555 1_555
N3 H1 1_555 1_555
H2 N3 1_555 1_555
C1 N3 1_555 1_555
C2 C1 1_555 1_555
H3 C2 1_555 1_555
C3 C2 1_555 1_555
H4 C3 1_555 1_555
C4 C3 1_555 1_555
C5 N1 1_555 1_555
C6 N2 1_555 1_555
C7 C6 1_555 1_555
H5 C7 1_555 1_555
C8 C4 1_555 1_555
C9 C6 1_555 1_555
H6 C9 1_555 1_555
H7 C9 1_555 1_555
H8 C9 1_555 1_555
C10 C8 1_555 1_555
H9 C10 1_555 1_555
H10 C10 1_555 1_555
H11 C10 1_555 1_555
N4 H12 1_555 1_555
N5 C15 1_555 1_555
N6 H13 1_555 1_555
H14 N6 1_555 1_555
C11 N4 1_555 1_555
C12 C11 1_555 1_555
H15 C12 1_555 1_555
C13 C12 1_555 1_555
H16 C13 1_555 1_555
C14 C13 1_555 1_555
C15 N4 1_555 1_555
C16 N5 1_555 1_555
C17 C16 1_555 1_555
H17 C17 1_555 1_555
C18 C14 1_555 1_555
C19 C16 1_555 1_555
H18 C19 1_555 1_555
H19 C19 1_555 1_555
H20 C19 1_555 1_555
C20 C18 1_555 1_555
H21 C20 1_555 1_555
H22 C20 1_555 1_555
H23 C20 1_555 1_555
N7 H24 1_555 1_555
N8 C25 1_555 1_555
N9 H25 1_555 1_555
H26 N9 1_555 1_555
C21 N7 1_555 1_555
C22 C21 1_555 1_555
H27 C22 1_555 1_555
C23 C22 1_555 1_555
H28 C23 1_555 1_555
C24 C23 1_555 1_555
C25 N7 1_555 1_555
C26 N8 1_555 1_555
C27 C26 1_555 1_555
H29 C27 1_555 1_555
C28 C24 1_555 1_555
C29 C26 1_555 1_555
H30 C29 1_555 1_555
H31 C29 1_555 1_555
H32 C29 1_555 1_555
C30 C28 1_555 1_555
H33 C30 1_555 1_555
H34 C30 1_555 1_555
H35 C30 1_555 1_555
N10 C31 1_555 1_555
N11 C35 1_555 1_555
N12 H36 1_555 1_555
H37 N12 1_555 1_555
C31 N12 1_555 1_555
C32 C31 1_555 1_555
H38 C32 1_555 1_555
C33 C32 1_555 1_555
H39 C33 1_555 1_555
C34 C33 1_555 1_555
C35 N10 1_555 1_555
C36 N11 1_555 1_555
C37 C36 1_555 1_555
H40 C37 1_555 1_555
C38 C34 1_555 1_555
C39 C36 1_555 1_555
H41 C39 1_555 1_555
H42 C39 1_555 1_555
H43 C39 1_555 1_555
C40 C38 1_555 1_555
H44 C40 1_555 1_555
H45 C40 1_555 1_555
H46 C40 1_555 1_555
O1 C41 1_555 1_555
O2 C41 1_555 1_555
C41 C42 1_555 1_555
C42 C43 1_555 1_555
C43 H47 1_555 1_555
C44 C43 1_555 1_555
C45 C44 1_555 1_555
H48 C45 1_555 1_555
C46 C45 1_555 1_555
H49 C46 1_555 1_555
C47 C42 1_555 1_555
H50 C47 1_555 1_555
C48 C44 1_555 1_555
H51 C48 1_555 1_555
H52 C48 1_555 1_555
H53 C48 1_555 1_555
O3 H54 1_555 1_555
O4 C49 1_555 1_555
C49 O3 1_555 1_555
C50 C49 1_555 1_555
C51 C50 1_555 1_555
H55 C51 1_555 1_555
C52 C51 1_555 1_555
C53 C52 1_555 1_555
H56 C53 1_555 1_555
C54 C53 1_555 1_555
H57 C54 1_555 1_555
C55 C50 1_555 1_555
H58 C55 1_555 1_555
C56 C52 1_555 1_555
H59 C56 1_555 1_555
H60 C56 1_555 1_555
H61 C56 1_555 1_555
O5 C57 1_555 1_555
O6 C57 1_555 1_555
C57 C58 1_555 1_555
C58 C59 1_555 1_555
C59 H62 1_555 1_555
C60 C59 1_555 1_555
C61 C60 1_555 1_555
H63 C61 1_555 1_555
C62 C61 1_555 1_555
H64 C62 1_555 1_555
C63 C58 1_555 1_555
H65 C63 1_555 1_555
C64 C60 1_555 1_555
H66 C64 1_555 1_555
H67 C64 1_555 1_555
H68 C64 1_555 1_555
O7 C65 1_555 1_555
O8 H69 1_555 1_555
C65 O8 1_555 1_555
C66 C65 1_555 1_555
C67 C66 1_555 1_555
H70 C67 1_555 1_555
C68 C67 1_555 1_555
C69 C68 1_555 1_555
H71 C69 1_555 1_555
C70 C69 1_555 1_555
H72 C70 1_555 1_555
C71 C66 1_555 1_555
H73 C71 1_555 1_555
C72 C68 1_555 1_555
H74 C72 1_555 1_555
H75 C72 1_555 1_555
H76 C72 1_555 1_555
O9 H77 1_555 1_555
H78 O9 1_555 1_555
O10 H79 1_555 1_555
H80 O10 1_555 1_555
O11 H81 1_555 1_555
H82 O11 1_555 1_555
C4 C5 1_555 1_555
C7 C8 1_555 1_555
N6 C11 1_555 1_555
C14 C15 1_555 1_555
C17 C18 1_555 1_555
N9 C21 1_555 1_555
C24 C25 1_555 1_555
C27 C28 1_555 1_555
C34 C35 1_555 1_555
C37 C38 1_555 1_555
C46 C47 1_555 1_555
C54 C55 1_555 1_555
C62 C63 1_555 1_555
C70 C71 1_555 1_555

#END
