
#######################################################################
#
#                 Cambridge Crystallographic Data Centre
#                                CCDC 
#
#######################################################################
#
# If this CIF has been generated from an entry in the Cambridge 
# Structural Database, then it will include bibliographic, chemical, 
# crystal, experimental, refinement or atomic coordinate data resulting 
# from the CCDC's data processing and validation procedures.
#
#######################################################################

data_SEBKIW
_chemical_formula_moiety         'C10 H11 O5 1-,C10 H12 N3 1+,H2 O1'
_chemical_name_systematic        
'2-amino-5,7-dimethyl-1,8-naphthyridin-1-ium 3,4,5-trimethoxybenzoate monohydrate'
_symmetry_cell_setting           monoclinic
_symmetry_space_group_name_H-M   'C c'
_symmetry_Int_Tables_number      9
_space_group_name_Hall           'C -2yc'
loop_
_symmetry_equiv_pos_site_id
_symmetry_equiv_pos_as_xyz
1 x,y,z
2 x,-y,1/2+z
3 1/2+x,1/2+y,z
4 1/2+x,1/2-y,1/2+z
_cell_length_a                   10.4500(9)
_cell_length_b                   11.3461(11)
_cell_length_c                   16.9359(14)
_cell_angle_alpha                90
_cell_angle_beta                 90.1260(10)
_cell_angle_gamma                90
_cell_volume                     2008.03
_exptl_crystal_colour            colorless
_exptl_crystal_description       block
_cell_formula_units_Z            4
loop_
_atom_site_label
_atom_site_type_symbol
_atom_site_fract_x
_atom_site_fract_y
_atom_site_fract_z
N1 N 0.3733(3) 0.5722(3) 0.22168(19)
H1 H 0.3071 0.5460 0.1970
N2 N 0.4629(3) 0.6081(3) 0.0998(2)
N3 N 0.2715(3) 0.5327(3) 0.3385(2)
H2 H 0.2064 0.5065 0.3127
H3 H 0.2707 0.5329 0.3893
C1 C 0.3721(4) 0.5724(3) 0.3004(2)
C2 C 0.4806(4) 0.6178(3) 0.3420(3)
H4 H 0.4804 0.6206 0.3969
C3 C 0.5822(4) 0.6560(3) 0.3018(3)
H5 H 0.6530 0.6836 0.3295
C4 C 0.5849(3) 0.6556(3) 0.2179(2)
C5 C 0.4754(3) 0.6118(3) 0.1780(2)
C6 C 0.5611(4) 0.6474(4) 0.0575(3)
C7 C 0.6732(4) 0.6906(3) 0.0919(3)
H6 H 0.7393 0.7172 0.0598
C8 C 0.6868(4) 0.6943(3) 0.1715(3)
C9 C 0.5463(5) 0.6452(5) -0.0305(3)
H7 H 0.5835 0.5743 -0.0510
H8 H 0.5889 0.7123 -0.0529
H9 H 0.4570 0.6478 -0.0439
C10 C 0.8090(4) 0.7391(4) 0.2079(3)
H10 H 0.8572 0.6740 0.2285
H11 H 0.7891 0.7928 0.2500
H12 H 0.8585 0.7792 0.1685
O1 O 1.1592(3) 0.5063(2) 0.64551(17)
O2 O 1.0617(3) 0.5409(3) 0.75913(17)
O3 O 0.8025(3) 0.5864(3) 0.44401(17)
O4 O 0.6016(3) 0.6530(3) 0.52911(19)
O5 O 0.6161(3) 0.6710(3) 0.68679(17)
C11 C 1.0633(4) 0.5357(3) 0.6857(2)
C12 C 0.9416(3) 0.5685(3) 0.6423(2)
C13 C 0.9334(4) 0.5597(3) 0.5616(2)
H13 H 1.0034 0.5339 0.5324
C14 C 0.8192(4) 0.5897(3) 0.5237(2)
C15 C 0.7149(4) 0.6278(3) 0.5677(3)
C16 C 0.7247(3) 0.6353(3) 0.6486(2)
C17 C 0.8378(3) 0.6062(3) 0.6863(2)
H14 H 0.8441 0.6120 0.7410
C18 C 0.8985(6) 0.5363(5) 0.3970(3)
H15 H 0.9774 0.5778 0.4052
H16 H 0.8742 0.5418 0.3424
H17 H 0.9094 0.4550 0.4111
C19 C 0.5764(5) 0.7749(4) 0.5216(3)
H18 H 0.5829 0.8118 0.5724
H19 H 0.4917 0.7860 0.5009
H20 H 0.6376 0.8095 0.4863
C20 C 0.6207(4) 0.6794(5) 0.7694(3)
H21 H 0.6453 0.6047 0.7913
H22 H 0.5378 0.7011 0.7890
H23 H 0.6821 0.7383 0.7844
O6 O 0.2901(3) 0.5517(3) 0.50766(19)
H24 H 0.2341 0.5503 0.5440
H25 H 0.3525 0.5089 0.5223
loop_
_geom_bond_atom_site_label_1
_geom_bond_atom_site_label_2
_geom_bond_site_symmetry_1
_geom_bond_site_symmetry_2
N1 H1 1_555 1_555
N2 C5 1_555 1_555
N3 H2 1_555 1_555
H3 N3 1_555 1_555
C1 N1 1_555 1_555
C2 C1 1_555 1_555
H4 C2 1_555 1_555
C3 C2 1_555 1_555
H5 C3 1_555 1_555
C4 C3 1_555 1_555
C5 N1 1_555 1_555
C6 N2 1_555 1_555
C7 C6 1_555 1_555
H6 C7 1_555 1_555
C8 C4 1_555 1_555
C9 C6 1_555 1_555
H7 C9 1_555 1_555
H8 C9 1_555 1_555
H9 C9 1_555 1_555
C10 C8 1_555 1_555
H10 C10 1_555 1_555
H11 C10 1_555 1_555
H12 C10 1_555 1_555
O1 C11 1_555 1_555
O2 C11 1_555 1_555
O3 C14 1_555 1_555
O4 C15 1_555 1_555
O5 C16 1_555 1_555
C11 C12 1_555 1_555
C12 C13 1_555 1_555
C13 H13 1_555 1_555
C14 C13 1_555 1_555
C15 C14 1_555 1_555
C16 C15 1_555 1_555
C17 C12 1_555 1_555
H14 C17 1_555 1_555
C18 O3 1_555 1_555
H15 C18 1_555 1_555
H16 C18 1_555 1_555
H17 C18 1_555 1_555
C19 O4 1_555 1_555
H18 C19 1_555 1_555
H19 C19 1_555 1_555
H20 C19 1_555 1_555
C20 O5 1_555 1_555
H21 C20 1_555 1_555
H22 C20 1_555 1_555
H23 C20 1_555 1_555
O6 H24 1_555 1_555
H25 O6 1_555 1_555
N3 C1 1_555 1_555
C4 C5 1_555 1_555
C7 C8 1_555 1_555
C16 C17 1_555 1_555

#END
