
#######################################################################
#
#                 Cambridge Crystallographic Data Centre
#                                CCDC 
#
#######################################################################
#
# If this CIF has been generated from an entry in the Cambridge 
# Structural Database, then it will include bibliographic, chemical, 
# crystal, experimental, refinement or atomic coordinate data resulting 
# from the CCDC's data processing and validation procedures.
#
#######################################################################

data_SEBLUJ
_chemical_formula_moiety         'C26 H26 N2 O4 S1'
_chemical_name_systematic        
1-((4-methylphenyl)sulfonyl)-17,18-didehydro-2,7-dihydroyohimban-5,16-dione
_symmetry_cell_setting           monoclinic
_symmetry_space_group_name_H-M   'P 21'
_symmetry_Int_Tables_number      4
_space_group_name_Hall           'P 2yb'
loop_
_symmetry_equiv_pos_site_id
_symmetry_equiv_pos_as_xyz
1 x,y,z
2 -x,1/2+y,-z
_cell_length_a                   8.7381(8)
_cell_length_b                   20.877(2)
_cell_length_c                   12.8616(12)
_cell_angle_alpha                90
_cell_angle_beta                 95.545(8)
_cell_angle_gamma                90
_cell_volume                     2335.3
_exptl_crystal_colour            colorless
_exptl_crystal_description       block
_cell_formula_units_Z            4
loop_
_atom_site_label
_atom_site_type_symbol
_atom_site_fract_x
_atom_site_fract_y
_atom_site_fract_z
S1 S 0.71767(8) 0.46115(4) 0.88516(6)
O1 O 0.0389(2) 0.60299(11) 0.77001(17)
O2 O 0.7596(2) 0.46217(13) 0.78002(16)
O3 O 0.8189(2) 0.48712(11) 0.96839(16)
N1 N 0.5574(2) 0.50201(13) 0.88364(17)
N2 N 0.2939(3) 0.59368(13) 0.75851(16)
C1 C 0.4790(3) 0.50933(16) 0.9756(2)
C2 C 0.5410(4) 0.53048(17) 1.0727(3)
H1 H 0.6455 0.5391 1.0859
C3 C 0.4421(5) 0.53839(17) 1.1494(2)
H2 H 0.4815 0.5508 1.2162
C4 C 0.2870(5) 0.52833(18) 1.1288(3)
H3 H 0.2222 0.5354 1.1809
C5 C 0.2256(3) 0.50749(16) 1.0300(2)
H4 H 0.1205 0.5007 1.0157
C6 C 0.3249(3) 0.49717(15) 0.9543(2)
C7 C 0.2921(3) 0.47260(16) 0.8453(2)
H5 H 0.2854 0.4258 0.8474
C8 C 0.1472(3) 0.49873(16) 0.7863(2)
H6 H 0.1315 0.4779 0.7187
H7 H 0.0599 0.4886 0.8245
C9 C 0.1535(4) 0.56941(17) 0.7706(2)
C10 C 0.3005(3) 0.65827(15) 0.7148(2)
H8 H 0.3992 0.6777 0.7369
H9 H 0.2206 0.6847 0.7400
C11 C 0.2780(4) 0.65428(15) 0.5948(2)
H10 H 0.1745 0.6376 0.5747
C12 C 0.2900(4) 0.71954(17) 0.5451(2)
H11 H 0.2040 0.7458 0.5615
H12 H 0.3839 0.7403 0.5739
C13 C 0.2900(6) 0.7146(2) 0.4299(3)
H13 H 0.2691 0.7512 0.3897
C14 C 0.3178(6) 0.6616(3) 0.3828(3)
H14 H 0.3086 0.6613 0.3101
C15 C 0.3627(6) 0.6025(2) 0.4372(3)
C16 C 0.3927(4) 0.60860(17) 0.5539(2)
H15 H 0.4947 0.6279 0.5686
C17 C 0.3971(3) 0.54292(16) 0.6096(2)
H16 H 0.3018 0.5201 0.5909
H17 H 0.4811 0.5174 0.5878
C18 C 0.4193(3) 0.55342(15) 0.7285(2)
H18 H 0.5145 0.5780 0.7434
C19 C 0.4377(3) 0.49193(15) 0.7922(2)
H19 H 0.4688 0.4568 0.7484
C20 C 0.6717(3) 0.38233(16) 0.9179(2)
C21 C 0.6485(3) 0.36770(18) 1.0195(2)
H20 H 0.6589 0.3994 1.0705
C22 C 0.6099(3) 0.30619(17) 1.0459(2)
H21 H 0.5956 0.2966 1.1149
C23 C 0.5923(3) 0.25875(19) 0.9713(3)
C24 C 0.6140(4) 0.2750(2) 0.8692(3)
H22 H 0.6001 0.2438 0.8176
C25 C 0.6553(4) 0.3359(2) 0.8416(3)
H23 H 0.6717 0.3454 0.7729
C26 C 0.5553(5) 0.19115(18) 0.9977(3)
H24 H 0.6441 0.1647 0.9924
H25 H 0.4719 0.1760 0.9500
H26 H 0.5262 0.1893 1.0677
O4 O 0.3982(14) 0.5522(3) 0.3930(4)
S2 S -0.17814(8) 0.41520(5) 0.36929(7)
O6 O 0.4319(3) 0.26045(13) 0.26044(19)
O7 O 0.0495(3) 0.34469(14) -0.12669(16)
O8 O -0.2370(2) 0.41457(13) 0.26231(15)
O9 O -0.2522(2) 0.37939(12) 0.44517(18)
N3 N -0.0021(2) 0.38795(12) 0.37040(17)
N4 N 0.1806(3) 0.28754(12) 0.24056(17)
C27 C 0.0980(3) 0.37789(15) 0.4630(2)
C28 C 0.0614(4) 0.36058(17) 0.5621(2)
H27 H -0.0401 0.3571 0.5775
C29 C 0.1832(5) 0.34880(17) 0.6366(2)
H28 H 0.1627 0.3378 0.7039
C30 C 0.3324(4) 0.35282(18) 0.6142(3)
H29 H 0.4116 0.3426 0.6651
C31 C 0.3666(4) 0.37224(18) 0.5154(2)
H30 H 0.4681 0.3765 0.5004
C32 C 0.2475(3) 0.38494(15) 0.4403(2)
C33 C 0.2558(3) 0.40588(16) 0.3303(2)
H31 H 0.2799 0.4517 0.3297
C34 C 0.3715(3) 0.37033(19) 0.2733(2)
H32 H 0.3780 0.3903 0.2058
H33 H 0.4716 0.3738 0.3125
C35 C 0.3328(4) 0.30184(19) 0.2576(2)
C36 C 0.1393(4) 0.22532(16) 0.1923(2)
H34 H 0.0392 0.2120 0.2111
H35 H 0.2141 0.1932 0.2177
C37 C 0.1355(4) 0.23105(17) 0.0731(2)
H36 H 0.2404 0.2400 0.0563
C38 C 0.0839(5) 0.16893(17) 0.0189(3)
H37 H 0.1632 0.1367 0.0330
H38 H -0.0086 0.1537 0.0470
C39 C 0.0523(5) 0.1776(2) -0.0966(3)
H39 H 0.0413 0.1410 -0.1379
C40 C 0.0394(5) 0.2328(2) -0.1429(3)
H40 H 0.0275 0.2342 -0.2155
C41 C 0.0429(4) 0.2924(2) -0.0843(3)
C42 C 0.0346(3) 0.28631(16) 0.0326(2)
H41 H -0.0716 0.2748 0.0431
C43 C 0.0698(3) 0.34919(15) 0.09066(19)
H42 H -0.0070 0.3810 0.0679
H43 H 0.1696 0.3651 0.0757
C44 C 0.0690(3) 0.33717(15) 0.2090(2)
H44 H -0.0321 0.3191 0.2187
C45 C 0.0884(3) 0.39584(15) 0.2809(2)
H45 H 0.0537 0.4343 0.2416
C46 C -0.1701(3) 0.49520(16) 0.4128(2)
C47 C -0.1644(4) 0.5438(2) 0.3411(3)
H46 H -0.1604 0.5346 0.2707
C48 C -0.1648(4) 0.6053(2) 0.3749(3)
H47 H -0.1634 0.6379 0.3258
C49 C -0.1672(4) 0.62182(19) 0.4785(3)
C50 C -0.1694(3) 0.57207(19) 0.5480(2)
H48 H -0.1689 0.5812 0.6188
C51 C -0.1724(3) 0.50915(18) 0.5163(2)
H49 H -0.1759 0.4764 0.5649
C52 C -0.1686(4) 0.68903(19) 0.5150(3)
H50 H -0.2682 0.7074 0.4964
H51 H -0.0924 0.7132 0.4829
H52 H -0.1460 0.6902 0.5896
O5? O 0.302(3) 0.5512(11) 0.3954(14)
loop_
_geom_bond_atom_site_label_1
_geom_bond_atom_site_label_2
_geom_bond_site_symmetry_1
_geom_bond_site_symmetry_2
S1 O2 1_555 1_555
O1 C9 1_555 1_555
O3 S1 1_555 1_555
N1 S1 1_555 1_555
N2 C9 1_555 1_555
C1 N1 1_555 1_555
C2 C1 1_555 1_555
H1 C2 1_555 1_555
C3 C2 1_555 1_555
H2 C3 1_555 1_555
C4 C3 1_555 1_555
H3 C4 1_555 1_555
C5 C4 1_555 1_555
H4 C5 1_555 1_555
C6 C1 1_555 1_555
C7 C6 1_555 1_555
H5 C7 1_555 1_555
C8 C7 1_555 1_555
H6 C8 1_555 1_555
H7 C8 1_555 1_555
C9 C8 1_555 1_555
C10 N2 1_555 1_555
H8 C10 1_555 1_555
H9 C10 1_555 1_555
C11 C10 1_555 1_555
H10 C11 1_555 1_555
C12 C11 1_555 1_555
H11 C12 1_555 1_555
H12 C12 1_555 1_555
C13 C12 1_555 1_555
H13 C13 1_555 1_555
C14 C13 1_555 1_555
H14 C14 1_555 1_555
C15 C14 1_555 1_555
C16 C11 1_555 1_555
H15 C16 1_555 1_555
C17 C16 1_555 1_555
H16 C17 1_555 1_555
H17 C17 1_555 1_555
C18 N2 1_555 1_555
H18 C18 1_555 1_555
C19 N1 1_555 1_555
H19 C19 1_555 1_555
C20 S1 1_555 1_555
C21 C20 1_555 1_555
H20 C21 1_555 1_555
C22 C21 1_555 1_555
H21 C22 1_555 1_555
C23 C22 1_555 1_555
C24 C23 1_555 1_555
H22 C24 1_555 1_555
C25 C20 1_555 1_555
H23 C25 1_555 1_555
C26 C23 1_555 1_555
H24 C26 1_555 1_555
H25 C26 1_555 1_555
H26 C26 1_555 1_555
O4 C15 1_555 1_555
S2 O8 1_555 1_555
O6 C35 1_555 1_555
O7 C41 1_555 1_555
O9 S2 1_555 1_555
N3 S2 1_555 1_555
N4 C35 1_555 1_555
C27 N3 1_555 1_555
C28 C27 1_555 1_555
H27 C28 1_555 1_555
C29 C28 1_555 1_555
H28 C29 1_555 1_555
C30 C29 1_555 1_555
H29 C30 1_555 1_555
C31 C30 1_555 1_555
H30 C31 1_555 1_555
C32 C27 1_555 1_555
C33 C32 1_555 1_555
H31 C33 1_555 1_555
C34 C33 1_555 1_555
H32 C34 1_555 1_555
H33 C34 1_555 1_555
C35 C34 1_555 1_555
C36 N4 1_555 1_555
H34 C36 1_555 1_555
H35 C36 1_555 1_555
C37 C36 1_555 1_555
H36 C37 1_555 1_555
C38 C37 1_555 1_555
H37 C38 1_555 1_555
H38 C38 1_555 1_555
C39 C38 1_555 1_555
H39 C39 1_555 1_555
C40 C39 1_555 1_555
H40 C40 1_555 1_555
C41 C40 1_555 1_555
C42 C37 1_555 1_555
H41 C42 1_555 1_555
C43 C42 1_555 1_555
H42 C43 1_555 1_555
H43 C43 1_555 1_555
C44 N4 1_555 1_555
H44 C44 1_555 1_555
C45 N3 1_555 1_555
H45 C45 1_555 1_555
C46 S2 1_555 1_555
C47 C46 1_555 1_555
H46 C47 1_555 1_555
C48 C47 1_555 1_555
H47 C48 1_555 1_555
C49 C48 1_555 1_555
C50 C49 1_555 1_555
H48 C50 1_555 1_555
C51 C46 1_555 1_555
H49 C51 1_555 1_555
C52 C49 1_555 1_555
H50 C52 1_555 1_555
H51 C52 1_555 1_555
H52 C52 1_555 1_555
C5 C6 1_555 1_555
C7 C19 1_555 1_555
C15 C16 1_555 1_555
C17 C18 1_555 1_555
C18 C19 1_555 1_555
C24 C25 1_555 1_555
C31 C32 1_555 1_555
C33 C45 1_555 1_555
C41 C42 1_555 1_555
C43 C44 1_555 1_555
C44 C45 1_555 1_555
C50 C51 1_555 1_555

#END
