
#######################################################################
#
#                 Cambridge Crystallographic Data Centre
#                                CCDC 
#
#######################################################################
#
# If this CIF has been generated from an entry in the Cambridge 
# Structural Database, then it will include bibliographic, chemical, 
# crystal, experimental, refinement or atomic coordinate data resulting 
# from the CCDC's data processing and validation procedures.
#
#######################################################################

data_SEBLET
_chemical_formula_moiety         
'C10 H12 N3 1+,C10 H11 N3,0.333(C6 H10 O4),C6 H9 O4 1-'
_chemical_name_systematic        
'2-amino-5,7-dimethyl-1,8-naphthyridin-1-ium hydrogen adipate adipic acid'
_symmetry_cell_setting           triclinic
_symmetry_space_group_name_H-M   'P -1'
_symmetry_Int_Tables_number      2
_space_group_name_Hall           '-P 1'
loop_
_symmetry_equiv_pos_site_id
_symmetry_equiv_pos_as_xyz
1 x,y,z
2 -x,-y,-z
_cell_length_a                   10.9070(9)
_cell_length_b                   14.4491(13)
_cell_length_c                   27.490(2)
_cell_angle_alpha                80.574(2)
_cell_angle_beta                 79.4500(10)
_cell_angle_gamma                73.7460(10)
_cell_volume                     4059.69
_exptl_crystal_colour            colorless
_exptl_crystal_description       block
_cell_formula_units_Z            6
loop_
_atom_site_label
_atom_site_type_symbol
_atom_site_fract_x
_atom_site_fract_y
_atom_site_fract_z
N1 N 0.7716(3) 0.4856(2) 0.21421(12)
H1 H 0.7543 0.5231 0.2372
N2 N 0.7288(4) 0.3642(2) 0.27521(12)
N3 N 0.8137(4) 0.6110(2) 0.15538(13)
H2 H 0.7950 0.6486 0.1784
H3 H 0.8365 0.6327 0.1250
C1 C 0.8073(5) 0.5194(3) 0.16679(15)
C2 C 0.8368(5) 0.4582(3) 0.12833(15)
H4 H 0.8624 0.4819 0.0956
C3 C 0.8278(5) 0.3669(3) 0.13932(15)
H5 H 0.8474 0.3272 0.1140
C4 C 0.7887(4) 0.3290(3) 0.18914(15)
C5 C 0.7628(5) 0.3923(3) 0.22594(16)
C6 C 0.7181(5) 0.2735(3) 0.28841(16)
C7 C 0.7391(5) 0.2085(3) 0.25358(16)
H6 H 0.7286 0.1463 0.2641
C8 C 0.7751(5) 0.2354(3) 0.20403(16)
C9 C 0.6828(5) 0.2438(3) 0.34279(15)
H7 H 0.7551 0.2366 0.3597
H8 H 0.6599 0.1832 0.3472
H9 H 0.6108 0.2927 0.3563
C10 C 0.8021(5) 0.1623(3) 0.16714(16)
H10 H 0.7453 0.1866 0.1425
H11 H 0.7881 0.1020 0.1844
H12 H 0.8900 0.1521 0.1512
N4 N 0.4270(4) 0.1617(2) 0.23032(12)
H13 H 0.4093 0.1992 0.2533
N5 N 0.3808(4) 0.0416(2) 0.29139(12)
N6 N 0.4738(4) 0.2858(2) 0.17159(12)
H14 H 0.4557 0.3238 0.1944
H15 H 0.4979 0.3067 0.1412
C11 C 0.4644(5) 0.1950(3) 0.18330(15)
C12 C 0.4925(5) 0.1330(3) 0.14484(16)
H16 H 0.5184 0.1562 0.1121
C13 C 0.4816(5) 0.0418(3) 0.15594(15)
H17 H 0.4990 0.0024 0.1306
C14 C 0.4438(5) 0.0041(3) 0.20566(15)
C15 C 0.4170(5) 0.0685(3) 0.24193(15)
C16 C 0.3695(5) -0.0491(3) 0.30516(15)
C17 C 0.3929(5) -0.1154(3) 0.27068(16)
H18 H 0.3824 -0.1774 0.2817
C18 C 0.4308(5) -0.0910(3) 0.22101(17)
C19 C 0.3303(5) -0.0777(3) 0.35973(15)
H19 H 0.4000 -0.0827 0.3776
H20 H 0.3098 -0.1393 0.3642
H21 H 0.2559 -0.0294 0.3722
C20 C 0.4561(5) -0.1637(3) 0.18483(16)
H22 H 0.5196 -0.2209 0.1953
H23 H 0.4873 -0.1362 0.1523
H24 H 0.3775 -0.1804 0.1837
N7 N 0.3737(4) 0.2937(2) 0.30944(12)
N8 N 0.4114(4) 0.4189(2) 0.24969(12)
N9 N 0.3417(4) 0.1643(2) 0.36682(12)
H25 H 0.3568 0.1294 0.3428
H26 H 0.3240 0.1395 0.3971
C21 C 0.3457(5) 0.2554(3) 0.35725(15)
C22 C 0.3205(5) 0.3149(3) 0.39664(15)
H27 H 0.3010 0.2890 0.4295
C23 C 0.3251(5) 0.4076(3) 0.38622(16)
H28 H 0.3090 0.4452 0.4122
C24 C 0.3540(5) 0.4505(3) 0.33625(15)
C25 C 0.3795(4) 0.3910(3) 0.29825(15)
C26 C 0.4181(5) 0.5107(3) 0.23704(16)
C27 C 0.3932(5) 0.5756(3) 0.27266(18)
H29 H 0.3991 0.6390 0.2623
C28 C 0.3605(5) 0.5476(3) 0.32217(17)
C29 C 0.4555(5) 0.5421(3) 0.18285(15)
H30 H 0.5449 0.5115 0.1729
H31 H 0.4420 0.6113 0.1776
H32 H 0.4035 0.5235 0.1634
C30 C 0.3323(5) 0.6167(3) 0.36100(17)
H33 H 0.3498 0.6772 0.3456
H34 H 0.3861 0.5889 0.3865
H35 H 0.2432 0.6279 0.3756
N10 N 0.7144(4) 0.6182(2) 0.29232(12)
N11 N 0.7610(4) 0.7392(2) 0.23223(12)
N12 N 0.6686(4) 0.4936(2) 0.35067(12)
H36 H 0.6871 0.4570 0.3273
H37 H 0.6450 0.4712 0.3808
C31 C 0.6768(4) 0.5847(3) 0.34025(15)
C32 C 0.6498(5) 0.6459(3) 0.37877(15)
H38 H 0.6263 0.6223 0.4117
C33 C 0.6588(5) 0.7376(3) 0.36709(15)
H39 H 0.6391 0.7777 0.3922
C34 C 0.6974(4) 0.7756(3) 0.31742(15)
C35 C 0.7234(4) 0.7127(3) 0.28074(14)
C36 C 0.7702(5) 0.8309(3) 0.21834(15)
C37 C 0.7442(5) 0.8966(3) 0.25269(17)
H40 H 0.7510 0.9596 0.2417
C38 C 0.7089(5) 0.8713(3) 0.30223(16)
C39 C 0.8115(5) 0.8598(3) 0.16400(15)
H41 H 0.8793 0.8079 0.1508
H42 H 0.8424 0.9170 0.1603
H43 H 0.7393 0.8730 0.1462
C40 C 0.6801(5) 0.9436(3) 0.33897(15)
H44 H 0.7115 0.9989 0.3237
H45 H 0.7219 0.9141 0.3676
H46 H 0.5886 0.9640 0.3491
N13 N 0.1183(4) 0.6426(3) 0.18384(12)
H47 H 0.1014 0.6788 0.2074
N14 N 0.0788(4) 0.5189(3) 0.24429(12)
N15 N 0.1576(4) 0.7711(3) 0.12761(13)
H48 H 0.1435 0.8051 0.1519
H49 H 0.1772 0.7961 0.0976
C41 C 0.1492(5) 0.6806(4) 0.13641(16)
C42 C 0.1749(5) 0.6224(4) 0.09779(17)
H50 H 0.1949 0.6482 0.0649
C43 C 0.1706(5) 0.5289(4) 0.10853(16)
H51 H 0.1871 0.4910 0.0826
C44 C 0.1418(5) 0.4868(3) 0.15769(16)
C45 C 0.1132(5) 0.5467(3) 0.19549(16)
C46 C 0.0739(5) 0.4267(3) 0.25688(17)
C47 C 0.1061(5) 0.3616(3) 0.22164(17)
H52 H 0.1054 0.2972 0.2322
C48 C 0.1386(5) 0.3888(3) 0.17227(18)
C49 C 0.0314(5) 0.3968(3) 0.31119(15)
H53 H 0.0661 0.3283 0.3190
H54 H -0.0612 0.4120 0.3177
H55 H 0.0621 0.4312 0.3315
C50 C 0.1727(6) 0.3186(3) 0.13419(18)
H56 H 0.1660 0.2557 0.1504
H57 H 0.2595 0.3143 0.1179
H58 H 0.1144 0.3408 0.1100
N16 N 0.0693(4) 0.7708(3) 0.26511(12)
N17 N 0.1099(4) 0.8940(3) 0.20473(12)
N18 N 0.0219(4) 0.6482(3) 0.32389(13)
H59 H 0.0398 0.6103 0.3011
H60 H -0.0023 0.6273 0.3543
C51 C 0.0317(5) 0.7394(3) 0.31219(16)
C52 C 0.0036(5) 0.7998(3) 0.35171(17)
H61 H -0.0210 0.7758 0.3845
C53 C 0.0136(5) 0.8916(4) 0.34013(16)
H62 H -0.0030 0.9311 0.3653
C54 C 0.0491(5) 0.9296(3) 0.29010(16)
C55 C 0.0745(5) 0.8658(3) 0.25393(15)
C56 C 0.1186(5) 0.9852(4) 0.19148(17)
C57 C 0.0945(5) 1.0516(3) 0.22520(17)
H63 H 0.1021 1.1144 0.2141
C58 C 0.0593(5) 1.0251(3) 0.27505(17)
C59 C 0.1553(5) 1.0141(3) 0.13616(15)
H64 H 0.2360 0.9712 0.1243
H65 H 0.1635 1.0795 0.1309
H66 H 0.0895 1.0098 0.1184
C60 C 0.0324(5) 1.0986(3) 0.31145(17)
H67 H -0.0501 1.1007 0.3314
H68 H 0.0318 1.1615 0.2934
H69 H 0.0983 1.0802 0.3326
O1 O 0.5650(4) 0.3893(2) 0.07925(11)
O2 O 0.7228(3) 0.3368(2) 0.01909(11)
O3 O 0.4740(4) 0.9333(2) 0.05637(11)
H70 H 0.4766 0.9856 0.0399
O4 O 0.5406(4) 0.88388(19) -0.01829(11)
C61 C 0.6417(5) 0.4042(3) 0.04249(17)
C62 C 0.6500(5) 0.5048(3) 0.01979(14)
H71 H 0.6213 0.5173 -0.0126
H72 H 0.7400 0.5061 0.0143
C63 C 0.5732(5) 0.5871(3) 0.04958(14)
H73 H 0.6081 0.5801 0.0804
H74 H 0.4844 0.5831 0.0581
C64 C 0.5763(5) 0.6865(3) 0.02086(15)
H75 H 0.6652 0.6885 0.0094
H76 H 0.5332 0.6965 -0.0082
C65 C 0.5117(5) 0.7658(3) 0.05250(15)
H77 H 0.5543 0.7537 0.0818
H78 H 0.4232 0.7626 0.0637
C66 C 0.5103(5) 0.8673(3) 0.02820(18)
O5 O 0.9080(4) 0.63049(19) 0.05322(11)
O6 O 0.9828(3) 0.58471(18) -0.02100(10)
H79 H 0.9868 0.5307 -0.0054
O7 O 0.7392(4) 1.16602(19) 0.04835(11)
H80 H 0.7272 1.2226 0.0355
O8 O 0.8018(4) 1.1345(2) -0.02969(11)
C67 C 0.9385(5) 0.6493(3) 0.00901(17)
C68 C 0.9260(5) 0.7528(3) -0.01475(15)
H81 H 0.8672 0.7676 -0.0392
H82 H 1.0097 0.7588 -0.0323
C69 C 0.8775(5) 0.8264(3) 0.02228(14)
H83 H 0.9408 0.8158 0.0446
H84 H 0.7983 0.8161 0.0421
C70 C 0.8523(5) 0.9309(3) -0.00207(14)
H85 H 0.9311 0.9414 -0.0222
H86 H 0.7879 0.9422 -0.0240
C71 C 0.8056(5) 1.0029(3) 0.03583(14)
H87 H 0.8692 0.9893 0.0583
H88 H 0.7262 0.9922 0.0555
C72 C 0.7810(5) 1.1094(3) 0.01455(17)
O9 O 0.7114(4) -0.12805(19) 0.53003(11)
O10 O 0.7537(3) -0.16788(18) 0.45366(10)
H89 H 0.7672 -0.2231 0.4684
O11 O 0.5192(3) 0.41542(18) 0.51792(10)
H90 H 0.5140 0.4707 0.5039
O12 O 0.5972(4) 0.37664(19) 0.44180(11)
C73 C 0.7220(5) -0.1067(3) 0.48522(16)
C74 C 0.6952(5) -0.0015(3) 0.46230(14)
H91 H 0.7734 0.0092 0.4417
H92 H 0.6303 0.0099 0.4406
C75 C 0.6496(5) 0.0722(2) 0.49904(14)
H93 H 0.7134 0.0613 0.5212
H94 H 0.5697 0.0638 0.5191
C76 C 0.6277(5) 0.1756(3) 0.47300(14)
H95 H 0.7086 0.1845 0.4540
H96 H 0.5670 0.1852 0.4497
C77 C 0.5769(5) 0.2505(3) 0.50838(14)
H97 H 0.6333 0.2361 0.5336
H98 H 0.4925 0.2446 0.5251
C78 C 0.5645(5) 0.3545(3) 0.48567(17)
O13 O 0.7720(3) 0.65994(19) 0.48829(10)
O14 O 0.9281(4) 0.6083(2) 0.42748(11)
O15 O 0.9614(4) 0.1115(2) 0.51621(12)
O16 O 1.0232(4) 0.0675(2) 0.44014(11)
H99 H 1.0244 0.0137 0.4556
C79 C 0.8517(5) 0.5927(3) 0.46369(17)
C80 C 0.8442(5) 0.4916(3) 0.48558(15)
H100 H 0.7542 0.4905 0.4924
H101 H 0.8771 0.4769 0.5172
C81 C 0.9171(5) 0.4121(3) 0.45357(15)
H102 H 0.8772 0.4213 0.4238
H103 H 1.0051 0.4174 0.4433
C82 C 0.9196(5) 0.3118(3) 0.48014(16)
H104 H 0.8319 0.3082 0.4930
H105 H 0.9665 0.3004 0.5083
C83 C 0.9822(5) 0.2334(3) 0.44655(16)
H106 H 0.9352 0.2456 0.4185
H107 H 1.0695 0.2379 0.4336
C84 C 0.9875(5) 0.1324(3) 0.47114(19)
loop_
_geom_bond_atom_site_label_1
_geom_bond_atom_site_label_2
_geom_bond_site_symmetry_1
_geom_bond_site_symmetry_2
N1 H1 1_555 1_555
N2 C5 1_555 1_555
N3 H2 1_555 1_555
H3 N3 1_555 1_555
C1 N1 1_555 1_555
C2 C1 1_555 1_555
H4 C2 1_555 1_555
C3 C2 1_555 1_555
H5 C3 1_555 1_555
C4 C3 1_555 1_555
C5 N1 1_555 1_555
C6 N2 1_555 1_555
C7 C6 1_555 1_555
H6 C7 1_555 1_555
C8 C4 1_555 1_555
C9 C6 1_555 1_555
H7 C9 1_555 1_555
H8 C9 1_555 1_555
H9 C9 1_555 1_555
C10 C8 1_555 1_555
H10 C10 1_555 1_555
H11 C10 1_555 1_555
H12 C10 1_555 1_555
N4 H13 1_555 1_555
N5 C15 1_555 1_555
N6 H14 1_555 1_555
H15 N6 1_555 1_555
C11 N4 1_555 1_555
C12 C11 1_555 1_555
H16 C12 1_555 1_555
C13 C12 1_555 1_555
H17 C13 1_555 1_555
C14 C13 1_555 1_555
C15 N4 1_555 1_555
C16 N5 1_555 1_555
C17 C16 1_555 1_555
H18 C17 1_555 1_555
C18 C14 1_555 1_555
C19 C16 1_555 1_555
H19 C19 1_555 1_555
H20 C19 1_555 1_555
H21 C19 1_555 1_555
C20 C18 1_555 1_555
H22 C20 1_555 1_555
H23 C20 1_555 1_555
H24 C20 1_555 1_555
N7 C21 1_555 1_555
N8 C25 1_555 1_555
N9 H25 1_555 1_555
H26 N9 1_555 1_555
C21 N9 1_555 1_555
C22 C21 1_555 1_555
H27 C22 1_555 1_555
C23 C22 1_555 1_555
H28 C23 1_555 1_555
C24 C23 1_555 1_555
C25 N7 1_555 1_555
C26 N8 1_555 1_555
C27 C26 1_555 1_555
H29 C27 1_555 1_555
C28 C24 1_555 1_555
C29 C26 1_555 1_555
H30 C29 1_555 1_555
H31 C29 1_555 1_555
H32 C29 1_555 1_555
C30 C28 1_555 1_555
H33 C30 1_555 1_555
H34 C30 1_555 1_555
H35 C30 1_555 1_555
N10 C31 1_555 1_555
N11 C35 1_555 1_555
N12 H36 1_555 1_555
H37 N12 1_555 1_555
C31 N12 1_555 1_555
C32 C31 1_555 1_555
H38 C32 1_555 1_555
C33 C32 1_555 1_555
H39 C33 1_555 1_555
C34 C33 1_555 1_555
C35 N10 1_555 1_555
C36 N11 1_555 1_555
C37 C36 1_555 1_555
H40 C37 1_555 1_555
C38 C34 1_555 1_555
C39 C36 1_555 1_555
H41 C39 1_555 1_555
H42 C39 1_555 1_555
H43 C39 1_555 1_555
C40 C38 1_555 1_555
H44 C40 1_555 1_555
H45 C40 1_555 1_555
H46 C40 1_555 1_555
N13 H47 1_555 1_555
N14 C45 1_555 1_555
N15 H48 1_555 1_555
H49 N15 1_555 1_555
C41 N13 1_555 1_555
C42 C41 1_555 1_555
H50 C42 1_555 1_555
C43 C42 1_555 1_555
H51 C43 1_555 1_555
C44 C43 1_555 1_555
C45 N13 1_555 1_555
C46 N14 1_555 1_555
C47 C46 1_555 1_555
H52 C47 1_555 1_555
C48 C44 1_555 1_555
C49 C46 1_555 1_555
H53 C49 1_555 1_555
H54 C49 1_555 1_555
H55 C49 1_555 1_555
C50 C48 1_555 1_555
H56 C50 1_555 1_555
H57 C50 1_555 1_555
H58 C50 1_555 1_555
N16 C51 1_555 1_555
N17 C55 1_555 1_555
N18 H59 1_555 1_555
H60 N18 1_555 1_555
C51 N18 1_555 1_555
C52 C51 1_555 1_555
H61 C52 1_555 1_555
C53 C52 1_555 1_555
H62 C53 1_555 1_555
C54 C53 1_555 1_555
C55 N16 1_555 1_555
C56 N17 1_555 1_555
C57 C56 1_555 1_555
H63 C57 1_555 1_555
C58 C54 1_555 1_555
C59 C56 1_555 1_555
H64 C59 1_555 1_555
H65 C59 1_555 1_555
H66 C59 1_555 1_555
C60 C58 1_555 1_555
H67 C60 1_555 1_555
H68 C60 1_555 1_555
H69 C60 1_555 1_555
O1 C61 1_555 1_555
O2 C61 1_555 1_555
O3 H70 1_555 1_555
O4 C66 1_555 1_555
C61 C62 1_555 1_555
C62 H71 1_555 1_555
H72 C62 1_555 1_555
C63 C62 1_555 1_555
H73 C63 1_555 1_555
H74 C63 1_555 1_555
C64 C63 1_555 1_555
H75 C64 1_555 1_555
H76 C64 1_555 1_555
C65 C64 1_555 1_555
H77 C65 1_555 1_555
H78 C65 1_555 1_555
C66 O3 1_555 1_555
O5 C67 1_555 1_555
O6 H79 1_555 1_555
O7 H80 1_555 1_555
O8 C72 1_555 1_555
C67 O6 1_555 1_555
C68 C67 1_555 1_555
H81 C68 1_555 1_555
H82 C68 1_555 1_555
C69 C68 1_555 1_555
H83 C69 1_555 1_555
H84 C69 1_555 1_555
C70 C69 1_555 1_555
H85 C70 1_555 1_555
H86 C70 1_555 1_555
C71 C70 1_555 1_555
H87 C71 1_555 1_555
H88 C71 1_555 1_555
C72 O7 1_555 1_555
O9 C73 1_555 1_555
O10 H89 1_555 1_555
O11 H90 1_555 1_555
O12 C78 1_555 1_555
C73 O10 1_555 1_555
C74 C73 1_555 1_555
H91 C74 1_555 1_555
H92 C74 1_555 1_555
C75 C74 1_555 1_555
H93 C75 1_555 1_555
H94 C75 1_555 1_555
C76 C75 1_555 1_555
H95 C76 1_555 1_555
H96 C76 1_555 1_555
C77 C76 1_555 1_555
H97 C77 1_555 1_555
H98 C77 1_555 1_555
C78 O11 1_555 1_555
O13 C79 1_555 1_555
O14 C79 1_555 1_555
O15 C84 1_555 1_555
O16 H99 1_555 1_555
C79 C80 1_555 1_555
C80 H100 1_555 1_555
H101 C80 1_555 1_555
C81 C80 1_555 1_555
H102 C81 1_555 1_555
H103 C81 1_555 1_555
C82 C81 1_555 1_555
H104 C82 1_555 1_555
H105 C82 1_555 1_555
C83 C82 1_555 1_555
H106 C83 1_555 1_555
H107 C83 1_555 1_555
C84 O16 1_555 1_555
N3 C1 1_555 1_555
C4 C5 1_555 1_555
C7 C8 1_555 1_555
N6 C11 1_555 1_555
C14 C15 1_555 1_555
C17 C18 1_555 1_555
C24 C25 1_555 1_555
C27 C28 1_555 1_555
C34 C35 1_555 1_555
C37 C38 1_555 1_555
N15 C41 1_555 1_555
C44 C45 1_555 1_555
C47 C48 1_555 1_555
C54 C55 1_555 1_555
C57 C58 1_555 1_555
C65 C66 1_555 1_555
C71 C72 1_555 1_555
C77 C78 1_555 1_555
C83 C84 1_555 1_555

#END
