
#######################################################################
#
#                 Cambridge Crystallographic Data Centre
#                                CCDC 
#
#######################################################################
#
# If this CIF has been generated from an entry in the Cambridge 
# Structural Database, then it will include bibliographic, chemical, 
# crystal, experimental, refinement or atomic coordinate data resulting 
# from the CCDC's data processing and validation procedures.
#
#######################################################################

data_SEBPEX
_chemical_formula_moiety         'C27 H31 N1 O3,C1 H1 Cl3'
_chemical_name_systematic        
'15-hydroxyhetisan-13-yl benzoate chloroform solvate'
_symmetry_cell_setting           tetragonal
_symmetry_space_group_name_H-M   'P 41 21 2'
_symmetry_Int_Tables_number      92
_space_group_name_Hall           'P 4abw 2nw'
loop_
_symmetry_equiv_pos_site_id
_symmetry_equiv_pos_as_xyz
1 x,y,z
2 1/2-y,1/2+x,1/4+z
3 -x,-y,1/2+z
4 1/2+y,1/2-x,3/4+z
5 1/2+x,1/2-y,3/4-z
6 1/2-x,1/2+y,1/4-z
7 y,x,-z
8 -y,-x,1/2-z
_cell_length_a                   10.6881(2)
_cell_length_b                   10.6881(2)
_cell_length_c                   46.5256(18)
_cell_angle_alpha                90
_cell_angle_beta                 90
_cell_angle_gamma                90
_cell_volume                     5314.87
_exptl_crystal_description       block
_cell_formula_units_Z            8
loop_
_atom_site_label
_atom_site_type_symbol
_atom_site_fract_x
_atom_site_fract_y
_atom_site_fract_z
O1 O 0.2066(2) 0.0927(2) 0.58141(6)
H1 H 0.2353 0.0215 0.5814
O2 O 0.5624(2) 0.3676(2) 0.60009(5)
O3 O 0.6052(3) 0.4946(2) 0.63704(5)
N1 N 0.2726(2) 0.3381(2) 0.67606(5)
C1 C 0.2534(3) 0.1877(4) 0.71546(7)
C2 C 0.5257(3) 0.2700(3) 0.62010(7)
H2 H 0.5869 0.2652 0.6357
C3 C 0.3566(4) 0.1297(4) 0.73354(8)
H3 H 0.3353 0.0432 0.7375
H4 H 0.3610 0.1733 0.7518
C4 C 0.4847(4) 0.1341(4) 0.71927(8)
H5 H 0.5130 0.2202 0.7182
H6 H 0.5442 0.0875 0.7308
C5 C 0.4800(3) 0.0792(3) 0.68930(8)
H7 H 0.4664 -0.0103 0.6907
H8 H 0.5603 0.0922 0.6801
C6 C 0.3779(3) 0.1359(3) 0.67059(6)
C7 C 0.3657(3) 0.0803(3) 0.63994(7)
H9 H 0.3088 0.0084 0.6403
C8 C 0.4889(3) 0.0440(3) 0.62446(8)
H10 H 0.5549 0.0321 0.6385
H11 H 0.4774 -0.0340 0.6141
C9 C 0.5260(3) 0.1476(3) 0.60340(7)
H12 H 0.6094 0.1313 0.5955
C10 C 0.4307(4) 0.1491(3) 0.57989(7)
C11 C 0.2996(3) 0.1777(3) 0.59098(7)
H13 H 0.2767 0.2601 0.5834
C12 C 0.3040(3) 0.1902(3) 0.62354(6)
C13 C 0.1751(3) 0.2176(3) 0.63615(7)
H14 H 0.1409 0.2921 0.6272
H15 H 0.1193 0.1484 0.6320
C14 C 0.1820(3) 0.2370(3) 0.66833(7)
H16 H 0.0990 0.2545 0.6763
C15 C 0.2472(3) 0.1322(3) 0.68507(7)
H17 H 0.2051 0.0508 0.6839
C16 C 0.2731(3) 0.3285(3) 0.70800(7)
H18 H 0.2062 0.3787 0.7161
H19 H 0.3521 0.3579 0.7157
C17 C 0.3910(3) 0.2816(3) 0.66526(6)
H20 H 0.4653 0.3170 0.6746
C18 C 0.3947(3) 0.2951(3) 0.63269(6)
H21 H 0.3634 0.3773 0.6267
C19 C 0.1290(4) 0.1704(5) 0.73179(9)
H22 H 0.0620 0.2064 0.7208
H23 H 0.1342 0.2112 0.7501
H24 H 0.1134 0.0828 0.7346
C20 C 0.4551(5) 0.1218(6) 0.55293(10)
H25 H 0.5359 0.0997 0.5475
H26 H 0.3916 0.1244 0.5393
C21 C 0.6016(3) 0.4754(3) 0.61166(7)
C22 C 0.6377(3) 0.5682(3) 0.58914(7)
C23 C 0.6599(3) 0.6905(3) 0.59751(8)
H27 H 0.6528 0.7130 0.6167
C24 C 0.6928(3) 0.7793(3) 0.57719(9)
H28 H 0.7070 0.8617 0.5827
C25 C 0.7043(4) 0.7450(4) 0.54883(9)
H29 H 0.7259 0.8046 0.5351
C26 C 0.6842(4) 0.6237(4) 0.54068(8)
H30 H 0.6942 0.6009 0.5215
C27 C 0.6494(3) 0.5354(3) 0.56062(7)
H31 H 0.6337 0.4536 0.5549
Cl1 Cl 0.84559(15) 0.25684(13) 0.56594(3)
Cl2 Cl 1.04445(17) 0.24338(15) 0.52561(3)
Cl3 Cl 0.89614(16) 0.02681(12) 0.53664(4)
C28 C 0.9620(4) 0.1614(4) 0.55153(8)
H32 H 1.0197 0.1369 0.5669
loop_
_geom_bond_atom_site_label_1
_geom_bond_atom_site_label_2
_geom_bond_site_symmetry_1
_geom_bond_site_symmetry_2
O1 H1 1_555 1_555
O2 C2 1_555 1_555
O3 C21 1_555 1_555
N1 C14 1_555 1_555
C1 C3 1_555 1_555
C2 H2 1_555 1_555
C3 H3 1_555 1_555
H4 C3 1_555 1_555
C4 C3 1_555 1_555
H5 C4 1_555 1_555
H6 C4 1_555 1_555
C5 C4 1_555 1_555
H7 C5 1_555 1_555
H8 C5 1_555 1_555
C6 C5 1_555 1_555
C7 C6 1_555 1_555
H9 C7 1_555 1_555
C8 C7 1_555 1_555
H10 C8 1_555 1_555
H11 C8 1_555 1_555
C9 C2 1_555 1_555
H12 C9 1_555 1_555
C10 C9 1_555 1_555
C11 O1 1_555 1_555
H13 C11 1_555 1_555
C12 C7 1_555 1_555
C13 C12 1_555 1_555
H14 C13 1_555 1_555
H15 C13 1_555 1_555
C14 C13 1_555 1_555
H16 C14 1_555 1_555
C15 C1 1_555 1_555
H17 C15 1_555 1_555
C16 N1 1_555 1_555
H18 C16 1_555 1_555
H19 C16 1_555 1_555
C17 N1 1_555 1_555
H20 C17 1_555 1_555
C18 C2 1_555 1_555
H21 C18 1_555 1_555
C19 C1 1_555 1_555
H22 C19 1_555 1_555
H23 C19 1_555 1_555
H24 C19 1_555 1_555
C20 C10 1_555 1_555
H25 C20 1_555 1_555
H26 C20 1_555 1_555
C21 O2 1_555 1_555
C22 C21 1_555 1_555
C23 C22 1_555 1_555
H27 C23 1_555 1_555
C24 C23 1_555 1_555
H28 C24 1_555 1_555
C25 C24 1_555 1_555
H29 C25 1_555 1_555
C26 C25 1_555 1_555
H30 C26 1_555 1_555
C27 C22 1_555 1_555
H31 C27 1_555 1_555
Cl1 C28 1_555 1_555
Cl2 C28 1_555 1_555
Cl3 C28 1_555 1_555
C28 H32 1_555 1_555
C1 C16 1_555 1_555
C6 C15 1_555 1_555
C6 C17 1_555 1_555
C8 C9 1_555 1_555
C10 C11 1_555 1_555
C11 C12 1_555 1_555
C12 C18 1_555 1_555
C14 C15 1_555 1_555
C17 C18 1_555 1_555
C26 C27 1_555 1_555

#END
