
#######################################################################
#
#                 Cambridge Crystallographic Data Centre
#                                CCDC 
#
#######################################################################
#
# If this CIF has been generated from an entry in the Cambridge 
# Structural Database, then it will include bibliographic, chemical, 
# crystal, experimental, refinement or atomic coordinate data resulting 
# from the CCDC's data processing and validation procedures.
#
#######################################################################

data_SEBPUK
_chemical_formula_moiety         'C20 H23 N1 O2'
_chemical_name_systematic        
6,6a,7,8,9,13b-Hexahydro-11-methoxy-7-methyl-5H-benzo(d)naphth(2,1-b)azepin-12-ol
_symmetry_cell_setting           monoclinic
_symmetry_space_group_name_H-M   'P 21/c'
_symmetry_Int_Tables_number      14
_space_group_name_Hall           '-P 2ybc'
loop_
_symmetry_equiv_pos_site_id
_symmetry_equiv_pos_as_xyz
1 x,y,z
2 -x,1/2+y,1/2-z
3 -x,-y,-z
4 x,1/2-y,1/2+z
_cell_length_a                   8.248(2)
_cell_length_b                   18.323(9)
_cell_length_c                   11.195(3)
_cell_angle_alpha                90
_cell_angle_beta                 112.00(2)
_cell_angle_gamma                90
_cell_volume                     1568.68
_chemical_melting_point          218-219deg.C
_cell_formula_units_Z            4
loop_
_atom_site_label
_atom_site_type_symbol
_atom_site_fract_x
_atom_site_fract_y
_atom_site_fract_z
C1 C -0.3560(10) -0.3683(4) -0.1813(8)
C2 C -0.2348(10) -0.4236(5) -0.1338(9)
C3 C -0.1838(10) -0.4631(5) -0.2160(9)
C4 C -0.2557(10) -0.4496(5) -0.3506(9)
C5 C -0.3776(9) -0.3928(4) -0.3960(8)
C6 C -0.4558(11) -0.3809(5) -0.5437(8)
C7 C -0.6010(10) -0.3228(5) -0.5864(8)
C8 C -0.6950(9) -0.3189(4) -0.4966(8)
N1 N -0.8641(7) -0.2788(4) -0.5502(6)
C9 C -0.8555(10) -0.2023(5) -0.5792(8)
C10 C -0.7746(10) -0.1514(5) -0.4610(8)
C11 C -0.5775(9) -0.1529(4) -0.4042(7)
C12 C -0.4917(9) -0.0874(4) -0.3923(8)
C13 C -0.3108(9) -0.0808(4) -0.3416(7)
C14 C -0.2095(9) -0.1442(4) -0.3043(7)
C15 C -0.2945(9) -0.2103(4) -0.3165(7)
C16 C -0.4772(9) -0.2174(4) -0.3628(7)
C17 C -0.5631(9) -0.2910(4) -0.3615(7)
C18 C -0.4281(9) -0.3530(4) -0.3129(7)
C19 C -0.9779(10) -0.2941(5) -0.4793(8)
O1 O -0.2272(7) -0.0148(3) -0.3323(5)
O2 O -0.0319(6) -0.1382(3) -0.2589(6)
C20 C -0.2293(15) 0.0273(6) -0.2348(11)
H1 H -0.393 -0.339 -0.121
H2 H -0.185 -0.434 -0.039
H3 H -0.094 -0.502 -0.181
H4 H -0.221 -0.480 -0.411
H5 H -0.508 -0.431 -0.588
H6 H -0.355 -0.364 -0.574
H7 H -0.691 -0.336 -0.679
H8 H -0.545 -0.272 -0.589
H9 H -0.737 -0.371 -0.483
H10 H -0.983 -0.184 -0.632
H11 H -0.780 -0.198 -0.637
H12 H -0.821 -0.168 -0.390
H13 H -0.815 -0.098 -0.490
H14 H -0.563 -0.042 -0.422
H15 H -0.222 -0.256 -0.291
H16 H -0.631 -0.280 -0.300
H17 H -0.978 -0.350 -0.462
H18 H -0.932 -0.266 -0.391
H19 H -1.106 -0.277 -0.534
H20 H 0.027 -0.168 -0.185
H21 H -0.163 0.076 -0.234
H22 H -0.359 0.039 -0.247
H23 H -0.167 0.000 -0.147
loop_
_geom_bond_atom_site_label_1
_geom_bond_atom_site_label_2
_geom_bond_site_symmetry_1
_geom_bond_site_symmetry_2
C1 C2 1_555 1_555
C2 C3 1_555 1_555
C3 C4 1_555 1_555
C4 C5 1_555 1_555
C5 C6 1_555 1_555
C6 C7 1_555 1_555
C7 C8 1_555 1_555
C8 N1 1_555 1_555
N1 C9 1_555 1_555
C9 C10 1_555 1_555
C10 C11 1_555 1_555
C11 C12 1_555 1_555
C12 C13 1_555 1_555
C13 C14 1_555 1_555
C14 C15 1_555 1_555
C15 C16 1_555 1_555
C16 C11 1_555 1_555
C17 C8 1_555 1_555
C18 C1 1_555 1_555
C19 N1 1_555 1_555
O1 C13 1_555 1_555
O2 C14 1_555 1_555
C20 O1 1_555 1_555
H1 C1 1_555 1_555
H2 C2 1_555 1_555
H3 C3 1_555 1_555
H4 C4 1_555 1_555
H5 C6 1_555 1_555
H6 C6 1_555 1_555
H7 C7 1_555 1_555
H8 C7 1_555 1_555
H9 C8 1_555 1_555
H10 C9 1_555 1_555
H11 C9 1_555 1_555
H12 C10 1_555 1_555
H13 C10 1_555 1_555
H14 C12 1_555 1_555
H15 C15 1_555 1_555
H16 C17 1_555 1_555
H17 C19 1_555 1_555
H18 C19 1_555 1_555
H19 C19 1_555 1_555
H20 O2 1_555 1_555
H21 C20 1_555 1_555
H22 C20 1_555 1_555
H23 C20 1_555 1_555
C5 C18 1_555 1_555
C16 C17 1_555 1_555
C17 C18 1_555 1_555

#END
