
#######################################################################
#
#                 Cambridge Crystallographic Data Centre
#                                CCDC 
#
#######################################################################
#
# If this CIF has been generated from an entry in the Cambridge 
# Structural Database, then it will include bibliographic, chemical, 
# crystal, experimental, refinement or atomic coordinate data resulting 
# from the CCDC's data processing and validation procedures.
#
#######################################################################

data_SEBYAZ10
_chemical_name_common            
'Orthocyclophane diphenyldithiocyclotetraphosphazane'
_chemical_formula_moiety         'C36 H28 N4 P4 S2'
_chemical_name_systematic        
1,3;5,7-bis(o-Phenylene)-2,4,6,8-tetraphenyl-1,3,5,7,2,4,6,8-tetra-azatetraphosphocane-2,6-dithione
_symmetry_cell_setting           triclinic
_symmetry_space_group_name_H-M   'P -1'
_symmetry_Int_Tables_number      2
_space_group_name_Hall           '-P 1'
loop_
_symmetry_equiv_pos_site_id
_symmetry_equiv_pos_as_xyz
1 x,y,z
2 -x,-y,-z
_cell_length_a                   10.8724(12)
_cell_length_b                   11.1319(16)
_cell_length_c                   14.2192(18)
_cell_angle_alpha                99.812(11)
_cell_angle_beta                 93.707(10)
_cell_angle_gamma                91.460(10)
_cell_volume                     1691.07
_exptl_crystal_colour            'pale yellow'
_chemical_melting_point          341-345deg.C(dec.)
_cell_formula_units_Z            2
loop_
_atom_site_label
_atom_site_type_symbol
_atom_site_fract_x
_atom_site_fract_y
_atom_site_fract_z
P1 P 0.4075(1) 0.7862(1) 0.6981(1)
P2 P 0.1538(1) 0.7567(1) 0.6019(1)
P3 P 0.1951(1) 0.5919(1) 0.7452(1)
P4 P 0.3441(1) 0.7709(1) 0.8943(1)
S1 S 0.0284(1) 0.8386(1) 0.5375(1)
S2 S 0.3406(1) 0.8600(1) 1.0230(1)
N1 N 0.3855(2) 0.8595(2) 0.8142(1)
N2 N 0.2758(2) 0.8498(2) 0.6506(1)
N3 N 0.0982(2) 0.6845(2) 0.6878(1)
N4 N 0.2080(2) 0.6964(2) 0.8524(1)
C1 C 0.5278(3) 0.8867(3) 0.6667(2)
C2 C 0.5744(3) 0.9938(3) 0.7217(2)
C3 C 0.6693(3) 1.0604(3) 0.6915(3)
C4 C 0.7191(3) 1.0187(4) 0.6069(3)
C5 C 0.6765(4) 0.9120(4) 0.5522(3)
C6 C 0.5818(3) 0.8457(3) 0.5825(2)
C7 C 0.2254(3) 0.6388(3) 0.5235(2)
C8 C 0.1856(3) 0.5173(3) 0.5104(2)
C9 C 0.2385(4) 0.4310(3) 0.4453(3)
C10 C 0.3291(4) 0.4647(4) 0.3922(3)
C11 C 0.3684(4) 0.5849(4) 0.4024(2)
C12 C 0.3158(3) 0.6724(3) 0.4677(2)
C13 C 0.0774(2) 0.4899(2) 0.7799(2)
C14 C -0.0067(3) 0.4235(3) 0.7127(2)
C15 C -0.0842(3) 0.3352(3) 0.7362(2)
C16 C -0.0796(3) 0.3114(3) 0.8276(2)
C17 C 0.0021(3) 0.3771(3) 0.8960(2)
C18 C 0.0803(3) 0.4659(2) 0.8727(2)
C19 C 0.4572(3) 0.6550(3) 0.8810(2)
C20 C 0.5799(3) 0.6920(3) 0.8800(2)
C21 C 0.6714(3) 0.6066(4) 0.8765(2)
C22 C 0.6406(4) 0.4868(4) 0.8758(2)
C23 C 0.5202(3) 0.4489(3) 0.8776(2)
C24 C 0.4283(3) 0.5323(3) 0.8808(2)
C25 C 0.3176(2) 0.9680(2) 0.8052(2)
C26 C 0.2579(2) 0.9630(2) 0.7150(2)
C27 C 0.1967(3) 1.0631(3) 0.6919(2)
C28 C 0.1973(3) 1.1670(3) 0.7612(3)
C29 C 0.2568(3) 1.1716(3) 0.8506(3)
C30 C 0.3185(3) 1.0720(3) 0.8735(2)
C31 C 0.0342(2) 0.7561(2) 0.7633(2)
C32 C 0.0947(2) 0.7629(2) 0.8542(2)
C33 C 0.0421(3) 0.8228(2) 0.9342(2)
C34 C -0.0697(3) 0.8774(3) 0.9225(2)
C35 C -0.1278(3) 0.8723(3) 0.8331(2)
C36 C -0.0773(3) 0.8106(2) 0.7526(2)
H1 H 0.5399 1.0228 0.7815
H2 H 0.6999 1.1356 0.7304
H3 H 0.7832 1.0663 0.5855
H4 H 0.7144 0.8817 0.4941
H5 H 0.5516 0.7703 0.5436
H6 H 0.1225 0.4926 0.5482
H7 H 0.2094 0.3474 0.4366
H8 H 0.3667 0.4034 0.3485
H9 H 0.4303 0.6079 0.3630
H10 H 0.3429 0.7564 0.4752
H11 H -0.0095 0.4384 0.6480
H12 H -0.1427 0.2908 0.6886
H13 H -0.1331 0.2495 0.8442
H14 H 0.0051 0.3617 0.9605
H15 H 0.1381 0.5109 0.9206
H16 H 0.6007 0.7765 0.8810
H17 H 0.7562 0.6326 0.8762
H18 H 0.7039 0.4280 0.8724
H19 H 0.4999 0.3644 0.8771
H20 H 0.3438 0.5061 0.8826
H21 H 0.1549 1.0598 0.6299
H22 H 0.1565 1.2377 0.7466
H23 H 0.2546 1.2443 0.8977
H24 H 0.3610 1.0750 0.9353
H25 H 0.0836 0.8269 0.9964
H26 H -0.1064 0.9199 0.9776
H27 H -0.2056 0.9101 0.8264
H28 H -0.1178 0.8073 0.6901
loop_
_geom_bond_atom_site_label_1
_geom_bond_atom_site_label_2
_geom_bond_site_symmetry_1
_geom_bond_site_symmetry_2
P1 N1 1_555 1_555
P2 S1 1_555 1_555
P3 N3 1_555 1_555
P4 S2 1_555 1_555
N1 P4 1_555 1_555
N2 P1 1_555 1_555
N3 P2 1_555 1_555
N4 P3 1_555 1_555
C1 P1 1_555 1_555
C2 C1 1_555 1_555
C3 C2 1_555 1_555
C4 C3 1_555 1_555
C5 C4 1_555 1_555
C6 C1 1_555 1_555
C7 P2 1_555 1_555
C8 C7 1_555 1_555
C9 C8 1_555 1_555
C10 C9 1_555 1_555
C11 C10 1_555 1_555
C12 C7 1_555 1_555
C13 P3 1_555 1_555
C14 C13 1_555 1_555
C15 C14 1_555 1_555
C16 C15 1_555 1_555
C17 C16 1_555 1_555
C18 C13 1_555 1_555
C19 P4 1_555 1_555
C20 C19 1_555 1_555
C21 C20 1_555 1_555
C22 C21 1_555 1_555
C23 C22 1_555 1_555
C24 C19 1_555 1_555
C25 N1 1_555 1_555
C26 N2 1_555 1_555
C27 C26 1_555 1_555
C28 C27 1_555 1_555
C29 C28 1_555 1_555
C30 C25 1_555 1_555
C31 N3 1_555 1_555
C32 N4 1_555 1_555
C33 C32 1_555 1_555
C34 C33 1_555 1_555
C35 C34 1_555 1_555
C36 C31 1_555 1_555
H1 C2 1_555 1_555
H2 C3 1_555 1_555
H3 C4 1_555 1_555
H4 C5 1_555 1_555
H5 C6 1_555 1_555
H6 C8 1_555 1_555
H7 C9 1_555 1_555
H8 C10 1_555 1_555
H9 C11 1_555 1_555
H10 C12 1_555 1_555
H11 C14 1_555 1_555
H12 C15 1_555 1_555
H13 C16 1_555 1_555
H14 C17 1_555 1_555
H15 C18 1_555 1_555
H16 C20 1_555 1_555
H17 C21 1_555 1_555
H18 C22 1_555 1_555
H19 C23 1_555 1_555
H20 C24 1_555 1_555
H21 C27 1_555 1_555
H22 C28 1_555 1_555
H23 C29 1_555 1_555
H24 C30 1_555 1_555
H25 C33 1_555 1_555
H26 C34 1_555 1_555
H27 C35 1_555 1_555
H28 C36 1_555 1_555
P2 N2 1_555 1_555
P4 N4 1_555 1_555
C5 C6 1_555 1_555
C11 C12 1_555 1_555
C17 C18 1_555 1_555
C23 C24 1_555 1_555
C25 C26 1_555 1_555
C29 C30 1_555 1_555
C31 C32 1_555 1_555
C35 C36 1_555 1_555

#END
