
#######################################################################
#
#                 Cambridge Crystallographic Data Centre
#                                CCDC 
#
#######################################################################
#
# If this CIF has been generated from an entry in the Cambridge 
# Structural Database, then it will include bibliographic, chemical, 
# crystal, experimental, refinement or atomic coordinate data resulting 
# from the CCDC's data processing and validation procedures.
#
#######################################################################

data_SEBZII
_chemical_formula_moiety         'C44 H41 Br3 O10'
_chemical_name_systematic        
'(E)-4,8:7,11:10,14-Trianhydro-12-O-benzyl-2,3,6,9,13-pentadeoxy-11-C-methyl-D-talo-L-allopentadeca-2-ene 1,5,15-tris(p-bromobenzoate)'
_symmetry_cell_setting           monoclinic
_symmetry_space_group_name_H-M   'P 21'
_symmetry_Int_Tables_number      4
_space_group_name_Hall           'P 2yb'
loop_
_symmetry_equiv_pos_site_id
_symmetry_equiv_pos_as_xyz
1 x,y,z
2 -x,1/2+y,-z
_cell_length_a                   6.892(1)
_cell_length_b                   20.874(4)
_cell_length_c                   14.632(2)
_cell_angle_alpha                90
_cell_angle_beta                 93.84(2)
_cell_angle_gamma                90
_cell_volume                     2100.29
_chemical_melting_point          175-177deg.C
_cell_formula_units_Z            2
loop_
_atom_site_label
_atom_site_type_symbol
_atom_site_fract_x
_atom_site_fract_y
_atom_site_fract_z
Br1 Br 1.0283(3) 0.5000 -0.2450(1)
Br2 Br 1.0155(3) 0.3522(2) 1.2521(1)
Br3 Br 1.6815(5) 0.6734(2) -0.2101(2)
C1 C 0.879(2) 0.5029(9) -0.1381(9)
C2 C 0.973(2) 0.5103(9) -0.057(1)
C3 C 0.869(2) 0.5094(8) 0.021(1)
C4 C 0.667(2) 0.4995(9) 0.0121(9)
C5 C 0.575(2) 0.4910(8) -0.075(1)
C6 C 0.684(2) 0.4913(9) -0.1512(9)
C7 C 0.558(2) 0.4998(9) 0.0936(9)
C8 C 0.947(2) 0.3422(8) 1.123(1)
C9 C 0.751(2) 0.3357(9) 1.097(1)
C10 C 0.710(2) 0.3318(8) 1.003(1)
C11 C 0.849(2) 0.3330(8) 0.9429(9)
C12 C 1.050(3) 0.340(1) 0.973(1)
C13 C 1.082(3) 0.352(1) 1.068(1)
C14 C 0.796(3) 0.3283(8) 0.837(1)
C15 C 1.564(3) 0.674(1) -0.098(1)
C16 C 1.642(3) 0.680(1) -0.020(1)
C17 C 1.558(4) 0.672(1) 0.057(1)
C18 C 1.362(3) 0.6664(9) 0.052(1)
C19 C 1.250(3) 0.656(1) -0.031(1)
C20 C 1.354(4) 0.659(1) -0.107(2)
C21 C 1.280(3) 0.663(1) 0.149(2)
C22 C 0.574(2) 0.502(1) 0.2563(8)
C23 C 0.495(2) 0.4388(9) 0.288(1)
C24 C 0.425(2) 0.4473(9) 0.3842(9)
C25 C 0.315(2) 0.3902(9) 0.509(1)
C26 C 0.278(2) 0.3202(9) 0.530(1)
C27 C 0.230(3) 0.315(1) 0.635(1)
C28 C 0.371(2) 0.3539(8) 0.6953(9)
C29 C 0.476(2) 0.4151(9) 0.5729(8)
C30 C 0.534(2) 0.4827(9) 0.5455(9)
C31 C 0.592(2) 0.4736(7) 0.4495(9)
C32 C 0.730(2) 0.5295(9) 0.3228(9)
C33 C 0.792(3) 0.596(1) 0.299(1)
C34 C 0.961(4) 0.5993(9) 0.274(2)
C35 C 1.057(4) 0.671(1) 0.249(1)
C36 C 0.557(3) 0.3158(9) 0.719(1)
C37 C 0.114(2) 0.4246(9) 0.510(1)
C38 C 0.446(3) 0.242(1) 0.447(2)
C39 C 0.639(3) 0.2052(9) 0.451(1)
C40 C 0.760(3) 0.221(1) 0.389(2)
C41 C 0.928(3) 0.189(2) 0.381(2)
C42 C 0.961(3) 0.133(1) 0.438(2)
C43 C 0.831(6) 0.124(1) 0.507(2)
C44 C 0.678(6) 0.157(1) 0.502(2)
O1 O 0.662(1) 0.4986(6) 0.1716(6)
O2 O 0.379(1) 0.5013(7) 0.0887(7)
O3 O 0.609(2) 0.3271(6) 0.8144(7)
O4 O 0.920(2) 0.3204(7) 0.7848(8)
O5 O 1.093(2) 0.6688(8) 0.1380(9)
O6 O 1.384(3) 0.6595(9) 0.223(1)
O7 O 0.369(1) 0.3876(5) 0.4152(6)
O8 O 0.412(1) 0.4158(6) 0.6624(6)
O9 O 0.654(1) 0.5357(6) 0.4144(7)
O10 O 0.455(1) 0.2835(6) 0.5257(6)
H1 H 0.4617 0.5286 0.2509
H2 H 0.3189 0.4765 0.3825
H3 H 0.1767 0.3050 0.4882
H4 H 0.3068 0.3616 0.7495
H5 H 0.5862 0.3880 0.5701
H6 H 0.6934 0.4429 0.4515
H7 H 0.8361 0.5006 0.3209
H8 H 0.5946 0.4073 0.2894
H9 H 0.3895 0.4256 0.2473
H10 H 0.2375 0.2715 0.6533
H11 H 0.1020 0.3306 0.6413
H12 H 0.6405 0.4979 0.5841
H13 H 0.4281 0.5115 0.5474
H14 H 0.7099 0.6323 0.3019
H15 H 1.0366 0.5614 0.2696
H16 H 1.1761 0.6775 0.2840
H17 H 0.9685 0.7043 0.2616
H18 H 0.6583 0.3301 0.6828
H19 H 0.5350 0.2714 0.7083
H20 H 0.3402 0.2129 0.4486
H21 H 0.4319 0.2654 0.3919
H22 H 0.7268 0.2552 0.3479
H23 H 1.0206 0.2028 0.3399
H24 H 1.0648 0.1041 0.4294
H25 H 0.8580 0.0937 0.5556
H26 H 0.5799 0.1438 0.5412
H27 H 1.1099 0.5162 -0.0515
H28 H 0.9330 0.5153 0.0798
H29 H 0.4386 0.4849 -0.0825
H30 H 0.6256 0.4835 -0.2107
H31 H 0.6530 0.3341 1.1393
H32 H 0.5781 0.3280 0.9801
H33 H 1.1521 0.3378 0.9326
H34 H 1.2056 0.3668 1.0911
H35 H 1.7744 0.6929 -0.0153
H36 H 1.6323 0.6692 0.1137
H37 H 1.1141 0.6483 -0.0333
H38 H 1.2904 0.6517 -0.1654
loop_
_geom_bond_atom_site_label_1
_geom_bond_atom_site_label_2
_geom_bond_site_symmetry_1
_geom_bond_site_symmetry_2
Br1 C1 1_555 1_555
Br2 C8 1_555 1_555
Br3 C15 1_555 1_555
C1 C2 1_555 1_555
C2 C3 1_555 1_555
C3 C4 1_555 1_555
C4 C5 1_555 1_555
C5 C6 1_555 1_555
C6 C1 1_555 1_555
C7 C4 1_555 1_555
C8 C9 1_555 1_555
C9 C10 1_555 1_555
C10 C11 1_555 1_555
C11 C12 1_555 1_555
C12 C13 1_555 1_555
C13 C8 1_555 1_555
C14 C11 1_555 1_555
C15 C16 1_555 1_555
C16 C17 1_555 1_555
C17 C18 1_555 1_555
C18 C19 1_555 1_555
C19 C20 1_555 1_555
C20 C15 1_555 1_555
C21 C18 1_555 1_555
C22 C23 1_555 1_555
C23 C24 1_555 1_555
C24 C31 1_555 1_555
C25 C26 1_555 1_555
C26 C27 1_555 1_555
C27 C28 1_555 1_555
C28 C36 1_555 1_555
C29 C25 1_555 1_555
C30 C29 1_555 1_555
C31 C30 1_555 1_555
C32 C22 1_555 1_555
C33 C32 1_555 1_555
C34 C33 1_555 1_555
C35 C34 1_555 1_555
C36 O3 1_555 1_555
C37 C25 1_555 1_555
C38 C39 1_555 1_555
C39 C40 1_555 1_555
C40 C41 1_555 1_555
C41 C42 1_555 1_555
C42 C43 1_555 1_555
C43 C44 1_555 1_555
C44 C39 1_555 1_555
O1 C7 1_555 1_555
O2 C7 1_555 1_555
O3 C14 1_555 1_555
O4 C14 1_555 1_555
O5 C21 1_555 1_555
O6 C21 1_555 1_555
O7 C24 1_555 1_555
O8 C28 1_555 1_555
O9 C31 1_555 1_555
O10 C26 1_555 1_555
H1 C22 1_555 1_555
H2 C24 1_555 1_555
H3 C26 1_555 1_555
H4 C28 1_555 1_555
H5 C29 1_555 1_555
H6 C31 1_555 1_555
H7 C32 1_555 1_555
H8 C23 1_555 1_555
H9 C23 1_555 1_555
H10 C27 1_555 1_555
H11 C27 1_555 1_555
H12 C30 1_555 1_555
H13 C30 1_555 1_555
H14 C33 1_555 1_555
H15 C34 1_555 1_555
H16 C35 1_555 1_555
H17 C35 1_555 1_555
H18 C36 1_555 1_555
H19 C36 1_555 1_555
H20 C38 1_555 1_555
H21 C38 1_555 1_555
H22 C40 1_555 1_555
H23 C41 1_555 1_555
H24 C42 1_555 1_555
H25 C43 1_555 1_555
H26 C44 1_555 1_555
H27 C2 1_555 1_555
H28 C3 1_555 1_555
H29 C5 1_555 1_555
H30 C6 1_555 1_555
H31 C9 1_555 1_555
H32 C10 1_555 1_555
H33 C12 1_555 1_555
H34 C13 1_555 1_555
H35 C16 1_555 1_555
H36 C17 1_555 1_555
H37 C19 1_555 1_555
H38 C20 1_555 1_555
C22 O1 1_555 1_555
C25 O7 1_555 1_555
C29 O8 1_555 1_555
C32 O9 1_555 1_555
C35 O5 1_555 1_555
C38 O10 1_555 1_555

#END
