
#######################################################################
#
#                 Cambridge Crystallographic Data Centre
#                                CCDC 
#
#######################################################################
#
# If this CIF has been generated from an entry in the Cambridge 
# Structural Database, then it will include bibliographic, chemical, 
# crystal, experimental, refinement or atomic coordinate data resulting 
# from the CCDC's data processing and validation procedures.
#
#######################################################################

data_SEBZOQ
_chemical_formula_moiety         'C22 H26 O3'
_chemical_name_systematic        
(5-Benzylfuran-3-yl)methyl-2,2-dimethyl-3-(2-methylprop-1-en-1-yl)cyclopropane-1-carboxylate
_symmetry_cell_setting           monoclinic
_symmetry_space_group_name_H-M   'P 21'
_symmetry_Int_Tables_number      4
_space_group_name_Hall           'P 2yb'
loop_
_symmetry_equiv_pos_site_id
_symmetry_equiv_pos_as_xyz
1 x,y,z
2 -x,1/2+y,-z
_cell_length_a                   7.8438(14)
_cell_length_b                   11.555(2)
_cell_length_c                   10.9649(18)
_cell_angle_alpha                90
_cell_angle_beta                 108.375(3)
_cell_angle_gamma                90
_cell_volume                     943.134
_exptl_crystal_colour            colorless
_exptl_crystal_description       plate
_cell_formula_units_Z            2
loop_
_atom_site_label
_atom_site_type_symbol
_atom_site_fract_x
_atom_site_fract_y
_atom_site_fract_z
O1 O 0.6817(2) -0.05992(14) 1.05641(15)
O2 O 0.2777(2) 0.11355(14) 0.72431(15)
O3 O 0.0111(2) 0.09696(17) 0.75770(16)
C1 C 1.1967(3) -0.1520(2) 1.1670(3)
H1 H 1.1775 -0.2312 1.1430
C2 C 1.3371(4) -0.1216(3) 1.2738(3)
H2 H 1.4143 -0.1797 1.3230
C3 C 1.3657(4) -0.0084(3) 1.3093(3)
H3 H 1.4630 0.0121 1.3830
C4 C 1.2540(4) 0.0764(3) 1.2387(3)
H4 H 1.2731 0.1552 1.2642
C5 C 1.1138(3) 0.0463(2) 1.1306(3)
H5 H 1.0381 0.1048 1.0810
C6 C 1.0830(3) -0.0685(2) 1.0940(2)
C7 C 0.9302(3) -0.1018(2) 0.9759(2)
H6 H 0.9666 -0.0862 0.8989
H7 H 0.9087 -0.1860 0.9787
C8 C 0.7591(3) -0.03974(19) 0.9623(2)
C9 C 0.6617(3) 0.03791(19) 0.8776(2)
H8 H 0.6877 0.0674 0.8045
C10 C 0.5105(3) 0.06772(19) 0.9187(2)
C11 C 0.5305(3) 0.0060(2) 1.0258(2)
H9 H 0.4492 0.0080 1.0742
C12 C 0.3638(3) 0.1493(2) 0.8562(2)
H10 H 0.2748 0.1501 0.9032
H11 H 0.4128 0.2284 0.8581
C13 C 0.1008(3) 0.08949(18) 0.6877(2)
C14 C 0.0392(3) 0.05617(17) 0.5514(2)
H12 H 0.1309 0.0644 0.5059
C15 C -0.1023(3) -0.03703(18) 0.4976(2)
C16 C -0.1542(3) 0.08798(18) 0.4709(2)
H13 H -0.2295 0.1201 0.5214
C17 C -0.0750(3) -0.1108(2) 0.3920(2)
H14 H -0.0064 -0.1802 0.4294
H15 H -0.0087 -0.0666 0.3454
H16 H -0.1920 -0.1337 0.3325
C18 C -0.1790(3) -0.1031(2) 0.5866(2)
H17 H -0.2054 -0.0493 0.6474
H18 H -0.0916 -0.1608 0.6340
H19 H -0.2899 -0.1420 0.5363
C19 C -0.1846(3) 0.14189(19) 0.3437(2)
H20 H -0.1285 0.1057 0.2885
C20 C -0.2821(3) 0.23548(19) 0.2982(2)
C21 C -0.3813(4) 0.3044(2) 0.3695(3)
H21 H -0.3744 0.2650 0.4501
H22 H -0.5075 0.3120 0.3167
H23 H -0.3273 0.3815 0.3885
C22 C -0.2964(4) 0.2819(2) 0.1675(2)
H24 H -0.2335 0.2299 0.1254
H25 H -0.2417 0.3590 0.1762
H26 H -0.4232 0.2871 0.1156
loop_
_geom_bond_atom_site_label_1
_geom_bond_atom_site_label_2
_geom_bond_site_symmetry_1
_geom_bond_site_symmetry_2
O1 C8 1_555 1_555
O2 C12 1_555 1_555
O3 C13 1_555 1_555
C1 H1 1_555 1_555
C2 C1 1_555 1_555
H2 C2 1_555 1_555
C3 C2 1_555 1_555
H3 C3 1_555 1_555
C4 C3 1_555 1_555
H4 C4 1_555 1_555
C5 C4 1_555 1_555
H5 C5 1_555 1_555
C6 C1 1_555 1_555
C7 C6 1_555 1_555
H6 C7 1_555 1_555
H7 C7 1_555 1_555
C8 C7 1_555 1_555
C9 C8 1_555 1_555
H8 C9 1_555 1_555
C10 C9 1_555 1_555
C11 O1 1_555 1_555
H9 C11 1_555 1_555
C12 C10 1_555 1_555
H10 C12 1_555 1_555
H11 C12 1_555 1_555
C13 O2 1_555 1_555
C14 C13 1_555 1_555
H12 C14 1_555 1_555
C15 C14 1_555 1_555
C16 C14 1_555 1_555
H13 C16 1_555 1_555
C17 C15 1_555 1_555
H14 C17 1_555 1_555
H15 C17 1_555 1_555
H16 C17 1_555 1_555
C18 C15 1_555 1_555
H17 C18 1_555 1_555
H18 C18 1_555 1_555
H19 C18 1_555 1_555
C19 C16 1_555 1_555
H20 C19 1_555 1_555
C20 C19 1_555 1_555
C21 C20 1_555 1_555
H21 C21 1_555 1_555
H22 C21 1_555 1_555
H23 C21 1_555 1_555
C22 C20 1_555 1_555
H24 C22 1_555 1_555
H25 C22 1_555 1_555
H26 C22 1_555 1_555
C5 C6 1_555 1_555
C10 C11 1_555 1_555
C15 C16 1_555 1_555

#END
