
#######################################################################
#
#                 Cambridge Crystallographic Data Centre
#                                CCDC 
#
#######################################################################
#
# If this CIF has been generated from an entry in the Cambridge 
# Structural Database, then it will include bibliographic, chemical, 
# crystal, experimental, refinement or atomic coordinate data resulting 
# from the CCDC's data processing and validation procedures.
#
#######################################################################

data_SECBEJ
_chemical_formula_moiety         'C10 H10 O2'
_chemical_name_systematic        7-Methoxyindan-1-one
_symmetry_cell_setting           orthorhombic
_symmetry_space_group_name_H-M   'P b c a'
_symmetry_Int_Tables_number      61
_space_group_name_Hall           '-P 2ac 2ab'
loop_
_symmetry_equiv_pos_site_id
_symmetry_equiv_pos_as_xyz
1 x,y,z
2 1/2-x,-y,1/2+z
3 -x,1/2+y,1/2-z
4 1/2+x,1/2-y,-z
5 -x,-y,-z
6 1/2+x,y,1/2-z
7 x,1/2-y,1/2+z
8 1/2-x,1/2+y,z
_cell_length_a                   8.5386(7)
_cell_length_b                   10.4949(9)
_cell_length_c                   18.8536(16)
_cell_angle_alpha                90
_cell_angle_beta                 90
_cell_angle_gamma                90
_cell_volume                     1689.5
_exptl_crystal_colour            colorless
_exptl_crystal_description       parallelepiped
_cell_formula_units_Z            8
loop_
_atom_site_label
_atom_site_type_symbol
_atom_site_fract_x
_atom_site_fract_y
_atom_site_fract_z
O1 O 0.34168(11) 0.54158(11) 0.13950(7)
O2 O 0.07222(10) 0.67528(9) 0.20144(5)
C1 C 0.06609(14) 0.50056(11) 0.12296(6)
C2 C 0.23519(16) 0.47945(13) 0.11460(7)
C3 C 0.25583(19) 0.36302(14) 0.06788(8)
H1 H 0.3207 0.3835 0.0272
H2 H 0.3057 0.2948 0.0943
C4 C 0.09387(18) 0.32271(14) 0.04396(8)
H3 H 0.0829 0.3318 -0.0070
H4 H 0.0734 0.2348 0.0568
C5 C -0.01569(17) 0.41149(12) 0.08242(7)
C6 C -0.17764(18) 0.41110(14) 0.08112(8)
H5 H -0.2322 0.3522 0.0538
C7 C -0.25596(18) 0.49998(16) 0.12127(8)
H6 H -0.3649 0.5006 0.1207
C8 C -0.17749(16) 0.58882(14) 0.16256(7)
H7 H -0.2340 0.6470 0.1896
C9 C -0.01507(15) 0.59128(12) 0.16371(6)
C10 C -0.0085(2) 0.76805(14) 0.24349(8)
H8 H 0.0664 0.8210 0.2674
H9 H -0.0729 0.7255 0.2779
H10 H -0.0730 0.8198 0.2134
loop_
_geom_bond_atom_site_label_1
_geom_bond_atom_site_label_2
_geom_bond_site_symmetry_1
_geom_bond_site_symmetry_2
O1 C2 1_555 1_555
O2 C9 1_555 1_555
C1 C2 1_555 1_555
C2 C3 1_555 1_555
C3 H1 1_555 1_555
H2 C3 1_555 1_555
C4 C3 1_555 1_555
H3 C4 1_555 1_555
H4 C4 1_555 1_555
C5 C1 1_555 1_555
C6 C5 1_555 1_555
H5 C6 1_555 1_555
C7 C6 1_555 1_555
H6 C7 1_555 1_555
C8 C7 1_555 1_555
H7 C8 1_555 1_555
C9 C1 1_555 1_555
C10 O2 1_555 1_555
H8 C10 1_555 1_555
H9 C10 1_555 1_555
H10 C10 1_555 1_555
C4 C5 1_555 1_555
C8 C9 1_555 1_555

#END
