
#######################################################################
#
#                 Cambridge Crystallographic Data Centre
#                                CCDC 
#
#######################################################################
#
# If this CIF has been generated from an entry in the Cambridge 
# Structural Database, then it will include bibliographic, chemical, 
# crystal, experimental, refinement or atomic coordinate data resulting 
# from the CCDC's data processing and validation procedures.
#
#######################################################################

data_SECDAH
_chemical_formula_moiety         'C11 H10 O3'
_chemical_name_systematic        '3-Oxo-2,3-dihydro-1H-inden-4-yl acetate'
_symmetry_cell_setting           orthorhombic
_symmetry_space_group_name_H-M   'P b c a'
_symmetry_Int_Tables_number      61
_space_group_name_Hall           '-P 2ac 2ab'
loop_
_symmetry_equiv_pos_site_id
_symmetry_equiv_pos_as_xyz
1 x,y,z
2 1/2-x,-y,1/2+z
3 -x,1/2+y,1/2-z
4 1/2+x,1/2-y,-z
5 -x,-y,-z
6 1/2+x,y,1/2-z
7 x,1/2-y,1/2+z
8 1/2-x,1/2+y,z
_cell_length_a                   9.8514(10)
_cell_length_b                   8.9757(7)
_cell_length_c                   21.917(3)
_cell_angle_alpha                90
_cell_angle_beta                 90
_cell_angle_gamma                90
_cell_volume                     1937.97
_exptl_crystal_colour            colorless
_exptl_crystal_description       parallelepiped
_cell_formula_units_Z            8
loop_
_atom_site_label
_atom_site_type_symbol
_atom_site_fract_x
_atom_site_fract_y
_atom_site_fract_z
O1 O 0.4675(3) -0.1591(3) 0.54019(14)
O2 O 0.4074(2) 0.0430(2) 0.64503(12)
O3 O 0.4063(3) -0.1886(3) 0.68244(16)
C1 C 0.6245(3) -0.0223(3) 0.60176(15)
C2 C 0.5807(4) -0.1175(4) 0.55084(17)
C3 C 0.7066(5) -0.1530(5) 0.5139(2)
H1 H 0.7156 -0.2598 0.5086
H2 H 0.7013 -0.1067 0.4740
C4 C 0.8266(4) -0.0918(5) 0.5494(2)
H3 H 0.8833 -0.1720 0.5645
H4 H 0.8812 -0.0269 0.5239
C5 C 0.7649(3) -0.0065(4) 0.60117(17)
C6 C 0.8271(4) 0.0804(5) 0.6447(2)
H5 H 0.9208 0.0928 0.6442
C7 C 0.7502(5) 0.1487(5) 0.6887(2)
H6 H 0.7929 0.2063 0.7183
C8 C 0.6107(4) 0.1338(4) 0.68999(18)
H7 H 0.5596 0.1815 0.7198
C9 C 0.5494(3) 0.0480(3) 0.64677(16)
C10 C 0.3463(4) -0.0857(4) 0.66149(19)
C11 C 0.1978(4) -0.0793(5) 0.6504(3)
H8 H 0.1572 -0.1721 0.6623
H9 H 0.1813 -0.0620 0.6078
H10 H 0.1590 0.0002 0.6739
loop_
_geom_bond_atom_site_label_1
_geom_bond_atom_site_label_2
_geom_bond_site_symmetry_1
_geom_bond_site_symmetry_2
O1 C2 1_555 1_555
O2 C9 1_555 1_555
O3 C10 1_555 1_555
C1 C2 1_555 1_555
C2 C3 1_555 1_555
C3 H1 1_555 1_555
H2 C3 1_555 1_555
C4 C3 1_555 1_555
H3 C4 1_555 1_555
H4 C4 1_555 1_555
C5 C1 1_555 1_555
C6 C5 1_555 1_555
H5 C6 1_555 1_555
C7 C6 1_555 1_555
H6 C7 1_555 1_555
C8 C7 1_555 1_555
H7 C8 1_555 1_555
C9 C1 1_555 1_555
C10 O2 1_555 1_555
C11 C10 1_555 1_555
H8 C11 1_555 1_555
H9 C11 1_555 1_555
H10 C11 1_555 1_555
C4 C5 1_555 1_555
C8 C9 1_555 1_555

#END
