
#######################################################################
#
#                 Cambridge Crystallographic Data Centre
#                                CCDC 
#
#######################################################################
#
# If this CIF has been generated from an entry in the Cambridge 
# Structural Database, then it will include bibliographic, chemical, 
# crystal, experimental, refinement or atomic coordinate data resulting 
# from the CCDC's data processing and validation procedures.
#
#######################################################################

data_SECDIN
_chemical_formula_moiety         'C19 H32 O4'
_chemical_name_systematic        
(2S,3R,4aS,6R,7S,8aR)-7-Hydroxyoctahydro-2,4a,6-trimethyl-6-(4-methyl-3-pentenyl)-2-vinylpyrano(3,2-b)pyran-3-ol
_symmetry_cell_setting           rhombohedral
_symmetry_space_group_name_H-M   'R 3'
_symmetry_Int_Tables_number      146
_space_group_name_Hall           'R 3'
loop_
_symmetry_equiv_pos_site_id
_symmetry_equiv_pos_as_xyz
1 x,y,z
2 1/3+x,2/3+y,2/3+z
3 2/3+x,1/3+y,1/3+z
4 -y,x-y,z
5 -x+y,-x,z
6 1/3-y,2/3+x-y,2/3+z
7 1/3-x+y,2/3-x,2/3+z
8 2/3-y,1/3+x-y,1/3+z
9 2/3-x+y,1/3-x,1/3+z
_cell_length_a                   28.370(5)
_cell_length_b                   28.370(5)
_cell_length_c                   6.475(3)
_cell_angle_alpha                90
_cell_angle_beta                 90
_cell_angle_gamma                120
_cell_volume                     4513.25
_exptl_crystal_colour            colorless
_chemical_melting_point          134-135deg.C
_cell_formula_units_Z            9
loop_
_atom_site_label
_atom_site_type_symbol
_atom_site_fract_x
_atom_site_fract_y
_atom_site_fract_z
C1 C 0.4011(3) 0.2679(3) 0.751
C2 C 0.3514(4) 0.2572(3) 0.878(1)
C3 C 0.2991(3) 0.2082(3) 0.811(1)
C4 C 0.3079(3) 0.1602(3) 0.799(1)
C5 C 0.3515(3) 0.1697(3) 0.650(1)
C6 C 0.3620(4) 0.1222(3) 0.675(1)
C7 C 0.3098(3) 0.0673(3) 0.647(1)
C8 C 0.2622(4) 0.0643(3) 0.774(2)
C9 C 0.2092(4) 0.0191(4) 0.681(2)
C10 C 0.1734(6) 0.0260(8) 0.570(3)
C11 C 0.4524(5) 0.3018(5) 0.863(3)
C12 C 0.4752(7) 0.2873(6) 1.001(3)
C13 C 0.5209(5) 0.3239(7) 1.136(3)
C14 C 0.5451(7) 0.3215(7) 1.283(3)
C15 C 0.5245(6) 0.2638(8) 1.361(3)
C16 C 0.5866(8) 0.356(2) 1.421(4)
C17 C 0.4051(5) 0.2985(4) 0.550(2)
C18 C 0.3377(5) 0.1737(4) 0.425(2)
C19 C 0.2663(5) 0.0529(4) 1.002(2)
O1 O 0.2594(2) 0.1131(2) 0.748(1)
O2 O 0.4013(2) 0.2179(2) 0.708(1)
O3 O 0.3193(2) 0.0245(2) 0.697(1)
O4 O 0.3477(2) 0.3062(2) 0.893(1)
H1 H 0.3570 0.2476 1.0123
H2 H 0.3193 0.1555 0.9314
H3 H 0.2992 0.0636 0.5060
H4 H 0.2886 0.2147 0.6797
H5 H 0.2713 0.2011 0.9092
H6 H 0.3762 0.1236 0.8086
H7 H 0.3878 0.1253 0.5738
H8 H 0.2010 -0.0173 0.7032
H9 H 0.1415 -0.0047 0.5179
H10 H 0.1798 0.0616 0.5433
H11 H 0.4474 0.3289 0.9289
H12 H 0.4790 0.3180 0.7575
H13 H 0.4876 0.2664 0.9286
H14 H 0.4466 0.2642 1.0923
H15 H 0.5355 0.3606 1.0927
H16 H 0.4961 0.2387 1.2738
H17 H 0.5535 0.2562 1.3615
H18 H 0.5109 0.2606 1.4979
H19 H 0.6012 0.3924 1.3804
H20 H 0.5720 0.3508 1.5568
H21 H 0.6146 0.3464 1.4203
H22 H 0.3727 0.2781 0.4717
H23 H 0.4095 0.3331 0.5820
H24 H 0.4354 0.3030 0.4719
H25 H 0.3311 0.2032 0.4096
H26 H 0.3672 0.1794 0.3387
H27 H 0.3060 0.1408 0.3854
H28 H 0.2365 0.0513 1.0751
H29 H 0.2653 0.0191 1.0143
H30 H 0.2994 0.0811 1.0567
loop_
_geom_bond_atom_site_label_1
_geom_bond_atom_site_label_2
_geom_bond_site_symmetry_1
_geom_bond_site_symmetry_2
C1 C2 1_555 1_555
C2 C3 1_555 1_555
C3 C4 1_555 1_555
C4 C5 1_555 1_555
C5 C6 1_555 1_555
C6 C7 1_555 1_555
C7 C8 1_555 1_555
C8 C9 1_555 1_555
C9 C10 1_555 1_555
C10 H9 1_555 1_555
C11 C1 1_555 1_555
C12 C11 1_555 1_555
C13 C12 1_555 1_555
C14 C13 1_555 1_555
C15 C14 1_555 1_555
C16 C14 1_555 1_555
C17 C1 1_555 1_555
C18 C5 1_555 1_555
C19 C8 1_555 1_555
O1 C4 1_555 1_555
O2 C1 1_555 1_555
O3 C7 1_555 1_555
O4 C2 1_555 1_555
H1 C2 1_555 1_555
H2 C4 1_555 1_555
H3 C7 1_555 1_555
H4 C3 1_555 1_555
H5 C3 1_555 1_555
H6 C6 1_555 1_555
H7 C6 1_555 1_555
H8 C9 1_555 1_555
H10 C10 1_555 1_555
H11 C11 1_555 1_555
H12 C11 1_555 1_555
H13 C12 1_555 1_555
H14 C12 1_555 1_555
H15 C13 1_555 1_555
H16 C15 1_555 1_555
H17 C15 1_555 1_555
H18 C15 1_555 1_555
H19 C16 1_555 1_555
H20 C16 1_555 1_555
H21 C16 1_555 1_555
H22 C17 1_555 1_555
H23 C17 1_555 1_555
H24 C17 1_555 1_555
H25 C18 1_555 1_555
H26 C18 1_555 1_555
H27 C18 1_555 1_555
H28 C19 1_555 1_555
H29 C19 1_555 1_555
H30 C19 1_555 1_555
C5 O2 1_555 1_555
C8 O1 1_555 1_555

#END
