
#######################################################################
#
#                 Cambridge Crystallographic Data Centre
#                                CCDC 
#
#######################################################################
#
# If this CIF has been generated from an entry in the Cambridge 
# Structural Database, then it will include bibliographic, chemical, 
# crystal, experimental, refinement or atomic coordinate data resulting 
# from the CCDC's data processing and validation procedures.
#
#######################################################################

data_SECGAK01
_chemical_formula_moiety         'C14 H16 N2'
_chemical_name_systematic        
N-(2,5-dimethylphenyl)-1-(1H-pyrrol-2-yl)ethanimine
_symmetry_cell_setting           monoclinic
_symmetry_space_group_name_H-M   'P 21/n'
_symmetry_Int_Tables_number      14
_space_group_name_Hall           '-P 2yn'
loop_
_symmetry_equiv_pos_site_id
_symmetry_equiv_pos_as_xyz
1 x,y,z
2 1/2-x,1/2+y,1/2-z
3 -x,-y,-z
4 1/2+x,1/2-y,1/2+z
_cell_length_a                   12.5894(17)
_cell_length_b                   7.3109(10)
_cell_length_c                   14.8425(19)
_cell_angle_alpha                90
_cell_angle_beta                 113.118(2)
_cell_angle_gamma                90
_cell_volume                     1256.4
_cell_formula_units_Z            4
loop_
_atom_site_label
_atom_site_type_symbol
_atom_site_fract_x
_atom_site_fract_y
_atom_site_fract_z
N1 N 0.02768(11) 0.93941(19) 0.15141(10)
H1 H -0.0110 0.9623 0.0904
N2 N 0.16710(11) 0.92216(18) 0.04350(10)
C1 C -0.01725(15) 0.9301(2) 0.22058(13)
H2 H -0.0944 0.9480 0.2099
C2 C 0.06821(16) 0.8909(3) 0.30729(13)
H3 H 0.0607 0.8760 0.3667
C3 C 0.17104(15) 0.8764(2) 0.29154(13)
H4 H 0.2440 0.8508 0.3389
C4 C 0.14439(14) 0.9068(2) 0.19348(12)
C5 C 0.21618(13) 0.90266(19) 0.13701(11)
C6 C 0.34381(14) 0.8754(3) 0.19338(13)
H5 H 0.3787 0.8382 0.1493
H6 H 0.3561 0.7826 0.2422
H7 H 0.3780 0.9881 0.2246
C7 C 0.23367(13) 0.9170(2) -0.01510(11)
C8 C 0.29384(13) 1.0713(2) -0.02278(12)
H8 H 0.2956 1.1732 0.0153
C9 C 0.35158(14) 1.0781(2) -0.08550(12)
C10 C 0.34728(16) 0.9243(3) -0.14130(13)
H9 H 0.3852 0.9247 -0.1839
C11 C 0.28745(16) 0.7705(3) -0.13439(12)
H10 H 0.2865 0.6690 -0.1725
C12 C 0.22839(14) 0.7620(2) -0.07227(11)
C13 C 0.41644(16) 1.2477(3) -0.09200(15)
H11 H 0.4968 1.2336 -0.0510
H12 H 0.3860 1.3517 -0.0706
H13 H 0.4078 1.2658 -0.1586
C14 C 0.1603(2) 0.5965(3) -0.06750(17)
H14 H 0.1586 0.5106 -0.1170
H15 H 0.0829 0.6323 -0.0783
H16 H 0.1960 0.5406 -0.0041
loop_
_geom_bond_atom_site_label_1
_geom_bond_atom_site_label_2
_geom_bond_site_symmetry_1
_geom_bond_site_symmetry_2
N1 H1 1_555 1_555
N2 C5 1_555 1_555
C1 N1 1_555 1_555
H2 C1 1_555 1_555
C2 C1 1_555 1_555
H3 C2 1_555 1_555
C3 C2 1_555 1_555
H4 C3 1_555 1_555
C4 N1 1_555 1_555
C5 C4 1_555 1_555
C6 C5 1_555 1_555
H5 C6 1_555 1_555
H6 C6 1_555 1_555
H7 C6 1_555 1_555
C7 N2 1_555 1_555
C8 C7 1_555 1_555
H8 C8 1_555 1_555
C9 C8 1_555 1_555
C10 C9 1_555 1_555
H9 C10 1_555 1_555
C11 C10 1_555 1_555
H10 C11 1_555 1_555
C12 C7 1_555 1_555
C13 C9 1_555 1_555
H11 C13 1_555 1_555
H12 C13 1_555 1_555
H13 C13 1_555 1_555
C14 C12 1_555 1_555
H14 C14 1_555 1_555
H15 C14 1_555 1_555
H16 C14 1_555 1_555
C3 C4 1_555 1_555
C11 C12 1_555 1_555

#END
