
#######################################################################
#
#                 Cambridge Crystallographic Data Centre
#                                CCDC 
#
#######################################################################
#
# If this CIF has been generated from an entry in the Cambridge 
# Structural Database, then it will include bibliographic, chemical, 
# crystal, experimental, refinement or atomic coordinate data resulting 
# from the CCDC's data processing and validation procedures.
#
#######################################################################

data_SECHEP
_chemical_formula_moiety         'C9 H8 O2'
_chemical_name_systematic        4-Hydroxyindan-1-one
_symmetry_cell_setting           monoclinic
_symmetry_space_group_name_H-M   'C 2/c'
_symmetry_Int_Tables_number      15
_space_group_name_Hall           '-C 2yn'
loop_
_symmetry_equiv_pos_site_id
_symmetry_equiv_pos_as_xyz
1 x,y,z
2 -x,y,1/2-z
3 1/2+x,1/2+y,z
4 1/2-x,1/2+y,1/2-z
5 -x,-y,-z
6 x,-y,1/2+z
7 1/2-x,1/2-y,-z
8 1/2+x,1/2-y,1/2+z
_cell_length_a                   13.5890(6)
_cell_length_b                   8.6160(3)
_cell_length_c                   13.9435(6)
_cell_angle_alpha                90
_cell_angle_beta                 116.738(6)
_cell_angle_gamma                90
_cell_volume                     1457.98
_exptl_crystal_colour            colorless
_exptl_crystal_description       parallelepiped
_cell_formula_units_Z            8
loop_
_atom_site_label
_atom_site_type_symbol
_atom_site_fract_x
_atom_site_fract_y
_atom_site_fract_z
O1 O 0.21183(9) 0.05958(13) 0.03489(8)
H1 H 0.1454(17) 0.116(3) 0.0012(17)
O2 O 0.51759(9) -0.29276(13) -0.06930(10)
C1 C 0.24288(9) 0.01208(14) -0.04004(9)
C2 C 0.18722(10) 0.05169(14) -0.14805(10)
H2 H 0.1252 0.1147 -0.1716
C3 C 0.22258(10) -0.00108(14) -0.22117(9)
H3 H 0.1839 0.0273 -0.2930
C4 C 0.31337(10) -0.09427(14) -0.18965(10)
H4 H 0.3372 -0.1300 -0.2386
C5 C 0.36864(9) -0.13348(13) -0.08148(9)
C6 C 0.33542(9) -0.08162(13) -0.00686(9)
C7 C 0.40960(11) -0.13665(16) 0.10481(10)
H5 H 0.3686 -0.1952 0.1343
H6 H 0.4457 -0.0499 0.1519
C8 C 0.49369(11) -0.24025(16) 0.09019(12)
H7 H 0.5681 -0.2036 0.1346
H8 H 0.4879 -0.3465 0.1100
C9 C 0.46657(10) -0.23041(14) -0.02658(11)
loop_
_geom_bond_atom_site_label_1
_geom_bond_atom_site_label_2
_geom_bond_site_symmetry_1
_geom_bond_site_symmetry_2
O1 H1 1_555 1_555
O2 C9 1_555 1_555
C1 O1 1_555 1_555
C2 C1 1_555 1_555
H2 C2 1_555 1_555
C3 C2 1_555 1_555
H3 C3 1_555 1_555
C4 C3 1_555 1_555
H4 C4 1_555 1_555
C5 C4 1_555 1_555
C6 C1 1_555 1_555
C7 C6 1_555 1_555
H5 C7 1_555 1_555
H6 C7 1_555 1_555
C8 C7 1_555 1_555
H7 C8 1_555 1_555
H8 C8 1_555 1_555
C9 C5 1_555 1_555
C5 C6 1_555 1_555
C8 C9 1_555 1_555

#END
