
#######################################################################
#
#                 Cambridge Crystallographic Data Centre
#                                CCDC 
#
#######################################################################
#
# If this CIF has been generated from an entry in the Cambridge 
# Structural Database, then it will include bibliographic, chemical, 
# crystal, experimental, refinement or atomic coordinate data resulting 
# from the CCDC's data processing and validation procedures.
#
#######################################################################

data_SECHIU
_chemical_compound_source        
'culture of a deep-sea sediment-derived fungus Leptosphaeria sp. SCSIO 41005'
_chemical_name_common            'Leptosphaerin J'
_chemical_formula_moiety         'C26 H26 O11'
_chemical_name_systematic        
(3R,3'R)-4,4'-(oxybis(methylene))bis(3-acetyl-7-hydroxy-5-methoxy-3-methylisobenzofuran-1(3H)-one)
_symmetry_cell_setting           orthorhombic
_symmetry_space_group_name_H-M   'P 21 21 2'
_symmetry_Int_Tables_number      18
_space_group_name_Hall           'P 2 2ab'
loop_
_symmetry_equiv_pos_site_id
_symmetry_equiv_pos_as_xyz
1 x,y,z
2 -x,-y,z
3 1/2-x,1/2+y,-z
4 1/2+x,1/2-y,-z
_cell_length_a                   23.08124(16)
_cell_length_b                   10.49438(8)
_cell_length_c                   10.03167(10)
_cell_angle_alpha                90
_cell_angle_beta                 90
_cell_angle_gamma                90
_cell_volume                     2429.9
_exptl_crystal_colour            colorless
_exptl_crystal_description       prism
_cell_formula_units_Z            4
loop_
_atom_site_label
_atom_site_type_symbol
_atom_site_fract_x
_atom_site_fract_y
_atom_site_fract_z
C1 C 0.32968(9) 0.71447(19) 0.4488(2)
C2 C 0.41079(8) 0.70620(17) 0.3109(2)
C3 C 0.38438(7) 0.83872(16) 0.30577(18)
C4 C 0.40109(7) 0.94469(16) 0.23334(18)
C5 C 0.36674(8) 1.05495(17) 0.25239(19)
C6 C 0.31831(8) 1.05702(18) 0.3348(2)
H1 H 0.2960 1.1327 0.3429
C7 C 0.30241(8) 0.94813(18) 0.4055(2)
C8 C 0.33635(8) 0.83950(17) 0.3899(2)
C9 C 0.40254(8) 0.63642(17) 0.1778(2)
C10 C 0.34170(10) 0.6060(2) 0.1358(3)
H2 H 0.3196 0.6852 0.1264
H3 H 0.3234 0.5520 0.2034
H4 H 0.3424 0.5609 0.0503
C11 C 0.47261(8) 0.7013(2) 0.3616(2)
H5 H 0.4743 0.7371 0.4518
H6 H 0.4976 0.7511 0.3023
H7 H 0.4859 0.6127 0.3635
C12 C 0.45346(7) 0.95143(18) 0.1453(2)
H8 H 0.4632 0.8657 0.1108
H9 H 0.4460 1.0085 0.0686
C13 C 0.35233(11) 1.2737(2) 0.1941(2)
H10 H 0.3705 1.3400 0.1395
H11 H 0.3512 1.3015 0.2873
H12 H 0.3128 1.2585 0.1624
O1 O 0.29261(7) 0.67276(15) 0.52271(17)
O2 O 0.37372(6) 0.63868(12) 0.40615(15)
O3 O 0.44367(7) 0.61079(18) 0.10986(19)
O4 O 0.38518(6) 1.15860(12) 0.18403(15)
O5 O 0.25638(6) 0.94352(15) 0.48697(17)
H13 H 0.2369(13) 1.018(3) 0.481(3)
O6 O 0.5000 1.0000 0.2245(2)
C1A C 0.67032(9) 1.28553(19) 0.4488(2)
C2A C 0.58921(8) 1.29380(17) 0.3109(2)
C3A C 0.61562(7) 1.16128(16) 0.30577(18)
C4A C 0.59891(7) 1.05531(16) 0.23334(18)
C5A C 0.63326(8) 0.94505(17) 0.25239(19)
C6A C 0.68169(8) 0.94298(18) 0.3348(2)
H1A H 0.7040 0.8673 0.3429
C7A C 0.69759(8) 1.05187(18) 0.4055(2)
C8A C 0.66365(8) 1.16050(17) 0.3899(2)
C9A C 0.59746(8) 1.36358(17) 0.1778(2)
C10A C 0.65830(10) 1.3940(2) 0.1358(3)
H2A H 0.6804 1.3148 0.1264
H3A H 0.6766 1.4480 0.2034
H4A H 0.6576 1.4391 0.0503
C11A C 0.52739(8) 1.2987(2) 0.3616(2)
H5A H 0.5257 1.2629 0.4518
H6A H 0.5024 1.2489 0.3023
H7A H 0.5141 1.3873 0.3635
C12A C 0.54654(7) 1.04857(18) 0.1453(2)
H8A H 0.5368 1.1343 0.1108
H9A H 0.5540 0.9915 0.0686
C13A C 0.64767(11) 0.7263(2) 0.1941(2)
H10A H 0.6295 0.6600 0.1395
H11A H 0.6488 0.6985 0.2873
H12A H 0.6872 0.7415 0.1624
O1A O 0.70739(7) 1.32724(15) 0.52271(17)
O2A O 0.62628(6) 1.36132(12) 0.40615(15)
O3A O 0.55633(7) 1.38921(18) 0.10986(19)
O4A O 0.61482(6) 0.84140(12) 0.18403(15)
O5A O 0.74362(6) 1.05648(15) 0.48697(17)
H13A H 0.7631(13) 0.982(3) 0.481(3)
C14 C 0.18985(8) 0.77664(17) 0.14034(19)
C15 C 0.11478(8) 0.77839(16) 0.29495(19)
C16 C 0.12712(7) 0.64193(17) 0.25345(18)
C17 C 0.10147(7) 0.52945(17) 0.29313(18)
C18 C 0.12432(8) 0.41682(17) 0.2349(2)
C19 C 0.16696(8) 0.41930(18) 0.1362(2)
H14 H 0.1801 0.3420 0.0974
C20 C 0.19027(7) 0.53530(18) 0.09459(19)
C21 C 0.17127(7) 0.64568(18) 0.15800(19)
C22 C 0.05324(8) 0.81992(17) 0.2504(2)
C23 C 0.04067(12) 0.8224(4) 0.1056(3)
H15 H -0.0010 0.8105 0.0913
H16 H 0.0620 0.7537 0.0613
H17 H 0.0527 0.9047 0.0684
C24 C 0.12669(9) 0.80842(19) 0.4400(2)
H18 H 0.1670 0.7873 0.4612
H19 H 0.1007 0.7580 0.4966
H20 H 0.1200 0.8993 0.4562
C25 C 0.05028(7) 0.52074(17) 0.38504(19)
H21 H 0.0555 0.4494 0.4484
H22 H 0.0461 0.6007 0.4366
C26 C 0.11846(10) 0.18888(18) 0.2256(2)
H23 H 0.1094 0.1881 0.1302
H24 H 0.0978 0.1192 0.2700
H25 H 0.1603 0.1778 0.2381
O7 O 0.22900(6) 0.82074(13) 0.07365(15)
O8 O 0.15568(6) 0.85344(12) 0.21535(14)
O9 O 0.01812(7) 0.84876(19) 0.33220(18)
O10 O 0.10082(6) 0.30813(12) 0.28217(15)
O11 O 0.22896(6) 0.54697(14) -0.00479(15)
H26 H 0.2401(12) 0.468(3) -0.029(3)
O12 O 0.0000 0.5000 0.30477(19)
C14A C -0.18985(8) 0.22336(17) 0.14034(19)
C15A C -0.11478(8) 0.22161(16) 0.29495(19)
C16A C -0.12712(7) 0.35807(17) 0.25345(18)
C17A C -0.10147(7) 0.47055(17) 0.29313(18)
C18A C -0.12432(8) 0.58318(17) 0.2349(2)
C19A C -0.16696(8) 0.58070(18) 0.1362(2)
H14A H -0.1801 0.6580 0.0974
C20A C -0.19027(7) 0.46470(18) 0.09459(19)
C21A C -0.17127(7) 0.35432(18) 0.15800(19)
C22A C -0.05324(8) 0.18008(17) 0.2504(2)
C23A C -0.04067(12) 0.1776(4) 0.1056(3)
H15A H 0.0010 0.1895 0.0913
H16A H -0.0620 0.2463 0.0613
H17A H -0.0527 0.0953 0.0684
C24A C -0.12669(9) 0.19158(19) 0.4400(2)
H18A H -0.1670 0.2127 0.4612
H19A H -0.1007 0.2420 0.4966
H20A H -0.1200 0.1007 0.4562
C25A C -0.05028(7) 0.47926(17) 0.38504(19)
H21A H -0.0555 0.5506 0.4484
H22A H -0.0461 0.3993 0.4366
C26A C -0.11846(10) 0.81112(18) 0.2256(2)
H23A H -0.1094 0.8119 0.1302
H24A H -0.0978 0.8808 0.2700
H25A H -0.1603 0.8222 0.2381
O7A O -0.22900(6) 0.17926(13) 0.07365(15)
O8A O -0.15568(6) 0.14656(12) 0.21535(14)
O9A O -0.01812(7) 0.15124(19) 0.33220(18)
O10A O -0.10082(6) 0.69187(12) 0.28217(15)
O11A O -0.22896(6) 0.45303(14) -0.00479(15)
H26A H -0.2401(12) 0.532(3) -0.029(3)
loop_
_geom_bond_atom_site_label_1
_geom_bond_atom_site_label_2
_geom_bond_site_symmetry_1
_geom_bond_site_symmetry_2
C1 C8 1_555 1_555
C2 C3 1_555 1_555
C3 C4 1_555 1_555
C4 C5 1_555 1_555
C5 C6 1_555 1_555
C6 H1 1_555 1_555
C7 C6 1_555 1_555
C8 C3 1_555 1_555
C9 C2 1_555 1_555
C10 C9 1_555 1_555
H2 C10 1_555 1_555
H3 C10 1_555 1_555
H4 C10 1_555 1_555
C11 C2 1_555 1_555
H5 C11 1_555 1_555
H6 C11 1_555 1_555
H7 C11 1_555 1_555
C12 C4 1_555 1_555
H8 C12 1_555 1_555
H9 C12 1_555 1_555
C13 H10 1_555 1_555
H11 C13 1_555 1_555
H12 C13 1_555 1_555
O1 C1 1_555 1_555
O2 C1 1_555 1_555
O3 C9 1_555 1_555
O4 C5 1_555 1_555
O5 C7 1_555 1_555
H13 O5 1_555 1_555
O6 C12 1_555 1_555
C14 C21 1_555 1_555
C15 C16 1_555 1_555
C16 C17 1_555 1_555
C17 C18 1_555 1_555
C18 C19 1_555 1_555
C19 H14 1_555 1_555
C20 C19 1_555 1_555
C21 C16 1_555 1_555
C22 C15 1_555 1_555
C23 C22 1_555 1_555
H15 C23 1_555 1_555
H16 C23 1_555 1_555
H17 C23 1_555 1_555
C24 C15 1_555 1_555
H18 C24 1_555 1_555
H19 C24 1_555 1_555
H20 C24 1_555 1_555
C25 C17 1_555 1_555
H21 C25 1_555 1_555
H22 C25 1_555 1_555
C26 H23 1_555 1_555
H24 C26 1_555 1_555
H25 C26 1_555 1_555
O7 C14 1_555 1_555
O8 C14 1_555 1_555
O9 C22 1_555 1_555
O10 C18 1_555 1_555
O11 C20 1_555 1_555
H26 O11 1_555 1_555
O12 C25 1_555 1_555
C1A C8A 1_555 1_555
C2A C3A 1_555 1_555
C3A C4A 1_555 1_555
C4A C5A 1_555 1_555
C5A C6A 1_555 1_555
C6A H1A 1_555 1_555
C7A C6A 1_555 1_555
C8A C3A 1_555 1_555
C9A C2A 1_555 1_555
C10A C9A 1_555 1_555
H2A C10A 1_555 1_555
H3A C10A 1_555 1_555
H4A C10A 1_555 1_555
C11A C2A 1_555 1_555
H5A C11A 1_555 1_555
H6A C11A 1_555 1_555
H7A C11A 1_555 1_555
C12A O6 1_555 1_555
H8A C12A 1_555 1_555
H9A C12A 1_555 1_555
C13A H10A 1_555 1_555
H11A C13A 1_555 1_555
H12A C13A 1_555 1_555
O1A C1A 1_555 1_555
O2A C1A 1_555 1_555
O3A C9A 1_555 1_555
O4A C5A 1_555 1_555
O5A C7A 1_555 1_555
H13A O5A 1_555 1_555
C14A C21A 1_555 1_555
C15A C16A 1_555 1_555
C16A C17A 1_555 1_555
C17A C18A 1_555 1_555
C18A C19A 1_555 1_555
C19A H14A 1_555 1_555
C20A C19A 1_555 1_555
C21A C16A 1_555 1_555
C22A C15A 1_555 1_555
C23A C22A 1_555 1_555
H15A C23A 1_555 1_555
H16A C23A 1_555 1_555
H17A C23A 1_555 1_555
C24A C15A 1_555 1_555
H18A C24A 1_555 1_555
H19A C24A 1_555 1_555
H20A C24A 1_555 1_555
C25A O12 1_555 1_555
H21A C25A 1_555 1_555
H22A C25A 1_555 1_555
C26A H23A 1_555 1_555
H24A C26A 1_555 1_555
H25A C26A 1_555 1_555
O7A C14A 1_555 1_555
O8A C14A 1_555 1_555
O9A C22A 1_555 1_555
O10A C18A 1_555 1_555
O11A C20A 1_555 1_555
H26A O11A 1_555 1_555
C2 O2 1_555 1_555
C7 C8 1_555 1_555
C13 O4 1_555 1_555
C15 O8 1_555 1_555
C20 C21 1_555 1_555
C26 O10 1_555 1_555
C2A O2A 1_555 1_555
C4A C12A 1_555 1_555
C7A C8A 1_555 1_555
C13A O4A 1_555 1_555
C15A O8A 1_555 1_555
C17A C25A 1_555 1_555
C20A C21A 1_555 1_555
C26A O10A 1_555 1_555

#END
