
#######################################################################
#
#                 Cambridge Crystallographic Data Centre
#                                CCDC 
#
#######################################################################
#
# If this CIF has been generated from an entry in the Cambridge 
# Structural Database, then it will include bibliographic, chemical, 
# crystal, experimental, refinement or atomic coordinate data resulting 
# from the CCDC's data processing and validation procedures.
#
#######################################################################

data_SECHUG
_chemical_compound_source        
'culture of a deep-sea sediment-derived fungus Leptosphaeria sp. SCSIO 41005'
_chemical_name_common            'clearanol E'
_chemical_formula_moiety         'C13 H16 O6'
_chemical_name_systematic        
(3R)-3-(1,2-dihydroxyethyl)-7-hydroxy-5-methoxy-3,4-dimethylisobenzofuran-1(3H)-one
_symmetry_cell_setting           orthorhombic
_symmetry_space_group_name_H-M   'P 21 21 21'
_symmetry_Int_Tables_number      19
_space_group_name_Hall           'P 2ac 2ab'
loop_
_symmetry_equiv_pos_site_id
_symmetry_equiv_pos_as_xyz
1 x,y,z
2 1/2-x,-y,1/2+z
3 -x,1/2+y,1/2-z
4 1/2+x,1/2-y,-z
_cell_length_a                   12.50776(10)
_cell_length_b                   13.73220(10)
_cell_length_c                   14.93010(10)
_cell_angle_alpha                90
_cell_angle_beta                 90
_cell_angle_gamma                90
_cell_volume                     2564.38
_exptl_crystal_colour            colorless
_exptl_crystal_description       block
_cell_formula_units_Z            8
_exptl_crystal_recrystallization_method methanol
loop_
_atom_site_label
_atom_site_type_symbol
_atom_site_fract_x
_atom_site_fract_y
_atom_site_fract_z
C1 C 0.47171(15) 0.38421(13) 0.62342(12)
C2 C 0.58614(14) 0.27050(13) 0.55812(12)
C3 C 0.52684(15) 0.32563(13) 0.48512(12)
C4 C 0.53350(16) 0.31737(14) 0.39320(13)
C5 C 0.46127(17) 0.37718(14) 0.34440(12)
C6 C 0.38609(16) 0.43689(14) 0.38538(13)
H1 H 0.3377 0.4735 0.3497
C7 C 0.38132(15) 0.44342(14) 0.47837(12)
C8 C 0.45480(15) 0.38861(13) 0.52731(12)
C9 C 0.55377(15) 0.16209(13) 0.56301(12)
H2 H 0.5897 0.1280 0.5121
C10 C 0.43431(15) 0.14563(14) 0.55312(14)
H3 H 0.3967 0.1735 0.6055
H4 H 0.4083 0.1796 0.4988
C11 C 0.70673(15) 0.28189(15) 0.55830(15)
H5 H 0.7251 0.3512 0.5607
H6 H 0.7364 0.2532 0.5036
H7 H 0.7367 0.2486 0.6107
C12 C 0.60817(19) 0.25111(17) 0.34283(14)
H8 H 0.6619 0.2902 0.3114
H9 H 0.5674 0.2128 0.2993
H10 H 0.6439 0.2072 0.3850
C13 C 0.4035(2) 0.4296(2) 0.19929(14)
H11 H 0.4199 0.4179 0.1360
H12 H 0.4162 0.4983 0.2136
H13 H 0.3284 0.4135 0.2108
O1 O 0.43295(12) 0.43041(11) 0.68482(9)
O2 O 0.54746(11) 0.31565(10) 0.64071(8)
O3 O 0.59212(10) 0.11890(10) 0.64392(8)
H14 H 0.559(2) 0.1404(18) 0.6881(18)
O4 O 0.41043(12) 0.04484(11) 0.54648(10)
H15 H 0.419(2) 0.014(2) 0.5949(19)
O5 O 0.47073(13) 0.36977(12) 0.25401(9)
O6 O 0.30877(12) 0.49773(11) 0.52194(9)
H16 H 0.259(2) 0.516(2) 0.485(2)
C14 C 0.11076(15) 0.87446(14) 0.31790(13)
C15 C -0.02475(14) 0.77665(13) 0.38102(11)
C16 C 0.02899(14) 0.83597(13) 0.45374(12)
C17 C 0.01126(14) 0.83441(13) 0.54539(12)
C18 C 0.08674(15) 0.88654(14) 0.59739(12)
C19 C 0.17444(15) 0.93461(14) 0.56033(12)
H17 H 0.2238 0.9674 0.5981
C20 C 0.18956(15) 0.93445(13) 0.46754(12)
C21 C 0.11379(15) 0.88709(13) 0.41473(12)
C22 C 0.00597(14) 0.66851(13) 0.39529(12)
H18 H -0.0134 0.6518 0.4584
C23 C 0.12664(16) 0.65233(14) 0.38619(16)
H19 H 0.1481 0.6624 0.3230
H20 H 0.1650 0.7008 0.4233
C24 C -0.14413(15) 0.79172(14) 0.36691(13)
H21 H -0.1597 0.8616 0.3645
H22 H -0.1836 0.7621 0.4166
H23 H -0.1659 0.7611 0.3105
C25 C -0.07988(15) 0.78373(15) 0.59184(13)
H24 H -0.1259 0.8322 0.6208
H25 H -0.0515 0.7391 0.6372
H26 H -0.1216 0.7469 0.5478
C26 C 0.14450(18) 0.92863(18) 0.74562(13)
H27 H 0.1473 0.9987 0.7336
H28 H 0.2152 0.9000 0.7353
H29 H 0.1232 0.9178 0.8080
O7 O 0.16301(12) 0.90814(11) 0.25791(9)
O8 O 0.02743(10) 0.81131(9) 0.29870(8)
O9 O -0.05134(11) 0.60315(10) 0.33898(9)
H30 H -0.021(2) 0.6002(19) 0.2910(18)
O10 O 0.15647(13) 0.55702(11) 0.41352(12)
H31 H 0.131(3) 0.513(2) 0.382(2)
O11 O 0.06800(12) 0.88384(11) 0.68691(8)
O12 O 0.27481(11) 0.97624(11) 0.42825(9)
H32 H 0.321(2) 0.996(2) 0.4697(18)
loop_
_geom_bond_atom_site_label_1
_geom_bond_atom_site_label_2
_geom_bond_site_symmetry_1
_geom_bond_site_symmetry_2
C1 C8 1_555 1_555
C2 C3 1_555 1_555
C3 C4 1_555 1_555
C4 C5 1_555 1_555
C5 C6 1_555 1_555
C6 H1 1_555 1_555
C7 C6 1_555 1_555
C8 C3 1_555 1_555
C9 C2 1_555 1_555
H2 C9 1_555 1_555
C10 C9 1_555 1_555
H3 C10 1_555 1_555
H4 C10 1_555 1_555
C11 C2 1_555 1_555
H5 C11 1_555 1_555
H6 C11 1_555 1_555
H7 C11 1_555 1_555
C12 C4 1_555 1_555
H8 C12 1_555 1_555
H9 C12 1_555 1_555
H10 C12 1_555 1_555
C13 H11 1_555 1_555
H12 C13 1_555 1_555
H13 C13 1_555 1_555
O1 C1 1_555 1_555
O2 C1 1_555 1_555
O3 C9 1_555 1_555
H14 O3 1_555 1_555
O4 C10 1_555 1_555
H15 O4 1_555 1_555
O5 C5 1_555 1_555
O6 C7 1_555 1_555
H16 O6 1_555 1_555
C14 C21 1_555 1_555
C15 C16 1_555 1_555
C16 C17 1_555 1_555
C17 C18 1_555 1_555
C18 C19 1_555 1_555
C19 H17 1_555 1_555
C20 C19 1_555 1_555
C21 C16 1_555 1_555
C22 C15 1_555 1_555
H18 C22 1_555 1_555
C23 C22 1_555 1_555
H19 C23 1_555 1_555
H20 C23 1_555 1_555
C24 C15 1_555 1_555
H21 C24 1_555 1_555
H22 C24 1_555 1_555
H23 C24 1_555 1_555
C25 C17 1_555 1_555
H24 C25 1_555 1_555
H25 C25 1_555 1_555
H26 C25 1_555 1_555
C26 H27 1_555 1_555
H28 C26 1_555 1_555
H29 C26 1_555 1_555
O7 C14 1_555 1_555
O8 C14 1_555 1_555
O9 C22 1_555 1_555
H30 O9 1_555 1_555
O10 C23 1_555 1_555
H31 O10 1_555 1_555
O11 C18 1_555 1_555
O12 C20 1_555 1_555
H32 O12 1_555 1_555
C2 O2 1_555 1_555
C7 C8 1_555 1_555
C13 O5 1_555 1_555
C15 O8 1_555 1_555
C20 C21 1_555 1_555
C26 O11 1_555 1_555

#END
