
#######################################################################
#
#                 Cambridge Crystallographic Data Centre
#                                CCDC 
#
#######################################################################
#
# If this CIF has been generated from an entry in the Cambridge 
# Structural Database, then it will include bibliographic, chemical, 
# crystal, experimental, refinement or atomic coordinate data resulting 
# from the CCDC's data processing and validation procedures.
#
#######################################################################

data_SECKUI
_chemical_formula_moiety         'C12 H10 N2 O2,H2 O1'
_chemical_name_systematic        
'3-(6-Aminopyridinium-3-yl)benzoate monohydrate'
_symmetry_cell_setting           monoclinic
_symmetry_space_group_name_H-M   'P 21/c'
_symmetry_Int_Tables_number      14
_space_group_name_Hall           '-P 2ybc'
loop_
_symmetry_equiv_pos_site_id
_symmetry_equiv_pos_as_xyz
1 x,y,z
2 -x,1/2+y,1/2-z
3 -x,-y,-z
4 x,1/2-y,1/2+z
_cell_length_a                   7.1956(18)
_cell_length_b                   13.091(9)
_cell_length_c                   11.987(10)
_cell_angle_alpha                90
_cell_angle_beta                 101.44(3)
_cell_angle_gamma                90
_cell_volume                     1106.71
_exptl_crystal_colour            colorless
_exptl_crystal_description       prism
_cell_formula_units_Z            4
loop_
_atom_site_label
_atom_site_type_symbol
_atom_site_fract_x
_atom_site_fract_y
_atom_site_fract_z
C1 C 0.6726(5) 0.2413(3) -0.2146(3)
C2 C 0.4946(5) 0.1869(3) -0.1993(3)
C3 C 0.4506(5) 0.1783(3) -0.0921(3)
H1 H 0.5360 0.2026 -0.0291
C4 C 0.2823(5) 0.1342(3) -0.0766(3)
C5 C 0.1555(6) 0.0988(3) -0.1711(4)
H2 H 0.0407 0.0704 -0.1626
C6 C 0.1995(6) 0.1055(3) -0.2783(4)
H3 H 0.1146 0.0805 -0.3410
C7 C 0.3682(5) 0.1489(3) -0.2930(3)
H4 H 0.3969 0.1526 -0.3652
C8 C 0.2383(5) 0.1250(3) 0.0394(3)
C9 C 0.0750(5) 0.1644(3) 0.0640(3)
H5 H -0.0115 0.1964 0.0067
C10 C 0.1542(5) 0.1128(3) 0.2573(3)
C11 C 0.3236(5) 0.0713(3) 0.2355(3)
H6 H 0.4080 0.0389 0.2936
C12 C 0.3642(5) 0.0783(3) 0.1300(3)
H7 H 0.4779 0.0517 0.1172
N1 N 0.0361(4) 0.1579(2) 0.1700(3)
H8 H -0.0681 0.1837 0.1819
N2 N 0.1056(5) 0.1100(3) 0.3583(3)
H9 H 0.0003 0.1366 0.3671
H10 H 0.1795 0.0814 0.4149
O1 O 0.7197(4) 0.2360(2) -0.3109(2)
O3 O 0.7649(4) 0.2900(2) -0.1316(2)
O2 O 0.2996(5) -0.0676(3) 0.4736(3)
H11 H 0.3198 -0.0995 0.5372
H12 H 0.2433 -0.1120 0.4237
loop_
_geom_bond_atom_site_label_1
_geom_bond_atom_site_label_2
_geom_bond_site_symmetry_1
_geom_bond_site_symmetry_2
C1 C2 1_555 1_555
C2 C3 1_555 1_555
C3 H1 1_555 1_555
C4 C3 1_555 1_555
C5 C4 1_555 1_555
H2 C5 1_555 1_555
C6 C5 1_555 1_555
H3 C6 1_555 1_555
C7 C2 1_555 1_555
H4 C7 1_555 1_555
C8 C4 1_555 1_555
C9 C8 1_555 1_555
H5 C9 1_555 1_555
C10 C11 1_555 1_555
C11 H6 1_555 1_555
C12 C8 1_555 1_555
H7 C12 1_555 1_555
N1 C9 1_555 1_555
H8 N1 1_555 1_555
N2 C10 1_555 1_555
H9 N2 1_555 1_555
H10 N2 1_555 1_555
O1 C1 1_555 1_555
O2 H11 1_555 1_555
H12 O2 1_555 1_555
O3 C1 1_555 1_555
C6 C7 1_555 1_555
C10 N1 1_555 1_555
C11 C12 1_555 1_555

#END
