
#######################################################################
#
#                 Cambridge Crystallographic Data Centre
#                                CCDC 
#
#######################################################################
#
# If this CIF has been generated from an entry in the Cambridge 
# Structural Database, then it will include bibliographic, chemical, 
# crystal, experimental, refinement or atomic coordinate data resulting 
# from the CCDC's data processing and validation procedures.
#
#######################################################################

data_SECLEU
_chemical_formula_moiety         'C30 H30 N2 2+,2(F6 P1 1-)'
_chemical_name_systematic        
'2,9-dibutylbenzo[f]naphtho[1,2,3,4-lmn][3,8]phenanthroline-2,9-diium bis(hexafluorophosphate)'
_symmetry_cell_setting           monoclinic
_symmetry_space_group_name_H-M   'P 21/n'
_symmetry_Int_Tables_number      14
_space_group_name_Hall           '-P 2yn'
loop_
_symmetry_equiv_pos_site_id
_symmetry_equiv_pos_as_xyz
1 x,y,z
2 1/2-x,1/2+y,1/2-z
3 -x,-y,-z
4 1/2+x,1/2-y,1/2+z
_cell_length_a                   7.2394(4)
_cell_length_b                   25.6442(16)
_cell_length_c                   8.4328(6)
_cell_angle_alpha                90
_cell_angle_beta                 107.468(2)
_cell_angle_gamma                90
_cell_volume                     1493.34
_exptl_crystal_colour            yellowish
_exptl_crystal_description       block
_cell_formula_units_Z            2
loop_
_atom_site_label
_atom_site_type_symbol
_atom_site_fract_x
_atom_site_fract_y
_atom_site_fract_z
P1 P 0.39761(12) 0.36589(4) 0.77566(10)
F1 F 0.4458(4) 0.42338(11) 0.8383(5)
F2 F 0.3480(4) 0.30838(11) 0.7183(4)
F3 F 0.1935(3) 0.37021(9) 0.8122(3)
F4 F 0.5982(3) 0.36328(11) 0.7361(3)
F5 F 0.4977(4) 0.34639(16) 0.9587(3)
F6 F 0.2946(4) 0.38674(15) 0.5958(3)
N1 N 0.7298(4) 0.39173(9) 0.4043(3)
C1 C 0.1341(5) 0.41703(12) 0.1441(4)
H1 H 0.1975 0.3879 0.1139
C2 C -0.0600(5) 0.42447(13) 0.0673(4)
H2 H -0.1300 0.4006 -0.0150
C3 C -0.1543(5) 0.46707(13) 0.1100(4)
H3 H -0.2884 0.4723 0.0563
C4 C -0.0542(4) 0.50153(12) 0.2295(4)
H4 H -0.1203 0.5302 0.2592
C5 C 0.1455(4) 0.49485(11) 0.3087(3)
C6 C 0.2405(4) 0.45174(11) 0.2666(3)
C7 C 0.4453(4) 0.44334(10) 0.3527(3)
C8 C 0.5446(4) 0.40107(11) 0.3174(4)
H5 H 0.4804 0.3781 0.2297
C9 C 0.8304(4) 0.42415(11) 0.5251(4)
H6 H 0.9614 0.4164 0.5839
C10 C 0.7453(4) 0.46860(11) 0.5648(3)
C11 C 0.5479(4) 0.47781(10) 0.4792(3)
C12 C 0.8274(5) 0.34329(12) 0.3707(4)
H7 H 0.9675 0.3502 0.3931
H8 H 0.7733 0.3337 0.2520
C13 C 0.8003(6) 0.29828(13) 0.4775(5)
H9 H 0.8904 0.2700 0.4703
H10 H 0.8371 0.3101 0.5946
C14 C 0.5993(7) 0.27634(15) 0.4325(6)
H11 H 0.5606 0.2651 0.3148
H12 H 0.5089 0.3042 0.4431
C15 C 0.5802(10) 0.23074(17) 0.5394(9)
H13 H 0.4462 0.2182 0.5041
H14 H 0.6151 0.2418 0.6559
H15 H 0.6670 0.2027 0.5276
N1B N 0.2702(4) 0.60827(9) 0.5957(3)
C1B C 0.8659(5) 0.58297(12) 0.8559(4)
H1B H 0.8025 0.6121 0.8861
C2B C 1.0600(5) 0.57553(13) 0.9327(4)
H2B H 1.1300 0.5994 1.0150
C3B C 1.1543(5) 0.53293(13) 0.8900(4)
H3B H 1.2884 0.5277 0.9437
C4B C 1.0542(4) 0.49847(12) 0.7705(4)
H4B H 1.1203 0.4698 0.7408
C5B C 0.8545(4) 0.50515(11) 0.6913(3)
C6B C 0.7595(4) 0.54826(11) 0.7334(3)
C7B C 0.5547(4) 0.55666(10) 0.6473(3)
C8B C 0.4554(4) 0.59893(11) 0.6826(4)
H5B H 0.5196 0.6219 0.7703
C9B C 0.1696(4) 0.57585(11) 0.4749(4)
H6B H 0.0386 0.5836 0.4161
C10B C 0.2547(4) 0.53140(11) 0.4352(3)
C11B C 0.4521(4) 0.52219(10) 0.5208(3)
C12B C 0.1726(5) 0.65671(12) 0.6293(4)
H7B H 0.0325 0.6498 0.6069
H8B H 0.2267 0.6663 0.7480
C13B C 0.1997(6) 0.70172(13) 0.5225(5)
H9B H 0.1096 0.7300 0.5297
H10B H 0.1629 0.6899 0.4054
C14B C 0.4007(7) 0.72366(15) 0.5675(6)
H11B H 0.4394 0.7349 0.6852
H12B H 0.4911 0.6958 0.5569
C15B C 0.4198(10) 0.76926(17) 0.4606(9)
H13B H 0.5538 0.7818 0.4959
H14B H 0.3849 0.7582 0.3441
H15B H 0.3330 0.7973 0.4724
loop_
_geom_bond_atom_site_label_1
_geom_bond_atom_site_label_2
_geom_bond_site_symmetry_1
_geom_bond_site_symmetry_2
P1 F1 1_555 1_555
F2 P1 1_555 1_555
F3 P1 1_555 1_555
F4 P1 1_555 1_555
F5 P1 1_555 1_555
F6 P1 1_555 1_555
N1 C8 1_555 1_555
C1 H1 1_555 1_555
C2 C1 1_555 1_555
H2 C2 1_555 1_555
C3 C2 1_555 1_555
H3 C3 1_555 1_555
C4 C3 1_555 1_555
H4 C4 1_555 1_555
C5 C4 1_555 1_555
C6 C1 1_555 1_555
C7 C6 1_555 1_555
C8 C7 1_555 1_555
H5 C8 1_555 1_555
C9 N1 1_555 1_555
H6 C9 1_555 1_555
C10 C9 1_555 1_555
C11 C7 1_555 1_555
C12 N1 1_555 1_555
H7 C12 1_555 1_555
H8 C12 1_555 1_555
C13 C12 1_555 1_555
H9 C13 1_555 1_555
H10 C13 1_555 1_555
C14 C13 1_555 1_555
H11 C14 1_555 1_555
H12 C14 1_555 1_555
C15 C14 1_555 1_555
H13 C15 1_555 1_555
H14 C15 1_555 1_555
H15 C15 1_555 1_555
N1B C8B 1_555 1_555
C1B H1B 1_555 1_555
C2B C1B 1_555 1_555
H2B C2B 1_555 1_555
C3B C2B 1_555 1_555
H3B C3B 1_555 1_555
C4B C3B 1_555 1_555
H4B C4B 1_555 1_555
C5B C10 1_555 1_555
C6B C1B 1_555 1_555
C7B C6B 1_555 1_555
C8B C7B 1_555 1_555
H5B C8B 1_555 1_555
C9B N1B 1_555 1_555
H6B C9B 1_555 1_555
C10B C5 1_555 1_555
C11B C11 1_555 1_555
C12B N1B 1_555 1_555
H7B C12B 1_555 1_555
H8B C12B 1_555 1_555
C13B C12B 1_555 1_555
H9B C13B 1_555 1_555
H10B C13B 1_555 1_555
C14B C13B 1_555 1_555
H11B C14B 1_555 1_555
H12B C14B 1_555 1_555
C15B C14B 1_555 1_555
H13B C15B 1_555 1_555
H14B C15B 1_555 1_555
H15B C15B 1_555 1_555
C5 C6 1_555 1_555
C10 C11 1_555 1_555
C4B C5B 1_555 1_555
C5B C6B 1_555 1_555
C7B C11B 1_555 1_555
C9B C10B 1_555 1_555
C10B C11B 1_555 1_555

#END
