
#######################################################################
#
#                 Cambridge Crystallographic Data Centre
#                                CCDC 
#
#######################################################################
#
# If this CIF has been generated from an entry in the Cambridge 
# Structural Database, then it will include bibliographic, chemical, 
# crystal, experimental, refinement or atomic coordinate data resulting 
# from the CCDC's data processing and validation procedures.
#
#######################################################################

data_SECLOE
_chemical_formula_moiety         'C36 H26 N2 2+,2(F6 P1 1-)'
_chemical_name_systematic        
'2,9-dibenzylbenzo[f]naphtho[1,2,3,4-lmn][3,8]phenanthroline-2,9-diium bis(hexafluorophosphate)'
_symmetry_cell_setting           triclinic
_symmetry_space_group_name_H-M   'P -1'
_symmetry_Int_Tables_number      2
_space_group_name_Hall           '-P 1'
loop_
_symmetry_equiv_pos_site_id
_symmetry_equiv_pos_as_xyz
1 x,y,z
2 -x,-y,-z
_cell_length_a                   7.6448(2)
_cell_length_b                   8.2966(3)
_cell_length_c                   14.0334(4)
_cell_angle_alpha                100.773(2)
_cell_angle_beta                 93.727(2)
_cell_angle_gamma                110.121(2)
_cell_volume                     812.921
_exptl_crystal_colour            'light yellow'
_exptl_crystal_description       block
_cell_formula_units_Z            1
loop_
_atom_site_label
_atom_site_type_symbol
_atom_site_fract_x
_atom_site_fract_y
_atom_site_fract_z
H1 H -0.2444 0.0777 0.5712
H2 H -0.1142 0.2306 0.4577
H3 H 0.2660 0.2030 0.7190
H4 H -0.0545 0.0590 0.7005
H5 H 0.0095 0.3567 0.3543
H6 H 0.4559 0.6531 0.2615
H7 H -0.0308 0.4328 0.2108
H8 H 0.1020 0.6267 0.2145
H9 H 0.1096 0.2037 0.1321
H10 H 0.1928 0.0945 -0.0161
H11 H 0.2775 0.2862 -0.1100
H12 H 0.3255 0.5794 -0.0815
H13 H 0.2302 0.6800 0.0793
C1 C -0.0366(4) 0.2263(4) 0.5102(2)
C2 C -0.1145(4) 0.1339(4) 0.5777(2)
C3 C -0.0011(5) 0.1239(4) 0.6555(2)
C4 C 0.1907(4) 0.2099(4) 0.6663(2)
C5 C 0.2740(4) 0.3076(3) 0.59921(19)
C6 C 0.1590(3) 0.3148(3) 0.51894(18)
C7 C 0.2452(3) 0.4117(3) 0.44718(18)
C8 C 0.1392(4) 0.4162(4) 0.36422(19)
C9 C 0.4052(4) 0.5931(4) 0.30890(19)
C10 C 0.5227(3) 0.5970(3) 0.38936(18)
C11 C 0.4417(3) 0.5027(3) 0.45857(17)
C12 C 0.0984(5) 0.5075(5) 0.2103(2)
C13 C 0.1606(4) 0.4466(5) 0.1167(2)
C14 C 0.1508(9) 0.2775(10) 0.0893(4)
C15 C 0.1977(15) 0.2097(19) 0.0033(7)
C16 C 0.2517(13) 0.332(3) -0.0491(5)
C17 C 0.2799(12) 0.509(2) -0.0376(9)
C18 C 0.2232(6) 0.5645(11) 0.0584(4)
N1 N 0.2196(3) 0.5041(3) 0.29840(16)
H1A H 1.2444 0.9223 0.4288
H2A H 1.1142 0.7694 0.5423
H3A H 0.7340 0.7970 0.2810
H4A H 1.0545 0.9410 0.2995
H5A H 0.9905 0.6433 0.6457
H6A H 0.5441 0.3469 0.7385
H7A H 1.0308 0.5672 0.7892
H8A H 0.8980 0.3733 0.7855
H9A H 0.8904 0.7963 0.8679
H10A H 0.8072 0.9055 1.0161
H11A H 0.7225 0.7138 1.1100
H12A H 0.6745 0.4206 1.0815
H13A H 0.7698 0.3200 0.9207
C1A C 1.0366(4) 0.7737(4) 0.4898(2)
C2A C 1.1145(4) 0.8661(4) 0.4223(2)
C3A C 1.0011(5) 0.8761(4) 0.3445(2)
C4A C 0.8093(4) 0.7901(4) 0.3337(2)
C5A C 0.7260(4) 0.6924(3) 0.40079(19)
C6A C 0.8410(3) 0.6852(3) 0.48106(18)
C7A C 0.7548(3) 0.5883(3) 0.55282(18)
C8A C 0.8608(4) 0.5838(4) 0.63578(19)
C9A C 0.5948(4) 0.4069(4) 0.69110(19)
C10A C 0.4773(3) 0.4030(3) 0.61064(18)
C11A C 0.5583(3) 0.4973(3) 0.54143(17)
C12A C 0.9016(5) 0.4925(5) 0.7897(2)
C13A C 0.8394(4) 0.5534(5) 0.8833(2)
C14A C 0.8492(9) 0.7225(10) 0.9107(4)
C15A C 0.8023(15) 0.7903(19) 0.9967(7)
C16A C 0.7483(13) 0.668(3) 1.0491(5)
C17A C 0.7201(12) 0.491(2) 1.0376(9)
C18A C 0.7768(6) 0.4355(11) 0.9416(4)
N1A N 0.7804(3) 0.4959(3) 0.70160(16)
F1 F 0.4470(10) 0.9452(8) 0.2713(8)
F2 F 0.5948(13) 1.2073(15) 0.3687(4)
F3 F 0.7387(3) 1.1003(4) 0.2463(2)
F4 F 0.6386(11) 1.3299(7) 0.2421(9)
F5 F 0.3598(3) 1.1690(3) 0.2738(2)
F6 F 0.4912(13) 1.0697(12) 0.1432(4)
P1 P 0.54531(11) 1.13190(11) 0.25777(7)
F7? F 0.5506(12) 1.0390(16) 0.3529(7)
F8? F 0.6815(8) 1.3065(11) 0.3287(10)
F9? F 0.5607(15) 1.219(3) 0.1776(11)
F10? F 0.4283(14) 0.9403(12) 0.1998(10)
loop_
_geom_bond_atom_site_label_1
_geom_bond_atom_site_label_2
_geom_bond_site_symmetry_1
_geom_bond_site_symmetry_2
H1 C2 1_555 1_555
H2 C1 1_555 1_555
H3 C4 1_555 1_555
H4 C3 1_555 1_555
H5 C8 1_555 1_555
H6 C9 1_555 1_555
H7 C12 1_555 1_555
H8 C12 1_555 1_555
H9 C14 1_555 1_555
H10 C15 1_555 1_555
H11 C16 1_555 1_555
H12 C17 1_555 1_555
H13 C18 1_555 1_555
C1 C2 1_555 1_555
C2 C3 1_555 1_555
C3 C4 1_555 1_555
C4 C5 1_555 1_555
C5 C6 1_555 1_555
C6 C1 1_555 1_555
C7 C6 1_555 1_555
C8 C7 1_555 1_555
C9 C10 1_555 1_555
C10 C11 1_555 1_555
C11 C7 1_555 1_555
C12 C13 1_555 1_555
C13 C14 1_555 1_555
C14 C15 1_555 1_555
C15 C16 1_555 1_555
C16 C17 1_555 1_555
C17 C18 1_555 1_555
C18 C13 1_555 1_555
N1 C8 1_555 1_555
F1 P1 1_555 1_555
F2 P1 1_555 1_555
F3 P1 1_555 1_555
F4 P1 1_555 1_555
F5 P1 1_555 1_555
F6 P1 1_555 1_555
H1A C2A 1_555 1_555
H2A C1A 1_555 1_555
H3A C4A 1_555 1_555
H4A C3A 1_555 1_555
H5A C8A 1_555 1_555
H6A C9A 1_555 1_555
H7A C12A 1_555 1_555
H8A C12A 1_555 1_555
H9A C14A 1_555 1_555
H10A C15A 1_555 1_555
H11A C16A 1_555 1_555
H12A C17A 1_555 1_555
H13A C18A 1_555 1_555
C1A C2A 1_555 1_555
C2A C3A 1_555 1_555
C3A C4A 1_555 1_555
C4A C5A 1_555 1_555
C5A C10 1_555 1_555
C6A C1A 1_555 1_555
C7A C6A 1_555 1_555
C8A C7A 1_555 1_555
C9A C10A 1_555 1_555
C10A C5 1_555 1_555
C11A C11 1_555 1_555
C12A C13A 1_555 1_555
C13A C14A 1_555 1_555
C14A C15A 1_555 1_555
C15A C16A 1_555 1_555
C16A C17A 1_555 1_555
C17A C18A 1_555 1_555
C18A C13A 1_555 1_555
N1A C8A 1_555 1_555
C9 N1 1_555 1_555
C12 N1 1_555 1_555
C5A C6A 1_555 1_555
C7A C11A 1_555 1_555
C9A N1A 1_555 1_555
C10A C11A 1_555 1_555
C12A N1A 1_555 1_555

#END
