
#######################################################################
#
#                 Cambridge Crystallographic Data Centre
#                                CCDC 
#
#######################################################################
#
# If this CIF has been generated from an entry in the Cambridge 
# Structural Database, then it will include bibliographic, chemical, 
# crystal, experimental, refinement or atomic coordinate data resulting 
# from the CCDC's data processing and validation procedures.
#
#######################################################################

data_SECLUI
_chemical_formula_moiety         'C11 H24 O4 Si2'
_chemical_name_systematic        bis(Cyclopentyl(dihydroxy)silyl)methane
_symmetry_cell_setting           triclinic
_symmetry_space_group_name_H-M   'P -1'
_symmetry_Int_Tables_number      2
_space_group_name_Hall           '-P 1'
loop_
_symmetry_equiv_pos_site_id
_symmetry_equiv_pos_as_xyz
1 x,y,z
2 -x,-y,-z
_cell_length_a                   5.1729(14)
_cell_length_b                   11.394(3)
_cell_length_c                   12.548(3)
_cell_angle_alpha                89.133(4)
_cell_angle_beta                 85.065(4)
_cell_angle_gamma                79.956(4)
_cell_volume                     725.545
_exptl_crystal_colour            colorless
_exptl_crystal_description       needle
_chemical_melting_point          '113-114 deg.C(dec.)'
_cell_formula_units_Z            2
_exptl_crystal_recrystallization_method acetone
loop_
_atom_site_label
_atom_site_type_symbol
_atom_site_fract_x
_atom_site_fract_y
_atom_site_fract_z
Si1 Si 0.69704(9) 0.78698(4) -0.02460(4)
Si2 Si 0.45185(9) 0.86181(5) 0.21191(4)
O1 O 0.8802(2) 0.89143(11) -0.03024(10)
H1 H 1.0361 0.8607 -0.0383
O2 O 0.4187(2) 0.84635(11) -0.07271(10)
H2 H 0.4485 0.8903 -0.1229
O3 O 0.1661(2) 0.92701(12) 0.17442(10)
H3 H 0.1888 0.9769 0.1283
O4 O 0.6319(2) 0.96687(11) 0.21727(10)
H4 H 0.7884 0.9373 0.2082
C1 C 0.6154(4) 0.74388(16) 0.11559(14)
H5 H 0.7777 0.7055 0.1439
H6 H 0.5026 0.6843 0.1143
C2 C 0.3800(4) 0.80083(17) 0.34670(14)
H7 H 0.2575 0.7452 0.3402
C3 C 0.6180(4) 0.7339(2) 0.40081(17)
H8 H 0.6646 0.6526 0.3749
H9 H 0.7691 0.7734 0.3867
C4 C 0.5308(6) 0.7361(3) 0.5197(2)
H10 H 0.4936 0.6587 0.5427
H11 H 0.6691 0.7554 0.5604
C5 C 0.2871(5) 0.8292(2) 0.53779(17)
H12 H 0.3075 0.8842 0.5934
H13 H 0.1352 0.7923 0.5589
C6 C 0.2534(4) 0.89426(19) 0.43117(15)
H14 H 0.3423 0.9627 0.4274
H15 H 0.0684 0.9210 0.4214
C7 C 0.8693(4) 0.65902(17) -0.10795(14)
H16 H 1.0247 0.6224 -0.0722
C8 C 0.7078(4) 0.56005(18) -0.12584(17)
H17 H 0.7425 0.4969 -0.0736
H18 H 0.5207 0.5922 -0.1192
C9 C 0.7947(4) 0.5121(2) -0.23925(17)
H19 H 0.8526 0.4265 -0.2377
H20 H 0.6501 0.5298 -0.2846
C10 C 1.0201(4) 0.57403(19) -0.28096(16)
H21 H 1.0209 0.5860 -0.3577
H22 H 1.1882 0.5279 -0.2649
C11 C 0.9658(4) 0.69318(18) -0.22199(15)
H23 H 0.8314 0.7494 -0.2541
H24 H 1.1246 0.7276 -0.2218
loop_
_geom_bond_atom_site_label_1
_geom_bond_atom_site_label_2
_geom_bond_site_symmetry_1
_geom_bond_site_symmetry_2
Si1 O1 1_555 1_555
Si2 O3 1_555 1_555
O1 H1 1_555 1_555
O2 Si1 1_555 1_555
H2 O2 1_555 1_555
O3 H3 1_555 1_555
O4 Si2 1_555 1_555
H4 O4 1_555 1_555
C1 Si1 1_555 1_555
H5 C1 1_555 1_555
H6 C1 1_555 1_555
C2 Si2 1_555 1_555
H7 C2 1_555 1_555
C3 C2 1_555 1_555
H8 C3 1_555 1_555
H9 C3 1_555 1_555
C4 C3 1_555 1_555
H10 C4 1_555 1_555
H11 C4 1_555 1_555
C5 C4 1_555 1_555
H12 C5 1_555 1_555
H13 C5 1_555 1_555
C6 C2 1_555 1_555
H14 C6 1_555 1_555
H15 C6 1_555 1_555
C7 Si1 1_555 1_555
H16 C7 1_555 1_555
C8 C7 1_555 1_555
H17 C8 1_555 1_555
H18 C8 1_555 1_555
C9 C8 1_555 1_555
H19 C9 1_555 1_555
H20 C9 1_555 1_555
C10 C9 1_555 1_555
H21 C10 1_555 1_555
H22 C10 1_555 1_555
C11 C7 1_555 1_555
H23 C11 1_555 1_555
H24 C11 1_555 1_555
Si2 C1 1_555 1_555
C5 C6 1_555 1_555
C10 C11 1_555 1_555

#END
