
#######################################################################
#
#                 Cambridge Crystallographic Data Centre
#                                CCDC 
#
#######################################################################
#
# If this CIF has been generated from an entry in the Cambridge 
# Structural Database, then it will include bibliographic, chemical, 
# crystal, experimental, refinement or atomic coordinate data resulting 
# from the CCDC's data processing and validation procedures.
#
#######################################################################

data_SECNOD
_chemical_formula_moiety         'C15 H22 O4'
_chemical_name_systematic        
4,7-Dihydroxy-4,15-dimethyl-11,14-dioxapentacyclo(6.4.2.1^1,7^.0^5,14^.0^10,15^)pentadecane
_symmetry_cell_setting           orthorhombic
_symmetry_space_group_name_H-M   'P 21 21 21'
_symmetry_Int_Tables_number      19
_space_group_name_Hall           'P 2ac 2ab'
loop_
_symmetry_equiv_pos_site_id
_symmetry_equiv_pos_as_xyz
1 x,y,z
2 1/2+x,1/2-y,-z
3 -x,1/2+y,1/2-z
4 1/2-x,-y,1/2+z
_cell_length_a                   6.9698(7)
_cell_length_b                   11.988(2)
_cell_length_c                   15.656(1)
_cell_angle_alpha                90
_cell_angle_beta                 90
_cell_angle_gamma                90
_cell_volume                     1308.12
_chemical_melting_point          201-203deg.C
_cell_formula_units_Z            4
loop_
_atom_site_label
_atom_site_type_symbol
_atom_site_fract_x
_atom_site_fract_y
_atom_site_fract_z
O1 O 0.5824(4) 0.0278(2) 0.1649(1)
O2 O 0.5020(4) 0.0133(2) 0.4201(1)
O3 O 0.6174(4) -0.2623(2) 0.1019(2)
O4 O 0.1384(4) -0.0307(2) 0.0856(2)
C1 C 0.6125(6) -0.0677(3) 0.1094(2)
C2 C 0.4724(8) -0.0616(4) 0.0360(2)
C3 C 0.2881(7) -0.1109(4) 0.0709(3)
C4 C 0.3369(5) -0.1606(3) 0.1591(2)
C5 C 0.2914(5) -0.0605(3) 0.2212(2)
C6 C 0.1968(6) -0.0869(4) 0.3077(2)
C7 C 0.3202(6) -0.1476(4) 0.3722(2)
C8 C 0.5179(5) -0.0965(3) 0.3833(2)
C9 C 0.6091(6) -0.0766(3) 0.2957(2)
C10 C 0.4819(5) -0.0023(3) 0.2410(2)
C11 C 0.5554(5) -0.1748(3) 0.1564(2)
C12 C 0.6461(6) -0.1837(3) 0.2443(2)
C13 C 0.2219(6) -0.2668(3) 0.1768(3)
C14 C 0.1575(7) 0.0149(4) 0.1688(3)
C15 C 0.6448(8) -0.1677(4) 0.4407(3)
H1 H 0.466(5) 0.015(3) 0.473(2)
H2 H 0.561(6) -0.319(4) 0.112(3)
H3 H 0.750(5) -0.068(3) 0.091(2)
H4 H 0.524(5) -0.106(3) -0.010(2)
H5 H 0.451(6) 0.014(3) 0.017(2)
H6 H 0.236(5) -0.170(3) 0.031(2)
H7 H 0.080(5) -0.126(3) 0.298(2)
H8 H 0.158(5) -0.016(3) 0.333(2)
H9 H 0.341(5) -0.219(3) 0.357(2)
H10 H 0.262(5) -0.152(3) 0.429(2)
H11 H 0.728(5) -0.040(3) 0.305(2)
H12 H 0.450(4) 0.071(3) 0.273(2)
H13 H 0.590(5) -0.246(2) 0.277(2)
H14 H 0.777(6) -0.200(3) 0.235(2)
H15 H 0.248(5) -0.299(3) 0.235(2)
H16 H 0.078(6) -0.251(3) 0.169(2)
H17 H 0.254(5) -0.323(3) 0.134(2)
H18 H 0.029(5) 0.020(3) 0.193(2)
H19 H 0.221(6) 0.087(3) 0.162(3)
H20 H 0.781(7) -0.137(4) 0.447(3)
H21 H 0.600(6) -0.173(3) 0.500(3)
H22 H 0.653(6) -0.249(3) 0.421(3)
loop_
_geom_bond_atom_site_label_1
_geom_bond_atom_site_label_2
_geom_bond_site_symmetry_1
_geom_bond_site_symmetry_2
O1 C1 1_555 1_555
O2 C8 1_555 1_555
O3 C11 1_555 1_555
O4 C3 1_555 1_555
C1 C2 1_555 1_555
C2 C3 1_555 1_555
C3 C4 1_555 1_555
C4 C5 1_555 1_555
C5 C6 1_555 1_555
C6 C7 1_555 1_555
C7 C8 1_555 1_555
C8 C9 1_555 1_555
C9 C10 1_555 1_555
C10 O1 1_555 1_555
C11 C1 1_555 1_555
C12 C9 1_555 1_555
C13 C4 1_555 1_555
C14 O4 1_555 1_555
C15 C8 1_555 1_555
H1 O2 1_555 1_555
H2 O3 1_555 1_555
H3 C1 1_555 1_555
H4 C2 1_555 1_555
H5 C2 1_555 1_555
H6 C3 1_555 1_555
H7 C6 1_555 1_555
H8 C6 1_555 1_555
H9 C7 1_555 1_555
H10 C7 1_555 1_555
H11 C9 1_555 1_555
H12 C10 1_555 1_555
H13 C12 1_555 1_555
H14 C12 1_555 1_555
H15 C13 1_555 1_555
H16 C13 1_555 1_555
H17 C13 1_555 1_555
H18 C14 1_555 1_555
H19 C14 1_555 1_555
H20 C15 1_555 1_555
H21 C15 1_555 1_555
H22 C15 1_555 1_555
C4 C11 1_555 1_555
C5 C10 1_555 1_555
C5 C14 1_555 1_555
C11 C12 1_555 1_555

#END
