
#######################################################################
#
#                 Cambridge Crystallographic Data Centre
#                                CCDC 
#
#######################################################################
#
# If this CIF has been generated from an entry in the Cambridge 
# Structural Database, then it will include bibliographic, chemical, 
# crystal, experimental, refinement or atomic coordinate data resulting 
# from the CCDC's data processing and validation procedures.
#
#######################################################################

data_SECNAP
_chemical_formula_moiety         'C8 H14 O3'
_chemical_name_systematic        '(3,5-Dimethyltetrahydrofuran-2-yl)acetic acid'
_symmetry_cell_setting           monoclinic
_symmetry_space_group_name_H-M   'P 21/c'
_symmetry_Int_Tables_number      14
_space_group_name_Hall           '-P 2ybc'
loop_
_symmetry_equiv_pos_site_id
_symmetry_equiv_pos_as_xyz
1 x,y,z
2 -x,1/2+y,1/2-z
3 -x,-y,-z
4 x,1/2-y,1/2+z
_cell_length_a                   11.328(3)
_cell_length_b                   6.648(2)
_cell_length_c                   11.818(3)
_cell_angle_alpha                90
_cell_angle_beta                 98.14(2)
_cell_angle_gamma                90
_cell_volume                     881.03
_exptl_crystal_colour            colorless
_cell_formula_units_Z            4
loop_
_atom_site_label
_atom_site_type_symbol
_atom_site_fract_x
_atom_site_fract_y
_atom_site_fract_z
O1 O 0.7013(3) 0.5161(6) 0.1762(3)
C1 C 0.7071(5) 0.3322(9) 0.1131(4)
C2 C 0.7724(5) 0.3862(8) 0.0129(5)
C3 C 0.8521(5) 0.5566(9) 0.0621(5)
C4 C 0.7754(5) 0.6686(9) 0.1360(5)
C5 C 0.5853(5) 0.2458(9) 0.0808(4)
C6 C 0.5269(6) 0.1666(9) 0.1781(6)
O2 O 0.5784(4) 0.1417(8) 0.2728(4)
O3 O 0.4128(3) 0.1261(6) 0.1482(3)
C7 C 0.8368(6) 0.2096(10) -0.0318(6)
C8 C 0.8403(6) 0.7774(11) 0.2367(5)
H1 H 0.7501 0.2279 0.1875
H2 H 0.7205 0.4244 -0.0551
H3 H 0.8738 0.6420 0.0028
H4 H 0.9230 0.5054 0.1071
H5 H 0.7334 0.7729 0.0907
H6 H 0.5349 0.3490 0.0433
H7 H 0.5915 0.1370 0.0285
H8 H 0.3766 0.0619 0.2224
H9 H 0.7922 0.0885 -0.0247
H10 H 0.9146 0.1969 0.0119
H11 H 0.8445 0.2313 -0.1108
H12 H 0.7855 0.8611 0.2702
H13 H 0.9016 0.8595 0.2121
H14 H 0.8757 0.6818 0.2922
loop_
_geom_bond_atom_site_label_1
_geom_bond_atom_site_label_2
_geom_bond_site_symmetry_1
_geom_bond_site_symmetry_2
O1 C1 1_555 1_555
C1 C2 1_555 1_555
C2 C3 1_555 1_555
C3 C4 1_555 1_555
C4 O1 1_555 1_555
C5 C1 1_555 1_555
C6 C5 1_555 1_555
O2 C6 1_555 1_555
O3 C6 1_555 1_555
C7 C2 1_555 1_555
C8 C4 1_555 1_555
H1 C1 1_555 1_555
H2 C2 1_555 1_555
H3 C3 1_555 1_555
H4 C3 1_555 1_555
H5 C4 1_555 1_555
H6 C5 1_555 1_555
H7 C5 1_555 1_555
H8 O3 1_555 1_555
H9 C7 1_555 1_555
H10 C7 1_555 1_555
H11 C7 1_555 1_555
H12 C8 1_555 1_555
H13 C8 1_555 1_555
H14 C8 1_555 1_555

#END
