
#######################################################################
#
#                 Cambridge Crystallographic Data Centre
#                                CCDC 
#
#######################################################################
#
# If this CIF has been generated from an entry in the Cambridge 
# Structural Database, then it will include bibliographic, chemical, 
# crystal, experimental, refinement or atomic coordinate data resulting 
# from the CCDC's data processing and validation procedures.
#
#######################################################################

data_SECTUP
_chemical_formula_moiety         'C52 H72 N2 O12 2+,2(H2 O1),2(I1 1-)'
_chemical_name_systematic        
"7,11,15,17,25,29,33,35-Octamethoxy-1,5,19,23-octa-oxa(5.1.5.1)paracyclophane-12,30-bis(spiro-4'-N,N-dimethylpiperidinium) di-iodide dihydrate clathrate"
_symmetry_cell_setting           orthorhombic
_symmetry_space_group_name_H-M   'P c c n'
_symmetry_Int_Tables_number      56
_space_group_name_Hall           '-P 2ab 2ac'
loop_
_symmetry_equiv_pos_site_id
_symmetry_equiv_pos_as_xyz
1 x,y,z
2 1/2-x,1/2-y,z
3 1/2+x,-y,1/2-z
4 -x,1/2+y,1/2-z
5 -x,-y,-z
6 1/2+x,1/2+y,-z
7 1/2-x,y,1/2+z
8 x,1/2-y,1/2+z
_cell_length_a                   16.5538(4)
_cell_length_b                   17.7556(5)
_cell_length_c                   18.8275(5)
_cell_angle_alpha                90
_cell_angle_beta                 90
_cell_angle_gamma                90
_cell_volume                     5533.83
_cell_formula_units_Z            4
loop_
_atom_site_label
_atom_site_type_symbol
_atom_site_fract_x
_atom_site_fract_y
_atom_site_fract_z
I1 I 1.0253 0.1315 1.0989
O1 O 0.7650(3) 0.5350(3) 1.0792(2)
C1 C 0.6901(4) 0.5406(5) 1.0400(4)
C2 C 0.6807(4) 0.4690(4) 0.9981(4)
C3 C 0.7458(5) 0.4616(4) 0.9434(3)
O2 O 0.7329(3) 0.3929(3) 0.9031(2)
C4 C 0.8020(4) 0.3549(3) 0.8867(3)
C5 C 0.8427(4) 0.3125(4) 0.9377(3)
C6 C 0.9094(4) 0.2696(3) 0.9204(3)
C7 C 0.9417(4) 0.2713(3) 0.8513(3)
C8 C 0.9024(4) 0.3151(3) 0.8009(3)
C9 C 0.8341(4) 0.3564(4) 0.8180(3)
C10 C 1.0215(3) 0.2312(3) 0.8349(3)
C11 C 1.0895(4) 0.2856(3) 0.8569(3)
C12 C 1.1339(4) 0.3268(3) 0.8081(3)
C13 C 1.1880(4) 0.3817(3) 0.8309(3)
C14 C 0.8039(4) 0.6007(4) 1.0982(3)
C15 C 0.8447(5) 0.6449(4) 1.0492(4)
C16 C 1.1040(4) 0.2982(4) 0.9290(3)
O3 O 0.8105(3) 0.3172(3) 1.0044(2)
C17 C 0.8524(5) 0.2764(5) 1.0586(2)
O4 O 0.7930(3) 0.4015(3) 0.7709(3)
C18 C 0.7991(5) 0.3850(4) 0.6972(4)
O5 O 1.2348(3) 0.4239(3) 0.7853(2)
C19 C 1.2461(4) 0.3952(4) 0.7145(3)
O6 O 0.8331(4) 0.6261(3) 0.9789(3)
C20 C 0.8665(14) 0.6705(10) 0.9306(6)
C21 C 0.8997(4) 0.0303(4) 0.7602(4)
C22 C 1.0481(4) 0.0342(4) 0.7592(4)
N1 N 0.9709(3) 0.0795(3) 0.7781(3)
C23 C 0.9658(4) 0.1515(3) 0.7344(3)
C24 C 1.0289(4) 0.2094(3) 0.7563(3)
C25 C 1.0316(4) 0.1561(3) 0.8759(3)
C26 C 0.9694(4) 0.0975(4) 0.8564(3)
H1 H 0.6983 0.5846 1.0118
H2 H 0.6567 0.5348 1.0740
H3 H 0.6805 0.4238 1.0264
H4 H 0.6376 0.4804 0.9674
H5 H 0.8030 0.4563 0.9675
H6 H 0.7432 0.5108 0.9021
H7 H 0.9406 0.2398 0.9579
H8 H 0.9297 0.3202 0.7545
H9 H 1.1362 0.3126 0.7539
H10 H 1.0754 0.2612 0.9671
H11 H 0.8991 0.3011 1.0687
H12 H 0.8129 0.2789 1.1052
H13 H 0.8425 0.2255 1.0506
H14 H 0.8502 0.4029 0.6823
H15 H 0.7758 0.3432 0.7092
H16 H 0.7613 0.4258 0.6691
H17 H 1.1939 0.4028 0.6923
H18 H 1.2621 0.3484 0.7177
H19 H 1.2995 0.4314 0.6978
H20 H 0.8741 0.6442 0.8838
H21 H 0.8339 0.7205 0.9226
H22 H 0.9233 0.6919 0.9473
H23 H 0.9052 -0.0144 0.7838
H24 H 0.8610 0.0536 0.7798
H25 H 0.9011 0.0302 0.7148
H26 H 1.0414 -0.0166 0.7889
H27 H 1.0978 0.0621 0.7740
H28 H 1.0506 0.0235 0.7071
H29 H 0.9772 0.1310 0.6834
H30 H 0.9154 0.1672 0.7456
H31 H 1.0268 0.2487 0.7220
H32 H 1.0849 0.1930 0.7488
H33 H 1.0234 0.1623 0.9278
H34 H 1.0954 0.1437 0.8670
H35 H 0.9175 0.1138 0.8623
H36 H 0.9795 0.0484 0.8851
C14D C 1.1961(4) 0.3993(4) 0.9018(3)
C13D C 0.8120(4) 0.6183(3) 1.1691(3)
C16D C 0.8960(4) 0.7018(4) 1.0710(3)
C15D C 1.1553(5) 0.3551(4) 0.9508(4)
O1D O 1.2350(3) 0.4650(3) 0.9208(2)
C12D C 0.8661(4) 0.6732(3) 1.1919(3)
O5D O 0.7652(3) 0.5761(3) 1.2147(2)
C11D C 0.9105(4) 0.7144(3) 1.1431(3)
H10D H 0.9246 0.7388 1.0329
O6D O 1.1669(4) 0.3739(3) 1.0211(3)
C1D C 1.3099(4) 0.4594(5) 0.9600(4)
H9D H 0.8638 0.6874 1.2461
C19D C 0.7539(4) 0.6048(4) 1.2855(3)
C10D C 0.9785(3) 0.7688(3) 1.1651(3)
C20D C 1.1335(14) 0.3295(10) 1.0694(6)
C2D C 1.3193(4) 0.5310(4) 1.0019(4)
H1D H 1.3017 0.4154 0.9882
H2D H 1.3433 0.4652 0.9260
H17D H 0.8061 0.5972 1.3077
H18D H 0.7379 0.6516 1.2823
H19D H 0.7005 0.5686 1.3022
C7D C 1.0583(4) 0.7287(3) 1.1487(3)
C24D C 0.9711(4) 0.7906(3) 1.2437(3)
C25D C 0.9684(4) 0.8439(3) 1.1241(3)
H20D H 1.1259 0.3558 1.1162
H21D H 1.1661 0.2795 1.0774
H22D H 1.0767 0.3081 1.0527
C3D C 1.2542(5) 0.5384(4) 1.0566(3)
H3D H 1.3195 0.5762 0.9736
H4D H 1.3624 0.5196 1.0326
C6D C 1.0906(4) 0.7304(3) 1.0796(3)
C8D C 1.0976(4) 0.6849(3) 1.1991(3)
C23D C 1.0342(4) 0.8485(3) 1.2656(3)
H31D H 0.9732 0.7513 1.2780
H32D H 0.9151 0.8070 1.2512
C26D C 1.0306(4) 0.9025(4) 1.1436(3)
H33D H 0.9766 0.8377 1.0722
H34D H 0.9046 0.8563 1.1330
O2D O 1.2671(3) 0.6071(3) 1.0969(2)
H5D H 1.1970 0.5437 1.0325
H6D H 1.2568 0.4892 1.0979
C5D C 1.1573(4) 0.6875(4) 1.0623(3)
H7D H 1.0594 0.7602 1.0421
C9D C 1.1659(4) 0.6436(4) 1.1820(3)
H8D H 1.0703 0.6798 1.2455
N1D N 1.0291(3) 0.9205(3) 1.2219(3)
H29D H 1.0228 0.8690 1.3166
H30D H 1.0846 0.8328 1.2544
H35D H 1.0825 0.8862 1.1377
H36D H 1.0205 0.9516 1.1149
C4D C 1.1980(4) 0.6451(3) 1.1133(3)
O3D O 1.1895(3) 0.6828(3) 0.9956(2)
O4D O 1.2070(3) 0.5985(3) 1.2291(3)
C21D C 1.1003(4) 0.9697(4) 1.2398(4)
C22D C 0.9519(4) 0.9658(4) 1.2408(4)
C17D C 1.1476(5) 0.7236(5) 0.9414(2)
C18D C 1.2009(5) 0.6150(4) 1.3028(4)
H23D H 1.0948 1.0144 1.2162
H24D H 1.1390 0.9464 1.2202
H25D H 1.0989 0.9698 1.2852
H26D H 0.9586 1.0166 1.2111
H27D H 0.9022 0.9379 1.2260
H28D H 0.9494 0.9765 1.2929
H11D H 1.1009 0.6989 0.9313
H12D H 1.1871 0.7211 0.8948
H13D H 1.1575 0.7745 0.9494
H14D H 1.1498 0.5971 1.3177
H15D H 1.2242 0.6568 1.2908
H16D H 1.2387 0.5742 1.3309
O7 O 1.0862(19) 0.5016(20) 1.0356(16)
O8 O 0.9549(17) 0.4731(15) 1.0615(12)
loop_
_geom_bond_atom_site_label_1
_geom_bond_atom_site_label_2
_geom_bond_site_symmetry_1
_geom_bond_site_symmetry_2
O1 C1 1_555 1_555
C1 C2 1_555 1_555
C2 C3 1_555 1_555
C3 O2 1_555 1_555
O2 C4 1_555 1_555
C4 C5 1_555 1_555
C5 C6 1_555 1_555
C6 C7 1_555 1_555
C7 C8 1_555 1_555
C8 C9 1_555 1_555
C9 C4 1_555 1_555
C10 C7 1_555 1_555
C11 C10 1_555 1_555
C12 C11 1_555 1_555
C13 C12 1_555 1_555
C14 O1 1_555 1_555
C15 C14 1_555 1_555
C16 C11 1_555 1_555
O3 C5 1_555 1_555
C17 O3 1_555 1_555
O4 C9 1_555 1_555
C18 O4 1_555 1_555
O5 C13 1_555 1_555
C19 O5 1_555 1_555
O6 C15 1_555 1_555
C20 O6 1_555 1_555
C21 N1 1_555 1_555
C22 N1 1_555 1_555
N1 C23 1_555 1_555
C23 C24 1_555 1_555
C24 C10 1_555 1_555
C25 C10 1_555 1_555
C26 N1 1_555 1_555
H1 C1 1_555 1_555
H2 C1 1_555 1_555
H3 C2 1_555 1_555
H4 C2 1_555 1_555
H5 C3 1_555 1_555
H6 C3 1_555 1_555
H7 C6 1_555 1_555
H8 C8 1_555 1_555
H9 C12 1_555 1_555
H10 C16 1_555 1_555
H11 C17 1_555 1_555
H12 C17 1_555 1_555
H13 C17 1_555 1_555
H14 C18 1_555 1_555
H15 C18 1_555 1_555
H16 C18 1_555 1_555
H17 C19 1_555 1_555
H18 C19 1_555 1_555
H19 C19 1_555 1_555
H20 C20 1_555 1_555
H21 C20 1_555 1_555
H22 C20 1_555 1_555
H23 C21 1_555 1_555
H24 C21 1_555 1_555
H25 C21 1_555 1_555
H26 C22 1_555 1_555
H27 C22 1_555 1_555
H28 C22 1_555 1_555
H29 C23 1_555 1_555
H30 C23 1_555 1_555
H31 C24 1_555 1_555
H32 C24 1_555 1_555
H33 C25 1_555 1_555
H34 C25 1_555 1_555
H35 C26 1_555 1_555
H36 C26 1_555 1_555
C14D C13 1_555 1_555
C13D C14 1_555 1_555
C16D C15 1_555 1_555
C15D C16 1_555 1_555
O1D C14D 1_555 1_555
C12D C13D 1_555 1_555
O5D C13D 1_555 1_555
C11D C16D 1_555 1_555
H10D C16D 1_555 1_555
O6D C15D 1_555 1_555
C1D O1D 1_555 1_555
H9D C12D 1_555 1_555
C19D O5D 1_555 1_555
C10D C11D 1_555 1_555
C20D O6D 1_555 1_555
C2D C1D 1_555 1_555
H1D C1D 1_555 1_555
H2D C1D 1_555 1_555
H17D C19D 1_555 1_555
H18D C19D 1_555 1_555
H19D C19D 1_555 1_555
C7D C10D 1_555 1_555
C24D C10D 1_555 1_555
C25D C10D 1_555 1_555
H20D C20D 1_555 1_555
H21D C20D 1_555 1_555
H22D C20D 1_555 1_555
C3D C2D 1_555 1_555
H3D C2D 1_555 1_555
H4D C2D 1_555 1_555
C6D C7D 1_555 1_555
C8D C7D 1_555 1_555
C23D C24D 1_555 1_555
H31D C24D 1_555 1_555
H32D C24D 1_555 1_555
C26D C25D 1_555 1_555
H33D C25D 1_555 1_555
H34D C25D 1_555 1_555
O2D C3D 1_555 1_555
H5D C3D 1_555 1_555
H6D C3D 1_555 1_555
C5D C6D 1_555 1_555
H7D C6D 1_555 1_555
C9D C8D 1_555 1_555
H8D C8D 1_555 1_555
N1D C23D 1_555 1_555
H29D C23D 1_555 1_555
H30D C23D 1_555 1_555
H35D C26D 1_555 1_555
H36D C26D 1_555 1_555
C4D O2D 1_555 1_555
O3D C5D 1_555 1_555
O4D C9D 1_555 1_555
C21D N1D 1_555 1_555
C22D N1D 1_555 1_555
C17D O3D 1_555 1_555
C18D O4D 1_555 1_555
H23D C21D 1_555 1_555
H24D C21D 1_555 1_555
H25D C21D 1_555 1_555
H26D C22D 1_555 1_555
H27D C22D 1_555 1_555
H28D C22D 1_555 1_555
H11D C17D 1_555 1_555
H12D C17D 1_555 1_555
H13D C17D 1_555 1_555
H14D C18D 1_555 1_555
H15D C18D 1_555 1_555
H16D C18D 1_555 1_555
C25 C26 1_555 1_555
C14D C15D 1_555 1_555
C12D C11D 1_555 1_555
C26D N1D 1_555 1_555
C5D C4D 1_555 1_555
C9D C4D 1_555 1_555

#END
