
#######################################################################
#
#                 Cambridge Crystallographic Data Centre
#                                CCDC 
#
#######################################################################
#
# If this CIF has been generated from an entry in the Cambridge 
# Structural Database, then it will include bibliographic, chemical, 
# crystal, experimental, refinement or atomic coordinate data resulting 
# from the CCDC's data processing and validation procedures.
#
#######################################################################

data_SECVEB
_chemical_formula_moiety         'C20 H21 N1 O5'
_chemical_name_systematic        
(3(2S),4R,5S)-3-(2-(4-Hydroxyphenoxy)-1-oxobutyl)-4-methyl-5-phenyloxazolidin-2-one
_symmetry_cell_setting           monoclinic
_symmetry_space_group_name_H-M   'C 2'
_symmetry_Int_Tables_number      5
_space_group_name_Hall           'C 2y'
loop_
_symmetry_equiv_pos_site_id
_symmetry_equiv_pos_as_xyz
1 x,y,z
2 1/2+x,1/2+y,z
3 -x,y,-z
4 1/2-x,1/2+y,-z
_cell_length_a                   22.666(5)
_cell_length_b                   6.4503(12)
_cell_length_c                   13.819(2)
_cell_angle_alpha                90
_cell_angle_beta                 104.393(16)
_cell_angle_gamma                90
_cell_volume                     1956.96
_exptl_crystal_colour            colorless
_chemical_melting_point          116-117.5deg.C
_cell_formula_units_Z            4
loop_
_atom_site_label
_atom_site_type_symbol
_atom_site_fract_x
_atom_site_fract_y
_atom_site_fract_z
O1 O 0.8567(1) 0.9305 0.7323(2)
O2 O 0.9153(1) 0.8887(6) 0.5884(2)
O3 O 0.9005(1) 0.3541(5) 0.9037(1)
O4 O 0.9548(1) 0.3756(6) 0.7902(2)
O5 O 0.7006(1) 0.7997(6) 0.2994(1)
N1 N 0.8917(1) 0.6417(6) 0.8155(2)
C1 C 0.8906(1) 0.7815(6) 0.7383(2)
C2 C 0.9331(1) 0.7536(7) 0.6725(2)
C3 C 0.9968(1) 0.8244(9) 0.7280(3)
C4 C 1.0412(2) 0.8164(12) 0.6668(4)
C5 C 0.8622(1) 0.8488(7) 0.5166(2)
C6 C 0.8273(1) 0.6694(7) 0.5117(2)
C7 C 0.7738(1) 0.6496(7) 0.4381(2)
C8 C 0.7548(1) 0.8048(7) 0.3706(2)
C9 C 0.7909(1) 0.9791(7) 0.3743(2)
C10 C 0.8437(1) 0.9997(7) 0.4472(2)
C11 C 0.9194(1) 0.4496(6) 0.8309(2)
C12 C 0.8929(2) 0.8275(7) 0.9712(3)
C13 C 0.8570(1) 0.6818(7) 0.8903(2)
C14 C 0.8489(1) 0.4635(6) 0.9238(2)
C15 C 0.8456(1) 0.4377(6) 1.0295(2)
C16 C 0.7934(2) 0.5080(8) 1.0547(3)
C17 C 0.7907(2) 0.5011(8) 1.1554(3)
C18 C 0.8379(2) 0.4231(8) 1.2261(3)
C19 C 0.8878(2) 0.3482(9) 1.2005(3)
C20 C 0.8919(2) 0.3562(7) 1.1017(2)
H1 H 0.6778 0.6891 0.2958
H2 H 0.9324 0.6106 0.6530
H3 H 1.0108 0.7358 0.7849
H4 H 0.9943 0.9645 0.7501
H5 H 1.0801 0.8621 0.7060
H6 H 1.0281 0.9055 0.6099
H7 H 1.0446 0.6768 0.6447
H8 H 0.8405 0.5600 0.5592
H9 H 0.7498 0.5259 0.4346
H10 H 0.7786 1.0865 0.3253
H11 H 0.8680 1.1223 0.4494
H12 H 0.8700 0.8530 1.0197
H13 H 0.9002 0.9563 0.9413
H14 H 0.9311 0.7644 1.0033
H15 H 0.8187 0.7524 0.8681
H16 H 0.8098 0.4109 0.8886
H17 H 0.7597 0.5606 1.0042
H18 H 0.7553 0.5515 1.1741
H19 H 0.8361 0.4210 1.2948
H20 H 0.9204 0.2886 1.2508
H21 H 0.9276 0.3044 1.0844
loop_
_geom_bond_atom_site_label_1
_geom_bond_atom_site_label_2
_geom_bond_site_symmetry_1
_geom_bond_site_symmetry_2
O1 C1 1_555 1_555
O2 C2 1_555 1_555
O3 C11 1_555 1_555
O4 C11 1_555 1_555
O5 C8 1_555 1_555
N1 C1 1_555 1_555
C1 C2 1_555 1_555
C2 C3 1_555 1_555
C3 C4 1_555 1_555
C4 H5 1_555 1_555
C5 O2 1_555 1_555
C6 C5 1_555 1_555
C7 C6 1_555 1_555
C8 C7 1_555 1_555
C9 C8 1_555 1_555
C10 C5 1_555 1_555
C11 N1 1_555 1_555
C12 C13 1_555 1_555
C13 N1 1_555 1_555
C14 O3 1_555 1_555
C15 C14 1_555 1_555
C16 C15 1_555 1_555
C17 C16 1_555 1_555
C18 C17 1_555 1_555
C19 C18 1_555 1_555
C20 C15 1_555 1_555
H1 O5 1_555 1_555
H2 C2 1_555 1_555
H3 C3 1_555 1_555
H4 C3 1_555 1_555
H6 C4 1_555 1_555
H7 C4 1_555 1_555
H8 C6 1_555 1_555
H9 C7 1_555 1_555
H10 C9 1_555 1_555
H11 C10 1_555 1_555
H12 C12 1_555 1_555
H13 C12 1_555 1_555
H14 C12 1_555 1_555
H15 C13 1_555 1_555
H16 C14 1_555 1_555
H17 C16 1_555 1_555
H18 C17 1_555 1_555
H19 C18 1_555 1_555
H20 C19 1_555 1_555
H21 C20 1_555 1_555
C9 C10 1_555 1_555
C13 C14 1_555 1_555
C19 C20 1_555 1_555

#END
