
#######################################################################
#
#                 Cambridge Crystallographic Data Centre
#                                CCDC 
#
#######################################################################
#
# If this CIF has been generated from an entry in the Cambridge 
# Structural Database, then it will include bibliographic, chemical, 
# crystal, experimental, refinement or atomic coordinate data resulting 
# from the CCDC's data processing and validation procedures.
#
#######################################################################

data_SECXUV
_chemical_formula_moiety         'C12 H13 N1 O3'
_chemical_name_systematic        3-Ethyl-4-hydroxy-8-methoxyquinolin-2(1H)-one
_symmetry_cell_setting           monoclinic
_symmetry_space_group_name_H-M   'P 21/c'
_symmetry_Int_Tables_number      14
_space_group_name_Hall           '-P 2ybc'
loop_
_symmetry_equiv_pos_site_id
_symmetry_equiv_pos_as_xyz
1 x,y,z
2 -x,1/2+y,1/2-z
3 -x,-y,-z
4 x,1/2-y,1/2+z
_cell_length_a                   11.4824(4)
_cell_length_b                   6.9072(2)
_cell_length_c                   14.4978(5)
_cell_angle_alpha                90
_cell_angle_beta                 113.1283(15)
_cell_angle_gamma                90
_cell_volume                     1057.42
_exptl_crystal_colour            colorless
_exptl_crystal_description       prism
_cell_formula_units_Z            4
loop_
_atom_site_label
_atom_site_type_symbol
_atom_site_fract_x
_atom_site_fract_y
_atom_site_fract_z
N1 N 0.0025(3) 0.7822(4) 0.0870(2)
H1 H -0.045(3) 0.880(4) 0.064(3)
O1 O 0.1611(2) 0.9727(3) 0.0836(2)
O2 O 0.2406(2) 0.3155(4) 0.1696(2)
H2 H 0.1991 0.2151 0.1570
O3 O -0.2344(2) 0.7758(4) 0.0700(2)
C1 C 0.1260(3) 0.8088(5) 0.1009(3)
C2 C 0.2089(3) 0.6432(5) 0.1318(3)
C3 C 0.3448(3) 0.6709(6) 0.1462(3)
H3 H 0.3497 0.7733 0.1020
H4 H 0.3757 0.5528 0.1275
C4 C 0.4286(4) 0.7222(9) 0.2532(4)
H5 H 0.4028 0.8447 0.2702
H6 H 0.5150 0.7303 0.2599
H7 H 0.4212 0.6241 0.2975
C5 C 0.1612(3) 0.4696(5) 0.1440(2)
C6 C 0.0321(3) 0.4481(5) 0.1348(2)
C7 C -0.0181(3) 0.2749(5) 0.1554(3)
H8 H 0.0325 0.1651 0.1758
C8 C -0.1418(4) 0.2694(6) 0.1450(3)
H9 H -0.1749 0.1547 0.1580
C9 C -0.2195(3) 0.4337(6) 0.1151(3)
H10 H -0.3035 0.4269 0.1080
C10 C -0.1721(3) 0.6033(6) 0.0964(3)
C11 C -0.0451(3) 0.6117(5) 0.1052(2)
C12 C -0.3645(4) 0.7815(8) 0.0518(4)
H11 H -0.4091 0.6864 0.0022
H12 H -0.3977 0.9078 0.0281
H13 H -0.3753 0.7540 0.1129
loop_
_geom_bond_atom_site_label_1
_geom_bond_atom_site_label_2
_geom_bond_site_symmetry_1
_geom_bond_site_symmetry_2
N1 H1 1_555 1_555
O1 C1 1_555 1_555
O2 H2 1_555 1_555
O3 C10 1_555 1_555
C1 N1 1_555 1_555
C2 C1 1_555 1_555
C3 C2 1_555 1_555
H3 C3 1_555 1_555
H4 C3 1_555 1_555
C4 C3 1_555 1_555
H5 C4 1_555 1_555
H6 C4 1_555 1_555
H7 C4 1_555 1_555
C5 O2 1_555 1_555
C6 C5 1_555 1_555
C7 C6 1_555 1_555
H8 C7 1_555 1_555
C8 C7 1_555 1_555
H9 C8 1_555 1_555
C9 C8 1_555 1_555
H10 C9 1_555 1_555
C10 C9 1_555 1_555
C11 N1 1_555 1_555
C12 O3 1_555 1_555
H11 C12 1_555 1_555
H12 C12 1_555 1_555
H13 C12 1_555 1_555
C2 C5 1_555 1_555
C6 C11 1_555 1_555
C10 C11 1_555 1_555

#END
