
#######################################################################
#
#                 Cambridge Crystallographic Data Centre
#                                CCDC 
#
#######################################################################
#
# If this CIF has been generated from an entry in the Cambridge 
# Structural Database, then it will include bibliographic, chemical, 
# crystal, experimental, refinement or atomic coordinate data resulting 
# from the CCDC's data processing and validation procedures.
#
#######################################################################

data_SECYUV
_chemical_formula_moiety         'C19 H19 N1 O2'
_chemical_name_systematic        
'rac-3-(4-Methoxyphenyl)-3,3a,4,5-tetrahydro-2H-benzo(g)indole 1-oxide'
_symmetry_cell_setting           orthorhombic
_symmetry_space_group_name_H-M   'P b c a'
_symmetry_Int_Tables_number      61
_space_group_name_Hall           '-P 2ac 2ab'
loop_
_symmetry_equiv_pos_site_id
_symmetry_equiv_pos_as_xyz
1 x,y,z
2 1/2-x,-y,1/2+z
3 -x,1/2+y,1/2-z
4 1/2+x,1/2-y,-z
5 -x,-y,-z
6 1/2+x,y,1/2-z
7 x,1/2-y,1/2+z
8 1/2-x,1/2+y,z
_cell_length_a                   10.162(2)
_cell_length_b                   11.205(2)
_cell_length_c                   27.271(5)
_cell_angle_alpha                90
_cell_angle_beta                 90
_cell_angle_gamma                90
_cell_volume                     3105.22
_chemical_melting_point          '120 deg.C(dec.)'
_cell_formula_units_Z            8
loop_
_atom_site_label
_atom_site_type_symbol
_atom_site_fract_x
_atom_site_fract_y
_atom_site_fract_z
O1 O 0.68249(14) -0.03751(11) 0.50994(5)
O2 O 0.6476(2) 0.50784(15) 0.27814(5)
N1 N 0.64291(16) 0.06784(15) 0.49673(6)
C1 C 0.58040(19) 0.26554(16) 0.49264(6)
H1 H 0.6576 0.3174 0.4893
C2 C 0.4708(2) 0.33525(17) 0.51726(7)
H2 H 0.3929 0.2858 0.5202
H3 H 0.4486 0.4048 0.4978
C3 C 0.5180(2) 0.37375(18) 0.56796(7)
H4 H 0.5892 0.4307 0.5643
H5 H 0.4464 0.4134 0.5850
C4 C 0.5653(2) 0.26971(19) 0.59859(7)
C5 C 0.5597(2) 0.2754(2) 0.64956(8)
H6 H 0.5287 0.3446 0.6644
C6 C 0.5988(3) 0.1816(2) 0.67866(8)
H7 H 0.5938 0.1876 0.7126
C7 C 0.6452(2) 0.0792(2) 0.65727(9)
H8 H 0.6710 0.0154 0.6769
C8 C 0.6540(2) 0.07000(19) 0.60687(8)
H9 H 0.6863 0.0004 0.5927
C9 C 0.61440(19) 0.16524(18) 0.57702(7)
C10 C 0.61630(18) 0.16079(17) 0.52386(7)
C11 C 0.6261(2) 0.09234(16) 0.44412(7)
H10 H 0.5772 0.0287 0.4283
H11 H 0.7108 0.1006 0.4280
C12 C 0.54925(19) 0.20990(16) 0.44234(6)
H12 H 0.4552 0.1905 0.4416
C13 C 0.5792(2) 0.28635(18) 0.39838(7)
C14 C 0.7016(2) 0.33662(18) 0.39117(7)
H13 H 0.7676 0.3212 0.4139
C15 C 0.7301(2) 0.40893(19) 0.35153(8)
H14 H 0.8140 0.4407 0.3477
C16 C 0.6334(3) 0.43345(19) 0.31777(7)
C17 C 0.5111(3) 0.3829(2) 0.32332(8)
H15 H 0.4457 0.3977 0.3003
C18 C 0.4851(2) 0.30991(19) 0.36317(7)
H16 H 0.4021 0.2759 0.3663
C19 C 0.7615(3) 0.5814(2) 0.27674(9)
H17 H 0.7680 0.6258 0.3068
H18 H 0.7551 0.6358 0.2496
H19 H 0.8383 0.5325 0.2729
loop_
_geom_bond_atom_site_label_1
_geom_bond_atom_site_label_2
_geom_bond_site_symmetry_1
_geom_bond_site_symmetry_2
O1 N1 1_555 1_555
O2 C16 1_555 1_555
N1 C10 1_555 1_555
C1 H1 1_555 1_555
C2 C1 1_555 1_555
H2 C2 1_555 1_555
H3 C2 1_555 1_555
C3 C2 1_555 1_555
H4 C3 1_555 1_555
H5 C3 1_555 1_555
C4 C3 1_555 1_555
C5 C4 1_555 1_555
H6 C5 1_555 1_555
C6 C5 1_555 1_555
H7 C6 1_555 1_555
C7 C6 1_555 1_555
H8 C7 1_555 1_555
C8 C7 1_555 1_555
H9 C8 1_555 1_555
C9 C4 1_555 1_555
C10 C1 1_555 1_555
C11 N1 1_555 1_555
H10 C11 1_555 1_555
H11 C11 1_555 1_555
C12 C1 1_555 1_555
H12 C12 1_555 1_555
C13 C12 1_555 1_555
C14 C13 1_555 1_555
H13 C14 1_555 1_555
C15 C14 1_555 1_555
H14 C15 1_555 1_555
C16 C15 1_555 1_555
C17 C16 1_555 1_555
H15 C17 1_555 1_555
C18 C13 1_555 1_555
H16 C18 1_555 1_555
C19 O2 1_555 1_555
H17 C19 1_555 1_555
H18 C19 1_555 1_555
H19 C19 1_555 1_555
C8 C9 1_555 1_555
C9 C10 1_555 1_555
C11 C12 1_555 1_555
C17 C18 1_555 1_555

#END
