
#######################################################################
#
#                 Cambridge Crystallographic Data Centre
#                                CCDC 
#
#######################################################################
#
# If this CIF has been generated from an entry in the Cambridge 
# Structural Database, then it will include bibliographic, chemical, 
# crystal, experimental, refinement or atomic coordinate data resulting 
# from the CCDC's data processing and validation procedures.
#
#######################################################################

data_SECZIK
_chemical_formula_moiety         'C22 H19 N3 O3'
_chemical_name_systematic        
anti-2-(2-(1-(4-Methoxyphenyl)-2-nitroethyl)-3,4-dihydro-2H-naphthalen-1-ylidene)malononitrile
_symmetry_cell_setting           monoclinic
_symmetry_space_group_name_H-M   'P 21/c'
_symmetry_Int_Tables_number      14
_space_group_name_Hall           '-P 2ybc'
loop_
_symmetry_equiv_pos_site_id
_symmetry_equiv_pos_as_xyz
1 x,y,z
2 -x,1/2+y,1/2-z
3 -x,-y,-z
4 x,1/2-y,1/2+z
_cell_length_a                   7.074(1)
_cell_length_b                   15.601(2)
_cell_length_c                   17.909(3)
_cell_angle_alpha                90
_cell_angle_beta                 91.76(2)
_cell_angle_gamma                90
_cell_volume                     1975.53
_chemical_melting_point          '181-183 deg.C'
_cell_formula_units_Z            4
loop_
_atom_site_label
_atom_site_type_symbol
_atom_site_fract_x
_atom_site_fract_y
_atom_site_fract_z
O1 O 0.5964(3) 0.62401(12) 0.56824(11)
O2 O 0.7244(2) 0.67760(13) 0.47274(13)
O3 O 0.10776(18) 0.94919(9) 0.57933(8)
N1 N 0.1970(3) 0.34199(13) 0.25165(12)
N2 N -0.1210(3) 0.47666(14) 0.41600(11)
N3 N 0.6019(3) 0.63730(12) 0.50203(13)
C1 C 0.4112(2) 0.56105(13) 0.26274(9)
C2 C 0.5392(3) 0.49390(14) 0.25453(11)
H1 H 0.5253 0.4439 0.2820
C3 C 0.6844(3) 0.5008(2) 0.20665(16)
H2 H 0.7700 0.4561 0.2017
C4 C 0.7031(4) 0.5747(3) 0.16571(16)
H3 H 0.7990 0.5785 0.1315
C5 C 0.5838(4) 0.64280(19) 0.17411(13)
H4 H 0.6009 0.6926 0.1466
C6 C 0.4359(3) 0.63767(14) 0.22412(10)
C7 C 0.3147(4) 0.71442(15) 0.23624(11)
H5 H 0.2639 0.7337 0.1882
H6 H 0.3934 0.7601 0.2568
C8 C 0.1504(3) 0.69954(13) 0.28812(11)
H7 H 0.0434 0.6768 0.2594
H8 H 0.1126 0.7539 0.3093
C9 C 0.2028(2) 0.63725(11) 0.35159(9)
H9 H 0.0911 0.6275 0.3815
C10 C 0.2547(2) 0.55505(11) 0.31434(9)
C11 C 0.3641(2) 0.67341(10) 0.40306(9)
H10 H 0.4650 0.6938 0.3712
C12 C 0.2973(2) 0.74833(11) 0.44835(9)
C13 C 0.3747(2) 0.82850(12) 0.44160(10)
H11 H 0.4691 0.8368 0.4073
C14 C 0.3171(3) 0.89763(12) 0.48407(10)
H12 H 0.3727 0.9512 0.4784
C15 C 0.1772(2) 0.88594(12) 0.53454(10)
C16 C 0.0962(2) 0.80634(13) 0.54187(11)
H13 H 0.0010 0.7983 0.5758
C17 C 0.1549(2) 0.73876(12) 0.49949(10)
H14 H 0.0983 0.6854 0.5051
C18 C 0.1544(2) 0.48259(12) 0.32515(9)
C19 C 0.1815(3) 0.40404(15) 0.28422(12)
C20 C 0.0028(3) 0.47968(14) 0.37646(12)
C21 C 0.4457(2) 0.60304(11) 0.45328(9)
H15 H 0.3470 0.5801 0.4840
H16 H 0.4929 0.5568 0.4228
C22 C 0.1993(3) 1.02999(13) 0.57997(12)
H17 H 0.3276 1.0233 0.5981
H18 H 0.1339 1.0685 0.6120
H19 H 0.1986 1.0529 0.5302
loop_
_geom_bond_atom_site_label_1
_geom_bond_atom_site_label_2
_geom_bond_site_symmetry_1
_geom_bond_site_symmetry_2
O1 N3 1_555 1_555
O2 N3 1_555 1_555
O3 C15 1_555 1_555
N1 C19 1_555 1_555
N2 C20 1_555 1_555
N3 C21 1_555 1_555
C1 C2 1_555 1_555
C2 H1 1_555 1_555
C3 C2 1_555 1_555
H2 C3 1_555 1_555
C4 C3 1_555 1_555
H3 C4 1_555 1_555
C5 C4 1_555 1_555
H4 C5 1_555 1_555
C6 C1 1_555 1_555
C7 C6 1_555 1_555
H5 C7 1_555 1_555
H6 C7 1_555 1_555
C8 C7 1_555 1_555
H7 C8 1_555 1_555
H8 C8 1_555 1_555
C9 C8 1_555 1_555
H9 C9 1_555 1_555
C10 C1 1_555 1_555
C11 C9 1_555 1_555
H10 C11 1_555 1_555
C12 C11 1_555 1_555
C13 C12 1_555 1_555
H11 C13 1_555 1_555
C14 C13 1_555 1_555
H12 C14 1_555 1_555
C15 C14 1_555 1_555
C16 C15 1_555 1_555
H13 C16 1_555 1_555
C17 C12 1_555 1_555
H14 C17 1_555 1_555
C18 C10 1_555 1_555
C19 C18 1_555 1_555
C20 C18 1_555 1_555
C21 C11 1_555 1_555
H15 C21 1_555 1_555
H16 C21 1_555 1_555
C22 O3 1_555 1_555
H17 C22 1_555 1_555
H18 C22 1_555 1_555
H19 C22 1_555 1_555
C5 C6 1_555 1_555
C9 C10 1_555 1_555
C16 C17 1_555 1_555

#END
