
#######################################################################
#
#                 Cambridge Crystallographic Data Centre
#                                CCDC 
#
#######################################################################
#
# If this CIF has been generated from an entry in the Cambridge 
# Structural Database, then it will include bibliographic, chemical, 
# crystal, experimental, refinement or atomic coordinate data resulting 
# from the CCDC's data processing and validation procedures.
#
#######################################################################

data_SEDDUA
_chemical_formula_moiety         'C6 H4 Br2 Cl1 N1'
_chemical_name_systematic        2,4-Dibromo-6-chloroaniline
_symmetry_cell_setting           orthorhombic
_symmetry_space_group_name_H-M   'P 21 21 21'
_symmetry_Int_Tables_number      19
_space_group_name_Hall           'P 2ac 2ab'
loop_
_symmetry_equiv_pos_site_id
_symmetry_equiv_pos_as_xyz
1 x,y,z
2 1/2+x,1/2-y,-z
3 -x,1/2+y,1/2-z
4 1/2-x,-y,1/2+z
_cell_length_a                   4.1787(5)
_cell_length_b                   13.245(2)
_cell_length_c                   14.856(3)
_cell_angle_alpha                90
_cell_angle_beta                 90
_cell_angle_gamma                90
_cell_volume                     822.233
_exptl_crystal_colour            purple
_exptl_crystal_description       plate
_chemical_melting_point          367-369K
_cell_formula_units_Z            4
_exptl_crystal_recrystallization_method ethanol
loop_
_atom_site_label
_atom_site_type_symbol
_atom_site_fract_x
_atom_site_fract_y
_atom_site_fract_z
Br1 Br 0.2253(6) -0.02535(19) 0.4047(2)
Br2 Br 0.6513(3) 0.17455(10) 0.09000(8)
Cl2 Cl -0.002(6) 0.3838(9) 0.3418(7)
N1 N -0.038(2) 0.1823(6) 0.4485(5)
C1 C 0.119(2) 0.1790(7) 0.3681(6)
C2 C 0.259(2) 0.0927(5) 0.3351(5)
C3 C 0.421(3) 0.0918(8) 0.2541(7)
C4 C 0.444(2) 0.1787(8) 0.2027(4)
C5 C 0.308(3) 0.2665(7) 0.2344(7)
C6 C 0.155(2) 0.2679(5) 0.3138(6)
H1 H -0.0530 0.1288 0.4810
H2 H -0.1225 0.2379 0.4667
H3 H 0.5153 0.0324 0.2339
H4 H 0.3220 0.3253 0.2004
Cl1? Cl 0.2397(14) -0.0190(5) 0.3942(7)
Br3? Br -0.007(4) 0.3863(7) 0.3663(6)
loop_
_geom_bond_atom_site_label_1
_geom_bond_atom_site_label_2
_geom_bond_site_symmetry_1
_geom_bond_site_symmetry_2
Br1 C2 1_555 1_555
Br2 C4 1_555 1_555
Cl2 C6 1_555 1_555
N1 C1 1_555 1_555
C1 C2 1_555 1_555
C2 C3 1_555 1_555
C3 C4 1_555 1_555
C4 C5 1_555 1_555
C5 C6 1_555 1_555
C6 C1 1_555 1_555
H1 N1 1_555 1_555
H2 N1 1_555 1_555
H3 C3 1_555 1_555
H4 C5 1_555 1_555

#END
