
#######################################################################
#
#                 Cambridge Crystallographic Data Centre
#                                CCDC 
#
#######################################################################
#
# If this CIF has been generated from an entry in the Cambridge 
# Structural Database, then it will include bibliographic, chemical, 
# crystal, experimental, refinement or atomic coordinate data resulting 
# from the CCDC's data processing and validation procedures.
#
#######################################################################

data_SEDFIS
_chemical_formula_moiety         'C18 H18 Cl1 N1 O5'
_chemical_name_systematic        
'(3-Chloro-2,6-dimethoxyphenyl)(ethoxyimino)methyl benzoate'
_symmetry_cell_setting           monoclinic
_symmetry_space_group_name_H-M   'P 21/c'
_symmetry_Int_Tables_number      14
_space_group_name_Hall           '-P 2ybc'
loop_
_symmetry_equiv_pos_site_id
_symmetry_equiv_pos_as_xyz
1 x,y,z
2 -x,1/2+y,1/2-z
3 -x,-y,-z
4 x,1/2-y,1/2+z
_cell_length_a                   9.4262(10)
_cell_length_b                   12.9863(14)
_cell_length_c                   15.4227(16)
_cell_angle_alpha                90
_cell_angle_beta                 102.843(2)
_cell_angle_gamma                90
_cell_volume                     1840.68
_exptl_crystal_colour            colorless
_exptl_crystal_description       block
_cell_formula_units_Z            4
loop_
_atom_site_label
_atom_site_type_symbol
_atom_site_fract_x
_atom_site_fract_y
_atom_site_fract_z
Cl1 Cl 0.31473(12) 0.56710(7) 0.07179(7)
O1 O 0.1499(2) 0.42350(16) 0.16181(13)
O2 O 0.1097(3) 0.15458(19) -0.04964(16)
O3 O -0.1289(3) 0.17796(19) 0.17061(16)
O4 O 0.0986(2) 0.12350(16) 0.12436(14)
O5 O 0.2986(3) 0.18389(17) 0.21829(15)
N1 N -0.0722(3) 0.2521(2) 0.12132(17)
C1 C 0.2563(4) 0.4441(3) 0.0356(2)
C2 C 0.2902(4) 0.4053(3) -0.0402(2)
H1 H 0.3459 0.4449 -0.0714
C3 C 0.2430(4) 0.3084(3) -0.0708(2)
H2 H 0.2657 0.2823 -0.1229
C4 C 0.1622(3) 0.2502(3) -0.0243(2)
C5 C 0.1277(3) 0.2883(2) 0.0537(2)
C6 C 0.1751(3) 0.3869(2) 0.0833(2)
C7 C 0.0273(4) 0.4934(3) 0.1513(2)
H3 H 0.0326 0.5436 0.1055
H4 H 0.0300 0.5287 0.2070
H5 H -0.0627 0.4548 0.1342
C8 C 0.1477(6) 0.1095(4) -0.1262(3)
H6 H 0.1149 0.1539 -0.1773
H7 H 0.1014 0.0427 -0.1378
H8 H 0.2525 0.1014 -0.1153
C9 C 0.0461(3) 0.2231(2) 0.10433(19)
C10 C -0.2591(5) 0.2193(3) 0.1924(3)
H9 H -0.2394 0.2897 0.2147
H10 H -0.2832 0.1780 0.2404
C11 C -0.3862(5) 0.2206(4) 0.1162(3)
H11 H -0.3699 0.2706 0.0727
H12 H -0.4727 0.2393 0.1368
H13 H -0.3991 0.1529 0.0891
C12 C 0.2377(3) 0.1144(2) 0.17402(19)
C13 C 0.2986(3) 0.0111(2) 0.16451(19)
C14 C 0.2277(3) -0.0602(2) 0.1025(2)
H14 H 0.1367 -0.0443 0.0658
C15 C 0.2915(4) -0.1537(3) 0.0952(2)
H15 H 0.2432 -0.2023 0.0539
C16 C 0.4257(4) -0.1772(3) 0.1479(2)
H16 H 0.4684 -0.2415 0.1422
C17 C 0.4976(4) -0.1070(3) 0.2091(2)
H17 H 0.5895 -0.1230 0.2447
C18 C 0.4341(4) -0.0130(3) 0.2177(2)
H18 H 0.4824 0.0350 0.2597
loop_
_geom_bond_atom_site_label_1
_geom_bond_atom_site_label_2
_geom_bond_site_symmetry_1
_geom_bond_site_symmetry_2
Cl1 C1 1_555 1_555
O1 C6 1_555 1_555
O2 C4 1_555 1_555
O3 N1 1_555 1_555
O4 C9 1_555 1_555
O5 C12 1_555 1_555
N1 C9 1_555 1_555
C1 C2 1_555 1_555
C2 H1 1_555 1_555
C3 C2 1_555 1_555
H2 C3 1_555 1_555
C4 C3 1_555 1_555
C5 C4 1_555 1_555
C6 C1 1_555 1_555
C7 O1 1_555 1_555
H3 C7 1_555 1_555
H4 C7 1_555 1_555
H5 C7 1_555 1_555
C8 O2 1_555 1_555
H6 C8 1_555 1_555
H7 C8 1_555 1_555
H8 C8 1_555 1_555
C9 C5 1_555 1_555
C10 O3 1_555 1_555
H9 C10 1_555 1_555
H10 C10 1_555 1_555
C11 C10 1_555 1_555
H11 C11 1_555 1_555
H12 C11 1_555 1_555
H13 C11 1_555 1_555
C12 O4 1_555 1_555
C13 C12 1_555 1_555
C14 C13 1_555 1_555
H14 C14 1_555 1_555
C15 C14 1_555 1_555
H15 C15 1_555 1_555
C16 C15 1_555 1_555
H16 C16 1_555 1_555
C17 C16 1_555 1_555
H17 C17 1_555 1_555
C18 C13 1_555 1_555
H18 C18 1_555 1_555
C5 C6 1_555 1_555
C17 C18 1_555 1_555

#END
