
#######################################################################
#
#                 Cambridge Crystallographic Data Centre
#                                CCDC 
#
#######################################################################
#
# If this CIF has been generated from an entry in the Cambridge 
# Structural Database, then it will include bibliographic, chemical, 
# crystal, experimental, refinement or atomic coordinate data resulting 
# from the CCDC's data processing and validation procedures.
#
#######################################################################

data_SEDHOB
_chemical_formula_moiety         'C82 H76 N12 O15'
_chemical_name_systematic        
'methyl 64,72,74,76-tetraisobutoxy-37-nitro-3,13,23,33,61-pentaoxo-43,49-dioxa-2,5,12,15,22,25,32,35,53,60,70-undecaazatridecacyclo[60.6.2.2^4,7^.2^14,17^.2^24,27^.1^34,42^.0^6,11^.0^16,21^.0^26,31^.0^36,41^.0^50,55^.0^54,59^.0^65,69^]heptaheptaconta-1(68),4,6,8,10,14,16,18,20,24,26,28,30,34,36(41),37,39,42(71),46,50,52,54,56,58,62(70),63,65(69),66,72,74,76-hentriacontaene-52-carboxylate unknown solvate'
_symmetry_cell_setting           monoclinic
_symmetry_space_group_name_H-M   'P 21/c'
_symmetry_Int_Tables_number      14
_space_group_name_Hall           '-P 2ybc'
loop_
_symmetry_equiv_pos_site_id
_symmetry_equiv_pos_as_xyz
1 x,y,z
2 -x,1/2+y,1/2-z
3 -x,-y,-z
4 x,1/2-y,1/2+z
_cell_length_a                   19.0911(12)
_cell_length_b                   25.2401(17)
_cell_length_c                   15.8581(14)
_cell_angle_alpha                90
_cell_angle_beta                 101.128(8)
_cell_angle_gamma                90
_cell_volume                     7497.73
_exptl_crystal_colour            yellow
_exptl_crystal_description       block
_cell_formula_units_Z            4
_exptl_crystal_recrystallization_method dichloromethane/hexane
loop_
_atom_site_label
_atom_site_type_symbol
_atom_site_fract_x
_atom_site_fract_y
_atom_site_fract_z
C1 C 0.1295(3) 0.5049(2) -0.0405(3)
C2 C 0.0884(3) 0.4643(3) -0.0264(4)
H1 H 0.0393 0.4688 -0.0322
C3 C 0.1198(3) 0.4147(3) -0.0027(4)
H2 H 0.0919 0.3864 0.0089
C4 C 0.1920(3) 0.4082(2) 0.0033(4)
H3 H 0.2126 0.3752 0.0172
C5 C 0.2355(3) 0.4516(2) -0.0116(3)
C6 C 0.2052(3) 0.5019(2) -0.0311(3)
C7 C 0.3112(3) 0.4474(2) -0.0025(4)
C8 C 0.4146(4) 0.3903(3) 0.0377(5)
H4 H 0.4402 0.4215 0.0626
H5 H 0.4304 0.3815 -0.0152
C9 C 0.4273(5) 0.3442(3) 0.1002(6)
H6 H 0.3900 0.3182 0.0826
H7 H 0.4724 0.3277 0.0959
C10 C 0.4290(4) 0.3578(2) 0.1906(5)
H8 H 0.3869 0.3692 0.2061
C11 C 0.4884(5) 0.3546(3) 0.2527(8)
H9 H 0.5303 0.3450 0.2349
C12 C 0.4944(7) 0.3649(5) 0.3469(9)
H10 H 0.5143 0.3337 0.3785
H11 H 0.5275 0.3939 0.3635
C13 C 0.3495(3) 0.4913(2) -0.0161(3)
H12 H 0.3980 0.4891 -0.0169
C14 C 0.3132(3) 0.5401(2) -0.0288(3)
C15 C 0.3568(2) 0.59080(19) -0.0278(3)
C16 C 0.3430(2) 0.6868(2) 0.0000(3)
C17 C 0.4031(2) 0.7061(2) -0.0260(3)
H13 H 0.4343 0.6830 -0.0457
C18 C 0.4167(3) 0.7608(2) -0.0226(3)
H14 H 0.4569 0.7734 -0.0412
C19 C 0.3731(3) 0.7963(2) 0.0071(3)
H15 H 0.3836 0.8323 0.0080
C20 C 0.3119(3) 0.7780(2) 0.0364(3)
C21 C 0.2968(2) 0.7228(2) 0.0326(3)
C22 C 0.2642(3) 0.8111(2) 0.0700(3)
C23 C 0.2379(4) 0.8972(2) 0.1197(5)
H16 H 0.2284 0.8804 0.1713
H17 H 0.1927 0.9033 0.0811
C24 C 0.2751(6) 0.9485(4) 0.1420(7)
H18 H 0.2892 0.9634 0.0907
C25 C 0.2210(8) 0.9862(5) 0.1731(10)
H19 H 0.1785 0.9886 0.1297
H20 H 0.2419 1.0207 0.1837
H21 H 0.2093 0.9725 0.2252
C26 C 0.3359(7) 0.9415(5) 0.2068(9)
H22 H 0.3223 0.9422 0.2620
H23 H 0.3693 0.9695 0.2036
H24 H 0.3577 0.9080 0.1990
C27 C 0.2037(3) 0.7899(2) 0.0910(3)
H25 H 0.1697 0.8115 0.1082
C28 C 0.1946(3) 0.7352(2) 0.0859(3)
C29 C 0.1301(3) 0.7124(2) 0.1156(4)
C30 C 0.0897(3) 0.6266(3) 0.1657(3)
C31 C 0.0230(3) 0.6422(3) 0.1796(4)
H26 H 0.0062 0.6767 0.1702
C32 C -0.0195(3) 0.5996(4) 0.2106(4)
H27 H -0.0638 0.6088 0.2223
C33 C 0.0007(4) 0.5498(4) 0.2227(5)
H28 H -0.0297 0.5247 0.2392
C34 C 0.0686(3) 0.5352(3) 0.2104(4)
C35 C 0.1134(3) 0.5741(2) 0.1833(3)
C36 C 0.0950(4) 0.4828(3) 0.2192(5)
C37 C 0.0720(5) 0.3914(4) 0.2498(7)
H29 H 0.0782 0.3794 0.1936
H30 H 0.1179 0.3890 0.2887
C38 C 0.0214(6) 0.3576(5) 0.2803(9)
H31 H -0.0200 0.3567 0.2329
C39 C -0.0044(6) 0.3807(6) 0.3487(9)
H32 H 0.0345 0.3861 0.3963
H33 H -0.0391 0.3577 0.3660
H34 H -0.0262 0.4142 0.3308
C40 C 0.0475(6) 0.2992(4) 0.2903(9)
H35 H 0.0585 0.2870 0.2370
H36 H 0.0106 0.2774 0.3055
H37 H 0.0894 0.2970 0.3346
C41 C 0.1614(4) 0.4724(3) 0.2094(4)
H38 H 0.1790 0.4380 0.2157
C42 C 0.2038(4) 0.5129(2) 0.1898(3)
C43 C 0.2793(4) 0.5009(2) 0.1886(4)
C44 C 0.3930(3) 0.5486(2) 0.1862(3)
C45 C 0.4378(4) 0.5073(3) 0.1748(4)
H39 H 0.4215 0.4725 0.1719
C46 C 0.5093(4) 0.5190(3) 0.1677(4)
H40 H 0.5392 0.4911 0.1599
C47 C 0.5356(4) 0.5681(3) 0.1716(4)
H41 H 0.5822 0.5738 0.1643
C48 C 0.4942(3) 0.6101(3) 0.1863(3)
C49 C 0.4216(3) 0.6007(3) 0.1950(3)
C50 C 0.5184(3) 0.6642(3) 0.1955(4)
C51 C 0.6176(4) 0.7240(4) 0.2069(7)
H42 H 0.6066 0.7344 0.2618
H43 H 0.5934 0.7486 0.1641
C52 C 0.6995(7) 0.7303(6) 0.2124(11)
H44 H 0.7245 0.7600 0.2451
C53 C 0.7358(11) 0.6685(9) 0.2254(16)
H45 H 0.6986 0.6425 0.2120
H46 H 0.7601 0.6640 0.2839
H47 H 0.7691 0.6640 0.1877
C54 C 0.7088(7) 0.7215(6) 0.1294(10)
H48 H 0.7586 0.7246 0.1271
H49 H 0.6820 0.7472 0.0917
H50 H 0.6924 0.6865 0.1117
C55 C 0.4757(3) 0.7016(3) 0.2162(3)
H51 H 0.4917 0.7364 0.2237
C56 C 0.4061(2) 0.6884(2) 0.2268(3)
C57 C 0.3619(3) 0.7312(2) 0.2540(3)
C58 C 0.2502(3) 0.7432(3) 0.3103(3)
C59 C 0.2467(3) 0.7970(3) 0.3067(3)
H52 H 0.2826 0.8161 0.2884
C60 C 0.1890(4) 0.8238(3) 0.3304(4)
H53 H 0.1874 0.8606 0.3278
C61 C 0.1352(4) 0.7971(4) 0.3573(4)
H54 H 0.0966 0.8154 0.3710
C62 C 0.1385(3) 0.7431(4) 0.3638(4)
C63 C 0.1976(3) 0.7138(3) 0.3438(3)
C64 C 0.0847(4) 0.7090(5) 0.3920(5)
C65 C -0.0276(5) 0.7052(5) 0.4339(8)
H55 H -0.0253 0.6695 0.4118
H56 H -0.0138 0.7031 0.4959
C66 C -0.0991(8) 0.7214(6) 0.4144(10)
H57 H -0.1159 0.7239 0.3521
C67 C -0.1570(8) 0.7095(8) 0.4569(11)
H58 H -0.1996 0.7268 0.4275
H59 H -0.1647 0.6719 0.4566
H60 H -0.1457 0.7219 0.5152
C68 C -0.0873(5) 0.7727(4) 0.4520(7)
H61 H -0.1319 0.7913 0.4452
H62 H -0.0670 0.7693 0.5120
H63 H -0.0551 0.7921 0.4239
C69 C 0.0956(4) 0.6591(4) 0.4047(5)
H64 H 0.0624 0.6386 0.4260
C70 C 0.1575(4) 0.6354(3) 0.3865(4)
C71 C 0.1660(5) 0.5764(4) 0.4059(5)
C72 C 0.2516(5) 0.5023(3) 0.4094(4)
C73 C 0.2053(5) 0.4635(4) 0.4204(5)
H65 H 0.1592 0.4710 0.4282
C74 C 0.2298(7) 0.4130(5) 0.4195(7)
H66 H 0.1997 0.3863 0.4317
C75 C 0.2928(6) 0.3978(3) 0.4028(5)
H67 H 0.3040 0.3623 0.3965
C76 C 0.3419(5) 0.4397(3) 0.3952(5)
C77 C 0.3232(5) 0.4925(3) 0.4016(4)
C78 C 0.4131(5) 0.4299(3) 0.3815(4)
C79 C 0.4598(4) 0.4714(3) 0.3824(4)
H68 H 0.5066 0.4659 0.3758
C80 C 0.4339(4) 0.5233(3) 0.3940(4)
C81 C 0.4821(4) 0.5709(3) 0.4002(4)
C82 C 0.5998(4) 0.5977(3) 0.3947(5)
H69 H 0.5851 0.6224 0.3486
H70 H 0.6452 0.5828 0.3901
H71 H 0.6039 0.6157 0.4487
N1 N 0.0948(2) 0.5554(2) -0.0708(3)
N2 N 0.2437(2) 0.54632(16) -0.0365(3)
N3 N 0.32207(19) 0.63381(16) -0.0056(2)
H72 H 0.2810 0.6275 0.0070
N4 N 0.23910(19) 0.70191(16) 0.0600(2)
N5 N 0.1360(2) 0.66091(19) 0.1340(3)
H73 H 0.1746 0.6464 0.1248
N6 N 0.1818(2) 0.5622(2) 0.1750(3)
N7 N 0.3211(3) 0.54494(19) 0.1886(3)
H74 H 0.2994 0.5747 0.1904
N8 N 0.3790(2) 0.64079(18) 0.2162(2)
N9 N 0.3043(2) 0.71317(19) 0.2848(3)
H75 H 0.3007 0.6794 0.2890
N10 N 0.2071(3) 0.6614(3) 0.3553(3)
N11 N 0.2313(4) 0.5560(3) 0.4020(3)
H76 H 0.2636 0.5782 0.3942
N12 N 0.3690(4) 0.5336(2) 0.4008(3)
O1 O 0.1069(2) 0.5732(2) -0.1388(3)
O2 O 0.0536(2) 0.57579(18) -0.0298(3)
O3 O 0.3381(2) 0.39948(15) 0.0214(3)
O4 O 0.4290(5) 0.3775(2) 0.3712(4)
O5 O 0.41736(17) 0.58997(14) -0.0438(2)
O6 O 0.2823(2) 0.86284(15) 0.0786(2)
O7 O 0.0792(2) 0.73996(18) 0.1219(3)
O8 O 0.0479(3) 0.4471(3) 0.2441(4)
O9 O 0.3024(3) 0.45543(16) 0.1900(3)
O10 O 0.5873(2) 0.6708(3) 0.1854(4)
O11 O 0.3770(2) 0.77752(16) 0.2488(2)
O12 O 0.0263(3) 0.7368(4) 0.4028(3)
O13 O 0.1174(4) 0.5509(3) 0.4246(3)
O14 O 0.5478(3) 0.55611(19) 0.3895(3)
O15 O 0.4672(2) 0.61475(19) 0.4147(3)
loop_
_geom_bond_atom_site_label_1
_geom_bond_atom_site_label_2
_geom_bond_site_symmetry_1
_geom_bond_site_symmetry_2
C1 C2 1_555 1_555
C2 H1 1_555 1_555
C3 C2 1_555 1_555
H2 C3 1_555 1_555
C4 C3 1_555 1_555
H3 C4 1_555 1_555
C5 C4 1_555 1_555
C6 C1 1_555 1_555
C7 C5 1_555 1_555
C8 H4 1_555 1_555
H5 C8 1_555 1_555
C9 C8 1_555 1_555
H6 C9 1_555 1_555
H7 C9 1_555 1_555
C10 C9 1_555 1_555
H8 C10 1_555 1_555
C11 C10 1_555 1_555
H9 C11 1_555 1_555
C12 C11 1_555 1_555
H10 C12 1_555 1_555
H11 C12 1_555 1_555
C13 C7 1_555 1_555
H12 C13 1_555 1_555
C14 C13 1_555 1_555
C15 C14 1_555 1_555
C16 C17 1_555 1_555
C17 H13 1_555 1_555
C18 C17 1_555 1_555
H14 C18 1_555 1_555
C19 C18 1_555 1_555
H15 C19 1_555 1_555
C20 C19 1_555 1_555
C21 C16 1_555 1_555
C22 C20 1_555 1_555
C23 H16 1_555 1_555
H17 C23 1_555 1_555
C24 C23 1_555 1_555
H18 C24 1_555 1_555
C25 C24 1_555 1_555
H19 C25 1_555 1_555
H20 C25 1_555 1_555
H21 C25 1_555 1_555
C26 C24 1_555 1_555
H22 C26 1_555 1_555
H23 C26 1_555 1_555
H24 C26 1_555 1_555
C27 C22 1_555 1_555
H25 C27 1_555 1_555
C28 C27 1_555 1_555
C29 C28 1_555 1_555
C30 C31 1_555 1_555
C31 H26 1_555 1_555
C32 C31 1_555 1_555
H27 C32 1_555 1_555
C33 C32 1_555 1_555
H28 C33 1_555 1_555
C34 C33 1_555 1_555
C35 C30 1_555 1_555
C36 C34 1_555 1_555
C37 H29 1_555 1_555
H30 C37 1_555 1_555
C38 C37 1_555 1_555
H31 C38 1_555 1_555
C39 C38 1_555 1_555
H32 C39 1_555 1_555
H33 C39 1_555 1_555
H34 C39 1_555 1_555
C40 C38 1_555 1_555
H35 C40 1_555 1_555
H36 C40 1_555 1_555
H37 C40 1_555 1_555
C41 C36 1_555 1_555
H38 C41 1_555 1_555
C42 C41 1_555 1_555
C43 C42 1_555 1_555
C44 C45 1_555 1_555
C45 H39 1_555 1_555
C46 C45 1_555 1_555
H40 C46 1_555 1_555
C47 C46 1_555 1_555
H41 C47 1_555 1_555
C48 C47 1_555 1_555
C49 C44 1_555 1_555
C50 C48 1_555 1_555
C51 H42 1_555 1_555
H43 C51 1_555 1_555
C52 C51 1_555 1_555
H44 C52 1_555 1_555
C53 C52 1_555 1_555
H45 C53 1_555 1_555
H46 C53 1_555 1_555
H47 C53 1_555 1_555
C54 C52 1_555 1_555
H48 C54 1_555 1_555
H49 C54 1_555 1_555
H50 C54 1_555 1_555
C55 C50 1_555 1_555
H51 C55 1_555 1_555
C56 C55 1_555 1_555
C57 C56 1_555 1_555
C58 C59 1_555 1_555
C59 H52 1_555 1_555
C60 C59 1_555 1_555
H53 C60 1_555 1_555
C61 C60 1_555 1_555
H54 C61 1_555 1_555
C62 C61 1_555 1_555
C63 C58 1_555 1_555
C64 C62 1_555 1_555
C65 H55 1_555 1_555
H56 C65 1_555 1_555
C66 C65 1_555 1_555
H57 C66 1_555 1_555
C67 C66 1_555 1_555
H58 C67 1_555 1_555
H59 C67 1_555 1_555
H60 C67 1_555 1_555
C68 C66 1_555 1_555
H61 C68 1_555 1_555
H62 C68 1_555 1_555
H63 C68 1_555 1_555
C69 C64 1_555 1_555
H64 C69 1_555 1_555
C70 C69 1_555 1_555
C71 C70 1_555 1_555
C72 C73 1_555 1_555
C73 H65 1_555 1_555
C74 C73 1_555 1_555
H66 C74 1_555 1_555
C75 C74 1_555 1_555
H67 C75 1_555 1_555
C76 C75 1_555 1_555
C77 C72 1_555 1_555
C78 C76 1_555 1_555
C79 C78 1_555 1_555
H68 C79 1_555 1_555
C80 C79 1_555 1_555
C81 C80 1_555 1_555
C82 H69 1_555 1_555
H70 C82 1_555 1_555
H71 C82 1_555 1_555
N1 C1 1_555 1_555
N2 C6 1_555 1_555
N3 C15 1_555 1_555
H72 N3 1_555 1_555
N4 C21 1_555 1_555
N5 C29 1_555 1_555
H73 N5 1_555 1_555
N6 C35 1_555 1_555
N7 C43 1_555 1_555
H74 N7 1_555 1_555
N8 C49 1_555 1_555
N9 C57 1_555 1_555
H75 N9 1_555 1_555
N10 C63 1_555 1_555
N11 C71 1_555 1_555
H76 N11 1_555 1_555
N12 C77 1_555 1_555
O1 N1 1_555 1_555
O2 N1 1_555 1_555
O3 C7 1_555 1_555
O4 C12 1_555 1_555
O5 C15 1_555 1_555
O6 C22 1_555 1_555
O7 C29 1_555 1_555
O8 C36 1_555 1_555
O9 C43 1_555 1_555
O10 C50 1_555 1_555
O11 C57 1_555 1_555
O12 C64 1_555 1_555
O13 C71 1_555 1_555
O14 C81 1_555 1_555
O15 C81 1_555 1_555
C5 C6 1_555 1_555
C8 O3 1_555 1_555
C14 N2 1_555 1_555
C16 N3 1_555 1_555
C20 C21 1_555 1_555
C23 O6 1_555 1_555
C28 N4 1_555 1_555
C30 N5 1_555 1_555
C34 C35 1_555 1_555
C37 O8 1_555 1_555
C42 N6 1_555 1_555
C44 N7 1_555 1_555
C48 C49 1_555 1_555
C51 O10 1_555 1_555
C56 N8 1_555 1_555
C58 N9 1_555 1_555
C62 C63 1_555 1_555
C65 O12 1_555 1_555
C70 N10 1_555 1_555
C72 N11 1_555 1_555
C76 C77 1_555 1_555
C78 O4 1_555 1_555
C80 N12 1_555 1_555
C82 O14 1_555 1_555

#END
