
#######################################################################
#
#                 Cambridge Crystallographic Data Centre
#                                CCDC 
#
#######################################################################
#
# If this CIF has been generated from an entry in the Cambridge 
# Structural Database, then it will include bibliographic, chemical, 
# crystal, experimental, refinement or atomic coordinate data resulting 
# from the CCDC's data processing and validation procedures.
#
#######################################################################

data_SEDJAP
_chemical_formula_moiety         'C83 H78 N12 O15'
_chemical_name_systematic        
'methyl 65,73,75,77-tetrakis(2-methylpropoxy)-37-nitro-3,13,23,33,62-pentaoxo-43,50-dioxa-2,5,12,15,22,25,32,35,54,61,71-undecaazatridecacyclo[61.6.2.2^4,7^.2^14,17^.2^24,27^.1^34,42^.0^6,11^.0^16,21^.0^26,31^.0^36,41^.0^51,56^.0^55,60^.0^66,70^]octaheptaconta-1(69),4,6,8,10,14,16,18,20,24,26,28,30,34,36(41),37,39,42(72),46,51,53,55,57,59,63(71),64,66(70),67,73,75,77-hentriacontaene-53-carboxylate unknown solvate'
_symmetry_cell_setting           monoclinic
_symmetry_space_group_name_H-M   'P 21/c'
_symmetry_Int_Tables_number      14
_space_group_name_Hall           '-P 2ybc'
loop_
_symmetry_equiv_pos_site_id
_symmetry_equiv_pos_as_xyz
1 x,y,z
2 -x,1/2+y,1/2-z
3 -x,-y,-z
4 x,1/2-y,1/2+z
_cell_length_a                   18.8063(3)
_cell_length_b                   26.1809(5)
_cell_length_c                   16.1355(3)
_cell_angle_alpha                90
_cell_angle_beta                 100.0786(17)
_cell_angle_gamma                90
_cell_volume                     7821.97
_exptl_crystal_colour            yellow
_exptl_crystal_description       block
_cell_formula_units_Z            4
loop_
_atom_site_label
_atom_site_type_symbol
_atom_site_fract_x
_atom_site_fract_y
_atom_site_fract_z
O1 O 0.88439(18) 0.41102(13) 0.6036(3)
O2 O 0.94336(17) 0.42523(12) 0.5022(2)
O3 O 0.57295(13) 0.41328(10) 0.52473(17)
O4 O 0.70408(17) 0.15031(10) 0.39798(17)
O5 O 0.90860(18) 0.26765(17) 0.3414(3)
O6 O 0.9631(4) 0.5523(2) 0.2701(3)
O7 O 0.6998(3) 0.54778(12) 0.3273(2)
O8 O 0.40591(16) 0.34285(13) 0.3092(2)
O9 O 0.60982(16) 0.23822(10) 0.22779(18)
O10 O 0.9624(2) 0.25769(18) 0.0593(2)
O11 O 0.89101(17) 0.44650(15) 0.0622(2)
O12 O 0.45471(15) 0.42976(12) 0.09744(18)
O13 O 0.54022(17) 0.37740(12) 0.0657(2)
O14 O 0.56460(17) 0.60409(11) 0.12812(19)
O15 O 0.66734(15) 0.59994(10) 0.5240(2)
N1 N 0.90080(15) 0.43774(12) 0.5476(2)
N2 N 0.75062(15) 0.45245(11) 0.52212(16)
N3 N 0.66834(15) 0.37127(10) 0.48255(17)
H1 H 0.7106 0.3775 0.4683
N4 N 0.75027(16) 0.30573(12) 0.41346(17)
N5 N 0.85271(18) 0.34569(15) 0.3362(2)
H2 H 0.8120 0.3601 0.3435
N6 N 0.8141(2) 0.44244(14) 0.31356(19)
N7 N 0.6754(2) 0.46246(12) 0.30136(19)
H3 H 0.6964 0.4342 0.2885
N8 N 0.61472(17) 0.37059(11) 0.26711(16)
N9 N 0.68811(16) 0.29757(11) 0.19280(17)
H4 H 0.6953 0.3307 0.1903
N10 N 0.79166(16) 0.34259(12) 0.12106(18)
N11 N 0.77571(17) 0.44065(13) 0.0872(2)
H5 H 0.7421 0.4180 0.0920
N12 N 0.63692(17) 0.45806(13) 0.08928(17)
C1 C 0.86964(18) 0.48900(13) 0.5391(2)
C2 C 0.91507(19) 0.52936(14) 0.5403(3)
H6 H 0.9654 0.5241 0.5430
C3 C 0.8866(2) 0.57910(14) 0.5375(3)
H7 H 0.9179 0.6076 0.5377
C4 C 0.8143(2) 0.58674(14) 0.5346(3)
H8 H 0.7960 0.6206 0.5343
C5 C 0.76672(19) 0.54498(13) 0.5318(2)
C6 C 0.79346(17) 0.49438(12) 0.53243(19)
C7 C 0.69048(19) 0.55081(13) 0.5248(2)
C8 C 0.64754(18) 0.50812(13) 0.5193(2)
H9 H 0.5969 0.5110 0.5172
C9 C 0.68052(17) 0.45998(13) 0.51686(19)
C10 C 0.63443(18) 0.41247(13) 0.50788(19)
C11 C 0.64612(18) 0.32033(13) 0.47574(19)
C12 C 0.58525(19) 0.30191(14) 0.5041(2)
H10 H 0.5530 0.3248 0.5244
C13 C 0.5720(2) 0.24922(14) 0.5025(2)
H11 H 0.5308 0.2368 0.5229
C14 C 0.6161(2) 0.21513(14) 0.4728(2)
H12 H 0.6059 0.1796 0.4734
C15 C 0.67710(19) 0.23279(13) 0.44107(19)
C16 C 0.69303(18) 0.28581(13) 0.44255(19)
C17 C 0.7242(2) 0.19989(14) 0.4061(2)
C18 C 0.7418(3) 0.11747(16) 0.3481(3)
H13 H 0.7852 0.1029 0.3838
H14 H 0.7576 0.1375 0.3025
C19 C 0.6905(3) 0.07377(16) 0.3096(3)
H15 H 0.6439 0.0887 0.2802
C20 C 0.7270(5) 0.0464(2) 0.2465(4)
H16 H 0.7283 0.0687 0.1980
H17 H 0.7001 0.0152 0.2278
H18 H 0.7765 0.0374 0.2727
C21 C 0.6757(3) 0.03795(19) 0.3783(3)
H19 H 0.7204 0.0202 0.4027
H20 H 0.6392 0.0128 0.3544
H21 H 0.6580 0.0576 0.4222
C22 C 0.7848(2) 0.22004(15) 0.3819(2)
H22 H 0.8193 0.1985 0.3630
C23 C 0.7945(2) 0.27341(15) 0.3855(2)
C24 C 0.8589(2) 0.29468(18) 0.3529(3)
C25 C 0.9027(2) 0.3777(2) 0.3093(3)
C26 C 0.9684(3) 0.3626(3) 0.2893(3)
H23 H 0.9817 0.3276 0.2908
C27 C 1.0154(3) 0.4006(4) 0.2667(3)
H24 H 1.0601 0.3903 0.2522
C28 C 0.9993(4) 0.4503(4) 0.2652(4)
H25 H 1.0330 0.4745 0.2514
C29 C 0.9322(3) 0.4673(3) 0.2841(3)
C30 C 0.8820(3) 0.4304(2) 0.3027(2)
C31 C 0.9104(4) 0.5194(3) 0.2859(3)
C32 C 0.9454(5) 0.6061(3) 0.2705(6)
H26 H 0.9547 0.6161 0.3306
H27 H 0.8924 0.6077 0.2522
C33 C 0.9741(10) 0.6477(6) 0.2265(14)
H28 H 0.9433 0.6439 0.1697
C34 C 0.9687(8) 0.6996(4) 0.2372(8)
H29 H 0.9226 0.7118 0.2053
H30 H 1.0086 0.7168 0.2168
H31 H 0.9709 0.7073 0.2970
C35 C 1.0340(6) 0.6255(5) 0.2119(7)
H32 H 1.0508 0.6007 0.2566
H33 H 1.0713 0.6515 0.2109
H34 H 1.0243 0.6079 0.1575
C36 C 0.8428(4) 0.5317(2) 0.3005(3)
H35 H 0.8280 0.5662 0.3032
C37 C 0.7963(3) 0.49144(17) 0.3112(2)
C38 C 0.7185(3) 0.50388(16) 0.3145(2)
C39 C 0.6018(3) 0.45831(14) 0.3054(2)
C40 C 0.5593(3) 0.49846(17) 0.3217(2)
H36 H 0.5784 0.5321 0.3267
C41 C 0.4878(3) 0.48956(18) 0.3310(3)
H37 H 0.4590 0.5176 0.3427
C42 C 0.4580(3) 0.44175(19) 0.3238(3)
H38 H 0.4099 0.4365 0.3325
C43 C 0.4996(2) 0.40025(16) 0.3034(2)
C44 C 0.5727(2) 0.40823(14) 0.2920(2)
C45 C 0.4746(2) 0.34915(17) 0.2947(2)
C46 C 0.3765(3) 0.2925(2) 0.3008(4)
H39 H 0.4062 0.2690 0.3409
H40 H 0.3757 0.2796 0.2430
C47 C 0.3001(3) 0.2956(3) 0.3196(4)
H41 H 0.3024 0.3098 0.3776
C48 C 0.2530(4) 0.3299(4) 0.2581(7)
H42 H 0.2685 0.3655 0.2682
H43 H 0.2026 0.3265 0.2655
H44 H 0.2573 0.3202 0.2005
C49 C 0.2703(5) 0.2413(4) 0.3181(8)
H45 H 0.2760 0.2247 0.2653
H46 H 0.2190 0.2425 0.3223
H47 H 0.2968 0.2220 0.3657
C50 C 0.5172(2) 0.31147(15) 0.2698(2)
H48 H 0.5003 0.2773 0.2626
C51 C 0.58629(19) 0.32474(13) 0.25537(19)
C52 C 0.6294(2) 0.28257(13) 0.2245(2)
C53 C 0.7387(2) 0.26620(14) 0.1636(2)
C54 C 0.7374(2) 0.21336(15) 0.1666(2)
H49 H 0.6993 0.1963 0.1870
C55 C 0.7930(3) 0.18488(16) 0.1393(2)
H50 H 0.7912 0.1486 0.1411
C56 C 0.8483(2) 0.20729(17) 0.1111(2)
H51 H 0.8851 0.1869 0.0943
C57 C 0.8519(2) 0.26098(17) 0.1063(2)
C58 C 0.79502(19) 0.29076(14) 0.12972(19)
C59 C 0.9075(2) 0.2875(2) 0.0759(3)
C60 C 1.0216(3) 0.2822(3) 0.0295(4)
H52 H 1.0488 0.3050 0.0728
H53 H 1.0049 0.3020 -0.0226
C61 C 1.0724(5) 0.2302(5) 0.0106(6)
H54 H 1.0534 0.2083 -0.0391
C62 C 1.0979(8) 0.2057(6) 0.0875(11)
H55 H 1.1132 0.2314 0.1311
H56 H 1.1390 0.1838 0.0815
H57 H 1.0593 0.1847 0.1034
C63 C 0.9041(2) 0.3393(2) 0.0672(2)
H58 H 0.9407 0.3577 0.0464
C64 C 0.8446(2) 0.36446(17) 0.0900(2)
C65 C 0.8401(2) 0.42148(17) 0.0786(2)
C66 C 0.7548(2) 0.49160(16) 0.0896(2)
C67 C 0.8004(2) 0.53260(18) 0.0891(3)
H59 H 0.8492 0.5271 0.0831
C68 C 0.7751(3) 0.58269(18) 0.0973(3)
H60 H 0.8068 0.6108 0.0953
C69 C 0.7059(2) 0.59145(17) 0.1080(3)
H61 H 0.6903 0.6252 0.1171
C70 C 0.6575(2) 0.55001(16) 0.1055(2)
C71 C 0.6800(2) 0.49939(15) 0.0943(2)
C72 C 0.5836(2) 0.55591(15) 0.1135(2)
C73 C 0.5390(2) 0.51379(16) 0.1061(2)
H62 H 0.4893 0.5172 0.1091
C74 C 0.5683(2) 0.46603(16) 0.0940(2)
C75 C 0.5217(2) 0.41866(16) 0.0835(2)
C76 C 0.4047(2) 0.3879(2) 0.0881(3)
H63 H 0.4033 0.3719 0.0330
H64 H 0.3565 0.4005 0.0926
H65 H 0.4202 0.3627 0.1325
C77 C 0.4958(2) 0.61230(17) 0.1553(3)
H66 H 0.4864 0.5849 0.1942
H67 H 0.4559 0.6127 0.1063
C78 C 0.5020(3) 0.66293(18) 0.1990(3)
H68 H 0.5140 0.6896 0.1601
H69 H 0.4551 0.6719 0.2150
C79 C 0.5591(3) 0.66149(18) 0.2757(3)
H70 H 0.6074 0.6555 0.2682
C80 C 0.5475(3) 0.66790(19) 0.3529(3)
H71 H 0.5003 0.6773 0.3607
C81 C 0.6045(3) 0.6613(2) 0.4293(3)
H72 H 0.6025 0.6906 0.4675
H73 H 0.6525 0.6617 0.4119
C82 C 0.5971(2) 0.61193(15) 0.4775(3)
H74 H 0.5622 0.6166 0.5163
H75 H 0.5796 0.5839 0.4378
C83 C 1.1458(6) 0.2760(6) 0.0002(9)
H76 H 1.1325 0.2956 -0.0520
H77 H 1.1906 0.2572 -0.0012
H78 H 1.1530 0.2995 0.0483
loop_
_geom_bond_atom_site_label_1
_geom_bond_atom_site_label_2
_geom_bond_site_symmetry_1
_geom_bond_site_symmetry_2
O1 N1 1_555 1_555
O2 N1 1_555 1_555
O3 C10 1_555 1_555
O4 C17 1_555 1_555
O5 C24 1_555 1_555
O6 C31 1_555 1_555
O7 C38 1_555 1_555
O8 C45 1_555 1_555
O9 C52 1_555 1_555
O10 C59 1_555 1_555
O11 C65 1_555 1_555
O12 C75 1_555 1_555
O13 C75 1_555 1_555
O14 C72 1_555 1_555
O15 C7 1_555 1_555
N1 C1 1_555 1_555
N2 C6 1_555 1_555
N3 H1 1_555 1_555
N4 C16 1_555 1_555
N5 H2 1_555 1_555
N6 C30 1_555 1_555
N7 H3 1_555 1_555
N8 C44 1_555 1_555
N9 H4 1_555 1_555
N10 C58 1_555 1_555
N11 H5 1_555 1_555
N12 C71 1_555 1_555
C1 C2 1_555 1_555
C2 H6 1_555 1_555
C3 C2 1_555 1_555
H7 C3 1_555 1_555
C4 C3 1_555 1_555
H8 C4 1_555 1_555
C5 C4 1_555 1_555
C6 C1 1_555 1_555
C7 C5 1_555 1_555
C8 C7 1_555 1_555
H9 C8 1_555 1_555
C9 N2 1_555 1_555
C10 N3 1_555 1_555
C11 N3 1_555 1_555
C12 C11 1_555 1_555
H10 C12 1_555 1_555
C13 C12 1_555 1_555
H11 C13 1_555 1_555
C14 C13 1_555 1_555
H12 C14 1_555 1_555
C15 C14 1_555 1_555
C16 C11 1_555 1_555
C17 C15 1_555 1_555
C18 O4 1_555 1_555
H13 C18 1_555 1_555
H14 C18 1_555 1_555
C19 C18 1_555 1_555
H15 C19 1_555 1_555
C20 C19 1_555 1_555
H16 C20 1_555 1_555
H17 C20 1_555 1_555
H18 C20 1_555 1_555
C21 C19 1_555 1_555
H19 C21 1_555 1_555
H20 C21 1_555 1_555
H21 C21 1_555 1_555
C22 C17 1_555 1_555
H22 C22 1_555 1_555
C23 N4 1_555 1_555
C24 N5 1_555 1_555
C25 N5 1_555 1_555
C26 C25 1_555 1_555
H23 C26 1_555 1_555
C27 C26 1_555 1_555
H24 C27 1_555 1_555
C28 C27 1_555 1_555
H25 C28 1_555 1_555
C29 C28 1_555 1_555
C30 C25 1_555 1_555
C31 C29 1_555 1_555
C32 O6 1_555 1_555
H26 C32 1_555 1_555
H27 C32 1_555 1_555
C33 C32 1_555 1_555
H28 C33 1_555 1_555
C34 C33 1_555 1_555
H29 C34 1_555 1_555
H30 C34 1_555 1_555
H31 C34 1_555 1_555
C35 C33 1_555 1_555
H32 C35 1_555 1_555
H33 C35 1_555 1_555
H34 C35 1_555 1_555
C36 C31 1_555 1_555
H35 C36 1_555 1_555
C37 N6 1_555 1_555
C38 N7 1_555 1_555
C39 N7 1_555 1_555
C40 C39 1_555 1_555
H36 C40 1_555 1_555
C41 C40 1_555 1_555
H37 C41 1_555 1_555
C42 C41 1_555 1_555
H38 C42 1_555 1_555
C43 C42 1_555 1_555
C44 C39 1_555 1_555
C45 C43 1_555 1_555
C46 O8 1_555 1_555
H39 C46 1_555 1_555
H40 C46 1_555 1_555
C47 C46 1_555 1_555
H41 C47 1_555 1_555
C48 C47 1_555 1_555
H42 C48 1_555 1_555
H43 C48 1_555 1_555
H44 C48 1_555 1_555
C49 C47 1_555 1_555
H45 C49 1_555 1_555
H46 C49 1_555 1_555
H47 C49 1_555 1_555
C50 C45 1_555 1_555
H48 C50 1_555 1_555
C51 N8 1_555 1_555
C52 N9 1_555 1_555
C53 N9 1_555 1_555
C54 C53 1_555 1_555
H49 C54 1_555 1_555
C55 C54 1_555 1_555
H50 C55 1_555 1_555
C56 C55 1_555 1_555
H51 C56 1_555 1_555
C57 C56 1_555 1_555
C58 C53 1_555 1_555
C59 C57 1_555 1_555
C60 O10 1_555 1_555
H52 C60 1_555 1_555
H53 C60 1_555 1_555
C61 C60 1_555 1_555
H54 C61 1_555 1_555
C62 C61 1_555 1_555
H55 C62 1_555 1_555
H56 C62 1_555 1_555
H57 C62 1_555 1_555
C63 C59 1_555 1_555
H58 C63 1_555 1_555
C64 N10 1_555 1_555
C65 N11 1_555 1_555
C66 N11 1_555 1_555
C67 C66 1_555 1_555
H59 C67 1_555 1_555
C68 C67 1_555 1_555
H60 C68 1_555 1_555
C69 C68 1_555 1_555
H61 C69 1_555 1_555
C70 C69 1_555 1_555
C71 C66 1_555 1_555
C72 C70 1_555 1_555
C73 C72 1_555 1_555
H62 C73 1_555 1_555
C74 N12 1_555 1_555
C75 C74 1_555 1_555
C76 O12 1_555 1_555
H63 C76 1_555 1_555
H64 C76 1_555 1_555
H65 C76 1_555 1_555
C77 O14 1_555 1_555
H66 C77 1_555 1_555
H67 C77 1_555 1_555
C78 C77 1_555 1_555
H68 C78 1_555 1_555
H69 C78 1_555 1_555
C79 C78 1_555 1_555
H70 C79 1_555 1_555
C80 C79 1_555 1_555
H71 C80 1_555 1_555
C81 C80 1_555 1_555
H72 C81 1_555 1_555
H73 C81 1_555 1_555
C82 O15 1_555 1_555
H74 C82 1_555 1_555
H75 C82 1_555 1_555
C83 C61 1_555 1_555
H76 C83 1_555 1_555
H77 C83 1_555 1_555
H78 C83 1_555 1_555
C5 C6 1_555 1_555
C8 C9 1_555 1_555
C9 C10 1_555 1_555
C15 C16 1_555 1_555
C22 C23 1_555 1_555
C23 C24 1_555 1_555
C29 C30 1_555 1_555
C36 C37 1_555 1_555
C37 C38 1_555 1_555
C43 C44 1_555 1_555
C50 C51 1_555 1_555
C51 C52 1_555 1_555
C57 C58 1_555 1_555
C63 C64 1_555 1_555
C64 C65 1_555 1_555
C70 C71 1_555 1_555
C73 C74 1_555 1_555
C81 C82 1_555 1_555

#END
