
#######################################################################
#
#                 Cambridge Crystallographic Data Centre
#                                CCDC 
#
#######################################################################
#
# If this CIF has been generated from an entry in the Cambridge 
# Structural Database, then it will include bibliographic, chemical, 
# crystal, experimental, refinement or atomic coordinate data resulting 
# from the CCDC's data processing and validation procedures.
#
#######################################################################

data_SEDLAQ
_chemical_formula_moiety         'C13 H11 N3 O3 S1'
_chemical_name_systematic        
(Z)-5-(2,3-Dimethoxybenzylidene)[1,3]thiazolo[3,2-b][1,2,4]triazol-6(5H)-one
_symmetry_cell_setting           monoclinic
_symmetry_space_group_name_H-M   'C 2'
_symmetry_Int_Tables_number      5
_space_group_name_Hall           'C 2y'
loop_
_symmetry_equiv_pos_site_id
_symmetry_equiv_pos_as_xyz
1 x,y,z
2 -x,y,-z
3 1/2+x,1/2+y,z
4 1/2-x,1/2+y,-z
_cell_length_a                   11.5904(13)
_cell_length_b                   7.0570(8)
_cell_length_c                   16.4519(18)
_cell_angle_alpha                90
_cell_angle_beta                 107.445(2)
_cell_angle_gamma                90
_cell_volume                     1283.76
_exptl_crystal_colour            green
_exptl_crystal_description       prismatic
_cell_formula_units_Z            4
loop_
_atom_site_label
_atom_site_type_symbol
_atom_site_fract_x
_atom_site_fract_y
_atom_site_fract_z
S1 S -0.01455(7) 1.05191(12) 0.10793(4)
N1 N -0.0780(2) 1.3372(4) 0.18332(14)
N2 N -0.1377(2) 1.5049(4) 0.17612(17)
N3 N -0.1513(3) 1.3773(5) 0.04552(16)
O1 O 0.00045(19) 1.2734(4) 0.32636(12)
O2 O 0.21278(18) 0.7058(4) 0.40934(11)
O3 O 0.3203(2) 0.3716(4) 0.39185(15)
C1 C -0.1790(3) 1.5220(5) 0.0926(2)
H1 H -0.2245 1.6262 0.0669
C2 C -0.0877(3) 1.2682(5) 0.10527(16)
C3 C -0.0130(2) 1.2290(4) 0.25439(15)
C4 C 0.0302(2) 1.0558(5) 0.22076(14)
C5 C 0.0954(2) 0.9259(4) 0.27501(16)
H2 H 0.1093 0.9551 0.3323
C6 C 0.1475(2) 0.7493(5) 0.25979(16)
C7 C 0.1392(3) 0.6801(5) 0.17817(17)
H3 H 0.0975 0.7497 0.1304
C8 C 0.1919(3) 0.5107(5) 0.16797(18)
H4 H 0.1847 0.4659 0.1135
C9 C 0.2555(3) 0.4070(5) 0.23833(19)
H5 H 0.2930 0.2946 0.2308
C10 C 0.2643(2) 0.4684(5) 0.32006(18)
C11 C 0.2112(2) 0.6410(5) 0.33035(17)
C12 C 0.3298(3) 0.7237(7) 0.47229(19)
H6 H 0.3520 0.6048 0.5011
H7 H 0.3262 0.8195 0.5129
H8 H 0.3889 0.7585 0.4447
C13 C 0.3783(4) 0.1988(7) 0.3845(3)
H9 H 0.3209 0.1138 0.3482
H10 H 0.4105 0.1427 0.4399
H11 H 0.4429 0.2225 0.3606
loop_
_geom_bond_atom_site_label_1
_geom_bond_atom_site_label_2
_geom_bond_site_symmetry_1
_geom_bond_site_symmetry_2
S1 C2 1_555 1_555
N1 N2 1_555 1_555
N2 C1 1_555 1_555
N3 C1 1_555 1_555
O1 C3 1_555 1_555
O2 C11 1_555 1_555
O3 C10 1_555 1_555
C1 H1 1_555 1_555
C2 N1 1_555 1_555
C3 N1 1_555 1_555
C4 S1 1_555 1_555
C5 C4 1_555 1_555
H2 C5 1_555 1_555
C6 C5 1_555 1_555
C7 C6 1_555 1_555
H3 C7 1_555 1_555
C8 C7 1_555 1_555
H4 C8 1_555 1_555
C9 C8 1_555 1_555
H5 C9 1_555 1_555
C10 C9 1_555 1_555
C11 C6 1_555 1_555
C12 O2 1_555 1_555
H6 C12 1_555 1_555
H7 C12 1_555 1_555
H8 C12 1_555 1_555
C13 O3 1_555 1_555
H9 C13 1_555 1_555
H10 C13 1_555 1_555
H11 C13 1_555 1_555
N3 C2 1_555 1_555
C3 C4 1_555 1_555
C10 C11 1_555 1_555

#END
