
#######################################################################
#
#                 Cambridge Crystallographic Data Centre
#                                CCDC 
#
#######################################################################
#
# If this CIF has been generated from an entry in the Cambridge 
# Structural Database, then it will include bibliographic, chemical, 
# crystal, experimental, refinement or atomic coordinate data resulting 
# from the CCDC's data processing and validation procedures.
#
#######################################################################

data_SEDLOE
_chemical_formula_moiety         'C9 H12 O4'
_chemical_name_systematic        3,4,5-Trimethoxyphenol
_symmetry_cell_setting           monoclinic
_symmetry_space_group_name_H-M   'P 21/c'
_symmetry_Int_Tables_number      14
_space_group_name_Hall           '-P 2ybc'
loop_
_symmetry_equiv_pos_site_id
_symmetry_equiv_pos_as_xyz
1 x,y,z
2 -x,1/2+y,1/2-z
3 -x,-y,-z
4 x,1/2-y,1/2+z
_cell_length_a                   15.355(3)
_cell_length_b                   11.139(2)
_cell_length_c                   11.546(2)
_cell_angle_alpha                90
_cell_angle_beta                 111.38(3)
_cell_angle_gamma                90
_cell_volume                     1838.92
_exptl_crystal_colour            colorless
_exptl_crystal_description       block
_cell_formula_units_Z            8
loop_
_atom_site_label
_atom_site_type_symbol
_atom_site_fract_x
_atom_site_fract_y
_atom_site_fract_z
O1 O 0.33376(8) 0.41617(11) 0.19861(12)
H1 H 0.3521 0.3629 0.1642
O2 O 0.64034(9) 0.58079(12) 0.27042(13)
O3 O 0.61501(8) 0.74092(10) 0.42789(11)
C1 C 0.39182(12) 0.57694(14) 0.33613(15)
H2 H 0.3366 0.5772 0.3520
C2 C 0.46239(12) 0.65836(14) 0.39471(15)
C3 C 0.54480(11) 0.65824(14) 0.37034(15)
C4 C 0.55643(11) 0.57554(15) 0.28722(15)
O4 O 0.45748(9) 0.74281(11) 0.47812(13)
C5 C 0.48632(11) 0.49346(15) 0.22769(15)
H3 H 0.4938 0.4384 0.1715
C6 C 0.40488(11) 0.49505(14) 0.25354(15)
C7 C 0.64850(16) 0.5093(2) 0.1731(2)
H4 H 0.6423 0.4261 0.1903
H5 H 0.7085 0.5225 0.1673
H6 H 0.6002 0.5309 0.0958
C8 C 0.67555(14) 0.7061(2) 0.55005(19)
H7 H 0.6420 0.7098 0.6057
H8 H 0.7281 0.7596 0.5786
H9 H 0.6972 0.6256 0.5478
C9 C 0.38077(15) 0.73582(19) 0.5198(2)
H10 H 0.3235 0.7519 0.4514
H11 H 0.3890 0.7940 0.5843
H12 H 0.3782 0.6568 0.5517
O5 O 0.11271(9) 0.75191(10) 0.18255(12)
O6 O -0.16694(8) 1.08198(11) 0.13218(12)
H13 H -0.1501 1.1323 0.1878
O7 O 0.13740(8) 0.91453(12) 0.36143(12)
C10 C -0.03779(12) 0.83857(15) 0.06267(15)
C11 C 0.05455(11) 0.92090(15) 0.26236(15)
C12 C -0.10754(12) 0.92213(15) 0.05119(16)
H14 H -0.1617 0.9235 -0.0197
C13 C 0.04348(11) 0.83728(14) 0.16863(15)
C14 C -0.01507(11) 1.00391(15) 0.25244(15)
H15 H -0.0079 1.0590 0.3158
O8 O -0.04248(9) 0.75347(11) -0.02475(12)
C15 C -0.09552(11) 1.00336(15) 0.14650(16)
C16 C -0.11899(15) 0.75973(19) -0.14040(19)
H16 H -0.1765 0.7496 -0.1266
H17 H -0.1131 0.6974 -0.1945
H18 H -0.1190 0.8365 -0.1782
C17 C 0.17645(16) 0.7822(2) 0.1232(2)
H19 H 0.1450 0.7779 0.0346
H20 H 0.2279 0.7268 0.1487
H21 H 0.1994 0.8622 0.1463
C18 C 0.14821(16) 0.9927(2) 0.46273(19)
H22 H 0.1435 1.0744 0.4348
H23 H 0.2084 0.9798 0.5267
H24 H 0.1001 0.9766 0.4953
loop_
_geom_bond_atom_site_label_1
_geom_bond_atom_site_label_2
_geom_bond_site_symmetry_1
_geom_bond_site_symmetry_2
O1 H1 1_555 1_555
O2 C4 1_555 1_555
O3 C3 1_555 1_555
C1 H2 1_555 1_555
C2 C1 1_555 1_555
C3 C2 1_555 1_555
C4 C3 1_555 1_555
O4 C2 1_555 1_555
C5 C4 1_555 1_555
H3 C5 1_555 1_555
C6 O1 1_555 1_555
C7 O2 1_555 1_555
H4 C7 1_555 1_555
H5 C7 1_555 1_555
H6 C7 1_555 1_555
C8 O3 1_555 1_555
H7 C8 1_555 1_555
H8 C8 1_555 1_555
H9 C8 1_555 1_555
C9 O4 1_555 1_555
H10 C9 1_555 1_555
H11 C9 1_555 1_555
H12 C9 1_555 1_555
O5 C13 1_555 1_555
O6 H13 1_555 1_555
O7 C11 1_555 1_555
C10 C12 1_555 1_555
C11 C13 1_555 1_555
C12 H14 1_555 1_555
C13 C10 1_555 1_555
C14 C11 1_555 1_555
H15 C14 1_555 1_555
O8 C10 1_555 1_555
C15 O6 1_555 1_555
C16 O8 1_555 1_555
H16 C16 1_555 1_555
H17 C16 1_555 1_555
H18 C16 1_555 1_555
C17 O5 1_555 1_555
H19 C17 1_555 1_555
H20 C17 1_555 1_555
H21 C17 1_555 1_555
C18 O7 1_555 1_555
H22 C18 1_555 1_555
H23 C18 1_555 1_555
H24 C18 1_555 1_555
C1 C6 1_555 1_555
C5 C6 1_555 1_555
C12 C15 1_555 1_555
C14 C15 1_555 1_555

#END
