
#######################################################################
#
#                 Cambridge Crystallographic Data Centre
#                                CCDC 
#
#######################################################################
#
# If this CIF has been generated from an entry in the Cambridge 
# Structural Database, then it will include bibliographic, chemical, 
# crystal, experimental, refinement or atomic coordinate data resulting 
# from the CCDC's data processing and validation procedures.
#
#######################################################################

data_SEDMEV
_chemical_formula_moiety         'C4 H6 N8 S2,C10 H8 N2'
_chemical_name_systematic        
"3,3'-disulfanediylbis(1H-1,2,4-triazole-5-amine) 4,4'-bipyridine"
_symmetry_cell_setting           triclinic
_symmetry_space_group_name_H-M   'P -1'
_symmetry_Int_Tables_number      2
_space_group_name_Hall           '-P 1'
loop_
_symmetry_equiv_pos_site_id
_symmetry_equiv_pos_as_xyz
1 x,y,z
2 -x,-y,-z
_cell_length_a                   9.3240(10)
_cell_length_b                   9.4540(11)
_cell_length_c                   11.3840(13)
_cell_angle_alpha                109.560(2)
_cell_angle_beta                 104.0890(10)
_cell_angle_gamma                105.6270(10)
_cell_volume                     846.856
_exptl_crystal_colour            yellow
_exptl_crystal_description       block
_cell_formula_units_Z            2
loop_
_atom_site_label
_atom_site_type_symbol
_atom_site_fract_x
_atom_site_fract_y
_atom_site_fract_z
N1 N 0.6415(3) 0.6418(2) 0.1281(2)
N2 N 0.4984(3) 0.6630(3) 0.1020(2)
H1 H 0.4095 0.5917 0.0394
N3 N 0.6698(3) 0.8909(2) 0.2725(2)
N4 N 0.3976(3) 0.8634(3) 0.1817(2)
H2 H 0.3040 0.8023 0.1210
H3 H 0.4143 0.9587 0.2385
N5 N 0.8542(3) 0.3413(3) 0.1018(2)
N6 N 0.8400(3) 0.2361(3) 0.1625(2)
H4 H 0.7998 0.1318 0.1206
N7 N 0.9544(2) 0.4807(2) 0.3285(2)
N8 N 0.9016(3) 0.2543(3) 0.3827(2)
H5 H 0.8650 0.1503 0.3539
H6 H 0.9406 0.3155 0.4674
S1 S 0.94031(9) 0.82733(9) 0.31441(8)
S2 S 0.98658(9) 0.65858(9) 0.17888(8)
C1 C 0.5172(3) 0.8101(3) 0.1876(3)
C2 C 0.7366(3) 0.7806(3) 0.2306(3)
C3 C 0.8980(3) 0.3206(3) 0.2961(3)
C4 C 0.9235(3) 0.4833(3) 0.2058(3)
N9 N 0.2801(3) 0.0985(3) 0.0248(2)
N10 N 0.5992(3) 0.8714(3) 0.5836(2)
C5 C 0.4333(4) 0.1698(4) 0.1025(3)
H7 H 0.4996 0.1149 0.0828
C6 C 0.5013(3) 0.3195(3) 0.2107(3)
H8 H 0.6104 0.3626 0.2611
C7 C 0.4085(3) 0.4057(3) 0.2443(3)
C8 C 0.2490(4) 0.3329(3) 0.1624(3)
H9 H 0.1800 0.3855 0.1789
C9 C 0.1915(4) 0.1821(4) 0.0559(3)
H10 H 0.0832 0.1364 0.0027
C10 C 0.6900(4) 0.7885(3) 0.5540(3)
H11 H 0.7973 0.8336 0.6097
C11 C 0.6350(3) 0.6395(3) 0.4456(3)
H12 H 0.7049 0.5881 0.4293
C12 C 0.4754(3) 0.5667(3) 0.3612(3)
C13 C 0.3814(4) 0.6530(3) 0.3920(3)
H13 H 0.2735 0.6108 0.3388
C14 C 0.4475(4) 0.8020(4) 0.5018(3)
H14 H 0.3808 0.8573 0.5195
loop_
_geom_bond_atom_site_label_1
_geom_bond_atom_site_label_2
_geom_bond_site_symmetry_1
_geom_bond_site_symmetry_2
N1 N2 1_555 1_555
N2 H1 1_555 1_555
N3 C1 1_555 1_555
N4 H2 1_555 1_555
H3 N4 1_555 1_555
N5 N6 1_555 1_555
N6 H4 1_555 1_555
N7 C3 1_555 1_555
N8 H5 1_555 1_555
H6 N8 1_555 1_555
S1 S2 1_555 1_555
S2 C4 1_555 1_555
C1 N2 1_555 1_555
C2 N1 1_555 1_555
C3 N6 1_555 1_555
C4 N5 1_555 1_555
N9 C5 1_555 1_555
N10 C10 1_555 1_555
C5 H7 1_555 1_555
C6 C5 1_555 1_555
H8 C6 1_555 1_555
C7 C6 1_555 1_555
C8 C7 1_555 1_555
H9 C8 1_555 1_555
C9 N9 1_555 1_555
H10 C9 1_555 1_555
C10 H11 1_555 1_555
C11 C10 1_555 1_555
H12 C11 1_555 1_555
C12 C7 1_555 1_555
C13 C12 1_555 1_555
H13 C13 1_555 1_555
C14 N10 1_555 1_555
H14 C14 1_555 1_555
N3 C2 1_555 1_555
N4 C1 1_555 1_555
N7 C4 1_555 1_555
N8 C3 1_555 1_555
S1 C2 1_555 1_555
C8 C9 1_555 1_555
C11 C12 1_555 1_555
C13 C14 1_555 1_555

#END
