
#######################################################################
#
#                 Cambridge Crystallographic Data Centre
#                                CCDC 
#
#######################################################################
#
# If this CIF has been generated from an entry in the Cambridge 
# Structural Database, then it will include bibliographic, chemical, 
# crystal, experimental, refinement or atomic coordinate data resulting 
# from the CCDC's data processing and validation procedures.
#
#######################################################################

data_SEDNOG
_chemical_formula_moiety         'C19 H17 N5 O2'
_chemical_name_systematic        
N,N'-bis(2-Aminophenyl)pyridine-2,6-dicarboxamide
_symmetry_cell_setting           monoclinic
_symmetry_space_group_name_H-M   'P 21/c'
_symmetry_Int_Tables_number      14
_space_group_name_Hall           '-P 2ybc'
loop_
_symmetry_equiv_pos_site_id
_symmetry_equiv_pos_as_xyz
1 x,y,z
2 -x,1/2+y,1/2-z
3 -x,-y,-z
4 x,1/2-y,1/2+z
_cell_length_a                   16.115(2)
_cell_length_b                   13.3715(19)
_cell_length_c                   17.586(2)
_cell_angle_alpha                90
_cell_angle_beta                 116.788(4)
_cell_angle_gamma                90
_cell_volume                     3382.78
_cell_formula_units_Z            8
loop_
_atom_site_label
_atom_site_type_symbol
_atom_site_fract_x
_atom_site_fract_y
_atom_site_fract_z
C1 C 0.43545(15) 0.11296(17) 0.54685(15)
C2 C 0.44653(18) 0.0189(2) 0.58315(19)
H1 H 0.4828 0.0113 0.6415
C3 C 0.4043(2) -0.0633(2) 0.5336(3)
H2 H 0.4137 -0.1262 0.5587
C4 C 0.3485(2) -0.0539(2) 0.4473(2)
H3 H 0.3194 -0.1096 0.4145
C5 C 0.33638(17) 0.03970(19) 0.40990(17)
H4 H 0.2988 0.0469 0.3517
C6 C 0.38003(15) 0.12281(16) 0.45895(14)
C7 C 0.36342(16) 0.24476(18) 0.34651(14)
C8 C 0.36820(15) 0.35487(17) 0.33340(13)
C9 C 0.36515(18) 0.3913(2) 0.25836(15)
H5 H 0.3591 0.3480 0.2148
C10 C 0.37120(19) 0.4930(2) 0.24971(16)
H6 H 0.3686 0.5192 0.1997
C11 C 0.38101(17) 0.55534(19) 0.31499(14)
H7 H 0.3861 0.6241 0.3104
C12 C 0.38325(14) 0.51369(17) 0.38821(13)
C13 C 0.39121(14) 0.58002(16) 0.45987(13)
C14 C 0.35955(15) 0.57736(16) 0.58596(12)
C15 C 0.34498(19) 0.67862(18) 0.59079(15)
H8 H 0.3480 0.7219 0.5508
C16 C 0.3259(2) 0.7161(2) 0.65463(17)
H9 H 0.3167 0.7844 0.6578
C17 C 0.3205(2) 0.6525(2) 0.71292(16)
H10 H 0.3068 0.6774 0.7554
C18 C 0.33530(17) 0.5515(2) 0.70914(14)
H11 H 0.3318 0.5091 0.7495
C19 C 0.35532(15) 0.51195(16) 0.64623(13)
N1 N 0.47604(14) 0.19817(15) 0.59598(12)
H23 H 0.5089 0.1929 0.6502
H24 H 0.4681 0.2558 0.5719
N2 N 0.37155(13) 0.21948(13) 0.42353(11)
H25 H 0.3716 0.2683 0.4554
N3 N 0.37602(11) 0.41524(13) 0.39753(10)
N4 N 0.37137(12) 0.53453(13) 0.51801(10)
H26 H 0.3650 0.4706 0.5131
N5 N 0.36430(16) 0.40895(14) 0.63973(12)
H27 H 0.3574 0.3692 0.6749
H28 H 0.3767 0.3852 0.6005
O1 O 0.35461(15) 0.18466(14) 0.29077(11)
O2 O 0.41419(12) 0.66838(12) 0.46343(10)
C20 C 0.17326(16) 0.12119(17) 0.54610(14)
C21 C 0.1855(2) 0.0278(2) 0.51982(17)
H12 H 0.2159 0.0214 0.4860
C22 C 0.1536(2) -0.0550(2) 0.54274(19)
H13 H 0.1634 -0.1174 0.5249
C23 C 0.1070(2) -0.0491(2) 0.5919(2)
H14 H 0.0852 -0.1065 0.6069
C24 C 0.09334(19) 0.0449(2) 0.61835(16)
H15 H 0.0620 0.0509 0.6514
C25 C 0.12632(15) 0.12930(16) 0.59563(13)
C26 C 0.12533(15) 0.25678(18) 0.69715(14)
C27 C 0.11011(14) 0.36643(17) 0.70308(13)
C28 C 0.09796(16) 0.4040(2) 0.77077(14)
H16 H 0.1010 0.3620 0.8141
C29 C 0.08132(17) 0.5045(2) 0.77273(15)
H17 H 0.0737 0.5314 0.8179
C30 C 0.07603(16) 0.56495(18) 0.70755(14)
H18 H 0.0635 0.6329 0.7072
C31 C 0.08984(14) 0.52229(16) 0.64204(13)
C32 C 0.08088(15) 0.58507(16) 0.56789(14)
C33 C 0.12547(14) 0.58448(16) 0.44901(13)
C34 C 0.11760(18) 0.68596(18) 0.43216(15)
H19 H 0.1027 0.7292 0.4656
C35 C 0.1319(2) 0.7233(2) 0.36557(18)
H20 H 0.1274 0.7916 0.3547
C36 C 0.15291(19) 0.6593(2) 0.31541(17)
H21 H 0.1629 0.6846 0.2710
C37 C 0.15910(16) 0.5582(2) 0.33078(14)
H22 H 0.1724 0.5155 0.2960
C38 C 0.14576(14) 0.51860(16) 0.39759(13)
N6 N 0.20473(17) 0.20640(17) 0.52130(15)
H29 H 0.2321 0.2009 0.4893
H30 H 0.1968 0.2645 0.5380
N7 N 0.11410(14) 0.22680(14) 0.62021(11)
H31 H 0.0976 0.2721 0.5814
N8 N 0.10774(12) 0.42489(13) 0.63978(10)
N9 N 0.11737(12) 0.54398(13) 0.51970(10)
H32 H 0.1389 0.4844 0.5340
N10 N 0.15713(13) 0.41691(13) 0.41560(11)
H33 H 0.1726 0.3777 0.3853
H34 H 0.1487 0.3931 0.4570
O3 O 0.14646(13) 0.20083(13) 0.75870(10)
O4 O 0.04020(14) 0.66606(13) 0.55358(11)
loop_
_geom_bond_atom_site_label_1
_geom_bond_atom_site_label_2
_geom_bond_site_symmetry_1
_geom_bond_site_symmetry_2
C1 C2 1_555 1_555
C2 H1 1_555 1_555
C3 C2 1_555 1_555
H2 C3 1_555 1_555
C4 C3 1_555 1_555
H3 C4 1_555 1_555
C5 C4 1_555 1_555
H4 C5 1_555 1_555
C6 C1 1_555 1_555
C7 C8 1_555 1_555
C8 C9 1_555 1_555
C9 H5 1_555 1_555
C10 C9 1_555 1_555
H6 C10 1_555 1_555
C11 C10 1_555 1_555
H7 C11 1_555 1_555
C12 C11 1_555 1_555
C13 C12 1_555 1_555
C14 C15 1_555 1_555
C15 H8 1_555 1_555
C16 C15 1_555 1_555
H9 C16 1_555 1_555
C17 C16 1_555 1_555
H10 C17 1_555 1_555
C18 C17 1_555 1_555
H11 C18 1_555 1_555
C19 C14 1_555 1_555
C20 C21 1_555 1_555
C21 H12 1_555 1_555
C22 C21 1_555 1_555
H13 C22 1_555 1_555
C23 C22 1_555 1_555
H14 C23 1_555 1_555
C24 C23 1_555 1_555
H15 C24 1_555 1_555
C25 C20 1_555 1_555
C26 C27 1_555 1_555
C27 C28 1_555 1_555
C28 H16 1_555 1_555
C29 C28 1_555 1_555
H17 C29 1_555 1_555
C30 C29 1_555 1_555
H18 C30 1_555 1_555
C31 C30 1_555 1_555
C32 C31 1_555 1_555
C33 C34 1_555 1_555
C34 H19 1_555 1_555
C35 C34 1_555 1_555
H20 C35 1_555 1_555
C36 C35 1_555 1_555
H21 C36 1_555 1_555
C37 C36 1_555 1_555
H22 C37 1_555 1_555
C38 C33 1_555 1_555
N1 C1 1_555 1_555
H23 N1 1_555 1_555
H24 N1 1_555 1_555
N2 C6 1_555 1_555
H25 N2 1_555 1_555
N3 C8 1_555 1_555
N4 C13 1_555 1_555
H26 N4 1_555 1_555
N5 C19 1_555 1_555
H27 N5 1_555 1_555
H28 N5 1_555 1_555
N6 C20 1_555 1_555
H29 N6 1_555 1_555
H30 N6 1_555 1_555
N7 C25 1_555 1_555
H31 N7 1_555 1_555
N8 C27 1_555 1_555
N9 C32 1_555 1_555
H32 N9 1_555 1_555
N10 C38 1_555 1_555
H33 N10 1_555 1_555
H34 N10 1_555 1_555
O1 C7 1_555 1_555
O2 C13 1_555 1_555
O3 C26 1_555 1_555
O4 C32 1_555 1_555
C5 C6 1_555 1_555
C7 N2 1_555 1_555
C12 N3 1_555 1_555
C14 N4 1_555 1_555
C18 C19 1_555 1_555
C24 C25 1_555 1_555
C26 N7 1_555 1_555
C31 N8 1_555 1_555
C33 N9 1_555 1_555
C37 C38 1_555 1_555

#END
