
#######################################################################
#
#                 Cambridge Crystallographic Data Centre
#                                CCDC 
#
#######################################################################
#
# If this CIF has been generated from an entry in the Cambridge 
# Structural Database, then it will include bibliographic, chemical, 
# crystal, experimental, refinement or atomic coordinate data resulting 
# from the CCDC's data processing and validation procedures.
#
#######################################################################

data_SEDROK
_chemical_formula_moiety         'C12 H9 Br1 O4'
_chemical_name_systematic        '4-(Bromomethyl)-2-oxo-2H-chromen-7-yl acetate'
_symmetry_cell_setting           triclinic
_symmetry_space_group_name_H-M   'P -1'
_symmetry_Int_Tables_number      2
_space_group_name_Hall           '-P 1'
loop_
_symmetry_equiv_pos_site_id
_symmetry_equiv_pos_as_xyz
1 x,y,z
2 -x,-y,-z
_cell_length_a                   7.6540(15)
_cell_length_b                   7.6880(15)
_cell_length_c                   10.654(2)
_cell_angle_alpha                101.49(3)
_cell_angle_beta                 98.32(3)
_cell_angle_gamma                103.68(3)
_cell_volume                     584.694
_cell_formula_units_Z            2
loop_
_atom_site_label
_atom_site_type_symbol
_atom_site_fract_x
_atom_site_fract_y
_atom_site_fract_z
Br1 Br 0.31307(11) 0.79665(11) 0.85947(7)
O1 O 0.2651(13) 0.5864(9) 0.0803(6)
O2 O 0.2433(8) 0.3950(6) 0.2056(5)
O3 O 0.7448(6) 0.8067(6) 0.5193(4)
O4 O 0.9879(6) 0.9848(8) 0.6634(5)
C1 C 0.1588(13) 0.2645(12) -0.0185(9)
H1 H 0.1520 0.2989 -0.1005
H2 H 0.0386 0.1990 -0.0114
H3 H 0.2396 0.1866 -0.0140
C2 C 0.2301(12) 0.4325(11) 0.0901(8)
C3 C 0.3095(10) 0.5388(8) 0.3180(6)
C4 C 0.4913(10) 0.6073(9) 0.3602(6)
H4 H 0.5718 0.5686 0.3107
C5 C 0.5576(9) 0.7375(9) 0.4796(6)
C6 C 0.4401(8) 0.7977(8) 0.5560(6)
C7 C 0.2506(8) 0.7190(8) 0.5068(6)
H5 H 0.1673 0.7529 0.5556
C8 C 0.1868(9) 0.5934(9) 0.3882(7)
H6 H 0.0613 0.5456 0.3556
C9 C 0.8203(8) 0.9294(10) 0.6347(7)
C10 C 0.6970(8) 0.9866(9) 0.7151(6)
H7 H 0.7469 1.0691 0.7961
C11 C 0.5197(8) 0.9274(9) 0.6785(6)
C12 C 0.3978(8) 0.9871(9) 0.7677(6)
H8 H 0.2930 1.0090 0.7168
H9 H 0.4653 1.1014 0.8308
loop_
_geom_bond_atom_site_label_1
_geom_bond_atom_site_label_2
_geom_bond_site_symmetry_1
_geom_bond_site_symmetry_2
Br1 C12 1_555 1_555
O1 C2 1_555 1_555
O2 C2 1_555 1_555
O3 C5 1_555 1_555
O4 C9 1_555 1_555
C1 H1 1_555 1_555
H2 C1 1_555 1_555
H3 C1 1_555 1_555
C2 C1 1_555 1_555
C3 O2 1_555 1_555
C4 C3 1_555 1_555
H4 C4 1_555 1_555
C5 C4 1_555 1_555
C6 C5 1_555 1_555
C7 C6 1_555 1_555
H5 C7 1_555 1_555
C8 C3 1_555 1_555
H6 C8 1_555 1_555
C9 O3 1_555 1_555
C10 C9 1_555 1_555
H7 C10 1_555 1_555
C11 C6 1_555 1_555
C12 C11 1_555 1_555
H8 C12 1_555 1_555
H9 C12 1_555 1_555
C7 C8 1_555 1_555
C10 C11 1_555 1_555

#END
