
#######################################################################
#
#                 Cambridge Crystallographic Data Centre
#                                CCDC 
#
#######################################################################
#
# If this CIF has been generated from an entry in the Cambridge 
# Structural Database, then it will include bibliographic, chemical, 
# crystal, experimental, refinement or atomic coordinate data resulting 
# from the CCDC's data processing and validation procedures.
#
#######################################################################

data_SEDTAZ
_chemical_formula_moiety         'C12 H10 N2 O2'
_chemical_name_systematic        
'methyl 1,8-dihydropyrrolo[2,3-b]indole-2-carboxylate'
_symmetry_cell_setting           orthorhombic
_symmetry_space_group_name_H-M   'P 21 21 21'
_symmetry_Int_Tables_number      19
_space_group_name_Hall           'P 2ac 2ab'
loop_
_symmetry_equiv_pos_site_id
_symmetry_equiv_pos_as_xyz
1 x,y,z
2 1/2-x,-y,1/2+z
3 -x,1/2+y,1/2-z
4 1/2+x,1/2-y,-z
_cell_length_a                   6.1639(18)
_cell_length_b                   7.449(3)
_cell_length_c                   21.411(6)
_cell_angle_alpha                90
_cell_angle_beta                 90
_cell_angle_gamma                90
_cell_volume                     983.084
_exptl_crystal_colour            colorless
_exptl_crystal_description       Prism
_cell_formula_units_Z            4
loop_
_atom_site_label
_atom_site_type_symbol
_atom_site_fract_x
_atom_site_fract_y
_atom_site_fract_z
O1 O 0.5917(2) 0.87556(16) -0.00313(5)
O2 O 0.8322(2) 1.02597(17) 0.05739(6)
N1 N 0.0582(2) 0.79101(18) 0.19308(7)
H1 H -0.053(2) 0.722(2) 0.1803(8)
N2 N 0.3186(2) 0.83303(18) 0.10401(6)
H2 H 0.259(3) 0.783(2) 0.0697(6)
C1 C 0.0832(3) 0.8413(2) 0.25523(7)
C2 C -0.0614(3) 0.8181(2) 0.30451(8)
H3 H -0.1974 0.7606 0.2985
C3 C 0.0001(3) 0.8818(2) 0.36235(8)
H4 H -0.0963 0.8690 0.3967
C4 C 0.2004(3) 0.9645(2) 0.37164(8)
H5 H 0.2379 1.0061 0.4122
C5 C 0.3452(3) 0.9873(2) 0.32310(7)
H6 H 0.4815 1.0433 0.3302
C6 C 0.2890(3) 0.9267(2) 0.26340(7)
C7 C 0.3894(2) 0.9271(2) 0.20232(7)
C8 C 0.2435(2) 0.8412(2) 0.16283(8)
C9 C 0.5665(3) 0.9799(2) 0.16469(7)
H7 H 0.6916 1.0439 0.1779
C10 C 0.5224(3) 0.9200(2) 0.10467(7)
C11 C 0.6463(3) 0.9355(2) 0.04743(7)
C12 C 0.9643(3) 1.0600(2) 0.00372(8)
H8 H 0.9909 0.9471 -0.0185
H9 H 1.1029 1.1119 0.0170
H10 H 0.8895 1.1442 -0.0241
loop_
_geom_bond_atom_site_label_1
_geom_bond_atom_site_label_2
_geom_bond_site_symmetry_1
_geom_bond_site_symmetry_2
O1 C11 1_555 1_555
O2 C11 1_555 1_555
N1 H1 1_555 1_555
N2 H2 1_555 1_555
C1 N1 1_555 1_555
C2 C1 1_555 1_555
H3 C2 1_555 1_555
C3 C2 1_555 1_555
H4 C3 1_555 1_555
C4 C3 1_555 1_555
H5 C4 1_555 1_555
C5 C4 1_555 1_555
H6 C5 1_555 1_555
C6 C1 1_555 1_555
C7 C6 1_555 1_555
C8 N1 1_555 1_555
C9 C7 1_555 1_555
H7 C9 1_555 1_555
C10 N2 1_555 1_555
C11 C10 1_555 1_555
C12 O2 1_555 1_555
H8 C12 1_555 1_555
H9 C12 1_555 1_555
H10 C12 1_555 1_555
N2 C8 1_555 1_555
C5 C6 1_555 1_555
C7 C8 1_555 1_555
C9 C10 1_555 1_555

#END
