
#######################################################################
#
#                 Cambridge Crystallographic Data Centre
#                                CCDC 
#
#######################################################################
#
# If this CIF has been generated from an entry in the Cambridge 
# Structural Database, then it will include bibliographic, chemical, 
# crystal, experimental, refinement or atomic coordinate data resulting 
# from the CCDC's data processing and validation procedures.
#
#######################################################################

data_SEDVII
_chemical_formula_moiety         'C28 H35 N3 O3,H2 O1'
_chemical_name_systematic        
"(E)-N'-(2-Hydroxy-3,5-dimethylbenzaldehyde)-4-(quinolin-8-yloxy) butanehydrazide monohydrate"
_symmetry_cell_setting           monoclinic
_symmetry_space_group_name_H-M   'P 21/c'
_symmetry_Int_Tables_number      14
_space_group_name_Hall           '-P 2ybc'
loop_
_symmetry_equiv_pos_site_id
_symmetry_equiv_pos_as_xyz
1 x,y,z
2 -x,1/2+y,1/2-z
3 -x,-y,-z
4 x,1/2-y,1/2+z
_cell_length_a                   25.203(7)
_cell_length_b                   11.292(3)
_cell_length_c                   9.768(3)
_cell_angle_alpha                90
_cell_angle_beta                 100.010(7)
_cell_angle_gamma                90
_cell_volume                     2737.58
_exptl_crystal_colour            colorless
_exptl_crystal_description       block
_cell_formula_units_Z            4
loop_
_atom_site_label
_atom_site_type_symbol
_atom_site_fract_x
_atom_site_fract_y
_atom_site_fract_z
O1 O -0.05021(10) 0.3670(3) 0.5202(3)
O2 O 0.14032(10) 0.2014(3) 0.5382(3)
O3 O 0.27137(10) 0.0386(2) 0.4941(3)
H1 H 0.2469 0.0873 0.4805
N1 N -0.10842(16) 0.4013(3) 0.7187(5)
N2 N 0.16181(11) 0.2553(3) 0.3328(3)
H4 H 0.1531 0.2943 0.2566
N3 N 0.21103(11) 0.2010(3) 0.3641(3)
C1 C -0.1438(4) 0.4220(11) 0.8003(12)
H5 H -0.1291 0.4279 0.8943
C2 C -0.1984(3) 0.4364(12) 0.7699(12)
H6 H -0.2184 0.4429 0.8411
C3 C -0.2233(3) 0.4411(9) 0.6343(13)
H7 H -0.2602 0.4548 0.6106
C4 C -0.1914(3) 0.4244(11) 0.5321(10)
C5 C -0.2151(3) 0.4238(9) 0.3927(12)
H8 H -0.2521 0.4333 0.3654
C6 C -0.1818(3) 0.4087(11) 0.2970(9)
H9 H -0.1956 0.4130 0.2024
C7 C -0.1276(3) 0.3872(11) 0.3417(7)
H10 H -0.1061 0.3704 0.2758
C8 C -0.10438(15) 0.3895(4) 0.4776(5)
C9 C -0.13505(15) 0.4052(4) 0.5823(5)
C10 C -0.01871(15) 0.3493(4) 0.4127(4)
H11 H -0.0182 0.4214 0.3589
H12 H -0.0344 0.2867 0.3506
C11 C 0.03750(14) 0.3164(4) 0.4794(4)
H13 H 0.0365 0.2465 0.5366
H14 H 0.0534 0.3805 0.5390
C12 C 0.07147(14) 0.2923(4) 0.3696(4)
H15 H 0.0529 0.2350 0.3043
H16 H 0.0747 0.3650 0.3188
C13 C 0.12679(13) 0.2466(3) 0.4244(4)
C14 C 0.24423(13) 0.2124(3) 0.2797(4)
H17 H 0.2362 0.2638 0.2046
C15 C 0.29452(13) 0.1458(3) 0.2999(3)
C16 C 0.30571(13) 0.0573(3) 0.4016(3)
C17 C 0.35183(13) -0.0143(3) 0.4103(3)
C18 C 0.38634(13) 0.0115(3) 0.3173(3)
H18 H 0.4173 -0.0342 0.3221
C19 C 0.37779(13) 0.1010(3) 0.2178(3)
C20 C 0.33120(13) 0.1659(3) 0.2097(4)
H19 H 0.3238 0.2249 0.1425
C21 C 0.36331(15) -0.1167(3) 0.5148(4)
C22 C 0.41577(18) -0.1819(4) 0.5016(5)
H20 H 0.4121 -0.2183 0.4116
H21 H 0.4229 -0.2418 0.5722
H22 H 0.4451 -0.1264 0.5127
C23 C 0.31748(19) -0.2081(4) 0.4870(6)
H23 H 0.2843 -0.1715 0.4996
H24 H 0.3254 -0.2731 0.5506
H25 H 0.3141 -0.2367 0.3933
C24 C 0.36914(19) -0.0691(4) 0.6624(4)
H26 H 0.3986 -0.0140 0.6790
H27 H 0.3761 -0.1335 0.7272
H28 H 0.3365 -0.0298 0.6742
C25 C 0.41832(14) 0.1247(3) 0.1205(4)
C26 C 0.47104(19) 0.0599(6) 0.1635(6)
H29 H 0.4891 0.0901 0.2512
H30 H 0.4934 0.0717 0.0945
H31 H 0.4641 -0.0231 0.1720
C27 C 0.3932(2) 0.0816(6) -0.0250(5)
H32 H 0.4170 0.0996 -0.0891
H33 H 0.3593 0.1206 -0.0543
H34 H 0.3876 -0.0025 -0.0230
C28 C 0.4297(2) 0.2561(5) 0.1145(7)
H35 H 0.4523 0.2803 0.1992
H36 H 0.3963 0.2991 0.1031
H37 H 0.4475 0.2722 0.0373
O4 O 1.0011(4) 0.4727(10) 0.8817(12)
H2 H 0.9946 0.4270 0.8116
H3 H 0.9772 0.4585 0.9312
C29? C -0.1256(6) 0.4040(18) 0.847(2)
C30? C -0.1810(6) 0.4236(17) 0.8352(16)
C31? C -0.2097(5) 0.438(2) 0.7035(18)
C32? C -0.1878(4) 0.4229(19) 0.5875(15)
C33? C -0.2126(5) 0.4400(19) 0.4542(18)
C34? C -0.1894(4) 0.4266(18) 0.3420(14)
C35? C -0.1346(5) 0.413(2) 0.3460(8)
H38? H -0.1026 0.3939 0.9316
H39? H -0.1976 0.4269 0.9130
H40? H -0.2459 0.4583 0.6934
H41? H -0.2486 0.4629 0.4396
H42? H -0.2116 0.4263 0.2554
H43? H -0.1189 0.4193 0.2669
loop_
_geom_bond_atom_site_label_1
_geom_bond_atom_site_label_2
_geom_bond_site_symmetry_1
_geom_bond_site_symmetry_2
O1 C8 1_555 1_555
O2 C13 1_555 1_555
O3 H1 1_555 1_555
O4 H2 1_555 1_555
H3 O4 1_555 1_555
N1 C1 1_555 1_555
N2 H4 1_555 1_555
N3 N2 1_555 1_555
C1 H5 1_555 1_555
C2 C1 1_555 1_555
H6 C2 1_555 1_555
C3 C2 1_555 1_555
H7 C3 1_555 1_555
C4 C3 1_555 1_555
C5 C4 1_555 1_555
H8 C5 1_555 1_555
C6 C5 1_555 1_555
H9 C6 1_555 1_555
C7 C6 1_555 1_555
H10 C7 1_555 1_555
C8 C7 1_555 1_555
C9 N1 1_555 1_555
C10 O1 1_555 1_555
H11 C10 1_555 1_555
H12 C10 1_555 1_555
C11 C10 1_555 1_555
H13 C11 1_555 1_555
H14 C11 1_555 1_555
C12 C11 1_555 1_555
H15 C12 1_555 1_555
H16 C12 1_555 1_555
C13 N2 1_555 1_555
C14 N3 1_555 1_555
H17 C14 1_555 1_555
C15 C14 1_555 1_555
C16 O3 1_555 1_555
C17 C16 1_555 1_555
C18 C17 1_555 1_555
H18 C18 1_555 1_555
C19 C18 1_555 1_555
C20 C15 1_555 1_555
H19 C20 1_555 1_555
C21 C17 1_555 1_555
C22 C21 1_555 1_555
H20 C22 1_555 1_555
H21 C22 1_555 1_555
H22 C22 1_555 1_555
C23 C21 1_555 1_555
H23 C23 1_555 1_555
H24 C23 1_555 1_555
H25 C23 1_555 1_555
C24 C21 1_555 1_555
H26 C24 1_555 1_555
H27 C24 1_555 1_555
H28 C24 1_555 1_555
C25 C19 1_555 1_555
C26 C25 1_555 1_555
H29 C26 1_555 1_555
H30 C26 1_555 1_555
H31 C26 1_555 1_555
C27 C25 1_555 1_555
H32 C27 1_555 1_555
H33 C27 1_555 1_555
H34 C27 1_555 1_555
C28 C25 1_555 1_555
H35 C28 1_555 1_555
H36 C28 1_555 1_555
H37 C28 1_555 1_555
C4 C9 1_555 1_555
C8 C9 1_555 1_555
C12 C13 1_555 1_555
C15 C16 1_555 1_555
C19 C20 1_555 1_555

#END
