
#######################################################################
#
#                 Cambridge Crystallographic Data Centre
#                                CCDC 
#
#######################################################################
#
# If this CIF has been generated from an entry in the Cambridge 
# Structural Database, then it will include bibliographic, chemical, 
# crystal, experimental, refinement or atomic coordinate data resulting 
# from the CCDC's data processing and validation procedures.
#
#######################################################################

data_SEDWII
_chemical_formula_moiety         'C24 H34 B2 N2 O6'
_chemical_name_systematic        
4,4'-dimethoxy-5,5'-bis(4,4,5,5-tetramethyl[1,3,2]dioxaborolan-2-yl)-2,2'-bipyridine
_symmetry_cell_setting           monoclinic
_symmetry_space_group_name_H-M   'P 21/n'
_symmetry_Int_Tables_number      14
_space_group_name_Hall           '-P 2yn'
loop_
_symmetry_equiv_pos_site_id
_symmetry_equiv_pos_as_xyz
1 x,y,z
2 1/2-x,1/2+y,1/2-z
3 -x,-y,-z
4 1/2+x,1/2-y,1/2+z
_cell_length_a                   9.3567(6)
_cell_length_b                   22.0270(13)
_cell_length_c                   12.2764(8)
_cell_angle_alpha                90
_cell_angle_beta                 98.213(3)
_cell_angle_gamma                90
_cell_volume                     2504.22
_exptl_crystal_colour            colorless
_exptl_crystal_description       prism
_cell_formula_units_Z            4
_exptl_crystal_recrystallization_method dichloromethane
loop_
_atom_site_label
_atom_site_type_symbol
_atom_site_fract_x
_atom_site_fract_y
_atom_site_fract_z
O1 O 0.8145(2) -0.11247(8) 0.78259(14)
O2 O 0.7952(2) -0.04502(7) 0.91952(13)
O3 O 0.62733(18) 0.22464(7) 0.06594(12)
O4 O 0.5740(2) 0.29106(7) 0.19677(13)
O5 O 0.66694(18) 0.06794(7) 0.83540(11)
O6 O 0.62175(18) 0.09927(7) 0.13761(11)
N1 N 0.6902(2) 0.00652(8) 0.51833(14)
N2 N 0.5960(2) 0.16197(8) 0.45317(14)
B1 B 0.7763(3) -0.05547(11) 0.8101(2)
B2 B 0.5975(3) 0.23179(11) 0.1700(2)
C1 C 0.6498(2) 0.06362(9) 0.53527(15)
C2 C 0.6390(2) 0.08719(9) 0.63911(16)
H1 H 0.6083 0.1278 0.6474
C3 C 0.6742(2) 0.04979(9) 0.73043(16)
C4 C 0.7208(2) -0.00960(9) 0.71665(16)
C5 C 0.7237(3) -0.02775(10) 0.60842(17)
H2 H 0.7522 -0.0684 0.5974
C6 C 0.6228(2) 0.10309(9) 0.43582(15)
C7 C 0.6308(2) 0.07909(9) 0.33225(16)
H3 H 0.6462 0.0369 0.3232
C8 C 0.6161(2) 0.11798(9) 0.24201(15)
C9 C 0.5952(2) 0.18021(9) 0.25760(16)
C10 C 0.5837(2) 0.19800(9) 0.36459(17)
H4 H 0.5653 0.2398 0.3759
C11 C 0.8400(3) -0.10241(10) 0.97596(18)
C12 C 0.8902(3) -0.14128(11) 0.88118(19)
C13 C 0.9569(3) -0.08757(14) 1.0703(2)
H5 H 0.9154 -0.0640 1.1259
H6 H 1.0328 -0.0638 1.0429
H7 H 0.9982 -0.1253 1.1033
C14 C 0.7069(3) -0.12700(13) 1.0164(2)
H8 H 0.6694 -0.0968 1.0636
H9 H 0.7314 -0.1643 1.0586
H10 H 0.6332 -0.1360 0.9534
C15 C 1.0501(4) -0.13268(18) 0.8723(3)
H11 H 1.0705 -0.1491 0.8020
H12 H 1.1087 -0.1541 0.9330
H13 H 1.0737 -0.0893 0.8763
C16 C 0.8499(4) -0.20710(12) 0.8783(2)
H14 H 0.8862 -0.2268 0.8161
H15 H 0.7446 -0.2110 0.8698
H16 H 0.8926 -0.2266 0.9471
C17 C 0.6182(3) 0.32908(10) 0.11040(18)
C18 C 0.6113(3) 0.28409(10) 0.01124(18)
C19 C 0.7704(3) 0.34956(13) 0.1520(2)
H17 H 0.7717 0.3712 0.2219
H18 H 0.8044 0.3767 0.0978
H19 H 0.8340 0.3141 0.1633
C20 C 0.5179(3) 0.38308(12) 0.0912(2)
H20 H 0.5325 0.4097 0.1558
H21 H 0.4176 0.3689 0.0791
H22 H 0.5386 0.4056 0.0264
C21 C 0.7311(3) 0.29041(12) -0.0583(2)
H23 H 0.7247 0.2573 -0.1120
H24 H 0.8247 0.2887 -0.0109
H25 H 0.7217 0.3294 -0.0971
C22 C 0.4654(3) 0.28259(13) -0.0612(2)
H26 H 0.4619 0.2480 -0.1117
H27 H 0.4513 0.3204 -0.1036
H28 H 0.3888 0.2784 -0.0149
C23 C 0.6381(3) 0.13065(10) 0.85305(18)
H29 H 0.6421 0.1382 0.9321
H30 H 0.5418 0.1410 0.8152
H31 H 0.7105 0.1557 0.8240
C24 C 0.6375(3) 0.03550(10) 0.11919(18)
H32 H 0.6363 0.0280 0.0404
H33 H 0.5576 0.0135 0.1449
H34 H 0.7293 0.0214 0.1597
loop_
_geom_bond_atom_site_label_1
_geom_bond_atom_site_label_2
_geom_bond_site_symmetry_1
_geom_bond_site_symmetry_2
O1 B1 1_555 1_555
O2 B1 1_555 1_555
O3 B2 1_555 1_555
O4 B2 1_555 1_555
O5 C3 1_555 1_555
O6 C8 1_555 1_555
N1 C1 1_555 1_555
N2 C6 1_555 1_555
B1 C4 1_555 1_555
B2 C9 1_555 1_555
C1 C2 1_555 1_555
C2 H1 1_555 1_555
C3 C2 1_555 1_555
C4 C3 1_555 1_555
C5 N1 1_555 1_555
H2 C5 1_555 1_555
C6 C1 1_555 1_555
C7 C6 1_555 1_555
H3 C7 1_555 1_555
C8 C7 1_555 1_555
C9 C8 1_555 1_555
C10 N2 1_555 1_555
H4 C10 1_555 1_555
C11 O2 1_555 1_555
C12 O1 1_555 1_555
C13 C11 1_555 1_555
H5 C13 1_555 1_555
H6 C13 1_555 1_555
H7 C13 1_555 1_555
C14 C11 1_555 1_555
H8 C14 1_555 1_555
H9 C14 1_555 1_555
H10 C14 1_555 1_555
C15 C12 1_555 1_555
H11 C15 1_555 1_555
H12 C15 1_555 1_555
H13 C15 1_555 1_555
C16 C12 1_555 1_555
H14 C16 1_555 1_555
H15 C16 1_555 1_555
H16 C16 1_555 1_555
C17 O4 1_555 1_555
C18 O3 1_555 1_555
C19 C17 1_555 1_555
H17 C19 1_555 1_555
H18 C19 1_555 1_555
H19 C19 1_555 1_555
C20 C17 1_555 1_555
H20 C20 1_555 1_555
H21 C20 1_555 1_555
H22 C20 1_555 1_555
C21 C18 1_555 1_555
H23 C21 1_555 1_555
H24 C21 1_555 1_555
H25 C21 1_555 1_555
C22 C18 1_555 1_555
H26 C22 1_555 1_555
H27 C22 1_555 1_555
H28 C22 1_555 1_555
C23 O5 1_555 1_555
H29 C23 1_555 1_555
H30 C23 1_555 1_555
H31 C23 1_555 1_555
C24 O6 1_555 1_555
H32 C24 1_555 1_555
H33 C24 1_555 1_555
H34 C24 1_555 1_555
C4 C5 1_555 1_555
C9 C10 1_555 1_555
C11 C12 1_555 1_555
C17 C18 1_555 1_555

#END
