
#######################################################################
#
#                 Cambridge Crystallographic Data Centre
#                                CCDC 
#
#######################################################################
#
# If this CIF has been generated from an entry in the Cambridge 
# Structural Database, then it will include bibliographic, chemical, 
# crystal, experimental, refinement or atomic coordinate data resulting 
# from the CCDC's data processing and validation procedures.
#
#######################################################################

data_SEDZOT
_chemical_formula_moiety         'C32 H35 Br1 F6 N4 O2'
_chemical_name_systematic        
't-butyl (2S,4S,6R)-2-benzyl-4-((3,5-bis(trifluoromethyl)benzyl) (5-bromopyrimidin-2-yl)amino)-6-ethylpiperidine-1-carboxylate'
_symmetry_cell_setting           tetragonal
_symmetry_space_group_name_H-M   'P 43 21 2'
_symmetry_Int_Tables_number      96
_space_group_name_Hall           'P 4nw 2abw'
loop_
_symmetry_equiv_pos_site_id
_symmetry_equiv_pos_as_xyz
1 x,y,z
2 -x,-y,1/2+z
3 1/2-y,1/2+x,3/4+z
4 1/2+y,1/2-x,1/4+z
5 1/2-x,1/2+y,3/4-z
6 1/2+x,1/2-y,1/4-z
7 y,x,-z
8 -y,-x,1/2-z
_cell_length_a                   10.6500(10)
_cell_length_b                   10.6500(10)
_cell_length_c                   56.907(8)
_cell_angle_alpha                90
_cell_angle_beta                 90
_cell_angle_gamma                90
_cell_volume                     6454.53
_exptl_crystal_colour            colorless
_exptl_crystal_description       plate
_cell_formula_units_Z            8
loop_
_atom_site_label
_atom_site_type_symbol
_atom_site_fract_x
_atom_site_fract_y
_atom_site_fract_z
C1 C 0.4383(2) 0.5143(2) 0.06055(5)
H1 H 0.3898 0.5810 0.0669
C2 C 0.4082(3) 0.4663(3) 0.03856(5)
H2 H 0.3401 0.5008 0.0299
C3 C 0.4779(3) 0.3679(3) 0.02919(4)
H3 H 0.4566 0.3341 0.0143
C4 C 0.5784(2) 0.3194(2) 0.04163(4)
H4 H 0.6267 0.2528 0.0352
C5 C 0.6087(2) 0.3678(2) 0.06354(4)
H5 H 0.6778 0.3342 0.0720
C6 C 0.5383(2) 0.4661(2) 0.07334(4)
C7 C 0.5765(2) 0.5204(2) 0.09690(4)
H6 H 0.5959 0.4512 0.1079
H7 H 0.5058 0.5694 0.1035
C8 C 0.6927(2) 0.6062(2) 0.09431(4)
H8 H 0.7553 0.5608 0.0843
C9 C 0.6578(2) 0.7277(2) 0.08155(4)
H9 H 0.5778 0.7609 0.0879
H10 H 0.6462 0.7107 0.0646
C10 C 0.7626(2) 0.8245(2) 0.08501(4)
H11 H 0.8445 0.7828 0.0814
C11 C 0.7644(2) 0.8656(2) 0.11095(4)
H12 H 0.7021 0.9336 0.1132
H13 H 0.8483 0.9004 0.1147
C12 C 0.7350(2) 0.7580(2) 0.12840(4)
H14 H 0.7975 0.7643 0.1415
N1 N 0.75356(18) 0.63405(17) 0.11718(3)
C13 C 0.8183(2) 0.5453(2) 0.12913(4)
O1 O 0.86502(17) 0.56093(15) 0.14858(3)
O2 O 0.82451(15) 0.43681(15) 0.11676(3)
C14 C 0.8804(2) 0.3232(2) 0.12717(4)
C15 C 1.0202(2) 0.3411(2) 0.13098(5)
H15 H 1.0603 0.3630 0.1160
H16 H 1.0567 0.2630 0.1370
H17 H 1.0339 0.4088 0.1424
C16 C 0.8136(2) 0.2880(2) 0.14993(4)
H18 H 0.8388 0.3461 0.1624
H19 H 0.8364 0.2021 0.1544
H20 H 0.7226 0.2933 0.1476
C17 C 0.8593(2) 0.2244(2) 0.10817(4)
H21 H 0.7690 0.2130 0.1057
H22 H 0.8967 0.1446 0.1132
H23 H 0.8987 0.2520 0.0935
C18 C 0.6038(2) 0.7686(2) 0.13958(4)
H24 H 0.5407 0.7835 0.1271
H25 H 0.5826 0.6885 0.1475
C19 C 0.5981(3) 0.8759(2) 0.15753(4)
H26 H 0.6522 0.8558 0.1710
H27 H 0.5114 0.8865 0.1630
H28 H 0.6271 0.9538 0.1502
N2 N 0.74858(18) 0.93288(18) 0.06918(3)
C20 C 0.6226(2) 0.9823(2) 0.06441(4)
H29 H 0.6279 1.0749 0.0632
H30 H 0.5679 0.9625 0.0780
C21 C 0.5612(2) 0.9323(2) 0.04240(4)
C22 C 0.6271(2) 0.9258(2) 0.02112(4)
H31 H 0.7118 0.9534 0.0203
C23 C 0.5681(2) 0.8791(3) 0.00120(4)
C24 C 0.4447(2) 0.8366(2) 0.00200(4)
H32 H 0.4062 0.8023 -0.0116
C25 C 0.3788(2) 0.8449(2) 0.02292(4)
C26 C 0.4365(2) 0.8925(2) 0.04309(4)
H33 H 0.3905 0.8978 0.0574
C27 C 0.2440(3) 0.8057(2) 0.02346(4)
F1 F 0.20569(16) 0.77458(19) 0.04498(3)
F2 F 0.22100(16) 0.70708(17) 0.00960(3)
F3 F 0.16717(15) 0.89692(18) 0.01622(3)
C28 C 0.6388(4) 0.8620(5) -0.02152(6)
F4 F 0.6506(3) 0.7415(4) -0.02748(7)
F5 F 0.5792(3) 0.9154(6) -0.03933(4)
F6 F 0.7536(3) 0.9105(6) -0.02071(9)
C29 C 0.8518(2) 1.0005(2) 0.06308(4)
N3 N 0.96290(19) 0.96263(19) 0.07176(3)
C30 C 1.0635(2) 1.0271(2) 0.06488(4)
H34 H 1.1438 1.0020 0.0704
C31 C 1.0553(3) 1.1293(3) 0.04993(4)
C32 C 0.9360(3) 1.1632(3) 0.04246(4)
H35 H 0.9272 1.2341 0.0325
N4 N 0.8335(2) 1.1002(2) 0.04871(3)
Br1 Br 1.19846(3) 1.21874(3) 0.040051(5)
C33? C 0.6349(10) 0.8916(9) -0.02207(13)
F7? F 0.6137(11) 0.7874(9) -0.03441(18)
F8? F 0.5925(9) 0.9839(9) -0.03572(19)
F9? F 0.7592(12) 0.9051(16) -0.0209(4)
loop_
_geom_bond_atom_site_label_1
_geom_bond_atom_site_label_2
_geom_bond_site_symmetry_1
_geom_bond_site_symmetry_2
C1 H1 1_555 1_555
C2 C1 1_555 1_555
H2 C2 1_555 1_555
C3 C2 1_555 1_555
H3 C3 1_555 1_555
C4 C3 1_555 1_555
H4 C4 1_555 1_555
C5 C4 1_555 1_555
H5 C5 1_555 1_555
C6 C1 1_555 1_555
C7 C6 1_555 1_555
H6 C7 1_555 1_555
H7 C7 1_555 1_555
C8 C7 1_555 1_555
H8 C8 1_555 1_555
C9 C8 1_555 1_555
H9 C9 1_555 1_555
H10 C9 1_555 1_555
C10 C9 1_555 1_555
H11 C10 1_555 1_555
C11 C10 1_555 1_555
H12 C11 1_555 1_555
H13 C11 1_555 1_555
C12 C11 1_555 1_555
H14 C12 1_555 1_555
N1 C8 1_555 1_555
C13 N1 1_555 1_555
O1 C13 1_555 1_555
O2 C13 1_555 1_555
C14 O2 1_555 1_555
C15 C14 1_555 1_555
H15 C15 1_555 1_555
H16 C15 1_555 1_555
H17 C15 1_555 1_555
C16 C14 1_555 1_555
H18 C16 1_555 1_555
H19 C16 1_555 1_555
H20 C16 1_555 1_555
C17 C14 1_555 1_555
H21 C17 1_555 1_555
H22 C17 1_555 1_555
H23 C17 1_555 1_555
C18 C12 1_555 1_555
H24 C18 1_555 1_555
H25 C18 1_555 1_555
C19 C18 1_555 1_555
H26 C19 1_555 1_555
H27 C19 1_555 1_555
H28 C19 1_555 1_555
N2 C10 1_555 1_555
C20 N2 1_555 1_555
H29 C20 1_555 1_555
H30 C20 1_555 1_555
C21 C20 1_555 1_555
C22 C21 1_555 1_555
H31 C22 1_555 1_555
C23 C22 1_555 1_555
C24 C23 1_555 1_555
H32 C24 1_555 1_555
C25 C24 1_555 1_555
C26 C21 1_555 1_555
H33 C26 1_555 1_555
C27 C25 1_555 1_555
F1 C27 1_555 1_555
F2 C27 1_555 1_555
F3 C27 1_555 1_555
C28 C23 1_555 1_555
F4 C28 1_555 1_555
F5 C28 1_555 1_555
F6 C28 1_555 1_555
C29 N2 1_555 1_555
N3 C29 1_555 1_555
C30 N3 1_555 1_555
H34 C30 1_555 1_555
C31 C30 1_555 1_555
C32 C31 1_555 1_555
H35 C32 1_555 1_555
N4 C29 1_555 1_555
Br1 C31 1_555 1_555
C5 C6 1_555 1_555
C12 N1 1_555 1_555
C25 C26 1_555 1_555
C32 N4 1_555 1_555

#END
