
#######################################################################
#
#                 Cambridge Crystallographic Data Centre
#                                CCDC 
#
#######################################################################
#
# If this CIF has been generated from an entry in the Cambridge 
# Structural Database, then it will include bibliographic, chemical, 
# crystal, experimental, refinement or atomic coordinate data resulting 
# from the CCDC's data processing and validation procedures.
#
#######################################################################

data_SEFDIQ
_chemical_name_common            Tetracyano-p-xylene
_chemical_formula_moiety         'C12 H6 N4'
_chemical_name_systematic        2,2'-(p-Phenylene)-bis(propanedinitrile)
_symmetry_cell_setting           monoclinic
_symmetry_space_group_name_H-M   'C 2/c'
_symmetry_Int_Tables_number      15
_space_group_name_Hall           '-C 2yn'
loop_
_symmetry_equiv_pos_site_id
_symmetry_equiv_pos_as_xyz
1 x,y,z
2 1/2+x,1/2+y,z
3 -x,y,1/2-z
4 1/2-x,1/2+y,1/2-z
5 -x,-y,-z
6 1/2-x,1/2-y,-z
7 x,-y,1/2+z
8 1/2+x,1/2-y,1/2+z
_cell_length_a                   18.4255(16)
_cell_length_b                   7.2396(6)
_cell_length_c                   7.6466(5)
_cell_angle_alpha                90
_cell_angle_beta                 101.126(6)
_cell_angle_gamma                90
_cell_volume                     1000.83
_exptl_crystal_colour            yellow
_exptl_crystal_description       prismatic
_cell_formula_units_Z            4
_exptl_crystal_preparation       luminescent
loop_
_atom_site_label
_atom_site_type_symbol
_atom_site_fract_x
_atom_site_fract_y
_atom_site_fract_z
C1 C 0.06412(4) 0.40449(12) 0.07499(11)
C2 C 0.06236(5) 0.59589(13) 0.08129(13)
H1 H 0.1057(7) 0.6658(18) 0.1392(18)
C3 C 0.00158(5) 0.30963(13) -0.00665(14)
H2 H 0.0026(7) 0.170(2) -0.0143(17)
C4 C 0.13493(5) 0.29743(13) 0.15004(12)
H3 H 0.1590(6) 0.2611(16) 0.0570(14)
C5 C 0.18878(5) 0.41007(14) 0.27310(14)
N1 N 0.22855(5) 0.50301(15) 0.36578(15)
C6 C 0.11958(5) 0.12708(14) 0.24253(13)
N2 N 0.10723(6) -0.00357(13) 0.31300(15)
C3D C -0.00158(5) 0.69037(13) 0.00665(14)
C1D C -0.06412(4) 0.59551(12) -0.07499(11)
C2D C -0.06236(5) 0.40411(13) -0.08129(13)
H1D H -0.1057(7) 0.3342(18) -0.1392(18)
C4D C -0.13493(5) 0.70257(13) -0.15004(12)
H3D H -0.1590(6) 0.7389(16) -0.0570(14)
C5D C -0.18878(5) 0.58993(14) -0.27310(14)
N1D N -0.22855(5) 0.49699(15) -0.36578(15)
C6D C -0.11958(5) 0.87292(14) -0.24253(13)
N2D N -0.10723(6) 1.00357(13) -0.31300(15)
H2D H -0.0026(7) 0.830(2) 0.0143(17)
loop_
_geom_bond_atom_site_label_1
_geom_bond_atom_site_label_2
_geom_bond_site_symmetry_1
_geom_bond_site_symmetry_2
C1 C2 1_555 1_555
C2 H1 1_555 1_555
C3 C1 1_555 1_555
H2 C3 1_555 1_555
C4 C1 1_555 1_555
H3 C4 1_555 1_555
C5 C4 1_555 1_555
N1 C5 1_555 1_555
C6 C4 1_555 1_555
N2 C6 1_555 1_555
C3D C2 1_555 1_555
C1D C3D 1_555 1_555
C2D C3 1_555 1_555
H1D C2D 1_555 1_555
C4D C1D 1_555 1_555
H3D C4D 1_555 1_555
C5D C4D 1_555 1_555
N1D C5D 1_555 1_555
C6D C4D 1_555 1_555
N2D C6D 1_555 1_555
H2D C3D 1_555 1_555
C1D C2D 1_555 1_555

#END
