
#######################################################################
#
#                 Cambridge Crystallographic Data Centre
#                                CCDC 
#
#######################################################################
#
# If this CIF has been generated from an entry in the Cambridge 
# Structural Database, then it will include bibliographic, chemical, 
# crystal, experimental, refinement or atomic coordinate data resulting 
# from the CCDC's data processing and validation procedures.
#
#######################################################################

data_SEFFAN
_chemical_formula_moiety         'C27 H22 Br1 F1 N2 O6 S1,C4 H8 O2'
_chemical_name_systematic        
'ethyl 2-{5-(4-bromophenyl)-3-(4-fluorophenyl)-1-[(4-nitrophenyl)sulfonyl]-2,3-dihydro-1H-pyrrol-2-yl}prop-2-enoate ethyl acetate solvate'
_symmetry_cell_setting           monoclinic
_symmetry_space_group_name_H-M   'P 21'
_symmetry_Int_Tables_number      4
_space_group_name_Hall           'P 2yb'
loop_
_symmetry_equiv_pos_site_id
_symmetry_equiv_pos_as_xyz
1 x,y,z
2 -x,1/2+y,-z
_cell_length_a                   13.794(2)
_cell_length_b                   7.4068(13)
_cell_length_c                   15.014(2)
_cell_angle_alpha                90
_cell_angle_beta                 99.751(4)
_cell_angle_gamma                90
_cell_volume                     1511.81
_exptl_crystal_colour            colorless
_exptl_crystal_description       prism
_cell_formula_units_Z            2
loop_
_atom_site_label
_atom_site_type_symbol
_atom_site_fract_x
_atom_site_fract_y
_atom_site_fract_z
Br1 Br 0.86957(2) 0.07545(4) 0.09821(2)
S1 S 0.39431(4) 0.41714(8) 0.17466(4)
F1 F 0.13440(11) 0.0068(2) 0.48700(9)
O1 O 0.07008(12) 0.1268(3) 0.03622(11)
O2 O 0.08957(10) 0.0909(3) -0.10793(10)
O3 O 0.48951(12) 0.4783(2) 0.16298(11)
O4 O 0.30990(11) 0.52969(19) 0.14948(10)
O5 O 0.33861(14) 0.2317(3) 0.59562(12)
O6 O 0.49697(13) 0.2148(3) 0.61151(12)
N1 N 0.37160(13) 0.2279(3) 0.11644(12)
N2 N 0.41598(16) 0.2409(3) 0.56609(14)
C1 C 0.26841(16) 0.1588(3) 0.10232(15)
H1 H 0.2247 0.2453 0.1279
C2 C 0.27485(17) -0.0236(3) 0.15454(16)
H2 H 0.2358 -0.1161 0.1152
C3 C 0.38263(17) -0.0673(4) 0.16106(15)
H3 H 0.4102 -0.1824 0.1777
C4 C 0.43448(13) 0.0726(4) 0.14096(13)
C5 C 0.23202(16) 0.1311(3) 0.00196(15)
C6 C 0.28859(17) 0.1185(3) -0.06016(16)
H4 H 0.2601 0.0986 -0.1215
H5 H 0.3579 0.1292 -0.0436
C7 C 0.12312(17) 0.1153(3) -0.02023(16)
C8 C -0.01766(17) 0.0942(6) -0.13332(17)
H6 H -0.0446 0.2074 -0.1123
H7 H -0.0473 -0.0092 -0.1059
C9 C -0.03973(19) 0.0826(7) -0.23360(18)
H8 H -0.0068 0.1817 -0.2598
H9 H -0.1109 0.0915 -0.2539
H10 H -0.0160 -0.0331 -0.2532
C10 C 0.23749(16) -0.0161(3) 0.24471(16)
C11 C 0.29283(17) -0.0852(4) 0.32330(16)
H11 H 0.3554 -0.1369 0.3211
C12 C 0.25821(17) -0.0800(4) 0.40509(17)
H12 H 0.2958 -0.1291 0.4584
C13 C 0.16846(18) -0.0022(4) 0.40662(16)
C14 C 0.11065(15) 0.0675(4) 0.33069(14)
H13 H 0.0485 0.1200 0.3337
C15 C 0.14602(15) 0.0586(4) 0.24958(15)
H14 H 0.1069 0.1045 0.1962
C16 C 0.53987(13) 0.0783(4) 0.13325(13)
C17 C 0.60750(17) -0.0223(3) 0.19198(16)
H15 H 0.5862 -0.0897 0.2389
C18 C 0.70618(17) -0.0254(3) 0.18278(17)
H16 H 0.7525 -0.0936 0.2233
C19 C 0.73576(14) 0.0728(4) 0.11348(15)
C20 C 0.66946(17) 0.1717(3) 0.05376(16)
H17 H 0.6906 0.2360 0.0057
C21 C 0.57197(16) 0.1764(3) 0.06444(15)
H18 H 0.5263 0.2471 0.0245
C22 C 0.40105(17) 0.3624(3) 0.29085(15)
C23 C 0.48658(17) 0.2855(3) 0.33806(16)
H19 H 0.5407 0.2606 0.3084
C24 C 0.49189(17) 0.2458(3) 0.42890(16)
H20 H 0.5495 0.1936 0.4627
C25 C 0.41125(17) 0.2840(3) 0.46923(16)
C26 C 0.32652(18) 0.3612(3) 0.42418(17)
H21 H 0.2729 0.3863 0.4544
C27 C 0.32140(17) 0.4015(3) 0.33312(16)
H22 H 0.2639 0.4554 0.3000
O7 O 0.71658(12) 0.1735(3) 0.40265(12)
O8 O 0.86913(12) 0.1434(2) 0.37022(12)
C28 C 0.78149(19) 0.2253(4) 0.36389(17)
C29 C 0.7756(2) 0.3871(4) 0.30295(19)
H23 H 0.8186 0.3690 0.2580
H24 H 0.7967 0.4948 0.3390
H25 H 0.7077 0.4031 0.2721
C30 C 0.8829(2) -0.0169(4) 0.42703(18)
H26 H 0.9334 -0.0952 0.4073
H27 H 0.8205 -0.0857 0.4199
C31 C 0.91437(19) 0.0321(4) 0.52492(18)
H28 H 0.8616 0.0996 0.5462
H29 H 0.9738 0.1068 0.5315
H30 H 0.9283 -0.0783 0.5608
loop_
_geom_bond_atom_site_label_1
_geom_bond_atom_site_label_2
_geom_bond_site_symmetry_1
_geom_bond_site_symmetry_2
Br1 C19 1_555 1_555
S1 O3 1_555 1_555
F1 C13 1_555 1_555
O1 C7 1_555 1_555
O2 C7 1_555 1_555
O4 S1 1_555 1_555
O5 N2 1_555 1_555
O6 N2 1_555 1_555
N1 S1 1_555 1_555
N2 C25 1_555 1_555
C1 N1 1_555 1_555
H1 C1 1_555 1_555
C2 C1 1_555 1_555
H2 C2 1_555 1_555
C3 C2 1_555 1_555
H3 C3 1_555 1_555
C4 N1 1_555 1_555
C5 C1 1_555 1_555
C6 C5 1_555 1_555
H4 C6 1_555 1_555
H5 C6 1_555 1_555
C7 C5 1_555 1_555
C8 O2 1_555 1_555
H6 C8 1_555 1_555
H7 C8 1_555 1_555
C9 C8 1_555 1_555
H8 C9 1_555 1_555
H9 C9 1_555 1_555
H10 C9 1_555 1_555
C10 C2 1_555 1_555
C11 C10 1_555 1_555
H11 C11 1_555 1_555
C12 C11 1_555 1_555
H12 C12 1_555 1_555
C13 C12 1_555 1_555
C14 C13 1_555 1_555
H13 C14 1_555 1_555
C15 C10 1_555 1_555
H14 C15 1_555 1_555
C16 C4 1_555 1_555
C17 C16 1_555 1_555
H15 C17 1_555 1_555
C18 C17 1_555 1_555
H16 C18 1_555 1_555
C19 C18 1_555 1_555
C20 C19 1_555 1_555
H17 C20 1_555 1_555
C21 C16 1_555 1_555
H18 C21 1_555 1_555
C22 S1 1_555 1_555
C23 C22 1_555 1_555
H19 C23 1_555 1_555
C24 C23 1_555 1_555
H20 C24 1_555 1_555
C25 C24 1_555 1_555
C26 C25 1_555 1_555
H21 C26 1_555 1_555
C27 C22 1_555 1_555
H22 C27 1_555 1_555
O7 C28 1_555 1_555
O8 C28 1_555 1_555
C28 C29 1_555 1_555
C29 H23 1_555 1_555
H24 C29 1_555 1_555
H25 C29 1_555 1_555
C30 O8 1_555 1_555
H26 C30 1_555 1_555
H27 C30 1_555 1_555
C31 C30 1_555 1_555
H28 C31 1_555 1_555
H29 C31 1_555 1_555
H30 C31 1_555 1_555
C3 C4 1_555 1_555
C14 C15 1_555 1_555
C20 C21 1_555 1_555
C26 C27 1_555 1_555

#END
