
#######################################################################
#
#                 Cambridge Crystallographic Data Centre
#                                CCDC 
#
#######################################################################
#
# If this CIF has been generated from an entry in the Cambridge 
# Structural Database, then it will include bibliographic, chemical, 
# crystal, experimental, refinement or atomic coordinate data resulting 
# from the CCDC's data processing and validation procedures.
#
#######################################################################

data_SEFHAP
_chemical_formula_moiety         'C22 H23 N1 O3 S1'
_chemical_name_systematic        
N-[5-(but-3-en-1-yl)-4-methyl-3-phenylfuran-2-yl]-N-phenylmethanesulfonamide
_symmetry_cell_setting           triclinic
_symmetry_space_group_name_H-M   'P -1'
_symmetry_Int_Tables_number      2
_space_group_name_Hall           '-P 1'
loop_
_symmetry_equiv_pos_site_id
_symmetry_equiv_pos_as_xyz
1 x,y,z
2 -x,-y,-z
_cell_length_a                   10.7119(7)
_cell_length_b                   12.3681(7)
_cell_length_c                   15.6167(10)
_cell_angle_alpha                88.640(4)
_cell_angle_beta                 76.819(4)
_cell_angle_gamma                85.895(4)
_cell_volume                     2009.26
_exptl_crystal_colour            colorless
_exptl_crystal_description       block
_cell_formula_units_Z            4
loop_
_atom_site_label
_atom_site_type_symbol
_atom_site_fract_x
_atom_site_fract_y
_atom_site_fract_z
S1 S 0.51156(10) 0.49494(9) 0.35696(7)
C1 C 0.9145(6) 0.5881(7) 0.1169(4)
H1 H 0.9945 0.6103 0.0879
C2 C 0.8971(5) 0.4811(6) 0.1324(4)
H2 H 0.9657 0.4304 0.1133
C3 C 0.8144(7) 0.6627(5) 0.1439(4)
H3 H 0.8261 0.7360 0.1334
C4 C 0.7797(4) 0.4460(4) 0.1760(3)
H4 H 0.7689 0.3726 0.1868
C5 C 0.6956(5) 0.6301(4) 0.1870(3)
H5 H 0.6272 0.6813 0.2051
C6 C 0.6786(4) 0.5222(4) 0.2029(3)
C7 C 0.4895(4) 0.4182(3) 0.2056(3)
C8 C 0.5964(5) 0.3856(4) 0.3962(3)
H6 H 0.5752 0.3856 0.4594
H7 H 0.6871 0.3923 0.3753
H8 H 0.5735 0.3189 0.3756
C9 C 0.4041(3) 0.4380(3) 0.1548(3)
C10 C 0.3779(4) 0.3335(3) 0.1276(3)
C11 C 0.4463(4) 0.2585(3) 0.1648(3)
C12 C 0.2852(5) 0.3103(4) 0.0714(3)
H9 H 0.2860 0.2335 0.0637
H10 H 0.3107 0.3449 0.0150
H11 H 0.2001 0.3378 0.0998
C13 C 0.4558(5) 0.1381(3) 0.1651(3)
H12 H 0.4350 0.1131 0.2257
H13 H 0.3913 0.1137 0.1368
C14 C 0.5816(6) 0.0859(4) 0.1215(5)
H14 H 0.6514 0.1270 0.0992
C15 C 0.5937(8) -0.0355(6) 0.1141(5)
H15 H 0.6768 -0.0674 0.1054
C16 C 0.5118(9) -0.0959(6) 0.1178(5)
H16 H 0.4265 -0.0693 0.1264
H17 H 0.5328 -0.1701 0.1121
C17 C 0.2434(5) 0.7204(4) 0.1762(4)
H18 H 0.2102 0.7710 0.2200
C18 C 0.3469(4) 0.5451(3) 0.1327(3)
C19 C 0.3403(4) 0.5712(4) 0.0468(3)
H19 H 0.3725 0.5210 0.0024
C20 C 0.2969(4) 0.6220(3) 0.1971(3)
H20 H 0.2998 0.6066 0.2552
C21 C 0.2870(5) 0.6696(4) 0.0264(3)
H21 H 0.2837 0.6857 -0.0316
C22 C 0.2388(5) 0.7443(4) 0.0904(4)
H22 H 0.2029 0.8111 0.0762
N1 N 0.5531(3) 0.4886(3) 0.2481(2)
O1 O 0.3783(3) 0.4779(3) 0.38205(19)
O2 O 0.5565(3) 0.5923(2) 0.3814(2)
O3 O 0.5190(3) 0.3083(2) 0.21302(18)
C23 C 0.2322(5) -0.2442(3) 0.4277(3)
H23 H 0.2520 -0.3138 0.4467
C24 C 0.3262(4) -0.1846(4) 0.3806(3)
H24 H 0.4108 -0.2138 0.3674
C25 C 0.2981(4) -0.0820(3) 0.3523(3)
H25 H 0.3640 -0.0418 0.3209
C26 C 0.1727(4) -0.0373(3) 0.3700(3)
C27 C 0.0778(4) -0.0976(3) 0.4179(3)
H26 H -0.0069 -0.0688 0.4308
C28 C 0.1067(5) -0.2005(4) 0.4470(3)
H27 H 0.0417 -0.2404 0.4797
C29 C 0.1396(3) 0.0730(3) 0.3389(3)
C30 C 0.0572(4) 0.0989(3) 0.2871(3)
C31 C 0.1833(3) 0.1742(3) 0.3604(3)
C32 C 0.2754(4) 0.1893(4) 0.4178(3)
H28 H 0.2885 0.2650 0.4206
H29 H 0.3560 0.1502 0.3936
H30 H 0.2406 0.1624 0.4759
C33 C 0.1227(4) 0.2536(3) 0.3204(3)
C34 C -0.1432(4) 0.0114(3) 0.2933(3)
C35 C -0.1833(4) -0.0920(4) 0.2933(3)
H31 H -0.1292 -0.1465 0.2616
C36 C -0.3044(5) -0.1140(4) 0.3407(3)
H32 H -0.3324 -0.1833 0.3396
C37 C -0.2222(4) 0.0907(4) 0.3424(3)
H33 H -0.1952 0.1604 0.3432
C38 C -0.3417(5) 0.0666(4) 0.3904(3)
H34 H -0.3947 0.1202 0.4241
C39 C -0.3836(5) -0.0350(5) 0.3893(3)
H35 H -0.4649 -0.0503 0.4212
C40 C -0.0467(5) 0.1475(4) 0.0993(3)
H36 H -0.0264 0.1487 0.0362
H37 H -0.0148 0.2098 0.1205
H38 H -0.1382 0.1488 0.1207
C41 C 0.1174(4) 0.3738(3) 0.3195(3)
H39 H 0.1327 0.3990 0.2590
H40 H 0.1861 0.3970 0.3444
C42 C -0.0078(6) 0.4259(4) 0.3694(4)
H41 H -0.0765 0.4008 0.3455
H42 H -0.0218 0.4020 0.4302
C43 C -0.0164(8) 0.5453(5) 0.3672(5)
H43 H 0.0627 0.5759 0.3529
C44 C -0.1044(8) 0.6081(6) 0.3803(6)
H44 H -0.1872 0.5845 0.3950
H45 H -0.0921 0.6819 0.3760
N2 N -0.0143(3) 0.0340(2) 0.2460(2)
O4 O 0.1606(3) 0.0349(2) 0.1119(2)
O5 O -0.0339(3) -0.0599(2) 0.1112(2)
O6 O 0.0434(2) 0.2086(2) 0.27390(18)
S2 S 0.02484(10) 0.02960(9) 0.13667(7)
loop_
_geom_bond_atom_site_label_1
_geom_bond_atom_site_label_2
_geom_bond_site_symmetry_1
_geom_bond_site_symmetry_2
S1 C8 1_555 1_555
C1 H1 1_555 1_555
C2 C1 1_555 1_555
H2 C2 1_555 1_555
C3 C1 1_555 1_555
H3 C3 1_555 1_555
C4 C2 1_555 1_555
H4 C4 1_555 1_555
C5 C3 1_555 1_555
H5 C5 1_555 1_555
C6 C4 1_555 1_555
C7 C9 1_555 1_555
C8 H6 1_555 1_555
H7 C8 1_555 1_555
H8 C8 1_555 1_555
C9 C10 1_555 1_555
C10 C11 1_555 1_555
C11 C13 1_555 1_555
C12 C10 1_555 1_555
H9 C12 1_555 1_555
H10 C12 1_555 1_555
H11 C12 1_555 1_555
C13 H12 1_555 1_555
H13 C13 1_555 1_555
C14 C13 1_555 1_555
H14 C14 1_555 1_555
C15 C14 1_555 1_555
H15 C15 1_555 1_555
C16 C15 1_555 1_555
H16 C16 1_555 1_555
H17 C16 1_555 1_555
C17 H18 1_555 1_555
C18 C9 1_555 1_555
C19 C18 1_555 1_555
H19 C19 1_555 1_555
C20 C17 1_555 1_555
H20 C20 1_555 1_555
C21 C19 1_555 1_555
H21 C21 1_555 1_555
C22 C17 1_555 1_555
H22 C22 1_555 1_555
N1 S1 1_555 1_555
O1 S1 1_555 1_555
O2 S1 1_555 1_555
O3 C7 1_555 1_555
C23 H23 1_555 1_555
C24 C23 1_555 1_555
H24 C24 1_555 1_555
C25 C24 1_555 1_555
H25 C25 1_555 1_555
C26 C25 1_555 1_555
C27 C26 1_555 1_555
H26 C27 1_555 1_555
C28 C23 1_555 1_555
H27 C28 1_555 1_555
C29 C26 1_555 1_555
C30 C29 1_555 1_555
C31 C29 1_555 1_555
C32 C31 1_555 1_555
H28 C32 1_555 1_555
H29 C32 1_555 1_555
H30 C32 1_555 1_555
C33 C31 1_555 1_555
C34 C35 1_555 1_555
C35 H31 1_555 1_555
C36 C35 1_555 1_555
H32 C36 1_555 1_555
C37 C34 1_555 1_555
H33 C37 1_555 1_555
C38 C37 1_555 1_555
H34 C38 1_555 1_555
C39 C36 1_555 1_555
H35 C39 1_555 1_555
C40 H36 1_555 1_555
H37 C40 1_555 1_555
H38 C40 1_555 1_555
C41 C33 1_555 1_555
H39 C41 1_555 1_555
H40 C41 1_555 1_555
C42 C41 1_555 1_555
H41 C42 1_555 1_555
H42 C42 1_555 1_555
C43 C42 1_555 1_555
H43 C43 1_555 1_555
C44 C43 1_555 1_555
H44 C44 1_555 1_555
H45 C44 1_555 1_555
N2 C30 1_555 1_555
O4 S2 1_555 1_555
O5 S2 1_555 1_555
O6 C30 1_555 1_555
S2 C40 1_555 1_555
C5 C6 1_555 1_555
C6 N1 1_555 1_555
C7 N1 1_555 1_555
C11 O3 1_555 1_555
C18 C20 1_555 1_555
C21 C22 1_555 1_555
C27 C28 1_555 1_555
C33 O6 1_555 1_555
C34 N2 1_555 1_555
C38 C39 1_555 1_555
N2 S2 1_555 1_555

#END
