
#######################################################################
#
#                 Cambridge Crystallographic Data Centre
#                                CCDC 
#
#######################################################################
#
# If this CIF has been generated from an entry in the Cambridge 
# Structural Database, then it will include bibliographic, chemical, 
# crystal, experimental, refinement or atomic coordinate data resulting 
# from the CCDC's data processing and validation procedures.
#
#######################################################################

data_SEFKUK
_chemical_formula_moiety         'C28 H46 N6'
_chemical_name_systematic        tris(3,5-Di-isopropyl-1-pyrazolyl)methane
_symmetry_cell_setting           monoclinic
_symmetry_space_group_name_H-M   'P 21/n'
_symmetry_Int_Tables_number      14
_space_group_name_Hall           '-P 2yn'
loop_
_symmetry_equiv_pos_site_id
_symmetry_equiv_pos_as_xyz
1 x,y,z
2 1/2-x,1/2+y,1/2-z
3 -x,-y,-z
4 1/2+x,1/2-y,1/2+z
_cell_length_a                   11.221(2)
_cell_length_b                   14.921(2)
_cell_length_c                   18.382(2)
_cell_angle_alpha                90
_cell_angle_beta                 106.571(6)
_cell_angle_gamma                90
_cell_volume                     2949.85
_exptl_crystal_colour            colorless
_exptl_crystal_description       block
_cell_formula_units_Z            4
loop_
_atom_site_label
_atom_site_type_symbol
_atom_site_fract_x
_atom_site_fract_y
_atom_site_fract_z
N1 N 0.4163(3) 0.5564(2) 0.7144(2)
N2 N 0.4881(3) 0.4855(2) 0.7490(2)
N3 N 0.2983(3) 0.5114(2) 0.8499(2)
N4 N 0.4242(3) 0.5138(2) 0.8610(2)
N5 N 0.5149(3) 0.3009(2) 0.8644(2)
N6 N 0.4363(3) 0.3617(2) 0.8175(2)
C1 C 0.4844(3) 0.4521(2) 0.8228(2)
C2 C 0.3445(7) 0.6138(4) 0.5215(3)
C3 C 0.4957(6) 0.7202(4) 0.6039(4)
C4 C 0.3996(4) 0.6476(3) 0.6007(2)
C5 C 0.4554(4) 0.5736(3) 0.6536(2)
C6 C 0.5513(4) 0.5143(3) 0.6502(2)
C7 C 0.5725(3) 0.4596(3) 0.7121(2)
C8 C 0.6622(4) 0.3838(3) 0.7374(3)
C9 C 0.6120(5) 0.2966(3) 0.6978(3)
C10 C 0.7858(4) 0.4060(4) 0.7219(4)
C11 C 0.0613(5) 0.5187(5) 0.8740(4)
C12 C 0.1424(5) 0.6297(4) 0.9738(3)
C13 C 0.1464(4) 0.5930(3) 0.8985(3)
C14 C 0.2781(4) 0.5745(3) 0.8966(2)
C15 C 0.3875(4) 0.6161(2) 0.9360(2)
C16 C 0.4815(3) 0.5776(2) 0.9129(2)
C17 C 0.6182(4) 0.5954(3) 0.9350(2)
C18 C 0.6635(4) 0.6381(3) 0.8723(2)
C19 C 0.6566(4) 0.6542(3) 1.0053(2)
C20 C 0.4573(8) 0.0743(6) 0.8933(8)
C21 C 0.6472(8) 0.1356(5) 0.8986(5)
C22 C 0.5187(7) 0.1409(4) 0.8888(4)
C23 C 0.4574(4) 0.2231(3) 0.8482(3)
C24 C 0.3454(4) 0.2331(3) 0.7919(3)
C25 C 0.3326(4) 0.3217(3) 0.7718(2)
C26 C 0.2344(4) 0.3696(3) 0.7135(2)
C27 C 0.2513(4) 0.3586(3) 0.6335(2)
C28 C 0.1056(4) 0.3361(4) 0.7147(3)
H1 H 0.5684 0.4488 0.8532
H2 H 0.3084 0.6617 0.4885
H3 H 0.4078 0.5863 0.5042
H4 H 0.2822 0.5708 0.5219
H5 H 0.5271 0.7407 0.6547
H6 H 0.5614 0.6944 0.5878
H7 H 0.4612 0.7692 0.5718
H8 H 0.3352 0.6735 0.6180
H9 H 0.5938 0.5125 0.6123
H10 H 0.6784 0.3753 0.7905
H11 H 0.5363 0.2803 0.7078
H12 H 0.5968 0.3079 0.6451
H13 H 0.6704 0.2492 0.7127
H14 H 0.8456 0.3595 0.7373
H15 H 0.7659 0.4137 0.6685
H16 H 0.8189 0.4603 0.7465
H17 H -0.0210 0.5364 0.8717
H18 H 0.0631 0.4967 0.8258
H19 H 0.0877 0.4729 0.9110
H20 H 0.1694 0.5845 1.0112
H21 H 0.1972 0.6796 0.9860
H22 H 0.0607 0.6482 0.9722
H23 H 0.1153 0.6386 0.8620
H24 H 0.3971 0.6622 0.9728
H25 H 0.6603 0.5396 0.9465
H26 H 0.7508 0.6480 0.8887
H27 H 0.6434 0.6013 0.8283
H28 H 0.6217 0.6939 0.8608
H29 H 0.7439 0.6639 1.0203
H30 H 0.6149 0.7101 0.9941
H31 H 0.6333 0.6257 1.0454
H32 H 0.3994 0.0930 0.9192
H33 H 0.4138 0.0533 0.8441
H34 H 0.5075 0.0274 0.9210
H35 H 0.6866 0.1170 0.9492
H36 H 0.6655 0.0941 0.8641
H37 H 0.6769 0.1933 0.8905
H38 H 0.5243 0.1644 0.9377
H39 H 0.2877 0.1871 0.7703
H40 H 0.2402 0.4316 0.7258
H41 H 0.2450 0.2967 0.6208
H42 H 0.1889 0.3909 0.5972
H43 H 0.3310 0.3801 0.6335
H44 H 0.0974 0.3439 0.7643
H45 H 0.0415 0.3682 0.6794
H46 H 0.0992 0.2742 0.7020
loop_
_geom_bond_atom_site_label_1
_geom_bond_atom_site_label_2
_geom_bond_site_symmetry_1
_geom_bond_site_symmetry_2
N1 N2 1_555 1_555
N2 C1 1_555 1_555
N3 N4 1_555 1_555
N4 C1 1_555 1_555
N5 N6 1_555 1_555
N6 C1 1_555 1_555
C1 H1 1_555 1_555
C2 C4 1_555 1_555
C3 C4 1_555 1_555
C4 C5 1_555 1_555
C5 N1 1_555 1_555
C6 C5 1_555 1_555
C7 N2 1_555 1_555
C8 C7 1_555 1_555
C9 C8 1_555 1_555
C10 C8 1_555 1_555
C11 C13 1_555 1_555
C12 C13 1_555 1_555
C13 C14 1_555 1_555
C14 N3 1_555 1_555
C15 C14 1_555 1_555
C16 N4 1_555 1_555
C17 C16 1_555 1_555
C18 C17 1_555 1_555
C19 C17 1_555 1_555
C20 C22 1_555 1_555
C21 C22 1_555 1_555
C22 C23 1_555 1_555
C23 N5 1_555 1_555
C24 C23 1_555 1_555
C25 N6 1_555 1_555
C26 C25 1_555 1_555
C27 C26 1_555 1_555
C28 C26 1_555 1_555
H2 C2 1_555 1_555
H3 C2 1_555 1_555
H4 C2 1_555 1_555
H5 C3 1_555 1_555
H6 C3 1_555 1_555
H7 C3 1_555 1_555
H8 C4 1_555 1_555
H9 C6 1_555 1_555
H10 C8 1_555 1_555
H11 C9 1_555 1_555
H12 C9 1_555 1_555
H13 C9 1_555 1_555
H14 C10 1_555 1_555
H15 C10 1_555 1_555
H16 C10 1_555 1_555
H17 C11 1_555 1_555
H18 C11 1_555 1_555
H19 C11 1_555 1_555
H20 C12 1_555 1_555
H21 C12 1_555 1_555
H22 C12 1_555 1_555
H23 C13 1_555 1_555
H24 C15 1_555 1_555
H25 C17 1_555 1_555
H26 C18 1_555 1_555
H27 C18 1_555 1_555
H28 C18 1_555 1_555
H29 C19 1_555 1_555
H30 C19 1_555 1_555
H31 C19 1_555 1_555
H32 C20 1_555 1_555
H33 C20 1_555 1_555
H34 C20 1_555 1_555
H35 C21 1_555 1_555
H36 C21 1_555 1_555
H37 C21 1_555 1_555
H38 C22 1_555 1_555
H39 C24 1_555 1_555
H40 C26 1_555 1_555
H41 C27 1_555 1_555
H42 C27 1_555 1_555
H43 C27 1_555 1_555
H44 C28 1_555 1_555
H45 C28 1_555 1_555
H46 C28 1_555 1_555
C6 C7 1_555 1_555
C15 C16 1_555 1_555
C24 C25 1_555 1_555

#END
