
#######################################################################
#
#                 Cambridge Crystallographic Data Centre
#                                CCDC 
#
#######################################################################
#
# If this CIF has been generated from an entry in the Cambridge 
# Structural Database, then it will include bibliographic, chemical, 
# crystal, experimental, refinement or atomic coordinate data resulting 
# from the CCDC's data processing and validation procedures.
#
#######################################################################

data_SEFMOI
_chemical_formula_moiety         'C14 H20 Se3 Si2'
_chemical_name_systematic        
(bisselenopheno[2,3-b:3',2'-d]selenophene-2,5-diyl)bis(trimethylsilane)
_symmetry_cell_setting           monoclinic
_symmetry_space_group_name_H-M   'P 21/c'
_symmetry_Int_Tables_number      14
_space_group_name_Hall           '-P 2ybc'
loop_
_symmetry_equiv_pos_site_id
_symmetry_equiv_pos_as_xyz
1 x,y,z
2 -x,1/2+y,1/2-z
3 -x,-y,-z
4 x,1/2-y,1/2+z
_cell_length_a                   6.4642(19)
_cell_length_b                   20.855(6)
_cell_length_c                   27.927(8)
_cell_angle_alpha                90
_cell_angle_beta                 90.498(5)
_cell_angle_gamma                90
_cell_volume                     3764.72
_exptl_crystal_colour            colorless
_exptl_crystal_description       bar
_cell_formula_units_Z            8
loop_
_atom_site_label
_atom_site_type_symbol
_atom_site_fract_x
_atom_site_fract_y
_atom_site_fract_z
Se1 Se 0.17967(12) 0.26608(4) 0.02506(3)
Se2 Se 0.49266(14) 0.39871(4) 0.02631(3)
Se3 Se 0.90394(14) 0.43946(4) -0.04469(3)
Si1 Si 1.1449(3) 0.38576(12) -0.13844(7)
Si2 Si 0.1380(4) 0.12942(12) -0.03121(8)
C1 C 0.6801(11) 0.3314(4) -0.0443(2)
C2 C 1.3449(13) 0.4422(4) -0.1185(3)
H1 H 1.2820 0.4824 -0.1104
H2 H 1.4426 0.4486 -0.1437
H3 H 1.4150 0.4251 -0.0908
C3 C 0.8278(11) 0.3244(4) -0.0829(2)
H4 H 0.8335 0.2874 -0.1015
C4 C 0.3941(10) 0.3190(4) 0.0064(2)
C5 C 1.2632(13) 0.3081(4) -0.1539(3)
H5 H 1.1576 0.2790 -0.1647
H6 H 1.3316 0.2906 -0.1262
H7 H 1.3622 0.3142 -0.1789
C6 C 0.2735(11) 0.2057(4) -0.0204(2)
C7 C 0.9562(11) 0.3743(4) -0.0902(2)
C8 C 0.4421(11) 0.2295(4) -0.0428(2)
H8 H 0.5090 0.2061 -0.0664
C9 C 0.5135(12) 0.2913(4) -0.0289(2)
C10 C 0.6945(11) 0.3883(4) -0.0202(2)
C11 C -0.0063(13) 0.1332(5) -0.0888(3)
H9 H 0.0891 0.1398 -0.1145
H10 H -0.1030 0.1681 -0.0880
H11 H -0.0796 0.0937 -0.0938
C12 C -0.0510(16) 0.1156(5) 0.0180(3)
H12 H 0.0217 0.1129 0.0481
H13 H -0.1240 0.0762 0.0123
H14 H -0.1478 0.1504 0.0189
C13 C 0.3307(14) 0.0655(4) -0.0354(3)
H15 H 0.4057 0.0624 -0.0056
H16 H 0.4250 0.0751 -0.0608
H17 H 0.2625 0.0255 -0.0419
C14 C 1.0056(16) 0.4174(5) -0.1907(3)
H18 H 0.9442 0.4579 -0.1828
H19 H 0.8993 0.3878 -0.2002
H20 H 1.1005 0.4232 -0.2167
Se4 Se -0.32700(12) 0.25451(4) 0.10499(3)
Se5 Se -0.00703(14) 0.38528(4) 0.10781(3)
Se6 Se 0.41426(14) 0.41930(4) 0.17876(3)
Si3 Si 0.6525(3) 0.36168(12) 0.27251(7)
Si4 Si -0.3645(4) 0.11309(12) 0.15589(8)
C15 C 0.8501(13) 0.4210(4) 0.2570(3)
H21 H 0.9262 0.4063 0.2297
H22 H 0.9431 0.4268 0.2836
H23 H 0.7847 0.4611 0.2494
C16 C 0.1775(11) 0.3129(4) 0.1766(2)
C17 C 0.0107(12) 0.2755(4) 0.1597(2)
C18 C -0.1090(11) 0.3054(4) 0.1257(2)
C19 C -0.0633(12) 0.2139(4) 0.1714(2)
H24 H 0.0034 0.1893 0.1947
C20 C 0.7688(14) 0.2833(4) 0.2860(3)
H25 H 0.8454 0.2686 0.2588
H26 H 0.6615 0.2530 0.2931
H27 H 0.8601 0.2872 0.3131
C21 C 0.3287(12) 0.3040(4) 0.2142(3)
H28 H 0.3330 0.2665 0.2322
C22 C -0.2317(12) 0.1912(4) 0.1484(2)
C23 C 0.5062(16) 0.3902(5) 0.3252(3)
H29 H 0.4443 0.4310 0.3181
H30 H 0.5986 0.3946 0.3521
H31 H 0.3998 0.3598 0.3328
C24 C -0.1642(14) 0.0508(4) 0.1551(3)
H32 H -0.0939 0.0518 0.1250
H33 H -0.2273 0.0095 0.1594
H34 H -0.0667 0.0584 0.1806
C25 C 0.4645(11) 0.3524(4) 0.2224(2)
C26 C 0.2015(11) 0.3708(4) 0.1543(2)
C27 C -0.5526(15) 0.1012(5) 0.1069(3)
H35 H -0.4818 0.1013 0.0768
H36 H -0.6525 0.1352 0.1072
H37 H -0.6217 0.0609 0.1111
C28 C -0.5033(15) 0.1116(5) 0.2144(3)
H38 H -0.4057 0.1177 0.2401
H39 H -0.5710 0.0709 0.2181
H40 H -0.6044 0.1453 0.2149
loop_
_geom_bond_atom_site_label_1
_geom_bond_atom_site_label_2
_geom_bond_site_symmetry_1
_geom_bond_site_symmetry_2
Se1 C4 1_555 1_555
Se2 C4 1_555 1_555
Se3 C7 1_555 1_555
Si1 C2 1_555 1_555
Si2 C6 1_555 1_555
C1 C3 1_555 1_555
C2 H1 1_555 1_555
H2 C2 1_555 1_555
H3 C2 1_555 1_555
C3 H4 1_555 1_555
C4 C9 1_555 1_555
C5 Si1 1_555 1_555
H5 C5 1_555 1_555
H6 C5 1_555 1_555
H7 C5 1_555 1_555
C6 Se1 1_555 1_555
C7 Si1 1_555 1_555
C8 C6 1_555 1_555
H8 C8 1_555 1_555
C9 C1 1_555 1_555
C10 Se2 1_555 1_555
C11 Si2 1_555 1_555
H9 C11 1_555 1_555
H10 C11 1_555 1_555
H11 C11 1_555 1_555
C12 Si2 1_555 1_555
H12 C12 1_555 1_555
H13 C12 1_555 1_555
H14 C12 1_555 1_555
C13 Si2 1_555 1_555
H15 C13 1_555 1_555
H16 C13 1_555 1_555
H17 C13 1_555 1_555
C14 Si1 1_555 1_555
H18 C14 1_555 1_555
H19 C14 1_555 1_555
H20 C14 1_555 1_555
Se4 C18 1_555 1_555
Se5 C18 1_555 1_555
Se6 C25 1_555 1_555
Si3 C15 1_555 1_555
Si4 C22 1_555 1_555
C15 H21 1_555 1_555
H22 C15 1_555 1_555
H23 C15 1_555 1_555
C16 C17 1_555 1_555
C17 C18 1_555 1_555
C19 C17 1_555 1_555
H24 C19 1_555 1_555
C20 Si3 1_555 1_555
H25 C20 1_555 1_555
H26 C20 1_555 1_555
H27 C20 1_555 1_555
C21 C16 1_555 1_555
H28 C21 1_555 1_555
C22 Se4 1_555 1_555
C23 Si3 1_555 1_555
H29 C23 1_555 1_555
H30 C23 1_555 1_555
H31 C23 1_555 1_555
C24 Si4 1_555 1_555
H32 C24 1_555 1_555
H33 C24 1_555 1_555
H34 C24 1_555 1_555
C25 Si3 1_555 1_555
C26 Se5 1_555 1_555
C27 Si4 1_555 1_555
H35 C27 1_555 1_555
H36 C27 1_555 1_555
H37 C27 1_555 1_555
C28 Si4 1_555 1_555
H38 C28 1_555 1_555
H39 C28 1_555 1_555
H40 C28 1_555 1_555
Se3 C10 1_555 1_555
C1 C10 1_555 1_555
C3 C7 1_555 1_555
C8 C9 1_555 1_555
Se6 C26 1_555 1_555
C16 C26 1_555 1_555
C19 C22 1_555 1_555
C21 C25 1_555 1_555

#END
