
#######################################################################
#
#                 Cambridge Crystallographic Data Centre
#                                CCDC 
#
#######################################################################
#
# If this CIF has been generated from an entry in the Cambridge 
# Structural Database, then it will include bibliographic, chemical, 
# crystal, experimental, refinement or atomic coordinate data resulting 
# from the CCDC's data processing and validation procedures.
#
#######################################################################

data_SEFPAX
_chemical_formula_moiety         'C24 H18 F5 N1 S1'
_chemical_name_systematic        
4'-(pentafluoro-sulfanyl)-N,N-diphenyl[1,1'-biphenyl]-4-amine
_symmetry_cell_setting           monoclinic
_symmetry_space_group_name_H-M   'C 2/c'
_symmetry_Int_Tables_number      15
_space_group_name_Hall           '-C 2yn'
loop_
_symmetry_equiv_pos_site_id
_symmetry_equiv_pos_as_xyz
1 x,y,z
2 -x,y,1/2-z
3 1/2+x,1/2+y,z
4 1/2-x,1/2+y,1/2-z
5 -x,-y,-z
6 x,-y,1/2+z
7 1/2-x,1/2-y,-z
8 1/2+x,1/2-y,1/2+z
_cell_length_a                   17.635(4)
_cell_length_b                   13.489(3)
_cell_length_c                   18.963(4)
_cell_angle_alpha                90
_cell_angle_beta                 115.43(3)
_cell_angle_gamma                90
_cell_volume                     4073.83
_exptl_crystal_colour            colorless
_exptl_crystal_description       block
_cell_formula_units_Z            8
loop_
_atom_site_label
_atom_site_type_symbol
_atom_site_fract_x
_atom_site_fract_y
_atom_site_fract_z
C1 C 0.38620(16) 0.95109(18) 0.77634(14)
C2 C 0.38231(17) 0.85265(19) 0.79379(15)
H1 H 0.384374 0.833862 0.842865
C3 C 0.37538(17) 0.78173(19) 0.73891(14)
H2 H 0.372469 0.713807 0.750755
C4 C 0.37253(15) 0.80696(17) 0.66684(14)
C5 C 0.37671(16) 0.90668(18) 0.65084(15)
H3 H 0.374981 0.925830 0.601967
C6 C 0.38337(17) 0.97865(19) 0.70537(16)
H4 H 0.385965 1.046744 0.693800
C7 C 0.36558(15) 0.72928(17) 0.60848(13)
C8 C 0.31757(17) 0.64488(18) 0.59932(15)
H5 H 0.287761 0.636637 0.630409
C9 C 0.31214(17) 0.57231(19) 0.54583(15)
H6 H 0.277846 0.515701 0.539773
C10 C 0.35665(16) 0.58183(17) 0.50089(13)
C11 C 0.40440(16) 0.66634(18) 0.50940(14)
H7 H 0.434672 0.674225 0.478692
C12 C 0.40851(16) 0.73932(18) 0.56206(14)
H8 H 0.441064 0.797130 0.566654
C13 C 0.35417(16) 0.40461(18) 0.47096(14)
C14 C 0.40903(17) 0.3748(2) 0.54576(15)
H9 H 0.444201 0.422004 0.582381
C15 C 0.41220(19) 0.2764(2) 0.56664(17)
H10 H 0.449452 0.256274 0.617937
C16 C 0.3623(2) 0.2072(2) 0.51433(19)
H11 H 0.365619 0.139406 0.528911
C17 C 0.3073(2) 0.2369(2) 0.44044(18)
H12 H 0.272347 0.189247 0.404108
C18 C 0.30244(18) 0.3351(2) 0.41872(16)
H13 H 0.263626 0.355060 0.367932
C19 C 0.36336(16) 0.52725(18) 0.37991(14)
C20 C 0.40803(17) 0.4631(2) 0.35426(16)
H14 H 0.430683 0.403466 0.381995
C21 C 0.4194(2) 0.4860(2) 0.28849(19)
H15 H 0.449357 0.441447 0.270889
C22 C 0.3882(2) 0.5720(3) 0.24842(18)
H16 H 0.397160 0.587534 0.203688
C23 C 0.3441(2) 0.6356(2) 0.27298(16)
H17 H 0.322258 0.695315 0.245067
C24 C 0.33118(17) 0.6136(2) 0.33821(15)
H18 H 0.299996 0.658002 0.354510
F1 F 0.40395(14) 1.12616(14) 0.90955(12)
F2 F 0.47072(14) 0.98894(19) 0.91346(11)
F3 F 0.33280(14) 0.98943(13) 0.87286(12)
F4 F 0.32008(14) 1.10604(13) 0.78642(11)
F5 F 0.45857(16) 1.10666(17) 0.82714(15)
N1 N 0.35218(15) 0.50553(15) 0.44769(12)
S1 S 0.39540(5) 1.04395(6) 0.84736(4)
loop_
_geom_bond_atom_site_label_1
_geom_bond_atom_site_label_2
_geom_bond_site_symmetry_1
_geom_bond_site_symmetry_2
C1 C2 1_555 1_555
C2 H1 1_555 1_555
C3 C2 1_555 1_555
H2 C3 1_555 1_555
C4 C3 1_555 1_555
C5 C4 1_555 1_555
H3 C5 1_555 1_555
C6 C1 1_555 1_555
H4 C6 1_555 1_555
C7 C4 1_555 1_555
C8 C7 1_555 1_555
H5 C8 1_555 1_555
C9 C8 1_555 1_555
H6 C9 1_555 1_555
C10 C9 1_555 1_555
C11 C10 1_555 1_555
H7 C11 1_555 1_555
C12 C7 1_555 1_555
H8 C12 1_555 1_555
C13 C14 1_555 1_555
C14 H9 1_555 1_555
C15 C14 1_555 1_555
H10 C15 1_555 1_555
C16 C15 1_555 1_555
H11 C16 1_555 1_555
C17 C16 1_555 1_555
H12 C17 1_555 1_555
C18 C13 1_555 1_555
H13 C18 1_555 1_555
C19 C20 1_555 1_555
C20 H14 1_555 1_555
C21 C20 1_555 1_555
H15 C21 1_555 1_555
C22 C21 1_555 1_555
H16 C22 1_555 1_555
C23 C22 1_555 1_555
H17 C23 1_555 1_555
C24 C19 1_555 1_555
H18 C24 1_555 1_555
F1 S1 1_555 1_555
F2 S1 1_555 1_555
F3 S1 1_555 1_555
F4 S1 1_555 1_555
F5 S1 1_555 1_555
N1 C10 1_555 1_555
S1 C1 1_555 1_555
C5 C6 1_555 1_555
C11 C12 1_555 1_555
C13 N1 1_555 1_555
C17 C18 1_555 1_555
C19 N1 1_555 1_555
C23 C24 1_555 1_555

#END
