
#######################################################################
#
#                 Cambridge Crystallographic Data Centre
#                                CCDC 
#
#######################################################################
#
# If this CIF has been generated from an entry in the Cambridge 
# Structural Database, then it will include bibliographic, chemical, 
# crystal, experimental, refinement or atomic coordinate data resulting 
# from the CCDC's data processing and validation procedures.
#
#######################################################################

data_SEFPOL
_chemical_formula_moiety         'C34 H22 F5 N1 S1'
_chemical_name_systematic        
4-[(4-{[4-(pentafluoro-sulfanyl)phenyl]ethynyl}phenyl)ethynyl]-N,N-diphenylaniline
_symmetry_cell_setting           monoclinic
_symmetry_space_group_name_H-M   'C c'
_symmetry_Int_Tables_number      9
_space_group_name_Hall           'C -2yc'
loop_
_symmetry_equiv_pos_site_id
_symmetry_equiv_pos_as_xyz
1 x,y,z
2 x,-y,1/2+z
3 1/2+x,1/2+y,z
4 1/2+x,1/2-y,1/2+z
_cell_length_a                   53.283(19)
_cell_length_b                   10.846(4)
_cell_length_c                   9.606(4)
_cell_angle_alpha                90
_cell_angle_beta                 91.686(5)
_cell_angle_gamma                90
_cell_volume                     5548.98
_exptl_crystal_colour            yellow
_exptl_crystal_description       needle
_cell_formula_units_Z            8
loop_
_atom_site_label
_atom_site_type_symbol
_atom_site_fract_x
_atom_site_fract_y
_atom_site_fract_z
C1 C 0.5970(2) 0.1250(9) 0.1278(11)
C2 C 0.5830(2) 0.2309(11) 0.1382(12)
H1 H 0.5880 0.3037 0.0915
C3 C 0.5616(2) 0.2315(13) 0.2172(13)
H2 H 0.5520 0.3049 0.2230
C4 C 0.5541(2) 0.1274(12) 0.2873(13)
C5 C 0.5679(2) 0.0216(12) 0.2727(13)
H3 H 0.5626 -0.0522 0.3165
C6 C 0.5893(2) 0.0209(9) 0.1950(12)
H4 H 0.5989 -0.0528 0.1883
C7 C 0.5326(2) 0.1304(12) 0.3714(15)
C8 C 0.5148(2) 0.1295(12) 0.4447(14)
C9 C 0.4934(2) 0.1254(12) 0.5294(13)
C10 C 0.4767(2) 0.2239(12) 0.5331(13)
H5 H 0.4794 0.2942 0.4766
C11 C 0.4561(2) 0.2212(12) 0.6172(12)
H6 H 0.4446 0.2881 0.6158
C12 C 0.4523(2) 0.1218(11) 0.7032(12)
C13 C 0.4688(2) 0.0233(10) 0.7020(12)
H7 H 0.4661 -0.0468 0.7590
C14 C 0.4891(2) 0.0275(12) 0.6185(12)
H8 H 0.5007 -0.0391 0.6216
C15 C 0.4311(3) 0.1200(10) 0.7899(13)
C16 C 0.4120(2) 0.1189(10) 0.8603(13)
C17 C 0.3891(2) 0.1136(9) 0.9281(11)
C18 C 0.3688(2) 0.1904(9) 0.8842(11)
H9 H 0.3713 0.2481 0.8115
C19 C 0.3462(2) 0.1841(9) 0.9421(10)
H10 H 0.3330 0.2358 0.9086
C20 C 0.3421(2) 0.1032(8) 1.0497(12)
C21 C 0.3612(2) 0.0285(9) 1.0976(12)
H11 H 0.3587 -0.0262 1.1731
C22 C 0.38424(19) 0.0330(10) 1.0358(12)
H12 H 0.3972 -0.0209 1.0681
C23 C 0.3029(2) 0.1966(10) 1.1246(12)
C24 C 0.2773(2) 0.1922(10) 1.1019(14)
H13 H 0.2695 0.1166 1.0762
C25 C 0.2632(2) 0.2958(12) 1.1162(18)
H14 H 0.2457 0.2937 1.0940
C26 C 0.2742(3) 0.4036(12) 1.163(2)
H15 H 0.2642 0.4741 1.1790
C27 C 0.2992(3) 0.4094(12) 1.186(2)
H16 H 0.3067 0.4848 1.2153
C28 C 0.3143(2) 0.3053(11) 1.1664(15)
H17 H 0.3319 0.3095 1.1817
C29 C 0.3072(2) -0.0297(10) 1.1245(12)
C30 C 0.3123(2) -0.1205(9) 1.0307(13)
H18 H 0.3228 -0.1052 0.9541
C31 C 0.3017(2) -0.2367(12) 1.0516(18)
H19 H 0.3058 -0.3024 0.9909
C32 C 0.2857(3) -0.2583(14) 1.156(2)
H20 H 0.2781 -0.3369 1.1646
C33 C 0.2808(3) -0.1685(16) 1.2459(17)
H21 H 0.2696 -0.1833 1.3192
C34 C 0.2920(2) -0.0526(12) 1.2328(13)
H22 H 0.2891 0.0100 1.2995
F1 F 0.65057(13) 0.1231(6) -0.0477(8)
F2 F 0.61278(14) 0.1894(6) -0.0944(7)
F3 F 0.63422(13) 0.2506(6) 0.0978(8)
F4 F 0.64016(13) 0.0562(7) 0.1580(7)
F5 F 0.61953(12) -0.0051(5) -0.0329(7)
N1 N 0.31791(16) 0.0911(7) 1.1078(10)
S1 S 0.62553(6) 0.1242(3) 0.0350(3)
C35 C 0.40070(19) 0.6089(9) 0.9055(10)
C36 C 0.4027(2) 0.7063(10) 0.8163(12)
H23 H 0.3900 0.7677 0.8113
C37 C 0.4232(2) 0.7142(11) 0.7340(12)
H24 H 0.4243 0.7804 0.6697
C38 C 0.4422(2) 0.6293(11) 0.7421(12)
C39 C 0.4404(2) 0.5307(11) 0.8328(12)
H25 H 0.4532 0.4699 0.8375
C40 C 0.4197(2) 0.5214(10) 0.9167(12)
H26 H 0.4186 0.4556 0.9815
C41 C 0.4631(3) 0.6368(12) 0.6569(15)
C42 C 0.4817(2) 0.6389(11) 0.5853(13)
C43 C 0.5030(2) 0.6339(10) 0.5012(12)
C44 C 0.5067(2) 0.7244(10) 0.4012(13)
H27 H 0.4951 0.7902 0.3904
C45 C 0.5274(2) 0.7192(10) 0.3172(12)
H28 H 0.5296 0.7809 0.2483
C46 C 0.5449(2) 0.6263(10) 0.3317(12)
C47 C 0.5410(2) 0.5352(10) 0.4339(12)
H29 H 0.5529 0.4706 0.4468
C48 C 0.5201(2) 0.5392(11) 0.5155(12)
H30 H 0.5175 0.4760 0.5820
C49 C 0.5670(2) 0.6219(10) 0.2499(13)
C50 C 0.5858(2) 0.6187(9) 0.1862(13)
C51 C 0.6090(2) 0.6145(9) 0.1176(10)
C52 C 0.6157(2) 0.6956(9) 0.0131(10)
H31 H 0.6036 0.7549 -0.0173
C53 C 0.63808(19) 0.6958(9) -0.0483(11)
H32 H 0.6414 0.7521 -0.1213
C54 C 0.65625(18) 0.6114(8) -0.0022(11)
C55 C 0.65034(17) 0.5264(8) 0.1017(10)
H33 H 0.6624 0.4671 0.1321
C56 C 0.62708(18) 0.5288(9) 0.1595(10)
H34 H 0.6232 0.4705 0.2296
C57 C 0.69143(18) 0.7270(8) -0.0956(11)
C58 C 0.68909(19) 0.8306(9) -0.0111(11)
H35 H 0.6801 0.8254 0.0725
C59 C 0.6999(2) 0.9406(9) -0.0490(12)
H36 H 0.6973 1.0119 0.0061
C60 C 0.7143(2) 0.9495(10) -0.1635(12)
H37 H 0.7222 1.0250 -0.1864
C61 C 0.71706(18) 0.8451(9) -0.2464(11)
H38 H 0.7270 0.8499 -0.3267
C62 C 0.70566(18) 0.7349(9) -0.2141(11)
H39 H 0.7075 0.6650 -0.2725
C63 C 0.6957(2) 0.5052(8) -0.0622(10)
C64 C 0.7201(2) 0.5099(9) -0.0241(12)
H40 H 0.7268 0.5847 0.0128
C65 C 0.7361(2) 0.4092(10) -0.0365(13)
H41 H 0.7534 0.4160 -0.0124
C66 C 0.7261(2) 0.2990(9) -0.0847(11)
H42 H 0.7366 0.2288 -0.0939
C67 C 0.7010(2) 0.2917(9) -0.1190(11)
H43 H 0.6941 0.2159 -0.1511
C68 C 0.68566(18) 0.3949(10) -0.1071(11)
H44 H 0.6682 0.3891 -0.1300
F6 F 0.35118(12) 0.5839(6) 1.1118(7)
F7 F 0.37241(15) 0.7384(5) 1.0377(8)
F8 F 0.35540(12) 0.6068(9) 0.8908(7)
F9 F 0.37391(15) 0.4525(6) 1.0035(9)
F10 F 0.39129(13) 0.5831(7) 1.1512(7)
N2 N 0.68038(16) 0.6130(7) -0.0573(10)
S2 S 0.37429(6) 0.5950(3) 1.0159(3)
loop_
_geom_bond_atom_site_label_1
_geom_bond_atom_site_label_2
_geom_bond_site_symmetry_1
_geom_bond_site_symmetry_2
C1 C2 1_555 1_555
C2 H1 1_555 1_555
C3 C2 1_555 1_555
H2 C3 1_555 1_555
C4 C3 1_555 1_555
C5 C4 1_555 1_555
H3 C5 1_555 1_555
C6 C1 1_555 1_555
H4 C6 1_555 1_555
C7 C4 1_555 1_555
C8 C7 1_555 1_555
C9 C8 1_555 1_555
C10 C9 1_555 1_555
H5 C10 1_555 1_555
C11 C10 1_555 1_555
H6 C11 1_555 1_555
C12 C11 1_555 1_555
C13 C12 1_555 1_555
H7 C13 1_555 1_555
C14 C9 1_555 1_555
H8 C14 1_555 1_555
C15 C12 1_555 1_555
C16 C15 1_555 1_555
C17 C16 1_555 1_555
C18 C17 1_555 1_555
H9 C18 1_555 1_555
C19 C18 1_555 1_555
H10 C19 1_555 1_555
C20 C19 1_555 1_555
C21 C20 1_555 1_555
H11 C21 1_555 1_555
C22 C17 1_555 1_555
H12 C22 1_555 1_555
C23 C24 1_555 1_555
C24 H13 1_555 1_555
C25 C24 1_555 1_555
H14 C25 1_555 1_555
C26 C25 1_555 1_555
H15 C26 1_555 1_555
C27 C26 1_555 1_555
H16 C27 1_555 1_555
C28 C23 1_555 1_555
H17 C28 1_555 1_555
C29 C30 1_555 1_555
C30 H18 1_555 1_555
C31 C30 1_555 1_555
H19 C31 1_555 1_555
C32 C31 1_555 1_555
H20 C32 1_555 1_555
C33 C32 1_555 1_555
H21 C33 1_555 1_555
C34 C29 1_555 1_555
H22 C34 1_555 1_555
F1 S1 1_555 1_555
F2 S1 1_555 1_555
F3 S1 1_555 1_555
F4 S1 1_555 1_555
F5 S1 1_555 1_555
N1 C20 1_555 1_555
S1 C1 1_555 1_555
C35 C36 1_555 1_555
C36 H23 1_555 1_555
C37 C36 1_555 1_555
H24 C37 1_555 1_555
C38 C37 1_555 1_555
C39 C38 1_555 1_555
H25 C39 1_555 1_555
C40 C35 1_555 1_555
H26 C40 1_555 1_555
C41 C38 1_555 1_555
C42 C41 1_555 1_555
C43 C42 1_555 1_555
C44 C43 1_555 1_555
H27 C44 1_555 1_555
C45 C44 1_555 1_555
H28 C45 1_555 1_555
C46 C45 1_555 1_555
C47 C46 1_555 1_555
H29 C47 1_555 1_555
C48 C43 1_555 1_555
H30 C48 1_555 1_555
C49 C46 1_555 1_555
C50 C49 1_555 1_555
C51 C50 1_555 1_555
C52 C51 1_555 1_555
H31 C52 1_555 1_555
C53 C52 1_555 1_555
H32 C53 1_555 1_555
C54 C53 1_555 1_555
C55 C54 1_555 1_555
H33 C55 1_555 1_555
C56 C51 1_555 1_555
H34 C56 1_555 1_555
C57 C58 1_555 1_555
C58 H35 1_555 1_555
C59 C58 1_555 1_555
H36 C59 1_555 1_555
C60 C59 1_555 1_555
H37 C60 1_555 1_555
C61 C60 1_555 1_555
H38 C61 1_555 1_555
C62 C57 1_555 1_555
H39 C62 1_555 1_555
C63 C64 1_555 1_555
C64 H40 1_555 1_555
C65 C64 1_555 1_555
H41 C65 1_555 1_555
C66 C65 1_555 1_555
H42 C66 1_555 1_555
C67 C66 1_555 1_555
H43 C67 1_555 1_555
C68 C63 1_555 1_555
H44 C68 1_555 1_555
F6 S2 1_555 1_555
F7 S2 1_555 1_555
F8 S2 1_555 1_555
F9 S2 1_555 1_555
F10 S2 1_555 1_555
N2 C54 1_555 1_555
S2 C35 1_555 1_555
C5 C6 1_555 1_555
C13 C14 1_555 1_555
C21 C22 1_555 1_555
C23 N1 1_555 1_555
C27 C28 1_555 1_555
C29 N1 1_555 1_555
C33 C34 1_555 1_555
C39 C40 1_555 1_555
C47 C48 1_555 1_555
C55 C56 1_555 1_555
C57 N2 1_555 1_555
C61 C62 1_555 1_555
C63 N2 1_555 1_555
C67 C68 1_555 1_555

#END
