
#######################################################################
#
#                 Cambridge Crystallographic Data Centre
#                                CCDC 
#
#######################################################################
#
# If this CIF has been generated from an entry in the Cambridge 
# Structural Database, then it will include bibliographic, chemical, 
# crystal, experimental, refinement or atomic coordinate data resulting 
# from the CCDC's data processing and validation procedures.
#
#######################################################################

data_SEFQAY
_chemical_formula_moiety         'C16 H26 O2 Si1'
_chemical_name_systematic        
(2S)-(syn,syn)-5-[dimethyl(phenyl)silyl]-2,4-dimethylhex-5-ene-1,3-diol
_symmetry_cell_setting           orthorhombic
_symmetry_space_group_name_H-M   'P 21 21 21'
_symmetry_Int_Tables_number      19
_space_group_name_Hall           'P 2ac 2ab'
loop_
_symmetry_equiv_pos_site_id
_symmetry_equiv_pos_as_xyz
1 x,y,z
2 1/2-x,-y,1/2+z
3 1/2+x,1/2-y,-z
4 -x,1/2+y,1/2-z
_cell_length_a                   6.3872(5)
_cell_length_b                   13.6568(9)
_cell_length_c                   18.5349(12)
_cell_angle_alpha                90
_cell_angle_beta                 90
_cell_angle_gamma                90
_cell_volume                     1616.78
_exptl_crystal_colour            colorless
_exptl_crystal_description       needle
_cell_formula_units_Z            4
loop_
_atom_site_label
_atom_site_type_symbol
_atom_site_fract_x
_atom_site_fract_y
_atom_site_fract_z
C1 C 0.3535(7) 0.5711(3) 1.0219(2)
H1 H 0.2919 0.5104 1.0420
H2 H 0.4222 0.6067 1.0619
C2 C 0.5174(6) 0.5438(3) 0.9661(2)
H3 H 0.4435 0.5126 0.9245
C3 C 0.6350(6) 0.6336(3) 0.9374(2)
H4 H 0.5268 0.6839 0.9253
C4 C 0.7593(6) 0.6139(3) 0.8678(2)
H5 H 0.8620 0.5604 0.8782
C5 C 0.6192(7) 0.5796(3) 0.8059(2)
C6 C 0.4570(7) 0.6341(4) 0.7846(2)
H6 H 0.4283 0.6946 0.8079
H7 H 0.3704 0.6125 0.7461
C7 C 0.6653(6) 0.4679(3) 0.9984(2)
H8 H 0.7168 0.4913 1.0451
H9 H 0.7839 0.4576 0.9657
H10 H 0.5902 0.4060 1.0051
C8 C 0.8839(7) 0.7045(3) 0.8441(2)
H11 H 0.9560 0.6906 0.7986
H12 H 0.9872 0.7211 0.8812
H13 H 0.7880 0.7598 0.8373
C9 C 0.9727(6) 0.4725(4) 0.7309(2)
H14 H 0.9901 0.5225 0.6935
H15 H 1.0187 0.4089 0.7122
H16 H 1.0571 0.4900 0.7731
C10 C 0.5289(7) 0.4473(3) 0.6754(2)
H17 H 0.3844 0.4329 0.6897
H18 H 0.5846 0.3926 0.6472
H19 H 0.5316 0.5071 0.6462
C11 C 0.6539(7) 0.3586(3) 0.8205(2)
C12 C 0.8186(8) 0.3001(3) 0.8444(2)
H20 H 0.9561 0.3125 0.8271
C13 C 0.7865(8) 0.2244(3) 0.8928(2)
H21 H 0.9014 0.1855 0.9081
C14 C 0.5904(8) 0.2054(4) 0.9186(2)
H22 H 0.5698 0.1542 0.9525
C15 C 0.4212(8) 0.2609(4) 0.8953(2)
H23 H 0.2841 0.2474 0.9124
C16 C 0.4558(7) 0.3366(4) 0.8466(2)
H24 H 0.3400 0.3746 0.8307
O1 O 0.1889(5) 0.6309(2) 0.99301(16)
H25 H 0.2256 0.6899 0.9940
O2 O 0.7648(4) 0.6752(2) 0.99289(15)
H26 H 0.8740 0.6415 0.9974
Si1 Si 0.69192(19) 0.46513(9) 0.75730(6)
loop_
_geom_bond_atom_site_label_1
_geom_bond_atom_site_label_2
_geom_bond_site_symmetry_1
_geom_bond_site_symmetry_2
C1 H1 1_555 1_555
H2 C1 1_555 1_555
C2 C1 1_555 1_555
H3 C2 1_555 1_555
C3 C2 1_555 1_555
H4 C3 1_555 1_555
C4 C3 1_555 1_555
H5 C4 1_555 1_555
C5 C4 1_555 1_555
C6 C5 1_555 1_555
H6 C6 1_555 1_555
H7 C6 1_555 1_555
C7 C2 1_555 1_555
H8 C7 1_555 1_555
H9 C7 1_555 1_555
H10 C7 1_555 1_555
C8 C4 1_555 1_555
H11 C8 1_555 1_555
H12 C8 1_555 1_555
H13 C8 1_555 1_555
C9 H14 1_555 1_555
H15 C9 1_555 1_555
H16 C9 1_555 1_555
C10 H17 1_555 1_555
H18 C10 1_555 1_555
H19 C10 1_555 1_555
C11 C12 1_555 1_555
C12 H20 1_555 1_555
C13 C12 1_555 1_555
H21 C13 1_555 1_555
C14 C13 1_555 1_555
H22 C14 1_555 1_555
C15 C14 1_555 1_555
H23 C15 1_555 1_555
C16 C11 1_555 1_555
H24 C16 1_555 1_555
O1 C1 1_555 1_555
H25 O1 1_555 1_555
O2 C3 1_555 1_555
H26 O2 1_555 1_555
Si1 C5 1_555 1_555
C9 Si1 1_555 1_555
C10 Si1 1_555 1_555
C11 Si1 1_555 1_555
C15 C16 1_555 1_555

#END
