
#######################################################################
#
#                 Cambridge Crystallographic Data Centre
#                                CCDC 
#
#######################################################################
#
# If this CIF has been generated from an entry in the Cambridge 
# Structural Database, then it will include bibliographic, chemical, 
# crystal, experimental, refinement or atomic coordinate data resulting 
# from the CCDC's data processing and validation procedures.
#
#######################################################################

data_SEFTAZ
_chemical_formula_moiety         'C43 H34 N6 O2 S1,3(C3 H6 O1)'
_chemical_name_systematic        
'2,2-dimethyl-18,19-diphenyl-35-thia-8,15,22,29,34,36-hexaazahexacyclo[29.2.1.1^3,6^.1^17,20^.0^9,14^.0^23,28^]hexatriaconta-1(33),3,5,7,9,11,13,17,19,23,25,27,29,31-tetradecaene-16,21-dione acetone solvate'
_symmetry_cell_setting           triclinic
_symmetry_space_group_name_H-M   'P -1'
_symmetry_Int_Tables_number      2
_space_group_name_Hall           '-P 1'
loop_
_symmetry_equiv_pos_site_id
_symmetry_equiv_pos_as_xyz
1 x,y,z
2 -x,-y,-z
_cell_length_a                   13.8696(19)
_cell_length_b                   13.8755(19)
_cell_length_c                   13.9159(19)
_cell_angle_alpha                85.570(3)
_cell_angle_beta                 60.812(2)
_cell_angle_gamma                83.295(3)
_cell_volume                     2321.4
_exptl_crystal_colour            'light yellow'
_exptl_crystal_description       prism
_cell_formula_units_Z            2
loop_
_atom_site_label
_atom_site_type_symbol
_atom_site_fract_x
_atom_site_fract_y
_atom_site_fract_z
S1 S 0.55852(3) -0.03349(3) 0.72111(3)
O1 O 0.38380(11) -0.16093(8) 0.73680(11)
O2 O 0.76603(10) 0.04255(8) 0.72229(11)
N1 N 0.27204(11) -0.02243(10) 0.74790(11)
N2 N 0.18595(11) 0.12873(10) 0.67301(12)
N3 N 0.19284(11) 0.33188(10) 0.71405(12)
N4 N 0.40596(11) 0.46032(10) 0.74356(11)
N5 N 0.63546(11) 0.38031(9) 0.68166(11)
N6 N 0.68236(12) 0.19516(10) 0.72244(12)
C1 C 0.41532(13) -0.01671(11) 0.79588(13)
C2 C 0.37926(13) 0.05622(11) 0.87058(13)
C3 C 0.46982(13) 0.10143(11) 0.86501(13)
C4 C 0.57115(13) 0.06180(11) 0.78519(13)
C5 C 0.35461(13) -0.07511(11) 0.76009(13)
C6 C 0.22143(13) -0.04561(12) 0.68636(13)
C7 C 0.21562(13) -0.14001(12) 0.66255(14)
C8 C 0.16759(14) -0.15504(13) 0.59790(15)
C9 C 0.12561(15) -0.07698(13) 0.55717(15)
C10 C 0.13157(14) 0.01731(13) 0.58028(15)
C11 C 0.17946(13) 0.03431(12) 0.64455(13)
C12 C 0.21837(13) 0.19437(12) 0.59608(14)
C13 C 0.22747(13) 0.29294(12) 0.61280(14)
C14 C 0.28278(15) 0.36226(13) 0.53367(15)
C15 C 0.28197(15) 0.44349(13) 0.58860(15)
C16 C 0.22576(13) 0.42316(11) 0.70022(14)
C17 C 0.20320(13) 0.48649(11) 0.79492(13)
C18 C 0.31171(13) 0.52216(11) 0.77311(13)
C19 C 0.33595(14) 0.61393(11) 0.78280(13)
C20 C 0.44781(14) 0.60726(12) 0.75765(13)
C21 C 0.49032(13) 0.51142(11) 0.73377(13)
C22 C 0.60129(13) 0.47063(11) 0.70356(13)
C23 C 0.74816(13) 0.35051(12) 0.65024(14)
C24 C 0.83492(15) 0.41022(13) 0.59648(17)
C25 C 0.94262(16) 0.37507(14) 0.5707(2)
C26 C 0.96504(15) 0.28025(14) 0.59693(18)
C27 C 0.88124(14) 0.21837(13) 0.64800(15)
C28 C 0.77272(13) 0.25273(11) 0.67317(13)
C29 C 0.68329(13) 0.09733(11) 0.74155(13)
C30 C 0.26011(13) 0.08475(11) 0.94865(13)
C31 C 0.20709(17) 0.04036(14) 1.05217(15)
C32 C 0.09537(19) 0.06618(17) 1.12294(18)
C33 C 0.03633(18) 0.13545(16) 1.09052(19)
C34 C 0.08829(16) 0.18053(15) 0.98925(17)
C35 C 0.20055(14) 0.15630(12) 0.91859(15)
C36 C 0.45770(13) 0.18161(11) 0.93658(13)
C37 C 0.40625(15) 0.27208(12) 0.93026(14)
C38 C 0.40175(16) 0.34855(13) 0.99185(15)
C39 C 0.44657(16) 0.33466(13) 1.06183(15)
C40 C 0.49632(17) 0.24379(13) 1.07050(16)
C41 C 0.50216(15) 0.16800(12) 1.00800(14)
C42 C 0.15314(15) 0.43086(13) 0.90612(14)
C43 C 0.12048(16) 0.57412(14) 0.80194(18)
H1 H 0.2601(16) 0.0399(15) 0.7646(16)
H2 H 0.1478(18) 0.3046(15) 0.7776(18)
H3 H 0.4124(15) 0.3951(14) 0.7281(15)
H4 H 0.6204(17) 0.2269(15) 0.7372(16)
H5 H 0.2448(15) -0.1932(13) 0.6913(15)
H6 H 0.1637(16) -0.2236(15) 0.5817(16)
H7 H 0.0900(16) -0.0866(13) 0.5112(16)
H8 H 0.1016(15) 0.0716(14) 0.5546(15)
H9 H 0.2400(15) 0.1796(13) 0.5211(16)
H10 H 0.3161(16) 0.3530(14) 0.4557(17)
H11 H 0.3162(17) 0.5023(15) 0.5567(17)
H12 H 0.2885(15) 0.6742(14) 0.8015(15)
H13 H 0.4901(16) 0.6592(14) 0.7531(16)
H14 H 0.6510(15) 0.5199(13) 0.7022(14)
H15 H 0.8208(17) 0.4759(16) 0.5743(17)
H16 H 1.001(2) 0.4178(17) 0.535(2)
H17 H 1.0397(18) 0.2579(14) 0.5813(17)
H18 H 0.8965(14) 0.1509(13) 0.6640(14)
H19 H 0.2500(16) -0.0081(14) 1.0752(16)
H20 H 0.063(2) 0.0364(17) 1.194(2)
H21 H -0.038(2) 0.1494(17) 1.136(2)
H22 H 0.0460(18) 0.2298(16) 0.9691(18)
H23 H 0.2353(16) 0.1895(14) 0.8467(17)
H24 H 0.3753(16) 0.2814(14) 0.8812(16)
H25 H 0.3695(17) 0.4116(15) 0.9829(17)
H26 H 0.4453(16) 0.3888(15) 1.1035(17)
H27 H 0.5254(15) 0.2324(13) 1.1218(16)
H28 H 0.5401(17) 0.1058(15) 1.0118(17)
H29 H 0.0815(17) 0.4088(14) 0.9232(16)
H30 H 0.2043(16) 0.3745(14) 0.9056(16)
H31 H 0.1403(15) 0.4768(13) 0.9655(16)
H32 H 0.0522(18) 0.5502(15) 0.8151(17)
H33 H 0.1520(17) 0.6099(15) 0.7284(18)
H34 H 0.1044(17) 0.6208(15) 0.8627(17)
O3 O 0.42577(9) 0.25865(8) 0.68329(9)
C44 C 0.48362(13) 0.24082(12) 0.58549(14)
C45 C 0.49118(17) 0.14247(13) 0.54265(16)
C46 C 0.55293(16) 0.31445(14) 0.50387(16)
H35 H 0.435(2) 0.1020(17) 0.602(2)
H36 H 0.564(2) 0.1105(16) 0.5209(18)
H37 H 0.4762(17) 0.1500(14) 0.4808(18)
H38 H 0.625(2) 0.3022(17) 0.4983(19)
H39 H 0.5254(19) 0.3797(18) 0.5306(19)
H40 H 0.5561(17) 0.3066(15) 0.4368(19)
O4 O -0.06255(13) 0.34477(12) 0.89510(16)
C47 C -0.14987(18) 0.31811(15) 0.91259(17)
C48 C -0.2382(2) 0.38750(19) 0.9084(2)
C49 C -0.1755(3) 0.21448(19) 0.9406(3)
H41 H -0.269(3) 0.370(2) 0.870(3)
H42 H -0.306(3) 0.389(3) 0.975(4)
H43 H -0.214(2) 0.456(2) 0.892(2)
H44 H -0.205(3) 0.191(2) 0.900(3)
H45 H -0.112(2) 0.173(2) 0.925(2)
H46 H -0.229(3) 0.208(3) 1.017(3)
O5 O 0.76833(14) 0.66144(13) 0.66961(14)
C50 C 0.81762(16) 0.70044(14) 0.70491(16)
C51 C 0.8083(3) 0.80731(19) 0.7117(3)
C52 C 0.8918(3) 0.6436(3) 0.7419(3)
H47 H 0.776(3) 0.820(2) 0.787(3)
H48 H 0.761(4) 0.841(3) 0.683(4)
H49 H 0.881(3) 0.830(2) 0.677(3)
H50 H 0.867(2) 0.6650(18) 0.820(2)
H51 H 0.887(3) 0.576(3) 0.740(3)
H52 H 0.967(3) 0.663(3) 0.696(3)
loop_
_geom_bond_atom_site_label_1
_geom_bond_atom_site_label_2
_geom_bond_site_symmetry_1
_geom_bond_site_symmetry_2
S1 C1 1_555 1_555
O1 C5 1_555 1_555
O2 C29 1_555 1_555
N1 C5 1_555 1_555
N2 C11 1_555 1_555
N3 C13 1_555 1_555
N4 C18 1_555 1_555
N5 C22 1_555 1_555
N6 C28 1_555 1_555
C1 C2 1_555 1_555
C2 C3 1_555 1_555
C3 C4 1_555 1_555
C4 S1 1_555 1_555
C5 C1 1_555 1_555
C6 N1 1_555 1_555
C7 C6 1_555 1_555
C8 C7 1_555 1_555
C9 C8 1_555 1_555
C10 C9 1_555 1_555
C11 C6 1_555 1_555
C12 N2 1_555 1_555
C13 C12 1_555 1_555
C14 C13 1_555 1_555
C15 C14 1_555 1_555
C16 N3 1_555 1_555
C17 C16 1_555 1_555
C18 C17 1_555 1_555
C19 C18 1_555 1_555
C20 C19 1_555 1_555
C21 N4 1_555 1_555
C22 C21 1_555 1_555
C23 N5 1_555 1_555
C24 C23 1_555 1_555
C25 C24 1_555 1_555
C26 C25 1_555 1_555
C27 C26 1_555 1_555
C28 C23 1_555 1_555
C29 N6 1_555 1_555
C30 C2 1_555 1_555
C31 C30 1_555 1_555
C32 C31 1_555 1_555
C33 C32 1_555 1_555
C34 C33 1_555 1_555
C35 C30 1_555 1_555
C36 C3 1_555 1_555
C37 C36 1_555 1_555
C38 C37 1_555 1_555
C39 C38 1_555 1_555
C40 C39 1_555 1_555
C41 C36 1_555 1_555
C42 C17 1_555 1_555
C43 C17 1_555 1_555
O3 C44 1_555 1_555
C44 C45 1_555 1_555
C45 H35 1_555 1_555
C46 C44 1_555 1_555
O4 C47 1_555 1_555
C47 C48 1_555 1_555
C48 H41 1_555 1_555
C49 C47 1_555 1_555
O5 C50 1_555 1_555
C50 C51 1_555 1_555
C51 H47 1_555 1_555
C52 C50 1_555 1_555
H1 N1 1_555 1_555
H2 N3 1_555 1_555
H3 N4 1_555 1_555
H4 N6 1_555 1_555
H5 C7 1_555 1_555
H6 C8 1_555 1_555
H7 C9 1_555 1_555
H8 C10 1_555 1_555
H9 C12 1_555 1_555
H10 C14 1_555 1_555
H11 C15 1_555 1_555
H12 C19 1_555 1_555
H13 C20 1_555 1_555
H14 C22 1_555 1_555
H15 C24 1_555 1_555
H16 C25 1_555 1_555
H17 C26 1_555 1_555
H18 C27 1_555 1_555
H19 C31 1_555 1_555
H20 C32 1_555 1_555
H21 C33 1_555 1_555
H22 C34 1_555 1_555
H23 C35 1_555 1_555
H24 C37 1_555 1_555
H25 C38 1_555 1_555
H26 C39 1_555 1_555
H27 C40 1_555 1_555
H28 C41 1_555 1_555
H29 C42 1_555 1_555
H30 C42 1_555 1_555
H31 C42 1_555 1_555
H32 C43 1_555 1_555
H33 C43 1_555 1_555
H34 C43 1_555 1_555
H36 C45 1_555 1_555
H37 C45 1_555 1_555
H38 C46 1_555 1_555
H39 C46 1_555 1_555
H40 C46 1_555 1_555
H42 C48 1_555 1_555
H43 C48 1_555 1_555
H44 C49 1_555 1_555
H45 C49 1_555 1_555
H46 C49 1_555 1_555
H48 C51 1_555 1_555
H49 C51 1_555 1_555
H50 C52 1_555 1_555
H51 C52 1_555 1_555
H52 C52 1_555 1_555
C4 C29 1_555 1_555
C10 C11 1_555 1_555
C15 C16 1_555 1_555
C20 C21 1_555 1_555
C27 C28 1_555 1_555
C34 C35 1_555 1_555
C40 C41 1_555 1_555

#END
