
#######################################################################
#
#                 Cambridge Crystallographic Data Centre
#                                CCDC 
#
#######################################################################
#
# If this CIF has been generated from an entry in the Cambridge 
# Structural Database, then it will include bibliographic, chemical, 
# crystal, experimental, refinement or atomic coordinate data resulting 
# from the CCDC's data processing and validation procedures.
#
#######################################################################

data_SEFTED
_chemical_formula_moiety         'C48 H44 N6 O2 S1,0.5(C1 H1 Cl3)'
_chemical_name_systematic        
'3,32-dimethyl-17,18-di-n-phenyl-4,31-di-n-propyl-34-thia-7,14,21,28,33,35-hexaazahexacyclo[28.2.1.1^2,5^.1^16,19^.0^8,13^.0^22,27^]pentatriaconta-1(32),2,4,6,8,10,12,16,18,22,24,26,28,30-tetradecaene-15,20-dione chloroform solvate'
_symmetry_cell_setting           triclinic
_symmetry_space_group_name_H-M   'P -1'
_symmetry_Int_Tables_number      2
_space_group_name_Hall           '-P 1'
loop_
_symmetry_equiv_pos_site_id
_symmetry_equiv_pos_as_xyz
1 x,y,z
2 -x,-y,-z
_cell_length_a                   11.4304(2)
_cell_length_b                   18.0089(4)
_cell_length_c                   21.9615(6)
_cell_angle_alpha                100.204(1)
_cell_angle_beta                 104.918(1)
_cell_angle_gamma                99.903(1)
_cell_volume                     4185.25
_exptl_crystal_colour            orange
_exptl_crystal_description       laths
_cell_formula_units_Z            4
loop_
_atom_site_label
_atom_site_type_symbol
_atom_site_fract_x
_atom_site_fract_y
_atom_site_fract_z
S1 S 0.70205(12) 0.44522(7) 0.48655(7)
O1 O 0.9035(3) 0.32987(19) 0.40212(17)
O2 O 0.3931(3) 0.36799(19) 0.51724(17)
N1 N 0.9051(4) 0.4580(2) 0.4170(2)
H1 H 0.8727 0.4951 0.4351
N2 N 0.9728(4) 0.6102(2) 0.4295(2)
N3 N 0.9003(4) 0.7229(2) 0.5138(2)
H2 H 0.8949 0.6779 0.5265
N4 N 0.7613(4) 0.7278(2) 0.6077(2)
H3 H 0.7265 0.6846 0.5759
N5 N 0.5951(4) 0.6188(2) 0.64343(19)
N6 N 0.5446(4) 0.4648(2) 0.5888(2)
H4 H 0.6235 0.4913 0.5972
C1 C 0.5938(4) 0.3805(3) 0.5050(2)
C2 C 0.6011(5) 0.3059(3) 0.4850(2)
C3 C 0.6938(5) 0.3004(3) 0.4523(2)
C4 C 0.7569(4) 0.3713(3) 0.4501(2)
C5 C 0.8603(5) 0.3846(3) 0.4213(2)
C6 C 0.9953(5) 0.4829(3) 0.3875(2)
C7 C 1.0510(5) 0.4332(3) 0.3540(2)
H5 H 1.0318 0.3786 0.3522
C8 C 1.1349(5) 0.4634(3) 0.3239(3)
H6 H 1.1717 0.4296 0.2996
C9 C 1.1669(5) 0.5426(3) 0.3281(3)
H7 H 1.2244 0.5628 0.3067
C10 C 1.1148(5) 0.5915(3) 0.3631(3)
H8 H 1.1393 0.6464 0.3678
C11 C 1.0267(5) 0.5629(3) 0.3919(2)
C12 C 0.9620(4) 0.6771(3) 0.4179(3)
H9 H 0.9793 0.6891 0.3798
C13 C 0.9251(5) 0.7338(3) 0.4583(3)
C14 C 0.9208(5) 0.8093(3) 0.4547(3)
C15 C 0.8956(5) 0.8445(3) 0.5110(3)
C16 C 0.8826(4) 0.7892(3) 0.5464(3)
C17 C 0.8461(5) 0.7899(3) 0.6049(3)
C18 C 0.8802(5) 0.8425(3) 0.6641(3)
C19 C 0.8125(5) 0.8124(3) 0.7029(2)
C20 C 0.7380(5) 0.7404(3) 0.6665(3)
C21 C 0.6535(5) 0.6863(3) 0.6827(3)
H10 H 0.6387 0.6997 0.7239
C22 C 0.5055(5) 0.5692(3) 0.6602(2)
C23 C 0.4369(5) 0.5941(3) 0.7010(2)
H11 H 0.4522 0.6485 0.7199
C24 C 0.3488(5) 0.5414(3) 0.7143(3)
H12 H 0.3037 0.5592 0.7432
C25 C 0.3266(5) 0.4636(3) 0.6865(3)
H13 H 0.2656 0.4272 0.6958
C26 C 0.3910(5) 0.4383(3) 0.6455(3)
H14 H 0.3753 0.3840 0.6262
C27 C 0.4783(5) 0.4899(3) 0.6312(2)
C28 C 0.5010(5) 0.4039(3) 0.5366(3)
C29 C 0.5326(5) 0.2371(3) 0.5003(3)
C30 C 0.4663(5) 0.1706(3) 0.4520(3)
H15 H 0.4541 0.1724 0.4075
C31 C 0.4203(6) 0.1032(3) 0.4678(4)
H16 H 0.3764 0.0573 0.4347
C32 C 0.4371(6) 0.1023(4) 0.5321(5)
H17 H 0.4060 0.0551 0.5432
C33 C 0.4977(6) 0.1672(4) 0.5805(4)
H18 H 0.5084 0.1658 0.6251
C34 C 0.5446(5) 0.2345(4) 0.5636(3)
H19 H 0.5848 0.2811 0.5966
C35 C 0.7139(5) 0.2229(3) 0.4252(3)
C36 C 0.7635(5) 0.1776(3) 0.4661(3)
H20 H 0.7906 0.1988 0.5121
C37 C 0.7700(6) 0.1029(3) 0.4411(4)
H21 H 0.8065 0.0723 0.4691
C38 C 0.7249(6) 0.0724(4) 0.3754(4)
H22 H 0.7280 0.0200 0.3586
C39 C 0.6771(6) 0.1164(4) 0.3345(4)
H23 H 0.6480 0.0937 0.2888
C40 C 0.6711(6) 0.1906(3) 0.3587(3)
H24 H 0.6369 0.2214 0.3303
C41 C 0.9339(6) 0.8446(3) 0.3990(3)
H25 H 0.9738 0.8140 0.3740
H26 H 0.9862 0.8960 0.4154
C42 C 0.8102(7) 0.8473(4) 0.3541(3)
H27 H 0.8231 0.8668 0.3178
H28 H 0.7759 0.8834 0.3779
C43 C 0.7173(8) 0.7722(4) 0.3286(3)
H29 H 0.6409 0.7788 0.3016
H30 H 0.7498 0.7360 0.3037
H31 H 0.7021 0.7529 0.3645
C44 C 0.8851(5) 0.9271(3) 0.5282(3)
H32 H 0.8747 0.9484 0.4906
H33 H 0.9587 0.9569 0.5616
H34 H 0.8153 0.9290 0.5447
C45 C 0.9823(5) 0.9156(3) 0.6852(3)
H35 H 1.0507 0.9088 0.6686
H36 H 1.0082 0.9297 0.7317
H37 H 0.9459 0.9559 0.6705
C46 C 0.8139(5) 0.8511(3) 0.7689(3)
H38 H 0.8967 0.8810 0.7916
H39 H 0.7948 0.8122 0.7919
C47 C 0.7305(10) 0.9073(5) 0.7702(4)
H40 H 0.7737 0.9461 0.8094
H41 H 0.6610 0.8778 0.7790
C48 C 0.6815(12) 0.9416(7) 0.7334(4)
H42 H 0.6249 0.9685 0.7485
H43 H 0.7504 0.9786 0.7309
H44 H 0.6393 0.9084 0.6913
S2 S 0.74311(12) 0.54623(7) 1.00187(7)
O3 O 0.4354(3) 0.61256(19) 0.95538(17)
O4 O 1.0830(4) 0.6777(2) 1.0700(2)
N7 N 0.4614(4) 0.4979(2) 0.9038(2)
H45 H 0.5184 0.4697 0.9008
N8 N 0.3928(4) 0.3434(2) 0.87714(19)
N9 N 0.5532(4) 0.2560(2) 0.9390(2)
H46 H 0.5702 0.3050 0.9625
N10 N 0.7964(4) 0.2887(2) 1.0369(2)
H47 H 0.7980 0.3258 1.0144
N11 N 1.0054(4) 0.4147(2) 1.1002(2)
N12 N 1.0159(4) 0.5561(2) 1.07786(19)
H48 H 0.9492 0.5160 1.0647
C49 C 0.8683(5) 0.6239(3) 1.0239(2)
C50 C 0.8350(5) 0.6889(3) 1.0060(2)
C51 C 0.7045(5) 0.6747(3) 0.9732(2)
C52 C 0.6421(5) 0.5993(3) 0.9689(2)
C53 C 0.5034(5) 0.5707(3) 0.9428(2)
C54 C 0.3369(5) 0.4632(3) 0.8672(2)
C55 C 0.2517(5) 0.5072(3) 0.8450(2)
H49 H 0.2766 0.5627 0.8575
C56 C 0.1344(5) 0.4704(3) 0.8063(2)
H50 H 0.0766 0.5004 0.7903
C57 C 0.0990(5) 0.3902(3) 0.7898(3)
H51 H 0.0163 0.3648 0.7627
C58 C 0.1818(5) 0.3467(3) 0.8122(2)
H52 H 0.1572 0.2911 0.8019
C59 C 0.3021(5) 0.3826(3) 0.8499(2)
C60 C 0.3819(5) 0.2714(3) 0.8526(3)
H53 H 0.3152 0.2463 0.8138
C61 C 0.4634(5) 0.2264(3) 0.8809(3)
C62 C 0.4700(5) 0.1502(3) 0.8595(3)
C63 C 0.5640(5) 0.1338(3) 0.9067(3)
C64 C 0.6145(5) 0.1998(3) 0.9557(3)
C65 C 0.7126(5) 0.2170(3) 1.0159(3)
C66 C 0.7401(5) 0.1773(3) 1.0641(3)
C67 C 0.8391(5) 0.2259(3) 1.1158(3)
C68 C 0.8745(5) 0.2948(3) 1.0973(3)
C69 C 0.9775(5) 0.3587(3) 1.1268(3)
H54 H 1.0290 0.3602 1.1693
C70 C 1.1213(5) 0.4694(3) 1.1298(2)
C71 C 1.2266(5) 0.4520(3) 1.1666(2)
H55 H 1.2223 0.4010 1.1746
C72 C 1.3379(5) 0.5084(3) 1.1911(3)
H56 H 1.4109 0.4970 1.2173
C73 C 1.3435(5) 0.5803(3) 1.1784(3)
H57 H 1.4205 0.6187 1.1957
C74 C 1.2402(5) 0.5987(3) 1.1412(3)
H58 H 1.2452 0.6490 1.1317
C75 C 1.1275(5) 0.5430(3) 1.1162(2)
C76 C 0.9975(5) 0.6221(3) 1.0586(2)
C77 C 0.9151(5) 0.7666(3) 1.0171(3)
C78 C 0.9635(5) 0.8149(3) 1.0783(3)
H59 H 0.9525 0.7945 1.1145
C79 C 1.0287(5) 0.8899(3) 1.0888(3)
H60 H 1.0611 0.9235 1.1314
C80 C 1.0455(5) 0.9184(3) 1.0360(4)
H61 H 1.0897 0.9709 1.0423
C81 C 0.9993(5) 0.8708(3) 0.9743(3)
H62 H 1.0132 0.8898 0.9380
C82 C 0.9325(5) 0.7964(3) 0.9649(3)
H63 H 0.8968 0.7636 0.9221
C83 C 0.6459(5) 0.7318(3) 0.9441(3)
C84 C 0.5876(5) 0.7157(3) 0.8781(3)
H64 H 0.5785 0.6647 0.8528
C85 C 0.5450(5) 0.7716(3) 0.8495(3)
H65 H 0.5042 0.7592 0.8037
C86 C 0.5587(5) 0.8440(3) 0.8855(3)
H66 H 0.5309 0.8834 0.8650
C87 C 0.6134(5) 0.8609(3) 0.9509(3)
H67 H 0.6200 0.9112 0.9768
C88 C 0.6584(5) 0.8057(3) 0.9807(3)
H68 H 0.7001 0.8177 1.0264
C89 C 0.3890(5) 0.0948(3) 0.7966(3)
H69 H 0.4414 0.0711 0.7752
H70 H 0.3461 0.1233 0.7689
C90 C 0.2920(5) 0.0312(3) 0.8062(3)
H71 H 0.3360 0.0034 0.8344
H72 H 0.2489 -0.0047 0.7655
C91 C 0.2008(6) 0.0577(4) 0.8339(3)
H73 H 0.1452 0.0144 0.8391
H74 H 0.2424 0.0925 0.8754
H75 H 0.1543 0.0843 0.8056
C92 C 0.6095(5) 0.0603(3) 0.9013(3)
H76 H 0.6741 0.0641 0.9404
H77 H 0.5423 0.0171 0.8955
H78 H 0.6420 0.0531 0.8650
C93 C 0.6781(5) 0.0964(3) 1.0630(3)
H79 H 0.6138 0.0739 1.0227
H80 H 0.7386 0.0652 1.0683
H81 H 0.6424 0.0985 1.0981
C94 C 0.8934(5) 0.2091(3) 1.1803(3)
H82 H 0.9743 0.2430 1.2003
H83 H 0.9035 0.1567 1.1740
C95 C 0.8152(5) 0.2225(3) 1.2274(3)
H84 H 0.8567 0.2156 1.2692
H85 H 0.7383 0.1841 1.2100
C96 C 0.7855(5) 0.3011(3) 1.2358(3)
H86 H 0.7343 0.3067 1.2640
H87 H 0.8623 0.3396 1.2538
H88 H 0.7428 0.3079 1.1940
Cl1 Cl 0.9102(2) 0.15696(13) 0.74289(11)
Cl2 Cl 0.7056(2) 0.16878(14) 0.79580(14)
Cl3 Cl 0.7628(2) 0.26660(13) 0.71676(12)
C97 C 0.8207(6) 0.2176(4) 0.7734(3)
H89 H 0.8753 0.2553 0.8109
loop_
_geom_bond_atom_site_label_1
_geom_bond_atom_site_label_2
_geom_bond_site_symmetry_1
_geom_bond_site_symmetry_2
S1 C1 1_555 1_555
O1 C5 1_555 1_555
O2 C28 1_555 1_555
N1 H1 1_555 1_555
N2 C11 1_555 1_555
N3 H2 1_555 1_555
N4 H3 1_555 1_555
N5 C21 1_555 1_555
N6 H4 1_555 1_555
C1 C2 1_555 1_555
C2 C3 1_555 1_555
C3 C4 1_555 1_555
C4 S1 1_555 1_555
C5 N1 1_555 1_555
C6 N1 1_555 1_555
C7 C6 1_555 1_555
H5 C7 1_555 1_555
C8 C7 1_555 1_555
H6 C8 1_555 1_555
C9 C8 1_555 1_555
H7 C9 1_555 1_555
C10 C9 1_555 1_555
H8 C10 1_555 1_555
C11 C6 1_555 1_555
C12 N2 1_555 1_555
H9 C12 1_555 1_555
C13 N3 1_555 1_555
C14 C13 1_555 1_555
C15 C14 1_555 1_555
C16 N3 1_555 1_555
C17 N4 1_555 1_555
C18 C17 1_555 1_555
C19 C18 1_555 1_555
C20 N4 1_555 1_555
C21 C20 1_555 1_555
H10 C21 1_555 1_555
C22 N5 1_555 1_555
C23 C22 1_555 1_555
H11 C23 1_555 1_555
C24 C23 1_555 1_555
H12 C24 1_555 1_555
C25 C24 1_555 1_555
H13 C25 1_555 1_555
C26 C25 1_555 1_555
H14 C26 1_555 1_555
C27 N6 1_555 1_555
C28 N6 1_555 1_555
C29 C2 1_555 1_555
C30 C29 1_555 1_555
H15 C30 1_555 1_555
C31 C30 1_555 1_555
H16 C31 1_555 1_555
C32 C31 1_555 1_555
H17 C32 1_555 1_555
C33 C32 1_555 1_555
H18 C33 1_555 1_555
C34 C29 1_555 1_555
H19 C34 1_555 1_555
C35 C3 1_555 1_555
C36 C35 1_555 1_555
H20 C36 1_555 1_555
C37 C36 1_555 1_555
H21 C37 1_555 1_555
C38 C37 1_555 1_555
H22 C38 1_555 1_555
C39 C38 1_555 1_555
H23 C39 1_555 1_555
C40 C35 1_555 1_555
H24 C40 1_555 1_555
C41 C14 1_555 1_555
H25 C41 1_555 1_555
H26 C41 1_555 1_555
C42 C41 1_555 1_555
H27 C42 1_555 1_555
H28 C42 1_555 1_555
C43 C42 1_555 1_555
H29 C43 1_555 1_555
H30 C43 1_555 1_555
H31 C43 1_555 1_555
C44 C15 1_555 1_555
H32 C44 1_555 1_555
H33 C44 1_555 1_555
H34 C44 1_555 1_555
C45 C18 1_555 1_555
H35 C45 1_555 1_555
H36 C45 1_555 1_555
H37 C45 1_555 1_555
C46 C19 1_555 1_555
H38 C46 1_555 1_555
H39 C46 1_555 1_555
C47 C46 1_555 1_555
H40 C47 1_555 1_555
H41 C47 1_555 1_555
C48 C47 1_555 1_555
H42 C48 1_555 1_555
H43 C48 1_555 1_555
H44 C48 1_555 1_555
S2 C49 1_555 1_555
O3 C53 1_555 1_555
O4 C76 1_555 1_555
N7 H45 1_555 1_555
N8 C59 1_555 1_555
N9 H46 1_555 1_555
N10 H47 1_555 1_555
N11 C69 1_555 1_555
N12 H48 1_555 1_555
C49 C50 1_555 1_555
C50 C51 1_555 1_555
C51 C52 1_555 1_555
C52 S2 1_555 1_555
C53 N7 1_555 1_555
C54 N7 1_555 1_555
C55 C54 1_555 1_555
H49 C55 1_555 1_555
C56 C55 1_555 1_555
H50 C56 1_555 1_555
C57 C56 1_555 1_555
H51 C57 1_555 1_555
C58 C57 1_555 1_555
H52 C58 1_555 1_555
C59 C54 1_555 1_555
C60 N8 1_555 1_555
H53 C60 1_555 1_555
C61 N9 1_555 1_555
C62 C61 1_555 1_555
C63 C62 1_555 1_555
C64 N9 1_555 1_555
C65 N10 1_555 1_555
C66 C65 1_555 1_555
C67 C66 1_555 1_555
C68 N10 1_555 1_555
C69 C68 1_555 1_555
H54 C69 1_555 1_555
C70 N11 1_555 1_555
C71 C70 1_555 1_555
H55 C71 1_555 1_555
C72 C71 1_555 1_555
H56 C72 1_555 1_555
C73 C72 1_555 1_555
H57 C73 1_555 1_555
C74 C73 1_555 1_555
H58 C74 1_555 1_555
C75 N12 1_555 1_555
C76 N12 1_555 1_555
C77 C50 1_555 1_555
C78 C77 1_555 1_555
H59 C78 1_555 1_555
C79 C78 1_555 1_555
H60 C79 1_555 1_555
C80 C79 1_555 1_555
H61 C80 1_555 1_555
C81 C80 1_555 1_555
H62 C81 1_555 1_555
C82 C77 1_555 1_555
H63 C82 1_555 1_555
C83 C51 1_555 1_555
C84 C83 1_555 1_555
H64 C84 1_555 1_555
C85 C84 1_555 1_555
H65 C85 1_555 1_555
C86 C85 1_555 1_555
H66 C86 1_555 1_555
C87 C86 1_555 1_555
H67 C87 1_555 1_555
C88 C83 1_555 1_555
H68 C88 1_555 1_555
C89 C62 1_555 1_555
H69 C89 1_555 1_555
H70 C89 1_555 1_555
C90 C89 1_555 1_555
H71 C90 1_555 1_555
H72 C90 1_555 1_555
C91 C90 1_555 1_555
H73 C91 1_555 1_555
H74 C91 1_555 1_555
H75 C91 1_555 1_555
C92 C63 1_555 1_555
H76 C92 1_555 1_555
H77 C92 1_555 1_555
H78 C92 1_555 1_555
C93 C66 1_555 1_555
H79 C93 1_555 1_555
H80 C93 1_555 1_555
H81 C93 1_555 1_555
C94 C67 1_555 1_555
H82 C94 1_555 1_555
H83 C94 1_555 1_555
C95 C94 1_555 1_555
H84 C95 1_555 1_555
H85 C95 1_555 1_555
C96 C95 1_555 1_555
H86 C96 1_555 1_555
H87 C96 1_555 1_555
H88 C96 1_555 1_555
Cl1 C97 1_555 1_555
Cl2 C97 1_555 1_555
Cl3 C97 1_555 1_555
C97 H89 1_555 1_555
C1 C28 1_555 1_555
C4 C5 1_555 1_555
C10 C11 1_555 1_555
C12 C13 1_555 1_555
C15 C16 1_555 1_555
C16 C17 1_555 1_555
C19 C20 1_555 1_555
C22 C27 1_555 1_555
C26 C27 1_555 1_555
C33 C34 1_555 1_555
C39 C40 1_555 1_555
C49 C76 1_555 1_555
C52 C53 1_555 1_555
C58 C59 1_555 1_555
C60 C61 1_555 1_555
C63 C64 1_555 1_555
C64 C65 1_555 1_555
C67 C68 1_555 1_555
C70 C75 1_555 1_555
C74 C75 1_555 1_555
C81 C82 1_555 1_555
C87 C88 1_555 1_555

#END
