
#######################################################################
#
#                 Cambridge Crystallographic Data Centre
#                                CCDC 
#
#######################################################################
#
# If this CIF has been generated from an entry in the Cambridge 
# Structural Database, then it will include bibliographic, chemical, 
# crystal, experimental, refinement or atomic coordinate data resulting 
# from the CCDC's data processing and validation procedures.
#
#######################################################################

data_SEFTEC
_chemical_formula_moiety         'C29 H25 Cl1 N4 O1'
_chemical_name_systematic        
3-(p-Chlorophenyl)-4-((4,6-dimethyl-2-pyridyl)methyl)-4,6-diphenyl-2-oxo-1,2,3,4-tetrahydro-1,3,5-triazine
_symmetry_cell_setting           monoclinic
_symmetry_space_group_name_H-M   'P 21/n'
_symmetry_Int_Tables_number      14
_space_group_name_Hall           '-P 2yn'
loop_
_symmetry_equiv_pos_site_id
_symmetry_equiv_pos_as_xyz
1 x,y,z
2 1/2-x,1/2+y,1/2-z
3 -x,-y,-z
4 1/2+x,1/2-y,1/2+z
_cell_length_a                   21.63(1)
_cell_length_b                   8.072(7)
_cell_length_c                   15.46(1)
_cell_angle_alpha                90
_cell_angle_beta                 108.57(6)
_cell_angle_gamma                90
_cell_volume                     2558.74
_cell_formula_units_Z            4
loop_
_atom_site_label
_atom_site_type_symbol
_atom_site_fract_x
_atom_site_fract_y
_atom_site_fract_z
Cl1 Cl 0.6457(2) 0.2077(6) 0.5187(3)
O1 O 0.5223(3) 0.4462(9) 0.1104(5)
N1 N 0.4206(4) 0.5410(9) 0.0342(5)
C1 C 0.4671(6) 0.480(1) 0.1108(9)
N2 N 0.4477(3) 0.4597(9) 0.1847(7)
C2 C 0.3832(4) 0.529(1) 0.1902(7)
N3 N 0.3363(4) 0.5470(9) 0.1001(7)
C3 C 0.3558(5) 0.562(1) 0.0303(9)
C4 C 0.4942(3) 0.3986(9) 0.2664(4)
C5 C 0.4882(3) 0.2407(8) 0.2986(5)
C6 C 0.5351(3) 0.1814(7) 0.3765(5)
C7 C 0.5881(3) 0.2800(8) 0.4222(4)
C8 C 0.5942(3) 0.4380(8) 0.3900(5)
C9 C 0.5472(3) 0.4973(7) 0.3121(5)
C10 C 0.3535(3) 0.4070(8) 0.2433(5)
C11 C 0.3108(3) 0.2854(9) 0.1952(4)
C12 C 0.2850(3) 0.1711(7) 0.2416(5)
C13 C 0.3019(3) 0.1784(8) 0.3360(5)
C14 C 0.3446(3) 0.3000(9) 0.3842(4)
C15 C 0.3704(3) 0.4143(7) 0.3378(5)
C16 C 0.3930(5) 0.704(1) 0.2350(7)
C17 C 0.4113(5) 0.831(1) 0.1772(7)
N4 N 0.4746(4) 0.860(1) 0.1938(6)
C18 C 0.4907(5) 0.973(1) 0.1383(9)
C19 C 0.4446(6) 1.059(1) 0.0695(8)
C20 C 0.3789(6) 1.026(1) 0.0552(8)
C21 C 0.3630(5) 0.914(1) 0.1114(8)
C22 C 0.5623(6) 1.005(2) 0.1623(8)
C23 C 0.3283(6) 1.109(1) -0.0224(8)
C24 C 0.3090(3) 0.6083(9) -0.0600(4)
C25 C 0.3285(3) 0.647(1) -0.1349(6)
C26 C 0.2832(4) 0.705(1) -0.2147(5)
C27 C 0.2183(3) 0.724(1) -0.2196(4)
C28 C 0.1987(2) 0.685(1) -0.1447(6)
C29 C 0.2441(4) 0.6273(9) -0.0649(4)
H1 H 0.4331 0.5694 -0.0175
H2 H 0.4519 0.1733 0.2673
H3 H 0.5310 0.0734 0.3985
H4 H 0.6304 0.5054 0.4213
H5 H 0.5514 0.6053 0.2901
H6 H 0.2993 0.2804 0.1306
H7 H 0.2558 0.0880 0.2086
H8 H 0.2842 0.1002 0.3677
H9 H 0.3561 0.3049 0.4488
H10 H 0.3996 0.4974 0.3707
H11 H 0.4266 0.6979 0.2922
H12 H 0.3534 0.7370 0.2444
H13 H 0.4576 1.1385 0.0332
H14 H 0.3185 0.8932 0.1048
H15 H 0.5856 0.9343 0.2106
H16 H 0.5710 1.1176 0.1808
H17 H 0.5758 0.9854 0.1104
H18 H 0.3490 1.1820 -0.0529
H19 H 0.2994 1.1705 0.0005
H20 H 0.3044 1.0277 -0.0641
H21 H 0.3729 0.6342 -0.1316
H22 H 0.2965 0.7318 -0.2659
H23 H 0.1873 0.7638 -0.2741
H24 H 0.1543 0.6982 -0.1480
H25 H 0.2307 0.6007 -0.0137
loop_
_geom_bond_atom_site_label_1
_geom_bond_atom_site_label_2
_geom_bond_site_symmetry_1
_geom_bond_site_symmetry_2
Cl1 C7 1_555 1_555
O1 C1 1_555 1_555
N1 C1 1_555 1_555
C1 N2 1_555 1_555
N2 C2 1_555 1_555
C2 N3 1_555 1_555
N3 C3 1_555 1_555
C3 N1 1_555 1_555
C4 N2 1_555 1_555
C5 C4 1_555 1_555
C6 C5 1_555 1_555
C7 C6 1_555 1_555
C8 C7 1_555 1_555
C9 C4 1_555 1_555
C10 C2 1_555 1_555
C11 C10 1_555 1_555
C12 C11 1_555 1_555
C13 C12 1_555 1_555
C14 C13 1_555 1_555
C15 C10 1_555 1_555
C16 C2 1_555 1_555
C17 C16 1_555 1_555
N4 C17 1_555 1_555
C18 N4 1_555 1_555
C19 C18 1_555 1_555
C20 C19 1_555 1_555
C21 C17 1_555 1_555
C22 C18 1_555 1_555
C23 C20 1_555 1_555
C24 C3 1_555 1_555
C25 C24 1_555 1_555
C26 C25 1_555 1_555
C27 C26 1_555 1_555
C28 C27 1_555 1_555
C29 C24 1_555 1_555
H1 N1 1_555 1_555
H2 C5 1_555 1_555
H3 C6 1_555 1_555
H4 C8 1_555 1_555
H5 C9 1_555 1_555
H6 C11 1_555 1_555
H7 C12 1_555 1_555
H8 C13 1_555 1_555
H9 C14 1_555 1_555
H10 C15 1_555 1_555
H11 C16 1_555 1_555
H12 C16 1_555 1_555
H13 C19 1_555 1_555
H14 C21 1_555 1_555
H15 C22 1_555 1_555
H16 C22 1_555 1_555
H17 C22 1_555 1_555
H18 C23 1_555 1_555
H19 C23 1_555 1_555
H20 C23 1_555 1_555
H21 C25 1_555 1_555
H22 C26 1_555 1_555
H23 C27 1_555 1_555
H24 C28 1_555 1_555
H25 C29 1_555 1_555
C8 C9 1_555 1_555
C14 C15 1_555 1_555
C20 C21 1_555 1_555
C28 C29 1_555 1_555

#END
