
#######################################################################
#
#                 Cambridge Crystallographic Data Centre
#                                CCDC 
#
#######################################################################
#
# If this CIF has been generated from an entry in the Cambridge 
# Structural Database, then it will include bibliographic, chemical, 
# crystal, experimental, refinement or atomic coordinate data resulting 
# from the CCDC's data processing and validation procedures.
#
#######################################################################

data_SEFVUX
_chemical_formula_moiety         'C13 H15 Br1 O1'
_chemical_name_systematic        
(R)-2-(4-bromophenyl)-4,5-dimethyl-3,6-dihydro-2H-pyran
_symmetry_cell_setting           orthorhombic
_symmetry_space_group_name_H-M   'P 21 21 21'
_symmetry_Int_Tables_number      19
_space_group_name_Hall           'P 2ac 2ab'
loop_
_symmetry_equiv_pos_site_id
_symmetry_equiv_pos_as_xyz
1 x,y,z
2 1/2-x,-y,1/2+z
3 -x,1/2+y,1/2-z
4 1/2+x,1/2-y,-z
_cell_length_a                   6.836(2)
_cell_length_b                   11.5511(9)
_cell_length_c                   15.3107(9)
_cell_angle_alpha                90
_cell_angle_beta                 90
_cell_angle_gamma                90
_cell_volume                     1208.98
_exptl_crystal_colour            colorless
_exptl_crystal_description       prism
_cell_formula_units_Z            4
_chemical_properties_physical    'heat-sensitive, Heat-sensitive'
_exptl_crystal_recrystallization_method pentane
loop_
_atom_site_label
_atom_site_type_symbol
_atom_site_fract_x
_atom_site_fract_y
_atom_site_fract_z
C1 C 0.2649(2) 0.31886(15) 0.58840(9)
H1 H 0.2141 0.3330 0.5281
C2 C 0.0983(2) 0.33294(15) 0.65405(10)
H2 H -0.0170 0.2890 0.6333
H3 H 0.1388 0.2996 0.7108
C3 C 0.0412(2) 0.45776(16) 0.66716(11)
C4 C 0.1547(2) 0.54322(15) 0.63708(10)
C5 C 0.3487(2) 0.51668(15) 0.59450(12)
H4 H 0.3372 0.5309 0.5309
H5 H 0.4484 0.5707 0.6177
C6 C -0.1475(3) 0.47500(19) 0.71628(15)
H6 H -0.1378 0.4383 0.7738
H7 H -0.2553 0.4399 0.6834
H8 H -0.1722 0.5580 0.7235
C7 C 0.1107(3) 0.67048(16) 0.64221(12)
H9 H -0.0276 0.6816 0.6568
H10 H 0.1386 0.7068 0.5857
H11 H 0.1924 0.7061 0.6874
C8 C 0.3544(2) 0.19974(13) 0.59287(9)
C9 C 0.5089(2) 0.17724(16) 0.65002(10)
H12 H 0.5614 0.2382 0.6845
C10 C 0.5871(2) 0.06592(15) 0.65699(11)
H13 H 0.6922 0.0506 0.6959
C11 C 0.5082(2) -0.02206(14) 0.60604(10)
C12 C 0.3551(3) -0.00181(14) 0.54863(11)
H14 H 0.3031 -0.0630 0.5142
C13 C 0.2789(2) 0.10969(15) 0.54221(11)
H15 H 0.1743 0.1246 0.5029
Br1 Br 0.61502(3) -0.17356(2) 0.61574(2)
O1 O 0.41480(15) 0.40130(10) 0.60776(8)
loop_
_geom_bond_atom_site_label_1
_geom_bond_atom_site_label_2
_geom_bond_site_symmetry_1
_geom_bond_site_symmetry_2
C1 H1 1_555 1_555
C2 C1 1_555 1_555
H2 C2 1_555 1_555
H3 C2 1_555 1_555
C3 C2 1_555 1_555
C4 C3 1_555 1_555
C5 C4 1_555 1_555
H4 C5 1_555 1_555
H5 C5 1_555 1_555
C6 C3 1_555 1_555
H6 C6 1_555 1_555
H7 C6 1_555 1_555
H8 C6 1_555 1_555
C7 C4 1_555 1_555
H9 C7 1_555 1_555
H10 C7 1_555 1_555
H11 C7 1_555 1_555
C8 C1 1_555 1_555
C9 C8 1_555 1_555
H12 C9 1_555 1_555
C10 C9 1_555 1_555
H13 C10 1_555 1_555
C11 C10 1_555 1_555
C12 C11 1_555 1_555
H14 C12 1_555 1_555
C13 C8 1_555 1_555
H15 C13 1_555 1_555
Br1 C11 1_555 1_555
O1 C1 1_555 1_555
C5 O1 1_555 1_555
C12 C13 1_555 1_555

#END
