
#######################################################################
#
#                 Cambridge Crystallographic Data Centre
#                                CCDC 
#
#######################################################################
#
# If this CIF has been generated from an entry in the Cambridge 
# Structural Database, then it will include bibliographic, chemical, 
# crystal, experimental, refinement or atomic coordinate data resulting 
# from the CCDC's data processing and validation procedures.
#
#######################################################################

data_SEFWAE
_chemical_formula_moiety         
'C66 H33 F46 N3 O8 P2 S10,x(C1 H2 Cl2),x(C6 H14)'
_chemical_name_systematic        
"N,N'-((11bS,11b'S)-azanediylbis(2,6-bis(3,5-bis(pentafluoro- 1^6^-sulfanyl)phenyl)-41^5^-dinaphtho[2,1-d:1',2'- f][1,3,2]dioxaphosphepine-4-yl-4-ylidene))bis(1,1,1-trifluoromethanesulfonamide) dichloromethane n-hexane solvate"
_symmetry_cell_setting           orthorhombic
_symmetry_space_group_name_H-M   'P 21 21 2'
_symmetry_Int_Tables_number      18
_space_group_name_Hall           'P 2 2ab'
loop_
_symmetry_equiv_pos_site_id
_symmetry_equiv_pos_as_xyz
1 x,y,z
2 -x,-y,z
3 1/2-x,1/2+y,-z
4 1/2+x,1/2-y,-z
_cell_length_a                   18.7656(13)
_cell_length_b                   41.726(3)
_cell_length_c                   14.4668(10)
_cell_angle_alpha                90
_cell_angle_beta                 90
_cell_angle_gamma                90
_cell_volume                     11327.7
_exptl_crystal_colour            colorless
_exptl_crystal_description       plate
_cell_formula_units_Z            4
_exptl_crystal_recrystallization_method dichloromethane,hexane
loop_
_atom_site_label
_atom_site_type_symbol
_atom_site_fract_x
_atom_site_fract_y
_atom_site_fract_z
C1 C -0.0927(7) 0.3431(4) 0.5747(8)
C2 C 0.1322(13) 0.4636(6) 0.3201(18)
C3 C -0.1190(4) 0.32717(16) 0.2149(5)
C4 C -0.1132(4) 0.29513(16) 0.1997(4)
C5 C -0.1765(3) 0.27611(17) 0.1881(5)
C6 C -0.1755(4) 0.24255(18) 0.1802(5)
H1 H -0.1313 0.2314 0.1820
C7 C -0.2386(4) 0.22547(18) 0.1698(5)
H2 H -0.2371 0.2028 0.1630
C8 C -0.3053(4) 0.2416(2) 0.1692(5)
H3 H -0.3483 0.2297 0.1631
C9 C -0.3075(4) 0.27416(18) 0.1772(5)
H4 H -0.3523 0.2848 0.1762
C10 C -0.2437(3) 0.29270(17) 0.1873(5)
C11 C -0.2458(3) 0.32566(17) 0.1999(5)
H5 H -0.2908 0.3361 0.1986
C12 C -0.1853(4) 0.34404(18) 0.2145(5)
C13 C -0.1913(4) 0.37897(17) 0.2275(5)
C14 C -0.2424(4) 0.39165(19) 0.2894(6)
H6 H -0.2707 0.3777 0.3261
C15 C -0.2506(4) 0.4242(2) 0.2958(6)
C16 C -0.2105(5) 0.4456(2) 0.2446(7)
H7 H -0.2173 0.4680 0.2504
C17 C -0.1597(5) 0.4330(2) 0.1841(7)
C18 C -0.1497(4) 0.40018(19) 0.1766(6)
H8 H -0.1140 0.3921 0.1363
C19 C -0.0018(3) 0.28208(16) 0.2825(4)
C20 C -0.0423(3) 0.27926(16) 0.2040(5)
C21 C -0.0156(4) 0.25937(16) 0.1311(5)
C22 C -0.0490(4) 0.25731(18) 0.0444(5)
H9 H -0.0905 0.2697 0.0329
C23 C -0.0231(4) 0.23775(19) -0.0240(5)
H10 H -0.0460 0.2369 -0.0826
C24 C 0.0378(4) 0.21895(19) -0.0065(5)
H11 H 0.0552 0.2051 -0.0534
C25 C 0.0720(4) 0.22031(18) 0.0755(5)
H12 H 0.1126 0.2072 0.0860
C26 C 0.0476(4) 0.24109(17) 0.1460(5)
C27 C 0.0834(4) 0.24328(17) 0.2328(5)
H13 H 0.1246 0.2306 0.2435
C28 C 0.0595(3) 0.26323(17) 0.3005(4)
C29 C 0.0913(4) 0.26159(18) 0.3962(5)
C30 C 0.1641(4) 0.26304(17) 0.4099(5)
H14 H 0.1950 0.2676 0.3595
C31 C 0.1922(4) 0.25786(17) 0.4975(5)
C32 C 0.1477(4) 0.25061(18) 0.5721(5)
H15 H 0.1667 0.2474 0.6322
C33 C 0.0748(4) 0.24819(18) 0.5559(5)
C34 C 0.0474(4) 0.25390(17) 0.4701(5)
H16 H -0.0026 0.2526 0.4609
C35 C 0.2607(4) 0.35320(18) 0.3578(5)
C36 C 0.2917(4) 0.34163(17) 0.2776(5)
C37 C 0.3657(4) 0.3473(2) 0.2622(5)
C38 C 0.3991(4) 0.34059(19) 0.1758(5)
H17 H 0.3730 0.3305 0.1275
C39 C 0.4693(4) 0.3488(2) 0.1631(6)
H18 H 0.4907 0.3456 0.1043
C40 C 0.5094(5) 0.3617(2) 0.2346(7)
H19 H 0.5588 0.3658 0.2254
C41 C 0.4793(4) 0.3686(2) 0.3167(6)
H20 H 0.5075 0.3778 0.3643
C42 C 0.4060(4) 0.36231(19) 0.3334(6)
C43 C 0.3726(4) 0.37150(19) 0.4160(6)
H21 H 0.4005 0.3805 0.4642
C44 C 0.2996(4) 0.36773(19) 0.4293(5)
C45 C 0.2668(4) 0.38075(19) 0.5138(5)
C46 C 0.2838(6) 0.4109(3) 0.5440(7)
H22 H 0.3164 0.4236 0.5097
C47 C 0.2534(6) 0.4231(3) 0.6257(7)
C48 C 0.2061(6) 0.4044(2) 0.6782(7)
H23 H 0.1865 0.4123 0.7343
C49 C 0.1888(4) 0.37425(19) 0.6464(5)
C50 C 0.2180(4) 0.36153(19) 0.5661(5)
H24 H 0.2059 0.3405 0.5463
C51 C 0.1884(4) 0.34294(17) 0.1702(5)
C52 C 0.2461(4) 0.32634(18) 0.2059(5)
C53 C 0.2586(3) 0.29493(18) 0.1730(5)
C54 C 0.3097(4) 0.27445(19) 0.2155(5)
H25 H 0.3372 0.2820 0.2662
C55 C 0.3197(4) 0.2431(2) 0.1826(5)
H26 H 0.3520 0.2290 0.2129
C56 C 0.2816(4) 0.23250(19) 0.1048(5)
H27 H 0.2904 0.2116 0.0811
C57 C 0.2323(4) 0.25146(17) 0.0623(5)
H28 H 0.2073 0.2437 0.0099
C58 C 0.2180(4) 0.28303(17) 0.0962(5)
C59 C 0.1651(4) 0.30325(18) 0.0572(5)
H29 H 0.1393 0.2958 0.0050
C60 C 0.1499(4) 0.33259(16) 0.0912(5)
C61 C 0.0998(4) 0.35484(16) 0.0421(5)
C62 C 0.1227(4) 0.38586(17) 0.0221(5)
H30 H 0.1665 0.3935 0.0465
C63 C 0.0815(4) 0.40546(16) -0.0332(5)
C64 C 0.0164(4) 0.39573(18) -0.0689(5)
H31 H -0.0115 0.4094 -0.1069
C65 C -0.0058(4) 0.36478(16) -0.0458(5)
C66 C 0.0349(4) 0.34390(18) 0.0092(5)
H32 H 0.0184 0.3229 0.0233
N1 N 0.0636(3) 0.35024(16) 0.3053(4)
N2 N -0.0478(4) 0.36129(16) 0.4081(5)
N3 N 0.1359(5) 0.4043(2) 0.3498(6)
O1 O -0.0571(2) 0.34533(12) 0.2326(4)
O2 O -0.0232(2) 0.30401(11) 0.3516(3)
O3 O 0.1863(2) 0.34878(13) 0.3700(3)
O4 O 0.1696(3) 0.37221(12) 0.2120(3)
O5 O -0.1466(5) 0.3905(2) 0.4826(6)
O6 O -0.1675(4) 0.33576(19) 0.4240(5)
O7 O 0.0153(8) 0.4304(3) 0.3361(9)
O8 O 0.1010(12) 0.4386(5) 0.4791(13)
F1 F -0.1516(5) 0.3389(3) 0.6237(5)
F2 F -0.0569(5) 0.3175(2) 0.5644(6)
F3 F -0.0526(4) 0.3662(2) 0.6167(5)
F4 F 0.1332(19) 0.4545(8) 0.2377(19)
F5 F 0.0871(19) 0.4855(6) 0.332(2)
F6 F 0.1901(16) 0.4691(8) 0.353(2)
F7 F -0.3746(4) 0.45418(15) 0.4431(5)
F8 F -0.3467(3) 0.46427(14) 0.2980(5)
F9 F -0.2647(4) 0.46680(15) 0.4098(5)
F10 F -0.2924(4) 0.41735(16) 0.4545(4)
F11 F -0.3743(3) 0.41475(14) 0.3427(5)
F12 F -0.0636(5) 0.48376(15) 0.0563(7)
F13 F -0.0395(4) 0.43846(15) 0.1259(7)
F14 F -0.1259(6) 0.44204(15) 0.0260(5)
F15 F -0.1731(4) 0.48361(14) 0.1025(5)
F16 F -0.0849(4) 0.47980(15) 0.2040(6)
F17 F 0.3697(2) 0.26102(13) 0.5347(3)
F18 F 0.3022(2) 0.23726(12) 0.4315(3)
F19 F 0.2957(2) 0.28995(11) 0.4535(3)
F20 F 0.2773(2) 0.28232(12) 0.6041(3)
F21 F 0.2848(2) 0.22956(12) 0.5828(3)
F22 F -0.0297(2) 0.22224(15) 0.7298(3)
F23 F -0.0408(2) 0.26001(13) 0.6255(3)
F24 F -0.0201(2) 0.20882(12) 0.5841(3)
F25 F 0.0747(2) 0.20795(11) 0.6785(3)
F26 F 0.0535(2) 0.25881(13) 0.7194(3)
F27 F 0.2966(9) 0.4976(3) 0.6963(8)
F28 F 0.1908(6) 0.47095(17) 0.6838(7)
F29 F 0.2658(7) 0.47683(17) 0.5627(7)
F30 F 0.3572(7) 0.4570(3) 0.6434(7)
F31 F 0.2857(8) 0.4506(3) 0.7654(7)
F32 F 0.0732(3) 0.32892(12) 0.7669(4)
F33 F 0.0735(3) 0.37901(11) 0.7210(4)
F34 F 0.1630(3) 0.35951(15) 0.8062(3)
F35 F 0.1766(3) 0.31952(13) 0.7041(4)
F36 F 0.0881(2) 0.33898(12) 0.6195(3)
F37 F 0.1457(3) 0.47833(11) -0.0944(4)
F38 F 0.0959(3) 0.43899(11) -0.1701(3)
F39 F 0.1926(2) 0.43047(11) -0.0841(4)
F40 F 0.1370(3) 0.45242(10) 0.0370(3)
F41 F 0.0406(3) 0.46071(10) -0.0502(4)
F42 F -0.1634(2) 0.33985(12) -0.1351(3)
F43 F -0.0573(2) 0.31763(10) -0.1228(3)
F44 F -0.0710(3) 0.36542(12) -0.1918(3)
F45 F -0.1280(2) 0.38354(11) -0.0675(3)
F46 F -0.1138(2) 0.33616(11) 0.0016(3)
P1 P -0.01443(10) 0.34126(4) 0.32676(13)
P2 P 0.13278(10) 0.36958(5) 0.31138(13)
S1 S -0.11900(12) 0.35894(6) 0.46129(16)
S2 S -0.31718(13) 0.44017(6) 0.37456(19)
S3 S 0.09156(18) 0.42936(8) 0.3878(3)
S4 S -0.10790(19) 0.46008(6) 0.1158(3)
S5 S 0.28677(9) 0.25949(5) 0.51784(12)
S6 S 0.01861(9) 0.23453(5) 0.64850(12)
S7 S 0.2751(3) 0.46297(10) 0.6628(3)
S8 S 0.12699(11) 0.35010(5) 0.71034(14)
S9 S 0.11554(11) 0.44462(4) -0.06505(14)
S10 S -0.08989(10) 0.35116(5) -0.09414(13)
H33? H -0.0204 0.3771 0.4271
H34? H -0.0865 0.3665 0.3770
H35? H 0.1802 0.4111 0.3476
H36? H 0.0897 0.4079 0.3521
S11? S -0.0649(7) 0.3753(4) 0.4756(10)
S12? S 0.1563(11) 0.4310(4) 0.3799(12)
C67? C -0.026(4) 0.5337(17) 0.623(5)
C68? C 0.036(2) 0.5669(11) 0.660(3)
Cl1? Cl 0.2268(11) 0.5852(5) 0.7243(15)
Cl2? Cl 0.0796(9) 0.5422(4) 0.7731(12)
Cl3? Cl 0.1244(9) 0.5479(4) 0.7886(11)
Cl4? Cl 0.1749(16) 0.5665(7) 0.680(2)
C69? C 0.444(2) 0.3890(11) 0.913(3)
C70? C 0.600(5) 0.389(3) 0.507(8)
C71? C 0.701(5) 0.306(3) 0.537(7)
Cl5? Cl 0.6299(6) 0.3380(3) 0.4771(8)
Cl6? Cl 0.6318(11) 0.3333(5) 0.5244(15)
Cl7? Cl 0.6658(7) 0.3332(3) 0.6724(9)
Cl8? Cl 0.6984(12) 0.3277(5) 0.6874(14)
C72? C 0.566(8) 0.419(4) 0.691(10)
C73? C 0.352(3) 0.6380(12) 0.000(3)
C74? C 0.326(5) 0.541(2) -0.091(7)
C75? C 0.320(3) 0.5505(16) 0.019(4)
C76? C 0.413(5) 0.549(2) 0.080(6)
C77? C 0.324(3) 0.5206(16) -0.022(5)
C78? C 0.342(2) 0.5822(11) -0.025(3)
C79? C 0.308(5) 0.588(2) -0.102(7)
C80? C 0.359(7) 0.580(3) 0.044(9)
Cl9? Cl 0.3225(15) 0.6421(7) -0.026(2)
Cl10? Cl 0.336(3) 0.6082(14) 0.027(3)
C81? C 0.380(3) 0.4419(14) 0.161(4)
Cl11? Cl 0.1011(8) 0.5567(4) 0.4146(11)
Cl12? Cl 0.0986(12) 0.5123(5) 0.5210(15)
C82? C 0.6996(17) 0.3420(8) 0.559(2)
C83? C 0.591(3) 0.3843(12) 0.596(4)
C84? C 0.6619(17) 0.3586(8) 0.602(2)
C85? C 0.3138(9) 0.3638(4) 0.9426(12)
C86? C 0.3838(17) 0.3577(7) 0.902(2)
C87? C 0.3852(12) 0.3514(5) 0.8029(16)
C88? C 0.4503(14) 0.3365(6) 0.7647(19)
C89? C 0.4494(12) 0.3193(5) 0.6588(16)
C90? C 0.399(3) 0.3417(14) 0.669(4)
C91? C 0.529(5) 0.447(2) 0.782(7)
C92? C 0.534(5) 0.434(2) 0.662(6)
C93? C 0.437(2) 0.4626(10) 0.398(3)
C94? C 0.3048(18) 0.4290(8) 0.151(2)
C95? C 0.348(5) 0.4560(17) 0.217(5)
C96? C 0.400(3) 0.4567(13) 0.322(5)
C97? C 0.404(3) 0.4524(11) 0.234(4)
C98? C 0.281(5) 0.4597(18) 0.243(6)
C99? C 0.361(4) 0.4683(16) 0.056(5)
loop_
_geom_bond_atom_site_label_1
_geom_bond_atom_site_label_2
_geom_bond_site_symmetry_1
_geom_bond_site_symmetry_2
C1 F1 1_555 1_555
C2 F4 1_555 1_555
C3 C4 1_555 1_555
C4 C5 1_555 1_555
C5 C6 1_555 1_555
C6 H1 1_555 1_555
C7 C6 1_555 1_555
H2 C7 1_555 1_555
C8 C7 1_555 1_555
H3 C8 1_555 1_555
C9 C8 1_555 1_555
H4 C9 1_555 1_555
C10 C5 1_555 1_555
C11 C10 1_555 1_555
H5 C11 1_555 1_555
C12 C3 1_555 1_555
C13 C12 1_555 1_555
C14 C13 1_555 1_555
H6 C14 1_555 1_555
C15 C14 1_555 1_555
C16 C15 1_555 1_555
H7 C16 1_555 1_555
C17 C16 1_555 1_555
C18 C13 1_555 1_555
H8 C18 1_555 1_555
C19 C20 1_555 1_555
C20 C4 1_555 1_555
C21 C20 1_555 1_555
C22 C21 1_555 1_555
H9 C22 1_555 1_555
C23 C22 1_555 1_555
H10 C23 1_555 1_555
C24 C23 1_555 1_555
H11 C24 1_555 1_555
C25 C24 1_555 1_555
H12 C25 1_555 1_555
C26 C21 1_555 1_555
C27 C26 1_555 1_555
H13 C27 1_555 1_555
C28 C19 1_555 1_555
C29 C28 1_555 1_555
C30 C29 1_555 1_555
H14 C30 1_555 1_555
C31 C30 1_555 1_555
C32 C31 1_555 1_555
H15 C32 1_555 1_555
C33 C32 1_555 1_555
C34 C29 1_555 1_555
H16 C34 1_555 1_555
C35 C36 1_555 1_555
C36 C37 1_555 1_555
C37 C38 1_555 1_555
C38 H17 1_555 1_555
C39 C38 1_555 1_555
H18 C39 1_555 1_555
C40 C39 1_555 1_555
H19 C40 1_555 1_555
C41 C40 1_555 1_555
H20 C41 1_555 1_555
C42 C37 1_555 1_555
C43 C42 1_555 1_555
H21 C43 1_555 1_555
C44 C35 1_555 1_555
C45 C44 1_555 1_555
C46 C45 1_555 1_555
H22 C46 1_555 1_555
C47 C46 1_555 1_555
C48 C47 1_555 1_555
H23 C48 1_555 1_555
C49 C48 1_555 1_555
C50 C45 1_555 1_555
H24 C50 1_555 1_555
C51 C52 1_555 1_555
C52 C36 1_555 1_555
C53 C52 1_555 1_555
C54 C53 1_555 1_555
H25 C54 1_555 1_555
C55 C54 1_555 1_555
H26 C55 1_555 1_555
C56 C55 1_555 1_555
H27 C56 1_555 1_555
C57 C56 1_555 1_555
H28 C57 1_555 1_555
C58 C53 1_555 1_555
C59 C58 1_555 1_555
H29 C59 1_555 1_555
C60 C51 1_555 1_555
C61 C60 1_555 1_555
C62 C61 1_555 1_555
H30 C62 1_555 1_555
C63 C62 1_555 1_555
C64 C63 1_555 1_555
H31 C64 1_555 1_555
C65 C64 1_555 1_555
C66 C61 1_555 1_555
H32 C66 1_555 1_555
N1 P1 1_555 1_555
N2 P1 1_555 1_555
N3 P2 1_555 1_555
O1 C3 1_555 1_555
O2 C19 1_555 1_555
O3 C35 1_555 1_555
O4 C51 1_555 1_555
O5 S1 1_555 1_555
O6 S1 1_555 1_555
O7 S3 1_555 1_555
O8 S3 1_555 1_555
F2 C1 1_555 1_555
F3 C1 1_555 1_555
F5 C2 1_555 1_555
F6 C2 1_555 1_555
F7 S2 1_555 1_555
F8 S2 1_555 1_555
F9 S2 1_555 1_555
F10 S2 1_555 1_555
F11 S2 1_555 1_555
F12 S4 1_555 1_555
F13 S4 1_555 1_555
F14 S4 1_555 1_555
F15 S4 1_555 1_555
F16 S4 1_555 1_555
F17 S5 1_555 1_555
F18 S5 1_555 1_555
F19 S5 1_555 1_555
F20 S5 1_555 1_555
F21 S5 1_555 1_555
F22 S6 1_555 1_555
F23 S6 1_555 1_555
F24 S6 1_555 1_555
F25 S6 1_555 1_555
F26 S6 1_555 1_555
F27 S7 1_555 1_555
F28 S7 1_555 1_555
F29 S7 1_555 1_555
F30 S7 1_555 1_555
F31 S7 1_555 1_555
F32 S8 1_555 1_555
F33 S8 1_555 1_555
F34 S8 1_555 1_555
F35 S8 1_555 1_555
F36 S8 1_555 1_555
F37 S9 1_555 1_555
F38 S9 1_555 1_555
F39 S9 1_555 1_555
F40 S9 1_555 1_555
F41 S9 1_555 1_555
F42 S10 1_555 1_555
F43 S10 1_555 1_555
F44 S10 1_555 1_555
F45 S10 1_555 1_555
F46 S10 1_555 1_555
P1 O1 1_555 1_555
P2 N1 1_555 1_555
S1 C1 1_555 1_555
S2 C15 1_555 1_555
S3 C2 1_555 1_555
S4 C17 1_555 1_555
S5 C31 1_555 1_555
S6 C33 1_555 1_555
S7 C47 1_555 1_555
S8 C49 1_555 1_555
S9 C63 1_555 1_555
S10 C65 1_555 1_555
C9 C10 1_555 1_555
C11 C12 1_555 1_555
C17 C18 1_555 1_555
C25 C26 1_555 1_555
C27 C28 1_555 1_555
C33 C34 1_555 1_555
C41 C42 1_555 1_555
C43 C44 1_555 1_555
C49 C50 1_555 1_555
C57 C58 1_555 1_555
C59 C60 1_555 1_555
C65 C66 1_555 1_555
N2 S1 1_555 1_555
N3 S3 1_555 1_555
O2 P1 1_555 1_555
O3 P2 1_555 1_555
O4 P2 1_555 1_555

#END
