
#######################################################################
#
#                 Cambridge Crystallographic Data Centre
#                                CCDC 
#
#######################################################################
#
# If this CIF has been generated from an entry in the Cambridge 
# Structural Database, then it will include bibliographic, chemical, 
# crystal, experimental, refinement or atomic coordinate data resulting 
# from the CCDC's data processing and validation procedures.
#
#######################################################################

data_SEFXUY
_chemical_formula_moiety         'C30 H8 F10 N6 O6'
_chemical_name_systematic        
5,17-bis(pentafluorophenoxy)-2,8,14,20-tetraoxa-4,6,16,18,26,28-hexaazapentacyclo[19.3.1.1^3,7^.1^9,13^.1^15,19^]octacosa-1(25),3(28),4,6,9(27),10,12,15(26),16,18,21,23-dodecaene
_symmetry_cell_setting           monoclinic
_symmetry_space_group_name_H-M   'P 21/n'
_symmetry_Int_Tables_number      14
_space_group_name_Hall           '-P 2yn'
loop_
_symmetry_equiv_pos_site_id
_symmetry_equiv_pos_as_xyz
1 x,y,z
2 1/2-x,1/2+y,1/2-z
3 -x,-y,-z
4 1/2+x,1/2-y,1/2+z
_cell_length_a                   12.587(3)
_cell_length_b                   18.349(4)
_cell_length_c                   13.403(3)
_cell_angle_alpha                90
_cell_angle_beta                 106.57(3)
_cell_angle_gamma                90
_cell_volume                     2966.99
_exptl_crystal_colour            colorless
_exptl_crystal_description       block
_cell_formula_units_Z            4
loop_
_atom_site_label
_atom_site_type_symbol
_atom_site_fract_x
_atom_site_fract_y
_atom_site_fract_z
F1 F 0.9758(3) 0.1979(2) 0.2956(3)
F2 F 1.1679(3) 0.1413(2) 0.4174(3)
F3 F 1.2813(3) 0.2112(2) 0.5952(3)
F4 F 1.1975(3) 0.3336(2) 0.6544(3)
F5 F 1.0050(3) 0.39177(19) 0.5321(3)
F6 F -0.0286(4) -0.0494(3) -0.1180(5)
F7 F -0.1443(4) 0.0016(3) -0.3064(5)
F8 F -0.0354(6) 0.0507(3) -0.4408(4)
F9 F 0.1892(5) 0.0456(3) -0.3877(3)
F10 F 0.3041(3) -0.0028(2) -0.1956(3)
O1 O 0.8920(3) 0.3274(2) 0.3481(3)
O2 O 0.6989(3) 0.1437(2) 0.4394(3)
O3 O 0.3981(3) -0.01418(19) 0.2685(3)
O4 O 0.5221(3) 0.33277(19) 0.2374(3)
O5 O 0.2212(3) 0.17554(19) 0.0664(3)
O6 O 0.1982(4) -0.0558(2) -0.0603(3)
N1 N 0.7993(4) 0.2327(2) 0.3973(3)
N2 N 0.6018(3) 0.2357(2) 0.3380(3)
N3 N 0.7075(4) 0.3304(2) 0.2893(3)
N4 N 0.3143(3) 0.0842(2) 0.1726(3)
N5 N 0.2985(4) -0.0365(2) 0.1051(4)
N6 N 0.2067(4) 0.0628(2) -0.0011(3)
C1 C 1.0306(5) 0.2319(3) 0.3834(4)
C2 C 1.1285(5) 0.2029(3) 0.4458(5)
C3 C 1.1857(5) 0.2382(3) 0.5353(5)
C4 C 1.1448(5) 0.3009(3) 0.5647(4)
C5 C 1.0459(5) 0.3299(3) 0.5024(5)
C6 C 0.9876(4) 0.2958(3) 0.4109(4)
C7 C 0.7931(4) 0.2941(3) 0.3449(4)
C8 C 0.6142(4) 0.2976(3) 0.2908(4)
C9 C 0.6984(4) 0.2061(3) 0.3893(4)
C10 C 0.5924(4) 0.1133(3) 0.4327(4)
C11 C 0.5461(5) 0.0672(3) 0.3521(4)
H1 H 0.5822 0.0565 0.3004
C12 C 0.4458(5) 0.0368(3) 0.3484(4)
C13 C 0.3918(4) 0.0512(3) 0.4230(4)
H2 H 0.3218 0.0299 0.4187
C14 C 0.4428(4) 0.0976(3) 0.5041(4)
H3 H 0.4078 0.1078 0.5567
C15 C 0.5443(5) 0.1291(3) 0.5095(4)
H4 H 0.5794 0.1608 0.5651
C16 C 0.3345(5) 0.0126(3) 0.1792(4)
C17 C 0.2345(5) -0.0063(3) 0.0173(4)
C18 C 0.2494(4) 0.1045(3) 0.0813(4)
C19 C 0.4172(4) 0.3014(3) 0.2309(4)
C20 C 0.3743(4) 0.2508(3) 0.1565(4)
H5 H 0.4154 0.2339 0.1117
C21 C 0.2695(4) 0.2247(3) 0.1477(4)
C22 C 0.2078(5) 0.2483(3) 0.2115(4)
H6 H 0.1362 0.2289 0.2051
C23 C 0.2536(5) 0.3013(3) 0.2854(5)
H7 H 0.2118 0.3196 0.3288
C24 C 0.3590(5) 0.3277(3) 0.2964(4)
H8 H 0.3907 0.3631 0.3479
C25 C 0.1390(5) -0.0288(3) -0.1569(4)
C26 C 0.0260(6) -0.0271(4) -0.1862(6)
C27 C -0.0329(6) -0.0020(5) -0.2818(9)
C28 C 0.0207(9) 0.0215(4) -0.3499(6)
C29 C 0.1356(7) 0.0206(3) -0.3229(5)
C30 C 0.1930(5) -0.0043(3) -0.2260(4)
loop_
_geom_bond_atom_site_label_1
_geom_bond_atom_site_label_2
_geom_bond_site_symmetry_1
_geom_bond_site_symmetry_2
F1 C1 1_555 1_555
F2 C2 1_555 1_555
F3 C3 1_555 1_555
F4 C4 1_555 1_555
F5 C5 1_555 1_555
F6 C26 1_555 1_555
F7 C27 1_555 1_555
F8 C28 1_555 1_555
F9 C29 1_555 1_555
F10 C30 1_555 1_555
O1 C6 1_555 1_555
O2 C9 1_555 1_555
O3 C12 1_555 1_555
O4 C8 1_555 1_555
O5 C18 1_555 1_555
O6 C17 1_555 1_555
N1 C7 1_555 1_555
N2 C8 1_555 1_555
N3 C7 1_555 1_555
N4 C16 1_555 1_555
N5 C16 1_555 1_555
N6 C17 1_555 1_555
C1 C2 1_555 1_555
C2 C3 1_555 1_555
C3 C4 1_555 1_555
C4 C5 1_555 1_555
C5 C6 1_555 1_555
C6 C1 1_555 1_555
C7 O1 1_555 1_555
C8 N3 1_555 1_555
C9 N1 1_555 1_555
C10 O2 1_555 1_555
C11 C10 1_555 1_555
H1 C11 1_555 1_555
C12 C11 1_555 1_555
C13 C12 1_555 1_555
H2 C13 1_555 1_555
C14 C13 1_555 1_555
H3 C14 1_555 1_555
C15 C10 1_555 1_555
H4 C15 1_555 1_555
C16 O3 1_555 1_555
C17 N5 1_555 1_555
C18 N4 1_555 1_555
C19 O4 1_555 1_555
C20 C19 1_555 1_555
H5 C20 1_555 1_555
C21 O5 1_555 1_555
C22 C21 1_555 1_555
H6 C22 1_555 1_555
C23 C22 1_555 1_555
H7 C23 1_555 1_555
C24 C19 1_555 1_555
H8 C24 1_555 1_555
C25 O6 1_555 1_555
C26 C25 1_555 1_555
C27 C26 1_555 1_555
C28 C27 1_555 1_555
C29 C28 1_555 1_555
C30 C25 1_555 1_555
N2 C9 1_555 1_555
N6 C18 1_555 1_555
C14 C15 1_555 1_555
C20 C21 1_555 1_555
C23 C24 1_555 1_555
C29 C30 1_555 1_555

#END
