
#######################################################################
#
#                 Cambridge Crystallographic Data Centre
#                                CCDC 
#
#######################################################################
#
# If this CIF has been generated from an entry in the Cambridge 
# Structural Database, then it will include bibliographic, chemical, 
# crystal, experimental, refinement or atomic coordinate data resulting 
# from the CCDC's data processing and validation procedures.
#
#######################################################################

data_SEFYAF
_chemical_formula_moiety         'C8 H20 N1 1+,C30 H18 N6 O6,Cl1 1-,H2 O1'
_chemical_name_systematic        
'N,N,N-Triethylethanaminium 5,17-diphenoxy-2,8,14,20-tetraoxa-4,6,16,18,26,28-hexaazapentacyclo-[19.3.1.1^3,7^.1^9,13^.1^15,19^]octacosa-1(25),3(28),4,6,9(27),10,12,15(26),16,18,21,23-dodecaene chloride monohydrate'
_symmetry_cell_setting           triclinic
_symmetry_space_group_name_H-M   'P -1'
_symmetry_Int_Tables_number      2
_space_group_name_Hall           '-P 1'
loop_
_symmetry_equiv_pos_site_id
_symmetry_equiv_pos_as_xyz
1 x,y,z
2 -x,-y,-z
_cell_length_a                   12.102(2)
_cell_length_b                   12.290(3)
_cell_length_c                   13.841(3)
_cell_angle_alpha                66.29(3)
_cell_angle_beta                 76.08(3)
_cell_angle_gamma                86.19(3)
_cell_volume                     1828.44
_exptl_crystal_colour            colorless
_exptl_crystal_description       block
_cell_formula_units_Z            2
loop_
_atom_site_label
_atom_site_type_symbol
_atom_site_fract_x
_atom_site_fract_y
_atom_site_fract_z
Cl1 Cl 0.82945(4) 0.14588(4) 0.01264(4)
O1 O 0.67759(11) -0.23654(11) 0.36728(12)
O2 O 0.48130(10) 0.11472(11) 0.19932(10)
O3 O 0.77669(10) 0.34642(9) 0.17849(9)
O4 O 0.95419(9) -0.00904(10) 0.38047(9)
O5 O 1.03465(10) -0.35704(11) 0.34427(11)
O6 O 0.61273(10) 0.43237(11) -0.10391(9)
N1 N 0.85713(13) -0.29530(13) 0.35133(13)
N2 N 0.80850(11) -0.11472(12) 0.37429(11)
N3 N 0.99849(11) -0.18161(11) 0.36745(10)
N4 N 0.54668(12) 0.27378(12) 0.04774(11)
N5 N 0.69633(11) 0.39569(11) 0.03892(10)
N6 N 0.62971(11) 0.22248(12) 0.19945(11)
C1 C 0.96230(15) -0.27257(14) 0.35419(14)
C2 C 0.78601(14) -0.21326(15) 0.36401(14)
C3 C 0.91719(13) -0.10484(13) 0.37236(12)
C4 C 0.59568(14) -0.15228(15) 0.37577(15)
C5 C 0.51939(16) -0.17688(16) 0.47398(15)
H1 H 0.5264 -0.2458 0.5361
C6 C 0.43283(16) -0.09979(18) 0.48054(15)
H2 H 0.3808 -0.1142 0.5482
C7 C 0.42098(14) -0.00131(16) 0.38919(15)
H3 H 0.3596 0.0504 0.3929
C8 C 0.49960(14) 0.02026(15) 0.29305(14)
C9 C 0.58876(14) -0.05337(15) 0.28381(14)
H4 H 0.6431 -0.0367 0.2170
C10 C 0.55709(13) 0.20665(15) 0.14748(13)
C11 C 0.62104(13) 0.36555(14) -0.00209(13)
C12 C 0.69759(13) 0.31781(13) 0.13832(13)
C13 C 0.80217(13) 0.26461(13) 0.27555(12)
C14 C 0.78601(14) 0.30130(15) 0.35989(13)
H5 H 0.7527 0.3753 0.3538
C15 C 0.81934(15) 0.22810(15) 0.45345(14)
H6 H 0.8075 0.2512 0.5128
C16 C 0.86962(13) 0.12185(14) 0.46103(13)
H7 H 0.8928 0.0717 0.5251
C17 C 0.88567(12) 0.08957(13) 0.37417(13)
C18 C 0.85228(13) 0.15913(14) 0.27987(13)
H8 H 0.8633 0.1355 0.2209
C19 C 1.14901(14) -0.34839(15) 0.34803(15)
C20 C 1.22233(17) -0.26076(18) 0.26713(16)
H9 H 1.1966 -0.2008 0.2089
C21 C 1.33521(18) -0.2626(2) 0.2732(2)
H10 H 1.3876 -0.2020 0.2190
C22 C 1.37239(18) -0.3513(2) 0.3569(2)
H11 H 1.4498 -0.3512 0.3604
C23 C 1.29782(18) -0.43940(18) 0.43477(19)
H12 H 1.3241 -0.5016 0.4913
C24 C 1.18425(16) -0.43830(16) 0.43156(16)
H13 H 1.1318 -0.4985 0.4860
C25 C 0.70021(14) 0.51435(14) -0.17818(13)
C26 C 0.66429(17) 0.61682(16) -0.25071(14)
H14 H 0.5854 0.6316 -0.2450
C27 C 0.7456(2) 0.69775(17) -0.33209(16)
H15 H 0.7223 0.7681 -0.3834
C28 C 0.85982(19) 0.67683(18) -0.33901(16)
H16 H 0.9152 0.7335 -0.3938
C29 C 0.89349(17) 0.57298(18) -0.26583(15)
H17 H 0.9723 0.5586 -0.2707
C30 C 0.81365(15) 0.48955(16) -0.18551(14)
H18 H 0.8367 0.4170 -0.1367
N7 N 0.22923(11) 0.23558(12) -0.00442(11)
C31 C 0.26159(15) 0.12590(15) -0.02807(16)
H19 H 0.2059 0.0606 0.0223
H20 H 0.2551 0.1431 -0.1027
C32 C 0.37971(17) 0.08346(18) -0.01791(18)
H21 H 0.3933 0.0128 -0.0348
H22 H 0.3866 0.0635 0.0564
H23 H 0.4360 0.1465 -0.0688
C33 C 0.10727(14) 0.25891(16) -0.01645(17)
H24 H 0.1046 0.2676 -0.0901
H25 H 0.0588 0.1884 0.0362
C34 C 0.05642(16) 0.36752(18) 0.00059(19)
H26 H -0.0214 0.3759 -0.0099
H27 H 0.1027 0.4384 -0.0518
H28 H 0.0550 0.3586 0.0745
C35 C 0.30835(15) 0.34108(15) -0.08009(14)
H29 H 0.2838 0.4094 -0.0604
H30 H 0.3859 0.3219 -0.0680
C36 C 0.3144(2) 0.3787(2) -0.19919(17)
H31 H 0.3675 0.4473 -0.2414
H32 H 0.2386 0.4005 -0.2130
H33 H 0.3411 0.3128 -0.2206
C37 C 0.23835(15) 0.21462(16) 0.10911(14)
H34 H 0.3199 0.2100 0.1107
H35 H 0.2083 0.2843 0.1246
C38 C 0.1766(2) 0.1046(2) 0.19805(18)
H36 H 0.1873 0.0984 0.2680
H37 H 0.2072 0.0345 0.1851
H38 H 0.0953 0.1090 0.1991
O7 O 0.96918(14) -0.06127(15) 0.14167(11)
H39 H 0.9266 -0.0128 0.1063
H40 H 1.0186 -0.0870 0.1027
loop_
_geom_bond_atom_site_label_1
_geom_bond_atom_site_label_2
_geom_bond_site_symmetry_1
_geom_bond_site_symmetry_2
O1 C2 1_555 1_555
O2 C8 1_555 1_555
O3 C12 1_555 1_555
O4 C3 1_555 1_555
O5 C1 1_555 1_555
O6 C11 1_555 1_555
N1 C1 1_555 1_555
N2 C2 1_555 1_555
N3 C1 1_555 1_555
N4 C10 1_555 1_555
N5 C11 1_555 1_555
N6 C10 1_555 1_555
N7 C31 1_555 1_555
C2 N1 1_555 1_555
C3 N2 1_555 1_555
C4 O1 1_555 1_555
C5 C4 1_555 1_555
H1 C5 1_555 1_555
C6 C5 1_555 1_555
H2 C6 1_555 1_555
C7 C6 1_555 1_555
H3 C7 1_555 1_555
C8 C7 1_555 1_555
C9 C4 1_555 1_555
H4 C9 1_555 1_555
C10 O2 1_555 1_555
C11 N4 1_555 1_555
C12 N5 1_555 1_555
C13 O3 1_555 1_555
C14 C13 1_555 1_555
H5 C14 1_555 1_555
C15 C14 1_555 1_555
H6 C15 1_555 1_555
C16 C15 1_555 1_555
H7 C16 1_555 1_555
C17 O4 1_555 1_555
C18 C13 1_555 1_555
H8 C18 1_555 1_555
C19 O5 1_555 1_555
C20 C19 1_555 1_555
H9 C20 1_555 1_555
C21 C20 1_555 1_555
H10 C21 1_555 1_555
C22 C21 1_555 1_555
H11 C22 1_555 1_555
C23 C22 1_555 1_555
H12 C23 1_555 1_555
C24 C19 1_555 1_555
H13 C24 1_555 1_555
C25 O6 1_555 1_555
C26 C25 1_555 1_555
H14 C26 1_555 1_555
C27 C26 1_555 1_555
H15 C27 1_555 1_555
C28 C27 1_555 1_555
H16 C28 1_555 1_555
C29 C28 1_555 1_555
H17 C29 1_555 1_555
C30 C25 1_555 1_555
H18 C30 1_555 1_555
C31 H19 1_555 1_555
H20 C31 1_555 1_555
C32 C31 1_555 1_555
H21 C32 1_555 1_555
H22 C32 1_555 1_555
H23 C32 1_555 1_555
C33 N7 1_555 1_555
H24 C33 1_555 1_555
H25 C33 1_555 1_555
C34 C33 1_555 1_555
H26 C34 1_555 1_555
H27 C34 1_555 1_555
H28 C34 1_555 1_555
C35 N7 1_555 1_555
H29 C35 1_555 1_555
H30 C35 1_555 1_555
C36 C35 1_555 1_555
H31 C36 1_555 1_555
H32 C36 1_555 1_555
H33 C36 1_555 1_555
C37 N7 1_555 1_555
H34 C37 1_555 1_555
H35 C37 1_555 1_555
C38 C37 1_555 1_555
H36 C38 1_555 1_555
H37 C38 1_555 1_555
H38 C38 1_555 1_555
O7 H39 1_555 1_555
H40 O7 1_555 1_555
N3 C3 1_555 1_555
N6 C12 1_555 1_555
C8 C9 1_555 1_555
C16 C17 1_555 1_555
C17 C18 1_555 1_555
C23 C24 1_555 1_555
C29 C30 1_555 1_555

#END
