
#######################################################################
#
#                 Cambridge Crystallographic Data Centre
#                                CCDC 
#
#######################################################################
#
# If this CIF has been generated from an entry in the Cambridge 
# Structural Database, then it will include bibliographic, chemical, 
# crystal, experimental, refinement or atomic coordinate data resulting 
# from the CCDC's data processing and validation procedures.
#
#######################################################################

data_SEFYIO
_chemical_formula_moiety         'C18 H24 O4'
_chemical_name_systematic        
4a-methyl-2,5-dioxo-7-(propan-2-yl)-4-(prop-1-en-1-yl)decahydroindeno[7,1-bc]furan-3-carbaldehyde
_symmetry_cell_setting           monoclinic
_symmetry_space_group_name_H-M   'P 21'
_symmetry_Int_Tables_number      4
_space_group_name_Hall           'P 2yb'
loop_
_symmetry_equiv_pos_site_id
_symmetry_equiv_pos_as_xyz
1 x,y,z
2 -x,1/2+y,-z
_cell_length_a                   11.5612(2)
_cell_length_b                   6.25720(10)
_cell_length_c                   11.9279(2)
_cell_angle_alpha                90
_cell_angle_beta                 108.933(2)
_cell_angle_gamma                90
_cell_volume                     816.191
_exptl_crystal_colour            colorless
_exptl_crystal_description       block
_cell_formula_units_Z            2
loop_
_atom_site_label
_atom_site_type_symbol
_atom_site_fract_x
_atom_site_fract_y
_atom_site_fract_z
O1 O 0.41546(13) 0.7339(3) 0.58594(12)
O2 O 0.52982(13) 0.7116(3) 0.46812(13)
O3 O 0.06978(14) 0.2608(3) 0.45699(14)
O4 O 0.41595(16) 0.7445(4) 0.16432(15)
C1 C 0.14477(19) 0.4045(4) 0.48384(19)
C2 C 0.15195(18) 0.5688(4) 0.39220(18)
C3 C 0.23435(19) 0.4706(4) 0.32326(18)
H1 H 0.304240 0.402272 0.382137
C4 C 0.43234(19) 0.7503(4) 0.48024(18)
C5 C 0.2832(2) 0.6677(4) 0.27698(18)
H2 H 0.216460 0.731301 0.212523
C6 C 0.2462(2) 0.6485(4) 0.65654(19)
H3 H 0.163550 0.694292 0.651163
C7 C 0.21654(19) 0.7837(4) 0.44391(18)
H4 H 0.157226 0.901043 0.422986
C8 C 0.1727(2) 0.3027(4) 0.23407(19)
H5 H 0.130555 0.196708 0.259490
C9 C 0.31527(19) 0.8185(4) 0.38460(19)
H6 H 0.318901 0.968004 0.361400
C10 C 0.3903(2) 0.6266(4) 0.23282(19)
H7 H 0.438172 0.505809 0.259604
C11 C 0.2368(2) 0.4201(4) 0.60702(19)
H8 H 0.316314 0.375278 0.604822
H9 H 0.212965 0.323881 0.659440
C12 C 0.28985(19) 0.7936(4) 0.57686(18)
H10 H 0.289900 0.941376 0.604156
C13 C 0.0228(2) 0.6171(4) 0.3072(2)
H11 H -0.013940 0.487509 0.268836
H12 H 0.027997 0.718479 0.248638
H13 H -0.026153 0.675440 0.351188
C14 C 0.3261(2) 0.6597(4) 0.78875(19)
H14 H 0.408050 0.607031 0.796007
C15 C 0.1719(2) 0.2895(4) 0.1236(2)
H15 H 0.209960 0.397976 0.095327
C16 C 0.3379(2) 0.8883(5) 0.8363(2)
H16 H 0.381706 0.973392 0.796547
H17 H 0.381447 0.887344 0.919900
H18 H 0.257870 0.947670 0.822420
C17 C 0.1137(3) 0.1111(5) 0.0403(2)
H19 H 0.059147 0.169688 -0.031981
H20 H 0.068581 0.020743 0.076314
H21 H 0.175987 0.028823 0.023149
C18 C 0.2735(3) 0.5193(5) 0.8658(2)
H22 H 0.190788 0.561575 0.854972
H23 H 0.321921 0.536095 0.947601
H24 H 0.274975 0.372404 0.843130
loop_
_geom_bond_atom_site_label_1
_geom_bond_atom_site_label_2
_geom_bond_site_symmetry_1
_geom_bond_site_symmetry_2
O1 C4 1_555 1_555
O2 C4 1_555 1_555
O3 C1 1_555 1_555
O4 C10 1_555 1_555
C1 C2 1_555 1_555
C2 C3 1_555 1_555
C3 H1 1_555 1_555
C4 C9 1_555 1_555
C5 C3 1_555 1_555
H2 C5 1_555 1_555
C6 H3 1_555 1_555
C7 C2 1_555 1_555
H4 C7 1_555 1_555
C8 C3 1_555 1_555
H5 C8 1_555 1_555
C9 C5 1_555 1_555
H6 C9 1_555 1_555
C10 C5 1_555 1_555
H7 C10 1_555 1_555
C11 C1 1_555 1_555
H8 C11 1_555 1_555
H9 C11 1_555 1_555
C12 O1 1_555 1_555
H10 C12 1_555 1_555
C13 C2 1_555 1_555
H11 C13 1_555 1_555
H12 C13 1_555 1_555
H13 C13 1_555 1_555
C14 C6 1_555 1_555
H14 C14 1_555 1_555
C15 C8 1_555 1_555
H15 C15 1_555 1_555
C16 C14 1_555 1_555
H16 C16 1_555 1_555
H17 C16 1_555 1_555
H18 C16 1_555 1_555
C17 C15 1_555 1_555
H19 C17 1_555 1_555
H20 C17 1_555 1_555
H21 C17 1_555 1_555
C18 C14 1_555 1_555
H22 C18 1_555 1_555
H23 C18 1_555 1_555
H24 C18 1_555 1_555
C6 C11 1_555 1_555
C6 C12 1_555 1_555
C7 C9 1_555 1_555
C7 C12 1_555 1_555

#END
