
#######################################################################
#
#                 Cambridge Crystallographic Data Centre
#                                CCDC 
#
#######################################################################
#
# If this CIF has been generated from an entry in the Cambridge 
# Structural Database, then it will include bibliographic, chemical, 
# crystal, experimental, refinement or atomic coordinate data resulting 
# from the CCDC's data processing and validation procedures.
#
#######################################################################

data_SEFYEJ
_chemical_formula_moiety         'C30 H18 N6 O6'
_chemical_name_systematic        
5,17-Diphenoxy-2,8,14,20-tetraoxa-4,6,16,18,26,28-hexaazapentacyclo[19.3.1.1^3,7^.1^9,13^.1^15,19^]octacosa-1(25),3(28),4,6,9(27),10,12,15(26),16,18,21,23-dodecaene
_symmetry_cell_setting           rhombohedral
_symmetry_space_group_name_H-M   'R -3'
_symmetry_Int_Tables_number      148
_space_group_name_Hall           '-R 3'
loop_
_symmetry_equiv_pos_site_id
_symmetry_equiv_pos_as_xyz
1 x,y,z
2 -y,x-y,z
3 -x+y,-x,z
4 2/3+x,1/3+y,1/3+z
5 2/3-y,1/3+x-y,1/3+z
6 2/3-x+y,1/3-x,1/3+z
7 1/3+x,2/3+y,2/3+z
8 1/3-y,2/3+x-y,2/3+z
9 1/3-x+y,2/3-x,2/3+z
10 -x,-y,-z
11 y,-x+y,-z
12 x-y,x,-z
13 1/3-x,2/3-y,2/3-z
14 1/3+y,2/3-x+y,2/3-z
15 1/3+x-y,2/3+x,2/3-z
16 2/3-x,1/3-y,1/3-z
17 2/3+y,1/3-x+y,1/3-z
18 2/3+x-y,1/3+x,1/3-z
_cell_length_a                   35.328(5)
_cell_length_b                   35.328(5)
_cell_length_c                   12.311(3)
_cell_angle_alpha                90
_cell_angle_beta                 90
_cell_angle_gamma                120
_cell_volume                     13306.4
_exptl_crystal_colour            colorless
_exptl_crystal_description       block
_cell_formula_units_Z            18
loop_
_atom_site_label
_atom_site_type_symbol
_atom_site_fract_x
_atom_site_fract_y
_atom_site_fract_z
O1 O 0.05021(5) 0.43178(5) 0.11872(12)
O2 O 0.12503(5) 0.56842(5) -0.07786(12)
O3 O 0.12052(5) 0.64274(5) 0.22433(11)
O4 O 0.05646(6) 0.50869(5) 0.42608(12)
O5 O 0.08162(8) 0.39549(7) 0.43991(14)
N1 N 0.06604(7) 0.41354(7) 0.27876(15)
N2 N 0.05236(6) 0.47311(6) 0.26613(14)
N3 N 0.06895(7) 0.45325(7) 0.43760(15)
N4 N 0.17209(6) 0.63989(6) -0.06164(14)
N5 N 0.16987(6) 0.67775(6) 0.09577(15)
N6 N 0.11856(6) 0.60160(6) 0.07631(14)
C1 C 0.07169(9) 0.42222(8) 0.38434(19)
C2 C 0.05643(7) 0.44061(7) 0.22499(17)
C3 C 0.05939(7) 0.47742(7) 0.37210(17)
C4 C 0.05009(7) 0.46263(7) 0.04573(17)
C5 C 0.01303(8) 0.44946(8) -0.01526(18)
H1 H -0.0116 0.4222 -0.0039
C6 C 0.01305(8) 0.47750(8) -0.09410(19)
H2 H -0.0120 0.4694 -0.1349
C7 C 0.05009(8) 0.51747(8) -0.11232(18)
H3 H 0.0504 0.5362 -0.1660
C8 C 0.08653(7) 0.52905(7) -0.04932(17)
C9 C 0.08774(7) 0.50255(7) 0.03072(16)
H4 H 0.1126 0.5110 0.0727
C10 C 0.13867(7) 0.60437(7) -0.01688(16)
C11 C 0.18518(7) 0.67504(7) -0.00046(18)
C12 C 0.13658(7) 0.63974(7) 0.12826(17)
C13 C 0.08353(7) 0.60626(7) 0.26864(16)
C14 C 0.04502(7) 0.60735(7) 0.27344(17)
H5 H 0.0429 0.6301 0.2415
C15 C 0.00971(8) 0.57394(8) 0.32666(18)
H6 H -0.0164 0.5742 0.3308
C16 C 0.01278(8) 0.53984(8) 0.37420(17)
H7 H -0.0110 0.5172 0.4099
C17 C 0.05194(8) 0.54059(7) 0.36689(16)
C18 C 0.08801(7) 0.57319(7) 0.31496(17)
H8 H 0.1142 0.5729 0.3113
C19 C 0.08828(11) 0.40148(10) 0.5530(2)
C20 C 0.12804(13) 0.43250(13) 0.5938(3)
H9 H 0.1503 0.4509 0.5469
C21 C 0.13482(14) 0.43625(14) 0.7045(3)
H10 H 0.1616 0.4573 0.7326
C22 C 0.10203(14) 0.40901(13) 0.7726(3)
H11 H 0.1065 0.4116 0.8473
C23 C 0.06262(12) 0.37792(12) 0.7316(2)
H12 H 0.0405 0.3595 0.7790
C24 C 0.05512(11) 0.37344(10) 0.6198(2)
H13 H 0.0285 0.3521 0.5917
O6 O 0.2209(4) 0.7131(3) -0.0286(11)
C25 C 0.2380(4) 0.7184(6) -0.1340(10)
C26 C 0.2761(3) 0.7170(4) -0.1430(8)
H14 H 0.2868 0.7090 -0.0837
C27 C 0.2216(4) 0.7293(3) -0.2221(7)
H15 H 0.1957 0.7299 -0.2159
C28 C 0.2439(4) 0.7396(3) -0.3211(7)
H16 H 0.2323 0.7459 -0.3818
C29 C 0.2831(4) 0.7403(3) -0.3281(8)
H17 H 0.2993 0.7494 -0.3920
C30 C 0.2985(3) 0.7277(4) -0.2411(8)
H18 H 0.3239 0.7262 -0.2478
C31? C 0.2315(4) 0.7196(7) -0.1475(11)
C32? C 0.2056(4) 0.7207(4) -0.2290(8)
C33? C 0.2234(5) 0.7319(4) -0.3324(8)
C34? C 0.2661(4) 0.7420(3) -0.3501(9)
C35? C 0.2914(3) 0.7409(4) -0.2678(9)
C36? C 0.2742(4) 0.7298(4) -0.1628(9)
H19? H 0.1771 0.7140 -0.2154
H20? H 0.2066 0.7326 -0.3898
H21? H 0.2778 0.7498 -0.4196
H22? H 0.3199 0.7474 -0.2815
H23? H 0.2911 0.7294 -0.1053
O7? O 0.2142(5) 0.7145(4) -0.0428(13)
loop_
_geom_bond_atom_site_label_1
_geom_bond_atom_site_label_2
_geom_bond_site_symmetry_1
_geom_bond_site_symmetry_2
O1 C2 1_555 1_555
O2 C8 1_555 1_555
O3 C12 1_555 1_555
O4 C3 1_555 1_555
O5 C1 1_555 1_555
N1 C1 1_555 1_555
N2 C2 1_555 1_555
N3 C1 1_555 1_555
N4 C10 1_555 1_555
N5 C11 1_555 1_555
N6 C10 1_555 1_555
C2 N1 1_555 1_555
C3 N2 1_555 1_555
C4 O1 1_555 1_555
C5 C4 1_555 1_555
H1 C5 1_555 1_555
C6 C5 1_555 1_555
H2 C6 1_555 1_555
C7 C6 1_555 1_555
H3 C7 1_555 1_555
C8 C7 1_555 1_555
C9 C4 1_555 1_555
H4 C9 1_555 1_555
C10 O2 1_555 1_555
C11 N4 1_555 1_555
C12 N5 1_555 1_555
C13 O3 1_555 1_555
C14 C13 1_555 1_555
H5 C14 1_555 1_555
C15 C14 1_555 1_555
H6 C15 1_555 1_555
C16 C15 1_555 1_555
H7 C16 1_555 1_555
C17 O4 1_555 1_555
C18 C13 1_555 1_555
H8 C18 1_555 1_555
C19 O5 1_555 1_555
C20 C19 1_555 1_555
H9 C20 1_555 1_555
C21 C20 1_555 1_555
H10 C21 1_555 1_555
C22 C21 1_555 1_555
H11 C22 1_555 1_555
C23 C22 1_555 1_555
H12 C23 1_555 1_555
C24 C19 1_555 1_555
H13 C24 1_555 1_555
O6 C11 1_555 1_555
C25 O6 1_555 1_555
C26 C25 1_555 1_555
H14 C26 1_555 1_555
C27 C25 1_555 1_555
H15 C27 1_555 1_555
C28 C27 1_555 1_555
H16 C28 1_555 1_555
C29 C28 1_555 1_555
H17 C29 1_555 1_555
C30 C26 1_555 1_555
H18 C30 1_555 1_555
N3 C3 1_555 1_555
N6 C12 1_555 1_555
C8 C9 1_555 1_555
C16 C17 1_555 1_555
C17 C18 1_555 1_555
C23 C24 1_555 1_555
C29 C30 1_555 1_555

#END
