
#######################################################################
#
#                 Cambridge Crystallographic Data Centre
#                                CCDC 
#
#######################################################################
#
# If this CIF has been generated from an entry in the Cambridge 
# Structural Database, then it will include bibliographic, chemical, 
# crystal, experimental, refinement or atomic coordinate data resulting 
# from the CCDC's data processing and validation procedures.
#
#######################################################################

data_SEFZAG
_chemical_formula_moiety         'C24 H17 N3'
_chemical_name_systematic        N-(9-Anthryl)-N-(pyridin-2-yl)pyridin-2-amine
_symmetry_cell_setting           orthorhombic
_symmetry_space_group_name_H-M   'P 21 21 21'
_symmetry_Int_Tables_number      19
_space_group_name_Hall           'P 2ac 2ab'
loop_
_symmetry_equiv_pos_site_id
_symmetry_equiv_pos_as_xyz
1 x,y,z
2 1/2-x,-y,1/2+z
3 -x,1/2+y,1/2-z
4 1/2+x,1/2-y,-z
_cell_length_a                   8.6890(12)
_cell_length_b                   11.6597(16)
_cell_length_c                   16.959(2)
_cell_angle_alpha                90
_cell_angle_beta                 90
_cell_angle_gamma                90
_cell_volume                     1718.14
_cell_formula_units_Z            4
loop_
_atom_site_label
_atom_site_type_symbol
_atom_site_fract_x
_atom_site_fract_y
_atom_site_fract_z
C1 C 0.6696(3) 0.08097(17) 0.59023(12)
H1 H 0.5863 0.1137 0.5641
C2 C 0.7560(3) 0.00141(19) 0.54985(12)
H2 H 0.7307 -0.0207 0.4988
C3 C 0.8814(2) -0.04408(17) 0.58836(12)
H3 H 0.9430 -0.0982 0.5634
C4 C 0.9154(2) -0.00935(16) 0.66369(11)
H4 H 1.0010 -0.0383 0.6899
C5 C 0.8188(2) 0.07035(15) 0.70026(11)
C6 C 0.7833(2) 0.19799(15) 0.81788(11)
C7 C 0.7283(2) 0.29482(16) 0.77890(12)
H5 H 0.7316 0.2996 0.7242
C8 C 0.6693(2) 0.38284(16) 0.82311(13)
H6 H 0.6304 0.4479 0.7985
C9 C 0.6676(3) 0.37462(18) 0.90430(13)
H7 H 0.6266 0.4328 0.9354
C10 C 0.7284(2) 0.27779(17) 0.93739(12)
H8 H 0.7302 0.2728 0.9921
C11 C 0.9365(2) 0.02374(15) 0.82595(11)
C12 C 0.8690(2) -0.08004(16) 0.84867(11)
C13 C 0.7142(2) -0.10936(17) 0.83138(11)
H9 H 0.6517 -0.0570 0.8052
C14 C 0.6558(3) -0.21320(18) 0.85269(13)
H10 H 0.5540 -0.2309 0.8407
C15 C 0.7474(3) -0.29404(18) 0.89255(13)
H11 H 0.7066 -0.3652 0.9057
C16 C 0.8941(3) -0.26886(17) 0.91182(12)
H12 H 0.9529 -0.3228 0.9387
C17 C 0.9607(3) -0.16114(16) 0.89177(11)
C18 C 1.1113(2) -0.13321(17) 0.91110(11)
H13 H 1.1697 -0.1857 0.9395
C19 C 1.1776(2) -0.02958(18) 0.88939(11)
C20 C 1.3327(3) -0.0023(2) 0.90673(13)
H14 H 1.3920 -0.0543 0.9352
C21 C 1.3967(3) 0.0972(2) 0.88301(13)
H15 H 1.4986 0.1134 0.8955
C22 C 1.3095(3) 0.1769(2) 0.83938(13)
H16 H 1.3547 0.2452 0.8232
C23 C 1.1602(2) 0.15522(18) 0.82062(12)
H17 H 1.1043 0.2089 0.7919
C24 C 1.0887(2) 0.05102(17) 0.84453(11)
N1 N 0.69665(19) 0.11476(14) 0.66439(9)
N2 N 0.84717(18) 0.10218(12) 0.77903(9)
N3 N 0.78547(19) 0.18987(13) 0.89620(9)
loop_
_geom_bond_atom_site_label_1
_geom_bond_atom_site_label_2
_geom_bond_site_symmetry_1
_geom_bond_site_symmetry_2
C1 H1 1_555 1_555
C2 C1 1_555 1_555
H2 C2 1_555 1_555
C3 C2 1_555 1_555
H3 C3 1_555 1_555
C4 C3 1_555 1_555
H4 C4 1_555 1_555
C5 C4 1_555 1_555
C6 C7 1_555 1_555
C7 H5 1_555 1_555
C8 C7 1_555 1_555
H6 C8 1_555 1_555
C9 C8 1_555 1_555
H7 C9 1_555 1_555
C10 C9 1_555 1_555
H8 C10 1_555 1_555
C11 C12 1_555 1_555
C12 C13 1_555 1_555
C13 H9 1_555 1_555
C14 C13 1_555 1_555
H10 C14 1_555 1_555
C15 C14 1_555 1_555
H11 C15 1_555 1_555
C16 C15 1_555 1_555
H12 C16 1_555 1_555
C17 C12 1_555 1_555
C18 C17 1_555 1_555
H13 C18 1_555 1_555
C19 C18 1_555 1_555
C20 C19 1_555 1_555
H14 C20 1_555 1_555
C21 C20 1_555 1_555
H15 C21 1_555 1_555
C22 C21 1_555 1_555
H16 C22 1_555 1_555
C23 C22 1_555 1_555
H17 C23 1_555 1_555
C24 C11 1_555 1_555
N1 C1 1_555 1_555
N2 C5 1_555 1_555
N3 C6 1_555 1_555
C5 N1 1_555 1_555
C6 N2 1_555 1_555
C10 N3 1_555 1_555
C11 N2 1_555 1_555
C16 C17 1_555 1_555
C19 C24 1_555 1_555
C23 C24 1_555 1_555

#END
