
#######################################################################
#
#                 Cambridge Crystallographic Data Centre
#                                CCDC 
#
#######################################################################
#
# If this CIF has been generated from an entry in the Cambridge 
# Structural Database, then it will include bibliographic, chemical, 
# crystal, experimental, refinement or atomic coordinate data resulting 
# from the CCDC's data processing and validation procedures.
#
#######################################################################

data_SEGFOA
_chemical_formula_moiety         'C9 H9 N1 O4'
_chemical_name_systematic        5-methyl-3-nitro-2-hydroxyacetophenone
_symmetry_cell_setting           orthorhombic
_symmetry_space_group_name_H-M   'P c c a'
_symmetry_Int_Tables_number      54
_space_group_name_Hall           '-P 2a 2ac'
loop_
_symmetry_equiv_pos_site_id
_symmetry_equiv_pos_as_xyz
1 x,y,z
2 1/2+x,-y,1/2-z
3 -x,y,1/2-z
4 1/2-x,-y,z
5 -x,-y,-z
6 1/2-x,y,1/2+z
7 x,-y,1/2+z
8 1/2+x,y,-z
_cell_length_a                   13.214(3)
_cell_length_b                   8.343(3)
_cell_length_c                   16.146(2)
_cell_angle_alpha                90
_cell_angle_beta                 90
_cell_angle_gamma                90
_cell_volume                     1780.01
_exptl_crystal_colour            yellow
_exptl_crystal_description       prism
_cell_formula_units_Z            8
_exptl_crystal_recrystallization_method methanol
loop_
_atom_site_label
_atom_site_type_symbol
_atom_site_fract_x
_atom_site_fract_y
_atom_site_fract_z
N1 N 0.3863(2) 0.2896(3) 0.32831(17)
O1 O 0.36330(16) -0.0921(3) 0.07741(12)
O2 O 0.37046(17) 0.1555(3) 0.16665(13)
O4 O 0.3397(4) 0.3829(5) 0.2805(3)
O5 O 0.4216(5) 0.3370(7) 0.3943(3)
C1 C 0.3821(2) 0.1169(3) 0.31282(18)
C2 C 0.3750(2) 0.0564(3) 0.23163(17)
C3 C 0.3733(2) -0.1132(3) 0.22279(17)
C4 C 0.3748(2) -0.2096(4) 0.29306(18)
H1 H 0.375(2) -0.321(4) 0.2858(17)
C5 C 0.3786(2) -0.1479(3) 0.37272(18)
C6 C 0.3835(2) 0.0175(4) 0.38114(18)
H2 H 0.382(2) 0.064(3) 0.4356(18)
C7 C 0.3767(3) -0.2540(4) 0.44876(19)
H3 H 0.434(3) -0.227(4) 0.487(2)
H4 H 0.383(3) -0.371(5) 0.427(2)
H5 H 0.315(3) -0.233(4) 0.483(2)
C8 C 0.3680(2) -0.1825(4) 0.13866(18)
C9 C 0.3683(3) -0.3593(4) 0.1271(2)
H6 H 0.360(2) -0.385(4) 0.070(2)
H7 H 0.305(3) -0.398(4) 0.160(2)
H8 H 0.425(3) -0.420(4) 0.151(2)
H9 H 0.368(3) 0.089(5) 0.121(2)
O3? O 0.4320(5) 0.3719(6) 0.2733(3)
O6? O 0.3623(7) 0.3390(9) 0.3926(5)
loop_
_geom_bond_atom_site_label_1
_geom_bond_atom_site_label_2
_geom_bond_site_symmetry_1
_geom_bond_site_symmetry_2
N1 O4 1_555 1_555
O1 C8 1_555 1_555
O2 C2 1_555 1_555
O5 N1 1_555 1_555
C1 N1 1_555 1_555
C2 C1 1_555 1_555
C3 C2 1_555 1_555
C4 C3 1_555 1_555
H1 C4 1_555 1_555
C5 C4 1_555 1_555
C6 C1 1_555 1_555
H2 C6 1_555 1_555
C7 C5 1_555 1_555
H3 C7 1_555 1_555
H4 C7 1_555 1_555
H5 C7 1_555 1_555
C8 C3 1_555 1_555
C9 C8 1_555 1_555
H6 C9 1_555 1_555
H7 C9 1_555 1_555
H8 C9 1_555 1_555
H9 O2 1_555 1_555
C5 C6 1_555 1_555

#END
