
#######################################################################
#
#                 Cambridge Crystallographic Data Centre
#                                CCDC 
#
#######################################################################
#
# If this CIF has been generated from an entry in the Cambridge 
# Structural Database, then it will include bibliographic, chemical, 
# crystal, experimental, refinement or atomic coordinate data resulting 
# from the CCDC's data processing and validation procedures.
#
#######################################################################

data_SEGRUU
_chemical_formula_moiety         'C13 H9 Br1 N2'
_chemical_name_systematic        2-bromo-3-phenylimidazo[1,2-a]pyridine
_symmetry_cell_setting           triclinic
_symmetry_space_group_name_H-M   'P -1'
_symmetry_Int_Tables_number      2
_space_group_name_Hall           '-P 1'
loop_
_symmetry_equiv_pos_site_id
_symmetry_equiv_pos_as_xyz
1 x,y,z
2 -x,-y,-z
_cell_length_a                   7.6418(4)
_cell_length_b                   9.2290(5)
_cell_length_c                   16.4366(10)
_cell_angle_alpha                96.591(2)
_cell_angle_beta                 93.902(2)
_cell_angle_gamma                105.608(2)
_cell_volume                     1103.14
_exptl_crystal_colour            yellow
_exptl_crystal_description       block
_cell_formula_units_Z            4
loop_
_atom_site_label
_atom_site_type_symbol
_atom_site_fract_x
_atom_site_fract_y
_atom_site_fract_z
Br1 Br 1.42707(4) 0.81151(4) 0.54717(2)
C1 C 0.7415(4) 0.4613(4) 0.2979(2)
H1 H 0.6804 0.3972 0.2508
C2 C 1.2017(4) 0.7219(3) 0.48342(19)
N1 N 0.9148(3) 0.6461(3) 0.43940(15)
N2 N 1.1941(3) 0.6270(3) 0.41286(15)
C3 C 0.8404(4) 0.7562(4) 0.61810(19)
H2 H 0.7737 0.6555 0.6017
C4 C 1.0799(4) 0.9761(3) 0.59962(19)
H3 H 1.1738 1.0237 0.5704
C5 C 0.7291(4) 0.6235(3) 0.4221(2)
H4 H 0.6647 0.6698 0.4579
C6 C 1.0372(4) 0.7381(3) 0.50381(19)
C7 C 0.7980(4) 0.8379(4) 0.6856(2)
H5 H 0.7024 0.7919 0.7144
C8 C 0.9837(4) 0.8243(3) 0.57416(19)
C9 C 0.6421(4) 0.5324(4) 0.3519(2)
H6 H 0.5173 0.5167 0.3393
C10 C 1.0366(4) 1.0560(4) 0.6678(2)
H7 H 1.1027 1.1566 0.6848
C11 C 0.8955(4) 0.9872(4) 0.7110(2)
H8 H 0.8665 1.0413 0.7570
C12 C 1.0160(4) 0.5820(3) 0.38586(19)
C13 C 0.9230(4) 0.4855(4) 0.31419(19)
H9 H 0.9868 0.4389 0.2783
Br2 Br 1.15962(4) 0.33108(4) 0.88708(2)
C14 C 0.8074(4) 0.8774(4) 0.9076(2)
H10 H 0.8067 0.9787 0.9148
N3 N 1.1091(3) 0.6263(3) 0.90223(15)
C15 C 0.9716(4) 0.6893(4) 0.90032(18)
N4 N 0.8030(3) 0.5785(3) 0.88449(15)
C16 C 1.0253(4) 0.4736(3) 0.88826(18)
C17 C 0.8387(4) 0.4391(3) 0.87652(18)
C18 C 0.6894(4) 0.2946(3) 0.85548(19)
C19 C 0.6393(4) 0.7617(4) 0.89281(19)
H11 H 0.5295 0.7872 0.8909
C20 C 0.6044(4) 0.2207(3) 0.9169(2)
H12 H 0.6433 0.2588 0.9719
C21 C 0.9686(4) 0.8429(4) 0.9112(2)
H13 H 1.0777 0.9202 0.9209
C22 C 0.6387(4) 0.6141(4) 0.88150(19)
H14 H 0.5290 0.5375 0.8718
C23 C 0.4610(4) 0.0895(4) 0.8961(2)
H15 H 0.4039 0.0399 0.9374
C24 C 0.4025(4) 0.0323(4) 0.8152(2)
H16 H 0.3062 -0.0557 0.8017
C25 C 0.4871(4) 0.1056(4) 0.7541(2)
H17 H 0.4482 0.0666 0.6992
C26 C 0.6297(4) 0.2368(4) 0.7740(2)
H18 H 0.6855 0.2863 0.7324
loop_
_geom_bond_atom_site_label_1
_geom_bond_atom_site_label_2
_geom_bond_site_symmetry_1
_geom_bond_site_symmetry_2
Br1 C2 1_555 1_555
C1 H1 1_555 1_555
C2 N2 1_555 1_555
N1 C5 1_555 1_555
N2 C12 1_555 1_555
C3 H2 1_555 1_555
C4 H3 1_555 1_555
C5 H4 1_555 1_555
C6 C2 1_555 1_555
C7 C3 1_555 1_555
H5 C7 1_555 1_555
C8 C3 1_555 1_555
C9 C1 1_555 1_555
H6 C9 1_555 1_555
C10 C4 1_555 1_555
H7 C10 1_555 1_555
C11 C7 1_555 1_555
H8 C11 1_555 1_555
C12 N1 1_555 1_555
C13 C1 1_555 1_555
H9 C13 1_555 1_555
Br2 C16 1_555 1_555
C14 H10 1_555 1_555
N3 C15 1_555 1_555
C15 N4 1_555 1_555
N4 C17 1_555 1_555
C16 N3 1_555 1_555
C17 C16 1_555 1_555
C18 C17 1_555 1_555
C19 C14 1_555 1_555
H11 C19 1_555 1_555
C20 C18 1_555 1_555
H12 C20 1_555 1_555
C21 C14 1_555 1_555
H13 C21 1_555 1_555
C22 N4 1_555 1_555
H14 C22 1_555 1_555
C23 C20 1_555 1_555
H15 C23 1_555 1_555
C24 C23 1_555 1_555
H16 C24 1_555 1_555
C25 C24 1_555 1_555
H17 C25 1_555 1_555
C26 C18 1_555 1_555
H18 C26 1_555 1_555
N1 C6 1_555 1_555
C4 C8 1_555 1_555
C5 C9 1_555 1_555
C6 C8 1_555 1_555
C10 C11 1_555 1_555
C12 C13 1_555 1_555
C15 C21 1_555 1_555
C19 C22 1_555 1_555
C25 C26 1_555 1_555

#END
