
#######################################################################
#
#                 Cambridge Crystallographic Data Centre
#                                CCDC 
#
#######################################################################
#
# If this CIF has been generated from an entry in the Cambridge 
# Structural Database, then it will include bibliographic, chemical, 
# crystal, experimental, refinement or atomic coordinate data resulting 
# from the CCDC's data processing and validation procedures.
#
#######################################################################

data_SEGTIJ
_chemical_formula_moiety         'C30 H30 N20 O10,2(C7 H6 O3),13(H2 O1)'
_chemical_name_systematic        
'Cucurbit(5)uril bis(4-hydroxybenzoic acid) tridecahydrate'
_symmetry_cell_setting           orthorhombic
_symmetry_space_group_name_H-M   'P 21 21 2'
_symmetry_Int_Tables_number      18
_space_group_name_Hall           'P 2 2ab'
loop_
_symmetry_equiv_pos_site_id
_symmetry_equiv_pos_as_xyz
1 x,y,z
2 -x,-y,z
3 1/2+x,1/2-y,-z
4 1/2-x,1/2+y,-z
_cell_length_a                   15.8841(18)
_cell_length_b                   12.4803(14)
_cell_length_c                   14.1747(16)
_cell_angle_alpha                90
_cell_angle_beta                 90
_cell_angle_gamma                90
_cell_volume                     2809.97
_exptl_crystal_colour            colorless
_exptl_crystal_description       block
_cell_formula_units_Z            2
loop_
_atom_site_label
_atom_site_type_symbol
_atom_site_fract_x
_atom_site_fract_y
_atom_site_fract_z
C16 C 0.3022(2) 0.7335(3) 0.5327(2)
H16 H 0.3545 0.7541 0.5580
C17 C 0.2665(2) 0.7935(2) 0.4622(2)
H17 H 0.2939 0.8557 0.4408
C18 C 0.1903(2) 0.7631(2) 0.4219(2)
C19 C 0.14894(19) 0.6727(2) 0.4568(2)
H18 H 0.0966 0.6522 0.4316
C20 C 0.18555(19) 0.6129(2) 0.5292(2)
H19 H 0.1578 0.5518 0.5523
C21 C 0.26214(19) 0.6426(2) 0.5674(2)
C22 C 0.3052(2) 0.5715(3) 0.6385(2)
O6 O 0.15483(16) 0.81747(19) 0.34983(18)
H20 H 0.1864 0.8672 0.3336
O7 O 0.26483(16) 0.49684(18) 0.67699(16)
O8 O 0.38180(18) 0.5864(3) 0.6527(2)
H21 H 0.3880 0.6246 0.7001
C1 C 0.10015(17) 0.8209(2) 0.6731(2)
C2 C 0.11822(19) 0.9745(2) 0.5840(2)
H1 H 0.1327 0.9739 0.5161
C3 C 0.19626(19) 0.9582(2) 0.6458(2)
H2 H 0.2477 0.9487 0.6072
C4 C 0.13471(19) 1.1243(2) 0.6791(2)
C5 C 0.23296(17) 0.8120(2) 0.7642(2)
H3 H 0.2910 0.8228 0.7428
H4 H 0.2217 0.7348 0.7633
C6 C 0.2654(2) 1.0817(2) 0.7678(2)
H5 H 0.3182 1.0496 0.7459
H6 H 0.2733 1.1596 0.7696
C7 C 0.17032(18) 0.8054(2) 0.9242(2)
C8 C 0.27069(18) 0.9401(2) 0.8999(2)
H7 H 0.3323 0.9287 0.8978
C9 C 0.23850(17) 0.9457(2) 1.0029(2)
H8 H 0.2837 0.9293 1.0488
C10 C 0.21557(16) 1.1112(2) 0.9308(2)
C11 C 0.13120(18) 0.8290(2) 1.0895(2)
H9 H 0.1694 0.8387 1.1430
H10 H 0.1188 0.7523 1.0840
C12 C 0.17129(18) 1.0985(2) 1.0967(2)
H11 H 0.1999 1.0688 1.1521
H12 H 0.1802 1.1762 1.0971
C13 C -0.02374(17) 0.8457(2) 1.08364(19)
C14 C 0.04728(18) 0.9882(2) 1.15568(19)
H13 H 0.0697 0.9837 1.2207
C15 C -0.0169(2) 0.8652(2) 0.5678(2)
H14 H -0.0285 0.7881 0.5706
H15 H -0.0153 0.8859 0.5011
N1 N 0.06420(17) 0.88505(19) 0.60881(17)
N2 N 0.17714(15) 0.86363(19) 0.69912(18)
N3 N 0.08504(17) 1.07839(19) 0.61319(18)
N4 N 0.19963(16) 1.05674(19) 0.70116(18)
N5 N 0.22600(15) 0.84965(19) 0.86003(18)
N6 N 0.17271(15) 0.86484(19) 1.00417(17)
N7 N 0.24818(16) 1.04413(19) 0.86211(19)
N8 N 0.20979(16) 1.05375(18) 1.01167(18)
N9 N 0.05348(15) 0.8866(2) 1.10787(17)
N10 N 0.08324(15) 1.07775(18) 1.10490(17)
O1 O 0.07008(13) 0.73580(15) 0.70391(15)
O2 O 0.12861(13) 0.72542(16) 0.90998(15)
O3 O -0.03737(14) 0.75921(16) 1.04862(16)
O4 O 0.12682(15) 1.21594(17) 0.71131(16)
O5 O 0.19682(13) 1.20539(15) 0.92045(15)
C1A C -0.10015(17) 1.1791(2) 0.6731(2)
C2A C -0.11822(19) 1.0255(2) 0.5840(2)
H1A H -0.1327 1.0261 0.5161
C3A C -0.19626(19) 1.0418(2) 0.6458(2)
H2A H -0.2477 1.0513 0.6072
C4A C -0.13471(19) 0.8757(2) 0.6791(2)
C5A C -0.23296(17) 1.1880(2) 0.7642(2)
H3A H -0.2910 1.1772 0.7428
H4A H -0.2217 1.2652 0.7633
C6A C -0.2654(2) 0.9183(2) 0.7678(2)
H5A H -0.3182 0.9504 0.7459
H6A H -0.2733 0.8404 0.7696
C7A C -0.17032(18) 1.1946(2) 0.9242(2)
C8A C -0.27069(18) 1.0599(2) 0.8999(2)
H7A H -0.3323 1.0713 0.8978
C9A C -0.23850(17) 1.0543(2) 1.0029(2)
H8A H -0.2837 1.0707 1.0488
C10A C -0.21557(16) 0.8888(2) 0.9308(2)
C11A C -0.13120(18) 1.1710(2) 1.0895(2)
H9A H -0.1694 1.1613 1.1430
H10A H -0.1188 1.2477 1.0840
C12A C -0.17129(18) 0.9015(2) 1.0967(2)
H11A H -0.1999 0.9312 1.1521
H12A H -0.1802 0.8238 1.0971
C13A C 0.02374(17) 1.1543(2) 1.08364(19)
C14A C -0.04728(18) 1.0118(2) 1.15568(19)
H13A H -0.0697 1.0163 1.2207
C15A C 0.0169(2) 1.1348(2) 0.5678(2)
H14A H 0.0285 1.2119 0.5706
H15A H 0.0153 1.1141 0.5011
N1A N -0.06420(17) 1.11495(19) 0.60881(17)
N2A N -0.17714(15) 1.13637(19) 0.69912(18)
N3A N -0.08504(17) 0.92161(19) 0.61319(18)
N4A N -0.19963(16) 0.94326(19) 0.70116(18)
N5A N -0.22600(15) 1.15035(19) 0.86003(18)
N6A N -0.17271(15) 1.13516(19) 1.00417(17)
N7A N -0.24818(16) 0.95587(19) 0.86211(19)
N8A N -0.20979(16) 0.94625(18) 1.01167(18)
N9A N -0.05348(15) 1.1134(2) 1.10787(17)
N10A N -0.08324(15) 0.92225(18) 1.10490(17)
O1A O -0.07008(13) 1.26420(15) 0.70391(15)
O2A O -0.12861(13) 1.27458(16) 0.90998(15)
O3A O 0.03737(14) 1.24079(16) 1.04862(16)
O4A O -0.12682(15) 0.78406(17) 0.71131(16)
O5A O -0.19682(13) 0.79461(15) 0.92045(15)
loop_
_geom_bond_atom_site_label_1
_geom_bond_atom_site_label_2
_geom_bond_site_symmetry_1
_geom_bond_site_symmetry_2
C1 N1 1_555 1_555
C2 H1 1_555 1_555
C3 C2 1_555 1_555
H2 C3 1_555 1_555
C4 N3 1_555 1_555
C5 H3 1_555 1_555
H4 C5 1_555 1_555
C6 H5 1_555 1_555
H6 C6 1_555 1_555
C7 N5 1_555 1_555
C8 H7 1_555 1_555
C9 C8 1_555 1_555
H8 C9 1_555 1_555
C10 N7 1_555 1_555
C11 H9 1_555 1_555
H10 C11 1_555 1_555
C12 H11 1_555 1_555
H12 C12 1_555 1_555
C13 N9 1_555 1_555
C14 H13 1_555 1_555
C15 H14 1_555 1_555
H15 C15 1_555 1_555
N1 C2 1_555 1_555
N2 C1 1_555 1_555
N3 C2 1_555 1_555
N4 C3 1_555 1_555
N5 C5 1_555 1_555
N6 C7 1_555 1_555
N7 C6 1_555 1_555
N8 C9 1_555 1_555
N9 C11 1_555 1_555
N10 C12 1_555 1_555
O1 C1 1_555 1_555
O2 C7 1_555 1_555
O3 C13 1_555 1_555
O4 C4 1_555 1_555
O5 C10 1_555 1_555
C16 H16 1_555 1_555
C17 C16 1_555 1_555
H17 C17 1_555 1_555
C18 C17 1_555 1_555
C19 C18 1_555 1_555
H18 C19 1_555 1_555
C20 C19 1_555 1_555
H19 C20 1_555 1_555
C21 C16 1_555 1_555
C22 C21 1_555 1_555
O6 C18 1_555 1_555
H20 O6 1_555 1_555
O7 C22 1_555 1_555
O8 C22 1_555 1_555
H21 O8 1_555 1_555
C1A N1A 1_555 1_555
C2A H1A 1_555 1_555
C3A C2A 1_555 1_555
H2A C3A 1_555 1_555
C4A N3A 1_555 1_555
C5A H3A 1_555 1_555
H4A C5A 1_555 1_555
C6A H5A 1_555 1_555
H6A C6A 1_555 1_555
C7A N5A 1_555 1_555
C8A H7A 1_555 1_555
C9A C8A 1_555 1_555
H8A C9A 1_555 1_555
C10A N7A 1_555 1_555
C11A H9A 1_555 1_555
H10A C11A 1_555 1_555
C12A H11A 1_555 1_555
H12A C12A 1_555 1_555
C13A N10 1_555 1_555
C14A C14 1_555 1_555
H13A C14A 1_555 1_555
C15A N3 1_555 1_555
H14A C15A 1_555 1_555
H15A C15A 1_555 1_555
N1A C2A 1_555 1_555
N2A C1A 1_555 1_555
N3A C15 1_555 1_555
N4A C3A 1_555 1_555
N5A C5A 1_555 1_555
N6A C7A 1_555 1_555
N7A C6A 1_555 1_555
N8A C9A 1_555 1_555
N9A C11A 1_555 1_555
N10A C13 1_555 1_555
O1A C1A 1_555 1_555
O2A C7A 1_555 1_555
O3A C13A 1_555 1_555
O4A C4A 1_555 1_555
O5A C10A 1_555 1_555
C3 N2 1_555 1_555
C4 N4 1_555 1_555
C5 N2 1_555 1_555
C6 N4 1_555 1_555
C8 N5 1_555 1_555
C8 N7 1_555 1_555
C9 N6 1_555 1_555
C10 N8 1_555 1_555
C11 N6 1_555 1_555
C12 N8 1_555 1_555
C14 N9 1_555 1_555
C14 N10 1_555 1_555
C15 N1 1_555 1_555
C20 C21 1_555 1_555
C2A N3A 1_555 1_555
C3A N2A 1_555 1_555
C4A N4A 1_555 1_555
C5A N2A 1_555 1_555
C6A N4A 1_555 1_555
C8A N5A 1_555 1_555
C8A N7A 1_555 1_555
C9A N6A 1_555 1_555
C10A N8A 1_555 1_555
C11A N6A 1_555 1_555
C12A N8A 1_555 1_555
C12A N10A 1_555 1_555
C13A N9A 1_555 1_555
C14A N9A 1_555 1_555
C14A N10A 1_555 1_555
C15A N1A 1_555 1_555

#END
