
#######################################################################
#
#                 Cambridge Crystallographic Data Centre
#                                CCDC 
#
#######################################################################
#
# If this CIF has been generated from an entry in the Cambridge 
# Structural Database, then it will include bibliographic, chemical, 
# crystal, experimental, refinement or atomic coordinate data resulting 
# from the CCDC's data processing and validation procedures.
#
#######################################################################

data_SEGTUV
_chemical_formula_moiety         'C30 H30 N20 O10,2(C7 H6 O3),4(H2 O1)'
_chemical_name_systematic        
'Cucurbit(5)uril bis(4-hydroxybenzoic acid) tetrahydrate'
_symmetry_cell_setting           orthorhombic
_symmetry_space_group_name_H-M   'P 21 21 2'
_symmetry_Int_Tables_number      18
_space_group_name_Hall           'P 2 2ab'
loop_
_symmetry_equiv_pos_site_id
_symmetry_equiv_pos_as_xyz
1 x,y,z
2 -x,-y,z
3 1/2+x,1/2-y,-z
4 1/2-x,1/2+y,-z
_cell_length_a                   15.8841(18)
_cell_length_b                   12.4803(14)
_cell_length_c                   14.1747(16)
_cell_angle_alpha                90
_cell_angle_beta                 90
_cell_angle_gamma                90
_cell_volume                     2809.97
_cell_formula_units_Z            2
loop_
_atom_site_label
_atom_site_type_symbol
_atom_site_fract_x
_atom_site_fract_y
_atom_site_fract_z
C1 C 0.17062(19) -0.1949(2) -0.0759(2)
C2 C 0.1309(2) -0.1699(3) 0.0901(2)
H1 H 0.1192 -0.2461 0.0857
H2 H 0.1685 -0.1590 0.1431
C3 C 0.02338(19) 0.1540(3) 0.0835(2)
C4 C 0.1718(2) 0.0995(3) 0.0960(2)
H3 H 0.1806 0.1764 0.0953
H4 H 0.2005 0.0711 0.1510
C5 C 0.21564(19) 0.1113(3) -0.0696(2)
C6 C 0.2650(2) 0.0821(3) -0.2326(2)
H5 H 0.2727 0.1592 -0.2309
H6 H 0.3174 0.0505 -0.2542
C7 C 0.1361(2) 0.1262(3) -0.3209(2)
C8 C 0.0181(2) 0.1358(3) -0.4325(2)
H7 H 0.0171 0.1163 -0.4987
H8 H 0.0297 0.2120 -0.4287
C9 C 0.1167(2) -0.0250(3) -0.4163(2)
H9 H 0.1313 -0.0253 -0.4835
C10 C 0.1959(2) -0.0415(3) -0.3539(2)
H10 H 0.2466 -0.0509 -0.3924
C11 C 0.1004(2) -0.1808(3) -0.3263(2)
C12 C 0.2329(2) -0.1888(3) -0.2355(2)
H11 H 0.2220 -0.2653 -0.2359
H12 H 0.2903 -0.1780 -0.2568
C13 C 0.0474(2) -0.0121(3) 0.1563(2)
H13 H 0.0699 -0.0167 0.2206
C14 C 0.23856(19) -0.0547(3) 0.0027(2)
H14 H 0.2834 -0.0712 0.0479
C15 C 0.2710(2) -0.0602(3) -0.1012(2)
H15 H 0.3320 -0.0717 -0.1039
N1 N 0.19953(19) 0.0570(2) -0.2994(2)
N2 N 0.08561(19) 0.0785(2) -0.3870(2)
N3 N 0.06443(19) -0.1154(2) -0.39225(19)
N4 N 0.17609(17) -0.1373(2) -0.3016(2)
N5 N 0.24769(19) 0.0444(2) -0.1378(2)
N6 N 0.20957(17) 0.0540(2) 0.0126(2)
N7 N 0.08261(17) 0.0786(2) 0.10536(19)
N8 N 0.05293(17) -0.1136(2) 0.1079(2)
N9 N 0.17269(16) -0.1354(2) 0.0045(2)
N10 N 0.22544(17) -0.1498(2) -0.1396(2)
O1 O 0.12582(16) 0.21470(19) -0.28781(18)
O2 O 0.19752(14) 0.20471(18) -0.08012(19)
O3 O 0.03705(15) 0.24127(18) 0.04838(18)
O4 O 0.12894(15) -0.27520(19) -0.08959(18)
O5 O 0.07075(15) -0.26366(18) -0.29608(17)
C1A C -0.17062(19) 0.1949(2) -0.0759(2)
C2A C -0.1309(2) 0.1699(3) 0.0901(2)
H1A H -0.1192 0.2461 0.0857
H2A H -0.1685 0.1590 0.1431
C3A C -0.02338(19) -0.1540(3) 0.0835(2)
C4A C -0.1718(2) -0.0995(3) 0.0960(2)
H3A H -0.1806 -0.1764 0.0953
H4A H -0.2005 -0.0711 0.1510
C5A C -0.21564(19) -0.1113(3) -0.0696(2)
C6A C -0.2650(2) -0.0821(3) -0.2326(2)
H5A H -0.2727 -0.1592 -0.2309
H6A H -0.3174 -0.0505 -0.2542
C7A C -0.1361(2) -0.1262(3) -0.3209(2)
C8A C -0.0181(2) -0.1358(3) -0.4325(2)
H7A H -0.0171 -0.1163 -0.4987
H8A H -0.0297 -0.2120 -0.4287
C9A C -0.1167(2) 0.0250(3) -0.4163(2)
H9A H -0.1313 0.0253 -0.4835
C10A C -0.1959(2) 0.0415(3) -0.3539(2)
H10A H -0.2466 0.0509 -0.3924
C11A C -0.1004(2) 0.1808(3) -0.3263(2)
C12A C -0.2329(2) 0.1888(3) -0.2355(2)
H11A H -0.2220 0.2653 -0.2359
H12A H -0.2903 0.1780 -0.2568
C13A C -0.0474(2) 0.0121(3) 0.1563(2)
H13A H -0.0699 0.0167 0.2206
C14A C -0.23856(19) 0.0547(3) 0.0027(2)
H14A H -0.2834 0.0712 0.0479
C15A C -0.2710(2) 0.0602(3) -0.1012(2)
H15A H -0.3320 0.0717 -0.1039
N1A N -0.19953(19) -0.0570(2) -0.2994(2)
N2A N -0.08561(19) -0.0785(2) -0.3870(2)
N3A N -0.06443(19) 0.1154(2) -0.39225(19)
N4A N -0.17609(17) 0.1373(2) -0.3016(2)
N5A N -0.24769(19) -0.0444(2) -0.1378(2)
N6A N -0.20957(17) -0.0540(2) 0.0126(2)
N7A N -0.08261(17) -0.0786(2) 0.10536(19)
N8A N -0.05293(17) 0.1136(2) 0.1079(2)
N9A N -0.17269(16) 0.1354(2) 0.0045(2)
N10A N -0.22544(17) 0.1498(2) -0.1396(2)
O1A O -0.12582(16) -0.21470(19) -0.28781(18)
O2A O -0.19752(14) -0.20471(18) -0.08012(19)
O3A O -0.03705(15) -0.24127(18) 0.04838(18)
O4A O -0.12894(15) 0.27520(19) -0.08959(18)
O5A O -0.07075(15) 0.26366(18) -0.29608(17)
C16 C -0.1943(3) -0.0720(3) -0.6381(2)
C17 C -0.2374(2) -0.1414(3) -0.5667(2)
C18 C -0.1982(2) -0.2329(3) -0.5328(2)
H16 H -0.1468 -0.2537 -0.5583
C19 C -0.2337(2) -0.2941(3) -0.4619(3)
H17 H -0.2067 -0.3557 -0.4408
C20 C -0.3102(2) -0.2630(3) -0.4222(3)
C21 C -0.3514(2) -0.1730(3) -0.4572(3)
H18 H -0.4033 -0.1529 -0.4324
C22 C -0.3152(2) -0.1133(3) -0.5289(3)
H19 H -0.3433 -0.0536 -0.5521
O6 O -0.2360(2) 0.0031(2) -0.67614(19)
O7 O -0.1192(2) -0.0868(3) -0.6551(3)
H20 H -0.1017 -0.1366 -0.6229
O8 O -0.34613(19) -0.3171(2) -0.3500(2)
H21 H -0.3164 -0.3683 -0.3357
O9 O -0.04901(19) -0.3240(2) -0.1403(2)
O10 O 0.0000 0.0000 -0.1418(14)
O11 O -0.0122(2) -0.2431(3) -0.7047(3)
O12 O 0.1258(3) -0.4840(3) -0.2083(6)
O13 O 0.0667(5) -0.4730(5) -0.0246(6)
O14 O -0.4403(6) 0.0586(8) -0.2922(6)
O15 O -0.4704(6) 0.0768(7) -0.5980(7)
O16? O -0.4362(6) 0.0576(7) -0.3947(8)
O17? O 0.0184(13) -0.4433(9) 0.1327(10)
loop_
_geom_bond_atom_site_label_1
_geom_bond_atom_site_label_2
_geom_bond_site_symmetry_1
_geom_bond_site_symmetry_2
C1 N9 1_555 1_555
C2 H1 1_555 1_555
H2 C2 1_555 1_555
C3 N7 1_555 1_555
C4 H3 1_555 1_555
H4 C4 1_555 1_555
C5 N5 1_555 1_555
C6 H5 1_555 1_555
H6 C6 1_555 1_555
C7 N1 1_555 1_555
C8 H7 1_555 1_555
H8 C8 1_555 1_555
C9 H9 1_555 1_555
C10 C9 1_555 1_555
H10 C10 1_555 1_555
C11 N3 1_555 1_555
C12 H11 1_555 1_555
H12 C12 1_555 1_555
C13 H13 1_555 1_555
C14 H14 1_555 1_555
C15 C14 1_555 1_555
H15 C15 1_555 1_555
N1 C6 1_555 1_555
N2 C7 1_555 1_555
N3 C9 1_555 1_555
N4 C10 1_555 1_555
N5 C6 1_555 1_555
N6 C4 1_555 1_555
N7 C4 1_555 1_555
N8 C2 1_555 1_555
N9 C2 1_555 1_555
N10 C1 1_555 1_555
O1 C7 1_555 1_555
O2 C5 1_555 1_555
O3 C3 1_555 1_555
O4 C1 1_555 1_555
O5 C11 1_555 1_555
C16 C17 1_555 1_555
C17 C18 1_555 1_555
C18 H16 1_555 1_555
C19 C18 1_555 1_555
H17 C19 1_555 1_555
C20 C19 1_555 1_555
C21 C20 1_555 1_555
H18 C21 1_555 1_555
C22 C17 1_555 1_555
H19 C22 1_555 1_555
O6 C16 1_555 1_555
O7 C16 1_555 1_555
H20 O7 1_555 1_555
O8 C20 1_555 1_555
H21 O8 1_555 1_555
C1A N9A 1_555 1_555
C2A H1A 1_555 1_555
H2A C2A 1_555 1_555
C3A N8 1_555 1_555
C4A H3A 1_555 1_555
H4A C4A 1_555 1_555
C5A N5A 1_555 1_555
C6A H5A 1_555 1_555
H6A C6A 1_555 1_555
C7A N1A 1_555 1_555
C8A N3 1_555 1_555
H7A C8A 1_555 1_555
H8A C8A 1_555 1_555
C9A H9A 1_555 1_555
C10A C9A 1_555 1_555
H10A C10A 1_555 1_555
C11A N3A 1_555 1_555
C12A H11A 1_555 1_555
H12A C12A 1_555 1_555
C13A C13 1_555 1_555
H13A C13A 1_555 1_555
C14A H14A 1_555 1_555
C15A C14A 1_555 1_555
H15A C15A 1_555 1_555
N1A C6A 1_555 1_555
N2A C7A 1_555 1_555
N3A C8 1_555 1_555
N4A C10A 1_555 1_555
N5A C6A 1_555 1_555
N6A C4A 1_555 1_555
N7A C3A 1_555 1_555
N8A C3 1_555 1_555
N9A C2A 1_555 1_555
N10A C1A 1_555 1_555
O1A C7A 1_555 1_555
O2A C5A 1_555 1_555
O3A C3A 1_555 1_555
O4A C1A 1_555 1_555
O5A C11A 1_555 1_555
C5 N6 1_555 1_555
C8 N2 1_555 1_555
C9 N2 1_555 1_555
C10 N1 1_555 1_555
C11 N4 1_555 1_555
C12 N4 1_555 1_555
C12 N10 1_555 1_555
C13 N7 1_555 1_555
C13 N8 1_555 1_555
C14 N6 1_555 1_555
C14 N9 1_555 1_555
C15 N5 1_555 1_555
C15 N10 1_555 1_555
C21 C22 1_555 1_555
C2A N8A 1_555 1_555
C4A N7A 1_555 1_555
C5A N6A 1_555 1_555
C8A N2A 1_555 1_555
C9A N2A 1_555 1_555
C9A N3A 1_555 1_555
C10A N1A 1_555 1_555
C11A N4A 1_555 1_555
C12A N4A 1_555 1_555
C12A N10A 1_555 1_555
C13A N7A 1_555 1_555
C13A N8A 1_555 1_555
C14A N6A 1_555 1_555
C14A N9A 1_555 1_555
C15A N5A 1_555 1_555
C15A N10A 1_555 1_555

#END
