
#######################################################################
#
#                 Cambridge Crystallographic Data Centre
#                                CCDC 
#
#######################################################################
#
# If this CIF has been generated from an entry in the Cambridge 
# Structural Database, then it will include bibliographic, chemical, 
# crystal, experimental, refinement or atomic coordinate data resulting 
# from the CCDC's data processing and validation procedures.
#
#######################################################################

data_SEGXAE
_chemical_name_common            'Mometasone furoate'
_chemical_formula_moiety         'C27 H30 Cl2 O6'
_chemical_name_systematic        
9\a,21-Dichloro-11\b,17\a-dihydroxy-16\a-methylpregna-1,4-diene-3,2-dione
_chemical_properties_biological  'potent glucocorticoid antiinflammatory agent'
_symmetry_cell_setting           orthorhombic
_symmetry_space_group_name_H-M   'P 21 21 21'
_symmetry_Int_Tables_number      19
_space_group_name_Hall           'P 2ac 2ab'
loop_
_symmetry_equiv_pos_site_id
_symmetry_equiv_pos_as_xyz
1 x,y,z
2 1/2-x,-y,1/2+z
3 -x,1/2+y,1/2-z
4 1/2+x,1/2-y,-z
_cell_length_a                   12.3414(7)
_cell_length_b                   13.5838(7)
_cell_length_c                   14.9376(8)
_cell_angle_alpha                90
_cell_angle_beta                 90
_cell_angle_gamma                90
_cell_volume                     2504.19
_exptl_crystal_colour            colorless
_exptl_crystal_description       needle
_cell_formula_units_Z            4
_exptl_crystal_recrystallization_method ethanol/hexane
loop_
_atom_site_label
_atom_site_type_symbol
_atom_site_fract_x
_atom_site_fract_y
_atom_site_fract_z
Cl1 Cl 0.96762(4) 0.61717(4) 0.90996(3)
Cl2 Cl 0.99179(6) 0.72350(6) 0.34049(4)
O1 O 1.12219(11) 0.65720(10) 0.65703(10)
C1 C 0.82519(15) 0.61939(15) 0.77790(14)
H1 H 0.8214 0.5520 0.8011
C2 C 0.98694(15) 0.77657(13) 0.75849(13)
H2 H 1.0441 0.7352 0.7842
C3 C 0.90930(15) 0.61953(14) 0.70250(14)
H3 H 0.9722 0.5823 0.7217
H4 H 0.8789 0.5865 0.6507
C4 C 0.85575(15) 0.68672(14) 0.85721(13)
C5 C 1.04862(17) 0.72643(14) 0.61574(14)
O2 O 1.22912(17) 0.63702(14) 0.53618(13)
C6 C 0.94534(15) 0.72282(14) 0.67524(13)
C7 C 0.90085(16) 0.78908(13) 0.83121(13)
H5 H 0.8411 0.8273 0.8055
O3 O 0.72033(12) 0.64388(14) 0.74591(12)
C8 C 1.09175(18) 0.83412(14) 0.63062(15)
H6 H 1.0620 0.8760 0.5832
C9 C 0.76622(17) 0.69786(16) 0.93207(15)
C10 C 1.02335(19) 0.69293(18) 0.51899(15)
C11 C 0.71983(19) 0.59821(17) 0.95391(17)
H7 H 0.6794 0.5659 0.9104
C12 C 0.85379(18) 0.77890(19) 0.62733(16)
H8 H 0.7931 0.7857 0.6670
H9 H 0.8320 0.7430 0.5750
H10 H 0.8792 0.8429 0.6101
O4 O 0.81896(16) 0.55427(15) 1.17293(14)
C13 C 0.94347(19) 0.84555(16) 0.91186(15)
H11 H 0.9582 0.9128 0.8938
H12 H 1.0116 0.8163 0.9304
C14 C 1.20886(18) 0.62244(16) 0.61387(17)
C15 C 0.66827(19) 0.7631(2) 0.9013(2)
H13 H 0.6313 0.7313 0.8527
H14 H 0.6945 0.8261 0.8818
H15 H 0.6191 0.7719 0.9504
O5 O 1.37173(15) 0.53001(13) 0.64683(16)
C16 C 1.27556(18) 0.56665(16) 0.6776(2)
C17 C 1.04252(19) 0.86787(14) 0.72095(15)
H16 H 1.0988 0.8908 0.7612
H17 H 0.9906 0.9205 0.7118
C18 C 0.8202(2) 0.74639(17) 1.01064(16)
C19 C 0.8663(2) 0.84729(18) 0.99242(17)
H18 H 0.9051 0.8702 1.0449
H19 H 0.8076 0.8930 0.9807
C20 C 1.0298(2) 0.76907(18) 0.44622(15)
H20 H 1.1034 0.7938 0.4429
H21 H 0.9829 0.8239 0.4617
C21 C 1.2630(2) 0.5449(2) 0.7646(2)
H22 H 1.2042 0.5618 0.8003
C22 C 0.8305(2) 0.70086(18) 1.09029(18)
H23 H 0.8611 0.7349 1.1380
C23 C 1.4173(3) 0.4853(2) 0.7196(3)
H24 H 1.4843 0.4539 0.7186
C24 C 0.7949(2) 0.5998(2) 1.10358(17)
C25 C 0.7340(2) 0.55453(19) 1.03230(17)
H25 H 0.7036 0.4927 1.0417
C26 C 1.2150(2) 0.84335(19) 0.6285(2)
H26 H 1.2352 0.9107 0.6386
H27 H 1.2415 0.8225 0.5711
H28 H 1.2459 0.8027 0.6744
C27 C 1.3551(3) 0.4918(2) 0.7919(3)
H29 H 1.3694 0.4666 0.8486
O6 O 0.99632(18) 0.60908(13) 0.50602(12)
H30 H 0.699(2) 0.583(2) 0.712(2)
loop_
_geom_bond_atom_site_label_1
_geom_bond_atom_site_label_2
_geom_bond_site_symmetry_1
_geom_bond_site_symmetry_2
Cl1 C4 1_555 1_555
Cl2 C20 1_555 1_555
O1 C5 1_555 1_555
C1 H1 1_555 1_555
C2 H2 1_555 1_555
C3 C1 1_555 1_555
H3 C3 1_555 1_555
H4 C3 1_555 1_555
C4 C1 1_555 1_555
C5 C6 1_555 1_555
O2 C14 1_555 1_555
C6 C2 1_555 1_555
C7 C2 1_555 1_555
H5 C7 1_555 1_555
O3 C1 1_555 1_555
C8 C5 1_555 1_555
H6 C8 1_555 1_555
C9 C4 1_555 1_555
C10 C5 1_555 1_555
C11 C9 1_555 1_555
H7 C11 1_555 1_555
C12 C6 1_555 1_555
H8 C12 1_555 1_555
H9 C12 1_555 1_555
H10 C12 1_555 1_555
O4 C24 1_555 1_555
C13 C7 1_555 1_555
H11 C13 1_555 1_555
H12 C13 1_555 1_555
C14 O1 1_555 1_555
C15 C9 1_555 1_555
H13 C15 1_555 1_555
H14 C15 1_555 1_555
H15 C15 1_555 1_555
O5 C16 1_555 1_555
C16 C14 1_555 1_555
C17 C2 1_555 1_555
H16 C17 1_555 1_555
H17 C17 1_555 1_555
C18 C9 1_555 1_555
C19 C13 1_555 1_555
H18 C19 1_555 1_555
H19 C19 1_555 1_555
C20 C10 1_555 1_555
H20 C20 1_555 1_555
H21 C20 1_555 1_555
C21 C16 1_555 1_555
H22 C21 1_555 1_555
C22 C18 1_555 1_555
H23 C22 1_555 1_555
C23 O5 1_555 1_555
H24 C23 1_555 1_555
C24 C22 1_555 1_555
C25 C11 1_555 1_555
H25 C25 1_555 1_555
C26 C8 1_555 1_555
H26 C26 1_555 1_555
H27 C26 1_555 1_555
H28 C26 1_555 1_555
C27 C21 1_555 1_555
H29 C27 1_555 1_555
O6 C10 1_555 1_555
H30 O3 1_555 1_555
C3 C6 1_555 1_555
C4 C7 1_555 1_555
C8 C17 1_555 1_555
C18 C19 1_555 1_555
C23 C27 1_555 1_555
C24 C25 1_555 1_555

#END
