
#######################################################################
#
#                 Cambridge Crystallographic Data Centre
#                                CCDC 
#
#######################################################################
#
# If this CIF has been generated from an entry in the Cambridge 
# Structural Database, then it will include bibliographic, chemical, 
# crystal, experimental, refinement or atomic coordinate data resulting 
# from the CCDC's data processing and validation procedures.
#
#######################################################################

data_SEGZIP
_chemical_formula_moiety         'C14 H12 N2 O3'
_chemical_name_systematic        'Methyl 4-(pyridin-2-ylcarbamoyl)benzoate'
_symmetry_cell_setting           triclinic
_symmetry_space_group_name_H-M   'P -1'
_symmetry_Int_Tables_number      2
_space_group_name_Hall           '-P 1'
loop_
_symmetry_equiv_pos_site_id
_symmetry_equiv_pos_as_xyz
1 x,y,z
2 -x,-y,-z
_cell_length_a                   5.7769(12)
_cell_length_b                   7.8170(18)
_cell_length_c                   13.529(3)
_cell_angle_alpha                90.857(14)
_cell_angle_beta                 100.574(13)
_cell_angle_gamma                106.749(13)
_cell_volume                     573.595
_exptl_crystal_colour            colorless
_exptl_crystal_description       plate
_cell_formula_units_Z            2
loop_
_atom_site_label
_atom_site_type_symbol
_atom_site_fract_x
_atom_site_fract_y
_atom_site_fract_z
O1 O -0.1075(3) 0.6711(2) 0.37027(11)
O2 O -0.1787(3) 0.1291(2) -0.06353(12)
O3 O 0.2292(3) 0.2612(2) -0.04253(11)
N1 N 0.2510(3) 0.6100(3) 0.43910(13)
H1 H 0.3291 0.5331 0.4330
N2 N 0.5534(3) 0.7154(3) 0.57992(13)
C1 C 0.6651(4) 0.8371(3) 0.65796(16)
H2 H 0.8139 0.8305 0.6954
C2 C 0.5741(4) 0.9713(3) 0.68642(17)
H3 H 0.6595 1.0534 0.7407
C3 C 0.3515(4) 0.9791(3) 0.63131(16)
H4 H 0.2828 1.0665 0.6486
C4 C 0.2313(4) 0.8563(3) 0.55025(16)
H5 H 0.0800 0.8586 0.5131
C5 C 0.3410(4) 0.7294(3) 0.52539(16)
C6 C 0.0544(4) 0.6012(3) 0.36373(16)
C7 C 0.0516(4) 0.5018(3) 0.26764(16)
C8 C -0.1720(4) 0.3905(3) 0.21368(16)
H6 H -0.3147 0.3743 0.2396
C9 C -0.1842(4) 0.3038(3) 0.12212(17)
H7 H -0.3337 0.2282 0.0873
C10 C 0.0291(4) 0.3303(3) 0.08203(16)
C11 C 0.2501(4) 0.4443(3) 0.13434(17)
H8 H 0.3911 0.4652 0.1068
C12 C 0.2636(4) 0.5275(3) 0.22737(16)
H9 H 0.4141 0.6006 0.2629
C13 C 0.0104(4) 0.2299(3) -0.01523(17)
C14 C 0.2321(4) 0.1626(3) -0.13403(17)
H10 H 0.3963 0.1572 -0.1335
H11 H 0.1798 0.2221 -0.1917
H12 H 0.1223 0.0433 -0.1373
loop_
_geom_bond_atom_site_label_1
_geom_bond_atom_site_label_2
_geom_bond_site_symmetry_1
_geom_bond_site_symmetry_2
O1 C6 1_555 1_555
O2 C13 1_555 1_555
O3 C13 1_555 1_555
N1 H1 1_555 1_555
N2 C1 1_555 1_555
C1 H2 1_555 1_555
C2 C1 1_555 1_555
H3 C2 1_555 1_555
C3 C2 1_555 1_555
H4 C3 1_555 1_555
C4 C3 1_555 1_555
H5 C4 1_555 1_555
C5 N1 1_555 1_555
C6 N1 1_555 1_555
C7 C6 1_555 1_555
C8 C7 1_555 1_555
H6 C8 1_555 1_555
C9 C8 1_555 1_555
H7 C9 1_555 1_555
C10 C9 1_555 1_555
C11 C10 1_555 1_555
H8 C11 1_555 1_555
C12 C7 1_555 1_555
H9 C12 1_555 1_555
C13 C10 1_555 1_555
C14 O3 1_555 1_555
H10 C14 1_555 1_555
H11 C14 1_555 1_555
H12 C14 1_555 1_555
N2 C5 1_555 1_555
C4 C5 1_555 1_555
C11 C12 1_555 1_555

#END
