
#######################################################################
#
#                 Cambridge Crystallographic Data Centre
#                                CCDC 
#
#######################################################################
#
# If this CIF has been generated from an entry in the Cambridge 
# Structural Database, then it will include bibliographic, chemical, 
# crystal, experimental, refinement or atomic coordinate data resulting 
# from the CCDC's data processing and validation procedures.
#
#######################################################################

data_SEGZUC
_chemical_formula_moiety         'C23 H27 N1 O7'
_chemical_name_systematic        
'dimethyl 10,12b-dimethyl-4,7,13-trioxo-3a,4,5,6,9,10,11,12,12a,12b-decahydro-1H-11,12c-methanoazuleno[4,5-a]indolizine-3,6a(7H)-dicarboxylate'
_symmetry_cell_setting           monoclinic
_symmetry_space_group_name_H-M   'P 21/c'
_symmetry_Int_Tables_number      14
_space_group_name_Hall           '-P 2ybc'
loop_
_symmetry_equiv_pos_site_id
_symmetry_equiv_pos_as_xyz
1 x,y,z
2 -x,1/2+y,1/2-z
3 -x,-y,-z
4 x,1/2-y,1/2+z
_cell_length_a                   10.9607(5)
_cell_length_b                   6.5772(3)
_cell_length_c                   29.7316(12)
_cell_angle_alpha                90
_cell_angle_beta                 110.131(2)
_cell_angle_gamma                90
_cell_volume                     2012.43
_exptl_crystal_colour            colorless
_exptl_crystal_description       block
_cell_formula_units_Z            4
loop_
_atom_site_label
_atom_site_type_symbol
_atom_site_fract_x
_atom_site_fract_y
_atom_site_fract_z
C1 C 0.7997(2) 0.8758(3) 1.01919(7)
H1 H 0.8133 1.0169 1.0114
C2 C 0.6525(2) 0.8414(4) 1.00675(7)
H2 H 0.6377 0.7512 1.0302
H3 H 0.6101 0.9699 1.0077
C3 C 0.51848(19) 0.8484(3) 0.91990(7)
C4 C 0.50210(19) 0.7095(3) 0.87692(7)
C5 C 0.47096(19) 0.8406(3) 0.83132(7)
H4 H 0.3787 0.8710 0.8198
H5 H 0.5170 0.9686 0.8400
C6 C 0.5048(2) 0.7482(3) 0.79032(7)
H6 H 0.4634 0.6161 0.7828
H7 H 0.4690 0.8337 0.7623
C7 C 0.6486(2) 0.7229(3) 0.80040(7)
C8 C 0.74307(19) 0.8133(3) 0.84643(7)
H8 H 0.7171 0.9531 0.8502
C9 C 0.8795(2) 0.8126(3) 0.84518(7)
C10 C 0.9505(2) 0.6660(3) 0.87182(7)
H9 H 1.0365 0.6404 0.8749
C11 C 0.8760(2) 0.5458(3) 0.89638(8)
H10 H 0.9284 0.5192 0.9295
H11 H 0.8468 0.4174 0.8802
C12 C 0.75684(19) 0.6881(3) 0.89294(7)
C13 C 0.81171(18) 0.8307(3) 0.93690(7)
C14 C 0.84674(19) 0.7343(3) 0.98693(7)
H12 H 0.9412 0.7183 1.0009
C15 C 0.7819(2) 0.5261(3) 0.98377(7)
H13 H 0.8273 0.4245 0.9719
H14 H 0.7816 0.4837 1.0150
C16 C 0.6432(2) 0.5542(3) 0.94896(7)
H15 H 0.5869 0.4452 0.9530
C17 C 0.63101(19) 0.5743(3) 0.89518(7)
C18 C 0.8709(2) 0.8431(4) 1.07255(7)
H16 H 0.8367 0.9341 1.0905
H17 H 0.9619 0.8694 1.0800
H18 H 0.8590 0.7052 1.0808
C19 C 0.6158(2) 0.3629(3) 0.87238(8)
H19 H 0.6892 0.2803 0.8897
H20 H 0.6111 0.3750 0.8396
H21 H 0.5377 0.3008 0.8735
C20 C 0.3847(2) 0.5725(3) 0.87260(7)
C21 C 0.2363(2) 0.3342(4) 0.82416(9)
H22 H 0.2698 0.2244 0.8463
H23 H 0.2068 0.2824 0.7920
H24 H 0.1649 0.3970 0.8306
C22 C 0.9264(2) 0.9546(3) 0.81616(7)
C23 C 0.8735(2) 1.2462(4) 0.76681(8)
H25 H 0.9439 1.3276 0.7870
H26 H 0.8004 1.3320 0.7510
H27 H 0.9005 1.1778 0.7433
N1 N 0.59740(16) 0.7521(3) 0.95905(6)
O1 O 0.33791(14) 0.4832(2) 0.82961(5)
O2 O 0.33921(15) 0.5483(3) 0.90377(5)
O3 O 0.83284(13) 1.0087(2) 0.93249(5)
O4 O 1.03172(15) 0.9465(3) 0.81174(6)
O5 O 0.83704(14) 1.0976(2) 0.79570(5)
O6 O 0.68776(15) 0.6360(3) 0.77199(5)
O7 O 0.47090(15) 1.0170(2) 0.91818(5)
loop_
_geom_bond_atom_site_label_1
_geom_bond_atom_site_label_2
_geom_bond_site_symmetry_1
_geom_bond_site_symmetry_2
C1 H1 1_555 1_555
C2 C1 1_555 1_555
H2 C2 1_555 1_555
H3 C2 1_555 1_555
C3 C4 1_555 1_555
C4 C5 1_555 1_555
C5 H4 1_555 1_555
H5 C5 1_555 1_555
C6 C5 1_555 1_555
H6 C6 1_555 1_555
H7 C6 1_555 1_555
C7 C6 1_555 1_555
C8 C7 1_555 1_555
H8 C8 1_555 1_555
C9 C8 1_555 1_555
C10 C9 1_555 1_555
H9 C10 1_555 1_555
C11 C10 1_555 1_555
H10 C11 1_555 1_555
H11 C11 1_555 1_555
C12 C8 1_555 1_555
C13 C12 1_555 1_555
C14 C1 1_555 1_555
H12 C14 1_555 1_555
C15 C14 1_555 1_555
H13 C15 1_555 1_555
H14 C15 1_555 1_555
C16 C15 1_555 1_555
H15 C16 1_555 1_555
C17 C4 1_555 1_555
C18 C1 1_555 1_555
H16 C18 1_555 1_555
H17 C18 1_555 1_555
H18 C18 1_555 1_555
C19 C17 1_555 1_555
H19 C19 1_555 1_555
H20 C19 1_555 1_555
H21 C19 1_555 1_555
C20 C4 1_555 1_555
C21 H22 1_555 1_555
H23 C21 1_555 1_555
H24 C21 1_555 1_555
C22 C9 1_555 1_555
C23 H25 1_555 1_555
H26 C23 1_555 1_555
H27 C23 1_555 1_555
N1 C2 1_555 1_555
O1 C20 1_555 1_555
O2 C20 1_555 1_555
O3 C13 1_555 1_555
O4 C22 1_555 1_555
O5 C22 1_555 1_555
O6 C7 1_555 1_555
O7 C3 1_555 1_555
C3 N1 1_555 1_555
C11 C12 1_555 1_555
C12 C17 1_555 1_555
C13 C14 1_555 1_555
C16 C17 1_555 1_555
C16 N1 1_555 1_555
C21 O1 1_555 1_555
C23 O5 1_555 1_555

#END
