
#######################################################################
#
#                 Cambridge Crystallographic Data Centre
#                                CCDC 
#
#######################################################################
#
# If this CIF has been generated from an entry in the Cambridge 
# Structural Database, then it will include bibliographic, chemical, 
# crystal, experimental, refinement or atomic coordinate data resulting 
# from the CCDC's data processing and validation procedures.
#
#######################################################################

data_SEGZOV
_chemical_formula_moiety         'C14 H12 N2 O3'
_chemical_name_systematic        'Methyl 4-(pyridin-3-ylcarbamoyl)benzoate'
_symmetry_cell_setting           monoclinic
_symmetry_space_group_name_H-M   'P 21'
_symmetry_Int_Tables_number      4
_space_group_name_Hall           'P 2yb'
loop_
_symmetry_equiv_pos_site_id
_symmetry_equiv_pos_as_xyz
1 x,y,z
2 -x,1/2+y,-z
_cell_length_a                   3.9462(2)
_cell_length_b                   28.9809(11)
_cell_length_c                   5.2402(2)
_cell_angle_alpha                90
_cell_angle_beta                 95.337(2)
_cell_angle_gamma                90
_cell_volume                     596.694
_exptl_crystal_colour            colorless
_exptl_crystal_description       column
_cell_formula_units_Z            2
loop_
_atom_site_label
_atom_site_type_symbol
_atom_site_fract_x
_atom_site_fract_y
_atom_site_fract_z
O1 O 0.3946(5) 0.30154(5) 1.2881(3)
O2 O 0.1461(6) 0.06834(6) 0.9791(4)
O3 O -0.1427(5) 0.09171(5) 0.6167(4)
N1 N 0.4608(6) 0.44053(6) 0.6927(4)
N2 N 0.4061(4) 0.31870(5) 0.8659(3)
H1 H 0.3783 0.3075 0.7134
C1 C 0.6483(7) 0.45722(7) 0.8980(5)
H2 H 0.6983 0.4886 0.9031
C2 C 0.7708(6) 0.43013(7) 1.1024(4)
H3 H 0.9016 0.4431 1.2409
C3 C 0.6973(6) 0.38345(7) 1.0994(4)
H4 H 0.7797 0.3644 1.2338
C4 C 0.4977(5) 0.36600(6) 0.8907(3)
C5 C 0.3889(6) 0.39558(7) 0.6929(4)
H5 H 0.2582 0.3834 0.5519
C6 C 0.3591(5) 0.28980(6) 1.0622(4)
C7 C 0.2651(5) 0.24113(5) 0.9886(4)
C8 C 0.0805(5) 0.22872(6) 0.7617(4)
H6 H 0.0070 0.2512 0.6424
C9 C 0.0052(5) 0.18244(6) 0.7125(4)
H7 H -0.1220 0.1742 0.5610
C10 C 0.1173(5) 0.14850(6) 0.8864(4)
C11 C 0.3020(6) 0.16097(6) 1.1127(4)
H8 H 0.3796 0.1384 1.2298
C12 C 0.3722(5) 0.20693(7) 1.1659(4)
H9 H 0.4914 0.2151 1.3208
C13 C 0.0443(6) 0.09869(6) 0.8355(4)
C14 C -0.2223(8) 0.04400(8) 0.5475(6)
H10 H -0.3677 0.0432 0.3901
H11 H -0.3363 0.0297 0.6810
H12 H -0.0156 0.0276 0.5258
loop_
_geom_bond_atom_site_label_1
_geom_bond_atom_site_label_2
_geom_bond_site_symmetry_1
_geom_bond_site_symmetry_2
O1 C6 1_555 1_555
O2 C13 1_555 1_555
O3 C13 1_555 1_555
N1 C1 1_555 1_555
N2 H1 1_555 1_555
C1 H2 1_555 1_555
C2 C1 1_555 1_555
H3 C2 1_555 1_555
C3 C2 1_555 1_555
H4 C3 1_555 1_555
C4 N2 1_555 1_555
C5 N1 1_555 1_555
H5 C5 1_555 1_555
C6 N2 1_555 1_555
C7 C6 1_555 1_555
C8 C7 1_555 1_555
H6 C8 1_555 1_555
C9 C8 1_555 1_555
H7 C9 1_555 1_555
C10 C9 1_555 1_555
C11 C10 1_555 1_555
H8 C11 1_555 1_555
C12 C7 1_555 1_555
H9 C12 1_555 1_555
C13 C10 1_555 1_555
C14 O3 1_555 1_555
H10 C14 1_555 1_555
H11 C14 1_555 1_555
H12 C14 1_555 1_555
C3 C4 1_555 1_555
C4 C5 1_555 1_555
C11 C12 1_555 1_555

#END
