
#######################################################################
#
#                 Cambridge Crystallographic Data Centre
#                                CCDC 
#
#######################################################################
#
# If this CIF has been generated from an entry in the Cambridge 
# Structural Database, then it will include bibliographic, chemical, 
# crystal, experimental, refinement or atomic coordinate data resulting 
# from the CCDC's data processing and validation procedures.
#
#######################################################################

data_SEHBAL
_chemical_formula_moiety         'C23 H27 N1 O5,2(H2 O1)'
_chemical_name_systematic        
'methyl 8,10b-dimethyl-1,5,13-trioxo-3,4,7,8,9,10,10a,10b,11,12,12a,12b-dodecahydro-1H-9,10c-methanocyclopenta[1,8]azuleno[4,5-a]indolizine-4a(5H)-carboxylate dihydrate'
_symmetry_cell_setting           monoclinic
_symmetry_space_group_name_H-M   'P 21'
_symmetry_Int_Tables_number      4
_space_group_name_Hall           'P 2yb'
loop_
_symmetry_equiv_pos_site_id
_symmetry_equiv_pos_as_xyz
1 x,y,z
2 -x,1/2+y,-z
_cell_length_a                   10.8118(5)
_cell_length_b                   8.8697(4)
_cell_length_c                   11.4025(5)
_cell_angle_alpha                90
_cell_angle_beta                 104.619(2)
_cell_angle_gamma                90
_cell_volume                     1058.07
_exptl_crystal_colour            colorless
_exptl_crystal_description       block
_cell_formula_units_Z            2
loop_
_atom_site_label
_atom_site_type_symbol
_atom_site_fract_x
_atom_site_fract_y
_atom_site_fract_z
C1 C 0.4742(2) 0.8820(3) 0.8798(2)
H1 H 0.4450 0.8511 0.9499
H2 H 0.5581 0.9274 0.9085
C2 C 0.4837(2) 0.7422(3) 0.8009(2)
H3 H 0.5595 0.7529 0.7693
C3 C 0.3635(2) 0.7410(3) 0.69295(19)
H4 H 0.3524 0.6403 0.6565
C4 C 0.2464(2) 0.7806(3) 0.7391(2)
H5 H 0.1684 0.7508 0.6807
H6 H 0.2501 0.7303 0.8155
C5 C 0.2514(2) 0.9509(3) 0.75563(19)
H7 H 0.1973 0.9821 0.8085
C6 C 0.21875(19) 1.0441(3) 0.63643(18)
C7 C 0.2983(2) 1.1930(3) 0.68336(19)
C8 C 0.4156(2) 1.1287(3) 0.7750(2)
C9 C 0.3428(2) 1.2954(3) 0.5936(2)
H8 H 0.3660 1.3927 0.6317
H9 H 0.4194 1.2521 0.5777
C10 C 0.2453(2) 1.3207(3) 0.4723(2)
H10 H 0.1627 1.3431 0.4872
H11 H 0.2711 1.4073 0.4322
C11 C 0.2325(2) 1.1872(3) 0.3908(2)
C12 C 0.1655(2) 1.1768(3) 0.2742(2)
H12 H 0.1110 1.2510 0.2325
C13 C 0.1899(2) 1.0344(3) 0.2231(2)
C14 C 0.2834(2) 0.9439(3) 0.32087(19)
H13 H 0.3627 0.9240 0.2967
C15 C 0.3093(2) 1.0466(3) 0.43357(19)
H14 H 0.4005 1.0716 0.4593
C16 C 0.26917(19) 0.9550(2) 0.53591(18)
C17 C 0.1691(2) 0.8433(3) 0.4578(2)
H15 H 0.1571 0.7563 0.5054
H16 H 0.0873 0.8927 0.4270
C18 C 0.2264(2) 0.7968(3) 0.3546(2)
H17 H 0.1612 0.7578 0.2867
H18 H 0.2921 0.7208 0.3809
C19 C 0.3834(2) 0.8554(3) 0.59914(18)
C20 C 0.2229(2) 1.2938(3) 0.7510(2)
C21 C 0.0744(2) 1.0705(3) 0.5966(2)
H19 H 0.0308 0.9753 0.5883
H20 H 0.0533 1.1223 0.5203
H21 H 0.0484 1.1304 0.6564
C22 C 0.4977(3) 0.5996(3) 0.8778(2)
H22 H 0.4234 0.5873 0.9085
H23 H 0.5722 0.6077 0.9443
H24 H 0.5062 0.5140 0.8289
C23 C 0.1669(3) 1.3400(3) 0.9350(2)
H25 H 0.1915 1.4440 0.9360
H26 H 0.1851 1.3024 1.0166
H27 H 0.0770 1.3308 0.8981
N1 N 0.38569(16) 0.9924(2) 0.80991(16)
O1 O 0.15872(18) 1.3995(2) 0.70487(17)
O2 O 0.23829(15) 1.2528(2) 0.86581(14)
O3 O 0.51972(15) 1.1922(2) 0.80713(14)
O4 O 0.48479(15) 0.8629(2) 0.57232(14)
O5 O 0.14747(17) 0.9895(2) 0.11854(15)
O6 O 0.22935(19) 0.7021(3) 0.05062(17)
H28 H 0.310(4) 0.691(5) 0.092(4)
H29 H 0.211(4) 0.799(6) 0.071(4)
O7 O 0.0359(2) 0.5232(3) 0.12139(18)
H30 H -0.020(4) 0.519(5) 0.044(4)
H31 H 0.103(5) 0.570(5) 0.107(4)
loop_
_geom_bond_atom_site_label_1
_geom_bond_atom_site_label_2
_geom_bond_site_symmetry_1
_geom_bond_site_symmetry_2
C1 H1 1_555 1_555
H2 C1 1_555 1_555
C2 C1 1_555 1_555
H3 C2 1_555 1_555
C3 C2 1_555 1_555
H4 C3 1_555 1_555
C4 C3 1_555 1_555
H5 C4 1_555 1_555
H6 C4 1_555 1_555
C5 C4 1_555 1_555
H7 C5 1_555 1_555
C6 C5 1_555 1_555
C7 C6 1_555 1_555
C8 C7 1_555 1_555
C9 C7 1_555 1_555
H8 C9 1_555 1_555
H9 C9 1_555 1_555
C10 C9 1_555 1_555
H10 C10 1_555 1_555
H11 C10 1_555 1_555
C11 C10 1_555 1_555
C12 C11 1_555 1_555
H12 C12 1_555 1_555
C13 C12 1_555 1_555
C14 C13 1_555 1_555
H13 C14 1_555 1_555
C15 C11 1_555 1_555
H14 C15 1_555 1_555
C16 C6 1_555 1_555
C17 C16 1_555 1_555
H15 C17 1_555 1_555
H16 C17 1_555 1_555
C18 C14 1_555 1_555
H17 C18 1_555 1_555
H18 C18 1_555 1_555
C19 C3 1_555 1_555
C20 C7 1_555 1_555
C21 C6 1_555 1_555
H19 C21 1_555 1_555
H20 C21 1_555 1_555
H21 C21 1_555 1_555
C22 C2 1_555 1_555
H22 C22 1_555 1_555
H23 C22 1_555 1_555
H24 C22 1_555 1_555
C23 H25 1_555 1_555
H26 C23 1_555 1_555
H27 C23 1_555 1_555
N1 C1 1_555 1_555
O1 C20 1_555 1_555
O2 C20 1_555 1_555
O3 C8 1_555 1_555
O4 C19 1_555 1_555
O5 C13 1_555 1_555
O6 H28 1_555 1_555
H29 O6 1_555 1_555
O7 H30 1_555 1_555
H31 O7 1_555 1_555
C5 N1 1_555 1_555
C8 N1 1_555 1_555
C14 C15 1_555 1_555
C15 C16 1_555 1_555
C16 C19 1_555 1_555
C17 C18 1_555 1_555
C23 O2 1_555 1_555

#END
