
#######################################################################
#
#                 Cambridge Crystallographic Data Centre
#                                CCDC 
#
#######################################################################
#
# If this CIF has been generated from an entry in the Cambridge 
# Structural Database, then it will include bibliographic, chemical, 
# crystal, experimental, refinement or atomic coordinate data resulting 
# from the CCDC's data processing and validation procedures.
#
#######################################################################

data_SEHCIU
_chemical_formula_moiety         'C18 H25 N1 O4'
_chemical_name_systematic        
'methyl 3,11a-dimethyl-6,12-dioxodecahydro-2H-2,11-methanocyclohepta[a]indolizine-6a(6H)-carboxylate'
_symmetry_cell_setting           orthorhombic
_symmetry_space_group_name_H-M   'P 21 21 21'
_symmetry_Int_Tables_number      19
_space_group_name_Hall           'P 2ac 2ab'
loop_
_symmetry_equiv_pos_site_id
_symmetry_equiv_pos_as_xyz
1 x,y,z
2 1/2-x,-y,1/2+z
3 1/2+x,1/2-y,-z
4 -x,1/2+y,1/2-z
_cell_length_a                   7.1734(4)
_cell_length_b                   14.6205(9)
_cell_length_c                   15.2005(9)
_cell_angle_alpha                90
_cell_angle_beta                 90
_cell_angle_gamma                90
_cell_volume                     1594.21
_exptl_crystal_colour            colorless
_exptl_crystal_description       block
_cell_formula_units_Z            4
loop_
_atom_site_label
_atom_site_type_symbol
_atom_site_fract_x
_atom_site_fract_y
_atom_site_fract_z
C1 C 0.4850(3) 0.01667(12) 0.14771(12)
H1 H 0.4736 -0.0191 0.2020
C2 C 0.5169(3) -0.04742(12) 0.06772(12)
C3 C 0.3100(3) -0.07286(13) 0.04296(13)
C4 C 0.2026(3) 0.01422(13) 0.06880(13)
C5 C 0.2769(3) 0.15640(13) 0.15078(13)
H2 H 0.2884 0.1633 0.2140
H3 H 0.1521 0.1748 0.1338
C6 C 0.4214(3) 0.21729(12) 0.10418(12)
H4 H 0.3683 0.2368 0.0478
C7 C 0.5980(2) 0.15973(13) 0.08470(12)
H5 H 0.7053 0.2010 0.0812
C8 C 0.6330(3) 0.09072(13) 0.15809(13)
H6 H 0.7568 0.0647 0.1528
H7 H 0.6223 0.1199 0.2152
C9 C 0.5776(2) 0.11012(13) -0.00375(12)
C10 C 0.6251(3) 0.00895(12) -0.00358(12)
H8 H 0.7526 0.0088 0.0196
C11 C 0.6504(3) -0.03559(14) -0.09436(13)
H9 H 0.7610 -0.0092 -0.1209
H10 H 0.6758 -0.1000 -0.0850
C12 C 0.4930(4) -0.02875(14) -0.16152(13)
H11 H 0.5111 0.0262 -0.1963
H12 H 0.5010 -0.0807 -0.2011
C13 C 0.2997(3) -0.02628(15) -0.12205(14)
H13 H 0.2090 -0.0333 -0.1689
H14 H 0.2799 0.0332 -0.0954
C14 C 0.2650(3) -0.10012(14) -0.05276(13)
H15 H 0.3391 -0.1534 -0.0678
H16 H 0.1349 -0.1180 -0.0557
C15 C 0.2440(3) -0.15390(14) 0.09880(14)
C16 C 0.0773(3) -0.20241(15) 0.22365(15)
H17 H -0.0306 -0.2257 0.1938
H18 H 0.0417 -0.1800 0.2806
H19 H 0.1673 -0.2505 0.2304
C17 C 0.6392(3) -0.12916(14) 0.09374(14)
H20 H 0.7610 -0.1078 0.1098
H21 H 0.6492 -0.1705 0.0449
H22 H 0.5837 -0.1603 0.1428
C18 C 0.4621(3) 0.30264(13) 0.15830(15)
H23 H 0.3473 0.3334 0.1716
H24 H 0.5417 0.3428 0.1253
H25 H 0.5230 0.2855 0.2121
N1 N 0.3077(2) 0.06108(10) 0.12646(11)
O1 O 0.1581(2) -0.12857(9) 0.17271(9)
O2 O 0.2654(4) -0.23229(11) 0.07877(13)
O3 O 0.0508(2) 0.03769(11) 0.03994(11)
O4 O 0.5390(2) 0.15291(9) -0.06948(9)
loop_
_geom_bond_atom_site_label_1
_geom_bond_atom_site_label_2
_geom_bond_site_symmetry_1
_geom_bond_site_symmetry_2
C1 H1 1_555 1_555
C2 C1 1_555 1_555
C3 C2 1_555 1_555
C4 C3 1_555 1_555
C5 H2 1_555 1_555
H3 C5 1_555 1_555
C6 C5 1_555 1_555
H4 C6 1_555 1_555
C7 C6 1_555 1_555
H5 C7 1_555 1_555
C8 C1 1_555 1_555
H6 C8 1_555 1_555
H7 C8 1_555 1_555
C9 C7 1_555 1_555
C10 C2 1_555 1_555
H8 C10 1_555 1_555
C11 C10 1_555 1_555
H9 C11 1_555 1_555
H10 C11 1_555 1_555
C12 C11 1_555 1_555
H11 C12 1_555 1_555
H12 C12 1_555 1_555
C13 C12 1_555 1_555
H13 C13 1_555 1_555
H14 C13 1_555 1_555
C14 C3 1_555 1_555
H15 C14 1_555 1_555
H16 C14 1_555 1_555
C15 C3 1_555 1_555
C16 H17 1_555 1_555
H18 C16 1_555 1_555
H19 C16 1_555 1_555
C17 C2 1_555 1_555
H20 C17 1_555 1_555
H21 C17 1_555 1_555
H22 C17 1_555 1_555
C18 C6 1_555 1_555
H23 C18 1_555 1_555
H24 C18 1_555 1_555
H25 C18 1_555 1_555
N1 C1 1_555 1_555
O1 C15 1_555 1_555
O2 C15 1_555 1_555
O3 C4 1_555 1_555
O4 C9 1_555 1_555
C4 N1 1_555 1_555
C5 N1 1_555 1_555
C7 C8 1_555 1_555
C9 C10 1_555 1_555
C13 C14 1_555 1_555
C16 O1 1_555 1_555

#END
