
#######################################################################
#
#                 Cambridge Crystallographic Data Centre
#                                CCDC 
#
#######################################################################
#
# If this CIF has been generated from an entry in the Cambridge 
# Structural Database, then it will include bibliographic, chemical, 
# crystal, experimental, refinement or atomic coordinate data resulting 
# from the CCDC's data processing and validation procedures.
#
#######################################################################

data_SEHDAL
_chemical_name_common            
'cis-anti-cis Dicyclohexyl-18-crown-6 bis(thiacetazone) bis(methanol) clathrate'
_chemical_formula_moiety         'C20 H36 O6,2(C10 H12 N4 O1 S1),2(C1 H4 O1)'
_chemical_name_systematic        
'2,5,8,15,18,21-Hexaoxa-tricyclo(20.4.0.0^9,14^)hexacosane bis(4-acetylaminobenzaldehyde thiosemicarbazone) bis(methanol) clathrate'
_chemical_properties_biological  'thiacetazone is an antimicrobial drug'
_symmetry_cell_setting           triclinic
_symmetry_space_group_name_H-M   'P -1'
_symmetry_Int_Tables_number      2
_space_group_name_Hall           '-P 1'
loop_
_symmetry_equiv_pos_site_id
_symmetry_equiv_pos_as_xyz
1 x,y,z
2 -x,-y,-z
_cell_length_a                   9.6712(18)
_cell_length_b                   9.9236(18)
_cell_length_c                   14.849(4)
_cell_angle_alpha                93.17(3)
_cell_angle_beta                 91.38(2)
_cell_angle_gamma                118.649(7)
_cell_volume                     1246.64
_exptl_crystal_colour            colorless
_exptl_crystal_description       prism
_chemical_melting_point          'above 513 K(dec.)'
_cell_formula_units_Z            1
_exptl_crystal_recrystallization_method 'methanol/ethyl acetate'
loop_
_atom_site_label
_atom_site_type_symbol
_atom_site_fract_x
_atom_site_fract_y
_atom_site_fract_z
S1 S 1.03225(7) 1.40142(6) 0.16405(4)
O4 O 0.8448(2) 0.31868(17) 0.41805(10)
N1 N 0.7502(2) 0.43447(17) 0.51568(12)
H2 H 0.713(2) 0.428(2) 0.5675(14)
N2 N 0.9140(2) 1.02901(17) 0.29149(11)
N3 N 0.9416(2) 1.1732(2) 0.26938(13)
H3 H 0.925(3) 1.229(3) 0.3081(15)
N4 N 1.0106(2) 1.1255(2) 0.13103(12)
H4 H 0.996(3) 1.038(3) 0.1462(15)
H5 H 1.053(2) 1.153(2) 0.0807(15)
C11 C 0.7245(3) 0.1894(3) 0.54867(18)
H24 H 0.8087 0.1634 0.5602
H25 H 0.6317 0.0991 0.5197
H26 H 0.6963 0.2211 0.6060
C12 C 0.7808(2) 0.3196(2) 0.48727(13)
C13 C 0.7843(2) 0.5709(2) 0.47471(12)
C14 C 0.7463(4) 0.6717(3) 0.52225(16)
H27 H 0.6995 0.6463 0.5787
C15 C 0.7762(4) 0.8089(3) 0.48781(17)
H28 H 0.7519 0.8780 0.5218
C16 C 0.8408(3) 0.8479(2) 0.40466(14)
C17 C 0.8777(2) 0.7454(2) 0.35790(12)
H29 H 0.9232 0.7700 0.3011
C18 C 0.8499(2) 0.6090(2) 0.39194(12)
H30 H 0.8758 0.5407 0.3584
C19 C 0.8712(3) 0.9946(3) 0.37037(15)
H31 H 0.8582 1.0668 0.4091
C20 C 0.9936(2) 1.2213(2) 0.18835(13)
O1 O 1.33801(15) 1.16556(15) 0.07337(9)
O2 O 1.14770(14) 1.23492(13) -0.04789(8)
O3 O 1.13522(15) 0.89473(14) 0.15644(8)
C1 C 1.3002(2) 0.9825(2) 0.18067(13)
H6 H 1.3377 0.9101 0.2001
C2 C 1.3201(2) 1.0922(3) 0.26181(13)
H7 H 1.2571 1.0326 0.3111
H8 H 1.2803 1.1630 0.2448
C3 C 1.4931(3) 1.1856(3) 0.29518(16)
H9 H 1.5042 1.2605 0.3455
H10 H 1.5297 1.1157 0.3184
C4 C 1.5951(3) 1.2713(3) 0.21926(17)
H11 H 1.7075 1.3248 0.2413
H12 H 1.5670 1.3500 0.2012
C5 C 1.5726(2) 1.1613(3) 0.13748(16)
H13 H 1.6116 1.0896 0.1540
H14 H 1.6358 1.2210 0.0883
C6 C 1.3992(2) 1.0687(2) 0.10368(13)
H15 H 1.3880 0.9929 0.0530
C7 C 1.3796(3) 1.2152(3) -0.01399(15)
H16 H 1.3361 1.1252 -0.0589
H17 H 1.4959 1.2702 -0.0166
C8 C 1.3144(2) 1.3205(3) -0.03535(16)
H18 H 1.3443 1.4011 0.0148
H19 H 1.3595 1.3717 -0.0909
C9 C 1.0813(2) 1.3255(2) -0.08135(14)
H20 H 1.1212 1.3600 -0.1412
H21 H 1.1118 1.4177 -0.0395
C10 C 1.0939(2) 0.7713(2) 0.08905(14)
H22 H 1.1328 0.8129 0.0303
H23 H 1.1432 0.7082 0.1060
O1A O 0.66199(15) 0.83444(15) -0.07337(9)
O2A O 0.85230(14) 0.76508(13) 0.04789(8)
O3A O 0.86478(15) 1.10527(14) -0.15644(8)
C1A C 0.6998(2) 1.0175(2) -0.18067(13)
H6A H 0.6623 1.0899 -0.2001
C2A C 0.6799(2) 0.9078(3) -0.26181(13)
H7A H 0.7429 0.9674 -0.3111
H8A H 0.7197 0.8370 -0.2448
C3A C 0.5069(3) 0.8144(3) -0.29518(16)
H9A H 0.4958 0.7395 -0.3455
H10A H 0.4703 0.8843 -0.3184
C4A C 0.4049(3) 0.7287(3) -0.21926(17)
H11A H 0.2925 0.6752 -0.2413
H12A H 0.4330 0.6500 -0.2012
C5A C 0.4274(2) 0.8387(3) -0.13748(16)
H13A H 0.3884 0.9104 -0.1540
H14A H 0.3642 0.7790 -0.0883
C6A C 0.6008(2) 0.9313(2) -0.10368(13)
H15A H 0.6120 1.0071 -0.0530
C7A C 0.6204(3) 0.7848(3) 0.01399(15)
H16A H 0.6639 0.8748 0.0589
H17A H 0.5041 0.7298 0.0166
C8A C 0.6856(2) 0.6795(3) 0.03535(16)
H18A H 0.6557 0.5989 -0.0148
H19A H 0.6405 0.6283 0.0909
C9A C 0.9187(2) 0.6745(2) 0.08135(14)
H20A H 0.8788 0.6400 0.1412
H21A H 0.8882 0.5823 0.0395
C10A C 0.9061(2) 1.2287(2) -0.08905(14)
H22A H 0.8672 1.1871 -0.0303
H23A H 0.8568 1.2918 -0.1060
O5 O 0.6666(3) 0.4218(3) 0.69884(13)
H1 H 0.754(4) 0.467(5) 0.735(3)
C21 C 0.5427(5) 0.3862(6) 0.7461(3)
H32 H 0.5703 0.4636 0.7970
H33 H 0.5074 0.2848 0.7691
H34 H 0.4576 0.3838 0.7077
loop_
_geom_bond_atom_site_label_1
_geom_bond_atom_site_label_2
_geom_bond_site_symmetry_1
_geom_bond_site_symmetry_2
S1 C20 1_555 1_555
O1 C6 1_555 1_555
O2 C8 1_555 1_555
O3 C1 1_555 1_555
O4 C12 1_555 1_555
O5 H1 1_555 1_555
N1 H2 1_555 1_555
N2 N3 1_555 1_555
N3 H3 1_555 1_555
N4 H4 1_555 1_555
H5 N4 1_555 1_555
C1 H6 1_555 1_555
C2 C1 1_555 1_555
H7 C2 1_555 1_555
H8 C2 1_555 1_555
C3 C2 1_555 1_555
H9 C3 1_555 1_555
H10 C3 1_555 1_555
C4 C3 1_555 1_555
H11 C4 1_555 1_555
H12 C4 1_555 1_555
C5 C4 1_555 1_555
H13 C5 1_555 1_555
H14 C5 1_555 1_555
C6 C1 1_555 1_555
H15 C6 1_555 1_555
C7 O1 1_555 1_555
H16 C7 1_555 1_555
H17 C7 1_555 1_555
C8 C7 1_555 1_555
H18 C8 1_555 1_555
H19 C8 1_555 1_555
C9 O2 1_555 1_555
H20 C9 1_555 1_555
H21 C9 1_555 1_555
C10 O3 1_555 1_555
H22 C10 1_555 1_555
H23 C10 1_555 1_555
C11 H24 1_555 1_555
H25 C11 1_555 1_555
H26 C11 1_555 1_555
C12 N1 1_555 1_555
C13 N1 1_555 1_555
C14 C13 1_555 1_555
H27 C14 1_555 1_555
C15 C14 1_555 1_555
H28 C15 1_555 1_555
C16 C15 1_555 1_555
C17 C16 1_555 1_555
H29 C17 1_555 1_555
C18 C13 1_555 1_555
H30 C18 1_555 1_555
C19 N2 1_555 1_555
H31 C19 1_555 1_555
C20 N3 1_555 1_555
C21 O5 1_555 1_555
H32 C21 1_555 1_555
H33 C21 1_555 1_555
H34 C21 1_555 1_555
O1A C6A 1_555 1_555
O2A C8A 1_555 1_555
O3A C1A 1_555 1_555
C1A H6A 1_555 1_555
C2A C1A 1_555 1_555
H7A C2A 1_555 1_555
H8A C2A 1_555 1_555
C3A C2A 1_555 1_555
H9A C3A 1_555 1_555
H10A C3A 1_555 1_555
C4A C3A 1_555 1_555
H11A C4A 1_555 1_555
H12A C4A 1_555 1_555
C5A C4A 1_555 1_555
H13A C5A 1_555 1_555
H14A C5A 1_555 1_555
C6A C1A 1_555 1_555
H15A C6A 1_555 1_555
C7A O1A 1_555 1_555
H16A C7A 1_555 1_555
H17A C7A 1_555 1_555
C8A C7A 1_555 1_555
H18A C8A 1_555 1_555
H19A C8A 1_555 1_555
C9A C10 1_555 1_555
H20A C9A 1_555 1_555
H21A C9A 1_555 1_555
C10A C9 1_555 1_555
H22A C10A 1_555 1_555
H23A C10A 1_555 1_555
N4 C20 1_555 1_555
C5 C6 1_555 1_555
C11 C12 1_555 1_555
C16 C19 1_555 1_555
C17 C18 1_555 1_555
O2A C9A 1_555 1_555
O3A C10A 1_555 1_555
C5A C6A 1_555 1_555

#END
