
#######################################################################
#
#                 Cambridge Crystallographic Data Centre
#                                CCDC 
#
#######################################################################
#
# If this CIF has been generated from an entry in the Cambridge 
# Structural Database, then it will include bibliographic, chemical, 
# crystal, experimental, refinement or atomic coordinate data resulting 
# from the CCDC's data processing and validation procedures.
#
#######################################################################

data_SEHDAN
_chemical_formula_moiety         'C24 H21 N1 O3 S1,C1 H2 Cl2'
_chemical_name_systematic        
"4-methyl-N-(2'-phenyl-1H,3H-spiro[2-benzopyran-4,1'-cyclopropan]-3-ylidene)benzene-1-sulfonamide dichloromethane solvate"
_symmetry_cell_setting           triclinic
_symmetry_space_group_name_H-M   'P -1'
_symmetry_Int_Tables_number      2
_space_group_name_Hall           '-P 1'
loop_
_symmetry_equiv_pos_site_id
_symmetry_equiv_pos_as_xyz
1 x,y,z
2 -x,-y,-z
_cell_length_a                   8.5868(3)
_cell_length_b                   9.9563(5)
_cell_length_c                   14.1824(6)
_cell_angle_alpha                87.050(4)
_cell_angle_beta                 88.435(3)
_cell_angle_gamma                89.106(4)
_cell_volume                     1210.31
_exptl_crystal_colour            colorless
_exptl_crystal_description       plate
_cell_formula_units_Z            2
loop_
_atom_site_label
_atom_site_type_symbol
_atom_site_fract_x
_atom_site_fract_y
_atom_site_fract_z
S1 S 0.34581(8) 0.39761(7) 0.63136(5)
O1 O 0.1259(3) 0.3582(2) 0.49217(17)
O2 O 0.3641(3) 0.5302(2) 0.58769(17)
O3 O 0.2126(3) 0.3746(3) 0.69312(17)
N1 N 0.3586(3) 0.2839(2) 0.55171(18)
C1 C -0.1657(4) 0.1659(3) 0.3801(3)
H1 H -0.2505 0.2248 0.3841
C2 C -0.1871(4) 0.0334(4) 0.3593(3)
H2 H -0.2865 0.0035 0.3476
C3 C -0.0622(4) -0.0540(3) 0.3559(2)
H3 H -0.0776 -0.1428 0.3414
C4 C 0.0867(4) -0.0115(3) 0.3739(2)
H4 H 0.1701 -0.0723 0.3735
C5 C 0.1107(3) 0.1219(3) 0.3924(2)
C6 C -0.0163(4) 0.2100(3) 0.3949(2)
C7 C 0.0187(4) 0.3530(3) 0.4140(3)
H5 H 0.0648 0.3973 0.3577
H6 H -0.0774 0.4004 0.4296
C8 C 0.2510(3) 0.2775(3) 0.4906(2)
C9 C 0.2635(3) 0.1786(3) 0.4159(2)
C10 C 0.4143(4) 0.1032(3) 0.4059(2)
H7 H 0.4910 0.1138 0.4538
H8 H 0.4106 0.0135 0.3825
C11 C 0.3884(4) 0.2184(3) 0.3371(2)
H9 H 0.4474 0.2986 0.3501
C12 C 0.3578(4) 0.2055(3) 0.2355(3)
C13 C 0.3530(6) 0.0841(4) 0.1926(3)
H10 H 0.3662 0.0042 0.2287
C14 C 0.3291(8) 0.0801(5) 0.0975(3)
H11 H 0.3247 -0.0029 0.0705
C15 C 0.3116(8) 0.1939(6) 0.0422(3)
H12 H 0.2961 0.1897 -0.0222
C16 C 0.3174(9) 0.3164(6) 0.0834(4)
H13 H 0.3072 0.3957 0.0464
C17 C 0.3382(7) 0.3215(5) 0.1785(3)
H14 H 0.3392 0.4046 0.2055
C18 C 0.5148(3) 0.3566(3) 0.6954(2)
C19 C 0.6603(4) 0.3672(3) 0.6503(2)
H15 H 0.6689 0.3921 0.5863
C20 C 0.7926(4) 0.3401(3) 0.7026(2)
H16 H 0.8903 0.3465 0.6730
C21 C 0.7814(4) 0.3036(3) 0.7982(2)
C22 C 0.6347(4) 0.2957(4) 0.8412(3)
H17 H 0.6256 0.2721 0.9054
C23 C 0.5014(4) 0.3223(4) 0.7902(2)
H18 H 0.4036 0.3169 0.8200
C24 C 0.9264(5) 0.2735(6) 0.8543(3)
H19 H 0.9209 0.3216 0.9113
H20 H 1.0167 0.3013 0.8174
H21 H 0.9337 0.1787 0.8699
Cl1 Cl -0.2176(5) 0.1158(4) 0.10484(18)
Cl2 Cl -0.1615(8) 0.3772(5) 0.1382(4)
C25 C -0.0884(10) 0.2118(14) 0.1339(5)
H22 H -0.0017 0.2093 0.0887
H23 H -0.0504 0.1820 0.1954
loop_
_geom_bond_atom_site_label_1
_geom_bond_atom_site_label_2
_geom_bond_site_symmetry_1
_geom_bond_site_symmetry_2
S1 O2 1_555 1_555
O1 C7 1_555 1_555
O3 S1 1_555 1_555
N1 S1 1_555 1_555
C1 H1 1_555 1_555
C2 C1 1_555 1_555
H2 C2 1_555 1_555
C3 C2 1_555 1_555
H3 C3 1_555 1_555
C4 C3 1_555 1_555
H4 C4 1_555 1_555
C5 C4 1_555 1_555
C6 C1 1_555 1_555
C7 C6 1_555 1_555
H5 C7 1_555 1_555
H6 C7 1_555 1_555
C8 O1 1_555 1_555
C9 C5 1_555 1_555
C10 C9 1_555 1_555
H7 C10 1_555 1_555
H8 C10 1_555 1_555
C11 C9 1_555 1_555
H9 C11 1_555 1_555
C12 C11 1_555 1_555
C13 C12 1_555 1_555
H10 C13 1_555 1_555
C14 C13 1_555 1_555
H11 C14 1_555 1_555
C15 C14 1_555 1_555
H12 C15 1_555 1_555
C16 C15 1_555 1_555
H13 C16 1_555 1_555
C17 C12 1_555 1_555
H14 C17 1_555 1_555
C18 S1 1_555 1_555
C19 C18 1_555 1_555
H15 C19 1_555 1_555
C20 C19 1_555 1_555
H16 C20 1_555 1_555
C21 C20 1_555 1_555
C22 C21 1_555 1_555
H17 C22 1_555 1_555
C23 C18 1_555 1_555
H18 C23 1_555 1_555
C24 C21 1_555 1_555
H19 C24 1_555 1_555
H20 C24 1_555 1_555
H21 C24 1_555 1_555
Cl1 C25 1_555 1_555
Cl2 C25 1_555 1_555
C25 H22 1_555 1_555
H23 C25 1_555 1_555
N1 C8 1_555 1_555
C5 C6 1_555 1_555
C8 C9 1_555 1_555
C10 C11 1_555 1_555
C16 C17 1_555 1_555
C22 C23 1_555 1_555

#END
