
#######################################################################
#
#                 Cambridge Crystallographic Data Centre
#                                CCDC 
#
#######################################################################
#
# If this CIF has been generated from an entry in the Cambridge 
# Structural Database, then it will include bibliographic, chemical, 
# crystal, experimental, refinement or atomic coordinate data resulting 
# from the CCDC's data processing and validation procedures.
#
#######################################################################

data_SEHGAO
_chemical_formula_moiety         'C28 H24 N6 O4'
_chemical_name_systematic        
'bis(2-(4-Phenyl-1H-1,2,3-triazol-1-yl)ethyl) benzene-2,4-dicarboxylate'
_symmetry_cell_setting           monoclinic
_symmetry_space_group_name_H-M   'P 21/c'
_symmetry_Int_Tables_number      14
_space_group_name_Hall           '-P 2ybc'
loop_
_symmetry_equiv_pos_site_id
_symmetry_equiv_pos_as_xyz
1 x,y,z
2 -x,1/2+y,1/2-z
3 -x,-y,-z
4 x,1/2-y,1/2+z
_cell_length_a                   5.538(3)
_cell_length_b                   30.783(17)
_cell_length_c                   7.930(5)
_cell_angle_alpha                90
_cell_angle_beta                 107.617(11)
_cell_angle_gamma                90
_cell_volume                     1288.47
_exptl_crystal_colour            colorless
_exptl_crystal_description       needle
_cell_formula_units_Z            2
_exptl_crystal_recrystallization_method DMF
loop_
_atom_site_label
_atom_site_type_symbol
_atom_site_fract_x
_atom_site_fract_y
_atom_site_fract_z
O1 O 0.4118(4) 0.45456(7) 0.7219(3)
O2 O 0.3917(4) 0.52601(8) 0.6679(3)
N1 N -0.1602(5) 0.35308(9) 0.8303(4)
N2 N -0.1603(5) 0.37293(10) 0.6833(4)
N3 N 0.0825(5) 0.37779(9) 0.6897(4)
C1 C -0.0336(7) 0.29798(12) 1.1439(6)
H1 H -0.1946 0.2948 1.0638
C2 C 0.0283(10) 0.27665(14) 1.3039(7)
H2 H -0.0921 0.2591 1.3303
C3 C 0.2615(11) 0.28065(14) 1.4243(6)
H3 H 0.3008 0.2659 1.5314
C4 C 0.4372(8) 0.30666(13) 1.3857(6)
H4 H 0.5967 0.3098 1.4677
C5 C 0.3803(8) 0.32852(11) 1.2251(5)
H5 H 0.5018 0.3461 1.2003
C6 C 0.1437(7) 0.32420(10) 1.1018(5)
C7 C 0.0841(6) 0.34598(10) 0.9298(5)
C8 C 0.2378(6) 0.36146(10) 0.8380(5)
H6 H 0.4139 0.3607 0.8720
C9 C 0.1420(6) 0.40104(11) 0.5461(4)
H7 H 0.0060 0.3965 0.4370
H8 H 0.2959 0.3891 0.5305
C10 C 0.1766(6) 0.44880(11) 0.5814(4)
H9 H 0.1834 0.4639 0.4756
H10 H 0.0363 0.4604 0.6167
C11 C 0.5036(6) 0.49496(13) 0.7475(4)
C12 C 0.7578(6) 0.49686(11) 0.8806(4)
C13 C 0.8792(6) 0.53650(10) 0.9154(4)
H11 H 0.7977 0.5613 0.8591
C14 C 0.8792(6) 0.46026(10) 0.9668(4)
H12 H 0.7985 0.4334 0.9456
O1B O 1.5882(4) 0.54544(7) 1.2781(3)
O2B O 1.6083(4) 0.47399(8) 1.3321(3)
N1B N 2.1602(5) 0.64692(9) 1.1697(4)
N2B N 2.1603(5) 0.62707(10) 1.3167(4)
N3B N 1.9175(5) 0.62221(9) 1.3103(4)
C1B C 2.0336(7) 0.70202(12) 0.8561(6)
H1B H 2.1946 0.7052 0.9362
C2B C 1.9717(10) 0.72335(14) 0.6961(7)
H2B H 2.0921 0.7409 0.6697
C3B C 1.7385(11) 0.71935(14) 0.5757(6)
H3B H 1.6992 0.7341 0.4686
C4B C 1.5628(8) 0.69334(13) 0.6143(6)
H4B H 1.4033 0.6902 0.5323
C5B C 1.6197(8) 0.67148(11) 0.7749(5)
H5B H 1.4982 0.6539 0.7997
C6B C 1.8563(7) 0.67580(10) 0.8982(5)
C7B C 1.9159(6) 0.65402(10) 1.0702(5)
C8B C 1.7622(6) 0.63854(10) 1.1620(5)
H6B H 1.5861 0.6393 1.1280
C9B C 1.8580(6) 0.59896(11) 1.4539(4)
H7B H 1.9940 0.6035 1.5630
H8B H 1.7041 0.6109 1.4695
C10B C 1.8234(6) 0.55120(11) 1.4186(4)
H9B H 1.8166 0.5361 1.5244
H10B H 1.9637 0.5396 1.3833
C11B C 1.4964(6) 0.50504(13) 1.2525(4)
C12B C 1.2422(6) 0.50314(11) 1.1194(4)
C13B C 1.1208(6) 0.46350(10) 1.0846(4)
H11B H 1.2023 0.4387 1.1409
C14B C 1.1208(6) 0.53974(10) 1.0332(4)
H12B H 1.2015 0.5666 1.0544
loop_
_geom_bond_atom_site_label_1
_geom_bond_atom_site_label_2
_geom_bond_site_symmetry_1
_geom_bond_site_symmetry_2
O1 C10 1_555 1_555
O2 C11 1_555 1_555
N1 N2 1_555 1_555
N2 N3 1_555 1_555
N3 C8 1_555 1_555
C1 H1 1_555 1_555
C2 C1 1_555 1_555
H2 C2 1_555 1_555
C3 C2 1_555 1_555
H3 C3 1_555 1_555
C4 C3 1_555 1_555
H4 C4 1_555 1_555
C5 C4 1_555 1_555
H5 C5 1_555 1_555
C6 C1 1_555 1_555
C7 N1 1_555 1_555
C8 C7 1_555 1_555
H6 C8 1_555 1_555
C9 N3 1_555 1_555
H7 C9 1_555 1_555
H8 C9 1_555 1_555
C10 C9 1_555 1_555
H9 C10 1_555 1_555
H10 C10 1_555 1_555
C11 O1 1_555 1_555
C12 C11 1_555 1_555
C13 C12 1_555 1_555
H11 C13 1_555 1_555
C14 C12 1_555 1_555
H12 C14 1_555 1_555
O1B C10B 1_555 1_555
O2B C11B 1_555 1_555
N1B N2B 1_555 1_555
N2B N3B 1_555 1_555
N3B C8B 1_555 1_555
C1B H1B 1_555 1_555
C2B C1B 1_555 1_555
H2B C2B 1_555 1_555
C3B C2B 1_555 1_555
H3B C3B 1_555 1_555
C4B C3B 1_555 1_555
H4B C4B 1_555 1_555
C5B C4B 1_555 1_555
H5B C5B 1_555 1_555
C6B C1B 1_555 1_555
C7B N1B 1_555 1_555
C8B C7B 1_555 1_555
H6B C8B 1_555 1_555
C9B N3B 1_555 1_555
H7B C9B 1_555 1_555
H8B C9B 1_555 1_555
C10B C9B 1_555 1_555
H9B C10B 1_555 1_555
H10B C10B 1_555 1_555
C11B O1B 1_555 1_555
C12B C11B 1_555 1_555
C13B C14 1_555 1_555
H11B C13B 1_555 1_555
C14B C13 1_555 1_555
H12B C14B 1_555 1_555
C5 C6 1_555 1_555
C6 C7 1_555 1_555
C5B C6B 1_555 1_555
C6B C7B 1_555 1_555
C12B C13B 1_555 1_555
C12B C14B 1_555 1_555

#END
