
#######################################################################
#
#                 Cambridge Crystallographic Data Centre
#                                CCDC 
#
#######################################################################
#
# If this CIF has been generated from an entry in the Cambridge 
# Structural Database, then it will include bibliographic, chemical, 
# crystal, experimental, refinement or atomic coordinate data resulting 
# from the CCDC's data processing and validation procedures.
#
#######################################################################

data_SEHGEU
_chemical_formula_moiety         'C48 H40 N4 4+,4(F6 P1 1-),C2 H3 N1'
_chemical_name_systematic        
'9,17,28,36-tetraazanonacyclo[34.2.2.2^2,5^.2^6,9^.2^17,20^.2^21,24^.2^25,28^.1^11,15^.1^30,34^]dopentaconta-1(38),2,4,6,8,11(48),12,14,17,19,21,23,25,27,30(41),31,33,36,39,42,44,46,49,51-tetracosaene-9,17,28,36-tetraium hexafluorophosphate acetonitrile solvate'
_symmetry_cell_setting           triclinic
_symmetry_space_group_name_H-M   'P -1'
_symmetry_Int_Tables_number      2
_space_group_name_Hall           '-P 1'
loop_
_symmetry_equiv_pos_site_id
_symmetry_equiv_pos_as_xyz
1 x,y,z
2 -x,-y,-z
_cell_length_a                   9.6412(3)
_cell_length_b                   11.9525(4)
_cell_length_c                   13.9387(4)
_cell_angle_alpha                83.000(3)
_cell_angle_beta                 73.214(2)
_cell_angle_gamma                71.465(2)
_cell_volume                     1457.24
_exptl_crystal_colour            colorless
_exptl_crystal_description       block
_cell_formula_units_Z            1
_exptl_crystal_recrystallization_method 'as supplied'
loop_
_atom_site_label
_atom_site_type_symbol
_atom_site_fract_x
_atom_site_fract_y
_atom_site_fract_z
N1 N 1.0363(4) 0.1985(3) 0.1599(2)
N2 N 0.4259(4) 0.7832(3) 0.8227(2)
C1 C 1.1294(5) 0.1212(4) 0.0723(3)
H1 H 1.0709 0.1320 0.0231
H2 H 1.1530 0.0382 0.0954
C2 C 1.0174(5) 0.1518(4) 0.2534(3)
H3 H 1.0583 0.0701 0.2641
C3 C 0.9392(5) 0.2221(4) 0.3328(3)
H4 H 0.9283 0.1884 0.3980
C4 C 0.8751(4) 0.3425(3) 0.3199(3)
C5 C 0.8943(5) 0.3864(4) 0.2213(3)
H5 H 0.8512 0.4671 0.2081
C6 C 0.9758(5) 0.3125(4) 0.1430(3)
H6 H 0.9886 0.3433 0.0768
C7 C 0.7928(4) 0.4208(3) 0.4054(2)
C8 C 0.8159(6) 0.3855(4) 0.4995(3)
H7 H 0.8853 0.3118 0.5080
C9 C 0.7397(6) 0.4558(4) 0.5803(3)
H8 H 0.7560 0.4286 0.6435
C10 C 0.6395(4) 0.5660(3) 0.5708(3)
C11 C 0.6149(5) 0.6018(4) 0.4764(3)
H9 H 0.5459 0.6757 0.4680
C12 C 0.6903(5) 0.5307(4) 0.3957(3)
H10 H 0.6721 0.5568 0.3328
C13 C 0.5589(4) 0.6418(3) 0.6586(3)
C14 C 0.5231(5) 0.5948(4) 0.7547(3)
H11 H 0.5438 0.5126 0.7650
C15 C 0.4578(5) 0.6664(4) 0.8356(3)
H12 H 0.4354 0.6328 0.9007
C16 C 0.4544(5) 0.8328(4) 0.7306(3)
H13 H 0.4300 0.9154 0.7227
C17 C 0.5186(5) 0.7652(4) 0.6477(3)
H14 H 0.5358 0.8014 0.5834
C18 C 0.3634(5) 0.8588(4) 0.9134(3)
H15 H 0.2742 0.8393 0.9577
H16 H 0.3318 0.9422 0.8924
C19 C 0.4833(5) 0.8382(3) 0.9698(3)
C20 C 0.4597(6) 0.7921(4) 1.0678(3)
H17 H 0.3698 0.7724 1.0990
C21 C 0.5640(7) 0.7760(5) 1.1174(3)
H18 H 0.5453 0.7463 1.1840
C22 C 0.6988(6) 0.8017(4) 1.0737(3)
H19 H 0.7721 0.7879 1.1095
C23 C 0.7245(5) 0.8481(3) 0.9766(3)
C24 C 0.6178(4) 0.8660(3) 0.9253(3)
H20 H 0.6354 0.8975 0.8592
N1A N 0.9637(4) 0.8015(3) 0.8401(2)
N2A N 1.5741(4) 0.2168(3) 0.1773(2)
C1A C 0.8706(5) 0.8788(4) 0.9277(3)
H1A H 0.9291 0.8680 0.9769
H2A H 0.8470 0.9618 0.9046
C2A C 0.9826(5) 0.8482(4) 0.7466(3)
H3A H 0.9417 0.9299 0.7359
C3A C 1.0608(5) 0.7779(4) 0.6672(3)
H4A H 1.0717 0.8116 0.6020
C4A C 1.1249(4) 0.6575(3) 0.6801(3)
C5A C 1.1057(5) 0.6136(4) 0.7787(3)
H5A H 1.1488 0.5329 0.7919
C6A C 1.0242(5) 0.6875(4) 0.8570(3)
H6A H 1.0114 0.6567 0.9232
C7A C 1.2072(4) 0.5792(3) 0.5946(2)
C8A C 1.1841(6) 0.6145(4) 0.5005(3)
H7A H 1.1147 0.6882 0.4920
C9A C 1.2603(6) 0.5442(4) 0.4197(3)
H8A H 1.2440 0.5714 0.3565
C10A C 1.3605(4) 0.4340(3) 0.4292(3)
C11A C 1.3851(5) 0.3982(4) 0.5236(3)
H9A H 1.4541 0.3243 0.5320
C12A C 1.3097(5) 0.4693(4) 0.6043(3)
H10A H 1.3279 0.4432 0.6672
C13A C 1.4411(4) 0.3582(3) 0.3414(3)
C14A C 1.4769(5) 0.4052(4) 0.2453(3)
H11A H 1.4562 0.4874 0.2350
C15A C 1.5422(5) 0.3336(4) 0.1644(3)
H12A H 1.5646 0.3672 0.0993
C16A C 1.5456(5) 0.1672(4) 0.2694(3)
H13A H 1.5700 0.0846 0.2773
C17A C 1.4814(5) 0.2348(4) 0.3523(3)
H14A H 1.4642 0.1986 0.4166
C18A C 1.6366(5) 0.1412(4) 0.0866(3)
H15A H 1.7258 0.1607 0.0423
H16A H 1.6682 0.0578 0.1076
C19A C 1.5167(5) 0.1618(3) 0.0302(3)
C20A C 1.5403(6) 0.2079(4) -0.0678(3)
H17A H 1.6302 0.2276 -0.0990
C21A C 1.4360(7) 0.2240(5) -0.1174(3)
H18A H 1.4547 0.2537 -0.1840
C22A C 1.3012(6) 0.1983(4) -0.0737(3)
H19A H 1.2279 0.2121 -0.1095
C23A C 1.2755(5) 0.1519(3) 0.0234(3)
C24A C 1.3822(4) 0.1340(3) 0.0747(3)
H20A H 1.3646 0.1025 0.1408
P1 P 0.68470(17) 0.06929(13) 0.60685(10)
F1 F 0.7017(5) 0.1121(6) 0.4927(3)
F2 F 0.6652(7) 0.0310(5) 0.7201(3)
F3 F 0.8526(5) 0.0708(5) 0.5938(4)
F4 F 0.6218(6) 0.2027(4) 0.6364(4)
F5 F 0.5185(6) 0.0694(6) 0.6117(5)
F6 F 0.7451(7) -0.0648(4) 0.5804(4)
P2 P 0.84125(16) 0.41491(12) 0.88448(10)
F13 F 0.8207(4) 0.5307(3) 0.8139(3)
F14 F 0.8622(4) 0.2967(3) 0.9531(2)
F15 F 0.8811(8) 0.4805(4) 0.9573(4)
F16 F 0.6678(6) 0.4551(6) 0.9378(4)
F17 F 0.8066(7) 0.3469(5) 0.8047(4)
F18 F 1.0202(5) 0.3692(4) 0.8246(4)
N3 N 0.8950(8) 0.9537(6) 0.1917(6)
C25 C 0.8859(8) 0.8999(7) 0.2599(6)
C26 C 0.8763(13) 0.8282(9) 0.3505(6)
H21 H 0.8047 0.8751 0.4060
H22 H 0.9755 0.7986 0.3635
H23 H 0.8423 0.7622 0.3433
F7? F 0.637(2) 0.0376(17) 0.5172(11)
F8? F 0.733(2) 0.0936(17) 0.6993(12)
F9? F 0.653(2) 0.2006(9) 0.5680(17)
F10? F 0.5157(11) 0.0956(14) 0.6721(12)
F11? F 0.7133(19) -0.0649(7) 0.6450(14)
F12? F 0.8579(12) 0.008(2) 0.5546(15)
F19? F 1.003(2) 0.4156(16) 0.8973(18)
F20? F 0.782(3) 0.4731(18) 1.0167(17)
F21? F 0.640(3) 0.428(3) 0.916(2)
F22? F 0.857(4) 0.3388(9) 0.814(3)
loop_
_geom_bond_atom_site_label_1
_geom_bond_atom_site_label_2
_geom_bond_site_symmetry_1
_geom_bond_site_symmetry_2
N1 C1 1_555 1_555
N2 C15 1_555 1_555
C1 H1 1_555 1_555
H2 C1 1_555 1_555
C2 N1 1_555 1_555
H3 C2 1_555 1_555
C3 C2 1_555 1_555
H4 C3 1_555 1_555
C4 C3 1_555 1_555
C5 C4 1_555 1_555
H5 C5 1_555 1_555
C6 N1 1_555 1_555
H6 C6 1_555 1_555
C7 C4 1_555 1_555
C8 C7 1_555 1_555
H7 C8 1_555 1_555
C9 C8 1_555 1_555
H8 C9 1_555 1_555
C10 C9 1_555 1_555
C11 C10 1_555 1_555
H9 C11 1_555 1_555
C12 C7 1_555 1_555
H10 C12 1_555 1_555
C13 C10 1_555 1_555
C14 C13 1_555 1_555
H11 C14 1_555 1_555
C15 C14 1_555 1_555
H12 C15 1_555 1_555
C16 N2 1_555 1_555
H13 C16 1_555 1_555
C17 C13 1_555 1_555
H14 C17 1_555 1_555
C18 N2 1_555 1_555
H15 C18 1_555 1_555
H16 C18 1_555 1_555
C19 C18 1_555 1_555
C20 C19 1_555 1_555
H17 C20 1_555 1_555
C21 C20 1_555 1_555
H18 C21 1_555 1_555
C22 C21 1_555 1_555
H19 C22 1_555 1_555
C23 C22 1_555 1_555
C24 C19 1_555 1_555
H20 C24 1_555 1_555
P1 F1 1_555 1_555
F2 P1 1_555 1_555
F3 P1 1_555 1_555
F4 P1 1_555 1_555
F5 P1 1_555 1_555
F6 P1 1_555 1_555
P2 F13 1_555 1_555
F14 P2 1_555 1_555
F15 P2 1_555 1_555
F16 P2 1_555 1_555
F17 P2 1_555 1_555
F18 P2 1_555 1_555
N3 C25 1_555 1_555
C25 C26 1_555 1_555
C26 H21 1_555 1_555
H22 C26 1_555 1_555
H23 C26 1_555 1_555
N1A C1A 1_555 1_555
N2A C15A 1_555 1_555
C1A C23 1_555 1_555
H1A C1A 1_555 1_555
H2A C1A 1_555 1_555
C2A N1A 1_555 1_555
H3A C2A 1_555 1_555
C3A C2A 1_555 1_555
H4A C3A 1_555 1_555
C4A C3A 1_555 1_555
C5A C4A 1_555 1_555
H5A C5A 1_555 1_555
C6A N1A 1_555 1_555
H6A C6A 1_555 1_555
C7A C4A 1_555 1_555
C8A C7A 1_555 1_555
H7A C8A 1_555 1_555
C9A C8A 1_555 1_555
H8A C9A 1_555 1_555
C10A C9A 1_555 1_555
C11A C10A 1_555 1_555
H9A C11A 1_555 1_555
C12A C7A 1_555 1_555
H10A C12A 1_555 1_555
C13A C10A 1_555 1_555
C14A C13A 1_555 1_555
H11A C14A 1_555 1_555
C15A C14A 1_555 1_555
H12A C15A 1_555 1_555
C16A N2A 1_555 1_555
H13A C16A 1_555 1_555
C17A C13A 1_555 1_555
H14A C17A 1_555 1_555
C18A N2A 1_555 1_555
H15A C18A 1_555 1_555
H16A C18A 1_555 1_555
C19A C18A 1_555 1_555
C20A C19A 1_555 1_555
H17A C20A 1_555 1_555
C21A C20A 1_555 1_555
H18A C21A 1_555 1_555
C22A C21A 1_555 1_555
H19A C22A 1_555 1_555
C23A C1 1_555 1_555
C24A C19A 1_555 1_555
H20A C24A 1_555 1_555
C5 C6 1_555 1_555
C11 C12 1_555 1_555
C16 C17 1_555 1_555
C23 C24 1_555 1_555
C5A C6A 1_555 1_555
C11A C12A 1_555 1_555
C16A C17A 1_555 1_555
C22A C23A 1_555 1_555
C23A C24A 1_555 1_555

#END
