
#######################################################################
#
#                 Cambridge Crystallographic Data Centre
#                                CCDC 
#
#######################################################################
#
# If this CIF has been generated from an entry in the Cambridge 
# Structural Database, then it will include bibliographic, chemical, 
# crystal, experimental, refinement or atomic coordinate data resulting 
# from the CCDC's data processing and validation procedures.
#
#######################################################################

data_SEHGOE
_chemical_formula_moiety         'C25 H21 N1 O3 S1'
_chemical_name_systematic        
N-(6',6a'-dihydro-1H,1a'H,3H-spiro[2-benzopyran-4,1'-cyclopropa[a]inden]-3-ylidene)-4-methylbenzene-1-sulfonamide
_symmetry_cell_setting           triclinic
_symmetry_space_group_name_H-M   'P -1'
_symmetry_Int_Tables_number      2
_space_group_name_Hall           '-P 1'
loop_
_symmetry_equiv_pos_site_id
_symmetry_equiv_pos_as_xyz
1 x,y,z
2 -x,-y,-z
_cell_length_a                   8.3061(5)
_cell_length_b                   15.8000(10)
_cell_length_c                   16.4284(11)
_cell_angle_alpha                96.424(6)
_cell_angle_beta                 101.261(6)
_cell_angle_gamma                103.543(6)
_cell_volume                     2027.42
_exptl_crystal_colour            colorless
_exptl_crystal_description       plate
_cell_formula_units_Z            4
loop_
_atom_site_label
_atom_site_type_symbol
_atom_site_fract_x
_atom_site_fract_y
_atom_site_fract_z
S1 S 0.68896(12) 0.60589(6) 0.23504(6)
O1 O 0.8037(4) 0.67852(18) 0.21334(18)
O2 O 0.5162(3) 0.60998(19) 0.22862(18)
O3 O 0.9594(3) 0.52949(17) 0.20853(17)
N1 N 0.6734(4) 0.5131(2) 0.1748(2)
C1 C 0.4711(5) 0.2464(3) -0.0614(3)
H1 H 0.413726 0.287903 -0.081755
C2 C 0.4626(6) 0.1687(4) -0.1132(3)
H2 H 0.401387 0.157671 -0.170236
C3 C 0.5413(7) 0.1081(4) -0.0829(4)
H3 H 0.532353 0.055109 -0.119072
C4 C 0.6341(7) 0.1226(3) -0.0004(4)
H4 H 0.688189 0.079918 0.020073
C5 C 0.6466(5) 0.2007(3) 0.0521(3)
C6 C 0.5662(5) 0.2616(3) 0.0212(3)
C7 C 0.5997(5) 0.3412(3) 0.0866(3)
H5 H 0.504313 0.367954 0.093364
C8 C 0.7095(5) 0.3228(3) 0.1628(3)
H6 H 0.686808 0.339635 0.219162
C9 C 0.7412(6) 0.2328(3) 0.1422(3)
H7 H 0.864224 0.237883 0.148501
H8 H 0.696588 0.192389 0.179211
C10 C 0.7809(5) 0.3977(2) 0.1151(2)
C11 C 0.8026(5) 0.4841(3) 0.1673(2)
C12 C 1.0952(5) 0.4853(3) 0.2048(3)
H9 H 1.086513 0.439146 0.241069
H10 H 1.207094 0.528741 0.226692
C13 C 1.0840(5) 0.4443(2) 0.1174(2)
C14 C 0.9223(4) 0.3967(2) 0.0710(2)
C15 C 0.9061(5) 0.3594(3) -0.0121(2)
H11 H 0.796893 0.329208 -0.046147
C16 C 1.0485(5) 0.3660(3) -0.0453(3)
H12 H 1.036420 0.338167 -0.101326
C17 C 1.2081(5) 0.4125(3) 0.0017(3)
H13 H 1.304728 0.416794 -0.021953
C18 C 1.2261(5) 0.4527(3) 0.0829(3)
H14 H 1.334955 0.485856 0.115236
C19 C 0.7689(5) 0.5933(2) 0.3385(2)
C20 C 0.6706(5) 0.5327(3) 0.3763(3)
H15 H 0.564633 0.495230 0.344827
C21 C 0.7275(6) 0.5271(3) 0.4596(3)
H16 H 0.659643 0.485734 0.485150
C22 C 0.8827(6) 0.5811(3) 0.5072(3)
C23 C 0.9813(6) 0.6400(3) 0.4678(3)
H17 H 1.088757 0.676280 0.498799
C24 C 0.9258(5) 0.6464(3) 0.3845(3)
H18 H 0.994482 0.687012 0.358658
C25 C 0.9391(7) 0.5775(4) 0.5985(3)
H19 H 1.060719 0.606984 0.618028
H20 H 0.918920 0.515708 0.606786
H21 H 0.874611 0.607273 0.630661
S2 S 0.46604(13) 0.26758(7) 0.35193(7)
O4 O 0.6428(4) 0.2843(2) 0.3520(2)
O5 O 0.4031(4) 0.3414(2) 0.3754(2)
O6 O 0.5742(4) 0.28268(19) 0.52520(18)
N2 N 0.4126(4) 0.1883(2) 0.4063(2)
C26 C 0.1932(7) -0.0793(4) 0.5487(4)
H22 H 0.217849 -0.105001 0.499047
C27 C 0.1486(7) -0.1298(4) 0.6121(5)
H23 H 0.139066 -0.191417 0.604303
C28 C 0.1197(8) -0.0890(4) 0.6836(5)
H24 H 0.096716 -0.123726 0.725714
C29 C 0.1216(7) -0.0016(4) 0.6990(4)
H25 H 0.095480 0.024244 0.748202
C30 C 0.1679(6) 0.0495(3) 0.6323(3)
C31 C 0.1980(6) 0.0063(3) 0.5640(4)
C32 C 0.2440(6) 0.0752(3) 0.5086(3)
H26 H 0.199880 0.059329 0.446184
C33 C 0.2278(6) 0.1586(4) 0.5530(3)
H27 H 0.177960 0.199117 0.519344
C34 C 0.1775(7) 0.1435(3) 0.6352(4)
H28 H 0.264813 0.180043 0.684283
H29 H 0.066313 0.155682 0.636560
C35 C 0.4057(5) 0.1446(3) 0.5434(3)
C36 C 0.4654(5) 0.2058(3) 0.4869(3)
C37 C 0.5974(7) 0.3043(3) 0.6163(3)
H30 H 0.491855 0.315023 0.629630
H31 H 0.690660 0.358707 0.638558
C38 C 0.6391(5) 0.2295(3) 0.6567(3)
C39 C 0.5438(5) 0.1464(3) 0.6176(3)
C40 C 0.5860(6) 0.0742(3) 0.6463(3)
H32 H 0.523588 0.016355 0.618750
C41 C 0.7195(6) 0.0858(4) 0.7155(3)
H33 H 0.747614 0.035589 0.735160
C42 C 0.8115(6) 0.1686(4) 0.7558(3)
H34 H 0.902114 0.175701 0.803506
C43 C 0.7721(6) 0.2416(3) 0.7269(3)
H35 H 0.834815 0.299366 0.754528
C44 C 0.3496(5) 0.2165(3) 0.2496(3)
C45 C 0.3634(6) 0.1361(3) 0.2143(3)
H36 H 0.427723 0.103917 0.246589
C46 C 0.2824(6) 0.1026(3) 0.1312(3)
H37 H 0.290609 0.046675 0.107176
C47 C 0.1899(5) 0.1482(3) 0.0820(3)
C48 C 0.1790(6) 0.2290(3) 0.1193(3)
H38 H 0.116234 0.261813 0.087021
C49 C 0.2570(6) 0.2625(3) 0.2017(3)
H39 H 0.247078 0.317916 0.226125
C50 C 0.1076(6) 0.1141(4) -0.0091(3)
H40 H -0.016044 0.094388 -0.016204
H41 H 0.149905 0.064354 -0.028610
H42 H 0.135039 0.161214 -0.042177
loop_
_geom_bond_atom_site_label_1
_geom_bond_atom_site_label_2
_geom_bond_site_symmetry_1
_geom_bond_site_symmetry_2
S1 O1 1_555 1_555
O2 S1 1_555 1_555
O3 C11 1_555 1_555
N1 S1 1_555 1_555
C1 H1 1_555 1_555
C2 C1 1_555 1_555
H2 C2 1_555 1_555
C3 C2 1_555 1_555
H3 C3 1_555 1_555
C4 C3 1_555 1_555
H4 C4 1_555 1_555
C5 C4 1_555 1_555
C6 C1 1_555 1_555
C7 C6 1_555 1_555
H5 C7 1_555 1_555
C8 C7 1_555 1_555
H6 C8 1_555 1_555
C9 C5 1_555 1_555
H7 C9 1_555 1_555
H8 C9 1_555 1_555
C10 C7 1_555 1_555
C11 N1 1_555 1_555
C12 O3 1_555 1_555
H9 C12 1_555 1_555
H10 C12 1_555 1_555
C13 C12 1_555 1_555
C14 C10 1_555 1_555
C15 C14 1_555 1_555
H11 C15 1_555 1_555
C16 C15 1_555 1_555
H12 C16 1_555 1_555
C17 C16 1_555 1_555
H13 C17 1_555 1_555
C18 C13 1_555 1_555
H14 C18 1_555 1_555
C19 S1 1_555 1_555
C20 C19 1_555 1_555
H15 C20 1_555 1_555
C21 C20 1_555 1_555
H16 C21 1_555 1_555
C22 C21 1_555 1_555
C23 C22 1_555 1_555
H17 C23 1_555 1_555
C24 C19 1_555 1_555
H18 C24 1_555 1_555
C25 C22 1_555 1_555
H19 C25 1_555 1_555
H20 C25 1_555 1_555
H21 C25 1_555 1_555
S2 O4 1_555 1_555
O5 S2 1_555 1_555
O6 C36 1_555 1_555
N2 S2 1_555 1_555
C26 H22 1_555 1_555
C27 C26 1_555 1_555
H23 C27 1_555 1_555
C28 C27 1_555 1_555
H24 C28 1_555 1_555
C29 C28 1_555 1_555
H25 C29 1_555 1_555
C30 C29 1_555 1_555
C31 C26 1_555 1_555
C32 C31 1_555 1_555
H26 C32 1_555 1_555
C33 C32 1_555 1_555
H27 C33 1_555 1_555
C34 C30 1_555 1_555
H28 C34 1_555 1_555
H29 C34 1_555 1_555
C35 C32 1_555 1_555
C36 N2 1_555 1_555
C37 O6 1_555 1_555
H30 C37 1_555 1_555
H31 C37 1_555 1_555
C38 C37 1_555 1_555
C39 C35 1_555 1_555
C40 C39 1_555 1_555
H32 C40 1_555 1_555
C41 C40 1_555 1_555
H33 C41 1_555 1_555
C42 C41 1_555 1_555
H34 C42 1_555 1_555
C43 C38 1_555 1_555
H35 C43 1_555 1_555
C44 S2 1_555 1_555
C45 C44 1_555 1_555
H36 C45 1_555 1_555
C46 C45 1_555 1_555
H37 C46 1_555 1_555
C47 C46 1_555 1_555
C48 C47 1_555 1_555
H38 C48 1_555 1_555
C49 C44 1_555 1_555
H39 C49 1_555 1_555
C50 C47 1_555 1_555
H40 C50 1_555 1_555
H41 C50 1_555 1_555
H42 C50 1_555 1_555
C5 C6 1_555 1_555
C8 C9 1_555 1_555
C8 C10 1_555 1_555
C10 C11 1_555 1_555
C13 C14 1_555 1_555
C17 C18 1_555 1_555
C23 C24 1_555 1_555
C30 C31 1_555 1_555
C33 C34 1_555 1_555
C33 C35 1_555 1_555
C35 C36 1_555 1_555
C38 C39 1_555 1_555
C42 C43 1_555 1_555
C48 C49 1_555 1_555

#END
