
#######################################################################
#
#                 Cambridge Crystallographic Data Centre
#                                CCDC 
#
#######################################################################
#
# If this CIF has been generated from an entry in the Cambridge 
# Structural Database, then it will include bibliographic, chemical, 
# crystal, experimental, refinement or atomic coordinate data resulting 
# from the CCDC's data processing and validation procedures.
#
#######################################################################

data_SEHJIA
_chemical_name_common            'PDB Chemical Component code: B4M'
_chemical_formula_moiety         'C4 H8 O2,C1 H1 Br3'
_chemical_name_systematic        '1,4-Dioxane bromoform'
_symmetry_cell_setting           monoclinic
_symmetry_space_group_name_H-M   'P 21/m'
_symmetry_Int_Tables_number      11
_space_group_name_Hall           '-P 2yb'
loop_
_symmetry_equiv_pos_site_id
_symmetry_equiv_pos_as_xyz
1 x,y,z
2 -x,1/2+y,-z
3 -x,-y,-z
4 x,1/2-y,z
_cell_length_a                   4.1771(3)
_cell_length_b                   19.2999(16)
_cell_length_c                   6.0082(5)
_cell_angle_alpha                90
_cell_angle_beta                 106.732(10)
_cell_angle_gamma                90
_cell_volume                     463.86
_exptl_crystal_colour            'dull whitish colorless'
_exptl_crystal_description       cylinder
_chemical_melting_point          '255-257 K'
_cell_formula_units_Z            2
loop_
_atom_site_label
_atom_site_type_symbol
_atom_site_fract_x
_atom_site_fract_y
_atom_site_fract_z
O1 O -0.0277(5) 0.45614(8) 0.1834(3)
C1 C -0.0133(7) 0.42885(12) -0.0350(5)
C2 C 0.1543(7) 0.51989(12) 0.2279(4)
H1 H -0.148(8) 0.3872(16) -0.062(5)
H2 H 0.212(6) 0.4186(15) -0.026(4)
H3 H 0.403(7) 0.5116(15) 0.253(5)
H4 H 0.141(8) 0.5375(17) 0.365(6)
O1B O 0.0277(5) 0.54386(8) -0.1834(3)
C1B C 0.0133(7) 0.57115(12) 0.0350(5)
C2B C -0.1543(7) 0.48011(12) -0.2279(4)
H1B H 0.148(8) 0.6128(16) 0.062(5)
H2B H -0.212(6) 0.5814(15) 0.026(4)
H3B H -0.403(7) 0.4884(15) -0.253(5)
H4B H -0.141(8) 0.4625(17) -0.365(6)
Br1 Br 0.25540(6) 0.332385(11) 0.46533(4)
Br2 Br 0.42978(10) 0.2500 0.94200(6)
C3 C 0.4560(8) 0.2500 0.6269(6)
H5 H 0.661(11) 0.2500 0.646(7)
Br1C Br 0.25540(6) 0.167615(11) 0.46533(4)
loop_
_geom_bond_atom_site_label_1
_geom_bond_atom_site_label_2
_geom_bond_site_symmetry_1
_geom_bond_site_symmetry_2
O1 C1 1_555 1_555
C1 H1 1_555 1_555
C2 O1 1_555 1_555
H2 C1 1_555 1_555
H3 C2 1_555 1_555
H4 C2 1_555 1_555
Br1 C3 1_555 1_555
Br2 C3 1_555 1_555
C3 H5 1_555 1_555
O1B C1B 1_555 1_555
C1B C2 1_555 1_555
C2B C1 1_555 1_555
H1B C1B 1_555 1_555
H2B C1B 1_555 1_555
H3B C2B 1_555 1_555
H4B C2B 1_555 1_555
Br1C C3 1_555 1_555
O1B C2B 1_555 1_555

#END
