
#######################################################################
#
#                 Cambridge Crystallographic Data Centre
#                                CCDC 
#
#######################################################################
#
# If this CIF has been generated from an entry in the Cambridge 
# Structural Database, then it will include bibliographic, chemical, 
# crystal, experimental, refinement or atomic coordinate data resulting 
# from the CCDC's data processing and validation procedures.
#
#######################################################################

data_SEHJAQ
_chemical_compound_source        'Pseudomonas syringae pv. tomato'
_chemical_formula_moiety         'C13 H20 O6'
_chemical_name_systematic        '(-)-Syringolide 1'
_chemical_properties_biological  
'hypersensitive response elicitor activity, avirulence gene D'
_symmetry_cell_setting           monoclinic
_symmetry_space_group_name_H-M   'P 21'
_symmetry_Int_Tables_number      4
_space_group_name_Hall           'P 2yb'
loop_
_symmetry_equiv_pos_site_id
_symmetry_equiv_pos_as_xyz
1 x,y,z
2 -x,1/2+y,-z
_cell_length_a                   8.073(2)
_cell_length_b                   5.802(1)
_cell_length_c                   14.691(3)
_cell_angle_alpha                90
_cell_angle_beta                 95.66(3)
_cell_angle_gamma                90
_cell_volume                     684.765
_exptl_crystal_colour            colorless
_exptl_crystal_description       needles
_chemical_melting_point          111-112.5deg.C
_cell_formula_units_Z            2
_exptl_crystal_recrystallization_method hexanes/diethylether
loop_
_atom_site_label
_atom_site_type_symbol
_atom_site_fract_x
_atom_site_fract_y
_atom_site_fract_z
O1 O 0.6424(3) -0.4099(5) 0.7912(2)
O2 O 0.8608(3) 0.0387(5) 0.8461(2)
O3 O 0.4766(3) 0.1750(6) 0.9092(2)
O4 O 0.3174(3) 0.2192(5) 0.7784(2)
O5 O 0.3704(3) -0.3038(5) 0.8129(2)
O6 O 0.9845(4) -0.3086(8) 0.9658(2)
C1 C 0.7232(4) -0.3134(7) 0.8732(2)
C2 C 0.9108(5) -0.3491(7) 0.8757(3)
C3 C 0.9591(5) -0.1498(8) 0.8188(3)
C4 C 0.7024(4) -0.0497(6) 0.8627(2)
C5 C 0.6378(5) 0.0814(7) 0.9422(3)
C6 C 0.4383(5) 0.1339(6) 0.8196(3)
C7 C 0.5666(4) -0.0194(6) 0.7834(2)
C8 C 0.5044(4) -0.2668(7) 0.7601(2)
C9 C 0.4634(5) -0.3216(9) 0.6591(3)
C10 C 0.3225(5) -0.1783(10) 0.6113(3)
C11 C 0.2808(5) -0.2466(9) 0.5110(3)
C12 C 0.1370(6) -0.1092(10) 0.4647(3)
C13 C 0.0864(6) -0.1839(13) 0.3690(3)
H1 H 0.3205(3) -0.4588(5) 0.8025(2)
H2 H 0.9842(4) -0.3930(8) 1.0014(2)
H3 H 0.6780(4) -0.3725(7) 0.9282(2)
H4 H 0.9412(5) -0.4989(7) 0.8514(3)
H5 H 1.0769(5) -0.1165(8) 0.8315(3)
H6 H 0.9353(5) -0.1820(8) 0.7541(3)
H7 H 0.6277(5) -0.0215(7) 0.9934(3)
H8 H 0.7137(5) 0.2050(7) 0.9622(3)
H9 H 0.6119(4) 0.0518(6) 0.7307(2)
H10 H 0.4334(5) -0.4832(9) 0.6533(3)
H11 H 0.5626(5) -0.2986(9) 0.6280(3)
H12 H 0.2241(5) -0.1954(10) 0.6437(3)
H13 H 0.3543(5) -0.0170(10) 0.6141(3)
H14 H 0.3782(5) -0.2250(9) 0.4782(3)
H15 H 0.2521(5) -0.4090(9) 0.5081(3)
H16 H 0.1694(6) 0.0517(10) 0.4639(3)
H17 H 0.0427(6) -0.1213(10) 0.5006(3)
H18 H -0.0182(6) -0.1016(13) 0.3428(3)
H19 H -0.0001(6) -0.3179(13) 0.3650(3)
H20 H 0.1793(6) -0.1605(13) 0.3394(3)
loop_
_geom_bond_atom_site_label_1
_geom_bond_atom_site_label_2
_geom_bond_site_symmetry_1
_geom_bond_site_symmetry_2
O1 C1 1_555 1_555
O2 C3 1_555 1_555
O3 C5 1_555 1_555
O4 C6 1_555 1_555
O5 C8 1_555 1_555
O6 C2 1_555 1_555
C1 C2 1_555 1_555
C2 C3 1_555 1_555
C3 H5 1_555 1_555
C4 O2 1_555 1_555
C5 C4 1_555 1_555
C6 O3 1_555 1_555
C7 C4 1_555 1_555
C8 O1 1_555 1_555
C9 C8 1_555 1_555
C10 C9 1_555 1_555
C11 C10 1_555 1_555
C12 C11 1_555 1_555
C13 C12 1_555 1_555
H1 O5 1_555 1_555
H2 O6 1_555 1_555
H3 C1 1_555 1_555
H4 C2 1_555 1_555
H6 C3 1_555 1_555
H7 C5 1_555 1_555
H8 C5 1_555 1_555
H9 C7 1_555 1_555
H10 C9 1_555 1_555
H11 C9 1_555 1_555
H12 C10 1_555 1_555
H13 C10 1_555 1_555
H14 C11 1_555 1_555
H15 C11 1_555 1_555
H16 C12 1_555 1_555
H17 C12 1_555 1_555
H18 C13 1_555 1_555
H19 C13 1_555 1_555
H20 C13 1_555 1_555
C1 C4 1_555 1_555
C6 C7 1_555 1_555
C7 C8 1_555 1_555

#END
