
#######################################################################
#
#                 Cambridge Crystallographic Data Centre
#                                CCDC 
#
#######################################################################
#
# If this CIF has been generated from an entry in the Cambridge 
# Structural Database, then it will include bibliographic, chemical, 
# crystal, experimental, refinement or atomic coordinate data resulting 
# from the CCDC's data processing and validation procedures.
#
#######################################################################

data_SEHJIA01
_chemical_formula_moiety         'C4 H8 O2,C1 H1 Br3'
_chemical_name_systematic        '1,4-Dioxane bromoform'
_symmetry_cell_setting           monoclinic
_symmetry_space_group_name_H-M   'P 21/m'
_symmetry_Int_Tables_number      11
_space_group_name_Hall           '-P 2yb'
loop_
_symmetry_equiv_pos_site_id
_symmetry_equiv_pos_as_xyz
1 x,y,z
2 -x,1/2+y,-z
3 -x,-y,-z
4 x,1/2-y,z
_cell_length_a                   4.2028(4)
_cell_length_b                   19.3569(18)
_cell_length_c                   6.0247(5)
_cell_angle_alpha                90
_cell_angle_beta                 106.761(10)
_cell_angle_gamma                90
_cell_volume                     469.306
_exptl_crystal_colour            'dull light colorless'
_exptl_crystal_description       cylinder
_cell_formula_units_Z            2
loop_
_atom_site_label
_atom_site_type_symbol
_atom_site_fract_x
_atom_site_fract_y
_atom_site_fract_z
O1 O -0.0290(5) 0.45632(9) 0.1821(4)
C1 C -0.0162(9) 0.42935(13) -0.0354(6)
C2 C 0.1556(8) 0.51948(14) 0.2279(5)
H1 H -0.152(10) 0.388(2) -0.065(7)
H2 H 0.205(8) 0.4201(18) -0.029(6)
H3 H 0.401(9) 0.5103(18) 0.253(6)
H4 H 0.132(10) 0.5388(19) 0.371(7)
O1B O 0.0290(5) 0.54368(9) -0.1821(4)
C1B C 0.0162(9) 0.57065(13) 0.0354(6)
C2B C -0.1556(8) 0.48052(14) -0.2279(5)
H1B H 0.152(10) 0.612(2) 0.065(7)
H2B H -0.205(8) 0.5799(18) 0.029(6)
H3B H -0.401(9) 0.4897(18) -0.253(6)
H4B H -0.132(10) 0.4612(19) -0.371(7)
Br1 Br 0.25383(8) 0.332092(12) 0.46431(5)
Br2 Br 0.42776(12) 0.2500 0.93925(7)
C3 C 0.4545(10) 0.2500 0.6257(7)
H5 H 0.664(11) 0.2500 0.648(8)
Br1C Br 0.25383(8) 0.167908(12) 0.46431(5)
loop_
_geom_bond_atom_site_label_1
_geom_bond_atom_site_label_2
_geom_bond_site_symmetry_1
_geom_bond_site_symmetry_2
O1 C1 1_555 1_555
C1 H1 1_555 1_555
C2 O1 1_555 1_555
H2 C1 1_555 1_555
H3 C2 1_555 1_555
H4 C2 1_555 1_555
Br1 C3 1_555 1_555
Br2 C3 1_555 1_555
C3 H5 1_555 1_555
O1B C1B 1_555 1_555
C1B C2 1_555 1_555
C2B C1 1_555 1_555
H1B C1B 1_555 1_555
H2B C1B 1_555 1_555
H3B C2B 1_555 1_555
H4B C2B 1_555 1_555
Br1C C3 1_555 1_555
O1B C2B 1_555 1_555

#END
