
#######################################################################
#
#                 Cambridge Crystallographic Data Centre
#                                CCDC 
#
#######################################################################
#
# If this CIF has been generated from an entry in the Cambridge 
# Structural Database, then it will include bibliographic, chemical, 
# crystal, experimental, refinement or atomic coordinate data resulting 
# from the CCDC's data processing and validation procedures.
#
#######################################################################

data_SEHKUO
_chemical_formula_moiety         'C22 H21 N1 O4'
_chemical_name_systematic        
'ethyl 3-{2-[4-(ethoxycarbonyl)phenyl]ethenyl}indolizine-1-carboxylate'
_symmetry_cell_setting           triclinic
_symmetry_space_group_name_H-M   'P -1'
_symmetry_Int_Tables_number      2
_space_group_name_Hall           '-P 1'
loop_
_symmetry_equiv_pos_site_id
_symmetry_equiv_pos_as_xyz
1 x,y,z
2 -x,-y,-z
_cell_length_a                   6.8929(3)
_cell_length_b                   7.6318(3)
_cell_length_c                   19.0999(9)
_cell_angle_alpha                100.040(2)
_cell_angle_beta                 92.095(2)
_cell_angle_gamma                110.687(2)
_cell_volume                     920.31
_exptl_crystal_colour            colorless
_exptl_crystal_description       block
_cell_formula_units_Z            2
loop_
_atom_site_label
_atom_site_type_symbol
_atom_site_fract_x
_atom_site_fract_y
_atom_site_fract_z
C1 C -0.3768(3) 0.8099(3) 0.78380(10)
H1 H -0.3509 0.8691 0.7447
C2 C -0.5154(3) 0.8387(3) 0.82800(11)
H2 H -0.5866 0.9167 0.8187
C3 C -0.5544(3) 0.7522(3) 0.88841(11)
H3 H -0.6508 0.7731 0.9183
C4 C -0.4511(3) 0.6391(3) 0.90241(9)
H4 H -0.4754 0.5833 0.9424
C5 C -0.3068(3) 0.6052(2) 0.85689(8)
C6 C -0.1775(3) 0.4990(2) 0.85543(8)
C7 C -0.0703(3) 0.5208(2) 0.79445(9)
H5 H 0.026 0.4649 0.7807
C8 C -0.1296(3) 0.6377(2) 0.75813(8)
C9 C -0.1655(3) 0.3813(2) 0.90684(9)
C10 C -0.0033(3) 0.1749(3) 0.93785(10)
H6 H -0.135 0.0733 0.9396
H7 H 0.0467 0.2504 0.9858
C11 C 0.1531(4) 0.0927(3) 0.90933(12)
H8 H 0.1011 0.0173 0.8622
H9 H 0.1761 0.0137 0.9402
H10 H 0.2822 0.1947 0.9074
C12 C -0.0702(3) 0.6957(2) 0.69162(9)
H11 H -0.1352 0.7683 0.6731
C13 C 0.0727(3) 0.6510(3) 0.65531(9)
H12 H 0.1388 0.5822 0.6758
C14 C 0.1372(3) 0.6984(2) 0.58666(9)
C15 C 0.0273(3) 0.7707(3) 0.54390(9)
H13 H -0.0919 0.7895 0.559
C16 C 0.0933(3) 0.8144(3) 0.47959(9)
H14 H 0.0179 0.8622 0.4518
C17 C 0.2707(3) 0.7880(2) 0.45579(8)
C18 C 0.3801(3) 0.7143(3) 0.49711(9)
H15 H 0.4984 0.6945 0.4816
C19 C 0.3132(3) 0.6699(3) 0.56158(9)
H16 H 0.3876 0.6199 0.5888
C20 C 0.3353(3) 0.8414(2) 0.38674(9)
C21 C 0.5653(3) 0.8352(3) 0.29821(9)
H17 H 0.6261 0.9729 0.3029
H18 H 0.451 0.7844 0.2603
C22 C 0.7256(4) 0.7486(4) 0.28165(12)
H19 H 0.8426 0.807 0.3177
H20 H 0.7711 0.7692 0.2358
H21 H 0.6664 0.6138 0.2807
N1 N -0.2740(2) 0.6919(2) 0.79716(7)
O1 O -0.2633(2) 0.3621(2) 0.95793(7)
O2 O -0.0299(2) 0.29367(18) 0.88999(6)
O3 O 0.2576(2) 0.9259(2) 0.35343(7)
O4 O 0.4913(2) 0.78710(19) 0.36487(6)
loop_
_geom_bond_atom_site_label_1
_geom_bond_atom_site_label_2
_geom_bond_site_symmetry_1
_geom_bond_site_symmetry_2
C1 H1 1_555 1_555
C2 C1 1_555 1_555
H2 C2 1_555 1_555
C3 C2 1_555 1_555
H3 C3 1_555 1_555
C4 C3 1_555 1_555
H4 C4 1_555 1_555
C5 C4 1_555 1_555
C6 C5 1_555 1_555
C7 C6 1_555 1_555
H5 C7 1_555 1_555
C8 C7 1_555 1_555
C9 C6 1_555 1_555
C10 H6 1_555 1_555
H7 C10 1_555 1_555
C11 C10 1_555 1_555
H8 C11 1_555 1_555
H9 C11 1_555 1_555
H10 C11 1_555 1_555
C12 C8 1_555 1_555
H11 C12 1_555 1_555
C13 C12 1_555 1_555
H12 C13 1_555 1_555
C14 C13 1_555 1_555
C15 C14 1_555 1_555
H13 C15 1_555 1_555
C16 C15 1_555 1_555
H14 C16 1_555 1_555
C17 C16 1_555 1_555
C18 C17 1_555 1_555
H15 C18 1_555 1_555
C19 C14 1_555 1_555
H16 C19 1_555 1_555
C20 C17 1_555 1_555
C21 H17 1_555 1_555
H18 C21 1_555 1_555
C22 C21 1_555 1_555
H19 C22 1_555 1_555
H20 C22 1_555 1_555
H21 C22 1_555 1_555
N1 C1 1_555 1_555
O1 C9 1_555 1_555
O2 C9 1_555 1_555
O3 C20 1_555 1_555
O4 C20 1_555 1_555
C5 N1 1_555 1_555
C8 N1 1_555 1_555
C10 O2 1_555 1_555
C18 C19 1_555 1_555
C21 O4 1_555 1_555

#END
