
#######################################################################
#
#                 Cambridge Crystallographic Data Centre
#                                CCDC 
#
#######################################################################
#
# If this CIF has been generated from an entry in the Cambridge 
# Structural Database, then it will include bibliographic, chemical, 
# crystal, experimental, refinement or atomic coordinate data resulting 
# from the CCDC's data processing and validation procedures.
#
#######################################################################

data_SEHNAW
_chemical_formula_moiety         'C26 H18'
_chemical_name_systematic        1-(9-anthryl)-2-(1-naphthyl)ethylene
_symmetry_cell_setting           triclinic
_symmetry_space_group_name_H-M   'P -1'
_symmetry_Int_Tables_number      2
_space_group_name_Hall           '-P 1'
loop_
_symmetry_equiv_pos_site_id
_symmetry_equiv_pos_as_xyz
1 x,y,z
2 -x,-y,-z
_cell_length_a                   6.6211(4)
_cell_length_b                   12.0765(8)
_cell_length_c                   17.3375(11)
_cell_angle_alpha                105.370(6)
_cell_angle_beta                 90.852(5)
_cell_angle_gamma                91.274(5)
_cell_volume                     1336.08
_cell_formula_units_Z            3
loop_
_atom_site_label
_atom_site_type_symbol
_atom_site_fract_x
_atom_site_fract_y
_atom_site_fract_z
C1 C 0.5930(4) 0.3599(2) 0.02988(14)
C2 C 1.2641(4) -0.0105(2) -0.23734(14)
C3 C 1.3080(4) 0.0585(2) -0.28800(15)
H1 H 1.4240 0.0452 -0.3183
C4 C 1.0037(4) 0.1675(2) -0.24772(14)
C5 C 0.9605(4) 0.1017(2) -0.19379(14)
C6 C 1.0872(4) 0.0108(2) -0.18924(14)
C7 C 0.5869(4) 0.2567(2) -0.03327(14)
C8 C 0.4248(4) 0.3869(2) 0.08119(14)
C9 C 1.1839(4) 0.1464(2) -0.29446(14)
C10 C 0.7619(4) 0.4377(2) 0.04601(16)
H2 H 0.8746 0.4217 0.0140
C11 C 0.4178(4) 0.1858(3) -0.04281(16)
H3 H 0.4123 0.1183 -0.0841
C12 C 1.3943(4) -0.0992(2) -0.22907(17)
H4 H 1.5076 -0.1148 -0.2608
C13 C 0.2566(4) 0.3112(3) 0.06830(16)
H5 H 0.1459 0.3287 0.1014
C14 C 0.7540(4) 0.2263(2) -0.08908(15)
H6 H 0.8478 0.2851 -0.0884
C15 C 0.7877(4) 0.1279(2) -0.13934(16)
H7 H 0.6945 0.0684 -0.1413
C16 C 1.2286(5) 0.2161(2) -0.34687(16)
H8 H 1.3450 0.2031 -0.3769
C17 C 1.0552(4) -0.0572(2) -0.13501(17)
H9 H 0.9424 -0.0449 -0.1029
C18 C 0.8764(5) 0.2551(3) -0.26004(16)
H10 H 0.7560 0.2685 -0.2326
C19 C 0.4308(5) 0.4896(3) 0.14368(16)
H11 H 0.3200 0.5080 0.1766
C20 C 0.9257(6) 0.3192(3) -0.31052(18)
H12 H 0.8396 0.3762 -0.3166
C21 C 1.3571(5) -0.1607(3) -0.17653(19)
H13 H 1.4452 -0.2175 -0.1716
C22 C 1.1847(5) -0.1393(3) -0.1290(2)
H14 H 1.1595 -0.1824 -0.0928
C23 C 0.5940(5) 0.5614(3) 0.15657(18)
H15 H 0.5951 0.6285 0.1981
C24 C 0.2531(4) 0.2129(3) 0.00835(17)
H16 H 0.1411 0.1631 0.0010
C25 C 0.7623(5) 0.5350(3) 0.10733(18)
H17 H 0.8749 0.5845 0.1167
C26 C 1.1051(5) 0.3009(3) -0.35385(18)
H18 H 1.1390 0.3470 -0.3873
C27? C 0.5791(4) 0.0423(2) 0.50670(16)
C28? C 1.0072(5) 0.4141(3) 0.4261(2)
C29? C 0.3769(5) 0.1554(3) 0.43910(18)
H19? H 0.3604 0.2210 0.4215
C30? C 0.8434(5) 0.4192(3) 0.4768(2)
H20? H 0.7391 0.3644 0.4621
C31? C 1.1680(5) 0.4958(3) 0.4511(2)
C32? C 1.3381(6) 0.4871(4) 0.4007(3)
H21? H 1.4471 0.5383 0.4168
C33? C 0.7548(5) 0.0250(2) 0.54835(17)
H22? H 0.8585 0.0805 0.5583
C34? C 0.2234(5) 0.0716(3) 0.42545(18)
H23? H 0.1055 0.0812 0.3984
C35? C 1.3450(9) 0.4076(5) 0.3311(3)
H24? H 1.4591 0.4038 0.2999
C36? C 1.1838(11) 0.3295(5) 0.3039(3)
H25? H 1.1890 0.2764 0.2542
C37? C 1.0203(7) 0.3314(3) 0.3500(3)
H26? H 0.9148 0.2782 0.3321
C38? C 0.5514(5) 0.1421(2) 0.47804(17)
H27? H 0.6535 0.1984 0.4861
C39? C 0.6897(9) 0.2348(7) 0.4880(3)
H28? H 0.7966 0.2312 0.5225
C40? C 0.7027(10) 0.3207(5) 0.4614(5)
H29? H 0.6018 0.3225 0.4238
loop_
_geom_bond_atom_site_label_1
_geom_bond_atom_site_label_2
_geom_bond_site_symmetry_1
_geom_bond_site_symmetry_2
C1 C7 1_555 1_555
C2 C3 1_555 1_555
C3 H1 1_555 1_555
C4 C5 1_555 1_555
C5 C6 1_555 1_555
C6 C2 1_555 1_555
C7 C11 1_555 1_555
C8 C1 1_555 1_555
C9 C3 1_555 1_555
C10 C1 1_555 1_555
H2 C10 1_555 1_555
C11 H3 1_555 1_555
C12 C2 1_555 1_555
H4 C12 1_555 1_555
C13 C8 1_555 1_555
H5 C13 1_555 1_555
C14 C7 1_555 1_555
H6 C14 1_555 1_555
C15 C5 1_555 1_555
H7 C15 1_555 1_555
C16 C9 1_555 1_555
H8 C16 1_555 1_555
C17 C6 1_555 1_555
H9 C17 1_555 1_555
C18 C4 1_555 1_555
H10 C18 1_555 1_555
C19 C8 1_555 1_555
H11 C19 1_555 1_555
C20 C18 1_555 1_555
H12 C20 1_555 1_555
C21 C12 1_555 1_555
H13 C21 1_555 1_555
C22 C17 1_555 1_555
H14 C22 1_555 1_555
C23 C19 1_555 1_555
H15 C23 1_555 1_555
C24 C11 1_555 1_555
H16 C24 1_555 1_555
C25 C10 1_555 1_555
H17 C25 1_555 1_555
C26 C16 1_555 1_555
H18 C26 1_555 1_555
C4 C9 1_555 1_555
C13 C24 1_555 1_555
C14 C15 1_555 1_555
C20 C26 1_555 1_555
C21 C22 1_555 1_555
C23 C25 1_555 1_555

#END
