
#######################################################################
#
#                 Cambridge Crystallographic Data Centre
#                                CCDC 
#
#######################################################################
#
# If this CIF has been generated from an entry in the Cambridge 
# Structural Database, then it will include bibliographic, chemical, 
# crystal, experimental, refinement or atomic coordinate data resulting 
# from the CCDC's data processing and validation procedures.
#
#######################################################################

data_SEHPUQ
_chemical_formula_moiety         'C20 H20 Cl1 N3 S1'
_chemical_name_systematic        
3-(Diethylamino)-2-(4-chlorophenylimino)-5-phenyl-2H-1,4-thiazine
_symmetry_cell_setting           monoclinic
_symmetry_space_group_name_H-M   'P 21/n'
_symmetry_Int_Tables_number      14
_space_group_name_Hall           '-P 2yn'
loop_
_symmetry_equiv_pos_site_id
_symmetry_equiv_pos_as_xyz
1 x,y,z
2 1/2-x,1/2+y,1/2-z
3 -x,-y,-z
4 1/2+x,1/2-y,1/2+z
_cell_length_a                   10.2568(12)
_cell_length_b                   13.775(2)
_cell_length_c                   13.679(2)
_cell_angle_alpha                90
_cell_angle_beta                 98.659(12)
_cell_angle_gamma                90
_cell_volume                     1910.64
_exptl_crystal_colour            yellow
_chemical_melting_point          129-130deg.C
_cell_formula_units_Z            4
loop_
_atom_site_label
_atom_site_type_symbol
_atom_site_fract_x
_atom_site_fract_y
_atom_site_fract_z
S1 S 0.1763(1) 0.5736(1) 0.0194(1)
Cl1 Cl 0.6037(1) 0.5699(1) 0.4058(1)
N1 N 0.2994(3) 0.4042(2) 0.0430(3)
N2 N 0.0839(3) 0.4691(2) -0.1780(3)
N3 N 0.1245(4) 0.3176(3) -0.1177(3)
C1 C 0.2126(4) 0.4535(3) -0.0105(3)
C2 C 0.1353(4) 0.4146(3) -0.1046(3)
C3 C 0.0734(3) 0.5690(3) -0.1749(3)
C4 C 0.1053(4) 0.6213(3) -0.0919(3)
C5 C 0.1364(6) 0.2444(4) -0.0359(5)
C6 C 0.2544(7) 0.1848(5) -0.0365(5)
C7 C 0.0651(7) 0.2814(4) -0.2124(5)
C8 C -0.0705(11) 0.2819(6) -0.2309(6)
C9 C 0.0142(3) 0.6137(3) -0.2696(3)
C10 C -0.0278(4) 0.5568(3) -0.3518(3)
C11 C -0.0886(4) 0.5975(4) -0.4383(4)
C12 C -0.1102(5) 0.6955(4) -0.4458(4)
C13 C -0.0695(6) 0.7521(4) -0.3639(5)
C14 C -0.0083(5) 0.7120(3) -0.2779(4)
C15 C 0.3705(4) 0.4452(3) 0.1297(3)
C16 C 0.5047(4) 0.4588(3) 0.1360(3)
C17 C 0.5762(4) 0.4965(3) 0.2202(4)
C18 C 0.5148(4) 0.5194(3) 0.2996(3)
C19 C 0.3828(4) 0.5034(4) 0.2958(3)
C20 C 0.3112(4) 0.4669(4) 0.2096(4)
H3 H 0.1413(6) 0.2775(4) 0.0271(5)
H4 H 0.0588(6) 0.2032(4) -0.0441(5)
H5 H 0.2466(24) 0.1487(29) -0.0971(18)
H6 H 0.2633(29) 0.1407(26) 0.0184(23)
H7 H 0.3307(9) 0.2260(5) -0.0310(38)
H8 H 0.0975(7) 0.3197(4) -0.2631(5)
H9 H 0.0949(7) 0.2152(4) -0.2189(5)
H10 H -0.1037(11) 0.2234(29) -0.2054(55)
H11 H -0.0992(11) 0.2855(62) -0.3009(7)
H12 H -0.1032(11) 0.3371(34) -0.1992(53)
H13 H -0.0145(4) 0.4901(3) -0.3484(3)
H14 H -0.1157(4) 0.5579(4) -0.4926(4)
H15 H -0.1511(5) 0.7231(4) -0.5046(4)
H16 H -0.0840(6) 0.8188(4) -0.3673(5)
H17 H 0.0187(5) 0.7520(3) -0.2238(4)
H18 H 0.5469(4) 0.4424(3) 0.0827(3)
H19 H 0.6664(4) 0.5065(3) 0.2235(4)
H20 H 0.3414(4) 0.5169(4) 0.3502(3)
H21 H 0.2210(4) 0.4570(4) 0.2063(4)
H1? H 0.0249(4) 0.6531(3) -0.0799(3)
H2? H 0.1639(4) 0.6723(3) -0.1078(3)
loop_
_geom_bond_atom_site_label_1
_geom_bond_atom_site_label_2
_geom_bond_site_symmetry_1
_geom_bond_site_symmetry_2
S1 C1 1_555 1_555
Cl1 C18 1_555 1_555
N1 C1 1_555 1_555
N2 C2 1_555 1_555
N3 C2 1_555 1_555
C1 C2 1_555 1_555
C3 N2 1_555 1_555
C4 S1 1_555 1_555
C5 N3 1_555 1_555
C6 C5 1_555 1_555
C7 N3 1_555 1_555
C8 C7 1_555 1_555
C9 C3 1_555 1_555
C10 C9 1_555 1_555
C11 C10 1_555 1_555
C12 C11 1_555 1_555
C13 C12 1_555 1_555
C14 C9 1_555 1_555
C15 N1 1_555 1_555
C16 C15 1_555 1_555
C17 C16 1_555 1_555
C18 C17 1_555 1_555
C19 C18 1_555 1_555
C20 C15 1_555 1_555
H3 C5 1_555 1_555
H4 C5 1_555 1_555
H5 C6 1_555 1_555
H6 C6 1_555 1_555
H7 C6 1_555 1_555
H8 C7 1_555 1_555
H9 C7 1_555 1_555
H10 C8 1_555 1_555
H11 C8 1_555 1_555
H12 C8 1_555 1_555
H13 C10 1_555 1_555
H14 C11 1_555 1_555
H15 C12 1_555 1_555
H16 C13 1_555 1_555
H17 C14 1_555 1_555
H18 C16 1_555 1_555
H19 C17 1_555 1_555
H20 C19 1_555 1_555
H21 C20 1_555 1_555
C3 C4 1_555 1_555
C13 C14 1_555 1_555
C19 C20 1_555 1_555

#END
