
#######################################################################
#
#                 Cambridge Crystallographic Data Centre
#                                CCDC 
#
#######################################################################
#
# If this CIF has been generated from an entry in the Cambridge 
# Structural Database, then it will include bibliographic, chemical, 
# crystal, experimental, refinement or atomic coordinate data resulting 
# from the CCDC's data processing and validation procedures.
#
#######################################################################

data_SEHQAX
_chemical_formula_moiety         'C14 H16 N4 O3 S1'
_chemical_name_systematic        
5-(Di-N-ethylamino)-6-(4-nitrophenyl-imino)-2H-1,4-thiazin-3-one
_symmetry_cell_setting           monoclinic
_symmetry_space_group_name_H-M   'P 21/c'
_symmetry_Int_Tables_number      14
_space_group_name_Hall           '-P 2ybc'
loop_
_symmetry_equiv_pos_site_id
_symmetry_equiv_pos_as_xyz
1 x,y,z
2 -x,1/2+y,1/2-z
3 -x,-y,-z
4 x,1/2-y,1/2+z
_cell_length_a                   8.190(2)
_cell_length_b                   7.586(2)
_cell_length_c                   24.917(8)
_cell_angle_alpha                90
_cell_angle_beta                 98.23(2)
_cell_angle_gamma                90
_cell_volume                     1532.13
_chemical_melting_point          180-183deg.C(dec)
_cell_formula_units_Z            4
loop_
_atom_site_label
_atom_site_type_symbol
_atom_site_fract_x
_atom_site_fract_y
_atom_site_fract_z
S1 S 0.3677(1) 0.9190(1) 0.3137(1)
O1 O 0.3315(3) 1.3999(4) 0.2848(1)
O2 O 0.1373(4) 0.4183(4) 0.5390(1)
O3 O 0.1806(4) 0.2427(4) 0.4748(1)
N1 N 0.5454(4) 0.9266(4) 0.4125(1)
N2 N 0.5663(4) 1.2743(4) 0.3255(1)
N3 N 0.7966(4) 1.1284(5) 0.3662(1)
N4 N 0.1925(4) 0.3867(4) 0.4966(1)
C1 C 0.5258(4) 0.9862(4) 0.3642(1)
C2 C 0.6332(4) 1.1344(5) 0.3497(1)
C3 C 0.4159(4) 1.2684(5) 0.2938(1)
C4 C 0.3686(5) 1.0978(5) 0.2657(1)
C5 C 0.8866(5) 0.9759(6) 0.3916(2)
C6 C 0.9012(7) 0.8282(8) 0.3547(2)
C7 C 0.8942(6) 1.2820(7) 0.3527(2)
C8 C 0.9465(7) 1.2557(9) 0.3000(2)
C9 C 0.4461(4) 0.7914(5) 0.4288(1)
C10 C 0.4475(5) 0.6238(5) 0.4084(1)
C11 C 0.3620(4) 0.4891(5) 0.4294(1)
C12 C 0.2755(4) 0.5284(5) 0.4716(1)
C13 C 0.2708(4) 0.6965(5) 0.4924(1)
C14 C 0.3545(4) 0.8280(5) 0.4711(1)
H1 H 0.4460(5) 1.0711(5) 0.2408(1)
H2 H 0.2598(5) 1.1092(5) 0.2448(1)
H3 H 0.9965(5) 1.0135(6) 0.4071(2)
H4 H 0.8311(5) 0.9348(6) 0.4211(2)
H5 H 0.9613(7) 0.7340(8) 0.3743(2)
H6 H 0.9587(7) 0.8663(8) 0.3258(2)
H7 H 0.7931(7) 0.7875(8) 0.3399(2)
H8 H 0.8279(6) 1.3882(7) 0.3521(2)
H9 H 0.9901(6) 1.2963(7) 0.3801(2)
H10 H 1.0094(7) 1.3557(9) 0.2912(2)
H11 H 0.8512(7) 1.2423(9) 0.2729(2)
H12 H 1.0134(7) 1.1515(9) 0.3009(2)
H13 H 0.5067(5) 0.6003(5) 0.3800(1)
H14 H 0.3626(4) 0.3754(5) 0.4155(1)
H15 H 0.2110(4) 0.7197(5) 0.5206(1)
H16 H 0.3511(4) 0.9421(5) 0.4846(1)
loop_
_geom_bond_atom_site_label_1
_geom_bond_atom_site_label_2
_geom_bond_site_symmetry_1
_geom_bond_site_symmetry_2
S1 C1 1_555 1_555
O1 C3 1_555 1_555
O2 N4 1_555 1_555
O3 N4 1_555 1_555
N1 C1 1_555 1_555
N2 C2 1_555 1_555
N3 C2 1_555 1_555
N4 C12 1_555 1_555
C1 C2 1_555 1_555
C3 N2 1_555 1_555
C4 S1 1_555 1_555
C5 N3 1_555 1_555
C6 C5 1_555 1_555
C7 N3 1_555 1_555
C8 C7 1_555 1_555
C9 N1 1_555 1_555
C10 C9 1_555 1_555
C11 C10 1_555 1_555
C12 C11 1_555 1_555
C13 C12 1_555 1_555
C14 C9 1_555 1_555
H1 C4 1_555 1_555
H2 C4 1_555 1_555
H3 C5 1_555 1_555
H4 C5 1_555 1_555
H5 C6 1_555 1_555
H6 C6 1_555 1_555
H7 C6 1_555 1_555
H8 C7 1_555 1_555
H9 C7 1_555 1_555
H10 C8 1_555 1_555
H11 C8 1_555 1_555
H12 C8 1_555 1_555
H13 C10 1_555 1_555
H14 C11 1_555 1_555
H15 C13 1_555 1_555
H16 C14 1_555 1_555
C3 C4 1_555 1_555
C13 C14 1_555 1_555

#END
