
#######################################################################
#
#                 Cambridge Crystallographic Data Centre
#                                CCDC 
#
#######################################################################
#
# If this CIF has been generated from an entry in the Cambridge 
# Structural Database, then it will include bibliographic, chemical, 
# crystal, experimental, refinement or atomic coordinate data resulting 
# from the CCDC's data processing and validation procedures.
#
#######################################################################

data_SEHSIJ
_chemical_formula_moiety         'C20 H20 N10,C1 H4 O1'
_chemical_name_systematic        
'4-(2-(1H-imidazol-4-ylmethylene)-1-methylhydrazino)-6-(2-(1H-imidazol-5-ylmethylene)-1-methylhydrazino)-2-phenylpyrimidine methanol solvate'
_symmetry_cell_setting           monoclinic
_symmetry_space_group_name_H-M   'P 21/a'
_symmetry_Int_Tables_number      14
_space_group_name_Hall           '-P 2yab'
loop_
_symmetry_equiv_pos_site_id
_symmetry_equiv_pos_as_xyz
1 x,y,z
2 1/2-x,1/2+y,-z
3 -x,-y,-z
4 1/2+x,1/2-y,z
_cell_length_a                   9.0437(7)
_cell_length_b                   15.1679(10)
_cell_length_c                   16.2868(13)
_cell_angle_alpha                90
_cell_angle_beta                 92.566(4)
_cell_angle_gamma                90
_cell_volume                     2231.88
_exptl_crystal_colour            colorless
_exptl_crystal_description       prism
_cell_formula_units_Z            4
loop_
_atom_site_label
_atom_site_type_symbol
_atom_site_fract_x
_atom_site_fract_y
_atom_site_fract_z
C1 C 0.7435(5) 0.3751(3) 0.0868(2)
H1 H 0.7187 0.4081 0.0401
C2 C 0.8549(4) 0.2905(2) 0.1716(3)
H2 H 0.9248 0.2519 0.1949
C3 C 0.7315(4) 0.3175(2) 0.2093(2)
C4 C 0.6797(4) 0.3036(2) 0.2907(2)
H3 H 0.7250 0.2629 0.3264
C5 C 0.5777(4) 0.2803(2) 0.4493(2)
H4 H 0.5673 0.2213 0.4285
H5 H 0.5264 0.2855 0.4994
H6 H 0.6807 0.2933 0.4598
C6 C 0.4194(3) 0.4091(2) 0.4100(2)
C7 C 0.3821(3) 0.4762(2) 0.3550(2)
H7 H 0.4165 0.4772 0.3021
C8 C 0.2915(3) 0.5413(2) 0.3833(2)
C9 C 0.2799(3) 0.4726(2) 0.5062(2)
C10 C 0.2223(3) 0.4731(2) 0.5900(2)
C11 C 0.2945(4) 0.4271(2) 0.6537(2)
H8 H 0.3765 0.3925 0.6431
C12 C 0.2454(4) 0.4323(2) 0.7331(2)
H9 H 0.2958 0.4025 0.7757
C13 C 0.1226(4) 0.4814(2) 0.7486(2)
H10 H 0.0885 0.4837 0.8016
C14 C 0.0499(4) 0.5270(2) 0.6863(2)
H11 H -0.0336 0.5602 0.6970
C15 C 0.1005(4) 0.5239(2) 0.6077(2)
H12 H 0.0522 0.5563 0.5661
C16 C 0.1481(4) 0.6799(2) 0.3609(2)
H13 H 0.1996 0.7334 0.3755
H14 H 0.0981 0.6582 0.4076
H15 H 0.0770 0.6915 0.3167
C17 C 0.3124(4) 0.6925(2) 0.2207(2)
H16 H 0.2502 0.7375 0.2370
C18 C 0.3925(4) 0.7019(2) 0.1466(2)
C19 C 0.4137(4) 0.7759(2) 0.1013(2)
H17 H 0.3764 0.8318 0.1113
C20 C 0.5275(4) 0.6668(3) 0.0481(2)
H18 H 0.5846 0.6345 0.0128
N1 N 0.8631(4) 0.3271(2) 0.0954(2)
N2 N 0.6604(3) 0.37144(18) 0.15301(18)
H22 H 0.5777 0.3981 0.1589
N3 N 0.5688(3) 0.34955(16) 0.31210(17)
N4 N 0.5154(3) 0.34201(17) 0.38900(17)
N5 N 0.3688(3) 0.40606(16) 0.48642(16)
N6 N 0.2383(3) 0.54094(16) 0.45875(17)
N7 N 0.2529(3) 0.61468(17) 0.33515(17)
N8 N 0.3269(3) 0.62250(18) 0.26405(17)
N9 N 0.4658(3) 0.63280(19) 0.11218(19)
N10 N 0.4996(3) 0.7525(2) 0.03894(19)
H23 H 0.5302 0.7863 0.0009
C21 C 0.2372(5) 0.4470(3) 0.1305(3)
H19 H 0.2122 0.4677 0.1838
H20 H 0.2122 0.3857 0.1253
H21 H 0.1829 0.4801 0.0889
O1 O 0.3888(3) 0.4579(2) 0.12104(19)
H24 H 0.420(5) 0.5089(12) 0.123(3)
loop_
_geom_bond_atom_site_label_1
_geom_bond_atom_site_label_2
_geom_bond_site_symmetry_1
_geom_bond_site_symmetry_2
C1 H1 1_555 1_555
C2 H2 1_555 1_555
C3 C2 1_555 1_555
C4 C3 1_555 1_555
H3 C4 1_555 1_555
C5 H4 1_555 1_555
H5 C5 1_555 1_555
H6 C5 1_555 1_555
C6 C7 1_555 1_555
C7 H7 1_555 1_555
C8 C7 1_555 1_555
C9 C10 1_555 1_555
C10 C11 1_555 1_555
C11 H8 1_555 1_555
C12 C11 1_555 1_555
H9 C12 1_555 1_555
C13 C12 1_555 1_555
H10 C13 1_555 1_555
C14 C13 1_555 1_555
H11 C14 1_555 1_555
C15 C10 1_555 1_555
H12 C15 1_555 1_555
C16 H13 1_555 1_555
H14 C16 1_555 1_555
H15 C16 1_555 1_555
C17 H16 1_555 1_555
C18 C17 1_555 1_555
C19 C18 1_555 1_555
H17 C19 1_555 1_555
C20 H18 1_555 1_555
C21 H19 1_555 1_555
H20 C21 1_555 1_555
H21 C21 1_555 1_555
N1 C1 1_555 1_555
N2 C1 1_555 1_555
H22 N2 1_555 1_555
N3 C4 1_555 1_555
N4 C5 1_555 1_555
N5 C6 1_555 1_555
N6 C8 1_555 1_555
N7 C8 1_555 1_555
N8 C17 1_555 1_555
N9 C18 1_555 1_555
N10 C19 1_555 1_555
H23 N10 1_555 1_555
O1 C21 1_555 1_555
H24 O1 1_555 1_555
C2 N1 1_555 1_555
C3 N2 1_555 1_555
C6 N4 1_555 1_555
C9 N5 1_555 1_555
C9 N6 1_555 1_555
C14 C15 1_555 1_555
C16 N7 1_555 1_555
C20 N9 1_555 1_555
C20 N10 1_555 1_555
N3 N4 1_555 1_555
N7 N8 1_555 1_555

#END
