
#######################################################################
#
#                 Cambridge Crystallographic Data Centre
#                                CCDC 
#
#######################################################################
#
# If this CIF has been generated from an entry in the Cambridge 
# Structural Database, then it will include bibliographic, chemical, 
# crystal, experimental, refinement or atomic coordinate data resulting 
# from the CCDC's data processing and validation procedures.
#
#######################################################################

data_SEHSEF
_chemical_formula_moiety         'C22 H24 N10,H2 O1'
_chemical_name_systematic        
'4-(1-Methyl-2-((2-methyl-1H-imidazol-4-yl)methylene)hydrazino)-6-(1-methyl-2-((2-methyl-1H-imidazol-5-yl)methylene)hydrazino)-2-phenylpyrimidine monohydrate'
_symmetry_cell_setting           monoclinic
_symmetry_space_group_name_H-M   'P 21/c'
_symmetry_Int_Tables_number      14
_space_group_name_Hall           '-P 2ybc'
loop_
_symmetry_equiv_pos_site_id
_symmetry_equiv_pos_as_xyz
1 x,y,z
2 -x,1/2+y,1/2-z
3 -x,-y,-z
4 x,1/2-y,1/2+z
_cell_length_a                   11.0604(3)
_cell_length_b                   20.2397(11)
_cell_length_c                   10.3186(5)
_cell_angle_alpha                90
_cell_angle_beta                 101.884(3)
_cell_angle_gamma                90
_cell_volume                     2260.4
_exptl_crystal_colour            pink
_exptl_crystal_description       block
_cell_formula_units_Z            4
loop_
_atom_site_label
_atom_site_type_symbol
_atom_site_fract_x
_atom_site_fract_y
_atom_site_fract_z
C1 C -0.16252(19) -0.06865(13) -0.5396(2)
H1 H -0.1018 -0.0675 -0.5927
C2 C -0.1805(2) -0.12565(13) -0.4727(2)
H2 H -0.1322 -0.1638 -0.4800
C3 C -0.26866(18) -0.12755(12) -0.3946(2)
H3 H -0.2814 -0.1671 -0.3498
C4 C -0.33850(18) -0.07159(11) -0.3817(2)
C5 C -0.32025(19) -0.01450(12) -0.4504(2)
H4 H -0.3679 0.0239 -0.4430
C6 C -0.2327(2) -0.01332(13) -0.5295(2)
H5 H -0.2212 0.0257 -0.5768
C7 C -0.43035(17) -0.07212(11) -0.29320(19)
C8 C -0.54236(17) -0.12897(10) -0.16915(19)
C9 C -0.59552(17) -0.07098(10) -0.13505(19)
H6 H -0.6551 -0.0709 -0.0805
C10 C -0.55600(17) -0.01318(10) -0.18578(19)
C11 C -0.5101(2) -0.25079(11) -0.1508(2)
H7 H -0.4681 -0.2722 -0.0686
H8 H -0.4499 -0.2408 -0.2057
H9 H -0.5737 -0.2805 -0.1992
C12 C -0.6867(2) -0.24542(11) 0.0019(2)
H10 H -0.6542 -0.2858 -0.0230
C13 C -0.77505(19) -0.24540(11) 0.0872(2)
C14 C -0.8324(2) -0.29585(12) 0.1384(2)
H11 H -0.8209 -0.3414 0.1223
C15 C -0.89769(19) -0.20632(12) 0.2123(2)
C16 C -0.9616(2) -0.15777(13) 0.2825(2)
H12 H -0.9369 -0.1129 0.2631
H13 H -0.9388 -0.1657 0.3781
H14 H -1.0512 -0.1626 0.2527
C17 C -0.55927(19) 0.10820(10) -0.2186(2)
H15 H -0.6317 0.1339 -0.2612
H16 H -0.5106 0.0963 -0.2844
H17 H -0.5084 0.1347 -0.1484
C18 C -0.72585(18) 0.10742(11) -0.0547(2)
H18 H -0.6915 0.1464 -0.0836
C19 C -0.82086(18) 0.11281(10) 0.0231(2)
C20 C -0.86995(19) 0.17022(12) 0.0598(2)
H19 H -0.8477 0.2140 0.0414
C21 C -0.95886(17) 0.08481(12) 0.1325(2)
C22 C -1.0402(2) 0.04624(13) 0.2016(2)
H20 H -1.0922 0.0765 0.2403
H21 H -0.9895 0.0198 0.2719
H22 H -1.0927 0.0169 0.1382
N1 N -0.46251(15) -0.13076(9) -0.25240(17)
N2 N -0.46972(14) -0.01297(9) -0.26227(17)
N3 N -0.56749(15) -0.18999(9) -0.11947(17)
N4 N -0.65264(14) -0.19028(9) -0.03975(17)
N5 N -0.81785(14) -0.18857(9) 0.13615(17)
H23 H -0.7967 -0.1479 0.1204
N6 N -0.90924(17) -0.27154(10) 0.21657(18)
N7 N -0.59923(15) 0.04866(9) -0.16174(17)
N8 N -0.68762(14) 0.05050(9) -0.08483(16)
N9 N -0.87732(14) 0.05958(9) 0.06880(17)
N10 N -0.95766(15) 0.15145(9) 0.12859(17)
H24 H -1.0048 0.1781 0.1640
O1 O -0.75978(13) -0.05929(7) -0.86384(16)
H25 H -0.8069 -0.0200 -0.8957
H26 H -0.6844 -0.0379 -0.8106
loop_
_geom_bond_atom_site_label_1
_geom_bond_atom_site_label_2
_geom_bond_site_symmetry_1
_geom_bond_site_symmetry_2
C1 H1 1_555 1_555
C2 C1 1_555 1_555
H2 C2 1_555 1_555
C3 C2 1_555 1_555
H3 C3 1_555 1_555
C4 C3 1_555 1_555
C5 C4 1_555 1_555
H4 C5 1_555 1_555
C6 C1 1_555 1_555
H5 C6 1_555 1_555
C7 C4 1_555 1_555
C8 C9 1_555 1_555
C9 H6 1_555 1_555
C10 C9 1_555 1_555
C11 H7 1_555 1_555
H8 C11 1_555 1_555
H9 C11 1_555 1_555
C12 H10 1_555 1_555
C13 C12 1_555 1_555
C14 C13 1_555 1_555
H11 C14 1_555 1_555
C15 C16 1_555 1_555
C16 H12 1_555 1_555
H13 C16 1_555 1_555
H14 C16 1_555 1_555
C17 H15 1_555 1_555
H16 C17 1_555 1_555
H17 C17 1_555 1_555
C18 H18 1_555 1_555
C19 C18 1_555 1_555
C20 C19 1_555 1_555
H19 C20 1_555 1_555
C21 C22 1_555 1_555
C22 H20 1_555 1_555
H21 C22 1_555 1_555
H22 C22 1_555 1_555
N1 C7 1_555 1_555
N2 C7 1_555 1_555
N3 C8 1_555 1_555
N4 C12 1_555 1_555
N5 C13 1_555 1_555
H23 N5 1_555 1_555
N6 C14 1_555 1_555
N7 C10 1_555 1_555
N8 C18 1_555 1_555
N9 C19 1_555 1_555
N10 C20 1_555 1_555
H24 N10 1_555 1_555
O1 H25 1_555 1_555
H26 O1 1_555 1_555
C5 C6 1_555 1_555
C8 N1 1_555 1_555
C10 N2 1_555 1_555
C11 N3 1_555 1_555
C15 N5 1_555 1_555
C15 N6 1_555 1_555
C17 N7 1_555 1_555
C21 N9 1_555 1_555
C21 N10 1_555 1_555
N3 N4 1_555 1_555
N7 N8 1_555 1_555

#END
