
#######################################################################
#
#                 Cambridge Crystallographic Data Centre
#                                CCDC 
#
#######################################################################
#
# If this CIF has been generated from an entry in the Cambridge 
# Structural Database, then it will include bibliographic, chemical, 
# crystal, experimental, refinement or atomic coordinate data resulting 
# from the CCDC's data processing and validation procedures.
#
#######################################################################

data_SEHWOS
_chemical_formula_moiety         'C27 H18 B1 N1 O2'
_chemical_name_systematic        
Naphthyl(2,6-bis(2-hydroxyphenyl)pyridyl)boron
_symmetry_cell_setting           monoclinic
_symmetry_space_group_name_H-M   'P 21/c'
_symmetry_Int_Tables_number      14
_space_group_name_Hall           '-P 2ybc'
loop_
_symmetry_equiv_pos_site_id
_symmetry_equiv_pos_as_xyz
1 x,y,z
2 -x,1/2+y,1/2-z
3 -x,-y,-z
4 x,1/2-y,1/2+z
_cell_length_a                   15.033(3)
_cell_length_b                   27.353(6)
_cell_length_c                   10.260(2)
_cell_angle_alpha                90
_cell_angle_beta                 108.50(3)
_cell_angle_gamma                90
_cell_volume                     4000.87
_exptl_crystal_colour            yellow
_exptl_crystal_description       block
_cell_formula_units_Z            8
_chemical_properties_physical    light-sensitive
_exptl_crystal_recrystallization_method 'diethyl ether/chloroform'
_exptl_crystal_preparation       luminescent
loop_
_atom_site_label
_atom_site_type_symbol
_atom_site_fract_x
_atom_site_fract_y
_atom_site_fract_z
B1 B 0.1399(3) 0.64042(14) 0.5196(4)
O1 O 0.16649(17) 0.59596(8) 0.6013(2)
O2 O 0.22765(15) 0.66463(8) 0.5311(2)
N1 N 0.08404(18) 0.67361(10) 0.5950(2)
C1 C 0.2268(3) 0.71295(13) 0.5042(3)
C2 C 0.2913(3) 0.73129(15) 0.4484(4)
H1 H 0.3338 0.7105 0.4276
C3 C 0.2930(3) 0.78066(17) 0.4231(4)
H2 H 0.3364 0.7930 0.3843
C4 C 0.2316(3) 0.81163(15) 0.4542(5)
H3 H 0.2338 0.8450 0.4376
C5 C 0.1671(3) 0.79368(13) 0.5099(4)
H4 H 0.1254 0.8150 0.5310
C6 C 0.1628(2) 0.74352(13) 0.5358(3)
C7 C 0.0966(3) 0.72346(12) 0.5973(3)
C8 C 0.0439(3) 0.75124(14) 0.6571(4)
H5 H 0.0516 0.7850 0.6618
C9 C -0.0196(3) 0.73011(15) 0.7096(4)
H6 H -0.0554 0.7496 0.7481
C10 C -0.0310(3) 0.68011(16) 0.7060(4)
H7 H -0.0743 0.6657 0.7418
C11 C 0.0229(3) 0.65159(13) 0.6484(3)
C12 C 0.0216(3) 0.59804(13) 0.6472(3)
C13 C -0.0516(3) 0.57173(16) 0.6732(4)
H8 H -0.1046 0.5880 0.6788
C14 C -0.0443(4) 0.52166(18) 0.6904(4)
H9 H -0.0927 0.5040 0.7064
C15 C 0.0343(4) 0.49808(16) 0.6838(4)
H10 H 0.0400 0.4646 0.6997
C16 C 0.1046(3) 0.52264(15) 0.6544(4)
H11 H 0.1570 0.5058 0.6485
C17 C 0.0977(3) 0.57285(13) 0.6332(3)
C18 C 0.0754(2) 0.63126(11) 0.3627(3)
C19 C -0.0164(2) 0.64603(11) 0.3129(3)
H12 H -0.0429 0.6615 0.3724
C20 C -0.0723(3) 0.63869(13) 0.1749(4)
H13 H -0.1343 0.6493 0.1448
C21 C -0.0350(3) 0.61610(16) 0.0868(4)
H14 H -0.0718 0.6116 -0.0041
C22 C 0.0570(3) 0.59950(13) 0.1294(4)
C23 C 0.0951(4) 0.57565(18) 0.0367(5)
H15 H 0.0587 0.5714 -0.0546
C24 C 0.1833(5) 0.55934(18) 0.0805(7)
H16 H 0.2087 0.5441 0.0192
C25 C 0.2368(3) 0.56491(17) 0.2154(7)
H17 H 0.2973 0.5522 0.2447
C26 C 0.2042(3) 0.58828(14) 0.3074(4)
H18 H 0.2429 0.5919 0.3977
C27 C 0.1125(3) 0.60713(12) 0.2680(4)
B2 B 0.6577(3) 0.64593(16) 0.6535(4)
O3 O 0.73606(17) 0.67627(9) 0.7326(3)
O4 O 0.70343(18) 0.60528(9) 0.6067(3)
N2 N 0.6013(2) 0.67523(12) 0.5161(3)
C28 C 0.6448(4) 0.57567(16) 0.5133(5)
C29 C 0.6662(4) 0.52654(18) 0.5092(5)
H19 H 0.7224 0.5142 0.5676
C30 C 0.6047(7) 0.4967(2) 0.4197(8)
H20 H 0.6192 0.4636 0.4185
C31 C 0.5229(6) 0.5133(3) 0.3320(7)
H21 H 0.4812 0.4918 0.2728
C32 C 0.5019(4) 0.5625(3) 0.3312(5)
H22 H 0.4460 0.5741 0.2702
C33 C 0.5627(3) 0.59454(17) 0.4196(4)
C34 C 0.5482(3) 0.64746(18) 0.4099(4)
C35 C 0.4883(3) 0.6715(2) 0.2961(5)
H23 H 0.4507 0.6535 0.2220
C36 C 0.4846(3) 0.7215(3) 0.2929(5)
H24 H 0.4436 0.7374 0.2175
C37 C 0.5403(3) 0.74783(17) 0.3990(5)
H25 H 0.5386 0.7818 0.3947
C38 C 0.5997(3) 0.72485(15) 0.5139(4)
C39 C 0.6601(3) 0.75050(14) 0.6348(4)
C40 C 0.6565(3) 0.80157(18) 0.6470(5)
H26 H 0.6152 0.8195 0.5763
C41 C 0.7123(5) 0.82544(18) 0.7603(8)
H27 H 0.7094 0.8593 0.7663
C42 C 0.7728(4) 0.7991(2) 0.8654(6)
H28 H 0.8084 0.8153 0.9445
C43 C 0.7817(3) 0.74944(18) 0.8561(5)
H29 H 0.8253 0.7323 0.9261
C44 C 0.7245(3) 0.72474(16) 0.7404(4)
C45 C 0.5859(3) 0.63036(11) 0.7330(3)
C46 C 0.4925(3) 0.64329(13) 0.6894(4)
H30 H 0.4707 0.6627 0.6114
C47 C 0.4287(3) 0.62888(15) 0.7558(4)
H31 H 0.3662 0.6385 0.7213
C48 C 0.4577(3) 0.60116(15) 0.8694(4)
H32 H 0.4151 0.5919 0.9137
C49 C 0.5518(3) 0.58597(13) 0.9225(4)
C50 C 0.5823(4) 0.55544(17) 1.0389(5)
H33 H 0.5395 0.5452 1.0818
C51 C 0.6723(4) 0.54082(17) 1.0889(4)
H34 H 0.6912 0.5211 1.1666
C52 C 0.7371(3) 0.55499(15) 1.0255(5)
H35 H 0.7991 0.5448 1.0611
C53 C 0.7098(3) 0.58412(13) 0.9098(4)
H36 H 0.7535 0.5931 0.8673
C54 C 0.6159(2) 0.60052(12) 0.8549(4)
loop_
_geom_bond_atom_site_label_1
_geom_bond_atom_site_label_2
_geom_bond_site_symmetry_1
_geom_bond_site_symmetry_2
B1 O1 1_555 1_555
O1 C17 1_555 1_555
O2 B1 1_555 1_555
N1 B1 1_555 1_555
C1 O2 1_555 1_555
C2 C1 1_555 1_555
H1 C2 1_555 1_555
C3 C2 1_555 1_555
H2 C3 1_555 1_555
C4 C3 1_555 1_555
H3 C4 1_555 1_555
C5 C4 1_555 1_555
H4 C5 1_555 1_555
C6 C1 1_555 1_555
C7 N1 1_555 1_555
C8 C7 1_555 1_555
H5 C8 1_555 1_555
C9 C8 1_555 1_555
H6 C9 1_555 1_555
C10 C9 1_555 1_555
H7 C10 1_555 1_555
C11 N1 1_555 1_555
C12 C11 1_555 1_555
C13 C12 1_555 1_555
H8 C13 1_555 1_555
C14 C13 1_555 1_555
H9 C14 1_555 1_555
C15 C14 1_555 1_555
H10 C15 1_555 1_555
C16 C15 1_555 1_555
H11 C16 1_555 1_555
C17 C12 1_555 1_555
C18 B1 1_555 1_555
C19 C18 1_555 1_555
H12 C19 1_555 1_555
C20 C19 1_555 1_555
H13 C20 1_555 1_555
C21 C20 1_555 1_555
H14 C21 1_555 1_555
C22 C21 1_555 1_555
C23 C22 1_555 1_555
H15 C23 1_555 1_555
C24 C23 1_555 1_555
H16 C24 1_555 1_555
C25 C24 1_555 1_555
H17 C25 1_555 1_555
C26 C25 1_555 1_555
H18 C26 1_555 1_555
C27 C18 1_555 1_555
B2 O3 1_555 1_555
O3 C44 1_555 1_555
O4 B2 1_555 1_555
N2 B2 1_555 1_555
C28 O4 1_555 1_555
C29 C28 1_555 1_555
H19 C29 1_555 1_555
C30 C29 1_555 1_555
H20 C30 1_555 1_555
C31 C30 1_555 1_555
H21 C31 1_555 1_555
C32 C31 1_555 1_555
H22 C32 1_555 1_555
C33 C28 1_555 1_555
C34 N2 1_555 1_555
C35 C34 1_555 1_555
H23 C35 1_555 1_555
C36 C35 1_555 1_555
H24 C36 1_555 1_555
C37 C36 1_555 1_555
H25 C37 1_555 1_555
C38 N2 1_555 1_555
C39 C38 1_555 1_555
C40 C39 1_555 1_555
H26 C40 1_555 1_555
C41 C40 1_555 1_555
H27 C41 1_555 1_555
C42 C41 1_555 1_555
H28 C42 1_555 1_555
C43 C42 1_555 1_555
H29 C43 1_555 1_555
C44 C39 1_555 1_555
C45 B2 1_555 1_555
C46 C45 1_555 1_555
H30 C46 1_555 1_555
C47 C46 1_555 1_555
H31 C47 1_555 1_555
C48 C47 1_555 1_555
H32 C48 1_555 1_555
C49 C48 1_555 1_555
C50 C49 1_555 1_555
H33 C50 1_555 1_555
C51 C50 1_555 1_555
H34 C51 1_555 1_555
C52 C51 1_555 1_555
H35 C52 1_555 1_555
C53 C52 1_555 1_555
H36 C53 1_555 1_555
C54 C45 1_555 1_555
C5 C6 1_555 1_555
C6 C7 1_555 1_555
C10 C11 1_555 1_555
C16 C17 1_555 1_555
C22 C27 1_555 1_555
C26 C27 1_555 1_555
C32 C33 1_555 1_555
C33 C34 1_555 1_555
C37 C38 1_555 1_555
C43 C44 1_555 1_555
C49 C54 1_555 1_555
C53 C54 1_555 1_555

#END
