
#######################################################################
#
#                 Cambridge Crystallographic Data Centre
#                                CCDC 
#
#######################################################################
#
# If this CIF has been generated from an entry in the Cambridge 
# Structural Database, then it will include bibliographic, chemical, 
# crystal, experimental, refinement or atomic coordinate data resulting 
# from the CCDC's data processing and validation procedures.
#
#######################################################################

data_SEJBUG
_chemical_formula_moiety         'C19 H14 B1 F2 N3'
_chemical_name_systematic        
5,5-Difluoro-10-phenyl-3-(1H-pyrrol-2-yl)-5H-4\l^5^,5\l^5^-dipyrrolo[1,2-c:2',1'-f][1,3,2]diazaborinine
_symmetry_cell_setting           triclinic
_symmetry_space_group_name_H-M   'P -1'
_symmetry_Int_Tables_number      2
_space_group_name_Hall           '-P 1'
loop_
_symmetry_equiv_pos_site_id
_symmetry_equiv_pos_as_xyz
1 x,y,z
2 -x,-y,-z
_cell_length_a                   10.9192(12)
_cell_length_b                   11.0064(12)
_cell_length_c                   13.8604(16)
_cell_angle_alpha                89.033(2)
_cell_angle_beta                 78.752(2)
_cell_angle_gamma                79.179(2)
_cell_volume                     1604.37
_exptl_crystal_colour            purple
_exptl_crystal_description       block
_cell_formula_units_Z            4
loop_
_atom_site_label
_atom_site_type_symbol
_atom_site_fract_x
_atom_site_fract_y
_atom_site_fract_z
B1 B 0.6565(4) 0.7253(4) 0.2932(3)
C1 C 0.8678(3) 0.7407(3) 0.3424(2)
H1 H 0.8676 0.8225 0.3246
F1 F 0.59449(18) 0.83383(16) 0.34226(16)
N1 N 0.7768(2) 0.6766(2) 0.33274(17)
C2 C 0.9611(3) 0.6670(3) 0.3825(2)
H2 H 1.0334 0.6899 0.3969
F2 F 0.68527(19) 0.7472(2) 0.19418(15)
N2 N 0.5719(2) 0.6269(2) 0.31078(16)
C3 C 0.9264(3) 0.5520(3) 0.3971(2)
H3 H 0.9717 0.4833 0.4231
N3 N 0.3942(2) 0.8512(2) 0.24112(18)
H4 H 0.4604 0.8773 0.2507
C4 C 0.8116(3) 0.5576(3) 0.3660(2)
C5 C 0.7304(3) 0.4713(3) 0.3687(2)
C6 C 0.6143(3) 0.5063(3) 0.3416(2)
C7 C 0.5174(3) 0.4381(3) 0.3382(2)
H6 H 0.5198 0.3555 0.3546
C8 C 0.4208(3) 0.5136(3) 0.3073(2)
H7 H 0.3450 0.4923 0.2988
C9 C 0.4553(3) 0.6316(3) 0.2900(2)
C10 C 0.3748(3) 0.7323(3) 0.2548(2)
C11 C 0.2569(3) 0.7308(3) 0.2312(2)
H8 H 0.2178 0.6625 0.2335
C12 C 0.2078(3) 0.8492(4) 0.2036(2)
H9 H 0.1303 0.8740 0.1841
C13 C 0.2936(4) 0.9220(3) 0.2102(2)
H10 H 0.2850 1.0057 0.1961
C14 C 0.7727(3) 0.3431(3) 0.4001(2)
C15 C 0.8913(3) 0.2765(3) 0.3575(2)
H11 H 0.9450 0.3126 0.3098
C16 C 0.9296(3) 0.1564(3) 0.3858(3)
H12 H 1.0096 0.1125 0.3574
C17 C 0.8510(4) 0.1014(3) 0.4553(3)
H13 H 0.8770 0.0204 0.4737
C18 C 0.7337(4) 0.1673(3) 0.4973(2)
H14 H 0.6801 0.1306 0.5445
C19 C 0.6939(3) 0.2876(3) 0.4704(2)
H15 H 0.6142 0.3312 0.4996
B2 B 0.2397(4) 0.3063(4) 0.2138(3)
F3 F 0.16817(14) 0.41674(15) 0.25928(12)
F4 F 0.15673(15) 0.23828(16) 0.18661(12)
N4 N 0.3150(2) 0.2375(2) 0.28581(19)
N5 N 0.3362(2) 0.3310(2) 0.12155(19)
N6 N 0.1034(3) 0.5333(2) 0.0998(2)
H5 H 0.0860 0.5017 0.1569
C20 C 0.2723(3) 0.2202(3) 0.3821(3)
H16 H 0.1919 0.2549 0.4171
C21 C 0.3654(3) 0.1430(3) 0.4216(2)
H17 H 0.3592 0.1173 0.4863
C22 C 0.4692(3) 0.1119(3) 0.3452(3)
H18 H 0.5459 0.0605 0.3494
C23 C 0.4387(3) 0.1709(3) 0.2612(2)
C24 C 0.5080(3) 0.1785(3) 0.1656(2)
C25 C 0.4594(3) 0.2580(3) 0.0991(2)
C26 C 0.5174(3) 0.2906(3) 0.0045(2)
H19 H 0.5984 0.2557 -0.0292
C27 C 0.4346(3) 0.3817(3) -0.0288(2)
H20 H 0.4493 0.4214 -0.0885
C28 C 0.3211(3) 0.4056(3) 0.0443(3)
C29 C 0.2141(3) 0.4986(3) 0.0328(3)
C30 C 0.2033(4) 0.5723(3) -0.0490(3)
H21 H 0.2642 0.5699 -0.1065
C31 C 0.0841(4) 0.6505(3) -0.0291(3)
H22 H 0.0510 0.7092 -0.0709
C32 C 0.0256(4) 0.6247(3) 0.0630(3)
H23 H -0.0547 0.6636 0.0952
C33 C 0.6386(3) 0.1027(3) 0.1370(2)
C34 C 0.7340(3) 0.1156(3) 0.1865(2)
H24 H 0.7173 0.1731 0.2380
C35 C 0.8540(3) 0.0435(3) 0.1599(3)
H25 H 0.9179 0.0535 0.1929
C36 C 0.8789(3) -0.0422(3) 0.0852(3)
H26 H 0.9598 -0.0902 0.0675
C37 C 0.7858(3) -0.0576(3) 0.0366(2)
H27 H 0.8029 -0.1168 -0.0137
C38 C 0.6658(3) 0.0146(3) 0.0619(2)
H28 H 0.6027 0.0040 0.0281
loop_
_geom_bond_atom_site_label_1
_geom_bond_atom_site_label_2
_geom_bond_site_symmetry_1
_geom_bond_site_symmetry_2
B1 F1 1_555 1_555
C1 H1 1_555 1_555
N1 B1 1_555 1_555
B2 F3 1_555 1_555
C2 C1 1_555 1_555
H2 C2 1_555 1_555
F2 B1 1_555 1_555
N2 B1 1_555 1_555
C3 C2 1_555 1_555
H3 C3 1_555 1_555
N3 H4 1_555 1_555
C4 N1 1_555 1_555
F4 B2 1_555 1_555
N4 B2 1_555 1_555
C5 C4 1_555 1_555
N5 B2 1_555 1_555
C6 N2 1_555 1_555
N6 H5 1_555 1_555
C7 C6 1_555 1_555
H6 C7 1_555 1_555
C8 C7 1_555 1_555
H7 C8 1_555 1_555
C9 N2 1_555 1_555
C10 N3 1_555 1_555
C11 C10 1_555 1_555
H8 C11 1_555 1_555
C12 C11 1_555 1_555
H9 C12 1_555 1_555
C13 N3 1_555 1_555
H10 C13 1_555 1_555
C14 C5 1_555 1_555
C15 C14 1_555 1_555
H11 C15 1_555 1_555
C16 C15 1_555 1_555
H12 C16 1_555 1_555
C17 C16 1_555 1_555
H13 C17 1_555 1_555
C18 C17 1_555 1_555
H14 C18 1_555 1_555
C19 C14 1_555 1_555
H15 C19 1_555 1_555
C20 N4 1_555 1_555
H16 C20 1_555 1_555
C21 C20 1_555 1_555
H17 C21 1_555 1_555
C22 C21 1_555 1_555
H18 C22 1_555 1_555
C23 N4 1_555 1_555
C24 C23 1_555 1_555
C25 N5 1_555 1_555
C26 C25 1_555 1_555
H19 C26 1_555 1_555
C27 C26 1_555 1_555
H20 C27 1_555 1_555
C28 N5 1_555 1_555
C29 N6 1_555 1_555
C30 C29 1_555 1_555
H21 C30 1_555 1_555
C31 C30 1_555 1_555
H22 C31 1_555 1_555
C32 N6 1_555 1_555
H23 C32 1_555 1_555
C33 C24 1_555 1_555
C34 C33 1_555 1_555
H24 C34 1_555 1_555
C35 C34 1_555 1_555
H25 C35 1_555 1_555
C36 C35 1_555 1_555
H26 C36 1_555 1_555
C37 C36 1_555 1_555
H27 C37 1_555 1_555
C38 C33 1_555 1_555
H28 C38 1_555 1_555
C1 N1 1_555 1_555
C3 C4 1_555 1_555
C5 C6 1_555 1_555
C8 C9 1_555 1_555
C9 C10 1_555 1_555
C12 C13 1_555 1_555
C18 C19 1_555 1_555
C22 C23 1_555 1_555
C24 C25 1_555 1_555
C27 C28 1_555 1_555
C28 C29 1_555 1_555
C31 C32 1_555 1_555
C37 C38 1_555 1_555

#END
