
#######################################################################
#
#                 Cambridge Crystallographic Data Centre
#                                CCDC 
#
#######################################################################
#
# If this CIF has been generated from an entry in the Cambridge 
# Structural Database, then it will include bibliographic, chemical, 
# crystal, experimental, refinement or atomic coordinate data resulting 
# from the CCDC's data processing and validation procedures.
#
#######################################################################

data_SEJDUI
_chemical_formula_moiety         'C24 H17 F3'
_chemical_name_systematic        
1-(3,4-Diphenylcyclopenta-1,3-dien-1-yl)-4-(trifluoromethyl)benzene
_symmetry_cell_setting           orthorhombic
_symmetry_space_group_name_H-M   'P b c a'
_symmetry_Int_Tables_number      61
_space_group_name_Hall           '-P 2ac 2ab'
loop_
_symmetry_equiv_pos_site_id
_symmetry_equiv_pos_as_xyz
1 x,y,z
2 1/2-x,-y,1/2+z
3 1/2+x,1/2-y,-z
4 -x,1/2+y,1/2-z
5 -x,-y,-z
6 1/2+x,y,1/2-z
7 1/2-x,1/2+y,z
8 x,1/2-y,1/2+z
_cell_length_a                   14.213(8)
_cell_length_b                   7.615(4)
_cell_length_c                   34.237(18)
_cell_angle_alpha                90
_cell_angle_beta                 90
_cell_angle_gamma                90
_cell_volume                     3705.54
_exptl_crystal_colour            yellow
_exptl_crystal_description       block
_cell_formula_units_Z            8
loop_
_atom_site_label
_atom_site_type_symbol
_atom_site_fract_x
_atom_site_fract_y
_atom_site_fract_z
F1 F -1.1630(3) 0.3556(6) -0.02847(12)
F2 F -1.1497(3) 0.1008(6) -0.03363(12)
F3 F -1.0898(2) 0.2256(8) 0.01136(9)
C1 C -0.6114(2) 0.3414(4) -0.13829(8)
C2 C -0.66762(19) 0.3752(4) -0.16951(8)
C3 C -0.7661(2) 0.3741(4) -0.15620(8)
H1 H -0.8181 0.3968 -0.1719
C4 C -0.76920(18) 0.3340(4) -0.11692(8)
C5 C -0.6727(2) 0.3120(4) -0.10325(8)
H2 H -0.6635 0.1947 -0.0929
H3 H -0.6584 0.3966 -0.0829
C6 C -0.5079(2) 0.3374(4) -0.13480(8)
C7 C -0.4647(2) 0.2397(5) -0.10553(10)
H4 H -0.5014 0.1727 -0.0887
C8 C -0.3681(3) 0.2408(6) -0.10115(14)
H5 H -0.3405 0.1744 -0.0815
C9 C -0.3128(3) 0.3387(7) -0.12548(15)
H6 H -0.2478 0.3387 -0.1225
C10 C -0.3540(3) 0.4368(6) -0.15436(13)
H7 H -0.3168 0.5040 -0.1710
C11 C -0.4503(2) 0.4363(5) -0.15890(10)
H8 H -0.4772 0.5039 -0.1786
C12 C -0.64344(18) 0.4061(4) -0.21087(8)
C13 C -0.5777(2) 0.3052(5) -0.23066(11)
H9 H -0.5469 0.2146 -0.2177
C14 C -0.5574(3) 0.3378(6) -0.26950(12)
H10 H -0.5121 0.2705 -0.2821
C15 C -0.6031(3) 0.4673(7) -0.28964(11)
H11 H -0.5897 0.4870 -0.3159
C16 C -0.6684(3) 0.5672(6) -0.27076(11)
H12 H -0.6993 0.6565 -0.2841
C17 C -0.6888(2) 0.5368(4) -0.23191(9)
H13 H -0.7341 0.6054 -0.2196
C18 C -0.85341(19) 0.3099(4) -0.09309(9)
C19 C -0.9413(2) 0.2898(5) -0.10994(10)
H14 H -0.9469 0.2938 -0.1370
C20 C -1.0208(2) 0.2639(5) -0.08754(10)
H15 H -1.0788 0.2497 -0.0997
C21 C -1.0154(2) 0.2589(5) -0.04754(10)
C22 C -0.9287(3) 0.2770(6) -0.03047(11)
H16 H -0.9238 0.2730 -0.0034
C23 C -0.8492(3) 0.3008(6) -0.05253(10)
H17 H -0.7913 0.3111 -0.0401
C24 C -1.0999(3) 0.2316(8) -0.02403(14)
loop_
_geom_bond_atom_site_label_1
_geom_bond_atom_site_label_2
_geom_bond_site_symmetry_1
_geom_bond_site_symmetry_2
F1 C24 1_555 1_555
F2 C24 1_555 1_555
F3 C24 1_555 1_555
C1 C2 1_555 1_555
C2 C3 1_555 1_555
C3 H1 1_555 1_555
C4 C3 1_555 1_555
C5 C1 1_555 1_555
H2 C5 1_555 1_555
H3 C5 1_555 1_555
C6 C1 1_555 1_555
C7 C6 1_555 1_555
H4 C7 1_555 1_555
C8 C7 1_555 1_555
H5 C8 1_555 1_555
C9 C8 1_555 1_555
H6 C9 1_555 1_555
C10 C9 1_555 1_555
H7 C10 1_555 1_555
C11 C6 1_555 1_555
H8 C11 1_555 1_555
C12 C2 1_555 1_555
C13 C12 1_555 1_555
H9 C13 1_555 1_555
C14 C13 1_555 1_555
H10 C14 1_555 1_555
C15 C14 1_555 1_555
H11 C15 1_555 1_555
C16 C15 1_555 1_555
H12 C16 1_555 1_555
C17 C12 1_555 1_555
H13 C17 1_555 1_555
C18 C4 1_555 1_555
C19 C18 1_555 1_555
H14 C19 1_555 1_555
C20 C19 1_555 1_555
H15 C20 1_555 1_555
C21 C20 1_555 1_555
C22 C21 1_555 1_555
H16 C22 1_555 1_555
C23 C18 1_555 1_555
H17 C23 1_555 1_555
C24 C21 1_555 1_555
C4 C5 1_555 1_555
C10 C11 1_555 1_555
C16 C17 1_555 1_555
C22 C23 1_555 1_555

#END
