
#######################################################################
#
#                 Cambridge Crystallographic Data Centre
#                                CCDC 
#
#######################################################################
#
# If this CIF has been generated from an entry in the Cambridge 
# Structural Database, then it will include bibliographic, chemical, 
# crystal, experimental, refinement or atomic coordinate data resulting 
# from the CCDC's data processing and validation procedures.
#
#######################################################################

data_SEJFAQ
_chemical_formula_moiety         'C24 H20'
_chemical_name_systematic        
1-(3,4-Diphenylcyclopenta-1,3-dien-1-yl)-4-methylbenzene
_symmetry_cell_setting           monoclinic
_symmetry_space_group_name_H-M   'P 21/n'
_symmetry_Int_Tables_number      14
_space_group_name_Hall           '-P 2yn'
loop_
_symmetry_equiv_pos_site_id
_symmetry_equiv_pos_as_xyz
1 x,y,z
2 1/2-x,1/2+y,1/2-z
3 -x,-y,-z
4 1/2+x,1/2-y,1/2+z
_cell_length_a                   5.9678(3)
_cell_length_b                   18.3299(7)
_cell_length_c                   15.8727(7)
_cell_angle_alpha                90
_cell_angle_beta                 99.236(2)
_cell_angle_gamma                90
_cell_volume                     1713.79
_exptl_crystal_colour            green
_exptl_crystal_description       block
_cell_formula_units_Z            4
loop_
_atom_site_label
_atom_site_type_symbol
_atom_site_fract_x
_atom_site_fract_y
_atom_site_fract_z
C1 C 0.4694(2) -0.01965(7) 0.23667(8)
C2 C 0.3545(2) 0.04258(7) 0.24817(8)
C3 C 0.3867(2) 0.09470(7) 0.18137(8)
H1 H 0.3218 0.1409 0.1750
C4 C 0.5256(2) 0.06576(7) 0.12980(8)
C5 C 0.5896(2) -0.00910(7) 0.16111(8)
H2 H 0.7527 -0.0131 0.1780
H3 H 0.5400 -0.0451 0.1173
C6 C 0.4830(2) -0.08934(7) 0.28312(8)
C7 C 0.6615(3) -0.13709(8) 0.27875(10)
H4 H 0.7738 -0.1238 0.2473
C8 C 0.6768(3) -0.20375(9) 0.31982(11)
H5 H 0.7986 -0.2345 0.3158
C9 C 0.5134(3) -0.22490(9) 0.36646(10)
H6 H 0.5241 -0.2696 0.3946
C10 C 0.3341(3) -0.17917(8) 0.37100(10)
H7 H 0.2222 -0.1933 0.4022
C11 C 0.3168(3) -0.11246(8) 0.32998(9)
H8 H 0.1929 -0.0825 0.3336
C12 C 0.2227(2) 0.06290(7) 0.31648(8)
C13 C 0.3114(3) 0.05359(8) 0.40250(9)
H9 H 0.4558 0.0339 0.4180
C14 C 0.1863(3) 0.07344(9) 0.46480(10)
H10 H 0.2473 0.0675 0.5221
C15 C -0.0285(3) 0.10206(9) 0.44252(11)
H11 H -0.1145 0.1137 0.4846
C16 C -0.1152(3) 0.11340(9) 0.35810(11)
H12 H -0.2590 0.1336 0.3431
C17 C 0.0104(2) 0.09487(8) 0.29542(10)
H13 H -0.0480 0.1039 0.2385
C18 C 0.6108(2) 0.10184(6) 0.05887(7)
C19 C 0.5017(2) 0.16293(7) 0.01898(8)
H14 H 0.3674 0.1791 0.0354
C20 C 0.5886(2) 0.19985(7) -0.04409(9)
H15 H 0.5114 0.2403 -0.0694
C21 C 0.7889(2) 0.17802(7) -0.07071(8)
C22 C 0.8935(2) 0.11629(7) -0.03340(9)
H16 H 1.0251 0.0995 -0.0514
C23 C 0.8079(2) 0.07869(7) 0.03020(8)
H17 H 0.8832 0.0374 0.0541
C24 C 0.8891(3) 0.22207(10) -0.13581(11)
H18 H 1.0262 0.1992 -0.1468
H19 H 0.9226 0.2705 -0.1143
H20 H 0.7822 0.2246 -0.1878
loop_
_geom_bond_atom_site_label_1
_geom_bond_atom_site_label_2
_geom_bond_site_symmetry_1
_geom_bond_site_symmetry_2
C1 C2 1_555 1_555
C2 C3 1_555 1_555
C3 H1 1_555 1_555
C4 C3 1_555 1_555
C5 C1 1_555 1_555
H2 C5 1_555 1_555
H3 C5 1_555 1_555
C6 C1 1_555 1_555
C7 C6 1_555 1_555
H4 C7 1_555 1_555
C8 C7 1_555 1_555
H5 C8 1_555 1_555
C9 C8 1_555 1_555
H6 C9 1_555 1_555
C10 C9 1_555 1_555
H7 C10 1_555 1_555
C11 C6 1_555 1_555
H8 C11 1_555 1_555
C12 C2 1_555 1_555
C13 C12 1_555 1_555
H9 C13 1_555 1_555
C14 C13 1_555 1_555
H10 C14 1_555 1_555
C15 C14 1_555 1_555
H11 C15 1_555 1_555
C16 C15 1_555 1_555
H12 C16 1_555 1_555
C17 C12 1_555 1_555
H13 C17 1_555 1_555
C18 C4 1_555 1_555
C19 C18 1_555 1_555
H14 C19 1_555 1_555
C20 C19 1_555 1_555
H15 C20 1_555 1_555
C21 C20 1_555 1_555
C22 C21 1_555 1_555
H16 C22 1_555 1_555
C23 C18 1_555 1_555
H17 C23 1_555 1_555
C24 C21 1_555 1_555
H18 C24 1_555 1_555
H19 C24 1_555 1_555
H20 C24 1_555 1_555
C4 C5 1_555 1_555
C10 C11 1_555 1_555
C16 C17 1_555 1_555
C22 C23 1_555 1_555

#END
