
#######################################################################
#
#                 Cambridge Crystallographic Data Centre
#                                CCDC 
#
#######################################################################
#
# If this CIF has been generated from an entry in the Cambridge 
# Structural Database, then it will include bibliographic, chemical, 
# crystal, experimental, refinement or atomic coordinate data resulting 
# from the CCDC's data processing and validation procedures.
#
#######################################################################

data_SEJHOE
_chemical_formula_moiety         'C18 H24 N6 1+,C1 F3 O3 S1 1-'
_chemical_name_systematic        
'Hexa-azaoctadecahydrocoronene radical cation trifluoromethanesulfonate'
_symmetry_cell_setting           monoclinic
_symmetry_space_group_name_H-M   'P 21/c'
_symmetry_Int_Tables_number      14
_space_group_name_Hall           '-P 2ybc'
loop_
_symmetry_equiv_pos_site_id
_symmetry_equiv_pos_as_xyz
1 x,y,z
2 -x,1/2+y,1/2-z
3 -x,-y,-z
4 x,1/2-y,1/2+z
_cell_length_a                   11.056(4)
_cell_length_b                   10.093(4)
_cell_length_c                   8.901(4)
_cell_angle_alpha                90
_cell_angle_beta                 90.00(4)
_cell_angle_gamma                90
_cell_volume                     993.247
_cell_formula_units_Z            2
loop_
_atom_site_label
_atom_site_type_symbol
_atom_site_fract_x
_atom_site_fract_y
_atom_site_fract_z
N1 N 0.0219(19) 0.2543(29) -0.1511(26)
N2 N 0.2285(18) 0.3806(25) -0.0318(27)
N3 N -0.2048(19) 0.3703(23) -0.1044(27)
C1 C 0.0091(21) 0.3778(30) -0.0826(30)
C2 C 0.1112(25) 0.4447(33) -0.0221(33)
C3 C -0.1020(20) 0.4361(30) -0.0550(28)
C4 C -0.0850(28) 0.1784(31) -0.1537(37)
C5 C 0.1290(23) 0.1801(27) -0.1166(33)
C6 C 0.2338(25) 0.2677(34) -0.1432(38)
C7 C 0.3342(24) 0.4640(29) -0.0226(34)
C8 C -0.3205(24) 0.4490(30) -0.1179(34)
C9 C -0.1880(22) 0.2595(34) -0.2185(33)
H1 H -0.0733 0.1016 -0.2132
H2 H -0.1055 0.1522 -0.0541
H3 H 0.1279 0.1541 -0.0143
H4 H 0.1346 0.1056 -0.1815
H5 H 0.3066 0.2193 -0.1286
H6 H 0.2302 0.3022 -0.2423
H7 H 0.3383 0.5188 -0.1093
H8 H 0.4043 0.4104 -0.0129
H9 H -0.3166 0.5037 -0.2046
H10 H -0.3871 0.3899 -0.1246
H11 H -0.2590 0.2068 -0.2226
H12 H -0.1633 0.2962 -0.3120
C3B C 0.1020(20) 0.5639(30) 0.0550(28)
C2B C -0.1112(25) 0.5553(33) 0.0221(33)
C8B C 0.3205(24) 0.5510(30) 0.1179(34)
C7B C -0.3342(24) 0.5360(29) 0.0226(34)
N3B N 0.2048(19) 0.6297(23) 0.1044(27)
C1B C -0.0091(21) 0.6222(30) 0.0826(30)
N2B N -0.2285(18) 0.6194(25) 0.0318(27)
H9B H 0.3166 0.4963 0.2046
H10B H 0.3871 0.6101 0.1246
H7B H -0.3383 0.4812 0.1093
H8B H -0.4043 0.5896 0.0129
C9B C 0.1880(22) 0.7405(34) 0.2185(33)
N1B N -0.0219(19) 0.7457(29) 0.1511(26)
C6B C -0.2338(25) 0.7323(34) 0.1432(38)
C4B C 0.0850(28) 0.8216(31) 0.1537(37)
H11B H 0.2590 0.7932 0.2226
H12B H 0.1633 0.7038 0.3120
C5B C -0.1290(23) 0.8199(27) 0.1166(33)
H5B H -0.3066 0.7807 0.1286
H6B H -0.2302 0.6978 0.2423
H1B H 0.0733 0.8984 0.2132
H2B H 0.1055 0.8478 0.0541
H3B H -0.1279 0.8459 0.0143
H4B H -0.1346 0.8944 0.1815
loop_
_geom_bond_atom_site_label_1
_geom_bond_atom_site_label_2
_geom_bond_site_symmetry_1
_geom_bond_site_symmetry_2
N1 C1 1_555 1_555
N2 C2 1_555 1_555
N3 C3 1_555 1_555
C1 C2 1_555 1_555
C2 C3B 1_555 1_555
C3 C1 1_555 1_555
C4 N1 1_555 1_555
C5 N1 1_555 1_555
C6 N2 1_555 1_555
C7 N2 1_555 1_555
C8 N3 1_555 1_555
C9 N3 1_555 1_555
H1 C4 1_555 1_555
H2 C4 1_555 1_555
H3 C5 1_555 1_555
H4 C5 1_555 1_555
H5 C6 1_555 1_555
H6 C6 1_555 1_555
H7 C7 1_555 1_555
H8 C7 1_555 1_555
H9 C8 1_555 1_555
H10 C8 1_555 1_555
H11 C9 1_555 1_555
H12 C9 1_555 1_555
C3B N3B 1_555 1_555
C2B C3 1_555 1_555
C8B C7 1_555 1_555
C7B C8 1_555 1_555
N3B C8B 1_555 1_555
C1B C3B 1_555 1_555
N2B C2B 1_555 1_555
H9B C8B 1_555 1_555
H10B C8B 1_555 1_555
H7B C7B 1_555 1_555
H8B C7B 1_555 1_555
C9B N3B 1_555 1_555
N1B C1B 1_555 1_555
C6B N2B 1_555 1_555
C4B C9B 1_555 1_555
H11B C9B 1_555 1_555
H12B C9B 1_555 1_555
C5B N1B 1_555 1_555
H5B C6B 1_555 1_555
H6B C6B 1_555 1_555
H1B C4B 1_555 1_555
H2B C4B 1_555 1_555
H3B C5B 1_555 1_555
H4B C5B 1_555 1_555
C4 C9 1_555 1_555
C5 C6 1_555 1_555
C2B C1B 1_555 1_555
C7B N2B 1_555 1_555
N1B C4B 1_555 1_555
C6B C5B 1_555 1_555

#END
