
#######################################################################
#
#                 Cambridge Crystallographic Data Centre
#                                CCDC 
#
#######################################################################
#
# If this CIF has been generated from an entry in the Cambridge 
# Structural Database, then it will include bibliographic, chemical, 
# crystal, experimental, refinement or atomic coordinate data resulting 
# from the CCDC's data processing and validation procedures.
#
#######################################################################

data_SEJHIY
_chemical_formula_moiety         'C18 H24 N6 1+,C6 N4 1-'
_chemical_name_systematic        
'Hexa-azaoctadecahydrocoronene radical cation tetracyanoethylenide'
_symmetry_cell_setting           triclinic
_symmetry_space_group_name_H-M   'P -1'
_symmetry_Int_Tables_number      2
_space_group_name_Hall           '-P 1'
loop_
_symmetry_equiv_pos_site_id
_symmetry_equiv_pos_as_xyz
1 x,y,z
2 -x,-y,-z
_cell_length_a                   4.529(1)
_cell_length_b                   10.859(3)
_cell_length_c                   11.151(3)
_cell_angle_alpha                88.62(2)
_cell_angle_beta                 86.81(2)
_cell_angle_gamma                84.03(2)
_cell_volume                     544.499
_cell_formula_units_Z            1
loop_
_atom_site_label
_atom_site_type_symbol
_atom_site_fract_x
_atom_site_fract_y
_atom_site_fract_z
N1 N 0.3784(8) 0.4931(3) 0.2566(3)
N2 N 0.6958(8) 0.2913(3) 0.3672(3)
N3 N 0.1972(8) 0.7058(3) 0.3898(3)
C1 C 0.4395(9) 0.4981(4) 0.3768(4)
C2 C 0.6010(9) 0.3949(4) 0.4329(4)
C3 C 0.3400(9) 0.6015(4) 0.4439(4)
C4 C 0.2821(11) 0.6084(4) 0.1962(4)
C5 C 0.5614(11) 0.4031(4) 0.1846(4)
C6 C 0.5792(11) 0.2799(4) 0.2500(4)
C7 C 0.8045(10) 0.1773(4) 0.4292(4)
C8 C 0.0190(10) 0.7923(4) 0.4686(4)
C9 C 0.0666(10) 0.6855(4) 0.2774(4)
H1 H 0.1884 0.5914 0.1252
H2 H 0.4495 0.6520 0.1758
H3 H 0.7551 0.4287 0.1721
H4 H 0.4748 0.3959 0.1097
H5 H 0.7063 0.2209 0.2048
H6 H 0.3866 0.2526 0.2594
H7 H 0.6404 0.1355 0.4587
H8 H 0.9269 0.1258 0.3747
H9 H -0.1532 0.7562 0.4987
H10 H -0.0402 0.8659 0.4247
H11 H 0.0124 0.7631 0.2392
H12 H -0.1077 0.6448 0.2927
C3A C 0.6600(9) 0.3985(4) 0.5561(4)
C2A C 0.3990(9) 0.6051(4) 0.5671(4)
C8A C 0.9810(10) 0.2077(4) 0.5314(4)
C7A C 0.1955(10) 0.8227(4) 0.5708(4)
N3A N 0.8028(8) 0.2942(3) 0.6102(3)
C1A C 0.5605(9) 0.5019(4) 0.6232(4)
N2A N 0.3042(8) 0.7087(3) 0.6328(3)
H9A H 1.1532 0.2438 0.5013
H10A H 1.0402 0.1341 0.5753
H7A H 0.3596 0.8645 0.5413
H8A H 0.0731 0.8742 0.6253
C9A C 0.9334(10) 0.3145(4) 0.7226(4)
N1A N 0.6216(8) 0.5069(3) 0.7434(3)
C6A C 0.4208(11) 0.7201(4) 0.7500(4)
C4A C 0.7179(11) 0.3916(4) 0.8038(4)
H11A H 0.9876 0.2369 0.7608
H12A H 1.1077 0.3552 0.7073
C5A C 0.4386(11) 0.5969(4) 0.8154(4)
H5A H 0.2937 0.7791 0.7952
H6A H 0.6134 0.7474 0.7406
H1A H 0.8116 0.4086 0.8748
H2A H 0.5505 0.3480 0.8242
H3A H 0.2449 0.5713 0.8279
H4A H 0.5252 0.6041 0.8903
N4 N 0.3753(10) -0.0251(3) 0.2647(4)
N5 N 0.9043(10) -0.2349(4) -0.0161(3)
C10 C 0.5480(11) -0.0430(4) 0.0422(4)
C11 C 0.4475(11) -0.0313(4) 0.1670(4)
C12 C 0.7476(12) -0.1502(4) 0.0070(4)
C10A C 0.4520(11) 0.0430(4) -0.0422(4)
C11A C 0.5525(11) 0.0313(4) -0.1670(4)
C12A C 0.2524(12) 0.1502(4) -0.0070(4)
N4A N 0.6247(10) 0.0251(3) -0.2647(4)
N5A N 0.0957(10) 0.2349(4) 0.0161(3)
loop_
_geom_bond_atom_site_label_1
_geom_bond_atom_site_label_2
_geom_bond_site_symmetry_1
_geom_bond_site_symmetry_2
N1 C1 1_555 1_555
N2 C2 1_555 1_555
N3 C3 1_555 1_555
C1 C2 1_555 1_555
C2 C3A 1_555 1_555
C3 C1 1_555 1_555
C4 N1 1_555 1_555
C5 N1 1_555 1_555
C6 N2 1_555 1_555
C7 N2 1_555 1_555
C8 N3 1_555 1_555
C9 N3 1_555 1_555
H1 C4 1_555 1_555
H2 C4 1_555 1_555
H3 C5 1_555 1_555
H4 C5 1_555 1_555
H5 C6 1_555 1_555
H6 C6 1_555 1_555
H7 C7 1_555 1_555
H8 C7 1_555 1_555
H9 C8 1_555 1_555
H10 C8 1_555 1_555
H11 C9 1_555 1_555
H12 C9 1_555 1_555
N4 C11 1_555 1_555
N5 C12 1_555 1_555
C10 C11 1_555 1_555
C12 C10 1_555 1_555
C3A N3A 1_555 1_555
C2A C3 1_555 1_555
C8A C7 1_555 1_555
C7A C8 1_555 1_555
N3A C8A 1_555 1_555
C1A C3A 1_555 1_555
N2A C2A 1_555 1_555
H9A C8A 1_555 1_555
H10A C8A 1_555 1_555
H7A C7A 1_555 1_555
H8A C7A 1_555 1_555
C9A N3A 1_555 1_555
N1A C1A 1_555 1_555
C6A N2A 1_555 1_555
C4A C9A 1_555 1_555
H11A C9A 1_555 1_555
H12A C9A 1_555 1_555
C5A N1A 1_555 1_555
H5A C6A 1_555 1_555
H6A C6A 1_555 1_555
H1A C4A 1_555 1_555
H2A C4A 1_555 1_555
H3A C5A 1_555 1_555
H4A C5A 1_555 1_555
C10A C10 1_555 1_555
C11A C10A 1_555 1_555
C12A C10A 1_555 1_555
N4A C11A 1_555 1_555
N5A C12A 1_555 1_555
C4 C9 1_555 1_555
C5 C6 1_555 1_555
C2A C1A 1_555 1_555
C7A N2A 1_555 1_555
N1A C4A 1_555 1_555
C6A C5A 1_555 1_555

#END
