
#######################################################################
#
#                 Cambridge Crystallographic Data Centre
#                                CCDC 
#
#######################################################################
#
# If this CIF has been generated from an entry in the Cambridge 
# Structural Database, then it will include bibliographic, chemical, 
# crystal, experimental, refinement or atomic coordinate data resulting 
# from the CCDC's data processing and validation procedures.
#
#######################################################################

data_SEJJEW
_chemical_formula_moiety         'C18 H24 N6 3+,3(F6 P1 1-)'
_chemical_name_systematic        
'Hexa-azaoctadecahydrocoronene radical cation tris(hexafluorophosphate)'
_symmetry_cell_setting           monoclinic
_symmetry_space_group_name_H-M   'C 2/m'
_symmetry_Int_Tables_number      12
_space_group_name_Hall           '-C 2y'
loop_
_symmetry_equiv_pos_site_id
_symmetry_equiv_pos_as_xyz
1 x,y,z
2 1/2+x,1/2+y,z
3 -x,y,-z
4 1/2-x,1/2+y,-z
5 -x,-y,-z
6 1/2-x,1/2-y,-z
7 x,-y,z
8 1/2+x,1/2-y,z
_cell_length_a                   13.882(3)
_cell_length_b                   11.339(3)
_cell_length_c                   9.240(3)
_cell_angle_alpha                90
_cell_angle_beta                 108.60(2)
_cell_angle_gamma                90
_cell_volume                     1378.48
_cell_formula_units_Z            2
loop_
_atom_site_label
_atom_site_type_symbol
_atom_site_fract_x
_atom_site_fract_y
_atom_site_fract_z
P1 P 0.0000 0.5000 0.0000
F1 F 0.0797(3) 0.5000 -0.0914(4)
F2 F 0.0649(2) 0.5995(3) 0.1084(3)
F1D F -0.0797(3) 0.5000 0.0914(4)
F2D F -0.0649(2) 0.4005(3) -0.1084(3)
F2B F -0.0649(2) 0.5995(3) -0.1084(3)
F2F F 0.0649(2) 0.4005(3) 0.1084(3)
P2 P 0.2192(1) 0.0000 0.3341(2)
F3 F 0.2582(2) 0.0986(3) 0.2442(4)
F4 F 0.3282(3) 0.0000 0.4616(4)
F5 F 0.1808(2) 0.0990(3) 0.4227(4)
F6 F 0.1115(4) 0.0000 0.2059(6)
F3F F 0.2582(2) -0.0986(3) 0.2442(4)
F5F F 0.1808(2) -0.0990(3) 0.4227(4)
N1 N 0.4519(2) 0.2912(3) 0.3447(3)
N2 N 0.3671(4) 0.5000 0.2030(5)
C1 C 0.4701(3) 0.3925(3) 0.4205(4)
C2 C 0.4329(4) 0.5000 0.3451(6)
C3 C 0.4999(3) 0.1830(4) 0.4175(4)
C4 C 0.4022(3) 0.2939(4) 0.1775(4)
C5 C 0.3222(3) 0.6119(4) 0.1380(5)
H1 H 0.5681 0.1802 0.4162
H2 H 0.4625 0.1172 0.3654
H3 H 0.3725 0.2200 0.1449
H4 H 0.4514 0.3110 0.1298
H5 H 0.2953 0.6056 0.0296
H6 H 0.2690 0.6331 0.1777
C1B C 0.5299(3) 0.3925(3) 0.5795(4)
C1F C 0.4701(3) 0.6075(3) 0.4205(4)
C5F C 0.3222(3) 0.3881(4) 0.1380(5)
C3B C 0.5001(3) 0.1830(4) 0.5825(4)
C4F C 0.4022(3) 0.7061(4) 0.1775(4)
N1B N 0.5481(2) 0.2912(3) 0.6553(3)
C2D C 0.5671(4) 0.5000 0.6549(6)
N1F N 0.4519(2) 0.7088(3) 0.3447(3)
C1D C 0.5299(3) 0.6075(3) 0.5795(4)
H5F H 0.2953 0.3944 0.0296
H6F H 0.2690 0.3669 0.1777
H1B H 0.4319 0.1802 0.5838
H2B H 0.5375 0.1172 0.6346
H3F H 0.3725 0.7800 0.1449
H4F H 0.4514 0.6890 0.1298
C4B C 0.5978(3) 0.2939(4) 0.8225(4)
N2D N 0.6329(4) 0.5000 0.7970(5)
C3F C 0.4999(3) 0.8170(4) 0.4175(4)
N1D N 0.5481(2) 0.7088(3) 0.6553(3)
C5D C 0.6778(3) 0.3881(4) 0.8620(5)
H3B H 0.6275 0.2200 0.8551
H4B H 0.5486 0.3110 0.8702
C5B C 0.6778(3) 0.6119(4) 0.8620(5)
C3D C 0.5001(3) 0.8170(4) 0.5825(4)
H1F H 0.5681 0.8198 0.4162
H2F H 0.4625 0.8828 0.3654
C4D C 0.5978(3) 0.7061(4) 0.8225(4)
H5D H 0.7047 0.3944 0.9704
H6D H 0.7310 0.3669 0.8223
H5B H 0.7047 0.6056 0.9704
H6B H 0.7310 0.6331 0.8223
H1D H 0.4319 0.8198 0.5838
H2D H 0.5375 0.8828 0.6346
H3D H 0.6275 0.7800 0.8551
H4D H 0.5486 0.6890 0.8702
loop_
_geom_bond_atom_site_label_1
_geom_bond_atom_site_label_2
_geom_bond_site_symmetry_1
_geom_bond_site_symmetry_2
P1 F1 1_555 1_555
F2 P1 1_555 1_555
P2 F3 1_555 1_555
F4 P2 1_555 1_555
F5 P2 1_555 1_555
F6 P2 1_555 1_555
N1 C1 1_555 1_555
N2 C2 1_555 1_555
C1 C2 1_555 1_555
C2 C1F 1_555 1_555
C3 N1 1_555 1_555
C4 N1 1_555 1_555
C5 N2 1_555 1_555
H1 C3 1_555 1_555
H2 C3 1_555 1_555
H3 C4 1_555 1_555
H4 C4 1_555 1_555
H5 C5 1_555 1_555
H6 C5 1_555 1_555
F1D P1 1_555 1_555
F2D P1 1_555 1_555
F2B P1 1_555 1_555
F2F P1 1_555 1_555
F3F P2 1_555 1_555
F5F P2 1_555 1_555
C1B C1 1_555 1_555
C1F N1F 1_555 1_555
C5F N2 1_555 1_555
C3B C3 1_555 1_555
C4F C5 1_555 1_555
N1B C1B 1_555 1_555
C2D C1B 1_555 1_555
N1F C4F 1_555 1_555
C1D C1F 1_555 1_555
H5F C5F 1_555 1_555
H6F C5F 1_555 1_555
H1B C3B 1_555 1_555
H2B C3B 1_555 1_555
H3F C4F 1_555 1_555
H4F C4F 1_555 1_555
C4B N1B 1_555 1_555
N2D C2D 1_555 1_555
C3F N1F 1_555 1_555
N1D C1D 1_555 1_555
C5D C4B 1_555 1_555
H3B C4B 1_555 1_555
H4B C4B 1_555 1_555
C5B N2D 1_555 1_555
C3D C3F 1_555 1_555
H1F C3F 1_555 1_555
H2F C3F 1_555 1_555
C4D N1D 1_555 1_555
H5D C5D 1_555 1_555
H6D C5D 1_555 1_555
H5B C5B 1_555 1_555
H6B C5B 1_555 1_555
H1D C3D 1_555 1_555
H2D C3D 1_555 1_555
H3D C4D 1_555 1_555
H4D C4D 1_555 1_555
C4 C5F 1_555 1_555
C3B N1B 1_555 1_555
C2D C1D 1_555 1_555
N2D C5D 1_555 1_555
N1D C3D 1_555 1_555
C5B C4D 1_555 1_555

#END
