
#######################################################################
#
#                 Cambridge Crystallographic Data Centre
#                                CCDC 
#
#######################################################################
#
# If this CIF has been generated from an entry in the Cambridge 
# Structural Database, then it will include bibliographic, chemical, 
# crystal, experimental, refinement or atomic coordinate data resulting 
# from the CCDC's data processing and validation procedures.
#
#######################################################################

data_SEJPOP
_chemical_formula_moiety         'C23 H20 N2 O3'
_chemical_name_systematic        
2-(4-nitrophenyl)-3-(2,4,6-trimethylphenyl)-2,3-dihydro-1H-isoindol-1-one
_symmetry_cell_setting           monoclinic
_symmetry_space_group_name_H-M   'P 21/c'
_symmetry_Int_Tables_number      14
_space_group_name_Hall           '-P 2ybc'
loop_
_symmetry_equiv_pos_site_id
_symmetry_equiv_pos_as_xyz
1 x,y,z
2 -x,1/2+y,1/2-z
3 -x,-y,-z
4 x,1/2-y,1/2+z
_cell_length_a                   8.0658(11)
_cell_length_b                   22.532(3)
_cell_length_c                   10.8397(14)
_cell_angle_alpha                90
_cell_angle_beta                 101.994(3)
_cell_angle_gamma                90
_cell_volume                     1926.99
_exptl_crystal_colour            colorless
_exptl_crystal_description       block
_cell_formula_units_Z            4
loop_
_atom_site_label
_atom_site_type_symbol
_atom_site_fract_x
_atom_site_fract_y
_atom_site_fract_z
C1 C 0.2308(3) 0.50722(11) 0.7413(2)
C2 C 0.1843(4) 0.52728(13) 0.6178(3)
H1 H 0.2180 0.5073 0.5521
C3 C 0.0861(5) 0.57811(15) 0.5959(3)
H2 H 0.0551 0.5927 0.5141
C4 C 0.0331(5) 0.60776(14) 0.6920(3)
H3 H -0.0344 0.6414 0.6737
C5 C 0.0790(4) 0.58809(12) 0.8152(3)
H4 H 0.0454 0.6082 0.8808
C6 C 0.1773(3) 0.53719(11) 0.8367(2)
C7 C 0.2404(3) 0.50644(11) 0.9572(3)
C8 C 0.3339(3) 0.45388(11) 0.7928(2)
H5 H 0.4517 0.4613 0.7868
C9 C 0.2765(3) 0.39635(10) 0.7226(2)
C10 C 0.3756(3) 0.37337(12) 0.6406(2)
C11 C 0.3218(4) 0.32179(12) 0.5734(2)
H6 H 0.3879 0.3063 0.5203
C12 C 0.1744(4) 0.29274(11) 0.5825(2)
C13 C 0.0785(3) 0.31649(11) 0.6624(2)
H7 H -0.0210 0.2973 0.6697
C14 C 0.1243(3) 0.36769(10) 0.7321(2)
C15 C 0.0060(3) 0.39083(12) 0.8117(3)
H8 H -0.0913 0.3654 0.8022
H9 H -0.0295 0.4303 0.7850
H10 H 0.0636 0.3915 0.8986
C16 C 0.1182(5) 0.23688(14) 0.5086(3)
H11 H 0.1120 0.2049 0.5659
H12 H 0.1983 0.2271 0.4575
H13 H 0.0086 0.2431 0.4555
C17 C 0.5367(4) 0.40252(15) 0.6215(3)
H14 H 0.5879 0.3785 0.5664
H15 H 0.6138 0.4066 0.7013
H16 H 0.5110 0.4410 0.5844
C18 C 0.4012(3) 0.41280(10) 1.0158(2)
C19 C 0.3696(3) 0.41068(11) 1.1378(2)
H17 H 0.2968 0.4382 1.1623
C20 C 0.4456(4) 0.36807(12) 1.2218(2)
H18 H 0.4257 0.3672 1.3032
C21 C 0.5510(3) 0.32692(11) 1.1847(2)
C22 C 0.5831(3) 0.32701(11) 1.0641(2)
H19 H 0.6535 0.2985 1.0401
C23 C 0.5092(3) 0.36999(11) 0.9806(2)
H20 H 0.5310 0.3707 0.8997
N1 N 0.6333(3) 0.28231(11) 1.2740(2)
N2 N 0.3246(2) 0.45578(8) 0.92850(17)
O1 O 0.2248(3) 0.52177(8) 1.06187(18)
O2 O 0.7146(4) 0.24303(11) 1.2391(2)
O3 O 0.6193(4) 0.28646(13) 1.3841(2)
loop_
_geom_bond_atom_site_label_1
_geom_bond_atom_site_label_2
_geom_bond_site_symmetry_1
_geom_bond_site_symmetry_2
C1 C2 1_555 1_555
C2 H1 1_555 1_555
C3 C2 1_555 1_555
H2 C3 1_555 1_555
C4 C3 1_555 1_555
H3 C4 1_555 1_555
C5 C4 1_555 1_555
H4 C5 1_555 1_555
C6 C1 1_555 1_555
C7 C6 1_555 1_555
C8 C1 1_555 1_555
H5 C8 1_555 1_555
C9 C8 1_555 1_555
C10 C9 1_555 1_555
C11 C10 1_555 1_555
H6 C11 1_555 1_555
C12 C11 1_555 1_555
C13 C12 1_555 1_555
H7 C13 1_555 1_555
C14 C9 1_555 1_555
C15 C14 1_555 1_555
H8 C15 1_555 1_555
H9 C15 1_555 1_555
H10 C15 1_555 1_555
C16 C12 1_555 1_555
H11 C16 1_555 1_555
H12 C16 1_555 1_555
H13 C16 1_555 1_555
C17 C10 1_555 1_555
H14 C17 1_555 1_555
H15 C17 1_555 1_555
H16 C17 1_555 1_555
C18 C19 1_555 1_555
C19 H17 1_555 1_555
C20 C19 1_555 1_555
H18 C20 1_555 1_555
C21 C20 1_555 1_555
C22 C21 1_555 1_555
H19 C22 1_555 1_555
C23 C18 1_555 1_555
H20 C23 1_555 1_555
N1 C21 1_555 1_555
N2 C7 1_555 1_555
O1 C7 1_555 1_555
O2 N1 1_555 1_555
O3 N1 1_555 1_555
C5 C6 1_555 1_555
C8 N2 1_555 1_555
C13 C14 1_555 1_555
C18 N2 1_555 1_555
C22 C23 1_555 1_555

#END
