
#######################################################################
#
#                 Cambridge Crystallographic Data Centre
#                                CCDC 
#
#######################################################################
#
# If this CIF has been generated from an entry in the Cambridge 
# Structural Database, then it will include bibliographic, chemical, 
# crystal, experimental, refinement or atomic coordinate data resulting 
# from the CCDC's data processing and validation procedures.
#
#######################################################################

data_SEJPIJ
_chemical_formula_moiety         'C23 H20 F1 N1 O1'
_chemical_name_systematic        
2-(4-fluorophenyl)-3-(2,4,6-trimethylphenyl)-2,3-dihydro-1H-isoindol-1-one
_symmetry_cell_setting           monoclinic
_symmetry_space_group_name_H-M   'P 21/c'
_symmetry_Int_Tables_number      14
_space_group_name_Hall           '-P 2ybc'
loop_
_symmetry_equiv_pos_site_id
_symmetry_equiv_pos_as_xyz
1 x,y,z
2 -x,1/2+y,1/2-z
3 -x,-y,-z
4 x,1/2-y,1/2+z
_cell_length_a                   9.150(3)
_cell_length_b                   13.424(4)
_cell_length_c                   15.319(4)
_cell_angle_alpha                90
_cell_angle_beta                 104.868(6)
_cell_angle_gamma                90
_cell_volume                     1818.63
_exptl_crystal_colour            colorless
_exptl_crystal_description       block
_cell_formula_units_Z            4
loop_
_atom_site_label
_atom_site_type_symbol
_atom_site_fract_x
_atom_site_fract_y
_atom_site_fract_z
C1 C 0.80117(17) 0.42377(12) 1.06131(11)
C2 C 0.7043(2) 0.50602(13) 1.04706(13)
H1 H 0.6678 0.5332 0.9897
C3 C 0.6645(2) 0.54574(15) 1.12119(15)
H2 H 0.6020 0.6014 1.1133
C4 C 0.7152(2) 0.50487(17) 1.20692(15)
H3 H 0.6847 0.5326 1.2550
C5 C 0.8106(2) 0.42328(15) 1.22139(12)
H4 H 0.8455 0.3956 1.2786
C6 C 0.85265(18) 0.38393(12) 1.14702(11)
C7 C 0.95333(18) 0.29839(13) 1.14341(11)
C8 C 0.86598(17) 0.36694(11) 0.99448(10)
H5 H 0.9345 0.4113 0.9731
C9 C 0.74908(16) 0.32597(11) 0.91204(10)
C10 C 0.65390(17) 0.24555(11) 0.92016(10)
C11 C 0.55137(17) 0.21059(12) 0.84238(11)
H6 H 0.4908 0.1563 0.8473
C12 C 0.53586(18) 0.25350(13) 0.75778(11)
C13 C 0.62759(18) 0.33431(13) 0.75232(10)
H7 H 0.6173 0.3651 0.6967
C14 C 0.73478(17) 0.37110(12) 0.82730(10)
C15 C 0.8312(2) 0.45817(15) 0.81303(12)
H8 H 0.9332 0.4360 0.8194
H9 H 0.8301 0.5088 0.8571
H10 H 0.7916 0.4849 0.7535
C16 C 0.4230(2) 0.21196(19) 0.67594(14)
H11 H 0.4143 0.2564 0.6258
H12 H 0.3262 0.2052 0.6889
H13 H 0.4567 0.1479 0.6612
C17 C 0.6529(2) 0.19715(14) 1.00902(12)
H14 H 0.5678 0.1530 1.0004
H15 H 0.6456 0.2476 1.0521
H16 H 0.7446 0.1600 1.0311
C18 C 1.04735(17) 0.22043(12) 1.01934(10)
C19 C 1.0951(2) 0.13126(13) 1.06464(11)
H17 H 1.0662 0.1155 1.1169
C20 C 1.1859(2) 0.06631(13) 1.03138(12)
H18 H 1.2195 0.0073 1.0617
C21 C 1.22584(19) 0.09005(13) 0.95285(11)
C22 C 1.1762(2) 0.17509(14) 0.90533(12)
H19 H 1.2017 0.1888 0.8516
C23 C 1.08691(19) 0.24034(14) 0.93927(12)
H20 H 1.0527 0.2986 0.9078
F1 F 1.31719(14) 0.02735(9) 0.92029(8)
N1 N 0.95819(14) 0.28987(10) 1.05358(8)
O1 O 1.02030(17) 0.24600(11) 1.20571(8)
loop_
_geom_bond_atom_site_label_1
_geom_bond_atom_site_label_2
_geom_bond_site_symmetry_1
_geom_bond_site_symmetry_2
C1 C2 1_555 1_555
C2 H1 1_555 1_555
C3 C2 1_555 1_555
H2 C3 1_555 1_555
C4 C3 1_555 1_555
H3 C4 1_555 1_555
C5 C4 1_555 1_555
H4 C5 1_555 1_555
C6 C1 1_555 1_555
C7 C6 1_555 1_555
C8 C1 1_555 1_555
H5 C8 1_555 1_555
C9 C8 1_555 1_555
C10 C9 1_555 1_555
C11 C10 1_555 1_555
H6 C11 1_555 1_555
C12 C11 1_555 1_555
C13 C12 1_555 1_555
H7 C13 1_555 1_555
C14 C9 1_555 1_555
C15 C14 1_555 1_555
H8 C15 1_555 1_555
H9 C15 1_555 1_555
H10 C15 1_555 1_555
C16 C12 1_555 1_555
H11 C16 1_555 1_555
H12 C16 1_555 1_555
H13 C16 1_555 1_555
C17 C10 1_555 1_555
H14 C17 1_555 1_555
H15 C17 1_555 1_555
H16 C17 1_555 1_555
C18 C19 1_555 1_555
C19 H17 1_555 1_555
C20 C19 1_555 1_555
H18 C20 1_555 1_555
C21 C20 1_555 1_555
C22 C21 1_555 1_555
H19 C22 1_555 1_555
C23 C18 1_555 1_555
H20 C23 1_555 1_555
F1 C21 1_555 1_555
N1 C7 1_555 1_555
O1 C7 1_555 1_555
C5 C6 1_555 1_555
C8 N1 1_555 1_555
C13 C14 1_555 1_555
C18 N1 1_555 1_555
C22 C23 1_555 1_555

#END
