
#######################################################################
#
#                 Cambridge Crystallographic Data Centre
#                                CCDC 
#
#######################################################################
#
# If this CIF has been generated from an entry in the Cambridge 
# Structural Database, then it will include bibliographic, chemical, 
# crystal, experimental, refinement or atomic coordinate data resulting 
# from the CCDC's data processing and validation procedures.
#
#######################################################################

data_SEJPUV
_chemical_formula_moiety         'C22 H18 Br1 N1 O3'
_chemical_name_systematic        
2-(4-bromophenyl)-3-(2,5-dimethoxyphenyl)-2,3-dihydro-1H-isoindol-1-one
_symmetry_cell_setting           monoclinic
_symmetry_space_group_name_H-M   'P 21/c'
_symmetry_Int_Tables_number      14
_space_group_name_Hall           '-P 2ybc'
loop_
_symmetry_equiv_pos_site_id
_symmetry_equiv_pos_as_xyz
1 x,y,z
2 -x,1/2+y,1/2-z
3 -x,-y,-z
4 x,1/2-y,1/2+z
_cell_length_a                   8.136(11)
_cell_length_b                   22.01(3)
_cell_length_c                   11.172(14)
_cell_angle_alpha                90
_cell_angle_beta                 106.04(2)
_cell_angle_gamma                90
_cell_volume                     1922.72
_cell_formula_units_Z            4
loop_
_atom_site_label
_atom_site_type_symbol
_atom_site_fract_x
_atom_site_fract_y
_atom_site_fract_z
Br1 Br 1.29215(6) 0.53094(3) 0.43227(5)
C1 C 1.0770(5) 0.54829(18) 0.3166(4)
C2 C 1.0610(5) 0.54328(17) 0.1917(4)
H1 H 1.1540 0.5316 0.1640
C3 C 0.9030(5) 0.55591(17) 0.1060(4)
H2 H 0.8924 0.5526 0.0212
C4 C 0.7619(4) 0.57323(14) 0.1452(3)
C5 C 0.7806(5) 0.57859(16) 0.2717(4)
H3 H 0.6884 0.5907 0.3000
C6 C 0.9388(5) 0.56573(18) 0.3570(4)
H4 H 0.9505 0.5690 0.4420
C7 C 0.5453(5) 0.56454(16) -0.0628(3)
C8 C 0.3651(5) 0.58539(15) -0.1121(3)
C9 C 0.2542(5) 0.57756(16) -0.2303(4)
H5 H 0.2889 0.5570 -0.2920
C10 C 0.0905(6) 0.60123(19) -0.2538(4)
H6 H 0.0148 0.5968 -0.3327
C11 C 0.0375(5) 0.63127(18) -0.1624(4)
H7 H -0.0736 0.6461 -0.1794
C12 C 0.1501(5) 0.63917(17) -0.0453(4)
H8 H 0.1160 0.6599 0.0163
C13 C 0.3158(4) 0.61566(15) -0.0208(3)
C14 C 0.4637(4) 0.61933(14) 0.0948(3)
H9 H 0.4348 0.5986 0.1640
C15 C 0.5110(4) 0.68487(15) 0.1292(3)
C16 C 0.6274(4) 0.71594(16) 0.0819(3)
H10 H 0.6867 0.6952 0.0344
C17 C 0.6572(5) 0.77767(17) 0.1043(4)
C18 C 0.5691(5) 0.80802(18) 0.1761(4)
H11 H 0.5878 0.8493 0.1917
C19 C 0.4538(5) 0.77751(18) 0.2248(4)
H12 H 0.3956 0.7984 0.2729
C20 C 0.4245(5) 0.71624(17) 0.2024(4)
C21 C 0.2291(6) 0.7096(2) 0.3291(5)
H13 H 0.3143 0.7239 0.4013
H14 H 0.1577 0.6802 0.3539
H15 H 0.1605 0.7431 0.2887
C22 C 0.8678(6) 0.7813(2) -0.0079(5)
H16 H 0.9362 0.7505 0.0437
H17 H 0.9410 0.8099 -0.0329
H18 H 0.7930 0.7627 -0.0804
N1 N 0.6009(3) 0.58581(12) 0.0593(2)
O1 O 0.7695(4) 0.81167(12) 0.0597(3)
O2 O 0.3103(3) 0.68220(12) 0.2455(3)
O3 O 0.6277(4) 0.53401(12) -0.1160(3)
loop_
_geom_bond_atom_site_label_1
_geom_bond_atom_site_label_2
_geom_bond_site_symmetry_1
_geom_bond_site_symmetry_2
Br1 C1 1_555 1_555
C1 C2 1_555 1_555
C2 H1 1_555 1_555
C3 C2 1_555 1_555
H2 C3 1_555 1_555
C4 C3 1_555 1_555
C5 C4 1_555 1_555
H3 C5 1_555 1_555
C6 C1 1_555 1_555
H4 C6 1_555 1_555
C7 C8 1_555 1_555
C8 C9 1_555 1_555
C9 H5 1_555 1_555
C10 C9 1_555 1_555
H6 C10 1_555 1_555
C11 C10 1_555 1_555
H7 C11 1_555 1_555
C12 C11 1_555 1_555
H8 C12 1_555 1_555
C13 C8 1_555 1_555
C14 C13 1_555 1_555
H9 C14 1_555 1_555
C15 C14 1_555 1_555
C16 C15 1_555 1_555
H10 C16 1_555 1_555
C17 C16 1_555 1_555
C18 C17 1_555 1_555
H11 C18 1_555 1_555
C19 C18 1_555 1_555
H12 C19 1_555 1_555
C20 C15 1_555 1_555
C21 H13 1_555 1_555
H14 C21 1_555 1_555
H15 C21 1_555 1_555
C22 H16 1_555 1_555
H17 C22 1_555 1_555
H18 C22 1_555 1_555
N1 C4 1_555 1_555
O1 C17 1_555 1_555
O2 C20 1_555 1_555
O3 C7 1_555 1_555
C5 C6 1_555 1_555
C7 N1 1_555 1_555
C12 C13 1_555 1_555
C14 N1 1_555 1_555
C19 C20 1_555 1_555
C21 O2 1_555 1_555
C22 O1 1_555 1_555

#END
