
#######################################################################
#
#                 Cambridge Crystallographic Data Centre
#                                CCDC 
#
#######################################################################
#
# If this CIF has been generated from an entry in the Cambridge 
# Structural Database, then it will include bibliographic, chemical, 
# crystal, experimental, refinement or atomic coordinate data resulting 
# from the CCDC's data processing and validation procedures.
#
#######################################################################

data_SEJQOQ
_chemical_formula_moiety         'C25 H28 B10 O5'
_chemical_name_systematic        
1-carbaldehyde-3-phenyl-5,6-bis(4-(methoxycarbonyl)phenyl)-1,3-dicarba-closo-dodecaborane
_symmetry_cell_setting           monoclinic
_symmetry_space_group_name_H-M   'P 21'
_symmetry_Int_Tables_number      4
_space_group_name_Hall           'P 2yb'
loop_
_symmetry_equiv_pos_site_id
_symmetry_equiv_pos_as_xyz
1 x,y,z
2 -x,1/2+y,-z
_cell_length_a                   10.5635(7)
_cell_length_b                   13.8678(9)
_cell_length_c                   18.2585(12)
_cell_angle_alpha                90
_cell_angle_beta                 94.6330(10)
_cell_angle_gamma                90
_cell_volume                     2665.99
_exptl_crystal_description       block
_cell_formula_units_Z            4
loop_
_atom_site_label
_atom_site_type_symbol
_atom_site_fract_x
_atom_site_fract_y
_atom_site_fract_z
B1 B 0.28340(17) 1.02074(14) 0.89364(9)
H1 H 0.1960 0.9777 0.8846
B2 B 0.43447(18) 0.97284(14) 0.87319(9)
B3 B 0.55315(17) 1.02415(14) 0.94058(9)
B4 B 0.46900(16) 1.10136(14) 0.99899(9)
B5 B 0.40023(19) 1.19829(14) 0.94643(10)
B6 B 0.55155(19) 1.15179(15) 0.92829(10)
B7 B 0.52987(19) 1.07343(16) 0.85026(10)
B8 B 0.36398(19) 1.07081(16) 0.82110(10)
B9 B 0.28499(19) 1.14797(15) 0.88043(10)
B10 B 0.4376(2) 1.18054(16) 0.85368(10)
C1 C 0.40104(14) 0.99790(12) 0.96238(8)
C2 C 0.31080(15) 1.10029(12) 0.96660(8)
C3 C 0.37936(14) 0.91887(12) 1.01787(8)
H2 H 0.3565 0.8577 1.0006
C4 C 0.20816(15) 1.10835(12) 1.01882(8)
C5 C 0.08107(16) 1.10267(13) 0.99141(9)
H3 H 0.0610 1.0889 0.9420
C6 C -0.01558(17) 1.11754(14) 1.03753(10)
H4 H -0.1000 1.1140 1.0189
C7 C 0.01348(18) 1.13740(17) 1.11052(10)
H5 H -0.0511 1.1472 1.1414
C8 C 0.1395(2) 1.1428(2) 1.13815(10)
H6 H 0.1590 1.1559 1.1877
C9 C 0.23616(18) 1.12890(17) 1.09262(10)
H7 H 0.3204 1.1334 1.1116
C10 C 0.43848(15) 0.86563(13) 0.84373(8)
C11 C 0.34654(16) 0.79633(13) 0.85717(8)
H8 H 0.2785 0.8139 0.8835
C12 C 0.35431(16) 0.70241(13) 0.83226(8)
H9 H 0.2920 0.6580 0.8422
C13 C 0.45500(16) 0.67408(13) 0.79233(8)
C14 C 0.54464(16) 0.74238(14) 0.77560(8)
H10 H 0.6109 0.7249 0.7477
C15 C 0.53553(16) 0.83642(14) 0.80038(8)
H11 H 0.5954 0.8815 0.7879
C16 C 0.46371(16) 0.56931(13) 0.77313(8)
C17 C 0.5932(2) 0.44561(15) 0.73117(11)
H12 H 0.5737 0.4069 0.7724
H13 H 0.6796 0.4344 0.7206
H14 H 0.5373 0.4287 0.6891
C18 C 0.67510(15) 0.96837(12) 0.97435(8)
C19 C 0.70402(15) 0.95410(12) 1.04971(8)
H15 H 0.6461 0.9735 1.0825
C20 C 0.81758(15) 0.91157(13) 1.07644(9)
H16 H 0.8346 0.9022 1.1267
C21 C 0.90624(15) 0.88290(13) 1.02810(9)
C22 C 0.87885(16) 0.89629(15) 0.95324(9)
H17 H 0.9369 0.8767 0.9205
C23 C 0.76547(16) 0.93871(14) 0.92697(9)
H18 H 0.7489 0.9477 0.8766
C24 C 1.03250(16) 0.84171(13) 1.05353(9)
C25 C 1.16144(17) 0.77674(18) 1.15322(11)
H19 H 1.1723 0.7148 1.1311
H20 H 1.1621 0.7695 1.2055
H21 H 1.2295 0.8186 1.1418
H22 H 0.4889(17) 1.1008(13) 1.0551(9)
H23 H 0.3786(19) 1.2622(16) 0.9745(10)
H24 H 0.641(2) 1.1908(17) 0.9404(11)
H25 H 0.607(2) 1.0647(17) 0.8131(12)
H26 H 0.330(2) 1.0587(18) 0.7668(13)
H27 H 0.1925(19) 1.1858(15) 0.8656(10)
H28 H 0.458(2) 1.2536(17) 0.8071(11)
O1 O 0.39043(14) 0.93209(10) 1.08224(6)
O2 O 0.38057(12) 0.51184(10) 0.77975(7)
O3 O 0.57672(12) 0.54697(10) 0.74848(7)
O4 O 1.11843(11) 0.83098(11) 1.01443(7)
O5 O 1.04105(11) 0.81805(11) 1.12476(7)
B11 B 1.01577(17) 0.52301(14) 0.43306(10)
B12 B 0.92902(17) 0.42529(14) 0.38703(9)
B13 B 1.04258(16) 0.35437(14) 0.34045(9)
B14 B 1.19421(17) 0.41032(14) 0.35907(9)
B15 B 1.18938(19) 0.52777(15) 0.31996(10)
B16 B 1.10667(18) 0.43080(15) 0.27404(9)
B17 B 0.94320(18) 0.44065(14) 0.29090(9)
B18 B 0.92653(18) 0.54400(14) 0.34819(10)
B19 B 1.07903(19) 0.59831(15) 0.36598(10)
B20 B 1.03412(19) 0.54662(15) 0.27786(10)
C26 C 1.08378(14) 0.41111(11) 0.42291(8)
C27 C 1.17118(15) 0.51257(12) 0.41194(8)
C28 C 1.11664(14) 0.35151(13) 0.49202(8)
H29 H 1.1291 0.2856 0.4867
C29 C 1.27814(15) 0.53745(12) 0.46887(9)
C30 C 1.40283(16) 0.52249(14) 0.45247(10)
H30 H 1.4194 0.4978 0.4068
C31 C 1.50333(19) 0.54427(14) 0.50414(11)
H31 H 1.5867 0.5345 0.4929
C32 C 1.47886(18) 0.58032(14) 0.57179(10)
H32 H 1.5457 0.5938 0.6066
C33 C 1.35521(18) 0.59643(15) 0.58799(10)
H33 H 1.3391 0.6213 0.6336
C34 C 1.25475(17) 0.57586(13) 0.53668(9)
H34 H 1.1718 0.5878 0.5477
C35 C 0.81272(14) 0.38167(12) 0.42448(8)
C36 C 0.81317(15) 0.36608(13) 0.50022(8)
H35 H 0.8866 0.3793 0.5301
C37 C 0.70723(15) 0.33143(13) 0.53199(8)
H36 H 0.7110 0.3200 0.5823
C38 C 0.59587(15) 0.31385(13) 0.48871(8)
C39 C 0.59220(15) 0.32967(13) 0.41282(9)
H37 H 0.5178 0.3179 0.3834
C40 C 0.69890(15) 0.36283(12) 0.38160(8)
H38 H 0.6953 0.3729 0.3311
C41 C 0.47789(16) 0.28102(13) 0.52026(9)
C42 C 0.3870(2) 0.2328(3) 0.62793(13)
H39 H 0.3215 0.2807 0.6211
H40 H 0.4094 0.2241 0.6795
H41 H 0.3567 0.1729 0.6068
C43 C 1.03403(15) 0.24095(12) 0.33544(8)
C44 C 0.92236(15) 0.19827(12) 0.30394(8)
H42 H 0.8537 0.2374 0.2887
C45 C 0.91155(15) 0.09961(12) 0.29486(8)
H43 H 0.8365 0.0731 0.2736
C46 C 1.01361(15) 0.03975(12) 0.31772(8)
C47 C 1.12537(15) 0.08045(13) 0.34983(9)
H44 H 1.1934 0.0410 0.3657
C48 C 1.13529(16) 0.17924(13) 0.35816(8)
H45 H 1.2106 0.2055 0.3793
C49 C 1.00619(16) -0.06709(12) 0.30827(8)
C50 C 0.87401(18) -0.19795(13) 0.27295(9)
H46 H 0.9345 -0.2240 0.2418
H47 H 0.7895 -0.2110 0.2519
H48 H 0.8860 -0.2272 0.3207
H49 H 1.269(2) 0.5592(17) 0.3049(12)
H50 H 0.9940(17) 0.5414(14) 0.4842(10)
H51 H 1.2803(18) 0.3657(15) 0.3711(10)
H52 H 1.1378(19) 0.3992(16) 0.2243(11)
H53 H 0.8711(17) 0.4167(14) 0.2505(10)
H54 H 0.841(2) 0.5856(17) 0.3480(11)
H55 H 1.101(2) 0.6748(17) 0.3808(11)
H56 H 1.0196(19) 0.5957(15) 0.2315(11)
O6 O 0.89204(11) -0.09537(9) 0.27969(6)
O7 O 1.09360(12) -0.12151(9) 0.32438(7)
O8 O 0.37629(11) 0.27000(11) 0.48571(7)
O9 O 0.49760(12) 0.26401(12) 0.59239(7)
O10 O 1.12721(12) 0.38451(10) 0.55216(6)
loop_
_geom_bond_atom_site_label_1
_geom_bond_atom_site_label_2
_geom_bond_site_symmetry_1
_geom_bond_site_symmetry_2
B1 H1 1_555 1_555
B2 B1 1_555 1_555
B3 B2 1_555 1_555
B4 B3 1_555 1_555
B5 B4 1_555 1_555
B6 B3 1_555 1_555
B7 B2 1_555 1_555
B8 B1 1_555 1_555
B9 B1 1_555 1_555
B10 B5 1_555 1_555
C1 B1 1_555 1_555
C2 B1 1_555 1_555
C3 C1 1_555 1_555
H2 C3 1_555 1_555
C4 C2 1_555 1_555
C5 C4 1_555 1_555
H3 C5 1_555 1_555
C6 C5 1_555 1_555
H4 C6 1_555 1_555
C7 C6 1_555 1_555
H5 C7 1_555 1_555
C8 C7 1_555 1_555
H6 C8 1_555 1_555
C9 C4 1_555 1_555
H7 C9 1_555 1_555
C10 B2 1_555 1_555
C11 C10 1_555 1_555
H8 C11 1_555 1_555
C12 C11 1_555 1_555
H9 C12 1_555 1_555
C13 C12 1_555 1_555
C14 C13 1_555 1_555
H10 C14 1_555 1_555
C15 C10 1_555 1_555
H11 C15 1_555 1_555
C16 C13 1_555 1_555
C17 H12 1_555 1_555
H13 C17 1_555 1_555
H14 C17 1_555 1_555
C18 B3 1_555 1_555
C19 C18 1_555 1_555
H15 C19 1_555 1_555
C20 C19 1_555 1_555
H16 C20 1_555 1_555
C21 C20 1_555 1_555
C22 C21 1_555 1_555
H17 C22 1_555 1_555
C23 C18 1_555 1_555
H18 C23 1_555 1_555
C24 C21 1_555 1_555
C25 H19 1_555 1_555
H20 C25 1_555 1_555
H21 C25 1_555 1_555
H22 B4 1_555 1_555
H23 B5 1_555 1_555
H24 B6 1_555 1_555
H25 B7 1_555 1_555
H26 B8 1_555 1_555
H27 B9 1_555 1_555
H28 B10 1_555 1_555
O1 C3 1_555 1_555
O2 C16 1_555 1_555
O3 C16 1_555 1_555
O4 C24 1_555 1_555
O5 C24 1_555 1_555
B11 B12 1_555 1_555
B12 B13 1_555 1_555
B13 B14 1_555 1_555
B14 B15 1_555 1_555
B15 B16 1_555 1_555
B16 B13 1_555 1_555
B17 B12 1_555 1_555
B18 B11 1_555 1_555
B19 B11 1_555 1_555
B20 B15 1_555 1_555
C26 B11 1_555 1_555
C27 B11 1_555 1_555
C28 C26 1_555 1_555
H29 C28 1_555 1_555
C29 C27 1_555 1_555
C30 C29 1_555 1_555
H30 C30 1_555 1_555
C31 C30 1_555 1_555
H31 C31 1_555 1_555
C32 C31 1_555 1_555
H32 C32 1_555 1_555
C33 C32 1_555 1_555
H33 C33 1_555 1_555
C34 C29 1_555 1_555
H34 C34 1_555 1_555
C35 B12 1_555 1_555
C36 C35 1_555 1_555
H35 C36 1_555 1_555
C37 C36 1_555 1_555
H36 C37 1_555 1_555
C38 C37 1_555 1_555
C39 C38 1_555 1_555
H37 C39 1_555 1_555
C40 C35 1_555 1_555
H38 C40 1_555 1_555
C41 C38 1_555 1_555
C42 H39 1_555 1_555
H40 C42 1_555 1_555
H41 C42 1_555 1_555
C43 B13 1_555 1_555
C44 C43 1_555 1_555
H42 C44 1_555 1_555
C45 C44 1_555 1_555
H43 C45 1_555 1_555
C46 C45 1_555 1_555
C47 C46 1_555 1_555
H44 C47 1_555 1_555
C48 C43 1_555 1_555
H45 C48 1_555 1_555
C49 C46 1_555 1_555
C50 H46 1_555 1_555
H47 C50 1_555 1_555
H48 C50 1_555 1_555
H49 B15 1_555 1_555
H50 B11 1_555 1_555
H51 B14 1_555 1_555
H52 B16 1_555 1_555
H53 B17 1_555 1_555
H54 B18 1_555 1_555
H55 B19 1_555 1_555
H56 B20 1_555 1_555
O6 C49 1_555 1_555
O7 C49 1_555 1_555
O8 C41 1_555 1_555
O9 C41 1_555 1_555
O10 C28 1_555 1_555
B2 B8 1_555 1_555
B2 C1 1_555 1_555
B3 B7 1_555 1_555
B3 C1 1_555 1_555
B4 B6 1_555 1_555
B4 C1 1_555 1_555
B4 C2 1_555 1_555
B5 B6 1_555 1_555
B5 B9 1_555 1_555
B5 C2 1_555 1_555
B6 B7 1_555 1_555
B6 B10 1_555 1_555
B7 B8 1_555 1_555
B7 B10 1_555 1_555
B8 B9 1_555 1_555
B8 B10 1_555 1_555
B9 B10 1_555 1_555
B9 C2 1_555 1_555
C1 C2 1_555 1_555
C8 C9 1_555 1_555
C14 C15 1_555 1_555
C17 O3 1_555 1_555
C22 C23 1_555 1_555
C25 O5 1_555 1_555
B12 B18 1_555 1_555
B12 C26 1_555 1_555
B13 B17 1_555 1_555
B13 C26 1_555 1_555
B14 B16 1_555 1_555
B14 C26 1_555 1_555
B14 C27 1_555 1_555
B15 B19 1_555 1_555
B15 C27 1_555 1_555
B16 B17 1_555 1_555
B16 B20 1_555 1_555
B17 B18 1_555 1_555
B17 B20 1_555 1_555
B18 B19 1_555 1_555
B18 B20 1_555 1_555
B19 B20 1_555 1_555
B19 C27 1_555 1_555
C26 C27 1_555 1_555
C33 C34 1_555 1_555
C39 C40 1_555 1_555
C42 O9 1_555 1_555
C47 C48 1_555 1_555
C50 O6 1_555 1_555

#END
