
#######################################################################
#
#                 Cambridge Crystallographic Data Centre
#                                CCDC 
#
#######################################################################
#
# If this CIF has been generated from an entry in the Cambridge 
# Structural Database, then it will include bibliographic, chemical, 
# crystal, experimental, refinement or atomic coordinate data resulting 
# from the CCDC's data processing and validation procedures.
#
#######################################################################

data_SEJRAD
_chemical_formula_moiety         'C21 H14 Br1 N1 O3'
_chemical_name_systematic        
3-(2H-1,3-benzodioxol-5-yl)-2-(4-bromophenyl)-2,3-dihydro-1H-isoindol-1-one
_symmetry_cell_setting           triclinic
_symmetry_space_group_name_H-M   'P -1'
_symmetry_Int_Tables_number      2
_space_group_name_Hall           '-P 1'
loop_
_symmetry_equiv_pos_site_id
_symmetry_equiv_pos_as_xyz
1 x,y,z
2 -x,-y,-z
_cell_length_a                   6.7473(14)
_cell_length_b                   11.771(3)
_cell_length_c                   12.597(3)
_cell_angle_alpha                62.242(5)
_cell_angle_beta                 77.949(6)
_cell_angle_gamma                84.286(6)
_cell_volume                     865.837
_exptl_crystal_colour            colorless
_exptl_crystal_description       block
_cell_formula_units_Z            2
loop_
_atom_site_label
_atom_site_type_symbol
_atom_site_fract_x
_atom_site_fract_y
_atom_site_fract_z
Br1 Br 0.32334(11) -0.51217(5) 0.39422(6)
C1 C 0.0558(7) 0.2552(4) -0.0089(4)
N1 N 0.1813(5) 0.0618(3) 0.1169(3)
O1 O -0.1373(5) 0.0604(3) 0.0714(3)
C2 C -0.0557(9) 0.3528(5) -0.0880(5)
H1 H -0.1783 0.3346 -0.0995
O2 O 0.6887(5) 0.1815(4) 0.3941(3)
C3 C 0.0179(12) 0.4756(6) -0.1485(5)
H2 H -0.0542 0.5412 -0.2021
O3 O 0.3952(4) 0.1767(4) 0.5277(3)
C4 C 0.1978(12) 0.5023(6) -0.1303(5)
H3 H 0.2441 0.5865 -0.1712
C5 C 0.3140(9) 0.4065(5) -0.0519(5)
H4 H 0.4365 0.4255 -0.0409
C6 C 0.2376(7) 0.2809(4) 0.0092(4)
C7 C 0.3251(6) 0.1590(4) 0.0977(4)
H5 H 0.4598 0.1433 0.0593
C8 C 0.0130(6) 0.1169(4) 0.0620(4)
C9 C 0.2144(6) -0.0717(4) 0.1860(4)
C10 C 0.0524(7) -0.1535(5) 0.2580(4)
H6 H -0.0786 -0.1210 0.2637
C11 C 0.0873(7) -0.2827(5) 0.3205(4)
H7 H -0.0211 -0.3378 0.3681
C12 C 0.2815(8) -0.3320(5) 0.3137(5)
C13 C 0.4444(7) -0.2494(5) 0.2441(4)
H8 H 0.5760 -0.2816 0.2406
C14 C 0.4092(6) -0.1193(4) 0.1804(4)
H9 H 0.5173 -0.0637 0.1334
C15 C 0.1631(7) 0.1555(5) 0.2980(4)
H10 H 0.0391 0.1499 0.2795
C16 C 0.3370(6) 0.1587(4) 0.2181(3)
C17 C 0.5253(6) 0.1666(4) 0.2444(4)
H11 H 0.6456 0.1676 0.1920
C18 C 0.5254(6) 0.1726(4) 0.3498(4)
C19 C 0.3498(6) 0.1689(4) 0.4293(3)
C20 C 0.1654(6) 0.1603(6) 0.4066(4)
H12 H 0.0465 0.1577 0.4606
C21 C 0.6095(7) 0.1826(6) 0.5065(5)
H13 H 0.6507 0.2604 0.5044
H14 H 0.6613 0.1096 0.5720
loop_
_geom_bond_atom_site_label_1
_geom_bond_atom_site_label_2
_geom_bond_site_symmetry_1
_geom_bond_site_symmetry_2
Br1 C12 1_555 1_555
C1 C2 1_555 1_555
N1 C7 1_555 1_555
O1 C8 1_555 1_555
C2 H1 1_555 1_555
O2 C18 1_555 1_555
C3 C2 1_555 1_555
H2 C3 1_555 1_555
O3 C19 1_555 1_555
C4 C3 1_555 1_555
H3 C4 1_555 1_555
C5 C4 1_555 1_555
H4 C5 1_555 1_555
C6 C1 1_555 1_555
C7 C6 1_555 1_555
H5 C7 1_555 1_555
C8 C1 1_555 1_555
C9 N1 1_555 1_555
C10 C9 1_555 1_555
H6 C10 1_555 1_555
C11 C10 1_555 1_555
H7 C11 1_555 1_555
C12 C11 1_555 1_555
C13 C12 1_555 1_555
H8 C13 1_555 1_555
C14 C9 1_555 1_555
H9 C14 1_555 1_555
C15 H10 1_555 1_555
C16 C7 1_555 1_555
C17 C16 1_555 1_555
H11 C17 1_555 1_555
C18 C17 1_555 1_555
C19 C18 1_555 1_555
C20 C15 1_555 1_555
H12 C20 1_555 1_555
C21 O2 1_555 1_555
H13 C21 1_555 1_555
H14 C21 1_555 1_555
N1 C8 1_555 1_555
O3 C21 1_555 1_555
C5 C6 1_555 1_555
C13 C14 1_555 1_555
C15 C16 1_555 1_555
C19 C20 1_555 1_555

#END
