
#######################################################################
#
#                 Cambridge Crystallographic Data Centre
#                                CCDC 
#
#######################################################################
#
# If this CIF has been generated from an entry in the Cambridge 
# Structural Database, then it will include bibliographic, chemical, 
# crystal, experimental, refinement or atomic coordinate data resulting 
# from the CCDC's data processing and validation procedures.
#
#######################################################################

data_SEJREH
_chemical_formula_moiety         'C25 H18 Br1 N1 O1'
_chemical_name_systematic        
2-(4-bromophenyl)-3-(4-methylnaphthalen-1-yl)-2,3-dihydro-1H-isoindol-1-one
_symmetry_cell_setting           triclinic
_symmetry_space_group_name_H-M   'P -1'
_symmetry_Int_Tables_number      2
_space_group_name_Hall           '-P 1'
loop_
_symmetry_equiv_pos_site_id
_symmetry_equiv_pos_as_xyz
1 x,y,z
2 -x,-y,-z
_cell_length_a                   8.8342(15)
_cell_length_b                   10.3235(18)
_cell_length_c                   11.2424(19)
_cell_angle_alpha                90.781(4)
_cell_angle_beta                 107.441(4)
_cell_angle_gamma                101.410(4)
_cell_volume                     955.916
_exptl_crystal_colour            colorless
_exptl_crystal_description       block
_cell_formula_units_Z            2
loop_
_atom_site_label
_atom_site_type_symbol
_atom_site_fract_x
_atom_site_fract_y
_atom_site_fract_z
Br1 Br 1.53737(5) 0.66084(4) 0.66476(5)
O1 O 0.9229(5) 0.1096(4) 0.5993(3)
N1 N 0.9405(4) 0.2238(3) 0.4265(3)
C1 C 0.7951(6) 0.4199(5) -0.1322(4)
H1 H 0.7696 0.4662 -0.2034
C2 C 0.9107(6) 0.3469(5) -0.1149(4)
H2 H 0.9609 0.3407 -0.1760
C3 C 0.9563(5) 0.2795(4) -0.0037(3)
C4 C 0.8750(4) 0.2865(4) 0.0862(3)
C5 C 0.9219(4) 0.2208(3) 0.1990(3)
C6 C 0.8361(4) 0.2255(4) 0.2962(3)
H3 H 0.7909 0.3055 0.2890
C7 C 1.0795(4) 0.3248(4) 0.4817(3)
C8 C 1.1063(5) 0.4403(4) 0.4228(4)
H4 H 1.0336 0.4501 0.3460
C9 C 1.2410(5) 0.5419(4) 0.4776(4)
H5 H 1.2561 0.6208 0.4395
C10 C 1.3514(5) 0.5240(4) 0.5889(4)
C11 C 0.8699(5) 0.1274(4) 0.4903(4)
C12 C 0.7201(5) 0.0519(4) 0.3977(4)
C13 C 0.6100(6) -0.0573(5) 0.4144(5)
H6 H 0.6233 -0.0921 0.4919
C14 C 0.4804(6) -0.1121(5) 0.3117(5)
H7 H 0.4061 -0.1867 0.3190
C15 C 0.4597(6) -0.0576(5) 0.1982(5)
H8 H 0.3699 -0.0952 0.1307
C16 C 0.5693(5) 0.0518(4) 0.1821(4)
H9 H 0.5546 0.0879 0.1051
C17 C 0.7007(4) 0.1053(4) 0.2840(3)
C18 C 1.0807(5) 0.2031(4) 0.0160(4)
C19 C 1.1698(7) 0.1945(6) -0.0801(5)
H10 H 1.2444 0.1368 -0.0535
H11 H 1.2284 0.2813 -0.0874
H12 H 1.0926 0.1602 -0.1597
C20 C 1.1185(5) 0.1412(4) 0.1235(4)
H13 H 1.1985 0.0916 0.1370
C21 C 1.0415(5) 0.1492(4) 0.2149(4)
H14 H 1.0716 0.1055 0.2873
C22 C 0.7145(6) 0.4259(5) -0.0444(4)
H15 H 0.6342 0.4751 -0.0579
C23 C 0.7517(5) 0.3604(4) 0.0618(4)
H16 H 0.6950 0.3644 0.1189
C24 C 1.1929(5) 0.3093(4) 0.5939(4)
H17 H 1.1777 0.2315 0.6334
C25 C 1.3282(5) 0.4089(5) 0.6470(4)
H18 H 1.4035 0.3979 0.7221
loop_
_geom_bond_atom_site_label_1
_geom_bond_atom_site_label_2
_geom_bond_site_symmetry_1
_geom_bond_site_symmetry_2
Br1 C10 1_555 1_555
O1 C11 1_555 1_555
N1 C6 1_555 1_555
C1 H1 1_555 1_555
C2 C1 1_555 1_555
H2 C2 1_555 1_555
C3 C2 1_555 1_555
C4 C3 1_555 1_555
C5 C4 1_555 1_555
C6 C5 1_555 1_555
H3 C6 1_555 1_555
C7 N1 1_555 1_555
C8 C7 1_555 1_555
H4 C8 1_555 1_555
C9 C8 1_555 1_555
H5 C9 1_555 1_555
C10 C9 1_555 1_555
C11 N1 1_555 1_555
C12 C11 1_555 1_555
C13 C12 1_555 1_555
H6 C13 1_555 1_555
C14 C13 1_555 1_555
H7 C14 1_555 1_555
C15 C14 1_555 1_555
H8 C15 1_555 1_555
C16 C15 1_555 1_555
H9 C16 1_555 1_555
C17 C6 1_555 1_555
C18 C3 1_555 1_555
C19 C18 1_555 1_555
H10 C19 1_555 1_555
H11 C19 1_555 1_555
H12 C19 1_555 1_555
C20 C18 1_555 1_555
H13 C20 1_555 1_555
C21 C5 1_555 1_555
H14 C21 1_555 1_555
C22 C1 1_555 1_555
H15 C22 1_555 1_555
C23 C4 1_555 1_555
H16 C23 1_555 1_555
C24 C7 1_555 1_555
H17 C24 1_555 1_555
C25 C10 1_555 1_555
H18 C25 1_555 1_555
C12 C17 1_555 1_555
C16 C17 1_555 1_555
C20 C21 1_555 1_555
C22 C23 1_555 1_555
C24 C25 1_555 1_555

#END
