
#######################################################################
#
#                 Cambridge Crystallographic Data Centre
#                                CCDC 
#
#######################################################################
#
# If this CIF has been generated from an entry in the Cambridge 
# Structural Database, then it will include bibliographic, chemical, 
# crystal, experimental, refinement or atomic coordinate data resulting 
# from the CCDC's data processing and validation procedures.
#
#######################################################################

data_SEJSUY
_chemical_formula_moiety         'C14 H8 I2 O4'
_chemical_name_systematic        'bis(4-iodophenyl) oxalate'
_symmetry_cell_setting           monoclinic
_symmetry_space_group_name_H-M   'C c'
_symmetry_Int_Tables_number      9
_space_group_name_Hall           'C -2yc'
loop_
_symmetry_equiv_pos_site_id
_symmetry_equiv_pos_as_xyz
1 x,y,z
2 x,-y,1/2+z
3 1/2+x,1/2+y,z
4 1/2+x,1/2-y,1/2+z
_cell_length_a                   9.5550(19)
_cell_length_b                   9.6790(19)
_cell_length_c                   31.313(6)
_cell_angle_alpha                90
_cell_angle_beta                 97.02(3)
_cell_angle_gamma                90
_cell_volume                     2874.21
_exptl_crystal_colour            white
_exptl_crystal_description       Prism
_cell_formula_units_Z            8
loop_
_atom_site_label
_atom_site_type_symbol
_atom_site_fract_x
_atom_site_fract_y
_atom_site_fract_z
I1 I 0.92082(17) 1.1835(2) 0.45673(6)
I2 I 0.08826(15) 0.5558(2) 0.04286(5)
C1 C 0.597(3) 0.964(3) 0.3756(8)
H1 H 0.5201 0.9081 0.3791
O1 O 0.5268(16) 0.9460(15) 0.3012(6)
O2 O 0.6943(17) 0.8753(18) 0.2555(5)
C2 C 0.683(3) 1.013(3) 0.4099(11)
H2 H 0.6676 0.9928 0.4380
O3 O 0.3290(19) 0.8791(19) 0.2387(6)
C3 C 0.808(3) 1.105(3) 0.4006(8)
C4 C 0.825(3) 1.128(2) 0.3615(8)
H3 H 0.9017 1.1809 0.3552
O4 O 0.4827(14) 0.8118(14) 0.1972(5)
C5 C 0.731(3) 1.075(3) 0.3281(9)
H4 H 0.7459 1.0976 0.3002
C6 C 0.632(3) 1.003(3) 0.3323(9)
C7 C 0.580(3) 0.888(3) 0.2651(11)
C8 C 0.452(3) 0.853(2) 0.2359(8)
C9 C 0.387(2) 0.757(2) 0.1637(7)
C10 C 0.414(2) 0.783(2) 0.1258(7)
H5 H 0.4912 0.8369 0.1215
C11 C 0.327(3) 0.730(3) 0.0905(10)
H6 H 0.3466 0.7557 0.0633
C12 C 0.227(2) 0.6541(19) 0.0926(6)
C13 C 0.185(4) 0.622(3) 0.1344(11)
H7 H 0.1045 0.5691 0.1359
C14 C 0.264(2) 0.672(2) 0.1742(7)
H8 H 0.2425 0.6531 0.2017
I3 I -0.09486(16) 0.27683(19) -0.04213(5)
I4 I -0.86950(15) 0.95985(19) -0.45625(5)
O5 O -0.3856(15) 0.6131(15) -0.1979(5)
O6 O -0.4891(17) 0.4387(15) -0.2414(5)
O7 O -0.490(2) 0.7958(17) -0.2550(6)
O8 O -0.5619(14) 0.6293(15) -0.3024(5)
C15 C -0.258(4) 0.413(3) -0.1684(10)
H9 H -0.2690 0.3744 -0.1957
C16 C -0.181(3) 0.340(2) -0.1384(7)
H10 H -0.1256 0.2667 -0.1454
C17 C -0.187(2) 0.374(2) -0.0994(6)
C18 C -0.279(3) 0.492(3) -0.0859(10)
H11 H -0.2884 0.5094 -0.0572
C19 C -0.350(3) 0.574(3) -0.1204(8)
H12 H -0.4086 0.6478 -0.1159
C20 C -0.319(3) 0.528(3) -0.1652(9)
C21 C -0.451(3) 0.563(3) -0.2329(10)
C22 C -0.506(2) 0.682(2) -0.2659(8)
C23 C -0.6257(19) 0.7199(19) -0.3337(7)
C24 C -0.714(3) 0.824(2) -0.3243(7)
H13 H -0.7346 0.8420 -0.2966
C25 C -0.773(2) 0.902(2) -0.3618(6)
H14 H -0.8223 0.9839 -0.3586
C26 C -0.754(2) 0.850(2) -0.4053(6)
C27 C -0.685(3) 0.742(3) -0.4099(10)
H15 H -0.6763 0.7093 -0.4374
C28 C -0.617(2) 0.664(2) -0.3709(6)
H16 H -0.5705 0.5803 -0.3735
loop_
_geom_bond_atom_site_label_1
_geom_bond_atom_site_label_2
_geom_bond_site_symmetry_1
_geom_bond_site_symmetry_2
I1 C3 1_555 1_555
I2 C12 1_555 1_555
C1 H1 1_555 1_555
O1 C6 1_555 1_555
O2 C7 1_555 1_555
C2 C1 1_555 1_555
H2 C2 1_555 1_555
O3 C8 1_555 1_555
C3 C2 1_555 1_555
C4 C3 1_555 1_555
H3 C4 1_555 1_555
O4 C8 1_555 1_555
C5 C4 1_555 1_555
H4 C5 1_555 1_555
C6 C1 1_555 1_555
C7 O1 1_555 1_555
C8 C7 1_555 1_555
C9 O4 1_555 1_555
C10 C9 1_555 1_555
H5 C10 1_555 1_555
C11 C10 1_555 1_555
H6 C11 1_555 1_555
C12 C11 1_555 1_555
C13 C12 1_555 1_555
H7 C13 1_555 1_555
C14 C9 1_555 1_555
H8 C14 1_555 1_555
I3 C17 1_555 1_555
I4 C26 1_555 1_555
O5 C20 1_555 1_555
O6 C21 1_555 1_555
O7 C22 1_555 1_555
O8 C22 1_555 1_555
C15 H9 1_555 1_555
C16 C15 1_555 1_555
H10 C16 1_555 1_555
C17 C16 1_555 1_555
C18 C17 1_555 1_555
H11 C18 1_555 1_555
C19 C18 1_555 1_555
H12 C19 1_555 1_555
C20 C15 1_555 1_555
C21 O5 1_555 1_555
C22 C21 1_555 1_555
C23 O8 1_555 1_555
C24 C23 1_555 1_555
H13 C24 1_555 1_555
C25 C24 1_555 1_555
H14 C25 1_555 1_555
C26 C25 1_555 1_555
C27 C26 1_555 1_555
H15 C27 1_555 1_555
C28 C23 1_555 1_555
H16 C28 1_555 1_555
C5 C6 1_555 1_555
C13 C14 1_555 1_555
C19 C20 1_555 1_555
C27 C28 1_555 1_555

#END
