
#######################################################################
#
#                 Cambridge Crystallographic Data Centre
#                                CCDC 
#
#######################################################################
#
# If this CIF has been generated from an entry in the Cambridge 
# Structural Database, then it will include bibliographic, chemical, 
# crystal, experimental, refinement or atomic coordinate data resulting 
# from the CCDC's data processing and validation procedures.
#
#######################################################################

data_SEJTUW
_chemical_formula_moiety         'C38 H34 N2 O8,0.5(H2 O1)'
_chemical_name_systematic        
"N,N'-Di-m-tolyl-\a-naphthamidinium-N-(1,2,3,4-tetra(methoxycarbonyl)-cyclopentadien-5-yl) hemihydrate"
_symmetry_cell_setting           triclinic
_symmetry_space_group_name_H-M   'P -1'
_symmetry_Int_Tables_number      2
_space_group_name_Hall           '-P 1'
loop_
_symmetry_equiv_pos_site_id
_symmetry_equiv_pos_as_xyz
1 x,y,z
2 -x,-y,-z
_cell_length_a                   10.165(2)
_cell_length_b                   13.372(3)
_cell_length_c                   14.372(4)
_cell_angle_alpha                114.44(2)
_cell_angle_beta                 93.87(2)
_cell_angle_gamma                99.59(2)
_cell_volume                     1733.26
_exptl_crystal_colour            yellow
_chemical_melting_point          244-245deg.C
_cell_formula_units_Z            2
_exptl_crystal_recrystallization_method 'diethyl ether'
loop_
_atom_site_label
_atom_site_type_symbol
_atom_site_fract_x
_atom_site_fract_y
_atom_site_fract_z
O1 O 0.0851(6) 0.1001(5) 0.3749(5)
O2 O -0.0811(5) -0.3195(5) 0.1757(4)
O3 O 0.2971(7) -0.3725(5) 0.0575(5)
O4 O 0.5189(6) -0.0601(5) 0.1456(5)
O5 O -0.0524(5) -0.0587(4) 0.3489(4)
O6 O 0.0019(5) -0.2722(4) 0.3391(4)
O7 O 0.1884(6) -0.4125(4) 0.1705(4)
O8 O 0.5273(5) -0.1998(5) 0.1901(4)
N1 N 0.3427(5) 0.0789(4) 0.2951(4)
N2 N 0.2169(6) 0.0819(5) 0.1605(5)
C1 C 0.1528(7) -0.0741(6) 0.2894(5)
C2 C 0.1309(7) -0.1925(6) 0.2490(5)
C3 C 0.2403(7) -0.2267(5) 0.2007(5)
C4 C 0.3340(6) -0.1293(5) 0.2101(5)
C5 C 0.2775(6) -0.0366(5) 0.2644(5)
C6 C 0.0629(7) -0.0013(7) 0.3416(6)
C7 C 0.0071(7) -0.2681(6) 0.2486(7)
C8 C 0.2478(8) -0.3432(6) 0.1342(7)
C9 C 0.4654(8) -0.1239(6) 0.1783(6)
C10 C -0.1487(8) 0.0025(7) 0.4002(7)
C11 C -0.1210(9) -0.3347(9) 0.3481(8)
C12 C 0.1730(11) -0.5314(7) 0.1002(8)
C13 C 0.6518(8) -0.2125(9) 0.1505(8)
C14 C 0.2977(6) 0.1370(6) 0.2495(5)
C15 C 0.3333(7) 0.2624(6) 0.2984(6)
C16 C 0.2913(8) 0.3151(7) 0.3902(7)
C17 C 0.3137(11) 0.4336(9) 0.4383(8)
C18 C 0.3820(12) 0.4940(8) 0.3953(10)
C19 C 0.4304(9) 0.4428(7) 0.3012(8)
C20 C 0.5037(11) 0.5039(9) 0.2555(10)
C21 C 0.5505(10) 0.4538(11) 0.1680(11)
C22 C 0.5304(8) 0.3353(9) 0.1188(7)
C23 C 0.4584(7) 0.2727(7) 0.1597(6)
C24 C 0.4057(7) 0.3223(6) 0.2503(7)
C25 C 0.4563(7) 0.1279(5) 0.3794(6)
C26 C 0.4401(8) 0.1189(6) 0.4695(6)
C27 C 0.5479(10) 0.1640(7) 0.5482(7)
C28 C 0.6678(9) 0.2189(7) 0.5362(7)
C29 C 0.6856(7) 0.2285(6) 0.4472(7)
C30 C 0.5772(7) 0.1806(6) 0.3656(6)
C31 C 0.8182(8) 0.2878(7) 0.4340(7)
C32 C 0.1348(8) 0.1269(6) 0.1091(6)
C33 C 0.1447(8) 0.1047(7) 0.0083(7)
C34 C 0.0593(10) 0.1432(8) -0.0426(7)
C35 C -0.0305(9) 0.2004(8) 0.0059(9)
C36 C -0.0410(9) 0.2248(9) 0.1070(9)
C37 C 0.0454(9) 0.1857(8) 0.1587(7)
C38 C -0.1410(13) 0.2876(13) 0.1607(11)
H1 H 0.207(9) 0.021(6) 0.130(7)
H2 H -0.226 -0.049 0.401
H3 H -0.108 0.053 0.470
H4 H -0.176 0.045 0.365
H5 H -0.112 -0.334 0.415
H6 H -0.194 -0.301 0.340
H7 H -0.139 -0.411 0.296
H8 H 0.129 -0.576 0.132
H9 H 0.119 -0.548 0.036
H10 H 0.260 -0.548 0.087
H11 H 0.688 -0.268 0.164
H12 H 0.635 -0.235 0.077
H13 H 0.715 -0.142 0.183
H14 H 0.243 0.270 0.420
H15 H 0.283 0.471 0.503
H16 H 0.393 0.574 0.427
H17 H 0.518 0.585 0.287
H18 H 0.599 0.497 0.137
H19 H 0.567 0.299 0.056
H20 H 0.442 0.192 0.126
H21 H 0.354 0.082 0.476
H22 H 0.537 0.158 0.612
H23 H 0.743 0.250 0.592
H24 H 0.587 0.184 0.301
H25 H 0.883 0.316 0.495
H26 H 0.852 0.236 0.376
H27 H 0.802 0.350 0.421
H28 H 0.211 0.063 -0.023
H29 H 0.065 0.127 -0.113
H30 H -0.089 0.226 -0.030
H31 H 0.039 0.199 0.229
H32 H -0.194 0.309 0.117
H33 H -0.199 0.244 0.186
H34 H -0.089 0.354 0.218
O9 O 0.6161(17) 0.0372(14) 0.0103(14)
O10 O 0.292(15) 0.768(12) 0.016(11)
loop_
_geom_bond_atom_site_label_1
_geom_bond_atom_site_label_2
_geom_bond_site_symmetry_1
_geom_bond_site_symmetry_2
O1 C6 1_555 1_555
O2 C7 1_555 1_555
O3 C8 1_555 1_555
O4 C9 1_555 1_555
O5 C6 1_555 1_555
O6 C7 1_555 1_555
O7 C8 1_555 1_555
O8 C9 1_555 1_555
N1 C5 1_555 1_555
N2 C14 1_555 1_555
C1 C2 1_555 1_555
C2 C3 1_555 1_555
C3 C4 1_555 1_555
C4 C5 1_555 1_555
C5 C1 1_555 1_555
C6 C1 1_555 1_555
C7 C2 1_555 1_555
C8 C3 1_555 1_555
C9 C4 1_555 1_555
C10 O5 1_555 1_555
C11 O6 1_555 1_555
C12 O7 1_555 1_555
C13 O8 1_555 1_555
C14 N1 1_555 1_555
C15 C14 1_555 1_555
C16 C15 1_555 1_555
C17 C16 1_555 1_555
C18 C17 1_555 1_555
C19 C18 1_555 1_555
C20 C19 1_555 1_555
C21 C20 1_555 1_555
C22 C21 1_555 1_555
C23 C22 1_555 1_555
C24 C15 1_555 1_555
C25 N1 1_555 1_555
C26 C25 1_555 1_555
C27 C26 1_555 1_555
C28 C27 1_555 1_555
C29 C28 1_555 1_555
C30 C25 1_555 1_555
C31 C29 1_555 1_555
C32 N2 1_555 1_555
C33 C32 1_555 1_555
C34 C33 1_555 1_555
C35 C34 1_555 1_555
C36 C35 1_555 1_555
C37 C32 1_555 1_555
C38 C36 1_555 1_555
H1 N2 1_555 1_555
H2 C10 1_555 1_555
H3 C10 1_555 1_555
H4 C10 1_555 1_555
H5 C11 1_555 1_555
H6 C11 1_555 1_555
H7 C11 1_555 1_555
H8 C12 1_555 1_555
H9 C12 1_555 1_555
H10 C12 1_555 1_555
H11 C13 1_555 1_555
H12 C13 1_555 1_555
H13 C13 1_555 1_555
H14 C16 1_555 1_555
H15 C17 1_555 1_555
H16 C18 1_555 1_555
H17 C20 1_555 1_555
H18 C21 1_555 1_555
H19 C22 1_555 1_555
H20 C23 1_555 1_555
H21 C26 1_555 1_555
H22 C27 1_555 1_555
H23 C28 1_555 1_555
H24 C30 1_555 1_555
H25 C31 1_555 1_555
H26 C31 1_555 1_555
H27 C31 1_555 1_555
H28 C33 1_555 1_555
H29 C34 1_555 1_555
H30 C35 1_555 1_555
H31 C37 1_555 1_555
H32 C38 1_555 1_555
H33 C38 1_555 1_555
H34 C38 1_555 1_555
C19 C24 1_555 1_555
C23 C24 1_555 1_555
C29 C30 1_555 1_555
C36 C37 1_555 1_555

#END
