
#######################################################################
#
#                 Cambridge Crystallographic Data Centre
#                                CCDC 
#
#######################################################################
#
# If this CIF has been generated from an entry in the Cambridge 
# Structural Database, then it will include bibliographic, chemical, 
# crystal, experimental, refinement or atomic coordinate data resulting 
# from the CCDC's data processing and validation procedures.
#
#######################################################################

data_SEJXOX
_chemical_formula_moiety         'C20 H30 O4'
_chemical_name_systematic        
'5-(4-carboxy-3-methylbut-3-en-1-yl)-1,4a-dimethyl-6-methylenedecahydronaphthalene-1-carboxylic acid'
_symmetry_cell_setting           orthorhombic
_symmetry_space_group_name_H-M   'P 21 21 21'
_symmetry_Int_Tables_number      19
_space_group_name_Hall           'P 2ac 2ab'
loop_
_symmetry_equiv_pos_site_id
_symmetry_equiv_pos_as_xyz
1 x,y,z
2 1/2+x,1/2-y,-z
3 -x,1/2+y,1/2-z
4 1/2-x,-y,1/2+z
_cell_length_a                   11.9861(6)
_cell_length_b                   12.3116(6)
_cell_length_c                   12.3920(6)
_cell_angle_alpha                90
_cell_angle_beta                 90
_cell_angle_gamma                90
_cell_volume                     1828.66
_exptl_crystal_colour            colorless
_exptl_crystal_description       block
_cell_formula_units_Z            4
loop_
_atom_site_label
_atom_site_type_symbol
_atom_site_fract_x
_atom_site_fract_y
_atom_site_fract_z
O1 O 0.11413(12) 0.59084(12) 0.36330(11)
C1 C 0.26508(18) 0.68965(15) 0.44828(16)
O2 O 0.08584(12) 0.65458(12) 0.52934(11)
H1 H 0.019(2) 0.610(2) 0.523(2)
C2 C 0.29171(19) 0.73789(16) 0.56007(16)
H2 H 0.3585 0.7847 0.5539
H3 H 0.2286 0.7844 0.5829
O3 O 0.93264(14) 0.46302(14) 0.35715(12)
H4 H 0.999(2) 0.514(3) 0.360(2)
C3 C 0.31270(18) 0.65273(16) 0.64685(15)
H5 H 0.2420 0.6142 0.6626
H6 H 0.3372 0.6894 0.7139
O4 O 0.91817(13) 0.51828(12) 0.52763(11)
C4 C 0.40090(18) 0.57014(16) 0.61325(15)
H7 H 0.4064 0.5135 0.6697
H8 H 0.4741 0.6071 0.6089
C5 C 0.37655(17) 0.51509(15) 0.50419(14)
C6 C 0.47963(17) 0.44444(16) 0.47031(15)
H9 H 0.5455 0.4943 0.4706
C7 C 0.46626(17) 0.40540(17) 0.35450(16)
C8 C 0.45851(19) 0.49834(18) 0.27616(16)
H10 H 0.4534 0.4700 0.2015
H11 H 0.5262 0.5440 0.2815
C9 C 0.35556(18) 0.56611(17) 0.30200(15)
H12 H 0.2877 0.5215 0.2916
H13 H 0.3515 0.6287 0.2519
C10 C 0.35964(18) 0.60757(16) 0.41882(14)
H14 H 0.4298 0.6513 0.4227
C11 C 0.14913(18) 0.63915(16) 0.44305(15)
C12 C 0.26067(19) 0.78355(16) 0.36512(18)
H15 H 0.2330 0.7559 0.2960
H16 H 0.3357 0.8136 0.3553
H17 H 0.2106 0.8406 0.3915
C13 C 0.27428(18) 0.44087(15) 0.51441(16)
H18 H 0.2912 0.3811 0.5639
H19 H 0.2551 0.4114 0.4433
H20 H 0.2111 0.4828 0.5425
C14 C 0.50699(17) 0.35249(16) 0.55003(16)
H21 H 0.4481 0.2963 0.5449
H22 H 0.5053 0.3822 0.6243
C15 C 0.62113(18) 0.29827(16) 0.53100(17)
H23 H 0.6296 0.2376 0.5828
H24 H 0.6220 0.2669 0.4574
C16 C 0.71967(17) 0.37316(15) 0.54263(16)
C17 C 0.73827(19) 0.41595(17) 0.65466(16)
H25 H 0.8059 0.4607 0.6558
H26 H 0.7470 0.3550 0.7048
H27 H 0.6741 0.4601 0.6765
C18 C 0.78288(18) 0.39480(16) 0.45606(16)
H28 H 0.7608 0.3620 0.3900
C19 C 0.88230(18) 0.46371(16) 0.45260(15)
C20 C 0.45313(19) 0.30297(18) 0.32336(18)
H29 H 0.4384 0.2868 0.2498
H30 H 0.4585 0.2459 0.3747
loop_
_geom_bond_atom_site_label_1
_geom_bond_atom_site_label_2
_geom_bond_site_symmetry_1
_geom_bond_site_symmetry_2
O1 C11 1_555 1_555
C1 C2 1_555 1_555
O2 H1 1_555 1_555
C2 H2 1_555 1_555
H3 C2 1_555 1_555
O3 H4 1_555 1_555
C3 C2 1_555 1_555
H5 C3 1_555 1_555
H6 C3 1_555 1_555
O4 C19 1_555 1_555
C4 C3 1_555 1_555
H7 C4 1_555 1_555
H8 C4 1_555 1_555
C5 C4 1_555 1_555
C6 C5 1_555 1_555
H9 C6 1_555 1_555
C7 C6 1_555 1_555
C8 C7 1_555 1_555
H10 C8 1_555 1_555
H11 C8 1_555 1_555
C9 C8 1_555 1_555
H12 C9 1_555 1_555
H13 C9 1_555 1_555
C10 C1 1_555 1_555
H14 C10 1_555 1_555
C11 C1 1_555 1_555
C12 C1 1_555 1_555
H15 C12 1_555 1_555
H16 C12 1_555 1_555
H17 C12 1_555 1_555
C13 C5 1_555 1_555
H18 C13 1_555 1_555
H19 C13 1_555 1_555
H20 C13 1_555 1_555
C14 C6 1_555 1_555
H21 C14 1_555 1_555
H22 C14 1_555 1_555
C15 C14 1_555 1_555
H23 C15 1_555 1_555
H24 C15 1_555 1_555
C16 C15 1_555 1_555
C17 C16 1_555 1_555
H25 C17 1_555 1_555
H26 C17 1_555 1_555
H27 C17 1_555 1_555
C18 C16 1_555 1_555
H28 C18 1_555 1_555
C19 O3 1_555 1_555
C20 C7 1_555 1_555
H29 C20 1_555 1_555
H30 C20 1_555 1_555
O2 C11 1_555 1_555
C5 C10 1_555 1_555
C9 C10 1_555 1_555
C18 C19 1_555 1_555

#END
