
#######################################################################
#
#                 Cambridge Crystallographic Data Centre
#                                CCDC 
#
#######################################################################
#
# If this CIF has been generated from an entry in the Cambridge 
# Structural Database, then it will include bibliographic, chemical, 
# crystal, experimental, refinement or atomic coordinate data resulting 
# from the CCDC's data processing and validation procedures.
#
#######################################################################

data_SEJYEL
_chemical_formula_moiety         'C34 H32 N2 O8'
_chemical_name_systematic        
N,N'-Di-p-tolyl-phenylamidinium-N-(1,2,3,4-tetra(methoxycarbonyl)-cyclopentadien-5-yl)
_symmetry_cell_setting           monoclinic
_symmetry_space_group_name_H-M   'P 21/n'
_symmetry_Int_Tables_number      14
_space_group_name_Hall           '-P 2yn'
loop_
_symmetry_equiv_pos_site_id
_symmetry_equiv_pos_as_xyz
1 x,y,z
2 1/2-x,1/2+y,1/2-z
3 -x,-y,-z
4 1/2+x,1/2-y,1/2+z
_cell_length_a                   13.668(3)
_cell_length_b                   14.318(4)
_cell_length_c                   16.205(3)
_cell_angle_alpha                90
_cell_angle_beta                 102.93(2)
_cell_angle_gamma                90
_cell_volume                     3090.88
_exptl_crystal_colour            yellow
_chemical_melting_point          252-253deg.C
_cell_formula_units_Z            4
_exptl_crystal_recrystallization_method 'diethyl ether'
loop_
_atom_site_label
_atom_site_type_symbol
_atom_site_fract_x
_atom_site_fract_y
_atom_site_fract_z
O1 O 0.1313(5) 0.2628(5) 0.0978(4)
O2 O 0.0111(5) 0.3320(5) 0.1483(4)
O3 O -0.0677(6) 0.3351(5) 0.3218(4)
O4 O -0.1381(5) 0.2335(5) 0.2243(5)
O5 O -0.0629(5) 0.1403(6) 0.4204(4)
O6 O 0.0929(5) 0.1360(5) 0.4992(4)
O7 O 0.3209(4) 0.0477(5) 0.3935(4)
O8 O 0.1853(4) -0.0098(5) 0.4307(4)
N1 N 0.2498(5) 0.1234(5) 0.2164(4)
N2 N 0.3586(5) 0.2302(6) 0.2888(5)
C1 C 0.1726(6) 0.1504(6) 0.2599(5)
C2 C 0.0927(6) 0.2102(7) 0.2259(5)
C3 C 0.0308(6) 0.2107(6) 0.2858(5)
C4 C 0.0726(6) 0.1541(6) 0.3537(5)
C5 C 0.1624(6) 0.1163(6) 0.3366(5)
C6 C 0.2331(6) 0.0391(7) 0.1651(5)
C7 C 0.2995(7) -0.0344(7) 0.1798(6)
C8 C 0.2850(7) -0.1105(7) 0.1266(6)
C9 C 0.2036(7) -0.1168(6) 0.0605(6)
C10 C 0.1343(7) -0.0446(6) 0.0478(6)
C11 C 0.1499(7) 0.0316(7) 0.1010(6)
C12 C 0.1891(8) -0.2001(7) 0.0023(7)
C13 C 0.3348(6) 0.1690(6) 0.2273(5)
C14 C 0.4027(6) 0.1515(6) 0.1700(6)
C15 C 0.3689(8) 0.1681(7) 0.0842(6)
C16 C 0.4296(9) 0.1500(8) 0.0294(7)
C17 C 0.5216(9) 0.1132(9) 0.0595(8)
C18 C 0.5588(9) 0.099(1) 0.1434(9)
C19 C 0.4989(7) 0.1178(8) 0.2001(8)
C20 C 0.4411(7) 0.2959(7) 0.3022(6)
C21 C 0.5199(7) 0.2811(8) 0.3674(7)
C22 C 0.6003(8) 0.3428(8) 0.3825(7)
C23 C 0.5977(8) 0.4195(7) 0.3310(6)
C24 C 0.5153(7) 0.4352(7) 0.2673(6)
C25 C 0.4363(7) 0.3733(7) 0.2513(6)
C26 C 0.6864(8) 0.4861(9) 0.3451(9)
C27 C 0.0833(7) 0.2704(6) 0.1509(6)
C28 C -0.0086(8) 0.3959(8) 0.0789(7)
C29 C -0.0630(7) 0.2691(7) 0.2801(6)
C30 C -0.2320(8) 0.285(1) 0.214(1)
C31 C 0.0265(7) 0.1415(6) 0.4263(6)
C32 C 0.0529(7) 0.1158(8) 0.5720(6)
C33 C 0.2317(6) 0.0506(7) 0.3885(6)
C34 C 0.2473(8) -0.0719(8) 0.4895(7)
H1 H 0.355 -0.031 0.227
H2 H 0.333 -0.160 0.136
H3 H 0.077 -0.048 0.003
H4 H 0.102 0.081 0.093
H5 H 0.303 0.191 0.064
H6 H 0.407 0.163 -0.029
H7 H 0.561 0.097 0.020
H8 H 0.625 0.076 0.161
H9 H 0.524 0.107 0.259
H10 H 0.521 0.229 0.404
H11 H 0.657 0.334 0.428
H12 H 0.513 0.489 0.233
H13 H 0.379 0.383 0.207
H14 H 0.129 -0.193 -0.040
H15 H 0.244 -0.205 -0.024
H16 H 0.185 -0.255 0.034
H17 H 0.674 0.535 0.304
H18 H 0.697 0.512 0.400
H19 H 0.744 0.452 0.340
H20 H -0.061 0.437 0.084
H21 H 0.050 0.431 0.078
H22 H -0.028 0.361 0.028
H23 H -0.282 0.254 0.172
H24 H -0.252 0.286 0.266
H25 H -0.223 0.347 0.196
H26 H 0.105 0.113 0.622
H27 H 0.007 0.163 0.578
H28 H 0.019 0.057 0.564
H29 H 0.207 -0.111 0.516
H30 H 0.286 -0.110 0.460
H31 H 0.291 -0.036 0.532
H32 H 0.306(6) 0.241(7) 0.313(6)
loop_
_geom_bond_atom_site_label_1
_geom_bond_atom_site_label_2
_geom_bond_site_symmetry_1
_geom_bond_site_symmetry_2
O1 C27 1_555 1_555
O2 C27 1_555 1_555
O3 C29 1_555 1_555
O4 C29 1_555 1_555
O5 C31 1_555 1_555
O6 C31 1_555 1_555
O7 C33 1_555 1_555
O8 C33 1_555 1_555
N1 C1 1_555 1_555
N2 C13 1_555 1_555
C1 C2 1_555 1_555
C2 C3 1_555 1_555
C3 C4 1_555 1_555
C4 C5 1_555 1_555
C5 C1 1_555 1_555
C6 N1 1_555 1_555
C7 C6 1_555 1_555
C8 C7 1_555 1_555
C9 C8 1_555 1_555
C10 C9 1_555 1_555
C11 C6 1_555 1_555
C12 C9 1_555 1_555
C13 N1 1_555 1_555
C14 C13 1_555 1_555
C15 C14 1_555 1_555
C16 C15 1_555 1_555
C17 C16 1_555 1_555
C18 C17 1_555 1_555
C19 C14 1_555 1_555
C20 N2 1_555 1_555
C21 C20 1_555 1_555
C22 C21 1_555 1_555
C23 C22 1_555 1_555
C24 C23 1_555 1_555
C25 C20 1_555 1_555
C26 C23 1_555 1_555
C27 C2 1_555 1_555
C28 O2 1_555 1_555
C29 C3 1_555 1_555
C30 O4 1_555 1_555
C31 C4 1_555 1_555
C32 O6 1_555 1_555
C33 C5 1_555 1_555
C34 O8 1_555 1_555
H1 C7 1_555 1_555
H2 C8 1_555 1_555
H3 C10 1_555 1_555
H4 C11 1_555 1_555
H5 C15 1_555 1_555
H6 C16 1_555 1_555
H7 C17 1_555 1_555
H8 C18 1_555 1_555
H9 C19 1_555 1_555
H10 C21 1_555 1_555
H11 C22 1_555 1_555
H12 C24 1_555 1_555
H13 C25 1_555 1_555
H14 C12 1_555 1_555
H15 C12 1_555 1_555
H16 C12 1_555 1_555
H17 C26 1_555 1_555
H18 C26 1_555 1_555
H19 C26 1_555 1_555
H20 C28 1_555 1_555
H21 C28 1_555 1_555
H22 C28 1_555 1_555
H23 C30 1_555 1_555
H24 C30 1_555 1_555
H25 C30 1_555 1_555
H26 C32 1_555 1_555
H27 C32 1_555 1_555
H28 C32 1_555 1_555
H29 C34 1_555 1_555
H30 C34 1_555 1_555
H31 C34 1_555 1_555
H32 N2 1_555 1_555
C10 C11 1_555 1_555
C18 C19 1_555 1_555
C24 C25 1_555 1_555

#END
