
#######################################################################
#
#                 Cambridge Crystallographic Data Centre
#                                CCDC 
#
#######################################################################
#
# If this CIF has been generated from an entry in the Cambridge 
# Structural Database, then it will include bibliographic, chemical, 
# crystal, experimental, refinement or atomic coordinate data resulting 
# from the CCDC's data processing and validation procedures.
#
#######################################################################

data_SEKBEP
_chemical_formula_moiety         'C56 H72 O12'
_chemical_name_systematic        
5,11,17,23-Tetra-t-butyl-25,26,27,28-tetrakis(methoxycarbonylmethoxy)calix(4)arene
_symmetry_cell_setting           monoclinic
_symmetry_space_group_name_H-M   'C 2/c'
_symmetry_Int_Tables_number      15
_space_group_name_Hall           '-C 2yn'
loop_
_symmetry_equiv_pos_site_id
_symmetry_equiv_pos_as_xyz
1 x,y,z
2 1/2+x,1/2+y,z
3 -x,y,1/2-z
4 1/2-x,1/2+y,1/2-z
5 -x,-y,-z
6 1/2-x,1/2-y,-z
7 x,-y,1/2+z
8 1/2+x,1/2-y,1/2+z
_cell_length_a                   27.066(6)
_cell_length_b                   21.392(6)
_cell_length_c                   21.348(7)
_cell_angle_alpha                90
_cell_angle_beta                 119.32(2)
_cell_angle_gamma                90
_cell_volume                     10777
_chemical_melting_point          216-218deg.C
_cell_formula_units_Z            8
loop_
_atom_site_label
_atom_site_type_symbol
_atom_site_fract_x
_atom_site_fract_y
_atom_site_fract_z
O1 O 0.1647(2) 0.0493(2) 0.5146(2)
O2 O 0.0544(4) 0.0243(5) 0.5023(4)
O3 O 0.0206(4) 0.0196(5) 0.3858(5)
C1 C 0.1759(3) 0.0960(3) 0.5640(3)
C2 C 0.1919(3) 0.1549(3) 0.5534(3)
C3 C 0.2053(3) 0.1999(3) 0.6069(3)
C4 C 0.2044(3) 0.1872(4) 0.6707(3)
C5 C 0.1913(3) 0.1273(4) 0.6803(3)
C6 C 0.1778(3) 0.0812(3) 0.6289(3)
C7 C 0.1969(3) 0.1714(3) 0.4874(3)
C8 C 0.2178(4) 0.2381(4) 0.7264(4)
C9 C 0.2235(6) 0.3002(5) 0.7044(6)
C10 C 0.1717(6) 0.2421(7) 0.7424(6)
C11 C 0.267(1) 0.2242(7) 0.7908(7)
C12 C 0.1139(4) 0.0368(5) 0.4610(5)
C13 C 0.0622(5) 0.0295(7) 0.4559(7)
C14 C -0.0337(5) 0.0058(9) 0.3752(9)
O6 O 0.1497(2) -0.0914(2) 0.5490(2)
O7 O 0.0462(2) -0.1245(3) 0.4516(3)
O8 O 0.0265(2) -0.1581(3) 0.5326(3)
C17 C 0.2054(3) -0.0786(3) 0.6028(3)
C18 C 0.2150(3) -0.0282(3) 0.6510(3)
C19 C 0.2698(3) -0.0149(3) 0.7009(3)
C20 C 0.3161(3) -0.0478(4) 0.7071(3)
C21 C 0.3043(3) -0.0949(4) 0.6564(4)
C22 C 0.2497(3) -0.1111(3) 0.6043(3)
C23 C 0.1689(3) 0.0140(4) 0.6450(3)
C24 C 0.3748(3) -0.0298(4) 0.7594(4)
C25 C 0.4191(4) -0.0544(8) 0.7452(5)
C26 C 0.3866(5) -0.0484(8) 0.8350(6)
C27 C 0.3826(5) 0.0417(7) 0.7602(8)
C28 C 0.1176(3) -0.1262(4) 0.5723(4)
C29 C 0.0612(3) -0.1358(4) 0.5130(3)
C30 C -0.0327(3) -0.1707(5) 0.4744(5)
O9 O 0.1731(2) 0.0786(2) 0.3801(2)
O10 O 0.1101(5) 0.1818(4) 0.3201(4)
O11 O 0.0967(3) 0.1650(3) 0.2200(3)
C31 C 0.2286(3) 0.0885(3) 0.4285(3)
C32 C 0.2700(3) 0.0520(3) 0.4280(3)
C33 C 0.3274(3) 0.0670(3) 0.4770(4)
C34 C 0.3433(3) 0.1134(3) 0.5273(3)
C35 C 0.3001(3) 0.1464(3) 0.5311(3)
C36 C 0.2427(3) 0.1350(3) 0.4816(3)
C37 C 0.2561(3) -0.0062(4) 0.3822(3)
C38 C 0.4050(3) 0.1317(4) 0.5722(4)
C39 C 0.4432(5) 0.0796(5) 0.5919(7)
C40 C 0.4201(4) 0.1780(7) 0.5318(6)
C41 C 0.4165(4) 0.1643(7) 0.6417(6)
C42 C 0.1565(3) 0.0969(4) 0.3078(4)
C43 C 0.1195(4) 0.1527(4) 0.2828(4)
C44 C 0.0591(5) 0.2163(6) 0.1920(5)
O12 O 0.1917(2) -0.0705(2) 0.4334(2)
O13 O 0.1245(2) -0.0609(4) 0.2844(3)
O14 O 0.0776(3) -0.1442(4) 0.2842(3)
C45 C 0.2452(3) -0.0923(3) 0.4535(3)
C46 C 0.2696(3) -0.1394(3) 0.5068(4)
C47 C 0.3231(3) -0.1608(4) 0.5249(4)
C48 C 0.3548(3) -0.1369(3) 0.4982(3)
C49 C 0.3307(3) -0.0873(4) 0.4480(4)
C50 C 0.2768(3) -0.0640(3) 0.4261(3)
C51 C 0.2412(3) -0.1599(4) 0.5508(3)
C52 C 0.4129(3) -0.1590(4) 0.5179(4)
C53 C 0.4540(5) -0.1074(6) 0.546(1)
C54 C 0.4146(4) -0.1859(7) 0.4524(6)
C55 C 0.4342(5) -0.2088(7) 0.5752(7)
C56 C 0.1471(3) -0.1139(4) 0.3949(4)
C57 C 0.1163(3) -0.1013(5) 0.3158(4)
C58 C 0.0431(6) -0.1387(8) 0.2076(6)
H1 H 0.2733 -0.0029 0.3527
H2 H 0.2161 -0.0089 0.3526
H3 H 0.2571 -0.1981 0.5747
H4 H 0.2014 -0.1655 0.5192
H5 H 0.1681 0.0131 0.6891
H6 H 0.1336 -0.0006 0.6073
H7 H 0.2051 0.2146 0.4891
H8 H 0.1614 0.1628 0.4457
H9 H 0.3563 0.0434 0.4748
H10 H 0.3096 0.1767 0.5675
H11 H 0.3380 -0.1946 0.5580
H12 H 0.3524 -0.0690 0.4286
H13 H 0.2764 0.0187 0.7332
H14 H 0.3353 -0.1170 0.6574
H15 H 0.2150 0.2408 0.5994
H16 H 0.1917 0.1170 0.7238
H17 H 0.4812 0.0941 0.6199
H18 H 0.4352 0.0502 0.6188
H19 H 0.4393 0.0600 0.5495
H20 H 0.4593 0.1891 0.5600
H21 H 0.4147 0.1593 0.4880
H22 H 0.3975 0.2140 0.5211
H23 H 0.4552 0.1750 0.6685
H24 H 0.3939 0.2011 0.6301
H25 H 0.4066 0.1370 0.6690
H26 H 0.4905 -0.1228 0.5578
H27 H 0.4432 -0.0759 0.5098
H28 H 0.4549 -0.0901 0.5872
H29 H 0.4517 -0.1997 0.4665
H30 H 0.3889 -0.2202 0.4437
H31 H 0.4036 -0.1544 0.4167
H32 H 0.4705 -0.2216 0.5856
H33 H 0.4346 -0.1928 0.6170
H34 H 0.4086 -0.2438 0.5578
H35 H 0.4551 -0.0402 0.7816
H36 H 0.4181 -0.0987 0.7450
H37 H 0.4126 -0.0396 0.6997
H38 H 0.4244 -0.0369 0.8689
H39 H 0.3609 -0.0273 0.8457
H40 H 0.3822 -0.0922 0.8366
H41 H 0.4206 0.0520 0.7943
H42 H 0.3747 0.0552 0.7139
H43 H 0.3575 0.0615 0.7731
H44 H 0.2316 0.3287 0.7424
H45 H 0.2531 0.3007 0.6931
H46 H 0.1888 0.3118 0.6633
H47 H 0.1792 0.2738 0.7769
H48 H 0.1373 0.2523 0.6991
H49 H 0.1668 0.2032 0.7599
H50 H 0.2744 0.2570 0.8240
H51 H 0.2626 0.1860 0.8090
H52 H 0.2980 0.2214 0.7810
H53 H 0.0457 0.2192 0.1417
H54 H 0.0291 0.2116 0.2013
H55 H 0.0799 0.2538 0.2145
H56 H 0.0159 -0.1717 0.1897
H57 H 0.0233 -0.0996 0.1959
H58 H 0.0660 -0.1406 0.1856
H59 H -0.0541 -0.1869 0.4951
H60 H -0.0493 -0.1328 0.4499
H61 H -0.0320 -0.2001 0.4416
H62 H 0.1898 0.1057 0.3051
H63 H 0.1369 0.0628 0.2767
H64 H 0.1629 -0.1547 0.4028
H65 H 0.1210 -0.1115 0.4123
H66 H 0.1353 -0.1657 0.5898
H67 H 0.1157 -0.1042 0.6097
O4? O 0.0677(5) 0.1159(6) 0.4024(6)
O5? O 0.0422(5) 0.0248(6) 0.3513(6)
C15? C 0.0747(7) 0.0599(7) 0.4100(9)
C16? C 0.0007(10) 0.0571(12) 0.2838(9)
loop_
_geom_bond_atom_site_label_1
_geom_bond_atom_site_label_2
_geom_bond_site_symmetry_1
_geom_bond_site_symmetry_2
O1 C1 1_555 1_555
O2 C13 1_555 1_555
O3 C13 1_555 1_555
C1 C2 1_555 1_555
C2 C3 1_555 1_555
C3 C4 1_555 1_555
C4 C5 1_555 1_555
C5 C6 1_555 1_555
C6 C1 1_555 1_555
C7 C2 1_555 1_555
C8 C4 1_555 1_555
C9 C8 1_555 1_555
C10 C8 1_555 1_555
C11 C8 1_555 1_555
C12 O1 1_555 1_555
C13 C12 1_555 1_555
C14 O3 1_555 1_555
O6 C17 1_555 1_555
O7 C29 1_555 1_555
O8 C29 1_555 1_555
C17 C18 1_555 1_555
C18 C19 1_555 1_555
C19 C20 1_555 1_555
C20 C21 1_555 1_555
C21 C22 1_555 1_555
C22 C17 1_555 1_555
C23 C6 1_555 1_555
C24 C20 1_555 1_555
C25 C24 1_555 1_555
C26 C24 1_555 1_555
C27 C24 1_555 1_555
C28 O6 1_555 1_555
C29 C28 1_555 1_555
C30 O8 1_555 1_555
O9 C31 1_555 1_555
O10 C43 1_555 1_555
O11 C43 1_555 1_555
C31 C32 1_555 1_555
C32 C33 1_555 1_555
C33 C34 1_555 1_555
C34 C35 1_555 1_555
C35 C36 1_555 1_555
C36 C7 1_555 1_555
C37 C32 1_555 1_555
C38 C34 1_555 1_555
C39 C38 1_555 1_555
C40 C38 1_555 1_555
C41 C38 1_555 1_555
C42 O9 1_555 1_555
C43 C42 1_555 1_555
C44 O11 1_555 1_555
O12 C45 1_555 1_555
O13 C57 1_555 1_555
O14 C57 1_555 1_555
C45 C46 1_555 1_555
C46 C47 1_555 1_555
C47 C48 1_555 1_555
C48 C49 1_555 1_555
C49 C50 1_555 1_555
C50 C37 1_555 1_555
C51 C22 1_555 1_555
C52 C48 1_555 1_555
C53 C52 1_555 1_555
C54 C52 1_555 1_555
C55 C52 1_555 1_555
C56 O12 1_555 1_555
C57 C56 1_555 1_555
C58 O14 1_555 1_555
H1 C37 1_555 1_555
H2 C37 1_555 1_555
H3 C51 1_555 1_555
H4 C51 1_555 1_555
H5 C23 1_555 1_555
H6 C23 1_555 1_555
H7 C7 1_555 1_555
H8 C7 1_555 1_555
H9 C33 1_555 1_555
H10 C35 1_555 1_555
H11 C47 1_555 1_555
H12 C49 1_555 1_555
H13 C19 1_555 1_555
H14 C21 1_555 1_555
H15 C3 1_555 1_555
H16 C5 1_555 1_555
H17 C39 1_555 1_555
H18 C39 1_555 1_555
H19 C39 1_555 1_555
H20 C40 1_555 1_555
H21 C40 1_555 1_555
H22 C40 1_555 1_555
H23 C41 1_555 1_555
H24 C41 1_555 1_555
H25 C41 1_555 1_555
H26 C53 1_555 1_555
H27 C53 1_555 1_555
H28 C53 1_555 1_555
H29 C54 1_555 1_555
H30 C54 1_555 1_555
H31 C54 1_555 1_555
H32 C55 1_555 1_555
H33 C55 1_555 1_555
H34 C55 1_555 1_555
H35 C25 1_555 1_555
H36 C25 1_555 1_555
H37 C25 1_555 1_555
H38 C26 1_555 1_555
H39 C26 1_555 1_555
H40 C26 1_555 1_555
H41 C27 1_555 1_555
H42 C27 1_555 1_555
H43 C27 1_555 1_555
H44 C9 1_555 1_555
H45 C9 1_555 1_555
H46 C9 1_555 1_555
H47 C10 1_555 1_555
H48 C10 1_555 1_555
H49 C10 1_555 1_555
H50 C11 1_555 1_555
H51 C11 1_555 1_555
H52 C11 1_555 1_555
H53 C44 1_555 1_555
H54 C44 1_555 1_555
H55 C44 1_555 1_555
H56 C58 1_555 1_555
H57 C58 1_555 1_555
H58 C58 1_555 1_555
H59 C30 1_555 1_555
H60 C30 1_555 1_555
H61 C30 1_555 1_555
H62 C42 1_555 1_555
H63 C42 1_555 1_555
H64 C56 1_555 1_555
H65 C56 1_555 1_555
H66 C28 1_555 1_555
H67 C28 1_555 1_555
C18 C23 1_555 1_555
C31 C36 1_555 1_555
C45 C50 1_555 1_555
C46 C51 1_555 1_555

#END
