
#######################################################################
#
#                 Cambridge Crystallographic Data Centre
#                                CCDC 
#
#######################################################################
#
# If this CIF has been generated from an entry in the Cambridge 
# Structural Database, then it will include bibliographic, chemical, 
# crystal, experimental, refinement or atomic coordinate data resulting 
# from the CCDC's data processing and validation procedures.
#
#######################################################################

data_SEKDOE
_chemical_formula_moiety         '2(H5 N2 1+),C7 H3 N5 O8 2-'
_chemical_name_systematic        
'bis(hydrazinium) dinitro(pyridin-2-yl)methanide'
_symmetry_cell_setting           orthorhombic
_symmetry_space_group_name_H-M   'P b c n'
_symmetry_Int_Tables_number      60
_space_group_name_Hall           '-P 2n 2ab'
loop_
_symmetry_equiv_pos_site_id
_symmetry_equiv_pos_as_xyz
1 x,y,z
2 1/2-x,1/2-y,1/2+z
3 -x,y,1/2-z
4 1/2+x,1/2-y,-z
5 -x,-y,-z
6 1/2+x,1/2+y,1/2-z
7 x,-y,1/2+z
8 1/2-x,1/2+y,z
_cell_length_a                   27.413(6)
_cell_length_b                   7.2092(14)
_cell_length_c                   6.6259(13)
_cell_angle_alpha                90
_cell_angle_beta                 90
_cell_angle_gamma                90
_cell_volume                     1309.45
_exptl_crystal_colour            yellow
_exptl_crystal_description       plate
_chemical_melting_point          '125 deg.C (dec.)'
_cell_formula_units_Z            4
_exptl_crystal_recrystallization_method water
loop_
_atom_site_label
_atom_site_type_symbol
_atom_site_fract_x
_atom_site_fract_y
_atom_site_fract_z
O1 O 0.54794(8) 0.9865(3) 0.5528(4)
O2 O 0.63107(8) 0.5502(3) 0.8997(4)
N1 N 0.5000 0.7296(5) 0.7500
N2 N 0.58717(9) 0.9333(4) 0.6309(4)
O3 O 0.62243(9) 1.0416(4) 0.6420(5)
N3 N 0.63222(10) 0.6840(4) 0.7814(4)
C1 C 0.54362(11) 0.4490(4) 0.7235(4)
H1 H 0.5731 0.3823 0.7020
C2 C 0.54368(10) 0.6431(4) 0.7287(4)
C3 C 0.5000 0.3561(6) 0.7500
H2 H 0.5000 0.2244 0.7500
C4 C 0.58787(10) 0.7542(4) 0.7106(5)
O4 O 0.67176(9) 0.7502(4) 0.7252(5)
O1B O 0.45206(8) 0.9865(3) 0.9472(4)
O2B O 0.36893(8) 0.5502(3) 0.6003(4)
N2B N 0.41283(9) 0.9333(4) 0.8691(4)
O3B O 0.37757(9) 1.0416(4) 0.8580(5)
N3B N 0.36778(10) 0.6840(4) 0.7186(4)
C1B C 0.45638(11) 0.4490(4) 0.7765(4)
H1B H 0.4269 0.3823 0.7980
C2B C 0.45632(10) 0.6431(4) 0.7713(4)
C4B C 0.41213(10) 0.7542(4) 0.7894(5)
O4B O 0.32824(9) 0.7502(4) 0.7748(5)
N4 N 0.7127(3) 1.2775(15) 0.7380(16)
H3 H 0.7013 1.3444 0.6417
H4 H 0.6913 1.2682 0.8323
N5 N 0.7239(5) 1.106(2) 0.660(3)
H5 H 0.7237 1.1080 0.5261
H6 H 0.7533 1.0721 0.7040
H7 H 0.7018 1.0246 0.7040
N6? N 0.7202(6) 1.108(2) 0.843(4)
H8? H 0.7240 1.0184 0.7522
H9? H 0.7467 1.1160 0.9196
H10? H 0.6944 1.0837 0.9196
N7? N 0.7308(6) 1.412(3) 0.595(3)
H11? H 0.7251 1.3707 0.4704
H12? H 0.7160 1.5202 0.6127
H13? H 0.7628 1.4254 0.6127
N8? N 0.7299(8) 1.417(3) 0.871(4)
H14? H 0.7421 1.5116 0.8000
H15? H 0.7056 1.4582 0.9482
H16? H 0.7532 1.3691 0.9482
H17? H 0.6872 1.3315 0.7855
H18? H 0.7296 1.2839 0.8472
H19? H 0.6828 1.3030 0.7643
H20? H 0.6832 1.3033 0.7046
H21? H 0.7135 1.1712 0.7969
H22? H 0.7089 1.2573 0.6111
loop_
_geom_bond_atom_site_label_1
_geom_bond_atom_site_label_2
_geom_bond_site_symmetry_1
_geom_bond_site_symmetry_2
O1 N2 1_555 1_555
O2 N3 1_555 1_555
N1 C2 1_555 1_555
N2 O3 1_555 1_555
N3 C4 1_555 1_555
C1 H1 1_555 1_555
C2 C1 1_555 1_555
C3 C1 1_555 1_555
H2 C3 1_555 1_555
C4 N2 1_555 1_555
O4 N3 1_555 1_555
N4 H3 1_555 1_555
H4 N4 1_555 1_555
N5 N4 1_555 1_555
H5 N5 1_555 1_555
H6 N5 1_555 1_555
H7 N5 1_555 1_555
O1B N2B 1_555 1_555
O2B N3B 1_555 1_555
N2B O3B 1_555 1_555
N3B C4B 1_555 1_555
C1B C3 1_555 1_555
H1B C1B 1_555 1_555
C2B N1 1_555 1_555
C4B N2B 1_555 1_555
O4B N3B 1_555 1_555
C2 C4 1_555 1_555
C1B C2B 1_555 1_555
C2B C4B 1_555 1_555

#END
