
#######################################################################
#
#                 Cambridge Crystallographic Data Centre
#                                CCDC 
#
#######################################################################
#
# If this CIF has been generated from an entry in the Cambridge 
# Structural Database, then it will include bibliographic, chemical, 
# crystal, experimental, refinement or atomic coordinate data resulting 
# from the CCDC's data processing and validation procedures.
#
#######################################################################

data_SEKFAP
_chemical_formula_moiety         'C18 H28 O2'
_chemical_name_systematic        
3-(Cyclohexyl(methoxy)methyl)-6,6-dimethyl-1,2,3,4,5,6-hexahydrocyclopentalen-1-one
_symmetry_cell_setting           orthorhombic
_symmetry_space_group_name_H-M   'P b c a'
_symmetry_Int_Tables_number      61
_space_group_name_Hall           '-P 2ac 2ab'
loop_
_symmetry_equiv_pos_site_id
_symmetry_equiv_pos_as_xyz
1 x,y,z
2 1/2-x,1/2+y,z
3 x,1/2-y,1/2+z
4 1/2-x,-y,1/2+z
5 -x,-y,-z
6 1/2+x,1/2-y,-z
7 -x,1/2+y,1/2-z
8 1/2+x,y,1/2-z
_cell_length_a                   12.676(1)
_cell_length_b                   10.7165(8)
_cell_length_c                   24.357(3)
_cell_angle_alpha                90
_cell_angle_beta                 90
_cell_angle_gamma                90
_cell_volume                     3308.71
_exptl_crystal_colour            colorless
_cell_formula_units_Z            8
loop_
_atom_site_label
_atom_site_type_symbol
_atom_site_fract_x
_atom_site_fract_y
_atom_site_fract_z
O1 O 0.3057(3) 0.0622(3) 0.4360(1)
C1 C 0.1410(4) 0.1742(5) 0.3627(2)
C2 C 0.2453(4) 0.1698(4) 0.4514(2)
C3 C 0.1010(3) 0.0801(4) 0.3352(2)
C4 C 0.1381(4) 0.1605(5) 0.4241(2)
C5 C 0.0994(4) 0.0983(4) 0.2739(2)
C6 C 0.2425(4) 0.1773(4) 0.5139(2)
C7 C 0.0832(4) 0.0331(5) 0.4305(2)
C8 C 0.3538(4) 0.1808(5) 0.5374(2)
C9 C 0.1797(4) 0.2901(5) 0.5341(2)
C10 C 0.0636(4) -0.0157(5) 0.3727(2)
C11 C 0.3544(4) 0.1960(6) 0.5995(2)
C12 C 0.1830(4) 0.3052(6) 0.5957(2)
C13 C 0.1775(5) 0.2764(5) 0.3257(2)
O2 O 0.0248(4) -0.1150(4) 0.3625(2)
C14 C 0.1632(5) 0.2205(5) 0.2691(2)
C15 C 0.2946(5) 0.3106(6) 0.6169(2)
C16 C -0.0116(5) 0.1170(6) 0.2533(2)
C17 C 0.3919(5) 0.0832(6) 0.4025(3)
C18 C 0.1527(5) -0.0061(5) 0.2437(2)
H1 H 0.2805 0.2421 0.4380
H2 H 0.0934 0.2234 0.4389
H3 H 0.2086 0.1041 0.5274
H4 H 0.1265 -0.0223 0.4503
H5 H 0.0176 0.0437 0.4492
H6 H 0.3900 0.1069 0.5281
H7 H 0.3906 0.2509 0.5218
H8 H 0.2091 0.3608 0.5165
H9 H 0.1092 0.2782 0.5221
H10 H 0.3200 0.1252 0.6158
H11 H 0.4241 0.2011 0.6129
H12 H 0.1483 0.3840 0.6043
H13 H 0.1457 0.2406 0.6128
H14 H 0.1359 0.3490 0.3302
H15 H 0.2495 0.2956 0.3330
H16 H 0.2313 0.2029 0.2536
H17 H 0.1277 0.2780 0.2461
H18 H 0.2945 0.3166 0.6555
H19 H 0.3300 0.3819 0.6018
H20 H -0.0408 0.1883 0.2710
H21 H -0.0100 0.1286 0.2153
H22 H -0.0515 0.0453 0.2627
H23 H 0.4265 0.0069 0.3948
H24 H 0.3694 0.1208 0.3690
H25 H 0.4401 0.1384 0.4205
H26 H 0.1159 -0.0812 0.2510
H27 H 0.1512 0.0113 0.2055
H28 H 0.2235 -0.0131 0.2558
loop_
_geom_bond_atom_site_label_1
_geom_bond_atom_site_label_2
_geom_bond_site_symmetry_1
_geom_bond_site_symmetry_2
O1 C2 1_555 1_555
C1 C3 1_555 1_555
C2 C4 1_555 1_555
C3 C5 1_555 1_555
C4 C1 1_555 1_555
C5 C14 1_555 1_555
C6 C2 1_555 1_555
C7 C4 1_555 1_555
C8 C6 1_555 1_555
C9 C6 1_555 1_555
C10 C3 1_555 1_555
C11 C8 1_555 1_555
C12 C9 1_555 1_555
C13 C1 1_555 1_555
O2 C10 1_555 1_555
C14 C13 1_555 1_555
C15 C11 1_555 1_555
C16 C5 1_555 1_555
C17 O1 1_555 1_555
C18 C5 1_555 1_555
H1 C2 1_555 1_555
H2 C4 1_555 1_555
H3 C6 1_555 1_555
H4 C7 1_555 1_555
H5 C7 1_555 1_555
H6 C8 1_555 1_555
H7 C8 1_555 1_555
H8 C9 1_555 1_555
H9 C9 1_555 1_555
H10 C11 1_555 1_555
H11 C11 1_555 1_555
H12 C12 1_555 1_555
H13 C12 1_555 1_555
H14 C13 1_555 1_555
H15 C13 1_555 1_555
H16 C14 1_555 1_555
H17 C14 1_555 1_555
H18 C15 1_555 1_555
H19 C15 1_555 1_555
H20 C16 1_555 1_555
H21 C16 1_555 1_555
H22 C16 1_555 1_555
H23 C17 1_555 1_555
H24 C17 1_555 1_555
H25 C17 1_555 1_555
H26 C18 1_555 1_555
H27 C18 1_555 1_555
H28 C18 1_555 1_555
C7 C10 1_555 1_555
C12 C15 1_555 1_555

#END
