
#######################################################################
#
#                 Cambridge Crystallographic Data Centre
#                                CCDC 
#
#######################################################################
#
# If this CIF has been generated from an entry in the Cambridge 
# Structural Database, then it will include bibliographic, chemical, 
# crystal, experimental, refinement or atomic coordinate data resulting 
# from the CCDC's data processing and validation procedures.
#
#######################################################################

data_SEKGIB
_chemical_formula_moiety         'C35 H30 Br1 N3 O2'
_chemical_name_systematic        
3-(4-bromophenyl)-5-(9-(4-methylbenzyl)-2-phenyl-2,3,4,9-tetrahydro-1H-\b-carbolin-1-yl)-4,5-dihydro-1,2-oxazole-5-carbaldehyde
_symmetry_cell_setting           triclinic
_symmetry_space_group_name_H-M   'P -1'
_symmetry_Int_Tables_number      2
_space_group_name_Hall           '-P 1'
loop_
_symmetry_equiv_pos_site_id
_symmetry_equiv_pos_as_xyz
1 x,y,z
2 -x,-y,-z
_cell_length_a                   10.6203(4)
_cell_length_b                   11.0296(4)
_cell_length_c                   13.8669(5)
_cell_angle_alpha                102.003(3)
_cell_angle_beta                 107.216(3)
_cell_angle_gamma                99.873(3)
_cell_volume                     1469.68
_exptl_crystal_colour            yellow
_exptl_crystal_description       block
_cell_formula_units_Z            2
loop_
_atom_site_label
_atom_site_type_symbol
_atom_site_fract_x
_atom_site_fract_y
_atom_site_fract_z
Br1 Br 0.34076(6) 0.71258(4) 0.34408(4)
O1 O 0.1026(2) -0.0525(2) 0.30370(15)
O2 O 0.1255(3) -0.1052(3) 0.0605(2)
N1 N -0.2035(2) -0.0982(2) 0.31789(17)
N2 N -0.1728(3) -0.2489(2) 0.06043(18)
N3 N 0.1672(2) 0.0802(3) 0.34367(19)
C1 C -0.3151(3) -0.0513(3) 0.3215(2)
C2 C -0.3537(4) -0.0032(3) 0.4066(3)
H1 H -0.3034 -0.0016 0.4745
C3 C -0.4685(4) 0.0416(4) 0.3864(3)
H2 H -0.4957 0.0747 0.4421
C4 C -0.5454(4) 0.0394(4) 0.2860(3)
H3 H -0.6224 0.0713 0.2757
C5 C -0.5095(3) -0.0092(4) 0.2017(3)
H4 H -0.5623 -0.0115 0.1342
C6 C -0.3924(3) -0.0553(3) 0.2183(2)
C7 C -0.3252(3) -0.1082(3) 0.1517(2)
C8 C -0.2125(3) -0.1334(3) 0.2135(2)
C9 C -0.1103(3) -0.1839(3) 0.1739(2)
H5 H -0.0828 -0.2474 0.2103
C10 C -0.2486(3) -0.1729(3) 0.0005(2)
H6 H -0.2863 -0.2212 -0.0730
H7 H -0.1850 -0.0952 0.0061
C11 C -0.3635(4) -0.1363(4) 0.0346(3)
H8 H -0.3828 -0.0613 0.0129
H9 H -0.4451 -0.2058 0.0009
C12 C 0.0197(3) -0.0799(3) 0.1928(2)
C13 C 0.0063(3) 0.0508(3) 0.1787(2)
H10 H 0.0220 0.0629 0.1155
H11 H -0.0824 0.0639 0.1767
C14 C 0.1174(3) 0.1373(3) 0.2760(2)
C15 C 0.1688(3) 0.2759(3) 0.2943(2)
C16 C 0.1337(3) 0.3323(3) 0.2122(3)
H12 H 0.0750 0.2821 0.1463
C17 C 0.1845(4) 0.4614(3) 0.2269(3)
H13 H 0.1607 0.4976 0.1713
C18 C 0.2701(4) 0.5351(3) 0.3240(3)
C19 C 0.3053(5) 0.4821(4) 0.4074(3)
H14 H 0.3622 0.5334 0.4734
C20 C 0.2559(4) 0.3535(4) 0.3923(3)
H15 H 0.2810 0.3180 0.4482
C21 C 0.0998(3) -0.1396(3) 0.1301(3)
H16 H 0.1315 -0.2086 0.1473
C22 C -0.2244(3) -0.3835(3) 0.0313(2)
C23 C -0.1426(4) -0.4582(4) 0.0730(3)
H17 H -0.0575 -0.4193 0.1241
C24 C -0.1861(5) -0.5900(4) 0.0393(4)
H18 H -0.1297 -0.6384 0.0687
C25 C -0.3092(4) -0.6507(4) -0.0356(4)
H19 H -0.3362 -0.7396 -0.0590
C26 C -0.3918(4) -0.5794(4) -0.0756(3)
H20 H -0.4772 -0.6200 -0.1257
C27 C -0.3517(4) -0.4463(4) -0.0432(3)
H21 H -0.4103 -0.3992 -0.0716
C28 C -0.1215(3) -0.1452(3) 0.4010(2)
H22 H -0.1378 -0.1125 0.4655
H23 H -0.0258 -0.1117 0.4131
C29 C -0.1521(3) -0.2886(3) 0.3751(2)
C30 C -0.0484(4) -0.3506(4) 0.3934(4)
H24 H 0.0414 -0.3023 0.4224
C31 C -0.0745(6) -0.4820(5) 0.3698(5)
H25 H -0.0022 -0.5205 0.3830
C32 C -0.2041(7) -0.5565(5) 0.3274(5)
C33 C -0.3083(6) -0.4970(5) 0.3103(4)
H26 H -0.3975 -0.5467 0.2832
C34 C -0.2847(4) -0.3634(4) 0.3322(3)
H27 H -0.3574 -0.3254 0.3181
C35 C -0.2341(10) -0.7037(6) 0.2980(8)
H28 H -0.2094 -0.7338 0.2378
H29 H -0.3294 -0.7391 0.2820
H30 H -0.1823 -0.7299 0.3560
loop_
_geom_bond_atom_site_label_1
_geom_bond_atom_site_label_2
_geom_bond_site_symmetry_1
_geom_bond_site_symmetry_2
Br1 C18 1_555 1_555
O1 N3 1_555 1_555
O2 C21 1_555 1_555
N1 C1 1_555 1_555
N2 C9 1_555 1_555
N3 C14 1_555 1_555
C1 C2 1_555 1_555
C2 H1 1_555 1_555
C3 C2 1_555 1_555
H2 C3 1_555 1_555
C4 C3 1_555 1_555
H3 C4 1_555 1_555
C5 C4 1_555 1_555
H4 C5 1_555 1_555
C6 C1 1_555 1_555
C7 C6 1_555 1_555
C8 N1 1_555 1_555
C9 C8 1_555 1_555
H5 C9 1_555 1_555
C10 N2 1_555 1_555
H6 C10 1_555 1_555
H7 C10 1_555 1_555
C11 C7 1_555 1_555
H8 C11 1_555 1_555
H9 C11 1_555 1_555
C12 O1 1_555 1_555
C13 C12 1_555 1_555
H10 C13 1_555 1_555
H11 C13 1_555 1_555
C14 C13 1_555 1_555
C15 C14 1_555 1_555
C16 C15 1_555 1_555
H12 C16 1_555 1_555
C17 C16 1_555 1_555
H13 C17 1_555 1_555
C18 C17 1_555 1_555
C19 C18 1_555 1_555
H14 C19 1_555 1_555
C20 C15 1_555 1_555
H15 C20 1_555 1_555
C21 C12 1_555 1_555
H16 C21 1_555 1_555
C22 N2 1_555 1_555
C23 C22 1_555 1_555
H17 C23 1_555 1_555
C24 C23 1_555 1_555
H18 C24 1_555 1_555
C25 C24 1_555 1_555
H19 C25 1_555 1_555
C26 C25 1_555 1_555
H20 C26 1_555 1_555
C27 C22 1_555 1_555
H21 C27 1_555 1_555
C28 N1 1_555 1_555
H22 C28 1_555 1_555
H23 C28 1_555 1_555
C29 C28 1_555 1_555
C30 C29 1_555 1_555
H24 C30 1_555 1_555
C31 C30 1_555 1_555
H25 C31 1_555 1_555
C32 C31 1_555 1_555
C33 C32 1_555 1_555
H26 C33 1_555 1_555
C34 C29 1_555 1_555
H27 C34 1_555 1_555
C35 C32 1_555 1_555
H28 C35 1_555 1_555
H29 C35 1_555 1_555
H30 C35 1_555 1_555
C5 C6 1_555 1_555
C7 C8 1_555 1_555
C9 C12 1_555 1_555
C10 C11 1_555 1_555
C19 C20 1_555 1_555
C26 C27 1_555 1_555
C33 C34 1_555 1_555

#END
