
#######################################################################
#
#                 Cambridge Crystallographic Data Centre
#                                CCDC 
#
#######################################################################
#
# If this CIF has been generated from an entry in the Cambridge 
# Structural Database, then it will include bibliographic, chemical, 
# crystal, experimental, refinement or atomic coordinate data resulting 
# from the CCDC's data processing and validation procedures.
#
#######################################################################

data_SEKQAD
_chemical_formula_moiety         'C13 H12 F2 N4 O2'
_chemical_name_systematic        
N-[(2,6-difluorophenyl)carbamoyl]-1,3-dimethyl-1H-pyrazole-4-carboxamide
_symmetry_cell_setting           monoclinic
_symmetry_space_group_name_H-M   'P 21/c'
_symmetry_Int_Tables_number      14
_space_group_name_Hall           '-P 2ybc'
loop_
_symmetry_equiv_pos_site_id
_symmetry_equiv_pos_as_xyz
1 x,y,z
2 -x,1/2+y,1/2-z
3 -x,-y,-z
4 x,1/2-y,1/2+z
_cell_length_a                   9.50(2)
_cell_length_b                   10.11(2)
_cell_length_c                   14.07(3)
_cell_angle_alpha                90
_cell_angle_beta                 102.15(3)
_cell_angle_gamma                90
_cell_volume                     1321.08
_cell_formula_units_Z            4
loop_
_atom_site_label
_atom_site_type_symbol
_atom_site_fract_x
_atom_site_fract_y
_atom_site_fract_z
F1 F 0.7790(2) 0.0539(3) 0.88099(18)
F2 F 0.4051(3) 0.3015(3) 0.69114(19)
O1 O 0.8820(3) 0.2081(3) 0.6209(2)
O2 O 0.4819(3) 0.0507(3) 0.6092(2)
N1 N 1.0217(4) 0.1540(4) 0.3568(3)
N2 N 0.9154(4) 0.0623(4) 0.3225(3)
N3 N 0.6848(3) 0.0852(4) 0.5519(2)
H1 H 0.6480 0.0346 0.5020
N4 N 0.6638(4) 0.1656(4) 0.7047(3)
H2 H 0.7478 0.2043 0.7091
C1 C 1.0870(4) 0.2965(5) 0.5017(3)
H3 H 1.1419 0.2564 0.5615
H4 H 1.0258 0.3673 0.5182
H5 H 1.1537 0.3335 0.4641
C2 C 0.9147(5) -0.0028(5) 0.2297(3)
H6 H 0.9683 -0.0861 0.2413
H7 H 0.9601 0.0551 0.1890
H8 H 0.8151 -0.0211 0.1965
C3 C 0.9952(4) 0.1938(5) 0.4426(3)
C4 C 0.8738(4) 0.1261(4) 0.4633(3)
C5 C 0.8261(4) 0.0452(5) 0.3832(3)
H9 H 0.7449 -0.0118 0.3733
C6 C 0.8169(4) 0.1428(5) 0.5514(3)
C7 C 0.6044(4) 0.0990(5) 0.6234(3)
C8 C 0.5929(4) 0.1740(5) 0.7829(3)
C9 C 0.6514(4) 0.1190(5) 0.8731(3)
C10 C 0.5873(5) 0.1250(5) 0.9502(3)
H10 H 0.6305 0.0847 1.0102
C11 C 0.4578(5) 0.1910(5) 0.9396(4)
H11 H 0.4123 0.1966 0.9935
C12 C 0.3929(5) 0.2490(5) 0.8525(4)
H12 H 0.3024 0.2922 0.8451
C13 C 0.4635(4) 0.2421(5) 0.7772(4)
loop_
_geom_bond_atom_site_label_1
_geom_bond_atom_site_label_2
_geom_bond_site_symmetry_1
_geom_bond_site_symmetry_2
F1 C9 1_555 1_555
F2 C13 1_555 1_555
O1 C6 1_555 1_555
O2 C7 1_555 1_555
N1 N2 1_555 1_555
N2 C2 1_555 1_555
N3 H1 1_555 1_555
N4 H2 1_555 1_555
C1 H3 1_555 1_555
H4 C1 1_555 1_555
H5 C1 1_555 1_555
C2 H6 1_555 1_555
H7 C2 1_555 1_555
H8 C2 1_555 1_555
C3 N1 1_555 1_555
C4 C3 1_555 1_555
C5 N2 1_555 1_555
H9 C5 1_555 1_555
C6 N3 1_555 1_555
C7 N3 1_555 1_555
C8 N4 1_555 1_555
C9 C8 1_555 1_555
C10 C9 1_555 1_555
H10 C10 1_555 1_555
C11 C10 1_555 1_555
H11 C11 1_555 1_555
C12 C11 1_555 1_555
H12 C12 1_555 1_555
C13 C8 1_555 1_555
N4 C7 1_555 1_555
C1 C3 1_555 1_555
C4 C5 1_555 1_555
C4 C6 1_555 1_555
C12 C13 1_555 1_555

#END
