
#######################################################################
#
#                 Cambridge Crystallographic Data Centre
#                                CCDC 
#
#######################################################################
#
# If this CIF has been generated from an entry in the Cambridge 
# Structural Database, then it will include bibliographic, chemical, 
# crystal, experimental, refinement or atomic coordinate data resulting 
# from the CCDC's data processing and validation procedures.
#
#######################################################################

data_SEKREI
_chemical_formula_moiety         'C25 H32 O4'
_chemical_name_systematic        
2,2'-(2,2-dimethylpropane-1,1-diyl)bis(5-t-butylcyclohexa-2,5-diene-1,4-dione)
_symmetry_cell_setting           monoclinic
_symmetry_space_group_name_H-M   'P 21'
_symmetry_Int_Tables_number      4
_space_group_name_Hall           'P 2yb'
loop_
_symmetry_equiv_pos_site_id
_symmetry_equiv_pos_as_xyz
1 x,y,z
2 -x,1/2+y,-z
_cell_length_a                   6.6711(5)
_cell_length_b                   30.029(2)
_cell_length_c                   11.3380(8)
_cell_angle_alpha                90
_cell_angle_beta                 92.834(2)
_cell_angle_gamma                90
_cell_volume                     2268.52
_exptl_crystal_colour            colorless
_exptl_crystal_description       Needle
_cell_formula_units_Z            4
loop_
_atom_site_label
_atom_site_type_symbol
_atom_site_fract_x
_atom_site_fract_y
_atom_site_fract_z
C1 C 0.2574(8) 0.5876(2) -0.0586(5)
H1 H 0.1210 0.5737 -0.0611
O1 O -0.1060(6) 0.62233(16) 0.0296(4)
C2 C 0.2499(8) 0.62405(19) 0.0347(6)
O2 O 0.5550(7) 0.6905(2) 0.2295(7)
C3 C 0.4126(9) 0.6425(2) 0.0886(6)
H2 H 0.5414 0.6326 0.0678
O3 O 0.1979(7) 0.54167(16) 0.1488(4)
O4 O 0.8223(9) 0.4833(3) -0.0717(5)
C4 C 0.3993(10) 0.6774(2) 0.1789(8)
C5 C 0.1990(9) 0.6939(2) 0.2122(7)
C6 C 0.0369(9) 0.6752(2) 0.1590(6)
H3 H -0.0919 0.6854 0.1790
C7 C 0.0488(8) 0.6391(2) 0.0700(6)
C8 C 0.3990(8) 0.5509(2) -0.0147(5)
C9 C 0.5637(9) 0.5348(2) -0.0641(5)
H4 H 0.6058 0.5486 -0.1341
C10 C 0.6831(10) 0.4968(3) -0.0152(6)
C11 C 0.6258(10) 0.4752(3) 0.0959(5)
C12 C 0.4646(9) 0.4923(2) 0.1463(5)
H5 H 0.4271 0.4798 0.2189
C13 C 0.3433(9) 0.5290(2) 0.0970(5)
C14 C 0.2793(10) 0.6072(2) -0.1844(6)
C15 C 0.4809(11) 0.6300(3) -0.2012(7)
H6 H 0.4945 0.6558 -0.1484
H7 H 0.4871 0.6400 -0.2833
H8 H 0.5903 0.6090 -0.1828
C16 C 0.1139(11) 0.6419(3) -0.2084(7)
H9 H -0.0169 0.6287 -0.1943
H10 H 0.1158 0.6519 -0.2907
H11 H 0.1372 0.6675 -0.1557
C17 C 0.2438(11) 0.5697(3) -0.2749(6)
H12 H 0.3572 0.5489 -0.2696
H13 H 0.2316 0.5824 -0.3545
H14 H 0.1200 0.5538 -0.2584
C18 C 0.1864(11) 0.7295(3) 0.3101(10)
C19 C 0.2754(15) 0.7105(5) 0.4299(10)
H15 H 0.1985 0.6842 0.4518
H16 H 0.2676 0.7332 0.4916
H17 H 0.4160 0.7021 0.4215
C20 C 0.3014(15) 0.7707(4) 0.2781(17)
H18 H 0.4454 0.7640 0.2812
H19 H 0.2751 0.7945 0.3342
H20 H 0.2585 0.7802 0.1982
C21 C -0.0333(12) 0.7437(3) 0.3234(11)
H21 H -0.0918 0.7533 0.2466
H22 H -0.0379 0.7684 0.3798
H23 H -0.1099 0.7184 0.3524
C22 C 0.7362(12) 0.4313(3) 0.1434(7)
C23 C 0.9629(12) 0.4407(3) 0.1556(7)
H24 H 1.0085 0.4523 0.0807
H25 H 1.0349 0.4131 0.1757
H26 H 0.9898 0.4628 0.2182
C24 C 0.6661(13) 0.4185(3) 0.2652(7)
H27 H 0.6705 0.4448 0.3165
H28 H 0.7546 0.3954 0.2997
H29 H 0.5283 0.4072 0.2574
C25 C 0.6975(15) 0.3931(3) 0.0601(8)
H30 H 0.5531 0.3869 0.0531
H31 H 0.7688 0.3666 0.0905
H32 H 0.7452 0.4007 -0.0177
O5 O 0.5968(6) 0.38238(16) 0.5375(4)
C26 C 0.2390(8) 0.4179(2) 0.6256(5)
H33 H 0.3752 0.4318 0.6251
C27 C 0.2431(8) 0.38155(19) 0.5347(5)
O6 O -0.0691(6) 0.30743(19) 0.3635(5)
O7 O 0.2968(7) 0.46244(15) 0.4187(5)
C28 C 0.0794(8) 0.3615(2) 0.4858(5)
H34 H -0.0483 0.3715 0.5084
O8 O -0.3286(10) 0.5214(3) 0.6396(5)
C29 C 0.0857(9) 0.3248(2) 0.3987(6)
C30 C 0.2862(9) 0.31007(19) 0.3575(6)
C31 C 0.4485(9) 0.3302(2) 0.4079(5)
H35 H 0.5763 0.3207 0.3844
C32 C 0.4435(8) 0.3660(2) 0.4972(5)
C33 C 0.0959(8) 0.4545(2) 0.5824(5)
C34 C -0.0672(9) 0.4701(3) 0.6334(6)
H36 H -0.1076 0.4561 0.7036
C35 C -0.1868(11) 0.5079(3) 0.5855(6)
C36 C -0.1301(10) 0.5303(3) 0.4727(6)
C37 C 0.0302(10) 0.5132(2) 0.4219(6)
H37 H 0.0695 0.5262 0.3502
C38 C 0.1495(9) 0.4754(2) 0.4709(6)
C39 C 0.2217(10) 0.4006(3) 0.7559(6)
C40 C 0.0232(12) 0.3762(3) 0.7756(7)
H38 H -0.0878 0.3976 0.7707
H39 H 0.0300 0.3623 0.8538
H40 H 0.0010 0.3533 0.7148
C41 C 0.2601(10) 0.4388(3) 0.8419(6)
H41 H 0.2599 0.4275 0.9230
H42 H 0.1544 0.4613 0.8300
H43 H 0.3907 0.4523 0.8282
C42 C 0.3882(12) 0.3652(3) 0.7779(7)
H44 H 0.3616 0.3396 0.7256
H45 H 0.3896 0.3553 0.8603
H46 H 0.5188 0.3781 0.7616
C43 C 0.2941(10) 0.2740(3) 0.2649(8)
C44 C 0.2127(15) 0.2310(3) 0.3140(13)
H47 H 0.2888 0.2233 0.3873
H48 H 0.2258 0.2071 0.2562
H49 H 0.0709 0.2350 0.3303
C45 C 0.1741(16) 0.2891(5) 0.1511(9)
H50 H 0.0319 0.2922 0.1677
H51 H 0.1885 0.2668 0.0890
H52 H 0.2260 0.3178 0.1249
C46 C 0.5102(11) 0.2652(3) 0.2300(9)
H53 H 0.5652 0.2923 0.1959
H54 H 0.5104 0.2411 0.1716
H55 H 0.5927 0.2566 0.3002
C47 C -0.2449(12) 0.5712(4) 0.4247(6)
C48 C -0.4633(13) 0.5631(3) 0.4101(7)
H56 H -0.4885 0.5385 0.3547
H57 H -0.5301 0.5901 0.3791
H58 H -0.5159 0.5555 0.4867
C49 C -0.1989(16) 0.6129(3) 0.5066(11)
H59 H -0.2559 0.6081 0.5836
H60 H -0.2589 0.6396 0.4697
H61 H -0.0534 0.6170 0.5173
C50 C -0.1694(13) 0.5877(3) 0.3066(8)
H62 H -0.0223 0.5875 0.3102
H63 H -0.2177 0.6181 0.2914
H64 H -0.2198 0.5680 0.2429
loop_
_geom_bond_atom_site_label_1
_geom_bond_atom_site_label_2
_geom_bond_site_symmetry_1
_geom_bond_site_symmetry_2
C1 H1 1_555 1_555
O1 C7 1_555 1_555
C2 C1 1_555 1_555
O2 C4 1_555 1_555
C3 C2 1_555 1_555
H2 C3 1_555 1_555
O3 C13 1_555 1_555
O4 C10 1_555 1_555
C4 C3 1_555 1_555
C5 C4 1_555 1_555
C6 C5 1_555 1_555
H3 C6 1_555 1_555
C7 C2 1_555 1_555
C8 C1 1_555 1_555
C9 C8 1_555 1_555
H4 C9 1_555 1_555
C10 C9 1_555 1_555
C11 C10 1_555 1_555
C12 C11 1_555 1_555
H5 C12 1_555 1_555
C13 C8 1_555 1_555
C14 C1 1_555 1_555
C15 C14 1_555 1_555
H6 C15 1_555 1_555
H7 C15 1_555 1_555
H8 C15 1_555 1_555
C16 C14 1_555 1_555
H9 C16 1_555 1_555
H10 C16 1_555 1_555
H11 C16 1_555 1_555
C17 C14 1_555 1_555
H12 C17 1_555 1_555
H13 C17 1_555 1_555
H14 C17 1_555 1_555
C18 C5 1_555 1_555
C19 C18 1_555 1_555
H15 C19 1_555 1_555
H16 C19 1_555 1_555
H17 C19 1_555 1_555
C20 C18 1_555 1_555
H18 C20 1_555 1_555
H19 C20 1_555 1_555
H20 C20 1_555 1_555
C21 C18 1_555 1_555
H21 C21 1_555 1_555
H22 C21 1_555 1_555
H23 C21 1_555 1_555
C22 C11 1_555 1_555
C23 C22 1_555 1_555
H24 C23 1_555 1_555
H25 C23 1_555 1_555
H26 C23 1_555 1_555
C24 C22 1_555 1_555
H27 C24 1_555 1_555
H28 C24 1_555 1_555
H29 C24 1_555 1_555
C25 C22 1_555 1_555
H30 C25 1_555 1_555
H31 C25 1_555 1_555
H32 C25 1_555 1_555
O5 C32 1_555 1_555
C26 H33 1_555 1_555
C27 C26 1_555 1_555
O6 C29 1_555 1_555
O7 C38 1_555 1_555
C28 C27 1_555 1_555
H34 C28 1_555 1_555
O8 C35 1_555 1_555
C29 C28 1_555 1_555
C30 C29 1_555 1_555
C31 C30 1_555 1_555
H35 C31 1_555 1_555
C32 C27 1_555 1_555
C33 C26 1_555 1_555
C34 C33 1_555 1_555
H36 C34 1_555 1_555
C35 C34 1_555 1_555
C36 C35 1_555 1_555
C37 C36 1_555 1_555
H37 C37 1_555 1_555
C38 C33 1_555 1_555
C39 C26 1_555 1_555
C40 C39 1_555 1_555
H38 C40 1_555 1_555
H39 C40 1_555 1_555
H40 C40 1_555 1_555
C41 C39 1_555 1_555
H41 C41 1_555 1_555
H42 C41 1_555 1_555
H43 C41 1_555 1_555
C42 C39 1_555 1_555
H44 C42 1_555 1_555
H45 C42 1_555 1_555
H46 C42 1_555 1_555
C43 C30 1_555 1_555
C44 C43 1_555 1_555
H47 C44 1_555 1_555
H48 C44 1_555 1_555
H49 C44 1_555 1_555
C45 C43 1_555 1_555
H50 C45 1_555 1_555
H51 C45 1_555 1_555
H52 C45 1_555 1_555
C46 C43 1_555 1_555
H53 C46 1_555 1_555
H54 C46 1_555 1_555
H55 C46 1_555 1_555
C47 C36 1_555 1_555
C48 C47 1_555 1_555
H56 C48 1_555 1_555
H57 C48 1_555 1_555
H58 C48 1_555 1_555
C49 C47 1_555 1_555
H59 C49 1_555 1_555
H60 C49 1_555 1_555
H61 C49 1_555 1_555
C50 C47 1_555 1_555
H62 C50 1_555 1_555
H63 C50 1_555 1_555
H64 C50 1_555 1_555
C6 C7 1_555 1_555
C12 C13 1_555 1_555
C31 C32 1_555 1_555
C37 C38 1_555 1_555

#END
