
#######################################################################
#
#                 Cambridge Crystallographic Data Centre
#                                CCDC 
#
#######################################################################
#
# If this CIF has been generated from an entry in the Cambridge 
# Structural Database, then it will include bibliographic, chemical, 
# crystal, experimental, refinement or atomic coordinate data resulting 
# from the CCDC's data processing and validation procedures.
#
#######################################################################

data_SEKRIM
_chemical_formula_moiety         'C25 H34 O4'
_chemical_name_systematic        
2-t-butyl-5-[1-(4-t-butyl-2,5-dihydroxyphenyl)-2,2-dimethylpropyl]cyclohexa-2,5-diene-1,4-dione
_symmetry_cell_setting           orthorhombic
_symmetry_space_group_name_H-M   'P 21 21 21'
_symmetry_Int_Tables_number      19
_space_group_name_Hall           'P 2ac 2ab'
loop_
_symmetry_equiv_pos_site_id
_symmetry_equiv_pos_as_xyz
1 x,y,z
2 1/2-x,-y,1/2+z
3 -x,1/2+y,1/2-z
4 1/2+x,1/2-y,-z
_cell_length_a                   10.9748(8)
_cell_length_b                   12.0537(8)
_cell_length_c                   17.2557(12)
_cell_angle_alpha                90
_cell_angle_beta                 90
_cell_angle_gamma                90
_cell_volume                     2282.7
_exptl_crystal_colour            colorless
_exptl_crystal_description       Plate
_cell_formula_units_Z            4
loop_
_atom_site_label
_atom_site_type_symbol
_atom_site_fract_x
_atom_site_fract_y
_atom_site_fract_z
O1 O 0.67018(11) 0.02922(10) 0.55295(7)
H1 H 0.740(3) -0.008(2) 0.5388(15)
C1 C 0.48587(14) 0.18551(13) 0.57398(9)
H2 H 0.5549 0.1590 0.6070
O2 O 0.39757(12) 0.12531(11) 0.29289(7)
H3 H 0.334(2) 0.165(2) 0.3094(15)
C2 C 0.50783(14) 0.13070(13) 0.49543(9)
O3 O 0.39022(11) 0.56612(9) 0.49352(7)
C3 C 0.44153(15) 0.15275(13) 0.42824(10)
H4 H 0.3755 0.2035 0.4312
O4 O 0.66937(11) 0.29686(10) 0.65714(7)
C4 C 0.46768(15) 0.10358(13) 0.35669(10)
C5 C 0.56862(16) 0.03162(13) 0.34874(10)
C6 C 0.63277(15) 0.00889(13) 0.41612(10)
H5 H 0.6999 -0.0407 0.4132
C7 C 0.60405(15) 0.05497(13) 0.48814(9)
C8 C 0.50370(14) 0.31045(13) 0.56968(9)
C9 C 0.43691(16) 0.38362(13) 0.52883(9)
H6 H 0.3687 0.3567 0.5007
C10 C 0.46391(15) 0.50294(13) 0.52545(9)
C11 C 0.57915(15) 0.54619(13) 0.56010(9)
C12 C 0.64191(15) 0.47398(14) 0.60383(10)
H7 H 0.7123 0.5003 0.6300
C13 C 0.60867(15) 0.35699(14) 0.61371(9)
C14 C 0.36859(15) 0.14723(14) 0.61868(10)
C15 C 0.24903(16) 0.17533(16) 0.57822(11)
H8 H 0.2408 0.2561 0.5740
H9 H 0.1808 0.1455 0.6083
H10 H 0.2486 0.1425 0.5263
C16 C 0.3703(2) 0.20116(18) 0.69880(11)
H11 H 0.4475 0.1840 0.7247
H12 H 0.3025 0.1724 0.7298
H13 H 0.3621 0.2817 0.6933
C17 C 0.37707(18) 0.02127(15) 0.62898(12)
H14 H 0.3761 -0.0147 0.5780
H15 H 0.3076 -0.0048 0.6596
H16 H 0.4530 0.0027 0.6559
C18 C 0.60545(16) -0.01794(15) 0.27004(10)
C19 C 0.5033(2) -0.09413(18) 0.24002(13)
H17 H 0.4900 -0.1547 0.2770
H18 H 0.5268 -0.1250 0.1897
H19 H 0.4280 -0.0512 0.2343
C20 C 0.62939(19) 0.07566(17) 0.21150(11)
H20 H 0.5550 0.1196 0.2046
H21 H 0.6536 0.0435 0.1617
H22 H 0.6948 0.1236 0.2309
C21 C 0.7225(2) -0.08660(18) 0.27603(11)
H23 H 0.7884 -0.0400 0.2963
H24 H 0.7449 -0.1143 0.2246
H25 H 0.7091 -0.1495 0.3110
C22 C 0.61832(16) 0.66566(13) 0.54535(10)
C23 C 0.52761(19) 0.74684(14) 0.58325(11)
H26 H 0.4469 0.7371 0.5599
H27 H 0.5554 0.8232 0.5750
H28 H 0.5229 0.7318 0.6390
C24 C 0.62290(18) 0.68735(15) 0.45723(11)
H29 H 0.6758 0.6322 0.4325
H30 H 0.6553 0.7619 0.4476
H31 H 0.5406 0.6817 0.4356
C25 C 0.74582(17) 0.68687(15) 0.57876(11)
H32 H 0.7440 0.6766 0.6351
H33 H 0.7710 0.7629 0.5667
H34 H 0.8038 0.6345 0.5558
loop_
_geom_bond_atom_site_label_1
_geom_bond_atom_site_label_2
_geom_bond_site_symmetry_1
_geom_bond_site_symmetry_2
O1 H1 1_555 1_555
C1 H2 1_555 1_555
O2 H3 1_555 1_555
C2 C1 1_555 1_555
O3 C10 1_555 1_555
C3 C2 1_555 1_555
H4 C3 1_555 1_555
O4 C13 1_555 1_555
C4 O2 1_555 1_555
C5 C4 1_555 1_555
C6 C5 1_555 1_555
H5 C6 1_555 1_555
C7 O1 1_555 1_555
C8 C1 1_555 1_555
C9 C8 1_555 1_555
H6 C9 1_555 1_555
C10 C9 1_555 1_555
C11 C10 1_555 1_555
C12 C11 1_555 1_555
H7 C12 1_555 1_555
C13 C8 1_555 1_555
C14 C1 1_555 1_555
C15 C14 1_555 1_555
H8 C15 1_555 1_555
H9 C15 1_555 1_555
H10 C15 1_555 1_555
C16 C14 1_555 1_555
H11 C16 1_555 1_555
H12 C16 1_555 1_555
H13 C16 1_555 1_555
C17 C14 1_555 1_555
H14 C17 1_555 1_555
H15 C17 1_555 1_555
H16 C17 1_555 1_555
C18 C5 1_555 1_555
C19 C18 1_555 1_555
H17 C19 1_555 1_555
H18 C19 1_555 1_555
H19 C19 1_555 1_555
C20 C18 1_555 1_555
H20 C20 1_555 1_555
H21 C20 1_555 1_555
H22 C20 1_555 1_555
C21 C18 1_555 1_555
H23 C21 1_555 1_555
H24 C21 1_555 1_555
H25 C21 1_555 1_555
C22 C11 1_555 1_555
C23 C22 1_555 1_555
H26 C23 1_555 1_555
H27 C23 1_555 1_555
H28 C23 1_555 1_555
C24 C22 1_555 1_555
H29 C24 1_555 1_555
H30 C24 1_555 1_555
H31 C24 1_555 1_555
C25 C22 1_555 1_555
H32 C25 1_555 1_555
H33 C25 1_555 1_555
H34 C25 1_555 1_555
C2 C7 1_555 1_555
C3 C4 1_555 1_555
C6 C7 1_555 1_555
C12 C13 1_555 1_555

#END
