
#######################################################################
#
#                 Cambridge Crystallographic Data Centre
#                                CCDC 
#
#######################################################################
#
# If this CIF has been generated from an entry in the Cambridge 
# Structural Database, then it will include bibliographic, chemical, 
# crystal, experimental, refinement or atomic coordinate data resulting 
# from the CCDC's data processing and validation procedures.
#
#######################################################################

data_SEKRAE
_chemical_formula_moiety         'C19 H24 O4'
_chemical_name_systematic        
2,2'-(2,2-dimethylpropane-1,1-diyl)bis(5-methylbenzene-1,4-diol)
_symmetry_cell_setting           orthorhombic
_symmetry_space_group_name_H-M   'P n m a'
_symmetry_Int_Tables_number      62
_space_group_name_Hall           '-P 2ac 2n'
loop_
_symmetry_equiv_pos_site_id
_symmetry_equiv_pos_as_xyz
1 x,y,z
2 1/2-x,-y,1/2+z
3 -x,1/2+y,-z
4 1/2+x,1/2-y,1/2-z
5 -x,-y,-z
6 1/2+x,y,1/2-z
7 x,1/2-y,z
8 1/2-x,1/2+y,1/2+z
_cell_length_a                   13.5005(9)
_cell_length_b                   18.3699(13)
_cell_length_c                   7.0032(5)
_cell_angle_alpha                90
_cell_angle_beta                 90
_cell_angle_gamma                90
_cell_volume                     1736.81
_exptl_crystal_colour            colorless
_exptl_crystal_description       Prism
_cell_formula_units_Z            4
loop_
_atom_site_label
_atom_site_type_symbol
_atom_site_fract_x
_atom_site_fract_y
_atom_site_fract_z
O1 O 0.48807(9) 0.67399(6) 0.75090(16)
H1 H 0.481(3) 0.7239(11) 0.759(6)
C1 C 0.59802(15) 0.7500 0.4672(3)
H2 H 0.6007 0.7500 0.6099
O2 O 0.45912(10) 0.56789(6) 0.01530(16)
C2 C 0.53676(10) 0.68261(7) 0.4201(2)
C3 C 0.52641(11) 0.65422(8) 0.2369(2)
H3 H 0.5608 0.6766 0.1340
C4 C 0.46703(12) 0.59405(8) 0.2008(2)
C5 C 0.41293(12) 0.56051(8) 0.3449(2)
C6 C 0.42192(12) 0.58913(8) 0.5273(2)
H4 H 0.3858 0.5676 0.6292
C7 C 0.48233(11) 0.64842(8) 0.5644(2)
C8 C 0.70979(16) 0.7500 0.4066(3)
C9 C 0.7352(2) 0.7500 0.1939(5)
H5 H 0.8074(3) 0.7500 0.181(4)
H6 H 0.7102(17) 0.7064(8) 0.129(3)
C10 C 0.75643(14) 0.81731(11) 0.4965(3)
H7 H 0.7295 0.8611 0.4356
H8 H 0.8284 0.8158 0.4782
H9 H 0.7414 0.8183 0.6333
C11 C 0.34404(14) 0.49777(9) 0.3047(3)
H10 H 0.2944 0.5127 0.2104
H11 H 0.3108 0.4832 0.4231
H12 H 0.3821 0.4566 0.2545
O1F O 0.48807(9) 0.82601(6) 0.75090(16)
H1F H 0.481(3) 0.7761(11) 0.759(6)
O2F O 0.45912(10) 0.93211(6) 0.01530(16)
C2F C 0.53676(10) 0.81739(7) 0.4201(2)
C3F C 0.52641(11) 0.84578(8) 0.2369(2)
H3F H 0.5608 0.8234 0.1340
C4F C 0.46703(12) 0.90595(8) 0.2008(2)
C5F C 0.41293(12) 0.93949(8) 0.3449(2)
C6F C 0.42192(12) 0.91087(8) 0.5273(2)
H4F H 0.3858 0.9324 0.6292
C7F C 0.48233(11) 0.85158(8) 0.5644(2)
H6F H 0.7102(17) 0.7936(8) 0.129(3)
C10F C 0.75643(14) 0.68269(11) 0.4965(3)
H7F H 0.7295 0.6389 0.4356
H8F H 0.8284 0.6842 0.4782
H9F H 0.7414 0.6817 0.6333
C11F C 0.34404(14) 1.00223(9) 0.3047(3)
H10F H 0.2944 0.9873 0.2104
H11F H 0.3108 1.0168 0.4231
H12F H 0.3821 1.0434 0.2545
H13? H 0.474(3) 0.6371(19) 0.842(5)
H14? H 0.521(3) 0.581(3) -0.038(9)
H15? H 0.479(5) 0.5184(17) -0.006(11)
loop_
_geom_bond_atom_site_label_1
_geom_bond_atom_site_label_2
_geom_bond_site_symmetry_1
_geom_bond_site_symmetry_2
O1 H1 1_555 1_555
C1 H2 1_555 1_555
O2 C4 1_555 1_555
C2 C1 1_555 1_555
C3 C2 1_555 1_555
H3 C3 1_555 1_555
C4 C3 1_555 1_555
C5 C4 1_555 1_555
C6 C5 1_555 1_555
H4 C6 1_555 1_555
C7 O1 1_555 1_555
C8 C1 1_555 1_555
C9 C8 1_555 1_555
H5 C9 1_555 1_555
H6 C9 1_555 1_555
C10 C8 1_555 1_555
H7 C10 1_555 1_555
H8 C10 1_555 1_555
H9 C10 1_555 1_555
C11 C5 1_555 1_555
H10 C11 1_555 1_555
H11 C11 1_555 1_555
H12 C11 1_555 1_555
O1F H1F 1_555 1_555
O2F C4F 1_555 1_555
C2F C1 1_555 1_555
C3F C2F 1_555 1_555
H3F C3F 1_555 1_555
C4F C3F 1_555 1_555
C5F C4F 1_555 1_555
C6F C5F 1_555 1_555
H4F C6F 1_555 1_555
C7F O1F 1_555 1_555
H6F C9 1_555 1_555
C10F C8 1_555 1_555
H7F C10F 1_555 1_555
H8F C10F 1_555 1_555
H9F C10F 1_555 1_555
C11F C5F 1_555 1_555
H10F C11F 1_555 1_555
H11F C11F 1_555 1_555
H12F C11F 1_555 1_555
C2 C7 1_555 1_555
C6 C7 1_555 1_555
C2F C7F 1_555 1_555
C6F C7F 1_555 1_555

#END
