
#######################################################################
#
#                 Cambridge Crystallographic Data Centre
#                                CCDC 
#
#######################################################################
#
# If this CIF has been generated from an entry in the Cambridge 
# Structural Database, then it will include bibliographic, chemical, 
# crystal, experimental, refinement or atomic coordinate data resulting 
# from the CCDC's data processing and validation procedures.
#
#######################################################################

data_SEKSIN
_chemical_formula_moiety         'C19 H22 O4'
_chemical_name_systematic        
2-[1-(2,5-dihydroxy-4-methylphenyl)-2,2-dimethylpropyl]-5-methylcyclohexa-2,5-diene-1,4-dione
_symmetry_cell_setting           monoclinic
_symmetry_space_group_name_H-M   'P 21/m'
_symmetry_Int_Tables_number      11
_space_group_name_Hall           '-P 2yb'
loop_
_symmetry_equiv_pos_site_id
_symmetry_equiv_pos_as_xyz
1 x,y,z
2 -x,1/2+y,-z
3 -x,-y,-z
4 x,1/2-y,z
_cell_length_a                   7.0367(5)
_cell_length_b                   17.1664(12)
_cell_length_c                   7.0476(5)
_cell_angle_alpha                90
_cell_angle_beta                 97.445(3)
_cell_angle_gamma                90
_cell_volume                     844.137
_exptl_crystal_colour            brown
_exptl_crystal_description       Needle
_cell_formula_units_Z            2
loop_
_atom_site_label
_atom_site_type_symbol
_atom_site_fract_x
_atom_site_fract_y
_atom_site_fract_z
O1 O 0.3871(4) 0.35199(16) 0.4707(4)
O2 O 1.0850(3) 0.44195(15) 0.3119(4)
C1 C 0.6848(7) 0.2500 0.6042(7)
H1 H 0.5432 0.2500 0.6078
C2 C 0.7202(4) 0.32342(18) 0.4931(4)
C3 C 0.8940(5) 0.34821(18) 0.4505(5)
H2 H 1.0043 0.3176 0.4910
C4 C 0.9164(5) 0.41855(19) 0.3473(5)
C5 C 0.7521(5) 0.46504(18) 0.2805(5)
C6 C 0.5789(5) 0.44117(19) 0.3223(5)
H3 H 0.4688 0.4714 0.2787
C7 C 0.5563(5) 0.37176(19) 0.4304(5)
C8 C 0.7725(7) 0.2500 0.8202(7)
C9 C 0.9908(8) 0.2500 0.8607(8)
H4 H 1.0423 0.2917 0.7872
C10 C 0.6948(6) 0.3225(2) 0.9131(5)
H5 H 0.7339 0.3211 1.0516
H6 H 0.5545 0.3231 0.8870
H7 H 0.7464 0.3696 0.8597
C11 C 0.7793(5) 0.53672(19) 0.1635(5)
H8 H 0.8688 0.5723 0.2381
H9 H 0.6556 0.5628 0.1300
H10 H 0.8311 0.5217 0.0462
O1C O 0.3871(4) 0.14801(16) 0.4707(4)
O2C O 1.0850(3) 0.05805(15) 0.3119(4)
C2C C 0.7202(4) 0.17658(18) 0.4931(4)
C3C C 0.8940(5) 0.15179(18) 0.4505(5)
H2C H 1.0043 0.1824 0.4910
C4C C 0.9164(5) 0.08145(19) 0.3473(5)
C5C C 0.7521(5) 0.03496(18) 0.2805(5)
C6C C 0.5789(5) 0.05883(19) 0.3223(5)
H3C H 0.4688 0.0286 0.2787
C7C C 0.5563(5) 0.12824(19) 0.4304(5)
H4C H 1.0423 0.2083 0.7872
C10C C 0.6948(6) 0.1775(2) 0.9131(5)
H5C H 0.7339 0.1789 1.0516
H6C H 0.5545 0.1769 0.8870
H7C H 0.7464 0.1304 0.8597
C11C C 0.7793(5) -0.03672(19) 0.1635(5)
H8C H 0.8688 -0.0723 0.2381
H9C H 0.6556 -0.0628 0.1300
H10C H 0.8311 -0.0217 0.0462
H11? H 1.195(14) 0.406(5) 0.402(13)
H12? H 0.301(15) 0.378(6) 0.399(14)
H13? H 1.0402 0.1997 0.8232
H14? H 1.0302 0.2586 0.9976
loop_
_geom_bond_atom_site_label_1
_geom_bond_atom_site_label_2
_geom_bond_site_symmetry_1
_geom_bond_site_symmetry_2
O1 C7 1_555 1_555
O2 C4 1_555 1_555
C1 H1 1_555 1_555
C2 C1 1_555 1_555
C3 C2 1_555 1_555
H2 C3 1_555 1_555
C4 C3 1_555 1_555
C5 C4 1_555 1_555
C6 C5 1_555 1_555
H3 C6 1_555 1_555
C7 C2 1_555 1_555
C8 C1 1_555 1_555
C9 C8 1_555 1_555
H4 C9 1_555 1_555
C10 C8 1_555 1_555
H5 C10 1_555 1_555
H6 C10 1_555 1_555
H7 C10 1_555 1_555
C11 C5 1_555 1_555
H8 C11 1_555 1_555
H9 C11 1_555 1_555
H10 C11 1_555 1_555
O1C C7C 1_555 1_555
O2C C4C 1_555 1_555
C2C C1 1_555 1_555
C3C C2C 1_555 1_555
H2C C3C 1_555 1_555
C4C C3C 1_555 1_555
C5C C4C 1_555 1_555
C6C C5C 1_555 1_555
H3C C6C 1_555 1_555
C7C C2C 1_555 1_555
H4C C9 1_555 1_555
C10C C8 1_555 1_555
H5C C10C 1_555 1_555
H6C C10C 1_555 1_555
H7C C10C 1_555 1_555
C11C C5C 1_555 1_555
H8C C11C 1_555 1_555
H9C C11C 1_555 1_555
H10C C11C 1_555 1_555
C6 C7 1_555 1_555
C6C C7C 1_555 1_555

#END
