
#######################################################################
#
#                 Cambridge Crystallographic Data Centre
#                                CCDC 
#
#######################################################################
#
# If this CIF has been generated from an entry in the Cambridge 
# Structural Database, then it will include bibliographic, chemical, 
# crystal, experimental, refinement or atomic coordinate data resulting 
# from the CCDC's data processing and validation procedures.
#
#######################################################################

data_SEKTOR
_chemical_formula_moiety         'C57 H90 K3 N9 O12 S3,4(H2 O1)'
_chemical_name_systematic        
"Di-isothiocyanato-thiocyanato-2,11,20-tris(1,10-diaza-4,7,13,16-tetraoxahexadecane-N,N')(3.3.3)(1,3,5)cyclophane-tri-potassium tetrahydrate"
_symmetry_cell_setting           monoclinic
_symmetry_space_group_name_H-M   'P 21/n'
_symmetry_Int_Tables_number      14
_space_group_name_Hall           '-P 2yn'
loop_
_symmetry_equiv_pos_site_id
_symmetry_equiv_pos_as_xyz
1 x,y,z
2 1/2-x,1/2+y,1/2-z
3 -x,-y,-z
4 1/2+x,1/2-y,1/2+z
_cell_length_a                   10.861(2)
_cell_length_b                   22.362(5)
_cell_length_c                   29.930(5)
_cell_angle_alpha                90
_cell_angle_beta                 93.29(1)
_cell_angle_gamma                90
_cell_volume                     7257.23
_exptl_crystal_colour            colorless
_cell_formula_units_Z            4
loop_
_atom_site_label
_atom_site_type_symbol
_atom_site_fract_x
_atom_site_fract_y
_atom_site_fract_z
K1 K 0.2722(3) 0.3621(1) 0.2103(1)
K2 K 0.5218(3) 0.0581(2) 0.1160(1)
K3 K 0.3231(3) 0.3322(2) -0.0192(1)
N1 N 0.2795(11) 0.0940(6) 0.0837(4)
N2 N 0.7287(10) 0.1284(5) 0.1646(4)
N3 N 0.0631(12) 0.3072(7) -0.0453(4)
N4 N 0.5164(10) 0.3164(5) 0.0498(4)
N5 N 0.0217(10) 0.3515(5) 0.1546(4)
N6 N 0.5043(9) 0.3925(5) 0.2632(3)
O1 O 0.4825(12) 0.0719(4) 0.0276(4)
O2 O 0.3253(12) 0.0394(6) 0.1708(5)
O3 O 0.7009(10) 0.1163(4) 0.0656(3)
O4 O 0.5671(12) 0.0522(5) 0.2020(4)
O5 O 0.1613(11) 0.4242(5) -0.0058(3)
O6 O 0.2740(12) 0.2605(5) -0.0877(3)
O7 O 0.4134(11) 0.4297(5) 0.0231(3)
O8 O 0.4845(10) 0.2415(4) -0.0311(4)
O9 O 0.0659(9) 0.3622(5) 0.2580(4)
O10 O 0.1979(12) 0.4482(6) 0.1422(4)
O11 O 0.2902(10) 0.3467(5) 0.3028(3)
O12 O 0.3629(9) 0.4802(4) 0.2128(3)
C1 C 0.1885(14) 0.1981(6) 0.0760(5)
C2 C 0.1300(13) 0.2272(7) 0.1107(5)
C3 C 0.0284(15) 0.2634(7) 0.1025(5)
C4 C -0.0212(13) 0.2713(7) 0.0579(5)
C5 C 0.0411(14) 0.2454(7) 0.0228(5)
C6 C 0.1457(14) 0.2086(7) 0.0329(6)
C7 C 0.2961(13) 0.1590(6) 0.0867(5)
C8 C -0.0031(14) 0.2573(8) -0.0263(5)
C9 C -0.0353(14) 0.2937(7) 0.1403(5)
C10 C 0.2607(16) 0.0699(7) 0.0382(6)
C11 C 0.1860(15) 0.0695(9) 0.1127(8)
C12 C 0.3630(20) 0.0869(8) 0.0086(5)
C13 C 0.2143(23) 0.0694(11) 0.1597(9)
C14 C 0.5792(19) 0.0907(7) 0.0030(6)
C15 C 0.6987(17) 0.0802(8) 0.0267(5)
C16 C 0.8194(14) 0.1135(7) 0.0891(5)
C17 C 0.8177(13) 0.1502(6) 0.1323(6)
C18 C 0.3553(20) 0.0453(10) 0.2153(7)
C19 C 0.4812(20) 0.0208(9) 0.2260(6)
C20 C 0.6913(17) 0.0469(7) 0.2175(6)
C21 C 0.7752(14) 0.0714(6) 0.1844(5)
C22 C 0.7151(14) 0.1731(6) 0.1984(5)
C23 C 0.6552(12) 0.2327(6) 0.1858(5)
C24 C 0.5872(12) 0.2392(6) 0.1464(5)
C25 C 0.5280(11) 0.2944(6) 0.1357(5)
C26 C 0.5433(12) 0.3401(6) 0.1662(5)
C27 C 0.6087(12) 0.3333(6) 0.2064(5)
C28 C 0.6653(12) 0.2796(6) 0.2161(4)
C29 C -0.0025(16) 0.3633(9) -0.0359(6)
C30 C 0.0698(15) 0.2983(9) -0.0941(5)
C31 C 0.0682(17) 0.4194(8) -0.0421(5)
C32 C 0.1541(19) 0.2474(9) -0.1065(6)
C33 C 0.2379(18) 0.4778(7) -0.0060(7)
C34 C 0.3332(18) 0.4778(9) 0.0316(5)
C35 C 0.5062(18) 0.4269(7) 0.0580(5)
C36 C 0.5834(14) 0.3741(8) 0.0518(5)
C37 C 0.3619(20) 0.2146(8) -0.0957(5)
C38 C 0.4858(17) 0.2336(9) -0.0780(6)
C39 C 0.6019(15) 0.2613(7) -0.0125(5)
C40 C 0.5952(13) 0.2658(7) 0.0366(5)
C41 C 0.4536(12) 0.3038(6) 0.0915(4)
C42 C -0.0567(13) 0.3780(7) 0.1881(6)
C43 C 0.0225(17) 0.3929(7) 0.1168(6)
C44 C -0.0438(15) 0.3462(8) 0.2341(6)
C45 C 0.0732(20) 0.4481(11) 0.1210(7)
C46 C 0.0725(16) 0.3347(8) 0.3014(5)
C47 C 0.1860(17) 0.3588(9) 0.3264(5)
C48 C 0.3970(16) 0.3544(8) 0.3290(5)
C49 C 0.5086(13) 0.3508(7) 0.3012(5)
C50 C 0.2213(16) 0.5066(11) 0.1523(6)
C51 C 0.3452(16) 0.5150(7) 0.1724(5)
C52 C 0.4692(13) 0.4971(6) 0.2401(5)
C53 C 0.4896(13) 0.4539(6) 0.2783(4)
C54 C 0.6208(12) 0.3840(6) 0.2393(4)
S1 S 0.3157(8) 0.2249(4) 0.2162(3)
C55 C 0.1794(49) 0.1949(41) 0.2358(25)
N7 N 0.0792(9) 0.1750(6) 0.2486(4)
S2 S 0.8857(13) -0.0676(4) 0.0868(4)
C56 C 0.7285(29) -0.0591(12) 0.1089(9)
N8 N 0.6321(18) -0.0640(8) 0.1271(6)
S3 S 0.2711(5) 0.4974(3) -0.1442(2)
C57 C 0.3519(28) 0.4391(15) -0.1192(10)
N9 N 0.4190(18) 0.3951(9) -0.0936(6)
H1 H 0.1618 0.2212 0.1409
H2 H -0.0954 0.2939 0.0518
H3 H 0.1869 0.1902 0.0089
H4 H 0.3246 0.1681 0.1169
H5 H 0.3588 0.1695 0.0667
H6 H -0.0899 0.2657 -0.0277
H7 H 0.0118 0.2221 -0.0436
H8 H -0.0343 0.2673 0.1656
H9 H -0.1191 0.3014 0.1299
H10 H 0.2548 0.0271 0.0395
H11 H 0.1850 0.0860 0.0251
H12 H 0.1717 0.0287 0.1040
H13 H 0.1119 0.0923 0.1067
H14 H 0.3606 0.1292 0.0034
H15 H 0.3504 0.0662 -0.0194
H16 H 0.2215 0.1101 0.1697
H17 H 0.1485 0.0502 0.1743
H18 H 0.5769 0.0692 -0.0249
H19 H 0.5698 0.1327 -0.0029
H20 H 0.7649 0.0913 0.0084
H21 H 0.7061 0.0387 0.0345
H22 H 0.8387 0.0726 0.0964
H23 H 0.8808 0.1294 0.0706
H24 H 0.7965 0.1907 0.1245
H25 H 0.8989 0.1492 0.1468
H26 H 0.3547 0.0870 0.2230
H27 H 0.2964 0.0244 0.2321
H28 H 0.4827 -0.0207 0.2178
H29 H 0.5015 0.0247 0.2575
H30 H 0.7035 0.0687 0.2451
H31 H 0.7106 0.0055 0.2227
H32 H 0.7824 0.0426 0.1609
H33 H 0.8549 0.0783 0.1990
H34 H 0.6667 0.1554 0.2207
H35 H 0.7964 0.1815 0.2110
H36 H 0.5791 0.2063 0.1259
H37 H 0.5067 0.3782 0.1592
H38 H 0.7126 0.2746 0.2440
H39 H -0.0251 0.3620 -0.0054
H40 H -0.0757 0.3653 -0.0554
H41 H -0.0119 0.2906 -0.1068
H42 H 0.1006 0.3345 -0.1065
H43 H 0.0139 0.4532 -0.0420
H44 H 0.1075 0.4179 -0.0700
H45 H 0.1550 0.2436 -0.1384
H46 H 0.1244 0.2109 -0.0941
H47 H 0.2785 0.4794 -0.0336
H48 H 0.1862 0.5124 -0.0036
H49 H 0.2952 0.4716 0.0594
H50 H 0.3774 0.5150 0.0327
H51 H 0.5559 0.4624 0.0576
H52 H 0.4691 0.4239 0.0862
H53 H 0.6241 0.3788 0.0244
H54 H 0.6439 0.3725 0.0764
H55 H 0.3394 0.1785 -0.0809
H56 H 0.3641 0.2072 -0.1273
H57 H 0.5075 0.2706 -0.0918
H58 H 0.5452 0.2035 -0.0844
H59 H 0.6642 0.2329 -0.0194
H60 H 0.6215 0.2996 -0.0247
H61 H 0.5620 0.2293 0.0478
H62 H 0.6771 0.2717 0.0497
H63 H 0.3997 0.3370 0.0958
H64 H 0.4054 0.2683 0.0860
H65 H -0.0343 0.4193 0.1925
H66 H -0.1410 0.3755 0.1768
H67 H -0.0623 0.3996 0.1072
H68 H 0.0632 0.3723 0.0937
H69 H -0.0448 0.3038 0.2294
H70 H -0.1121 0.3574 0.2513
H71 H 0.0778 0.4644 0.0914
H72 H 0.0212 0.4730 0.1380
H73 H 0.0005 0.3445 0.3170
H74 H 0.0782 0.2921 0.2982
H75 H 0.1943 0.3401 0.3553
H76 H 0.1777 0.4012 0.3300
H77 H 0.3957 0.3930 0.3431
H78 H 0.4030 0.3238 0.3516
H79 H 0.5125 0.3109 0.2895
H80 H 0.5815 0.3588 0.3199
H81 H 0.2133 0.5297 0.1253
H82 H 0.1627 0.5204 0.1728
H83 H 0.4040 0.5028 0.1515
H84 H 0.3580 0.5564 0.1798
H85 H 0.5402 0.4971 0.2225
H86 H 0.4569 0.5365 0.2519
H87 H 0.4199 0.4555 0.2966
H88 H 0.5626 0.4655 0.2957
H89 H 0.6871 0.3755 0.2610
H90 H 0.6387 0.4200 0.2234
O13 O 0.6705(15) 0.3811(7) -0.0795(5)
O14 O 0.7377(21) 0.3141(10) -0.1549(7)
O15 O -0.1203(24) 0.1854(12) 0.3161(9)
O16 O 0.9484(26) 0.3224(12) -0.2005(9)
N10? N 0.3157(8) 0.2249(4) 0.2162(3)
C58? C 0.2152(59) 0.2073(56) 0.2305(22)
S4? S 0.0792(9) 0.1750(6) 0.2486(4)
loop_
_geom_bond_atom_site_label_1
_geom_bond_atom_site_label_2
_geom_bond_site_symmetry_1
_geom_bond_site_symmetry_2
K1 N5 1_555 1_555
K2 N1 1_555 1_555
K3 N3 1_555 1_555
N1 C7 1_555 1_555
N2 K2 1_555 1_555
N3 C8 1_555 1_555
N4 K3 1_555 1_555
N5 C9 1_555 1_555
N6 K1 1_555 1_555
O1 K2 1_555 1_555
O2 K2 1_555 1_555
O3 K2 1_555 1_555
O4 K2 1_555 1_555
O5 K3 1_555 1_555
O6 K3 1_555 1_555
O7 K3 1_555 1_555
O8 K3 1_555 1_555
O9 K1 1_555 1_555
O10 K1 1_555 1_555
O11 K1 1_555 1_555
O12 K1 1_555 1_555
C1 C2 1_555 1_555
C2 C3 1_555 1_555
C3 C4 1_555 1_555
C4 C5 1_555 1_555
C5 C6 1_555 1_555
C6 C1 1_555 1_555
C7 C1 1_555 1_555
C8 C5 1_555 1_555
C9 C3 1_555 1_555
C10 N1 1_555 1_555
C11 N1 1_555 1_555
C12 O1 1_555 1_555
C13 O2 1_555 1_555
C14 O1 1_555 1_555
C15 O3 1_555 1_555
C16 O3 1_555 1_555
C17 N2 1_555 1_555
C18 O2 1_555 1_555
C19 O4 1_555 1_555
C20 O4 1_555 1_555
C21 N2 1_555 1_555
C22 N2 1_555 1_555
C23 C22 1_555 1_555
C24 C23 1_555 1_555
C25 C24 1_555 1_555
C26 C25 1_555 1_555
C27 C26 1_555 1_555
C28 C23 1_555 1_555
C29 N3 1_555 1_555
C30 N3 1_555 1_555
C31 O5 1_555 1_555
C32 O6 1_555 1_555
C33 O5 1_555 1_555
C34 O7 1_555 1_555
C35 O7 1_555 1_555
C36 N4 1_555 1_555
C37 O6 1_555 1_555
C38 O8 1_555 1_555
C39 O8 1_555 1_555
C40 N4 1_555 1_555
C41 N4 1_555 1_555
C42 N5 1_555 1_555
C43 N5 1_555 1_555
C44 O9 1_555 1_555
C45 O10 1_555 1_555
C46 O9 1_555 1_555
C47 O11 1_555 1_555
C48 O11 1_555 1_555
C49 N6 1_555 1_555
C50 O10 1_555 1_555
C51 O12 1_555 1_555
C52 O12 1_555 1_555
C53 N6 1_555 1_555
C54 N6 1_555 1_555
S1 K1 1_555 1_555
C55 S1 1_555 1_555
N7 C55 1_555 1_555
S2 C56 1_555 1_555
C56 N8 1_555 1_555
N8 K2 1_555 1_555
S3 C57 1_555 1_555
C57 N9 1_555 1_555
N9 K3 1_555 1_555
H1 C2 1_555 1_555
H2 C4 1_555 1_555
H3 C6 1_555 1_555
H4 C7 1_555 1_555
H5 C7 1_555 1_555
H6 C8 1_555 1_555
H7 C8 1_555 1_555
H8 C9 1_555 1_555
H9 C9 1_555 1_555
H10 C10 1_555 1_555
H11 C10 1_555 1_555
H12 C11 1_555 1_555
H13 C11 1_555 1_555
H14 C12 1_555 1_555
H15 C12 1_555 1_555
H16 C13 1_555 1_555
H17 C13 1_555 1_555
H18 C14 1_555 1_555
H19 C14 1_555 1_555
H20 C15 1_555 1_555
H21 C15 1_555 1_555
H22 C16 1_555 1_555
H23 C16 1_555 1_555
H24 C17 1_555 1_555
H25 C17 1_555 1_555
H26 C18 1_555 1_555
H27 C18 1_555 1_555
H28 C19 1_555 1_555
H29 C19 1_555 1_555
H30 C20 1_555 1_555
H31 C20 1_555 1_555
H32 C21 1_555 1_555
H33 C21 1_555 1_555
H34 C22 1_555 1_555
H35 C22 1_555 1_555
H36 C24 1_555 1_555
H37 C26 1_555 1_555
H38 C28 1_555 1_555
H39 C29 1_555 1_555
H40 C29 1_555 1_555
H41 C30 1_555 1_555
H42 C30 1_555 1_555
H43 C31 1_555 1_555
H44 C31 1_555 1_555
H45 C32 1_555 1_555
H46 C32 1_555 1_555
H47 C33 1_555 1_555
H48 C33 1_555 1_555
H49 C34 1_555 1_555
H50 C34 1_555 1_555
H51 C35 1_555 1_555
H52 C35 1_555 1_555
H53 C36 1_555 1_555
H54 C36 1_555 1_555
H55 C37 1_555 1_555
H56 C37 1_555 1_555
H57 C38 1_555 1_555
H58 C38 1_555 1_555
H59 C39 1_555 1_555
H60 C39 1_555 1_555
H61 C40 1_555 1_555
H62 C40 1_555 1_555
H63 C41 1_555 1_555
H64 C41 1_555 1_555
H65 C42 1_555 1_555
H66 C42 1_555 1_555
H67 C43 1_555 1_555
H68 C43 1_555 1_555
H69 C44 1_555 1_555
H70 C44 1_555 1_555
H71 C45 1_555 1_555
H72 C45 1_555 1_555
H73 C46 1_555 1_555
H74 C46 1_555 1_555
H75 C47 1_555 1_555
H76 C47 1_555 1_555
H77 C48 1_555 1_555
H78 C48 1_555 1_555
H79 C49 1_555 1_555
H80 C49 1_555 1_555
H81 C50 1_555 1_555
H82 C50 1_555 1_555
H83 C51 1_555 1_555
H84 C51 1_555 1_555
H85 C52 1_555 1_555
H86 C52 1_555 1_555
H87 C53 1_555 1_555
H88 C53 1_555 1_555
H89 C54 1_555 1_555
H90 C54 1_555 1_555
C10 C12 1_555 1_555
C11 C13 1_555 1_555
C14 C15 1_555 1_555
C16 C17 1_555 1_555
C18 C19 1_555 1_555
C20 C21 1_555 1_555
C25 C41 1_555 1_555
C27 C28 1_555 1_555
C27 C54 1_555 1_555
C29 C31 1_555 1_555
C30 C32 1_555 1_555
C33 C34 1_555 1_555
C35 C36 1_555 1_555
C37 C38 1_555 1_555
C39 C40 1_555 1_555
C42 C44 1_555 1_555
C43 C45 1_555 1_555
C46 C47 1_555 1_555
C48 C49 1_555 1_555
C50 C51 1_555 1_555
C52 C53 1_555 1_555

#END
