
#######################################################################
#
#                 Cambridge Crystallographic Data Centre
#                                CCDC 
#
#######################################################################
#
# If this CIF has been generated from an entry in the Cambridge 
# Structural Database, then it will include bibliographic, chemical, 
# crystal, experimental, refinement or atomic coordinate data resulting 
# from the CCDC's data processing and validation procedures.
#
#######################################################################

data_SEKVAH
_chemical_formula_moiety         'C24 H32 N2 O6'
_chemical_name_systematic        
'Di-t-butyl (5-methoxy-1-methyl-10-oxo-6-azatricyclo[7.3.1.0^2,7^]trideca-2,4,6,11-tetraen-11-yl)imidodicarbonate'
_symmetry_cell_setting           orthorhombic
_symmetry_space_group_name_H-M   'P b c a'
_symmetry_Int_Tables_number      61
_space_group_name_Hall           '-P 2ac 2ab'
loop_
_symmetry_equiv_pos_site_id
_symmetry_equiv_pos_as_xyz
1 x,y,z
2 1/2+x,1/2-y,-z
3 -x,1/2+y,1/2-z
4 1/2-x,-y,1/2+z
5 -x,-y,-z
6 1/2-x,1/2+y,z
7 x,1/2-y,1/2+z
8 1/2+x,y,1/2-z
_cell_length_a                   13.4267(2)
_cell_length_b                   17.8534(3)
_cell_length_c                   20.7231(3)
_cell_angle_alpha                90
_cell_angle_beta                 90
_cell_angle_gamma                90
_cell_volume                     4967.58
_exptl_crystal_colour            colorless
_exptl_crystal_description       block
_cell_formula_units_Z            8
loop_
_atom_site_label
_atom_site_type_symbol
_atom_site_fract_x
_atom_site_fract_y
_atom_site_fract_z
N1 N 0.64574(11) 0.43063(8) 0.21829(7)
N2 N 0.59688(12) 0.36454(8) 0.48010(7)
O1 O 0.78508(9) 0.49609(9) 0.29675(7)
O2 O 0.52958(16) 0.25809(9) 0.52572(9)
O3 O 0.64024(17) 0.43608(9) 0.10781(7)
O4 O 0.59379(10) 0.53395(7) 0.16840(6)
O5 O 0.74774(14) 0.33988(9) 0.17543(8)
O6 O 0.70381(11) 0.33911(7) 0.28058(7)
C1 C 0.69982(12) 0.49809(9) 0.31621(8)
C2 C 0.61758(12) 0.46623(8) 0.27788(7)
C3 C 0.52361(12) 0.46932(9) 0.29770(8)
H1 H 0.4745 0.4488 0.2715
C4 C 0.49262(11) 0.50475(9) 0.36104(8)
C5 C 0.56849(13) 0.56512(9) 0.37869(9)
H2 H 0.5663 0.6050 0.3470
H3 H 0.5520 0.5863 0.4205
C6 C 0.67244(12) 0.53166(9) 0.38083(8)
H4 H 0.7200 0.5716 0.3909
C7 C 0.67732(13) 0.47258(10) 0.43453(8)
H5 H 0.7342 0.4404 0.4266
H6 H 0.6885 0.4979 0.4753
C8 C 0.58591(12) 0.42434(9) 0.44081(7)
C9 C 0.49711(11) 0.44075(9) 0.40969(8)
C10 C 0.41689(13) 0.39254(11) 0.42077(9)
H7 H 0.3558 0.4019 0.4013
C11 C 0.42801(17) 0.33160(11) 0.46023(10)
H8 H 0.3751 0.2992 0.4681
C12 C 0.52038(17) 0.31974(10) 0.48797(9)
C13 C 0.38911(14) 0.53969(13) 0.35482(10)
H9 H 0.3916 0.5806 0.3248
H10 H 0.3677 0.5577 0.3962
H11 H 0.3430 0.5027 0.3395
C14 C 0.6246(3) 0.24411(17) 0.55409(18)
H12 H 0.6741 0.2408 0.5208
H13 H 0.6225 0.1978 0.5777
H14 H 0.6412 0.2843 0.5829
C15 C 0.62676(14) 0.46534(9) 0.15873(8)
C16 C 0.55326(14) 0.57959(12) 0.11445(9)
C17 C 0.5184(3) 0.6485(2) 0.14919(15)
H15 H 0.4694 0.6349 0.1808
H16 H 0.4895 0.6828 0.1188
H17 H 0.5739 0.6720 0.1702
C18 C 0.46626(19) 0.5382(2) 0.08480(14)
H18 H 0.4196 0.5250 0.1180
H19 H 0.4899 0.4935 0.0640
H20 H 0.4342 0.5698 0.0536
C19 C 0.63265(17) 0.59630(16) 0.06615(13)
H21 H 0.6070 0.6300 0.0341
H22 H 0.6535 0.5506 0.0458
H23 H 0.6885 0.6190 0.0875
C20 C 0.70451(15) 0.36609(10) 0.22055(9)
C21 C 0.77019(19) 0.27553(11) 0.29763(12)
C22 C 0.8778(2) 0.29724(16) 0.28634(17)
H24 H 0.8895 0.3027 0.2409
H25 H 0.9207 0.2589 0.3033
H26 H 0.8915 0.3438 0.3077
C23 C 0.7395(2) 0.20699(12) 0.26010(16)
H27 H 0.6704 0.1966 0.2680
H28 H 0.7790 0.1650 0.2736
H29 H 0.7496 0.2157 0.2149
C24 C 0.7471(3) 0.26523(15) 0.36884(14)
H30 H 0.7698 0.3082 0.3924
H31 H 0.7804 0.2213 0.3845
H32 H 0.6766 0.2597 0.3745
loop_
_geom_bond_atom_site_label_1
_geom_bond_atom_site_label_2
_geom_bond_site_symmetry_1
_geom_bond_site_symmetry_2
N1 C2 1_555 1_555
N2 C8 1_555 1_555
O1 C1 1_555 1_555
O2 C12 1_555 1_555
O3 C15 1_555 1_555
O4 C15 1_555 1_555
O5 C20 1_555 1_555
O6 C20 1_555 1_555
C1 C2 1_555 1_555
C2 C3 1_555 1_555
C3 H1 1_555 1_555
C4 C3 1_555 1_555
C5 C4 1_555 1_555
H2 C5 1_555 1_555
H3 C5 1_555 1_555
C6 C1 1_555 1_555
H4 C6 1_555 1_555
C7 C6 1_555 1_555
H5 C7 1_555 1_555
H6 C7 1_555 1_555
C8 C7 1_555 1_555
C9 C4 1_555 1_555
C10 C9 1_555 1_555
H7 C10 1_555 1_555
C11 C10 1_555 1_555
H8 C11 1_555 1_555
C12 N2 1_555 1_555
C13 C4 1_555 1_555
H9 C13 1_555 1_555
H10 C13 1_555 1_555
H11 C13 1_555 1_555
C14 O2 1_555 1_555
H12 C14 1_555 1_555
H13 C14 1_555 1_555
H14 C14 1_555 1_555
C15 N1 1_555 1_555
C16 O4 1_555 1_555
C17 C16 1_555 1_555
H15 C17 1_555 1_555
H16 C17 1_555 1_555
H17 C17 1_555 1_555
C18 C16 1_555 1_555
H18 C18 1_555 1_555
H19 C18 1_555 1_555
H20 C18 1_555 1_555
C19 C16 1_555 1_555
H21 C19 1_555 1_555
H22 C19 1_555 1_555
H23 C19 1_555 1_555
C20 N1 1_555 1_555
C21 O6 1_555 1_555
C22 C21 1_555 1_555
H24 C22 1_555 1_555
H25 C22 1_555 1_555
H26 C22 1_555 1_555
C23 C21 1_555 1_555
H27 C23 1_555 1_555
H28 C23 1_555 1_555
H29 C23 1_555 1_555
C24 C21 1_555 1_555
H30 C24 1_555 1_555
H31 C24 1_555 1_555
H32 C24 1_555 1_555
C5 C6 1_555 1_555
C8 C9 1_555 1_555
C11 C12 1_555 1_555

#END
