
#######################################################################
#
#                 Cambridge Crystallographic Data Centre
#                                CCDC 
#
#######################################################################
#
# If this CIF has been generated from an entry in the Cambridge 
# Structural Database, then it will include bibliographic, chemical, 
# crystal, experimental, refinement or atomic coordinate data resulting 
# from the CCDC's data processing and validation procedures.
#
#######################################################################

data_SELBEQ
_chemical_formula_moiety         'C10 H26 Cl2 N2 Si1'
_chemical_name_systematic        
Dichloro-1,2-bis(diethylamino)ethane-dihydrosilane
_symmetry_cell_setting           orthorhombic
_symmetry_space_group_name_H-M   'P 21 21 21'
_symmetry_Int_Tables_number      19
_space_group_name_Hall           'P 2ac 2ab'
loop_
_symmetry_equiv_pos_site_id
_symmetry_equiv_pos_as_xyz
1 x,y,z
2 1/2-x,-y,1/2+z
3 1/2+x,1/2-y,-z
4 -x,1/2+y,1/2-z
_cell_length_a                   7.8230(5)
_cell_length_b                   9.8720(10)
_cell_length_c                   19.248(2)
_cell_angle_alpha                90
_cell_angle_beta                 90
_cell_angle_gamma                90
_cell_volume                     1486.5
_exptl_crystal_colour            'pale yellow'
_exptl_crystal_description       cube
_chemical_melting_point          101-102deg.C
_cell_formula_units_Z            4
loop_
_atom_site_label
_atom_site_type_symbol
_atom_site_fract_x
_atom_site_fract_y
_atom_site_fract_z
Si1 Si 0.0116(3) 0.1403(3) 0.8651(1)
H1 H 0.0010(80) 0.0458(58) 0.8209(29)
H2 H -0.0233(84) 0.2276(63) 0.9147(32)
Cl1 Cl 0.2254(3) 0.0532(3) 0.9267(2)
Cl2 Cl 0.1880(3) 0.2674(3) 0.8013(2)
N1 N -0.1722(9) 0.0177(7) 0.9176(4)
N2 N -0.2028(8) 0.2193(8) 0.8107(4)
C1 C -0.3254(12) 0.0356(13) 0.8762(8)
C2 C -0.3484(12) 0.1603(13) 0.8444(7)
C3 C -0.1436(24) 0.0511(17) 1.0177(10)
C4 C -0.2265(31) 0.0831(25) 0.9832(13)
C5 C -0.1253(14) -0.1325(11) 0.9159(6)
C6 C -0.2225(83) -0.2412(61) 0.9646(30)
C7 C -0.1932(16) 0.1850(13) 0.7349(6)
C8 C -0.3738(87) 0.1812(70) 0.6942(38)
C9 C -0.2013(15) 0.3744(13) 0.8208(7)
C10 C -0.3391(48) 0.4694(34) 0.8254(18)
H3 H -0.4222 0.0157 0.9051
H4 H -0.3197 -0.0291 0.8390
H5 H -0.4393 0.1550 0.8110
H6 H -0.3805 0.2210 0.8812
H7 H -0.0576 -0.0141 1.0056
H8 H -0.0929 0.1225 1.0446
H9 H -0.0380 -0.1390 0.9508
H10 H -0.0750 -0.1435 0.8708
H11 H -0.0831 0.2174 0.7205
H12 H -0.1923 0.0878 0.7360
H13 H -0.1500 0.4079 0.7789
H14 H -0.1262 0.3915 0.8593
C11? C -0.3184(35) -0.0021(26) 1.0435(14)
C12? C -0.2178(40) -0.2481(29) 0.9279(15)
C13? C -0.2888(40) -0.2166(32) 0.9437(19)
C14? C -0.3542(38) 0.2610(27) 0.6960(15)
C15? C -0.3096(43) 0.2103(41) 0.6725(15)
C16? C -0.3659(34) 0.4408(28) 0.7875(14)
loop_
_geom_bond_atom_site_label_1
_geom_bond_atom_site_label_2
_geom_bond_site_symmetry_1
_geom_bond_site_symmetry_2
Si1 H1 1_555 1_555
H2 Si1 1_555 1_555
Cl1 Si1 1_555 1_555
Cl2 Si1 1_555 1_555
N1 Si1 1_555 1_555
N2 Si1 1_555 1_555
C1 N1 1_555 1_555
C2 N2 1_555 1_555
C3 C4 1_555 1_555
C4 N1 1_555 1_555
C5 N1 1_555 1_555
C6 C5 1_555 1_555
C7 N2 1_555 1_555
C8 C7 1_555 1_555
C9 N2 1_555 1_555
C10 C9 1_555 1_555
H3 C1 1_555 1_555
H4 C1 1_555 1_555
H5 C2 1_555 1_555
H6 C2 1_555 1_555
H7 C3 1_555 1_555
H8 C3 1_555 1_555
H9 C5 1_555 1_555
H10 C5 1_555 1_555
H11 C7 1_555 1_555
H12 C7 1_555 1_555
H13 C9 1_555 1_555
H14 C9 1_555 1_555
C1 C2 1_555 1_555

#END
