
#######################################################################
#
#                 Cambridge Crystallographic Data Centre
#                                CCDC 
#
#######################################################################
#
# If this CIF has been generated from an entry in the Cambridge 
# Structural Database, then it will include bibliographic, chemical, 
# crystal, experimental, refinement or atomic coordinate data resulting 
# from the CCDC's data processing and validation procedures.
#
#######################################################################

data_SELBUJ
_chemical_formula_moiety         'C18 H16 O5'
_chemical_name_systematic        
'methyl 6-methoxy-2-(4-methoxyphenyl)-1-benzofuran-4-carboxylate'
_symmetry_cell_setting           monoclinic
_symmetry_space_group_name_H-M   'P 21/c'
_symmetry_Int_Tables_number      14
_space_group_name_Hall           '-P 2ybc'
loop_
_symmetry_equiv_pos_site_id
_symmetry_equiv_pos_as_xyz
1 x,y,z
2 -x,1/2+y,1/2-z
3 -x,-y,-z
4 x,1/2-y,1/2+z
_cell_length_a                   11.0577(9)
_cell_length_b                   12.8224(10)
_cell_length_c                   11.7987(10)
_cell_angle_alpha                90
_cell_angle_beta                 110.529(3)
_cell_angle_gamma                90
_cell_volume                     1566.66
_exptl_crystal_colour            colorless
_exptl_crystal_description       plate
_cell_formula_units_Z            4
loop_
_atom_site_label
_atom_site_type_symbol
_atom_site_fract_x
_atom_site_fract_y
_atom_site_fract_z
O1 O 0.24708(18) 0.56193(16) 0.46486(17)
O2 O 0.7466(2) 0.7060(2) 0.4490(2)
O3 O 0.6727(2) 0.7255(2) 0.6000(2)
O4 O 0.3897(3) 0.5175(3) 0.1293(3)
O5 O 0.0186(2) 0.5889(2) 0.8853(2)
C1 C 0.3045(3) 0.6117(2) 0.5765(2)
C2 C 0.4189(3) 0.6527(2) 0.5838(3)
H1 H 0.474625 0.690057 0.648761
C3 C 0.5356(3) 0.6440(2) 0.4231(3)
C4 C 0.5151(3) 0.6063(2) 0.3076(3)
H2 H 0.577806 0.617223 0.272949
C5 C 0.4041(3) 0.5532(2) 0.2431(3)
C6 C 0.3099(3) 0.5345(2) 0.2889(3)
H3 H 0.235565 0.497602 0.245910
C7 C 0.3305(3) 0.5736(2) 0.4035(3)
C8 C 0.4395(3) 0.6287(2) 0.4738(2)
C9 C 0.6615(3) 0.6948(3) 0.4893(3)
C10 C 0.7961(4) 0.7716(4) 0.6720(4)
H4 H 0.800749 0.841512 0.644708
H5 H 0.865062 0.730859 0.663235
H6 H 0.803708 0.772895 0.755619
C11 C 0.2312(2) 0.6066(2) 0.6573(2)
C12 C 0.2591(3) 0.6723(2) 0.7555(3)
H7 H 0.325557 0.720556 0.769441
C13 C 0.1915(3) 0.6686(3) 0.8338(3)
H8 H 0.213194 0.713278 0.899964
C14 C 0.0923(3) 0.5989(2) 0.8140(3)
C15 C 0.0638(3) 0.5314(3) 0.7172(3)
H9 H -0.002662 0.483213 0.703790
C16 C 0.1325(3) 0.5347(2) 0.6403(3)
H10 H 0.112642 0.488149 0.575911
C17 C 0.0427(4) 0.6584(4) 0.9852(4)
H11 H 0.031000 0.729045 0.956312
H12 H 0.129636 0.649258 1.040120
H13 H -0.016476 0.643800 1.026356
C18 C 0.3100(8) 0.4475(7) 0.0757(7)
H14 H 0.317854 0.389655 0.129463
H15 H 0.327647 0.424570 0.005637
H16 H 0.223968 0.475112 0.051291
C19? C 0.4643(8) 0.5215(7) 0.0686(7)
H17? H 0.482069 0.593012 0.056210
H18? H 0.423502 0.488258 -0.008331
H19? H 0.543627 0.486209 0.111977
loop_
_geom_bond_atom_site_label_1
_geom_bond_atom_site_label_2
_geom_bond_site_symmetry_1
_geom_bond_site_symmetry_2
O1 C1 1_555 1_555
O2 C9 1_555 1_555
O3 C9 1_555 1_555
O4 C5 1_555 1_555
O5 C14 1_555 1_555
C1 C2 1_555 1_555
C2 H1 1_555 1_555
C3 C4 1_555 1_555
C4 H2 1_555 1_555
C5 C4 1_555 1_555
C6 C5 1_555 1_555
H3 C6 1_555 1_555
C7 O1 1_555 1_555
C8 C2 1_555 1_555
C9 C3 1_555 1_555
C10 O3 1_555 1_555
H4 C10 1_555 1_555
H5 C10 1_555 1_555
H6 C10 1_555 1_555
C11 C1 1_555 1_555
C12 C11 1_555 1_555
H7 C12 1_555 1_555
C13 C12 1_555 1_555
H8 C13 1_555 1_555
C14 C13 1_555 1_555
C15 C14 1_555 1_555
H9 C15 1_555 1_555
C16 C11 1_555 1_555
H10 C16 1_555 1_555
C17 O5 1_555 1_555
H11 C17 1_555 1_555
H12 C17 1_555 1_555
H13 C17 1_555 1_555
C18 O4 1_555 1_555
H14 C18 1_555 1_555
H15 C18 1_555 1_555
H16 C18 1_555 1_555
C3 C8 1_555 1_555
C6 C7 1_555 1_555
C7 C8 1_555 1_555
C15 C16 1_555 1_555

#END
