
#######################################################################
#
#                 Cambridge Crystallographic Data Centre
#                                CCDC 
#
#######################################################################
#
# If this CIF has been generated from an entry in the Cambridge 
# Structural Database, then it will include bibliographic, chemical, 
# crystal, experimental, refinement or atomic coordinate data resulting 
# from the CCDC's data processing and validation procedures.
#
#######################################################################

data_SELCUH
_chemical_formula_moiety         'C6 H17 Cl3 N2 Si1'
_chemical_name_systematic        
Trichloro-1,2-bis(dimethylamino)ethane-hydridosilane
_symmetry_cell_setting           monoclinic
_symmetry_space_group_name_H-M   'P 21/n'
_symmetry_Int_Tables_number      14
_space_group_name_Hall           '-P 2yn'
loop_
_symmetry_equiv_pos_site_id
_symmetry_equiv_pos_as_xyz
1 x,y,z
2 1/2-x,1/2+y,1/2-z
3 -x,-y,-z
4 1/2+x,1/2-y,1/2+z
_cell_length_a                   8.068(2)
_cell_length_b                   12.670(3)
_cell_length_c                   12.035(2)
_cell_angle_alpha                90
_cell_angle_beta                 108.93(3)
_cell_angle_gamma                90
_cell_volume                     1163.7
_exptl_crystal_colour            'pale yellow'
_exptl_crystal_description       cube
_cell_formula_units_Z            4
loop_
_atom_site_label
_atom_site_type_symbol
_atom_site_fract_x
_atom_site_fract_y
_atom_site_fract_z
Si1 Si 0.02717(15) 0.19432(10) 0.78315(10)
Cl1 Cl -0.10271(19) 0.03959(10) 0.73948(12)
Cl2 Cl 0.24703(16) 0.12640(10) 0.91721(10)
Cl3 Cl 0.16483(18) 0.17843(11) 0.65311(11)
N1 N -0.09720(50) 0.22111(29) 0.90797(33)
N2 N 0.12648(45) 0.34552(28) 0.82506(31)
C1 C -0.07224(94) 0.14317(49) 1.00254(55)
C2 C -0.28459(74) 0.23291(70) 0.84891(59)
C3 C -0.0243(12) 0.31999(53) 0.96417(69)
C4 C 0.0529(10) 0.38609(53) 0.91299(65)
C5 C 0.06302(91) 0.41484(43) 0.72063(52)
C6 C 0.31804(68) 0.35833(48) 0.86933(64)
H1 H -0.1142(44) 0.2421(27) 0.7049(29)
H2 H -0.1196 0.0768 0.9682
H3 H -0.1318 0.1658 1.0557
H4 H 0.0505 0.1352 1.0446
H5 H -0.3048 0.2843 0.7873
H6 H -0.3411 0.2552 0.9039
H7 H -0.3315 0.1660 0.8159
H8 H 0.0623 0.3009 1.0373
H9 H -0.1180 0.3575 0.9794
H10 H -0.0327 0.4385 0.8751
H11 H 0.1477 0.4189 0.9730
H12 H -0.0622 0.4093 0.6884
H13 H 0.1148 0.3924 0.6631
H14 H 0.0949 0.4868 0.7420
H15 H 0.3653 0.3154 0.9381
H16 H 0.3470 0.4310 0.8890
H17 H 0.3668 0.3365 0.8101
loop_
_geom_bond_atom_site_label_1
_geom_bond_atom_site_label_2
_geom_bond_site_symmetry_1
_geom_bond_site_symmetry_2
Si1 Cl1 1_555 1_555
Cl2 Si1 1_555 1_555
Cl3 Si1 1_555 1_555
N1 Si1 1_555 1_555
N2 Si1 1_555 1_555
C1 N1 1_555 1_555
C2 N1 1_555 1_555
C3 N1 1_555 1_555
C4 N2 1_555 1_555
C5 N2 1_555 1_555
C6 N2 1_555 1_555
H1 Si1 1_555 1_555
H2 C1 1_555 1_555
H3 C1 1_555 1_555
H4 C1 1_555 1_555
H5 C2 1_555 1_555
H6 C2 1_555 1_555
H7 C2 1_555 1_555
H8 C3 1_555 1_555
H9 C3 1_555 1_555
H10 C4 1_555 1_555
H11 C4 1_555 1_555
H12 C5 1_555 1_555
H13 C5 1_555 1_555
H14 C5 1_555 1_555
H15 C6 1_555 1_555
H16 C6 1_555 1_555
H17 C6 1_555 1_555
C3 C4 1_555 1_555

#END
