
#######################################################################
#
#                 Cambridge Crystallographic Data Centre
#                                CCDC 
#
#######################################################################
#
# If this CIF has been generated from an entry in the Cambridge 
# Structural Database, then it will include bibliographic, chemical, 
# crystal, experimental, refinement or atomic coordinate data resulting 
# from the CCDC's data processing and validation procedures.
#
#######################################################################

data_SELGUO
_chemical_formula_moiety         'C117 H88 S4,10(C4 H8 O1)'
_chemical_name_systematic        
"6,6'-spiro-bi-(3',9'-di-t-butyl-6'H-dispiro[thioxanthene-9,12'-di-indeno[1,2-b:2',1'-h]fluorene-15',9''-thioxanthene]) tetrahydrofuran solvate"
_symmetry_cell_setting           triclinic
_symmetry_space_group_name_H-M   'P -1'
_symmetry_Int_Tables_number      2
_space_group_name_Hall           '-P 1'
loop_
_symmetry_equiv_pos_site_id
_symmetry_equiv_pos_as_xyz
1 x,y,z
2 -x,-y,-z
_cell_length_a                   15.9701(10)
_cell_length_b                   17.8188(8)
_cell_length_c                   25.3977(11)
_cell_angle_alpha                86.261(4)
_cell_angle_beta                 87.234(4)
_cell_angle_gamma                63.893(5)
_cell_volume                     6474.63
_exptl_crystal_colour            colorless
_exptl_crystal_description       block
_cell_formula_units_Z            2
_exptl_crystal_recrystallization_method 'tetrahydrofuran / ethyl acetate'
_exptl_crystal_preparation       Luminescent
loop_
_atom_site_label
_atom_site_type_symbol
_atom_site_fract_x
_atom_site_fract_y
_atom_site_fract_z
S1 S 0.78760(11) 0.33713(10) 0.42087(5)
S2 S 0.43856(11) 0.59210(10) 0.51772(6)
S3 S 0.40910(13) 0.98373(10) -0.00262(7)
S4 S 0.6937(4) 1.0642(6) 0.10730(14)
C1 C 0.5161(3) 0.7524(3) 0.19789(15)
C2 C 0.6389(3) 0.6443(3) 0.26115(16)
C3 C 0.5645(3) 0.7345(3) 0.25102(15)
C4 C 0.6062(3) 0.7968(3) 0.24711(16)
C5 C 0.5349(3) 0.6754(3) 0.33347(16)
C6 C 0.4992(3) 0.7458(3) 0.29867(16)
C7 C 0.5869(3) 0.8424(3) 0.19870(16)
C8 C 0.5298(3) 0.8152(3) 0.16859(16)
C9 C 0.4163(3) 0.8144(3) 0.30991(17)
H1 H 0.392603 0.862541 0.286475
C10 C 0.6218(3) 0.6119(3) 0.30976(16)
C11 C 0.4871(3) 0.6717(3) 0.38052(16)
H2 H 0.510949 0.623785 0.404089
C12 C 0.4658(3) 0.7139(3) 0.17954(16)
H3 H 0.457455 0.670998 0.199917
C13 C 0.4277(3) 0.7409(3) 0.12952(16)
C14 C 0.2779(3) 0.8715(3) 0.37761(17)
C15 C 0.7737(3) 0.5196(3) 0.24695(16)
C16 C 0.7594(3) 0.4860(3) 0.29707(16)
C17 C 0.4911(3) 0.8433(3) 0.11880(17)
H4 H 0.499456 0.886623 0.098880
C18 C 0.3693(3) 0.8107(3) 0.35629(16)
C19 C 0.7130(3) 0.5998(3) 0.22877(16)
H5 H 0.722595 0.622659 0.195455
C20 C 0.6827(3) 0.5323(3) 0.32900(16)
H6 H 0.672472 0.510502 0.362529
C21 C 0.6580(3) 0.8092(3) 0.28537(17)
H7 H 0.670197 0.778545 0.318408
C22 C 0.4042(3) 0.7401(3) 0.39149(17)
C23 C 0.6210(3) 0.9019(3) 0.18646(17)
H8 H 0.607923 0.933367 0.153698
C24 C 0.8590(3) 0.4561(3) 0.22224(17)
C25 C 0.7478(3) 0.8946(3) 0.30415(17)
C26 C 0.8962(3) 0.3863(3) 0.25725(19)
C27 C 0.6906(3) 0.8682(3) 0.27276(17)
C28 C 0.6744(3) 0.9134(3) 0.22375(17)
C29 C 0.7812(3) 0.8681(3) 0.35527(18)
H9 H 0.768311 0.826745 0.374593
C30 C 0.8378(3) 0.3968(3) 0.30756(17)
C31 C 0.4396(3) 0.8052(3) 0.09951(17)
C32 C 0.7663(3) 0.9535(3) 0.27520(18)
C33 C 0.2577(3) 0.8358(3) 0.42403(17)
C34 C 0.3374(3) 0.7505(3) 0.43898(18)
C35 C 0.3726(3) 0.7123(3) 0.09870(17)
C36 C 0.8925(3) 0.3950(3) 0.35555(19)
C37 C 0.2167(3) 0.9509(3) 0.35870(19)
H10 H 0.230404 0.974670 0.326802
C38 C 0.7222(3) 0.9718(3) 0.22008(18)
C39 C 0.3544(3) 0.7574(3) 0.05019(18)
C40 C 0.9012(3) 0.4576(3) 0.17409(18)
H11 H 0.874868 0.505992 0.151013
C41 C 0.1342(3) 0.9954(3) 0.3877(2)
C42 C 0.7956(3) 0.3339(3) 0.31190(18)
C43 C 0.8327(3) 0.9019(3) 0.37742(19)
C44 C 0.7739(3) 0.3044(3) 0.3599(2)
C45 C 0.3826(3) 0.7596(4) 0.49076(19)
C46 C 0.3900(3) 0.8237(3) 0.04683(17)
C47 C 0.4591(4) 0.8126(3) 0.00160(18)
C48 C 0.1755(3) 0.8792(3) 0.45192(19)
H12 H 0.161400 0.854957 0.483471
C49 C 0.8516(3) 0.9615(3) 0.3466(2)
H13 H 0.888600 0.984410 0.361122
C50 C 0.3396(3) 0.6537(3) 0.11110(18)
H14 H 0.353859 0.623111 0.144153
C51 C 0.8187(3) 0.9881(3) 0.2963(2)
H15 H 0.831762 1.029143 0.276590
C52 C 0.6517(4) 1.0633(3) 0.2137(2)
C53 C 0.9788(3) 0.3174(3) 0.2429(2)
H16 H 1.005811 0.269581 0.266401
C54 C 0.8708(4) 0.8751(4) 0.43325(19)
C55 C 0.4743(3) 0.6992(4) 0.5703(2)
H17 H 0.505070 0.652486 0.594105
C56 C 0.2854(4) 0.6387(4) 0.0753(2)
C57 C 0.7999(4) 0.9425(4) 0.17785(19)
C58 C 0.9822(4) 0.3889(3) 0.1586(2)
C59 C 1.0273(4) 0.3902(4) 0.1040(2)
C60 C 0.2561(4) 0.5523(4) 0.4365(2)
H18 H 0.239885 0.507308 0.434404
C61 C 0.4724(4) 0.8796(4) -0.0217(2)
C62 C 0.1141(3) 0.9581(3) 0.4334(2)
H19 H 0.057057 0.987575 0.452119
C63 C 0.3047(4) 0.9115(3) 0.04775(18)
C64 C 0.8758(3) 0.3688(3) 0.40674(19)
C65 C 0.3074(4) 0.6819(4) 0.4416(2)
C66 C 0.7360(4) 0.2470(3) 0.3620(3)
H20 H 0.724330 0.225161 0.395194
C67 C 0.0668(4) 1.0843(3) 0.3674(2)
C68 C 0.2404(4) 0.6883(4) 0.4083(2)
H21 H 0.211454 0.737812 0.386434
C69 C 1.0201(4) 0.3199(3) 0.1948(2)
H22 H 1.076435 0.273329 0.185560
C70 C 0.5965(4) 0.7866(4) -0.0757(2)
H23 H 0.644032 0.777621 -0.101926
C71 C 0.3097(4) 0.9824(3) 0.0270(2)
C72 C 0.4289(4) 0.6922(4) 0.5250(2)
C73 C 0.5153(4) 0.7331(4) -0.0155(2)
H24 H 0.506180 0.686833 -0.000769
C74 C 0.3023(4) 0.7423(4) 0.0133(2)
H25 H 0.290727 0.771022 -0.020420
C75 C 0.2410(4) 0.5791(4) 0.0887(2)
C76 C 0.7748(4) 0.3068(4) 0.2667(2)
H26 H 0.788250 0.326526 0.233245
C77 C 0.5412(4) 0.8658(4) -0.0605(2)
H27 H 0.549707 0.911734 -0.076514
C78 C 0.6390(4) 1.1109(4) 0.1681(2)
C79 C 0.5841(4) 0.7202(4) -0.0535(2)
H28 H 0.622899 0.665217 -0.064268
C80 C 0.2308(5) 1.0624(4) 0.0318(2)
H29 H 0.234477 1.111535 0.017518
C81 C 0.2680(4) 0.6847(4) 0.0268(2)
H30 H 0.230836 0.675804 0.002133
C82 C 0.3219(4) 0.5456(4) 0.4702(3)
H31 H 0.346586 0.495977 0.492355
C83 C 0.9614(4) 0.4240(4) 0.3497(3)
H32 H 0.975523 0.441695 0.315745
C84 C 0.7159(4) 0.2225(4) 0.3175(3)
H33 H 0.688428 0.184733 0.319601
C85 C 0.5950(5) 1.1013(4) 0.2563(2)
H34 H 0.602504 1.069449 0.288741
C86 C 0.7344(4) 0.2513(4) 0.2690(3)
H35 H 0.719965 0.233719 0.237514
C87 C 0.9260(4) 0.3708(4) 0.4491(2)
H36 H 0.913833 0.351976 0.483240
C88 C 0.0317(5) 1.0825(4) 0.3138(2)
H37 H 0.083826 1.064198 0.288205
H38 H -0.015068 1.138675 0.303063
H39 H 0.003379 1.043491 0.315365
C89 C 0.3818(4) 0.8342(4) 0.5018(2)
H40 H 0.349029 0.882062 0.479221
C90 C -0.0196(4) 1.1244(4) 0.4052(2)
H41 H -0.051178 1.087990 0.409627
H42 H -0.062830 1.179219 0.390079
H43 H 0.000748 1.131265 0.439578
C91 C 0.2123(5) 0.6237(4) 0.4051(3)
H44 H 0.164504 0.629650 0.382006
C92 C 0.2200(5) 0.9214(4) 0.0707(2)
H45 H 0.214190 0.872829 0.084084
C93 C 0.4719(4) 0.7757(5) 0.5785(3)
H46 H 0.502236 0.781653 0.608105
C94 C 0.1163(5) 1.1405(4) 0.3676(3)
H47 H 0.137426 1.139851 0.403235
H48 H 0.073007 1.197798 0.356424
H49 H 0.170107 1.119934 0.343109
C95 C 0.7944(4) 0.9835(4) 0.1289(2)
C96 C 0.5733(5) 1.1940(5) 0.1644(3)
H50 H 0.566922 1.225753 0.132068
C97 C 0.5179(6) 1.2304(4) 0.2066(4)
H51 H 0.472848 1.287264 0.203992
C98 C 0.9931(5) 0.3995(5) 0.4427(3)
H52 H 1.027890 0.400231 0.471821
C99 C 0.1519(5) 1.0683(5) 0.0562(3)
H53 H 0.101130 1.121801 0.060516
C100 C 0.4271(5) 0.8425(5) 0.5449(3)
H54 H 0.426515 0.894843 0.550822
C101 C 1.0086(5) 0.4271(5) 0.3929(3)
H55 H 1.053142 0.448997 0.388245
C102 C 0.5284(5) 1.1828(4) 0.2540(3)
H56 H 0.490061 1.206529 0.284011
C103 C 0.8688(6) 0.9488(6) 0.0912(3)
H57 H 0.863076 0.975740 0.057137
C104 C 0.8813(5) 0.8695(4) 0.1873(3)
H58 H 0.888185 0.840435 0.220753
C105 C 0.1442(5) 0.9978(5) 0.0751(3)
H59 H 0.087413 1.001602 0.090937
C106 C 0.9467(7) 0.8795(7) 0.1025(3)
H60 H 0.997322 0.859470 0.077791
C107 C 0.2526(6) 0.5235(5) 0.0441(3)
H61 H 0.223762 0.558019 0.012416
H62 H 0.222472 0.486934 0.053887
H63 H 0.319186 0.489198 0.036929
C108 C 0.3572(4) 0.6016(4) 0.4764(2)
C109 C 0.8367(7) 0.8132(6) 0.4620(3)
H64 H 0.768437 0.840032 0.464681
H65 H 0.862533 0.798074 0.497462
H66 H 0.857744 0.762722 0.441922
C110 C 0.8360(7) 0.9517(5) 0.4654(3)
H67 H 0.850061 0.994640 0.446434
H68 H 0.867005 0.936841 0.499527
H69 H 0.768480 0.973430 0.471268
C111 C 0.9518(6) 0.8381(5) 0.1502(3)
H70 H 1.004914 0.786797 0.157801
C112 C 0.9760(5) 0.8318(6) 0.4317(3)
H71 H 0.997622 0.789375 0.405155
H72 H 0.998699 0.804999 0.466405
H73 H 1.000153 0.873080 0.422509
C113 C 0.9577(6) 0.4011(7) 0.0615(3)
H74 H 0.943685 0.352666 0.063545
H75 H 0.984662 0.405509 0.026648
H76 H 0.900137 0.452083 0.067163
C114 C 1.0495(10) 0.4638(9) 0.0982(5)
H77 H 0.991679 0.515679 0.100255
H78 H 1.080844 0.463407 0.064002
H79 H 1.090651 0.460520 0.126600
C115 C 1.1128(7) 0.3113(7) 0.0946(4)
H80 H 1.161271 0.305906 0.118902
H81 H 1.135224 0.312729 0.058156
H82 H 1.098197 0.263451 0.100726
C116 C 0.1323(6) 0.6343(6) 0.0919(6)
H83 H 0.115517 0.663368 0.124974
H84 H 0.100469 0.598381 0.090534
H85 H 0.113277 0.675540 0.061985
C117 C 0.2754(10) 0.5269(8) 0.1376(4)
H86 H 0.339963 0.485389 0.131934
H87 H 0.236278 0.498207 0.147198
H88 H 0.272637 0.562420 0.166134
O1 O 0.7955(4) 0.6445(3) 0.1062(2)
C123 C 0.7263(6) 0.7589(5) 0.0473(3)
H104 H 0.735801 0.761121 0.008545
H105 H 0.665139 0.804826 0.056595
C124 C 0.8240(7) 0.7084(6) 0.1187(3)
H106 H 0.790361 0.737009 0.150728
H107 H 0.891847 0.683273 0.124826
C125 C 0.7300(7) 0.6761(5) 0.0660(3)
H108 H 0.668014 0.683061 0.079605
H109 H 0.749351 0.637480 0.036664
C126 C 0.8004(8) 0.7665(6) 0.0735(3)
H110 H 0.855283 0.752774 0.049502
H111 H 0.779205 0.824330 0.084796
O2 O 0.4301(5) 0.5407(4) 0.2373(2)
C127 C 0.5123(5) 0.4365(5) 0.2992(3)
H112 H 0.571123 0.417799 0.318412
H113 H 0.498928 0.387864 0.295671
C128 C 0.5190(7) 0.4748(6) 0.2469(3)
H114 H 0.566450 0.496396 0.246856
H115 H 0.536608 0.433136 0.219503
C129 C 0.4346(6) 0.5034(5) 0.3269(3)
H116 H 0.457954 0.529918 0.351869
H117 H 0.394092 0.481565 0.346420
C130 C 0.3843(7) 0.5630(7) 0.2828(4)
H118 H 0.321548 0.565353 0.280319
H119 H 0.376329 0.619680 0.290257
O3 O 0.7101(5) 0.7204(5) 0.4120(2)
C131 C 0.7756(8) 0.6393(7) 0.4150(4)
H120 H 0.836930 0.636486 0.423280
H121 H 0.781652 0.613584 0.380748
C132 C 0.6496(6) 0.7343(6) 0.4564(4)
H122 H 0.597093 0.721441 0.449049
H123 H 0.624252 0.793125 0.466381
C133 C 0.7476(19) 0.5966(12) 0.4547(9)
H124 H 0.799924 0.543619 0.467052
H125 H 0.695666 0.585451 0.443671
C134 C 0.7118(18) 0.6729(14) 0.5016(10)
H126 H 0.676100 0.663290 0.532032
H127 H 0.761903 0.686254 0.513107
O4 O 0.3000(6) 1.0231(5) 0.2490(3)
C137 C 0.3802(8) 1.0406(6) 0.2476(3)
H136 H 0.438422 0.987968 0.250246
H137 H 0.376846 1.075381 0.277186
C138 C 0.3780(7) 1.0856(7) 0.1971(3)
H138 H 0.362507 1.144843 0.202580
H139 H 0.439388 1.059765 0.178576
C139 C 0.3100(8) 1.0803(9) 0.1680(3)
H140 H 0.336905 1.057169 0.133395
H141 H 0.258822 1.136925 0.161411
C140 C 0.2719(8) 1.0255(9) 0.1965(5)
H142 H 0.203096 1.050234 0.194314
H143 H 0.299335 0.968919 0.182367
O5 O 0.7581(13) 0.6582(13) 0.7462(7)
C141 C 0.7687(13) 0.7116(12) 0.7041(10)
H144 H 0.835398 0.698716 0.698877
H145 H 0.734123 0.770922 0.713193
C142 C 0.7089(13) 0.6203(12) 0.7230(7)
H146 H 0.739015 0.559392 0.732001
H147 H 0.644280 0.643412 0.737577
C143 C 0.7322(16) 0.6978(14) 0.6556(8)
H148 H 0.677554 0.749099 0.643453
H149 H 0.780591 0.680937 0.627187
C144 C 0.7065(18) 0.6331(14) 0.6698(8)
H150 H 0.642872 0.648534 0.657448
H151 H 0.750078 0.581193 0.652946
O6 O 0.5434(8) 0.9175(5) 0.6235(3)
C145 C 0.4821(8) 1.0084(9) 0.6199(5)
H152 H 0.423318 1.019906 0.602388
H153 H 0.466731 1.030882 0.655549
C146 C 0.6145(8) 0.9042(9) 0.5873(7)
H154 H 0.609045 0.872914 0.557864
H155 H 0.675242 0.870401 0.604153
C147 C 0.5313(12) 1.0451(9) 0.5903(7)
H156 H 0.550624 1.077406 0.613191
H157 H 0.491728 1.083711 0.562165
C148 C 0.6101(11) 0.9803(10) 0.5681(7)
H158 H 0.605774 0.984772 0.529128
H159 H 0.667225 0.984752 0.577303
O7 O 0.0556(8) 0.5878(9) 0.3116(4)
C149 C -0.0849(7) 0.6454(7) 0.2770(8)
H160 H -0.134636 0.701902 0.268001
H161 H -0.113414 0.606671 0.285973
C150 C -0.0294(12) 0.6467(9) 0.3182(6)
H162 H -0.028546 0.702002 0.317763
H163 H -0.055681 0.637231 0.352690
C151 C -0.0163(14) 0.6154(11) 0.2347(5)
H164 H -0.023121 0.571212 0.216256
H165 H -0.023230 0.661654 0.208861
C152 C 0.0704(11) 0.5832(12) 0.2589(7)
H166 H 0.108280 0.524319 0.249883
H167 H 0.104559 0.616038 0.246479
C153 C -0.1418(13) 1.1470(13) 0.1172(8)
H168 H -0.136670 1.102143 0.094441
H169 H -0.209048 1.181533 0.124575
C154 C -0.0317(10) 1.1397(8) 0.1721(5)
H170 H 0.031625 1.094131 0.177909
H171 H -0.048583 1.176958 0.202050
O8 O -0.0326(10) 1.1855(9) 0.1243(5)
C155 C -0.1072(8) 1.1978(10) 0.0883(6)
H172 H -0.154143 1.256962 0.084854
H173 H -0.082713 1.176770 0.052930
C156 C -0.0957(9) 1.1058(9) 0.1697(6)
H174 H -0.141127 1.122169 0.199629
H175 H -0.063974 1.044077 0.168629
O9 O 0.5762(10) 0.4123(10) 0.1004(5)
C157 C 0.6112(12) 0.5131(8) 0.0983(6)
H176 H 0.636151 0.548233 0.077742
H177 H 0.568200 0.547533 0.125952
C158 C 0.6862(9) 0.4439(10) 0.1229(5)
H178 H 0.692773 0.455129 0.159736
H179 H 0.745673 0.431282 0.103280
C159 C 0.6609(10) 0.3765(8) 0.1211(5)
H180 H 0.705436 0.332192 0.098684
H181 H 0.659067 0.351808 0.156995
C160 C 0.5580(10) 0.4876(11) 0.0626(6)
H182 H 0.587562 0.472787 0.027217
H183 H 0.491356 0.527688 0.059904
O10 O 0.1965(15) 0.7512(8) 0.2360(7)
C161 C 0.0920(7) 0.8525(8) 0.2775(4)
H184 H 0.101402 0.872042 0.311283
H185 H 0.024727 0.868261 0.273964
C162 C 0.1442(13) 0.7669(9) 0.2749(5)
H186 H 0.181343 0.744306 0.307166
H187 H 0.102183 0.739761 0.272829
C163 C 0.1268(14) 0.8882(8) 0.2328(5)
H188 H 0.077106 0.919770 0.207116
H189 H 0.152512 0.925366 0.244814
C164 C 0.1991(10) 0.8140(12) 0.2105(6)
H190 H 0.187875 0.812672 0.172598
H191 H 0.260860 0.813431 0.213737
C118? C 0.316(3) 0.502(3) 0.117(2)
H89? H 0.377782 0.498015 0.107038
H90? H 0.311394 0.451909 0.108016
H91? H 0.306601 0.508295 0.155653
C119? C 1.034(2) 0.318(2) 0.0748(10)
H92? H 1.079407 0.266084 0.091644
H93? H 1.054165 0.323545 0.038207
H94? H 0.972834 0.317858 0.075095
C120? C 1.1387(14) 0.3715(16) 0.1150(10)
H95? H 1.138808 0.417961 0.133614
H96? H 1.172612 0.366368 0.081215
H97? H 1.169108 0.319426 0.136592
C121? C 0.181(3) 0.609(3) 0.1409(17)
H98? H 0.221448 0.605324 0.169563
H99? H 0.150267 0.572293 0.150201
H100? H 0.133523 0.666453 0.135358
C122? C 0.994(2) 0.4722(16) 0.0757(11)
H101? H 0.928437 0.492068 0.067031
H102? H 1.031293 0.467195 0.043135
H103? H 1.000581 0.512031 0.098086
S5? S 0.7143(14) 1.0946(12) 0.1136(9)
H128? H 0.836120 0.634953 0.400314
H129? H 0.756309 0.604399 0.394492
H130? H 0.657158 0.772691 0.480102
H131? H 0.583866 0.758756 0.445418
C135? C 0.674(2) 0.6590(17) 0.4804(13)
H132? H 0.643459 0.628971 0.464033
H133? H 0.655676 0.664521 0.518286
C136? C 0.7850(18) 0.6095(14) 0.4738(12)
H134? H 0.819655 0.631422 0.494434
H135? H 0.809453 0.548065 0.479653
loop_
_geom_bond_atom_site_label_1
_geom_bond_atom_site_label_2
_geom_bond_site_symmetry_1
_geom_bond_site_symmetry_2
S1 C44 1_555 1_555
S2 C72 1_555 1_555
S3 C61 1_555 1_555
S4 C78 1_555 1_555
C1 C3 1_555 1_555
C2 C3 1_555 1_555
C3 C4 1_555 1_555
C4 C7 1_555 1_555
C5 C6 1_555 1_555
C6 C3 1_555 1_555
C7 C8 1_555 1_555
C8 C1 1_555 1_555
C9 C6 1_555 1_555
H1 C9 1_555 1_555
C10 C2 1_555 1_555
C11 C5 1_555 1_555
H2 C11 1_555 1_555
C12 C1 1_555 1_555
H3 C12 1_555 1_555
C13 C12 1_555 1_555
C14 C18 1_555 1_555
C15 C16 1_555 1_555
C16 C20 1_555 1_555
C17 C8 1_555 1_555
H4 C17 1_555 1_555
C18 C9 1_555 1_555
C19 C2 1_555 1_555
H5 C19 1_555 1_555
C20 C10 1_555 1_555
H6 C20 1_555 1_555
C21 C4 1_555 1_555
H7 C21 1_555 1_555
C22 C11 1_555 1_555
C23 C7 1_555 1_555
H8 C23 1_555 1_555
C24 C15 1_555 1_555
C25 C27 1_555 1_555
C26 C24 1_555 1_555
C27 C21 1_555 1_555
C28 C23 1_555 1_555
C29 C25 1_555 1_555
H9 C29 1_555 1_555
C30 C16 1_555 1_555
C31 C13 1_555 1_555
C32 C25 1_555 1_555
C33 C14 1_555 1_555
C34 C22 1_555 1_555
C35 C13 1_555 1_555
C36 C30 1_555 1_555
C37 C14 1_555 1_555
H10 C37 1_555 1_555
C38 C28 1_555 1_555
C39 C35 1_555 1_555
C40 C24 1_555 1_555
H11 C40 1_555 1_555
C41 C37 1_555 1_555
C42 C30 1_555 1_555
C43 C29 1_555 1_555
C44 C42 1_555 1_555
C45 C34 1_555 1_555
C46 C31 1_555 1_555
C47 C46 1_555 1_555
C48 C33 1_555 1_555
H12 C48 1_555 1_555
C49 C43 1_555 1_555
H13 C49 1_555 1_555
C50 C35 1_555 1_555
H14 C50 1_555 1_555
C51 C32 1_555 1_555
H15 C51 1_555 1_555
C52 C38 1_555 1_555
C53 C26 1_555 1_555
H16 C53 1_555 1_555
C54 C43 1_555 1_555
C55 H17 1_555 1_555
C56 C50 1_555 1_555
C57 C38 1_555 1_555
C58 C40 1_555 1_555
C59 C58 1_555 1_555
C60 H18 1_555 1_555
C61 C47 1_555 1_555
C62 C41 1_555 1_555
H19 C62 1_555 1_555
C63 C46 1_555 1_555
C64 S1 1_555 1_555
C65 C34 1_555 1_555
C66 C44 1_555 1_555
H20 C66 1_555 1_555
C67 C41 1_555 1_555
C68 C65 1_555 1_555
H21 C68 1_555 1_555
C69 C53 1_555 1_555
H22 C69 1_555 1_555
C70 H23 1_555 1_555
C71 S3 1_555 1_555
C72 C45 1_555 1_555
C73 C47 1_555 1_555
H24 C73 1_555 1_555
C74 C39 1_555 1_555
H25 C74 1_555 1_555
C75 C56 1_555 1_555
C76 C42 1_555 1_555
H26 C76 1_555 1_555
C77 C61 1_555 1_555
H27 C77 1_555 1_555
C78 C52 1_555 1_555
C79 C70 1_555 1_555
H28 C79 1_555 1_555
C80 C71 1_555 1_555
H29 C80 1_555 1_555
C81 C56 1_555 1_555
H30 C81 1_555 1_555
C82 C60 1_555 1_555
H31 C82 1_555 1_555
C83 C36 1_555 1_555
H32 C83 1_555 1_555
C84 C66 1_555 1_555
H33 C84 1_555 1_555
C85 C52 1_555 1_555
H34 C85 1_555 1_555
C86 C76 1_555 1_555
H35 C86 1_555 1_555
C87 C64 1_555 1_555
H36 C87 1_555 1_555
C88 C67 1_555 1_555
H37 C88 1_555 1_555
H38 C88 1_555 1_555
H39 C88 1_555 1_555
C89 C45 1_555 1_555
H40 C89 1_555 1_555
C90 C67 1_555 1_555
H41 C90 1_555 1_555
H42 C90 1_555 1_555
H43 C90 1_555 1_555
C91 C60 1_555 1_555
H44 C91 1_555 1_555
C92 C63 1_555 1_555
H45 C92 1_555 1_555
C93 C55 1_555 1_555
H46 C93 1_555 1_555
C94 C67 1_555 1_555
H47 C94 1_555 1_555
H48 C94 1_555 1_555
H49 C94 1_555 1_555
C95 S4 1_555 1_555
C96 C78 1_555 1_555
H50 C96 1_555 1_555
C97 C96 1_555 1_555
H51 C97 1_555 1_555
C98 C87 1_555 1_555
H52 C98 1_555 1_555
C99 C80 1_555 1_555
H53 C99 1_555 1_555
C100 C89 1_555 1_555
H54 C100 1_555 1_555
C101 C83 1_555 1_555
H55 C101 1_555 1_555
C102 C85 1_555 1_555
H56 C102 1_555 1_555
C103 C95 1_555 1_555
H57 C103 1_555 1_555
C104 C57 1_555 1_555
H58 C104 1_555 1_555
C105 C92 1_555 1_555
H59 C105 1_555 1_555
C106 C103 1_555 1_555
H60 C106 1_555 1_555
C107 C75 1_555 1_555
H61 C107 1_555 1_555
H62 C107 1_555 1_555
H63 C107 1_555 1_555
C108 S2 1_555 1_555
C109 C54 1_555 1_555
H64 C109 1_555 1_555
H65 C109 1_555 1_555
H66 C109 1_555 1_555
C110 C54 1_555 1_555
H67 C110 1_555 1_555
H68 C110 1_555 1_555
H69 C110 1_555 1_555
C111 C104 1_555 1_555
H70 C111 1_555 1_555
C112 C54 1_555 1_555
H71 C112 1_555 1_555
H72 C112 1_555 1_555
H73 C112 1_555 1_555
C113 C59 1_555 1_555
H74 C113 1_555 1_555
H75 C113 1_555 1_555
H76 C113 1_555 1_555
C114 C59 1_555 1_555
H77 C114 1_555 1_555
H78 C114 1_555 1_555
H79 C114 1_555 1_555
C115 C59 1_555 1_555
H80 C115 1_555 1_555
H81 C115 1_555 1_555
H82 C115 1_555 1_555
C116 C75 1_555 1_555
H83 C116 1_555 1_555
H84 C116 1_555 1_555
H85 C116 1_555 1_555
C117 C75 1_555 1_555
H86 C117 1_555 1_555
H87 C117 1_555 1_555
H88 C117 1_555 1_555
O1 C124 1_555 1_555
C123 H104 1_555 1_555
H105 C123 1_555 1_555
C124 H106 1_555 1_555
H107 C124 1_555 1_555
C125 O1 1_555 1_555
H108 C125 1_555 1_555
H109 C125 1_555 1_555
C126 C123 1_555 1_555
H110 C126 1_555 1_555
H111 C126 1_555 1_555
O2 C128 1_555 1_555
C127 H112 1_555 1_555
H113 C127 1_555 1_555
C128 C127 1_555 1_555
H114 C128 1_555 1_555
H115 C128 1_555 1_555
C129 C127 1_555 1_555
H116 C129 1_555 1_555
H117 C129 1_555 1_555
C130 O2 1_555 1_555
H118 C130 1_555 1_555
H119 C130 1_555 1_555
O3 C131 1_555 1_555
C131 H120 1_555 1_555
H121 C131 1_555 1_555
C132 O3 1_555 1_555
H122 C132 1_555 1_555
H123 C132 1_555 1_555
C133 C131 1_555 1_555
H124 C133 1_555 1_555
H125 C133 1_555 1_555
C134 C132 1_555 1_555
H126 C134 1_555 1_555
H127 C134 1_555 1_555
O4 C137 1_555 1_555
C137 H136 1_555 1_555
H137 C137 1_555 1_555
C138 C137 1_555 1_555
H138 C138 1_555 1_555
H139 C138 1_555 1_555
C139 C138 1_555 1_555
H140 C139 1_555 1_555
H141 C139 1_555 1_555
C140 O4 1_555 1_555
H142 C140 1_555 1_555
H143 C140 1_555 1_555
O5 C141 1_555 1_555
C141 H144 1_555 1_555
H145 C141 1_555 1_555
C142 O5 1_555 1_555
H146 C142 1_555 1_555
H147 C142 1_555 1_555
C143 C141 1_555 1_555
H148 C143 1_555 1_555
H149 C143 1_555 1_555
C144 C142 1_555 1_555
H150 C144 1_555 1_555
H151 C144 1_555 1_555
O6 C145 1_555 1_555
C145 H152 1_555 1_555
H153 C145 1_555 1_555
C146 O6 1_555 1_555
H154 C146 1_555 1_555
H155 C146 1_555 1_555
C147 C145 1_555 1_555
H156 C147 1_555 1_555
H157 C147 1_555 1_555
C148 C146 1_555 1_555
H158 C148 1_555 1_555
H159 C148 1_555 1_555
O7 C150 1_555 1_555
C149 H160 1_555 1_555
H161 C149 1_555 1_555
C150 C149 1_555 1_555
H162 C150 1_555 1_555
H163 C150 1_555 1_555
C151 C149 1_555 1_555
H164 C151 1_555 1_555
H165 C151 1_555 1_555
C152 O7 1_555 1_555
H166 C152 1_555 1_555
H167 C152 1_555 1_555
C153 H168 1_555 1_555
H169 C153 1_555 1_555
C154 H170 1_555 1_555
H171 C154 1_555 1_555
O8 C154 1_555 1_555
C155 C153 1_555 1_555
H172 C155 1_555 1_555
H173 C155 1_555 1_555
C156 C153 1_555 1_555
H174 C156 1_555 1_555
H175 C156 1_555 1_555
O9 C159 1_555 1_555
C157 H176 1_555 1_555
H177 C157 1_555 1_555
C158 C157 1_555 1_555
H178 C158 1_555 1_555
H179 C158 1_555 1_555
C159 C158 1_555 1_555
H180 C159 1_555 1_555
H181 C159 1_555 1_555
C160 O9 1_555 1_555
H182 C160 1_555 1_555
H183 C160 1_555 1_555
O10 C162 1_555 1_555
C161 H184 1_555 1_555
H185 C161 1_555 1_555
C162 C161 1_555 1_555
H186 C162 1_555 1_555
H187 C162 1_555 1_555
C163 C161 1_555 1_555
H188 C163 1_555 1_555
H189 C163 1_555 1_555
C164 O10 1_555 1_555
H190 C164 1_555 1_555
H191 C164 1_555 1_555
C5 C10 1_555 1_555
C15 C19 1_555 1_555
C17 C31 1_555 1_555
C18 C22 1_555 1_555
C26 C30 1_555 1_555
C27 C28 1_555 1_555
C32 C38 1_555 1_555
C33 C34 1_555 1_555
C36 C64 1_555 1_555
C39 C46 1_555 1_555
C48 C62 1_555 1_555
C49 C51 1_555 1_555
C55 C72 1_555 1_555
C57 C95 1_555 1_555
C58 C69 1_555 1_555
C63 C71 1_555 1_555
C65 C108 1_555 1_555
C68 C91 1_555 1_555
C70 C77 1_555 1_555
C73 C79 1_555 1_555
C74 C81 1_555 1_555
C82 C108 1_555 1_555
C84 C86 1_555 1_555
C93 C100 1_555 1_555
C97 C102 1_555 1_555
C98 C101 1_555 1_555
C99 C105 1_555 1_555
C106 C111 1_555 1_555
C123 C125 1_555 1_555
C124 C126 1_555 1_555
C129 C130 1_555 1_555
C133 C134 1_555 1_555
C139 C140 1_555 1_555
C143 C144 1_555 1_555
C147 C148 1_555 1_555
C151 C152 1_555 1_555
C154 C156 1_555 1_555
O8 C155 1_555 1_555
C157 C160 1_555 1_555
C163 C164 1_555 1_555

#END
