
#######################################################################
#
#                 Cambridge Crystallographic Data Centre
#                                CCDC 
#
#######################################################################
#
# If this CIF has been generated from an entry in the Cambridge 
# Structural Database, then it will include bibliographic, chemical, 
# crystal, experimental, refinement or atomic coordinate data resulting 
# from the CCDC's data processing and validation procedures.
#
#######################################################################

data_SELGIC
_chemical_name_common            'Voriconazolium nitrate'
_chemical_formula_moiety         'C16 H15 F3 N5 O1 1+,N1 O3 1-'
_chemical_name_systematic        
'1-[(2R,3S)-2-(2,4-difluorophenyl)-3-(5-fluoropyrimidin-4-yl)-2-hydroxybutyl]-4H-1,2,4-triazol-1-ium nitrate'
_symmetry_cell_setting           orthorhombic
_symmetry_space_group_name_H-M   'P 21 21 21'
_symmetry_Int_Tables_number      19
_space_group_name_Hall           'P 2ac 2ab'
loop_
_symmetry_equiv_pos_site_id
_symmetry_equiv_pos_as_xyz
1 x,y,z
2 1/2-x,-y,1/2+z
3 -x,1/2+y,1/2-z
4 1/2+x,1/2-y,-z
_cell_length_a                   6.8355(12)
_cell_length_b                   9.8086(18)
_cell_length_c                   27.812(5)
_cell_angle_alpha                90
_cell_angle_beta                 90
_cell_angle_gamma                90
_cell_volume                     1864.7
_exptl_crystal_colour            colorless
_exptl_crystal_description       platelet
_cell_formula_units_Z            4
loop_
_atom_site_label
_atom_site_type_symbol
_atom_site_fract_x
_atom_site_fract_y
_atom_site_fract_z
O1 O 1.1020(2) 0.25476(16) 0.09189(6)
H1 H 1.1609 0.3311 0.0917
N1 N 1.0449(3) 0.17014(18) 0.18671(6)
N2 N 0.9982(3) 0.03492(19) 0.18430(8)
N3 N 1.2721(3) 0.0662(2) 0.22347(7)
H2 H 1.3928 0.0451 0.2373
N4 N 1.0964(3) 0.5323(2) 0.09069(8)
N5 N 1.1079(4) 0.7636(2) 0.11709(10)
F1 F 0.6326(3) 0.62809(17) 0.13761(8)
F2 F 0.51960(19) 0.18337(16) 0.13731(6)
F3 F 0.4996(3) -0.18637(18) 0.03191(6)
C1 C 1.1417(4) -0.0239(3) 0.20722(10)
H3 H 1.1519 -0.1175 0.2117
C2 C 1.2090(4) 0.1879(3) 0.21024(8)
H4 H 1.2699 0.2708 0.2165
C3 C 0.9178(3) 0.2726(2) 0.16500(7)
H5 H 0.9645 0.3626 0.1739
H6 H 0.7867 0.2623 0.1778
C4 C 0.9095(3) 0.2623(2) 0.10992(7)
C5 C 0.8011(4) 0.3926(2) 0.09113(8)
H7 H 0.6727 0.3961 0.1067
C6 C 0.7674(5) 0.3888(3) 0.03663(9)
H8 H 0.6996 0.4699 0.0268
H9 H 0.6903 0.3103 0.0286
H10 H 0.8911 0.3839 0.0204
C7 C 0.9075(4) 0.5229(2) 0.10315(9)
C8 C 1.1850(5) 0.6514(3) 0.09859(12)
H11 H 1.3165 0.6562 0.0901
C9 C 0.9221(5) 0.7537(3) 0.12961(11)
H12 H 0.8587 0.8288 0.1428
C10 C 0.8214(4) 0.6340(3) 0.12342(11)
C11 C 0.8018(3) 0.1363(2) 0.09159(8)
C12 C 0.6127(4) 0.1045(2) 0.10455(8)
C13 C 0.5075(4) -0.0036(3) 0.08586(11)
H13 H 0.3805 -0.0226 0.0957
C14 C 0.6008(5) -0.0806(3) 0.05207(10)
C15 C 0.7873(5) -0.0566(3) 0.03748(9)
H14 H 0.8466 -0.1118 0.0145
C16 C 0.8864(4) 0.0519(2) 0.05772(8)
H15 H 1.0145 0.0688 0.0482
O2 O 0.4040(3) 0.47849(19) 0.22868(8)
O3 O 0.3502(3) 0.69164(19) 0.23950(7)
O4 O 0.1268(3) 0.5643(2) 0.20808(7)
N6 N 0.2908(4) 0.5793(2) 0.22499(8)
loop_
_geom_bond_atom_site_label_1
_geom_bond_atom_site_label_2
_geom_bond_site_symmetry_1
_geom_bond_site_symmetry_2
O1 H1 1_555 1_555
N1 N2 1_555 1_555
N2 C1 1_555 1_555
N3 H2 1_555 1_555
N4 C7 1_555 1_555
N5 C8 1_555 1_555
F1 C10 1_555 1_555
F2 C12 1_555 1_555
F3 C14 1_555 1_555
C1 N3 1_555 1_555
H3 C1 1_555 1_555
C2 N1 1_555 1_555
H4 C2 1_555 1_555
C3 N1 1_555 1_555
H5 C3 1_555 1_555
H6 C3 1_555 1_555
C4 O1 1_555 1_555
C5 C4 1_555 1_555
H7 C5 1_555 1_555
C6 C5 1_555 1_555
H8 C6 1_555 1_555
H9 C6 1_555 1_555
H10 C6 1_555 1_555
C7 C5 1_555 1_555
C8 N4 1_555 1_555
H11 C8 1_555 1_555
C9 N5 1_555 1_555
H12 C9 1_555 1_555
C10 C7 1_555 1_555
C11 C4 1_555 1_555
C12 C11 1_555 1_555
C13 C12 1_555 1_555
H13 C13 1_555 1_555
C14 C13 1_555 1_555
C15 C14 1_555 1_555
H14 C15 1_555 1_555
C16 C11 1_555 1_555
H15 C16 1_555 1_555
O2 N6 1_555 1_555
O3 N6 1_555 1_555
O4 N6 1_555 1_555
N3 C2 1_555 1_555
C3 C4 1_555 1_555
C9 C10 1_555 1_555
C15 C16 1_555 1_555

#END
