
#######################################################################
#
#                 Cambridge Crystallographic Data Centre
#                                CCDC 
#
#######################################################################
#
# If this CIF has been generated from an entry in the Cambridge 
# Structural Database, then it will include bibliographic, chemical, 
# crystal, experimental, refinement or atomic coordinate data resulting 
# from the CCDC's data processing and validation procedures.
#
#######################################################################

data_SELMEE
_chemical_formula_moiety         'C34 H46 O3'
_chemical_name_systematic        
2,2'-[(5-t-butyl-2-hydroxy-1,3-phenylene)bis(methylene)]bis(6-t-butyl-4-methylphenol)
_symmetry_cell_setting           monoclinic
_symmetry_space_group_name_H-M   'P 21/n'
_symmetry_Int_Tables_number      14
_space_group_name_Hall           '-P 2yn'
loop_
_symmetry_equiv_pos_site_id
_symmetry_equiv_pos_as_xyz
1 x,y,z
2 1/2-x,1/2+y,1/2-z
3 -x,-y,-z
4 1/2+x,1/2-y,1/2+z
_cell_length_a                   14.7284(15)
_cell_length_b                   9.7166(10)
_cell_length_c                   21.691(2)
_cell_angle_alpha                90
_cell_angle_beta                 101.619(2)
_cell_angle_gamma                90
_cell_volume                     3040.59
_exptl_crystal_colour            colorless
_exptl_crystal_description       block
_cell_formula_units_Z            4
loop_
_atom_site_label
_atom_site_type_symbol
_atom_site_fract_x
_atom_site_fract_y
_atom_site_fract_z
O1 O 0.35444(8) 0.69693(11) 0.57093(5)
H1 H 0.387242 0.733163 0.602992
O2 O 0.44771(7) 0.80574(11) 0.68284(5)
H2 H 0.411020 0.833745 0.705153
O3 O 0.31244(8) 0.88546(11) 0.74588(5)
H3 H 0.2628(15) 0.918(2) 0.7307(10)
C1 C 0.38628(10) 0.56573(15) 0.56336(7)
C2 C 0.32238(10) 0.46776(15) 0.53236(6)
C3 C 0.35652(11) 0.33600(15) 0.52574(7)
H4 H 0.314723 0.267567 0.505680
C4 C 0.44896(12) 0.29990(16) 0.54710(7)
C5 C 0.50938(11) 0.40036(16) 0.57604(7)
H5 H 0.572877 0.377798 0.590407
C6 C 0.47964(10) 0.53337(15) 0.58463(7)
C7 C 0.55012(10) 0.63968(16) 0.61561(7)
H6 H 0.609609 0.621759 0.602453
H7 H 0.528453 0.731967 0.599752
C8 C 0.56767(10) 0.64197(14) 0.68698(7)
C9 C 0.63724(10) 0.56096(15) 0.72192(7)
H8 H 0.671645 0.502001 0.700223
C10 C 0.65861(10) 0.56270(14) 0.78755(7)
C11 C 0.60692(10) 0.64991(14) 0.81752(7)
H9 H 0.620603 0.653915 0.862196
C12 C 0.53547(10) 0.73220(14) 0.78468(7)
C13 C 0.51639(10) 0.72613(14) 0.71920(7)
C14 C 0.48063(10) 0.82192(15) 0.82127(7)
H10 H 0.519604 0.842888 0.862970
H11 H 0.465852 0.910096 0.798594
C15 C 0.39119(10) 0.75557(15) 0.83063(7)
C16 C 0.39236(11) 0.65763(16) 0.87759(7)
H12 H 0.449957 0.631883 0.903293
C17 C 0.31157(12) 0.59669(16) 0.88780(7)
C18 C 0.22809(11) 0.63779(15) 0.85003(7)
H13 H 0.172384 0.597990 0.857501
C19 C 0.22192(10) 0.73459(14) 0.80168(7)
C20 C 0.30620(10) 0.79061(14) 0.79291(7)
C21 C 0.12778(10) 0.77756(15) 0.76142(7)
C22 C 0.04683(11) 0.70508(18) 0.78236(8)
H14 H 0.053447 0.605263 0.778506
H15 H -0.011662 0.734946 0.755695
H16 H 0.046882 0.728608 0.826305
C23 C 0.12314(12) 0.73962(17) 0.69195(7)
H17 H 0.173636 0.785603 0.676737
H18 H 0.063510 0.769388 0.666753
H19 H 0.129330 0.639724 0.688131
C24 C 0.11208(11) 0.93374(16) 0.76853(8)
H20 H 0.117217 0.956185 0.813149
H21 H 0.050169 0.958687 0.745212
H22 H 0.158924 0.985251 0.751738
C25 C 0.31316(14) 0.49225(19) 0.93956(8)
H23 H 0.371361 0.440368 0.945972
H24 H 0.260807 0.428850 0.927676
H25 H 0.308330 0.539765 0.978624
C26 C 0.73698(10) 0.47175(15) 0.82367(7)
C27 C 0.75161(14) 0.4926(2) 0.89487(8)
H26 H 0.768135 0.588757 0.905116
H27 H 0.801725 0.432419 0.916007
H28 H 0.694338 0.469874 0.909104
C28 C 0.82782(12) 0.5040(2) 0.80303(9)
H29 H 0.820838 0.485476 0.757907
H30 H 0.877356 0.446087 0.826621
H31 H 0.843589 0.601147 0.811313
C29 C 0.71109(13) 0.32073(17) 0.81020(9)
H32 H 0.651821 0.301424 0.822403
H33 H 0.759394 0.261674 0.834399
H34 H 0.705481 0.302308 0.765169
C30 C 0.48259(14) 0.15542(18) 0.53841(9)
H35 H 0.539851 0.159672 0.522013
H36 H 0.435101 0.105507 0.508596
H37 H 0.494592 0.107489 0.578997
C31 C 0.22008(11) 0.50405(16) 0.50749(7)
C32 C 0.16527(12) 0.38214(18) 0.47379(9)
H38 H 0.193022 0.353002 0.438469
H39 H 0.100828 0.409981 0.457985
H40 H 0.166918 0.305529 0.503381
C33 C 0.21196(12) 0.62315(19) 0.46007(8)
H41 H 0.246538 0.702854 0.480212
H42 H 0.146589 0.648050 0.446012
H43 H 0.237587 0.594480 0.423751
C34 C 0.17459(12) 0.54476(19) 0.56267(8)
H44 H 0.178690 0.467620 0.592210
H45 H 0.109321 0.567803 0.546659
H46 H 0.206744 0.624806 0.584330
loop_
_geom_bond_atom_site_label_1
_geom_bond_atom_site_label_2
_geom_bond_site_symmetry_1
_geom_bond_site_symmetry_2
O1 H1 1_555 1_555
O2 H2 1_555 1_555
O3 H3 1_555 1_555
C1 O1 1_555 1_555
C2 C1 1_555 1_555
C3 C2 1_555 1_555
H4 C3 1_555 1_555
C4 C3 1_555 1_555
C5 C4 1_555 1_555
H5 C5 1_555 1_555
C6 C1 1_555 1_555
C7 C6 1_555 1_555
H6 C7 1_555 1_555
H7 C7 1_555 1_555
C8 C7 1_555 1_555
C9 C8 1_555 1_555
H8 C9 1_555 1_555
C10 C9 1_555 1_555
C11 C10 1_555 1_555
H9 C11 1_555 1_555
C12 C11 1_555 1_555
C13 O2 1_555 1_555
C14 C12 1_555 1_555
H10 C14 1_555 1_555
H11 C14 1_555 1_555
C15 C14 1_555 1_555
C16 C15 1_555 1_555
H12 C16 1_555 1_555
C17 C16 1_555 1_555
C18 C17 1_555 1_555
H13 C18 1_555 1_555
C19 C18 1_555 1_555
C20 O3 1_555 1_555
C21 C19 1_555 1_555
C22 C21 1_555 1_555
H14 C22 1_555 1_555
H15 C22 1_555 1_555
H16 C22 1_555 1_555
C23 C21 1_555 1_555
H17 C23 1_555 1_555
H18 C23 1_555 1_555
H19 C23 1_555 1_555
C24 C21 1_555 1_555
H20 C24 1_555 1_555
H21 C24 1_555 1_555
H22 C24 1_555 1_555
C25 C17 1_555 1_555
H23 C25 1_555 1_555
H24 C25 1_555 1_555
H25 C25 1_555 1_555
C26 C10 1_555 1_555
C27 C26 1_555 1_555
H26 C27 1_555 1_555
H27 C27 1_555 1_555
H28 C27 1_555 1_555
C28 C26 1_555 1_555
H29 C28 1_555 1_555
H30 C28 1_555 1_555
H31 C28 1_555 1_555
C29 C26 1_555 1_555
H32 C29 1_555 1_555
H33 C29 1_555 1_555
H34 C29 1_555 1_555
C30 C4 1_555 1_555
H35 C30 1_555 1_555
H36 C30 1_555 1_555
H37 C30 1_555 1_555
C31 C2 1_555 1_555
C32 C31 1_555 1_555
H38 C32 1_555 1_555
H39 C32 1_555 1_555
H40 C32 1_555 1_555
C33 C31 1_555 1_555
H41 C33 1_555 1_555
H42 C33 1_555 1_555
H43 C33 1_555 1_555
C34 C31 1_555 1_555
H44 C34 1_555 1_555
H45 C34 1_555 1_555
H46 C34 1_555 1_555
C5 C6 1_555 1_555
C8 C13 1_555 1_555
C12 C13 1_555 1_555
C15 C20 1_555 1_555
C19 C20 1_555 1_555

#END
