
#######################################################################
#
#                 Cambridge Crystallographic Data Centre
#                                CCDC 
#
#######################################################################
#
# If this CIF has been generated from an entry in the Cambridge 
# Structural Database, then it will include bibliographic, chemical, 
# crystal, experimental, refinement or atomic coordinate data resulting 
# from the CCDC's data processing and validation procedures.
#
#######################################################################

data_SELMAA
_chemical_formula_moiety         'C40 H58 O3'
_chemical_name_systematic        
4,4'-[(5-t-butyl-2-hydroxy-1,3-phenylene)bis(methylene)]bis(2,6-di-t-butylphenol)
_symmetry_cell_setting           triclinic
_symmetry_space_group_name_H-M   'P -1'
_symmetry_Int_Tables_number      2
_space_group_name_Hall           '-P 1'
loop_
_symmetry_equiv_pos_site_id
_symmetry_equiv_pos_as_xyz
1 x,y,z
2 -x,-y,-z
_cell_length_a                   11.311(2)
_cell_length_b                   12.387(3)
_cell_length_c                   14.494(3)
_cell_angle_alpha                112.184(4)
_cell_angle_beta                 102.014(4)
_cell_angle_gamma                94.922(4)
_cell_volume                     1808.68
_exptl_crystal_colour            colorless
_exptl_crystal_description       block
_cell_formula_units_Z            2
loop_
_atom_site_label
_atom_site_type_symbol
_atom_site_fract_x
_atom_site_fract_y
_atom_site_fract_z
O1 O 0.04534(18) 0.15026(16) 0.06050(13)
H1 H -0.001782 0.098086 0.066003
O2 O 0.39817(17) 0.65139(15) 0.43395(13)
O3 O 0.67986(17) 1.16820(15) 0.69557(15)
C1 C 0.1602(2) 0.4589(2) 0.23904(18)
H2 H 0.202103 0.529666 0.240575
C2 C 0.1355(2) 0.3550(2) 0.14868(18)
C3 C 0.0721(2) 0.2530(2) 0.15009(18)
C4 C 0.0354(2) 0.2526(2) 0.23690(17)
C5 C 0.0646(2) 0.3590(2) 0.32391(17)
H3 H 0.041874 0.360980 0.383956
C6 C 0.1256(2) 0.4623(2) 0.32628(17)
C7 C 0.1531(2) 0.5771(2) 0.42305(17)
H4 H 0.172628 0.644597 0.404612
H5 H 0.078303 0.586694 0.448563
C8 C 0.2583(2) 0.58218(19) 0.50905(17)
C9 C 0.2375(2) 0.5461(2) 0.58513(18)
H6 H 0.155097 0.520673 0.583453
C10 C 0.3320(2) 0.5454(2) 0.66370(18)
C11 C 0.4515(2) 0.5873(2) 0.66481(17)
H7 H 0.517914 0.589395 0.718155
C12 C 0.4775(2) 0.62585(19) 0.59189(17)
C13 C 0.3793(2) 0.62016(19) 0.51257(17)
C14 C 0.6085(2) 0.67382(19) 0.59869(18)
H8 H 0.627394 0.630524 0.532067
H9 H 0.665483 0.658928 0.652634
C15 C 0.63039(19) 0.8060(2) 0.62383(17)
C16 C 0.6762(2) 0.8500(2) 0.56151(17)
H10 H 0.693995 0.795506 0.501633
C17 C 0.6979(2) 0.9708(2) 0.58195(17)
C18 C 0.6681(2) 1.0473(2) 0.67013(17)
C19 C 0.6263(2) 1.00800(19) 0.73930(17)
C20 C 0.60754(19) 0.8864(2) 0.71337(17)
H11 H 0.578317 0.857212 0.757963
C21 C 0.6077(2) 1.0951(2) 0.84204(18)
C22 C 0.5076(2) 1.1678(2) 0.8231(2)
H12 H 0.528399 1.207481 0.780020
H13 H 0.503198 1.227355 0.889405
H14 H 0.427882 1.114592 0.788011
C23 C 0.5673(3) 1.0310(2) 0.90549(19)
H15 H 0.487694 0.978717 0.866878
H16 H 0.559901 1.089484 0.971123
H17 H 0.628593 0.983761 0.919027
C24 C 0.7316(2) 1.1791(2) 0.90721(19)
H18 H 0.793854 1.132347 0.919609
H19 H 0.721522 1.233905 0.973376
H20 H 0.757763 1.224333 0.869912
C25 C 0.7556(2) 1.0157(2) 0.51299(18)
C26 C 0.7854(2) 0.9127(2) 0.42534(19)
H21 H 0.842443 0.872035 0.455042
H22 H 0.823219 0.944202 0.383504
H23 H 0.709401 0.856651 0.381793
C27 C 0.6656(2) 1.0740(2) 0.45906(19)
H24 H 0.587582 1.018486 0.421753
H25 H 0.701163 1.094374 0.410307
H26 H 0.650997 1.146119 0.510932
C28 C 0.8776(2) 1.1019(2) 0.5765(2)
H27 H 0.863053 1.167333 0.634769
H28 H 0.910838 1.133536 0.532678
H29 H 0.936446 1.059870 0.602489
C29 C 0.3098(2) 0.5035(2) 0.74668(19)
C30 C 0.3434(4) 0.6098(3) 0.8504(2)
H30 H 0.424672 0.654236 0.861295
H31 H 0.344816 0.582286 0.905684
H32 H 0.282221 0.661399 0.851030
C31 C 0.3915(3) 0.4147(3) 0.7554(2)
H33 H 0.373308 0.346407 0.688849
H34 H 0.376037 0.388208 0.808217
H35 H 0.477967 0.452368 0.774816
C32 C 0.1774(3) 0.4422(4) 0.7218(3)
H36 H 0.122519 0.499663 0.724126
H37 H 0.169475 0.409608 0.772692
H38 H 0.155165 0.377818 0.652695
C33 C -0.0362(2) 0.1406(2) 0.23656(19)
C34 C -0.1630(2) 0.1029(2) 0.1589(2)
H39 H -0.210095 0.167074 0.178114
H40 H -0.207084 0.031632 0.159548
H41 H -0.152729 0.085942 0.089626
C35 C -0.0583(3) 0.1640(2) 0.3432(2)
H42 H 0.020784 0.190168 0.395306
H43 H -0.101266 0.090964 0.341614
H44 H -0.108495 0.225841 0.360428
C36 C 0.0359(2) 0.0375(2) 0.2126(2)
H45 H -0.007996 -0.029125 0.220117
H46 H 0.117959 0.063895 0.260715
H47 H 0.043702 0.012257 0.141720
C37 C 0.1751(3) 0.3536(3) 0.0527(2)
C38 C 0.2627(3) 0.2648(3) 0.0241(2)
H48 H 0.335144 0.286921 0.082500
H49 H 0.288478 0.266084 -0.036029
H50 H 0.220180 0.184866 0.007650
C39 C 0.0610(3) 0.3214(3) -0.0386(2)
H51 H 0.018769 0.240702 -0.057461
H52 H 0.086621 0.325970 -0.097813
H53 H 0.005112 0.377178 -0.018621
C40 C 0.2420(3) 0.4764(3) 0.0724(2)
H54 H 0.186851 0.533823 0.088327
H55 H 0.267023 0.472878 0.010634
H56 H 0.314962 0.501037 0.130711
H57 H 0.697(3) 1.189(3) 0.6578(14)
H58 H 0.473(3) 0.669(3) 0.438(3)
loop_
_geom_bond_atom_site_label_1
_geom_bond_atom_site_label_2
_geom_bond_site_symmetry_1
_geom_bond_site_symmetry_2
O1 H1 1_555 1_555
O2 C13 1_555 1_555
O3 C18 1_555 1_555
C1 H2 1_555 1_555
C2 C1 1_555 1_555
C3 O1 1_555 1_555
C4 C3 1_555 1_555
C5 C4 1_555 1_555
H3 C5 1_555 1_555
C6 C1 1_555 1_555
C7 C6 1_555 1_555
H4 C7 1_555 1_555
H5 C7 1_555 1_555
C8 C7 1_555 1_555
C9 C8 1_555 1_555
H6 C9 1_555 1_555
C10 C9 1_555 1_555
C11 C10 1_555 1_555
H7 C11 1_555 1_555
C12 C11 1_555 1_555
C13 C8 1_555 1_555
C14 C12 1_555 1_555
H8 C14 1_555 1_555
H9 C14 1_555 1_555
C15 C14 1_555 1_555
C16 C15 1_555 1_555
H10 C16 1_555 1_555
C17 C16 1_555 1_555
C18 C17 1_555 1_555
C19 C18 1_555 1_555
C20 C15 1_555 1_555
H11 C20 1_555 1_555
C21 C19 1_555 1_555
C22 C21 1_555 1_555
H12 C22 1_555 1_555
H13 C22 1_555 1_555
H14 C22 1_555 1_555
C23 C21 1_555 1_555
H15 C23 1_555 1_555
H16 C23 1_555 1_555
H17 C23 1_555 1_555
C24 C21 1_555 1_555
H18 C24 1_555 1_555
H19 C24 1_555 1_555
H20 C24 1_555 1_555
C25 C17 1_555 1_555
C26 C25 1_555 1_555
H21 C26 1_555 1_555
H22 C26 1_555 1_555
H23 C26 1_555 1_555
C27 C25 1_555 1_555
H24 C27 1_555 1_555
H25 C27 1_555 1_555
H26 C27 1_555 1_555
C28 C25 1_555 1_555
H27 C28 1_555 1_555
H28 C28 1_555 1_555
H29 C28 1_555 1_555
C29 C10 1_555 1_555
C30 C29 1_555 1_555
H30 C30 1_555 1_555
H31 C30 1_555 1_555
H32 C30 1_555 1_555
C31 C29 1_555 1_555
H33 C31 1_555 1_555
H34 C31 1_555 1_555
H35 C31 1_555 1_555
C32 C29 1_555 1_555
H36 C32 1_555 1_555
H37 C32 1_555 1_555
H38 C32 1_555 1_555
C33 C4 1_555 1_555
C34 C33 1_555 1_555
H39 C34 1_555 1_555
H40 C34 1_555 1_555
H41 C34 1_555 1_555
C35 C33 1_555 1_555
H42 C35 1_555 1_555
H43 C35 1_555 1_555
H44 C35 1_555 1_555
C36 C33 1_555 1_555
H45 C36 1_555 1_555
H46 C36 1_555 1_555
H47 C36 1_555 1_555
C37 C2 1_555 1_555
C38 C37 1_555 1_555
H48 C38 1_555 1_555
H49 C38 1_555 1_555
H50 C38 1_555 1_555
C39 C37 1_555 1_555
H51 C39 1_555 1_555
H52 C39 1_555 1_555
H53 C39 1_555 1_555
C40 C37 1_555 1_555
H54 C40 1_555 1_555
H55 C40 1_555 1_555
H56 C40 1_555 1_555
H57 O3 1_555 1_555
H58 O2 1_555 1_555
C2 C3 1_555 1_555
C5 C6 1_555 1_555
C12 C13 1_555 1_555
C19 C20 1_555 1_555

#END
