
#######################################################################
#
#                 Cambridge Crystallographic Data Centre
#                                CCDC 
#
#######################################################################
#
# If this CIF has been generated from an entry in the Cambridge 
# Structural Database, then it will include bibliographic, chemical, 
# crystal, experimental, refinement or atomic coordinate data resulting 
# from the CCDC's data processing and validation procedures.
#
#######################################################################

data_SELWOX
_chemical_formula_moiety         'C20 H14 N2 O1'
_chemical_name_systematic        Phenyl(2-phenyl-2H-indazol-3-yl)methanone
_symmetry_cell_setting           triclinic
_symmetry_space_group_name_H-M   'P -1'
_symmetry_Int_Tables_number      2
_space_group_name_Hall           '-P 1'
loop_
_symmetry_equiv_pos_site_id
_symmetry_equiv_pos_as_xyz
1 x,y,z
2 -x,-y,-z
_cell_length_a                   8.6509(7)
_cell_length_b                   9.6346(4)
_cell_length_c                   10.4549(4)
_cell_angle_alpha                112.631(2)
_cell_angle_beta                 100.874(3)
_cell_angle_gamma                95.813(3)
_cell_volume                     775.189
_exptl_crystal_colour            colorless
_chemical_melting_point          '163-165 deg.C'
_cell_formula_units_Z            2
loop_
_atom_site_label
_atom_site_type_symbol
_atom_site_fract_x
_atom_site_fract_y
_atom_site_fract_z
O1 O 0.1079(2) 0.9938(2) 0.21012(17)
N1 N 0.2289(2) 0.8966(2) 0.43745(17)
N2 N 0.2182(2) 0.8000(2) 0.50269(19)
C1 C 0.3073(4) 1.3655(4) 0.6950(3)
H1 H 0.3227 1.4699 0.7518
C2 C 0.3897(3) 1.3126(3) 0.5908(3)
H2 H 0.4617 1.3817 0.5780
C3 C 0.3665(3) 1.1579(3) 0.5049(3)
H3 H 0.4232 1.1220 0.4353
C4 C 0.2573(3) 1.0574(3) 0.5247(2)
C5 C 0.2191(2) 0.8231(2) 0.2943(2)
C6 C 0.1968(3) 0.9012(3) 0.1961(2)
C7 C 0.2797(3) 0.8570(2) 0.0789(2)
C8 C 0.4174(3) 0.7963(3) 0.0895(2)
H4 H 0.4562 0.7778 0.1695
C9 C 0.4972(4) 0.7633(3) -0.0173(3)
H5 H 0.5904 0.7237 -0.0090
C10 C 0.4396(5) 0.7886(4) -0.1358(3)
H6 H 0.4935 0.7655 -0.2082
C11 C 0.1964(3) 0.6596(3) 0.3964(2)
C12 C 0.1737(3) 0.5178(3) 0.4072(3)
H7 H 0.1732 0.5131 0.4943
C13 C 0.1527(3) 0.3889(3) 0.2864(3)
H8 H 0.1375 0.2940 0.2907
C14 C 0.1535(3) 0.3956(3) 0.1538(3)
H9 H 0.1380 0.3045 0.0730
C15 C 0.1762(3) 0.5303(3) 0.1400(2)
H10 H 0.1768 0.5323 0.0518
C16 C 0.1987(2) 0.6671(3) 0.2639(2)
C17 C 0.3034(4) 0.8476(3) -0.1486(3)
H11 H 0.2650 0.8640 -0.2299
C18 C 0.2222(3) 0.8830(3) -0.0419(2)
H12 H 0.1300 0.9240 -0.0507
C19 C 0.1760(3) 1.1083(3) 0.6306(2)
H13 H 0.1051 1.0398 0.6450
C20 C 0.2028(3) 1.2641(3) 0.7147(3)
H14 H 0.1485 1.3003 0.7861
loop_
_geom_bond_atom_site_label_1
_geom_bond_atom_site_label_2
_geom_bond_site_symmetry_1
_geom_bond_site_symmetry_2
O1 C6 1_555 1_555
N1 N2 1_555 1_555
N2 C11 1_555 1_555
C1 H1 1_555 1_555
C2 C1 1_555 1_555
H2 C2 1_555 1_555
C3 C2 1_555 1_555
H3 C3 1_555 1_555
C4 N1 1_555 1_555
C5 N1 1_555 1_555
C6 C5 1_555 1_555
C7 C6 1_555 1_555
C8 C7 1_555 1_555
H4 C8 1_555 1_555
C9 C8 1_555 1_555
H5 C9 1_555 1_555
C10 C9 1_555 1_555
H6 C10 1_555 1_555
C11 C12 1_555 1_555
C12 H7 1_555 1_555
C13 C12 1_555 1_555
H8 C13 1_555 1_555
C14 C13 1_555 1_555
H9 C14 1_555 1_555
C15 C14 1_555 1_555
H10 C15 1_555 1_555
C16 C5 1_555 1_555
C17 C10 1_555 1_555
H11 C17 1_555 1_555
C18 C7 1_555 1_555
H12 C18 1_555 1_555
C19 C4 1_555 1_555
H13 C19 1_555 1_555
C20 C1 1_555 1_555
H14 C20 1_555 1_555
C3 C4 1_555 1_555
C11 C16 1_555 1_555
C15 C16 1_555 1_555
C17 C18 1_555 1_555
C19 C20 1_555 1_555

#END
