
#######################################################################
#
#                 Cambridge Crystallographic Data Centre
#                                CCDC 
#
#######################################################################
#
# If this CIF has been generated from an entry in the Cambridge 
# Structural Database, then it will include bibliographic, chemical, 
# crystal, experimental, refinement or atomic coordinate data resulting 
# from the CCDC's data processing and validation procedures.
#
#######################################################################

data_SELWOW
_chemical_formula_moiety         'C72 H98 N4'
_chemical_name_systematic        
2,8,12,18-Tetraheptyl-3,7,13,17-tetramethyl-5,15-bis(4-(but-3-en-1-yl)phenyl)porphyrin
_symmetry_cell_setting           triclinic
_symmetry_space_group_name_H-M   'P -1'
_symmetry_Int_Tables_number      2
_space_group_name_Hall           '-P 1'
loop_
_symmetry_equiv_pos_site_id
_symmetry_equiv_pos_as_xyz
1 x,y,z
2 -x,-y,-z
_cell_length_a                   8.675(6)
_cell_length_b                   9.849(10)
_cell_length_c                   19.648(16)
_cell_angle_alpha                97.46(4)
_cell_angle_beta                 96.67(3)
_cell_angle_gamma                100.67(4)
_cell_volume                     1618.72
_exptl_crystal_colour            red
_exptl_crystal_description       needle
_cell_formula_units_Z            1
_exptl_crystal_recrystallization_method methanol/chloroform
loop_
_atom_site_label
_atom_site_type_symbol
_atom_site_fract_x
_atom_site_fract_y
_atom_site_fract_z
N1 N 0.3219(3) 0.4308(3) 0.41504(15)
H1 H 0.3833 0.4580 0.4546
N2 N 0.3222(3) 0.3925(3) 0.54943(15)
C1 C 0.5023(6) 0.5310(6) 0.3385(2)
H3 H 0.5027 0.5400 0.2914
C2 C 0.3584(5) 0.4582(5) 0.3523(2)
C3 C 0.2240(6) 0.3945(5) 0.2992(2)
C4 C 0.1075(5) 0.3286(4) 0.3307(2)
C5 C -0.0514(6) 0.2435(6) 0.2936(3)
H4 H -0.0536 0.2390 0.2439
H5 H -0.1359 0.2875 0.3081
H6 H -0.0660 0.1496 0.3052
C6 C 0.1701(4) 0.3520(4) 0.40473(19)
C7 C 0.0922(4) 0.3053(4) 0.4590(2)
C8 C 0.1638(4) 0.3311(4) 0.52889(19)
C9 C 0.0921(5) 0.3075(5) 0.5906(2)
C10 C -0.0807(6) 0.2538(6) 0.5973(3)
H7 H -0.0927 0.2587 0.6459
H8 H -0.1136 0.1576 0.5744
H9 H -0.1459 0.3110 0.5757
C11 C 0.2097(7) 0.3520(6) 0.6458(2)
C12 C 0.6455(5) 0.5930(5) 0.3801(2)
C13 C -0.0771(4) 0.2277(4) 0.4430(2)
C14 C -0.1995(5) 0.2997(5) 0.4386(3)
H10 H -0.1760 0.3979 0.4445
C15 C -0.3550(5) 0.2300(6) 0.4257(3)
H11 H -0.4351 0.2826 0.4236
C16 C -0.3981(5) 0.0871(7) 0.4159(2)
C17 C -0.2754(6) 0.0139(5) 0.4201(2)
H12 H -0.3000 -0.0843 0.4140
C18 C -0.1163(5) 0.0829(4) 0.4332(2)
H13 H -0.0358 0.0308 0.4354
C19 C -0.5702(6) 0.0133(8) 0.4016(3)
H14 H -0.6236 0.0433 0.4405
H15 H -0.5763 -0.0877 0.3988
C20 C -0.6582(7) 0.0426(7) 0.3340(4)
H16 H -0.7730 0.0115 0.3315
H17 H -0.6347 0.1427 0.3309
C21 C -0.6008(11) -0.0345(14) 0.2806(5)
H18 H -0.6124 -0.1312 0.2807
C22 C -0.534(2) 0.015(2) 0.2318(8)
H19 H -0.5204 0.1114 0.2295
H20 H -0.4996 -0.0444 0.1982
C23 C 0.1924(16) 0.4216(15) 0.2248(6)
H21 H 0.0791 0.4146 0.2095
H22 H 0.2515 0.5131 0.2186
C24 C 0.2543(14) 0.3028(13) 0.1877(5)
H23 H 0.1957 0.2141 0.1974
H24 H 0.3660 0.3114 0.2064
C25 C 0.2406(16) 0.2982(13) 0.1098(5)
H25 H 0.1307 0.3010 0.0926
H26 H 0.3074 0.3839 0.1009
C26 C 0.284(2) 0.1765(14) 0.0673(7)
H27 H 0.2275 0.0896 0.0798
H28 H 0.3978 0.1805 0.0790
C27 C 0.246(3) 0.1720(18) -0.0103(7)
H29 H 0.1312 0.1658 -0.0214
H30 H 0.2983 0.2614 -0.0217
C28 C 0.287(3) 0.064(2) -0.0547(8)
H31 H 0.2588 -0.0244 -0.0370
H32 H 0.4019 0.0842 -0.0548
C29 C 0.205(4) 0.050(2) -0.1271(10)
H33 H 0.2396 -0.0217 -0.1566
H34 H 0.2298 0.1384 -0.1441
H35 H 0.0910 0.0241 -0.1276
C30 C 0.2320(13) 0.3180(12) 0.7238(5)
H36 H 0.1480 0.2413 0.7304
H37 H 0.3353 0.2938 0.7359
C31 C 0.2208(13) 0.4535(11) 0.7658(5)
H38 H 0.1187 0.4766 0.7501
H39 H 0.3044 0.5275 0.7565
C32 C 0.2355(15) 0.4537(12) 0.8436(5)
H40 H 0.3354 0.4261 0.8585
H41 H 0.1495 0.3813 0.8525
C33 C 0.231(2) 0.5895(14) 0.8894(6)
H42 H 0.3155 0.6629 0.8800
H43 H 0.1299 0.6160 0.8759
C34 C 0.251(3) 0.5864(16) 0.9664(6)
H44 H 0.1816 0.5006 0.9739
H45 H 0.3600 0.5778 0.9807
C35 C 0.219(3) 0.7009(19) 1.0132(7)
H46 H 0.1080 0.7064 1.0005
H47 H 0.2840 0.7873 1.0040
C36 C 0.246(5) 0.700(3) 1.0893(9)
H48 H 0.2195 0.7837 1.1133
H49 H 0.3562 0.6993 1.1039
H50 H 0.1792 0.6180 1.1004
N1A N 0.6781(3) 0.5692(3) 0.58496(15)
H1A H 0.6167 0.5420 0.5454
N2A N 0.6778(3) 0.6075(3) 0.45057(15)
C1A C 0.4977(6) 0.4690(6) 0.6615(2)
H3A H 0.4973 0.4600 0.7086
C2A C 0.6416(5) 0.5418(5) 0.6477(2)
C3A C 0.7760(6) 0.6055(5) 0.7008(2)
C4A C 0.8925(5) 0.6714(4) 0.6693(2)
C5A C 1.0514(6) 0.7565(6) 0.7064(3)
H4A H 1.0536 0.7610 0.7561
H5A H 1.1359 0.7125 0.6919
H6A H 1.0660 0.8504 0.6948
C6A C 0.8299(4) 0.6480(4) 0.59527(19)
C7A C 0.9078(4) 0.6947(4) 0.5410(2)
C8A C 0.8362(4) 0.6689(4) 0.47111(19)
C9A C 0.9079(5) 0.6925(5) 0.4094(2)
C10A C 1.0807(6) 0.7462(6) 0.4027(3)
H7A H 1.0927 0.7413 0.3541
H8A H 1.1136 0.8424 0.4256
H9A H 1.1459 0.6890 0.4243
C11A C 0.7903(7) 0.6480(6) 0.3542(2)
C12A C 0.3545(5) 0.4070(5) 0.6199(2)
C13A C 1.0771(4) 0.7723(4) 0.5570(2)
C14A C 1.1995(5) 0.7003(5) 0.5614(3)
H10A H 1.1760 0.6021 0.5555
C15A C 1.3550(5) 0.7700(6) 0.5743(3)
H11A H 1.4351 0.7174 0.5764
C16A C 1.3981(5) 0.9129(7) 0.5841(2)
C17A C 1.2754(6) 0.9861(5) 0.5799(2)
H12A H 1.3000 1.0843 0.5860
C18A C 1.1163(5) 0.9171(4) 0.5668(2)
H13A H 1.0358 0.9692 0.5646
C19A C 1.5702(6) 0.9867(8) 0.5984(3)
H14A H 1.6236 0.9567 0.5595
H15A H 1.5763 1.0877 0.6012
C20A C 1.6582(7) 0.9574(7) 0.6660(4)
H16A H 1.7730 0.9885 0.6685
H17A H 1.6347 0.8573 0.6691
C21A C 1.6008(11) 1.0345(14) 0.7194(5)
H18A H 1.6124 1.1312 0.7193
C22A C 1.534(2) 0.985(2) 0.7682(8)
H19A H 1.5204 0.8886 0.7705
H20A H 1.4996 1.0444 0.8018
C23A C 0.8076(16) 0.5784(15) 0.7752(6)
H21A H 0.9209 0.5854 0.7905
H22A H 0.7485 0.4869 0.7814
C24A C 0.7457(14) 0.6972(13) 0.8123(5)
H23A H 0.8043 0.7859 0.8026
H24A H 0.6340 0.6886 0.7936
C25A C 0.7594(16) 0.7018(13) 0.8902(5)
H25A H 0.8693 0.6990 0.9074
H26A H 0.6926 0.6161 0.8991
C26A C 0.716(2) 0.8235(14) 0.9327(7)
H27A H 0.7725 0.9104 0.9202
H28A H 0.6022 0.8195 0.9210
C27A C 0.754(3) 0.8280(18) 1.0103(7)
H29A H 0.8688 0.8342 1.0214
H30A H 0.7017 0.7386 1.0217
C28A C 0.713(3) 0.936(2) 1.0547(8)
H31A H 0.7412 1.0244 1.0370
H32A H 0.5981 0.9158 1.0548
C29A C 0.795(4) 0.950(2) 1.1271(10)
H33A H 0.7604 1.0217 1.1566
H34A H 0.7702 0.8616 1.1441
H35A H 0.9090 0.9759 1.1276
C30A C 0.7680(13) 0.6820(12) 0.2762(5)
H36A H 0.8520 0.7587 0.2696
H37A H 0.6647 0.7062 0.2641
C31A C 0.7792(13) 0.5465(11) 0.2342(5)
H38A H 0.8813 0.5234 0.2499
H39A H 0.6956 0.4725 0.2435
C32A C 0.7645(15) 0.5463(12) 0.1564(5)
H40A H 0.6646 0.5739 0.1415
H41A H 0.8505 0.6187 0.1475
C33A C 0.769(2) 0.4105(14) 0.1106(6)
H42A H 0.6845 0.3371 0.1200
H43A H 0.8701 0.3840 0.1241
C34A C 0.749(3) 0.4136(16) 0.0336(6)
H44A H 0.8184 0.4994 0.0261
H45A H 0.6400 0.4222 0.0193
C35A C 0.781(3) 0.2991(19) -0.0132(7)
H46A H 0.8920 0.2936 -0.0005
H47A H 0.7160 0.2127 -0.0040
C36A C 0.754(5) 0.300(3) -0.0893(9)
H48A H 0.7805 0.2163 -0.1133
H49A H 0.6438 0.3007 -0.1039
H50A H 0.8208 0.3820 -0.1004
H2? H 0.3901 0.4178 0.5219
C37? C 0.2537(17) 0.3800(14) 0.2208(5)
H51? H 0.3583 0.3576 0.2176
H52? H 0.1739 0.3031 0.1931
C38? C 0.2452(11) 0.5124(10) 0.1923(4)
H53? H 0.3296 0.5875 0.2184
H54? H 0.1435 0.5380 0.1990
C39? C 0.2616(14) 0.5009(13) 0.1155(4)
H55? H 0.3637 0.4753 0.1096
H56? H 0.1785 0.4237 0.0903
C40? C 0.252(4) 0.6268(18) 0.0819(7)
H57? H 0.3383 0.7043 0.1046
H58? H 0.1514 0.6550 0.0874
C41? C 0.266(4) 0.596(2) 0.0046(8)
H59? H 0.3655 0.5646 -0.0002
H60? H 0.1789 0.5185 -0.0175
C42? C 0.261(3) 0.713(2) -0.0314(7)
H61? H 0.3468 0.7905 -0.0088
H62? H 0.1604 0.7427 -0.0274
C43? C 0.277(2) 0.6829(19) -0.1071(7)
H63? H 0.2723 0.7659 -0.1282
H64? H 0.1919 0.6071 -0.1302
H65? H 0.3783 0.6562 -0.1116
C44? C 0.1628(12) 0.3779(10) 0.7191(4)
H66? H 0.2335 0.4597 0.7477
H67? H 0.0531 0.3906 0.7171
C45? C 0.1829(14) 0.2436(11) 0.7460(5)
H68? H 0.1016 0.1659 0.7199
H69? H 0.2868 0.2243 0.7383
C46? C 0.1696(15) 0.2523(12) 0.8225(5)
H70? H 0.2505 0.3315 0.8476
H71? H 0.0660 0.2736 0.8294
C47? C 0.187(3) 0.1269(18) 0.8550(7)
H72? H 0.2872 0.1009 0.8461
H73? H 0.1008 0.0488 0.8331
C48? C 0.184(3) 0.149(2) 0.9330(8)
H74? H 0.2479 0.2417 0.9518
H75? H 0.0743 0.1520 0.9399
C49? C 0.234(4) 0.055(3) 0.9745(8)
H76? H 0.3380 0.0416 0.9631
H77? H 0.1607 -0.0353 0.9603
C50? C 0.249(3) 0.087(2) 1.0489(8)
H78? H 0.2744 0.0086 1.0696
H79? H 0.1496 0.1064 1.0619
H80? H 0.3327 0.1691 1.0654
loop_
_geom_bond_atom_site_label_1
_geom_bond_atom_site_label_2
_geom_bond_site_symmetry_1
_geom_bond_site_symmetry_2
N1 H1 1_555 1_555
N2 C8 1_555 1_555
C1 H3 1_555 1_555
C2 N1 1_555 1_555
C3 C2 1_555 1_555
C4 C3 1_555 1_555
C5 C4 1_555 1_555
H4 C5 1_555 1_555
H5 C5 1_555 1_555
H6 C5 1_555 1_555
C6 N1 1_555 1_555
C7 C6 1_555 1_555
C8 C7 1_555 1_555
C9 C8 1_555 1_555
C10 C9 1_555 1_555
H7 C10 1_555 1_555
H8 C10 1_555 1_555
H9 C10 1_555 1_555
C11 C9 1_555 1_555
C12 C1 1_555 1_555
C13 C7 1_555 1_555
C14 C13 1_555 1_555
H10 C14 1_555 1_555
C15 C14 1_555 1_555
H11 C15 1_555 1_555
C16 C15 1_555 1_555
C17 C16 1_555 1_555
H12 C17 1_555 1_555
C18 C13 1_555 1_555
H13 C18 1_555 1_555
C19 C16 1_555 1_555
H14 C19 1_555 1_555
H15 C19 1_555 1_555
C20 C19 1_555 1_555
H16 C20 1_555 1_555
H17 C20 1_555 1_555
C21 C20 1_555 1_555
H18 C21 1_555 1_555
C22 C21 1_555 1_555
H19 C22 1_555 1_555
H20 C22 1_555 1_555
C23 C3 1_555 1_555
H21 C23 1_555 1_555
H22 C23 1_555 1_555
C24 C23 1_555 1_555
H23 C24 1_555 1_555
H24 C24 1_555 1_555
C25 C24 1_555 1_555
H25 C25 1_555 1_555
H26 C25 1_555 1_555
C26 C25 1_555 1_555
H27 C26 1_555 1_555
H28 C26 1_555 1_555
C27 C26 1_555 1_555
H29 C27 1_555 1_555
H30 C27 1_555 1_555
C28 C27 1_555 1_555
H31 C28 1_555 1_555
H32 C28 1_555 1_555
C29 C28 1_555 1_555
H33 C29 1_555 1_555
H34 C29 1_555 1_555
H35 C29 1_555 1_555
C30 C11 1_555 1_555
H36 C30 1_555 1_555
H37 C30 1_555 1_555
C31 C30 1_555 1_555
H38 C31 1_555 1_555
H39 C31 1_555 1_555
C32 C31 1_555 1_555
H40 C32 1_555 1_555
H41 C32 1_555 1_555
C33 C32 1_555 1_555
H42 C33 1_555 1_555
H43 C33 1_555 1_555
C34 C33 1_555 1_555
H44 C34 1_555 1_555
H45 C34 1_555 1_555
C35 C34 1_555 1_555
H46 C35 1_555 1_555
H47 C35 1_555 1_555
C36 C35 1_555 1_555
H48 C36 1_555 1_555
H49 C36 1_555 1_555
H50 C36 1_555 1_555
N1A H1A 1_555 1_555
N2A C12 1_555 1_555
C1A H3A 1_555 1_555
C2A N1A 1_555 1_555
C3A C2A 1_555 1_555
C4A C3A 1_555 1_555
C5A C4A 1_555 1_555
H4A C5A 1_555 1_555
H5A C5A 1_555 1_555
H6A C5A 1_555 1_555
C6A N1A 1_555 1_555
C7A C6A 1_555 1_555
C8A N2A 1_555 1_555
C9A C8A 1_555 1_555
C10A C9A 1_555 1_555
H7A C10A 1_555 1_555
H8A C10A 1_555 1_555
H9A C10A 1_555 1_555
C11A C12 1_555 1_555
C12A N2 1_555 1_555
C13A C7A 1_555 1_555
C14A C13A 1_555 1_555
H10A C14A 1_555 1_555
C15A C14A 1_555 1_555
H11A C15A 1_555 1_555
C16A C15A 1_555 1_555
C17A C16A 1_555 1_555
H12A C17A 1_555 1_555
C18A C13A 1_555 1_555
H13A C18A 1_555 1_555
C19A C16A 1_555 1_555
H14A C19A 1_555 1_555
H15A C19A 1_555 1_555
C20A C19A 1_555 1_555
H16A C20A 1_555 1_555
H17A C20A 1_555 1_555
C21A C20A 1_555 1_555
H18A C21A 1_555 1_555
C22A C21A 1_555 1_555
H19A C22A 1_555 1_555
H20A C22A 1_555 1_555
C23A C3A 1_555 1_555
H21A C23A 1_555 1_555
H22A C23A 1_555 1_555
C24A C23A 1_555 1_555
H23A C24A 1_555 1_555
H24A C24A 1_555 1_555
C25A C24A 1_555 1_555
H25A C25A 1_555 1_555
H26A C25A 1_555 1_555
C26A C25A 1_555 1_555
H27A C26A 1_555 1_555
H28A C26A 1_555 1_555
C27A C26A 1_555 1_555
H29A C27A 1_555 1_555
H30A C27A 1_555 1_555
C28A C27A 1_555 1_555
H31A C28A 1_555 1_555
H32A C28A 1_555 1_555
C29A C28A 1_555 1_555
H33A C29A 1_555 1_555
H34A C29A 1_555 1_555
H35A C29A 1_555 1_555
C30A C11A 1_555 1_555
H36A C30A 1_555 1_555
H37A C30A 1_555 1_555
C31A C30A 1_555 1_555
H38A C31A 1_555 1_555
H39A C31A 1_555 1_555
C32A C31A 1_555 1_555
H40A C32A 1_555 1_555
H41A C32A 1_555 1_555
C33A C32A 1_555 1_555
H42A C33A 1_555 1_555
H43A C33A 1_555 1_555
C34A C33A 1_555 1_555
H44A C34A 1_555 1_555
H45A C34A 1_555 1_555
C35A C34A 1_555 1_555
H46A C35A 1_555 1_555
H47A C35A 1_555 1_555
C36A C35A 1_555 1_555
H48A C36A 1_555 1_555
H49A C36A 1_555 1_555
H50A C36A 1_555 1_555
C1 C2 1_555 1_555
C4 C6 1_555 1_555
C11 C12A 1_555 1_555
C17 C18 1_555 1_555
C1A C2A 1_555 1_555
C1A C12A 1_555 1_555
C4A C6A 1_555 1_555
C7A C8A 1_555 1_555
C9A C11A 1_555 1_555
C17A C18A 1_555 1_555

#END
