
#######################################################################
#
#                 Cambridge Crystallographic Data Centre
#                                CCDC 
#
#######################################################################
#
# If this CIF has been generated from an entry in the Cambridge 
# Structural Database, then it will include bibliographic, chemical, 
# crystal, experimental, refinement or atomic coordinate data resulting 
# from the CCDC's data processing and validation procedures.
#
#######################################################################

data_SELWEM
_chemical_name_common            
5,10,15-tris((Cyano)(ethoxycarbonyl)methylene)truxene
_chemical_formula_moiety         'C42 H27 N3 O6'
_chemical_name_systematic        
5,10,15-tris((Cyano)(ethoxycarbonyl)methylene)-10,15-dihydro-5H-indeno[1,2-a:1',2'-c]fluorene
_symmetry_cell_setting           monoclinic
_symmetry_space_group_name_H-M   'P 21/n'
_symmetry_Int_Tables_number      14
_space_group_name_Hall           '-P 2yn'
loop_
_symmetry_equiv_pos_site_id
_symmetry_equiv_pos_as_xyz
1 x,y,z
2 1/2-x,1/2+y,1/2-z
3 -x,-y,-z
4 1/2+x,1/2-y,1/2+z
_cell_length_a                   11.504(2)
_cell_length_b                   15.323(3)
_cell_length_c                   18.698(4)
_cell_angle_alpha                90
_cell_angle_beta                 98.95(3)
_cell_angle_gamma                90
_cell_volume                     3255.87
_exptl_crystal_colour            red
_exptl_crystal_description       block
_chemical_melting_point          272deg.C
_cell_formula_units_Z            4
_exptl_crystal_recrystallization_method ethanol/dichloromethane
_exptl_crystal_preparation       'n-type semiconductor'
loop_
_atom_site_label
_atom_site_type_symbol
_atom_site_fract_x
_atom_site_fract_y
_atom_site_fract_z
O1 O -0.30950(17) 0.63597(11) 0.22967(11)
O2 O -0.12397(17) 0.68743(12) 0.25291(10)
O3 O 0.26712(17) 1.01069(12) 0.14289(12)
O4 O 0.27640(17) 0.86778(12) 0.16885(11)
O5 O 0.43902(17) 0.41936(12) 0.14967(10)
O6 O 0.31663(17) 0.50492(12) 0.20246(11)
N1 N -0.2729(2) 0.41962(17) 0.22320(16)
N2 N 0.0008(2) 1.08212(17) 0.09408(17)
N3 N 0.5987(2) 0.55154(14) 0.06155(13)
C1 C -0.0800(2) 0.55029(15) 0.14275(14)
C2 C -0.0034(2) 0.62175(16) 0.12203(13)
C3 C 0.1017(2) 0.58255(16) 0.10478(13)
C4 C 0.0799(2) 0.48781(15) 0.09668(14)
C5 C 0.1435(3) 0.42363(17) 0.06836(14)
H1 H 0.2148 0.4365 0.0531
C6 C 0.0983(3) 0.33892(17) 0.06312(15)
H2 H 0.1411 0.2945 0.0455
C7 C -0.0091(3) 0.32032(18) 0.08367(15)
H3 H -0.0372 0.2633 0.0802
C8 C -0.0757(3) 0.38512(17) 0.10940(14)
H4 H -0.1491 0.3726 0.1217
C9 C -0.0304(2) 0.46888(16) 0.11633(14)
C10 C 0.0318(2) 0.85623(16) 0.09378(14)
C11 C 0.0733(2) 0.76436(15) 0.09668(14)
C12 C -0.0209(2) 0.71076(16) 0.11232(14)
C13 C -0.1294(2) 0.76523(16) 0.09963(14)
C14 C -0.2466(2) 0.74153(17) 0.09113(14)
H5 H -0.2679 0.6844 0.0998
C15 C -0.3316(2) 0.80382(18) 0.06957(16)
H6 H -0.4108 0.7888 0.0649
C16 C -0.3003(3) 0.8876(2) 0.05503(17)
H7 H -0.3587 0.9286 0.0399
C17 C -0.1843(2) 0.91200(18) 0.06241(16)
H8 H -0.1640 0.9691 0.0528
C18 C -0.0972(2) 0.85029(16) 0.08453(14)
C19 C 0.3090(2) 0.61489(16) 0.06807(14)
C20 C 0.1924(2) 0.63461(16) 0.08797(13)
C21 C 0.1737(2) 0.72612(16) 0.07868(14)
C22 C 0.2594(2) 0.75890(16) 0.03419(14)
C23 C 0.2631(2) 0.83613(17) -0.00366(15)
H9 H 0.2154 0.8829 0.0047
C24 C 0.3386(2) 0.84273(18) -0.05404(16)
H10 H 0.3410 0.8944 -0.0799
C25 C 0.4106(2) 0.77430(18) -0.06684(15)
H11 H 0.4600 0.7801 -0.1014
C26 C 0.4096(2) 0.69699(17) -0.02842(15)
H12 H 0.4587 0.6510 -0.0365
C27 C 0.3341(2) 0.68945(16) 0.02227(14)
C28 C -0.1636(2) 0.55476(16) 0.18606(15)
C29 C -0.2250(2) 0.47878(18) 0.20483(16)
C30 C -0.1938(3) 0.63453(18) 0.22602(15)
C31 C -0.3558(3) 0.71105(19) 0.26476(18)
H13 H -0.3154 0.7640 0.2542
H14 H -0.3443 0.7029 0.3168
C32 C -0.4829(3) 0.7175(2) 0.23593(19)
H15 H -0.5162 0.7663 0.2579
H16 H -0.5218 0.6649 0.2468
H17 H -0.4931 0.7257 0.1844
C33 C 0.0978(2) 0.92981(16) 0.10929(15)
C34 C 0.0432(3) 1.01504(19) 0.10193(17)
C35 C 0.2234(3) 0.92928(18) 0.14270(16)
C36 C 0.3872(2) 1.0202(2) 0.18290(19)
H18 H 0.3954 0.9856 0.2268
H19 H 0.4015 1.0808 0.1965
C37 C 0.4752(3) 0.9908(3) 0.13694(19)
H20 H 0.5532 0.9968 0.1636
H21 H 0.4680 1.0260 0.0940
H22 H 0.4610 0.9308 0.1237
C38 C 0.3892(2) 0.55366(16) 0.09607(14)
C39 C 0.5049(3) 0.55227(16) 0.07611(15)
C40 C 0.3745(2) 0.49113(18) 0.15553(16)
C41 C 0.4466(3) 0.35468(18) 0.20803(16)
H23 H 0.4436 0.3843 0.2535
H24 H 0.5214 0.3244 0.2121
C42 C 0.3488(3) 0.2897(2) 0.19475(18)
H25 H 0.3568 0.2483 0.2338
H26 H 0.3522 0.2596 0.1501
H27 H 0.2747 0.3193 0.1919
loop_
_geom_bond_atom_site_label_1
_geom_bond_atom_site_label_2
_geom_bond_site_symmetry_1
_geom_bond_site_symmetry_2
O1 C30 1_555 1_555
O2 C30 1_555 1_555
O3 C35 1_555 1_555
O4 C35 1_555 1_555
O5 C40 1_555 1_555
O6 C40 1_555 1_555
N1 C29 1_555 1_555
N2 C34 1_555 1_555
N3 C39 1_555 1_555
C1 C2 1_555 1_555
C2 C3 1_555 1_555
C3 C4 1_555 1_555
C4 C5 1_555 1_555
C5 H1 1_555 1_555
C6 C5 1_555 1_555
H2 C6 1_555 1_555
C7 C6 1_555 1_555
H3 C7 1_555 1_555
C8 C7 1_555 1_555
H4 C8 1_555 1_555
C9 C1 1_555 1_555
C10 C11 1_555 1_555
C11 C12 1_555 1_555
C12 C2 1_555 1_555
C13 C12 1_555 1_555
C14 C13 1_555 1_555
H5 C14 1_555 1_555
C15 C14 1_555 1_555
H6 C15 1_555 1_555
C16 C15 1_555 1_555
H7 C16 1_555 1_555
C17 C16 1_555 1_555
H8 C17 1_555 1_555
C18 C10 1_555 1_555
C19 C20 1_555 1_555
C20 C3 1_555 1_555
C21 C11 1_555 1_555
C22 C21 1_555 1_555
C23 C22 1_555 1_555
H9 C23 1_555 1_555
C24 C23 1_555 1_555
H10 C24 1_555 1_555
C25 C24 1_555 1_555
H11 C25 1_555 1_555
C26 C25 1_555 1_555
H12 C26 1_555 1_555
C27 C19 1_555 1_555
C28 C1 1_555 1_555
C29 C28 1_555 1_555
C30 C28 1_555 1_555
C31 O1 1_555 1_555
H13 C31 1_555 1_555
H14 C31 1_555 1_555
C32 C31 1_555 1_555
H15 C32 1_555 1_555
H16 C32 1_555 1_555
H17 C32 1_555 1_555
C33 C10 1_555 1_555
C34 C33 1_555 1_555
C35 C33 1_555 1_555
C36 O3 1_555 1_555
H18 C36 1_555 1_555
H19 C36 1_555 1_555
C37 C36 1_555 1_555
H20 C37 1_555 1_555
H21 C37 1_555 1_555
H22 C37 1_555 1_555
C38 C19 1_555 1_555
C39 C38 1_555 1_555
C40 C38 1_555 1_555
C41 O5 1_555 1_555
H23 C41 1_555 1_555
H24 C41 1_555 1_555
C42 C41 1_555 1_555
H25 C42 1_555 1_555
H26 C42 1_555 1_555
H27 C42 1_555 1_555
C4 C9 1_555 1_555
C8 C9 1_555 1_555
C13 C18 1_555 1_555
C17 C18 1_555 1_555
C20 C21 1_555 1_555
C22 C27 1_555 1_555
C26 C27 1_555 1_555

#END
