
#######################################################################
#
#                 Cambridge Crystallographic Data Centre
#                                CCDC 
#
#######################################################################
#
# If this CIF has been generated from an entry in the Cambridge 
# Structural Database, then it will include bibliographic, chemical, 
# crystal, experimental, refinement or atomic coordinate data resulting 
# from the CCDC's data processing and validation procedures.
#
#######################################################################

data_SEMDAS
_chemical_formula_moiety         'C40 H44 O8'
_chemical_name_systematic        
'dimethyl 2,15,21,34-tetraoxatricyclo[33.3.1.1^16,20^]tetraconta-1(39),16(40),17,19,35,37-hexaene-7,9,26,28-tetrayne-18,37-dicarboxylate unknown solvate'
_symmetry_cell_setting           triclinic
_symmetry_space_group_name_H-M   'P -1'
_symmetry_Int_Tables_number      2
_space_group_name_Hall           '-P 1'
loop_
_symmetry_equiv_pos_site_id
_symmetry_equiv_pos_as_xyz
1 x,y,z
2 -x,-y,-z
_cell_length_a                   5.3252(2)
_cell_length_b                   14.5283(4)
_cell_length_c                   14.8739(5)
_cell_angle_alpha                63.9253(18)
_cell_angle_beta                 87.608(2)
_cell_angle_gamma                79.959(2)
_cell_volume                     1016.99
_exptl_crystal_colour            colorless
_exptl_crystal_description       block
_cell_formula_units_Z            1
loop_
_atom_site_label
_atom_site_type_symbol
_atom_site_fract_x
_atom_site_fract_y
_atom_site_fract_z
C1 C 0.8148(6) 0.4056(2) 0.2764(2)
H1 H 0.7875 0.3378 0.3140
C2 C 0.6717(5) 0.4861(2) 0.2912(2)
C3 C 0.7075(6) 0.5881(2) 0.2335(2)
H2 H 0.6079 0.6427 0.2422
C4 C 0.8932(6) 0.6070(2) 0.1630(2)
C5 C 1.0420(6) 0.5256(2) 0.1485(2)
H3 H 1.1676 0.5386 0.1013
C6 C 0.9986(6) 0.4262(2) 0.2055(2)
C7 C 0.9446(7) 0.7133(2) 0.1010(2)
C8 C 0.7827(17) 0.8973(5) 0.0496(6)
C9 C 0.4252(6) 0.3741(2) 0.4185(2)
H4 H 0.5755 0.3246 0.4545
H5 H 0.3566 0.3500 0.3749
C10 C 0.2298(6) 0.3837(2) 0.4905(2)
H6 H 0.0908 0.4396 0.4536
H7 H 0.3065 0.4025 0.5367
C11 C 0.1230(6) 0.2853(2) 0.5497(2)
H8 H 0.2631 0.2277 0.5806
H9 H 0.0287 0.2709 0.5044
C12 C -0.0512(8) 0.2923(3) 0.6303(3)
H10 H 0.0495 0.2965 0.6808
H11 H -0.1754 0.3560 0.6008
C13 C -0.1864(7) 0.2050(3) 0.6788(3)
C14 C -0.2996(6) 0.1334(3) 0.7130(3)
C15 C -0.4398(6) 0.0539(2) 0.7490(3)
C16 C -0.5701(7) -0.0119(3) 0.7749(3)
C17 C -0.7351(7) -0.0907(3) 0.8058(3)
H12 H -0.8868 -0.0621 0.7618
H13 H -0.7890 -0.1052 0.8731
C18 C 1.6112(7) 0.1926(3) 0.1958(3)
H14 H 1.5406 0.1776 0.2609
H15 H 1.7411 0.2348 0.1866
C19 C 1.4040(7) 0.2534(3) 0.1168(3)
H16 H 1.2690 0.2129 0.1286
H17 H 1.4720 0.2641 0.0520
C20 C 1.2919(7) 0.3572(3) 0.1131(3)
H18 H 1.4270 0.3934 0.1151
H19 H 1.1900 0.3997 0.0516
O1 O 0.4897(4) 0.47446(16) 0.36115(17)
O2 O 1.1351(4) 0.33998(16) 0.19815(16)
O3 O 1.1011(6) 0.73355(19) 0.0380(2)
O4 O 0.7956(6) 0.78633(17) 0.11804(19)
C1A C 0.1852(6) -0.4056(2) 0.7236(2)
H1A H 0.2125 -0.3378 0.6860
C2A C 0.3283(5) -0.4861(2) 0.7088(2)
C3A C 0.2925(6) -0.5881(2) 0.7665(2)
H2A H 0.3921 -0.6427 0.7578
C4A C 0.1068(6) -0.6070(2) 0.8370(2)
C5A C -0.0420(6) -0.5256(2) 0.8515(2)
H3A H -0.1676 -0.5386 0.8987
C6A C 0.0014(6) -0.4262(2) 0.7945(2)
C7A C 0.0554(7) -0.7133(2) 0.8990(2)
C8A C 0.2173(17) -0.8973(5) 0.9504(6)
C9A C 0.5748(6) -0.3741(2) 0.5815(2)
H4A H 0.4245 -0.3246 0.5455
H5A H 0.6434 -0.3500 0.6251
C10A C 0.7702(6) -0.3837(2) 0.5095(2)
H6A H 0.9092 -0.4396 0.5464
H7A H 0.6935 -0.4025 0.4633
C11A C 0.8770(6) -0.2853(2) 0.4503(2)
H8A H 0.7369 -0.2277 0.4194
H9A H 0.9713 -0.2709 0.4956
C12A C 1.0512(8) -0.2923(3) 0.3697(3)
H10A H 0.9505 -0.2965 0.3192
H11A H 1.1754 -0.3560 0.3992
C13A C 1.1864(7) -0.2050(3) 0.3212(3)
C14A C 1.2996(6) -0.1334(3) 0.2870(3)
C15A C 1.4398(6) -0.0539(2) 0.2510(3)
C16A C 1.5701(7) 0.0119(3) 0.2251(3)
C17A C 1.7351(7) 0.0907(3) 0.1942(3)
H12A H 1.8868 0.0621 0.2382
H13A H 1.7890 0.1052 0.1269
C18A C -0.6112(7) -0.1926(3) 0.8042(3)
H14A H -0.5406 -0.1776 0.7391
H15A H -0.7411 -0.2348 0.8134
C19A C -0.4040(7) -0.2534(3) 0.8832(3)
H16A H -0.2690 -0.2129 0.8714
H17A H -0.4720 -0.2641 0.9480
C20A C -0.2919(7) -0.3572(3) 0.8869(3)
H18A H -0.4270 -0.3934 0.8849
H19A H -0.1900 -0.3997 0.9484
O1A O 0.5103(4) -0.47446(16) 0.63885(17)
O2A O -0.1351(4) -0.33998(16) 0.80185(16)
O3A O -0.1011(6) -0.73355(19) 0.9620(2)
O4A O 0.2044(6) -0.78633(17) 0.88196(19)
C21? C 0.8946(16) 0.8858(4) 0.0721(6)
loop_
_geom_bond_atom_site_label_1
_geom_bond_atom_site_label_2
_geom_bond_site_symmetry_1
_geom_bond_site_symmetry_2
C1 H1 1_555 1_555
C2 C1 1_555 1_555
C3 C2 1_555 1_555
H2 C3 1_555 1_555
C4 C3 1_555 1_555
C5 C4 1_555 1_555
H3 C5 1_555 1_555
C6 C1 1_555 1_555
C7 C4 1_555 1_555
C8 O4 1_555 1_555
C9 H4 1_555 1_555
H5 C9 1_555 1_555
C10 C9 1_555 1_555
H6 C10 1_555 1_555
H7 C10 1_555 1_555
C11 C10 1_555 1_555
H8 C11 1_555 1_555
H9 C11 1_555 1_555
C12 C11 1_555 1_555
H10 C12 1_555 1_555
H11 C12 1_555 1_555
C13 C12 1_555 1_555
C14 C13 1_555 1_555
C15 C14 1_555 1_555
C16 C15 1_555 1_555
C17 C16 1_555 1_555
H12 C17 1_555 1_555
H13 C17 1_555 1_555
C18 H14 1_555 1_555
H15 C18 1_555 1_555
C19 C18 1_555 1_555
H16 C19 1_555 1_555
H17 C19 1_555 1_555
C20 C19 1_555 1_555
H18 C20 1_555 1_555
H19 C20 1_555 1_555
O1 C2 1_555 1_555
O2 C6 1_555 1_555
O3 C7 1_555 1_555
O4 C7 1_555 1_555
C1A H1A 1_555 1_555
C2A C1A 1_555 1_555
C3A C2A 1_555 1_555
H2A C3A 1_555 1_555
C4A C3A 1_555 1_555
C5A C4A 1_555 1_555
H3A C5A 1_555 1_555
C6A C1A 1_555 1_555
C7A C4A 1_555 1_555
C8A O4A 1_555 1_555
C9A H4A 1_555 1_555
H5A C9A 1_555 1_555
C10A C9A 1_555 1_555
H6A C10A 1_555 1_555
H7A C10A 1_555 1_555
C11A C10A 1_555 1_555
H8A C11A 1_555 1_555
H9A C11A 1_555 1_555
C12A C11A 1_555 1_555
H10A C12A 1_555 1_555
H11A C12A 1_555 1_555
C13A C12A 1_555 1_555
C14A C13A 1_555 1_555
C15A C14A 1_555 1_555
C16A C15A 1_555 1_555
C17A C18 1_555 1_555
H12A C17A 1_555 1_555
H13A C17A 1_555 1_555
C18A C17 1_555 1_555
H14A C18A 1_555 1_555
H15A C18A 1_555 1_555
C19A C18A 1_555 1_555
H16A C19A 1_555 1_555
H17A C19A 1_555 1_555
C20A C19A 1_555 1_555
H18A C20A 1_555 1_555
H19A C20A 1_555 1_555
O1A C2A 1_555 1_555
O2A C6A 1_555 1_555
O3A C7A 1_555 1_555
O4A C7A 1_555 1_555
C5 C6 1_555 1_555
C9 O1 1_555 1_555
C20 O2 1_555 1_555
C5A C6A 1_555 1_555
C9A O1A 1_555 1_555
C16A C17A 1_555 1_555
C20A O2A 1_555 1_555

#END
