
#######################################################################
#
#                 Cambridge Crystallographic Data Centre
#                                CCDC 
#
#######################################################################
#
# If this CIF has been generated from an entry in the Cambridge 
# Structural Database, then it will include bibliographic, chemical, 
# crystal, experimental, refinement or atomic coordinate data resulting 
# from the CCDC's data processing and validation procedures.
#
#######################################################################

data_SEMNOP
_chemical_formula_moiety         'C80 H40 Cl10,3(C1 H2 Cl2)'
_chemical_name_systematic        
'1,2,3,4,5,6,7,8,9,10-decakis(4-Chlorophenyl)corannulene dichloromethane solvate'
_symmetry_cell_setting           monoclinic
_symmetry_space_group_name_H-M   'C 2/c'
_symmetry_Int_Tables_number      15
_space_group_name_Hall           '-C 2yn'
loop_
_symmetry_equiv_pos_site_id
_symmetry_equiv_pos_as_xyz
1 x,y,z
2 -x,y,1/2-z
3 1/2+x,1/2+y,z
4 1/2-x,1/2+y,1/2-z
5 -x,-y,-z
6 x,-y,1/2+z
7 1/2-x,1/2-y,-z
8 1/2+x,1/2-y,1/2+z
_cell_length_a                   16.395(3)
_cell_length_b                   28.340(5)
_cell_length_c                   16.705(4)
_cell_angle_alpha                90
_cell_angle_beta                 112.733(9)
_cell_angle_gamma                90
_cell_volume                     7158.75
_exptl_crystal_colour            colorless
_exptl_crystal_description       block
_cell_formula_units_Z            4
_exptl_crystal_recrystallization_method dichloromethane/hexane
loop_
_atom_site_label
_atom_site_type_symbol
_atom_site_fract_x
_atom_site_fract_y
_atom_site_fract_z
C44 C 0.6100(2) 0.92389(14) 0.0602(2)
H21 H 0.5759 0.9537 0.0479
H22 H 0.6103 0.9119 0.0047
Cl6 Cl 0.55812(7) 0.88278(4) 0.10245(9)
Cl7 Cl 0.71923(7) 0.93528(4) 0.13201(6)
C45 C 1.0000 0.4906(4) 0.2500
H23 H 0.9474 0.4699 0.2286
Cl9 Cl 0.96138(18) 0.50863(15) 0.3179(2)
H23A H 1.0526 0.4699 0.2714
Cl9A Cl 1.03862(18) 0.50863(15) 0.1821(2)
Cl1 Cl 1.05734(5) 0.63904(3) 0.16825(5)
Cl2 Cl 1.36508(5) 0.79331(3) 0.04285(6)
Cl3 Cl 1.34732(6) 0.93709(4) -0.07474(6)
Cl4 Cl 1.26816(5) 1.16893(3) -0.00010(5)
Cl5 Cl 1.14885(5) 1.25626(3) 0.12448(5)
C1 C 0.9863(5) 0.91612(17) 0.2358(5)
C2 C 1.0337(4) 0.9450(3) 0.2008(5)
C3 C 1.0158(6) 0.9921(3) 0.2136(6)
C4 C 1.0411(6) 0.9923(2) 0.2416(6)
C5 C 0.9405(5) 0.9453(3) 0.2715(5)
C6 C 1.0000 0.86857(13) 0.2500
C7 C 1.05771(16) 0.84922(9) 0.20881(16)
C8 C 1.10593(16) 0.87884(9) 0.17452(16)
C9 C 1.10012(17) 0.93038(9) 0.17520(17)
C10 C 1.13565(16) 0.97051(9) 0.14319(16)
C11 C 1.11761(16) 1.01795(9) 0.15604(16)
C12 C 1.06133(18) 1.03076(9) 0.20343(18)
C13 C 1.02999(16) 1.07475(9) 0.22869(16)
C14 C 1.06388(15) 0.79727(9) 0.19893(16)
C15 C 1.10597(16) 0.76829(9) 0.27024(16)
H1 H 1.1353 0.7821 0.3259
C16 C 1.10578(16) 0.71970(9) 0.26141(17)
H2 H 1.1345 0.7001 0.3104
C17 C 1.06288(17) 0.70015(9) 0.17968(18)
C18 C 1.02188(17) 0.72801(10) 0.10671(17)
H3 H 0.9937 0.7142 0.0509
C19 C 1.02310(17) 0.77633(9) 0.11732(16)
H4 H 0.9955 0.7958 0.0679
C20 C 1.16902(16) 0.85562(9) 0.14184(17)
C21 C 1.24770(17) 0.83626(9) 0.19965(18)
H5 H 1.2602 0.8366 0.2601
C22 C 1.30810(18) 0.81645(10) 0.16995(19)
H6 H 1.3618 0.8033 0.2096
C23 C 1.28898(18) 0.81608(10) 0.08207(19)
C24 C 1.21088(17) 0.83423(10) 0.02283(18)
H7 H 1.1984 0.8332 -0.0376
C25 C 1.15113(17) 0.85394(9) 0.05339(17)
H8 H 1.0971 0.8665 0.0133
C26 C 1.18920(16) 0.96174(9) 0.08979(16)
C27 C 1.27596(17) 0.94530(9) 0.12730(18)
H9 H 1.3019 0.9395 0.1880
C28 C 1.32458(18) 0.93737(10) 0.07700(19)
H10 H 1.3835 0.9258 0.1026
C29 C 1.28627(19) 0.94647(10) -0.0112(2)
C30 C 1.20055(19) 0.96281(10) -0.05030(18)
H11 H 1.1752 0.9687 -0.1110
C31 C 1.15238(17) 0.97041(9) 0.00058(17)
H12 H 1.0934 0.9817 -0.0255
C32 C 1.15563(16) 1.05557(9) 0.11743(16)
C33 C 1.24581(16) 1.06501(9) 0.15144(16)
H13 H 1.2839 1.0476 0.2001
C34 C 1.28098(17) 1.09950(10) 0.11538(17)
H14 H 1.3426 1.1059 0.1393
C35 C 1.22501(18) 1.12445(10) 0.04402(17)
C36 C 1.13522(18) 1.11514(10) 0.00751(17)
H15 H 1.0977 1.1319 -0.0424
C37 C 1.10089(16) 1.08092(9) 0.04491(16)
H16 H 1.0392 1.0746 0.0209
C38 C 1.06012(16) 1.12110(9) 0.20777(15)
C39 C 1.14903(17) 1.13404(9) 0.24342(16)
H17 H 1.1910 1.1138 0.2841
C40 C 1.17673(17) 1.17608(9) 0.22016(16)
H18 H 1.2373 1.1849 0.2449
C41 C 1.11492(17) 1.20516(9) 0.16023(16)
C42 C 1.02585(17) 1.19393(9) 0.12642(16)
H19 H 0.9838 1.2146 0.0870
C43 C 0.99938(16) 1.15196(9) 0.15127(16)
H20 H 0.9383 1.1441 0.1291
Cl1A Cl 0.94266(5) 0.63904(3) 0.33175(5)
Cl2A Cl 0.63492(5) 0.79331(3) 0.45715(6)
Cl3A Cl 0.65268(6) 0.93709(4) 0.57474(6)
Cl4A Cl 0.73184(5) 1.16893(3) 0.50010(5)
Cl5A Cl 0.85115(5) 1.25626(3) 0.37552(5)
C1A C 1.0137(5) 0.91612(17) 0.2642(5)
C2A C 0.9663(4) 0.9450(3) 0.2992(5)
C3A C 0.9842(6) 0.9921(3) 0.2864(6)
C4A C 0.9589(6) 0.9923(2) 0.2584(6)
C5A C 1.0595(5) 0.9453(3) 0.2285(5)
C7A C 0.94229(16) 0.84922(9) 0.29119(16)
C8A C 0.89407(16) 0.87884(9) 0.32548(16)
C9A C 0.89988(17) 0.93038(9) 0.32480(17)
C10A C 0.86435(16) 0.97051(9) 0.35681(16)
C11A C 0.88239(16) 1.01795(9) 0.34396(16)
C12A C 0.93867(18) 1.03076(9) 0.29657(18)
C13A C 0.97001(16) 1.07475(9) 0.27131(16)
C14A C 0.93612(15) 0.79727(9) 0.30107(16)
C15A C 0.89403(16) 0.76829(9) 0.22976(16)
H1A H 0.8647 0.7821 0.1741
C16A C 0.89422(16) 0.71970(9) 0.23859(17)
H2A H 0.8655 0.7001 0.1896
C17A C 0.93712(17) 0.70015(9) 0.32032(18)
C18A C 0.97812(17) 0.72801(10) 0.39329(17)
H3A H 1.0063 0.7142 0.4491
C19A C 0.97690(17) 0.77633(9) 0.38268(16)
H4A H 1.0045 0.7958 0.4321
C20A C 0.83098(16) 0.85562(9) 0.35816(17)
C21A C 0.75230(17) 0.83626(9) 0.30035(18)
H5A H 0.7398 0.8366 0.2399
C22A C 0.69190(18) 0.81645(10) 0.33005(19)
H6A H 0.6382 0.8033 0.2904
C23A C 0.71102(18) 0.81608(10) 0.41793(19)
C24A C 0.78912(17) 0.83423(10) 0.47717(18)
H7A H 0.8016 0.8332 0.5376
C25A C 0.84887(17) 0.85394(9) 0.44661(17)
H8A H 0.9029 0.8665 0.4867
C26A C 0.81080(16) 0.96174(9) 0.41021(16)
C27A C 0.72404(17) 0.94530(9) 0.37270(18)
H9A H 0.6981 0.9395 0.3120
C28A C 0.67542(18) 0.93737(10) 0.42300(19)
H10A H 0.6165 0.9258 0.3974
C29A C 0.71373(19) 0.94647(10) 0.5112(2)
C30A C 0.79945(19) 0.96281(10) 0.55030(18)
H11A H 0.8248 0.9687 0.6110
C31A C 0.84762(17) 0.97041(9) 0.49942(17)
H12A H 0.9066 0.9817 0.5255
C32A C 0.84437(16) 1.05557(9) 0.38257(16)
C33A C 0.75419(16) 1.06501(9) 0.34856(16)
H13A H 0.7161 1.0476 0.2999
C34A C 0.71902(17) 1.09950(10) 0.38462(17)
H14A H 0.6574 1.1059 0.3607
C35A C 0.77499(18) 1.12445(10) 0.45598(17)
C36A C 0.86478(18) 1.11514(10) 0.49249(17)
H15A H 0.9023 1.1319 0.5424
C37A C 0.89911(16) 1.08092(9) 0.45509(16)
H16A H 0.9608 1.0746 0.4791
C38A C 0.93988(16) 1.12110(9) 0.29223(15)
C39A C 0.85097(17) 1.13404(9) 0.25658(16)
H17A H 0.8090 1.1138 0.2159
C40A C 0.82327(17) 1.17608(9) 0.27984(16)
H18A H 0.7627 1.1849 0.2551
C41A C 0.88508(17) 1.20516(9) 0.33977(16)
C42A C 0.97415(17) 1.19393(9) 0.37358(16)
H19A H 1.0162 1.2146 0.4130
C43A C 1.00062(16) 1.15196(9) 0.34873(16)
H20A H 1.0617 1.1441 0.3709
Cl8? Cl 1.0028(2) 0.52071(14) 0.1648(3)
C46? C 0.9672(7) 0.5308(4) 0.2196(8)
H24? H 0.9075 0.5273 0.1732
H25? H 0.9791 0.5651 0.2278
loop_
_geom_bond_atom_site_label_1
_geom_bond_atom_site_label_2
_geom_bond_site_symmetry_1
_geom_bond_site_symmetry_2
Cl1 C17 1_555 1_555
Cl2 C23 1_555 1_555
Cl3 C29 1_555 1_555
Cl4 C35 1_555 1_555
Cl5 C41 1_555 1_555
C1 C2 1_555 1_555
C2 C3 1_555 1_555
C3 C4 1_555 1_555
C4 C2 1_555 1_555
C5 C1 1_555 1_555
C6 C1 1_555 1_555
C7 C6 1_555 1_555
C8 C7 1_555 1_555
C9 C2 1_555 1_555
C10 C9 1_555 1_555
C11 C10 1_555 1_555
C12 C3 1_555 1_555
C13 C12 1_555 1_555
C14 C7 1_555 1_555
C15 C14 1_555 1_555
H1 C15 1_555 1_555
C16 C15 1_555 1_555
H2 C16 1_555 1_555
C17 C16 1_555 1_555
C18 C17 1_555 1_555
H3 C18 1_555 1_555
C19 C14 1_555 1_555
H4 C19 1_555 1_555
C20 C8 1_555 1_555
C21 C20 1_555 1_555
H5 C21 1_555 1_555
C22 C21 1_555 1_555
H6 C22 1_555 1_555
C23 C22 1_555 1_555
C24 C23 1_555 1_555
H7 C24 1_555 1_555
C25 C20 1_555 1_555
H8 C25 1_555 1_555
C26 C10 1_555 1_555
C27 C26 1_555 1_555
H9 C27 1_555 1_555
C28 C27 1_555 1_555
H10 C28 1_555 1_555
C29 C28 1_555 1_555
C30 C29 1_555 1_555
H11 C30 1_555 1_555
C31 C26 1_555 1_555
H12 C31 1_555 1_555
C32 C11 1_555 1_555
C33 C32 1_555 1_555
H13 C33 1_555 1_555
C34 C33 1_555 1_555
H14 C34 1_555 1_555
C35 C34 1_555 1_555
C36 C35 1_555 1_555
H15 C36 1_555 1_555
C37 C32 1_555 1_555
H16 C37 1_555 1_555
C38 C13 1_555 1_555
C39 C38 1_555 1_555
H17 C39 1_555 1_555
C40 C39 1_555 1_555
H18 C40 1_555 1_555
C41 C40 1_555 1_555
C42 C41 1_555 1_555
H19 C42 1_555 1_555
C43 C38 1_555 1_555
H20 C43 1_555 1_555
C44 H21 1_555 1_555
H22 C44 1_555 1_555
Cl6 C44 1_555 1_555
Cl7 C44 1_555 1_555
C45 H23 1_555 1_555
Cl9 C45 1_555 1_555
Cl1A C17A 1_555 1_555
Cl2A C23A 1_555 1_555
Cl3A C29A 1_555 1_555
Cl4A C35A 1_555 1_555
Cl5A C41A 1_555 1_555
C1A C1 1_555 1_555
C2A C1 1_555 1_555
C3A C3 1_555 1_555
C4A C3 1_555 1_555
C5A C1 1_555 1_555
C7A C6 1_555 1_555
C8A C7A 1_555 1_555
C9A C5 1_555 1_555
C10A C9A 1_555 1_555
C11A C10A 1_555 1_555
C12A C3A 1_555 1_555
C13A C13 1_555 1_555
C14A C7A 1_555 1_555
C15A C14A 1_555 1_555
H1A C15A 1_555 1_555
C16A C15A 1_555 1_555
H2A C16A 1_555 1_555
C17A C16A 1_555 1_555
C18A C17A 1_555 1_555
H3A C18A 1_555 1_555
C19A C14A 1_555 1_555
H4A C19A 1_555 1_555
C20A C8A 1_555 1_555
C21A C20A 1_555 1_555
H5A C21A 1_555 1_555
C22A C21A 1_555 1_555
H6A C22A 1_555 1_555
C23A C22A 1_555 1_555
C24A C23A 1_555 1_555
H7A C24A 1_555 1_555
C25A C20A 1_555 1_555
H8A C25A 1_555 1_555
C26A C10A 1_555 1_555
C27A C26A 1_555 1_555
H9A C27A 1_555 1_555
C28A C27A 1_555 1_555
H10A C28A 1_555 1_555
C29A C28A 1_555 1_555
C30A C29A 1_555 1_555
H11A C30A 1_555 1_555
C31A C26A 1_555 1_555
H12A C31A 1_555 1_555
C32A C11A 1_555 1_555
C33A C32A 1_555 1_555
H13A C33A 1_555 1_555
C34A C33A 1_555 1_555
H14A C34A 1_555 1_555
C35A C34A 1_555 1_555
C36A C35A 1_555 1_555
H15A C36A 1_555 1_555
C37A C32A 1_555 1_555
H16A C37A 1_555 1_555
C38A C13A 1_555 1_555
C39A C38A 1_555 1_555
H17A C39A 1_555 1_555
C40A C39A 1_555 1_555
H18A C40A 1_555 1_555
C41A C40A 1_555 1_555
C42A C41A 1_555 1_555
H19A C42A 1_555 1_555
C43A C38A 1_555 1_555
H20A C43A 1_555 1_555
H23A C45 1_555 1_555
Cl9A C45 1_555 1_555
C2 C1A 1_555 1_555
C2 C5A 1_555 1_555
C3 C5A 1_555 1_555
C4 C12 1_555 1_555
C4 C3A 1_555 1_555
C4 C4A 1_555 1_555
C4 C5A 1_555 1_555
C5 C1A 1_555 1_555
C5 C2A 1_555 1_555
C5 C3A 1_555 1_555
C5 C4A 1_555 1_555
C6 C1A 1_555 1_555
C8 C9 1_555 1_555
C9 C5A 1_555 1_555
C11 C12 1_555 1_555
C18 C19 1_555 1_555
C24 C25 1_555 1_555
C30 C31 1_555 1_555
C36 C37 1_555 1_555
C42 C43 1_555 1_555
C1A C2A 1_555 1_555
C1A C5A 1_555 1_555
C2A C3A 1_555 1_555
C2A C4A 1_555 1_555
C2A C9A 1_555 1_555
C3A C4A 1_555 1_555
C4A C12A 1_555 1_555
C8A C9A 1_555 1_555
C11A C12A 1_555 1_555
C12A C13A 1_555 1_555
C18A C19A 1_555 1_555
C24A C25A 1_555 1_555
C30A C31A 1_555 1_555
C36A C37A 1_555 1_555
C42A C43A 1_555 1_555

#END
