
#######################################################################
#
#                 Cambridge Crystallographic Data Centre
#                                CCDC 
#
#######################################################################
#
# If this CIF has been generated from an entry in the Cambridge 
# Structural Database, then it will include bibliographic, chemical, 
# crystal, experimental, refinement or atomic coordinate data resulting 
# from the CCDC's data processing and validation procedures.
#
#######################################################################

data_SEMQUX
_chemical_formula_moiety         'C24 H37 N3 O7'
_chemical_name_systematic        
't-Butoxycarbonyl-(\g-aminobutyryl)-valyl-tyrosine methyl ester'
_symmetry_cell_setting           monoclinic
_symmetry_space_group_name_H-M   'P 21'
_symmetry_Int_Tables_number      4
_space_group_name_Hall           'P 2yb'
loop_
_symmetry_equiv_pos_site_id
_symmetry_equiv_pos_as_xyz
1 x,y,z
2 -x,1/2+y,-z
_cell_length_a                   15.886(17)
_cell_length_b                   4.989(7)
_cell_length_c                   17.90(2)
_cell_angle_alpha                90
_cell_angle_beta                 107.293(10)
_cell_angle_gamma                90
_cell_volume                     1354.54
_exptl_crystal_colour            white
_exptl_crystal_description       needle
_cell_formula_units_Z            2
_exptl_crystal_recrystallization_method methanol/water
loop_
_atom_site_label
_atom_site_type_symbol
_atom_site_fract_x
_atom_site_fract_y
_atom_site_fract_z
C1 C 0.3093(4) 0.568(2) 0.8044(5)
H1 H 0.2876 0.7466 0.7906
H2 H 0.2923 0.5080 0.8487
H3 H 0.2849 0.4502 0.7609
O1 O 0.4049(3) 0.5675(12) 0.8237(3)
C2 C 0.4482(4) 0.7470(12) 0.8733(4)
O2 O 0.4122(3) 0.9010(12) 0.9036(4)
C3 C 0.5475(3) 0.7186(10) 0.8901(3)
H4 H 0.5629 0.5303 0.9027
C4 C 0.5973(3) 0.8890(10) 0.9607(3)
H5 H 0.5802 1.0751 0.9504
H6 H 0.5805 0.8326 1.0061
C5 C 0.7429(4) 1.0390(11) 0.9434(3)
H7 H 0.7121 1.1727 0.9102
C6 C 0.6967(3) 0.8661(10) 0.9789(3)
C7 C 0.7455(4) 0.6748(12) 1.0292(3)
H8 H 0.7168 0.5576 1.0538
C8 C 0.8360(4) 0.6516(13) 1.0442(4)
H9 H 0.8672 0.5210 1.0784
C9 C 0.8792(3) 0.8248(12) 1.0078(3)
C10 C 0.8334(4) 1.0169(12) 0.9563(3)
H10 H 0.8624 1.1295 0.9306
O3 O 0.9709(2) 0.7993(9) 1.0229(3)
H11 H 0.9821 0.6548 1.0062
N1 N 0.5745(2) 0.7887(8) 0.8207(2)
H12 H 0.5708 0.9538 0.8062
C11 C 0.6044(3) 0.6102(10) 0.7789(3)
O4 O 0.6017(2) 0.3627(7) 0.7899(2)
C12 C 0.6467(3) 0.7206(10) 0.7194(3)
H13 H 0.6432 0.9167 0.7197
C13 C 0.5995(4) 0.6192(14) 0.6364(3)
H14 H 0.6045 0.4234 0.6361
C14 C 0.5014(5) 0.693(2) 0.6152(4)
H15 H 0.4956 0.8815 0.6229
H16 H 0.4743 0.5944 0.6479
H17 H 0.4731 0.6486 0.5614
C15 C 0.6418(5) 0.7342(16) 0.5773(4)
H18 H 0.7006 0.6653 0.5878
H19 H 0.6438 0.9261 0.5815
H20 H 0.6076 0.6837 0.5254
N2 N 0.7395(3) 0.6422(8) 0.7447(3)
H21 H 0.7521 0.4743 0.7498
C16 C 0.8067(3) 0.8214(11) 0.7605(3)
O5 O 0.7947(3) 1.0630(8) 0.7494(3)
C17 C 0.8990(4) 0.7049(12) 0.7908(3)
H22 H 0.8963 0.5337 0.8157
H23 H 0.9356 0.8243 0.8300
C18 C 0.9410(4) 0.6656(14) 0.7249(3)
H24 H 0.9362 0.8309 0.6954
H25 H 0.9091 0.5275 0.6896
C19 C 1.0385(4) 0.5854(12) 0.7565(4)
H26 H 1.0702 0.7241 0.7917
H27 H 1.0430 0.4212 0.7865
N3 N 1.0803(3) 0.5449(8) 0.6954(3)
H28 H 1.0873 0.3840 0.6811
C20 C 1.1086(4) 0.7505(11) 0.6603(4)
O6 O 1.1016(3) 0.9815(8) 0.6773(3)
O7 O 1.1449(3) 0.6583(9) 0.6064(3)
C21 C 1.1789(6) 0.8513(14) 0.5582(5)
C22 C 1.2109(10) 0.669(2) 0.5059(8)
H29 H 1.2383 0.7738 0.4745
H30 H 1.1620 0.5722 0.4724
H31 H 1.2530 0.5452 0.5372
C23 C 1.2546(5) 1.0108(18) 0.6096(5)
H32 H 1.2972 0.8910 0.6422
H33 H 1.2332 1.1303 0.6418
H34 H 1.2817 1.1128 0.5775
C24 C 1.1044(6) 1.0247(18) 0.5106(5)
H35 H 1.0861 1.1449 0.5447
H36 H 1.0556 0.9132 0.4834
H37 H 1.1240 1.1263 0.4733
loop_
_geom_bond_atom_site_label_1
_geom_bond_atom_site_label_2
_geom_bond_site_symmetry_1
_geom_bond_site_symmetry_2
C1 H1 1_555 1_555
H2 C1 1_555 1_555
H3 C1 1_555 1_555
O1 C1 1_555 1_555
C2 O1 1_555 1_555
O2 C2 1_555 1_555
C3 C2 1_555 1_555
H4 C3 1_555 1_555
C4 C3 1_555 1_555
H5 C4 1_555 1_555
H6 C4 1_555 1_555
C5 H7 1_555 1_555
C6 C4 1_555 1_555
C7 C6 1_555 1_555
H8 C7 1_555 1_555
C8 C7 1_555 1_555
H9 C8 1_555 1_555
C9 C8 1_555 1_555
C10 C5 1_555 1_555
H10 C10 1_555 1_555
O3 C9 1_555 1_555
H11 O3 1_555 1_555
N1 C3 1_555 1_555
H12 N1 1_555 1_555
C11 N1 1_555 1_555
O4 C11 1_555 1_555
C12 C11 1_555 1_555
H13 C12 1_555 1_555
C13 C12 1_555 1_555
H14 C13 1_555 1_555
C14 C13 1_555 1_555
H15 C14 1_555 1_555
H16 C14 1_555 1_555
H17 C14 1_555 1_555
C15 C13 1_555 1_555
H18 C15 1_555 1_555
H19 C15 1_555 1_555
H20 C15 1_555 1_555
N2 C12 1_555 1_555
H21 N2 1_555 1_555
C16 N2 1_555 1_555
O5 C16 1_555 1_555
C17 C16 1_555 1_555
H22 C17 1_555 1_555
H23 C17 1_555 1_555
C18 C17 1_555 1_555
H24 C18 1_555 1_555
H25 C18 1_555 1_555
C19 C18 1_555 1_555
H26 C19 1_555 1_555
H27 C19 1_555 1_555
N3 C19 1_555 1_555
H28 N3 1_555 1_555
C20 N3 1_555 1_555
O6 C20 1_555 1_555
O7 C20 1_555 1_555
C21 O7 1_555 1_555
C22 C21 1_555 1_555
H29 C22 1_555 1_555
H30 C22 1_555 1_555
H31 C22 1_555 1_555
C23 C21 1_555 1_555
H32 C23 1_555 1_555
H33 C23 1_555 1_555
H34 C23 1_555 1_555
C24 C21 1_555 1_555
H35 C24 1_555 1_555
H36 C24 1_555 1_555
H37 C24 1_555 1_555
C5 C6 1_555 1_555
C9 C10 1_555 1_555

#END
