
#######################################################################
#
#                 Cambridge Crystallographic Data Centre
#                                CCDC 
#
#######################################################################
#
# If this CIF has been generated from an entry in the Cambridge 
# Structural Database, then it will include bibliographic, chemical, 
# crystal, experimental, refinement or atomic coordinate data resulting 
# from the CCDC's data processing and validation procedures.
#
#######################################################################

data_SEMXUD
_chemical_formula_moiety         'C24 H18'
_chemical_name_systematic        1,9:4,10-Diethanotriptycene
_symmetry_cell_setting           monoclinic
_symmetry_space_group_name_H-M   'P 21/n'
_symmetry_Int_Tables_number      14
_space_group_name_Hall           '-P 2yn'
loop_
_symmetry_equiv_pos_site_id
_symmetry_equiv_pos_as_xyz
1 x,y,z
2 1/2-x,1/2+y,1/2-z
3 -x,-y,-z
4 1/2+x,1/2-y,1/2+z
_cell_length_a                   14.460(1)
_cell_length_b                   11.725(1)
_cell_length_c                   9.334(2)
_cell_angle_alpha                90
_cell_angle_beta                 98.97(2)
_cell_angle_gamma                90
_cell_volume                     1563.17
_exptl_crystal_colour            colorless
_cell_formula_units_Z            4
loop_
_atom_site_label
_atom_site_type_symbol
_atom_site_fract_x
_atom_site_fract_y
_atom_site_fract_z
C1 C 1.0200(1) -0.0009(2) 0.2289(2)
C2 C 0.9673(1) -0.0743(2) 0.3048(2)
C3 C 0.8940(1) -0.0318(2) 0.3735(2)
C4 C 0.8714(1) 0.0846(2) 0.3680(2)
C5 C 0.9225(1) 0.1504(1) 0.2885(2)
C6 C 0.9177(1) 0.2768(1) 0.3030(2)
C7 C 0.9183(1) 0.3249(1) 0.1497(2)
C8 C 0.8560(1) 0.4032(2) 0.0798(2)
C9 C 0.8653(1) 0.4412(2) -0.0591(2)
C10 C 0.9371(1) 0.3996(2) -0.1260(2)
C11 C 1.0004(1) 0.3202(2) -0.0572(2)
C12 C 0.9918(1) 0.2816(1) 0.0807(2)
C13 C 1.0565(1) 0.1971(1) 0.1738(2)
C14 C 0.9931(1) 0.1100(1) 0.2234(2)
C15 C 1.0163(1) 0.3066(1) 0.3832(2)
C16 C 1.0366(1) 0.3657(2) 0.5116(2)
C17 C 1.1295(1) 0.3855(2) 0.5724(2)
C18 C 1.2015(1) 0.3472(2) 0.5040(2)
C19 C 1.1820(1) 0.2871(2) 0.3738(2)
C20 C 1.0906(1) 0.2655(1) 0.3140(2)
C21 C 0.8131(1) 0.1662(2) 0.4448(2)
C22 C 0.8304(1) 0.2883(2) 0.3815(2)
C23 C 1.1262(1) 0.1175(2) 0.1083(2)
C24 C 1.1101(1) -0.0075(2) 0.1631(2)
H1 H 0.983(1) -0.156(2) 0.321(2)
H2 H 0.863(1) -0.089(1) 0.437(2)
H3 H 0.807(1) 0.435(2) 0.133(2)
H4 H 0.820(1) 0.499(2) -0.114(2)
H5 H 0.937(1) 0.423(2) -0.223(2)
H6 H 1.052(1) 0.288(2) -0.101(2)
H7 H 0.984(1) 0.393(1) 0.555(2)
H8 H 1.147(1) 0.424(2) 0.666(2)
H9 H 1.269(1) 0.362(1) 0.559(2)
H10 H 1.234(1) 0.254(2) 0.329(2)
H11 H 0.832(1) 0.159(1) 0.554(2)
H12 H 0.742(1) 0.148(1) 0.418(2)
H13 H 0.838(1) 0.345(1) 0.458(2)
H14 H 0.770(1) 0.310(2) 0.305(2)
H15 H 1.111(1) 0.116(2) -0.005(2)
H16 H 1.195(1) 0.141(2) 0.143(2)
H17 H 1.107(1) -0.065(2) 0.080(2)
H18 H 1.167(1) -0.030(1) 0.246(2)
loop_
_geom_bond_atom_site_label_1
_geom_bond_atom_site_label_2
_geom_bond_site_symmetry_1
_geom_bond_site_symmetry_2
C1 C2 1_555 1_555
C2 C3 1_555 1_555
C3 C4 1_555 1_555
C4 C5 1_555 1_555
C5 C6 1_555 1_555
C6 C7 1_555 1_555
C7 C8 1_555 1_555
C8 C9 1_555 1_555
C9 C10 1_555 1_555
C10 C11 1_555 1_555
C11 C12 1_555 1_555
C12 C7 1_555 1_555
C13 C12 1_555 1_555
C14 C1 1_555 1_555
C15 C6 1_555 1_555
C16 C15 1_555 1_555
C17 C16 1_555 1_555
C18 C17 1_555 1_555
C19 C18 1_555 1_555
C20 C13 1_555 1_555
C21 C4 1_555 1_555
C22 C6 1_555 1_555
C23 C13 1_555 1_555
C24 C1 1_555 1_555
H1 C2 1_555 1_555
H2 C3 1_555 1_555
H3 C8 1_555 1_555
H4 C9 1_555 1_555
H5 C10 1_555 1_555
H6 C11 1_555 1_555
H7 C16 1_555 1_555
H8 C17 1_555 1_555
H9 C18 1_555 1_555
H10 C19 1_555 1_555
H11 C21 1_555 1_555
H12 C21 1_555 1_555
H13 C22 1_555 1_555
H14 C22 1_555 1_555
H15 C23 1_555 1_555
H16 C23 1_555 1_555
H17 C24 1_555 1_555
H18 C24 1_555 1_555
C5 C14 1_555 1_555
C13 C14 1_555 1_555
C15 C20 1_555 1_555
C19 C20 1_555 1_555
C21 C22 1_555 1_555
C23 C24 1_555 1_555

#END
