
#######################################################################
#
#                 Cambridge Crystallographic Data Centre
#                                CCDC 
#
#######################################################################
#
# If this CIF has been generated from an entry in the Cambridge 
# Structural Database, then it will include bibliographic, chemical, 
# crystal, experimental, refinement or atomic coordinate data resulting 
# from the CCDC's data processing and validation procedures.
#
#######################################################################

data_SEMYAN02
_chemical_formula_moiety         '1.5(C12 H24 O6),C7 H9 N2 O1 1+,F6 P1 1-'
_chemical_name_systematic        
'4-carbamoylanilinium hexafluorophosphate sesquikis(18-crown-6)'
_symmetry_cell_setting           triclinic
_symmetry_space_group_name_H-M   'P -1'
_symmetry_Int_Tables_number      2
_space_group_name_Hall           '-P 1'
loop_
_symmetry_equiv_pos_site_id
_symmetry_equiv_pos_as_xyz
1 x,y,z
2 -x,-y,-z
_cell_length_a                   10.7115(9)
_cell_length_b                   17.7665(15)
_cell_length_c                   18.5118(16)
_cell_angle_alpha                65.933(2)
_cell_angle_beta                 87.306(2)
_cell_angle_gamma                86.158(2)
_cell_volume                     3208.68
_exptl_crystal_colour            colorless
_exptl_crystal_description       block
_cell_formula_units_Z            4
loop_
_atom_site_label
_atom_site_type_symbol
_atom_site_fract_x
_atom_site_fract_y
_atom_site_fract_z
C1 C 0.2757(3) 0.1622(2) 0.1598(2)
C2 C 0.3793(3) 0.1833(2) 0.0979(2)
C3 C 0.5032(3) 0.1616(2) 0.1194(2)
H1 H 0.5241 0.1387 0.1737
C4 C 0.5961(3) 0.1728(2) 0.0625(2)
H2 H 0.6807 0.1569 0.0773
C5 C 0.5649(3) 0.2076(2) -0.0167(2)
C6 C 0.4429(3) 0.2338(2) -0.0398(2)
H3 H 0.4231 0.2603 -0.0943
C7 C 0.3502(3) 0.2203(2) 0.0183(2)
H4 H 0.2657 0.2367 0.0035
N1 N 0.2973(3) 0.17511(19) 0.22397(18)
H5 H 0.2423 0.1611 0.2635
H6 H 0.3665 0.1977 0.2269
N2 N 0.6617(3) 0.21265(18) -0.07673(16)
H7 H 0.7365 0.2214 -0.0608
H8 H 0.6411 0.2552 -0.1233
H9 H 0.6679 0.1645 -0.0834
O1 O 0.1820(2) 0.13113(16) 0.15061(16)
C8 C 0.3945(6) 0.9917(3) 0.0857(3)
H10 H 0.3349 1.0014 0.1238
H11 H 0.4308 1.0448 0.0516
C9 C 0.2194(5) 1.0104(3) 0.0079(3)
H12 H 0.2397 1.0688 -0.0214
H13 H 0.1610 1.0069 0.0520
C10 C 0.1588(5) 0.9816(3) -0.0456(3)
H14 H 0.0856 1.0189 -0.0702
H15 H 0.2184 0.9819 -0.0882
C11 C 0.0555(4) 0.8683(4) -0.0468(3)
H16 H 0.1113 0.8664 -0.0903
H17 H -0.0184 0.9053 -0.0706
C12 C 0.0148(4) 0.7851(4) 0.0022(3)
H18 H -0.0393 0.7865 0.0465
H19 H -0.0343 0.7652 -0.0299
C13 C 0.0849(6) 0.6503(4) 0.0838(3)
H20 H 0.0392 0.6261 0.0539
H21 H 0.0283 0.6536 0.1264
C14 C 0.1963(6) 0.5971(3) 0.1189(3)
H22 H 0.1720 0.5397 0.1497
H23 H 0.2562 0.5972 0.0764
C15 C 0.3558(5) 0.5741(3) 0.2096(3)
H24 H 0.4246 0.5745 0.1718
H25 H 0.3299 0.5167 0.2379
C16 C 0.3994(5) 0.6053(3) 0.2674(3)
H26 H 0.3294 0.6066 0.3038
H27 H 0.4675 0.5677 0.2992
C17 C 0.4768(6) 0.7195(4) 0.2789(3)
H28 H 0.5386 0.6818 0.3168
H29 H 0.4021 0.7271 0.3093
C18 C 0.5324(6) 0.8015(4) 0.2319(3)
H30 H 0.5583 0.8255 0.2683
H31 H 0.6074 0.7936 0.2020
C19 C 0.4949(5) 0.9311(3) 0.1286(3)
H32 H 0.5546 0.9218 0.0903
H33 H 0.5411 0.9531 0.1603
O2 O 0.3314(3) 0.96140(19) 0.03875(19)
O3 O 0.1198(3) 0.8999(2) -0.00091(18)
O4 O 0.1198(3) 0.7315(2) 0.03200(19)
O5 O 0.2527(3) 0.62626(19) 0.1682(2)
O6 O 0.4431(3) 0.6857(2) 0.22653(17)
O7 O 0.4440(3) 0.8556(2) 0.17920(19)
C20 C 0.2194(3) 0.3423(2) 0.3353(2)
C21 C 0.1172(3) 0.3198(2) 0.3974(2)
C22 C -0.0078(3) 0.3408(2) 0.3765(2)
H34 H -0.0298 0.3643 0.3223
C23 C -0.1003(3) 0.3273(2) 0.4351(2)
H35 H -0.1854 0.3423 0.4212
C24 C -0.0676(3) 0.2923(2) 0.5132(2)
C25 C 0.0552(3) 0.2670(2) 0.5351(2)
H36 H 0.0757 0.2397 0.5894
C26 C 0.1476(3) 0.2823(2) 0.4768(2)
H37 H 0.2325 0.2670 0.4912
N3 N 0.1963(3) 0.3308(2) 0.27040(18)
H38 H 0.2506 0.3453 0.2305
H39 H 0.1267 0.3085 0.2675
N4 N -0.1636(3) 0.28532(18) 0.57451(17)
H40 H -0.1669 0.3316 0.5843
H41 H -0.1440 0.2405 0.6197
H42 H -0.2393 0.2795 0.5576
O8 O 0.3137(2) 0.37277(17) 0.34438(16)
C27 C 0.6180(6) 0.1481(4) 0.5557(4)
H43 H 0.5710 0.0976 0.5703
H44 H 0.6763 0.1521 0.5113
C28 C 0.5295(5) 0.2214(4) 0.5303(4)
H45 H 0.4771 0.2224 0.4872
H46 H 0.4737 0.2192 0.5752
C29 C 0.5186(5) 0.3659(4) 0.4815(3)
H47 H 0.4679 0.3646 0.5280
H48 H 0.4608 0.3684 0.4403
C30 C 0.5945(5) 0.4404(4) 0.4506(3)
H49 H 0.6476 0.4408 0.4053
H50 H 0.5383 0.4909 0.4320
C31 C 0.7573(5) 0.5032(3) 0.4824(3)
H51 H 0.7122 0.5571 0.4537
H52 H 0.8176 0.4929 0.4449
C32 C 0.8263(5) 0.5064(3) 0.5489(3)
H53 H 0.8840 0.5521 0.5282
H54 H 0.7663 0.5169 0.5865
C33 C 0.9532(5) 0.4296(3) 0.6567(3)
H55 H 0.8887 0.4329 0.6955
H56 H 1.0060 0.4776 0.6416
C34 C 1.0318(5) 0.3517(4) 0.6928(4)
H57 H 1.0963 0.3483 0.6540
H58 H 1.0749 0.3509 0.7393
C35 C 1.0220(6) 0.2080(4) 0.7597(3)
H59 H 1.0524 0.2080 0.8094
H60 H 1.0953 0.2004 0.7283
C36 C 0.9357(6) 0.1387(4) 0.7784(3)
H61 H 0.9806 0.0852 0.8087
H62 H 0.8635 0.1455 0.8110
C37 C 0.8279(7) 0.0695(3) 0.7216(4)
H63 H 0.7602 0.0644 0.7614
H64 H 0.8853 0.0197 0.7433
C38 C 0.7730(7) 0.0743(3) 0.6474(4)
H65 H 0.8397 0.0810 0.6067
H66 H 0.7306 0.0230 0.6575
O9 O 0.6863(4) 0.1425(2) 0.6208(2)
O10 O 0.5986(3) 0.2928(2) 0.5035(2)
O11 O 0.6696(3) 0.4395(2) 0.51061(19)
O12 O 0.8943(3) 0.4315(2) 0.5880(2)
O13 O 0.9559(3) 0.2844(2) 0.7161(2)
O14 O 0.8939(3) 0.1400(2) 0.70762(19)
C39 C 0.0263(4) 0.1182(3) 0.3919(3)
H67 H 0.0050 0.1594 0.4143
H68 H -0.0010 0.0639 0.4303
C40 C -0.0385(4) 0.1422(3) 0.3160(3)
H69 H -0.0097 0.1044 0.2907
H70 H -0.1299 0.1378 0.3260
C41 C -0.0651(4) 0.2478(3) 0.1890(3)
H71 H -0.1571 0.2440 0.1947
H72 H -0.0316 0.2097 0.1651
C42 C -0.0343(4) 0.3336(3) 0.1368(3)
H73 H -0.0879 0.3547 0.0897
H74 H -0.0503 0.3697 0.1655
C43 C 0.1302(4) 0.4161(3) 0.0676(3)
H75 H 0.1118 0.4503 0.0980
H76 H 0.0822 0.4407 0.0181
C44 C 0.2670(5) 0.4148(3) 0.0481(2)
H77 H 0.2873 0.3748 0.0240
H78 H 0.2900 0.4701 0.0094
C45 C 0.4666(4) 0.3883(3) 0.1052(3)
H79 H 0.4934 0.4430 0.0672
H80 H 0.4895 0.3475 0.0824
C46 C 0.5307(4) 0.3641(3) 0.1817(3)
H81 H 0.6221 0.3693 0.1722
H82 H 0.5001 0.4008 0.2078
C47 C 0.5616(4) 0.2551(3) 0.3054(3)
H83 H 0.5315 0.2919 0.3315
H84 H 0.6536 0.2579 0.2982
C48 C 0.5284(4) 0.1679(3) 0.3560(3)
H85 H 0.5393 0.1339 0.3248
H86 H 0.5845 0.1437 0.4018
C49 C 0.3635(5) 0.0867(2) 0.4273(3)
H87 H 0.4123 0.0607 0.4763
H88 H 0.3799 0.0532 0.3959
C50 C 0.2278(5) 0.0883(3) 0.4479(2)
H89 H 0.2045 0.0327 0.4856
H90 H 0.2094 0.1271 0.4735
O15 O 0.1571(3) 0.11370(18) 0.37779(16)
O16 O -0.0125(3) 0.22455(18) 0.26467(17)
O17 O 0.0937(3) 0.33450(17) 0.11275(16)
O18 O 0.3356(3) 0.39185(18) 0.11831(15)
O19 O 0.5049(3) 0.28068(17) 0.23114(16)
O20 O 0.4022(3) 0.16774(17) 0.38304(16)
F1 F 0.3053(4) 0.0015(3) 0.6265(2)
F2 F 0.4177(3) 0.0253(2) 0.7139(2)
F3 F 0.2428(4) 0.0620(3) 0.7630(2)
F4 F 0.1300(3) 0.0395(2) 0.6750(3)
F5 F 0.2633(3) -0.06142(19) 0.7550(2)
F6 F 0.2845(3) 0.12534(18) 0.6349(2)
P1 P 0.27311(10) 0.03211(7) 0.69403(6)
F7 F 0.7320(4) 0.5549(3) 0.2691(2)
F8 F 0.6350(3) 0.5417(2) 0.1689(3)
F9 F 0.8158(4) 0.5085(3) 0.1271(2)
F10 F 0.9138(3) 0.52296(18) 0.22354(19)
F11 F 0.7597(3) 0.4359(2) 0.2519(2)
F12 F 0.7887(3) 0.62677(18) 0.1447(2)
P2 P 0.77288(10) 0.53169(7) 0.19719(6)
loop_
_geom_bond_atom_site_label_1
_geom_bond_atom_site_label_2
_geom_bond_site_symmetry_1
_geom_bond_site_symmetry_2
C1 C2 1_555 1_555
C2 C3 1_555 1_555
C3 H1 1_555 1_555
C4 C3 1_555 1_555
H2 C4 1_555 1_555
C5 C4 1_555 1_555
C6 C5 1_555 1_555
H3 C6 1_555 1_555
C7 C2 1_555 1_555
H4 C7 1_555 1_555
N1 C1 1_555 1_555
H5 N1 1_555 1_555
H6 N1 1_555 1_555
N2 C5 1_555 1_555
H7 N2 1_555 1_555
H8 N2 1_555 1_555
H9 N2 1_555 1_555
O1 C1 1_555 1_555
C8 H10 1_555 1_555
H11 C8 1_555 1_555
C9 H12 1_555 1_555
H13 C9 1_555 1_555
C10 C9 1_555 1_555
H14 C10 1_555 1_555
H15 C10 1_555 1_555
C11 H16 1_555 1_555
H17 C11 1_555 1_555
C12 C11 1_555 1_555
H18 C12 1_555 1_555
H19 C12 1_555 1_555
C13 H20 1_555 1_555
H21 C13 1_555 1_555
C14 C13 1_555 1_555
H22 C14 1_555 1_555
H23 C14 1_555 1_555
C15 H24 1_555 1_555
H25 C15 1_555 1_555
C16 C15 1_555 1_555
H26 C16 1_555 1_555
H27 C16 1_555 1_555
C17 H28 1_555 1_555
H29 C17 1_555 1_555
C18 C17 1_555 1_555
H30 C18 1_555 1_555
H31 C18 1_555 1_555
C19 C8 1_555 1_555
H32 C19 1_555 1_555
H33 C19 1_555 1_555
O2 C8 1_555 1_555
O3 C10 1_555 1_555
O4 C12 1_555 1_555
O5 C14 1_555 1_555
O6 C16 1_555 1_555
O7 C18 1_555 1_555
C20 C21 1_555 1_555
C21 C22 1_555 1_555
C22 H34 1_555 1_555
C23 C22 1_555 1_555
H35 C23 1_555 1_555
C24 C23 1_555 1_555
C25 C24 1_555 1_555
H36 C25 1_555 1_555
C26 C21 1_555 1_555
H37 C26 1_555 1_555
N3 C20 1_555 1_555
H38 N3 1_555 1_555
H39 N3 1_555 1_555
N4 C24 1_555 1_555
H40 N4 1_555 1_555
H41 N4 1_555 1_555
H42 N4 1_555 1_555
O8 C20 1_555 1_555
C27 H43 1_555 1_555
H44 C27 1_555 1_555
C28 C27 1_555 1_555
H45 C28 1_555 1_555
H46 C28 1_555 1_555
C29 H47 1_555 1_555
H48 C29 1_555 1_555
C30 C29 1_555 1_555
H49 C30 1_555 1_555
H50 C30 1_555 1_555
C31 H51 1_555 1_555
H52 C31 1_555 1_555
C32 C31 1_555 1_555
H53 C32 1_555 1_555
H54 C32 1_555 1_555
C33 H55 1_555 1_555
H56 C33 1_555 1_555
C34 C33 1_555 1_555
H57 C34 1_555 1_555
H58 C34 1_555 1_555
C35 H59 1_555 1_555
H60 C35 1_555 1_555
C36 C35 1_555 1_555
H61 C36 1_555 1_555
H62 C36 1_555 1_555
C37 H63 1_555 1_555
H64 C37 1_555 1_555
C38 C37 1_555 1_555
H65 C38 1_555 1_555
H66 C38 1_555 1_555
O9 C27 1_555 1_555
O10 C28 1_555 1_555
O11 C30 1_555 1_555
O12 C32 1_555 1_555
O13 C34 1_555 1_555
O14 C36 1_555 1_555
C39 H67 1_555 1_555
H68 C39 1_555 1_555
C40 C39 1_555 1_555
H69 C40 1_555 1_555
H70 C40 1_555 1_555
C41 H71 1_555 1_555
H72 C41 1_555 1_555
C42 C41 1_555 1_555
H73 C42 1_555 1_555
H74 C42 1_555 1_555
C43 H75 1_555 1_555
H76 C43 1_555 1_555
C44 C43 1_555 1_555
H77 C44 1_555 1_555
H78 C44 1_555 1_555
C45 H79 1_555 1_555
H80 C45 1_555 1_555
C46 C45 1_555 1_555
H81 C46 1_555 1_555
H82 C46 1_555 1_555
C47 H83 1_555 1_555
H84 C47 1_555 1_555
C48 C47 1_555 1_555
H85 C48 1_555 1_555
H86 C48 1_555 1_555
C49 H87 1_555 1_555
H88 C49 1_555 1_555
C50 C49 1_555 1_555
H89 C50 1_555 1_555
H90 C50 1_555 1_555
O15 C39 1_555 1_555
O16 C40 1_555 1_555
O17 C42 1_555 1_555
O18 C44 1_555 1_555
O19 C46 1_555 1_555
O20 C48 1_555 1_555
F1 P1 1_555 1_555
F2 P1 1_555 1_555
F3 P1 1_555 1_555
F4 P1 1_555 1_555
F5 P1 1_555 1_555
F6 P1 1_555 1_555
F7 P2 1_555 1_555
F8 P2 1_555 1_555
F9 P2 1_555 1_555
F10 P2 1_555 1_555
F11 P2 1_555 1_555
F12 P2 1_555 1_555
C6 C7 1_555 1_555
C9 O2 1_555 1_555
C11 O3 1_555 1_555
C13 O4 1_555 1_555
C15 O5 1_555 1_555
C17 O6 1_555 1_555
C19 O7 1_555 1_555
C25 C26 1_555 1_555
C29 O10 1_555 1_555
C31 O11 1_555 1_555
C33 O12 1_555 1_555
C35 O13 1_555 1_555
C37 O14 1_555 1_555
C38 O9 1_555 1_555
C41 O16 1_555 1_555
C43 O17 1_555 1_555
C45 O18 1_555 1_555
C47 O19 1_555 1_555
C49 O20 1_555 1_555
C50 O15 1_555 1_555

#END
