
#######################################################################
#
#                 Cambridge Crystallographic Data Centre
#                                CCDC 
#
#######################################################################
#
# If this CIF has been generated from an entry in the Cambridge 
# Structural Database, then it will include bibliographic, chemical, 
# crystal, experimental, refinement or atomic coordinate data resulting 
# from the CCDC's data processing and validation procedures.
#
#######################################################################

data_SENFOJ
_chemical_formula_moiety         'C26 H29 Br1 N2 O5 S1'
_chemical_name_systematic        
N-{1-benzyl-4-bromo-3-[(2,2-dimethyl-4-oxo-2H,4H-1,3-dioxin-6-yl)methyl]-2-oxo-2,3-dihydro-1H-indol-3-yl}-2-methylpropane-2-sulfinamide
_symmetry_cell_setting           orthorhombic
_symmetry_space_group_name_H-M   'P 21 21 21'
_symmetry_Int_Tables_number      19
_space_group_name_Hall           'P 2ac 2ab'
loop_
_symmetry_equiv_pos_site_id
_symmetry_equiv_pos_as_xyz
1 x,y,z
2 1/2-x,-y,1/2+z
3 1/2+x,1/2-y,-z
4 -x,1/2+y,1/2-z
_cell_length_a                   10.0662(14)
_cell_length_b                   15.170(2)
_cell_length_c                   17.178(2)
_cell_angle_alpha                90
_cell_angle_beta                 90
_cell_angle_gamma                90
_cell_volume                     2623.15
_exptl_crystal_colour            colorless
_exptl_crystal_description       block
_cell_formula_units_Z            4
loop_
_atom_site_label
_atom_site_type_symbol
_atom_site_fract_x
_atom_site_fract_y
_atom_site_fract_z
Br1 Br 1.00658(5) 0.10776(3) 0.96178(3)
S1 S 0.76076(11) 0.07912(7) 0.76224(7)
O1 O 0.8242(3) 0.42701(19) 0.88630(18)
O2 O 1.0214(3) 0.49752(18) 0.92782(17)
O3 O 1.1669(3) 0.4280(2) 1.0016(2)
O4 O 0.6610(3) 0.3064(2) 0.74928(19)
O5 O 0.8595(3) 0.0112(2) 0.7841(2)
N1 N 0.8876(3) 0.3115(2) 0.7340(2)
N2 N 0.7312(3) 0.1455(2) 0.8385(2)
H1 H 0.6746 0.1324 0.8742
C1 C 0.8089(4) 0.2278(3) 0.8400(3)
C2 C 0.9584(4) 0.2198(2) 0.8320(2)
C3 C 0.9982(4) 0.2731(2) 0.7700(2)
C4 C 0.7720(4) 0.2851(3) 0.7688(3)
C5 C 1.0550(4) 0.1777(3) 0.8744(3)
C6 C 1.1876(5) 0.1875(3) 0.8558(3)
H2 H 1.2521 0.1576 0.8841
C7 C 1.2241(5) 0.2415(3) 0.7953(3)
H3 H 1.3138 0.2488 0.7841
C8 C 1.1315(4) 0.2853(3) 0.7507(3)
H4 H 1.1567 0.3214 0.7095
C9 C 0.8952(5) 0.3739(3) 0.6696(3)
H5 H 0.9573 0.4204 0.6830
H6 H 0.8086 0.4007 0.6621
C10 C 0.9386(5) 0.3320(3) 0.5943(3)
C11 C 1.0350(5) 0.3715(3) 0.5494(3)
H7 H 1.0797 0.4208 0.5680
C12 C 1.0661(6) 0.3377(4) 0.4758(3)
H8 H 1.1293 0.3657 0.4449
C13 C 1.0035(7) 0.2635(4) 0.4493(3)
H9 H 1.0242 0.2410 0.4004
C14 C 0.9102(6) 0.2223(4) 0.4948(4)
H10 H 0.8690 0.1712 0.4773
C15 C 0.8779(5) 0.2568(3) 0.5664(3)
H11 H 0.8138 0.2289 0.5966
C16 C 0.7682(4) 0.2777(3) 0.9154(2)
H12 H 0.6766 0.2969 0.9108
H13 H 0.7738 0.2377 0.9593
C17 C 0.8551(4) 0.3566(3) 0.9306(3)
C18 C 0.9596(5) 0.3581(3) 0.9783(3)
H14 H 0.9705 0.3133 1.0148
C19 C 1.0558(5) 0.4282(3) 0.9739(3)
C20 C 0.8831(4) 0.5104(3) 0.9096(3)
C21 C 0.8792(5) 0.5704(3) 0.8403(4)
H15 H 0.9227 0.6249 0.8529
H16 H 0.7885 0.5819 0.8264
H17 H 0.9240 0.5429 0.7974
C22 C 0.8106(5) 0.5451(3) 0.9805(3)
H18 H 0.8172 0.5030 1.0220
H19 H 0.7188 0.5545 0.9678
H20 H 0.8499 0.5998 0.9965
C23 C 0.6008(4) 0.0195(3) 0.7576(3)
C24 C 0.6114(6) -0.0356(4) 0.6836(3)
H21 H 0.6173 0.0027 0.6392
H22 H 0.5341 -0.0723 0.6787
H23 H 0.6893 -0.0720 0.6862
C25 C 0.5863(5) -0.0397(4) 0.8275(3)
H24 H 0.6671 -0.0721 0.8352
H25 H 0.5144 -0.0802 0.8190
H26 H 0.5681 -0.0047 0.8728
C26 C 0.4906(5) 0.0872(4) 0.7515(4)
H27 H 0.4853 0.1200 0.7992
H28 H 0.4076 0.0578 0.7422
H29 H 0.5091 0.1267 0.7092
loop_
_geom_bond_atom_site_label_1
_geom_bond_atom_site_label_2
_geom_bond_site_symmetry_1
_geom_bond_site_symmetry_2
Br1 C5 1_555 1_555
S1 O5 1_555 1_555
O1 C17 1_555 1_555
O2 C19 1_555 1_555
O3 C19 1_555 1_555
O4 C4 1_555 1_555
N1 C3 1_555 1_555
N2 S1 1_555 1_555
H1 N2 1_555 1_555
C1 N2 1_555 1_555
C2 C1 1_555 1_555
C3 C2 1_555 1_555
C4 N1 1_555 1_555
C5 C2 1_555 1_555
C6 C5 1_555 1_555
H2 C6 1_555 1_555
C7 C6 1_555 1_555
H3 C7 1_555 1_555
C8 C3 1_555 1_555
H4 C8 1_555 1_555
C9 N1 1_555 1_555
H5 C9 1_555 1_555
H6 C9 1_555 1_555
C10 C9 1_555 1_555
C11 C10 1_555 1_555
H7 C11 1_555 1_555
C12 C11 1_555 1_555
H8 C12 1_555 1_555
C13 C12 1_555 1_555
H9 C13 1_555 1_555
C14 C13 1_555 1_555
H10 C14 1_555 1_555
C15 C10 1_555 1_555
H11 C15 1_555 1_555
C16 C1 1_555 1_555
H12 C16 1_555 1_555
H13 C16 1_555 1_555
C17 C16 1_555 1_555
C18 C17 1_555 1_555
H14 C18 1_555 1_555
C19 C18 1_555 1_555
C20 O1 1_555 1_555
C21 C20 1_555 1_555
H15 C21 1_555 1_555
H16 C21 1_555 1_555
H17 C21 1_555 1_555
C22 C20 1_555 1_555
H18 C22 1_555 1_555
H19 C22 1_555 1_555
H20 C22 1_555 1_555
C23 S1 1_555 1_555
C24 C23 1_555 1_555
H21 C24 1_555 1_555
H22 C24 1_555 1_555
H23 C24 1_555 1_555
C25 C23 1_555 1_555
H24 C25 1_555 1_555
H25 C25 1_555 1_555
H26 C25 1_555 1_555
C26 C23 1_555 1_555
H27 C26 1_555 1_555
H28 C26 1_555 1_555
H29 C26 1_555 1_555
O2 C20 1_555 1_555
C1 C4 1_555 1_555
C7 C8 1_555 1_555
C14 C15 1_555 1_555

#END
