
#######################################################################
#
#                 Cambridge Crystallographic Data Centre
#                                CCDC 
#
#######################################################################
#
# If this CIF has been generated from an entry in the Cambridge 
# Structural Database, then it will include bibliographic, chemical, 
# crystal, experimental, refinement or atomic coordinate data resulting 
# from the CCDC's data processing and validation procedures.
#
#######################################################################

data_SENFEZ
_chemical_formula_moiety         'C18 H24 N2 O6 S1'
_chemical_name_systematic        
N-[2-(2,2-dimethyl-4-oxo-2H,4H-1,3-dioxin-6-yl)-1-(3-nitrophenyl)ethyl]-2-methylpropane-2-sulfinamide
_symmetry_cell_setting           orthorhombic
_symmetry_space_group_name_H-M   'P 21 21 21'
_symmetry_Int_Tables_number      19
_space_group_name_Hall           'P 2ac 2ab'
loop_
_symmetry_equiv_pos_site_id
_symmetry_equiv_pos_as_xyz
1 x,y,z
2 1/2-x,-y,1/2+z
3 -x,1/2+y,1/2-z
4 1/2+x,1/2-y,-z
_cell_length_a                   10.9782(13)
_cell_length_b                   11.2330(14)
_cell_length_c                   16.728(2)
_cell_angle_alpha                90
_cell_angle_beta                 90
_cell_angle_gamma                90
_cell_volume                     2062.87
_exptl_crystal_colour            colorless
_exptl_crystal_description       block
_cell_formula_units_Z            4
loop_
_atom_site_label
_atom_site_type_symbol
_atom_site_fract_x
_atom_site_fract_y
_atom_site_fract_z
S1 S 0.89977(6) 0.16660(7) 0.16824(4)
O1 O 0.8452(3) 0.4701(2) 0.44347(19)
O2 O 0.9790(3) 0.4543(3) 0.5348(2)
O3 O 0.39842(17) -0.19393(19) 0.19218(13)
O4 O 0.56689(17) -0.28496(18) 0.22886(14)
O5 O 0.71721(17) -0.18530(16) 0.30356(13)
O6 O 0.9697(2) 0.2754(3) 0.18825(16)
N1 N 0.9212(3) 0.4127(3) 0.47943(17)
N2 N 0.79365(19) 0.1374(2) 0.23631(12)
H1 H 0.7208 0.1646 0.2314
C1 C 0.8281(2) 0.0639(2) 0.30494(15)
H2 H 0.8758 -0.0037 0.2852
C2 C 0.9015(2) 0.1256(2) 0.36978(15)
C3 C 0.8808(2) 0.2437(2) 0.39142(15)
H3 H 0.8261 0.2908 0.3631
C4 C 0.9439(2) 0.2890(3) 0.45626(17)
C5 C 1.0260(3) 0.2235(3) 0.50011(18)
H4 H 1.0665 0.2567 0.5435
C6 C 1.0464(3) 0.1067(3) 0.47764(19)
H5 H 1.1011 0.0599 0.5063
C7 C 0.9857(3) 0.0595(3) 0.41264(18)
H6 H 1.0016 -0.0185 0.3973
C8 C 0.7097(2) 0.0147(2) 0.34278(16)
H7 H 0.7277 -0.0142 0.3961
H8 H 0.6513 0.0790 0.3478
C9 C 0.6542(2) -0.0829(2) 0.29578(15)
C10 C 0.5525(2) -0.0775(2) 0.25229(17)
H9 H 0.5156 -0.0043 0.2426
C11 C 0.4997(2) -0.1845(2) 0.22041(15)
C12 C 0.6972(3) -0.2730(3) 0.2429(2)
C13 C 0.7607(3) -0.2365(4) 0.1676(3)
H10 H 0.7471 -0.2955 0.1270
H11 H 0.7293 -0.1613 0.1498
H12 H 0.8465 -0.2294 0.1775
C14 C 0.7395(4) -0.3904(3) 0.2773(3)
H13 H 0.7278 -0.4523 0.2385
H14 H 0.8243 -0.3851 0.2908
H15 H 0.6932 -0.4083 0.3245
C15 C 0.7976(3) 0.2098(3) 0.08536(16)
C16 C 0.7242(4) 0.3182(4) 0.1084(2)
H16 H 0.7783 0.3827 0.1208
H17 H 0.6723 0.3406 0.0647
H18 H 0.6752 0.3001 0.1544
C17 C 0.8850(4) 0.2382(4) 0.01608(19)
H19 H 0.9306 0.1681 0.0025
H20 H 0.8390 0.2639 -0.0296
H21 H 0.9400 0.3002 0.0320
C18 C 0.7191(4) 0.1023(4) 0.0646(2)
H22 H 0.7705 0.0365 0.0505
H23 H 0.6700 0.0811 0.1099
H24 H 0.6671 0.1216 0.0203
loop_
_geom_bond_atom_site_label_1
_geom_bond_atom_site_label_2
_geom_bond_site_symmetry_1
_geom_bond_site_symmetry_2
S1 O6 1_555 1_555
O1 N1 1_555 1_555
O2 N1 1_555 1_555
O3 C11 1_555 1_555
O4 C11 1_555 1_555
O5 C9 1_555 1_555
N1 C4 1_555 1_555
N2 S1 1_555 1_555
H1 N2 1_555 1_555
C1 N2 1_555 1_555
H2 C1 1_555 1_555
C2 C1 1_555 1_555
C3 C2 1_555 1_555
H3 C3 1_555 1_555
C4 C3 1_555 1_555
C5 C4 1_555 1_555
H4 C5 1_555 1_555
C6 C5 1_555 1_555
H5 C6 1_555 1_555
C7 C2 1_555 1_555
H6 C7 1_555 1_555
C8 C1 1_555 1_555
H7 C8 1_555 1_555
H8 C8 1_555 1_555
C9 C8 1_555 1_555
C10 C9 1_555 1_555
H9 C10 1_555 1_555
C11 C10 1_555 1_555
C12 O4 1_555 1_555
C13 C12 1_555 1_555
H10 C13 1_555 1_555
H11 C13 1_555 1_555
H12 C13 1_555 1_555
C14 C12 1_555 1_555
H13 C14 1_555 1_555
H14 C14 1_555 1_555
H15 C14 1_555 1_555
C15 S1 1_555 1_555
C16 C15 1_555 1_555
H16 C16 1_555 1_555
H17 C16 1_555 1_555
H18 C16 1_555 1_555
C17 C15 1_555 1_555
H19 C17 1_555 1_555
H20 C17 1_555 1_555
H21 C17 1_555 1_555
C18 C15 1_555 1_555
H22 C18 1_555 1_555
H23 C18 1_555 1_555
H24 C18 1_555 1_555
O5 C12 1_555 1_555
C6 C7 1_555 1_555

#END
