
#######################################################################
#
#                 Cambridge Crystallographic Data Centre
#                                CCDC 
#
#######################################################################
#
# If this CIF has been generated from an entry in the Cambridge 
# Structural Database, then it will include bibliographic, chemical, 
# crystal, experimental, refinement or atomic coordinate data resulting 
# from the CCDC's data processing and validation procedures.
#
#######################################################################

data_SENGUO
_chemical_formula_moiety         'C19 H18 Br2 O8'
_chemical_name_systematic        
'2-Bromo-3,4,5-trimethoxybenzyl 4-bromo-7-methoxy-1,3-benzodioxole-5-carboxylate'
_symmetry_cell_setting           triclinic
_symmetry_space_group_name_H-M   'P -1'
_symmetry_Int_Tables_number      2
_space_group_name_Hall           '-P 1'
loop_
_symmetry_equiv_pos_site_id
_symmetry_equiv_pos_as_xyz
1 x,y,z
2 -x,-y,-z
_cell_length_a                   7.9131(13)
_cell_length_b                   9.5314(15)
_cell_length_c                   13.949(3)
_cell_angle_alpha                77.692(12)
_cell_angle_beta                 79.132(17)
_cell_angle_gamma                88.946(18)
_cell_volume                     1009.2
_exptl_crystal_colour            colorless
_exptl_crystal_description       block
_chemical_melting_point          '394 K'
_cell_formula_units_Z            2
_exptl_crystal_recrystallization_method dichloromethane
loop_
_atom_site_label
_atom_site_type_symbol
_atom_site_fract_x
_atom_site_fract_y
_atom_site_fract_z
Br1 Br 0.89428(4) 0.44660(3) 0.20999(2)
Br2 Br 0.35230(4) -0.05540(3) 0.68355(2)
O1 O 0.9501(3) 0.8354(2) 0.49618(15)
O2 O 1.1042(2) 0.89345(19) 0.29177(14)
O3 O 1.0836(2) 0.74419(19) 0.18312(13)
O4 O 0.6252(3) 0.3351(2) 0.39280(14)
O5 O 0.6642(2) 0.35493(18) 0.54297(12)
O6 O 0.2268(2) -0.03688(18) 0.90085(13)
O7 O 0.2976(2) 0.1708(2) 0.99717(13)
O8 O 0.4809(2) 0.40863(19) 0.89615(13)
C1 C 0.9234(3) 0.7422(3) 0.4391(2)
C2 C 1.0005(3) 0.7758(3) 0.3398(2)
C3 C 0.9867(3) 0.6871(3) 0.27606(18)
C4 C 0.8933(3) 0.5604(3) 0.30511(18)
C5 C 0.8083(3) 0.5250(2) 0.40572(18)
C6 C 0.8260(3) 0.6148(3) 0.47018(18)
H1 H 0.7706 0.5887 0.5366
C7 C 1.1325(4) 0.8852(3) 0.1885(2)
H2 H 1.0643 0.9559 0.1526
H3 H 1.2529 0.9044 0.1584
C8 C 0.8576(4) 0.8134(3) 0.5951(2)
H4 H 0.8889 0.8873 0.6262
H5 H 0.8844 0.7213 0.6319
H6 H 0.7364 0.8168 0.5947
C9 C 0.6932(3) 0.3955(3) 0.44311(19)
C10 C 0.5669(3) 0.2221(3) 0.58386(18)
H7 H 0.6409 0.1414 0.5764
H8 H 0.4740 0.2178 0.5480
C11 C 0.4940(3) 0.2137(3) 0.69313(18)
C12 C 0.3956(3) 0.0936(3) 0.74681(19)
C13 C 0.3287(3) 0.0805(3) 0.84821(19)
C14 C 0.3575(3) 0.1877(3) 0.89558(18)
C15 C 0.4564(3) 0.3100(3) 0.84238(19)
C16 C 0.5232(3) 0.3215(3) 0.74140(18)
H9 H 0.5882 0.4026 0.7057
C17 C 0.3212(4) -0.1572(3) 0.9403(2)
H10 H 0.2428 -0.2349 0.9755
H11 H 0.3868 -0.1309 0.9853
H12 H 0.3978 -0.1869 0.8865
C18 C 0.1467(4) 0.2458(3) 1.0231(2)
H13 H 0.1133 0.2281 1.0945
H14 H 0.0560 0.2136 0.9954
H15 H 0.1678 0.3469 0.9970
C19 C 0.5800(4) 0.5345(3) 0.8454(2)
H16 H 0.5874 0.5948 0.8916
H17 H 0.5259 0.5856 0.7926
H18 H 0.6935 0.5082 0.8178
loop_
_geom_bond_atom_site_label_1
_geom_bond_atom_site_label_2
_geom_bond_site_symmetry_1
_geom_bond_site_symmetry_2
Br1 C4 1_555 1_555
Br2 C12 1_555 1_555
O1 C1 1_555 1_555
O2 C2 1_555 1_555
O3 C3 1_555 1_555
O4 C9 1_555 1_555
O5 C9 1_555 1_555
O6 C13 1_555 1_555
O7 C14 1_555 1_555
O8 C15 1_555 1_555
C1 C2 1_555 1_555
C2 C3 1_555 1_555
C3 C4 1_555 1_555
C4 C5 1_555 1_555
C5 C6 1_555 1_555
C6 C1 1_555 1_555
H1 C6 1_555 1_555
C7 O2 1_555 1_555
H2 C7 1_555 1_555
H3 C7 1_555 1_555
C8 O1 1_555 1_555
H4 C8 1_555 1_555
H5 C8 1_555 1_555
H6 C8 1_555 1_555
C9 C5 1_555 1_555
C10 O5 1_555 1_555
H7 C10 1_555 1_555
H8 C10 1_555 1_555
C11 C10 1_555 1_555
C12 C11 1_555 1_555
C13 C12 1_555 1_555
C14 C13 1_555 1_555
C15 C14 1_555 1_555
C16 C11 1_555 1_555
H9 C16 1_555 1_555
C17 O6 1_555 1_555
H10 C17 1_555 1_555
H11 C17 1_555 1_555
H12 C17 1_555 1_555
C18 O7 1_555 1_555
H13 C18 1_555 1_555
H14 C18 1_555 1_555
H15 C18 1_555 1_555
C19 O8 1_555 1_555
H16 C19 1_555 1_555
H17 C19 1_555 1_555
H18 C19 1_555 1_555
O3 C7 1_555 1_555
C15 C16 1_555 1_555

#END
