
#######################################################################
#
#                 Cambridge Crystallographic Data Centre
#                                CCDC 
#
#######################################################################
#
# If this CIF has been generated from an entry in the Cambridge 
# Structural Database, then it will include bibliographic, chemical, 
# crystal, experimental, refinement or atomic coordinate data resulting 
# from the CCDC's data processing and validation procedures.
#
#######################################################################

data_SENKAX
_chemical_formula_moiety         'C19 H24 O2 S1'
_chemical_name_systematic        
(-)-(1R,2S,4'S)-(1,7,7-Trimethylbicyclo(2.2.1)heptane)-2-spiro-2'-(4'-benzyl-1',3'-oxathiolan-5'-one)
_symmetry_cell_setting           orthorhombic
_symmetry_space_group_name_H-M   'P 21 21 21'
_symmetry_Int_Tables_number      19
_space_group_name_Hall           'P 2ac 2ab'
loop_
_symmetry_equiv_pos_site_id
_symmetry_equiv_pos_as_xyz
1 x,y,z
2 1/2+x,1/2-y,-z
3 -x,1/2+y,1/2-z
4 1/2-x,-y,1/2+z
_cell_length_a                   7.491(2)
_cell_length_b                   11.078(3)
_cell_length_c                   20.279(6)
_cell_angle_alpha                90
_cell_angle_beta                 90
_cell_angle_gamma                90
_cell_volume                     1682.86
_cell_formula_units_Z            4
loop_
_atom_site_label
_atom_site_type_symbol
_atom_site_fract_x
_atom_site_fract_y
_atom_site_fract_z
S1 S 0.1706(1) 0.1432(1) 0.3604(1)
O1 O 0.1567(3) -0.0863(2) 0.3913(1)
O2 O -0.0662(3) -0.1565(2) 0.3318(1)
C1 C 0.3172(4) 0.0339(2) 0.4735(1)
C2 C 0.2813(3) 0.0122(2) 0.4000(1)
C3 C 0.4650(4) -0.0241(3) 0.3718(2)
C4 C 0.5880(4) -0.0171(3) 0.4322(2)
C5 C 0.6142(5) 0.1165(3) 0.4490(2)
C6 C 0.4298(5) 0.1528(3) 0.4755(2)
C7 C 0.4662(4) -0.0606(3) 0.4893(2)
C8 C 0.1547(5) 0.0363(4) 0.5170(2)
C9 C 0.4109(6) -0.1934(3) 0.4837(2)
C10 C 0.5497(7) -0.0446(4) 0.5575(2)
C11 C 0.0160(4) 0.0501(3) 0.3151(2)
C12 C 0.0295(4) -0.0735(3) 0.3462(2)
C13 C 0.0413(5) 0.0466(4) 0.2400(2)
C14 C 0.2259(4) 0.0084(3) 0.2182(1)
C15 C 0.3530(5) 0.0918(3) 0.2011(2)
C16 C 0.5241(5) 0.0561(4) 0.1831(2)
C17 C 0.5682(6) -0.0637(4) 0.1814(2)
C18 C 0.4437(6) -0.1475(4) 0.1982(2)
C19 C 0.2716(5) -0.1133(6) 0.2160(2)
H1 H 0.4562(41) -0.1020(29) 0.3604(16)
H2 H 0.4868(46) 0.0316(30) 0.3367(16)
H3 H 0.6994(42) -0.0623(23) 0.4262(13)
H4 H 0.6447(50) 0.1638(34) 0.4094(18)
H5 H 0.7063(46) 0.1202(28) 0.4837(16)
H6 H 0.3646(50) 0.2106(33) 0.4518(17)
H7 H 0.4292(43) 0.1789(27) 0.5209(16)
H8 H 0.0567(64) 0.1005(38) 0.5047(20)
H9 H 0.0958(54) -0.0361(36) 0.5107(19)
H10 H 0.2049(57) 0.0503(34) 0.5614(21)
H11 H 0.3793(66) -0.2156(41) 0.4433(21)
H12 H 0.5070(57) -0.2411(42) 0.4901(22)
H13 H 0.3041(62) -0.2070(35) 0.5124(21)
H14 H 0.6684(66) -0.0874(40) 0.5614(21)
H15 H 0.5659(56) 0.0309(39) 0.5708(19)
H16 H 0.4726(54) -0.0721(34) 0.5909(19)
H17 H -0.1083(45) 0.0793(26) 0.3245(14)
H18 H -0.0491(41) -0.0056(25) 0.2227(14)
H19 H 0.0134(53) 0.1178(34) 0.2237(18)
H20 H 0.3189(42) 0.1718(27) 0.2026(14)
H21 H 0.6092(53) 0.1137(35) 0.1674(18)
H22 H 0.6902(51) -0.0936(31) 0.1704(16)
H23 H 0.4762(49) -0.2238(32) 0.1976(18)
H24 H 0.1827(55) -0.1657(34) 0.2311(17)
loop_
_geom_bond_atom_site_label_1
_geom_bond_atom_site_label_2
_geom_bond_site_symmetry_1
_geom_bond_site_symmetry_2
S1 C2 1_555 1_555
O1 C2 1_555 1_555
O2 C12 1_555 1_555
C1 C2 1_555 1_555
C2 C3 1_555 1_555
C3 C4 1_555 1_555
C4 C5 1_555 1_555
C5 C6 1_555 1_555
C6 C1 1_555 1_555
C7 C1 1_555 1_555
C8 C1 1_555 1_555
C9 C7 1_555 1_555
C10 C7 1_555 1_555
C11 S1 1_555 1_555
C12 O1 1_555 1_555
C13 C11 1_555 1_555
C14 C13 1_555 1_555
C15 C14 1_555 1_555
C16 C15 1_555 1_555
C17 C16 1_555 1_555
C18 C17 1_555 1_555
C19 C14 1_555 1_555
H1 C3 1_555 1_555
H2 C3 1_555 1_555
H3 C4 1_555 1_555
H4 C5 1_555 1_555
H5 C5 1_555 1_555
H6 C6 1_555 1_555
H7 C6 1_555 1_555
H8 C8 1_555 1_555
H9 C8 1_555 1_555
H10 C8 1_555 1_555
H11 C9 1_555 1_555
H12 C9 1_555 1_555
H13 C9 1_555 1_555
H14 C10 1_555 1_555
H15 C10 1_555 1_555
H16 C10 1_555 1_555
H17 C11 1_555 1_555
H18 C13 1_555 1_555
H19 C13 1_555 1_555
H20 C15 1_555 1_555
H21 C16 1_555 1_555
H22 C17 1_555 1_555
H23 C18 1_555 1_555
H24 C19 1_555 1_555
C4 C7 1_555 1_555
C11 C12 1_555 1_555
C18 C19 1_555 1_555

#END
