
#######################################################################
#
#                 Cambridge Crystallographic Data Centre
#                                CCDC 
#
#######################################################################
#
# If this CIF has been generated from an entry in the Cambridge 
# Structural Database, then it will include bibliographic, chemical, 
# crystal, experimental, refinement or atomic coordinate data resulting 
# from the CCDC's data processing and validation procedures.
#
#######################################################################

data_SENLON
_chemical_formula_moiety         'C18 H20 O4'
_chemical_name_systematic        'Di-n-propyl naphthalene-1,8-dicarboxylate'
_symmetry_cell_setting           monoclinic
_symmetry_space_group_name_H-M   'P 21/c'
_symmetry_Int_Tables_number      14
_space_group_name_Hall           '-P 2ybc'
loop_
_symmetry_equiv_pos_site_id
_symmetry_equiv_pos_as_xyz
1 x,y,z
2 -x,1/2+y,1/2-z
3 -x,-y,-z
4 x,1/2-y,1/2+z
_cell_length_a                   13.1091(2)
_cell_length_b                   7.21720(10)
_cell_length_c                   16.9995(4)
_cell_angle_alpha                90
_cell_angle_beta                 108.7190(10)
_cell_angle_gamma                90
_cell_volume                     1523.26
_exptl_crystal_colour            colorless
_exptl_crystal_description       Block
_cell_formula_units_Z            4
loop_
_atom_site_label
_atom_site_type_symbol
_atom_site_fract_x
_atom_site_fract_y
_atom_site_fract_z
O1 O 0.22450(6) 0.17707(12) 0.35359(5)
O2 O 0.23872(5) 0.28539(10) 0.48047(4)
O3 O 0.80233(6) 0.21469(11) 0.49752(5)
O4 O 0.78092(5) 0.31038(10) 0.61685(4)
C1 C 0.39846(7) 0.26024(12) 0.44813(6)
C2 C 0.45525(8) 0.21593(13) 0.52895(6)
H1 H 0.4178 0.1814 0.5661
C3 C 0.56825(8) 0.22137(13) 0.55699(6)
H2 H 0.6066 0.1907 0.6131
C4 C 0.62406(7) 0.27059(12) 0.50418(6)
C5 C 0.62204(8) 0.39260(13) 0.36604(6)
H3 H 0.6985 0.3941 0.3837
C6 C 0.56529(8) 0.45602(14) 0.28853(6)
H4 H 0.6026 0.5017 0.2530
C7 C 0.45199(8) 0.45418(14) 0.26101(6)
H5 H 0.4134 0.4999 0.2073
C8 C 0.39705(8) 0.38700(14) 0.31106(6)
H6 H 0.3206 0.3850 0.2914
C9 C 0.45293(7) 0.32025(12) 0.39205(5)
C10 C 0.56807(7) 0.32455(12) 0.42045(5)
C11 C 0.27873(8) 0.23693(13) 0.42010(6)
C12 C 0.12498(7) 0.24793(15) 0.46468(6)
H7 H 0.1101 0.1141 0.4543
H8 H 0.0810 0.3177 0.4153
C13 C 0.09802(8) 0.30799(15) 0.54052(6)
H9 H 0.0206 0.2845 0.5313
H10 H 0.1104 0.4430 0.5484
C14 C 0.16408(10) 0.20840(18) 0.61890(7)
H11 H 0.1534 0.0744 0.6112
H12 H 0.1411 0.2488 0.6656
H13 H 0.2405 0.2377 0.6305
C15 C 0.74428(8) 0.26251(13) 0.53646(6)
C16 C 0.89552(8) 0.28400(15) 0.65802(6)
H14 H 0.9375 0.3623 0.6317
H15 H 0.9154 0.1529 0.6539
C17 C 0.91898(8) 0.33811(15) 0.74759(6)
H16 H 0.8989 0.4696 0.7504
H17 H 0.9973 0.3265 0.7767
C18 C 0.85853(9) 0.21966(18) 0.79195(7)
H18 H 0.7809 0.2407 0.7671
H19 H 0.8811 0.2533 0.8509
H20 H 0.8746 0.0886 0.7864
loop_
_geom_bond_atom_site_label_1
_geom_bond_atom_site_label_2
_geom_bond_site_symmetry_1
_geom_bond_site_symmetry_2
O1 C11 1_555 1_555
O2 C11 1_555 1_555
O3 C15 1_555 1_555
O4 C15 1_555 1_555
C1 C2 1_555 1_555
C2 H1 1_555 1_555
C3 C2 1_555 1_555
H2 C3 1_555 1_555
C4 C3 1_555 1_555
C5 H3 1_555 1_555
C6 C5 1_555 1_555
H4 C6 1_555 1_555
C7 C6 1_555 1_555
H5 C7 1_555 1_555
C8 C7 1_555 1_555
H6 C8 1_555 1_555
C9 C1 1_555 1_555
C10 C4 1_555 1_555
C11 C1 1_555 1_555
C12 O2 1_555 1_555
H7 C12 1_555 1_555
H8 C12 1_555 1_555
C13 C12 1_555 1_555
H9 C13 1_555 1_555
H10 C13 1_555 1_555
C14 C13 1_555 1_555
H11 C14 1_555 1_555
H12 C14 1_555 1_555
H13 C14 1_555 1_555
C15 C4 1_555 1_555
C16 O4 1_555 1_555
H14 C16 1_555 1_555
H15 C16 1_555 1_555
C17 C16 1_555 1_555
H16 C17 1_555 1_555
H17 C17 1_555 1_555
C18 C17 1_555 1_555
H18 C18 1_555 1_555
H19 C18 1_555 1_555
H20 C18 1_555 1_555
C5 C10 1_555 1_555
C8 C9 1_555 1_555
C9 C10 1_555 1_555

#END
