
#######################################################################
#
#                 Cambridge Crystallographic Data Centre
#                                CCDC 
#
#######################################################################
#
# If this CIF has been generated from an entry in the Cambridge 
# Structural Database, then it will include bibliographic, chemical, 
# crystal, experimental, refinement or atomic coordinate data resulting 
# from the CCDC's data processing and validation procedures.
#
#######################################################################

data_SENLED
_chemical_formula_moiety         'C18 H18 Cl1 N5 O2'
_chemical_name_systematic        
'(E)-1,3-Dimethyl-5-p-tolyloxy-1H-pyrazole-4-carbaldehyde O-(6-chloropyridazin-3-yl)oxime'
_symmetry_cell_setting           orthorhombic
_symmetry_space_group_name_H-M   'P b c a'
_symmetry_Int_Tables_number      61
_space_group_name_Hall           '-P 2ac 2ab'
loop_
_symmetry_equiv_pos_site_id
_symmetry_equiv_pos_as_xyz
1 x,y,z
2 1/2-x,-y,1/2+z
3 -x,1/2+y,1/2-z
4 1/2+x,1/2-y,-z
5 -x,-y,-z
6 1/2+x,y,1/2-z
7 x,1/2-y,1/2+z
8 1/2-x,1/2+y,z
_cell_length_a                   14.866(3)
_cell_length_b                   10.499(2)
_cell_length_c                   24.121(5)
_cell_angle_alpha                90
_cell_angle_beta                 90
_cell_angle_gamma                90
_cell_volume                     3764.76
_exptl_crystal_colour            colorless
_exptl_crystal_description       Block
_cell_formula_units_Z            8
_exptl_crystal_recrystallization_method acetone
loop_
_atom_site_label
_atom_site_type_symbol
_atom_site_fract_x
_atom_site_fract_y
_atom_site_fract_z
Cl1 Cl 0.17485(9) 0.73527(13) 0.17777(5)
O1 O 0.5795(2) 1.1202(3) 0.43031(12)
O2 O 0.2640(2) 0.9383(3) 0.42778(13)
N1 N 0.6521(3) 0.9235(5) 0.44178(15)
N2 N 0.6334(3) 0.7970(5) 0.44903(16)
N3 N 0.3471(3) 0.8705(4) 0.42853(15)
N4 N 0.1682(3) 0.9010(4) 0.32123(17)
N5 N 0.1653(3) 0.8747(4) 0.26632(17)
C1 C 0.5608(3) 1.3025(5) 0.3736(2)
H1 H 0.5525 1.3505 0.4056
C2 C 0.5587(3) 1.3599(5) 0.3219(3)
H2 H 0.5494 1.4473 0.3195
C3 C 0.5702(3) 1.2902(5) 0.2738(2)
C4 C 0.5683(4) 1.3552(6) 0.2186(2)
H3 H 0.5322 1.4308 0.2210
H4 H 0.5430 1.2988 0.1914
H5 H 0.6284 1.3777 0.2079
C5 C 0.5841(3) 1.1619(5) 0.2789(2)
H6 H 0.5912 1.1135 0.2469
C6 C 0.5879(3) 1.1011(4) 0.32981(18)
H7 H 0.5986 1.0140 0.3320
C7 C 0.5755(3) 1.1720(4) 0.37690(19)
C8 C 0.5767(3) 0.9915(5) 0.43484(17)
C9 C 0.5046(3) 0.9092(4) 0.43662(16)
C10 C 0.5439(4) 0.7891(5) 0.44540(18)
C11 C 0.4977(4) 0.6632(5) 0.4506(2)
H8 H 0.5399 0.6003 0.4631
H9 H 0.4739 0.6384 0.4152
H10 H 0.4494 0.6701 0.4769
C12 C 0.7454(4) 0.9681(7) 0.4402(2)
H11 H 0.7703 0.9523 0.4042
H12 H 0.7800 0.9235 0.4676
H13 H 0.7471 1.0578 0.4479
C13 C 0.4117(3) 0.9491(5) 0.43231(16)
H14 H 0.3988 1.0358 0.4323
C14 C 0.1931(3) 0.8492(5) 0.4165(2)
H15 H 0.1358 0.8876 0.4259
H16 H 0.2010 0.7745 0.4397
C15 C 0.1918(3) 0.8089(5) 0.35613(19)
C16 C 0.2131(3) 0.6879(5) 0.3385(2)
H17 H 0.2299 0.6256 0.3639
C17 C 0.2092(3) 0.6607(5) 0.2830(2)
H18 H 0.2233 0.5805 0.2691
C18 C 0.1832(3) 0.7589(5) 0.2490(2)
loop_
_geom_bond_atom_site_label_1
_geom_bond_atom_site_label_2
_geom_bond_site_symmetry_1
_geom_bond_site_symmetry_2
Cl1 C18 1_555 1_555
O1 C7 1_555 1_555
O2 N3 1_555 1_555
N1 N2 1_555 1_555
N2 C10 1_555 1_555
N3 C13 1_555 1_555
N4 N5 1_555 1_555
N5 C18 1_555 1_555
C1 H1 1_555 1_555
C2 C1 1_555 1_555
H2 C2 1_555 1_555
C3 C2 1_555 1_555
C4 C3 1_555 1_555
H3 C4 1_555 1_555
H4 C4 1_555 1_555
H5 C4 1_555 1_555
C5 C3 1_555 1_555
H6 C5 1_555 1_555
C6 C5 1_555 1_555
H7 C6 1_555 1_555
C7 C1 1_555 1_555
C8 O1 1_555 1_555
C9 C8 1_555 1_555
C10 C9 1_555 1_555
C11 C10 1_555 1_555
H8 C11 1_555 1_555
H9 C11 1_555 1_555
H10 C11 1_555 1_555
C12 N1 1_555 1_555
H11 C12 1_555 1_555
H12 C12 1_555 1_555
H13 C12 1_555 1_555
C13 C9 1_555 1_555
H14 C13 1_555 1_555
C14 O2 1_555 1_555
H15 C14 1_555 1_555
H16 C14 1_555 1_555
C15 N4 1_555 1_555
C16 C15 1_555 1_555
H17 C16 1_555 1_555
C17 C16 1_555 1_555
H18 C17 1_555 1_555
C18 C17 1_555 1_555
N1 C8 1_555 1_555
C6 C7 1_555 1_555
C14 C15 1_555 1_555

#END
