
#######################################################################
#
#                 Cambridge Crystallographic Data Centre
#                                CCDC 
#
#######################################################################
#
# If this CIF has been generated from an entry in the Cambridge 
# Structural Database, then it will include bibliographic, chemical, 
# crystal, experimental, refinement or atomic coordinate data resulting 
# from the CCDC's data processing and validation procedures.
#
#######################################################################

data_SENMOQ
_chemical_formula_moiety         'C36 H46 O3 Si2,C4 H10 O1'
_chemical_name_systematic        
'tetrakis(2,4,6-trimethylphenyl)disiloxane-1,3-diol diethyl ether solvate'
_symmetry_cell_setting           orthorhombic
_symmetry_space_group_name_H-M   'P 21 21 21'
_symmetry_Int_Tables_number      19
_space_group_name_Hall           'P 2ac 2ab'
loop_
_symmetry_equiv_pos_site_id
_symmetry_equiv_pos_as_xyz
1 x,y,z
2 1/2-x,-y,1/2+z
3 -x,1/2+y,1/2-z
4 1/2+x,1/2-y,-z
_cell_length_a                   12.309(2)
_cell_length_b                   14.189(3)
_cell_length_c                   21.006(4)
_cell_angle_alpha                90
_cell_angle_beta                 90
_cell_angle_gamma                90
_cell_volume                     3668.75
_exptl_crystal_colour            colorless
_cell_formula_units_Z            4
_chemical_properties_physical    ', Air-sensitive,Moisture-sensitive'
_exptl_crystal_recrystallization_method 'diethyl ether'
loop_
_atom_site_label
_atom_site_type_symbol
_atom_site_fract_x
_atom_site_fract_y
_atom_site_fract_z
Si1 Si 0.81363(5) 0.55844(4) 0.79329(3)
Si2 Si 0.83441(5) 0.61057(4) 0.64760(3)
O1 O 0.83368(13) 0.44566(11) 0.80512(8)
H1 H 0.8905(18) 0.4227(19) 0.8269(12)
O2 O 0.85493(13) 0.58105(10) 0.72128(7)
O3 O 0.85080(14) 0.72421(11) 0.64223(9)
H2 H 0.9184(15) 0.7472(14) 0.6385(16)
C1 C 0.93534(18) 0.54923(16) 0.59401(11)
C2 C 0.93171(18) 0.57251(16) 0.52831(11)
C3 C 1.00005(19) 0.52837(17) 0.48501(12)
H3 H 0.995714 0.544992 0.441277
C4 C 1.07465(19) 0.46047(18) 0.50404(12)
C5 C 1.07971(18) 0.43859(17) 0.56813(12)
H4 H 1.130749 0.392733 0.581963
C6 C 1.01278(19) 0.48129(16) 0.61314(11)
C7 C 0.8538(2) 0.64545(17) 0.50246(12)
H5 H 0.857486 0.645797 0.455856
H6 H 0.873808 0.707791 0.518778
H7 H 0.779742 0.630040 0.515986
C8 C 1.1471(2) 0.4107(2) 0.45675(13)
H8 H 1.127092 0.429705 0.413461
H9 H 1.138107 0.342356 0.461225
H10 H 1.222988 0.427619 0.464887
C9 C 1.0296(2) 0.45081(18) 0.68139(12)
H11 H 1.082589 0.399279 0.682801
H12 H 0.960429 0.429225 0.699259
H13 H 1.056817 0.504186 0.706355
C10 C 0.68854(19) 0.58376(16) 0.62726(11)
C11 C 0.65450(19) 0.48807(16) 0.62802(11)
C12 C 0.5460(2) 0.46445(18) 0.61991(11)
H14 H 0.525418 0.399962 0.621229
C13 C 0.4666(2) 0.53269(19) 0.60989(12)
C14 C 0.4996(2) 0.62562(19) 0.60719(12)
H15 H 0.446723 0.672885 0.599149
C15 C 0.60752(19) 0.65296(17) 0.61578(12)
C16 C 0.7345(2) 0.40815(16) 0.63690(12)
H16 H 0.695253 0.348056 0.637577
H17 H 0.773349 0.416519 0.677219
H18 H 0.786626 0.408124 0.601645
C17 C 0.3488(2) 0.5056(2) 0.60181(16)
H19 H 0.310946 0.554863 0.577732
H20 H 0.314889 0.498703 0.643761
H21 H 0.344029 0.445796 0.578680
C18 C 0.6305(2) 0.75787(17) 0.61208(14)
H22 H 0.686399 0.769628 0.579833
H23 H 0.656113 0.780316 0.653569
H24 H 0.563787 0.791423 0.600456
C19 C 0.66339(19) 0.58526(15) 0.79619(11)
C20 C 0.58167(19) 0.51549(16) 0.79587(11)
C21 C 0.47327(19) 0.54119(18) 0.78979(12)
H25 H 0.419593 0.493091 0.789002
C22 C 0.44045(19) 0.63436(18) 0.78482(12)
C23 C 0.5204(2) 0.70315(17) 0.78789(12)
H26 H 0.499629 0.767584 0.786286
C24 C 0.63029(18) 0.68072(16) 0.79326(12)
C25 C 0.6049(2) 0.41062(16) 0.80186(13)
H27 H 0.647019 0.389490 0.764931
H28 H 0.536167 0.375860 0.803662
H29 H 0.646486 0.398911 0.840849
C26 C 0.3220(2) 0.6590(2) 0.77562(14)
H30 H 0.316232 0.716467 0.749931
H31 H 0.288028 0.669533 0.817207
H32 H 0.285084 0.607110 0.753777
C27 C 0.71070(19) 0.76156(16) 0.79486(13)
H33 H 0.766978 0.751247 0.762603
H34 H 0.744410 0.764912 0.837062
H35 H 0.672702 0.820807 0.785943
C28 C 0.89613(18) 0.62528(15) 0.85401(12)
C29 C 0.86633(19) 0.61349(16) 0.91858(12)
C30 C 0.9274(2) 0.65438(17) 0.96695(12)
H36 H 0.904688 0.646563 1.009856
C31 C 1.0203(2) 0.70619(17) 0.95436(12)
C32 C 1.0490(2) 0.71894(17) 0.89085(13)
H37 H 1.111902 0.755020 0.881314
C33 C 0.98917(18) 0.68099(15) 0.84064(11)
C34 C 0.7668(2) 0.55735(18) 0.93800(12)
H38 H 0.701132 0.592032 0.925959
H39 H 0.767538 0.547618 0.984182
H40 H 0.767599 0.496136 0.916397
C35 C 1.0880(2) 0.7493(2) 1.00654(14)
H41 H 1.162768 0.726064 1.003316
H42 H 1.057690 0.731695 1.048020
H43 H 1.087521 0.818029 1.002218
C36 C 1.0275(2) 0.70340(17) 0.77431(12)
H44 H 1.046892 0.644845 0.752331
H45 H 1.091277 0.744624 0.776524
H46 H 0.969315 0.735331 0.750887
O4 O 1.01135(13) 0.85446(12) 0.61548(8)
C37 C 0.9319(2) 0.91978(19) 0.59104(14)
H47 H 0.883808 0.887622 0.560161
H48 H 0.968733 0.972543 0.568980
C38 C 0.8665(2) 0.95651(19) 0.64599(15)
H49 H 0.814315 1.003392 0.630568
H50 H 0.915182 0.985845 0.677153
H51 H 0.827368 0.904287 0.666128
C39 C 1.0786(2) 0.8150(2) 0.56649(14)
H52 H 1.121734 0.865445 0.545913
H53 H 1.032774 0.784774 0.533596
C40 C 1.1529(2) 0.7436(2) 0.59562(15)
H54 H 1.200882 0.717744 0.562719
H55 H 1.109814 0.692620 0.614377
H56 H 1.196802 0.773665 0.628837
loop_
_geom_bond_atom_site_label_1
_geom_bond_atom_site_label_2
_geom_bond_site_symmetry_1
_geom_bond_site_symmetry_2
Si1 O1 1_555 1_555
Si2 O2 1_555 1_555
O1 H1 1_555 1_555
O2 Si1 1_555 1_555
O3 Si2 1_555 1_555
H2 O3 1_555 1_555
C1 Si2 1_555 1_555
C2 C1 1_555 1_555
C3 C2 1_555 1_555
H3 C3 1_555 1_555
C4 C3 1_555 1_555
C5 C4 1_555 1_555
H4 C5 1_555 1_555
C6 C1 1_555 1_555
C7 C2 1_555 1_555
H5 C7 1_555 1_555
H6 C7 1_555 1_555
H7 C7 1_555 1_555
C8 C4 1_555 1_555
H8 C8 1_555 1_555
H9 C8 1_555 1_555
H10 C8 1_555 1_555
C9 C6 1_555 1_555
H11 C9 1_555 1_555
H12 C9 1_555 1_555
H13 C9 1_555 1_555
C10 Si2 1_555 1_555
C11 C10 1_555 1_555
C12 C11 1_555 1_555
H14 C12 1_555 1_555
C13 C12 1_555 1_555
C14 C13 1_555 1_555
H15 C14 1_555 1_555
C15 C10 1_555 1_555
C16 C11 1_555 1_555
H16 C16 1_555 1_555
H17 C16 1_555 1_555
H18 C16 1_555 1_555
C17 C13 1_555 1_555
H19 C17 1_555 1_555
H20 C17 1_555 1_555
H21 C17 1_555 1_555
C18 C15 1_555 1_555
H22 C18 1_555 1_555
H23 C18 1_555 1_555
H24 C18 1_555 1_555
C19 Si1 1_555 1_555
C20 C19 1_555 1_555
C21 C20 1_555 1_555
H25 C21 1_555 1_555
C22 C21 1_555 1_555
C23 C22 1_555 1_555
H26 C23 1_555 1_555
C24 C19 1_555 1_555
C25 C20 1_555 1_555
H27 C25 1_555 1_555
H28 C25 1_555 1_555
H29 C25 1_555 1_555
C26 C22 1_555 1_555
H30 C26 1_555 1_555
H31 C26 1_555 1_555
H32 C26 1_555 1_555
C27 C24 1_555 1_555
H33 C27 1_555 1_555
H34 C27 1_555 1_555
H35 C27 1_555 1_555
C28 Si1 1_555 1_555
C29 C28 1_555 1_555
C30 C29 1_555 1_555
H36 C30 1_555 1_555
C31 C30 1_555 1_555
C32 C31 1_555 1_555
H37 C32 1_555 1_555
C33 C28 1_555 1_555
C34 C29 1_555 1_555
H38 C34 1_555 1_555
H39 C34 1_555 1_555
H40 C34 1_555 1_555
C35 C31 1_555 1_555
H41 C35 1_555 1_555
H42 C35 1_555 1_555
H43 C35 1_555 1_555
C36 C33 1_555 1_555
H44 C36 1_555 1_555
H45 C36 1_555 1_555
H46 C36 1_555 1_555
O4 C37 1_555 1_555
C37 H47 1_555 1_555
H48 C37 1_555 1_555
C38 C37 1_555 1_555
H49 C38 1_555 1_555
H50 C38 1_555 1_555
H51 C38 1_555 1_555
C39 O4 1_555 1_555
H52 C39 1_555 1_555
H53 C39 1_555 1_555
C40 C39 1_555 1_555
H54 C40 1_555 1_555
H55 C40 1_555 1_555
H56 C40 1_555 1_555
C5 C6 1_555 1_555
C14 C15 1_555 1_555
C23 C24 1_555 1_555
C32 C33 1_555 1_555

#END
