
#######################################################################
#
#                 Cambridge Crystallographic Data Centre
#                                CCDC 
#
#######################################################################
#
# If this CIF has been generated from an entry in the Cambridge 
# Structural Database, then it will include bibliographic, chemical, 
# crystal, experimental, refinement or atomic coordinate data resulting 
# from the CCDC's data processing and validation procedures.
#
#######################################################################

data_SENNOR
_chemical_formula_moiety         'C72 H84 N12,C1 H2 Cl2'
_chemical_name_systematic        
'5,12,20,27,35,42,50,57,62,69,74,81-dodecaazatridecacyclo[29.29.10.10^16,46^.1^3,59^.1^14,18^.1^29,33^.1^44,48^.0^6,11^.0^21,26^.0^36,41^.0^51,56^.0^63,68^.0^75,80^]tetraoctaconta-1,3(71),4,12,14(84),15,17,19,27,29(83),30,32,34,42,44(72),45,47,49,57,59,61,69,73,81-tetracosaene dichloromethane solvate'
_symmetry_cell_setting           cubic
_symmetry_space_group_name_H-M   'F 41 3 2'
_symmetry_Int_Tables_number      210
_space_group_name_Hall           'F 4d 2 3'
loop_
_symmetry_equiv_pos_site_id
_symmetry_equiv_pos_as_xyz
1 x,y,z
2 1/4-y,1/4+x,1/4+z
3 -x,-y,z
4 1/4+y,1/4-x,1/4+z
5 1/4+x,1/4-z,1/4+y
6 x,-y,-z
7 1/4+x,1/4+z,1/4-y
8 1/4+z,1/4+y,1/4-x
9 -x,y,-z
10 1/4-z,1/4+y,1/4+x
11 z,x,y
12 y,z,x
13 -y,-z,x
14 z,-x,-y
15 -y,z,-x
16 -z,-x,y
17 -z,x,-y
18 y,-z,-x
19 1/4+y,1/4+x,1/4-z
20 1/4-y,1/4-x,1/4-z
21 1/4-x,1/4+z,1/4+y
22 1/4-x,1/4-z,1/4-y
23 1/4+z,1/4-y,1/4+x
24 1/4-z,1/4-y,1/4-x
25 x,1/2+y,1/2+z
26 1/4-y,3/4+x,3/4+z
27 -x,1/2-y,1/2+z
28 1/4+y,3/4-x,3/4+z
29 1/4+x,3/4-z,3/4+y
30 x,1/2-y,1/2-z
31 1/4+x,3/4+z,3/4-y
32 1/4+z,3/4+y,3/4-x
33 -x,1/2+y,1/2-z
34 1/4-z,3/4+y,3/4+x
35 z,1/2+x,1/2+y
36 y,1/2+z,1/2+x
37 -y,1/2-z,1/2+x
38 z,1/2-x,1/2-y
39 -y,1/2+z,1/2-x
40 -z,1/2-x,1/2+y
41 -z,1/2+x,1/2-y
42 y,1/2-z,1/2-x
43 1/4+y,3/4+x,3/4-z
44 1/4-y,3/4-x,3/4-z
45 1/4-x,3/4+z,3/4+y
46 1/4-x,3/4-z,3/4-y
47 1/4+z,3/4-y,3/4+x
48 1/4-z,3/4-y,3/4-x
49 1/2+x,y,1/2+z
50 3/4-y,1/4+x,3/4+z
51 1/2-x,-y,1/2+z
52 3/4+y,1/4-x,3/4+z
53 3/4+x,1/4-z,3/4+y
54 1/2+x,-y,1/2-z
55 3/4+x,1/4+z,3/4-y
56 3/4+z,1/4+y,3/4-x
57 1/2-x,y,1/2-z
58 3/4-z,1/4+y,3/4+x
59 1/2+z,x,1/2+y
60 1/2+y,z,1/2+x
61 1/2-y,-z,1/2+x
62 1/2+z,-x,1/2-y
63 1/2-y,z,1/2-x
64 1/2-z,-x,1/2+y
65 1/2-z,x,1/2-y
66 1/2+y,-z,1/2-x
67 3/4+y,1/4+x,3/4-z
68 3/4-y,1/4-x,3/4-z
69 3/4-x,1/4+z,3/4+y
70 3/4-x,1/4-z,3/4-y
71 3/4+z,1/4-y,3/4+x
72 3/4-z,1/4-y,3/4-x
73 1/2+x,1/2+y,z
74 3/4-y,3/4+x,1/4+z
75 1/2-x,1/2-y,z
76 3/4+y,3/4-x,1/4+z
77 3/4+x,3/4-z,1/4+y
78 1/2+x,1/2-y,-z
79 3/4+x,3/4+z,1/4-y
80 3/4+z,3/4+y,1/4-x
81 1/2-x,1/2+y,-z
82 3/4-z,3/4+y,1/4+x
83 1/2+z,1/2+x,y
84 1/2+y,1/2+z,x
85 1/2-y,1/2-z,x
86 1/2+z,1/2-x,-y
87 1/2-y,1/2+z,-x
88 1/2-z,1/2-x,y
89 1/2-z,1/2+x,-y
90 1/2+y,1/2-z,-x
91 3/4+y,3/4+x,1/4-z
92 3/4-y,3/4-x,1/4-z
93 3/4-x,3/4+z,1/4+y
94 3/4-x,3/4-z,1/4-y
95 3/4+z,3/4-y,1/4+x
96 3/4-z,3/4-y,1/4-x
_cell_length_a                   24.765(7)
_cell_length_b                   24.765(7)
_cell_length_c                   24.765(7)
_cell_angle_alpha                90
_cell_angle_beta                 90
_cell_angle_gamma                90
_cell_volume                     15188.5
_exptl_crystal_colour            colorless
_exptl_crystal_description       prism
_cell_formula_units_Z            8
loop_
_atom_site_label
_atom_site_type_symbol
_atom_site_fract_x
_atom_site_fract_y
_atom_site_fract_z
N1 N 0.4527(5) 0.4624(5) 0.7766(4)
C1 C 0.4351(2) 0.4153(2) 0.8577(2)
C2 C 0.4693(7) 0.4289(7) 0.8101(6)
H1 H 0.5035 0.4121 0.8055
C3 C 0.4488(2) 0.3698(2) 0.8895(2)
H2 H 0.4792 0.3481 0.8809
C4 C 0.4889(6) 0.4718(6) 0.7307(4)
H3 H 0.5191 0.4449 0.7308
C5 C 0.4533(11) 0.4651(16) 0.6777(6)
H4 H 0.4362 0.4290 0.6775
H5 H 0.4242 0.4926 0.6776
C6 C 0.4886(16) 0.4719(9) 0.6271(6)
H6 H 0.5182 0.4450 0.6274
H7 H 0.4666 0.4660 0.5942
N1B N 0.5473(5) 0.5376(5) 0.7766(4)
C1B C 0.5649(2) 0.5847(2) 0.8577(2)
C2B C 0.5307(7) 0.5711(7) 0.8101(6)
H1B H 0.4965 0.5879 0.8055
C3B C 0.5512(2) 0.6302(2) 0.8895(2)
H2B H 0.5208 0.6519 0.8809
C4B C 0.5111(6) 0.5282(6) 0.7307(4)
H3B H 0.4809 0.5551 0.7308
C5B C 0.5467(11) 0.5349(16) 0.6777(6)
H4B H 0.5638 0.5710 0.6775
H5B H 0.5758 0.5074 0.6776
C6B C 0.5114(16) 0.5281(9) 0.6271(6)
H6B H 0.4818 0.5550 0.6274
H7B H 0.5334 0.5340 0.5942
N1IA N 0.4624(5) 0.2766(4) 0.9527(5)
C1IA C 0.4153(2) 0.3577(2) 0.9351(2)
C2IA C 0.4289(7) 0.3101(6) 0.9693(7)
H1IA H 0.4121 0.3055 1.0035
C3IA C 0.3698(2) 0.3895(2) 0.9488(2)
H2IA H 0.3481 0.3809 0.9792
C4IA C 0.4718(6) 0.2307(4) 0.9889(6)
H3IA H 0.4449 0.2308 1.0191
C5IA C 0.4651(16) 0.1777(6) 0.9533(11)
H4IA H 0.4290 0.1775 0.9362
H5IA H 0.4926 0.1776 0.9242
C6IA C 0.4719(9) 0.1271(6) 0.9886(16)
H6IA H 0.4450 0.1274 1.0182
H7IA H 0.4660 0.0942 0.9666
N1FB N 0.2766(4) 0.4527(5) 0.9624(5)
C1FB C 0.3577(2) 0.4351(2) 0.9153(2)
C2FB C 0.3101(6) 0.4693(7) 0.9289(7)
H1FB H 0.3055 0.5035 0.9121
C3FB C 0.3895(2) 0.4488(2) 0.8698(2)
H2FB H 0.3809 0.4792 0.8481
C4FB C 0.2307(4) 0.4889(6) 0.9718(6)
H3FB H 0.2308 0.5191 0.9449
C5FB C 0.1777(6) 0.4533(11) 0.9651(16)
H4FB H 0.1775 0.4362 0.9290
H5FB H 0.1776 0.4242 0.9926
C6FB C 0.1271(6) 0.4886(16) 0.9719(9)
H6FB H 0.1274 0.5182 0.9450
H7FB H 0.0942 0.4666 0.9660
N1JA N 0.5376(5) 0.7234(4) 0.9527(5)
C1JA C 0.5847(2) 0.6423(2) 0.9351(2)
C2JA C 0.5711(7) 0.6899(6) 0.9693(7)
H1JA H 0.5879 0.6945 1.0035
C3JA C 0.6302(2) 0.6105(2) 0.9488(2)
H2JA H 0.6519 0.6191 0.9792
C4JA C 0.5282(6) 0.7693(4) 0.9889(6)
H3JA H 0.5551 0.7692 1.0191
C5JA C 0.5349(16) 0.8223(6) 0.9533(11)
H4JA H 0.5710 0.8225 0.9362
H5JA H 0.5074 0.8224 0.9242
C6JA C 0.5281(9) 0.8729(6) 0.9886(16)
H6JA H 0.5550 0.8726 1.0182
H7JA H 0.5340 0.9058 0.9666
N1LA N 0.5376(5) 0.2766(4) 1.0473(5)
C1LA C 0.5847(2) 0.3577(2) 1.0649(2)
C2LA C 0.5711(7) 0.3101(6) 1.0307(7)
H1LA H 0.5879 0.3055 0.9965
C3LA C 0.6302(2) 0.3895(2) 1.0512(2)
H2LA H 0.6519 0.3809 1.0208
C4LA C 0.5282(6) 0.2307(4) 1.0111(6)
H3LA H 0.5551 0.2308 0.9809
C5LA C 0.5349(16) 0.1777(6) 1.0467(11)
H4LA H 0.5710 0.1775 1.0638
H5LA H 0.5074 0.1776 1.0758
C6LA C 0.5281(9) 0.1271(6) 1.0114(16)
H6LA H 0.5550 0.1274 0.9818
H7LA H 0.5340 0.0942 1.0334
N1OA N 0.4624(5) 0.7234(4) 1.0473(5)
C1OA C 0.4153(2) 0.6423(2) 1.0649(2)
C2OA C 0.4289(7) 0.6899(6) 1.0307(7)
H1OA H 0.4121 0.6945 0.9965
C3OA C 0.3698(2) 0.6105(2) 1.0512(2)
H2OA H 0.3481 0.6191 1.0208
C4OA C 0.4718(6) 0.7693(4) 1.0111(6)
H3OA H 0.4449 0.7692 0.9809
C5OA C 0.4651(16) 0.8223(6) 1.0467(11)
H4OA H 0.4290 0.8225 1.0638
H5OA H 0.4926 0.8224 1.0758
C6OA C 0.4719(9) 0.8729(6) 1.0114(16)
H6OA H 0.4450 0.8726 0.9818
H7OA H 0.4660 0.9058 1.0334
N1IB N 0.2766(4) 0.5473(5) 1.0376(5)
C1IB C 0.3577(2) 0.5649(2) 1.0847(2)
C2IB C 0.3101(6) 0.5307(7) 1.0711(7)
H1IB H 0.3055 0.4965 1.0879
C3IB C 0.3895(2) 0.5512(2) 1.1302(2)
H2IB H 0.3809 0.5208 1.1519
C4IB C 0.2307(4) 0.5111(6) 1.0282(6)
H3IB H 0.2308 0.4809 1.0551
C5IB C 0.1777(6) 0.5467(11) 1.0349(16)
H4IB H 0.1775 0.5638 1.0710
H5IB H 0.1776 0.5758 1.0074
C6IB C 0.1271(6) 0.5114(16) 1.0281(9)
H6IB H 0.1274 0.4818 1.0550
H7IB H 0.0942 0.5334 1.0340
N1KB N 0.7234(4) 0.5473(5) 0.9624(5)
C1KB C 0.6423(2) 0.5649(2) 0.9153(2)
C2KB C 0.6899(6) 0.5307(7) 0.9289(7)
H1KB H 0.6945 0.4965 0.9121
C3KB C 0.6105(2) 0.5512(2) 0.8698(2)
H2KB H 0.6191 0.5208 0.8481
C4KB C 0.7693(4) 0.5111(6) 0.9718(6)
H3KB H 0.7692 0.4809 0.9449
C5KB C 0.8223(6) 0.5467(11) 0.9651(16)
H4KB H 0.8225 0.5638 0.9290
H5KB H 0.8224 0.5758 0.9926
C6KB C 0.8729(6) 0.5114(16) 0.9719(9)
H6KB H 0.8726 0.4818 0.9450
H7KB H 0.9058 0.5334 0.9660
N1LB N 0.7234(4) 0.4527(5) 1.0376(5)
C1LB C 0.6423(2) 0.4351(2) 1.0847(2)
C2LB C 0.6899(6) 0.4693(7) 1.0711(7)
H1LB H 0.6945 0.5035 1.0879
C3LB C 0.6105(2) 0.4488(2) 1.1302(2)
H2LB H 0.6191 0.4792 1.1519
C4LB C 0.7693(4) 0.4889(6) 1.0282(6)
H3LB H 0.7692 0.5191 1.0551
C5LB C 0.8223(6) 0.4533(11) 1.0349(16)
H4LB H 0.8225 0.4362 1.0710
H5LB H 0.8224 0.4242 1.0074
C6LB C 0.8729(6) 0.4886(16) 1.0281(9)
H6LB H 0.8726 0.5182 1.0550
H7LB H 0.9058 0.4666 1.0340
N1E N 0.4527(5) 0.5376(5) 1.2234(4)
C1E C 0.4351(2) 0.5847(2) 1.1423(2)
C2E C 0.4693(7) 0.5711(7) 1.1899(6)
H1E H 0.5035 0.5879 1.1945
C3E C 0.4488(2) 0.6302(2) 1.1105(2)
H2E H 0.4792 0.6519 1.1191
C4E C 0.4889(6) 0.5282(6) 1.2693(4)
H3E H 0.5191 0.5551 1.2692
C5E C 0.4533(11) 0.5349(16) 1.3223(6)
H4E H 0.4362 0.5710 1.3225
H5E H 0.4242 0.5074 1.3224
C6E C 0.4886(16) 0.5281(9) 1.3729(6)
H6E H 0.5182 0.5550 1.3726
H7E H 0.4666 0.5340 1.4058
N1H N 0.5473(5) 0.4624(5) 1.2234(4)
C1H C 0.5649(2) 0.4153(2) 1.1423(2)
C2H C 0.5307(7) 0.4289(7) 1.1899(6)
H1H H 0.4965 0.4121 1.1945
C3H C 0.5512(2) 0.3698(2) 1.1105(2)
H2H H 0.5208 0.3481 1.1191
C4H C 0.5111(6) 0.4718(6) 1.2693(4)
H3H H 0.4809 0.4449 1.2692
C5H C 0.5467(11) 0.4651(16) 1.3223(6)
H4H H 0.5638 0.4290 1.3225
H5H H 0.5758 0.4926 1.3224
C6H C 0.5114(16) 0.4719(9) 1.3729(6)
H6H H 0.4818 0.4450 1.3726
H7H H 0.5334 0.4660 1.4058
C7? C 0.4987(6) 0.3427(8) 0.8668(8)
H8? H 0.5005 0.3489 0.8278
H9? H 0.4969 0.3038 0.8739
H10? H 0.5310 0.3577 0.8841
Cl1? Cl 0.550(2) 0.550(2) 1.050(2)
C8? C 0.5000 0.5000 1.0000
loop_
_geom_bond_atom_site_label_1
_geom_bond_atom_site_label_2
_geom_bond_site_symmetry_1
_geom_bond_site_symmetry_2
N1 C2 1_555 1_555
C1 C2 1_555 1_555
C2 H1 1_555 1_555
C3 C1 1_555 1_555
H2 C3 1_555 1_555
C4 N1 1_555 1_555
H3 C4 1_555 1_555
C5 C4 1_555 1_555
H4 C5 1_555 1_555
H5 C5 1_555 1_555
C6 C5 1_555 1_555
H6 C6 1_555 1_555
H7 C6 1_555 1_555
N1B C2B 1_555 1_555
C1B C2B 1_555 1_555
C2B H1B 1_555 1_555
C3B C1B 1_555 1_555
H2B C3B 1_555 1_555
C4B C4 1_555 1_555
H3B C4B 1_555 1_555
C5B C4B 1_555 1_555
H4B C5B 1_555 1_555
H5B C5B 1_555 1_555
C6B C6 1_555 1_555
H6B C6B 1_555 1_555
H7B C6B 1_555 1_555
N1IA C2IA 1_555 1_555
C1IA C3 1_555 1_555
C2IA C1IA 1_555 1_555
H1IA C2IA 1_555 1_555
C3IA C1IA 1_555 1_555
H2IA C3IA 1_555 1_555
C4IA N1IA 1_555 1_555
H3IA C4IA 1_555 1_555
C5IA C4IA 1_555 1_555
H4IA C5IA 1_555 1_555
H5IA C5IA 1_555 1_555
C6IA C5IA 1_555 1_555
H6IA C6IA 1_555 1_555
H7IA C6IA 1_555 1_555
N1FB C2FB 1_555 1_555
C1FB C3IA 1_555 1_555
C2FB C1FB 1_555 1_555
H1FB C2FB 1_555 1_555
C3FB C1 1_555 1_555
H2FB C3FB 1_555 1_555
C4FB N1FB 1_555 1_555
H3FB C4FB 1_555 1_555
C5FB C4FB 1_555 1_555
H4FB C5FB 1_555 1_555
H5FB C5FB 1_555 1_555
C6FB C5FB 1_555 1_555
H6FB C6FB 1_555 1_555
H7FB C6FB 1_555 1_555
N1JA C2JA 1_555 1_555
C1JA C3B 1_555 1_555
C2JA C1JA 1_555 1_555
H1JA C2JA 1_555 1_555
C3JA C1JA 1_555 1_555
H2JA C3JA 1_555 1_555
C4JA N1JA 1_555 1_555
H3JA C4JA 1_555 1_555
C5JA C4JA 1_555 1_555
H4JA C5JA 1_555 1_555
H5JA C5JA 1_555 1_555
C6JA C5JA 1_555 1_555
H6JA C6JA 1_555 1_555
H7JA C6JA 1_555 1_555
N1LA C2LA 1_555 1_555
C1LA C2LA 1_555 1_555
C2LA H1LA 1_555 1_555
C3LA C1LA 1_555 1_555
H2LA C3LA 1_555 1_555
C4LA C4IA 1_555 1_555
H3LA C4LA 1_555 1_555
C5LA C4LA 1_555 1_555
H4LA C5LA 1_555 1_555
H5LA C5LA 1_555 1_555
C6LA C6IA 1_555 1_555
H6LA C6LA 1_555 1_555
H7LA C6LA 1_555 1_555
N1OA C2OA 1_555 1_555
C1OA C2OA 1_555 1_555
C2OA H1OA 1_555 1_555
C3OA C1OA 1_555 1_555
H2OA C3OA 1_555 1_555
C4OA C4JA 1_555 1_555
H3OA C4OA 1_555 1_555
C5OA C4OA 1_555 1_555
H4OA C5OA 1_555 1_555
H5OA C5OA 1_555 1_555
C6OA C6JA 1_555 1_555
H6OA C6OA 1_555 1_555
H7OA C6OA 1_555 1_555
N1IB C2IB 1_555 1_555
C1IB C3OA 1_555 1_555
C2IB C1IB 1_555 1_555
H1IB C2IB 1_555 1_555
C3IB C1IB 1_555 1_555
H2IB C3IB 1_555 1_555
C4IB C4FB 1_555 1_555
H3IB C4IB 1_555 1_555
C5IB C4IB 1_555 1_555
H4IB C5IB 1_555 1_555
H5IB C5IB 1_555 1_555
C6IB C6FB 1_555 1_555
H6IB C6IB 1_555 1_555
H7IB C6IB 1_555 1_555
N1KB C2KB 1_555 1_555
C1KB C3JA 1_555 1_555
C2KB C1KB 1_555 1_555
H1KB C2KB 1_555 1_555
C3KB C1B 1_555 1_555
H2KB C3KB 1_555 1_555
C4KB N1KB 1_555 1_555
H3KB C4KB 1_555 1_555
C5KB C4KB 1_555 1_555
H4KB C5KB 1_555 1_555
H5KB C5KB 1_555 1_555
C6KB C5KB 1_555 1_555
H6KB C6KB 1_555 1_555
H7KB C6KB 1_555 1_555
N1LB C2LB 1_555 1_555
C1LB C3LA 1_555 1_555
C2LB C1LB 1_555 1_555
H1LB C2LB 1_555 1_555
C3LB C1LB 1_555 1_555
H2LB C3LB 1_555 1_555
C4LB C4KB 1_555 1_555
H3LB C4LB 1_555 1_555
C5LB C4LB 1_555 1_555
H4LB C5LB 1_555 1_555
H5LB C5LB 1_555 1_555
C6LB C6KB 1_555 1_555
H6LB C6LB 1_555 1_555
H7LB C6LB 1_555 1_555
N1E C2E 1_555 1_555
C1E C3IB 1_555 1_555
C2E C1E 1_555 1_555
H1E C2E 1_555 1_555
C3E C1OA 1_555 1_555
H2E C3E 1_555 1_555
C4E N1E 1_555 1_555
H3E C4E 1_555 1_555
C5E C4E 1_555 1_555
H4E C5E 1_555 1_555
H5E C5E 1_555 1_555
C6E C5E 1_555 1_555
H6E C6E 1_555 1_555
H7E C6E 1_555 1_555
N1H C2H 1_555 1_555
C1H C3LB 1_555 1_555
C2H C1H 1_555 1_555
H1H C2H 1_555 1_555
C3H C1LA 1_555 1_555
H2H C3H 1_555 1_555
C4H C4E 1_555 1_555
H3H C4H 1_555 1_555
C5H C4H 1_555 1_555
H4H C5H 1_555 1_555
H5H C5H 1_555 1_555
C6H C6E 1_555 1_555
H6H C6H 1_555 1_555
H7H C6H 1_555 1_555
N1B C4B 1_555 1_555
C5B C6B 1_555 1_555
C1FB C3FB 1_555 1_555
N1LA C4LA 1_555 1_555
C5LA C6LA 1_555 1_555
N1OA C4OA 1_555 1_555
C5OA C6OA 1_555 1_555
N1IB C4IB 1_555 1_555
C5IB C6IB 1_555 1_555
C1KB C3KB 1_555 1_555
N1LB C4LB 1_555 1_555
C5LB C6LB 1_555 1_555
C1E C3E 1_555 1_555
N1H C4H 1_555 1_555
C1H C3H 1_555 1_555
C5H C6H 1_555 1_555

#END
