
#######################################################################
#
#                 Cambridge Crystallographic Data Centre
#                                CCDC 
#
#######################################################################
#
# If this CIF has been generated from an entry in the Cambridge 
# Structural Database, then it will include bibliographic, chemical, 
# crystal, experimental, refinement or atomic coordinate data resulting 
# from the CCDC's data processing and validation procedures.
#
#######################################################################

data_SENQUA
_chemical_formula_moiety         'C84 H108 N12,3.4(C1 H2 Cl2),1.42(C6 H14)'
_chemical_name_systematic        
'R-4,13,19,28,34,43,49,58,61,70,73,82-dodecamethyl-5,12,20,27,35,42,50,57,62,69,74,81-dodecaazatridecacyclo[29.29.10.10^16,46^.1^3,59^.1^14,18^.1^29,33^.1^44,48^.0^6,11^.0^21,26^.0^36,41^.0^51,56^.0^63,68^.0^75,80^]tetraoctaconta-1,3(71),4,12,14(84),15,17,19,27,29(83),30,32,34,42,44(72),45,47,49,57,59,61,69,73,81-tetracosaene dichloromethane n-hexane solvate'
_symmetry_cell_setting           rhombohedral
_symmetry_space_group_name_H-M   'R 3 2'
_symmetry_Int_Tables_number      155
_space_group_name_Hall           'R 3 2"'
loop_
_symmetry_equiv_pos_site_id
_symmetry_equiv_pos_as_xyz
1 x,y,z
2 -y,x-y,z
3 -x+y,-x,z
4 x-y,-y,-z
5 -x,-x+y,-z
6 y,x,-z
7 2/3+x,1/3+y,1/3+z
8 2/3-y,1/3+x-y,1/3+z
9 2/3-x+y,1/3-x,1/3+z
10 2/3+x-y,1/3-y,1/3-z
11 2/3-x,1/3-x+y,1/3-z
12 2/3+y,1/3+x,1/3-z
13 1/3+x,2/3+y,2/3+z
14 1/3-y,2/3+x-y,2/3+z
15 1/3-x+y,2/3-x,2/3+z
16 1/3+x-y,2/3-y,2/3-z
17 1/3-x,2/3-x+y,2/3-z
18 1/3+y,2/3+x,2/3-z
_cell_length_a                   13.7013(7)
_cell_length_b                   13.7013(7)
_cell_length_c                   84.866(5)
_cell_angle_alpha                90
_cell_angle_beta                 90
_cell_angle_gamma                120
_cell_volume                     13797.1
_exptl_crystal_colour            colorless
_exptl_crystal_description       plate
_cell_formula_units_Z            6
loop_
_atom_site_label
_atom_site_type_symbol
_atom_site_fract_x
_atom_site_fract_y
_atom_site_fract_z
N1 N 0.3544(6) 0.2961(5) 0.59933(7)
N2 N 0.3515(4) 0.4118(4) 0.62754(6)
N3 N 0.0578(6) 0.2884(5) 0.54028(7)
N4 N -0.0504(7) 0.4187(6) 0.53666(7)
C1 C 0.2213(6) 0.5839(6) 0.62428(7)
H1 H 0.1440 0.5271 0.6243
C2 C 0.3033(5) 0.5546(5) 0.62424(7)
C3 C 0.2735(5) 0.4323(5) 0.62404(7)
C4 C 0.1534(6) 0.3449(6) 0.61896(11)
H2 H 0.1554 0.2851 0.6129
H3 H 0.1220 0.3815 0.6124
H4 H 0.1062 0.3124 0.6283
C5 C 0.2086(7) 0.3345(7) 0.55714(9)
C6 C 0.2530(7) 0.3280(8) 0.57189(8)
H5 H 0.2027 0.2866 0.5802
C7 C 0.3645(9) 0.3789(10) 0.57446(9)
C8 C 0.4383(8) 0.4420(10) 0.56310(9)
H6 H 0.5169 0.4802 0.5653
C9 C 0.3998(8) 0.4521(7) 0.54781(7)
C10 C 0.2850(6) 0.4014(7) 0.54593(8)
H7 H 0.2570 0.4135 0.5363
C11 C 0.0864(7) 0.2843(7) 0.55430(9)
C12 C -0.002(3) 0.194(2) 0.5665(3)
H8 H -0.0754 0.1893 0.5651
H9 H 0.0249 0.2181 0.5773
H10 H -0.0096 0.1203 0.5645
C13 C 0.4099(8) 0.3821(11) 0.59103(10)
C14 C 0.5151(9) 0.4858(11) 0.59526(11)
H11 H 0.5242 0.5480 0.5885
H12 H 0.5793 0.4739 0.5937
H13 H 0.5118 0.5044 0.6063
C15 C 0.3989(7) 0.2845(6) 0.61448(7)
H14 H 0.4799 0.3443 0.6154
C16 C 0.3895(9) 0.1675(7) 0.61518(9)
H15 H 0.3096 0.1080 0.6140
H16 H 0.4326 0.1599 0.6064
C17 C 0.4353(9) 0.1526(8) 0.63076(10)
H17 H 0.5161 0.2100 0.6317
H18 H 0.4284 0.0772 0.6311
C18 C 0.3687(8) 0.1651(7) 0.64479(9)
H19 H 0.2886 0.1051 0.6442
H20 H 0.4001 0.1569 0.6549
C19 C 0.3773(7) 0.2798(6) 0.64409(7)
H21 H 0.4568 0.3395 0.6456
H22 H 0.3321 0.2862 0.6527
C20 C 0.3336(6) 0.2962(6) 0.62787(7)
H23 H 0.2516 0.2402 0.6267
C21 C 0.0356(7) 0.5142(7) 0.53568(7)
C22 C 0.1260(8) 0.5493(7) 0.52299(9)
H24 H 0.0959 0.4965 0.5141
H25 H 0.1918 0.5487 0.5274
H26 H 0.1482 0.6254 0.5193
C23 C -0.0713(7) 0.3266(7) 0.52619(8)
H27 H -0.0146 0.3557 0.5175
C24 C -0.1886(7) 0.2741(8) 0.51924(10)
H28 H -0.2436 0.2548 0.5279
H29 H -0.1933 0.3305 0.5125
C25 C -0.2212(8) 0.1709(8) 0.50976(10)
H30 H -0.1718 0.1908 0.5004
H31 H -0.2998 0.1391 0.5061
C26 C -0.2113(10) 0.0844(10) 0.51927(14)
H32 H -0.2335 0.0163 0.5128
H33 H -0.2622 0.0624 0.5285
C27 C -0.0862(9) 0.1349(7) 0.52494(10)
H34 H -0.0346 0.1578 0.5158
H35 H -0.0776 0.0784 0.5311
C28 C -0.0587(6) 0.2401(7) 0.53544(8)
H36 H -0.1091 0.2163 0.5449
N1A N 0.7039(5) 1.0583(8) 0.59933(7)
N2A N 0.5882(4) 0.9397(6) 0.62754(6)
N3A N 0.7116(5) 0.7694(8) 0.54028(7)
N4A N 0.5813(6) 0.5309(9) 0.53666(7)
C1A C 0.4161(6) 0.6374(8) 0.62428(7)
H1A H 0.4729 0.6169 0.6243
C2A C 0.4454(5) 0.7487(7) 0.62424(7)
C3A C 0.5677(5) 0.8412(7) 0.62404(7)
C4A C 0.6551(6) 0.8085(8) 0.61896(11)
H2A H 0.7149 0.8703 0.6129
H3A H 0.6185 0.7405 0.6124
H4A H 0.6876 0.7938 0.6283
C5A C 0.6655(7) 0.8741(10) 0.55714(9)
C6A C 0.6720(8) 0.9250(11) 0.57189(8)
H5A H 0.7134 0.9161 0.5802
C7A C 0.6211(10) 0.9856(13) 0.57446(9)
C8A C 0.5580(10) 0.9963(13) 0.56310(9)
H6A H 0.5198 1.0367 0.5653
C9A C 0.5479(7) 0.9477(11) 0.54781(7)
C10A C 0.5986(7) 0.8836(9) 0.54593(8)
H7A H 0.5865 0.8435 0.5363
C11A C 0.7157(7) 0.8021(10) 0.55430(9)
C12A C 0.806(2) 0.804(4) 0.5665(3)
H8A H 0.8107 0.7353 0.5651
H9A H 0.7819 0.8068 0.5773
H10A H 0.8797 0.8701 0.5645
C13A C 0.6179(11) 1.0278(14) 0.59103(10)
C14A C 0.5142(11) 1.0293(14) 0.59526(11)
H11A H 0.4520 0.9762 0.5885
H12A H 0.5261 1.1054 0.5937
H13A H 0.4956 1.0074 0.6063
C15A C 0.7155(6) 1.1144(9) 0.61448(7)
H14A H 0.6557 1.1356 0.6154
C16A C 0.8325(7) 1.2220(11) 0.61518(9)
H15A H 0.8920 1.2016 0.6140
H16A H 0.8401 1.2727 0.6064
C17A C 0.8474(8) 1.2827(12) 0.63076(10)
H17A H 0.7900 1.3061 0.6317
H18A H 0.9228 1.3512 0.6311
C18A C 0.8349(7) 1.2036(11) 0.64479(9)
H19A H 0.8949 1.1835 0.6442
H20A H 0.8431 1.2432 0.6549
C19A C 0.7202(6) 1.0975(9) 0.64409(7)
H21A H 0.6605 1.1173 0.6456
H22A H 0.7138 1.0459 0.6527
C20A C 0.7038(6) 1.0374(8) 0.62787(7)
H23A H 0.7598 1.0114 0.6267
C21A C 0.4858(7) 0.5214(10) 0.53568(7)
C22A C 0.4507(7) 0.5767(11) 0.52299(9)
H24A H 0.5035 0.5994 0.5141
H25A H 0.4513 0.6431 0.5274
H26A H 0.3746 0.5228 0.5193
C23A C 0.6734(7) 0.6021(10) 0.52619(8)
H27A H 0.6443 0.6297 0.5175
C24A C 0.7259(8) 0.5373(11) 0.51924(10)
H28A H 0.7452 0.5016 0.5279
H29A H 0.6695 0.4762 0.5125
C25A C 0.8291(8) 0.6079(11) 0.50976(10)
H30A H 0.8092 0.6374 0.5004
H31A H 0.8609 0.5611 0.5061
C26A C 0.9156(10) 0.7043(14) 0.51927(14)
H32A H 0.9837 0.7502 0.5128
H33A H 0.9376 0.6754 0.5285
C27A C 0.8651(7) 0.7789(11) 0.52494(10)
H34A H 0.8422 0.8076 0.5158
H35A H 0.9216 0.8440 0.5311
C28A C 0.7599(7) 0.7012(9) 0.53544(8)
H36A H 0.7837 0.6746 0.5449
N1B N -0.0583(8) 0.6456(6) 0.59933(7)
N2B N 0.0603(6) 0.6485(4) 0.62754(6)
N3B N 0.2306(8) 0.9422(6) 0.54028(7)
N4B N 0.4691(9) 1.0504(7) 0.53666(7)
C1B C 0.3626(8) 0.7787(6) 0.62428(7)
H1B H 0.3831 0.8560 0.6243
C2B C 0.2513(7) 0.6967(5) 0.62424(7)
C3B C 0.1588(7) 0.7265(5) 0.62404(7)
C4B C 0.1915(8) 0.8466(6) 0.61896(11)
H2B H 0.1297 0.8446 0.6129
H3B H 0.2595 0.8780 0.6124
H4B H 0.2062 0.8938 0.6283
C5B C 0.1259(10) 0.7914(7) 0.55714(9)
C6B C 0.0750(11) 0.7470(7) 0.57189(8)
H5B H 0.0839 0.7973 0.5802
C7B C 0.0144(13) 0.6355(9) 0.57446(9)
C8B C 0.0037(13) 0.5617(8) 0.56310(9)
H6B H -0.0367 0.4831 0.5653
C9B C 0.0523(11) 0.6002(8) 0.54781(7)
C10B C 0.1164(9) 0.7150(6) 0.54593(8)
H7B H 0.1565 0.7430 0.5363
C11B C 0.1979(10) 0.9136(7) 0.55430(9)
C12B C 0.196(4) 1.002(3) 0.5665(3)
H8B H 0.2647 1.0754 0.5651
H9B H 0.1932 0.9751 0.5773
H10B H 0.1299 1.0096 0.5645
C13B C -0.0278(14) 0.5901(8) 0.59103(10)
C14B C -0.0293(14) 0.4849(9) 0.59526(11)
H11B H 0.0238 0.4758 0.5885
H12B H -0.1054 0.4207 0.5937
H13B H -0.0074 0.4882 0.6063
C15B C -0.1144(9) 0.6011(7) 0.61448(7)
H14B H -0.1356 0.5201 0.6154
C16B C -0.2220(11) 0.6105(9) 0.61518(9)
H15B H -0.2016 0.6904 0.6140
H16B H -0.2727 0.5674 0.6064
C17B C -0.2827(12) 0.5647(9) 0.63076(10)
H17B H -0.3061 0.4839 0.6317
H18B H -0.3512 0.5716 0.6311
C18B C -0.2036(11) 0.6313(8) 0.64479(9)
H19B H -0.1835 0.7114 0.6442
H20B H -0.2432 0.5999 0.6549
C19B C -0.0975(9) 0.6227(7) 0.64409(7)
H21B H -0.1173 0.5432 0.6456
H22B H -0.0459 0.6679 0.6527
C20B C -0.0374(8) 0.6664(6) 0.62787(7)
H23B H -0.0114 0.7484 0.6267
C21B C 0.4786(10) 0.9644(7) 0.53568(7)
C22B C 0.4233(11) 0.8740(8) 0.52299(9)
H24B H 0.4006 0.9041 0.5141
H25B H 0.3569 0.8082 0.5274
H26B H 0.4772 0.8518 0.5193
C23B C 0.3979(10) 1.0713(7) 0.52619(8)
H27B H 0.3703 1.0146 0.5175
C24B C 0.4627(11) 1.1886(7) 0.51924(10)
H28B H 0.4984 1.2436 0.5279
H29B H 0.5238 1.1933 0.5125
C25B C 0.3921(11) 1.2212(8) 0.50976(10)
H30B H 0.3626 1.1718 0.5004
H31B H 0.4389 1.2998 0.5061
C26B C 0.2957(14) 1.2113(10) 0.51927(14)
H32B H 0.2498 1.2335 0.5128
H33B H 0.3246 1.2622 0.5285
C27B C 0.2211(11) 1.0862(9) 0.52494(10)
H34B H 0.1924 1.0346 0.5158
H35B H 0.1560 1.0776 0.5311
C28B C 0.2988(9) 1.0587(6) 0.53544(8)
H36B H 0.3254 1.1091 0.5449
C29? C 0.013(2) 0.257(2) 0.5689(3)
H37? H -0.0142 0.1783 0.5720
H38? H -0.0519 0.2664 0.5666
H39? H 0.0568 0.3071 0.5775
Cl1? Cl 0.5177(7) 0.2599(6) 0.57035(8)
C30? C 0.636(2) 0.274(2) 0.5559(3)
H40? H 0.6736 0.3488 0.5506
H41? H 0.6054 0.2142 0.5478
loop_
_geom_bond_atom_site_label_1
_geom_bond_atom_site_label_2
_geom_bond_site_symmetry_1
_geom_bond_site_symmetry_2
N1 C13 1_555 1_555
N2 C3 1_555 1_555
N3 C11 1_555 1_555
N4 C21 1_555 1_555
C1 H1 1_555 1_555
C2 C1 1_555 1_555
C3 C2 1_555 1_555
C4 C3 1_555 1_555
H2 C4 1_555 1_555
H3 C4 1_555 1_555
H4 C4 1_555 1_555
C5 C6 1_555 1_555
C6 H5 1_555 1_555
C7 C6 1_555 1_555
C8 C7 1_555 1_555
H6 C8 1_555 1_555
C9 C8 1_555 1_555
C10 C5 1_555 1_555
H7 C10 1_555 1_555
C11 C5 1_555 1_555
C12 C11 1_555 1_555
H8 C12 1_555 1_555
H9 C12 1_555 1_555
H10 C12 1_555 1_555
C13 C7 1_555 1_555
C14 C13 1_555 1_555
H11 C14 1_555 1_555
H12 C14 1_555 1_555
H13 C14 1_555 1_555
C15 N1 1_555 1_555
H14 C15 1_555 1_555
C16 C15 1_555 1_555
H15 C16 1_555 1_555
H16 C16 1_555 1_555
C17 C16 1_555 1_555
H17 C17 1_555 1_555
H18 C17 1_555 1_555
C18 C17 1_555 1_555
H19 C18 1_555 1_555
H20 C18 1_555 1_555
C19 C18 1_555 1_555
H21 C19 1_555 1_555
H22 C19 1_555 1_555
C20 N2 1_555 1_555
H23 C20 1_555 1_555
C21 C22 1_555 1_555
C22 H24 1_555 1_555
H25 C22 1_555 1_555
H26 C22 1_555 1_555
C23 N4 1_555 1_555
H27 C23 1_555 1_555
C24 C23 1_555 1_555
H28 C24 1_555 1_555
H29 C24 1_555 1_555
C25 C24 1_555 1_555
H30 C25 1_555 1_555
H31 C25 1_555 1_555
C26 C25 1_555 1_555
H32 C26 1_555 1_555
H33 C26 1_555 1_555
C27 C26 1_555 1_555
H34 C27 1_555 1_555
H35 C27 1_555 1_555
C28 N3 1_555 1_555
H36 C28 1_555 1_555
N1A C13A 1_555 1_555
N2A C3A 1_555 1_555
N3A C11A 1_555 1_555
N4A C21A 1_555 1_555
C1A C2 1_555 1_555
H1A C1A 1_555 1_555
C2A C1A 1_555 1_555
C3A C2A 1_555 1_555
C4A C3A 1_555 1_555
H2A C4A 1_555 1_555
H3A C4A 1_555 1_555
H4A C4A 1_555 1_555
C5A C6A 1_555 1_555
C6A H5A 1_555 1_555
C7A C6A 1_555 1_555
C8A C7A 1_555 1_555
H6A C8A 1_555 1_555
C9A C8A 1_555 1_555
C10A C5A 1_555 1_555
H7A C10A 1_555 1_555
C11A C5A 1_555 1_555
C12A C11A 1_555 1_555
H8A C12A 1_555 1_555
H9A C12A 1_555 1_555
H10A C12A 1_555 1_555
C13A C7A 1_555 1_555
C14A C13A 1_555 1_555
H11A C14A 1_555 1_555
H12A C14A 1_555 1_555
H13A C14A 1_555 1_555
C15A N1A 1_555 1_555
H14A C15A 1_555 1_555
C16A C15A 1_555 1_555
H15A C16A 1_555 1_555
H16A C16A 1_555 1_555
C17A C16A 1_555 1_555
H17A C17A 1_555 1_555
H18A C17A 1_555 1_555
C18A C17A 1_555 1_555
H19A C18A 1_555 1_555
H20A C18A 1_555 1_555
C19A C18A 1_555 1_555
H21A C19A 1_555 1_555
H22A C19A 1_555 1_555
C20A N2A 1_555 1_555
H23A C20A 1_555 1_555
C21A C9 1_555 1_555
C22A C21A 1_555 1_555
H24A C22A 1_555 1_555
H25A C22A 1_555 1_555
H26A C22A 1_555 1_555
C23A N4A 1_555 1_555
H27A C23A 1_555 1_555
C24A C23A 1_555 1_555
H28A C24A 1_555 1_555
H29A C24A 1_555 1_555
C25A C24A 1_555 1_555
H30A C25A 1_555 1_555
H31A C25A 1_555 1_555
C26A C25A 1_555 1_555
H32A C26A 1_555 1_555
H33A C26A 1_555 1_555
C27A C26A 1_555 1_555
H34A C27A 1_555 1_555
H35A C27A 1_555 1_555
C28A N3A 1_555 1_555
H36A C28A 1_555 1_555
N1B C13B 1_555 1_555
N2B C3B 1_555 1_555
N3B C11B 1_555 1_555
N4B C21B 1_555 1_555
C1B C2A 1_555 1_555
H1B C1B 1_555 1_555
C2B C1 1_555 1_555
C3B C2B 1_555 1_555
C4B C3B 1_555 1_555
H2B C4B 1_555 1_555
H3B C4B 1_555 1_555
H4B C4B 1_555 1_555
C5B C6B 1_555 1_555
C6B H5B 1_555 1_555
C7B C6B 1_555 1_555
C8B C7B 1_555 1_555
H6B C8B 1_555 1_555
C9B C21 1_555 1_555
C10B C5B 1_555 1_555
H7B C10B 1_555 1_555
C11B C5B 1_555 1_555
C12B C11B 1_555 1_555
H8B C12B 1_555 1_555
H9B C12B 1_555 1_555
H10B C12B 1_555 1_555
C13B C7B 1_555 1_555
C14B C13B 1_555 1_555
H11B C14B 1_555 1_555
H12B C14B 1_555 1_555
H13B C14B 1_555 1_555
C15B N1B 1_555 1_555
H14B C15B 1_555 1_555
C16B C15B 1_555 1_555
H15B C16B 1_555 1_555
H16B C16B 1_555 1_555
C17B C16B 1_555 1_555
H17B C17B 1_555 1_555
H18B C17B 1_555 1_555
C18B C17B 1_555 1_555
H19B C18B 1_555 1_555
H20B C18B 1_555 1_555
C19B C18B 1_555 1_555
H21B C19B 1_555 1_555
H22B C19B 1_555 1_555
C20B N2B 1_555 1_555
H23B C20B 1_555 1_555
C21B C9A 1_555 1_555
C22B C21B 1_555 1_555
H24B C22B 1_555 1_555
H25B C22B 1_555 1_555
H26B C22B 1_555 1_555
C23B N4B 1_555 1_555
H27B C23B 1_555 1_555
C24B C23B 1_555 1_555
H28B C24B 1_555 1_555
H29B C24B 1_555 1_555
C25B C24B 1_555 1_555
H30B C25B 1_555 1_555
H31B C25B 1_555 1_555
C26B C25B 1_555 1_555
H32B C26B 1_555 1_555
H33B C26B 1_555 1_555
C27B C26B 1_555 1_555
H34B C27B 1_555 1_555
H35B C27B 1_555 1_555
C28B N3B 1_555 1_555
H36B C28B 1_555 1_555
C9 C10 1_555 1_555
C15 C20 1_555 1_555
C19 C20 1_555 1_555
C23 C28 1_555 1_555
C27 C28 1_555 1_555
C9A C10A 1_555 1_555
C15A C20A 1_555 1_555
C19A C20A 1_555 1_555
C23A C28A 1_555 1_555
C27A C28A 1_555 1_555
C1B C2B 1_555 1_555
C8B C9B 1_555 1_555
C9B C10B 1_555 1_555
C15B C20B 1_555 1_555
C19B C20B 1_555 1_555
C23B C28B 1_555 1_555
C27B C28B 1_555 1_555

#END
