
#######################################################################
#
#                 Cambridge Crystallographic Data Centre
#                                CCDC 
#
#######################################################################
#
# If this CIF has been generated from an entry in the Cambridge 
# Structural Database, then it will include bibliographic, chemical, 
# crystal, experimental, refinement or atomic coordinate data resulting 
# from the CCDC's data processing and validation procedures.
#
#######################################################################

data_SENRIN
_chemical_formula_moiety         'C19 H21 N1 O2'
_chemical_name_systematic        
syn-N-(2-Methyl-1-(4-methyl-phenyl)-3-oxo-3-phenyl-propyl)-acetamide
_symmetry_cell_setting           monoclinic
_symmetry_space_group_name_H-M   'P 21/c'
_symmetry_Int_Tables_number      14
_space_group_name_Hall           '-P 2ybc'
loop_
_symmetry_equiv_pos_site_id
_symmetry_equiv_pos_as_xyz
1 x,y,z
2 -x,1/2+y,1/2-z
3 -x,-y,-z
4 x,1/2-y,1/2+z
_cell_length_a                   18.3820(18)
_cell_length_b                   11.7845(12)
_cell_length_c                   16.4961(16)
_cell_angle_alpha                90
_cell_angle_beta                 111.444(2)
_cell_angle_gamma                90
_cell_volume                     3326.06
_exptl_crystal_colour            colorless
_exptl_crystal_description       Block
_chemical_melting_point          '392.0 K'
_cell_formula_units_Z            8
_exptl_crystal_recrystallization_method 'ethyl acetate/hexane'
loop_
_atom_site_label
_atom_site_type_symbol
_atom_site_fract_x
_atom_site_fract_y
_atom_site_fract_z
O1 O 0.92272(10) 0.29281(14) 0.75960(11)
O2 O 0.89252(10) 0.55527(14) 0.51629(10)
N1 N 0.86134(11) 0.61008(16) 0.63124(12)
H1 H 0.8524 0.6672 0.6588
C1 C 0.89244(13) 0.3571(2) 0.87911(15)
C2 C 0.86978(14) 0.4449(2) 0.92152(16)
H3 H 0.8640 0.5181 0.8990
C3 C 0.85588(15) 0.4229(2) 0.99721(16)
H4 H 0.8406 0.4816 1.0252
C4 C 0.86454(15) 0.3149(2) 1.03111(16)
H5 H 0.8559 0.3009 1.0823
C5 C 0.88608(14) 0.2271(2) 0.98907(16)
H6 H 0.8912 0.1539 1.0115
C6 C 0.90010(13) 0.2483(2) 0.91357(16)
H7 H 0.9148 0.1891 0.8856
C7 C 0.90873(13) 0.3745(2) 0.79742(15)
C8 C 0.91163(13) 0.4925(2) 0.76189(15)
H8 H 0.8927 0.5470 0.7945
C9 C 0.99618(14) 0.5212(2) 0.77561(16)
H9 H 0.9988 0.5969 0.7554
H10 H 1.0153 0.4686 0.7436
H11 H 1.0276 0.5161 0.8365
C10 C 0.85753(13) 0.49703(19) 0.66543(14)
H12 H 0.8774 0.4429 0.6334
C11 C 0.77339(14) 0.4650(2) 0.65028(15)
C12 C 0.73356(14) 0.5158(2) 0.69802(16)
H13 H 0.7594 0.5677 0.7415
C13 C 0.65607(15) 0.4902(2) 0.68167(16)
H14 H 0.6308 0.5254 0.7145
C14 C 0.61508(15) 0.4132(2) 0.61753(17)
C15 C 0.65518(15) 0.3625(2) 0.57051(16)
H15 H 0.6293 0.3106 0.5271
C16 C 0.73307(14) 0.3874(2) 0.58670(15)
H16 H 0.7585 0.3514 0.5544
C17 C 0.53060(16) 0.3865(3) 0.59915(19)
H17 H 0.5074 0.4474 0.6199
H18 H 0.5269 0.3175 0.6283
H19 H 0.5036 0.3777 0.5375
C18 C 0.87772(13) 0.6312(2) 0.56014(15)
C19 C 0.87637(14) 0.7538(2) 0.53587(16)
H20 H 0.8358 0.7662 0.4801
H21 H 0.9259 0.7744 0.5330
H22 H 0.8665 0.7996 0.5789
O3 O 0.59270(10) 0.46821(15) 0.20451(12)
O4 O 0.82350(10) 0.70969(16) 0.22105(11)
N2 N 0.82371(11) 0.59357(16) 0.32983(12)
H2 H 0.8523 0.5585 0.3763
C20 C 0.61483(14) 0.3157(2) 0.30375(16)
C21 C 0.53540(15) 0.3028(2) 0.28765(17)
H23 H 0.4998 0.3552 0.2527
C22 C 0.50918(16) 0.2128(3) 0.32327(19)
H24 H 0.4561 0.2048 0.3121
C23 C 0.56162(16) 0.1347(2) 0.37538(18)
H25 H 0.5437 0.0740 0.3990
C24 C 0.64029(16) 0.1468(2) 0.39237(18)
H26 H 0.6756 0.0947 0.4281
C25 C 0.66707(15) 0.2362(2) 0.35645(16)
H27 H 0.7202 0.2433 0.3675
C26 C 0.64032(15) 0.4132(2) 0.26224(16)
C27 C 0.72715(14) 0.4412(2) 0.29046(16)
H28 H 0.7549 0.4090 0.3484
C28 C 0.75770(15) 0.3859(2) 0.22520(16)
H29 H 0.7520 0.3050 0.2267
H30 H 0.8119 0.4045 0.2403
H31 H 0.7284 0.4135 0.1677
C29 C 0.73956(13) 0.5696(2) 0.29407(15)
H32 H 0.7181 0.5991 0.2344
C30 C 0.70310(13) 0.6356(2) 0.34910(14)
C31 C 0.68545(14) 0.7496(2) 0.33124(15)
H33 H 0.6906 0.7821 0.2823
C32 C 0.66027(14) 0.8155(2) 0.38530(16)
H34 H 0.6489 0.8917 0.3719
C33 C 0.65165(14) 0.7704(2) 0.45909(16)
C34 C 0.66784(14) 0.6560(2) 0.47525(16)
H35 H 0.6615 0.6230 0.5235
C35 C 0.69305(13) 0.5896(2) 0.42168(15)
H36 H 0.7034 0.5131 0.4344
C36 C 0.62573(17) 0.8425(3) 0.51910(18)
H37 H 0.6481 0.9169 0.5234
H38 H 0.6429 0.8082 0.5758
H39 H 0.5698 0.8482 0.4963
C37 C 0.85815(15) 0.6673(2) 0.29361(16)
C38 C 0.94058(14) 0.6983(2) 0.34834(17)
H40 H 0.9620 0.6420 0.3928
H41 H 0.9412 0.7709 0.3749
H42 H 0.9714 0.7018 0.3123
loop_
_geom_bond_atom_site_label_1
_geom_bond_atom_site_label_2
_geom_bond_site_symmetry_1
_geom_bond_site_symmetry_2
O1 C7 1_555 1_555
O2 C18 1_555 1_555
O3 C26 1_555 1_555
O4 C37 1_555 1_555
N1 H1 1_555 1_555
N2 H2 1_555 1_555
C1 C2 1_555 1_555
C2 H3 1_555 1_555
C3 C2 1_555 1_555
H4 C3 1_555 1_555
C4 C3 1_555 1_555
H5 C4 1_555 1_555
C5 C4 1_555 1_555
H6 C5 1_555 1_555
C6 C1 1_555 1_555
H7 C6 1_555 1_555
C7 C1 1_555 1_555
C8 C7 1_555 1_555
H8 C8 1_555 1_555
C9 C8 1_555 1_555
H9 C9 1_555 1_555
H10 C9 1_555 1_555
H11 C9 1_555 1_555
C10 N1 1_555 1_555
H12 C10 1_555 1_555
C11 C10 1_555 1_555
C12 C11 1_555 1_555
H13 C12 1_555 1_555
C13 C12 1_555 1_555
H14 C13 1_555 1_555
C14 C13 1_555 1_555
C15 C14 1_555 1_555
H15 C15 1_555 1_555
C16 C11 1_555 1_555
H16 C16 1_555 1_555
C17 C14 1_555 1_555
H17 C17 1_555 1_555
H18 C17 1_555 1_555
H19 C17 1_555 1_555
C18 N1 1_555 1_555
C19 C18 1_555 1_555
H20 C19 1_555 1_555
H21 C19 1_555 1_555
H22 C19 1_555 1_555
C20 C21 1_555 1_555
C21 H23 1_555 1_555
C22 C21 1_555 1_555
H24 C22 1_555 1_555
C23 C22 1_555 1_555
H25 C23 1_555 1_555
C24 C23 1_555 1_555
H26 C24 1_555 1_555
C25 C20 1_555 1_555
H27 C25 1_555 1_555
C26 C20 1_555 1_555
C27 C26 1_555 1_555
H28 C27 1_555 1_555
C28 C27 1_555 1_555
H29 C28 1_555 1_555
H30 C28 1_555 1_555
H31 C28 1_555 1_555
C29 N2 1_555 1_555
H32 C29 1_555 1_555
C30 C29 1_555 1_555
C31 C30 1_555 1_555
H33 C31 1_555 1_555
C32 C31 1_555 1_555
H34 C32 1_555 1_555
C33 C32 1_555 1_555
C34 C33 1_555 1_555
H35 C34 1_555 1_555
C35 C30 1_555 1_555
H36 C35 1_555 1_555
C36 C33 1_555 1_555
H37 C36 1_555 1_555
H38 C36 1_555 1_555
H39 C36 1_555 1_555
C37 N2 1_555 1_555
C38 C37 1_555 1_555
H40 C38 1_555 1_555
H41 C38 1_555 1_555
H42 C38 1_555 1_555
C5 C6 1_555 1_555
C8 C10 1_555 1_555
C15 C16 1_555 1_555
C24 C25 1_555 1_555
C27 C29 1_555 1_555
C34 C35 1_555 1_555

#END
