
#######################################################################
#
#                 Cambridge Crystallographic Data Centre
#                                CCDC 
#
#######################################################################
#
# If this CIF has been generated from an entry in the Cambridge 
# Structural Database, then it will include bibliographic, chemical, 
# crystal, experimental, refinement or atomic coordinate data resulting 
# from the CCDC's data processing and validation procedures.
#
#######################################################################

data_SENSAG
_chemical_formula_moiety         'C23 H17 Cl1 O2'
_chemical_name_systematic        
5-(2-Chlorophenyl)-5-methyl-3,4-diphenyl-5H-furan-2-one
_symmetry_cell_setting           triclinic
_symmetry_space_group_name_H-M   'P -1'
_symmetry_Int_Tables_number      2
_space_group_name_Hall           '-P 1'
loop_
_symmetry_equiv_pos_site_id
_symmetry_equiv_pos_as_xyz
1 x,y,z
2 -x,-y,-z
_cell_length_a                   10.232(19)
_cell_length_b                   14.05(3)
_cell_length_c                   14.11(3)
_cell_angle_alpha                106.28(3)
_cell_angle_beta                 96.25(4)
_cell_angle_gamma                91.27(4)
_cell_volume                     1932.59
_exptl_crystal_colour            colorless
_cell_formula_units_Z            4
loop_
_atom_site_label
_atom_site_type_symbol
_atom_site_fract_x
_atom_site_fract_y
_atom_site_fract_z
Cl1 Cl 0.39263(12) 0.15207(8) 0.09617(6)
O1 O 0.1201(2) 0.3043(2) 0.23447(17)
O2 O 0.3052(2) 0.26128(17) 0.30636(15)
C1 C 0.2389(4) 0.3133(3) 0.2515(2)
C2 C 0.3360(3) 0.3779(2) 0.2209(2)
C3 C 0.4563(3) 0.3663(2) 0.2611(2)
C4 C 0.4454(3) 0.2915(3) 0.3211(2)
C5 C 0.5226(3) 0.1977(2) 0.2866(2)
C6 C 0.6183(4) 0.1730(3) 0.3515(3)
H1 H 0.6371 0.2145 0.4160
C7 C 0.6881(5) 0.0859(3) 0.3218(3)
H2 H 0.7509 0.0710 0.3676
C8 C 0.6654(5) 0.0221(3) 0.2262(4)
H3 H 0.7124 -0.0348 0.2077
C9 C 0.5736(5) 0.0442(3) 0.1605(3)
H4 H 0.5572 0.0023 0.0960
C10 C 0.5028(4) 0.1301(3) 0.1892(2)
C11 C 0.2929(3) 0.4351(3) 0.1515(2)
C12 C 0.1788(3) 0.4866(3) 0.1602(2)
H5 H 0.1296 0.4868 0.2119
C13 C 0.1379(4) 0.5373(3) 0.0934(3)
H6 H 0.0618 0.5723 0.1003
C14 C 0.2094(5) 0.5364(4) 0.0160(3)
H7 H 0.1826 0.5727 -0.0279
C15 C 0.3214(4) 0.4820(4) 0.0024(3)
H8 H 0.3666 0.4791 -0.0520
C16 C 0.3647(4) 0.4323(3) 0.0711(3)
H9 H 0.4409 0.3973 0.0641
C17 C 0.5839(3) 0.4204(3) 0.2612(2)
C18 C 0.5953(4) 0.5236(3) 0.2989(3)
H10 H 0.5217 0.5580 0.3188
C19 C 0.7148(4) 0.5757(3) 0.3072(3)
H11 H 0.7205 0.6444 0.3336
C20 C 0.8249(4) 0.5274(4) 0.2768(3)
H12 H 0.9046 0.5629 0.2826
C21 C 0.8153(3) 0.4248(4) 0.2375(3)
H13 H 0.8888 0.3914 0.2158
C22 C 0.6953(3) 0.3712(3) 0.2303(3)
H14 H 0.6903 0.3024 0.2047
C23 C 0.4764(4) 0.3488(3) 0.4331(2)
H15 H 0.4185 0.4024 0.4494
H16 H 0.5661 0.3751 0.4464
H17 H 0.4638 0.3045 0.4726
Cl2 Cl -0.10262(10) 0.75760(9) 0.15896(8)
O3 O -0.1319(3) 0.8925(2) 0.41931(19)
O4 O -0.0247(2) 0.95424(19) 0.31685(17)
C24 C -0.0354(4) 0.8920(3) 0.3763(3)
C25 C 0.0848(3) 0.8354(3) 0.3751(2)
C26 C 0.1671(3) 0.8642(3) 0.3187(2)
C27 C 0.1039(3) 0.9436(3) 0.2775(2)
C28 C 0.0808(4) 0.9088(3) 0.1628(2)
C29 C 0.1537(4) 0.9585(3) 0.1114(3)
H18 H 0.2091 1.0132 0.1468
C30 C 0.1449(5) 0.9278(4) 0.0084(3)
H19 H 0.1942 0.9613 -0.0251
C31 C 0.0625(6) 0.8473(4) -0.0436(3)
H20 H 0.0580 0.8256 -0.1126
C32 C -0.0143(5) 0.7977(4) 0.0046(3)
H21 H -0.0723 0.7448 -0.0313
C33 C -0.0026(4) 0.8283(3) 0.1065(3)
C34 C 0.1001(3) 0.7551(3) 0.4246(2)
C35 C 0.0375(4) 0.7573(4) 0.5094(3)
H22 H -0.0132 0.8099 0.5366
C36 C 0.0532(5) 0.6784(4) 0.5518(3)
H23 H 0.0131 0.6799 0.6083
C37 C 0.1255(5) 0.5998(4) 0.5127(3)
H24 H 0.1346 0.5481 0.5417
C38 C 0.1846(4) 0.5983(3) 0.4297(3)
H25 H 0.2341 0.5448 0.4025
C39 C 0.1728(3) 0.6729(3) 0.3861(2)
H26 H 0.2138 0.6694 0.3296
C40 C 0.3043(3) 0.8389(3) 0.3020(3)
C41 C 0.4022(4) 0.8667(3) 0.3818(3)
H27 H 0.3824 0.8997 0.4451
C42 C 0.5323(5) 0.8440(4) 0.3651(5)
H28 H 0.5988 0.8625 0.4182
C43 C 0.5638(6) 0.7952(5) 0.2726(7)
H29 H 0.6507 0.7815 0.2629
C44 C 0.4693(6) 0.7679(5) 0.1977(5)
H30 H 0.4898 0.7338 0.1349
C45 C 0.3409(4) 0.7891(3) 0.2106(3)
H31 H 0.2765 0.7693 0.1561
C46 C 0.1801(4) 1.0450(3) 0.3204(3)
H32 H 0.1354 1.0937 0.2950
H33 H 0.2675 1.0401 0.3014
H34 H 0.1848 1.0644 0.3916
loop_
_geom_bond_atom_site_label_1
_geom_bond_atom_site_label_2
_geom_bond_site_symmetry_1
_geom_bond_site_symmetry_2
Cl1 C10 1_555 1_555
Cl2 C33 1_555 1_555
O1 C1 1_555 1_555
O2 C1 1_555 1_555
O3 C24 1_555 1_555
O4 C24 1_555 1_555
C1 C2 1_555 1_555
C2 C3 1_555 1_555
C3 C4 1_555 1_555
C4 O2 1_555 1_555
C5 C4 1_555 1_555
C6 C5 1_555 1_555
H1 C6 1_555 1_555
C7 C6 1_555 1_555
H2 C7 1_555 1_555
C8 C7 1_555 1_555
H3 C8 1_555 1_555
C9 C8 1_555 1_555
H4 C9 1_555 1_555
C10 C5 1_555 1_555
C11 C2 1_555 1_555
C12 C11 1_555 1_555
H5 C12 1_555 1_555
C13 C12 1_555 1_555
H6 C13 1_555 1_555
C14 C13 1_555 1_555
H7 C14 1_555 1_555
C15 C14 1_555 1_555
H8 C15 1_555 1_555
C16 C11 1_555 1_555
H9 C16 1_555 1_555
C17 C3 1_555 1_555
C18 C17 1_555 1_555
H10 C18 1_555 1_555
C19 C18 1_555 1_555
H11 C19 1_555 1_555
C20 C19 1_555 1_555
H12 C20 1_555 1_555
C21 C20 1_555 1_555
H13 C21 1_555 1_555
C22 C17 1_555 1_555
H14 C22 1_555 1_555
C23 C4 1_555 1_555
H15 C23 1_555 1_555
H16 C23 1_555 1_555
H17 C23 1_555 1_555
C24 C25 1_555 1_555
C25 C26 1_555 1_555
C26 C27 1_555 1_555
C27 O4 1_555 1_555
C28 C27 1_555 1_555
C29 C28 1_555 1_555
H18 C29 1_555 1_555
C30 C29 1_555 1_555
H19 C30 1_555 1_555
C31 C30 1_555 1_555
H20 C31 1_555 1_555
C32 C31 1_555 1_555
H21 C32 1_555 1_555
C33 C28 1_555 1_555
C34 C25 1_555 1_555
C35 C34 1_555 1_555
H22 C35 1_555 1_555
C36 C35 1_555 1_555
H23 C36 1_555 1_555
C37 C36 1_555 1_555
H24 C37 1_555 1_555
C38 C37 1_555 1_555
H25 C38 1_555 1_555
C39 C34 1_555 1_555
H26 C39 1_555 1_555
C40 C26 1_555 1_555
C41 C40 1_555 1_555
H27 C41 1_555 1_555
C42 C41 1_555 1_555
H28 C42 1_555 1_555
C43 C42 1_555 1_555
H29 C43 1_555 1_555
C44 C43 1_555 1_555
H30 C44 1_555 1_555
C45 C40 1_555 1_555
H31 C45 1_555 1_555
C46 C27 1_555 1_555
H32 C46 1_555 1_555
H33 C46 1_555 1_555
H34 C46 1_555 1_555
C9 C10 1_555 1_555
C15 C16 1_555 1_555
C21 C22 1_555 1_555
C32 C33 1_555 1_555
C38 C39 1_555 1_555
C44 C45 1_555 1_555

#END
