
#######################################################################
#
#                 Cambridge Crystallographic Data Centre
#                                CCDC 
#
#######################################################################
#
# If this CIF has been generated from an entry in the Cambridge 
# Structural Database, then it will include bibliographic, chemical, 
# crystal, experimental, refinement or atomic coordinate data resulting 
# from the CCDC's data processing and validation procedures.
#
#######################################################################

data_SEPBUN
_chemical_formula_moiety         'C12 H16 O2'
_chemical_name_systematic        4-t-butoxy-4,6a-dihydropentalen-1(3aH)-one
_symmetry_cell_setting           monoclinic
_symmetry_space_group_name_H-M   'P 21/c'
_symmetry_Int_Tables_number      14
_space_group_name_Hall           '-P 2ybc'
loop_
_symmetry_equiv_pos_site_id
_symmetry_equiv_pos_as_xyz
1 x,y,z
2 -x,1/2+y,1/2-z
3 -x,-y,-z
4 x,1/2-y,1/2+z
_cell_length_a                   11.7473(8)
_cell_length_b                   8.3555(4)
_cell_length_c                   11.0937(7)
_cell_angle_alpha                90
_cell_angle_beta                 92.264(3)
_cell_angle_gamma                90
_cell_volume                     1088.05
_exptl_crystal_colour            colorless
_exptl_crystal_description       plate
_cell_formula_units_Z            4
loop_
_atom_site_label
_atom_site_type_symbol
_atom_site_fract_x
_atom_site_fract_y
_atom_site_fract_z
O1 O 0.87200(6) -0.43439(9) -0.12932(7)
O2 O 0.67149(6) 0.14319(7) 0.05876(6)
C1 C 0.87047(8) -0.31436(11) -0.06693(8)
C2 C 0.93591(8) -0.28480(12) 0.04644(9)
H1 H 0.987647 -0.358010 0.084613
C3 C 0.91138(8) -0.13874(12) 0.08766(9)
H2 H 0.945660 -0.095419 0.159471
C4 C 0.82477(7) -0.04923(10) 0.01029(8)
H3 H 0.857531 0.052516 -0.020766
C5 C 0.79638(8) -0.16702(11) -0.09392(8)
H4 H 0.811306 -0.119505 -0.174510
C6 C 0.67243(8) -0.20478(11) -0.08064(10)
H5 H 0.630349 -0.275750 -0.132336
C7 C 0.62828(8) -0.12817(11) 0.01111(10)
H6 H 0.551912 -0.141964 0.034290
C8 C 0.71166(7) -0.01705(10) 0.07481(8)
H7 H 0.720114 -0.044267 0.162484
C9 C 0.69269(8) 0.25505(11) 0.15700(8)
C10 C 0.82036(9) 0.27226(13) 0.18620(10)
H8 H 0.858899 0.305204 0.113485
H9 H 0.851251 0.169396 0.214563
H10 H 0.832769 0.353216 0.249277
C11 C 0.64446(9) 0.41203(12) 0.10731(10)
H11 H 0.685999 0.443638 0.036213
H12 H 0.652738 0.495396 0.169178
H13 H 0.563606 0.398058 0.084574
C12 C 0.62987(10) 0.20297(14) 0.26783(9)
H14 H 0.549533 0.183717 0.245271
H15 H 0.635509 0.287330 0.329145
H16 H 0.664115 0.104325 0.300419
loop_
_geom_bond_atom_site_label_1
_geom_bond_atom_site_label_2
_geom_bond_site_symmetry_1
_geom_bond_site_symmetry_2
O1 C1 1_555 1_555
O2 C8 1_555 1_555
C1 C2 1_555 1_555
C2 H1 1_555 1_555
C3 C2 1_555 1_555
H2 C3 1_555 1_555
C4 C3 1_555 1_555
H3 C4 1_555 1_555
C5 C1 1_555 1_555
H4 C5 1_555 1_555
C6 C5 1_555 1_555
H5 C6 1_555 1_555
C7 C6 1_555 1_555
H6 C7 1_555 1_555
C8 C4 1_555 1_555
H7 C8 1_555 1_555
C9 O2 1_555 1_555
C10 C9 1_555 1_555
H8 C10 1_555 1_555
H9 C10 1_555 1_555
H10 C10 1_555 1_555
C11 C9 1_555 1_555
H11 C11 1_555 1_555
H12 C11 1_555 1_555
H13 C11 1_555 1_555
C12 C9 1_555 1_555
H14 C12 1_555 1_555
H15 C12 1_555 1_555
H16 C12 1_555 1_555
C4 C5 1_555 1_555
C7 C8 1_555 1_555

#END
