
#######################################################################
#
#                 Cambridge Crystallographic Data Centre
#                                CCDC 
#
#######################################################################
#
# If this CIF has been generated from an entry in the Cambridge 
# Structural Database, then it will include bibliographic, chemical, 
# crystal, experimental, refinement or atomic coordinate data resulting 
# from the CCDC's data processing and validation procedures.
#
#######################################################################

data_SEPBAS
_chemical_formula_moiety         'C14 H4 F6 N4'
_chemical_name_systematic        
2,7-bis(trifluoromethyl)pyrimido[4,5,6-gh]perimidine
_symmetry_cell_setting           triclinic
_symmetry_space_group_name_H-M   'P -1'
_symmetry_Int_Tables_number      2
_space_group_name_Hall           '-P 1'
loop_
_symmetry_equiv_pos_site_id
_symmetry_equiv_pos_as_xyz
1 x,y,z
2 -x,-y,-z
_cell_length_a                   4.693(2)
_cell_length_b                   8.435(4)
_cell_length_c                   8.485(4)
_cell_angle_alpha                103.867(8)
_cell_angle_beta                 102.721(17)
_cell_angle_gamma                99.713(7)
_cell_volume                     309.267
_exptl_crystal_colour            colorless
_exptl_crystal_description       irregular
_cell_formula_units_Z            1
loop_
_atom_site_label
_atom_site_type_symbol
_atom_site_fract_x
_atom_site_fract_y
_atom_site_fract_z
F1 F 0.1156(2) 0.36629(12) 0.05857(12)
F2 F 0.5560(2) 0.44591(11) 0.22882(12)
F3 F 0.4432(3) 0.22223(12) 0.02007(13)
N1 N 0.1113(2) 0.29320(14) 0.35939(14)
N2 N 0.2827(3) 0.05476(14) 0.22412(14)
C1 C 0.0131(3) 0.20850(16) 0.46039(16)
C2 C -0.1297(3) 0.28435(16) 0.58336(17)
H1 H -0.1557 0.3953 0.5932
C3 C -0.2274(3) 0.19822(16) 0.68533(16)
H2 H -0.3228 0.2493 0.7651
C4 C 0.1878(3) -0.03024(15) 0.32621(16)
C5 C 0.0496(3) 0.04401(15) 0.44657(15)
C6 C 0.2357(3) 0.20922(16) 0.24857(16)
C7 C 0.3396(3) 0.30952(17) 0.13692(17)
F1A F -0.1156(2) -0.36629(12) 0.94143(12)
F2A F -0.5560(2) -0.44591(11) 0.77118(12)
F3A F -0.4432(3) -0.22223(12) 0.97993(13)
N1A N -0.1113(2) -0.29320(14) 0.64061(14)
N2A N -0.2827(3) -0.05476(14) 0.77588(14)
C1A C -0.0131(3) -0.20850(16) 0.53961(16)
C2A C 0.1297(3) -0.28435(16) 0.41664(17)
H1A H 0.1557 -0.3953 0.4068
C3A C 0.2274(3) -0.19822(16) 0.31467(16)
H2A H 0.3228 -0.2493 0.2349
C4A C -0.1878(3) 0.03024(15) 0.67379(16)
C5A C -0.0496(3) -0.04401(15) 0.55343(15)
C6A C -0.2357(3) -0.20922(16) 0.75143(16)
C7A C -0.3396(3) -0.30952(17) 0.86308(17)
loop_
_geom_bond_atom_site_label_1
_geom_bond_atom_site_label_2
_geom_bond_site_symmetry_1
_geom_bond_site_symmetry_2
F1 C7 1_555 1_555
F2 C7 1_555 1_555
F3 C7 1_555 1_555
N1 C1 1_555 1_555
N2 C4 1_555 1_555
C1 C2 1_555 1_555
C2 H1 1_555 1_555
C3 C2 1_555 1_555
H2 C3 1_555 1_555
C4 C5 1_555 1_555
C5 C1 1_555 1_555
C6 N1 1_555 1_555
C7 C6 1_555 1_555
F1A C7A 1_555 1_555
F2A C7A 1_555 1_555
F3A C7A 1_555 1_555
N1A C1A 1_555 1_555
N2A C4A 1_555 1_555
C1A C2A 1_555 1_555
C2A H1A 1_555 1_555
C3A C4 1_555 1_555
H2A C3A 1_555 1_555
C4A C3 1_555 1_555
C5A C5 1_555 1_555
C6A N1A 1_555 1_555
C7A C6A 1_555 1_555
N2 C6 1_555 1_555
N2A C6A 1_555 1_555
C1A C5A 1_555 1_555
C2A C3A 1_555 1_555
C4A C5A 1_555 1_555

#END
