
#######################################################################
#
#                 Cambridge Crystallographic Data Centre
#                                CCDC 
#
#######################################################################
#
# If this CIF has been generated from an entry in the Cambridge 
# Structural Database, then it will include bibliographic, chemical, 
# crystal, experimental, refinement or atomic coordinate data resulting 
# from the CCDC's data processing and validation procedures.
#
#######################################################################

data_SEPCUN
_chemical_formula_moiety         'C16 H2 Br2 F10 N4'
_chemical_name_systematic        
4,9-Dibromo-2,7-bis(pentafluoroethyl)pyrimido[4,5,6-gh]perimidine
_symmetry_cell_setting           triclinic
_symmetry_space_group_name_H-M   'P -1'
_symmetry_Int_Tables_number      2
_space_group_name_Hall           '-P 1'
loop_
_symmetry_equiv_pos_site_id
_symmetry_equiv_pos_as_xyz
1 x,y,z
2 -x,-y,-z
_cell_length_a                   4.959(2)
_cell_length_b                   8.559(4)
_cell_length_c                   10.259(5)
_cell_angle_alpha                90.869(11)
_cell_angle_beta                 94.021(7)
_cell_angle_gamma                102.739(15)
_cell_volume                     423.46
_exptl_crystal_colour            yellow
_exptl_crystal_description       needle
_cell_formula_units_Z            1
loop_
_atom_site_label
_atom_site_type_symbol
_atom_site_fract_x
_atom_site_fract_y
_atom_site_fract_z
Br1 Br 0.20396(4) 0.42374(2) 0.37436(2)
F1 F 0.0382(3) 0.34161(18) 1.02734(13)
F2 F 0.3751(3) 0.23234(17) 0.98355(13)
F3 F 0.2993(3) 0.43323(16) 0.87334(14)
C1 C 0.1783(4) 0.3011(3) 0.9319(2)
C2 C 0.3606(4) 0.2467(2) 0.40608(19)
C3 C 0.1347(4) 0.1244(2) 0.72452(19)
C4 C 0.4215(4) 0.0265(2) 0.54673(18)
F4 F -0.2037(3) 0.26609(16) 0.77927(13)
F5 F -0.1577(3) 0.06328(15) 0.89764(12)
C5 C -0.0177(4) 0.1856(2) 0.8315(2)
C6 C 0.5135(4) 0.1967(2) 0.31537(19)
H1 H 0.5451 0.2538 0.2372
N1 N 0.1647(3) 0.2134(2) 0.61850(16)
N2 N 0.2243(3) -0.0075(2) 0.75366(17)
C7 C 0.3721(4) -0.0575(2) 0.66255(19)
C8 C 0.3110(4) 0.1632(2) 0.52715(18)
Br1A Br 0.79604(4) -0.42374(2) 0.62564(2)
F1A F 0.9618(3) -0.34161(18) -0.02734(13)
F2A F 0.6249(3) -0.23234(17) 0.01645(13)
F3A F 0.7007(3) -0.43323(16) 0.12666(14)
C1A C 0.8217(4) -0.3011(3) 0.0681(2)
C2A C 0.6394(4) -0.2467(2) 0.59392(19)
C3A C 0.8653(4) -0.1244(2) 0.27548(19)
C4A C 0.5785(4) -0.0265(2) 0.45327(18)
F4A F 1.2037(3) -0.26609(16) 0.22073(13)
F5A F 1.1577(3) -0.06328(15) 0.10236(12)
C5A C 1.0177(4) -0.1856(2) 0.1685(2)
C6A C 0.4865(4) -0.1967(2) 0.68463(19)
H1A H 0.4549 -0.2538 0.7628
N1A N 0.8353(3) -0.2134(2) 0.38150(16)
N2A N 0.7757(3) 0.0075(2) 0.24634(17)
C7A C 0.6279(4) 0.0575(2) 0.33745(19)
C8A C 0.6890(4) -0.1632(2) 0.47285(18)
loop_
_geom_bond_atom_site_label_1
_geom_bond_atom_site_label_2
_geom_bond_site_symmetry_1
_geom_bond_site_symmetry_2
Br1 C2 1_555 1_555
F1 C1 1_555 1_555
F2 C1 1_555 1_555
F3 C1 1_555 1_555
C1 C5 1_555 1_555
C2 C6 1_555 1_555
C3 C5 1_555 1_555
C4 C7 1_555 1_555
F4 C5 1_555 1_555
F5 C5 1_555 1_555
C6 H1 1_555 1_555
N1 C3 1_555 1_555
N2 C3 1_555 1_555
C7 N2 1_555 1_555
C8 C2 1_555 1_555
Br1A C2A 1_555 1_555
F1A C1A 1_555 1_555
F2A C1A 1_555 1_555
F3A C1A 1_555 1_555
C1A C5A 1_555 1_555
C2A C6A 1_555 1_555
C3A C5A 1_555 1_555
C4A C4 1_555 1_555
F4A C5A 1_555 1_555
F5A C5A 1_555 1_555
C6A C7 1_555 1_555
H1A C6A 1_555 1_555
N1A C3A 1_555 1_555
N2A C3A 1_555 1_555
C7A C6 1_555 1_555
C8A C2A 1_555 1_555
C4 C8 1_555 1_555
N1 C8 1_555 1_555
C4A C7A 1_555 1_555
C4A C8A 1_555 1_555
N1A C8A 1_555 1_555
N2A C7A 1_555 1_555

#END
