
#######################################################################
#
#                 Cambridge Crystallographic Data Centre
#                                CCDC 
#
#######################################################################
#
# If this CIF has been generated from an entry in the Cambridge 
# Structural Database, then it will include bibliographic, chemical, 
# crystal, experimental, refinement or atomic coordinate data resulting 
# from the CCDC's data processing and validation procedures.
#
#######################################################################

data_SEPDEY
_chemical_formula_moiety         'C14 Cl4 F6 N4'
_chemical_name_systematic        
4,5,9,10-Tetrachloro-2,7-bis(trifluoromethyl)pyrimido[4,5,6-gh]perimidine
_symmetry_cell_setting           triclinic
_symmetry_space_group_name_H-M   'P -1'
_symmetry_Int_Tables_number      2
_space_group_name_Hall           '-P 1'
loop_
_symmetry_equiv_pos_site_id
_symmetry_equiv_pos_as_xyz
1 x,y,z
2 -x,-y,-z
_cell_length_a                   5.101(3)
_cell_length_b                   7.908(4)
_cell_length_c                   9.882(5)
_cell_angle_alpha                80.425(11)
_cell_angle_beta                 82.339(7)
_cell_angle_gamma                76.700(13)
_cell_volume                     380.65
_exptl_crystal_colour            colorless
_exptl_crystal_description       irregular
_cell_formula_units_Z            1
loop_
_atom_site_label
_atom_site_type_symbol
_atom_site_fract_x
_atom_site_fract_y
_atom_site_fract_z
Cl1 Cl -1.05068(10) 0.38202(6) 0.84020(5)
Cl2 Cl -1.00750(9) 0.13753(6) 0.61487(5)
F1 F -0.8026(3) 0.91345(17) 0.91282(13)
F2 F -0.4563(3) 1.0069(2) 0.81311(15)
F3 F -0.4091(3) 0.7673(2) 0.95665(16)
N1 N -0.6970(3) 0.6377(2) 0.77073(16)
N2 N -0.3707(3) 0.7868(2) 0.63018(16)
C1 C -0.6800(4) 0.5350(2) 0.67380(18)
C2 C -0.8398(4) 0.4011(2) 0.69274(18)
C3 C -0.8211(4) 0.2956(2) 0.59400(18)
C4 C -0.3557(4) 0.6843(2) 0.53271(18)
C5 C -0.5086(4) 0.5539(2) 0.55071(18)
C6 C -0.5404(4) 0.7550(2) 0.74184(19)
C7 C -0.5516(4) 0.8629(3) 0.8574(2)
Cl1A Cl 0.05068(10) 0.61798(6) 0.15980(5)
Cl2A Cl 0.00750(9) 0.86247(6) 0.38513(5)
F1A F -0.1974(3) 0.08655(17) 0.08718(13)
F2A F -0.5437(3) -0.0069(2) 0.18689(15)
F3A F -0.5909(3) 0.2327(2) 0.04335(16)
N1A N -0.3030(3) 0.3623(2) 0.22927(16)
N2A N -0.6293(3) 0.2132(2) 0.36982(16)
C1A C -0.3200(4) 0.4650(2) 0.32620(18)
C2A C -0.1602(4) 0.5989(2) 0.30726(18)
C3A C -0.1789(4) 0.7044(2) 0.40600(18)
C4A C -0.6443(4) 0.3157(2) 0.46729(18)
C5A C -0.4914(4) 0.4461(2) 0.44929(18)
C6A C -0.4596(4) 0.2450(2) 0.25816(19)
C7A C -0.4484(4) 0.1371(3) 0.1426(2)
loop_
_geom_bond_atom_site_label_1
_geom_bond_atom_site_label_2
_geom_bond_site_symmetry_1
_geom_bond_site_symmetry_2
Cl1 C2 1_555 1_555
Cl2 C3 1_555 1_555
F1 C7 1_555 1_555
F2 C7 1_555 1_555
F3 C7 1_555 1_555
N1 C1 1_555 1_555
N2 C4 1_555 1_555
C1 C2 1_555 1_555
C2 C3 1_555 1_555
C3 C4A 1_555 1_555
C4 C5 1_555 1_555
C5 C1 1_555 1_555
C6 N1 1_555 1_555
C7 C6 1_555 1_555
Cl1A C2A 1_555 1_555
Cl2A C3A 1_555 1_555
F1A C7A 1_555 1_555
F2A C7A 1_555 1_555
F3A C7A 1_555 1_555
N1A C1A 1_555 1_555
N2A C4A 1_555 1_555
C1A C2A 1_555 1_555
C2A C3A 1_555 1_555
C3A C4 1_555 1_555
C4A C5A 1_555 1_555
C5A C5 1_555 1_555
C6A N1A 1_555 1_555
C7A C6A 1_555 1_555
N2 C6 1_555 1_555
N2A C6A 1_555 1_555
C1A C5A 1_555 1_555

#END
