
#######################################################################
#
#                 Cambridge Crystallographic Data Centre
#                                CCDC 
#
#######################################################################
#
# If this CIF has been generated from an entry in the Cambridge 
# Structural Database, then it will include bibliographic, chemical, 
# crystal, experimental, refinement or atomic coordinate data resulting 
# from the CCDC's data processing and validation procedures.
#
#######################################################################

data_SEPDAU
_chemical_formula_moiety         'C24 Br4 F10 N4,2(C7 H8)'
_chemical_name_systematic        
'4,5,9,10-Tetrabromo-2,7-bis(pentafluorophenyl)pyrimido[4,5,6-gh]perimidine toluene solvate'
_symmetry_cell_setting           monoclinic
_symmetry_space_group_name_H-M   'P 21/c'
_symmetry_Int_Tables_number      14
_space_group_name_Hall           '-P 2ybc'
loop_
_symmetry_equiv_pos_site_id
_symmetry_equiv_pos_as_xyz
1 x,y,z
2 -x,1/2+y,1/2-z
3 -x,-y,-z
4 x,1/2-y,1/2+z
_cell_length_a                   10.572(2)
_cell_length_b                   12.965(4)
_cell_length_c                   12.987(3)
_cell_angle_alpha                90
_cell_angle_beta                 107.308(6)
_cell_angle_gamma                90
_cell_volume                     1699.47
_exptl_crystal_colour            yellow
_exptl_crystal_description       plate
_cell_formula_units_Z            2
_exptl_crystal_recrystallization_method toluene
loop_
_atom_site_label
_atom_site_type_symbol
_atom_site_fract_x
_atom_site_fract_y
_atom_site_fract_z
Br1 Br 0.83989(4) 0.70815(3) 0.60435(3)
Br2 Br 0.30932(4) 0.27912(3) 0.66103(3)
F1 F 0.5581(2) 0.56831(19) 0.9285(2)
F2 F 0.6847(3) 0.5477(2) 1.1415(2)
F3 F 0.9123(3) 0.4378(2) 1.20769(19)
F4 F 1.0195(2) 0.35555(19) 1.06107(19)
F5 F 0.8983(2) 0.38044(18) 0.84930(18)
N1 N 0.7069(3) 0.5492(2) 0.7102(3)
N2 N 0.5447(3) 0.4257(2) 0.7282(3)
C1 C 0.6454(4) 0.5556(3) 0.6040(3)
C2 C 0.6938(4) 0.6245(3) 0.5366(3)
C3 C 0.3674(4) 0.3694(3) 0.5726(3)
C4 C 0.4833(4) 0.4324(3) 0.6219(3)
C5 C 0.5321(4) 0.4968(3) 0.5560(3)
C6 C 0.6536(4) 0.4844(3) 0.7652(3)
C7 C 0.7243(4) 0.4751(3) 0.8832(3)
C8 C 0.6730(4) 0.5167(3) 0.9601(3)
C9 C 0.7366(4) 0.5067(3) 1.0689(3)
C10 C 0.8535(4) 0.4524(3) 1.1024(3)
C11 C 0.9070(4) 0.4092(3) 1.0286(3)
C12 C 0.8431(4) 0.4214(3) 0.9199(3)
Br1B Br 0.16011(4) 0.29185(3) 0.39565(3)
Br2B Br 0.69068(4) 0.72088(3) 0.33897(3)
F1B F 0.4419(2) 0.43169(19) 0.0715(2)
F2B F 0.3153(3) 0.4523(2) -0.1415(2)
F3B F 0.0877(3) 0.5622(2) -0.20769(19)
F4B F -0.0195(2) 0.64445(19) -0.06107(19)
F5B F 0.1017(2) 0.61956(18) 0.15070(18)
N1B N 0.2931(3) 0.4508(2) 0.2898(3)
N2B N 0.4553(3) 0.5743(2) 0.2718(3)
C1B C 0.3546(4) 0.4444(3) 0.3960(3)
C2B C 0.3062(4) 0.3755(3) 0.4634(3)
C3B C 0.6326(4) 0.6306(3) 0.4274(3)
C4B C 0.5167(4) 0.5676(3) 0.3781(3)
C5B C 0.4679(4) 0.5032(3) 0.4440(3)
C6B C 0.3464(4) 0.5156(3) 0.2348(3)
C7B C 0.2757(4) 0.5249(3) 0.1168(3)
C8B C 0.3270(4) 0.4833(3) 0.0399(3)
C9B C 0.2634(4) 0.4933(3) -0.0689(3)
C10B C 0.1465(4) 0.5476(3) -0.1024(3)
C11B C 0.0930(4) 0.5908(3) -0.0286(3)
C12B C 0.1569(4) 0.5786(3) 0.0801(3)
C13 C 0.1706(4) 0.6469(3) 0.4618(4)
C14 C 0.2228(5) 0.6396(4) 0.5723(4)
H1 H 0.1770 0.6006 0.6119
C15 C 0.3395(5) 0.6875(4) 0.6265(4)
H2 H 0.3732 0.6814 0.7027
C16 C 0.4086(5) 0.7450(3) 0.5704(4)
H3 H 0.4887 0.7790 0.6077
C17 C 0.3589(5) 0.7516(3) 0.4599(4)
H4 H 0.4063 0.7892 0.4205
C18 C 0.2416(4) 0.7044(3) 0.4059(4)
H5 H 0.2081 0.7108 0.3297
C19 C 0.0421(5) 0.5962(4) 0.4001(4)
H6 H 0.0604 0.5277 0.3759
H7 H -0.0026 0.6386 0.3373
H8 H -0.0149 0.5893 0.4470
loop_
_geom_bond_atom_site_label_1
_geom_bond_atom_site_label_2
_geom_bond_site_symmetry_1
_geom_bond_site_symmetry_2
Br1 C2 1_555 1_555
Br2 C3 1_555 1_555
F1 C8 1_555 1_555
F2 C9 1_555 1_555
F3 C10 1_555 1_555
F4 C11 1_555 1_555
F5 C12 1_555 1_555
N1 C1 1_555 1_555
N2 C4 1_555 1_555
C1 C2 1_555 1_555
C2 C3B 1_555 1_555
C3 C4 1_555 1_555
C4 C5 1_555 1_555
C5 C1 1_555 1_555
C6 N1 1_555 1_555
C7 C6 1_555 1_555
C8 C7 1_555 1_555
C9 C8 1_555 1_555
C10 C9 1_555 1_555
C11 C10 1_555 1_555
C12 C7 1_555 1_555
C13 C14 1_555 1_555
C14 H1 1_555 1_555
C15 C14 1_555 1_555
H2 C15 1_555 1_555
C16 C15 1_555 1_555
H3 C16 1_555 1_555
C17 C16 1_555 1_555
H4 C17 1_555 1_555
C18 C13 1_555 1_555
H5 C18 1_555 1_555
C19 C13 1_555 1_555
H6 C19 1_555 1_555
H7 C19 1_555 1_555
H8 C19 1_555 1_555
Br1B C2B 1_555 1_555
Br2B C3B 1_555 1_555
F1B C8B 1_555 1_555
F2B C9B 1_555 1_555
F3B C10B 1_555 1_555
F4B C11B 1_555 1_555
F5B C12B 1_555 1_555
N1B C1B 1_555 1_555
N2B C4B 1_555 1_555
C1B C2B 1_555 1_555
C2B C3 1_555 1_555
C3B C4B 1_555 1_555
C4B C5B 1_555 1_555
C5B C5 1_555 1_555
C6B N1B 1_555 1_555
C7B C6B 1_555 1_555
C8B C7B 1_555 1_555
C9B C8B 1_555 1_555
C10B C9B 1_555 1_555
C11B C10B 1_555 1_555
C12B C7B 1_555 1_555
N2 C6 1_555 1_555
C11 C12 1_555 1_555
C17 C18 1_555 1_555
N2B C6B 1_555 1_555
C1B C5B 1_555 1_555
C11B C12B 1_555 1_555

#END
