
#######################################################################
#
#                 Cambridge Crystallographic Data Centre
#                                CCDC 
#
#######################################################################
#
# If this CIF has been generated from an entry in the Cambridge 
# Structural Database, then it will include bibliographic, chemical, 
# crystal, experimental, refinement or atomic coordinate data resulting 
# from the CCDC's data processing and validation procedures.
#
#######################################################################

data_SEPJON
_chemical_formula_moiety         'C20 H23 N1 O4'
_chemical_name_systematic        
'Ethyl 3-methyl-7-(phthalimido)bicyclo(3.3.0)octane-3-carboxylate'
_symmetry_cell_setting           triclinic
_symmetry_space_group_name_H-M   'P -1'
_symmetry_Int_Tables_number      2
_space_group_name_Hall           '-P 1'
loop_
_symmetry_equiv_pos_site_id
_symmetry_equiv_pos_as_xyz
1 x,y,z
2 -x,-y,-z
_cell_length_a                   7.9775(10)
_cell_length_b                   9.5843(12)
_cell_length_c                   13.0250(17)
_cell_angle_alpha                77.3050(10)
_cell_angle_beta                 77.6140(10)
_cell_angle_gamma                83.7510(10)
_cell_volume                     946.925
_exptl_crystal_colour            colorless
_exptl_crystal_description       rectangular
_cell_formula_units_Z            2
loop_
_atom_site_label
_atom_site_type_symbol
_atom_site_fract_x
_atom_site_fract_y
_atom_site_fract_z
C1 C 0.8926(9) 0.8846(7) 0.8650(5)
H1 H 1.0094 0.8626 0.8791
C2 C 0.8476(10) 1.0468(8) 0.8624(6)
H2 H 0.8783 1.0750 0.9227
H3 H 0.7259 1.0707 0.8637
C3 C 0.9595(10) 1.1216(8) 0.7528(5)
H4 H 0.8960 1.2074 0.7203
C4 C 1.1427(11) 1.1598(9) 0.7601(5)
H5 H 1.1419 1.2602 0.7629
H6 H 1.1780 1.1021 0.8240
C5 C 1.2675(10) 1.1272(9) 0.6574(6)
C6 C 1.1943(10) 0.9861(8) 0.6466(6)
H7 H 1.2281 0.9712 0.5735
H8 H 1.2369 0.9036 0.6942
C7 C 0.9930(10) 1.0084(8) 0.6787(5)
H9 H 0.9441 1.0459 0.6144
C8 C 0.8990(10) 0.8715(8) 0.7475(5)
H10 H 0.7841 0.8724 0.7336
H11 H 0.9636 0.7842 0.7321
C9 C 0.5912(9) 0.7852(8) 0.9637(5)
C10 C 0.5363(9) 0.6605(8) 1.0558(5)
C11 C 0.3703(9) 0.6101(8) 1.1029(6)
H12 H 0.2722 0.6558 1.0797
C12 C 0.3611(11) 0.4870(9) 1.1868(6)
H13 H 0.2544 0.4521 1.2201
C13 C 0.5091(11) 0.4166(9) 1.2208(6)
H14 H 0.4998 0.3349 1.2750
C14 C 0.6736(10) 0.4697(9) 1.1728(5)
H15 H 0.7719 0.4243 1.1959
C15 C 0.6845(9) 0.5910(8) 1.0903(5)
C16 C 0.8400(9) 0.6717(7) 1.0236(5)
C17 C 1.4625(12) 1.1073(12) 0.6684(8)
H16 H 1.4994 1.1965 0.6748
H17 H 1.5316 1.0776 0.6059
H18 H 1.4751 1.0357 0.7311
C18 C 1.2578(10) 1.2461(9) 0.5568(6)
C19 C 1.2531(11) 1.5015(9) 0.4866(6)
H19 H 1.1667 1.4934 0.4464
H20 H 1.3647 1.5048 0.4389
C20 C 1.2134(12) 1.6349(10) 0.5341(7)
H21 H 1.2126 1.7180 0.4774
H22 H 1.2997 1.6414 0.5738
H23 H 1.1027 1.6300 0.5812
N1 N 0.7764(7) 0.7847(6) 0.9489(4)
O1 O 0.5004(7) 0.8709(6) 0.9111(4)
O2 O 0.9934(6) 0.6497(6) 1.0302(4)
O3 O 1.2601(10) 1.2265(7) 0.4673(4)
O4 O 1.2522(8) 1.3795(6) 0.5779(4)
loop_
_geom_bond_atom_site_label_1
_geom_bond_atom_site_label_2
_geom_bond_site_symmetry_1
_geom_bond_site_symmetry_2
C1 H1 1_555 1_555
C2 C1 1_555 1_555
H2 C2 1_555 1_555
H3 C2 1_555 1_555
C3 C2 1_555 1_555
H4 C3 1_555 1_555
C4 C3 1_555 1_555
H5 C4 1_555 1_555
H6 C4 1_555 1_555
C5 C4 1_555 1_555
C6 C5 1_555 1_555
H7 C6 1_555 1_555
H8 C6 1_555 1_555
C7 C3 1_555 1_555
H9 C7 1_555 1_555
C8 C1 1_555 1_555
H10 C8 1_555 1_555
H11 C8 1_555 1_555
C9 C10 1_555 1_555
C10 C11 1_555 1_555
C11 H12 1_555 1_555
C12 C11 1_555 1_555
H13 C12 1_555 1_555
C13 C12 1_555 1_555
H14 C13 1_555 1_555
C14 C13 1_555 1_555
H15 C14 1_555 1_555
C15 C10 1_555 1_555
C16 C15 1_555 1_555
C17 C5 1_555 1_555
H16 C17 1_555 1_555
H17 C17 1_555 1_555
H18 C17 1_555 1_555
C18 C5 1_555 1_555
C19 H19 1_555 1_555
H20 C19 1_555 1_555
C20 C19 1_555 1_555
H21 C20 1_555 1_555
H22 C20 1_555 1_555
H23 C20 1_555 1_555
N1 C1 1_555 1_555
O1 C9 1_555 1_555
O2 C16 1_555 1_555
O3 C18 1_555 1_555
O4 C18 1_555 1_555
C6 C7 1_555 1_555
C7 C8 1_555 1_555
C9 N1 1_555 1_555
C14 C15 1_555 1_555
C16 N1 1_555 1_555
C19 O4 1_555 1_555

#END
