
#######################################################################
#
#                 Cambridge Crystallographic Data Centre
#                                CCDC 
#
#######################################################################
#
# If this CIF has been generated from an entry in the Cambridge 
# Structural Database, then it will include bibliographic, chemical, 
# crystal, experimental, refinement or atomic coordinate data resulting 
# from the CCDC's data processing and validation procedures.
#
#######################################################################

data_SEPKON
_chemical_formula_moiety         'C27 H28 N8 O4,C12 H20 N2 O3'
_chemical_name_systematic        
'(4S,6S)-2-Amino-4,6-bis(1-methoxycarbonyl-2-indolylethylamino)-1,3,5-triazine 5,5-di-n-butylbarbituric acid'
_symmetry_cell_setting           orthorhombic
_symmetry_space_group_name_H-M   'P 21 21 21'
_symmetry_Int_Tables_number      19
_space_group_name_Hall           'P 2ac 2ab'
loop_
_symmetry_equiv_pos_site_id
_symmetry_equiv_pos_as_xyz
1 x,y,z
2 1/2-x,-y,1/2+z
3 1/2+x,1/2-y,-z
4 -x,1/2+y,1/2-z
_cell_length_a                   17.158(5)
_cell_length_b                   15.624(4)
_cell_length_c                   14.742(4)
_cell_angle_alpha                90
_cell_angle_beta                 90
_cell_angle_gamma                90
_cell_volume                     3951.99
_exptl_crystal_colour            colorless
_cell_formula_units_Z            4
loop_
_atom_site_label
_atom_site_type_symbol
_atom_site_fract_x
_atom_site_fract_y
_atom_site_fract_z
N1 N 0.4206(2) 0.5965(2) 0.4671(3)
C1 C 0.4634(2) 0.6687(3) 0.4787(3)
N2 N 0.5408(2) 0.6723(2) 0.4858(3)
C2 C 0.5775(2) 0.5961(3) 0.4772(3)
N3 N 0.5423(2) 0.5214(2) 0.4609(2)
C3 C 0.4642(2) 0.5246(3) 0.4593(3)
N4 N 0.4242(2) 0.7419(2) 0.4860(3)
N5 N 0.6539(2) 0.5936(2) 0.4875(3)
C4 C 0.6987(2) 0.5167(3) 0.4721(4)
C5 C 0.7699(3) 0.5179(3) 0.5350(4)
O1 O 0.7887(2) 0.5746(2) 0.5822(3)
O2 O 0.8095(2) 0.4453(2) 0.5238(3)
C6 C 0.8797(3) 0.4386(4) 0.5785(5)
C7 C 0.7203(3) 0.5034(3) 0.3728(4)
C8 C 0.7719(3) 0.5729(3) 0.3388(4)
C9 C 0.8505(3) 0.5712(4) 0.3368(6)
N6 N 0.8797(3) 0.6483(3) 0.3073(5)
C10 C 0.8177(3) 0.7027(3) 0.2905(5)
C11 C 0.8174(3) 0.7864(4) 0.2629(5)
C12 C 0.7479(4) 0.8268(4) 0.2547(4)
C13 C 0.6793(3) 0.7843(3) 0.2739(4)
C14 C 0.6784(3) 0.6995(3) 0.2989(3)
C15 C 0.7504(3) 0.6569(3) 0.3112(4)
N7 N 0.4286(2) 0.4495(2) 0.4480(3)
C16 C 0.4739(2) 0.3704(3) 0.4539(3)
C17 C 0.5332(2) 0.3614(3) 0.3809(3)
O3 O 0.5964(2) 0.3254(2) 0.3929(2)
O4 O 0.5111(2) 0.3886(2) 0.2999(2)
C18 C 0.5636(3) 0.3715(4) 0.2238(4)
C19 C 0.4214(2) 0.2913(3) 0.4459(3)
C20 C 0.3664(2) 0.2745(3) 0.5212(3)
C21 C 0.2874(3) 0.2686(3) 0.5132(4)
N8 N 0.2544(2) 0.2443(2) 0.5954(3)
C22 C 0.3118(2) 0.2313(3) 0.6561(4)
C23 C 0.3077(3) 0.2039(3) 0.7449(4)
C24 C 0.3759(3) 0.1946(3) 0.7915(4)
C25 C 0.4479(3) 0.2118(4) 0.7516(4)
C26 C 0.4531(3) 0.2393(3) 0.6639(4)
C27 C 0.3829(3) 0.2503(3) 0.6127(4)
H1 H 0.4515 0.7942 0.4942
H2 H 0.3689 0.7418 0.4830
H3 H 0.6804 0.6442 0.5057
H4 H 0.6672 0.4686 0.4863
H5 H 0.9046 0.3854 0.5668
H6 H 0.9142 0.4841 0.5637
H7 H 0.8663 0.4419 0.6410
H8 H 0.6740 0.5025 0.3375
H9 H 0.7467 0.4503 0.3668
H10 H 0.8815 0.5233 0.3535
H11 H 0.9332 0.6619 0.2997
H12 H 0.8648 0.8154 0.2498
H13 H 0.7463 0.8849 0.2356
H14 H 0.6313 0.8145 0.2698
H15 H 0.6305 0.6702 0.3077
H16 H 0.3742 0.4473 0.4363
H17 H 0.4989 0.3738 0.5112
H18 H 0.5416 0.3939 0.1696
H19 H 0.6125 0.3981 0.2347
H20 H 0.5707 0.3115 0.2176
H21 H 0.4543 0.2427 0.4406
H22 H 0.3914 0.2974 0.3921
H23 H 0.2590 0.2794 0.4591
H24 H 0.2002 0.2380 0.6069
H25 H 0.2590 0.1918 0.7727
H26 H 0.3743 0.1758 0.8527
H27 H 0.4942 0.2044 0.7861
H28 H 0.5024 0.2508 0.6373
N9 N 0.2524(2) 0.5994(2) 0.4741(3)
C28 C 0.2124(2) 0.6743(3) 0.4870(3)
N10 N 0.1330(2) 0.6691(2) 0.4937(3)
C29 C 0.0892(2) 0.5969(3) 0.4851(3)
C30 C 0.1309(2) 0.5135(3) 0.4647(4)
C31 C 0.2187(2) 0.5207(3) 0.4613(3)
O5 O 0.2466(1) 0.7427(2) 0.4927(2)
O6 O 0.0190(2) 0.5998(2) 0.4918(3)
C32 C 0.1040(3) 0.4833(3) 0.3712(4)
C33 C 0.1267(3) 0.5428(3) 0.2931(4)
C34 C 0.0998(4) 0.5151(4) 0.1996(4)
C35 C 0.0124(4) 0.5133(5) 0.1916(5)
C36 C 0.1107(2) 0.4482(3) 0.5405(4)
C37 C 0.1363(3) 0.4744(4) 0.6361(4)
C38 C 0.1232(3) 0.4093(4) 0.7120(5)
C39 C 0.0407(4) 0.3884(4) 0.7284(4)
O7 O 0.2597(2) 0.4586(2) 0.4454(3)
H29 H 0.3077 0.6021 0.4740
H30 H 0.1058 0.7209 0.5054
H31 H 0.0488 0.4786 0.3722
H32 H 0.1262 0.4287 0.3600
H33 H 0.1819 0.5468 0.2921
H34 H 0.1050 0.5976 0.3051
H35 H 0.1194 0.4593 0.1877
H36 H 0.1200 0.5540 0.1560
H37 H -0.0019 0.4957 0.1322
H38 H -0.0084 0.4743 0.2347
H39 H -0.0078 0.5689 0.2029
H40 H 0.1353 0.3954 0.5261
H41 H 0.0558 0.4406 0.5411
H42 H 0.1086 0.5250 0.6518
H43 H 0.1906 0.4866 0.6339
H44 H 0.1446 0.4318 0.7665
H45 H 0.1498 0.3580 0.6964
H46 H 0.0371 0.3478 0.7762
H47 H 0.0134 0.4390 0.7449
H48 H 0.0185 0.3651 0.6748
loop_
_geom_bond_atom_site_label_1
_geom_bond_atom_site_label_2
_geom_bond_site_symmetry_1
_geom_bond_site_symmetry_2
N1 C1 1_555 1_555
C1 N2 1_555 1_555
N2 C2 1_555 1_555
C2 N3 1_555 1_555
N3 C3 1_555 1_555
C3 N1 1_555 1_555
N4 C1 1_555 1_555
N5 C2 1_555 1_555
C4 N5 1_555 1_555
C5 C4 1_555 1_555
O1 C5 1_555 1_555
O2 C5 1_555 1_555
C6 O2 1_555 1_555
C7 C4 1_555 1_555
C8 C7 1_555 1_555
C9 C8 1_555 1_555
N6 C9 1_555 1_555
C10 N6 1_555 1_555
C11 C10 1_555 1_555
C12 C11 1_555 1_555
C13 C12 1_555 1_555
C14 C13 1_555 1_555
C15 C8 1_555 1_555
N7 C3 1_555 1_555
C16 N7 1_555 1_555
C17 C16 1_555 1_555
O3 C17 1_555 1_555
O4 C17 1_555 1_555
C18 O4 1_555 1_555
C19 C16 1_555 1_555
C20 C19 1_555 1_555
C21 C20 1_555 1_555
N8 C21 1_555 1_555
C22 N8 1_555 1_555
C23 C22 1_555 1_555
C24 C23 1_555 1_555
C25 C24 1_555 1_555
C26 C25 1_555 1_555
C27 C20 1_555 1_555
N9 C28 1_555 1_555
C28 N10 1_555 1_555
N10 C29 1_555 1_555
C29 C30 1_555 1_555
C30 C31 1_555 1_555
C31 N9 1_555 1_555
O5 C28 1_555 1_555
O6 C29 1_555 1_555
C32 C30 1_555 1_555
C33 C32 1_555 1_555
C34 C33 1_555 1_555
C35 C34 1_555 1_555
C36 C30 1_555 1_555
C37 C36 1_555 1_555
C38 C37 1_555 1_555
C39 C38 1_555 1_555
O7 C31 1_555 1_555
H1 N4 1_555 1_555
H2 N4 1_555 1_555
H3 N5 1_555 1_555
H4 C4 1_555 1_555
H5 C6 1_555 1_555
H6 C6 1_555 1_555
H7 C6 1_555 1_555
H8 C7 1_555 1_555
H9 C7 1_555 1_555
H10 C9 1_555 1_555
H11 N6 1_555 1_555
H12 C11 1_555 1_555
H13 C12 1_555 1_555
H14 C13 1_555 1_555
H15 C14 1_555 1_555
H16 N7 1_555 1_555
H17 C16 1_555 1_555
H18 C18 1_555 1_555
H19 C18 1_555 1_555
H20 C18 1_555 1_555
H21 C19 1_555 1_555
H22 C19 1_555 1_555
H23 C21 1_555 1_555
H24 N8 1_555 1_555
H25 C23 1_555 1_555
H26 C24 1_555 1_555
H27 C25 1_555 1_555
H28 C26 1_555 1_555
H29 N9 1_555 1_555
H30 N10 1_555 1_555
H31 C32 1_555 1_555
H32 C32 1_555 1_555
H33 C33 1_555 1_555
H34 C33 1_555 1_555
H35 C34 1_555 1_555
H36 C34 1_555 1_555
H37 C35 1_555 1_555
H38 C35 1_555 1_555
H39 C35 1_555 1_555
H40 C36 1_555 1_555
H41 C36 1_555 1_555
H42 C37 1_555 1_555
H43 C37 1_555 1_555
H44 C38 1_555 1_555
H45 C38 1_555 1_555
H46 C39 1_555 1_555
H47 C39 1_555 1_555
H48 C39 1_555 1_555
C10 C15 1_555 1_555
C14 C15 1_555 1_555
C22 C27 1_555 1_555
C26 C27 1_555 1_555

#END
