
#######################################################################
#
#                 Cambridge Crystallographic Data Centre
#                                CCDC 
#
#######################################################################
#
# If this CIF has been generated from an entry in the Cambridge 
# Structural Database, then it will include bibliographic, chemical, 
# crystal, experimental, refinement or atomic coordinate data resulting 
# from the CCDC's data processing and validation procedures.
#
#######################################################################

data_SEPMAC
_chemical_formula_moiety         'C22 H26 O5'
_chemical_name_systematic        
9-Ethoxy-3,4,10-trimethoxy-5,14-dihydro-8H-13-oxadibenzo(a,e)cyclodecene
_symmetry_cell_setting           monoclinic
_symmetry_space_group_name_H-M   'P 21/c'
_symmetry_Int_Tables_number      14
_space_group_name_Hall           '-P 2ybc'
loop_
_symmetry_equiv_pos_site_id
_symmetry_equiv_pos_as_xyz
1 x,y,z
2 -x,1/2+y,1/2-z
3 -x,-y,-z
4 x,1/2-y,1/2+z
_cell_length_a                   9.5067(8)
_cell_length_b                   6.6759(5)
_cell_length_c                   29.995(2)
_cell_angle_alpha                90
_cell_angle_beta                 98.239(1)
_cell_angle_gamma                90
_cell_volume                     1884.01
_exptl_crystal_colour            colorless
_exptl_crystal_description       prism
_chemical_melting_point          '143 deg.C'
_cell_formula_units_Z            4
loop_
_atom_site_label
_atom_site_type_symbol
_atom_site_fract_x
_atom_site_fract_y
_atom_site_fract_z
O1 O 0.1193(1) 0.3782(2) 0.26050(4)
O2 O 0.0577(1) 0.3723(2) 0.44153(5)
O3 O 0.1720(1) 0.6892(2) 0.40635(4)
O4 O 0.3231(1) 0.3587(2) 0.06726(4)
O5 O 0.3623(1) 0.6603(2) 0.12607(4)
C1 C 0.2088(2) 0.2300(3) 0.24507(6)
C2 C 0.1111(2) 0.3630(3) 0.30675(6)
C3 C 0.1588(2) 0.5262(3) 0.33401(6)
C4 C 0.2303(2) 0.6989(3) 0.31371(6)
C5 C 0.3721(2) 0.6344(3) 0.30198(6)
C6 C 0.4058(2) 0.6023(3) 0.26114(6)
C7 C 0.3145(2) 0.6381(3) 0.21671(6)
C8 C 0.2899(2) 0.4595(3) 0.18529(6)
C9 C 0.2349(2) 0.2754(3) 0.19808(6)
C10 C 0.0535(2) 0.1967(3) 0.32436(7)
C11 C 0.0375(2) 0.1910(3) 0.36964(7)
C12 C 0.0764(2) 0.3555(3) 0.39703(7)
C13 C 0.1382(2) 0.5220(3) 0.37903(6)
C14 C 0.3166(2) 0.4785(3) 0.14101(6)
C15 C 0.2930(2) 0.3207(3) 0.10992(7)
C16 C 0.2398(2) 0.1421(3) 0.12329(7)
C17 C 0.2105(2) 0.1225(3) 0.16660(7)
C18 C -0.0271(2) 0.2211(4) 0.45838(7)
C19 C 0.3083(2) 0.6761(3) 0.43317(7)
C20 C 0.3225(3) 0.8483(4) 0.46529(8)
C21 C 0.2953(3) 0.1995(3) 0.03571(7)
C22 C 0.5109(2) 0.6670(3) 0.12345(8)
H1 H 0.1648 0.1024 0.2458
H2 H 0.2974 0.2277 0.2646
H3 H 0.1711 0.7430 0.2871
H4 H 0.2429 0.8064 0.3348
H5 H 0.4461 0.6154 0.3265
H6 H 0.4982 0.5509 0.2598
H7 H 0.2245 0.6832 0.2227
H8 H 0.3583 0.7405 0.2014
H9 H 0.0244 0.0854 0.3054
H10 H -0.0007 0.0755 0.3820
H11 H 0.2240 0.0327 0.1027
H12 H 0.1712 0.0000 0.1754
H13 H -0.1155 0.2049 0.4391
H14 H 0.0216 0.0969 0.4610
H15 H -0.0430 0.2767 0.4897
H16 H 0.3812 0.6820 0.4144
H17 H 0.3167 0.5535 0.4495
H18 H 0.3024 0.9684 0.4485
H19 H 0.4168 0.8530 0.4807
H20 H 0.2562 0.8396 0.4879
H21 H 0.3203 0.2433 0.0078
H22 H 0.3524 0.0891 0.0466
H23 H 0.1878 0.1533 0.0304
H24 H 0.5383 0.5479 0.1097
H25 H 0.5333 0.7900 0.1047
H26 H 0.5619 0.6771 0.1531
loop_
_geom_bond_atom_site_label_1
_geom_bond_atom_site_label_2
_geom_bond_site_symmetry_1
_geom_bond_site_symmetry_2
O1 C1 1_555 1_555
O2 C12 1_555 1_555
O3 C13 1_555 1_555
O4 C15 1_555 1_555
O5 C14 1_555 1_555
C1 C9 1_555 1_555
C2 O1 1_555 1_555
C3 C2 1_555 1_555
C4 C3 1_555 1_555
C5 C4 1_555 1_555
C6 C5 1_555 1_555
C7 C6 1_555 1_555
C8 C7 1_555 1_555
C9 C8 1_555 1_555
C10 C2 1_555 1_555
C11 C10 1_555 1_555
C12 C11 1_555 1_555
C13 C3 1_555 1_555
C14 C8 1_555 1_555
C15 C14 1_555 1_555
C16 C15 1_555 1_555
C17 C9 1_555 1_555
C18 O2 1_555 1_555
C19 O3 1_555 1_555
C20 C19 1_555 1_555
C21 O4 1_555 1_555
C22 O5 1_555 1_555
H1 C1 1_555 1_555
H2 C1 1_555 1_555
H3 C4 1_555 1_555
H4 C4 1_555 1_555
H5 C5 1_555 1_555
H6 C6 1_555 1_555
H7 C7 1_555 1_555
H8 C7 1_555 1_555
H9 C10 1_555 1_555
H10 C11 1_555 1_555
H11 C16 1_555 1_555
H12 C17 1_555 1_555
H13 C18 1_555 1_555
H14 C18 1_555 1_555
H15 C18 1_555 1_555
H16 C19 1_555 1_555
H17 C19 1_555 1_555
H18 C20 1_555 1_555
H19 C20 1_555 1_555
H20 C20 1_555 1_555
H21 C21 1_555 1_555
H22 C21 1_555 1_555
H23 C21 1_555 1_555
H24 C22 1_555 1_555
H25 C22 1_555 1_555
H26 C22 1_555 1_555
C12 C13 1_555 1_555
C16 C17 1_555 1_555

#END
