
#######################################################################
#
#                 Cambridge Crystallographic Data Centre
#                                CCDC 
#
#######################################################################
#
# If this CIF has been generated from an entry in the Cambridge 
# Structural Database, then it will include bibliographic, chemical, 
# crystal, experimental, refinement or atomic coordinate data resulting 
# from the CCDC's data processing and validation procedures.
#
#######################################################################

data_SEPMEH
_chemical_formula_moiety         'C31 H38 N4 O6 S2,4(H2 O1)'
_chemical_name_systematic        
'4-(3,6-bis(Diethylamino)-xanthenium-9-yl)-3-(piperazin-1-ylsulfonyl)benzenesulfonate tetrahydrate'
_symmetry_cell_setting           monoclinic
_symmetry_space_group_name_H-M   'P 21/c'
_symmetry_Int_Tables_number      14
_space_group_name_Hall           '-P 2ybc'
loop_
_symmetry_equiv_pos_site_id
_symmetry_equiv_pos_as_xyz
1 x,y,z
2 -x,1/2+y,1/2-z
3 -x,-y,-z
4 x,1/2-y,1/2+z
_cell_length_a                   12.613(2)
_cell_length_b                   19.375(3)
_cell_length_c                   14.109(2)
_cell_angle_alpha                90
_cell_angle_beta                 95.196(4)
_cell_angle_gamma                90
_cell_volume                     3433.74
_exptl_crystal_colour            red
_exptl_crystal_description       block
_cell_formula_units_Z            4
loop_
_atom_site_label
_atom_site_type_symbol
_atom_site_fract_x
_atom_site_fract_y
_atom_site_fract_z
O3 O 0.1839(8) 0.3484(6) 0.1296(7)
O5 O 0.0746(7) 0.4077(8) 0.2762(6)
O7 O 0.9569(7) 0.5245(5) 0.2354(7)
O8 O 0.0969(10) 0.4410(6) 0.9710(7)
S1 S 0.78840(9) 0.20928(7) 0.20932(9)
S2 S 1.15067(9) 0.12754(7) 0.06168(8)
O9 O 0.4466(2) 0.09369(15) 0.0497(2)
O10 O 0.6757(3) 0.1972(2) 0.2008(2)
O11 O 0.8281(3) 0.27719(18) 0.1953(3)
O12 O 1.1762(3) 0.1987(2) 0.0802(3)
O13 O 1.1892(3) 0.0807(2) 0.1368(2)
O14 O 1.1759(3) 0.10535(19) -0.0312(2)
N1 N 0.4621(4) -0.0993(4) 0.2586(6)
N2 N 0.4012(6) 0.2986(6) -0.1300(11)
N3 N 0.8322(3) 0.1856(2) 0.3159(3)
N4 N 0.9152(4) 0.1365(4) 0.4952(4)
H1 H 0.920(6) 0.130(4) 0.5580(17)
C1 C 0.6688(3) 0.1027(2) 0.0577(3)
C2 C 0.6211(3) 0.0494(2) 0.1061(3)
C3 C 0.6779(3) -0.0010(2) 0.1642(3)
H2 H 0.7519 -0.0010 0.1691
C4 C 0.6255(4) -0.0490(2) 0.2127(3)
H3 H 0.6642 -0.0817 0.2498
C5 C 0.5119(4) -0.0499(2) 0.2073(3)
C6 C 0.4542(3) -0.0024(2) 0.1481(3)
H4 H 0.3802 -0.0037 0.1411
C7 C 0.5084(3) 0.0460(2) 0.1010(3)
C8 C 0.6048(3) 0.1502(2) 0.0042(3)
C9 C 0.6434(3) 0.2057(2) -0.0478(3)
H5 H 0.7165 0.2099 -0.0511
C10 C 0.5784(4) 0.2528(3) -0.0928(3)
H6 H 0.6069 0.2879 -0.1277
C11 C 0.4664(4) 0.2492(2) -0.0873(3)
C12 C 0.4239(4) 0.1934(2) -0.0396(3)
H7 H 0.3508 0.1887 -0.0374
C13 C 0.4929(3) 0.1461(2) 0.0035(3)
C14 C 0.7874(3) 0.1098(2) 0.0637(3)
C15 C 0.8463(3) 0.1545(2) 0.1266(3)
C16 C 0.9561(3) 0.1606(2) 0.1246(3)
H8 H 0.9945 0.1902 0.1667
C17 C 1.0082(3) 0.1225(2) 0.0600(3)
C18 C 0.9510(3) 0.0798(2) -0.0041(3)
H9 H 0.9854 0.0558 -0.0495
C19 C 0.8418(3) 0.0728(2) -0.0006(3)
H10 H 0.8043 0.0425 -0.0424
C20 C 0.3444(4) -0.1032(3) 0.2515(4)
H11 H 0.3243 -0.1496 0.2685
H12 H 0.3179 -0.0958 0.1855
C21 C 0.2895(4) -0.0532(3) 0.3118(4)
H13 H 0.3204 -0.0561 0.3765
H14 H 0.2152 -0.0643 0.3093
H15 H 0.2979 -0.0072 0.2884
C22 C 0.5213(6) -0.1325(4) 0.3455(5)
H16 H 0.4748 -0.1360 0.3964
H17 H 0.5824 -0.1046 0.3677
C23 C 0.5578(6) -0.2046(4) 0.3175(6)
H18 H 0.4972 -0.2311 0.2928
H19 H 0.5920 -0.2274 0.3725
H20 H 0.6070 -0.2005 0.2697
C24 C 0.2893(5) 0.3044(4) -0.1046(6)
H21 H 0.2668 0.3523 -0.1056
H22 H 0.2829 0.2858 -0.0415
C25 C 0.2221(6) 0.2632(5) -0.1786(6)
H23 H 0.2237 0.2849 -0.2396
H24 H 0.1500 0.2615 -0.1618
H25 H 0.2498 0.2172 -0.1812
C26 C 0.4431(5) 0.3577(3) -0.1810(5)
H26 H 0.3861 0.3767 -0.2240
H27 H 0.4981 0.3414 -0.2192
C27 C 0.4886(6) 0.4144(4) -0.1164(6)
H28 H 0.4341 0.4319 -0.0796
H29 H 0.5145 0.4509 -0.1540
H30 H 0.5461 0.3963 -0.0744
C28 C 0.9399(4) 0.2075(3) 0.3555(4)
H31 H 0.9542 0.2542 0.3354
H32 H 0.9935 0.1772 0.3332
C29 C 0.9427(5) 0.2041(4) 0.4632(5)
H33 H 1.0135 0.2161 0.4909
H34 H 0.8932 0.2377 0.4849
C30 C 0.8093(5) 0.1158(4) 0.4561(4)
H35 H 0.7567 0.1472 0.4777
H36 H 0.7937 0.0697 0.4778
C31 C 0.8041(4) 0.1169(3) 0.3473(4)
H37 H 0.8531 0.0831 0.3254
H38 H 0.7327 0.1052 0.3207
O1? O 0.1938(10) 0.4544(6) 0.0950(9)
O2? O 0.2195(15) 0.3293(10) 0.1554(17)
O4? O 0.0801(14) 0.3510(9) 0.3071(11)
O6? O 0.9215(11) 0.5739(8) 0.2058(10)
N5? N 0.4585(8) -0.0893(10) 0.2699(13)
N6? N 0.3985(9) 0.3027(8) -0.1224(17)
C32? C 0.5047(13) -0.1580(7) 0.2928(11)
H39? H 0.5675 -0.1680 0.2603
H40? H 0.4535 -0.1954 0.2844
C33? C 0.5299(17) -0.1363(11) 0.3966(11)
H41? H 0.5636 -0.1739 0.4320
H42? H 0.4651 -0.1242 0.4234
H43? H 0.5769 -0.0972 0.3997
C34? C 0.2850(12) 0.2867(9) -0.1564(12)
H44? H 0.2671 0.2384 -0.1492
H45? H 0.2658 0.3017 -0.2213
C35? C 0.239(2) 0.3331(11) -0.0826(15)
H46? H 0.1627 0.3304 -0.0899
H47? H 0.2608 0.3799 -0.0917
H48? H 0.2647 0.3181 -0.0198
loop_
_geom_bond_atom_site_label_1
_geom_bond_atom_site_label_2
_geom_bond_site_symmetry_1
_geom_bond_site_symmetry_2
S1 O10 1_555 1_555
S2 O12 1_555 1_555
O9 C7 1_555 1_555
O11 S1 1_555 1_555
O13 S2 1_555 1_555
O14 S2 1_555 1_555
N1 C5 1_555 1_555
N2 C11 1_555 1_555
N3 S1 1_555 1_555
N4 H1 1_555 1_555
C1 C2 1_555 1_555
C2 C3 1_555 1_555
C3 H2 1_555 1_555
C4 C3 1_555 1_555
H3 C4 1_555 1_555
C5 C4 1_555 1_555
C6 C5 1_555 1_555
H4 C6 1_555 1_555
C7 C2 1_555 1_555
C8 C1 1_555 1_555
C9 C8 1_555 1_555
H5 C9 1_555 1_555
C10 C9 1_555 1_555
H6 C10 1_555 1_555
C11 C10 1_555 1_555
C12 C11 1_555 1_555
H7 C12 1_555 1_555
C13 O9 1_555 1_555
C14 C1 1_555 1_555
C15 S1 1_555 1_555
C16 C15 1_555 1_555
H8 C16 1_555 1_555
C17 S2 1_555 1_555
C18 C17 1_555 1_555
H9 C18 1_555 1_555
C19 C14 1_555 1_555
H10 C19 1_555 1_555
C20 N1 1_555 1_555
H11 C20 1_555 1_555
H12 C20 1_555 1_555
C21 C20 1_555 1_555
H13 C21 1_555 1_555
H14 C21 1_555 1_555
H15 C21 1_555 1_555
C22 N1 1_555 1_555
H16 C22 1_555 1_555
H17 C22 1_555 1_555
C23 C22 1_555 1_555
H18 C23 1_555 1_555
H19 C23 1_555 1_555
H20 C23 1_555 1_555
C24 N2 1_555 1_555
H21 C24 1_555 1_555
H22 C24 1_555 1_555
C25 C24 1_555 1_555
H23 C25 1_555 1_555
H24 C25 1_555 1_555
H25 C25 1_555 1_555
C26 N2 1_555 1_555
H26 C26 1_555 1_555
H27 C26 1_555 1_555
C27 C26 1_555 1_555
H28 C27 1_555 1_555
H29 C27 1_555 1_555
H30 C27 1_555 1_555
C28 N3 1_555 1_555
H31 C28 1_555 1_555
H32 C28 1_555 1_555
C29 N4 1_555 1_555
H33 C29 1_555 1_555
H34 C29 1_555 1_555
C30 N4 1_555 1_555
H35 C30 1_555 1_555
H36 C30 1_555 1_555
C31 N3 1_555 1_555
H37 C31 1_555 1_555
H38 C31 1_555 1_555
C6 C7 1_555 1_555
C8 C13 1_555 1_555
C12 C13 1_555 1_555
C14 C15 1_555 1_555
C16 C17 1_555 1_555
C18 C19 1_555 1_555
C28 C29 1_555 1_555
C30 C31 1_555 1_555

#END
