
#######################################################################
#
#                 Cambridge Crystallographic Data Centre
#                                CCDC 
#
#######################################################################
#
# If this CIF has been generated from an entry in the Cambridge 
# Structural Database, then it will include bibliographic, chemical, 
# crystal, experimental, refinement or atomic coordinate data resulting 
# from the CCDC's data processing and validation procedures.
#
#######################################################################

data_SEPRUD
_chemical_formula_moiety         'C31 H40 N6 2+,2(F6 P1 1-)'
_chemical_name_systematic        
"2,2'-((4-(2,2':6',2''-terpyridin-4'-yl)phenyl)imino)bis(N,N,N-trimethylethanaminium) bis(hexafluorophosphate)"
_symmetry_cell_setting           triclinic
_symmetry_space_group_name_H-M   'P -1'
_symmetry_Int_Tables_number      2
_space_group_name_Hall           '-P 1'
loop_
_symmetry_equiv_pos_site_id
_symmetry_equiv_pos_as_xyz
1 x,y,z
2 -x,-y,-z
_cell_length_a                   10.209(5)
_cell_length_b                   11.144(5)
_cell_length_c                   16.786(5)
_cell_angle_alpha                86.685(5)
_cell_angle_beta                 88.554(5)
_cell_angle_gamma                71.457(5)
_cell_volume                     1807.51
_exptl_crystal_colour            yellow
_exptl_crystal_description       block
_cell_formula_units_Z            2
loop_
_atom_site_label
_atom_site_type_symbol
_atom_site_fract_x
_atom_site_fract_y
_atom_site_fract_z
P1 P 0.15533(12) 0.21266(11) 0.06283(6)
F1 F 0.2423(3) 0.1927(3) -0.01825(15)
F2 F 0.0684(4) 0.2322(3) 0.14196(19)
F3 F 0.0865(3) 0.1136(3) 0.0378(2)
F4 F 0.2773(4) 0.1028(4) 0.10177(19)
F5 F 0.0370(3) 0.3220(3) 0.0223(2)
F6 F 0.2265(4) 0.3082(4) 0.0878(2)
P2 P 0.45880(11) 0.62101(12) 0.21266(6)
F7 F 0.5879(3) 0.5029(3) 0.2398(2)
F8 F 0.5276(3) 0.6151(3) 0.12785(16)
F9 F 0.3279(4) 0.7284(4) 0.1847(2)
F10 F 0.3900(3) 0.5213(4) 0.1853(3)
F11 F 0.5389(4) 0.7049(4) 0.2419(3)
F12 F 0.3896(4) 0.6207(5) 0.2966(2)
C1 C -0.0578(3) -0.0259(3) 0.28021(18)
C2 C 0.3391(3) 0.0553(3) 0.55804(18)
C3 C 0.0954(3) 0.0541(3) 0.39261(18)
N1 N 0.3337(3) 0.1767(3) 0.55856(15)
N2 N -0.1350(3) -0.0679(3) 0.22677(18)
C4 C 0.4347(3) -0.0334(3) 0.61681(18)
C5 C 0.2519(3) 0.2587(3) 0.50509(18)
N3 N -0.0532(3) -0.4246(3) 0.23158(18)
N4 N 0.4441(3) -0.1563(3) 0.61657(17)
C6 C -0.0307(4) 0.1324(3) 0.3642(2)
H1 H -0.0656 0.2139 0.3824
C7 C 0.2627(4) 0.0128(3) 0.50576(19)
H2 H 0.2691 -0.0725 0.5076
C8 C 0.2557(4) 0.3911(3) 0.50453(19)
C9 C 0.1724(4) 0.2224(3) 0.45135(19)
H3 H 0.1160 0.2825 0.4157
C10 C 0.1766(4) 0.0970(3) 0.45064(18)
C11 C 0.1445(4) -0.0649(3) 0.3618(2)
H4 H 0.2299 -0.1196 0.3786
C12 C -0.1065(4) 0.0941(3) 0.3100(2)
H5 H -0.1915 0.1494 0.2932
N5 N -0.3163(3) 0.1838(3) 0.06771(18)
N6 N 0.1677(4) 0.4770(3) 0.4560(2)
C13 C -0.1106(4) -0.2902(3) 0.2549(2)
H6 H -0.0733 -0.2832 0.3064
H7 H -0.2100 -0.2688 0.2610
C14 C 0.0711(4) -0.1045(3) 0.3072(2)
H8 H 0.1077 -0.1851 0.2880
C15 C -0.0792(4) -0.1943(3) 0.1956(2)
H9 H 0.0199 -0.2155 0.1877
H10 H -0.1209 -0.1960 0.1445
C16 C -0.2536(4) 0.0195(3) 0.1859(2)
H11 H -0.3057 0.0829 0.2219
H12 H -0.3136 -0.0259 0.1685
C17 C -0.2043(4) 0.0829(4) 0.1148(2)
H13 H -0.1553 0.0181 0.0789
H14 H -0.1386 0.1216 0.1332
C18 C -0.1157(5) -0.4422(4) 0.1549(2)
H15 H -0.0879 -0.3942 0.1122
H16 H -0.2146 -0.4133 0.1597
H17 H -0.0845 -0.5303 0.1436
C19 C 0.6095(4) -0.1984(5) 0.7217(2)
H18 H 0.6683 -0.2574 0.7569
C20 C 0.5989(4) -0.0721(4) 0.7218(2)
H19 H 0.6507 -0.0442 0.7569
C21 C 0.3472(5) 0.4217(4) 0.5523(2)
H20 H 0.4080 0.3596 0.5850
C22 C 0.5100(4) 0.0120(4) 0.6688(2)
H21 H 0.5005 0.0979 0.6677
C23 C 0.5315(4) -0.2359(4) 0.6686(2)
H22 H 0.5400 -0.3216 0.6688
C24 C 0.2577(6) 0.6331(4) 0.5029(3)
H23 H 0.2553 0.7173 0.5013
C25 C -0.0936(5) -0.5080(4) 0.2951(3)
H24 H -0.0619 -0.5943 0.2798
H25 H -0.1923 -0.4807 0.3011
H26 H -0.0523 -0.5020 0.3449
C26 C 0.1709(6) 0.5963(4) 0.4568(3)
H27 H 0.1101 0.6577 0.4237
C27 C 0.3474(6) 0.5451(5) 0.5512(3)
H28 H 0.4082 0.5677 0.5830
C28 C 0.0994(4) -0.4674(4) 0.2254(4)
H29 H 0.1273 -0.4215 0.1816
H30 H 0.1323 -0.5564 0.2166
H31 H 0.1375 -0.4520 0.2740
C29 C -0.4224(5) 0.1295(5) 0.0405(4)
H32 H -0.4754 0.1136 0.0856
H33 H -0.3775 0.0515 0.0155
H34 H -0.4826 0.1885 0.0030
C30 C -0.2494(6) 0.2216(7) -0.0042(3)
H35 H -0.3141 0.2929 -0.0318
H36 H -0.2200 0.1521 -0.0388
H37 H -0.1708 0.2442 0.0112
C31 C -0.3806(8) 0.2931(5) 0.1155(4)
H38 H -0.4525 0.3542 0.0853
H39 H -0.3123 0.3307 0.1294
H40 H -0.4192 0.2660 0.1634
loop_
_geom_bond_atom_site_label_1
_geom_bond_atom_site_label_2
_geom_bond_site_symmetry_1
_geom_bond_site_symmetry_2
P1 F1 1_555 1_555
F2 P1 1_555 1_555
F3 P1 1_555 1_555
F4 P1 1_555 1_555
F5 P1 1_555 1_555
F6 P1 1_555 1_555
P2 F7 1_555 1_555
F8 P2 1_555 1_555
F9 P2 1_555 1_555
F10 P2 1_555 1_555
F11 P2 1_555 1_555
F12 P2 1_555 1_555
C1 N2 1_555 1_555
C2 N1 1_555 1_555
C3 C6 1_555 1_555
N1 C5 1_555 1_555
N2 C15 1_555 1_555
C4 C2 1_555 1_555
C5 C8 1_555 1_555
N3 C13 1_555 1_555
N4 C4 1_555 1_555
C6 H1 1_555 1_555
C7 C2 1_555 1_555
H2 C7 1_555 1_555
C8 N6 1_555 1_555
C9 C5 1_555 1_555
H3 C9 1_555 1_555
C10 C3 1_555 1_555
C11 C3 1_555 1_555
H4 C11 1_555 1_555
C12 C1 1_555 1_555
H5 C12 1_555 1_555
N5 C17 1_555 1_555
N6 C26 1_555 1_555
C13 H6 1_555 1_555
H7 C13 1_555 1_555
C14 C1 1_555 1_555
H8 C14 1_555 1_555
C15 C13 1_555 1_555
H9 C15 1_555 1_555
H10 C15 1_555 1_555
C16 N2 1_555 1_555
H11 C16 1_555 1_555
H12 C16 1_555 1_555
C17 C16 1_555 1_555
H13 C17 1_555 1_555
H14 C17 1_555 1_555
C18 N3 1_555 1_555
H15 C18 1_555 1_555
H16 C18 1_555 1_555
H17 C18 1_555 1_555
C19 H18 1_555 1_555
C20 C19 1_555 1_555
H19 C20 1_555 1_555
C21 C8 1_555 1_555
H20 C21 1_555 1_555
C22 C4 1_555 1_555
H21 C22 1_555 1_555
C23 N4 1_555 1_555
H22 C23 1_555 1_555
C24 H23 1_555 1_555
C25 N3 1_555 1_555
H24 C25 1_555 1_555
H25 C25 1_555 1_555
H26 C25 1_555 1_555
C26 C24 1_555 1_555
H27 C26 1_555 1_555
C27 C21 1_555 1_555
H28 C27 1_555 1_555
C28 N3 1_555 1_555
H29 C28 1_555 1_555
H30 C28 1_555 1_555
H31 C28 1_555 1_555
C29 N5 1_555 1_555
H32 C29 1_555 1_555
H33 C29 1_555 1_555
H34 C29 1_555 1_555
C30 N5 1_555 1_555
H35 C30 1_555 1_555
H36 C30 1_555 1_555
H37 C30 1_555 1_555
C31 N5 1_555 1_555
H38 C31 1_555 1_555
H39 C31 1_555 1_555
H40 C31 1_555 1_555
C6 C12 1_555 1_555
C7 C10 1_555 1_555
C9 C10 1_555 1_555
C11 C14 1_555 1_555
C19 C23 1_555 1_555
C20 C22 1_555 1_555
C24 C27 1_555 1_555

#END
