
#######################################################################
#
#                 Cambridge Crystallographic Data Centre
#                                CCDC 
#
#######################################################################
#
# If this CIF has been generated from an entry in the Cambridge 
# Structural Database, then it will include bibliographic, chemical, 
# crystal, experimental, refinement or atomic coordinate data resulting 
# from the CCDC's data processing and validation procedures.
#
#######################################################################

data_SEPSAI
_chemical_formula_moiety         'C28 H23 F1 N4 O7 S1'
_chemical_name_systematic        
6-(4-(Ethoxycarbonylmethoxy)phenoxy)-5-(2-fluorophenyl)-3-methylsulfonyl-1-phenylpyrazolo[3,4-d]pyrimidin-4-one
_chemical_properties_biological  
'herbicidal activity towards Brassica napus and Echinochloa crus-galli'
_symmetry_cell_setting           triclinic
_symmetry_space_group_name_H-M   'P -1'
_symmetry_Int_Tables_number      2
_space_group_name_Hall           '-P 1'
loop_
_symmetry_equiv_pos_site_id
_symmetry_equiv_pos_as_xyz
1 x,y,z
2 -x,-y,-z
_cell_length_a                   6.1399(6)
_cell_length_b                   14.7157(16)
_cell_length_c                   15.6131(16)
_cell_angle_alpha                94.936(2)
_cell_angle_beta                 97.150(2)
_cell_angle_gamma                98.288(2)
_cell_volume                     1377.31
_exptl_crystal_colour            colorless
_exptl_crystal_description       prism
_cell_formula_units_Z            2
loop_
_atom_site_label
_atom_site_type_symbol
_atom_site_fract_x
_atom_site_fract_y
_atom_site_fract_z
C1 C 1.2892(5) 0.5460(2) 0.08400(17)
H1 H 1.1990 0.5842 0.1120
H2 H 1.1956 0.4995 0.0434
H3 H 1.3893 0.5834 0.0538
C2 C 1.2344(4) 0.43677(17) 0.21803(15)
C3 C 1.0520(4) 0.36792(16) 0.18552(14)
C4 C 0.9626(4) 0.34443(16) 0.25903(14)
C5 C 1.0760(4) 0.39068(16) 0.41939(14)
C6 C 1.2740(4) 0.40791(18) 0.47579(16)
H4 H 1.4092 0.4217 0.4550
C7 C 1.2662(5) 0.40416(18) 0.56348(16)
H5 H 1.3969 0.4171 0.6024
C8 C 1.0659(5) 0.38138(18) 0.59359(16)
H6 H 1.0617 0.3787 0.6527
C9 C 0.8722(5) 0.3625(2) 0.53610(17)
H7 H 0.7375 0.3462 0.5565
C10 C 0.8764(4) 0.36775(18) 0.44786(16)
H8 H 0.7455 0.3558 0.4090
C11 C 0.9546(4) 0.31972(16) 0.10239(16)
C12 C 0.7116(4) 0.23118(16) 0.19009(15)
C13 C 0.6655(4) 0.1919(2) 0.03284(15)
C14 C 0.7562(5) 0.1182(2) 0.0008(2)
C15 C 0.6508(8) 0.0637(3) -0.0727(3)
H9 H 0.7122 0.0138 -0.0944
C16 C 0.4546(7) 0.0830(3) -0.1142(2)
H10 H 0.3832 0.0461 -0.1640
C17 C 0.3638(5) 0.1567(3) -0.0822(2)
H11 H 0.2310 0.1697 -0.1103
C18 C 0.4693(5) 0.2111(2) -0.0087(2)
H12 H 0.4078 0.2610 0.0130
F1 F 0.9426(4) 0.10034(15) 0.04388(14)
C25 C 0.4636(4) 0.14025(16) 0.26212(15)
C26 C 0.5596(4) 0.08426(17) 0.31550(16)
H17 H 0.6827 0.0591 0.3015
C27 C 0.2811(5) 0.17578(19) 0.28019(17)
H18 H 0.2143 0.2117 0.2417
C28 C 0.4731(4) 0.06528(18) 0.39025(16)
H19 H 0.5357 0.0260 0.4263
C29 C 0.1934(5) 0.15875(19) 0.35609(17)
H20 H 0.0690 0.1836 0.3692
C30 C 0.2942(4) 0.10430(17) 0.41177(16)
C31 C 0.0601(5) 0.13271(19) 0.51785(16)
H21 H -0.0799 0.1123 0.4804
H22 H 0.1028 0.1982 0.5144
C32 C 0.0319(5) 0.11664(19) 0.60910(18)
C33 C -0.1825(7) 0.1531(3) 0.7190(2)
H23 H -0.3365 0.1260 0.7183
H24 H -0.0906 0.1133 0.7479
C34 C -0.144(3) 0.2410(4) 0.7686(5)
H27 H 0.0131 0.2619 0.7819
H28 H -0.2071 0.2360 0.8216
H29 H -0.2119 0.2843 0.7358
N1 N 0.7917(3) 0.27646(13) 0.26436(12)
N2 N 0.7767(3) 0.24741(13) 0.11150(12)
N3 N 1.2573(3) 0.45381(14) 0.30277(12)
N4 N 1.0890(3) 0.39639(13) 0.32866(12)
O1 O 1.5808(4) 0.56170(16) 0.22170(13)
O2 O 1.5372(3) 0.42240(15) 0.11800(13)
O3 O 1.0032(3) 0.33203(12) 0.03123(10)
O4 O 0.5457(3) 0.15904(11) 0.18331(10)
O5 O 0.2240(3) 0.08429(12) 0.48925(11)
O6 O 0.1464(4) 0.07709(17) 0.65552(13)
O7 O -0.1377(4) 0.15445(15) 0.63097(12)
S1 S 1.44121(12) 0.49320(5) 0.16165(4)
C19? C 0.662(3) 0.1864(10) 0.0370(7)
C20? C 0.452(3) 0.1972(13) -0.0003(12)
C21? C 0.346(3) 0.1381(18) -0.0714(16)
H13? H 0.2045 0.1454 -0.0966
C22? C 0.448(4) 0.068(2) -0.105(2)
H14? H 0.3759 0.0284 -0.1529
C23? C 0.657(4) 0.057(2) -0.068(2)
H15? H 0.7261 0.0103 -0.0903
C24? C 0.764(3) 0.1165(19) 0.0034(18)
H16? H 0.9049 0.1092 0.0286
F2? F 0.367(4) 0.2668(16) 0.0354(16)
H25? H -0.0475 0.1706 0.7600
H26? H -0.2532 0.0923 0.7288
C35? C -0.332(3) 0.2245(9) 0.7304(10)
H30? H -0.3417 0.2376 0.7909
H31? H -0.4771 0.2016 0.6995
H32? H -0.2715 0.2801 0.7079
loop_
_geom_bond_atom_site_label_1
_geom_bond_atom_site_label_2
_geom_bond_site_symmetry_1
_geom_bond_site_symmetry_2
C1 H1 1_555 1_555
H2 C1 1_555 1_555
H3 C1 1_555 1_555
C2 C3 1_555 1_555
C3 C4 1_555 1_555
C4 N1 1_555 1_555
C5 C6 1_555 1_555
C6 H4 1_555 1_555
C7 C6 1_555 1_555
H5 C7 1_555 1_555
C8 C7 1_555 1_555
H6 C8 1_555 1_555
C9 C8 1_555 1_555
H7 C9 1_555 1_555
C10 C5 1_555 1_555
H8 C10 1_555 1_555
C11 C3 1_555 1_555
C12 N1 1_555 1_555
C13 C14 1_555 1_555
C14 C15 1_555 1_555
C15 H9 1_555 1_555
C16 C15 1_555 1_555
H10 C16 1_555 1_555
C17 C16 1_555 1_555
H11 C17 1_555 1_555
C18 C13 1_555 1_555
H12 C18 1_555 1_555
F1 C14 1_555 1_555
C25 C26 1_555 1_555
C26 H17 1_555 1_555
C27 C25 1_555 1_555
H18 C27 1_555 1_555
C28 C26 1_555 1_555
H19 C28 1_555 1_555
C29 C27 1_555 1_555
H20 C29 1_555 1_555
C30 C28 1_555 1_555
C31 H21 1_555 1_555
H22 C31 1_555 1_555
C32 C31 1_555 1_555
C33 H23 1_555 1_555
H24 C33 1_555 1_555
C34 C33 1_555 1_555
H27 C34 1_555 1_555
H28 C34 1_555 1_555
H29 C34 1_555 1_555
N2 C11 1_555 1_555
N3 C2 1_555 1_555
N4 C4 1_555 1_555
O1 S1 1_555 1_555
O2 S1 1_555 1_555
O3 C11 1_555 1_555
O4 C12 1_555 1_555
O5 C30 1_555 1_555
O6 C32 1_555 1_555
O7 C32 1_555 1_555
S1 C1 1_555 1_555
C2 S1 1_555 1_555
C5 N4 1_555 1_555
C9 C10 1_555 1_555
C12 N2 1_555 1_555
C13 N2 1_555 1_555
C17 C18 1_555 1_555
C25 O4 1_555 1_555
C29 C30 1_555 1_555
C31 O5 1_555 1_555
C33 O7 1_555 1_555
N3 N4 1_555 1_555

#END
