
#######################################################################
#
#                 Cambridge Crystallographic Data Centre
#                                CCDC 
#
#######################################################################
#
# If this CIF has been generated from an entry in the Cambridge 
# Structural Database, then it will include bibliographic, chemical, 
# crystal, experimental, refinement or atomic coordinate data resulting 
# from the CCDC's data processing and validation procedures.
#
#######################################################################

data_SEPSEN
_chemical_formula_moiety         'C39 H50 O9 Si1'
_chemical_name_systematic        
'Methyl 9-(2-((t-butyl(diphenyl)silyl)oxy)ethyl)-6-(2-((2-methoxyethoxy)methoxy)ethyl)-15-oxo-2,14-dioxatetracyclo[7.4.2.0^1,8^.0^5,13^]pentadeca-7,11-diene-11-carboxylate'
_symmetry_cell_setting           triclinic
_symmetry_space_group_name_H-M   'P -1'
_symmetry_Int_Tables_number      2
_space_group_name_Hall           '-P 1'
loop_
_symmetry_equiv_pos_site_id
_symmetry_equiv_pos_as_xyz
1 x,y,z
2 -x,-y,-z
_cell_length_a                   7.2074(2)
_cell_length_b                   15.3803(4)
_cell_length_c                   16.4727(5)
_cell_angle_alpha                78.3311(3)
_cell_angle_beta                 83.2943(3)
_cell_angle_gamma                87.9616(3)
_cell_volume                     1775.92
_exptl_crystal_colour            colorless
_exptl_crystal_description       plate
_cell_formula_units_Z            2
loop_
_atom_site_label
_atom_site_type_symbol
_atom_site_fract_x
_atom_site_fract_y
_atom_site_fract_z
Si1 Si 0.44124(5) 0.28942(2) -0.13051(2)
O1 O 0.47316(14) 0.11543(6) 0.14812(6)
O2 O 0.62656(15) 0.38415(7) 0.08534(7)
O3 O 0.57863(14) 0.24614(6) 0.15737(6)
O4 O 0.33300(17) 0.35184(7) 0.43710(6)
O5 O 0.23418(16) 0.45950(7) 0.33899(6)
O6 O 0.38669(13) 0.32197(6) -0.04144(6)
O7 O -0.24476(15) 0.01328(7) 0.37754(6)
O8 O -0.17424(16) -0.12157(7) 0.46538(6)
O9 O 0.20414(16) -0.19863(7) 0.44079(7)
C1 C 0.3493(2) 0.04132(9) 0.17189(9)
H1 H 0.4033 -0.0087 0.1470
H2 H 0.2282 0.0581 0.1498
C2 C 0.3169(2) 0.01187(9) 0.26570(9)
H3 H 0.4348 -0.0119 0.2875
H4 H 0.2231 -0.0359 0.2806
C3 C 0.2472(2) 0.09113(9) 0.30476(9)
H5 H 0.2279 0.0710 0.3668
C4 C 0.40597(19) 0.16101(9) 0.28235(9)
H6 H 0.5247 0.1310 0.2995
C5 C 0.37031(19) 0.23930(9) 0.32456(9)
H7 H 0.3838 0.2251 0.3825
C6 C 0.32353(19) 0.32478(9) 0.29784(8)
C7 C 0.2748(2) 0.37767(9) 0.21396(8)
H8 H 0.3479 0.4330 0.2010
H9 H 0.1413 0.3952 0.2211
C8 C 0.30663(19) 0.33335(8) 0.13593(8)
C9 C 0.5183(2) 0.32741(9) 0.11877(8)
C10 C 0.42547(19) 0.18699(9) 0.18854(9)
C11 C 0.24940(19) 0.23820(8) 0.16781(8)
C12 C 0.08287(19) 0.20919(9) 0.20476(8)
H10 H -0.0254 0.2411 0.1870
C13 C 0.05819(19) 0.12763(9) 0.27381(8)
H11 H 0.0009 0.0803 0.2515
C14 C 0.30061(19) 0.37779(9) 0.36602(8)
C15 C 0.2050(3) 0.51518(11) 0.39993(10)
H12 H 0.1568 0.5733 0.3740
H13 H 0.3238 0.5228 0.4210
H14 H 0.1146 0.4874 0.4462
C16 C 0.2108(2) 0.38820(9) 0.06399(8)
H15 H 0.0823 0.4036 0.0854
H16 H 0.2793 0.4443 0.0426
C17 C 0.2014(2) 0.34053(9) -0.00739(8)
H17 H 0.1323 0.2844 0.0130
H18 H 0.1343 0.3781 -0.0511
C18 C 0.36342(19) 0.37804(9) -0.21693(9)
C19 C 0.3230(2) 0.46353(9) -0.20164(10)
H19 H 0.3329 0.4750 -0.1478
C20 C 0.2687(2) 0.53186(11) -0.26381(12)
H20 H 0.2415 0.5892 -0.2520
C21 C 0.2542(3) 0.51662(12) -0.34237(12)
H21 H 0.2153 0.5632 -0.3845
C22 C 0.2961(3) 0.43372(12) -0.35993(11)
H22 H 0.2880 0.4232 -0.4143
C23 C 0.3501(2) 0.36571(11) -0.29780(9)
H23 H 0.3790 0.3089 -0.3106
C24 C 0.32948(19) 0.17948(9) -0.12402(8)
C25 C 0.3054(2) 0.12198(9) -0.04606(9)
H24 H 0.3395 0.1411 0.0014
C26 C 0.2329(2) 0.03768(10) -0.03654(10)
H25 H 0.2176 0.0002 0.0171
C27 C 0.1828(2) 0.00792(10) -0.10450(10)
H26 H 0.1336 -0.0499 -0.0979
C28 C 0.2051(2) 0.06295(10) -0.18187(10)
H27 H 0.1717 0.0430 -0.2291
C29 C 0.2762(2) 0.14744(10) -0.19108(9)
H28 H 0.2891 0.1847 -0.2449
C30 C 0.70335(19) 0.27716(9) -0.14281(9)
C31 C 0.7934(2) 0.36764(10) -0.15002(11)
H29 H 0.9297 0.3608 -0.1566
H30 H 0.7538 0.3909 -0.0995
H31 H 0.7541 0.4090 -0.1986
C32 C 0.7675(2) 0.21209(11) -0.06721(11)
H32 H 0.9039 0.2062 -0.0742
H33 H 0.7116 0.1539 -0.0629
H34 H 0.7277 0.2346 -0.0163
C33 C 0.7659(2) 0.24144(12) -0.22221(11)
H35 H 0.9023 0.2352 -0.2289
H36 H 0.7259 0.2829 -0.2706
H37 H 0.7094 0.1834 -0.2179
C34 C -0.0796(2) 0.15109(10) 0.34529(9)
H38 H -0.0196 0.1941 0.3710
H39 H -0.1911 0.1806 0.3216
C35 C -0.1421(2) 0.07203(10) 0.41259(9)
H40 H -0.0319 0.0405 0.4357
H41 H -0.2220 0.0923 0.4585
C36 C -0.3123(2) -0.06031(10) 0.43762(11)
H42 H -0.3781 -0.0389 0.4862
H43 H -0.4048 -0.0910 0.4138
C37 C -0.1080(2) -0.17558(11) 0.40675(10)
H44 H -0.0501 -0.1378 0.3546
H45 H -0.2138 -0.2073 0.3931
C38 C 0.0327(2) -0.24117(10) 0.44337(10)
H46 H -0.0133 -0.2677 0.5018
H47 H 0.0509 -0.2895 0.4115
C39 C 0.3374(3) -0.25738(12) 0.48021(12)
H48 H 0.4545 -0.2259 0.4774
H49 H 0.3601 -0.3076 0.4518
H50 H 0.2898 -0.2793 0.5387
loop_
_geom_bond_atom_site_label_1
_geom_bond_atom_site_label_2
_geom_bond_site_symmetry_1
_geom_bond_site_symmetry_2
Si1 O6 1_555 1_555
O1 C1 1_555 1_555
O2 C9 1_555 1_555
O3 C9 1_555 1_555
O4 C14 1_555 1_555
O5 C14 1_555 1_555
O6 C17 1_555 1_555
O7 C35 1_555 1_555
O8 C36 1_555 1_555
O9 C38 1_555 1_555
C1 H1 1_555 1_555
H2 C1 1_555 1_555
C2 C1 1_555 1_555
H3 C2 1_555 1_555
H4 C2 1_555 1_555
C3 C2 1_555 1_555
H5 C3 1_555 1_555
C4 C3 1_555 1_555
H6 C4 1_555 1_555
C5 C4 1_555 1_555
H7 C5 1_555 1_555
C6 C5 1_555 1_555
C7 C6 1_555 1_555
H8 C7 1_555 1_555
H9 C7 1_555 1_555
C8 C7 1_555 1_555
C9 C8 1_555 1_555
C10 O1 1_555 1_555
C11 C8 1_555 1_555
C12 C11 1_555 1_555
H10 C12 1_555 1_555
C13 C3 1_555 1_555
H11 C13 1_555 1_555
C14 C6 1_555 1_555
C15 O5 1_555 1_555
H12 C15 1_555 1_555
H13 C15 1_555 1_555
H14 C15 1_555 1_555
C16 C8 1_555 1_555
H15 C16 1_555 1_555
H16 C16 1_555 1_555
C17 C16 1_555 1_555
H17 C17 1_555 1_555
H18 C17 1_555 1_555
C18 Si1 1_555 1_555
C19 C18 1_555 1_555
H19 C19 1_555 1_555
C20 C19 1_555 1_555
H20 C20 1_555 1_555
C21 C20 1_555 1_555
H21 C21 1_555 1_555
C22 C21 1_555 1_555
H22 C22 1_555 1_555
C23 C18 1_555 1_555
H23 C23 1_555 1_555
C24 Si1 1_555 1_555
C25 C24 1_555 1_555
H24 C25 1_555 1_555
C26 C25 1_555 1_555
H25 C26 1_555 1_555
C27 C26 1_555 1_555
H26 C27 1_555 1_555
C28 C27 1_555 1_555
H27 C28 1_555 1_555
C29 C24 1_555 1_555
H28 C29 1_555 1_555
C30 Si1 1_555 1_555
C31 C30 1_555 1_555
H29 C31 1_555 1_555
H30 C31 1_555 1_555
H31 C31 1_555 1_555
C32 C30 1_555 1_555
H32 C32 1_555 1_555
H33 C32 1_555 1_555
H34 C32 1_555 1_555
C33 C30 1_555 1_555
H35 C33 1_555 1_555
H36 C33 1_555 1_555
H37 C33 1_555 1_555
C34 C13 1_555 1_555
H38 C34 1_555 1_555
H39 C34 1_555 1_555
C35 C34 1_555 1_555
H40 C35 1_555 1_555
H41 C35 1_555 1_555
C36 O7 1_555 1_555
H42 C36 1_555 1_555
H43 C36 1_555 1_555
C37 O8 1_555 1_555
H44 C37 1_555 1_555
H45 C37 1_555 1_555
C38 C37 1_555 1_555
H46 C38 1_555 1_555
H47 C38 1_555 1_555
C39 O9 1_555 1_555
H48 C39 1_555 1_555
H49 C39 1_555 1_555
H50 C39 1_555 1_555
O3 C10 1_555 1_555
C4 C10 1_555 1_555
C10 C11 1_555 1_555
C12 C13 1_555 1_555
C22 C23 1_555 1_555
C28 C29 1_555 1_555

#END
