
#######################################################################
#
#                 Cambridge Crystallographic Data Centre
#                                CCDC 
#
#######################################################################
#
# If this CIF has been generated from an entry in the Cambridge 
# Structural Database, then it will include bibliographic, chemical, 
# crystal, experimental, refinement or atomic coordinate data resulting 
# from the CCDC's data processing and validation procedures.
#
#######################################################################

data_SEPSAJ
_chemical_formula_moiety         'C17 H15 Br1 N2 O2'
_chemical_name_systematic        
2-(4-Bromophenyl)-3-(dimethoxymethyl)quinoxaline
_symmetry_cell_setting           monoclinic
_symmetry_space_group_name_H-M   'P 21/c'
_symmetry_Int_Tables_number      14
_space_group_name_Hall           '-P 2ybc'
loop_
_symmetry_equiv_pos_site_id
_symmetry_equiv_pos_as_xyz
1 x,y,z
2 -x,1/2+y,1/2-z
3 -x,-y,-z
4 x,1/2-y,1/2+z
_cell_length_a                   10.1487(5)
_cell_length_b                   7.5675(4)
_cell_length_c                   20.4078(9)
_cell_angle_alpha                90
_cell_angle_beta                 94.563(2)
_cell_angle_gamma                90
_cell_volume                     1562.36
_exptl_crystal_colour            colorless
_exptl_crystal_description       chunk
_cell_formula_units_Z            4
loop_
_atom_site_label
_atom_site_type_symbol
_atom_site_fract_x
_atom_site_fract_y
_atom_site_fract_z
Br1 Br 0.87026(5) 0.22171(8) 0.46627(2)
O1 O 0.1596(2) -0.0142(4) 0.29063(12)
O2 O 0.2135(3) 0.2576(4) 0.34007(12)
N1 N 0.2234(3) 0.1673(4) 0.18625(14)
N2 N 0.4887(3) 0.2665(4) 0.17750(14)
C1 C 0.2687(3) 0.2122(5) 0.12742(17)
C2 C 0.4430(3) 0.2243(5) 0.23419(17)
C3 C 0.3085(3) 0.1711(5) 0.23852(16)
C4 C 0.4007(4) 0.2616(5) 0.12293(17)
C5 C 0.2585(3) 0.1132(5) 0.30304(16)
H1 H 0.3321 0.0572 0.3292
C6 C 0.5440(3) 0.2281(5) 0.29183(17)
C7 C 0.1822(4) 0.2059(6) 0.06983(18)
H2 H 0.0942 0.1743 0.0724
C8 C 0.6669(4) 0.1530(5) 0.28451(19)
H3 H 0.6843 0.1040 0.2443
C9 C 0.1335(5) -0.1118(6) 0.3474(2)
H4 H 0.2123 -0.1724 0.3640
H5 H 0.0648 -0.1964 0.3363
H6 H 0.1057 -0.0327 0.3804
C10 C 0.6191(4) 0.3090(6) 0.40283(19)
H7 H 0.6041 0.3632 0.4425
C11 C 0.4457(4) 0.3032(6) 0.06120(19)
H8 H 0.5333 0.3355 0.0579
C12 C 0.3596(4) 0.2959(6) 0.0062(2)
H9 H 0.3891 0.3243 -0.0345
C13 C 0.7638(4) 0.1503(6) 0.3363(2)
H10 H 0.8449 0.0967 0.3314
C14 C 0.5214(4) 0.3087(5) 0.35074(18)
H11 H 0.4406 0.3631 0.3556
C15 C 0.2272(4) 0.2459(6) 0.01049(19)
H12 H 0.1700 0.2401 -0.0274
C16 C 0.7385(4) 0.2275(5) 0.39464(19)
C17 C 0.0997(4) 0.3481(6) 0.3108(2)
H13 H 0.1257 0.4245 0.2765
H14 H 0.0606 0.4172 0.3436
H15 H 0.0366 0.2634 0.2926
loop_
_geom_bond_atom_site_label_1
_geom_bond_atom_site_label_2
_geom_bond_site_symmetry_1
_geom_bond_site_symmetry_2
Br1 C16 1_555 1_555
O1 C5 1_555 1_555
O2 C5 1_555 1_555
N1 C1 1_555 1_555
N2 C2 1_555 1_555
C1 C4 1_555 1_555
C2 C3 1_555 1_555
C3 N1 1_555 1_555
C4 N2 1_555 1_555
C5 C3 1_555 1_555
H1 C5 1_555 1_555
C6 C2 1_555 1_555
C7 C1 1_555 1_555
H2 C7 1_555 1_555
C8 C6 1_555 1_555
H3 C8 1_555 1_555
C9 O1 1_555 1_555
H4 C9 1_555 1_555
H5 C9 1_555 1_555
H6 C9 1_555 1_555
C10 H7 1_555 1_555
C11 C4 1_555 1_555
H8 C11 1_555 1_555
C12 C11 1_555 1_555
H9 C12 1_555 1_555
C13 C8 1_555 1_555
H10 C13 1_555 1_555
C14 C6 1_555 1_555
H11 C14 1_555 1_555
C15 C7 1_555 1_555
H12 C15 1_555 1_555
C16 C10 1_555 1_555
C17 O2 1_555 1_555
H13 C17 1_555 1_555
H14 C17 1_555 1_555
H15 C17 1_555 1_555
C10 C14 1_555 1_555
C12 C15 1_555 1_555
C13 C16 1_555 1_555

#END
