
#######################################################################
#
#                 Cambridge Crystallographic Data Centre
#                                CCDC 
#
#######################################################################
#
# If this CIF has been generated from an entry in the Cambridge 
# Structural Database, then it will include bibliographic, chemical, 
# crystal, experimental, refinement or atomic coordinate data resulting 
# from the CCDC's data processing and validation procedures.
#
#######################################################################

data_SEPSAK
_chemical_formula_moiety         'C31 H40 N6 2+,2(F6 P1 1-),0.5(H2 O1)'
_chemical_name_systematic        
"2,2'-((4-(3,2':6',3''-terpyridin-4'-yl)phenyl)imino)bis(N,N,N-trimethylethanaminium) bis(hexafluorophosphate) hemihydrate"
_symmetry_cell_setting           triclinic
_symmetry_space_group_name_H-M   'P -1'
_symmetry_Int_Tables_number      2
_space_group_name_Hall           '-P 1'
loop_
_symmetry_equiv_pos_site_id
_symmetry_equiv_pos_as_xyz
1 x,y,z
2 -x,-y,-z
_cell_length_a                   9.457(3)
_cell_length_b                   13.085(4)
_cell_length_c                   15.407(5)
_cell_angle_alpha                107.089(4)
_cell_angle_beta                 90.524(4)
_cell_angle_gamma                95.608(5)
_cell_volume                     1812.2
_exptl_crystal_colour            yellow
_exptl_crystal_description       block
_cell_formula_units_Z            2
loop_
_atom_site_label
_atom_site_type_symbol
_atom_site_fract_x
_atom_site_fract_y
_atom_site_fract_z
P1 P 0.66354(19) 0.79097(15) 0.33349(11)
F1 F 0.5522(7) 0.7352(5) 0.2566(6)
F2 F 0.5435(11) 0.8167(11) 0.3925(7)
F3 F 0.6755(7) 0.6904(5) 0.3605(5)
F4 F 0.7715(11) 0.8522(7) 0.4047(5)
F5 F 0.7804(7) 0.7555(6) 0.2657(4)
F6 F 0.6513(7) 0.8911(4) 0.3033(4)
P2 P 0.81330(17) 0.15087(15) 0.04937(12)
F7 F 0.7832(19) 0.0988(8) 0.1178(5)
F8 F 0.7500(7) 0.2490(6) 0.0987(6)
F9 F 0.6749(8) 0.0904(6) 0.0078(8)
F10 F 0.8649(8) 0.0507(6) -0.0193(4)
F11 F 0.8375(14) 0.2019(7) -0.0202(5)
F12 F 0.9445(6) 0.1879(9) 0.1009(6)
O1 O 1.3359(9) 0.4885(8) 0.8666(7)
H1 H 1.3209 0.5555 0.9187
H2 H 1.3176 0.4612 0.8473
N1 N 0.3166(7) 0.2626(5) -0.0028(4)
N2 N 0.3344(4) 0.2189(3) 0.2287(2)
N3 N 0.1776(5) -0.0272(3) 0.2895(2)
N4 N 0.9265(4) 0.5884(3) 0.6498(2)
N5 N 1.1270(5) 0.8148(4) 0.4788(3)
N6 N 0.7599(7) 0.3961(4) 0.8570(3)
C1 C 0.2834(12) 0.1485(6) -0.0590(5)
H3 H 0.2403 0.1072 -0.0222
H4 H 0.3695 0.1197 -0.0826
H5 H 0.2188 0.1450 -0.1085
C2 C 0.2191(11) 0.3293(9) -0.0317(7)
H6 H 0.2395 0.3306 -0.0923
H7 H 0.2320 0.4012 0.0089
H8 H 0.1226 0.2993 -0.0304
C3 C 0.4659(9) 0.2987(10) -0.0162(8)
H9 H 0.5286 0.2620 0.0106
H10 H 0.4842 0.3748 0.0121
H11 H 0.4816 0.2827 -0.0801
C4 C 0.2964(9) 0.2710(6) 0.0936(4)
H12 H 0.1956 0.2570 0.1022
H13 H 0.3268 0.3442 0.1298
C5 C 0.3749(8) 0.1958(6) 0.1292(4)
H14 H 0.4768 0.2102 0.1248
H15 H 0.3456 0.1215 0.0953
C6 C 0.0409(7) -0.0521(6) 0.2375(4)
H16 H 0.0579 -0.0704 0.1737
H17 H -0.0116 0.0095 0.2545
H18 H -0.0129 -0.1117 0.2505
C7 C 0.2395(9) -0.1302(5) 0.2772(5)
H19 H 0.3392 -0.1158 0.2936
H20 H 0.2264 -0.1731 0.2148
H21 H 0.1928 -0.1683 0.3153
C8 C 0.1570(7) 0.0259(5) 0.3868(3)
H22 H 0.0936 -0.0203 0.4106
H23 H 0.1170 0.0923 0.3934
H24 H 0.2470 0.0403 0.4197
C9 C 0.2763(5) 0.0449(4) 0.2519(3)
H25 H 0.2997 0.0042 0.1912
H26 H 0.3638 0.0632 0.2890
C10 C 0.2234(5) 0.1480(4) 0.2465(3)
H27 H 0.1499 0.1315 0.1986
H28 H 0.1815 0.1829 0.3034
C11 C 0.4313(5) 0.2827(4) 0.2956(3)
C12 C 0.5406(5) 0.3513(4) 0.2795(3)
H29 H 0.5517 0.3554 0.2206
C13 C 0.6340(5) 0.4140(4) 0.3475(3)
H30 H 0.7060 0.4596 0.3335
C14 C 0.6238(4) 0.4110(3) 0.4361(3)
C15 C 0.5132(4) 0.3422(3) 0.4530(3)
H31 H 0.5025 0.3386 0.5120
C16 C 0.4190(5) 0.2794(3) 0.3856(3)
H32 H 0.3465 0.2342 0.3996
C17 C 0.7261(4) 0.4735(3) 0.5115(3)
C18 C 0.8212(5) 0.5592(3) 0.5011(3)
H33 H 0.8194 0.5786 0.4478
C19 C 0.9173(4) 0.6137(3) 0.5721(3)
C20 C 0.8366(5) 0.5067(3) 0.6586(3)
C21 C 0.7385(4) 0.4483(3) 0.5901(3)
H34 H 0.6801 0.3908 0.5984
C22 C 1.0222(4) 0.7038(3) 0.5641(3)
C23 C 1.1157(5) 0.7585(4) 0.6380(3)
H35 H 1.1113 0.7406 0.6921
C24 C 1.2134(5) 0.8386(4) 0.6289(4)
H36 H 1.2769 0.8756 0.6769
C25 C 1.2169(6) 0.8633(5) 0.5502(5)
H37 H 1.2853 0.9170 0.5448
C26 C 1.0311(5) 0.7377(4) 0.4878(4)
H38 H 0.9662 0.7048 0.4396
C27 C 0.8529(5) 0.4777(3) 0.7431(3)
C28 C 0.9825(6) 0.5002(5) 0.7901(3)
H39 H 1.0561 0.5380 0.7690
C29 C 1.0083(7) 0.4705(5) 0.8652(4)
H40 H 1.0978 0.4849 0.8943
C30 C 0.8997(8) 0.4196(5) 0.8957(4)
H41 H 0.9174 0.3977 0.9467
C31 C 0.7443(7) 0.4279(4) 0.7800(3)
H42 H 0.6547 0.4150 0.7512
N7? N 0.3593(10) 0.2281(8) -0.0144(5)
C32? C 0.4284(16) 0.1505(11) -0.0888(7)
H43? H 0.3706 0.0826 -0.1067
H44? H 0.5205 0.1409 -0.0676
H45? H 0.4384 0.1781 -0.1400
C33? C 0.2088(11) 0.2299(14) -0.0432(9)
H46? H 0.2035 0.2240 -0.1067
H47? H 0.1751 0.2963 -0.0089
H48? H 0.1510 0.1707 -0.0323
C34? C 0.4366(17) 0.3381(10) 0.0013(10)
H49? H 0.5367 0.3349 0.0094
H50? H 0.4027 0.3866 0.0548
H51? H 0.4199 0.3631 -0.0502
C35? C 0.3654(11) 0.1960(8) 0.0690(5)
H52? H 0.4645 0.1951 0.0852
H53? H 0.3204 0.1229 0.0557
C36? C 0.2974(11) 0.2646(8) 0.1502(5)
H54? H 0.1953 0.2592 0.1399
H55? H 0.3357 0.3393 0.1637
loop_
_geom_bond_atom_site_label_1
_geom_bond_atom_site_label_2
_geom_bond_site_symmetry_1
_geom_bond_site_symmetry_2
P1 F1 1_555 1_555
F2 P1 1_555 1_555
F3 P1 1_555 1_555
F4 P1 1_555 1_555
F5 P1 1_555 1_555
F6 P1 1_555 1_555
P2 F7 1_555 1_555
F8 P2 1_555 1_555
F9 P2 1_555 1_555
F10 P2 1_555 1_555
F11 P2 1_555 1_555
F12 P2 1_555 1_555
O1 H1 1_555 1_555
H2 O1 1_555 1_555
N1 C1 1_555 1_555
N2 C5 1_555 1_555
N3 C6 1_555 1_555
N4 C19 1_555 1_555
N5 C25 1_555 1_555
N6 C30 1_555 1_555
C1 H3 1_555 1_555
H4 C1 1_555 1_555
H5 C1 1_555 1_555
C2 N1 1_555 1_555
H6 C2 1_555 1_555
H7 C2 1_555 1_555
H8 C2 1_555 1_555
C3 N1 1_555 1_555
H9 C3 1_555 1_555
H10 C3 1_555 1_555
H11 C3 1_555 1_555
C4 N1 1_555 1_555
H12 C4 1_555 1_555
H13 C4 1_555 1_555
C5 C4 1_555 1_555
H14 C5 1_555 1_555
H15 C5 1_555 1_555
C6 H16 1_555 1_555
H17 C6 1_555 1_555
H18 C6 1_555 1_555
C7 N3 1_555 1_555
H19 C7 1_555 1_555
H20 C7 1_555 1_555
H21 C7 1_555 1_555
C8 N3 1_555 1_555
H22 C8 1_555 1_555
H23 C8 1_555 1_555
H24 C8 1_555 1_555
C9 N3 1_555 1_555
H25 C9 1_555 1_555
H26 C9 1_555 1_555
C10 N2 1_555 1_555
H27 C10 1_555 1_555
H28 C10 1_555 1_555
C11 N2 1_555 1_555
C12 C11 1_555 1_555
H29 C12 1_555 1_555
C13 C12 1_555 1_555
H30 C13 1_555 1_555
C14 C13 1_555 1_555
C15 C14 1_555 1_555
H31 C15 1_555 1_555
C16 C11 1_555 1_555
H32 C16 1_555 1_555
C17 C14 1_555 1_555
C18 C17 1_555 1_555
H33 C18 1_555 1_555
C19 C18 1_555 1_555
C20 N4 1_555 1_555
C21 C17 1_555 1_555
H34 C21 1_555 1_555
C22 C19 1_555 1_555
C23 C22 1_555 1_555
H35 C23 1_555 1_555
C24 C23 1_555 1_555
H36 C24 1_555 1_555
C25 C24 1_555 1_555
H37 C25 1_555 1_555
C26 N5 1_555 1_555
H38 C26 1_555 1_555
C27 C20 1_555 1_555
C28 C27 1_555 1_555
H39 C28 1_555 1_555
C29 C28 1_555 1_555
H40 C29 1_555 1_555
C30 C29 1_555 1_555
H41 C30 1_555 1_555
C31 N6 1_555 1_555
H42 C31 1_555 1_555
C9 C10 1_555 1_555
C15 C16 1_555 1_555
C20 C21 1_555 1_555
C22 C26 1_555 1_555
C27 C31 1_555 1_555

#END
