
#######################################################################
#
#                 Cambridge Crystallographic Data Centre
#                                CCDC 
#
#######################################################################
#
# If this CIF has been generated from an entry in the Cambridge 
# Structural Database, then it will include bibliographic, chemical, 
# crystal, experimental, refinement or atomic coordinate data resulting 
# from the CCDC's data processing and validation procedures.
#
#######################################################################

data_SEPVOB
_chemical_formula_moiety         'C18 H23 N1 O1'
_chemical_name_systematic        
2,2-dimethyl-1-(4a-methyl-2,3,4,4a-tetrahydro-9H-carbazol-9-yl)propan-1-one
_symmetry_cell_setting           orthorhombic
_symmetry_space_group_name_H-M   'P b c a'
_symmetry_Int_Tables_number      61
_space_group_name_Hall           '-P 2ac 2ab'
loop_
_symmetry_equiv_pos_site_id
_symmetry_equiv_pos_as_xyz
1 x,y,z
2 1/2-x,-y,1/2+z
3 -x,1/2+y,1/2-z
4 1/2+x,1/2-y,-z
5 -x,-y,-z
6 1/2+x,y,1/2-z
7 x,1/2-y,1/2+z
8 1/2-x,1/2+y,z
_cell_length_a                   10.1071(18)
_cell_length_b                   16.791(3)
_cell_length_c                   18.320(3)
_cell_angle_alpha                90
_cell_angle_beta                 90
_cell_angle_gamma                90
_cell_volume                     3109.06
_exptl_crystal_colour            colorless
_exptl_crystal_description       block
_cell_formula_units_Z            8
loop_
_atom_site_label
_atom_site_type_symbol
_atom_site_fract_x
_atom_site_fract_y
_atom_site_fract_z
C1 C 0.7492(2) 0.03669(14) 0.60524(13)
C2 C 0.6441(3) -0.01385(17) 0.59239(15)
H1 H 0.657 -0.0683 0.5861
C3 C 0.5187(3) 0.0193(3) 0.58922(17)
H2 H 0.4466 -0.0138 0.5803
C4 C 0.4979(3) 0.0983(3) 0.59867(18)
H3 H 0.4124 0.1186 0.5967
C5 C 0.6035(3) 0.14903(19) 0.61124(16)
H4 H 0.5895 0.2033 0.6176
C6 C 0.7305(2) 0.11780(16) 0.61425(14)
C7 C 0.8610(2) 0.15751(13) 0.63090(13)
C8 C 0.8868(3) 0.23499(14) 0.59009(16)
H5 H 0.8384 0.2779 0.6133
H6 H 0.8552 0.2301 0.5403
C9 C 1.0340(3) 0.25478(16) 0.58955(18)
H7 H 1.0477 0.3052 0.5648
H8 H 1.0652 0.2603 0.6394
C10 C 1.1128(3) 0.19036(15) 0.55129(17)
H9 H 1.1121 0.2007 0.4992
H10 H 1.204 0.193 0.5677
C11 C 1.0610(3) 0.10803(15) 0.56475(14)
H11 H 1.1058 0.0649 0.5447
C12 C 0.9548(2) 0.09461(13) 0.60373(13)
C13 C 0.8728(3) 0.16903(14) 0.71364(14)
H12 H 0.8635 0.1185 0.7376
H13 H 0.8045 0.2044 0.7301
H14 H 0.9578 0.1914 0.725
C14 C 0.9360(3) -0.05415(15) 0.63174(14)
C15 C 1.0717(3) -0.06823(14) 0.66708(15)
C16 C 1.0465(4) -0.12896(19) 0.7273(2)
H15 H 0.9882 -0.1064 0.7631
H16 H 1.1288 -0.1431 0.7499
H17 H 1.0065 -0.1757 0.7067
C17 C 1.1638(3) -0.1045(2) 0.6095(2)
H18 H 1.1221 -0.1501 0.588
H19 H 1.2453 -0.1203 0.6322
H20 H 1.1818 -0.0656 0.5724
C18 C 1.1406(3) 0.00226(15) 0.70318(16)
H21 H 1.1759 0.0368 0.6663
H22 H 1.2112 -0.0167 0.7336
H23 H 1.078 0.0311 0.7324
N1 N 0.88866(18) 0.01942(10) 0.61231(11)
O1 O 0.86373(18) -0.11128(11) 0.62267(13)
loop_
_geom_bond_atom_site_label_1
_geom_bond_atom_site_label_2
_geom_bond_site_symmetry_1
_geom_bond_site_symmetry_2
C1 C2 1_555 1_555
C2 H1 1_555 1_555
C3 C2 1_555 1_555
H2 C3 1_555 1_555
C4 C3 1_555 1_555
H3 C4 1_555 1_555
C5 C4 1_555 1_555
H4 C5 1_555 1_555
C6 C1 1_555 1_555
C7 C6 1_555 1_555
C8 C7 1_555 1_555
H5 C8 1_555 1_555
H6 C8 1_555 1_555
C9 C8 1_555 1_555
H7 C9 1_555 1_555
H8 C9 1_555 1_555
C10 C9 1_555 1_555
H9 C10 1_555 1_555
H10 C10 1_555 1_555
C11 C10 1_555 1_555
H11 C11 1_555 1_555
C12 C7 1_555 1_555
C13 C7 1_555 1_555
H12 C13 1_555 1_555
H13 C13 1_555 1_555
H14 C13 1_555 1_555
C14 C15 1_555 1_555
C15 C16 1_555 1_555
C16 H15 1_555 1_555
H16 C16 1_555 1_555
H17 C16 1_555 1_555
C17 C15 1_555 1_555
H18 C17 1_555 1_555
H19 C17 1_555 1_555
H20 C17 1_555 1_555
C18 C15 1_555 1_555
H21 C18 1_555 1_555
H22 C18 1_555 1_555
H23 C18 1_555 1_555
N1 C1 1_555 1_555
O1 C14 1_555 1_555
C5 C6 1_555 1_555
C11 C12 1_555 1_555
C12 N1 1_555 1_555
C14 N1 1_555 1_555

#END
