
#######################################################################
#
#                 Cambridge Crystallographic Data Centre
#                                CCDC 
#
#######################################################################
#
# If this CIF has been generated from an entry in the Cambridge 
# Structural Database, then it will include bibliographic, chemical, 
# crystal, experimental, refinement or atomic coordinate data resulting 
# from the CCDC's data processing and validation procedures.
#
#######################################################################

data_SEPVIT
_chemical_formula_moiety         'C40 H32 N4 S4 2+,2(C2 F3 O2 1-)'
_chemical_name_systematic        
"5,10,15,20-tetrakis(5'-Methyl-2'-thienyl)porphyrin bis(trifluoroacetate)"
_symmetry_cell_setting           monoclinic
_symmetry_space_group_name_H-M   'I 2'
_symmetry_Int_Tables_number      5
_space_group_name_Hall           'I 2y'
loop_
_symmetry_equiv_pos_site_id
_symmetry_equiv_pos_as_xyz
1 x,y,z
2 -x,y,-z
3 1/2+x,1/2+y,1/2+z
4 1/2-x,1/2+y,1/2-z
_cell_length_a                   16.2521(7)
_cell_length_b                   16.252
_cell_length_c                   15.5357(7)
_cell_angle_alpha                90.00
_cell_angle_beta                 90.00
_cell_angle_gamma                90.00
_cell_volume                     4103.43
_exptl_crystal_colour            blue
_exptl_crystal_description       block
_cell_formula_units_Z            4
loop_
_atom_site_label
_atom_site_type_symbol
_atom_site_fract_x
_atom_site_fract_y
_atom_site_fract_z
C2 C 0.5000 0.4677(4) 0.5000
C3 C 0.5168(7) 0.3692(4) 0.4968(7)
F2 F 0.5037(7) 0.3365(5) 0.4212(4)
F3 F 0.5898(6) 0.3443(6) 0.5199(6)
F4 F 0.4659(7) 0.3299(5) 0.5468(5)
O3 O 0.5034(4) 0.5025(3) 0.5672(2)
C3A C 0.4832(7) 0.3692(4) 0.5032(7)
F2A F 0.4963(7) 0.3365(5) 0.5788(4)
F3A F 0.4102(6) 0.3443(6) 0.4801(6)
F4A F 0.5341(7) 0.3299(5) 0.4532(5)
O3A O 0.4966(4) 0.5025(3) 0.4328(2)
O2 O 1.0000 0.0350(3) 0.5000
C6 C 0.9688(6) 0.1798(6) 0.5039(6)
O6 O 1.0960(6) 0.1347(7) 0.4628(6)
C67 C 1.0318(6) 0.1043(6) 0.4895(7)
F8 F 0.9710(6) 0.2388(5) 0.4446(5)
F9 F 0.9805(5) 0.2225(6) 0.5742(5)
F10 F 1.1094(4) 0.1552(5) 0.4916(5)
C6A C 1.0312(6) 0.1798(6) 0.4961(6)
O6A O 0.9040(6) 0.1347(7) 0.5372(6)
C67A C 0.9682(6) 0.1043(6) 0.5105(7)
F8A F 1.0290(6) 0.2388(5) 0.5554(5)
F9A F 1.0195(5) 0.2225(6) 0.4258(5)
F10A F 0.8906(4) 0.1552(5) 0.5084(5)
C4 C 0.0000 0.3546(5) 0.0000
C5 C 0.0029(8) 0.4549(6) 0.0131(7)
F5 F -0.0182(6) 0.4770(6) 0.0913(6)
F6 F -0.0502(6) 0.4939(5) -0.0360(6)
F7 F 0.0740(5) 0.4907(7) -0.0011(7)
O5 O 0.0664(3) 0.3233(3) -0.0032(4)
C5A C -0.0029(8) 0.4549(6) -0.0131(7)
F5A F 0.0182(6) 0.4770(6) -0.0913(6)
F6A F 0.0502(6) 0.4939(5) 0.0360(6)
F7A F -0.0740(5) 0.4907(7) 0.0011(7)
O5A O -0.0664(3) 0.3233(3) 0.0032(4)
C7 C 0.5742(3) 0.6886(3) 0.6676(3)
C8 C 0.5469(3) 0.7420(3) 0.7368(3)
H1 H 0.5813 0.7723 0.7748
C9 C 0.4657(3) 0.7408(3) 0.7376(3)
H2 H 0.4319 0.7723 0.7750
C10 C 0.4365(3) 0.6850(3) 0.6735(3)
C11 C 0.3573(3) 0.65940(14) 0.6542(3)
C12 C 0.3334(3) 0.6350(4) 0.5733(3)
C13 C 0.2631(4) 0.5839(4) 0.5477(3)
H3 H 0.2256 0.5560 0.5844
C14 C 0.2630(3) 0.5850(4) 0.4640(3)
H4 H 0.2274 0.5550 0.4270
C15 C 0.3268(3) 0.6399(4) 0.4385(3)
C16 C 0.6544(3) 0.66624(14) 0.6432(3)
C17 C 0.2933(3) 0.65672(9) 0.7185(3)
C18 C 0.2129(5) 0.6674(3) 0.7115(6)
H5 H 0.1868 0.6790 0.6582
C19 C 0.1697(5) 0.6603(4) 0.7883(5)
H6 H 0.1119 0.6662 0.7946
C20 C 0.2223(5) 0.6437(4) 0.8517(5)
S1 S 0.32087(14) 0.63712(18) 0.81959(11)
C21 C 0.2000(7) 0.6320(6) 0.9428(6)
H7 H 0.2495 0.6189 0.9761
H8 H 0.1605 0.5867 0.9477
H9 H 0.1752 0.6826 0.9651
C27 C 0.7204(3) 0.66936(9) 0.7044(3)
C28 C 0.7094(6) 0.6581(3) 0.7880(5)
H15 H 0.6583 0.6472 0.8155
C29 C 0.7884(4) 0.6653(4) 0.8304(5)
H16 H 0.7936 0.6589 0.8909
C30 C 0.8528(4) 0.6809(4) 0.7815(5)
S3 S 0.82002(11) 0.68714(17) 0.68025(14)
C31 C 0.9419(5) 0.6924(5) 0.7988(7)
H17 H 0.9693 0.7113 0.7463
H18 H 0.9659 0.6399 0.8171
H19 H 0.9491 0.7334 0.8444
N1 N 0.5044(2) 0.6604(2) 0.6303(2)
H49 H 0.501(3) 0.6123(16) 0.605(3)
N2 N 0.3709(2) 0.6645(3) 0.5037(2)
H50 H 0.399(3) 0.710(2) 0.496(4)
C7A C 0.4258(3) 0.6886(3) 0.3324(3)
C8A C 0.4531(3) 0.7420(3) 0.2632(3)
H1A H 0.4187 0.7723 0.2252
C9A C 0.5343(3) 0.7408(3) 0.2624(3)
H2A H 0.5681 0.7723 0.2250
C10A C 0.5635(3) 0.6850(3) 0.3265(3)
C11A C 0.6427(3) 0.65940(14) 0.3458(3)
C12A C 0.6666(3) 0.6350(4) 0.4267(3)
C13A C 0.7369(4) 0.5839(4) 0.4523(3)
H3A H 0.7744 0.5560 0.4156
C14A C 0.7370(3) 0.5850(4) 0.5360(3)
H4A H 0.7726 0.5550 0.5730
C15A C 0.6732(3) 0.6399(4) 0.5615(3)
C16A C 0.3456(3) 0.66624(14) 0.3568(3)
C17A C 0.7067(3) 0.65672(9) 0.2815(3)
C18A C 0.7871(5) 0.6674(3) 0.2885(6)
H5A H 0.8132 0.6790 0.3418
C19A C 0.8303(5) 0.6603(4) 0.2117(5)
H6A H 0.8881 0.6662 0.2054
C20A C 0.7777(5) 0.6437(4) 0.1483(5)
S1A S 0.67913(14) 0.63712(18) 0.18041(11)
C21A C 0.8000(7) 0.6320(6) 0.0572(6)
H7A H 0.7505 0.6189 0.0239
H8A H 0.8395 0.5867 0.0523
H9A H 0.8248 0.6826 0.0349
C27A C 0.2796(3) 0.66936(9) 0.2956(3)
C28A C 0.2906(6) 0.6581(3) 0.2120(5)
H15A H 0.3417 0.6472 0.1845
C29A C 0.2116(4) 0.6653(4) 0.1696(5)
H16A H 0.2064 0.6589 0.1091
C30A C 0.1472(4) 0.6809(4) 0.2185(5)
S3A S 0.17998(11) 0.68714(17) 0.31975(14)
C31A C 0.0581(5) 0.6924(5) 0.2012(7)
H17A H 0.0307 0.7113 0.2537
H18A H 0.0341 0.6399 0.1829
H19A H 0.0509 0.7334 0.1556
N1A N 0.4956(2) 0.6604(2) 0.3697(2)
H49A H 0.499(3) 0.6123(16) 0.395(3)
N2A N 0.6291(2) 0.6645(3) 0.4963(2)
H50A H 0.601(3) 0.710(2) 0.504(4)
C37 C 0.5660(4) 0.4213(3) 0.1769(3)
C38 C 0.5333(4) 0.4703(4) 0.2492(4)
H25 H 0.5657 0.4942 0.2935
C39 C 0.4524(4) 0.4758(4) 0.2431(4)
H26 H 0.4184 0.5045 0.2828
C40 C 0.4234(4) 0.4340(4) 0.1706(4)
C41 C 0.3455(3) 0.4177(2) 0.1468(4)
C42 C 0.3226(4) 0.3985(3) 0.0619(4)
C43 C 0.2502(4) 0.3546(4) 0.0352(4)
H27 H 0.2068 0.3344 0.0703
C44 C 0.2576(4) 0.3489(4) -0.0490(4)
H28 H 0.2191 0.3228 -0.0861
C45 C 0.3283(4) 0.3857(3) -0.0750(3)
C46 C 0.6447(3) 0.4060(2) 0.1559(4)
C47 C 0.2763(3) 0.42125(15) 0.2031(3)
C48 C 0.2823(10) 0.3910(6) 0.2838(10)
H29 H 0.3314 0.3669 0.3054
C49 C 0.2112(10) 0.3977(7) 0.3329(10)
H30 H 0.2058 0.3793 0.3907
C50 C 0.1509(8) 0.4340(6) 0.2872(10)
S5 S 0.1812(4) 0.4597(4) 0.1846(5)
C51 C 0.0640(10) 0.4569(8) 0.3058(15)
H31 H 0.0307 0.4494 0.2539
H32 H 0.0616 0.5147 0.3239
H33 H 0.0426 0.4218 0.3520
C57 C 0.7038(3) 0.40474(15) 0.2228(3)
C58 C 0.7792(9) 0.4359(6) 0.2089(11)
H39 H 0.7987 0.4600 0.1571
C59 C 0.8234(10) 0.4261(7) 0.2857(10)
H40 H 0.8789 0.4440 0.2907
C60 C 0.7842(9) 0.3906(6) 0.3514(9)
S7 S 0.6857(5) 0.3667(4) 0.3189(5)
C61 C 0.8006(16) 0.3665(9) 0.4411(11)
H41 H 0.7511 0.3416 0.4659
H42 H 0.8159 0.4153 0.4746
H43 H 0.8458 0.3266 0.4426
N3 N 0.4944(4) 0.4060(3) 0.1337(3)
H51 H 0.483(4) 0.369(3) 0.094(3)
N4 N 0.3698(3) 0.4204(3) -0.0053(3)
H52 H 0.411(2) 0.456(3) -0.010(4)
C37A C 0.4340(4) 0.4213(3) -0.1769(3)
C38A C 0.4667(4) 0.4703(4) -0.2492(4)
H25A H 0.4343 0.4942 -0.2935
C39A C 0.5476(4) 0.4758(4) -0.2431(4)
H26A H 0.5816 0.5045 -0.2828
C40A C 0.5766(4) 0.4340(4) -0.1706(4)
C41A C 0.6545(3) 0.4177(2) -0.1468(4)
C42A C 0.6774(4) 0.3985(3) -0.0619(4)
C43A C 0.7498(4) 0.3546(4) -0.0352(4)
H27A H 0.7932 0.3344 -0.0703
C44A C 0.7424(4) 0.3489(4) 0.0490(4)
H28A H 0.7809 0.3228 0.0861
C45A C 0.6717(4) 0.3857(3) 0.0750(3)
C46A C 0.3553(3) 0.4060(2) -0.1559(4)
C47A C 0.7237(3) 0.42125(15) -0.2031(3)
C48A C 0.7177(10) 0.3910(6) -0.2838(10)
H29A H 0.6686 0.3669 -0.3054
C49A C 0.7888(10) 0.3977(7) -0.3329(10)
H30A H 0.7942 0.3793 -0.3907
C50A C 0.8491(8) 0.4340(6) -0.2872(10)
S5A S 0.8188(4) 0.4597(4) -0.1846(5)
C51A C 0.9360(10) 0.4569(8) -0.3058(15)
H31A H 0.9693 0.4494 -0.2539
H32A H 0.9384 0.5147 -0.3239
H33A H 0.9574 0.4218 -0.3520
C57A C 0.2962(3) 0.40474(15) -0.2228(3)
C58A C 0.2208(9) 0.4359(6) -0.2089(11)
H39A H 0.2013 0.4600 -0.1571
C59A C 0.1766(10) 0.4261(7) -0.2857(10)
H40A H 0.1211 0.4440 -0.2907
C60A C 0.2158(9) 0.3906(6) -0.3514(9)
S7A S 0.3143(5) 0.3667(4) -0.3189(5)
C61A C 0.1994(16) 0.3665(9) -0.4411(11)
H41A H 0.2489 0.3416 -0.4659
H42A H 0.1841 0.4153 -0.4746
H43A H 0.1542 0.3266 -0.4426
N3A N 0.5056(4) 0.4060(3) -0.1337(3)
H51A H 0.517(4) 0.369(3) -0.094(3)
N4A N 0.6302(3) 0.4204(3) 0.0053(3)
H52A H 0.589(2) 0.456(3) 0.010(4)
C1 C 0.9898(7) 0.7188(5) 0.4692(5)
F1 F 1.0727(4) 0.6019(6) 0.5195(6)
O1 O 0.9634(6) 0.6872(7) 0.4043(6)
O4 O 1.0000 0.7896(4) 0.5000
C68 C 1.0029(6) 0.6415(6) 0.5309(6)
F11 F 0.9930(5) 0.6719(6) 0.3907(5)
F12 F 0.9456(5) 0.5840(5) 0.5316(6)
C1A C 1.0102(7) 0.7188(5) 0.5308(5)
F1A F 0.9273(4) 0.6019(6) 0.4805(6)
O1A O 1.0366(6) 0.6872(7) 0.5957(6)
C68A C 0.9971(6) 0.6415(6) 0.4691(6)
F11A F 1.0070(5) 0.6719(6) 0.6093(5)
F12A F 1.0544(5) 0.5840(5) 0.4684(6)
C22? C 0.2933(3) 0.65672(9) 0.7185(3)
C23? C 0.3042(12) 0.6443(4) 0.8041(10)
H10? H 0.3578 0.6363 0.8268
C24? C 0.2361(11) 0.6433(5) 0.8583(11)
H11? H 0.2374 0.6350 0.9188
C25? C 0.1686(9) 0.6558(5) 0.8112(10)
S2? S 0.1888(3) 0.6684(3) 0.7045(4)
C26? C 0.0755(10) 0.6615(6) 0.8318(13)
H12? H 0.0441 0.6631 0.7780
H13? H 0.0647 0.7116 0.8650
H14? H 0.0588 0.6133 0.8656
C32? C 0.2796(3) 0.66936(9) 0.2956(3)
C33? C 0.2010(10) 0.6809(4) 0.3187(12)
H20? H 0.1819 0.6879 0.3761
C34? C 0.1512(10) 0.6811(5) 0.2448(11)
H21? H 0.0933 0.6885 0.2486
C35? C 0.1881(9) 0.6704(4) 0.1698(9)
S4? S 0.2923(4) 0.6589(4) 0.1898(4)
C36? C 0.1684(12) 0.6651(6) 0.0750(10)
H22? H 0.2196 0.6598 0.0421
H23? H 0.1393 0.7150 0.0569
H24? H 0.1335 0.6170 0.0643
C52? C 0.2763(3) 0.42125(15) 0.2031(3)
C53? C 0.1973(6) 0.4501(4) 0.1866(8)
H34? H 0.1806 0.4717 0.1325
C54? C 0.1454(5) 0.4441(5) 0.2575(6)
H35? H 0.0893 0.4606 0.2578
C55? C 0.1843(5) 0.4122(5) 0.3247(5)
S6? S 0.28585(18) 0.38814(19) 0.30497(15)
C56? C 0.1505(6) 0.3944(5) 0.4098(5)
H36? H 0.1931 0.3691 0.4457
H37? H 0.1039 0.3566 0.4041
H38? H 0.1319 0.4457 0.4366
C62? C 0.2962(3) 0.40474(15) -0.2228(3)
C63? C 0.3142(7) 0.3754(4) -0.3024(6)
H44? H 0.3658 0.3541 -0.3206
C64? C 0.2423(6) 0.3825(5) -0.3535(6)
H45? H 0.2425 0.3651 -0.4119
C65? C 0.1746(5) 0.4137(4) -0.3184(5)
S8? S 0.19517(14) 0.43748(18) -0.21521(16)
C66? C 0.0902(5) 0.4335(5) -0.3495(6)
H46? H 0.0587 0.4591 -0.3029
H47? H 0.0627 0.3828 -0.3678
H48? H 0.0938 0.4716 -0.3983
loop_
_geom_bond_atom_site_label_1
_geom_bond_atom_site_label_2
_geom_bond_site_symmetry_1
_geom_bond_site_symmetry_2
C1 O1 1_555 1_555
F1 C68 1_555 1_555
O1 F11 1_555 1_555
C2 C3 1_555 1_555
C3 F2 1_555 1_555
O2 C67 1_555 1_555
C4 C5 1_555 1_555
C5 F5 1_555 1_555
C6 C67 1_555 1_555
C7 C8 1_555 1_555
C8 H1 1_555 1_555
C9 C8 1_555 1_555
H2 C9 1_555 1_555
C10 C9 1_555 1_555
C11 C10 1_555 1_555
C12 C11 1_555 1_555
C13 C12 1_555 1_555
H3 C13 1_555 1_555
C14 C13 1_555 1_555
H4 C14 1_555 1_555
C15 C14 1_555 1_555
C16 C7 1_555 1_555
C17 C11 1_555 1_555
C18 C17 1_555 1_555
H5 C18 1_555 1_555
C19 C18 1_555 1_555
H6 C19 1_555 1_555
C20 C19 1_555 1_555
S1 C17 1_555 1_555
C21 C20 1_555 1_555
H7 C21 1_555 1_555
H8 C21 1_555 1_555
H9 C21 1_555 1_555
C27 C16 1_555 1_555
C28 C27 1_555 1_555
H15 C28 1_555 1_555
C29 C28 1_555 1_555
H16 C29 1_555 1_555
C30 C29 1_555 1_555
S3 C27 1_555 1_555
C31 C30 1_555 1_555
H17 C31 1_555 1_555
H18 C31 1_555 1_555
H19 C31 1_555 1_555
C37 C38 1_555 1_555
C38 H25 1_555 1_555
C39 C38 1_555 1_555
H26 C39 1_555 1_555
C40 C39 1_555 1_555
C41 C40 1_555 1_555
C42 C41 1_555 1_555
C43 C42 1_555 1_555
H27 C43 1_555 1_555
C44 C43 1_555 1_555
H28 C44 1_555 1_555
C45 C44 1_555 1_555
C46 C37 1_555 1_555
C47 C41 1_555 1_555
C48 C47 1_555 1_555
H29 C48 1_555 1_555
C49 C48 1_555 1_555
H30 C49 1_555 1_555
C50 C49 1_555 1_555
S5 C47 1_555 1_555
C51 C50 1_555 1_555
H31 C51 1_555 1_555
H32 C51 1_555 1_555
H33 C51 1_555 1_555
C57 C46 1_555 1_555
C58 C57 1_555 1_555
H39 C58 1_555 1_555
C59 C58 1_555 1_555
H40 C59 1_555 1_555
C60 C59 1_555 1_555
S7 C57 1_555 1_555
C61 C60 1_555 1_555
H41 C61 1_555 1_555
H42 C61 1_555 1_555
H43 C61 1_555 1_555
F2 C3A 1_555 1_555
F3 C3 1_555 1_555
F4 C3 1_555 1_555
F5 C5A 1_555 1_555
F6 C5 1_555 1_555
F7 C5 1_555 1_555
N1 C7 1_555 1_555
H49 N1 1_555 1_555
N2 C12 1_555 1_555
H50 N2 1_555 1_555
N3 C37 1_555 1_555
H51 N3 1_555 1_555
N4 C42 1_555 1_555
H52 N4 1_555 1_555
O3 C2 1_555 1_555
O4 C1 1_555 1_555
O5 C4 1_555 1_555
O6 C67 1_555 1_555
C67 F10 1_555 1_555
F8 C6 1_555 1_555
F9 C6 1_555 1_555
F10 O6 1_555 1_555
C68 C1 1_555 1_555
F11 C1 1_555 1_555
F12 C68 1_555 1_555
C1A C1 1_555 1_555
F1A C68 1_555 1_555
O1A C68 1_555 1_555
C3A C2 1_555 1_555
C5A C4 1_555 1_555
C6A C6 1_555 1_555
C7A C8A 1_555 1_555
C8A H1A 1_555 1_555
C9A C8A 1_555 1_555
H2A C9A 1_555 1_555
C10A C9A 1_555 1_555
C11A C10A 1_555 1_555
C12A C11A 1_555 1_555
C13A C12A 1_555 1_555
H3A C13A 1_555 1_555
C14A C13A 1_555 1_555
H4A C14A 1_555 1_555
C15A C16 1_555 1_555
C16A C15 1_555 1_555
C17A C11A 1_555 1_555
C18A C17A 1_555 1_555
H5A C18A 1_555 1_555
C19A C18A 1_555 1_555
H6A C19A 1_555 1_555
C20A C19A 1_555 1_555
S1A C17A 1_555 1_555
C21A C20A 1_555 1_555
H7A C21A 1_555 1_555
H8A C21A 1_555 1_555
H9A C21A 1_555 1_555
C27A C16A 1_555 1_555
C28A C27A 1_555 1_555
H15A C28A 1_555 1_555
C29A C28A 1_555 1_555
H16A C29A 1_555 1_555
C30A C29A 1_555 1_555
S3A C27A 1_555 1_555
C31A C30A 1_555 1_555
H17A C31A 1_555 1_555
H18A C31A 1_555 1_555
H19A C31A 1_555 1_555
C37A C38A 1_555 1_555
C38A H25A 1_555 1_555
C39A C38A 1_555 1_555
H26A C39A 1_555 1_555
C40A C39A 1_555 1_555
C41A C40A 1_555 1_555
C42A C41A 1_555 1_555
C43A C42A 1_555 1_555
H27A C43A 1_555 1_555
C44A C43A 1_555 1_555
H28A C44A 1_555 1_555
C45A C46 1_555 1_555
C46A C45 1_555 1_555
C47A C41A 1_555 1_555
C48A C47A 1_555 1_555
H29A C48A 1_555 1_555
C49A C48A 1_555 1_555
H30A C49A 1_555 1_555
C50A C49A 1_555 1_555
S5A C47A 1_555 1_555
C51A C50A 1_555 1_555
H31A C51A 1_555 1_555
H32A C51A 1_555 1_555
H33A C51A 1_555 1_555
C57A C46A 1_555 1_555
C58A C57A 1_555 1_555
H39A C58A 1_555 1_555
C59A C58A 1_555 1_555
H40A C59A 1_555 1_555
C60A C59A 1_555 1_555
S7A C57A 1_555 1_555
C61A C60A 1_555 1_555
H41A C61A 1_555 1_555
H42A C61A 1_555 1_555
H43A C61A 1_555 1_555
F2A C3 1_555 1_555
F3A F4 1_555 1_555
F4A C3 1_555 1_555
F5A C5 1_555 1_555
F6A C5 1_555 1_555
F7A C5 1_555 1_555
N1A C7A 1_555 1_555
H49A N1A 1_555 1_555
N2A C12A 1_555 1_555
H50A N2A 1_555 1_555
N3A C37A 1_555 1_555
H51A N3A 1_555 1_555
N4A C42A 1_555 1_555
H52A N4A 1_555 1_555
O3A C2 1_555 1_555
O5A C4 1_555 1_555
O6A C6 1_555 1_555
C67A O2 1_555 1_555
F8A C6 1_555 1_555
F9A C6 1_555 1_555
F10A C6 1_555 1_555
C68A C1 1_555 1_555
F11A C68 1_555 1_555
F12A F1 1_555 1_555
F1 C68A 1_555 1_555
O1 C68A 1_555 1_555
C3 C3A 1_555 1_555
C5 C5A 1_555 1_555
C6 C67A 1_555 1_555
C10 N1 1_555 1_555
C15 N2 1_555 1_555
C20 S1 1_555 1_555
C30 S3 1_555 1_555
C40 N3 1_555 1_555
C45 N4 1_555 1_555
C50 S5 1_555 1_555
C60 S7 1_555 1_555
F2 F4A 1_555 1_555
F3 F4A 1_555 1_555
F4 C3A 1_555 1_555
F4 F2A 1_555 1_555
F5 F6A 1_555 1_555
F6 C5A 1_555 1_555
F6 F5A 1_555 1_555
F6 F7A 1_555 1_555
F7 C5A 1_555 1_555
F7 F6A 1_555 1_555
O4 C1A 1_555 1_555
O6 C6A 1_555 1_555
C67 C6A 1_555 1_555
C67 C67A 1_555 1_555
F8 C6A 1_555 1_555
F8 F9A 1_555 1_555
F9 C6A 1_555 1_555
F9 F8A 1_555 1_555
F10 C6A 1_555 1_555
C68 C1A 1_555 1_555
C68 C68A 1_555 1_555
C68 F12A 1_555 1_555
F11 C68A 1_555 1_555
F12 F1A 1_555 1_555
F12 C68A 1_555 1_555
C1A O1A 1_555 1_555
C1A C68A 1_555 1_555
C1A F11A 1_555 1_555
F1A C68A 1_555 1_555
O1A F11A 1_555 1_555
C3A F2A 1_555 1_555
C3A F3A 1_555 1_555
C3A F4A 1_555 1_555
C5A F5A 1_555 1_555
C5A F6A 1_555 1_555
C5A F7A 1_555 1_555
C6A C67A 1_555 1_555
C6A F8A 1_555 1_555
C6A F9A 1_555 1_555
C7A C16A 1_555 1_555
C10A N1A 1_555 1_555
C14A C15A 1_555 1_555
C15A N2A 1_555 1_555
C20A S1A 1_555 1_555
C30A S3A 1_555 1_555
C37A C46A 1_555 1_555
C40A N3A 1_555 1_555
C44A C45A 1_555 1_555
C45A N4A 1_555 1_555
C50A S5A 1_555 1_555
C60A S7A 1_555 1_555
O6A C67A 1_555 1_555
O6A F10A 1_555 1_555
C67A F10A 1_555 1_555
C68A F12A 1_555 1_555

#END
