
#######################################################################
#
#                 Cambridge Crystallographic Data Centre
#                                CCDC 
#
#######################################################################
#
# If this CIF has been generated from an entry in the Cambridge 
# Structural Database, then it will include bibliographic, chemical, 
# crystal, experimental, refinement or atomic coordinate data resulting 
# from the CCDC's data processing and validation procedures.
#
#######################################################################

data_SEPYIX
_chemical_formula_moiety         'C26 H18 S1'
_chemical_name_systematic        'Phenyl 10-phenyl-9-phenanthryl sulfide'
_symmetry_cell_setting           monoclinic
_symmetry_space_group_name_H-M   'P 21/n'
_symmetry_Int_Tables_number      14
_space_group_name_Hall           '-P 2yn'
loop_
_symmetry_equiv_pos_site_id
_symmetry_equiv_pos_as_xyz
1 x,y,z
2 1/2-x,1/2+y,1/2-z
3 -x,-y,-z
4 1/2+x,1/2-y,1/2+z
_cell_length_a                   10.584(3)
_cell_length_b                   10.879(3)
_cell_length_c                   16.559(4)
_cell_angle_alpha                90
_cell_angle_beta                 98.725(5)
_cell_angle_gamma                90
_cell_volume                     1884.59
_exptl_crystal_colour            colorless
_exptl_crystal_description       Block
_cell_formula_units_Z            4
loop_
_atom_site_label
_atom_site_type_symbol
_atom_site_fract_x
_atom_site_fract_y
_atom_site_fract_z
S1 S 0.38701(6) 0.17407(6) 0.15712(4)
C1 C 0.6085(3) 0.2429(4) 0.3095(2)
H1 H 0.5917 0.3167 0.2816
C2 C 0.6034(3) 0.2365(5) 0.3927(2)
H2 H 0.5825 0.3064 0.4202
C3 C 0.6289(4) 0.1283(6) 0.4349(2)
H3 H 0.6260 0.1249 0.4907
C4 C 0.6585(4) 0.0260(5) 0.3939(2)
H4 H 0.6749 -0.0477 0.4221
C5 C 0.6643(3) 0.0302(3) 0.31169(19)
H5 H 0.6857 -0.0402 0.2849
C6 C 0.6386(2) 0.1388(3) 0.26842(17)
C7 C 0.6449(2) 0.1435(2) 0.17862(16)
C8 C 0.7675(2) 0.1273(2) 0.15144(16)
C9 C 0.8814(3) 0.1152(3) 0.20735(18)
H6 H 0.8773 0.1142 0.2631
C10 C 0.9973(3) 0.1048(3) 0.1816(2)
H7 H 1.0710 0.0957 0.2196
C11 C 1.0056(3) 0.1077(3) 0.0990(2)
H8 H 1.0849 0.1023 0.0816
C12 C 0.8970(3) 0.1187(3) 0.04316(19)
H9 H 0.9038 0.1205 -0.0122
C13 C 0.7758(2) 0.1273(2) 0.06686(16)
C14 C 0.6600(3) 0.1378(2) 0.00768(16)
C15 C 0.6600(3) 0.1270(2) -0.07721(17)
H10 H 0.7365 0.1109 -0.0964
C16 C 0.5505(3) 0.1394(3) -0.13179(18)
H11 H 0.5529 0.1326 -0.1875
C17 C 0.4356(3) 0.1624(3) -0.10404(18)
H12 H 0.3612 0.1722 -0.1413
C18 C 0.4311(3) 0.1705(3) -0.02243(17)
H13 H 0.3531 0.1847 -0.0047
C19 C 0.5424(2) 0.1578(2) 0.03556(16)
C20 C 0.5381(2) 0.1615(2) 0.12255(16)
C21 C 0.3478(2) 0.3321(2) 0.14485(15)
C22 C 0.4170(3) 0.4181(3) 0.10896(17)
H14 H 0.4932 0.3960 0.0913
C23 C 0.3725(3) 0.5371(3) 0.09937(19)
H15 H 0.4192 0.5952 0.0750
C24 C 0.2601(3) 0.5712(3) 0.1253(2)
H16 H 0.2303 0.6514 0.1177
C25 C 0.1927(3) 0.4865(3) 0.1621(2)
H17 H 0.1173 0.5095 0.1804
C26 C 0.2356(3) 0.3670(3) 0.17235(18)
H18 H 0.1894 0.3098 0.1977
loop_
_geom_bond_atom_site_label_1
_geom_bond_atom_site_label_2
_geom_bond_site_symmetry_1
_geom_bond_site_symmetry_2
S1 C20 1_555 1_555
C1 H1 1_555 1_555
C2 C1 1_555 1_555
H2 C2 1_555 1_555
C3 C2 1_555 1_555
H3 C3 1_555 1_555
C4 C3 1_555 1_555
H4 C4 1_555 1_555
C5 C4 1_555 1_555
H5 C5 1_555 1_555
C6 C1 1_555 1_555
C7 C6 1_555 1_555
C8 C7 1_555 1_555
C9 C8 1_555 1_555
H6 C9 1_555 1_555
C10 C9 1_555 1_555
H7 C10 1_555 1_555
C11 C10 1_555 1_555
H8 C11 1_555 1_555
C12 C11 1_555 1_555
H9 C12 1_555 1_555
C13 C8 1_555 1_555
C14 C13 1_555 1_555
C15 C14 1_555 1_555
H10 C15 1_555 1_555
C16 C15 1_555 1_555
H11 C16 1_555 1_555
C17 C16 1_555 1_555
H12 C17 1_555 1_555
C18 C17 1_555 1_555
H13 C18 1_555 1_555
C19 C14 1_555 1_555
C20 C7 1_555 1_555
C21 S1 1_555 1_555
C22 C21 1_555 1_555
H14 C22 1_555 1_555
C23 C22 1_555 1_555
H15 C23 1_555 1_555
C24 C23 1_555 1_555
H16 C24 1_555 1_555
C25 C24 1_555 1_555
H17 C25 1_555 1_555
C26 C21 1_555 1_555
H18 C26 1_555 1_555
C5 C6 1_555 1_555
C12 C13 1_555 1_555
C18 C19 1_555 1_555
C19 C20 1_555 1_555
C25 C26 1_555 1_555

#END
