
#######################################################################
#
#                 Cambridge Crystallographic Data Centre
#                                CCDC 
#
#######################################################################
#
# If this CIF has been generated from an entry in the Cambridge 
# Structural Database, then it will include bibliographic, chemical, 
# crystal, experimental, refinement or atomic coordinate data resulting 
# from the CCDC's data processing and validation procedures.
#
#######################################################################

data_SEPZEU
_chemical_formula_moiety         'C66 H57 N6 3+,5(H2 O1),3(Br1 1-)'
_chemical_name_systematic        
"3,3',3''-((2,4,6-Trimethylbenzene-1,3,5-triyl)tris(methylene))tris(1-(9-anthrylmethyl)-1H-imidazolium) tribromide pentahydrate"
_symmetry_cell_setting           monoclinic
_symmetry_space_group_name_H-M   'C 2/c'
_symmetry_Int_Tables_number      15
_space_group_name_Hall           '-C 2yn'
loop_
_symmetry_equiv_pos_site_id
_symmetry_equiv_pos_as_xyz
1 x,y,z
2 -x,y,1/2-z
3 1/2+x,1/2+y,z
4 1/2-x,1/2+y,1/2-z
5 -x,-y,-z
6 x,-y,1/2+z
7 1/2-x,1/2-y,-z
8 1/2+x,1/2-y,1/2+z
_cell_length_a                   38.905(5)
_cell_length_b                   15.3839(19)
_cell_length_c                   19.874(2)
_cell_angle_alpha                90
_cell_angle_beta                 103.180(3)
_cell_angle_gamma                90
_cell_volume                     11581.5
_exptl_crystal_colour            yellow
_exptl_crystal_description       cubic
_cell_formula_units_Z            8
loop_
_atom_site_label
_atom_site_type_symbol
_atom_site_fract_x
_atom_site_fract_y
_atom_site_fract_z
Br1 Br 0.19168(2) 0.22373(5) 0.22140(5)
N1 N 0.24974(18) 0.4852(4) 0.2067(4)
N2 N 0.14858(19) 0.3731(4) 0.3962(3)
C1 C 0.1559(2) 0.4797(5) 0.3086(4)
C2 C 0.1283(2) 0.4782(5) 0.1862(4)
N3 N 0.08592(18) 0.3746(4) 0.1166(3)
C3 C 0.1610(2) 0.5006(5) 0.1708(4)
C4 C 0.1585(2) 0.0433(5) 0.4731(4)
C5 C 0.1896(2) 0.5174(5) 0.2242(5)
N4 N 0.05632(17) 0.2612(4) 0.0760(3)
C6 C 0.3434(2) 0.2240(5) 0.2422(4)
N5 N 0.27485(18) 0.3617(4) 0.1974(4)
C7 C 0.1323(2) 0.0261(5) 0.3484(4)
C8 C 0.2851(2) 0.5010(5) 0.2136(5)
H1 H 0.2962 0.5548 0.2209
C9 C 0.0278(2) 0.2036(5) 0.0347(4)
H2 H 0.0363 0.1769 -0.0027
H3 H 0.0074 0.2389 0.0143
C10 C 0.3689(3) 0.2229(6) 0.3657(5)
H4 H 0.3667 0.2335 0.4106
C11 C 0.0954(2) 0.4677(5) 0.1296(4)
H5 H 0.0760 0.4979 0.1425
H6 H 0.0992 0.4939 0.0875
C12 C 0.2444(2) 0.4000(5) 0.1976(5)
H7 H 0.2228 0.3719 0.1922
C13 C 0.3160(2) 0.2417(5) 0.1842(5)
C14 C 0.3538(3) 0.1993(5) 0.1072(5)
N6 N 0.15658(19) 0.2343(4) 0.3981(3)
C15 C 0.2228(2) 0.5540(5) 0.2077(5)
H8 H 0.2168 0.5824 0.1630
H9 H 0.2327 0.5975 0.2420
C16 C 0.0141(2) -0.0197(6) 0.1099(5)
C17 C 0.1786(2) 0.0872(6) 0.5304(5)
H10 H 0.1890 0.1399 0.5237
C18 C 0.1681(3) -0.0235(6) 0.6079(5)
H11 H 0.1718 -0.0447 0.6528
C19 C 0.1417(2) -0.0384(5) 0.4860(4)
C20 C 0.4046(3) 0.1759(6) 0.2916(6)
H12 H 0.4260 0.1546 0.2850
C21 C 0.0865(2) 0.2325(5) 0.1193(4)
H13 H 0.0928 0.1748 0.1297
C22 C 0.1527(2) 0.4668(5) 0.3820(4)
H14 H 0.1736 0.4893 0.4134
H15 H 0.1324 0.4988 0.3897
C23 C 0.1880(2) 0.5046(5) 0.2940(4)
C24 C 0.1535(2) 0.0708(5) 0.4045(5)
C25 C -0.0066(2) 0.1555(6) 0.1192(4)
C26 C 0.1268(2) 0.0507(6) 0.2773(4)
H16 H 0.1358 0.1033 0.2661
C27 C 0.3006(2) 0.4247(5) 0.2078(4)
H17 H 0.3245 0.4158 0.2103
C28 C 0.1058(2) 0.3036(5) 0.1444(4)
H18 H 0.1279 0.3044 0.1744
C29 C 0.1207(2) -0.0832(5) 0.4309(5)
H19 H 0.1095 -0.1340 0.4398
C30 C 0.1257(2) 0.4682(4) 0.2543(4)
C31 C 0.2207(2) 0.5170(6) 0.3515(5)
H20 H 0.2150 0.5062 0.3952
H21 H 0.2291 0.5754 0.3504
H22 H 0.2387 0.4770 0.3452
C32 C 0.1159(2) -0.0549(5) 0.3634(5)
C33 C 0.3411(3) 0.2385(6) 0.3118(5)
H23 H 0.3201 0.2591 0.3206
C34 C 0.3215(2) 0.2341(5) 0.1168(5)
C35 C 0.0284(2) 0.0483(5) 0.0726(4)
C36 C 0.2803(2) 0.2664(5) 0.1946(5)
H24 H 0.2624 0.2423 0.1572
H25 H 0.2772 0.2407 0.2374
C37 C 0.1741(2) 0.1502(5) 0.3897(5)
H26 H 0.1973 0.1495 0.4206
H27 H 0.1772 0.1463 0.3428
C38 C 0.0930(2) -0.0801(6) 0.2421(5)
H28 H 0.0808 -0.1151 0.2063
C39 C 0.0562(2) 0.3479(5) 0.0756(4)
H29 H 0.0383 0.3832 0.0508
C40 C 0.0911(2) 0.4427(6) 0.2709(5)
H30 H 0.0941 0.4386 0.3201
H31 H 0.0837 0.3874 0.2502
H32 H 0.0736 0.4858 0.2531
C41 C -0.0182(2) 0.2420(6) 0.1257(5)
H33 H -0.0108 0.2861 0.1003
C42 C 0.1089(2) 0.0002(6) 0.2266(5)
H34 H 0.1067 0.0168 0.1808
C43 C 0.1303(2) 0.2500(5) 0.4319(5)
H35 H 0.1183 0.2086 0.4519
C44 C 0.0529(2) 0.0223(6) 0.0330(5)
H36 H 0.0627 0.0645 0.0095
C45 C 0.1673(3) 0.3102(5) 0.3763(4)
H37 H 0.1848 0.3172 0.3517
C46 C 0.0957(2) -0.1042(6) 0.3081(5)
H38 H 0.0842 -0.1541 0.3176
C47 C 0.1250(2) 0.3373(6) 0.4310(4)
H39 H 0.1087 0.3671 0.4499
C48 C 0.3760(2) 0.1921(5) 0.2327(5)
C49 C 0.0624(3) -0.0621(7) 0.0284(5)
H40 H 0.0787 -0.0766 0.0026
C50 C 0.3795(2) 0.1773(5) 0.1642(5)
H41 H 0.4002 0.1517 0.1576
C51 C 0.1478(3) -0.0695(6) 0.5549(5)
H42 H 0.1378 -0.1219 0.5639
C52 C 0.2959(3) 0.2613(6) 0.0577(5)
H43 H 0.2746 0.2847 0.0627
C53 C -0.0200(2) 0.0877(6) 0.1562(5)
C54 C 0.0169(2) 0.1348(5) 0.0774(5)
C55 C 0.3585(3) 0.1885(6) 0.0374(5)
H44 H 0.3791 0.1632 0.0304
C56 C -0.0093(2) 0.0025(7) 0.1483(5)
H45 H -0.0188 -0.0416 0.1706
C57 C 0.0247(3) -0.1082(6) 0.1015(6)
H46 H 0.0155 -0.1527 0.1238
C58 C 0.1632(3) 0.5076(6) 0.0951(5)
H47 H 0.1407 0.4930 0.0658
H48 H 0.1808 0.4681 0.0865
H49 H 0.1694 0.5659 0.0855
C59 C 0.4007(3) 0.1912(6) 0.3545(6)
H50 H 0.4195 0.1808 0.3921
C60 C 0.3027(3) 0.2530(7) -0.0077(5)
H51 H 0.2862 0.2736 -0.0458
C61 C -0.0425(3) 0.1094(8) 0.1991(5)
H52 H -0.0507 0.0658 0.2239
C62 C -0.0529(3) 0.1939(8) 0.2053(5)
H53 H -0.0683 0.2070 0.2333
C63 C 0.3334(3) 0.2148(6) -0.0175(5)
H54 H 0.3367 0.2072 -0.0620
C64 C 0.1834(3) 0.0553(6) 0.5952(5)
H55 H 0.1970 0.0863 0.6320
C65 C 0.0475(3) -0.1280(6) 0.0625(6)
H56 H 0.0536 -0.1858 0.0578
C66 C -0.0398(3) 0.2616(7) 0.1684(6)
H57 H -0.0462 0.3190 0.1736
Br2 Br 0.06657(3) 0.51545(6) 0.44128(5)
Br3 Br 0.0000 0.71830(16) 0.2500
O1 O -0.0221(2) 0.3787(5) -0.0180(4)
O2 O -0.0149(2) 0.5500(7) 0.3524(4)
O3 O 0.0519(2) 0.2691(6) -0.0942(4)
O4 O 0.2558(3) 0.2874(9) 0.3478(6)
O5 O 0.2475(4) 0.5071(9) 0.5343(6)
Br5 Br 0.22729(9) 0.3239(2) 0.51817(18)
Br5F Br 0.27271(9) 0.1761(2) 0.48183(18)
Br4? Br 0.25692(12) 0.2358(3) 0.4995(3)
loop_
_geom_bond_atom_site_label_1
_geom_bond_atom_site_label_2
_geom_bond_site_symmetry_1
_geom_bond_site_symmetry_2
N1 C8 1_555 1_555
N2 C22 1_555 1_555
C1 C22 1_555 1_555
C2 C3 1_555 1_555
N3 C11 1_555 1_555
C3 C5 1_555 1_555
C4 C17 1_555 1_555
C5 C15 1_555 1_555
N4 C9 1_555 1_555
C6 C13 1_555 1_555
N5 C12 1_555 1_555
C7 C24 1_555 1_555
C8 H1 1_555 1_555
C9 H2 1_555 1_555
H3 C9 1_555 1_555
C10 H4 1_555 1_555
C11 C2 1_555 1_555
H5 C11 1_555 1_555
H6 C11 1_555 1_555
C12 N1 1_555 1_555
H7 C12 1_555 1_555
C13 C34 1_555 1_555
C14 C34 1_555 1_555
N6 C37 1_555 1_555
C15 N1 1_555 1_555
H8 C15 1_555 1_555
H9 C15 1_555 1_555
C16 C35 1_555 1_555
C17 H10 1_555 1_555
C18 H11 1_555 1_555
C19 C4 1_555 1_555
C20 H12 1_555 1_555
C21 N4 1_555 1_555
H13 C21 1_555 1_555
C22 H14 1_555 1_555
H15 C22 1_555 1_555
C23 C1 1_555 1_555
C24 C4 1_555 1_555
C25 C41 1_555 1_555
C26 C7 1_555 1_555
H16 C26 1_555 1_555
C27 N5 1_555 1_555
H17 C27 1_555 1_555
C28 N3 1_555 1_555
H18 C28 1_555 1_555
C29 C19 1_555 1_555
H19 C29 1_555 1_555
C30 C1 1_555 1_555
C31 C23 1_555 1_555
H20 C31 1_555 1_555
H21 C31 1_555 1_555
H22 C31 1_555 1_555
C32 C7 1_555 1_555
C33 C6 1_555 1_555
H23 C33 1_555 1_555
C34 C52 1_555 1_555
C35 C44 1_555 1_555
C36 N5 1_555 1_555
H24 C36 1_555 1_555
H25 C36 1_555 1_555
C37 C24 1_555 1_555
H26 C37 1_555 1_555
H27 C37 1_555 1_555
C38 H28 1_555 1_555
C39 N3 1_555 1_555
H29 C39 1_555 1_555
C40 C30 1_555 1_555
H30 C40 1_555 1_555
H31 C40 1_555 1_555
H32 C40 1_555 1_555
C41 H33 1_555 1_555
C42 C26 1_555 1_555
H34 C42 1_555 1_555
C43 N6 1_555 1_555
H35 C43 1_555 1_555
C44 H36 1_555 1_555
C45 N2 1_555 1_555
H37 C45 1_555 1_555
C46 C32 1_555 1_555
H38 C46 1_555 1_555
C47 N2 1_555 1_555
H39 C47 1_555 1_555
C48 C6 1_555 1_555
C49 C44 1_555 1_555
H40 C49 1_555 1_555
C50 C14 1_555 1_555
H41 C50 1_555 1_555
C51 C18 1_555 1_555
H42 C51 1_555 1_555
C52 H43 1_555 1_555
C53 C25 1_555 1_555
C54 C9 1_555 1_555
C55 C14 1_555 1_555
H44 C55 1_555 1_555
C56 C16 1_555 1_555
H45 C56 1_555 1_555
C57 C16 1_555 1_555
H46 C57 1_555 1_555
C58 C3 1_555 1_555
H47 C58 1_555 1_555
H48 C58 1_555 1_555
H49 C58 1_555 1_555
C59 C10 1_555 1_555
H50 C59 1_555 1_555
C60 C52 1_555 1_555
H51 C60 1_555 1_555
C61 C53 1_555 1_555
H52 C61 1_555 1_555
C62 C61 1_555 1_555
H53 C62 1_555 1_555
C63 C55 1_555 1_555
H54 C63 1_555 1_555
C64 C17 1_555 1_555
H55 C64 1_555 1_555
C65 C49 1_555 1_555
H56 C65 1_555 1_555
C66 C41 1_555 1_555
H57 C66 1_555 1_555
C2 C30 1_555 1_555
C5 C23 1_555 1_555
N4 C39 1_555 1_555
C8 C27 1_555 1_555
C10 C33 1_555 1_555
C13 C36 1_555 1_555
N6 C45 1_555 1_555
C18 C64 1_555 1_555
C19 C51 1_555 1_555
C20 C48 1_555 1_555
C20 C59 1_555 1_555
C21 C28 1_555 1_555
C25 C54 1_555 1_555
C29 C32 1_555 1_555
C35 C54 1_555 1_555
C38 C42 1_555 1_555
C38 C46 1_555 1_555
C43 C47 1_555 1_555
C48 C50 1_555 1_555
C53 C56 1_555 1_555
C57 C65 1_555 1_555
C60 C63 1_555 1_555
C62 C66 1_555 1_555

#END
