
#######################################################################
#
#                 Cambridge Crystallographic Data Centre
#                                CCDC 
#
#######################################################################
#
# If this CIF has been generated from an entry in the Cambridge 
# Structural Database, then it will include bibliographic, chemical, 
# crystal, experimental, refinement or atomic coordinate data resulting 
# from the CCDC's data processing and validation procedures.
#
#######################################################################

data_SEPZAQ
_chemical_formula_moiety         
'C66 H57 N6 3+,2(C6 H2 N3 O7 1-),Br1 1-,0.5(C4 H8 O2),H2 O1'
_chemical_name_systematic        
"3,3',3''-((2,4,6-Trimethylbenzene-1,3,5-triyl)tris(methylene))tris(1-(9-anthrylmethyl)-1H-imidazolium) bromide bis(2,4,6-trinitrophenolate) ethyl acetate solvate monohydrate"
_symmetry_cell_setting           monoclinic
_symmetry_space_group_name_H-M   'P c'
_symmetry_Int_Tables_number      7
_space_group_name_Hall           'P -2yc'
loop_
_symmetry_equiv_pos_site_id
_symmetry_equiv_pos_as_xyz
1 x,y,z
2 x,-y,1/2+z
_cell_length_a                   15.2753(19)
_cell_length_b                   15.4099(14)
_cell_length_c                   31.734(4)
_cell_angle_alpha                90
_cell_angle_beta                 99.903(2)
_cell_angle_gamma                90
_cell_volume                     7358.59
_exptl_crystal_colour            yellow
_exptl_crystal_description       block
_cell_formula_units_Z            4
loop_
_atom_site_label
_atom_site_type_symbol
_atom_site_fract_x
_atom_site_fract_y
_atom_site_fract_z
Br1 Br 0.0315(8) 0.38032(18) 0.3908(4)
Br2 Br 0.0292(8) 0.12064(18) 0.0297(4)
N1 N -0.0232(17) 0.5077(14) 0.4949(8)
C1 C 0.022(4) 0.389(2) 0.5411(15)
N2 N -0.0058(19) 0.6293(19) 0.4660(9)
N3 N -0.1292(18) 0.5328(15) 0.2713(9)
C2 C -0.193(2) 0.5049(19) 0.2365(9)
H1 H -0.2189 0.5418 0.2147
C3 C 0.069(2) 0.6144(18) 0.3163(12)
N4 N 0.279(2) 0.393(2) 0.3628(10)
C4 C -0.023(2) 0.5734(17) 0.5224(8)
H2 H -0.0281 0.5656 0.5508
C5 C -0.033(3) 0.621(2) 0.3155(11)
C6 C -0.014(2) 0.649(2) 0.5058(12)
H3 H -0.0132 0.7034 0.5186
C7 C 0.300(3) 0.225(2) 0.3654(10)
C8 C -0.087(4) 0.350(2) 0.5815(11)
H4 H -0.1306 0.3559 0.5571
N5 N 0.263(2) 0.5221(16) 0.3443(9)
C9 C 0.228(3) 0.1948(19) 0.3363(11)
C10 C 0.009(3) 0.365(2) 0.5810(11)
C11 C -0.037(2) 0.6554(17) 0.3608(12)
C12 C 0.108(3) 0.6474(19) 0.3886(10)
C13 C -0.269(2) 0.1258(18) 0.2390(9)
C14 C -0.219(2) 0.0496(17) 0.2370(10)
H5 H -0.2364 -0.0019 0.2484
C15 C -0.142(2) 0.051(2) 0.2180(11)
H6 H -0.1091 0.0011 0.2167
C16 C -0.115(2) 0.129(3) 0.2008(10)
H7 H -0.0648 0.1307 0.1882
C17 C -0.166(2) 0.206(2) 0.2028(9)
H8 H -0.1479 0.2572 0.1914
C18 C -0.242(2) 0.2038(17) 0.2218(9)
C19 C 0.180(3) 0.653(2) 0.4252(14)
H9 H 0.2358 0.6405 0.4160
H10 H 0.1708 0.6116 0.4466
H11 H 0.1825 0.7103 0.4371
C20 C -0.103(2) 0.621(2) 0.2804(13)
H12 H -0.0843 0.6475 0.2557
H13 H -0.1529 0.6543 0.2873
C21 C 0.126(2) 0.6206(18) 0.3450(13)
C22 C -0.362(2) 0.282(2) 0.2458(10)
C23 C 0.029(3) 0.660(2) 0.3924(12)
C24 C -0.043(3) 0.321(2) 0.6558(9)
H14 H -0.0624 0.3167 0.6818
C25 C -0.291(2) 0.2820(18) 0.2269(8)
C26 C -0.096(2) 0.4583(19) 0.2947(11)
H15 H -0.0490 0.4545 0.3177
C27 C 0.248(4) 0.103(2) 0.3195(14)
C28 C 0.149(3) 0.231(2) 0.3248(12)
H16 H 0.1350 0.2841 0.3355
N6 N -0.212(2) 0.424(2) 0.2375(9)
C29 C 0.353(3) 0.421(2) 0.3461(11)
H17 H 0.4051 0.3902 0.3447
C30 C -0.018(2) 0.5510(18) 0.4566(10)
H18 H -0.0237 0.5264 0.4296
C31 C 0.230(3) 0.462(2) 0.3646(11)
H19 H 0.1801 0.4671 0.3779
C32 C -0.154(3) 0.387(3) 0.2736(14)
H20 H -0.1528 0.3291 0.2821
C33 C 0.090(4) 0.352(3) 0.6197(12)
C34 C 0.128(4) 0.394(3) 0.542(2)
C35 C 0.228(2) 0.614(3) 0.3370(14)
H21 H 0.2305 0.6318 0.3080
H22 H 0.2645 0.6534 0.3563
C36 C 0.163(4) 0.362(3) 0.618(2)
H23 H 0.2026 0.3605 0.6436
C37 C 0.332(3) 0.503(2) 0.3326(13)
H24 H 0.3645 0.5382 0.3171
C38 C -0.271(3) 0.370(2) 0.2080(12)
H25 H -0.2437 0.3599 0.1829
H26 H -0.3259 0.4011 0.1989
C39 C 0.273(2) 0.309(2) 0.3852(11)
H27 H 0.2117 0.3022 0.3892
H28 H 0.3087 0.3145 0.4135
C40 C 0.340(3) 0.074(2) 0.3324(12)
H29 H 0.3574 0.0222 0.3214
C41 C 0.086(2) 0.5824(19) 0.2721(10)
H30 H 0.0308 0.5780 0.2527
H31 H 0.1144 0.5265 0.2753
H32 H 0.1243 0.6229 0.2610
C42 C 0.185(5) 0.056(3) 0.2877(17)
H33 H 0.1994 0.0031 0.2764
C43 C 0.087(3) 0.183(3) 0.2950(11)
H34 H 0.0316 0.2073 0.2867
C44 C 0.102(7) 0.096(3) 0.275(2)
H35 H 0.0580 0.0696 0.2559
C45 C 0.557(2) 0.125(2) 0.3910(11)
H36 H 0.6134 0.1008 0.3960
C46 C 0.542(2) 0.206(2) 0.4087(10)
H37 H 0.5888 0.2358 0.4254
C47 C 0.456(2) 0.2432(17) 0.4012(9)
H38 H 0.4467 0.2969 0.4129
C48 C 0.3857(19) 0.1988(17) 0.3760(9)
C49 C 0.401(2) 0.1175(17) 0.3583(9)
C50 C 0.486(2) 0.0807(17) 0.3658(10)
H39 H 0.4959 0.0269 0.3541
C51 C -0.335(3) 0.125(2) 0.2600(11)
H40 H -0.3505 0.0737 0.2725
C52 C -0.381(3) 0.201(3) 0.2636(14)
C53 C -0.465(3) 0.198(3) 0.2803(15)
H41 H -0.4828 0.1435 0.2883
C54 C -0.522(2) 0.265(2) 0.2856(13)
H42 H -0.5712 0.2586 0.2988
C55 C -0.417(3) 0.358(2) 0.2514(11)
H43 H -0.4002 0.4128 0.2438
C56 C 0.306(6) 0.422(5) 0.537(2)
H44 H 0.3610 0.4386 0.5305
C57 C 0.292(3) 0.399(3) 0.572(2)
C58 C 0.157(5) 0.415(4) 0.504(2)
H45 H 0.1220 0.4252 0.4775
C59 C -0.045(2) 0.4148(16) 0.5011(9)
H46 H -0.0367 0.3802 0.4766
H47 H -0.1054 0.4082 0.5060
C60 C 0.239(5) 0.419(3) 0.513(2)
H48 H 0.2566 0.4202 0.4864
C61 C 0.002(3) 0.701(2) 0.4295(13)
H49 H -0.0550 0.7297 0.4211
H50 H 0.0453 0.7448 0.4410
C62 C -0.497(3) 0.347(4) 0.2685(14)
H51 H -0.5351 0.3939 0.2687
C63 C -0.132(3) 0.665(3) 0.3654(11)
H52 H -0.1689 0.6531 0.3385
H53 H -0.1419 0.7231 0.3742
H54 H -0.1450 0.6248 0.3865
C64 C 0.198(7) 0.377(3) 0.584(2)
C65 C -0.108(2) 0.328(2) 0.6210(9)
H55 H -0.1665 0.3183 0.6238
C66 C 0.047(5) 0.320(3) 0.6581(14)
H56 H 0.0827 0.3000 0.6829
H57 H 0.436(10) -0.424(6) 0.648(4)
N7 N 0.0686(17) 0.1310(11) 0.4562(8)
N8 N 0.1992(19) 0.0269(17) 0.6516(10)
N9 N 0.0868(18) 0.0101(14) 0.4260(8)
C67 C -0.160(2) 0.1134(16) 0.5830(11)
H58 H -0.2004 0.1489 0.5633
H59 H -0.1613 0.1346 0.6117
C68 C -0.168(2) -0.043(2) 0.5579(10)
H60 H -0.1169 -0.0429 0.5453
C69 C 0.074(2) 0.0407(17) 0.4597(10)
H61 H 0.0696 0.0089 0.4841
C70 C 0.090(2) 0.067(2) 0.3910(11)
H62 H 0.0979 0.0564 0.3630
N10 N -0.223(2) -0.1058(17) 0.5561(10)
C71 C 0.007(3) 0.1073(19) 0.6102(10)
C72 C 0.038(2) 0.1616(15) 0.5320(10)
N11 N -0.193(2) 0.0233(18) 0.5799(10)
C73 C 0.091(3) -0.085(2) 0.4213(10)
H63 H 0.0649 -0.1126 0.4437
H64 H 0.1525 -0.1030 0.4244
C74 C 0.082(3) 0.1239(15) 0.6009(11)
C75 C 0.429(3) -0.222(3) 0.6735(14)
C76 C 0.052(2) 0.1967(15) 0.4859(8)
H65 H -0.0012 0.2286 0.4733
H66 H 0.1010 0.2373 0.4899
C77 C -0.275(3) -0.005(3) 0.5948(17)
H67 H -0.3108 0.0263 0.6100
C78 C 0.076(2) 0.1503(19) 0.4138(9)
H68 H 0.0735 0.2055 0.4018
C79 C 0.356(4) -0.216(4) 0.6978(14)
C80 C -0.057(3) 0.1498(19) 0.5357(13)
C81 C 0.161(3) 0.115(2) 0.6395(13)
H69 H 0.2086 0.1514 0.6336
H70 H 0.1405 0.1384 0.6644
C82 C 0.323(3) -0.132(2) 0.7152(12)
H71 H 0.3730 -0.0964 0.7277
H72 H 0.2891 -0.1457 0.7377
C83 C -0.075(2) 0.1243(19) 0.5743(12)
C84 C -0.285(3) -0.088(3) 0.5811(14)
H73 H -0.3278 -0.1270 0.5876
C85 C 0.112(2) 0.1401(17) 0.5658(10)
C86 C 0.175(2) -0.046(2) 0.6274(11)
H74 H 0.1383 -0.0476 0.6009
C87 C 0.211(2) -0.108(2) 0.6463(12)
H75 H 0.2023 -0.1656 0.6381
C88 C 0.456(3) -0.298(3) 0.6586(10)
N12 N 0.2638(18) -0.0800(16) 0.6804(8)
C89 C 0.258(3) 0.010(3) 0.6828(14)
H76 H 0.2903 0.0473 0.7026
C90 C 0.042(2) -0.1127(16) 0.3782(8)
C91 C 0.268(3) -0.441(3) 0.6847(13)
H77 H 0.2789 -0.4895 0.6690
C92 C -0.040(2) -0.1045(18) 0.3742(9)
C93 C -0.213(2) -0.1879(16) 0.5303(9)
H78 H -0.1530 -0.1919 0.5240
H79 H -0.2544 -0.1871 0.5035
C94 C -0.091(3) -0.0863(16) 0.4093(11)
H80 H -0.0560 -0.0788 0.4360
C95 C 0.565(4) -0.236(4) 0.6329(14)
H81 H 0.6153 -0.2376 0.6200
C96 C 0.297(3) -0.290(3) 0.6997(12)
C97 C -0.179(3) -0.311(2) 0.5836(12)
C98 C -0.099(3) -0.1174(19) 0.3313(14)
C99 C -0.186(3) -0.114(2) 0.3326(17)
H82 H -0.2203 -0.1294 0.3068
C100 C 0.209(4) -0.447(3) 0.7038(15)
H83 H 0.1841 -0.5003 0.7079
C101 C -0.239(4) -0.091(3) 0.364(2)
H84 H -0.3000 -0.0846 0.3578
C102 C 0.536(4) -0.157(4) 0.6465(16)
H85 H 0.5619 -0.1050 0.6396
C103 C 0.223(3) -0.292(3) 0.7210(12)
H86 H 0.2072 -0.2419 0.7347
C104 C -0.193(3) -0.391(2) 0.6014(11)
C105 C 0.327(3) -0.366(3) 0.6825(12)
C106 C 0.470(3) -0.156(4) 0.6697(14)
H87 H 0.4565 -0.1051 0.6828
C107 C 0.175(3) -0.363(3) 0.7219(13)
H88 H 0.1221 -0.3632 0.7331
C108 C -0.043(3) -0.145(2) 0.2973(13)
H89 H -0.0730 -0.1559 0.2697
C109 C 0.409(2) -0.365(4) 0.6642(13)
C110 C 0.522(4) -0.311(3) 0.6383(12)
H90 H 0.5369 -0.3655 0.6287
C111 C -0.008(3) 0.073(2) 0.6538(9)
H91 H -0.0708 0.0666 0.6537
H92 H 0.0168 0.1123 0.6759
H93 H 0.0200 0.0170 0.6589
C112 C -0.132(2) 0.164(2) 0.4981(10)
H94 H -0.1080 0.1810 0.4733
H95 H -0.1709 0.2089 0.5051
H96 H -0.1652 0.1111 0.4921
C113 C 0.208(2) 0.149(2) 0.5580(10)
H97 H 0.2084 0.1673 0.5291
H98 H 0.2378 0.0937 0.5627
H99 H 0.2393 0.1908 0.5775
C114 C -0.319(4) -0.304(3) 0.5450(13)
C115 C -0.483(4) -0.297(3) 0.5112(14)
H100 H -0.5252 -0.2583 0.4976
C116 C -0.395(5) -0.269(3) 0.5172(19)
H101 H -0.3843 -0.2220 0.5008
C117 C -0.015(3) -0.320(2) 0.6277(14)
H102 H 0.0406 -0.2960 0.6369
C118 C -0.081(3) -0.285(2) 0.6007(12)
H103 H -0.0645 -0.2336 0.5891
C119 C -0.044(2) -0.4002(19) 0.6401(9)
H104 H -0.0032 -0.4347 0.6577
C120 C -0.122(2) -0.4296(19) 0.6292(9)
H105 H -0.1334 -0.4829 0.6409
C121 C -0.515(7) -0.374(7) 0.523(3)
H106 H -0.5732 -0.3942 0.5161
C122 C -0.184(4) -0.078(3) 0.409(2)
H107 H -0.2094 -0.0667 0.4329
C123 C -0.440(4) -0.421(2) 0.5482(16)
H108 H -0.4549 -0.4761 0.5562
C124 C 0.0413(16) -0.1523(11) 0.3047(6)
C125 C 0.0940(14) -0.1326(11) 0.3434(6)
C126 C 0.1853(14) -0.1390(11) 0.3479(6)
H109 H 0.2208 -0.1257 0.3739
C127 C 0.2239(15) -0.1649(11) 0.3137(7)
H110 H 0.2853 -0.1692 0.3167
C128 C 0.1712(18) -0.1846(11) 0.2750(7)
H111 H 0.1971 -0.2021 0.2520
C129 C 0.0799(18) -0.1782(11) 0.2705(7)
H112 H 0.0444 -0.1915 0.2445
C130 C -0.277(4) -0.426(3) 0.5897(17)
H113 H -0.2875 -0.4791 0.6022
C131 C -0.339(4) -0.396(4) 0.5647(17)
C132 C -0.232(3) -0.264(2) 0.5572(14)
O1 O 0.773(2) 0.5761(16) 0.4598(10)
O2 O 0.499(5) 0.439(5) 0.453(4)
O3 O 0.415(3) 0.852(3) 0.387(2)
O4 O 0.548(5) 0.861(4) 0.3628(18)
C133 C 0.478(4) 0.664(4) 0.405(2)
C134 C 0.531(9) 0.729(8) 0.395(4)
C135 C 0.636(5) 0.734(4) 0.411(3)
H114 H 0.6731 0.7817 0.4104
C136 C 0.658(5) 0.652(6) 0.427(2)
C137 C 0.614(5) 0.582(4) 0.438(2)
H115 H 0.6378 0.5406 0.4579
C138 C 0.529(6) 0.578(6) 0.415(2)
N13 N 0.484(2) 0.510(8) 0.434(2)
O5 O 0.414(4) 0.687(5) 0.367(2)
O6 O 0.396(2) 0.521(3) 0.4359(13)
N14 N 0.500(3) 0.816(2) 0.3866(14)
O7 O 0.788(2) 0.715(2) 0.4485(10)
N15 N 0.750(2) 0.642(2) 0.4494(11)
O8 O -0.520(4) -0.029(3) 0.2482(18)
O9 O -0.576(4) -0.116(2) 0.2880(19)
N16 N -0.507(5) -0.088(4) 0.2703(13)
C139 C -0.436(3) -0.231(2) 0.2799(10)
H116 H -0.3857 -0.2139 0.2986
C140 C -0.502(2) -0.162(2) 0.2615(13)
C141 C -0.585(2) -0.1882(16) 0.2480(9)
H117 H -0.6259 -0.1439 0.2405
N17 N -0.377(4) -0.380(4) 0.2761(19)
O10 O -0.371(3) -0.3688(17) 0.3284(14)
O11 O -0.337(3) -0.420(2) 0.2816(11)
C142 C -0.542(3) -0.341(4) 0.2516(15)
C143 C -0.617(3) -0.266(2) 0.2438(11)
C144 C -0.445(2) -0.308(2) 0.2720(11)
O12 O -0.580(2) -0.3851(19) 0.2672(9)
O13 O -0.714(2) -0.369(2) 0.2395(10)
O14 O -0.755(2) -0.224(2) 0.2109(10)
N18 N -0.700(2) -0.293(3) 0.2266(11)
O15 O -0.226(2) 0.274(2) 0.3604(9)
O16 O 0.288(3) 0.050(3) 0.4519(15)
N19 N 0.307(4) 0.128(4) 0.4647(15)
O17 O 0.278(3) 0.202(3) 0.4671(10)
N20 N 0.600(5) 0.304(4) 0.546(3)
C145 C 0.578(6) 0.167(9) 0.516(6)
C146 C 0.559(5) 0.085(5) 0.4929(18)
C147 C 0.456(4) 0.052(4) 0.4738(15)
H118 H 0.4377 0.0004 0.4602
C148 C 0.404(4) 0.123(5) 0.4835(16)
C149 C 0.450(4) 0.210(5) 0.5078(16)
H119 H 0.4095 0.2558 0.5052
C150 C 0.531(4) 0.235(7) 0.531(3)
O18 O 0.555(3) -0.069(4) 0.480(3)
N21 N 0.595(7) -0.001(5) 0.479(3)
O19 O 0.671(6) 0.309(10) 0.517(4)
O20 O 0.669(3) 0.129(10) 0.511(3)
O21 O 0.676(2) -0.048(2) 0.4715(9)
O22 O 0.525(3) 0.358(2) 0.5520(10)
N22 N 0.519(5) 0.419(3) 0.6604(12)
O23 O 0.711(2) 0.3642(16) 0.6784(9)
C151 C 0.4934(17) 0.265(3) 0.6492(10)
H120 H 0.4342 0.2787 0.6392
C152 C 0.547(3) 0.3233(17) 0.6613(10)
C153 C 0.626(2) 0.305(2) 0.6746(13)
C154 C 0.6505(16) 0.229(2) 0.6758(10)
C155 C 0.597(2) 0.1708(16) 0.6637(10)
H121 H 0.6153 0.1133 0.6646
C156 C 0.518(2) 0.189(2) 0.6504(12)
O24 O 0.593(2) 0.4821(17) 0.6654(10)
N23 N 0.453(4) 0.115(3) 0.6389(15)
O25 O 0.504(5) 0.039(4) 0.631(3)
O26 O 0.785(2) 0.140(3) 0.6861(11)
O27 O 0.803(3) 0.238(2) 0.7222(12)
N24 N 0.753(4) 0.183(3) 0.6942(13)
O28 O 0.483(2) 0.4456(14) 0.6256(11)
O29 O 0.390(2) 0.1373(17) 0.6239(9)
O30 O -0.285(4) 0.393(4) 0.3645(19)
O31 O 0.269(3) -0.174(2) 0.4940(12)
O32 O 0.279(4) -0.229(6) 0.562(2)
C157 C 0.287(4) -0.170(4) 0.528(2)
C158 C 0.241(3) -0.308(3) 0.5498(15)
H122 H 0.1973 -0.3000 0.5239
H123 H 0.2860 -0.3471 0.5435
C159 C 0.364(4) -0.116(4) 0.5383(18)
H124 H 0.3762 -0.0900 0.5125
H125 H 0.4133 -0.1506 0.5512
H126 H 0.3528 -0.0714 0.5579
C160 C 0.209(3) -0.335(3) 0.5740(17)
H127 H 0.1912 -0.3933 0.5664
H128 H 0.1574 -0.3009 0.5767
H129 H 0.2494 -0.3347 0.6007
H130? H 0.328(10) 0.348(10) 0.555(5)
loop_
_geom_bond_atom_site_label_1
_geom_bond_atom_site_label_2
_geom_bond_site_symmetry_1
_geom_bond_site_symmetry_2
N1 C4 1_555 1_555
C1 C10 1_555 1_555
N2 C6 1_555 1_555
N3 C2 1_555 1_555
C2 H1 1_555 1_555
C3 C5 1_555 1_555
N4 C29 1_555 1_555
C4 H2 1_555 1_555
C5 C11 1_555 1_555
C6 C4 1_555 1_555
H3 C6 1_555 1_555
C7 C9 1_555 1_555
C8 H4 1_555 1_555
N5 C31 1_555 1_555
C9 C27 1_555 1_555
C10 C8 1_555 1_555
C11 C23 1_555 1_555
C12 C19 1_555 1_555
C13 C14 1_555 1_555
C14 H5 1_555 1_555
C15 C14 1_555 1_555
H6 C15 1_555 1_555
C16 C15 1_555 1_555
H7 C16 1_555 1_555
C17 C16 1_555 1_555
H8 C17 1_555 1_555
C18 C13 1_555 1_555
C19 H9 1_555 1_555
H10 C19 1_555 1_555
H11 C19 1_555 1_555
C20 N3 1_555 1_555
H12 C20 1_555 1_555
H13 C20 1_555 1_555
C21 C3 1_555 1_555
C22 C25 1_555 1_555
C23 C12 1_555 1_555
C24 H14 1_555 1_555
C25 C18 1_555 1_555
C26 N3 1_555 1_555
H15 C26 1_555 1_555
C27 C40 1_555 1_555
C28 C9 1_555 1_555
H16 C28 1_555 1_555
N6 C2 1_555 1_555
C29 H17 1_555 1_555
C30 N1 1_555 1_555
H18 C30 1_555 1_555
C31 N4 1_555 1_555
H19 C31 1_555 1_555
C32 C26 1_555 1_555
H20 C32 1_555 1_555
C33 C10 1_555 1_555
C34 C1 1_555 1_555
C35 N5 1_555 1_555
H21 C35 1_555 1_555
H22 C35 1_555 1_555
C36 C33 1_555 1_555
H23 C36 1_555 1_555
C37 N5 1_555 1_555
H24 C37 1_555 1_555
C38 C25 1_555 1_555
H25 C38 1_555 1_555
H26 C38 1_555 1_555
C39 N4 1_555 1_555
H27 C39 1_555 1_555
H28 C39 1_555 1_555
C40 H29 1_555 1_555
C41 C3 1_555 1_555
H30 C41 1_555 1_555
H31 C41 1_555 1_555
H32 C41 1_555 1_555
C42 C27 1_555 1_555
H33 C42 1_555 1_555
C43 C28 1_555 1_555
H34 C43 1_555 1_555
C44 C42 1_555 1_555
H35 C44 1_555 1_555
C45 H36 1_555 1_555
C46 C45 1_555 1_555
H37 C46 1_555 1_555
C47 C46 1_555 1_555
H38 C47 1_555 1_555
C48 C7 1_555 1_555
C49 C40 1_555 1_555
C50 C45 1_555 1_555
H39 C50 1_555 1_555
C51 C13 1_555 1_555
H40 C51 1_555 1_555
C52 C22 1_555 1_555
C53 C52 1_555 1_555
H41 C53 1_555 1_555
C54 C53 1_555 1_555
H42 C54 1_555 1_555
C55 C22 1_555 1_555
H43 C55 1_555 1_555
C56 H44 1_555 1_555
C57 C56 1_555 1_555
C58 C34 1_555 1_555
H45 C58 1_555 1_555
C59 N1 1_555 1_555
H46 C59 1_555 1_555
H47 C59 1_555 1_555
C60 C56 1_555 1_555
H48 C60 1_555 1_555
C61 N2 1_555 1_555
H49 C61 1_555 1_555
H50 C61 1_555 1_555
C62 C54 1_555 1_555
H51 C62 1_555 1_555
C63 C11 1_555 1_555
H52 C63 1_555 1_555
H53 C63 1_555 1_555
H54 C63 1_555 1_555
C64 C34 1_555 1_555
C65 C8 1_555 1_555
H55 C65 1_555 1_555
C66 C24 1_555 1_555
H56 C66 1_555 1_555
H57 C109 1_555 1_555
N7 C69 1_555 1_555
N8 C81 1_555 1_555
N9 C69 1_555 1_555
C67 H58 1_555 1_555
H59 C67 1_555 1_555
C68 H60 1_555 1_555
C69 H61 1_555 1_555
C70 N9 1_555 1_555
H62 C70 1_555 1_555
N10 C68 1_555 1_555
C71 C74 1_555 1_555
C72 C76 1_555 1_555
N11 C67 1_555 1_555
C73 N9 1_555 1_555
H63 C73 1_555 1_555
H64 C73 1_555 1_555
C74 C81 1_555 1_555
C75 C79 1_555 1_555
C76 N7 1_555 1_555
H65 C76 1_555 1_555
H66 C76 1_555 1_555
C77 N11 1_555 1_555
H67 C77 1_555 1_555
C78 N7 1_555 1_555
H68 C78 1_555 1_555
C79 C82 1_555 1_555
C80 C72 1_555 1_555
C81 H69 1_555 1_555
H70 C81 1_555 1_555
C82 H71 1_555 1_555
H72 C82 1_555 1_555
C83 C67 1_555 1_555
C84 N10 1_555 1_555
H73 C84 1_555 1_555
C85 C72 1_555 1_555
C86 N8 1_555 1_555
H74 C86 1_555 1_555
C87 C86 1_555 1_555
H75 C87 1_555 1_555
C88 C75 1_555 1_555
N12 C82 1_555 1_555
C89 N8 1_555 1_555
H76 C89 1_555 1_555
C90 C73 1_555 1_555
C91 H77 1_555 1_555
C92 C90 1_555 1_555
C93 N10 1_555 1_555
H78 C93 1_555 1_555
H79 C93 1_555 1_555
C94 C92 1_555 1_555
H80 C94 1_555 1_555
C95 H81 1_555 1_555
C96 C79 1_555 1_555
C97 C104 1_555 1_555
C98 C92 1_555 1_555
C99 C98 1_555 1_555
H82 C99 1_555 1_555
C100 C91 1_555 1_555
H83 C100 1_555 1_555
C101 C99 1_555 1_555
H84 C101 1_555 1_555
C102 C95 1_555 1_555
H85 C102 1_555 1_555
C103 C96 1_555 1_555
H86 C103 1_555 1_555
C104 C120 1_555 1_555
C105 C91 1_555 1_555
C106 C75 1_555 1_555
H87 C106 1_555 1_555
C107 C100 1_555 1_555
H88 C107 1_555 1_555
C108 C98 1_555 1_555
H89 C108 1_555 1_555
C109 C88 1_555 1_555
C110 C88 1_555 1_555
H90 C110 1_555 1_555
C111 C71 1_555 1_555
H91 C111 1_555 1_555
H92 C111 1_555 1_555
H93 C111 1_555 1_555
C112 C80 1_555 1_555
H94 C112 1_555 1_555
H95 C112 1_555 1_555
H96 C112 1_555 1_555
C113 C85 1_555 1_555
H97 C113 1_555 1_555
H98 C113 1_555 1_555
H99 C113 1_555 1_555
C114 C116 1_555 1_555
C115 H100 1_555 1_555
C116 C115 1_555 1_555
H101 C116 1_555 1_555
C117 H102 1_555 1_555
C118 C97 1_555 1_555
H103 C118 1_555 1_555
C119 C117 1_555 1_555
H104 C119 1_555 1_555
C120 C119 1_555 1_555
H105 C120 1_555 1_555
C121 C115 1_555 1_555
H106 C121 1_555 1_555
C122 C94 1_555 1_555
H107 C122 1_555 1_555
C123 C121 1_555 1_555
H108 C123 1_555 1_555
C124 C108 1_555 1_555
C125 C90 1_555 1_555
C126 C125 1_555 1_555
H109 C126 1_555 1_555
C127 C126 1_555 1_555
H110 C127 1_555 1_555
C128 C127 1_555 1_555
H111 C128 1_555 1_555
C129 C124 1_555 1_555
H112 C129 1_555 1_555
C130 C104 1_555 1_555
H113 C130 1_555 1_555
C131 C114 1_555 1_555
C132 C93 1_555 1_555
O1 N15 1_555 1_555
O2 N13 1_555 1_555
O3 N14 1_555 1_555
O4 N14 1_555 1_555
C133 C134 1_555 1_555
C134 C135 1_555 1_555
C135 H114 1_555 1_555
C136 C135 1_555 1_555
C137 C136 1_555 1_555
H115 C137 1_555 1_555
C138 C133 1_555 1_555
N13 C138 1_555 1_555
O5 C133 1_555 1_555
O6 N13 1_555 1_555
N14 C134 1_555 1_555
O7 N15 1_555 1_555
N15 C136 1_555 1_555
O8 N16 1_555 1_555
O9 N16 1_555 1_555
N16 C140 1_555 1_555
C139 H116 1_555 1_555
C140 C139 1_555 1_555
C141 C140 1_555 1_555
H117 C141 1_555 1_555
N17 O10 1_555 1_555
O11 N17 1_555 1_555
C142 C143 1_555 1_555
C143 C141 1_555 1_555
C144 C139 1_555 1_555
O12 C142 1_555 1_555
O13 N18 1_555 1_555
O14 N18 1_555 1_555
N18 C143 1_555 1_555
O16 N19 1_555 1_555
N19 O17 1_555 1_555
N20 C150 1_555 1_555
C145 C146 1_555 1_555
C146 C147 1_555 1_555
C147 H118 1_555 1_555
C148 N19 1_555 1_555
C149 C148 1_555 1_555
H119 C149 1_555 1_555
C150 C145 1_555 1_555
O18 N21 1_555 1_555
N21 C146 1_555 1_555
O19 N20 1_555 1_555
O20 C145 1_555 1_555
O21 N21 1_555 1_555
O22 N20 1_555 1_555
N22 C152 1_555 1_555
O23 C153 1_555 1_555
C151 H120 1_555 1_555
C152 C151 1_555 1_555
C153 C152 1_555 1_555
C154 C153 1_555 1_555
C155 C154 1_555 1_555
H121 C155 1_555 1_555
C156 C151 1_555 1_555
O24 N22 1_555 1_555
N23 C156 1_555 1_555
O25 N23 1_555 1_555
O26 N24 1_555 1_555
O27 N24 1_555 1_555
N24 C154 1_555 1_555
O28 N22 1_555 1_555
O29 N23 1_555 1_555
O31 C157 1_555 1_555
O32 C157 1_555 1_555
C157 C159 1_555 1_555
C158 O32 1_555 1_555
H122 C158 1_555 1_555
H123 C158 1_555 1_555
C159 H124 1_555 1_555
H125 C159 1_555 1_555
H126 C159 1_555 1_555
C160 C158 1_555 1_555
H127 C160 1_555 1_555
H128 C160 1_555 1_555
H129 C160 1_555 1_555
C1 C59 1_555 1_555
N2 C30 1_555 1_555
C5 C20 1_555 1_555
C7 C39 1_555 1_555
C12 C21 1_555 1_555
C17 C18 1_555 1_555
C21 C35 1_555 1_555
C23 C61 1_555 1_555
C24 C65 1_555 1_555
N6 C32 1_555 1_555
N6 C38 1_555 1_555
C29 C37 1_555 1_555
C33 C66 1_555 1_555
C36 C64 1_555 1_555
C43 C44 1_555 1_555
C47 C48 1_555 1_555
C48 C49 1_555 1_555
C49 C50 1_555 1_555
C51 C52 1_555 1_555
C55 C62 1_555 1_555
C57 C64 1_555 1_555
C58 C60 1_555 1_555
C68 N11 1_555 1_555
C70 C78 1_555 1_555
C71 C83 1_555 1_555
C74 C85 1_555 1_555
C77 C84 1_555 1_555
C80 C83 1_555 1_555
C87 N12 1_555 1_555
N12 C89 1_555 1_555
C95 C110 1_555 1_555
C96 C105 1_555 1_555
C97 C132 1_555 1_555
C101 C122 1_555 1_555
C102 C106 1_555 1_555
C103 C107 1_555 1_555
C105 C109 1_555 1_555
C114 C132 1_555 1_555
C117 C118 1_555 1_555
C123 C131 1_555 1_555
C124 C125 1_555 1_555
C128 C129 1_555 1_555
C130 C131 1_555 1_555
C137 C138 1_555 1_555
N17 C144 1_555 1_555
C142 C144 1_555 1_555
C147 C148 1_555 1_555
C149 C150 1_555 1_555
C155 C156 1_555 1_555

#END
