
#######################################################################
#
#                 Cambridge Crystallographic Data Centre
#                                CCDC 
#
#######################################################################
#
# If this CIF has been generated from an entry in the Cambridge 
# Structural Database, then it will include bibliographic, chemical, 
# crystal, experimental, refinement or atomic coordinate data resulting 
# from the CCDC's data processing and validation procedures.
#
#######################################################################

data_SEPZEV
_chemical_formula_moiety         'C9 H7 N1 O5 S1'
_chemical_name_systematic        
'5-oxo-2,3-dihydro-5H-[1,3]thiazolo[3,2-a]pyridine-3,7-dicarboxylic acid'
_symmetry_cell_setting           orthorhombic
_symmetry_space_group_name_H-M   'P b c a'
_symmetry_Int_Tables_number      61
_space_group_name_Hall           '-P 2ac 2ab'
loop_
_symmetry_equiv_pos_site_id
_symmetry_equiv_pos_as_xyz
1 x,y,z
2 1/2-x,-y,1/2+z
3 -x,1/2+y,1/2-z
4 1/2+x,1/2-y,-z
5 -x,-y,-z
6 1/2+x,y,1/2-z
7 x,1/2-y,1/2+z
8 1/2-x,1/2+y,z
_cell_length_a                   11.021(5)
_cell_length_b                   9.374(4)
_cell_length_c                   18.596(8)
_cell_angle_alpha                90
_cell_angle_beta                 90
_cell_angle_gamma                90
_cell_volume                     1921.17
_exptl_crystal_colour            yellow
_exptl_crystal_description       block
_cell_formula_units_Z            8
loop_
_atom_site_label
_atom_site_type_symbol
_atom_site_fract_x
_atom_site_fract_y
_atom_site_fract_z
S1 S 0.27084(4) 1.12816(5) 0.65281(2)
N1 N 0.06507(11) 0.99846(13) 0.63458(6)
O1 O 0.07163(12) 1.03359(13) 0.82703(6)
H1 H 0.0847 0.9760 0.8593
O2 O 0.11215(12) 0.84780(12) 0.75539(7)
O3 O -0.12158(10) 0.89786(13) 0.64320(6)
O4 O 0.08627(12) 0.65073(15) 0.43522(7)
O5 O 0.25210(12) 0.78484(15) 0.42147(7)
H2 H 0.2777 0.7165 0.3985
C1 C 0.13916(15) 1.19892(17) 0.69974(9)
H3 H 0.1610 1.2314 0.7475
H4 H 0.1037 1.2778 0.6733
C2 C 0.05150(14) 1.07337(16) 0.70357(8)
H5 H -0.0319 1.1080 0.7090
C3 C -0.02277(14) 0.90638(16) 0.60943(8)
C4 C 0.00884(14) 0.82866(17) 0.54644(8)
H6 H -0.0469 0.7655 0.5265
C5 C 0.11971(14) 0.84530(17) 0.51479(8)
C6 C 0.15095(15) 0.75077(19) 0.45196(8)
C7 C 0.20655(15) 0.94106(18) 0.54249(8)
H7 H 0.2810 0.9541 0.5199
C8 C 0.17748(14) 1.01374(16) 0.60354(8)
C9 C 0.08248(13) 0.96984(17) 0.76439(8)
loop_
_geom_bond_atom_site_label_1
_geom_bond_atom_site_label_2
_geom_bond_site_symmetry_1
_geom_bond_site_symmetry_2
S1 C1 1_555 1_555
N1 C2 1_555 1_555
O1 H1 1_555 1_555
O2 C9 1_555 1_555
O3 C3 1_555 1_555
O4 C6 1_555 1_555
O5 H2 1_555 1_555
C1 H3 1_555 1_555
H4 C1 1_555 1_555
C2 C1 1_555 1_555
H5 C2 1_555 1_555
C3 N1 1_555 1_555
C4 C3 1_555 1_555
H6 C4 1_555 1_555
C5 C4 1_555 1_555
C6 O5 1_555 1_555
C7 C5 1_555 1_555
H7 C7 1_555 1_555
C8 S1 1_555 1_555
C9 O1 1_555 1_555
N1 C8 1_555 1_555
C2 C9 1_555 1_555
C5 C6 1_555 1_555
C7 C8 1_555 1_555

#END
