
#######################################################################
#
#                 Cambridge Crystallographic Data Centre
#                                CCDC 
#
#######################################################################
#
# If this CIF has been generated from an entry in the Cambridge 
# Structural Database, then it will include bibliographic, chemical, 
# crystal, experimental, refinement or atomic coordinate data resulting 
# from the CCDC's data processing and validation procedures.
#
#######################################################################

data_SEQBAR
_chemical_formula_moiety         '2(C1 H6 N3 1+),C2 H5 O3 S1 1-,Cl1 1-'
_chemical_name_systematic        'bis(Guanidinium) ethanesulfonate chloride'
_symmetry_cell_setting           orthorhombic
_symmetry_space_group_name_H-M   'C m c 21'
_symmetry_Int_Tables_number      36
_space_group_name_Hall           'C 2n -2'
loop_
_symmetry_equiv_pos_site_id
_symmetry_equiv_pos_as_xyz
1 x,y,z
2 -x,-y,1/2+z
3 -x,y,z
4 x,-y,1/2+z
5 1/2+x,1/2+y,z
6 1/2-x,1/2-y,1/2+z
7 1/2-x,1/2+y,z
8 1/2+x,1/2-y,1/2+z
_cell_length_a                   7.286(4)
_cell_length_b                   21.434(5)
_cell_length_c                   8.571(2)
_cell_angle_alpha                90
_cell_angle_beta                 90
_cell_angle_gamma                90
_cell_volume                     1338.52
_exptl_crystal_colour            colorless
_exptl_crystal_description       prism
_chemical_melting_point          144-146deg.C
_cell_formula_units_Z            4
_exptl_crystal_recrystallization_method methanol
loop_
_atom_site_label
_atom_site_type_symbol
_atom_site_fract_x
_atom_site_fract_y
_atom_site_fract_z
Cl1 Cl 0.0000 0.18158(6) 0.5844(2)
N1 N 0.5000 0.1899(2) 0.5868(7)
N2 N 0.3426(4) 0.2576(2) 0.7396(5)
C3 C 0.5000 0.2356(2) 0.6884(7)
H6 H 0.3871 0.1734 0.5515
H7 H 0.2311 0.2403 0.7029
H8 H 0.3418 0.2905 0.8134
N2B N 0.6574(4) 0.2576(2) 0.7396(5)
H7B H 0.7689 0.2403 0.7029
H8B H 0.6582 0.2905 0.8134
H6B H 0.6129 0.1734 0.5515
N3 N 0.0000 0.0455(2) 0.2742(8)
N4 N 0.1557(4) -0.0383(1) 0.1752(6)
C4 C 0.0000 -0.0107(3) 0.2074(8)
H9 H 0.1597 0.0646 0.2965
H10 H 0.2696 -0.0176 0.1986
H11 H 0.1586 -0.0780 0.1268
N4B N -0.1557(4) -0.0383(1) 0.1752(6)
H10B H -0.2696 -0.0176 0.1986
H11B H -0.1586 -0.0780 0.1268
H9B H -0.1597 0.0646 0.2965
S1 S 0.5000 0.09285(6) 0.2588
O1 O 0.3339(3) 0.1145(1) 0.3357(4)
O2 O 0.5000 0.0257(1) 0.2361(5)
C1 C 0.5000 0.1269(3) 0.072(1)
C2 C 0.351(2) 0.1079(5) -0.025(1)
H1 H 0.4940 0.1708 0.0831
H2 H 0.6116 0.1159 0.0209
H3 H 0.3601 0.1292 -0.1230
H4 H 0.3593 0.0642 -0.0432
H5 H 0.2394 0.1178 0.0234
O1B O 0.6661(3) 0.1145(1) 0.3357(4)
H2B H 0.3884 0.1159 0.0209
C2B C 0.649(2) 0.1079(5) -0.025(1)
H1B H 0.5060 0.1708 0.0831
H3B H 0.6399 0.1292 -0.1230
H4B H 0.6407 0.0642 -0.0432
H5B H 0.7606 0.1178 0.0234
loop_
_geom_bond_atom_site_label_1
_geom_bond_atom_site_label_2
_geom_bond_site_symmetry_1
_geom_bond_site_symmetry_2
S1 O1 1_555 1_555
O2 S1 1_555 1_555
C1 S1 1_555 1_555
C2 C1 1_555 1_555
H1 C1 1_555 1_555
H2 C1 1_555 1_555
H3 C2 1_555 1_555
H4 C2 1_555 1_555
H5 C2 1_555 1_555
N1 C3 1_555 1_555
N2 C3 1_555 1_555
C3 N2B 1_555 1_555
H6 N1 1_555 1_555
H7 N2 1_555 1_555
H8 N2 1_555 1_555
N3 C4 1_555 1_555
N4 C4 1_555 1_555
C4 N4B 1_555 1_555
H9 N3 1_555 1_555
H10 N4 1_555 1_555
H11 N4 1_555 1_555
O1B S1 1_555 1_555
H2B C1 1_555 1_555
C2B C1 1_555 1_555
H1B C1 1_555 1_555
H3B C2B 1_555 1_555
H4B C2B 1_555 1_555
H5B C2B 1_555 1_555
N2B H7B 1_555 1_555
H8B N2B 1_555 1_555
H6B N1 1_555 1_555
N4B H10B 1_555 1_555
H11B N4B 1_555 1_555
H9B N3 1_555 1_555
C2 H2B 1_555 1_555
H1 H1B 1_555 1_555
H2 C2B 1_555 1_555

#END
