
#######################################################################
#
#                 Cambridge Crystallographic Data Centre
#                                CCDC 
#
#######################################################################
#
# If this CIF has been generated from an entry in the Cambridge 
# Structural Database, then it will include bibliographic, chemical, 
# crystal, experimental, refinement or atomic coordinate data resulting 
# from the CCDC's data processing and validation procedures.
#
#######################################################################

data_SEQBUO
_chemical_formula_moiety         'C20 H17 N1 O4 S2'
_chemical_name_systematic        
N-(phenylsulfonyl)-N-(2-phenylvinyl)benzenesulfonamide
_symmetry_cell_setting           monoclinic
_symmetry_space_group_name_H-M   'P 21/c'
_symmetry_Int_Tables_number      14
_space_group_name_Hall           '-P 2ybc'
loop_
_symmetry_equiv_pos_site_id
_symmetry_equiv_pos_as_xyz
1 x,y,z
2 -x,1/2+y,1/2-z
3 -x,-y,-z
4 x,1/2-y,1/2+z
_cell_length_a                   14.0128(17)
_cell_length_b                   8.8244(11)
_cell_length_c                   16.431(2)
_cell_angle_alpha                90
_cell_angle_beta                 112.361(2)
_cell_angle_gamma                90
_cell_volume                     1878.99
_exptl_crystal_colour            colorless
_exptl_crystal_description       prism
_cell_formula_units_Z            4
loop_
_atom_site_label
_atom_site_type_symbol
_atom_site_fract_x
_atom_site_fract_y
_atom_site_fract_z
C1 C 0.0937(3) 0.1233(5) 0.2303(3)
H1 H 0.1541 0.1500 0.2769
C2 C 0.0167(4) 0.0413(6) 0.2464(3)
H2 H 0.0255 0.0110 0.3030
C3 C -0.0713(4) 0.0076(5) 0.1762(4)
H3 H -0.1229 -0.0480 0.1851
C4 C -0.0850(4) 0.0528(6) 0.0948(4)
H4 H -0.1466 0.0317 0.0481
C5 C -0.0102(4) 0.1281(6) 0.0809(3)
H5 H -0.0207 0.1569 0.0237
C6 C 0.0800(3) 0.1642(4) 0.1461(3)
C7 C 0.1654(4) 0.2501(5) 0.1352(4)
H6 H 0.2122 0.2903 0.1875
C8 C 0.1851(4) 0.2765(5) 0.0750(4)
H7 H 0.1409 0.2272 0.0247
C9 C 0.2399(3) 0.6575(4) 0.0978(2)
C10 C 0.1666(3) 0.6679(4) 0.1356(3)
H8 H 0.1056 0.6127 0.1133
C11 C 0.1872(4) 0.7626(5) 0.2072(3)
H9 H 0.1396 0.7713 0.2339
C12 C 0.2776(4) 0.8439(5) 0.2391(3)
H10 H 0.2909 0.9071 0.2875
C13 C 0.3482(4) 0.8331(5) 0.2006(3)
H11 H 0.4088 0.8894 0.2226
C14 C 0.3303(3) 0.7393(4) 0.1292(3)
H12 H 0.3782 0.7315 0.1029
C15 C 0.3823(2) 0.2093(4) -0.0083(2)
C16 C 0.3612(3) 0.0562(4) -0.0164(2)
H13 H 0.3463 0.0046 0.0267
C17 C 0.3627(3) -0.0188(5) -0.0890(3)
H14 H 0.3486 -0.1221 -0.0954
C18 C 0.3847(3) 0.0575(6) -0.1520(3)
H15 H 0.3849 0.0057 -0.2012
C19 C 0.4065(3) 0.2097(6) -0.1437(2)
H16 H 0.4216 0.2603 -0.1870
C20 C 0.4060(3) 0.2878(4) -0.0706(2)
H17 H 0.4213 0.3907 -0.0638
N1 N 0.2594(2) 0.3650(3) 0.05795(19)
O1 O 0.44536(19) 0.4341(3) 0.10197(16)
O2 O 0.3972(2) 0.1947(3) 0.15275(15)
O3 O 0.1083(2) 0.5152(4) -0.03512(18)
O4 O 0.2791(2) 0.5734(3) -0.03766(18)
S1 S 0.38165(7) 0.30416(10) 0.08554(5)
S2 S 0.21709(8) 0.53338(12) 0.00950(6)
loop_
_geom_bond_atom_site_label_1
_geom_bond_atom_site_label_2
_geom_bond_site_symmetry_1
_geom_bond_site_symmetry_2
C1 H1 1_555 1_555
C2 C1 1_555 1_555
H2 C2 1_555 1_555
C3 C2 1_555 1_555
H3 C3 1_555 1_555
C4 C3 1_555 1_555
H4 C4 1_555 1_555
C5 C4 1_555 1_555
H5 C5 1_555 1_555
C6 C1 1_555 1_555
C7 C6 1_555 1_555
H6 C7 1_555 1_555
C8 C7 1_555 1_555
H7 C8 1_555 1_555
C9 C10 1_555 1_555
C10 H8 1_555 1_555
C11 C10 1_555 1_555
H9 C11 1_555 1_555
C12 C11 1_555 1_555
H10 C12 1_555 1_555
C13 C12 1_555 1_555
H11 C13 1_555 1_555
C14 C9 1_555 1_555
H12 C14 1_555 1_555
C15 C16 1_555 1_555
C16 H13 1_555 1_555
C17 C16 1_555 1_555
H14 C17 1_555 1_555
C18 C17 1_555 1_555
H15 C18 1_555 1_555
C19 C18 1_555 1_555
H16 C19 1_555 1_555
C20 C15 1_555 1_555
H17 C20 1_555 1_555
N1 C8 1_555 1_555
O1 S1 1_555 1_555
O2 S1 1_555 1_555
O3 S2 1_555 1_555
O4 S2 1_555 1_555
S1 C15 1_555 1_555
S2 C9 1_555 1_555
C5 C6 1_555 1_555
C13 C14 1_555 1_555
C19 C20 1_555 1_555
N1 S1 1_555 1_555
N1 S2 1_555 1_555

#END
