
#######################################################################
#
#                 Cambridge Crystallographic Data Centre
#                                CCDC 
#
#######################################################################
#
# If this CIF has been generated from an entry in the Cambridge 
# Structural Database, then it will include bibliographic, chemical, 
# crystal, experimental, refinement or atomic coordinate data resulting 
# from the CCDC's data processing and validation procedures.
#
#######################################################################

data_SEQCEY
_chemical_formula_moiety         'C16 H25 F1 O3'
_chemical_name_systematic        
'6-(2-Fluoropropan-2-yl)-5-hydroxy-8a-(methoxymethyl)-4-methyleneoctahydronaphthalen-1(2H)-one unknown solvate'
_symmetry_cell_setting           triclinic
_symmetry_space_group_name_H-M   'P -1'
_symmetry_Int_Tables_number      2
_space_group_name_Hall           '-P 1'
loop_
_symmetry_equiv_pos_site_id
_symmetry_equiv_pos_as_xyz
1 x,y,z
2 -x,-y,-z
_cell_length_a                   7.924(3)
_cell_length_b                   9.569(4)
_cell_length_c                   13.406(5)
_cell_angle_alpha                74.476(4)
_cell_angle_beta                 80.638(4)
_cell_angle_gamma                77.042(4)
_cell_volume                     948.76
_exptl_crystal_colour            colorless
_exptl_crystal_description       block
_cell_formula_units_Z            2
loop_
_atom_site_label
_atom_site_type_symbol
_atom_site_fract_x
_atom_site_fract_y
_atom_site_fract_z
C1 C 0.5391(2) 0.5038(2) 0.30065(14)
C2 C 0.5187(3) 0.6607(2) 0.30739(18)
H1 H 0.3987 0.6972 0.3313
H2 H 0.5472 0.7220 0.2389
C3 C 0.6391(3) 0.6705(2) 0.38309(18)
H3 H 0.6392 0.7736 0.3776
H4 H 0.5934 0.6282 0.4537
C4 C 0.8236(2) 0.5917(2) 0.36270(13)
C5 C 0.8379(2) 0.43426(18) 0.35497(12)
H5 H 0.7840 0.3844 0.4223
C6 C 0.7226(2) 0.42545(18) 0.27276(13)
C7 C 1.0221(2) 0.34380(18) 0.34355(12)
H6 H 1.0843 0.3472 0.4001
C8 C 1.0158(2) 0.18258(18) 0.35086(13)
H7 H 0.9492 0.1484 0.4180
C9 C 0.9103(2) 0.1734(2) 0.26828(15)
H8 H 0.9044 0.0710 0.2753
H9 H 0.9684 0.2098 0.1997
C10 C 0.7265(2) 0.2634(2) 0.27796(15)
H10 H 0.6648 0.2201 0.3436
H11 H 0.6654 0.2579 0.2224
C11 C 0.9564(3) 0.6556(2) 0.35780(17)
H12 H 0.9372 0.7511 0.3670
H13 H 1.0695 0.6053 0.3451
C12 C 0.7828(2) 0.5074(2) 0.16157(13)
H14 H 0.8075 0.6020 0.1621
H15 H 0.8877 0.4495 0.1337
C13 C 0.6937(4) 0.5927(4) -0.00560(17)
H16 H 0.7940 0.5304 -0.0319
H17 H 0.7205 0.6879 -0.0119
H18 H 0.5985 0.6038 -0.0449
C14 C 1.1934(2) 0.07754(19) 0.35337(14)
C15 C 1.3081(3) 0.0871(2) 0.25152(17)
H19 H 1.2460 0.0731 0.2002
H20 H 1.4111 0.0119 0.2607
H21 H 1.3403 0.1825 0.2287
C16 C 1.2905(3) 0.0807(2) 0.43974(16)
H22 H 1.2130 0.0759 0.5030
H23 H 1.3352 0.1705 0.4223
H24 H 1.3853 -0.0024 0.4492
O1 O 0.41557(17) 0.44240(17) 0.31952(11)
O2 O 0.64667(17) 0.52810(17) 0.10040(9)
O3 O 1.11394(15) 0.40505(14) 0.24598(9)
H25 H 1.1995 0.4315 0.2566
F1 F 1.15129(15) -0.06796(11) 0.38153(9)
loop_
_geom_bond_atom_site_label_1
_geom_bond_atom_site_label_2
_geom_bond_site_symmetry_1
_geom_bond_site_symmetry_2
C1 C2 1_555 1_555
C2 H1 1_555 1_555
H2 C2 1_555 1_555
C3 C2 1_555 1_555
H3 C3 1_555 1_555
H4 C3 1_555 1_555
C4 C3 1_555 1_555
C5 C4 1_555 1_555
H5 C5 1_555 1_555
C6 C1 1_555 1_555
C7 C5 1_555 1_555
H6 C7 1_555 1_555
C8 C7 1_555 1_555
H7 C8 1_555 1_555
C9 C8 1_555 1_555
H8 C9 1_555 1_555
H9 C9 1_555 1_555
C10 C6 1_555 1_555
H10 C10 1_555 1_555
H11 C10 1_555 1_555
C11 C4 1_555 1_555
H12 C11 1_555 1_555
H13 C11 1_555 1_555
C12 C6 1_555 1_555
H14 C12 1_555 1_555
H15 C12 1_555 1_555
C13 H16 1_555 1_555
H17 C13 1_555 1_555
H18 C13 1_555 1_555
C14 C8 1_555 1_555
C15 C14 1_555 1_555
H19 C15 1_555 1_555
H20 C15 1_555 1_555
H21 C15 1_555 1_555
C16 C14 1_555 1_555
H22 C16 1_555 1_555
H23 C16 1_555 1_555
H24 C16 1_555 1_555
O1 C1 1_555 1_555
O2 C12 1_555 1_555
O3 C7 1_555 1_555
H25 O3 1_555 1_555
F1 C14 1_555 1_555
C5 C6 1_555 1_555
C9 C10 1_555 1_555
C13 O2 1_555 1_555

#END
