
#######################################################################
#
#                 Cambridge Crystallographic Data Centre
#                                CCDC 
#
#######################################################################
#
# If this CIF has been generated from an entry in the Cambridge 
# Structural Database, then it will include bibliographic, chemical, 
# crystal, experimental, refinement or atomic coordinate data resulting 
# from the CCDC's data processing and validation procedures.
#
#######################################################################

data_SEQCEZ
_chemical_formula_moiety         'C27 H32 O5,0.5(C4 H8 O2)'
_chemical_name_systematic        
'(2,4-dihydroxy-3,6-dimethoxyphenyl)(7-isopropyl-5-methyl-3-phenylbicyclo[2.2.2]oct-5-en-2-yl)methanone ethyl acetate solvate'
_symmetry_cell_setting           orthorhombic
_symmetry_space_group_name_H-M   'P 21 21 21'
_symmetry_Int_Tables_number      19
_space_group_name_Hall           'P 2ac 2ab'
loop_
_symmetry_equiv_pos_site_id
_symmetry_equiv_pos_as_xyz
1 x,y,z
2 1/2+x,1/2-y,-z
3 -x,1/2+y,1/2-z
4 1/2-x,-y,1/2+z
_cell_length_a                   16.1444(9)
_cell_length_b                   16.5294(9)
_cell_length_c                   19.7875(11)
_cell_angle_alpha                90
_cell_angle_beta                 90
_cell_angle_gamma                90
_cell_volume                     5280.44
_exptl_crystal_colour            colorless
_exptl_crystal_description       block
_cell_formula_units_Z            8
loop_
_atom_site_label
_atom_site_type_symbol
_atom_site_fract_x
_atom_site_fract_y
_atom_site_fract_z
O1 O 0.40236(17) 0.81564(14) 0.54101(11)
O2 O 0.50696(16) 0.89537(12) 0.62353(11)
H1 H 0.542(3) 0.909(3) 0.659(2)
O3 O 0.59663(18) 0.89934(13) 0.72351(12)
O4 O 0.52851(15) 0.66248(12) 0.76744(11)
O5 O 0.36988(19) 0.65524(15) 0.56548(13)
H2 H 0.3562 0.6849 0.5329
C1 C 0.4882(3) 0.9290(3) 1.0256(2)
H3 H 0.4561 0.9433 1.0640
C2 C 0.4753(3) 0.8565(3) 0.9939(2)
H4 H 0.4339 0.8206 1.0100
C3 C 0.5236(3) 0.8354(2) 0.93742(19)
H5 H 0.5144 0.7849 0.9157
C4 C 0.5840(2) 0.88635(18) 0.91297(15)
C5 C 0.6424(2) 0.86684(17) 0.85529(15)
H6 H 0.6484 0.9171 0.8275
C6 C 0.61479(18) 0.79853(17) 0.80727(14)
H7 H 0.5708 0.7665 0.8307
C7 C 0.5791(2) 0.82961(17) 0.74139(14)
C8 C 0.5236(2) 0.78062(17) 0.69876(14)
C9 C 0.4898(2) 0.81857(17) 0.64006(15)
C10 C 0.4362(2) 0.77804(19) 0.59679(15)
C11 C 0.3311(3) 0.8612(3) 0.5592(2)
H8 H 0.2898 0.8253 0.5796
H9 H 0.3076 0.8866 0.5187
H10 H 0.3467 0.9032 0.5917
C12 C 0.5475(3) 0.9811(3) 1.0017(2)
H11 H 0.5563 1.0316 1.0234
C13 C 0.5947(2) 0.9601(2) 0.9458(2)
H12 H 0.6353 0.9969 0.9295
C14 C 0.7299(2) 0.84500(19) 0.88298(16)
H13 H 0.7485 0.8862 0.9167
C15 C 0.7879(2) 0.8434(2) 0.82310(17)
C16 C 0.8604(2) 0.9001(2) 0.8195(2)
H14 H 0.8880 0.8942 0.7756
H15 H 0.8997 0.8873 0.8557
H16 H 0.8410 0.9560 0.8247
C17 C 0.7657(2) 0.78987(18) 0.77733(16)
H17 H 0.7958 0.7828 0.7365
C18 C 0.6903(2) 0.74059(17) 0.79342(15)
H18 H 0.6775 0.7015 0.7563
C19 C 0.7042(2) 0.69606(19) 0.86146(16)
H19 H 0.6498 0.6723 0.8753
C20 C 0.7672(2) 0.6263(2) 0.8584(2)
H20 H 0.8238 0.6499 0.8525
C21 C 0.7510(3) 0.5683(2) 0.8004(2)
H21 H 0.6937 0.5487 0.8029
H22 H 0.7891 0.5223 0.8036
H23 H 0.7596 0.5963 0.7573
C22 C 0.7647(3) 0.5801(3) 0.9265(3)
H24 H 0.7084 0.5604 0.9348
H25 H 0.7812 0.6165 0.9631
H26 H 0.8029 0.5341 0.9246
C23 C 0.7278(2) 0.7606(2) 0.91522(16)
H27 H 0.6868 0.7598 0.9524
H28 H 0.7828 0.7477 0.9345
C24 C 0.49853(19) 0.69917(17) 0.71071(14)
C25 C 0.5082(2) 0.57957(18) 0.77894(17)
H29 H 0.4479 0.5734 0.7805
H30 H 0.5322 0.5620 0.8220
H31 H 0.5307 0.5464 0.7422
C26 C 0.4483(2) 0.65834(18) 0.66612(16)
H32 H 0.4340 0.6035 0.6745
C27 C 0.4183(2) 0.6976(2) 0.60847(16)
O6 O 0.3157(2) 0.24538(19) -0.04762(19)
C28 C 0.3501(3) 0.3456(4) 0.0854(3)
H33 H 0.2959 0.3380 0.0641
H34 H 0.3574 0.4028 0.0972
H35 H 0.3534 0.3126 0.1265
C29 C 0.4166(3) 0.3205(3) 0.0376(2)
H36 H 0.4082 0.3489 -0.0060
H37 H 0.4708 0.3379 0.0559
O7 O 0.4193(2) 0.2350(2) 0.02509(17)
C30 C 0.3675(3) 0.2041(3) -0.0190(2)
C31 C 0.3784(3) 0.1178(3) -0.0296(4)
H38 H 0.3527 0.0880 0.0077
H39 H 0.4376 0.1051 -0.0314
H40 H 0.3522 0.1021 -0.0723
O8 O 0.34993(16) 0.67987(14) 0.42959(11)
O9 O 0.48393(17) 0.60672(13) 0.37230(11)
H41 H 0.5296 0.5923 0.3560
O10 O 0.59880(17) 0.60608(14) 0.29067(13)
O11 O 0.53435(14) 0.84000(12) 0.23489(11)
O12 O 0.30628(17) 0.83392(15) 0.38492(14)
H42 H 0.2771 0.8006 0.4064
C32 C 0.2977(3) 0.6168(2) 0.40515(19)
H43 H 0.2585 0.6390 0.3722
H44 H 0.2671 0.5929 0.4430
H45 H 0.3317 0.5750 0.3834
C33 C 0.3964(2) 0.71867(19) 0.38001(15)
C34 C 0.4661(2) 0.68144(18) 0.35131(15)
C35 C 0.5131(2) 0.72041(18) 0.29926(14)
C36 C 0.5790(2) 0.67258(17) 0.26651(15)
C37 C 0.62306(19) 0.70105(17) 0.20337(14)
H46 H 0.5828 0.7332 0.1760
C38 C 0.6545(2) 0.63105(17) 0.15933(15)
H47 H 0.6586 0.5825 0.1893
C39 C 0.5995(2) 0.60766(18) 0.10063(15)
C40 C 0.5510(3) 0.6614(2) 0.06428(18)
H48 H 0.5504 0.7171 0.0764
C41 C 0.5031(3) 0.6347(2) 0.0103(2)
H49 H 0.4705 0.6725 -0.0143
C42 C 0.5022(3) 0.5545(3) -0.0080(2)
H50 H 0.4687 0.5365 -0.0446
C43 C 0.6977(2) 0.75798(18) 0.22199(15)
H51 H 0.6813 0.7977 0.2577
C44 C 0.7708(2) 0.70860(19) 0.24436(16)
H52 H 0.7965 0.7158 0.2871
C45 C 0.7969(2) 0.65400(19) 0.19982(17)
C46 C 0.7443(2) 0.65202(18) 0.13649(16)
H53 H 0.7655 0.6101 0.1044
C47 C 0.5504(3) 0.5007(2) 0.0274(2)
H54 H 0.5507 0.4452 0.0149
C48 C 0.5986(2) 0.5265(2) 0.0810(2)
H55 H 0.6316 0.4885 0.1049
C49 C 0.7476(2) 0.73630(19) 0.10385(16)
H56 H 0.7108 0.7376 0.0638
H57 H 0.8047 0.7479 0.0886
C50 C 0.7197(2) 0.80196(18) 0.15515(16)
H58 H 0.6678 0.8271 0.1373
C51 C 0.7842(2) 0.8695(2) 0.1634(2)
H59 H 0.8387 0.8441 0.1747
C52 C 0.7618(3) 0.9286(2) 0.2195(3)
H60 H 0.8003 0.9745 0.2185
H61 H 0.7657 0.9012 0.2633
H62 H 0.7052 0.9482 0.2127
C53 C 0.7933(3) 0.9152(2) 0.0962(3)
H63 H 0.7394 0.9369 0.0826
H64 H 0.8137 0.8780 0.0614
H65 H 0.8327 0.9597 0.1019
C54 C 0.8681(2) 0.5967(2) 0.2080(2)
H66 H 0.8943 0.6055 0.2520
H67 H 0.9086 0.6061 0.1720
H68 H 0.8478 0.5409 0.2053
C55 C 0.48907(19) 0.80046(17) 0.28278(14)
C56 C 0.5128(2) 0.92170(19) 0.21947(18)
H69 H 0.4548 0.9241 0.2049
H70 H 0.5486 0.9418 0.1831
H71 H 0.5202 0.9554 0.2598
C57 C 0.4223(2) 0.83754(18) 0.31307(16)
H72 H 0.4088 0.8918 0.3016
C58 C 0.3742(2) 0.79623(19) 0.36046(16)
loop_
_geom_bond_atom_site_label_1
_geom_bond_atom_site_label_2
_geom_bond_site_symmetry_1
_geom_bond_site_symmetry_2
O1 C10 1_555 1_555
O2 H1 1_555 1_555
O3 C7 1_555 1_555
O4 C24 1_555 1_555
O5 H2 1_555 1_555
C1 H3 1_555 1_555
C2 C1 1_555 1_555
H4 C2 1_555 1_555
C3 C2 1_555 1_555
H5 C3 1_555 1_555
C4 C3 1_555 1_555
C5 C4 1_555 1_555
H6 C5 1_555 1_555
C6 C5 1_555 1_555
H7 C6 1_555 1_555
C7 C6 1_555 1_555
C8 C7 1_555 1_555
C9 O2 1_555 1_555
C10 C9 1_555 1_555
C11 O1 1_555 1_555
H8 C11 1_555 1_555
H9 C11 1_555 1_555
H10 C11 1_555 1_555
C12 C1 1_555 1_555
H11 C12 1_555 1_555
C13 C4 1_555 1_555
H12 C13 1_555 1_555
C14 C5 1_555 1_555
H13 C14 1_555 1_555
C15 C14 1_555 1_555
C16 C15 1_555 1_555
H14 C16 1_555 1_555
H15 C16 1_555 1_555
H16 C16 1_555 1_555
C17 C15 1_555 1_555
H17 C17 1_555 1_555
C18 C6 1_555 1_555
H18 C18 1_555 1_555
C19 C18 1_555 1_555
H19 C19 1_555 1_555
C20 C19 1_555 1_555
H20 C20 1_555 1_555
C21 C20 1_555 1_555
H21 C21 1_555 1_555
H22 C21 1_555 1_555
H23 C21 1_555 1_555
C22 C20 1_555 1_555
H24 C22 1_555 1_555
H25 C22 1_555 1_555
H26 C22 1_555 1_555
C23 C14 1_555 1_555
H27 C23 1_555 1_555
H28 C23 1_555 1_555
C24 C8 1_555 1_555
C25 O4 1_555 1_555
H29 C25 1_555 1_555
H30 C25 1_555 1_555
H31 C25 1_555 1_555
C26 C24 1_555 1_555
H32 C26 1_555 1_555
C27 O5 1_555 1_555
O6 C30 1_555 1_555
C28 H33 1_555 1_555
H34 C28 1_555 1_555
H35 C28 1_555 1_555
C29 C28 1_555 1_555
H36 C29 1_555 1_555
H37 C29 1_555 1_555
O7 C29 1_555 1_555
C30 O7 1_555 1_555
C31 C30 1_555 1_555
H38 C31 1_555 1_555
H39 C31 1_555 1_555
H40 C31 1_555 1_555
O8 C32 1_555 1_555
O9 H41 1_555 1_555
O10 C36 1_555 1_555
O11 C55 1_555 1_555
O12 H42 1_555 1_555
C32 H43 1_555 1_555
H44 C32 1_555 1_555
H45 C32 1_555 1_555
C33 O8 1_555 1_555
C34 O9 1_555 1_555
C35 C34 1_555 1_555
C36 C35 1_555 1_555
C37 C36 1_555 1_555
H46 C37 1_555 1_555
C38 C37 1_555 1_555
H47 C38 1_555 1_555
C39 C38 1_555 1_555
C40 C39 1_555 1_555
H48 C40 1_555 1_555
C41 C40 1_555 1_555
H49 C41 1_555 1_555
C42 C41 1_555 1_555
H50 C42 1_555 1_555
C43 C37 1_555 1_555
H51 C43 1_555 1_555
C44 C43 1_555 1_555
H52 C44 1_555 1_555
C45 C44 1_555 1_555
C46 C38 1_555 1_555
H53 C46 1_555 1_555
C47 C42 1_555 1_555
H54 C47 1_555 1_555
C48 C39 1_555 1_555
H55 C48 1_555 1_555
C49 C46 1_555 1_555
H56 C49 1_555 1_555
H57 C49 1_555 1_555
C50 C43 1_555 1_555
H58 C50 1_555 1_555
C51 C50 1_555 1_555
H59 C51 1_555 1_555
C52 C51 1_555 1_555
H60 C52 1_555 1_555
H61 C52 1_555 1_555
H62 C52 1_555 1_555
C53 C51 1_555 1_555
H63 C53 1_555 1_555
H64 C53 1_555 1_555
H65 C53 1_555 1_555
C54 C45 1_555 1_555
H66 C54 1_555 1_555
H67 C54 1_555 1_555
H68 C54 1_555 1_555
C55 C35 1_555 1_555
C56 O11 1_555 1_555
H69 C56 1_555 1_555
H70 C56 1_555 1_555
H71 C56 1_555 1_555
C57 C55 1_555 1_555
H72 C57 1_555 1_555
C58 O12 1_555 1_555
C8 C9 1_555 1_555
C10 C27 1_555 1_555
C12 C13 1_555 1_555
C17 C18 1_555 1_555
C19 C23 1_555 1_555
C26 C27 1_555 1_555
C33 C34 1_555 1_555
C33 C58 1_555 1_555
C45 C46 1_555 1_555
C47 C48 1_555 1_555
C49 C50 1_555 1_555
C57 C58 1_555 1_555

#END
