
#######################################################################
#
#                 Cambridge Crystallographic Data Centre
#                                CCDC 
#
#######################################################################
#
# If this CIF has been generated from an entry in the Cambridge 
# Structural Database, then it will include bibliographic, chemical, 
# crystal, experimental, refinement or atomic coordinate data resulting 
# from the CCDC's data processing and validation procedures.
#
#######################################################################

data_SEQCAU
_chemical_formula_moiety         'C17 H15 F1 N2 O1'
_chemical_name_systematic        
5-(4-Fluorobenzyl)-3-(4-methoxyphenyl)-1H-pyrazole
_symmetry_cell_setting           monoclinic
_symmetry_space_group_name_H-M   'P 21/c'
_symmetry_Int_Tables_number      14
_space_group_name_Hall           '-P 2ybc'
loop_
_symmetry_equiv_pos_site_id
_symmetry_equiv_pos_as_xyz
1 x,y,z
2 -x,1/2+y,1/2-z
3 -x,-y,-z
4 x,1/2-y,1/2+z
_cell_length_a                   14.0092(11)
_cell_length_b                   5.4563(4)
_cell_length_c                   19.4651(12)
_cell_angle_alpha                90
_cell_angle_beta                 104.045(5)
_cell_angle_gamma                90
_cell_volume                     1443.4
_exptl_crystal_colour            colorless
_exptl_crystal_description       needle
_cell_formula_units_Z            4
loop_
_atom_site_label
_atom_site_type_symbol
_atom_site_fract_x
_atom_site_fract_y
_atom_site_fract_z
C1 C 0.02163(18) 0.7006(4) 0.12822(13)
C2 C 0.09903(18) 0.7177(4) 0.19316(13)
C3 C -0.05653(18) 0.5325(4) 0.10961(15)
H1 H -0.0711 0.4068 0.1377
N1 N 0.01815(15) 0.8550(3) 0.07443(11)
N2 N -0.05991(15) 0.7841(4) 0.02312(12)
H2 H -0.0778 0.8550 -0.0174
C4 C 0.1093(2) 0.5408(4) 0.24598(16)
H3 H 0.0648 0.4114 0.2400
C5 C 0.2508(2) 0.7409(5) 0.31721(15)
O1 O 0.32173(16) 0.7380(4) 0.37905(11)
C6 C 0.1828(2) 0.5524(5) 0.30626(16)
H4 H 0.1874 0.4316 0.3406
C7 C -0.26815(19) 0.6362(4) -0.05168(14)
C8 C 0.1667(2) 0.9060(5) 0.20542(15)
H5 H 0.1616 1.0285 0.1715
C9 C 0.2417(2) 0.9195(5) 0.26619(16)
H6 H 0.2860 1.0493 0.2726
C10 C -0.19282(19) 0.4690(5) -0.00648(15)
H7 H -0.2258 0.3680 0.0217
H8 H -0.1680 0.3604 -0.0376
C11 C -0.3047(2) 0.8376(5) -0.02330(15)
H9 H -0.2805 0.8728 0.0245
C12 C -0.10696(18) 0.5894(4) 0.04235(16)
C13 C -0.3042(3) 0.5868(8) -0.12214(19)
C14 C 0.3924(2) 0.9322(8) 0.39122(19)
H10 H 0.4384 0.9080 0.4361
H11 H 0.3593 1.0862 0.3915
H12 H 0.4270 0.9329 0.3542
C15 C -0.3756(3) 0.9873(6) -0.0633(2)
C16 C -0.4179(5) 0.9536(14) -0.1244(5)
C17 C -0.3871(6) 0.766(2) -0.1642(4)
H13 H -0.4141 0.7489 -0.2125
F1 F -0.4929(4) 1.1053(10) -0.1613(3)
H14 H -0.277(2) 0.442(6) -0.1418(16)
H15 H -0.402(3) 1.135(9) -0.046(2)
C18? C -0.3988(6) 0.8896(19) -0.1448(5)
C19? C -0.3597(8) 0.683(2) -0.1633(5)
H16? H -0.3785 0.6232 -0.2093
F2? F -0.4650(4) 1.0421(10) -0.1862(4)
loop_
_geom_bond_atom_site_label_1
_geom_bond_atom_site_label_2
_geom_bond_site_symmetry_1
_geom_bond_site_symmetry_2
C1 C2 1_555 1_555
C2 C4 1_555 1_555
C3 C1 1_555 1_555
H1 C3 1_555 1_555
N1 C1 1_555 1_555
N2 N1 1_555 1_555
H2 N2 1_555 1_555
C4 H3 1_555 1_555
C5 O1 1_555 1_555
O1 C14 1_555 1_555
C6 C4 1_555 1_555
H4 C6 1_555 1_555
C7 C10 1_555 1_555
C8 C2 1_555 1_555
H5 C8 1_555 1_555
C9 C5 1_555 1_555
H6 C9 1_555 1_555
C10 H7 1_555 1_555
H8 C10 1_555 1_555
C11 C7 1_555 1_555
H9 C11 1_555 1_555
C12 C3 1_555 1_555
C13 C7 1_555 1_555
C14 H10 1_555 1_555
H11 C14 1_555 1_555
H12 C14 1_555 1_555
C15 C11 1_555 1_555
C16 C15 1_555 1_555
C17 C13 1_555 1_555
H13 C17 1_555 1_555
F1 C16 1_555 1_555
H14 C13 1_555 1_555
H15 C15 1_555 1_555
N2 C12 1_555 1_555
C5 C6 1_555 1_555
C8 C9 1_555 1_555
C10 C12 1_555 1_555
C16 C17 1_555 1_555

#END
