
#######################################################################
#
#                 Cambridge Crystallographic Data Centre
#                                CCDC 
#
#######################################################################
#
# If this CIF has been generated from an entry in the Cambridge 
# Structural Database, then it will include bibliographic, chemical, 
# crystal, experimental, refinement or atomic coordinate data resulting 
# from the CCDC's data processing and validation procedures.
#
#######################################################################

data_SEQCUM
_chemical_formula_moiety         'C23 H33 N1 O6'
_chemical_name_systematic        
(2S)-N-(1-(4,5-bis(t-Butoxymethyl)dioxolan-2-yl)ethyl)phthalimide
_symmetry_cell_setting           monoclinic
_symmetry_space_group_name_H-M   'P 21'
_symmetry_Int_Tables_number      4
_space_group_name_Hall           'P 2yb'
loop_
_symmetry_equiv_pos_site_id
_symmetry_equiv_pos_as_xyz
1 x,y,z
2 -x,1/2+y,-z
_cell_length_a                   8.9173(21)
_cell_length_b                   11.2624(18)
_cell_length_c                   11.8842(23)
_cell_angle_alpha                90
_cell_angle_beta                 98.087(17)
_cell_angle_gamma                90
_cell_volume                     1181.66
_chemical_melting_point          95-97deg.C
_cell_formula_units_Z            2
loop_
_atom_site_label
_atom_site_type_symbol
_atom_site_fract_x
_atom_site_fract_y
_atom_site_fract_z
O1 O 0.9410(5) 0.40186 0.0449(3)
O2 O 0.9991(5) 0.4132(5) 0.4327(3)
O3 O 1.2313(5) 0.5582(4) 0.2115(4)
O4 O 1.1318(5) 0.7376(4) 0.2471(4)
O5 O 1.5226(4) 0.7039(4) 0.0842(3)
O6 O 1.4147(7) 0.8111(5) 0.3852(4)
N1 N 0.9666(5) 0.4387(5) 0.2377(4)
C1 C 0.8485(8) 0.6280(8) 0.2911(6)
C2 C 0.9675(7) 0.5682(6) 0.2294(5)
C3 C 1.1251(7) 0.6161(6) 0.2716(5)
C4 C 0.9577(6) 0.3661(6) 0.1426(4)
C5 C 0.9685(5) 0.2416(6) 0.1854(4)
C6 C 0.9685(6) 0.1360(7) 0.1288(4)
C7 C 0.9758(7) 0.0331(7) 0.1911(6)
C8 C 0.9882(8) 0.0371(7) 0.3084(6)
C9 C 0.9867(7) 0.1428(7) 0.3657(5)
C10 C 0.9814(6) 0.2460(6) 0.3033(4)
C11 C 0.9828(6) 0.3724(6) 0.3373(4)
C12 C 1.3484(6) 0.6446(6) 0.2015(4)
C13 C 1.4091(7) 0.6210(6) 0.0922(5)
C14 C 1.5702(6) 0.7229(6) -0.0257(5)
C15 C 1.7011(8) 0.8057(7) -0.0013(7)
C16 C 1.4436(8) 0.7732(8) -0.1076(6)
C17 C 1.6227(9) 0.6044(7) -0.0715(7)
C18 C 1.2697(7) 0.7667(6) 0.2063(5)
C19 C 1.3611(8) 0.8561(6) 0.2757(6)
C20 C 1.4953(9) 0.8884(7) 0.4648(6)
C21 C 1.5474(22) 0.8157(13) 0.5642(10)
C22 C 1.3917(14) 0.9861(14) 0.4949(12)
C23 C 1.6223(12) 0.9442(21) 0.4224(10)
H1 H 0.752 0.601 0.263
H2 H 0.872 0.617 0.370
H3 H 0.852 0.714 0.276
H4 H 0.946 0.589 0.151
H5 H 1.149 0.602 0.353
H6 H 0.962 0.133 0.048
H7 H 0.970 -0.042 0.153
H8 H 0.996 -0.035 0.351
H9 H 0.992 0.145 0.446
H10 H 1.426 0.639 0.265
H11 H 1.333 0.623 0.031
H12 H 1.454 0.541 0.097
H13 H 1.740 0.826 -0.071
H14 H 1.669 0.879 0.030
H15 H 1.778 0.772 0.050
H16 H 1.476 0.792 -0.179
H17 H 1.359 0.727 -0.115
H18 H 1.415 0.853 -0.077
H19 H 1.656 0.614 -0.144
H20 H 1.706 0.572 -0.020
H21 H 1.543 0.548 -0.078
H22 H 1.247 0.795 0.129
H23 H 1.299 0.926 0.282
H24 H 1.443 0.881 0.237
H25 H 1.611 0.861 0.618
H26 H 1.472 0.777 0.590
H27 H 1.618 0.755 0.536
H28 H 1.446 1.042 0.549
H29 H 1.353 1.032 0.429
H30 H 1.309 0.956 0.528
H31 H 1.670 1.007 0.480
H32 H 1.694 0.902 0.400
H33 H 1.581 1.002 0.358
loop_
_geom_bond_atom_site_label_1
_geom_bond_atom_site_label_2
_geom_bond_site_symmetry_1
_geom_bond_site_symmetry_2
O1 C4 1_555 1_555
O2 C11 1_555 1_555
O3 C3 1_555 1_555
O4 C3 1_555 1_555
O5 C13 1_555 1_555
O6 C19 1_555 1_555
N1 C2 1_555 1_555
C1 C2 1_555 1_555
C2 C3 1_555 1_555
C3 H5 1_555 1_555
C4 N1 1_555 1_555
C5 C4 1_555 1_555
C6 C5 1_555 1_555
C7 C6 1_555 1_555
C8 C7 1_555 1_555
C9 C8 1_555 1_555
C10 C5 1_555 1_555
C11 N1 1_555 1_555
C12 O3 1_555 1_555
C13 C12 1_555 1_555
C14 O5 1_555 1_555
C15 C14 1_555 1_555
C16 C14 1_555 1_555
C17 C14 1_555 1_555
C18 O4 1_555 1_555
C19 C18 1_555 1_555
C20 O6 1_555 1_555
C21 C20 1_555 1_555
C22 C20 1_555 1_555
C23 C20 1_555 1_555
H1 C1 1_555 1_555
H2 C1 1_555 1_555
H3 C1 1_555 1_555
H4 C2 1_555 1_555
H6 C6 1_555 1_555
H7 C7 1_555 1_555
H8 C8 1_555 1_555
H9 C9 1_555 1_555
H10 C12 1_555 1_555
H11 C13 1_555 1_555
H12 C13 1_555 1_555
H13 C15 1_555 1_555
H14 C15 1_555 1_555
H15 C15 1_555 1_555
H16 C16 1_555 1_555
H17 C16 1_555 1_555
H18 C16 1_555 1_555
H19 C17 1_555 1_555
H20 C17 1_555 1_555
H21 C17 1_555 1_555
H22 C18 1_555 1_555
H23 C19 1_555 1_555
H24 C19 1_555 1_555
H25 C21 1_555 1_555
H26 C21 1_555 1_555
H27 C21 1_555 1_555
H28 C22 1_555 1_555
H29 C22 1_555 1_555
H30 C22 1_555 1_555
H31 C23 1_555 1_555
H32 C23 1_555 1_555
H33 C23 1_555 1_555
C9 C10 1_555 1_555
C10 C11 1_555 1_555
C12 C18 1_555 1_555

#END
