
#######################################################################
#
#                 Cambridge Crystallographic Data Centre
#                                CCDC 
#
#######################################################################
#
# If this CIF has been generated from an entry in the Cambridge 
# Structural Database, then it will include bibliographic, chemical, 
# crystal, experimental, refinement or atomic coordinate data resulting 
# from the CCDC's data processing and validation procedures.
#
#######################################################################

data_SEQCOI
_chemical_formula_moiety         'C22 H29 N1 O3'
_chemical_name_systematic        
3-Benzyl-6-(hydroxymethyl)-6-(4-methylpent-3-en-1-yl)-10-oxa-3-azatricyclo[5.2.1.0^1,5^]decan-4-one
_symmetry_cell_setting           monoclinic
_symmetry_space_group_name_H-M   'P 21/c'
_symmetry_Int_Tables_number      14
_space_group_name_Hall           '-P 2ybc'
loop_
_symmetry_equiv_pos_site_id
_symmetry_equiv_pos_as_xyz
1 x,y,z
2 -x,1/2+y,1/2-z
3 -x,-y,-z
4 x,1/2-y,1/2+z
_cell_length_a                   10.0388(3)
_cell_length_b                   18.6942(5)
_cell_length_c                   10.7459(3)
_cell_angle_alpha                90
_cell_angle_beta                 98.5760(10)
_cell_angle_gamma                90
_cell_volume                     1994.11
_exptl_crystal_colour            colorless
_exptl_crystal_description       block
_cell_formula_units_Z            4
loop_
_atom_site_label
_atom_site_type_symbol
_atom_site_fract_x
_atom_site_fract_y
_atom_site_fract_z
C1 C 0.70636(13) 0.00228(7) 0.24445(12)
C2 C 0.71906(15) -0.01338(8) 0.10505(13)
H1 H 0.6452 0.0073 0.0461
C3 C 0.74393(18) -0.09223(9) 0.07800(16)
H2 H 0.7301 -0.1019 -0.0117
H3 H 0.6860 -0.1232 0.1186
C4 C 0.89254(18) -0.10144(9) 0.13536(17)
H4 H 0.9035 -0.1373 0.2014
H5 H 0.9478 -0.1140 0.0719
C5 C 0.92513(15) -0.02688(7) 0.18764(14)
C6 C 0.85648(13) -0.01106(7) 0.30255(12)
H6 H 0.8623 -0.0532 0.3574
C7 C 1.06712(15) -0.00012(9) 0.21953(15)
H7 H 1.1282 -0.0385 0.2502
H8 H 1.0977 0.0220 0.1471
C8 C 0.94192(15) 0.04846(8) 0.36734(13)
C9 C 0.66358(16) 0.08058(8) 0.25324(14)
H9 H 0.7316 0.1108 0.2247
H10 H 0.5800 0.0879 0.1965
C10 C 0.61092(14) -0.04730(8) 0.30174(14)
H11 H 0.6476 -0.0954 0.3043
H12 H 0.6089 -0.0325 0.3879
C11 C 0.46647(15) -0.04974(9) 0.23317(16)
H13 H 0.4258 -0.0029 0.2370
H14 H 0.4677 -0.0612 0.1453
C12 C 0.38246(15) -0.10375(8) 0.28835(15)
H15 H 0.3783 -0.0988 0.3738
C13 C 0.31389(16) -0.15722(8) 0.23164(17)
C14 C 0.2323(2) -0.20604(11) 0.3022(2)
H16 H 0.2447 -0.1927 0.3895
H17 H 0.2614 -0.2545 0.2945
H18 H 0.1387 -0.2020 0.2678
C15 C 0.3094(3) -0.17519(13) 0.0961(2)
H19 H 0.2231 -0.1622 0.0507
H20 H 0.3235 -0.2256 0.0874
H21 H 0.3788 -0.1493 0.0628
C16 C 1.16863(16) 0.09777(9) 0.36801(15)
H22 H 1.2470 0.0680 0.3940
H23 H 1.1468 0.1220 0.4422
C17 C 1.20399(14) 0.15301(8) 0.27628(14)
C18 C 1.10566(16) 0.18668(9) 0.19232(15)
H24 H 1.0157 0.1744 0.1909
C19 C 1.1396(2) 0.23793(9) 0.11113(18)
H25 H 1.0726 0.2602 0.0552
C20 C 1.2719(2) 0.25647(9) 0.11230(19)
H26 H 1.2949 0.2909 0.0567
C21 C 1.37010(19) 0.22423(9) 0.19546(19)
H27 H 1.4597 0.2372 0.1969
C22 C 1.33704(16) 0.17254(9) 0.27719(16)
H28 H 1.4045 0.1507 0.3331
N1 N 1.05669(12) 0.05232(6) 0.31800(11)
O1 O 0.91601(11) 0.08636(7) 0.45465(10)
O2 O 0.84782(10) 0.01811(5) 0.09373(9)
O3 O 0.64498(12) 0.10255(7) 0.37525(11)
H29 H 0.7165 0.0991 0.4230
loop_
_geom_bond_atom_site_label_1
_geom_bond_atom_site_label_2
_geom_bond_site_symmetry_1
_geom_bond_site_symmetry_2
C1 C2 1_555 1_555
C2 H1 1_555 1_555
C3 C2 1_555 1_555
H2 C3 1_555 1_555
H3 C3 1_555 1_555
C4 C3 1_555 1_555
H4 C4 1_555 1_555
H5 C4 1_555 1_555
C5 C4 1_555 1_555
C6 C1 1_555 1_555
H6 C6 1_555 1_555
C7 C5 1_555 1_555
H7 C7 1_555 1_555
H8 C7 1_555 1_555
C8 C6 1_555 1_555
C9 C1 1_555 1_555
H9 C9 1_555 1_555
H10 C9 1_555 1_555
C10 C1 1_555 1_555
H11 C10 1_555 1_555
H12 C10 1_555 1_555
C11 C10 1_555 1_555
H13 C11 1_555 1_555
H14 C11 1_555 1_555
C12 C11 1_555 1_555
H15 C12 1_555 1_555
C13 C12 1_555 1_555
C14 C13 1_555 1_555
H16 C14 1_555 1_555
H17 C14 1_555 1_555
H18 C14 1_555 1_555
C15 C13 1_555 1_555
H19 C15 1_555 1_555
H20 C15 1_555 1_555
H21 C15 1_555 1_555
C16 H22 1_555 1_555
H23 C16 1_555 1_555
C17 C16 1_555 1_555
C18 C17 1_555 1_555
H24 C18 1_555 1_555
C19 C18 1_555 1_555
H25 C19 1_555 1_555
C20 C19 1_555 1_555
H26 C20 1_555 1_555
C21 C20 1_555 1_555
H27 C21 1_555 1_555
C22 C17 1_555 1_555
H28 C22 1_555 1_555
N1 C7 1_555 1_555
O1 C8 1_555 1_555
O2 C2 1_555 1_555
O3 C9 1_555 1_555
H29 O3 1_555 1_555
C5 C6 1_555 1_555
C5 O2 1_555 1_555
C8 N1 1_555 1_555
C16 N1 1_555 1_555
C21 C22 1_555 1_555

#END
