
#######################################################################
#
#                 Cambridge Crystallographic Data Centre
#                                CCDC 
#
#######################################################################
#
# If this CIF has been generated from an entry in the Cambridge 
# Structural Database, then it will include bibliographic, chemical, 
# crystal, experimental, refinement or atomic coordinate data resulting 
# from the CCDC's data processing and validation procedures.
#
#######################################################################

data_SEQDAV
_chemical_formula_moiety         'C31 H20 Cl2 N2 O2 S1'
_chemical_name_systematic        
2-Amino-3-benzoyl-8-chloro-4-(4-chlorophenyl)-1-phenyl-1,4-dihydro-5H-thiochromeno[2,3-b]pyridin-5-one
_symmetry_cell_setting           monoclinic
_symmetry_space_group_name_H-M   'P 21/n'
_symmetry_Int_Tables_number      14
_space_group_name_Hall           '-P 2yn'
loop_
_symmetry_equiv_pos_site_id
_symmetry_equiv_pos_as_xyz
1 x,y,z
2 1/2-x,1/2+y,1/2-z
3 -x,-y,-z
4 1/2+x,1/2-y,1/2+z
_cell_length_a                   9.5186(18)
_cell_length_b                   17.509(4)
_cell_length_c                   15.532(3)
_cell_angle_alpha                90
_cell_angle_beta                 92.392(3)
_cell_angle_gamma                90
_cell_volume                     2586.33
_exptl_crystal_colour            yellow
_exptl_crystal_description       block
_cell_formula_units_Z            4
loop_
_atom_site_label
_atom_site_type_symbol
_atom_site_fract_x
_atom_site_fract_y
_atom_site_fract_z
Cl1 Cl 0.43666(7) -0.06510(4) 0.15225(4)
Cl2 Cl 0.67810(7) 0.36628(4) -0.35132(4)
S1 S 0.66571(7) 0.21220(4) 0.15109(4)
O1 O 0.97336(19) 0.11273(10) -0.02438(11)
O2 O 1.17864(19) 0.44829(11) 0.04940(13)
N1 N 0.8068(2) 0.33436(11) 0.11130(13)
N2 N 0.9474(2) 0.44148(12) 0.13189(14)
H1 H 1.0225 0.4690 0.1224
H2 H 0.8835 0.4589 0.1662
C1 C 0.9304(3) 0.37316(14) 0.09420(15)
C2 C 1.0258(2) 0.34171(14) 0.03947(15)
C3 C 0.9767(2) 0.27374(13) -0.01455(15)
H3 H 1.0613 0.2430 -0.0286
C4 C 0.8795(2) 0.22300(13) 0.03575(15)
C5 C 0.7939(2) 0.25681(13) 0.09215(15)
C6 C 0.8829(2) 0.14151(14) 0.02050(14)
C7 C 0.7729(2) 0.09218(13) 0.05634(14)
C8 C 0.6729(3) 0.11884(13) 0.11261(15)
C9 C 0.7661(3) 0.01559(14) 0.03081(16)
H4 H 0.8338 -0.0034 -0.0070
C10 C 0.6642(3) -0.03281(15) 0.05884(16)
H5 H 0.6603 -0.0844 0.0401
C11 C 0.5667(3) -0.00477(14) 0.11534(16)
C12 C 0.5698(3) 0.06980(14) 0.14302(16)
H6 H 0.5032 0.0878 0.1821
C13 C 1.1521(3) 0.38211(14) 0.02208(17)
C14 C 1.2607(3) 0.34591(14) -0.03237(17)
C15 C 1.3031(3) 0.38347(18) -0.1051(2)
H7 H 1.2603 0.4305 -0.1218
C16 C 1.4076(4) 0.3528(2) -0.1538(2)
H8 H 1.4343 0.3782 -0.2046
C17 C 1.4733(3) 0.28557(18) -0.1289(2)
H9 H 1.5451 0.2646 -0.1625
C18 C 1.4340(3) 0.24934(16) -0.0553(2)
H10 H 1.4810 0.2040 -0.0368
C19 C 1.3266(3) 0.27835(15) -0.00805(18)
H11 H 1.2977 0.2518 0.0415
C20 C 0.9019(2) 0.29825(13) -0.09990(15)
C21 C 0.8541(3) 0.37221(14) -0.11340(16)
H12 H 0.8680 0.4092 -0.0691
C22 C 0.7860(3) 0.39315(14) -0.19068(16)
H13 H 0.7538 0.4441 -0.1991
C23 C 0.7654(2) 0.33973(14) -0.25495(15)
C24 C 0.8119(3) 0.26559(15) -0.24353(16)
H14 H 0.7977 0.2288 -0.2880
C25 C 0.8795(3) 0.24579(14) -0.16621(16)
H15 H 0.9116 0.1948 -0.1582
C26 C 0.6965(3) 0.37277(13) 0.15569(15)
C27 C 0.5877(3) 0.40624(15) 0.10766(17)
H16 H 0.5864 0.4044 0.0465
C28 C 0.4810(3) 0.44226(17) 0.1491(2)
H17 H 0.4050 0.4649 0.1167
C29 C 0.4851(3) 0.44536(16) 0.2383(2)
H18 H 0.4117 0.4705 0.2668
C30 C 0.5935(3) 0.41271(16) 0.28578(18)
H19 H 0.5953 0.4155 0.3469
C31 C 0.7009(3) 0.37548(15) 0.24488(16)
H20 H 0.7760 0.3523 0.2775
loop_
_geom_bond_atom_site_label_1
_geom_bond_atom_site_label_2
_geom_bond_site_symmetry_1
_geom_bond_site_symmetry_2
Cl1 C11 1_555 1_555
Cl2 C23 1_555 1_555
S1 C5 1_555 1_555
O1 C6 1_555 1_555
O2 C13 1_555 1_555
N1 C1 1_555 1_555
N2 H1 1_555 1_555
H2 N2 1_555 1_555
C1 N2 1_555 1_555
C2 C1 1_555 1_555
C3 C2 1_555 1_555
H3 C3 1_555 1_555
C4 C3 1_555 1_555
C5 N1 1_555 1_555
C6 C4 1_555 1_555
C7 C6 1_555 1_555
C8 S1 1_555 1_555
C9 C7 1_555 1_555
H4 C9 1_555 1_555
C10 C9 1_555 1_555
H5 C10 1_555 1_555
C11 C10 1_555 1_555
C12 C8 1_555 1_555
H6 C12 1_555 1_555
C13 C2 1_555 1_555
C14 C13 1_555 1_555
C15 C14 1_555 1_555
H7 C15 1_555 1_555
C16 C15 1_555 1_555
H8 C16 1_555 1_555
C17 C16 1_555 1_555
H9 C17 1_555 1_555
C18 C17 1_555 1_555
H10 C18 1_555 1_555
C19 C14 1_555 1_555
H11 C19 1_555 1_555
C20 C3 1_555 1_555
C21 C20 1_555 1_555
H12 C21 1_555 1_555
C22 C21 1_555 1_555
H13 C22 1_555 1_555
C23 C22 1_555 1_555
C24 C23 1_555 1_555
H14 C24 1_555 1_555
C25 C20 1_555 1_555
H15 C25 1_555 1_555
C26 N1 1_555 1_555
C27 C26 1_555 1_555
H16 C27 1_555 1_555
C28 C27 1_555 1_555
H17 C28 1_555 1_555
C29 C28 1_555 1_555
H18 C29 1_555 1_555
C30 C29 1_555 1_555
H19 C30 1_555 1_555
C31 C26 1_555 1_555
H20 C31 1_555 1_555
C4 C5 1_555 1_555
C7 C8 1_555 1_555
C11 C12 1_555 1_555
C18 C19 1_555 1_555
C24 C25 1_555 1_555
C30 C31 1_555 1_555

#END
