
#######################################################################
#
#                 Cambridge Crystallographic Data Centre
#                                CCDC 
#
#######################################################################
#
# If this CIF has been generated from an entry in the Cambridge 
# Structural Database, then it will include bibliographic, chemical, 
# crystal, experimental, refinement or atomic coordinate data resulting 
# from the CCDC's data processing and validation procedures.
#
#######################################################################

data_SEQDEZ
_chemical_formula_moiety         'C32 H26 N2 O2 S1'
_chemical_name_systematic        
(6-Amino-4-(4-methylphenyl)-1-phenyl-2-thioxo-1,2,3,4-tetrahydropyridine-3,5-diyl)bis(phenylmethanone)
_symmetry_cell_setting           monoclinic
_symmetry_space_group_name_H-M   'P 21/n'
_symmetry_Int_Tables_number      14
_space_group_name_Hall           '-P 2yn'
loop_
_symmetry_equiv_pos_site_id
_symmetry_equiv_pos_as_xyz
1 x,y,z
2 1/2-x,1/2+y,1/2-z
3 -x,-y,-z
4 1/2+x,1/2-y,1/2+z
_cell_length_a                   13.427(3)
_cell_length_b                   11.0240(19)
_cell_length_c                   18.258(3)
_cell_angle_alpha                90
_cell_angle_beta                 108.236(3)
_cell_angle_gamma                90
_cell_volume                     2566.8
_exptl_crystal_colour            yellow
_exptl_crystal_description       block
_cell_formula_units_Z            4
loop_
_atom_site_label
_atom_site_type_symbol
_atom_site_fract_x
_atom_site_fract_y
_atom_site_fract_z
S1 S 0.19163(5) 0.28338(6) 0.51073(4)
O1 O 0.33341(14) 0.57448(17) 0.56522(10)
O2 O 0.31942(12) 0.74027(15) 0.31751(9)
N1 N 0.28403(14) 0.41152(16) 0.42769(10)
N2 N 0.38269(14) 0.52043(18) 0.36570(11)
H1 H 0.3940 0.5829 0.3394
H2 H 0.4283 0.4606 0.3779
C1 C 0.21508(17) 0.4075(2) 0.46949(12)
C2 C 0.16430(17) 0.5269(2) 0.47621(12)
H3 H 0.1026 0.5117 0.4946
C3 C 0.12572(17) 0.5878(2) 0.39579(12)
H4 H 0.0967 0.6693 0.4020
C4 C 0.22106(17) 0.6069(2) 0.37003(12)
C5 C 0.29675(17) 0.5164(2) 0.38701(12)
C6 C 0.24327(19) 0.6076(2) 0.53517(13)
C7 C 0.20644(19) 0.7281(2) 0.55309(13)
C8 C 0.2822(2) 0.8157(3) 0.58527(15)
H5 H 0.3543 0.7966 0.5961
C9 C 0.2530(2) 0.9306(3) 0.60155(18)
H6 H 0.3052 0.9901 0.6230
C10 C 0.1486(2) 0.9586(3) 0.58673(18)
H7 H 0.1287 1.0378 0.5971
C11 C 0.0727(2) 0.8713(3) 0.55668(16)
H8 H 0.0008 0.8899 0.5480
C12 C 0.1014(2) 0.7568(2) 0.53934(14)
H9 H 0.0490 0.6976 0.5179
C13 C 0.03705(17) 0.5122(2) 0.34257(12)
C14 C -0.06374(17) 0.5252(2) 0.34748(13)
H10 H -0.0775 0.5869 0.3793
C15 C -0.14418(18) 0.4495(2) 0.30660(13)
H11 H -0.2124 0.4605 0.3108
C16 C -0.12747(18) 0.3577(2) 0.25962(13)
C17 C -0.02788(18) 0.3489(2) 0.25146(13)
H12 H -0.0150 0.2898 0.2176
C18 C 0.05276(17) 0.4253(2) 0.29217(13)
H13 H 0.1198 0.4179 0.2854
C19 C -0.2131(2) 0.2697(3) 0.22019(15)
H14 H -0.2790 0.3138 0.1979
H15 H -0.2216 0.2105 0.2578
H16 H -0.1944 0.2273 0.1791
C20 C 0.23781(17) 0.7177(2) 0.33500(12)
C21 C 0.15550(17) 0.8152(2) 0.31980(13)
C22 C 0.1819(2) 0.9284(2) 0.35287(15)
H17 H 0.2512 0.9428 0.3859
C23 C 0.1088(2) 1.0208(2) 0.33841(17)
H18 H 0.1273 1.0972 0.3629
C24 C 0.0094(2) 1.0023(2) 0.28858(17)
H19 H -0.0402 1.0666 0.2777
C25 C -0.0182(2) 0.8905(2) 0.25442(15)
H20 H -0.0867 0.8780 0.2197
C26 C 0.05384(18) 0.7965(2) 0.27069(13)
H21 H 0.0339 0.7189 0.2483
C27 C 0.35040(17) 0.3072(2) 0.42901(13)
C28 C 0.32450(19) 0.2275(2) 0.36811(14)
H22 H 0.2637 0.2405 0.3251
C29 C 0.3885(2) 0.1279(2) 0.37051(17)
H23 H 0.3717 0.0717 0.3290
C30 C 0.4764(2) 0.1105(3) 0.43301(19)
H24 H 0.5199 0.0420 0.4346
C31 C 0.5017(2) 0.1918(3) 0.49360(19)
H25 H 0.5627 0.1792 0.5365
C32 C 0.43852(18) 0.2913(2) 0.49195(15)
H26 H 0.4555 0.3477 0.5334
loop_
_geom_bond_atom_site_label_1
_geom_bond_atom_site_label_2
_geom_bond_site_symmetry_1
_geom_bond_site_symmetry_2
S1 C1 1_555 1_555
O1 C6 1_555 1_555
O2 C20 1_555 1_555
N1 C1 1_555 1_555
N2 H1 1_555 1_555
H2 N2 1_555 1_555
C1 C2 1_555 1_555
C2 H3 1_555 1_555
C3 C2 1_555 1_555
H4 C3 1_555 1_555
C4 C3 1_555 1_555
C5 N1 1_555 1_555
C6 C2 1_555 1_555
C7 C6 1_555 1_555
C8 C7 1_555 1_555
H5 C8 1_555 1_555
C9 C8 1_555 1_555
H6 C9 1_555 1_555
C10 C9 1_555 1_555
H7 C10 1_555 1_555
C11 C10 1_555 1_555
H8 C11 1_555 1_555
C12 C7 1_555 1_555
H9 C12 1_555 1_555
C13 C3 1_555 1_555
C14 C13 1_555 1_555
H10 C14 1_555 1_555
C15 C14 1_555 1_555
H11 C15 1_555 1_555
C16 C15 1_555 1_555
C17 C16 1_555 1_555
H12 C17 1_555 1_555
C18 C13 1_555 1_555
H13 C18 1_555 1_555
C19 C16 1_555 1_555
H14 C19 1_555 1_555
H15 C19 1_555 1_555
H16 C19 1_555 1_555
C20 C4 1_555 1_555
C21 C20 1_555 1_555
C22 C21 1_555 1_555
H17 C22 1_555 1_555
C23 C22 1_555 1_555
H18 C23 1_555 1_555
C24 C23 1_555 1_555
H19 C24 1_555 1_555
C25 C24 1_555 1_555
H20 C25 1_555 1_555
C26 C21 1_555 1_555
H21 C26 1_555 1_555
C27 N1 1_555 1_555
C28 C27 1_555 1_555
H22 C28 1_555 1_555
C29 C28 1_555 1_555
H23 C29 1_555 1_555
C30 C29 1_555 1_555
H24 C30 1_555 1_555
C31 C30 1_555 1_555
H25 C31 1_555 1_555
C32 C27 1_555 1_555
H26 C32 1_555 1_555
N2 C5 1_555 1_555
C4 C5 1_555 1_555
C11 C12 1_555 1_555
C17 C18 1_555 1_555
C25 C26 1_555 1_555
C31 C32 1_555 1_555

#END
