
#######################################################################
#
#                 Cambridge Crystallographic Data Centre
#                                CCDC 
#
#######################################################################
#
# If this CIF has been generated from an entry in the Cambridge 
# Structural Database, then it will include bibliographic, chemical, 
# crystal, experimental, refinement or atomic coordinate data resulting 
# from the CCDC's data processing and validation procedures.
#
#######################################################################

data_SEQJIJ
_chemical_formula_moiety         'C26 H31 Br1 N4 O5'
_chemical_name_systematic        
N-(4-Bromophenyl)-1-(2-((N-(t-butoxycarbonyl)alanyl)amino)benzoyl)prolinamide
_symmetry_cell_setting           monoclinic
_symmetry_space_group_name_H-M   'P 21'
_symmetry_Int_Tables_number      4
_space_group_name_Hall           'P 2yb'
loop_
_symmetry_equiv_pos_site_id
_symmetry_equiv_pos_as_xyz
1 x,y,z
2 -x,1/2+y,-z
_cell_length_a                   12.3366(10)
_cell_length_b                   8.5383(7)
_cell_length_c                   13.9536(11)
_cell_angle_alpha                90
_cell_angle_beta                 107.225(2)
_cell_angle_gamma                90
_cell_volume                     1403.86
_exptl_crystal_colour            colorless
_exptl_crystal_description       needle
_cell_formula_units_Z            2
loop_
_atom_site_label
_atom_site_type_symbol
_atom_site_fract_x
_atom_site_fract_y
_atom_site_fract_z
Br1 Br 0.54572(6) 0.13742(10) 0.52160(4)
O1 O 0.1052(4) 0.4524(6) 0.6809(4)
O2 O 0.1946(5) 0.2250(6) 0.6923(4)
O3 O 0.0318(3) 0.2336(4) 0.9621(3)
O4 O 0.4490(3) -0.0491(4) 1.1054(3)
O5 O 0.3108(3) -0.1085(5) 0.8942(3)
N1 N 0.0754(3) 0.2675(5) 0.7798(4)
H1 H 0.0290 0.3338 0.7926
N2 N 0.1711(3) 0.0502(5) 1.0044(3)
H2 H 0.2132 -0.0066 0.9789
N3 N 0.3353(3) -0.2602(4) 1.0686(3)
N4 N 0.4603(3) -0.2316(4) 0.8642(3)
H3 H 0.5048 -0.3107 0.8824
C1 C 0.1306(4) 0.3085(8) 0.7152(5)
C2 C 0.0889(4) 0.1183(7) 0.8297(4)
H4 H 0.1601 0.0709 0.8265
C3 C -0.0078(7) 0.0069(9) 0.7819(5)
H5 H -0.0775 0.0493 0.7881
H6 H 0.0067 -0.0927 0.8151
H7 H -0.0139 -0.0062 0.7122
C4 C 0.0947(4) 0.1409(7) 0.9390(3)
C5 C 0.1917(4) 0.0356(6) 1.1087(4)
C6 C 0.2856(4) -0.0524(6) 1.1637(3)
C7 C 0.3075(5) -0.0687(7) 1.2657(4)
H8 H 0.3703 -0.1261 1.3019
C8 C 0.2384(6) -0.0019(8) 1.3151(4)
H9 H 0.2540 -0.0139 1.3841
C9 C 0.1460(5) 0.0829(7) 1.2617(5)
H10 H 0.0991 0.1282 1.2952
C10 C 0.1210(4) 0.1026(6) 1.1593(4)
H11 H 0.0575 0.1600 1.1243
C11 C 0.3637(4) -0.1211(6) 1.1107(3)
C12 C 0.3915(3) -0.3259(5) 0.9987(3)
H12 H 0.4710 -0.3502 1.0338
C13 C 0.3240(5) -0.4783(6) 0.9609(4)
H13 H 0.3130 -0.4931 0.8897
H14 H 0.3633 -0.5687 0.9970
C14 C 0.2164(5) -0.4549(9) 0.9808(7)
H15 H 0.1854 -0.5550 0.9926
H16 H 0.1628 -0.4057 0.9235
C15 C 0.2350(4) -0.3536(8) 1.0706(4)
H17 H 0.1698 -0.2870 1.0655
H18 H 0.2504 -0.4155 1.1315
C16 C 0.3839(4) -0.2101(6) 0.9148(3)
C17 C 0.4767(4) -0.1409(6) 0.7850(4)
C18 C 0.5673(4) -0.1786(6) 0.7510(4)
H19 H 0.6154 -0.2600 0.7813
C19 C 0.5881(5) -0.0976(7) 0.6726(4)
H20 H 0.6482 -0.1260 0.6488
C20 C 0.5199(5) 0.0237(7) 0.6309(4)
C21 C 0.4309(5) 0.0635(8) 0.6632(5)
H21 H 0.3838 0.1460 0.6330
C22 C 0.4096(4) -0.0175(7) 0.7408(4)
H22 H 0.3489 0.0119 0.7636
C23 C 0.1644(6) 0.5306(10) 0.6160(6)
C24 C 0.1126(16) 0.6898(15) 0.6016(15)
H23 H 0.1678 0.7647 0.5946
H24 H 0.0880 0.7165 0.6587
H25 H 0.0487 0.6907 0.5422
C25 C 0.1393(10) 0.4431(16) 0.5196(6)
H26 H 0.0590 0.4441 0.4870
H27 H 0.1649 0.3369 0.5327
H28 H 0.1778 0.4920 0.4770
C26 C 0.2837(8) 0.5391(14) 0.6641(6)
H29 H 0.3160 0.6202 0.6335
H30 H 0.3181 0.4405 0.6571
H31 H 0.2972 0.5622 0.7340
loop_
_geom_bond_atom_site_label_1
_geom_bond_atom_site_label_2
_geom_bond_site_symmetry_1
_geom_bond_site_symmetry_2
Br1 C20 1_555 1_555
O1 C1 1_555 1_555
O2 C1 1_555 1_555
O3 C4 1_555 1_555
O4 C11 1_555 1_555
O5 C16 1_555 1_555
N1 H1 1_555 1_555
N2 H2 1_555 1_555
N3 C11 1_555 1_555
N4 H3 1_555 1_555
C1 N1 1_555 1_555
C2 N1 1_555 1_555
H4 C2 1_555 1_555
C3 C2 1_555 1_555
H5 C3 1_555 1_555
H6 C3 1_555 1_555
H7 C3 1_555 1_555
C4 N2 1_555 1_555
C5 N2 1_555 1_555
C6 C5 1_555 1_555
C7 C6 1_555 1_555
H8 C7 1_555 1_555
C8 C7 1_555 1_555
H9 C8 1_555 1_555
C9 C8 1_555 1_555
H10 C9 1_555 1_555
C10 C5 1_555 1_555
H11 C10 1_555 1_555
C11 C6 1_555 1_555
C12 N3 1_555 1_555
H12 C12 1_555 1_555
C13 C12 1_555 1_555
H13 C13 1_555 1_555
H14 C13 1_555 1_555
C14 C13 1_555 1_555
H15 C14 1_555 1_555
H16 C14 1_555 1_555
C15 N3 1_555 1_555
H17 C15 1_555 1_555
H18 C15 1_555 1_555
C16 N4 1_555 1_555
C17 N4 1_555 1_555
C18 C17 1_555 1_555
H19 C18 1_555 1_555
C19 C18 1_555 1_555
H20 C19 1_555 1_555
C20 C19 1_555 1_555
C21 C20 1_555 1_555
H21 C21 1_555 1_555
C22 C17 1_555 1_555
H22 C22 1_555 1_555
C23 O1 1_555 1_555
C24 C23 1_555 1_555
H23 C24 1_555 1_555
H24 C24 1_555 1_555
H25 C24 1_555 1_555
C25 C23 1_555 1_555
H26 C25 1_555 1_555
H27 C25 1_555 1_555
H28 C25 1_555 1_555
C26 C23 1_555 1_555
H29 C26 1_555 1_555
H30 C26 1_555 1_555
H31 C26 1_555 1_555
C2 C4 1_555 1_555
C9 C10 1_555 1_555
C12 C16 1_555 1_555
C14 C15 1_555 1_555
C21 C22 1_555 1_555

#END
