
#######################################################################
#
#                 Cambridge Crystallographic Data Centre
#                                CCDC 
#
#######################################################################
#
# If this CIF has been generated from an entry in the Cambridge 
# Structural Database, then it will include bibliographic, chemical, 
# crystal, experimental, refinement or atomic coordinate data resulting 
# from the CCDC's data processing and validation procedures.
#
#######################################################################

data_SEQJAB
_chemical_formula_moiety         'C28 H35 Br1 N4 O5'
_chemical_name_systematic        
N-(4-Bromophenyl)-1-(2-((N-(t-butoxycarbonyl)-L-valyl)amino)benzoyl)prolinamide
_symmetry_cell_setting           orthorhombic
_symmetry_space_group_name_H-M   'P 21 21 21'
_symmetry_Int_Tables_number      19
_space_group_name_Hall           'P 2ac 2ab'
loop_
_symmetry_equiv_pos_site_id
_symmetry_equiv_pos_as_xyz
1 x,y,z
2 1/2-x,-y,1/2+z
3 -x,1/2+y,1/2-z
4 1/2+x,1/2-y,-z
_cell_length_a                   7.7067(3)
_cell_length_b                   12.9597(6)
_cell_length_c                   29.2017(12)
_cell_angle_alpha                90
_cell_angle_beta                 90
_cell_angle_gamma                90
_cell_volume                     2916.56
_exptl_crystal_colour            colorless
_exptl_crystal_description       needle
_cell_formula_units_Z            4
loop_
_atom_site_label
_atom_site_type_symbol
_atom_site_fract_x
_atom_site_fract_y
_atom_site_fract_z
Br1 Br 0.00411(6) 0.53832(4) 0.801033(13)
O1 O 0.3762(4) -0.25817(19) 0.79303(10)
O2 O 0.4672(4) -0.1002(2) 0.81439(9)
O3 O 0.1354(4) -0.23877(17) 0.93147(8)
O4 O 0.2636(3) 0.13963(14) 1.03454(8)
O5 O 0.3063(3) 0.12402(16) 0.93167(8)
N1 N 0.2392(4) -0.1779(2) 0.84842(9)
H1 H 0.1738 -0.2317 0.8481
N2 N 0.1963(3) -0.08347(17) 0.96390(7)
H2 H 0.2178 -0.0201 0.9572
N3 N 0.4928(3) 0.05616(15) 1.00508(7)
N4 N 0.4293(3) 0.28288(16) 0.93448(8)
H3 H 0.5123 0.3172 0.9470
C1 C 0.3701(4) -0.1721(2) 0.81794(11)
C2 C 0.2039(4) -0.0981(2) 0.88146(9)
H4 H 0.3067 -0.0539 0.8837
C3 C 0.0485(4) -0.0300(3) 0.86807(11)
H5 H 0.0275 0.0171 0.8937
C4 C 0.0945(6) 0.0367(3) 0.82647(13)
H6 H 0.1145 -0.0069 0.8004
H7 H 0.1975 0.0758 0.8329
H8 H 0.0004 0.0830 0.8200
C5 C -0.1165(5) -0.0920(4) 0.86123(17)
H9 H -0.2112 -0.0460 0.8550
H10 H -0.1410 -0.1309 0.8885
H11 H -0.1016 -0.1385 0.8359
C6 C 0.1752(4) -0.1490(2) 0.92811(10)
C7 C 0.1869(4) -0.1080(2) 1.01085(9)
C8 C 0.2671(3) -0.0424(2) 1.04267(9)
C9 C 0.2622(4) -0.0665(2) 1.08867(10)
H12 H 0.3158 -0.0229 1.1096
C10 C 0.1795(5) -0.1539(2) 1.10410(11)
H13 H 0.1811 -0.1709 1.1350
C11 C 0.0948(5) -0.2155(2) 1.07323(12)
H14 H 0.0347 -0.2731 1.0836
C12 C 0.0967(4) -0.1937(2) 1.02712(11)
H15 H 0.0378 -0.2363 1.0068
C13 C 0.3423(3) 0.0584(2) 1.02756(9)
C14 C 0.5552(3) 0.14677(19) 0.97975(10)
H16 H 0.5880 0.2023 1.0008
C15 C 0.7153(4) 0.1048(2) 0.95421(12)
H17 H 0.6853 0.0845 0.9232
H18 H 0.8065 0.1562 0.9529
C16 C 0.7715(5) 0.0132(3) 0.98177(14)
H19 H 0.8434 0.0344 1.0074
H20 H 0.8365 -0.0349 0.9630
C17 C 0.6051(4) -0.0349(2) 0.99841(12)
H21 H 0.5569 -0.0816 0.9757
H22 H 0.6225 -0.0720 1.0269
C18 C 0.4159(4) 0.1828(2) 0.94663(10)
C19 C 0.3223(4) 0.3380(2) 0.90351(10)
C20 C 0.1707(5) 0.3011(3) 0.88531(13)
H23 H 0.1313 0.2357 0.8932
C21 C 0.0767(5) 0.3613(3) 0.85528(13)
H24 H -0.0265 0.3362 0.8431
C22 C 0.1333(4) 0.4568(3) 0.84332(11)
C23 C 0.2818(5) 0.4960(3) 0.86174(14)
H25 H 0.3193 0.5619 0.8540
C24 C 0.3752(5) 0.4366(3) 0.89187(13)
H26 H 0.4761 0.4632 0.9047
C25 C 0.4686(5) -0.2625(3) 0.74915(11)
C26 C 0.4022(11) -0.1817(6) 0.71938(19)
H27 H 0.2808 -0.1929 0.7139
H28 H 0.4636 -0.1831 0.6908
H29 H 0.4183 -0.1158 0.7338
C27 C 0.4349(13) -0.3684(5) 0.7323(3)
H30 H 0.3122 -0.3813 0.7325
H31 H 0.4920 -0.4173 0.7519
H32 H 0.4785 -0.3753 0.7017
C28 C 0.6618(7) -0.2461(7) 0.7565(2)
H33 H 0.7217 -0.2544 0.7279
H34 H 0.7043 -0.2958 0.7781
H35 H 0.6815 -0.1778 0.7680
loop_
_geom_bond_atom_site_label_1
_geom_bond_atom_site_label_2
_geom_bond_site_symmetry_1
_geom_bond_site_symmetry_2
Br1 C22 1_555 1_555
O1 C1 1_555 1_555
O2 C1 1_555 1_555
O3 C6 1_555 1_555
O4 C13 1_555 1_555
O5 C18 1_555 1_555
N1 H1 1_555 1_555
N2 H2 1_555 1_555
N3 C13 1_555 1_555
N4 H3 1_555 1_555
C1 N1 1_555 1_555
C2 N1 1_555 1_555
H4 C2 1_555 1_555
C3 C2 1_555 1_555
H5 C3 1_555 1_555
C4 C3 1_555 1_555
H6 C4 1_555 1_555
H7 C4 1_555 1_555
H8 C4 1_555 1_555
C5 C3 1_555 1_555
H9 C5 1_555 1_555
H10 C5 1_555 1_555
H11 C5 1_555 1_555
C6 N2 1_555 1_555
C7 N2 1_555 1_555
C8 C7 1_555 1_555
C9 C8 1_555 1_555
H12 C9 1_555 1_555
C10 C9 1_555 1_555
H13 C10 1_555 1_555
C11 C10 1_555 1_555
H14 C11 1_555 1_555
C12 C7 1_555 1_555
H15 C12 1_555 1_555
C13 C8 1_555 1_555
C14 N3 1_555 1_555
H16 C14 1_555 1_555
C15 C14 1_555 1_555
H17 C15 1_555 1_555
H18 C15 1_555 1_555
C16 C15 1_555 1_555
H19 C16 1_555 1_555
H20 C16 1_555 1_555
C17 N3 1_555 1_555
H21 C17 1_555 1_555
H22 C17 1_555 1_555
C18 N4 1_555 1_555
C19 N4 1_555 1_555
C20 C19 1_555 1_555
H23 C20 1_555 1_555
C21 C20 1_555 1_555
H24 C21 1_555 1_555
C22 C21 1_555 1_555
C23 C22 1_555 1_555
H25 C23 1_555 1_555
C24 C19 1_555 1_555
H26 C24 1_555 1_555
C25 O1 1_555 1_555
C26 C25 1_555 1_555
H27 C26 1_555 1_555
H28 C26 1_555 1_555
H29 C26 1_555 1_555
C27 C25 1_555 1_555
H30 C27 1_555 1_555
H31 C27 1_555 1_555
H32 C27 1_555 1_555
C28 C25 1_555 1_555
H33 C28 1_555 1_555
H34 C28 1_555 1_555
H35 C28 1_555 1_555
C2 C6 1_555 1_555
C11 C12 1_555 1_555
C14 C18 1_555 1_555
C16 C17 1_555 1_555
C23 C24 1_555 1_555

#END
