
#######################################################################
#
#                 Cambridge Crystallographic Data Centre
#                                CCDC 
#
#######################################################################
#
# If this CIF has been generated from an entry in the Cambridge 
# Structural Database, then it will include bibliographic, chemical, 
# crystal, experimental, refinement or atomic coordinate data resulting 
# from the CCDC's data processing and validation procedures.
#
#######################################################################

data_SEQJUW
_chemical_formula_moiety         'C48 H36,2(C1 H1 Cl3)'
_chemical_name_systematic        
'8,16-bis(2,4,6-trimethylphenyl)tetraceno[2,1,12,11-opqra]tetracene chloroform solvate'
_symmetry_cell_setting           triclinic
_symmetry_space_group_name_H-M   'P -1'
_symmetry_Int_Tables_number      2
_space_group_name_Hall           '-P 1'
loop_
_symmetry_equiv_pos_site_id
_symmetry_equiv_pos_as_xyz
1 x,y,z
2 -x,-y,-z
_cell_length_a                   8.1554(7)
_cell_length_b                   9.5999(8)
_cell_length_c                   15.1427(13)
_cell_angle_alpha                101.012(2)
_cell_angle_beta                 93.9240(10)
_cell_angle_gamma                112.658(3)
_cell_volume                     1060.61
_cell_formula_units_Z            1
loop_
_atom_site_label
_atom_site_type_symbol
_atom_site_fract_x
_atom_site_fract_y
_atom_site_fract_z
Cl1 Cl 0.6552(3) 0.8989(3) 0.07342(13)
Cl2 Cl 0.3989(3) 0.7823(2) 0.19000(17)
Cl3 Cl 0.4703(4) 1.0792(2) 0.15824(14)
C1 C 0.5640(9) 0.9436(8) 0.1669(4)
H1 H 0.6607 0.9902 0.2194
C2 C 0.8248(5) 0.6419(5) 0.3210(2)
C3 C 0.7086(5) 0.5678(4) 0.3786(2)
C4 C 0.6469(5) 0.6572(4) 0.4462(2)
C5 C 0.7041(5) 0.8210(4) 0.4541(2)
C6 C 0.8178(5) 0.8936(4) 0.3948(3)
C7 C 0.8793(5) 0.8047(5) 0.3282(3)
C8 C 0.9936(5) 0.8816(5) 0.2684(3)
H2 H 1.0329 0.8246 0.2247
C9 C 1.0448(6) 1.0354(6) 0.2747(3)
H3 H 1.1183 1.0826 0.2352
C10 C 0.9878(6) 1.1251(5) 0.3405(3)
H4 H 1.0239 1.2308 0.3442
C11 C 0.8797(6) 1.0569(5) 0.3989(3)
H5 H 0.8452 1.1180 0.4426
C12 C 0.8921(5) 0.5475(4) 0.2520(3)
C13 C 0.7976(5) 0.4816(5) 0.1626(3)
C14 C 0.8646(6) 0.3980(5) 0.1005(3)
H6 H 0.8044 0.3565 0.0409
C15 C 1.0169(6) 0.3744(5) 0.1242(3)
C16 C 1.1056(6) 0.4392(5) 0.2133(3)
H7 H 1.2080 0.4240 0.2305
C17 C 1.0469(5) 0.5262(5) 0.2780(3)
C18 C 0.6293(6) 0.5021(7) 0.1348(3)
H8 H 0.5782 0.4440 0.0733
H9 H 0.6580 0.6102 0.1387
H10 H 0.5441 0.4652 0.1746
C19 C 1.0829(8) 0.2796(6) 0.0542(4)
H11 H 0.9920 0.2269 0.0014
H12 H 1.1074 0.2046 0.0802
H13 H 1.1908 0.3475 0.0371
C20 C 1.1537(6) 0.5977(6) 0.3735(3)
H14 H 1.1897 0.7082 0.3871
H15 H 1.2586 0.5753 0.3771
H16 H 1.0803 0.5548 0.4167
C21 C 0.6472(5) 0.4060(4) 0.3725(2)
H17 H 0.6860 0.3478 0.3293
C22 C 0.5321(5) 0.3305(4) 0.4278(2)
C23 C 0.5303(5) 0.5817(4) 0.5039(2)
C24 C 0.6409(6) 0.9042(5) 0.5237(3)
H18 H 0.6783 1.0109 0.5309
C25 C 0.5292(5) 0.8335(5) 0.5790(3)
H19 H 0.4914 0.8924 0.6223
C2A C 0.1752(5) 0.3581(5) 0.6790(2)
C3A C 0.2914(5) 0.4322(4) 0.6214(2)
C4A C 0.3531(5) 0.3428(4) 0.5538(2)
C5A C 0.2959(5) 0.1790(4) 0.5459(2)
C6A C 0.1822(5) 0.1064(4) 0.6052(3)
C7A C 0.1207(5) 0.1953(5) 0.6718(3)
C8A C 0.0064(5) 0.1184(5) 0.7316(3)
H2A H -0.0329 0.1754 0.7753
C9A C -0.0448(6) -0.0354(6) 0.7253(3)
H3A H -0.1183 -0.0826 0.7648
C10A C 0.0122(6) -0.1251(5) 0.6595(3)
H4A H -0.0239 -0.2308 0.6558
C11A C 0.1203(6) -0.0569(5) 0.6011(3)
H5A H 0.1548 -0.1180 0.5574
C12A C 0.1079(5) 0.4525(4) 0.7480(3)
C13A C 0.2024(5) 0.5184(5) 0.8374(3)
C14A C 0.1354(6) 0.6020(5) 0.8995(3)
H6A H 0.1956 0.6435 0.9591
C15A C -0.0169(6) 0.6256(5) 0.8758(3)
C16A C -0.1056(6) 0.5608(5) 0.7867(3)
H7A H -0.2080 0.5760 0.7695
C17A C -0.0469(5) 0.4738(5) 0.7220(3)
C18A C 0.3707(6) 0.4979(7) 0.8652(3)
H8A H 0.4218 0.5560 0.9267
H9A H 0.3420 0.3898 0.8613
H10A H 0.4559 0.5348 0.8254
C19A C -0.0829(8) 0.7204(6) 0.9458(4)
H11A H 0.0080 0.7731 0.9986
H12A H -0.1074 0.7954 0.9198
H13A H -0.1908 0.6525 0.9629
C20A C -0.1537(6) 0.4023(6) 0.6265(3)
H14A H -0.1897 0.2918 0.6129
H15A H -0.2586 0.4247 0.6229
H16A H -0.0803 0.4452 0.5833
C21A C 0.3528(5) 0.5940(4) 0.6275(2)
H17A H 0.3140 0.6522 0.6707
C22A C 0.4679(5) 0.6695(4) 0.5722(2)
C23A C 0.4697(5) 0.4183(4) 0.4961(2)
C24A C 0.3591(6) 0.0958(5) 0.4763(3)
H18A H 0.3217 -0.0109 0.4691
C25A C 0.4708(5) 0.1665(5) 0.4210(3)
H19A H 0.5086 0.1076 0.3777
loop_
_geom_bond_atom_site_label_1
_geom_bond_atom_site_label_2
_geom_bond_site_symmetry_1
_geom_bond_site_symmetry_2
Cl1 C1 1_555 1_555
Cl2 C1 1_555 1_555
Cl3 C1 1_555 1_555
C1 H1 1_555 1_555
C2 C3 1_555 1_555
C3 C4 1_555 1_555
C4 C5 1_555 1_555
C5 C6 1_555 1_555
C6 C7 1_555 1_555
C7 C2 1_555 1_555
C8 C7 1_555 1_555
H2 C8 1_555 1_555
C9 C8 1_555 1_555
H3 C9 1_555 1_555
C10 C9 1_555 1_555
H4 C10 1_555 1_555
C11 C6 1_555 1_555
H5 C11 1_555 1_555
C12 C2 1_555 1_555
C13 C12 1_555 1_555
C14 C13 1_555 1_555
H6 C14 1_555 1_555
C15 C14 1_555 1_555
C16 C15 1_555 1_555
H7 C16 1_555 1_555
C17 C12 1_555 1_555
C18 C13 1_555 1_555
H8 C18 1_555 1_555
H9 C18 1_555 1_555
H10 C18 1_555 1_555
C19 C15 1_555 1_555
H11 C19 1_555 1_555
H12 C19 1_555 1_555
H13 C19 1_555 1_555
C20 C17 1_555 1_555
H14 C20 1_555 1_555
H15 C20 1_555 1_555
H16 C20 1_555 1_555
C21 C3 1_555 1_555
H17 C21 1_555 1_555
C22 C21 1_555 1_555
C23 C4 1_555 1_555
C24 C5 1_555 1_555
H18 C24 1_555 1_555
C25 C24 1_555 1_555
H19 C25 1_555 1_555
C2A C3A 1_555 1_555
C3A C4A 1_555 1_555
C4A C5A 1_555 1_555
C5A C6A 1_555 1_555
C6A C7A 1_555 1_555
C7A C2A 1_555 1_555
C8A C7A 1_555 1_555
H2A C8A 1_555 1_555
C9A C8A 1_555 1_555
H3A C9A 1_555 1_555
C10A C9A 1_555 1_555
H4A C10A 1_555 1_555
C11A C6A 1_555 1_555
H5A C11A 1_555 1_555
C12A C2A 1_555 1_555
C13A C12A 1_555 1_555
C14A C13A 1_555 1_555
H6A C14A 1_555 1_555
C15A C14A 1_555 1_555
C16A C15A 1_555 1_555
H7A C16A 1_555 1_555
C17A C12A 1_555 1_555
C18A C13A 1_555 1_555
H8A C18A 1_555 1_555
H9A C18A 1_555 1_555
H10A C18A 1_555 1_555
C19A C15A 1_555 1_555
H11A C19A 1_555 1_555
H12A C19A 1_555 1_555
H13A C19A 1_555 1_555
C20A C17A 1_555 1_555
H14A C20A 1_555 1_555
H15A C20A 1_555 1_555
H16A C20A 1_555 1_555
C21A C3A 1_555 1_555
H17A C21A 1_555 1_555
C22A C23 1_555 1_555
C23A C22 1_555 1_555
C24A C5A 1_555 1_555
H18A C24A 1_555 1_555
C25A C22 1_555 1_555
H19A C25A 1_555 1_555
C10 C11 1_555 1_555
C16 C17 1_555 1_555
C23 C23A 1_555 1_555
C25 C22A 1_555 1_555
C4A C23A 1_555 1_555
C10A C11A 1_555 1_555
C16A C17A 1_555 1_555
C21A C22A 1_555 1_555
C24A C25A 1_555 1_555

#END
