
#######################################################################
#
#                 Cambridge Crystallographic Data Centre
#                                CCDC 
#
#######################################################################
#
# If this CIF has been generated from an entry in the Cambridge 
# Structural Database, then it will include bibliographic, chemical, 
# crystal, experimental, refinement or atomic coordinate data resulting 
# from the CCDC's data processing and validation procedures.
#
#######################################################################

data_SEQJEF
_chemical_formula_moiety         'C28 H35 Br1 N4 O5'
_chemical_name_systematic        
N-(4-Bromophenyl)-1-(2-((N-(t-butoxycarbonyl)-D-valyl)amino)benzoyl)prolinamide
_symmetry_cell_setting           monoclinic
_symmetry_space_group_name_H-M   'P 21'
_symmetry_Int_Tables_number      4
_space_group_name_Hall           'P 2yb'
loop_
_symmetry_equiv_pos_site_id
_symmetry_equiv_pos_as_xyz
1 x,y,z
2 -x,1/2+y,-z
_cell_length_a                   11.7520(7)
_cell_length_b                   9.1568(6)
_cell_length_c                   13.7591(9)
_cell_angle_alpha                90
_cell_angle_beta                 102.4970(10)
_cell_angle_gamma                90
_cell_volume                     1445.55
_exptl_crystal_colour            colorless
_exptl_crystal_description       needle
_cell_formula_units_Z            2
loop_
_atom_site_label
_atom_site_type_symbol
_atom_site_fract_x
_atom_site_fract_y
_atom_site_fract_z
Br1 Br 1.37939(2) 0.66710(4) 0.952073(19)
O1 O 0.84222(16) 0.3111(2) 0.78151(15)
O2 O 0.92005(16) 0.5414(2) 0.79592(15)
O3 O 0.56641(16) 0.5427(2) 0.53565(15)
O4 O 0.89248(16) 0.8362(2) 0.40354(15)
O5 O 0.88169(15) 0.9049(2) 0.60904(14)
N1 N 0.74087(19) 0.4914(3) 0.70093(17)
H1 H 0.6932 0.4223 0.6776
N2 N 0.67669(18) 0.7345(2) 0.50011(17)
H2 H 0.7349 0.7890 0.5260
N3 N 0.80021(17) 1.0442(2) 0.43266(16)
N4 N 1.05626(18) 1.0246(2) 0.63447(17)
H3 H 1.0887 1.1017 0.6171
C1 C 0.8421(2) 0.4559(3) 0.7633(2)
C2 C 0.7079(2) 0.6414(3) 0.67081(19)
H4 H 0.7779 0.7020 0.6771
C3 C 0.6267(2) 0.7071(3) 0.7334(2)
H5 H 0.5582 0.6437 0.7268
C4 C 0.6885(3) 0.7127(4) 0.8442(2)
H6 H 0.7564 0.7735 0.8520
H7 H 0.7112 0.6158 0.8672
H8 H 0.6363 0.7522 0.8823
C5 C 0.5852(3) 0.8590(4) 0.6962(3)
H9 H 0.6514 0.9218 0.6995
H10 H 0.5360 0.8982 0.7371
H11 H 0.5422 0.8527 0.6285
C6 C 0.6430(2) 0.6339(3) 0.5613(2)
C7 C 0.6260(2) 0.7585(3) 0.3987(2)
C8 C 0.6859(2) 0.8484(3) 0.3441(2)
C9 C 0.6395(2) 0.8803(3) 0.2458(2)
H12 H 0.6801 0.9409 0.2109
C10 C 0.5331(2) 0.8232(3) 0.1985(2)
H13 H 0.5017 0.8449 0.1321
C11 C 0.4739(2) 0.7328(3) 0.2520(2)
H14 H 0.4026 0.6932 0.2204
C12 C 0.5189(2) 0.7003(3) 0.3510(2)
H15 H 0.4777 0.6401 0.3857
C13 C 0.8019(2) 0.9098(3) 0.3949(2)
C14 C 0.9018(2) 1.1068(3) 0.5004(2)
H16 H 0.9640 1.1261 0.4648
C15 C 0.8559(2) 1.2511(3) 0.5345(2)
H17 H 0.8929 1.2730 0.6030
H18 H 0.8689 1.3317 0.4924
C16 C 0.7263(2) 1.2214(3) 0.5236(2)
H19 H 0.7119 1.1659 0.5798
H20 H 0.6825 1.3118 0.5183
C17 C 0.6944(2) 1.1340(3) 0.4285(2)
H21 H 0.6265 1.0733 0.4276
H22 H 0.6794 1.1971 0.3705
C18 C 0.9444(2) 1.0001(3) 0.58638(19)
C19 C 1.1261(2) 0.9381(3) 0.7100(2)
C20 C 1.2368(2) 0.9925(3) 0.7529(2)
H23 H 1.2599 1.0831 0.7335
C21 C 1.3123(2) 0.9115(3) 0.8243(2)
H24 H 1.3862 0.9470 0.8526
C22 C 1.2767(2) 0.7781(3) 0.8528(2)
C23 C 1.1668(2) 0.7226(3) 0.8112(2)
H25 H 1.1441 0.6320 0.8309
C24 C 1.0917(2) 0.8034(3) 0.7401(2)
H26 H 1.0178 0.7675 0.7123
C25 C 0.9282(3) 0.2470(4) 0.8638(2)
C26 C 1.0518(2) 0.2668(4) 0.8494(3)
H27 H 1.0553 0.2394 0.7828
H28 H 1.1039 0.2062 0.8959
H29 H 1.0744 0.3672 0.8604
C27 C 0.9117(3) 0.3122(4) 0.9609(2)
H30 H 0.9290 0.4147 0.9620
H31 H 0.9631 0.2648 1.0155
H32 H 0.8324 0.2983 0.9667
C28 C 0.8932(3) 0.0867(4) 0.8567(3)
H33 H 0.8137 0.0775 0.8628
H34 H 0.9428 0.0331 0.9093
H35 H 0.9011 0.0484 0.7936
loop_
_geom_bond_atom_site_label_1
_geom_bond_atom_site_label_2
_geom_bond_site_symmetry_1
_geom_bond_site_symmetry_2
Br1 C22 1_555 1_555
O1 C1 1_555 1_555
O2 C1 1_555 1_555
O3 C6 1_555 1_555
O4 C13 1_555 1_555
O5 C18 1_555 1_555
N1 H1 1_555 1_555
N2 H2 1_555 1_555
N3 C13 1_555 1_555
N4 H3 1_555 1_555
C1 N1 1_555 1_555
C2 N1 1_555 1_555
H4 C2 1_555 1_555
C3 C2 1_555 1_555
H5 C3 1_555 1_555
C4 C3 1_555 1_555
H6 C4 1_555 1_555
H7 C4 1_555 1_555
H8 C4 1_555 1_555
C5 C3 1_555 1_555
H9 C5 1_555 1_555
H10 C5 1_555 1_555
H11 C5 1_555 1_555
C6 N2 1_555 1_555
C7 N2 1_555 1_555
C8 C7 1_555 1_555
C9 C8 1_555 1_555
H12 C9 1_555 1_555
C10 C9 1_555 1_555
H13 C10 1_555 1_555
C11 C10 1_555 1_555
H14 C11 1_555 1_555
C12 C7 1_555 1_555
H15 C12 1_555 1_555
C13 C8 1_555 1_555
C14 N3 1_555 1_555
H16 C14 1_555 1_555
C15 C14 1_555 1_555
H17 C15 1_555 1_555
H18 C15 1_555 1_555
C16 C15 1_555 1_555
H19 C16 1_555 1_555
H20 C16 1_555 1_555
C17 N3 1_555 1_555
H21 C17 1_555 1_555
H22 C17 1_555 1_555
C18 N4 1_555 1_555
C19 N4 1_555 1_555
C20 C19 1_555 1_555
H23 C20 1_555 1_555
C21 C20 1_555 1_555
H24 C21 1_555 1_555
C22 C21 1_555 1_555
C23 C22 1_555 1_555
H25 C23 1_555 1_555
C24 C19 1_555 1_555
H26 C24 1_555 1_555
C25 O1 1_555 1_555
C26 C25 1_555 1_555
H27 C26 1_555 1_555
H28 C26 1_555 1_555
H29 C26 1_555 1_555
C27 C25 1_555 1_555
H30 C27 1_555 1_555
H31 C27 1_555 1_555
H32 C27 1_555 1_555
C28 C25 1_555 1_555
H33 C28 1_555 1_555
H34 C28 1_555 1_555
H35 C28 1_555 1_555
C2 C6 1_555 1_555
C11 C12 1_555 1_555
C14 C18 1_555 1_555
C16 C17 1_555 1_555
C23 C24 1_555 1_555

#END
