
#######################################################################
#
#                 Cambridge Crystallographic Data Centre
#                                CCDC 
#
#######################################################################
#
# If this CIF has been generated from an entry in the Cambridge 
# Structural Database, then it will include bibliographic, chemical, 
# crystal, experimental, refinement or atomic coordinate data resulting 
# from the CCDC's data processing and validation procedures.
#
#######################################################################

data_SEQKEG
_chemical_formula_moiety         'C28 H33 Br1 N4 O5'
_chemical_name_systematic        
'(R)-t-Butyl 2-((2-((S)-(2-((4-bromophenyl)carbamoyl)pyrrolidin-1-yl)carbonyl)phenyl)carbamoyl)pyrrolidine-1-carboxylate'
_symmetry_cell_setting           orthorhombic
_symmetry_space_group_name_H-M   'P 21 21 21'
_symmetry_Int_Tables_number      19
_space_group_name_Hall           'P 2ac 2ab'
loop_
_symmetry_equiv_pos_site_id
_symmetry_equiv_pos_as_xyz
1 x,y,z
2 1/2-x,-y,1/2+z
3 -x,1/2+y,1/2-z
4 1/2+x,1/2-y,-z
_cell_length_a                   8.1683(4)
_cell_length_b                   11.9420(5)
_cell_length_c                   28.4004(13)
_cell_angle_alpha                90
_cell_angle_beta                 90
_cell_angle_gamma                90
_cell_volume                     2770.34
_exptl_crystal_colour            colorless
_exptl_crystal_description       plate
_cell_formula_units_Z            4
loop_
_atom_site_label
_atom_site_type_symbol
_atom_site_fract_x
_atom_site_fract_y
_atom_site_fract_z
Br1 Br -0.00517(6) -0.33633(3) -0.062893(14)
O1 O 0.4727(3) 0.05881(17) 0.19493(8)
O2 O 0.3156(2) 0.18597(16) 0.23411(6)
O3 O -0.0372(3) 0.30428(16) 0.22369(7)
O4 O 0.1742(2) 0.38619(16) 0.02932(6)
O5 O 0.1735(2) 0.15603(16) 0.06323(7)
N1 N 0.2055(3) 0.08762(18) 0.17622(7)
N2 N 0.0938(3) 0.31308(16) 0.15272(7)
H1 H 0.1300 0.2716 0.1303
N3 N 0.3778(2) 0.33329(17) 0.07862(7)
N4 N 0.3277(3) 0.09150(17) 0.00194(7)
H2 H 0.4132 0.1073 -0.0144
C1 C 0.3438(3) 0.1065(2) 0.20167(9)
C2 C 0.0440(3) 0.1305(2) 0.19036(9)
H3 H 0.0203 0.1028 0.2221
C3 C -0.0702(3) 0.0716(2) 0.15614(11)
H4 H -0.0765 0.1114 0.1264
H5 H -0.1794 0.0643 0.1692
C4 C 0.0104(4) -0.0423(2) 0.15000(12)
H6 H -0.0147 -0.0912 0.1763
H7 H -0.0253 -0.0779 0.1211
C5 C 0.1922(4) -0.0154(2) 0.14826(10)
H8 H 0.2565 -0.0753 0.1620
H9 H 0.2284 -0.0031 0.1161
C6 C 0.0304(3) 0.2583(2) 0.19104(9)
C7 C 0.1063(3) 0.4295(2) 0.14592(9)
C8 C 0.1819(3) 0.4704(2) 0.10535(8)
C9 C 0.1958(3) 0.5855(2) 0.09780(10)
H10 H 0.2458 0.6118 0.0705
C10 C 0.1360(4) 0.6603(2) 0.13046(10)
H11 H 0.1461 0.7370 0.1254
C11 C 0.0616(4) 0.6214(2) 0.17055(11)
H12 H 0.0221 0.6721 0.1927
C12 C 0.0444(4) 0.5083(2) 0.17851(10)
H13 H -0.0084 0.4835 0.2056
C13 C 0.2446(3) 0.39365(19) 0.06785(8)
C14 C 0.4357(3) 0.2418(2) 0.04853(8)
H14 H 0.4805 0.2713 0.0190
C15 C 0.5711(3) 0.1881(2) 0.07823(9)
H15 H 0.5274 0.1286 0.0978
H16 H 0.6567 0.1577 0.0583
C16 C 0.6357(3) 0.2836(2) 0.10820(10)
H17 H 0.6883 0.2556 0.1365
H18 H 0.7133 0.3289 0.0907
C17 C 0.4830(3) 0.3502(2) 0.12017(9)
H19 H 0.4312 0.3217 0.1485
H20 H 0.5084 0.4289 0.1246
C18 C 0.2962(3) 0.1602(2) 0.03871(8)
C19 C 0.2371(3) -0.0032(2) -0.01285(9)
C20 C 0.2985(4) -0.0624(2) -0.05094(9)
H21 H 0.3910 -0.0360 -0.0665
C21 C 0.2254(4) -0.1595(2) -0.06621(10)
H22 H 0.2671 -0.1978 -0.0921
C22 C 0.0914(4) -0.1990(2) -0.04314(10)
C23 C 0.0239(4) -0.1403(3) -0.00636(10)
H23 H -0.0697 -0.1670 0.0085
C24 C 0.0955(4) -0.0413(3) 0.00855(10)
H24 H 0.0484 -0.0005 0.0329
C25 C 0.4369(3) 0.2127(3) 0.27132(10)
C26 C 0.5924(4) 0.2576(3) 0.25005(12)
H25 H 0.6446 0.1999 0.2320
H26 H 0.6647 0.2818 0.2747
H27 H 0.5671 0.3199 0.2299
C27 C 0.3482(4) 0.3017(3) 0.29938(11)
H28 H 0.3239 0.3643 0.2793
H29 H 0.4163 0.3260 0.3250
H30 H 0.2481 0.2714 0.3116
C28 C 0.4643(5) 0.1078(3) 0.30079(12)
H31 H 0.3605 0.0764 0.3095
H32 H 0.5246 0.1268 0.3287
H33 H 0.5251 0.0540 0.2828
loop_
_geom_bond_atom_site_label_1
_geom_bond_atom_site_label_2
_geom_bond_site_symmetry_1
_geom_bond_site_symmetry_2
Br1 C22 1_555 1_555
O1 C1 1_555 1_555
O2 C1 1_555 1_555
O3 C6 1_555 1_555
O4 C13 1_555 1_555
O5 C18 1_555 1_555
N1 C1 1_555 1_555
N2 H1 1_555 1_555
N3 C13 1_555 1_555
N4 H2 1_555 1_555
C2 N1 1_555 1_555
H3 C2 1_555 1_555
C3 C2 1_555 1_555
H4 C3 1_555 1_555
H5 C3 1_555 1_555
C4 C3 1_555 1_555
H6 C4 1_555 1_555
H7 C4 1_555 1_555
C5 N1 1_555 1_555
H8 C5 1_555 1_555
H9 C5 1_555 1_555
C6 N2 1_555 1_555
C7 N2 1_555 1_555
C8 C7 1_555 1_555
C9 C8 1_555 1_555
H10 C9 1_555 1_555
C10 C9 1_555 1_555
H11 C10 1_555 1_555
C11 C10 1_555 1_555
H12 C11 1_555 1_555
C12 C7 1_555 1_555
H13 C12 1_555 1_555
C13 C8 1_555 1_555
C14 N3 1_555 1_555
H14 C14 1_555 1_555
C15 C14 1_555 1_555
H15 C15 1_555 1_555
H16 C15 1_555 1_555
C16 C15 1_555 1_555
H17 C16 1_555 1_555
H18 C16 1_555 1_555
C17 N3 1_555 1_555
H19 C17 1_555 1_555
H20 C17 1_555 1_555
C18 N4 1_555 1_555
C19 N4 1_555 1_555
C20 C19 1_555 1_555
H21 C20 1_555 1_555
C21 C20 1_555 1_555
H22 C21 1_555 1_555
C22 C21 1_555 1_555
C23 C22 1_555 1_555
H23 C23 1_555 1_555
C24 C19 1_555 1_555
H24 C24 1_555 1_555
C25 O2 1_555 1_555
C26 C25 1_555 1_555
H25 C26 1_555 1_555
H26 C26 1_555 1_555
H27 C26 1_555 1_555
C27 C25 1_555 1_555
H28 C27 1_555 1_555
H29 C27 1_555 1_555
H30 C27 1_555 1_555
C28 C25 1_555 1_555
H31 C28 1_555 1_555
H32 C28 1_555 1_555
H33 C28 1_555 1_555
C2 C6 1_555 1_555
C4 C5 1_555 1_555
C11 C12 1_555 1_555
C14 C18 1_555 1_555
C16 C17 1_555 1_555
C23 C24 1_555 1_555

#END
