
#######################################################################
#
#                 Cambridge Crystallographic Data Centre
#                                CCDC 
#
#######################################################################
#
# If this CIF has been generated from an entry in the Cambridge 
# Structural Database, then it will include bibliographic, chemical, 
# crystal, experimental, refinement or atomic coordinate data resulting 
# from the CCDC's data processing and validation procedures.
#
#######################################################################

data_SEQKAC
_chemical_formula_moiety         'C28 H33 Br1 N4 O5'
_chemical_name_systematic        
'(R)-t-Butyl 2-((2-((R)-(2-((4-bromophenyl)carbamoyl)pyrrolidin-1-yl)carbonyl)phenyl)carbamoyl)pyrrolidine-1-carboxylate'
_symmetry_cell_setting           orthorhombic
_symmetry_space_group_name_H-M   'P 21 21 21'
_symmetry_Int_Tables_number      19
_space_group_name_Hall           'P 2ac 2ab'
loop_
_symmetry_equiv_pos_site_id
_symmetry_equiv_pos_as_xyz
1 x,y,z
2 1/2-x,-y,1/2+z
3 -x,1/2+y,1/2-z
4 1/2+x,1/2-y,-z
_cell_length_a                   7.6579(5)
_cell_length_b                   11.4910(7)
_cell_length_c                   31.992(2)
_cell_angle_alpha                90
_cell_angle_beta                 90
_cell_angle_gamma                90
_cell_volume                     2815.2
_exptl_crystal_colour            colorless
_exptl_crystal_description       plate
_cell_formula_units_Z            4
loop_
_atom_site_label
_atom_site_type_symbol
_atom_site_fract_x
_atom_site_fract_y
_atom_site_fract_z
Br1 Br 0.41261(10) 0.17714(5) 1.08168(2)
O1 O 0.7666(4) 0.3190(2) 0.77049(8)
C1 C 0.5988(6) 0.8441(3) 0.85432(12)
O2 O 0.9139(4) 0.4455(3) 0.81301(9)
N1 N 0.8805(5) 0.7996(3) 0.92331(9)
O3 O 0.5963(5) 0.6580(3) 0.79247(9)
C2 C 0.7320(6) 0.8602(3) 0.92610(13)
N2 N 0.6216(5) 0.4280(3) 0.81552(11)
N3 N 0.8187(5) 0.5741(3) 1.00246(10)
H1 H 0.9033 0.5981 1.0179
O4 O 0.6801(4) 0.6094(3) 0.94103(9)
N4 N 0.6002(5) 0.7223(3) 0.85987(9)
H2 H 0.6018 0.6979 0.8853
C3 C 0.6686(6) 1.0336(4) 0.88198(14)
H3 H 0.7152 1.0794 0.9032
C4 C 0.6027(7) 0.5162(4) 0.84823(13)
H4 H 0.6977 0.5093 0.8686
C5 C 0.7980(6) 0.6293(4) 0.96570(12)
O5 O 0.6480(4) 0.8670(3) 0.95899(9)
C6 C 0.7798(6) 0.4024(4) 0.80053(13)
C7 C 0.5300(6) 0.8978(4) 0.81892(13)
H5 H 0.4813 0.8529 0.7977
C8 C 0.9379(6) 0.7209(3) 0.95678(11)
H6 H 0.9643 0.7652 0.9822
C9 C 0.6036(8) 1.0858(4) 0.84641(16)
H7 H 0.6068 1.1663 0.8435
C10 C 0.5994(6) 0.6388(4) 0.82961(13)
C11 C 0.4537(6) 0.3797(4) 0.80374(14)
H8 H 0.4623 0.2969 0.7983
H9 H 0.4071 0.4183 0.7792
C12 C 1.0001(6) 0.7971(4) 0.88736(13)
H10 H 0.9540 0.7490 0.8650
H11 H 1.0216 0.8748 0.8767
C13 C 0.5339(7) 1.0171(4) 0.81532(15)
H12 H 0.4886 1.0520 0.7914
C14 C 0.6651(5) 0.9136(3) 0.88636(12)
C15 C 0.8509(7) 0.1830(5) 0.72110(15)
H13 H 0.7762 0.1284 0.7351
H14 H 0.9442 0.1418 0.7075
H15 H 0.7846 0.2251 0.7006
C16 C 1.0353(7) 0.3573(4) 0.73110(15)
H16 H 0.9655 0.3985 0.7111
H17 H 1.1313 0.3203 0.7171
H18 H 1.0793 0.4109 0.7515
C17 C 0.9255(6) 0.2666(4) 0.75239(13)
C18 C 0.5358(8) 0.3012(4) 1.05572(16)
C19 C 1.1041(6) 0.6660(4) 0.93924(14)
H19 H 1.1937 0.6607 0.9606
H20 H 1.0808 0.5888 0.9284
C20 C 0.6793(9) 0.3455(5) 1.07443(18)
H21 H 0.7158 0.3162 1.1001
C21 C 1.1587(8) 0.7464(7) 0.90512(18)
H22 H 1.2337 0.8071 0.9161
H23 H 1.2227 0.7040 0.8838
C22 C 0.7715(8) 0.4339(5) 1.05564(17)
H24 H 0.8723 0.4619 1.0684
C23 C 0.4796(8) 0.3482(5) 1.01963(16)
H25 H 0.3800 0.3185 1.0069
C24 C 0.7179(6) 0.4813(4) 1.01872(13)
C25 C 1.0228(7) 0.2010(4) 0.78606(16)
H26 H 1.0710 0.2552 0.8058
H27 H 1.1154 0.1566 0.7736
H28 H 0.9438 0.1494 0.8002
C26 C 0.3444(7) 0.4033(6) 0.84112(17)
H29 H 0.2331 0.4356 0.8325
H30 H 0.3219 0.3310 0.8559
C27 C 0.5671(8) 0.4394(5) 1.00132(15)
H31 H 0.5236 0.4729 0.9770
C28 C 0.4301(8) 0.4824(4) 0.86815(18)
H32 H 0.4505 0.4463 0.8951
H33 H 0.3584 0.5510 0.8723
loop_
_geom_bond_atom_site_label_1
_geom_bond_atom_site_label_2
_geom_bond_site_symmetry_1
_geom_bond_site_symmetry_2
Br1 C18 1_555 1_555
O1 C6 1_555 1_555
C1 N4 1_555 1_555
O2 C6 1_555 1_555
N1 C2 1_555 1_555
O3 C10 1_555 1_555
C2 O5 1_555 1_555
N2 C4 1_555 1_555
N3 H1 1_555 1_555
O4 C5 1_555 1_555
N4 H2 1_555 1_555
C3 H3 1_555 1_555
C4 H4 1_555 1_555
C5 N3 1_555 1_555
C6 N2 1_555 1_555
C7 C1 1_555 1_555
H5 C7 1_555 1_555
C8 N1 1_555 1_555
H6 C8 1_555 1_555
C9 C3 1_555 1_555
H7 C9 1_555 1_555
C10 N4 1_555 1_555
C11 N2 1_555 1_555
H8 C11 1_555 1_555
H9 C11 1_555 1_555
C12 N1 1_555 1_555
H10 C12 1_555 1_555
H11 C12 1_555 1_555
C13 C7 1_555 1_555
H12 C13 1_555 1_555
C14 C1 1_555 1_555
C15 H13 1_555 1_555
H14 C15 1_555 1_555
H15 C15 1_555 1_555
C16 H16 1_555 1_555
H17 C16 1_555 1_555
H18 C16 1_555 1_555
C17 O1 1_555 1_555
C18 C20 1_555 1_555
C19 C8 1_555 1_555
H19 C19 1_555 1_555
H20 C19 1_555 1_555
C20 H21 1_555 1_555
C21 C12 1_555 1_555
H22 C21 1_555 1_555
H23 C21 1_555 1_555
C22 C20 1_555 1_555
H24 C22 1_555 1_555
C23 C18 1_555 1_555
H25 C23 1_555 1_555
C24 N3 1_555 1_555
C25 C17 1_555 1_555
H26 C25 1_555 1_555
H27 C25 1_555 1_555
H28 C25 1_555 1_555
C26 C11 1_555 1_555
H29 C26 1_555 1_555
H30 C26 1_555 1_555
C27 C23 1_555 1_555
H31 C27 1_555 1_555
C28 C4 1_555 1_555
H32 C28 1_555 1_555
H33 C28 1_555 1_555
C2 C14 1_555 1_555
C3 C14 1_555 1_555
C4 C10 1_555 1_555
C5 C8 1_555 1_555
C9 C13 1_555 1_555
C15 C17 1_555 1_555
C16 C17 1_555 1_555
C19 C21 1_555 1_555
C22 C24 1_555 1_555
C24 C27 1_555 1_555
C26 C28 1_555 1_555

#END
