
#######################################################################
#
#                 Cambridge Crystallographic Data Centre
#                                CCDC 
#
#######################################################################
#
# If this CIF has been generated from an entry in the Cambridge 
# Structural Database, then it will include bibliographic, chemical, 
# crystal, experimental, refinement or atomic coordinate data resulting 
# from the CCDC's data processing and validation procedures.
#
#######################################################################

data_SEQNEK
_chemical_formula_moiety         'C24 H51 N4 O6 3+,3(C6 H2 N3 O7 1-),4(H2 O1)'
_chemical_name_systematic        
'4,10,16,22,27,32-hexaoxa-19-aza-1,7,13-triazoniatricyclo[11.11.5.5^7,19^]tetratriacontane tris(2,4,6-trinitrophenolate) tetrahydrate'
_symmetry_cell_setting           monoclinic
_symmetry_space_group_name_H-M   'P 21'
_symmetry_Int_Tables_number      4
_space_group_name_Hall           'P 2yb'
loop_
_symmetry_equiv_pos_site_id
_symmetry_equiv_pos_as_xyz
1 x,y,z
2 -x,1/2+y,-z
_cell_length_a                   11.2056(1)
_cell_length_b                   18.2549(3)
_cell_length_c                   13.5245(2)
_cell_angle_alpha                90
_cell_angle_beta                 91.243(1)
_cell_angle_gamma                90
_cell_volume                     2765.88
_exptl_crystal_colour            colorless
_exptl_crystal_description       block
_cell_formula_units_Z            2
loop_
_atom_site_label
_atom_site_type_symbol
_atom_site_fract_x
_atom_site_fract_y
_atom_site_fract_z
O1 O 0.4830(2) 0.37742(14) 0.91404(18)
O2 O 0.5319(2) 0.60527(14) 0.89269(18)
O3 O 0.5435(2) 0.62588(14) 0.58630(17)
O4 O 0.4324(2) 0.35830(14) 0.55672(18)
O5 O 0.7200(2) 0.42719(15) 0.71316(17)
O6 O 0.2223(2) 0.50441(14) 0.75322(19)
N1 N 0.3108(2) 0.36362(17) 0.7546(2)
N2 N 0.6608(3) 0.47783(17) 0.9172(2)
N3 N 0.3652(3) 0.63060(17) 0.7422(2)
N4 N 0.5934(2) 0.48020(17) 0.5209(2)
C1 C 0.3836(3) 0.3018(2) 0.7927(3)
H1 H 0.4550 0.2969 0.7513
H2 H 0.3365 0.2561 0.7851
C2 C 0.4243(3) 0.3088(2) 0.9001(3)
H3 H 0.3546 0.3056 0.9436
H4 H 0.4797 0.2683 0.9175
C3 C 0.5449(3) 0.3824(2) 1.0072(3)
H5 H 0.6079 0.3445 1.0123
H6 H 0.4889 0.3753 1.0620
C4 C 0.5993(3) 0.4579(2) 1.0121(3)
H7 H 0.6580 0.4599 1.0678
H8 H 0.5360 0.4942 1.0250
C5 C 0.7199(3) 0.5523(2) 0.9244(3)
H9 H 0.7875 0.5497 0.9726
H10 H 0.7525 0.5653 0.8592
C6 C 0.6354(3) 0.6113(2) 0.9557(3)
H11 H 0.6139 0.6045 1.0257
H12 H 0.6726 0.6601 0.9485
C7 C 0.4436(3) 0.6591(2) 0.9133(3)
H13 H 0.4737 0.7087 0.8978
H14 H 0.4229 0.6575 0.9841
C8 C 0.3357(3) 0.6414(2) 0.8494(2)
H15 H 0.2771 0.6817 0.8546
H16 H 0.2980 0.5962 0.8745
C9 C 0.4359(3) 0.6947(2) 0.7038(3)
H17 H 0.3891 0.7401 0.7131
H18 H 0.5105 0.6994 0.7438
C10 C 0.4672(3) 0.6885(2) 0.5964(3)
H19 H 0.3939 0.6823 0.5550
H20 H 0.5089 0.7333 0.5746
C11 C 0.5732(3) 0.6142(2) 0.4848(2)
H21 H 0.6148 0.6576 0.4586
H22 H 0.4998 0.6059 0.4443
C12 C 0.6528(3) 0.5482(2) 0.4809(3)
H23 H 0.7269 0.5581 0.5199
H24 H 0.6753 0.5394 0.4115
C13 C 0.4943(3) 0.4547(2) 0.4507(3)
H25 H 0.4649 0.4970 0.4113
H26 H 0.5268 0.4182 0.4043
C14 C 0.3920(3) 0.4213(2) 0.5043(3)
H27 H 0.3590 0.4573 0.5511
H28 H 0.3280 0.4074 0.4563
C15 C 0.3377(3) 0.3108(2) 0.5839(3)
H29 H 0.3726 0.2652 0.6115
H30 H 0.2911 0.2975 0.5235
C16 C 0.2529(3) 0.3426(2) 0.6589(3)
H31 H 0.2139 0.3865 0.6296
H32 H 0.1897 0.3062 0.6718
C17 C 0.7483(3) 0.4191(2) 0.8885(3)
H33 H 0.8108 0.4154 0.9411
H34 H 0.7058 0.3716 0.8855
C18 C 0.8078(3) 0.4316(2) 0.7912(2)
H35 H 0.8462 0.4805 0.7910
H36 H 0.8703 0.3941 0.7815
C19 C 0.7751(3) 0.4325(2) 0.6191(2)
H37 H 0.8399 0.3958 0.6148
H38 H 0.8104 0.4818 0.6113
C20 C 0.6832(3) 0.4191(2) 0.5374(3)
H39 H 0.6392 0.3736 0.5528
H40 H 0.7256 0.4108 0.4749
C21 C 0.2174(3) 0.3857(2) 0.8242(3)
H41 H 0.2557 0.3999 0.8880
H42 H 0.1647 0.3433 0.8366
C22 C 0.1429(3) 0.4486(2) 0.7861(3)
H43 H 0.0904 0.4321 0.7306
H44 H 0.0921 0.4678 0.8392
C23 C 0.1624(3) 0.5696(2) 0.7248(3)
H45 H 0.1278 0.5936 0.7833
H46 H 0.0969 0.5585 0.6768
C24 C 0.2536(3) 0.6192(2) 0.6784(3)
H47 H 0.2163 0.6674 0.6648
H48 H 0.2769 0.5979 0.6143
H49 H 0.408(3) 0.5862(16) 0.736(3)
H50 H 0.594(3) 0.482(2) 0.868(2)
H51 H 0.559(3) 0.493(2) 0.583(2)
O7 O 0.6758(2) 0.56164(16) 0.1990(2)
H52 H 0.6043 0.5711 0.2142
H53 H 0.7228 0.5912 0.2289
O8 O 0.7144(3) 0.42949(17) 0.29909(19)
H54 H 0.7163 0.4692 0.2663
H55 H 0.7246 0.3935 0.2604
O9 O 0.7725(3) 0.62605(19) 0.7055(2)
H56 H 0.7036 0.6295 0.6751
H57 H 0.8277 0.6436 0.6679
O10 O 0.2730(2) 0.56175(15) 0.41020(18)
O11 O 0.1115(2) 0.48159(16) 0.51702(18)
O12 O -0.0604(2) 0.52077(15) 0.46256(19)
O13 O -0.1234(2) 0.45408(16) 0.11340(19)
O14 O 0.0193(3) 0.47458(17) 0.01190(18)
O15 O 0.3900(3) 0.5604(2) 0.1193(2)
O16 O 0.4365(2) 0.5812(2) 0.2718(2)
N5 N 0.0445(3) 0.50365(16) 0.4506(2)
N6 N -0.0200(3) 0.47260(17) 0.0961(2)
N7 N 0.3649(3) 0.56017(19) 0.2079(2)
C25 C 0.2127(3) 0.5373(2) 0.3403(3)
C26 C 0.0910(3) 0.5090(2) 0.3503(2)
C27 C 0.0146(3) 0.48978(19) 0.2750(2)
H58 H -0.0652 0.4754 0.2874
C28 C 0.0575(3) 0.4919(2) 0.1789(3)
C29 C 0.1729(3) 0.5141(2) 0.1598(3)
H59 H 0.2005 0.5142 0.0938
C30 C 0.2476(3) 0.5357(2) 0.2363(3)
O17 O 0.7814(2) 0.30158(15) 0.19837(17)
O18 O 0.8170(2) 0.25465(16) 0.01282(19)
O19 O 0.9695(2) 0.31101(15) -0.04732(17)
O20 O 1.3341(2) 0.28762(17) 0.1479(2)
O21 O 1.3269(2) 0.30716(19) 0.3061(2)
O22 O 0.9544(2) 0.34606(16) 0.45851(19)
O23 O 0.7990(2) 0.29003(14) 0.39740(17)
N8 N 0.9148(3) 0.28476(17) 0.0225(2)
N9 N 1.2780(3) 0.29788(19) 0.2244(2)
N10 N 0.9002(3) 0.31506(16) 0.3901(2)
C31 C 0.8922(3) 0.2983(2) 0.2054(2)
C32 C 0.9700(3) 0.2901(2) 0.1208(2)
C33 C 1.0921(3) 0.2905(2) 0.1256(2)
H60 H 1.1373 0.2852 0.0674
C34 C 1.1487(3) 0.2987(2) 0.2173(3)
C35 C 1.0843(3) 0.3072(2) 0.3025(3)
H61 H 1.1244 0.3134 0.3646
C36 C 0.9621(3) 0.3066(2) 0.2965(2)
O24 O 0.8200(2) 0.64987(15) 0.31110(18)
O25 O 0.8249(2) 0.69169(18) 0.1130(2)
O26 O 0.9833(2) 0.64110(16) 0.05474(19)
O27 O 1.3410(2) 0.73718(19) 0.2128(2)
O28 O 1.3527(2) 0.74589(16) 0.37320(19)
O29 O 1.0188(2) 0.66536(14) 0.56257(18)
O30 O 0.8427(2) 0.68930(16) 0.50290(19)
N11 N 0.9280(3) 0.66983(17) 0.1221(2)
N12 N 1.2963(3) 0.73351(18) 0.2953(2)
N13 N 0.9503(3) 0.68010(16) 0.4923(2)
C37 C 0.9246(3) 0.67144(19) 0.3081(3)
C38 C 0.9907(3) 0.68032(19) 0.2171(2)
C39 C 1.1091(3) 0.6990(2) 0.2129(3)
H62 H 1.1474 0.7021 0.1511
C40 C 1.1721(3) 0.71324(19) 0.3005(3)
C41 C 1.1192(3) 0.70663(19) 0.3912(3)
H63 H 1.1638 0.7154 0.4505
C42 C 1.0003(3) 0.6870(2) 0.3943(2)
O31 O 0.4835(2) 0.47926(15) 0.72694(19)
H64 H 0.553(4) 0.450(3) 0.733(4)
H65 H 0.423(4) 0.442(3) 0.734(4)
loop_
_geom_bond_atom_site_label_1
_geom_bond_atom_site_label_2
_geom_bond_site_symmetry_1
_geom_bond_site_symmetry_2
O1 C2 1_555 1_555
O2 C6 1_555 1_555
O3 C10 1_555 1_555
O4 C14 1_555 1_555
O5 C18 1_555 1_555
O6 C22 1_555 1_555
N1 C1 1_555 1_555
N2 C4 1_555 1_555
N3 C8 1_555 1_555
N4 C12 1_555 1_555
C1 H1 1_555 1_555
H2 C1 1_555 1_555
C2 C1 1_555 1_555
H3 C2 1_555 1_555
H4 C2 1_555 1_555
C3 O1 1_555 1_555
H5 C3 1_555 1_555
H6 C3 1_555 1_555
C4 C3 1_555 1_555
H7 C4 1_555 1_555
H8 C4 1_555 1_555
C5 N2 1_555 1_555
H9 C5 1_555 1_555
H10 C5 1_555 1_555
C6 C5 1_555 1_555
H11 C6 1_555 1_555
H12 C6 1_555 1_555
C7 O2 1_555 1_555
H13 C7 1_555 1_555
H14 C7 1_555 1_555
C8 C7 1_555 1_555
H15 C8 1_555 1_555
H16 C8 1_555 1_555
C9 N3 1_555 1_555
H17 C9 1_555 1_555
H18 C9 1_555 1_555
C10 C9 1_555 1_555
H19 C10 1_555 1_555
H20 C10 1_555 1_555
C11 O3 1_555 1_555
H21 C11 1_555 1_555
H22 C11 1_555 1_555
C12 C11 1_555 1_555
H23 C12 1_555 1_555
H24 C12 1_555 1_555
C13 N4 1_555 1_555
H25 C13 1_555 1_555
H26 C13 1_555 1_555
C14 C13 1_555 1_555
H27 C14 1_555 1_555
H28 C14 1_555 1_555
C15 O4 1_555 1_555
H29 C15 1_555 1_555
H30 C15 1_555 1_555
C16 N1 1_555 1_555
H31 C16 1_555 1_555
H32 C16 1_555 1_555
C17 N2 1_555 1_555
H33 C17 1_555 1_555
H34 C17 1_555 1_555
C18 C17 1_555 1_555
H35 C18 1_555 1_555
H36 C18 1_555 1_555
C19 O5 1_555 1_555
H37 C19 1_555 1_555
H38 C19 1_555 1_555
C20 N4 1_555 1_555
H39 C20 1_555 1_555
H40 C20 1_555 1_555
C21 N1 1_555 1_555
H41 C21 1_555 1_555
H42 C21 1_555 1_555
C22 C21 1_555 1_555
H43 C22 1_555 1_555
H44 C22 1_555 1_555
C23 O6 1_555 1_555
H45 C23 1_555 1_555
H46 C23 1_555 1_555
C24 N3 1_555 1_555
H47 C24 1_555 1_555
H48 C24 1_555 1_555
H49 N3 1_555 1_555
H50 N2 1_555 1_555
H51 N4 1_555 1_555
O7 H52 1_555 1_555
H53 O7 1_555 1_555
O8 H54 1_555 1_555
H55 O8 1_555 1_555
O9 H56 1_555 1_555
H57 O9 1_555 1_555
O10 C25 1_555 1_555
O11 N5 1_555 1_555
O12 N5 1_555 1_555
O13 N6 1_555 1_555
O14 N6 1_555 1_555
O15 N7 1_555 1_555
O16 N7 1_555 1_555
N5 C26 1_555 1_555
N6 C28 1_555 1_555
N7 C30 1_555 1_555
C25 C26 1_555 1_555
C26 C27 1_555 1_555
C27 H58 1_555 1_555
C28 C27 1_555 1_555
C29 C28 1_555 1_555
H59 C29 1_555 1_555
C30 C25 1_555 1_555
O17 C31 1_555 1_555
O18 N8 1_555 1_555
O19 N8 1_555 1_555
O20 N9 1_555 1_555
O21 N9 1_555 1_555
O22 N10 1_555 1_555
O23 N10 1_555 1_555
N8 C32 1_555 1_555
N9 C34 1_555 1_555
N10 C36 1_555 1_555
C31 C32 1_555 1_555
C32 C33 1_555 1_555
C33 H60 1_555 1_555
C34 C33 1_555 1_555
C35 C34 1_555 1_555
H61 C35 1_555 1_555
C36 C31 1_555 1_555
O24 C37 1_555 1_555
O25 N11 1_555 1_555
O26 N11 1_555 1_555
O27 N12 1_555 1_555
O28 N12 1_555 1_555
O29 N13 1_555 1_555
O30 N13 1_555 1_555
N11 C38 1_555 1_555
N12 C40 1_555 1_555
N13 C42 1_555 1_555
C37 C38 1_555 1_555
C38 C39 1_555 1_555
C39 H62 1_555 1_555
C40 C39 1_555 1_555
C41 C40 1_555 1_555
H63 C41 1_555 1_555
C42 C37 1_555 1_555
O31 H64 1_555 1_555
H65 O31 1_555 1_555
C15 C16 1_555 1_555
C19 C20 1_555 1_555
C23 C24 1_555 1_555
C29 C30 1_555 1_555
C35 C36 1_555 1_555
C41 C42 1_555 1_555

#END
