
#######################################################################
#
#                 Cambridge Crystallographic Data Centre
#                                CCDC 
#
#######################################################################
#
# If this CIF has been generated from an entry in the Cambridge 
# Structural Database, then it will include bibliographic, chemical, 
# crystal, experimental, refinement or atomic coordinate data resulting 
# from the CCDC's data processing and validation procedures.
#
#######################################################################

data_SEQWER
_chemical_formula_moiety         'C14 H14 Br1 N1'
_chemical_name_systematic        (R)-(-)-N-Phenyl-1-(4-bromophenyl)ethylamine
_symmetry_cell_setting           orthorhombic
_symmetry_space_group_name_H-M   'P 21 21 21'
_symmetry_Int_Tables_number      19
_space_group_name_Hall           'P 2ac 2ab'
loop_
_symmetry_equiv_pos_site_id
_symmetry_equiv_pos_as_xyz
1 x,y,z
2 1/2-x,-y,1/2+z
3 1/2+x,1/2-y,-z
4 -x,1/2+y,1/2-z
_cell_length_a                   9.708(5)
_cell_length_b                   13.803(8)
_cell_length_c                   18.973(10)
_cell_angle_alpha                90
_cell_angle_beta                 90
_cell_angle_gamma                90
_cell_volume                     2542.37
_chemical_melting_point          '93-95 deg.C'
_cell_formula_units_Z            8
_exptl_crystal_recrystallization_method 'acetone/petroleum ether'
loop_
_atom_site_label
_atom_site_type_symbol
_atom_site_fract_x
_atom_site_fract_y
_atom_site_fract_z
Br1 Br -0.24467(7) 0.59424(4) 1.37978(3)
N1 N -0.1162(4) 0.4001(3) 1.0490(2)
H1 H -0.0381 0.3946 1.0280
C1 C -0.3079(5) 0.5630(3) 1.1650(3)
H3 H -0.3785 0.5774 1.1336
C2 C -0.3234(5) 0.5864(4) 1.2358(3)
H4 H -0.4036 0.6164 1.2514
C3 C -0.2203(6) 0.5650(3) 1.2825(3)
C4 C -0.1022(5) 0.5199(4) 1.2599(3)
H5 H -0.0326 0.5047 1.2917
C5 C -0.0878(5) 0.4971(4) 1.1888(3)
H6 H -0.0078 0.4666 1.1735
C6 C -0.1898(5) 0.5189(3) 1.1404(3)
C7 C -0.1706(5) 0.4964(4) 1.0622(3)
H7 H -0.2608 0.5010 1.0393
C8 C -0.0738(5) 0.5717(4) 1.0273(3)
H8 H 0.0155 0.5686 1.0490
H9 H -0.1114 0.6355 1.0333
H10 H -0.0655 0.5578 0.9779
C9 C -0.1850(5) 0.3174(4) 1.0688(3)
C10 C -0.1148(6) 0.2338(4) 1.0842(3)
H11 H -0.0191 0.2342 1.0831
C11 C -0.1824(6) 0.1495(4) 1.1011(3)
H12 H -0.1323 0.0941 1.1120
C12 C -0.3234(6) 0.1469(5) 1.1019(3)
H13 H -0.3692 0.0894 1.1120
C13 C -0.3969(6) 0.2299(5) 1.0876(4)
H14 H -0.4926 0.2285 1.0885
C14 C -0.3297(5) 0.3145(4) 1.0720(3)
H15 H -0.3802 0.3705 1.0635
Br2 Br 0.21448(5) 0.65438(5) 0.90471(3)
N2 N 0.8335(4) 0.8441(3) 0.7920(2)
H2 H 0.8579 0.8459 0.7484
C15 C 0.4278(6) 0.7293(4) 0.8184(3)
H16 H 0.3563 0.7468 0.7884
C16 C 0.4011(5) 0.6822(3) 0.8794(3)
C17 C 0.5051(5) 0.6556(4) 0.9246(3)
H17 H 0.4858 0.6230 0.9664
C18 C 0.6377(5) 0.6784(4) 0.9068(3)
H18 H 0.7086 0.6604 0.9371
C19 C 0.6701(5) 0.7274(3) 0.8450(3)
C20 C 0.5626(6) 0.7514(4) 0.8014(3)
H19 H 0.5810 0.7833 0.7592
C21 C 0.8175(5) 0.7513(4) 0.8258(3)
H20 H 0.8721 0.7517 0.8692
C22 C 0.8764(5) 0.6728(4) 0.7771(4)
H21 H 0.8213 0.6687 0.7351
H22 H 0.8754 0.6115 0.8010
H23 H 0.9694 0.6892 0.7646
C23 C 0.8110(5) 0.9302(4) 0.8270(3)
C24 C 0.8078(5) 1.0178(4) 0.7902(3)
H24 H 0.8164 1.0178 0.7414
C25 C 0.7921(6) 1.1046(4) 0.8256(4)
H25 H 0.7889 1.1621 0.8001
C26 C 0.7811(6) 1.1073(4) 0.8967(4)
H26 H 0.7723 1.1662 0.9200
C27 C 0.7833(6) 1.0228(4) 0.9339(3)
H27 H 0.7753 1.0245 0.9827
C28 C 0.7969(5) 0.9354(4) 0.9003(3)
H28 H 0.7969 0.8787 0.9267
loop_
_geom_bond_atom_site_label_1
_geom_bond_atom_site_label_2
_geom_bond_site_symmetry_1
_geom_bond_site_symmetry_2
Br1 C3 1_555 1_555
Br2 C16 1_555 1_555
N1 H1 1_555 1_555
N2 H2 1_555 1_555
C1 H3 1_555 1_555
C2 C1 1_555 1_555
H4 C2 1_555 1_555
C3 C2 1_555 1_555
C4 C3 1_555 1_555
H5 C4 1_555 1_555
C5 C4 1_555 1_555
H6 C5 1_555 1_555
C6 C1 1_555 1_555
C7 N1 1_555 1_555
H7 C7 1_555 1_555
C8 C7 1_555 1_555
H8 C8 1_555 1_555
H9 C8 1_555 1_555
H10 C8 1_555 1_555
C9 N1 1_555 1_555
C10 C9 1_555 1_555
H11 C10 1_555 1_555
C11 C10 1_555 1_555
H12 C11 1_555 1_555
C12 C11 1_555 1_555
H13 C12 1_555 1_555
C13 C12 1_555 1_555
H14 C13 1_555 1_555
C14 C9 1_555 1_555
H15 C14 1_555 1_555
C15 H16 1_555 1_555
C16 C15 1_555 1_555
C17 C16 1_555 1_555
H17 C17 1_555 1_555
C18 C17 1_555 1_555
H18 C18 1_555 1_555
C19 C18 1_555 1_555
C20 C15 1_555 1_555
H19 C20 1_555 1_555
C21 N2 1_555 1_555
H20 C21 1_555 1_555
C22 C21 1_555 1_555
H21 C22 1_555 1_555
H22 C22 1_555 1_555
H23 C22 1_555 1_555
C23 N2 1_555 1_555
C24 C23 1_555 1_555
H24 C24 1_555 1_555
C25 C24 1_555 1_555
H25 C25 1_555 1_555
C26 C25 1_555 1_555
H26 C26 1_555 1_555
C27 C26 1_555 1_555
H27 C27 1_555 1_555
C28 C23 1_555 1_555
H28 C28 1_555 1_555
C5 C6 1_555 1_555
C6 C7 1_555 1_555
C13 C14 1_555 1_555
C19 C20 1_555 1_555
C19 C21 1_555 1_555
C27 C28 1_555 1_555

#END
