
#######################################################################
#
#                 Cambridge Crystallographic Data Centre
#                                CCDC 
#
#######################################################################
#
# If this CIF has been generated from an entry in the Cambridge 
# Structural Database, then it will include bibliographic, chemical, 
# crystal, experimental, refinement or atomic coordinate data resulting 
# from the CCDC's data processing and validation procedures.
#
#######################################################################

data_SEQZUK
_chemical_compound_source        'seed fungus Menisporopsis theobromae BCC 3975'
_chemical_formula_moiety         'C18 H14 N2 O4,C1 H4 O1'
_chemical_name_systematic        
5-benzyl-1-hydroxy-3-(hydroxy(phenyl)methylene)-3H-pyrazine-2,6-dione
_chemical_properties_biological  
'Antimalarial activity; cytotoxicity against BC-1 cell lines and NCI-H187 cell lines and possesses weak antimycobacterial activity'
_symmetry_cell_setting           monoclinic
_symmetry_space_group_name_H-M   'P 21/c'
_symmetry_Int_Tables_number      14
_space_group_name_Hall           '-P 2ybc'
loop_
_symmetry_equiv_pos_site_id
_symmetry_equiv_pos_as_xyz
1 x,y,z
2 -x,1/2+y,1/2-z
3 -x,-y,-z
4 x,1/2-y,1/2+z
_cell_length_a                   4.7417(11)
_cell_length_b                   17.886(9)
_cell_length_c                   20.692(5)
_cell_angle_alpha                90
_cell_angle_beta                 94.847(10)
_cell_angle_gamma                90
_cell_volume                     1748.61
_exptl_crystal_colour            yellow-orange
_exptl_crystal_description       Rod
_chemical_melting_point          '168-171 deg.C'
_cell_formula_units_Z            4
_exptl_crystal_recrystallization_method methanol
loop_
_atom_site_label
_atom_site_type_symbol
_atom_site_fract_x
_atom_site_fract_y
_atom_site_fract_z
O1 O 0.2855(5) 0.35404(13) 0.32893(10)
N1 N -0.0678(5) 0.37752(14) 0.50193(12)
O2 O -0.1116(5) 0.33796(13) 0.60496(10)
N2 N 0.3400(5) 0.26911(14) 0.48840(12)
O3 O -0.0434(5) 0.41861(13) 0.39834(10)
C1 C 0.2517(6) 0.31556(17) 0.43641(14)
C2 C 0.2296(6) 0.27562(17) 0.54363(14)
O4 O -0.2711(5) 0.43314(13) 0.50722(11)
C3 C 0.5603(6) 0.24727(17) 0.35655(14)
C4 C 0.0061(6) 0.33099(18) 0.55494(15)
C5 C 0.1137(6) 0.15925(17) 0.60707(14)
C6 C 0.0430(6) 0.37376(18) 0.44310(15)
C7 C 0.3639(6) 0.30620(18) 0.37649(14)
C8 C 0.3213(6) 0.22328(18) 0.59889(14)
C9 C 0.6617(7) 0.2531(2) 0.29513(15)
C10 C 0.6406(7) 0.1838(2) 0.39405(16)
C11 C 0.8157(8) 0.1293(2) 0.37036(17)
C12 C 0.9145(8) 0.1366(2) 0.30999(17)
C13 C 0.0325(7) 0.1398(2) 0.66771(16)
C14 C 0.0028(7) 0.1183(2) 0.55370(17)
C15 C 0.8366(8) 0.1983(2) 0.27232(17)
C17 C -0.1858(9) 0.0602(2) 0.5607(2)
C18 C -0.2657(8) 0.0414(2) 0.6207(3)
C19 C -0.1569(9) 0.0809(2) 0.6744(2)
H1 H 0.1854 0.3868 0.3427
H2 H -0.3411 0.4290 0.5525
H3 H 0.3384 0.2510 0.6387
H4 H 0.5013 0.2018 0.5914
H6 H 0.6092 0.2963 0.2693
H7 H 0.5748 0.1780 0.4364
H8 H 0.8654 0.0861 0.3965
H9 H 1.0400 0.1000 0.2941
H10 H 0.1069 0.1672 0.7053
H11 H 0.0579 0.1308 0.5114
H12 H 0.9045 0.2032 0.2302
H16 H -0.2589 0.0325 0.5233
H17 H -0.3989 0.0018 0.6253
H18 H -0.2096 0.0681 0.7168
O5 O 0.4349(6) 0.03934(15) 0.10356(12)
C16 C 0.4432(9) 0.0491(2) 0.17102(18)
H5 H 0.3371 -0.0023 0.0923
H13 H 0.5459 0.0940 0.1830
H14 H 0.5357 0.0071 0.1924
H15 H 0.2537 0.0531 0.1837
loop_
_geom_bond_atom_site_label_1
_geom_bond_atom_site_label_2
_geom_bond_site_symmetry_1
_geom_bond_site_symmetry_2
O1 C7 1_555 1_555
N1 O4 1_555 1_555
O2 C4 1_555 1_555
N2 C1 1_555 1_555
O3 C6 1_555 1_555
C1 C6 1_555 1_555
C2 N2 1_555 1_555
O4 H2 1_555 1_555
C3 C7 1_555 1_555
C4 N1 1_555 1_555
C5 C8 1_555 1_555
C6 N1 1_555 1_555
C7 C1 1_555 1_555
C8 C2 1_555 1_555
O5 C16 1_555 1_555
C9 C3 1_555 1_555
C10 C3 1_555 1_555
C11 C10 1_555 1_555
C12 C11 1_555 1_555
C13 C5 1_555 1_555
C14 C5 1_555 1_555
C15 C9 1_555 1_555
C16 H13 1_555 1_555
C17 C14 1_555 1_555
C18 C17 1_555 1_555
C19 C13 1_555 1_555
H1 O1 1_555 1_555
H3 C8 1_555 1_555
H4 C8 1_555 1_555
H5 O5 1_555 1_555
H6 C9 1_555 1_555
H7 C10 1_555 1_555
H8 C11 1_555 1_555
H9 C12 1_555 1_555
H10 C13 1_555 1_555
H11 C14 1_555 1_555
H12 C15 1_555 1_555
H14 C16 1_555 1_555
H15 C16 1_555 1_555
H16 C17 1_555 1_555
H17 C18 1_555 1_555
H18 C19 1_555 1_555
C2 C4 1_555 1_555
C12 C15 1_555 1_555
C18 C19 1_555 1_555

#END
