
#######################################################################
#
#                 Cambridge Crystallographic Data Centre
#                                CCDC 
#
#######################################################################
#
# If this CIF has been generated from an entry in the Cambridge 
# Structural Database, then it will include bibliographic, chemical, 
# crystal, experimental, refinement or atomic coordinate data resulting 
# from the CCDC's data processing and validation procedures.
#
#######################################################################

data_SERCID
_chemical_formula_moiety         'C20 H10 O8 S2,4(C5 H9 N1 O1)'
_chemical_name_systematic        
'Benzo[b][1]benzothieno[2,3-f][1]benzothiophene-3,9-dicarboxylic acid 5,5,11,11-tetraoxide 1-methylpyrrolidin-2-one solvate'
_symmetry_cell_setting           monoclinic
_symmetry_space_group_name_H-M   'C 2/c'
_symmetry_Int_Tables_number      15
_space_group_name_Hall           '-C 2yn'
loop_
_symmetry_equiv_pos_site_id
_symmetry_equiv_pos_as_xyz
1 x,y,z
2 -x,y,1/2-z
3 1/2+x,1/2+y,z
4 1/2-x,1/2+y,1/2-z
5 -x,-y,-z
6 x,-y,1/2+z
7 1/2-x,1/2-y,-z
8 1/2+x,1/2-y,1/2+z
_cell_length_a                   24.047(3)
_cell_length_b                   5.8126(4)
_cell_length_c                   28.807(3)
_cell_angle_alpha                90
_cell_angle_beta                 99.244(9)
_cell_angle_gamma                90
_cell_volume                     3974.22
_cell_formula_units_Z            4
loop_
_atom_site_label
_atom_site_type_symbol
_atom_site_fract_x
_atom_site_fract_y
_atom_site_fract_z
S1 S 0.14827(7) 0.5871(3) -0.01400(6)
O1 O 0.0970(2) 0.4680(9) -0.00894(19)
O2 O 0.1757(3) 1.2279(11) 0.1687(2)
O3 O 0.1155(2) 1.2834(9) 0.10278(18)
H1 H 0.1060 1.3938 0.1174
O4 O 0.1467(2) 0.7384(9) -0.05337(17)
C1 C 0.2118(3) 0.2234(11) -0.0426(2)
H2 H 0.1864 0.2091 -0.0705
C2 C 0.1572(3) 1.1784(13) 0.1283(3)
C3 C 0.2251(3) 0.6103(12) 0.0613(2)
C4 C 0.2047(3) 0.3861(11) -0.0101(2)
C5 C 0.1765(3) 0.7244(11) 0.0395(2)
C6 C 0.2417(3) 0.4207(11) 0.0327(2)
C7 C 0.1538(3) 0.9130(12) 0.0593(2)
H3 H 0.1223 0.9892 0.0436
C8 C 0.1804(3) 0.9837(11) 0.1038(2)
C9 C 0.2508(3) 0.6839(12) 0.1052(2)
H4 H 0.2828 0.6099 0.1207
C10 C 0.2283(3) 0.8671(12) 0.1255(2)
H5 H 0.2457 0.9161 0.1551
S1F S 0.35173(7) -0.0871(3) 0.01400(6)
O1F O 0.4030(2) 0.0320(9) 0.00894(19)
O2F O 0.3243(3) -0.7279(11) -0.1687(2)
O3F O 0.3845(2) -0.7834(9) -0.10278(18)
H1F H 0.3940 -0.8938 -0.1174
O4F O 0.3533(2) -0.2384(9) 0.05337(17)
C1F C 0.2882(3) 0.2766(11) 0.0426(2)
H2F H 0.3136 0.2909 0.0705
C2F C 0.3428(3) -0.6784(13) -0.1283(3)
C3F C 0.2749(3) -0.1103(12) -0.0613(2)
C4F C 0.2953(3) 0.1139(11) 0.0101(2)
C5F C 0.3235(3) -0.2244(11) -0.0395(2)
C6F C 0.2583(3) 0.0793(11) -0.0327(2)
C7F C 0.3462(3) -0.4130(12) -0.0593(2)
H3F H 0.3777 -0.4892 -0.0436
C8F C 0.3196(3) -0.4837(11) -0.1038(2)
C9F C 0.2492(3) -0.1839(12) -0.1052(2)
H4F H 0.2172 -0.1099 -0.1207
C10F C 0.2717(3) -0.3671(12) -0.1255(2)
H5F H 0.2543 -0.4161 -0.1551
O5 O 0.1401(3) 0.8867(11) 0.3473(2)
N1 N 0.1516(4) 0.6786(15) 0.2822(3)
C11 C 0.0953(4) 0.5096(16) 0.3292(3)
H6 H 0.1142 0.4144 0.3546
H7 H 0.0591 0.5574 0.3366
C12 C 0.1316(4) 0.7188(18) 0.3211(3)
C13 C 0.1927(5) 0.833(2) 0.2682(4)
H8 H 0.2032 0.7798 0.2393
H9 H 0.2254 0.8363 0.2922
H10 H 0.1770 0.9843 0.2639
C14 C 0.1387(5) 0.4678(16) 0.2596(3)
H11 H 0.1703 0.3621 0.2652
H12 H 0.1273 0.4876 0.2259
C15 C 0.0887(6) 0.385(2) 0.2838(5)
H13 H 0.0529 0.4226 0.2647
H14 H 0.0905 0.2202 0.2890
O6 O 0.0320(6) 0.9973(18) 0.1899(3)
N2 N 0.0382(3) 0.7469(14) 0.1227(2)
C16 C -0.0211(4) 1.0648(14) 0.1083(3)
H15 H -0.0129 1.2282 0.1105
H16 H -0.0594 1.0389 0.1136
C17 C 0.0189(3) 0.9344(10) 0.1410(2)
C18 C 0.0135(3) 0.7279(14) 0.0719(3)
H17 H -0.0153 0.6096 0.0668
H18 H 0.0424 0.6935 0.0529
C19 C 0.0708(3) 0.6082(10) 0.1461(2)
H19 H 0.0795 0.4861 0.1260
H20 H 0.0531 0.5454 0.1709
H21 H 0.1048 0.6860 0.1594
C20 C -0.0118(4) 0.9672(15) 0.0604(3)
H22 H -0.0472 0.9563 0.0390
H23 H 0.0139 1.0635 0.0463
loop_
_geom_bond_atom_site_label_1
_geom_bond_atom_site_label_2
_geom_bond_site_symmetry_1
_geom_bond_site_symmetry_2
S1 O1 1_555 1_555
O2 C2 1_555 1_555
O3 H1 1_555 1_555
O4 S1 1_555 1_555
C1 H2 1_555 1_555
C2 O3 1_555 1_555
C3 C5 1_555 1_555
C4 S1 1_555 1_555
C5 S1 1_555 1_555
C6 C3 1_555 1_555
C7 C5 1_555 1_555
H3 C7 1_555 1_555
C8 C2 1_555 1_555
C9 C3 1_555 1_555
H4 C9 1_555 1_555
C10 C8 1_555 1_555
H5 C10 1_555 1_555
O5 C12 1_555 1_555
N1 C12 1_555 1_555
C11 H6 1_555 1_555
H7 C11 1_555 1_555
C12 C11 1_555 1_555
C13 N1 1_555 1_555
H8 C13 1_555 1_555
H9 C13 1_555 1_555
H10 C13 1_555 1_555
C14 N1 1_555 1_555
H11 C14 1_555 1_555
H12 C14 1_555 1_555
C15 C11 1_555 1_555
H13 C15 1_555 1_555
H14 C15 1_555 1_555
O6 C17 1_555 1_555
N2 C17 1_555 1_555
C16 H15 1_555 1_555
H16 C16 1_555 1_555
C17 C16 1_555 1_555
C18 N2 1_555 1_555
H17 C18 1_555 1_555
H18 C18 1_555 1_555
C19 N2 1_555 1_555
H19 C19 1_555 1_555
H20 C19 1_555 1_555
H21 C19 1_555 1_555
C20 C16 1_555 1_555
H22 C20 1_555 1_555
H23 C20 1_555 1_555
S1F O1F 1_555 1_555
O2F C2F 1_555 1_555
O3F H1F 1_555 1_555
O4F S1F 1_555 1_555
C1F C6 1_555 1_555
H2F C1F 1_555 1_555
C2F O3F 1_555 1_555
C3F C5F 1_555 1_555
C4F S1F 1_555 1_555
C5F S1F 1_555 1_555
C6F C1 1_555 1_555
C7F C5F 1_555 1_555
H3F C7F 1_555 1_555
C8F C2F 1_555 1_555
C9F C3F 1_555 1_555
H4F C9F 1_555 1_555
C10F C8F 1_555 1_555
H5F C10F 1_555 1_555
C1 C4 1_555 1_555
C4 C6 1_555 1_555
C7 C8 1_555 1_555
C9 C10 1_555 1_555
C14 C15 1_555 1_555
C18 C20 1_555 1_555
C1F C4F 1_555 1_555
C3F C6F 1_555 1_555
C4F C6F 1_555 1_555
C7F C8F 1_555 1_555
C9F C10F 1_555 1_555

#END
