
#######################################################################
#
#                 Cambridge Crystallographic Data Centre
#                                CCDC 
#
#######################################################################
#
# If this CIF has been generated from an entry in the Cambridge 
# Structural Database, then it will include bibliographic, chemical, 
# crystal, experimental, refinement or atomic coordinate data resulting 
# from the CCDC's data processing and validation procedures.
#
#######################################################################

data_SERKAD
_chemical_formula_moiety         'C19 H16 Cl1 N1 O2 S1'
_chemical_name_systematic        
N-(5-Chlorobiphenyl-2-yl)-4-methylbenzenesulfonamide
_symmetry_cell_setting           triclinic
_symmetry_space_group_name_H-M   'P -1'
_symmetry_Int_Tables_number      2
_space_group_name_Hall           '-P 1'
loop_
_symmetry_equiv_pos_site_id
_symmetry_equiv_pos_as_xyz
1 x,y,z
2 -x,-y,-z
_cell_length_a                   7.9393(8)
_cell_length_b                   10.7979(10)
_cell_length_c                   11.2346(12)
_cell_angle_alpha                70.335(3)
_cell_angle_beta                 83.839(4)
_cell_angle_gamma                74.031(3)
_cell_volume                     871.831
_exptl_crystal_colour            colorless
_exptl_crystal_description       block
_cell_formula_units_Z            2
loop_
_atom_site_label
_atom_site_type_symbol
_atom_site_fract_x
_atom_site_fract_y
_atom_site_fract_z
Cl1 Cl -0.10579(10) 0.77658(6) 0.77480(7)
S1 S 0.58805(8) 0.20077(7) 0.90219(6)
O1 O 0.6491(2) 0.3101(2) 0.9101(2)
O2 O 0.6678(3) 0.0631(2) 0.97548(19)
N1 N 0.3817(2) 0.2260(2) 0.94451(18)
H1 H 0.3437 0.1589 0.9943
C1 C 0.5901(5) 0.2369(4) 0.3540(3)
H2 H 0.5845 0.3288 0.3015
H3 H 0.4877 0.2121 0.3417
H4 H 0.6928 0.1768 0.3318
C2 C 0.5988(4) 0.2259(3) 0.4911(3)
C3 C 0.6266(4) 0.3301(3) 0.5237(3)
H5 H 0.6459 0.4068 0.4603
C4 C 0.6266(4) 0.3236(3) 0.6489(3)
H6 H 0.6459 0.3951 0.6694
C5 C 0.5978(3) 0.2100(2) 0.7428(2)
C6 C 0.2625(3) 0.3576(2) 0.9004(2)
C7 C 0.1351(3) 0.3878(2) 0.8105(2)
C8 C 0.1156(3) 0.2875(2) 0.7525(2)
C9 C 0.0788(3) 0.1656(2) 0.8257(2)
H7 H 0.0674 0.1451 0.9130
C10 C 0.0589(4) 0.0745(3) 0.7701(3)
H8 H 0.0358 -0.0074 0.8201
C11 C 0.0732(4) 0.1043(3) 0.6417(3)
H9 H 0.0598 0.0428 0.6044
C12 C 0.5755(4) 0.1120(3) 0.5876(3)
H10 H 0.5604 0.0391 0.5673
C13 C 0.5737(4) 0.1030(3) 0.7121(3)
H11 H 0.5565 0.0255 0.7752
C14 C 0.2739(3) 0.4571(3) 0.9495(2)
H12 H 0.3581 0.4364 1.0095
C15 C 0.1634(3) 0.5856(3) 0.9110(2)
H13 H 0.1730 0.6516 0.9441
C16 C 0.0384(3) 0.6150(2) 0.8228(2)
C17 C 0.0230(3) 0.5179(2) 0.7732(2)
H14 H -0.0631 0.5396 0.7143
C18 C 0.1290(4) 0.3171(3) 0.6223(2)
H15 H 0.1524 0.3987 0.5716
C19 C 0.1073(4) 0.2252(3) 0.5680(3)
H16 H 0.1159 0.2455 0.4807
loop_
_geom_bond_atom_site_label_1
_geom_bond_atom_site_label_2
_geom_bond_site_symmetry_1
_geom_bond_site_symmetry_2
Cl1 C16 1_555 1_555
S1 O1 1_555 1_555
O2 S1 1_555 1_555
N1 S1 1_555 1_555
H1 N1 1_555 1_555
C1 H2 1_555 1_555
H3 C1 1_555 1_555
H4 C1 1_555 1_555
C2 C1 1_555 1_555
C3 C2 1_555 1_555
H5 C3 1_555 1_555
C4 C3 1_555 1_555
H6 C4 1_555 1_555
C5 S1 1_555 1_555
C6 N1 1_555 1_555
C7 C6 1_555 1_555
C8 C7 1_555 1_555
C9 C8 1_555 1_555
H7 C9 1_555 1_555
C10 C9 1_555 1_555
H8 C10 1_555 1_555
C11 C10 1_555 1_555
H9 C11 1_555 1_555
C12 C2 1_555 1_555
H10 C12 1_555 1_555
C13 C5 1_555 1_555
H11 C13 1_555 1_555
C14 C6 1_555 1_555
H12 C14 1_555 1_555
C15 C14 1_555 1_555
H13 C15 1_555 1_555
C16 C15 1_555 1_555
C17 C7 1_555 1_555
H14 C17 1_555 1_555
C18 C8 1_555 1_555
H15 C18 1_555 1_555
C19 C11 1_555 1_555
H16 C19 1_555 1_555
C4 C5 1_555 1_555
C12 C13 1_555 1_555
C16 C17 1_555 1_555
C18 C19 1_555 1_555

#END
