
#######################################################################
#
#                 Cambridge Crystallographic Data Centre
#                                CCDC 
#
#######################################################################
#
# If this CIF has been generated from an entry in the Cambridge 
# Structural Database, then it will include bibliographic, chemical, 
# crystal, experimental, refinement or atomic coordinate data resulting 
# from the CCDC's data processing and validation procedures.
#
#######################################################################

data_SERLEJ
_chemical_formula_moiety         'C11 H7 N7'
_chemical_name_systematic        3,3'-(pyridine-2,6-diyl)bis(1,2,4-triazine)
_symmetry_cell_setting           monoclinic
_symmetry_space_group_name_H-M   'C 2/c'
_symmetry_Int_Tables_number      15
_space_group_name_Hall           '-C 2yn'
loop_
_symmetry_equiv_pos_site_id
_symmetry_equiv_pos_as_xyz
1 x,y,z
2 -x,y,1/2-z
3 1/2+x,1/2+y,z
4 1/2-x,1/2+y,1/2-z
5 -x,-y,-z
6 x,-y,1/2+z
7 1/2-x,1/2-y,-z
8 1/2+x,1/2-y,1/2+z
_cell_length_a                   21.6146(17)
_cell_length_b                   3.7616(3)
_cell_length_c                   24.846(2)
_cell_angle_alpha                90
_cell_angle_beta                 98.754(6)
_cell_angle_gamma                90
_cell_volume                     1996.58
_exptl_crystal_colour            yellow
_exptl_crystal_description       plate
_cell_formula_units_Z            8
loop_
_atom_site_label
_atom_site_type_symbol
_atom_site_fract_x
_atom_site_fract_y
_atom_site_fract_z
N1 N 0.62251(7) 0.4738(5) 0.40806(7)
C1 C 0.58855(9) 0.4640(6) 0.35847(8)
C2 C 0.52677(9) 0.5803(6) 0.34734(9)
H1 H 0.5046 0.5753 0.3113
C3 C 0.49856(10) 0.7027(6) 0.38994(9)
H2 H 0.4562 0.7803 0.3838
C4 C 0.53257(9) 0.7107(6) 0.44136(9)
H3 H 0.5139 0.7907 0.4714
C5 C 0.59478(9) 0.6000(6) 0.44884(8)
N2 N 0.67636(8) 0.1775(5) 0.32659(7)
N3 N 0.70390(8) 0.0349(6) 0.28667(7)
C6 C 0.67365(10) 0.0416(7) 0.23636(9)
H4 H 0.6925 -0.0609 0.2079
C7 C 0.61522(10) 0.1945(7) 0.22441(9)
H5 H 0.5948 0.1987 0.1877
N4 N 0.58708(8) 0.3351(6) 0.26288(7)
C8 C 0.61948(9) 0.3174(6) 0.31355(8)
N5 N 0.60845(8) 0.7820(5) 0.54214(7)
N6 N 0.64268(9) 0.8111(6) 0.59219(7)
C9 C 0.70018(11) 0.6825(7) 0.59914(9)
H6 H 0.7254 0.7069 0.6338
C10 C 0.72519(10) 0.5131(7) 0.55769(8)
H7 H 0.7667 0.4226 0.5645
N7 N 0.69180(8) 0.4769(5) 0.50904(7)
C11 C 0.63426(9) 0.6199(6) 0.50334(8)
loop_
_geom_bond_atom_site_label_1
_geom_bond_atom_site_label_2
_geom_bond_site_symmetry_1
_geom_bond_site_symmetry_2
N1 C1 1_555 1_555
C1 C2 1_555 1_555
C2 H1 1_555 1_555
C3 C2 1_555 1_555
H2 C3 1_555 1_555
C4 C3 1_555 1_555
H3 C4 1_555 1_555
C5 N1 1_555 1_555
N2 N3 1_555 1_555
N3 C6 1_555 1_555
C6 H4 1_555 1_555
C7 C6 1_555 1_555
H5 C7 1_555 1_555
N4 C7 1_555 1_555
C8 C1 1_555 1_555
N5 N6 1_555 1_555
N6 C9 1_555 1_555
C9 H6 1_555 1_555
C10 C9 1_555 1_555
H7 C10 1_555 1_555
N7 C10 1_555 1_555
C11 C5 1_555 1_555
C4 C5 1_555 1_555
N2 C8 1_555 1_555
N4 C8 1_555 1_555
N5 C11 1_555 1_555
N7 C11 1_555 1_555

#END
