
#######################################################################
#
#                 Cambridge Crystallographic Data Centre
#                                CCDC 
#
#######################################################################
#
# If this CIF has been generated from an entry in the Cambridge 
# Structural Database, then it will include bibliographic, chemical, 
# crystal, experimental, refinement or atomic coordinate data resulting 
# from the CCDC's data processing and validation procedures.
#
#######################################################################

data_SERPUD
_chemical_formula_moiety         'C18 H16 N2 O3'
_chemical_name_systematic        
8-hydroxy-N-((4-methylbenzyl)oxy)quinoline-2-carboxamide
_symmetry_cell_setting           monoclinic
_symmetry_space_group_name_H-M   'P 21/c'
_symmetry_Int_Tables_number      14
_space_group_name_Hall           '-P 2ybc'
loop_
_symmetry_equiv_pos_site_id
_symmetry_equiv_pos_as_xyz
1 x,y,z
2 -x,1/2+y,1/2-z
3 -x,-y,-z
4 x,1/2-y,1/2+z
_cell_length_a                   13.0318(16)
_cell_length_b                   29.155(2)
_cell_length_c                   14.3926(17)
_cell_angle_alpha                90
_cell_angle_beta                 115.269(12)
_cell_angle_gamma                90
_cell_volume                     4945.11
_cell_formula_units_Z            12
loop_
_atom_site_label
_atom_site_type_symbol
_atom_site_fract_x
_atom_site_fract_y
_atom_site_fract_z
N1 N 0.3750(5) 0.14796(17) 0.7532(5)
C1 C 0.3632(6) 0.1602(2) 0.6633(6)
C2 C 0.4084(6) 0.2006(3) 0.6412(6)
H1 H 0.3989 0.2073 0.5749
C3 C 0.4660(7) 0.2289(2) 0.7209(7)
H2 H 0.4969 0.2559 0.7095
C4 C 0.4800(7) 0.2182(3) 0.8204(7)
C5 C 0.5360(7) 0.2467(2) 0.9081(8)
H3 H 0.5635 0.2754 0.9016
C6 C 0.5488(8) 0.2310(3) 1.0026(7)
H4 H 0.5884 0.2490 1.0604
C7 C 0.5044(7) 0.1893(3) 1.0146(6)
H5 H 0.5132 0.1801 1.0794
C8 C 0.4488(7) 0.1620(3) 0.9325(6)
O1 O 0.4088(5) 0.12103(16) 0.9466(3)
H6 H 0.3824 0.1068 0.8922
C9 C 0.4351(6) 0.1763(3) 0.8346(6)
C10 C 0.2952(7) 0.1306(3) 0.5732(6)
O2 O 0.2785(5) 0.13721(15) 0.4835(4)
N2 N 0.2532(6) 0.0932(2) 0.6013(4)
H7 H 0.2709 0.0882 0.6652
O3 O 0.1797(4) 0.06206(18) 0.5254(4)
C11 C 0.2516(7) 0.0280(3) 0.5170(6)
H8 H 0.2911 0.0120 0.5818
H9 H 0.3071 0.0412 0.4965
C12 C 0.1708(7) -0.0052(3) 0.4329(6)
C13 C 0.1752(7) -0.0063(2) 0.3397(7)
H10 H 0.2233 0.0140 0.3277
C14 C 0.1115(8) -0.0363(3) 0.2630(6)
H11 H 0.1154 -0.0362 0.2000
C15 C 0.0427(9) -0.0660(4) 0.2824(9)
C16 C 0.0381(7) -0.0657(2) 0.3751(8)
H12 H -0.0091 -0.0864 0.3870
C17 C 0.1009(7) -0.0357(3) 0.4512(6)
H13 H 0.0964 -0.0359 0.5140
C18 C -0.0353(9) -0.0994(3) 0.1972(7)
H14 H -0.0087 -0.1303 0.2155
H15 H -0.0336 -0.0916 0.1331
H16 H -0.1116 -0.0970 0.1904
N3 N 0.2753(5) 0.32760(18) 0.7756(4)
C19 C 0.3175(5) 0.3517(2) 0.7228(5)
C20 C 0.3023(6) 0.3402(3) 0.6219(5)
H17 H 0.3343 0.3577 0.5871
C21 C 0.2376(7) 0.3015(3) 0.5775(6)
H18 H 0.2243 0.2929 0.5112
C22 C 0.1924(6) 0.2756(3) 0.6328(6)
C23 C 0.1301(7) 0.2359(3) 0.5922(6)
H19 H 0.1197 0.2251 0.5280
C24 C 0.0845(8) 0.2130(3) 0.6483(7)
H20 H 0.0399 0.1872 0.6202
C25 C 0.1029(7) 0.2273(2) 0.7476(6)
H21 H 0.0715 0.2112 0.7849
C26 C 0.1672(7) 0.2651(2) 0.7880(6)
O4 O 0.1846(5) 0.27925(15) 0.8830(4)
H22 H 0.2290 0.3009 0.9002
C27 C 0.2128(6) 0.2899(2) 0.7317(5)
C28 C 0.3839(7) 0.3935(3) 0.7715(6)
O5 O 0.4283(4) 0.41755(16) 0.7293(4)
N4 N 0.3900(5) 0.40200(19) 0.8650(5)
H23 H 0.3642 0.3823 0.8942
O6 O 0.4381(5) 0.44269(15) 0.9150(4)
C29 C 0.5607(7) 0.4412(3) 0.9646(6)
H24 H 0.5893 0.4716 0.9901
H25 H 0.5884 0.4329 0.9141
C30 C 0.6070(7) 0.4076(3) 1.0525(7)
C31 C 0.5945(7) 0.4127(3) 1.1430(8)
H26 H 0.5502 0.4366 1.1487
C32 C 0.6466(8) 0.3831(3) 1.2248(7)
H27 H 0.6355 0.3868 1.2840
C33 C 0.7141(9) 0.3484(3) 1.2192(9)
C34 C 0.7237(8) 0.3420(3) 1.1296(9)
H28 H 0.7651 0.3172 1.1234
C35 C 0.6730(8) 0.3719(3) 1.0472(7)
H29 H 0.6837 0.3676 0.9879
C36 C 0.7735(9) 0.3182(3) 1.3126(7)
H30 H 0.7268 0.3152 1.3489
H31 H 0.8448 0.3318 1.3570
H32 H 0.7865 0.2884 1.2911
N5 N 0.3124(4) 0.57256(19) 0.2437(4)
C37 C 0.2714(7) 0.5330(2) 0.2572(5)
C38 C 0.1584(7) 0.5272(2) 0.2392(5)
H33 H 0.1341 0.4988 0.2513
C39 C 0.0834(6) 0.5622(3) 0.2044(5)
H34 H 0.0073 0.5582 0.1900
C40 C 0.1257(8) 0.6052(3) 0.1908(5)
C41 C 0.0544(7) 0.6450(3) 0.1558(6)
H35 H -0.0224 0.6435 0.1409
C42 C 0.1027(10) 0.6850(3) 0.1452(7)
H36 H 0.0569 0.7108 0.1211
C43 C 0.2180(9) 0.6887(3) 0.1691(7)
H37 H 0.2495 0.7167 0.1640
C44 C 0.2822(7) 0.6507(3) 0.1998(6)
O7 O 0.3956(5) 0.65406(14) 0.2231(4)
H38 H 0.4233 0.6283 0.2305
C45 C 0.2390(7) 0.6078(2) 0.2114(5)
C46 C 0.3546(7) 0.4936(2) 0.2937(5)
O8 O 0.3241(4) 0.45565(15) 0.3100(3)
N6 N 0.4562(6) 0.50448(19) 0.3041(5)
H39 H 0.4694 0.5316 0.2883
O9 O 0.5427(5) 0.47232(15) 0.3403(4)
C47 C 0.6093(7) 0.4811(3) 0.4463(6)
H40 H 0.5661 0.4734 0.4848
H41 H 0.6281 0.5134 0.4563
C48 C 0.7151(10) 0.4535(4) 0.4847(6)
C49 C 0.8209(17) 0.4690(5) 0.4923(10)
H42 H 0.8279 0.4984 0.4707
C50 C 0.9164(12) 0.4396(6) 0.5330(10)
H43 H 0.9895 0.4479 0.5435
C51 C 0.8868(13) 0.3976(5) 0.5548(8)
C52 C 0.7935(15) 0.3798(4) 0.5507(8)
H44 H 0.7868 0.3498 0.5692
C53 C 0.7060(9) 0.4110(5) 0.5155(7)
H45 H 0.6364 0.4020 0.5130
C54 C 0.9995(9) 0.3640(3) 0.5991(7)
H46 H 1.0074 0.3502 0.6623
H47 H 1.0658 0.3819 0.6111
H48 H 0.9908 0.3405 0.5496
loop_
_geom_bond_atom_site_label_1
_geom_bond_atom_site_label_2
_geom_bond_site_symmetry_1
_geom_bond_site_symmetry_2
N1 C1 1_555 1_555
C1 C2 1_555 1_555
C2 H1 1_555 1_555
C3 C2 1_555 1_555
H2 C3 1_555 1_555
C4 C3 1_555 1_555
C5 C4 1_555 1_555
H3 C5 1_555 1_555
C6 C5 1_555 1_555
H4 C6 1_555 1_555
C7 C6 1_555 1_555
H5 C7 1_555 1_555
C8 C7 1_555 1_555
O1 C8 1_555 1_555
H6 O1 1_555 1_555
C9 N1 1_555 1_555
C10 C1 1_555 1_555
O2 C10 1_555 1_555
N2 C10 1_555 1_555
H7 N2 1_555 1_555
O3 N2 1_555 1_555
C11 O3 1_555 1_555
H8 C11 1_555 1_555
H9 C11 1_555 1_555
C12 C11 1_555 1_555
C13 C12 1_555 1_555
H10 C13 1_555 1_555
C14 C13 1_555 1_555
H11 C14 1_555 1_555
C15 C14 1_555 1_555
C16 C15 1_555 1_555
H12 C16 1_555 1_555
C17 C12 1_555 1_555
H13 C17 1_555 1_555
C18 C15 1_555 1_555
H14 C18 1_555 1_555
H15 C18 1_555 1_555
H16 C18 1_555 1_555
N3 C19 1_555 1_555
C19 C20 1_555 1_555
C20 H17 1_555 1_555
C21 C20 1_555 1_555
H18 C21 1_555 1_555
C22 C21 1_555 1_555
C23 C22 1_555 1_555
H19 C23 1_555 1_555
C24 C23 1_555 1_555
H20 C24 1_555 1_555
C25 C24 1_555 1_555
H21 C25 1_555 1_555
C26 C25 1_555 1_555
O4 C26 1_555 1_555
H22 O4 1_555 1_555
C27 N3 1_555 1_555
C28 C19 1_555 1_555
O5 C28 1_555 1_555
N4 C28 1_555 1_555
H23 N4 1_555 1_555
O6 N4 1_555 1_555
C29 O6 1_555 1_555
H24 C29 1_555 1_555
H25 C29 1_555 1_555
C30 C29 1_555 1_555
C31 C30 1_555 1_555
H26 C31 1_555 1_555
C32 C31 1_555 1_555
H27 C32 1_555 1_555
C33 C32 1_555 1_555
C34 C33 1_555 1_555
H28 C34 1_555 1_555
C35 C30 1_555 1_555
H29 C35 1_555 1_555
C36 C33 1_555 1_555
H30 C36 1_555 1_555
H31 C36 1_555 1_555
H32 C36 1_555 1_555
N5 C37 1_555 1_555
C37 C38 1_555 1_555
C38 H33 1_555 1_555
C39 C38 1_555 1_555
H34 C39 1_555 1_555
C40 C39 1_555 1_555
C41 C40 1_555 1_555
H35 C41 1_555 1_555
C42 C41 1_555 1_555
H36 C42 1_555 1_555
C43 C42 1_555 1_555
H37 C43 1_555 1_555
C44 C43 1_555 1_555
O7 C44 1_555 1_555
H38 O7 1_555 1_555
C45 N5 1_555 1_555
C46 C37 1_555 1_555
O8 C46 1_555 1_555
N6 C46 1_555 1_555
H39 N6 1_555 1_555
O9 N6 1_555 1_555
C47 O9 1_555 1_555
H40 C47 1_555 1_555
H41 C47 1_555 1_555
C48 C47 1_555 1_555
C49 C48 1_555 1_555
H42 C49 1_555 1_555
C50 C49 1_555 1_555
H43 C50 1_555 1_555
C51 C50 1_555 1_555
C52 C51 1_555 1_555
H44 C52 1_555 1_555
C53 C48 1_555 1_555
H45 C53 1_555 1_555
C54 C51 1_555 1_555
H46 C54 1_555 1_555
H47 C54 1_555 1_555
H48 C54 1_555 1_555
C4 C9 1_555 1_555
C8 C9 1_555 1_555
C16 C17 1_555 1_555
C22 C27 1_555 1_555
C26 C27 1_555 1_555
C34 C35 1_555 1_555
C40 C45 1_555 1_555
C44 C45 1_555 1_555
C52 C53 1_555 1_555

#END
