
#######################################################################
#
#                 Cambridge Crystallographic Data Centre
#                                CCDC 
#
#######################################################################
#
# If this CIF has been generated from an entry in the Cambridge 
# Structural Database, then it will include bibliographic, chemical, 
# crystal, experimental, refinement or atomic coordinate data resulting 
# from the CCDC's data processing and validation procedures.
#
#######################################################################

data_SERQUB01
_chemical_formula_moiety         'C22 H8 F10'
_chemical_name_systematic        trans,trans-1,4-bis(Pentafluorostyryl)benzene
_symmetry_cell_setting           monoclinic
_symmetry_space_group_name_H-M   'P 21/c'
_symmetry_Int_Tables_number      14
_space_group_name_Hall           '-P 2ybc'
loop_
_symmetry_equiv_pos_site_id
_symmetry_equiv_pos_as_xyz
1 x,y,z
2 -x,1/2+y,1/2-z
3 -x,-y,-z
4 x,1/2-y,1/2+z
_cell_length_a                   4.8799(3)
_cell_length_b                   6.1650(3)
_cell_length_c                   29.533(2)
_cell_angle_alpha                90
_cell_angle_beta                 92.001(2)
_cell_angle_gamma                90
_cell_volume                     887.946
_exptl_crystal_colour            colorless
_chemical_melting_point          '194 deg.C'
_cell_formula_units_Z            2
_exptl_crystal_recrystallization_method sublimation
loop_
_atom_site_label
_atom_site_type_symbol
_atom_site_fract_x
_atom_site_fract_y
_atom_site_fract_z
F1 F 0.6728(8) 0.0214(6) 0.4083(1)
F2 F 0.2686(8) -0.0908(6) 0.3508(1)
F3 F 0.1139(7) 0.1727(7) 0.2803(1)
F4 F 0.3721(8) 0.5614(7) 0.2699(1)
F5 F 0.7780(7) 0.6809(6) 0.3279(1)
C1 C 0.7451(11) 0.3597(9) 0.3712(2)
C2 C 0.6073(12) 0.1605(10) 0.3739(2)
C3 C 0.3997(12) 0.0990(10) 0.3447(2)
C4 C 0.3175(12) 0.2300(11) 0.3093(2)
C5 C 0.4470(12) 0.4290(11) 0.3043(2)
C6 C 0.6551(12) 0.4872(10) 0.3344(2)
C7 C 0.9621(11) 0.4382(10) 0.4025(2)
C8 C 1.0757(11) 0.3385(9) 0.4384(2)
C9 C 1.2898(10) 0.4243(9) 0.4691(2)
C10 C 1.3954(11) 0.2954(9) 0.5044(2)
C11 C 1.4004(11) 0.6340(9) 0.4654(2)
H1 H 1.0309(11) 0.5789(10) 0.3963(2)
H2 H 1.0106(11) 0.1969(9) 0.4447(2)
H3 H 1.3243(11) 0.1531(9) 0.5078(2)
H4 H 1.3346(11) 0.7279(9) 0.4419(2)
C11B C 1.5996(11) 0.3660(9) 0.5346(2)
C9B C 1.7102(10) 0.5757(9) 0.5309(2)
C8B C 1.9243(11) 0.6615(9) 0.5616(2)
C7B C 2.0379(11) 0.5618(10) 0.5975(2)
C1B C 2.2549(11) 0.6403(9) 0.6288(2)
C2B C 2.3927(12) 0.8395(10) 0.6261(2)
F1B F 2.3272(8) 0.9786(6) 0.5917(1)
C3B C 2.6003(12) 0.9010(10) 0.6553(2)
F2B F 2.7314(8) 1.0908(6) 0.6492(1)
C4B C 2.6825(12) 0.7700(11) 0.6907(2)
F3B F 2.8861(7) 0.8273(7) 0.7197(1)
C5B C 2.5530(12) 0.5710(11) 0.6957(2)
F4B F 2.6279(8) 0.4386(7) 0.7301(1)
C6B C 2.3449(12) 0.5128(10) 0.6656(2)
F5B F 2.2220(7) 0.3191(6) 0.6721(1)
H1B H 1.9691(11) 0.4211(10) 0.6037(2)
H2B H 1.9894(11) 0.8031(9) 0.5553(2)
C10B C 1.6046(11) 0.7046(9) 0.4956(2)
H3B H 1.6757(11) 0.8469(9) 0.4922(2)
H4B H 1.6654(11) 0.2721(9) 0.5581(2)
loop_
_geom_bond_atom_site_label_1
_geom_bond_atom_site_label_2
_geom_bond_site_symmetry_1
_geom_bond_site_symmetry_2
F1 C2 1_555 1_555
F2 C3 1_555 1_555
F3 C4 1_555 1_555
F4 C5 1_555 1_555
F5 C6 1_555 1_555
C1 C2 1_555 1_555
C2 C3 1_555 1_555
C3 C4 1_555 1_555
C4 C5 1_555 1_555
C5 C6 1_555 1_555
C6 C1 1_555 1_555
C7 C1 1_555 1_555
C8 C7 1_555 1_555
C9 C8 1_555 1_555
C10 C9 1_555 1_555
C11 C9 1_555 1_555
H1 C7 1_555 1_555
H2 C8 1_555 1_555
H3 C10 1_555 1_555
H4 C11 1_555 1_555
C11B C10 1_555 1_555
C9B C11B 1_555 1_555
C8B C9B 1_555 1_555
C7B C8B 1_555 1_555
C1B C7B 1_555 1_555
C2B C1B 1_555 1_555
F1B C2B 1_555 1_555
C3B C2B 1_555 1_555
F2B C3B 1_555 1_555
C4B C3B 1_555 1_555
F3B C4B 1_555 1_555
C5B C4B 1_555 1_555
F4B C5B 1_555 1_555
C6B C1B 1_555 1_555
F5B C6B 1_555 1_555
H1B C7B 1_555 1_555
H2B C8B 1_555 1_555
C10B C11 1_555 1_555
H3B C10B 1_555 1_555
H4B C11B 1_555 1_555
C9B C10B 1_555 1_555
C5B C6B 1_555 1_555

#END
