
#######################################################################
#
#                 Cambridge Crystallographic Data Centre
#                                CCDC 
#
#######################################################################
#
# If this CIF has been generated from an entry in the Cambridge 
# Structural Database, then it will include bibliographic, chemical, 
# crystal, experimental, refinement or atomic coordinate data resulting 
# from the CCDC's data processing and validation procedures.
#
#######################################################################

data_SERTAL
_chemical_formula_moiety         'C90 H70,2(C2 H2 Cl4)'
_chemical_name_systematic        
'6,6,9,9,15,15,18,18-octa-p-tolyl-6,9,15,18-tetrahydrobenzo[5,6]-s-indaceno[1,2-b]indeno[2,1-h]fluorene 1,1,2,2-tetrachloroethane solvate'
_symmetry_cell_setting           triclinic
_symmetry_space_group_name_H-M   'P -1'
_symmetry_Int_Tables_number      2
_space_group_name_Hall           '-P 1'
loop_
_symmetry_equiv_pos_site_id
_symmetry_equiv_pos_as_xyz
1 x,y,z
2 -x,-y,-z
_cell_length_a                   10.4953(2)
_cell_length_b                   12.5604(2)
_cell_length_c                   18.7166(3)
_cell_angle_alpha                93.5940(10)
_cell_angle_beta                 102.2000(10)
_cell_angle_gamma                106.1210(10)
_cell_volume                     2297.33
_exptl_crystal_colour            'pale yellow'
_chemical_melting_point          '470 deg.C'
_cell_formula_units_Z            1
loop_
_atom_site_label
_atom_site_type_symbol
_atom_site_fract_x
_atom_site_fract_y
_atom_site_fract_z
C1 C 0.6154(3) 0.5644(3) 0.05488(18)
H1 H 0.6911 0.6066 0.0911
C2 C 0.5289(3) 0.4656(3) 0.06818(18)
C3 C 0.5848(3) 0.5978(3) -0.01408(18)
C4 C 0.6643(3) 0.7015(3) -0.04277(18)
C5 C 0.5751(3) 0.6874(3) -0.12157(18)
C6 C 0.5905(4) 0.7575(3) -0.17520(19)
H2 H 0.6643 0.8219 -0.1671
C7 C 0.4921(3) 0.7287(3) -0.24178(19)
C8 C 0.3818(4) 0.6313(3) -0.25458(19)
C9 C 0.3661(3) 0.5609(3) -0.20132(19)
H3 H 0.2928 0.4961 -0.2098
C10 C 0.6687(4) 0.8113(3) -0.00075(19)
C11 C 0.5791(4) 0.8158(4) 0.0434(2)
H4 H 0.5179 0.7498 0.0500
C12 C 0.5790(6) 0.9170(4) 0.0779(3)
H5 H 0.5173 0.9176 0.1069
C13 C 0.6684(6) 1.0166(4) 0.0700(3)
C14 C 0.7578(6) 1.0124(4) 0.0260(3)
H6 H 0.8189 1.0784 0.0195
C15 C 0.7585(5) 0.9121(4) -0.0084(3)
H7 H 0.8204 0.9120 -0.0374
C16 C 0.8074(3) 0.6907(3) -0.0400(2)
C17 C 0.9094(4) 0.7264(4) 0.0246(3)
H8 H 0.8944 0.7662 0.0640
C18 C 1.0335(5) 0.7038(5) 0.0314(3)
H9 H 1.1002 0.7288 0.0752
C19 C 1.0592(5) 0.6447(5) -0.0260(3)
C20 C 0.9602(5) 0.6119(5) -0.0904(3)
H10 H 0.9764 0.5737 -0.1301
C21 C 0.8354(5) 0.6343(4) -0.0978(3)
H11 H 0.7701 0.6110 -0.1422
C22 C 0.6693(10) 1.1255(5) 0.1099(4)
H12 H 0.7359 1.1864 0.0975
H13 H 0.5806 1.1359 0.0955
H14 H 0.6919 1.1234 0.1622
C23 C 1.1924(6) 0.6159(7) -0.0177(5)
H15 H 1.1916 0.5740 -0.0626
H16 H 1.2674 0.6834 -0.0073
H17 H 1.2023 0.5719 0.0221
C24 C 0.2888(4) 0.6178(3) -0.33219(19)
C25 C 0.3654(4) 0.7237(4) -0.3607(2)
C26 C 0.4801(4) 0.7866(3) -0.3071(2)
C27 C 0.5619(5) 0.8876(4) -0.3204(3)
H18 H 0.6389 0.9294 -0.2848
C28 C 0.5260(6) 0.9245(5) -0.3879(3)
H19 H 0.5796 0.9918 -0.3978
C29 C 0.4125(7) 0.8630(5) -0.4402(3)
H20 H 0.3897 0.8896 -0.4850
C30 C 0.3312(6) 0.7619(5) -0.4276(3)
H21 H 0.2549 0.7203 -0.4637
C31 C 0.2856(4) 0.5089(4) -0.3741(2)
C32 C 0.3841(5) 0.5034(4) -0.4118(2)
H22 H 0.4480 0.5691 -0.4166
C33 C 0.3897(6) 0.4022(5) -0.4427(3)
H23 H 0.4583 0.4016 -0.4670
C34 C 0.2968(7) 0.3025(5) -0.4386(3)
C35 C 0.1961(8) 0.3073(5) -0.4028(3)
H24 H 0.1305 0.2415 -0.4000
C36 C 0.1900(6) 0.4087(4) -0.3706(3)
H25 H 0.1211 0.4091 -0.3466
C37 C 0.1454(4) 0.6252(3) -0.3315(2)
C38 C 0.0434(5) 0.5979(5) -0.3963(3)
H26 H 0.0604 0.5688 -0.4391
C39 C -0.0825(5) 0.6130(6) -0.3986(3)
H27 H -0.1483 0.5952 -0.4429
C40 C -0.1124(5) 0.6542(5) -0.3361(3)
C41 C -0.0119(5) 0.6795(4) -0.2719(3)
H28 H -0.0297 0.7068 -0.2289
C42 C 0.1141(4) 0.6656(4) -0.2695(2)
H29 H 0.1796 0.6838 -0.2250
C43 C 0.3025(12) 0.1924(7) -0.4724(5)
H30 H 0.2293 0.1330 -0.4638
H31 H 0.2935 0.1929 -0.5245
H32 H 0.3883 0.1812 -0.4504
C44 C -0.2512(7) 0.6686(8) -0.3386(5)
H33 H -0.2542 0.6969 -0.2903
H34 H -0.2677 0.7203 -0.3724
H35 H -0.3200 0.5977 -0.3545
C45 C 0.5366(3) 0.4100(3) 0.13442(18)
C1A C 0.3846(3) 0.4356(3) -0.05488(18)
H1A H 0.3089 0.3934 -0.0911
C2A C 0.4711(3) 0.5344(3) -0.06818(18)
C3A C 0.4152(3) 0.4022(3) 0.01408(18)
C4A C 0.3357(3) 0.2985(3) 0.04277(18)
C5A C 0.4249(3) 0.3126(3) 0.12157(18)
C6A C 0.4095(4) 0.2425(3) 0.17520(19)
H2A H 0.3357 0.1781 0.1671
C7A C 0.5079(3) 0.2713(3) 0.24178(19)
C8A C 0.6182(4) 0.3687(3) 0.25458(19)
C9A C 0.6339(3) 0.4391(3) 0.20132(19)
H3A H 0.7072 0.5039 0.2098
C10A C 0.3313(4) 0.1887(3) 0.00075(19)
C11A C 0.4209(4) 0.1842(4) -0.0434(2)
H4A H 0.4821 0.2502 -0.0500
C12A C 0.4210(6) 0.0830(4) -0.0779(3)
H5A H 0.4827 0.0824 -0.1069
C13A C 0.3316(6) -0.0166(4) -0.0700(3)
C14A C 0.2422(6) -0.0124(4) -0.0260(3)
H6A H 0.1811 -0.0784 -0.0195
C15A C 0.2415(5) 0.0879(4) 0.0084(3)
H7A H 0.1796 0.0880 0.0374
C16A C 0.1926(3) 0.3093(3) 0.0400(2)
C17A C 0.0906(4) 0.2736(4) -0.0246(3)
H8A H 0.1056 0.2338 -0.0640
C18A C -0.0335(5) 0.2962(5) -0.0314(3)
H9A H -0.1002 0.2712 -0.0752
C19A C -0.0592(5) 0.3553(5) 0.0260(3)
C20A C 0.0398(5) 0.3881(5) 0.0904(3)
H10A H 0.0236 0.4263 0.1301
C21A C 0.1646(5) 0.3657(4) 0.0978(3)
H11A H 0.2299 0.3890 0.1422
C22A C 0.3307(10) -0.1255(5) -0.1099(4)
H12A H 0.2641 -0.1864 -0.0975
H13A H 0.4194 -0.1359 -0.0955
H14A H 0.3081 -0.1234 -0.1622
C23A C -0.1924(6) 0.3841(7) 0.0177(5)
H15A H -0.1916 0.4260 0.0626
H16A H -0.2674 0.3166 0.0073
H17A H -0.2023 0.4281 -0.0221
C24A C 0.7112(4) 0.3822(3) 0.33219(19)
C25A C 0.6346(4) 0.2763(4) 0.3607(2)
C26A C 0.5199(4) 0.2134(3) 0.3071(2)
C27A C 0.4381(5) 0.1124(4) 0.3204(3)
H18A H 0.3611 0.0706 0.2848
C28A C 0.4740(6) 0.0755(5) 0.3879(3)
H19A H 0.4204 0.0082 0.3978
C29A C 0.5875(7) 0.1370(5) 0.4402(3)
H20A H 0.6103 0.1104 0.4850
C30A C 0.6688(6) 0.2381(5) 0.4276(3)
H21A H 0.7451 0.2797 0.4637
C31A C 0.7144(4) 0.4911(4) 0.3741(2)
C32A C 0.6159(5) 0.4966(4) 0.4118(2)
H22A H 0.5520 0.4309 0.4166
C33A C 0.6103(6) 0.5978(5) 0.4427(3)
H23A H 0.5417 0.5984 0.4670
C34A C 0.7032(7) 0.6975(5) 0.4386(3)
C35A C 0.8039(8) 0.6927(5) 0.4028(3)
H24A H 0.8695 0.7585 0.4000
C36A C 0.8100(6) 0.5913(4) 0.3706(3)
H25A H 0.8789 0.5909 0.3466
C37A C 0.8546(4) 0.3748(3) 0.3315(2)
C38A C 0.9566(5) 0.4021(5) 0.3963(3)
H26A H 0.9396 0.4312 0.4391
C39A C 1.0825(5) 0.3870(6) 0.3986(3)
H27A H 1.1483 0.4048 0.4429
C40A C 1.1124(5) 0.3458(5) 0.3361(3)
C41A C 1.0119(5) 0.3205(4) 0.2719(3)
H28A H 1.0297 0.2932 0.2289
C42A C 0.8859(4) 0.3344(4) 0.2695(2)
H29A H 0.8204 0.3162 0.2250
C43A C 0.6975(12) 0.8076(7) 0.4724(5)
H30A H 0.7707 0.8670 0.4638
H31A H 0.7065 0.8071 0.5245
H32A H 0.6117 0.8188 0.4504
C44A C 1.2512(7) 0.3314(8) 0.3386(5)
H33A H 1.2542 0.3031 0.2903
H34A H 1.2677 0.2797 0.3724
H35A H 1.3200 0.4023 0.3545
C45A C 0.4634(3) 0.5900(3) -0.13442(18)
Cl1 Cl -0.0531(4) 0.0085(5) -0.1864(2)
Cl2 Cl 0.1660(6) 0.1910(3) -0.2292(2)
Cl3 Cl 0.2473(8) -0.0007(7) -0.3055(5)
Cl4 Cl -0.0481(6) 0.0062(6) -0.3567(3)
C46 C 0.1056(18) 0.0477(12) -0.2209(8)
C47 C 0.075(3) -0.0246(13) -0.2824(14)
Cl5 Cl -0.0696(8) 0.3480(7) -0.2363(4)
Cl6 Cl -0.2706(9) 0.2972(7) -0.3740(3)
Cl7 Cl -0.4127(13) 0.3743(9) -0.1983(7)
Cl8 Cl -0.3459(12) 0.1899(9) -0.2203(7)
C49 C -0.288(2) 0.336(2) -0.2243(13)
C50 C -0.234(3) 0.3619(13) -0.2872(9)
C48? C -0.1329(14) 0.374(2) -0.2276(12)
Cl9? Cl -0.4381(8) 0.3906(8) -0.2484(5)
Cl10? Cl -0.3980(19) 0.1689(10) -0.2548(13)
C51? C -0.394(3) 0.303(2) -0.2786(13)
loop_
_geom_bond_atom_site_label_1
_geom_bond_atom_site_label_2
_geom_bond_site_symmetry_1
_geom_bond_site_symmetry_2
C1 H1 1_555 1_555
C2 C1 1_555 1_555
C3 C1 1_555 1_555
C4 C3 1_555 1_555
C5 C4 1_555 1_555
C6 C5 1_555 1_555
H2 C6 1_555 1_555
C7 C6 1_555 1_555
C8 C7 1_555 1_555
C9 C8 1_555 1_555
H3 C9 1_555 1_555
C10 C4 1_555 1_555
C11 C10 1_555 1_555
H4 C11 1_555 1_555
C12 C11 1_555 1_555
H5 C12 1_555 1_555
C13 C12 1_555 1_555
C14 C13 1_555 1_555
H6 C14 1_555 1_555
C15 C10 1_555 1_555
H7 C15 1_555 1_555
C16 C4 1_555 1_555
C17 C16 1_555 1_555
H8 C17 1_555 1_555
C18 C17 1_555 1_555
H9 C18 1_555 1_555
C19 C18 1_555 1_555
C20 C19 1_555 1_555
H10 C20 1_555 1_555
C21 C16 1_555 1_555
H11 C21 1_555 1_555
C22 C13 1_555 1_555
H12 C22 1_555 1_555
H13 C22 1_555 1_555
H14 C22 1_555 1_555
C23 C19 1_555 1_555
H15 C23 1_555 1_555
H16 C23 1_555 1_555
H17 C23 1_555 1_555
C24 C8 1_555 1_555
C25 C24 1_555 1_555
C26 C7 1_555 1_555
C27 C26 1_555 1_555
H18 C27 1_555 1_555
C28 C27 1_555 1_555
H19 C28 1_555 1_555
C29 C28 1_555 1_555
H20 C29 1_555 1_555
C30 C25 1_555 1_555
H21 C30 1_555 1_555
C31 C24 1_555 1_555
C32 C31 1_555 1_555
H22 C32 1_555 1_555
C33 C32 1_555 1_555
H23 C33 1_555 1_555
C34 C33 1_555 1_555
C35 C34 1_555 1_555
H24 C35 1_555 1_555
C36 C31 1_555 1_555
H25 C36 1_555 1_555
C37 C24 1_555 1_555
C38 C37 1_555 1_555
H26 C38 1_555 1_555
C39 C38 1_555 1_555
H27 C39 1_555 1_555
C40 C39 1_555 1_555
C41 C40 1_555 1_555
H28 C41 1_555 1_555
C42 C37 1_555 1_555
H29 C42 1_555 1_555
C43 C34 1_555 1_555
H30 C43 1_555 1_555
H31 C43 1_555 1_555
H32 C43 1_555 1_555
C44 C40 1_555 1_555
H33 C44 1_555 1_555
H34 C44 1_555 1_555
H35 C44 1_555 1_555
C45 C2 1_555 1_555
Cl1 C46 1_555 1_555
Cl2 C46 1_555 1_555
Cl3 C47 1_555 1_555
Cl4 C47 1_555 1_555
C46 C47 1_555 1_555
Cl5 C50 1_555 1_555
Cl6 C50 1_555 1_555
Cl7 C49 1_555 1_555
Cl8 C49 1_555 1_555
C49 C50 1_555 1_555
C1A H1A 1_555 1_555
C2A C3 1_555 1_555
C3A C2 1_555 1_555
C4A C3A 1_555 1_555
C5A C45 1_555 1_555
C6A C5A 1_555 1_555
H2A C6A 1_555 1_555
C7A C6A 1_555 1_555
C8A C7A 1_555 1_555
C9A C45 1_555 1_555
H3A C9A 1_555 1_555
C10A C4A 1_555 1_555
C11A C10A 1_555 1_555
H4A C11A 1_555 1_555
C12A C11A 1_555 1_555
H5A C12A 1_555 1_555
C13A C12A 1_555 1_555
C14A C13A 1_555 1_555
H6A C14A 1_555 1_555
C15A C10A 1_555 1_555
H7A C15A 1_555 1_555
C16A C4A 1_555 1_555
C17A C16A 1_555 1_555
H8A C17A 1_555 1_555
C18A C17A 1_555 1_555
H9A C18A 1_555 1_555
C19A C18A 1_555 1_555
C20A C19A 1_555 1_555
H10A C20A 1_555 1_555
C21A C16A 1_555 1_555
H11A C21A 1_555 1_555
C22A C13A 1_555 1_555
H12A C22A 1_555 1_555
H13A C22A 1_555 1_555
H14A C22A 1_555 1_555
C23A C19A 1_555 1_555
H15A C23A 1_555 1_555
H16A C23A 1_555 1_555
H17A C23A 1_555 1_555
C24A C8A 1_555 1_555
C25A C24A 1_555 1_555
C26A C7A 1_555 1_555
C27A C26A 1_555 1_555
H18A C27A 1_555 1_555
C28A C27A 1_555 1_555
H19A C28A 1_555 1_555
C29A C28A 1_555 1_555
H20A C29A 1_555 1_555
C30A C25A 1_555 1_555
H21A C30A 1_555 1_555
C31A C24A 1_555 1_555
C32A C31A 1_555 1_555
H22A C32A 1_555 1_555
C33A C32A 1_555 1_555
H23A C33A 1_555 1_555
C34A C33A 1_555 1_555
C35A C34A 1_555 1_555
H24A C35A 1_555 1_555
C36A C31A 1_555 1_555
H25A C36A 1_555 1_555
C37A C24A 1_555 1_555
C38A C37A 1_555 1_555
H26A C38A 1_555 1_555
C39A C38A 1_555 1_555
H27A C39A 1_555 1_555
C40A C39A 1_555 1_555
C41A C40A 1_555 1_555
H28A C41A 1_555 1_555
C42A C37A 1_555 1_555
H29A C42A 1_555 1_555
C43A C34A 1_555 1_555
H30A C43A 1_555 1_555
H31A C43A 1_555 1_555
H32A C43A 1_555 1_555
C44A C40A 1_555 1_555
H33A C44A 1_555 1_555
H34A C44A 1_555 1_555
H35A C44A 1_555 1_555
C45A C5 1_555 1_555
C9 C45A 1_555 1_555
C14 C15 1_555 1_555
C20 C21 1_555 1_555
C25 C26 1_555 1_555
C29 C30 1_555 1_555
C35 C36 1_555 1_555
C41 C42 1_555 1_555
C1A C2A 1_555 1_555
C1A C3A 1_555 1_555
C2A C45A 1_555 1_555
C4A C5A 1_555 1_555
C8A C9A 1_555 1_555
C14A C15A 1_555 1_555
C20A C21A 1_555 1_555
C25A C26A 1_555 1_555
C29A C30A 1_555 1_555
C35A C36A 1_555 1_555
C41A C42A 1_555 1_555

#END
