
#######################################################################
#
#                 Cambridge Crystallographic Data Centre
#                                CCDC 
#
#######################################################################
#
# If this CIF has been generated from an entry in the Cambridge 
# Structural Database, then it will include bibliographic, chemical, 
# crystal, experimental, refinement or atomic coordinate data resulting 
# from the CCDC's data processing and validation procedures.
#
#######################################################################

data_SERTUG
_chemical_formula_moiety         
'C16 H13 N1 O1 S1,C16 H14 N1 O1 S1 1+,Cl1 O4 1-'
_chemical_name_systematic        
'(Z)-1-((thiophen-2-ylmethylammonio)methylene)naphthalen-2(1H)-ol (Z)-1-((thiophen-2-ylmethylammonio)methylene)naphthalen-2(1H)-olate perchlorate'
_symmetry_cell_setting           triclinic
_symmetry_space_group_name_H-M   'P -1'
_symmetry_Int_Tables_number      2
_space_group_name_Hall           '-P 1'
loop_
_symmetry_equiv_pos_site_id
_symmetry_equiv_pos_as_xyz
1 x,y,z
2 -x,-y,-z
_cell_length_a                   10.5023(7)
_cell_length_b                   10.7351(7)
_cell_length_c                   13.3354(9)
_cell_angle_alpha                101.051(5)
_cell_angle_beta                 93.924(5)
_cell_angle_gamma                101.720(5)
_cell_volume                     1435.79
_exptl_crystal_colour            'orange brown'
_exptl_crystal_description       block
_cell_formula_units_Z            2
loop_
_atom_site_label
_atom_site_type_symbol
_atom_site_fract_x
_atom_site_fract_y
_atom_site_fract_z
S1 S 0.37632(5) 0.06407(5) 0.77065(4)
O1 O 0.51812(13) 0.27881(13) 0.50594(10)
N1 N 0.52583(16) 0.35051(16) 0.70267(12)
H1 H 0.499(2) 0.296(2) 0.650(2)
C1 C 0.59861(17) 0.38802(18) 0.50491(14)
C2 C 0.63809(18) 0.41822(19) 0.41035(14)
H2 H 0.6082 0.3565 0.3477
C3 C 0.71744(19) 0.5335(2) 0.40915(14)
H3 H 0.7397 0.5519 0.3449
C4 C 0.76945(17) 0.62931(18) 0.50065(14)
C5 C 0.85174(19) 0.7489(2) 0.49657(16)
H4 H 0.8688 0.7687 0.4317
C6 C 0.9075(2) 0.8370(2) 0.58459(16)
H5 H 0.9627 0.9177 0.5811
C7 C 0.8822(2) 0.80688(19) 0.67964(16)
H6 H 0.9227 0.8666 0.7410
C8 C 0.79969(19) 0.69240(18) 0.68587(14)
H7 H 0.7837 0.6746 0.7515
C9 C 0.73831(17) 0.60077(17) 0.59666(13)
C10 C 0.64823(17) 0.47959(17) 0.59810(13)
C11 C 0.60684(17) 0.45450(18) 0.69173(14)
H8 H 0.6410 0.5191 0.7521
C12 C 0.4794(2) 0.3305(2) 0.80109(15)
H9 H 0.4582 0.4116 0.8381
H10 H 0.5497 0.3101 0.8442
C13 C 0.36094(19) 0.22222(18) 0.78454(13)
C14 C 0.23138(18) 0.23344(19) 0.78067(13)
H11 H 0.2027 0.3127 0.7872
C15 C 0.1469(2) 0.1051(2) 0.76517(15)
H12 H 0.0541 0.0908 0.7600
C16 C 0.2110(2) 0.0078(2) 0.75865(15)
H13 H 0.1691 -0.0815 0.7486
S2 S 0.10678(7) 0.17114(7) 0.03640(5)
O2 O 0.42409(13) 0.12394(13) 0.34528(10)
H14 H 0.468(4) 0.198(4) 0.422(3)
N2 N 0.34853(18) 0.05241(17) 0.14669(13)
H15 H 0.397(3) 0.108(3) 0.191(2)
C17 C 0.34925(18) 0.01599(18) 0.35847(14)
C18 C 0.33527(19) -0.00902(19) 0.45841(15)
H16 H 0.3807 0.0534 0.5168
C19 C 0.2581(2) -0.1206(2) 0.47133(16)
H17 H 0.2508 -0.1345 0.5391
C20 C 0.18736(18) -0.21828(19) 0.38704(16)
C21 C 0.1084(2) -0.3343(2) 0.40329(19)
H18 H 0.1033 -0.3481 0.4713
C22 C 0.0394(2) -0.4271(2) 0.3225(2)
H19 H -0.0145 -0.5043 0.3342
C23 C 0.0489(2) -0.4073(2) 0.2228(2)
H20 H 0.0005 -0.4716 0.1667
C24 C 0.1266(2) -0.2969(2) 0.20420(18)
H21 H 0.1328 -0.2868 0.1353
C25 C 0.19785(18) -0.19749(18) 0.28638(15)
C26 C 0.27947(18) -0.07667(18) 0.27187(14)
C27 C 0.28149(19) -0.04934(19) 0.17217(15)
H22 H 0.2276 -0.1128 0.1181
C28 C 0.3386(2) 0.0783(2) 0.04289(15)
H23 H 0.2876 -0.0006 -0.0056
H24 H 0.4273 0.0990 0.0210
C29 C 0.2736(2) 0.1893(2) 0.03909(14)
C30 C 0.3469(2) 0.32885(17) 0.04133(11)
H25 H 0.4383 0.3627 0.0444
C31 C 0.2381(3) 0.3970(2) 0.03750(16)
H26 H 0.2540 0.4871 0.0365
C32 C 0.1165(3) 0.3272(3) 0.03551(17)
H27 H 0.0416 0.3641 0.0337
Cl1 Cl 0.29524(5) 0.70488(5) 0.88968(4)
O3 O 0.2909(3) 0.57217(17) 0.84909(15)
O4 O 0.37646(17) 0.78470(17) 0.83452(13)
O5 O 0.1702(2) 0.7325(3) 0.8856(3)
O6 O 0.3507(2) 0.7366(2) 0.99539(13)
C33? C 0.37632(5) 0.06407(5) 0.77065(4)
H28? H 0.4488 0.0236 0.7699
S3? S 0.23138(18) 0.23344(19) 0.78067(13)
C34? C 0.10678(7) 0.17114(7) 0.03640(5)
H29? H 0.0364 0.0996 0.0357
S4? S 0.3469(2) 0.32885(17) 0.04133(11)
loop_
_geom_bond_atom_site_label_1
_geom_bond_atom_site_label_2
_geom_bond_site_symmetry_1
_geom_bond_site_symmetry_2
S1 C13 1_555 1_555
O1 C1 1_555 1_555
N1 H1 1_555 1_555
C1 C2 1_555 1_555
C2 H2 1_555 1_555
C3 C2 1_555 1_555
H3 C3 1_555 1_555
C4 C3 1_555 1_555
C5 C4 1_555 1_555
H4 C5 1_555 1_555
C6 C5 1_555 1_555
H5 C6 1_555 1_555
C7 C6 1_555 1_555
H6 C7 1_555 1_555
C8 C7 1_555 1_555
H7 C8 1_555 1_555
C9 C4 1_555 1_555
C10 C1 1_555 1_555
C11 N1 1_555 1_555
H8 C11 1_555 1_555
C12 N1 1_555 1_555
H9 C12 1_555 1_555
H10 C12 1_555 1_555
C13 C12 1_555 1_555
C14 C13 1_555 1_555
H11 C14 1_555 1_555
C15 C14 1_555 1_555
H12 C15 1_555 1_555
C16 S1 1_555 1_555
H13 C16 1_555 1_555
S2 C29 1_555 1_555
O2 H14 1_555 1_555
N2 H15 1_555 1_555
C17 O2 1_555 1_555
C18 C17 1_555 1_555
H16 C18 1_555 1_555
C19 C18 1_555 1_555
H17 C19 1_555 1_555
C20 C19 1_555 1_555
C21 C20 1_555 1_555
H18 C21 1_555 1_555
C22 C21 1_555 1_555
H19 C22 1_555 1_555
C23 C22 1_555 1_555
H20 C23 1_555 1_555
C24 C23 1_555 1_555
H21 C24 1_555 1_555
C25 C20 1_555 1_555
C26 C17 1_555 1_555
C27 N2 1_555 1_555
H22 C27 1_555 1_555
C28 N2 1_555 1_555
H23 C28 1_555 1_555
H24 C28 1_555 1_555
C29 C28 1_555 1_555
C30 C29 1_555 1_555
H25 C30 1_555 1_555
C31 C30 1_555 1_555
H26 C31 1_555 1_555
C32 S2 1_555 1_555
H27 C32 1_555 1_555
Cl1 O3 1_555 1_555
O4 Cl1 1_555 1_555
O5 Cl1 1_555 1_555
O6 Cl1 1_555 1_555
C8 C9 1_555 1_555
C9 C10 1_555 1_555
C10 C11 1_555 1_555
C15 C16 1_555 1_555
C24 C25 1_555 1_555
C25 C26 1_555 1_555
C26 C27 1_555 1_555
C31 C32 1_555 1_555

#END
