
#######################################################################
#
#                 Cambridge Crystallographic Data Centre
#                                CCDC 
#
#######################################################################
#
# If this CIF has been generated from an entry in the Cambridge 
# Structural Database, then it will include bibliographic, chemical, 
# crystal, experimental, refinement or atomic coordinate data resulting 
# from the CCDC's data processing and validation procedures.
#
#######################################################################

data_SERTIV
_chemical_formula_moiety         'C35 H42 N6 O6 S4,C1 H4 O1,C1 H2 Cl2'
_chemical_name_systematic        
"3-(hydroxymethyl)-10b-(3-{[5-(hydroxymethyl)-1,4-dimethyl-2,5-bis(methylsulfanyl)-3,6-dioxopiperazin-2-yl]methyl}-1H-indol-1-yl)-2-methyl-3,11a-bis(methylsulfanyl)-6,10b,11,11a-tetrahydro-2H-pyrazino[1',2':1,5]pyrrolo[2,3-b]indole-1,4(3H,5aH)-dione dichloromethane methanol solvate"
_symmetry_cell_setting           monoclinic
_symmetry_space_group_name_H-M   'P 21'
_symmetry_Int_Tables_number      4
_space_group_name_Hall           'P 2yb'
loop_
_symmetry_equiv_pos_site_id
_symmetry_equiv_pos_as_xyz
1 x,y,z
2 -x,1/2+y,-z
_cell_length_a                   11.3540(4)
_cell_length_b                   13.6802(4)
_cell_length_c                   13.1868(4)
_cell_angle_alpha                90
_cell_angle_beta                 98.845(3)
_cell_angle_gamma                90
_cell_volume                     2023.88
_cell_formula_units_Z            2
loop_
_atom_site_label
_atom_site_type_symbol
_atom_site_fract_x
_atom_site_fract_y
_atom_site_fract_z
S1 S -0.11530(8) -0.11458(7) -0.18896(6)
S2 S 0.29463(9) 0.08629(9) 0.52395(8)
S3 S -0.37144(8) -0.27804(8) -0.13276(7)
S4 S -0.09213(9) -0.17052(8) 0.42840(7)
O1 O -0.0314(3) -0.2850(2) 0.2643(2)
H1 H -0.1040 -0.2806 0.2608
O2 O -0.2105(2) 0.0202(2) -0.0061(2)
O3 O -0.2676(3) -0.2472(2) 0.1780(2)
H2 H -0.2803 -0.1895 0.1891
O4 O -0.1442(2) -0.3633(2) 0.0242(2)
N1 N -0.2963(3) -0.1290(3) -0.0061(2)
O5 O 0.3298(3) -0.1293(3) 0.5124(2)
N2 N 0.0850(3) -0.2984(2) -0.0780(2)
H3 H 0.0610 -0.3565 -0.0957
C1 C 0.2360(3) 0.0048(3) 0.4190(3)
O6 O -0.0676(3) 0.0052(3) 0.2877(3)
C2 C -0.1630(3) -0.2768(3) 0.0018(3)
C3 C 0.3141(3) -0.2881(3) 0.1188(3)
H4 H 0.2776 -0.3137 0.0565
C4 C 0.0198(3) -0.0631(3) 0.0036(3)
H5 H 0.0117 -0.0403 0.0718
H6 H 0.0376 -0.0076 -0.0373
N3 N 0.2053(3) -0.1261(2) 0.1039(2)
C5 C -0.2052(3) -0.0693(3) -0.0156(3)
C6 C -0.2903(3) -0.2361(3) -0.0072(3)
C7 C 0.1637(3) -0.2420(3) -0.1269(3)
C8 C 0.1812(3) -0.1501(3) -0.0846(3)
C9 C 0.3434(3) -0.1535(3) 0.2442(3)
N4 N 0.1465(3) -0.1609(3) 0.4298(3)
N5 N -0.0757(3) -0.2145(2) -0.0107(2)
C10 C 0.2392(4) -0.1004(3) 0.4585(3)
N6 N 0.1153(3) 0.0362(3) 0.3710(3)
C11 C -0.4139(3) -0.0859(3) 0.0010(3)
H7 H -0.4248 -0.0825 0.0717
H8 H -0.4754 -0.1258 -0.0363
H9 H -0.4181 -0.0212 -0.0277
C12 C 0.2189(3) -0.2705(3) -0.2090(3)
H10 H 0.2076 -0.3326 -0.2374
C13 C 0.2871(3) -0.1942(3) 0.1507(3)
C14 C -0.0942(3) -0.1141(3) -0.0465(3)
C15 C 0.0512(3) -0.2434(3) 0.0064(3)
H11 H 0.0719 -0.2786 0.0714
C16 C 0.2146(3) -0.0431(3) 0.1656(3)
H12 H 0.1716 0.0142 0.1502
C17 C 0.0249(4) -0.0255(3) 0.3394(3)
C18 C 0.2530(3) -0.0813(3) -0.1232(3)
H13 H 0.2632 -0.0191 -0.0946
C19 C -0.3408(3) -0.2771(3) 0.0863(3)
H14 H -0.4214 -0.2534 0.0857
H15 H -0.3434 -0.3480 0.0828
C20 C -0.4604(4) -0.3808(4) -0.1020(4)
H16 H -0.5047 -0.4068 -0.1640
H17 H -0.5146 -0.3595 -0.0574
H18 H -0.4090 -0.4306 -0.0683
C21 C 0.4550(4) -0.3019(4) 0.2776(3)
H19 H 0.5115 -0.3394 0.3190
C22 C 0.0979(4) 0.1374(3) 0.3365(3)
H20 H 0.1711 0.1730 0.3543
H21 H 0.0369 0.1671 0.3692
H22 H 0.0743 0.1387 0.2634
C23 C 0.2924(4) -0.2018(4) -0.2472(3)
H23 H 0.3310 -0.2190 -0.3018
C24 C 0.4296(3) -0.2101(4) 0.3087(3)
H24 H 0.4677 -0.1851 0.3708
C25 C 0.2957(4) -0.0578(3) 0.2520(3)
C26 C -0.0720(5) -0.0893(5) 0.5369(4)
H25 H -0.0786 -0.0229 0.5134
H26 H 0.0055 -0.0996 0.5762
H27 H -0.1320 -0.1022 0.5791
C27 C -0.0974(4) 0.0136(3) -0.2169(3)
H28 H -0.1225 0.0250 -0.2888
H29 H -0.0152 0.0316 -0.1988
H30 H -0.1451 0.0522 -0.1779
C28 C 0.3090(3) -0.1081(4) -0.2053(3)
H31 H 0.3577 -0.0637 -0.2325
C29 C 0.0339(3) -0.1348(3) 0.3651(3)
C30 C 0.0178(4) -0.1915(3) 0.2615(3)
H32 H -0.0328 -0.1531 0.2104
H33 H 0.0950 -0.1973 0.2392
C31 C 0.3974(4) -0.3411(3) 0.1839(3)
H34 H 0.4160 -0.4042 0.1655
C32 C 0.3244(3) 0.0123(3) 0.3403(3)
H35 H 0.3228 0.0785 0.3137
H36 H 0.4044 -0.0006 0.3751
C33 C 0.1190(3) -0.1409(3) 0.0089(3)
C34 C 0.1647(4) -0.2645(4) 0.4579(3)
H37 H 0.2438 -0.2838 0.4491
H38 H 0.1075 -0.3038 0.4147
H39 H 0.1547 -0.2734 0.5283
C35 C 0.1873(4) 0.0719(4) 0.6099(3)
H40 H 0.1107 0.0941 0.5769
H41 H 0.2116 0.1097 0.6709
H42 H 0.1823 0.0042 0.6279
Cl1 Cl -0.37693(14) -0.19873(13) 0.58045(12)
Cl2 Cl -0.36553(15) 0.01332(15) 0.57452(15)
C36 C -0.4234(6) -0.0887(6) 0.6305(5)
H43 H -0.5098 -0.0855 0.6183
H44 H -0.3975 -0.0873 0.7041
O7 O -0.2942(3) -0.0594(3) 0.2318(3)
H45 H -0.2222 -0.0507 0.2469
C37 C -0.3503(5) -0.0297(5) 0.3118(5)
H46 H -0.4350 -0.0294 0.2900
H47 H -0.3241 0.0350 0.3327
H48 H -0.3310 -0.0739 0.3684
loop_
_geom_bond_atom_site_label_1
_geom_bond_atom_site_label_2
_geom_bond_site_symmetry_1
_geom_bond_site_symmetry_2
S1 C14 1_555 1_555
S2 C1 1_555 1_555
S3 C6 1_555 1_555
S4 C26 1_555 1_555
O1 H1 1_555 1_555
O2 C5 1_555 1_555
O3 H2 1_555 1_555
O4 C2 1_555 1_555
N1 C5 1_555 1_555
O5 C10 1_555 1_555
N2 H3 1_555 1_555
C1 C10 1_555 1_555
O6 C17 1_555 1_555
C2 C6 1_555 1_555
C3 H4 1_555 1_555
C4 H5 1_555 1_555
H6 C4 1_555 1_555
N3 C13 1_555 1_555
C5 C14 1_555 1_555
C6 N1 1_555 1_555
C7 N2 1_555 1_555
C8 C7 1_555 1_555
C9 C13 1_555 1_555
N4 C10 1_555 1_555
N5 C2 1_555 1_555
N6 C1 1_555 1_555
C11 N1 1_555 1_555
H7 C11 1_555 1_555
H8 C11 1_555 1_555
H9 C11 1_555 1_555
C12 C7 1_555 1_555
H10 C12 1_555 1_555
C13 C3 1_555 1_555
C14 C4 1_555 1_555
C15 N2 1_555 1_555
H11 C15 1_555 1_555
C16 N3 1_555 1_555
H12 C16 1_555 1_555
C17 N6 1_555 1_555
C18 C8 1_555 1_555
H13 C18 1_555 1_555
C19 O3 1_555 1_555
H14 C19 1_555 1_555
H15 C19 1_555 1_555
C20 S3 1_555 1_555
H16 C20 1_555 1_555
H17 C20 1_555 1_555
H18 C20 1_555 1_555
C21 H19 1_555 1_555
C22 N6 1_555 1_555
H20 C22 1_555 1_555
H21 C22 1_555 1_555
H22 C22 1_555 1_555
C23 C12 1_555 1_555
H23 C23 1_555 1_555
C24 C9 1_555 1_555
H24 C24 1_555 1_555
C25 C9 1_555 1_555
C26 H25 1_555 1_555
H26 C26 1_555 1_555
H27 C26 1_555 1_555
C27 S1 1_555 1_555
H28 C27 1_555 1_555
H29 C27 1_555 1_555
H30 C27 1_555 1_555
C28 C18 1_555 1_555
H31 C28 1_555 1_555
C29 S4 1_555 1_555
C30 O1 1_555 1_555
H32 C30 1_555 1_555
H33 C30 1_555 1_555
C31 C3 1_555 1_555
H34 C31 1_555 1_555
C32 C1 1_555 1_555
H35 C32 1_555 1_555
H36 C32 1_555 1_555
C33 C4 1_555 1_555
C34 N4 1_555 1_555
H37 C34 1_555 1_555
H38 C34 1_555 1_555
H39 C34 1_555 1_555
C35 S2 1_555 1_555
H40 C35 1_555 1_555
H41 C35 1_555 1_555
H42 C35 1_555 1_555
Cl1 C36 1_555 1_555
Cl2 C36 1_555 1_555
C36 H43 1_555 1_555
H44 C36 1_555 1_555
O7 H45 1_555 1_555
C37 O7 1_555 1_555
H46 C37 1_555 1_555
H47 C37 1_555 1_555
H48 C37 1_555 1_555
N3 C33 1_555 1_555
C6 C19 1_555 1_555
C8 C33 1_555 1_555
N4 C29 1_555 1_555
N5 C14 1_555 1_555
N5 C15 1_555 1_555
C15 C33 1_555 1_555
C16 C25 1_555 1_555
C17 C29 1_555 1_555
C21 C24 1_555 1_555
C21 C31 1_555 1_555
C23 C28 1_555 1_555
C25 C32 1_555 1_555
C29 C30 1_555 1_555

#END
