
#######################################################################
#
#                 Cambridge Crystallographic Data Centre
#                                CCDC 
#
#######################################################################
#
# If this CIF has been generated from an entry in the Cambridge 
# Structural Database, then it will include bibliographic, chemical, 
# crystal, experimental, refinement or atomic coordinate data resulting 
# from the CCDC's data processing and validation procedures.
#
#######################################################################

data_SERVAP
_chemical_formula_moiety         'C23 H20 O5 S1'
_chemical_name_systematic        
2-[(3-methoxyphenyl)methyl]-2-[(4-methylphenyl)sulfonyl]-1-benzofuran-3(2H)-one
_symmetry_cell_setting           orthorhombic
_symmetry_space_group_name_H-M   'P n a 21'
_symmetry_Int_Tables_number      33
_space_group_name_Hall           'P 2c -2n'
loop_
_symmetry_equiv_pos_site_id
_symmetry_equiv_pos_as_xyz
1 x,y,z
2 -x,-y,1/2+z
3 1/2+x,1/2-y,z
4 1/2-x,1/2+y,1/2+z
_cell_length_a                   18.8239(13)
_cell_length_b                   9.6682(6)
_cell_length_c                   22.0964(15)
_cell_angle_alpha                90
_cell_angle_beta                 90
_cell_angle_gamma                90
_cell_volume                     4021.4
_exptl_crystal_colour            colorless
_cell_formula_units_Z            8
loop_
_atom_site_label
_atom_site_type_symbol
_atom_site_fract_x
_atom_site_fract_y
_atom_site_fract_z
S1 S 0.50930(11) 0.24464(15) 0.39385(7)
O1 O 0.5128(3) 0.1425(4) 0.3472(2)
O2 O 0.4973(3) 0.2029(5) 0.4553(2)
O3 O 0.4298(2) 0.4591(4) 0.42225(16)
O4 O 0.4601(2) 0.3963(4) 0.26660(16)
C1 C 0.5845(3) 0.3482(5) 0.3902(3)
C2 C 0.6279(4) 0.3436(6) 0.3398(3)
H1 H 0.6164 0.2843 0.3069
C3 C 0.6866(4) 0.4236(7) 0.3373(3)
H2 H 0.7161 0.4193 0.3025
C4 C 0.7050(3) 0.5120(6) 0.3845(3)
C5 C 0.6614(3) 0.5167(6) 0.4348(3)
H3 H 0.6733 0.5767 0.4673
C6 C 0.6007(3) 0.4356(6) 0.4389(3)
H4 H 0.5710 0.4392 0.4737
C7 C 0.7703(4) 0.6012(8) 0.3815(3)
H5 H 0.8066 0.5550 0.3570
H6 H 0.7885 0.6166 0.4225
H7 H 0.7582 0.6903 0.3630
C8 C 0.4355(4) 0.3594(6) 0.3737(3)
C9 C 0.4522(3) 0.4447(5) 0.3162(2)
C10 C 0.4531(2) 0.5888(5) 0.3366(2)
C11 C 0.4647(2) 0.7123(5) 0.3056(2)
H8 H 0.4744 0.7128 0.2634
C12 C 0.4618(3) 0.8334(6) 0.3382(3)
H9 H 0.4691 0.9194 0.3183
C13 C 0.4483(3) 0.8306(6) 0.4003(3)
H10 H 0.4474 0.9156 0.4219
C14 C 0.4362(3) 0.7098(6) 0.4314(3)
H11 H 0.4258 0.7092 0.4735
C15 C 0.4400(3) 0.5882(5) 0.3978(2)
O5 O 0.1760(3) 0.5230(6) 0.4501(3)
C16 C 0.3753(4) 0.2667(8) 0.3696(4)
H12 H 0.3705 0.2127 0.4074
H13 H 0.3819 0.2013 0.3356
C17 C 0.3101(4) 0.3528(9) 0.3594(4)
C18 C 0.2891(4) 0.3907(8) 0.3009(3)
H14 H 0.3153 0.3590 0.2669
C19 C 0.2312(4) 0.4731(8) 0.2927(4)
H15 H 0.2179 0.4980 0.2527
C20 C 0.1904(4) 0.5223(9) 0.3411(4)
H16 H 0.1504 0.5805 0.3349
C21 C 0.2114(4) 0.4815(9) 0.3989(4)
C22 C 0.2697(4) 0.3988(9) 0.4076(4)
H17 H 0.2825 0.3726 0.4476
C23 C 0.1133(4) 0.6048(9) 0.4426(4)
H18 H 0.1249 0.6888 0.4198
H19 H 0.0945 0.6304 0.4824
H20 H 0.0775 0.5514 0.4205
S2 S 0.22187(7) 0.75559(13) 0.61343(7)
O7 O 0.2102(2) 0.8056(5) 0.5529(2)
O8 O 0.2272(2) 0.8521(4) 0.6620(2)
O9 O 0.14085(19) 0.5489(4) 0.58108(16)
O10 O 0.1664(2) 0.6000(4) 0.73862(17)
O11 O -0.1153(2) 0.5066(5) 0.53550(19)
C32 C 0.2961(3) 0.6457(5) 0.6139(2)
C33 C 0.3369(3) 0.6411(6) 0.6655(2)
H30 H 0.3251 0.6955 0.6999
C34 C 0.3961(3) 0.5544(6) 0.6661(2)
H31 H 0.4254 0.5501 0.7011
C35 C 0.4124(3) 0.4743(6) 0.6159(3)
C36 C 0.3703(3) 0.4830(6) 0.5647(2)
H32 H 0.3820 0.4293 0.5301
C37 C 0.3120(3) 0.5682(5) 0.5632(2)
H33 H 0.2831 0.5737 0.5280
C38 C 0.4767(3) 0.3800(8) 0.6168(4)
H34 H 0.4652 0.2953 0.6391
H35 H 0.5164 0.4274 0.6367
H36 H 0.4901 0.3565 0.5752
C39 C 0.1463(3) 0.6432(5) 0.6309(3)
C40 C 0.1502(2) 0.4169(5) 0.6034(2)
C41 C 0.1485(2) 0.2992(5) 0.5687(2)
H37 H 0.1406 0.3027 0.5262
C42 C 0.1590(3) 0.1755(5) 0.5987(3)
H38 H 0.1578 0.0917 0.5763
C43 C 0.1713(3) 0.1698(5) 0.6608(3)
H39 H 0.1787 0.0828 0.6797
C44 C 0.1729(3) 0.2878(5) 0.6949(2)
H40 H 0.1809 0.2842 0.7373
C45 C 0.1625(2) 0.4141(5) 0.6653(2)
C46 C 0.1594(3) 0.5547(5) 0.6873(2)
C47 C 0.0800(3) 0.7351(5) 0.6355(3)
H41 H 0.0837 0.7944 0.6719
H42 H 0.0773 0.7961 0.5996
C48 C 0.0133(3) 0.6484(6) 0.6394(3)
C49 C -0.0111(3) 0.6026(8) 0.6951(3)
H43 H 0.0133 0.6257 0.7313
C50 C -0.0714(3) 0.5230(9) 0.6966(3)
H44 H -0.0883 0.4918 0.7347
C51 C -0.1088(3) 0.4860(7) 0.6451(3)
H45 H -0.1501 0.4300 0.6476
C52 C -0.0843(3) 0.5324(6) 0.5902(3)
C53 C -0.0233(3) 0.6122(6) 0.5875(3)
H46 H -0.0062 0.6425 0.5493
C54 C -0.1753(3) 0.4169(7) 0.5357(3)
H47 H -0.1621 0.3280 0.5537
H48 H -0.1915 0.4021 0.4940
H49 H -0.2137 0.4589 0.5594
O6? O 0.2045(5) 0.6344(11) 0.2610(4)
C24? C 0.3472(9) 0.2950(18) 0.3667(8)
H21? H 0.3450 0.2406 0.3288
H22? H 0.3394 0.2293 0.4004
C25? C 0.2866(8) 0.3915(18) 0.3661(8)
C26? C 0.2453(9) 0.415(2) 0.4172(8)
H23? H 0.2566 0.3692 0.4539
C27? C 0.1888(9) 0.5036(19) 0.4156(9)
H24? H 0.1600 0.5109 0.4508
C28? C 0.1709(8) 0.5839(18) 0.3653(6)
H25? H 0.1325 0.6477 0.3654
C29? C 0.2143(8) 0.5620(16) 0.3150(6)
C30? C 0.2695(8) 0.4682(16) 0.3144(7)
H26? H 0.2962 0.4554 0.2783
C31? C 0.1522(8) 0.7425(14) 0.2581(8)
H27? H 0.1046 0.7015 0.2575
H28? H 0.1594 0.7971 0.2212
H29? H 0.1569 0.8025 0.2936
loop_
_geom_bond_atom_site_label_1
_geom_bond_atom_site_label_2
_geom_bond_site_symmetry_1
_geom_bond_site_symmetry_2
S1 O1 1_555 1_555
O2 S1 1_555 1_555
O3 C8 1_555 1_555
O4 C9 1_555 1_555
C1 S1 1_555 1_555
C2 C1 1_555 1_555
H1 C2 1_555 1_555
C3 C2 1_555 1_555
H2 C3 1_555 1_555
C4 C3 1_555 1_555
C5 C4 1_555 1_555
H3 C5 1_555 1_555
C6 C1 1_555 1_555
H4 C6 1_555 1_555
C7 C4 1_555 1_555
H5 C7 1_555 1_555
H6 C7 1_555 1_555
H7 C7 1_555 1_555
C8 S1 1_555 1_555
C9 C8 1_555 1_555
C10 C9 1_555 1_555
C11 C10 1_555 1_555
H8 C11 1_555 1_555
C12 C11 1_555 1_555
H9 C12 1_555 1_555
C13 C12 1_555 1_555
H10 C13 1_555 1_555
C14 C13 1_555 1_555
H11 C14 1_555 1_555
C15 O3 1_555 1_555
O5 C21 1_555 1_555
C16 C8 1_555 1_555
H12 C16 1_555 1_555
H13 C16 1_555 1_555
C17 C16 1_555 1_555
C18 C17 1_555 1_555
H14 C18 1_555 1_555
C19 C18 1_555 1_555
H15 C19 1_555 1_555
C20 C19 1_555 1_555
H16 C20 1_555 1_555
C21 C20 1_555 1_555
C22 C17 1_555 1_555
H17 C22 1_555 1_555
C23 O5 1_555 1_555
H18 C23 1_555 1_555
H19 C23 1_555 1_555
H20 C23 1_555 1_555
S2 O7 1_555 1_555
O8 S2 1_555 1_555
O9 C39 1_555 1_555
O10 C46 1_555 1_555
O11 C52 1_555 1_555
C32 S2 1_555 1_555
C33 C32 1_555 1_555
H30 C33 1_555 1_555
C34 C33 1_555 1_555
H31 C34 1_555 1_555
C35 C34 1_555 1_555
C36 C35 1_555 1_555
H32 C36 1_555 1_555
C37 C32 1_555 1_555
H33 C37 1_555 1_555
C38 C35 1_555 1_555
H34 C38 1_555 1_555
H35 C38 1_555 1_555
H36 C38 1_555 1_555
C39 S2 1_555 1_555
C40 O9 1_555 1_555
C41 C40 1_555 1_555
H37 C41 1_555 1_555
C42 C41 1_555 1_555
H38 C42 1_555 1_555
C43 C42 1_555 1_555
H39 C43 1_555 1_555
C44 C43 1_555 1_555
H40 C44 1_555 1_555
C45 C40 1_555 1_555
C46 C39 1_555 1_555
C47 C39 1_555 1_555
H41 C47 1_555 1_555
H42 C47 1_555 1_555
C48 C47 1_555 1_555
C49 C48 1_555 1_555
H43 C49 1_555 1_555
C50 C49 1_555 1_555
H44 C50 1_555 1_555
C51 C50 1_555 1_555
H45 C51 1_555 1_555
C52 C51 1_555 1_555
C53 C48 1_555 1_555
H46 C53 1_555 1_555
C54 O11 1_555 1_555
H47 C54 1_555 1_555
H48 C54 1_555 1_555
H49 C54 1_555 1_555
C5 C6 1_555 1_555
C10 C15 1_555 1_555
C14 C15 1_555 1_555
C21 C22 1_555 1_555
C36 C37 1_555 1_555
C44 C45 1_555 1_555
C45 C46 1_555 1_555
C52 C53 1_555 1_555

#END
