
#######################################################################
#
#                 Cambridge Crystallographic Data Centre
#                                CCDC 
#
#######################################################################
#
# If this CIF has been generated from an entry in the Cambridge 
# Structural Database, then it will include bibliographic, chemical, 
# crystal, experimental, refinement or atomic coordinate data resulting 
# from the CCDC's data processing and validation procedures.
#
#######################################################################

data_SERVET
_chemical_formula_moiety         'C19 H18 O5 S1'
_chemical_name_systematic        
3-[(4-methylphenyl)sulfonyl]-2-(2-oxopropyl)-2,3-dihydro-4H-1-benzopyran-4-one
_symmetry_cell_setting           monoclinic
_symmetry_space_group_name_H-M   'P 21/n'
_symmetry_Int_Tables_number      14
_space_group_name_Hall           '-P 2yn'
loop_
_symmetry_equiv_pos_site_id
_symmetry_equiv_pos_as_xyz
1 x,y,z
2 1/2-x,1/2+y,1/2-z
3 -x,-y,-z
4 1/2+x,1/2-y,1/2+z
_cell_length_a                   9.0256(3)
_cell_length_b                   13.2100(5)
_cell_length_c                   14.0834(5)
_cell_angle_alpha                90
_cell_angle_beta                 94.2250(10)
_cell_angle_gamma                90
_cell_volume                     1674.57
_exptl_crystal_colour            colorless
_cell_formula_units_Z            4
loop_
_atom_site_label
_atom_site_type_symbol
_atom_site_fract_x
_atom_site_fract_y
_atom_site_fract_z
S1 S 0.14253(4) 0.23409(3) -0.01510(3)
O1 O 0.06352(12) 0.28048(8) 0.20773(7)
O2 O 0.28677(12) 0.22976(9) 0.03569(8)
O3 O 0.05281(12) 0.14401(8) -0.02295(8)
O4 O 0.16752(12) 0.47799(8) -0.00088(7)
O5 O -0.30332(12) 0.29059(9) 0.00805(8)
C1 C 0.1762(2) 0.44834(15) -0.39153(13)
H1 H 0.1111 0.5075 -0.3890
H2 H 0.1419 0.4054 -0.4455
H3 H 0.2781 0.4707 -0.3993
C2 C 0.17240(19) 0.38888(12) -0.30026(11)
C3 C 0.04376(18) 0.33689(13) -0.27996(11)
H4 H -0.0397 0.3366 -0.3252
C4 C 0.03670(17) 0.28575(12) -0.19470(11)
H5 H -0.0515 0.2512 -0.1809
C5 C 0.16026(16) 0.28537(12) -0.12922(10)
C6 C 0.03285(16) 0.33055(11) 0.03921(10)
H6 H -0.0480 0.3517 -0.0091
C7 C -0.04085(16) 0.28867(12) 0.12547(10)
H7 H -0.0777 0.2190 0.1089
C8 C 0.14292(16) 0.36658(11) 0.23140(11)
C9 C 0.19438(17) 0.37812(12) 0.32656(11)
H8 H 0.1737 0.3283 0.3724
C10 C 0.27629(17) 0.46358(13) 0.35320(11)
H9 H 0.3123 0.4718 0.4178
C11 C 0.30669(17) 0.53752(12) 0.28698(12)
H10 H 0.3607 0.5965 0.3068
C12 C 0.25835(16) 0.52508(12) 0.19248(11)
H11 H 0.2807 0.5749 0.1471
C13 C 0.17600(15) 0.43863(11) 0.16331(10)
C14 C 0.12976(15) 0.42293(11) 0.06265(10)
C15 C -0.17406(16) 0.35197(12) 0.15063(10)
H12 H -0.2034 0.3310 0.2141
H13 H -0.1440 0.4240 0.1549
C16 C -0.30707(17) 0.34209(11) 0.07923(11)
C17 C -0.44290(17) 0.40039(13) 0.10136(11)
H14 H -0.4329 0.4709 0.0812
H15 H -0.4539 0.3982 0.1700
H16 H -0.5307 0.3702 0.0673
C18 C 0.29120(17) 0.33328(12) -0.14927(11)
H17 H 0.3761 0.3310 -0.1052
C19 C 0.29560(18) 0.38459(12) -0.23499(11)
H18 H 0.3848 0.4175 -0.2494
loop_
_geom_bond_atom_site_label_1
_geom_bond_atom_site_label_2
_geom_bond_site_symmetry_1
_geom_bond_site_symmetry_2
S1 O2 1_555 1_555
O1 C7 1_555 1_555
O3 S1 1_555 1_555
O4 C14 1_555 1_555
O5 C16 1_555 1_555
C1 H1 1_555 1_555
H2 C1 1_555 1_555
H3 C1 1_555 1_555
C2 C1 1_555 1_555
C3 C2 1_555 1_555
H4 C3 1_555 1_555
C4 C3 1_555 1_555
H5 C4 1_555 1_555
C5 S1 1_555 1_555
C6 S1 1_555 1_555
H6 C6 1_555 1_555
C7 C6 1_555 1_555
H7 C7 1_555 1_555
C8 O1 1_555 1_555
C9 C8 1_555 1_555
H8 C9 1_555 1_555
C10 C9 1_555 1_555
H9 C10 1_555 1_555
C11 C10 1_555 1_555
H10 C11 1_555 1_555
C12 C11 1_555 1_555
H11 C12 1_555 1_555
C13 C8 1_555 1_555
C14 C6 1_555 1_555
C15 C7 1_555 1_555
H12 C15 1_555 1_555
H13 C15 1_555 1_555
C16 C15 1_555 1_555
C17 C16 1_555 1_555
H14 C17 1_555 1_555
H15 C17 1_555 1_555
H16 C17 1_555 1_555
C18 C5 1_555 1_555
H17 C18 1_555 1_555
C19 C2 1_555 1_555
H18 C19 1_555 1_555
C4 C5 1_555 1_555
C12 C13 1_555 1_555
C13 C14 1_555 1_555
C18 C19 1_555 1_555

#END
