
#######################################################################
#
#                 Cambridge Crystallographic Data Centre
#                                CCDC 
#
#######################################################################
#
# If this CIF has been generated from an entry in the Cambridge 
# Structural Database, then it will include bibliographic, chemical, 
# crystal, experimental, refinement or atomic coordinate data resulting 
# from the CCDC's data processing and validation procedures.
#
#######################################################################

data_SERXIX
_chemical_formula_moiety         'C34 H42 N2 O11'
_chemical_name_systematic        
'5-[(2,4-diisobutoxy-5-nitrobenzoyl)-(2,4-dimethoxybenzyl)amino]-2,4-dimethoxybenzoic acid methyl ester'
_symmetry_cell_setting           triclinic
_symmetry_space_group_name_H-M   'P -1'
_symmetry_Int_Tables_number      2
_space_group_name_Hall           '-P 1'
loop_
_symmetry_equiv_pos_site_id
_symmetry_equiv_pos_as_xyz
1 x,y,z
2 -x,-y,-z
_cell_length_a                   10.9275(14)
_cell_length_b                   11.0354(11)
_cell_length_c                   14.5086(15)
_cell_angle_alpha                92.1930(10)
_cell_angle_beta                 100.377(2)
_cell_angle_gamma                96.8500(10)
_cell_volume                     1705.48
_exptl_crystal_colour            colorless
_cell_formula_units_Z            2
loop_
_atom_site_label
_atom_site_type_symbol
_atom_site_fract_x
_atom_site_fract_y
_atom_site_fract_z
C1 C 1.03043(19) 0.20694(18) 0.11177(14)
N1 N 1.01656(16) 0.14571(15) 0.18859(12)
O1 O 1.12506(15) 0.21347(16) 0.07748(12)
C2 C 0.91997(19) 0.26747(19) 0.06772(14)
C3 C 0.9223(2) 0.39373(19) 0.08077(14)
C4 C 0.8264(2) 0.4527(2) 0.03385(15)
H1 H 0.8295 0.5378 0.0434
C5 C 0.7256(2) 0.3864(2) -0.02732(15)
C6 C 0.7229(2) 0.2594(2) -0.03849(16)
C7 C 0.8195(2) 0.2017(2) 0.00921(15)
H2 H 0.8160 0.1163 0.0013
C8 C 0.90729(19) 0.14392(18) 0.22999(14)
C9 C 0.8164(2) 0.04035(19) 0.21292(15)
C10 C 0.7119(2) 0.0353(2) 0.25494(16)
H3 H 0.6517 -0.0345 0.2442
C11 C 0.69544(19) 0.13306(19) 0.31287(15)
C12 C 0.78357(19) 0.23906(18) 0.32780(14)
C13 C 0.88917(19) 0.24017(18) 0.28599(14)
H4 H 0.9500 0.3095 0.2967
C14 C 1.18309(19) 0.12331(19) 0.32528(15)
C15 C 1.16895(19) 0.06588(19) 0.40755(15)
C16 C 1.2397(2) 0.1119(2) 0.49304(16)
H5 H 1.2292 0.0727 0.5480
C17 C 1.3262(2) 0.2157(2) 0.49811(16)
C18 C 1.3414(2) 0.2750(2) 0.41826(18)
H6 H 1.3994 0.3459 0.4213
C19 C 1.2690(2) 0.2275(2) 0.33347(17)
H7 H 1.2787 0.2680 0.2789
O2 O 1.02289(14) 0.45052(13) 0.14140(11)
C20 C 1.0287(2) 0.5784(2) 0.16685(16)
H8 H 0.9564 0.5930 0.1952
H9 H 1.0272 0.6258 0.1110
C21 C 1.1491(2) 0.6166(2) 0.23624(16)
H10 H 1.2203 0.5984 0.2066
C22 C 1.1611(3) 0.7536(2) 0.2576(2)
H11 H 1.0916 0.7728 0.2863
H12 H 1.1599 0.7952 0.1998
H13 H 1.2395 0.7803 0.3005
C23 C 1.1525(2) 0.5470(2) 0.32478(17)
H14 H 1.0813 0.5612 0.3532
H15 H 1.2296 0.5752 0.3686
H16 H 1.1488 0.4603 0.3090
O3 O 0.63073(15) 0.43825(15) -0.07502(13)
C24 C 0.6352(2) 0.5694(2) -0.06996(19)
H17 H 0.7138 0.6072 -0.0860
H18 H 0.6318 0.5988 -0.0060
C25 C 0.5277(4) 0.6033(3) -0.1362(4)
C26 C 0.5264(3) 0.7410(3) -0.1291(3)
H19 H 0.6025 0.7816 -0.1456
H20 H 0.5217 0.7671 -0.0654
H21 H 0.4542 0.7620 -0.1719
C27 C 0.4560(8) 0.5369(5) -0.1978(5)
H22 H 0.4910 0.5363 -0.2547
H23 H 0.3754 0.5676 -0.2103
H24 H 0.4450 0.4544 -0.1771
N2 N 0.6219(2) 0.1823(2) -0.10003(15)
O4 O 0.6103(3) 0.0738(2) -0.0897(2)
O5 O 0.55275(19) 0.22598(19) -0.16076(16)
O6 O 0.83947(16) -0.04769(15) 0.15362(13)
C28 C 0.7465(3) -0.1505(3) 0.1264(3)
H25 H 0.7381 -0.1975 0.1806
H26 H 0.7710 -0.2014 0.0787
H27 H 0.6668 -0.1227 0.1015
O7 O 0.59650(14) 0.13164(14) 0.35703(12)
C29 C 0.5028(2) 0.0271(2) 0.3402(2)
H28 H 0.4658 0.0175 0.2739
H29 H 0.4381 0.0381 0.3765
H30 H 0.5409 -0.0454 0.3588
C30 C 0.7665(2) 0.3475(2) 0.38466(15)
O8 O 0.6888(2) 0.3567(2) 0.43041(18)
O9 O 0.85091(19) 0.44212(16) 0.37865(18)
C31 C 0.8403(3) 0.5550(2) 0.4281(3)
H31 H 0.7960 0.6071 0.3850
H32 H 0.9235 0.5963 0.4543
H33 H 0.7944 0.5377 0.4784
C32 C 1.1131(2) 0.0717(2) 0.23074(15)
H34 H 1.1730 0.0657 0.1885
H35 H 1.0731 -0.0112 0.2369
O10 O 1.08257(15) -0.03634(14) 0.39808(11)
C33 C 1.0937(3) -0.1164(2) 0.47343(18)
H36 H 1.1785 -0.1377 0.4867
H37 H 1.0349 -0.1901 0.4558
H38 H 1.0754 -0.0758 0.5289
O11 O 1.39169(16) 0.25150(16) 0.58624(12)
C34 C 1.4973(3) 0.3432(3) 0.5939(2)
H39 H 1.5539 0.3179 0.5546
H40 H 1.5407 0.3545 0.6587
H41 H 1.4691 0.4196 0.5735
loop_
_geom_bond_atom_site_label_1
_geom_bond_atom_site_label_2
_geom_bond_site_symmetry_1
_geom_bond_site_symmetry_2
C1 N1 1_555 1_555
N1 C8 1_555 1_555
O1 C1 1_555 1_555
C2 C1 1_555 1_555
C3 C2 1_555 1_555
C4 C3 1_555 1_555
H1 C4 1_555 1_555
C5 C4 1_555 1_555
C6 C5 1_555 1_555
C7 C2 1_555 1_555
H2 C7 1_555 1_555
C8 C9 1_555 1_555
C9 C10 1_555 1_555
C10 H3 1_555 1_555
C11 C10 1_555 1_555
C12 C11 1_555 1_555
C13 C8 1_555 1_555
H4 C13 1_555 1_555
C14 C15 1_555 1_555
C15 C16 1_555 1_555
C16 H5 1_555 1_555
C17 C16 1_555 1_555
C18 C17 1_555 1_555
H6 C18 1_555 1_555
C19 C14 1_555 1_555
H7 C19 1_555 1_555
O2 C3 1_555 1_555
C20 O2 1_555 1_555
H8 C20 1_555 1_555
H9 C20 1_555 1_555
C21 C20 1_555 1_555
H10 C21 1_555 1_555
C22 C21 1_555 1_555
H11 C22 1_555 1_555
H12 C22 1_555 1_555
H13 C22 1_555 1_555
C23 C21 1_555 1_555
H14 C23 1_555 1_555
H15 C23 1_555 1_555
H16 C23 1_555 1_555
O3 C5 1_555 1_555
C24 O3 1_555 1_555
H17 C24 1_555 1_555
H18 C24 1_555 1_555
C25 C24 1_555 1_555
C26 C25 1_555 1_555
H19 C26 1_555 1_555
H20 C26 1_555 1_555
H21 C26 1_555 1_555
C27 C25 1_555 1_555
H22 C27 1_555 1_555
H23 C27 1_555 1_555
H24 C27 1_555 1_555
N2 C6 1_555 1_555
O4 N2 1_555 1_555
O5 N2 1_555 1_555
O6 C9 1_555 1_555
C28 O6 1_555 1_555
H25 C28 1_555 1_555
H26 C28 1_555 1_555
H27 C28 1_555 1_555
O7 C11 1_555 1_555
C29 O7 1_555 1_555
H28 C29 1_555 1_555
H29 C29 1_555 1_555
H30 C29 1_555 1_555
C30 C12 1_555 1_555
O8 C30 1_555 1_555
O9 C30 1_555 1_555
C31 O9 1_555 1_555
H31 C31 1_555 1_555
H32 C31 1_555 1_555
H33 C31 1_555 1_555
C32 N1 1_555 1_555
H34 C32 1_555 1_555
H35 C32 1_555 1_555
O10 C15 1_555 1_555
C33 O10 1_555 1_555
H36 C33 1_555 1_555
H37 C33 1_555 1_555
H38 C33 1_555 1_555
O11 C17 1_555 1_555
C34 O11 1_555 1_555
H39 C34 1_555 1_555
H40 C34 1_555 1_555
H41 C34 1_555 1_555
C6 C7 1_555 1_555
C12 C13 1_555 1_555
C14 C32 1_555 1_555
C18 C19 1_555 1_555

#END
