
#######################################################################
#
#                 Cambridge Crystallographic Data Centre
#                                CCDC 
#
#######################################################################
#
# If this CIF has been generated from an entry in the Cambridge 
# Structural Database, then it will include bibliographic, chemical, 
# crystal, experimental, refinement or atomic coordinate data resulting 
# from the CCDC's data processing and validation procedures.
#
#######################################################################

data_SERZIB
_chemical_formula_moiety         'C14 H6 N6 O12,C10 H8 N2'
_chemical_name_systematic        
"1,1'-(ethene-1,2-diyl)bis(2,4,6-trinitrobenzene) 4,4'-bipyridine"
_symmetry_cell_setting           monoclinic
_symmetry_space_group_name_H-M   'C 2/c'
_symmetry_Int_Tables_number      15
_space_group_name_Hall           '-C 2yn'
loop_
_symmetry_equiv_pos_site_id
_symmetry_equiv_pos_as_xyz
1 x,y,z
2 -x,y,1/2-z
3 1/2+x,1/2+y,z
4 1/2-x,1/2+y,1/2-z
5 -x,-y,-z
6 x,-y,1/2+z
7 1/2-x,1/2-y,-z
8 1/2+x,1/2-y,1/2+z
_cell_length_a                   30.2383(12)
_cell_length_b                   5.5203(2)
_cell_length_c                   14.8056(6)
_cell_angle_alpha                90
_cell_angle_beta                 85.282(4)
_cell_angle_gamma                90
_cell_volume                     2463.04
_exptl_crystal_colour            yellow
_exptl_crystal_description       needle
_cell_formula_units_Z            4
loop_
_atom_site_label
_atom_site_type_symbol
_atom_site_fract_x
_atom_site_fract_y
_atom_site_fract_z
C1 C 0.30139(6) -0.2318(3) 0.06749(13)
C2 C 0.30642(6) -0.1139(3) 0.14968(13)
C3 C 0.33748(6) -0.1791(4) 0.20870(13)
H1 H 0.340194 -0.093996 0.262169
C4 C 0.36431(6) -0.3753(4) 0.18528(13)
C5 C 0.36170(6) -0.5038(4) 0.10615(13)
H2 H 0.379625 -0.637718 0.092123
C6 C 0.33109(6) -0.4234(3) 0.04873(12)
C7 C 0.26670(6) -0.1756(3) 0.00490(13)
H3 H 0.268625 -0.032152 -0.028103
N1 N 0.27808(5) 0.0958(3) 0.17797(12)
O1 O 0.25343(6) 0.1779(3) 0.12494(12)
O2 O 0.28145(6) 0.1782(3) 0.25339(12)
N2 N 0.39834(6) -0.4442(4) 0.24560(12)
O3 O 0.41055(5) -0.2910(3) 0.29765(11)
O4 O 0.41242(7) -0.6511(4) 0.24013(13)
N3 N 0.33292(5) -0.5416(3) -0.04078(11)
O5 O 0.33366(5) -0.4110(3) -0.10742(10)
O6 O 0.33526(5) -0.7631(3) -0.04285(11)
C1F C 0.19861(6) -0.2682(3) -0.06749(13)
C2F C 0.19358(6) -0.3861(3) -0.14968(13)
C3F C 0.16252(6) -0.3209(4) -0.20870(13)
H1F H 0.159806 -0.406004 -0.262169
C4F C 0.13569(6) -0.1247(4) -0.18528(13)
C5F C 0.13830(6) 0.0038(4) -0.10615(13)
H2F H 0.120375 0.137718 -0.092123
C6F C 0.16891(6) -0.0766(3) -0.04873(12)
C7F C 0.23330(6) -0.3244(3) -0.00490(13)
H3F H 0.231375 -0.467848 0.028103
N1F N 0.22192(5) -0.5958(3) -0.17797(12)
O1F O 0.24657(6) -0.6779(3) -0.12494(12)
O2F O 0.21855(6) -0.6782(3) -0.25339(12)
N2F N 0.10166(6) -0.0558(4) -0.24560(12)
O3F O 0.08945(5) -0.2090(3) -0.29765(11)
O4F O 0.08758(7) 0.1511(4) -0.24013(13)
N3F N 0.16708(5) 0.0416(3) 0.04078(11)
O5F O 0.16634(5) -0.0890(3) 0.10742(10)
O6F O 0.16474(5) 0.2631(3) 0.04285(11)
N4 N 0.42754(6) 0.0041(3) 0.04822(15)
C8 C 0.42660(8) -0.1259(4) -0.02692(18)
H4 H 0.406392 -0.081682 -0.068044
C9 C 0.45372(7) -0.3230(4) -0.04807(17)
H5 H 0.451233 -0.406844 -0.101891
C10 C 0.48469(6) -0.3963(4) 0.01070(14)
C11 C 0.48543(7) -0.2619(4) 0.08963(16)
H6 H 0.505037 -0.302865 0.132382
C12 C 0.45711(8) -0.0674(4) 0.10485(17)
H7 H 0.458742 0.019792 0.158221
N4D N 0.57246(6) -1.0041(3) -0.04822(15)
C8D C 0.57340(8) -0.8741(4) 0.02692(18)
H4D H 0.593608 -0.918318 0.068044
C9D C 0.54628(7) -0.6770(4) 0.04807(17)
H5D H 0.548767 -0.593156 0.101891
C10D C 0.51531(6) -0.6037(4) -0.01070(14)
C11D C 0.51457(7) -0.7381(4) -0.08963(16)
H6D H 0.494963 -0.697135 -0.132382
C12D C 0.54289(8) -0.9326(4) -0.10485(17)
H7D H 0.541258 -1.019792 -0.158221
loop_
_geom_bond_atom_site_label_1
_geom_bond_atom_site_label_2
_geom_bond_site_symmetry_1
_geom_bond_site_symmetry_2
C1 C2 1_555 1_555
C2 C3 1_555 1_555
C3 H1 1_555 1_555
C4 C3 1_555 1_555
C5 C4 1_555 1_555
H2 C5 1_555 1_555
C6 C1 1_555 1_555
C7 C1 1_555 1_555
H3 C7 1_555 1_555
N1 C2 1_555 1_555
O1 N1 1_555 1_555
O2 N1 1_555 1_555
N2 C4 1_555 1_555
O3 N2 1_555 1_555
O4 N2 1_555 1_555
N3 C6 1_555 1_555
O5 N3 1_555 1_555
O6 N3 1_555 1_555
N4 C8 1_555 1_555
C8 H4 1_555 1_555
C9 C8 1_555 1_555
H5 C9 1_555 1_555
C10 C9 1_555 1_555
C11 C10 1_555 1_555
H6 C11 1_555 1_555
C12 N4 1_555 1_555
H7 C12 1_555 1_555
C1F C2F 1_555 1_555
C2F C3F 1_555 1_555
C3F H1F 1_555 1_555
C4F C3F 1_555 1_555
C5F C4F 1_555 1_555
H2F C5F 1_555 1_555
C6F C1F 1_555 1_555
C7F C7 1_555 1_555
H3F C7F 1_555 1_555
N1F C2F 1_555 1_555
O1F N1F 1_555 1_555
O2F N1F 1_555 1_555
N2F C4F 1_555 1_555
O3F N2F 1_555 1_555
O4F N2F 1_555 1_555
N3F C6F 1_555 1_555
O5F N3F 1_555 1_555
O6F N3F 1_555 1_555
N4D C8D 1_555 1_555
C8D H4D 1_555 1_555
C9D C8D 1_555 1_555
H5D C9D 1_555 1_555
C10D C10 1_555 1_555
C11D C10D 1_555 1_555
H6D C11D 1_555 1_555
C12D N4D 1_555 1_555
H7D C12D 1_555 1_555
C5 C6 1_555 1_555
C11 C12 1_555 1_555
C1F C7F 1_555 1_555
C5F C6F 1_555 1_555
C9D C10D 1_555 1_555
C11D C12D 1_555 1_555

#END
