
#######################################################################
#
#                 Cambridge Crystallographic Data Centre
#                                CCDC 
#
#######################################################################
#
# If this CIF has been generated from an entry in the Cambridge 
# Structural Database, then it will include bibliographic, chemical, 
# crystal, experimental, refinement or atomic coordinate data resulting 
# from the CCDC's data processing and validation procedures.
#
#######################################################################

data_SERZEU13
_chemical_formula_moiety         'C12 H8 N2 S1'
_chemical_name_systematic        2-(Pyridin-2-yl)-1,3-benzothiazole
_symmetry_cell_setting           orthorhombic
_symmetry_space_group_name_H-M   'P c a 21'
_symmetry_Int_Tables_number      29
_space_group_name_Hall           'P 2c -2ac'
loop_
_symmetry_equiv_pos_site_id
_symmetry_equiv_pos_as_xyz
1 x,y,z
2 -x,-y,1/2+z
3 1/2+x,-y,z
4 1/2-x,y,1/2+z
_cell_length_a                   13.7445(6)
_cell_length_b                   13.0249(6)
_cell_length_c                   11.0599(5)
_cell_angle_alpha                90
_cell_angle_beta                 90
_cell_angle_gamma                90
_cell_volume                     1979.95
_exptl_crystal_colour            colorless
_exptl_crystal_description       block
_cell_formula_units_Z            8
loop_
_atom_site_label
_atom_site_type_symbol
_atom_site_fract_x
_atom_site_fract_y
_atom_site_fract_z
S1 S 0.05319(5) 0.36121(5) 0.42170(8)
N1 N 0.03761(19) 0.4153(2) 0.6481(2)
N2 N -0.0761(2) 0.1989(2) 0.5062(3)
C1 C 0.0108(2) 0.3466(2) 0.5696(3)
C2 C -0.0530(2) 0.2594(2) 0.6000(3)
C3 C -0.1338(3) 0.1191(3) 0.5305(4)
H1 H -0.1519 0.0758 0.4652
C4 C -0.1687(2) 0.0954(3) 0.6430(4)
H2 H -0.2087 0.0368 0.6545
C5 C -0.1450(2) 0.1582(3) 0.7401(3)
H3 H -0.1686 0.1437 0.8190
C6 C -0.0859(2) 0.2431(2) 0.7188(3)
H4 H -0.0684 0.2884 0.7824
C7 C 0.1160(2) 0.4713(2) 0.4681(3)
C8 C 0.1741(2) 0.5377(3) 0.4008(3)
H5 H 0.1860 0.5262 0.3173
C9 C 0.2140(2) 0.6215(2) 0.4608(3)
H6 H 0.2553 0.6675 0.4182
C10 C 0.1941(2) 0.6389(2) 0.5832(4)
H7 H 0.2208 0.6977 0.6216
C11 C 0.1368(2) 0.5729(3) 0.6496(3)
H8 H 0.1244 0.5853 0.7328
C12 C 0.0974(2) 0.4869(2) 0.5915(3)
S2 S 0.22303(4) 0.12148(4) 0.41662(7)
N3 N 0.19375(16) 0.18506(17) 0.6374(2)
N4 N 0.0891(2) -0.04064(19) 0.5020(2)
C13 C 0.17019(18) 0.1134(2) 0.5603(2)
C14 C 0.10684(19) 0.02642(19) 0.5917(3)
C15 C 0.0349(3) -0.1232(2) 0.5292(3)
H9 H 0.0215 -0.1711 0.4666
C16 C -0.0027(2) -0.1425(2) 0.6433(3)
H10 H -0.0399 -0.2026 0.6587
C17 C 0.0154(2) -0.0719(2) 0.7339(3)
H11 H -0.0100 -0.0823 0.8129
C18 C 0.0709(2) 0.0141(2) 0.7081(3)
H12 H 0.0841 0.0637 0.7689
C19 C 0.28448(18) 0.23118(19) 0.4643(2)
C20 C 0.35107(18) 0.29281(19) 0.4018(3)
H13 H 0.3695 0.2769 0.3212
C21 C 0.3890(2) 0.3769(2) 0.4603(3)
H14 H 0.4337 0.4200 0.4188
C22 C 0.3632(2) 0.4007(2) 0.5801(3)
H15 H 0.3910 0.4589 0.6186
C23 C 0.29753(19) 0.3399(2) 0.6422(3)
H16 H 0.2793 0.3565 0.7227
C24 C 0.25840(19) 0.25357(19) 0.5843(2)
loop_
_geom_bond_atom_site_label_1
_geom_bond_atom_site_label_2
_geom_bond_site_symmetry_1
_geom_bond_site_symmetry_2
S1 C1 1_555 1_555
N1 C1 1_555 1_555
N2 C2 1_555 1_555
C1 C2 1_555 1_555
C2 C6 1_555 1_555
C3 N2 1_555 1_555
H1 C3 1_555 1_555
C4 C3 1_555 1_555
H2 C4 1_555 1_555
C5 C4 1_555 1_555
H3 C5 1_555 1_555
C6 C5 1_555 1_555
H4 C6 1_555 1_555
C7 S1 1_555 1_555
C8 C7 1_555 1_555
H5 C8 1_555 1_555
C9 C8 1_555 1_555
H6 C9 1_555 1_555
C10 C9 1_555 1_555
H7 C10 1_555 1_555
C11 C10 1_555 1_555
H8 C11 1_555 1_555
C12 N1 1_555 1_555
S2 C13 1_555 1_555
N3 C13 1_555 1_555
N4 C14 1_555 1_555
C13 C14 1_555 1_555
C14 C18 1_555 1_555
C15 N4 1_555 1_555
H9 C15 1_555 1_555
C16 C15 1_555 1_555
H10 C16 1_555 1_555
C17 C16 1_555 1_555
H11 C17 1_555 1_555
C18 C17 1_555 1_555
H12 C18 1_555 1_555
C19 S2 1_555 1_555
C20 C19 1_555 1_555
H13 C20 1_555 1_555
C21 C20 1_555 1_555
H14 C21 1_555 1_555
C22 C21 1_555 1_555
H15 C22 1_555 1_555
C23 C22 1_555 1_555
H16 C23 1_555 1_555
C24 N3 1_555 1_555
C7 C12 1_555 1_555
C11 C12 1_555 1_555
C19 C24 1_555 1_555
C23 C24 1_555 1_555

#END
