
#######################################################################
#
#                 Cambridge Crystallographic Data Centre
#                                CCDC 
#
#######################################################################
#
# If this CIF has been generated from an entry in the Cambridge 
# Structural Database, then it will include bibliographic, chemical, 
# crystal, experimental, refinement or atomic coordinate data resulting 
# from the CCDC's data processing and validation procedures.
#
#######################################################################

data_SESCUQ
_chemical_formula_moiety         'C16 H14 O7,C3 H6 O1'
_chemical_name_systematic        
'6,11-Dihydroxy-9,14,17-trioxapentacyclo[11.3.3.0^1,13^.0^2,11^.0^3,8^]nonadeca-3,5,7-triene-15,18-dione acetone solvate'
_symmetry_cell_setting           monoclinic
_symmetry_space_group_name_H-M   'P 21'
_symmetry_Int_Tables_number      4
_space_group_name_Hall           'P 2yb'
loop_
_symmetry_equiv_pos_site_id
_symmetry_equiv_pos_as_xyz
1 x,y,z
2 -x,1/2+y,-z
_cell_length_a                   10.9939(2)
_cell_length_b                   6.73910(10)
_cell_length_c                   12.6864(3)
_cell_angle_alpha                90
_cell_angle_beta                 111.3280(10)
_cell_angle_gamma                90
_cell_volume                     875.551
_exptl_crystal_colour            colorless
_exptl_crystal_description       prism
_cell_formula_units_Z            2
loop_
_atom_site_label
_atom_site_type_symbol
_atom_site_fract_x
_atom_site_fract_y
_atom_site_fract_z
O1 O 0.27933(12) 0.0619(2) -0.10659(9)
H1 H 0.2399 0.1691 -0.1304
O2 O 0.99624(12) 0.1142(2) 0.66176(9)
O3 O 0.63448(12) 0.3139(2) 0.52469(9)
H2 H 0.6719 0.4193 0.5549
O4 O 0.43703(11) 0.44199(19) 0.23077(9)
O5 O 0.76138(10) -0.08111(19) 0.31267(9)
O6 O 0.83801(11) -0.0738(2) 0.17274(9)
O7 O 0.91884(11) 0.26644(19) 0.49489(9)
C1 C 0.35238(15) 0.0793(3) 0.00573(13)
C2 C 0.41695(15) -0.0898(3) 0.06212(13)
H3 H 0.4088 -0.2118 0.0225
C3 C 0.49271(15) -0.0789(3) 0.17570(13)
H4 H 0.5358 -0.1951 0.2135
C4 C 0.50813(15) 0.0989(3) 0.23729(13)
C5 C 0.59310(15) 0.1087(3) 0.36224(13)
H5 H 0.5545 0.0232 0.4065
C6 C 0.73879(16) 0.0538(3) 0.39231(13)
C7 C 0.80766(16) -0.0243(3) 0.51189(13)
H6 H 0.7467 -0.0289 0.5532
H7 H 0.8421 -0.1595 0.5102
C8 C 0.91746(15) 0.1188(3) 0.56777(13)
C9 C 0.81117(15) 0.2497(3) 0.38683(13)
C10 C 0.71346(16) 0.4153(3) 0.37370(13)
H8 H 0.6792 0.4646 0.2948
H9 H 0.7547 0.5273 0.4247
C11 C 0.60324(16) 0.3240(3) 0.40524(13)
C12 C 0.47418(16) 0.4315(3) 0.35118(13)
H10 H 0.4056 0.3610 0.3698
H11 H 0.4818 0.5674 0.3825
C13 C 0.43765(15) 0.2624(3) 0.17957(13)
C14 C 0.36214(16) 0.2554(3) 0.06473(14)
H12 H 0.3175 0.3706 0.0269
C15 C 0.86302(16) 0.2166(3) 0.29235(14)
H13 H 0.8251 0.3143 0.2308
H14 H 0.9593 0.2289 0.3212
C16 C 0.82184(15) 0.0101(3) 0.25086(13)
O8 O 0.20770(13) 0.1003(2) 0.32919(10)
C17 C 0.0817(2) 0.2130(4) 0.14514(17)
H15 H 0.0793 0.3373 0.1845
H16 H -0.0077 0.1661 0.1050
H17 H 0.1247 0.2359 0.0908
C18 C 0.15609(17) 0.0602(3) 0.22947(15)
C19 C 0.1629(2) -0.1443(4) 0.18624(16)
H18 H 0.0776 -0.2088 0.1661
H19 H 0.2287 -0.2218 0.2451
H20 H 0.1870 -0.1363 0.1192
loop_
_geom_bond_atom_site_label_1
_geom_bond_atom_site_label_2
_geom_bond_site_symmetry_1
_geom_bond_site_symmetry_2
O1 H1 1_555 1_555
O2 C8 1_555 1_555
O3 H2 1_555 1_555
O4 C12 1_555 1_555
O5 C6 1_555 1_555
O6 C16 1_555 1_555
O7 C8 1_555 1_555
C1 O1 1_555 1_555
C2 C1 1_555 1_555
H3 C2 1_555 1_555
C3 C2 1_555 1_555
H4 C3 1_555 1_555
C4 C3 1_555 1_555
C5 C4 1_555 1_555
H5 C5 1_555 1_555
C6 C5 1_555 1_555
C7 C6 1_555 1_555
H6 C7 1_555 1_555
H7 C7 1_555 1_555
C8 C7 1_555 1_555
C9 O7 1_555 1_555
C10 C9 1_555 1_555
H8 C10 1_555 1_555
H9 C10 1_555 1_555
C11 O3 1_555 1_555
C12 C11 1_555 1_555
H10 C12 1_555 1_555
H11 C12 1_555 1_555
C13 O4 1_555 1_555
C14 C1 1_555 1_555
H12 C14 1_555 1_555
C15 C9 1_555 1_555
H13 C15 1_555 1_555
H14 C15 1_555 1_555
C16 O5 1_555 1_555
O8 C18 1_555 1_555
C17 H15 1_555 1_555
H16 C17 1_555 1_555
H17 C17 1_555 1_555
C18 C17 1_555 1_555
C19 C18 1_555 1_555
H18 C19 1_555 1_555
H19 C19 1_555 1_555
H20 C19 1_555 1_555
C4 C13 1_555 1_555
C5 C11 1_555 1_555
C6 C9 1_555 1_555
C10 C11 1_555 1_555
C13 C14 1_555 1_555
C15 C16 1_555 1_555

#END
