
#######################################################################
#
#                 Cambridge Crystallographic Data Centre
#                                CCDC 
#
#######################################################################
#
# If this CIF has been generated from an entry in the Cambridge 
# Structural Database, then it will include bibliographic, chemical, 
# crystal, experimental, refinement or atomic coordinate data resulting 
# from the CCDC's data processing and validation procedures.
#
#######################################################################

data_SESCOK
_chemical_formula_moiety         'C23 H18 O8'
_chemical_name_systematic        
'11-Hydroxy-15,18-dioxo-9,14,17-trioxapentacyclo[11.3.3.0^1,13^.0^2,11^.0^3,8^]nonadeca-3,5,7-trien-6-yl benzoate'
_symmetry_cell_setting           monoclinic
_symmetry_space_group_name_H-M   'P 21/c'
_symmetry_Int_Tables_number      14
_space_group_name_Hall           '-P 2ybc'
loop_
_symmetry_equiv_pos_site_id
_symmetry_equiv_pos_as_xyz
1 x,y,z
2 -x,1/2+y,1/2-z
3 -x,-y,-z
4 x,1/2-y,1/2+z
_cell_length_a                   19.082(4)
_cell_length_b                   8.1761(16)
_cell_length_c                   12.919(3)
_cell_angle_alpha                90
_cell_angle_beta                 105.231(3)
_cell_angle_gamma                90
_cell_volume                     1944.78
_exptl_crystal_colour            colorless
_exptl_crystal_description       prism
_cell_formula_units_Z            4
loop_
_atom_site_label
_atom_site_type_symbol
_atom_site_fract_x
_atom_site_fract_y
_atom_site_fract_z
O1 O 0.72045(7) 0.70227(15) 0.61971(10)
O2 O 0.59377(6) 0.25536(15) 1.04773(9)
O3 O 1.00694(6) 0.74292(14) 0.87580(9)
O4 O 0.90067(5) 0.65371(12) 0.89244(8)
O5 O 0.81826(6) 0.54207(14) 0.65533(8)
O6 O 0.77340(6) 0.07735(14) 0.87843(10)
O7 O 0.65744(6) 0.14696(16) 1.20430(10)
O8 O 0.95768(6) 0.22683(14) 0.89687(9)
H1 H 0.9735 0.2189 0.9638
C1 C 0.76535(8) 0.62773(19) 0.68439(12)
C2 C 0.77363(8) 0.61154(18) 0.80361(12)
H2 H 0.7729 0.7204 0.8369
H3 H 0.7340 0.5440 0.8176
C3 C 0.84640(7) 0.52935(17) 0.84734(11)
C4 C 0.85409(7) 0.38325(17) 0.92660(11)
H4 H 0.8937 0.4101 0.9922
C5 C 0.78628(7) 0.34462(17) 0.96150(11)
C6 C 0.75842(8) 0.45913(18) 1.02015(12)
H5 H 0.7835 0.5594 1.0400
C7 C 0.69489(8) 0.4300(2) 1.05026(12)
H6 H 0.6761 0.5089 1.0898
C8 C 0.65983(8) 0.2830(2) 1.02096(12)
C9 C 0.59998(8) 0.18731(19) 1.14572(12)
C10 C 0.52884(8) 0.17464(18) 1.17149(12)
C11 C 0.46403(8) 0.2205(2) 1.09916(13)
H7 H 0.4638 0.2553 1.0289
C12 C 0.39970(8) 0.2152(2) 1.13000(14)
H8 H 0.3554 0.2480 1.0813
C13 C 0.40023(8) 0.1618(2) 1.23234(13)
H9 H 0.3563 0.1596 1.2538
C14 C 0.95579(8) 0.65211(18) 0.84490(12)
C15 C 0.86703(8) 0.46330(18) 0.74646(11)
C16 C 0.94350(8) 0.52591(19) 0.75753(12)
H10 H 0.9793 0.4360 0.7774
H11 H 0.9477 0.5753 0.6895
C17 C 0.85521(8) 0.27991(18) 0.74960(12)
H12 H 0.8846 0.2209 0.7088
H13 H 0.8034 0.2519 0.7195
C18 C 0.88013(8) 0.23768(18) 0.86891(12)
C19 C 0.74914(8) 0.19724(18) 0.93505(12)
C20 C 0.85064(8) 0.07604(19) 0.89740(13)
H14 H 0.8646 -0.0123 0.8544
H15 H 0.8730 0.0517 0.9740
C21 C 0.68530(8) 0.16569(19) 0.96430(12)
H16 H 0.6600 0.0654 0.9455
C22 C 0.46441(9) 0.1118(2) 1.30306(13)
H17 H 0.4642 0.0729 1.3722
C23 C 0.52910(8) 0.1185(2) 1.27332(12)
H18 H 0.5732 0.0849 1.3221
loop_
_geom_bond_atom_site_label_1
_geom_bond_atom_site_label_2
_geom_bond_site_symmetry_1
_geom_bond_site_symmetry_2
O1 C1 1_555 1_555
O2 C8 1_555 1_555
O3 C14 1_555 1_555
O4 C3 1_555 1_555
O5 C1 1_555 1_555
O6 C19 1_555 1_555
O7 C9 1_555 1_555
O8 H1 1_555 1_555
C1 C2 1_555 1_555
C2 H2 1_555 1_555
H3 C2 1_555 1_555
C3 C2 1_555 1_555
C4 C3 1_555 1_555
H4 C4 1_555 1_555
C5 C4 1_555 1_555
C6 C5 1_555 1_555
H5 C6 1_555 1_555
C7 C6 1_555 1_555
H6 C7 1_555 1_555
C8 C7 1_555 1_555
C9 O2 1_555 1_555
C10 C9 1_555 1_555
C11 C10 1_555 1_555
H7 C11 1_555 1_555
C12 C11 1_555 1_555
H8 C12 1_555 1_555
C13 C12 1_555 1_555
H9 C13 1_555 1_555
C14 O4 1_555 1_555
C15 O5 1_555 1_555
C16 C14 1_555 1_555
H10 C16 1_555 1_555
H11 C16 1_555 1_555
C17 C15 1_555 1_555
H12 C17 1_555 1_555
H13 C17 1_555 1_555
C18 O8 1_555 1_555
C19 C5 1_555 1_555
C20 O6 1_555 1_555
H14 C20 1_555 1_555
H15 C20 1_555 1_555
C21 C8 1_555 1_555
H16 C21 1_555 1_555
C22 C13 1_555 1_555
H17 C22 1_555 1_555
C23 C10 1_555 1_555
H18 C23 1_555 1_555
C3 C15 1_555 1_555
C4 C18 1_555 1_555
C15 C16 1_555 1_555
C17 C18 1_555 1_555
C18 C20 1_555 1_555
C19 C21 1_555 1_555
C22 C23 1_555 1_555

#END
