
#######################################################################
#
#                 Cambridge Crystallographic Data Centre
#                                CCDC 
#
#######################################################################
#
# If this CIF has been generated from an entry in the Cambridge 
# Structural Database, then it will include bibliographic, chemical, 
# crystal, experimental, refinement or atomic coordinate data resulting 
# from the CCDC's data processing and validation procedures.
#
#######################################################################

data_SESDAY
_chemical_formula_moiety         'C38 H34 B1 N5 O4'
_chemical_name_systematic        
'4-{4-[6,6-bis(2,4,6-trimethylphenyl)-6H-pyrido[1,2-b][2,1]benzazaborol-3-yl]-1H-1,2,3-triazol-1-yl}pyridine-2,6-dicarboxylic acid unknown solvate'
_symmetry_cell_setting           triclinic
_symmetry_space_group_name_H-M   'P -1'
_symmetry_Int_Tables_number      2
_space_group_name_Hall           '-P 1'
loop_
_symmetry_equiv_pos_site_id
_symmetry_equiv_pos_as_xyz
1 x,y,z
2 -x,-y,-z
_cell_length_a                   10.0836(12)
_cell_length_b                   11.0729(14)
_cell_length_c                   18.122(2)
_cell_angle_alpha                99.580(4)
_cell_angle_beta                 97.797(4)
_cell_angle_gamma                110.084(4)
_cell_volume                     1832.8
_exptl_crystal_colour            colorless
_exptl_crystal_description       Block
_cell_formula_units_Z            2
loop_
_atom_site_label
_atom_site_type_symbol
_atom_site_fract_x
_atom_site_fract_y
_atom_site_fract_z
O1 O 0.6663(3) -0.2069(2) 0.48033(12)
H1 H 1.213(3) 0.406(3) 0.6834(16)
N1 N 0.2235(2) 0.4228(2) 0.25777(11)
C1 C 0.0982(3) 0.5383(3) 0.19022(15)
B1 B 0.0983(3) 0.3889(3) 0.17888(17)
O2 O 0.8722(3) -0.1335(2) 0.56253(13)
N2 N 0.3929(2) 0.1609(2) 0.34661(12)
C2 C 0.0128(3) 0.5924(3) 0.15071(18)
H2 H -0.0592 0.5389 0.1086
O3 O 1.1123(2) 0.4558(2) 0.57365(14)
N3 N 0.4716(2) 0.1047(2) 0.37926(12)
C3 C 0.0333(4) 0.7244(3) 0.1730(2)
H3 H -0.0238 0.7585 0.1450
O4 O 1.1328(2) 0.3237(2) 0.64991(12)
N4 N 0.5915(2) 0.2042(2) 0.42415(11)
C4 C 0.1368(4) 0.8059(3) 0.2359(2)
H4 H 0.1506 0.8948 0.2495
N5 N 0.9106(2) 0.1200(2) 0.55501(11)
C5 C 0.2203(3) 0.7559(3) 0.27907(19)
H5 H 0.2894 0.8096 0.3223
C6 C 0.1978(3) 0.6231(3) 0.25583(16)
H6 H 0.953(4) -0.053(4) 0.590(2)
C7 C 0.2749(3) 0.5529(3) 0.29319(15)
C8 C 0.3901(3) 0.6017(3) 0.35563(16)
H7 H 0.4264 0.6907 0.3800
C9 C 0.4503(3) 0.5189(3) 0.38123(16)
H8 H 0.5271 0.5517 0.4232
C10 C 0.3971(3) 0.3859(3) 0.34467(14)
C11 C 0.2847(3) 0.3432(3) 0.28232(14)
H9 H 0.2497 0.2551 0.2561
C12 C 0.4598(3) 0.2950(3) 0.36998(13)
C13 C 0.5867(3) 0.3222(3) 0.41885(14)
H10 H 0.6556 0.4051 0.4434
C14 C 0.6999(3) 0.1752(2) 0.46748(13)
C15 C 0.6792(3) 0.0472(2) 0.47187(14)
H11 H 0.5940 -0.0223 0.4461
C16 C 0.7881(3) 0.0239(2) 0.51563(14)
C17 C 0.9293(3) 0.2432(2) 0.54876(14)
C18 C 0.8289(3) 0.2758(3) 0.50565(14)
H12 H 0.8473 0.3627 0.5023
C19 C 0.1702(3) 0.3302(3) 0.11267(14)
C20 C 0.2579(3) 0.4099(3) 0.07050(16)
C21 C 0.3110(3) 0.3542(3) 0.01266(17)
H13 H 0.3652 0.4089 -0.0150
C22 C 0.2872(3) 0.2218(3) -0.00554(17)
C23 C 0.2085(3) 0.1447(3) 0.03771(16)
H14 H 0.1937 0.0554 0.0281
C24 C 0.1501(3) 0.1950(3) 0.09518(14)
C25 C 0.2995(4) 0.5570(3) 0.0844(2)
H15 H 0.3583 0.5905 0.0493
H16 H 0.3528 0.5974 0.1359
H17 H 0.2139 0.5770 0.0767
C26 C 0.3472(4) 0.1650(4) -0.0687(2)
H18 H 0.2805 0.0776 -0.0941
H19 H 0.4378 0.1612 -0.0473
H20 H 0.3616 0.2201 -0.1049
C27 C 0.0636(3) 0.0923(3) 0.13440(16)
H21 H -0.0292 0.0407 0.1019
H22 H 0.0512 0.1359 0.1819
H23 H 0.1144 0.0355 0.1442
C28 C -0.0680(3) 0.2961(3) 0.17988(15)
C29 C -0.1232(3) 0.2687(3) 0.24561(16)
C30 C -0.2696(3) 0.1957(3) 0.23919(18)
H24 H -0.3021 0.1784 0.2834
C31 C -0.3680(3) 0.1480(3) 0.1708(2)
C32 C -0.3155(3) 0.1780(3) 0.10717(19)
H25 H -0.3800 0.1500 0.0603
C33 C -0.1703(3) 0.2483(3) 0.10974(16)
C34 C -0.0294(4) 0.3126(4) 0.32466(17)
H26 H 0.0351 0.2661 0.3275
H27 H -0.0891 0.2939 0.3615
H28 H 0.0255 0.4058 0.3354
C35 C -0.5258(4) 0.0661(5) 0.1654(2)
H29 H -0.5699 0.0201 0.1132
H30 H -0.5743 0.1231 0.1826
H31 H -0.5331 0.0033 0.1968
C36 C -0.1322(3) 0.2652(3) 0.03248(16)
H32 H -0.0920 0.2017 0.0145
H33 H -0.0630 0.3527 0.0380
H34 H -0.2178 0.2518 -0.0036
C37 C 0.7710(3) -0.1144(3) 0.51826(16)
C38 C 1.0678(3) 0.3525(3) 0.59154(16)
loop_
_geom_bond_atom_site_label_1
_geom_bond_atom_site_label_2
_geom_bond_site_symmetry_1
_geom_bond_site_symmetry_2
O1 C37 1_555 1_555
H1 O4 1_555 1_555
N1 B1 1_555 1_555
C1 B1 1_555 1_555
B1 C19 1_555 1_555
O2 H6 1_555 1_555
N2 N3 1_555 1_555
C2 C1 1_555 1_555
H2 C2 1_555 1_555
O3 C38 1_555 1_555
N3 N4 1_555 1_555
C3 C2 1_555 1_555
H3 C3 1_555 1_555
O4 C38 1_555 1_555
N4 C13 1_555 1_555
C4 C3 1_555 1_555
H4 C4 1_555 1_555
N5 C16 1_555 1_555
C5 C4 1_555 1_555
H5 C5 1_555 1_555
C6 C1 1_555 1_555
C7 N1 1_555 1_555
C8 C7 1_555 1_555
H7 C8 1_555 1_555
C9 C8 1_555 1_555
H8 C9 1_555 1_555
C10 C9 1_555 1_555
C11 N1 1_555 1_555
H9 C11 1_555 1_555
C12 N2 1_555 1_555
C13 C12 1_555 1_555
H10 C13 1_555 1_555
C14 N4 1_555 1_555
C15 C14 1_555 1_555
H11 C15 1_555 1_555
C16 C15 1_555 1_555
C17 N5 1_555 1_555
C18 C14 1_555 1_555
H12 C18 1_555 1_555
C19 C20 1_555 1_555
C20 C21 1_555 1_555
C21 H13 1_555 1_555
C22 C21 1_555 1_555
C23 C22 1_555 1_555
H14 C23 1_555 1_555
C24 C19 1_555 1_555
C25 C20 1_555 1_555
H15 C25 1_555 1_555
H16 C25 1_555 1_555
H17 C25 1_555 1_555
C26 C22 1_555 1_555
H18 C26 1_555 1_555
H19 C26 1_555 1_555
H20 C26 1_555 1_555
C27 C24 1_555 1_555
H21 C27 1_555 1_555
H22 C27 1_555 1_555
H23 C27 1_555 1_555
C28 B1 1_555 1_555
C29 C28 1_555 1_555
C30 C29 1_555 1_555
H24 C30 1_555 1_555
C31 C30 1_555 1_555
C32 C31 1_555 1_555
H25 C32 1_555 1_555
C33 C28 1_555 1_555
C34 C29 1_555 1_555
H26 C34 1_555 1_555
H27 C34 1_555 1_555
H28 C34 1_555 1_555
C35 C31 1_555 1_555
H29 C35 1_555 1_555
H30 C35 1_555 1_555
H31 C35 1_555 1_555
C36 C33 1_555 1_555
H32 C36 1_555 1_555
H33 C36 1_555 1_555
H34 C36 1_555 1_555
C37 O2 1_555 1_555
C38 C17 1_555 1_555
C5 C6 1_555 1_555
C6 C7 1_555 1_555
C10 C11 1_555 1_555
C10 C12 1_555 1_555
C16 C37 1_555 1_555
C17 C18 1_555 1_555
C23 C24 1_555 1_555
C32 C33 1_555 1_555

#END
