
#######################################################################
#
#                 Cambridge Crystallographic Data Centre
#                                CCDC 
#
#######################################################################
#
# If this CIF has been generated from an entry in the Cambridge 
# Structural Database, then it will include bibliographic, chemical, 
# crystal, experimental, refinement or atomic coordinate data resulting 
# from the CCDC's data processing and validation procedures.
#
#######################################################################

data_SESGAY
_chemical_formula_moiety         'C28 H24 N2 O2 Te1'
_chemical_name_systematic        
bis(2-((4-Methoxyphenyl)iminomethyl)phenyl)-tellurium
_symmetry_cell_setting           monoclinic
_symmetry_space_group_name_H-M   'P 21/n'
_symmetry_Int_Tables_number      14
_space_group_name_Hall           '-P 2yn'
loop_
_symmetry_equiv_pos_site_id
_symmetry_equiv_pos_as_xyz
1 x,y,z
2 1/2-x,1/2+y,1/2-z
3 -x,-y,-z
4 1/2+x,1/2-y,1/2+z
_cell_length_a                   9.9245(7)
_cell_length_b                   8.3739(7)
_cell_length_c                   29.1106(12)
_cell_angle_alpha                90
_cell_angle_beta                 92.981(5)
_cell_angle_gamma                90
_cell_volume                     2416.01
_chemical_melting_point          136deg.C
_cell_formula_units_Z            4
loop_
_atom_site_label
_atom_site_type_symbol
_atom_site_fract_x
_atom_site_fract_y
_atom_site_fract_z
Te1 Te 0.17098(3) 0.05277(3) 0.13830(1)
O1 O -0.3137(3) -0.1992(4) 0.3143(1)
O2 O 0.1588(3) -0.5926(4) -0.0963(1)
N1 N 0.1292(3) -0.1639(4) 0.2049(1)
N2 N 0.2681(4) 0.0041(4) -0.0183(1)
C1 C 0.3432(4) -0.0980(5) 0.1464(1)
C2 C 0.4515(4) -0.0817(5) 0.1183(2)
C3 C 0.5647(5) -0.1758(6) 0.1247(2)
C4 C 0.5728(5) -0.2895(6) 0.1586(2)
C5 C 0.4672(5) -0.3100(6) 0.1861(2)
C6 C 0.3495(4) -0.2160(5) 0.1807(2)
C7 C 0.2384(5) -0.2434(6) 0.2108(2)
C8 C 0.0187(4) -0.1781(5) 0.2332(1)
C9 C -0.0982(5) -0.1022(6) 0.2189(2)
C10 C -0.2121(5) -0.1055(6) 0.2447(2)
C11 C -0.2082(5) -0.1868(6) 0.2860(2)
C12 C -0.0896(5) -0.2632(6) 0.3012(2)
C13 C 0.0222(5) -0.2586(6) 0.2753(2)
C14 C -0.4307(6) -0.1077(8) 0.3032(2)
C15 C 0.2569(4) 0.2176(5) 0.0907(2)
C16 C 0.2868(4) 0.3696(5) 0.1086(2)
C17 C 0.3262(4) 0.4923(5) 0.0809(2)
C18 C 0.3371(5) 0.4665(5) 0.0351(2)
C19 C 0.3105(4) 0.3179(5) 0.0167(2)
C20 C 0.2687(4) 0.1924(5) 0.0437(2)
C21 C 0.2398(4) 0.0345(5) 0.0223(2)
C22 C 0.2330(4) -0.1482(5) -0.0370(1)
C23 C 0.3284(4) -0.2295(5) -0.0615(2)
C24 C 0.3014(4) -0.3771(6) -0.0802(2)
C25 C 0.1748(4) -0.4455(5) -0.0761(1)
C26 C 0.0780(4) -0.3661(6) -0.0529(2)
C27 C 0.1069(4) -0.2177(5) -0.0334(2)
C28 C 0.0396(6) -0.6795(7) -0.0885(2)
loop_
_geom_bond_atom_site_label_1
_geom_bond_atom_site_label_2
_geom_bond_site_symmetry_1
_geom_bond_site_symmetry_2
Te1 C1 1_555 1_555
O1 C11 1_555 1_555
O2 C25 1_555 1_555
N1 C7 1_555 1_555
N2 C21 1_555 1_555
C1 C2 1_555 1_555
C2 C3 1_555 1_555
C3 C4 1_555 1_555
C4 C5 1_555 1_555
C5 C6 1_555 1_555
C6 C1 1_555 1_555
C7 C6 1_555 1_555
C8 N1 1_555 1_555
C9 C8 1_555 1_555
C10 C9 1_555 1_555
C11 C10 1_555 1_555
C12 C11 1_555 1_555
C13 C8 1_555 1_555
C14 O1 1_555 1_555
C15 Te1 1_555 1_555
C16 C15 1_555 1_555
C17 C16 1_555 1_555
C18 C17 1_555 1_555
C19 C18 1_555 1_555
C20 C15 1_555 1_555
C21 C20 1_555 1_555
C22 N2 1_555 1_555
C23 C22 1_555 1_555
C24 C23 1_555 1_555
C25 C24 1_555 1_555
C26 C25 1_555 1_555
C27 C22 1_555 1_555
C28 O2 1_555 1_555
C12 C13 1_555 1_555
C19 C20 1_555 1_555
C26 C27 1_555 1_555

#END
