
#######################################################################
#
#                 Cambridge Crystallographic Data Centre
#                                CCDC 
#
#######################################################################
#
# If this CIF has been generated from an entry in the Cambridge 
# Structural Database, then it will include bibliographic, chemical, 
# crystal, experimental, refinement or atomic coordinate data resulting 
# from the CCDC's data processing and validation procedures.
#
#######################################################################

data_SESJIK
_chemical_formula_moiety         'C13 H12 Cl2 N4 O1 S1'
_chemical_name_systematic        
3-(6-(2,4-Dichlorophenyl)-7H-(1,2,4)triazolo(3,4-b)(1,3,4)thiadiazin-3-yl)propan-1-ol
_symmetry_cell_setting           triclinic
_symmetry_space_group_name_H-M   'P -1'
_symmetry_Int_Tables_number      2
_space_group_name_Hall           '-P 1'
loop_
_symmetry_equiv_pos_site_id
_symmetry_equiv_pos_as_xyz
1 x,y,z
2 -x,-y,-z
_cell_length_a                   8.1605(7)
_cell_length_b                   8.5239(8)
_cell_length_c                   11.2810(9)
_cell_angle_alpha                95.237(2)
_cell_angle_beta                 105.340(2)
_cell_angle_gamma                101.205(2)
_cell_volume                     733.825
_exptl_crystal_colour            colorless
_exptl_crystal_description       block
_cell_formula_units_Z            2
_exptl_crystal_recrystallization_method '95% ethanol'
loop_
_atom_site_label
_atom_site_type_symbol
_atom_site_fract_x
_atom_site_fract_y
_atom_site_fract_z
Cl1 Cl 1.36864(11) 0.58844(10) 1.08560(8)
Cl2 Cl 1.22775(10) 1.13873(8) 0.93595(7)
S1 S 0.84880(10) 1.21134(8) 0.68068(8)
O1 O 0.2369(4) 0.3151(3) 0.5161(3)
H1 H 0.3115 0.2659 0.5451
N1 N 0.7360(3) 0.8717(3) 0.7568(2)
N2 N 0.6143(3) 0.9463(2) 0.6890(2)
N3 N 0.4903(3) 1.1397(3) 0.6211(2)
N4 N 0.3608(3) 1.0081(3) 0.6281(2)
C1 C 1.2368(4) 0.6866(4) 0.9854(3)
C2 C 1.2805(3) 0.8524(3) 0.9959(2)
H2 H 1.3810 0.9120 1.0553
C3 C 1.1731(3) 0.9292(3) 0.9171(2)
C4 C 1.0202(3) 0.8426(3) 0.8284(2)
C5 C 0.9823(4) 0.6740(3) 0.8212(3)
H3 H 0.8814 0.6132 0.7629
C6 C 1.0887(4) 0.5964(3) 0.8969(3)
H4 H 1.0621 0.4840 0.8890
C7 C 0.8924(3) 0.9198(3) 0.7504(2)
C8 C 0.9399(4) 1.0348(3) 0.6652(3)
H5 H 0.8955 0.9805 0.5799
H6 H 1.0658 1.0685 0.6853
C9 C 0.6387(4) 1.0994(3) 0.6583(2)
C10 C 0.4372(3) 0.8962(3) 0.6692(3)
C11 C 0.3517(4) 0.7336(4) 0.6885(3)
H7 H 0.2296 0.7307 0.6794
H8 H 0.4047 0.7181 0.7730
C12 C 0.3641(4) 0.5943(3) 0.5997(3)
H9 H 0.3356 0.6201 0.5157
H10 H 0.4829 0.5799 0.6215
C13 C 0.2420(4) 0.4394(4) 0.6040(4)
H11 H 0.2786 0.4083 0.6858
H12 H 0.1255 0.4580 0.5915
loop_
_geom_bond_atom_site_label_1
_geom_bond_atom_site_label_2
_geom_bond_site_symmetry_1
_geom_bond_site_symmetry_2
Cl1 C1 1_555 1_555
Cl2 C3 1_555 1_555
S1 C8 1_555 1_555
O1 H1 1_555 1_555
N1 N2 1_555 1_555
N2 C9 1_555 1_555
N3 N4 1_555 1_555
N4 C10 1_555 1_555
C1 C2 1_555 1_555
C2 H2 1_555 1_555
C3 C2 1_555 1_555
C4 C3 1_555 1_555
C5 C4 1_555 1_555
H3 C5 1_555 1_555
C6 C1 1_555 1_555
H4 C6 1_555 1_555
C7 N1 1_555 1_555
C8 C7 1_555 1_555
H5 C8 1_555 1_555
H6 C8 1_555 1_555
C9 S1 1_555 1_555
C10 N2 1_555 1_555
C11 C10 1_555 1_555
H7 C11 1_555 1_555
H8 C11 1_555 1_555
C12 C11 1_555 1_555
H9 C12 1_555 1_555
H10 C12 1_555 1_555
C13 O1 1_555 1_555
H11 C13 1_555 1_555
H12 C13 1_555 1_555
N3 C9 1_555 1_555
C4 C7 1_555 1_555
C5 C6 1_555 1_555
C12 C13 1_555 1_555

#END
