
#######################################################################
#
#                 Cambridge Crystallographic Data Centre
#                                CCDC 
#
#######################################################################
#
# If this CIF has been generated from an entry in the Cambridge 
# Structural Database, then it will include bibliographic, chemical, 
# crystal, experimental, refinement or atomic coordinate data resulting 
# from the CCDC's data processing and validation procedures.
#
#######################################################################

data_SESKEI
_chemical_formula_moiety         'C52 H72 O8,2(C9 H17 N1 O2),3(C1 H4 O1),H2 O1'
_chemical_name_systematic        
'2,8,14,20-tetrahexyl-4,6,10,12,16,18,22,24-octahydroxycalix(4)arene (1-(aminomethyl)cyclohexyl)acetic acid methanol solvate monohydrate'
_symmetry_cell_setting           monoclinic
_symmetry_space_group_name_H-M   'P 21/n'
_symmetry_Int_Tables_number      14
_space_group_name_Hall           '-P 2yn'
loop_
_symmetry_equiv_pos_site_id
_symmetry_equiv_pos_as_xyz
1 x,y,z
2 1/2-x,1/2+y,1/2-z
3 -x,-y,-z
4 1/2+x,1/2-y,1/2+z
_cell_length_a                   13.253(13)
_cell_length_b                   12.775(12)
_cell_length_c                   43.66(4)
_cell_angle_alpha                90
_cell_angle_beta                 93.319(12)
_cell_angle_gamma                90
_cell_volume                     7379.55
_cell_formula_units_Z            4
loop_
_atom_site_label
_atom_site_type_symbol
_atom_site_fract_x
_atom_site_fract_y
_atom_site_fract_z
O1 O -0.0030(4) 0.8100(4) 0.19761(11)
H1 H 0.0077 0.8429 0.2136
C1 C -0.0280(5) 0.7251(5) 0.13563(17)
H2 H -0.0830 0.7239 0.1497
O2 O 0.1938(4) 1.1000(4) 0.16477(11)
H3 H 0.1905 1.1145 0.1830
C2 C 0.0329(5) 0.8237(5) 0.14345(18)
O3 O 0.3596(4) 1.1530(4) 0.13629(12)
H4 H 0.4110 1.1777 0.1448
C3 C 0.0415(5) 0.8618(6) 0.17371(17)
O4 O 0.6107(4) 0.8959(4) 0.11504(15)
H5 H 0.6457 0.9379 0.1251
C4 C 0.0924(5) 0.9541(6) 0.18084(17)
H6 H 0.0940 0.9801 0.2008
O5 O 0.6051(4) 0.6859(4) 0.13082(12)
H7 H 0.6121 0.7374 0.1199
C5 C 0.1410(6) 1.0079(5) 0.15835(17)
O6 O 0.3907(3) 0.4040(3) 0.15107(11)
H8 H 0.3372 0.3753 0.1458
C6 C 0.1389(5) 0.9726(5) 0.12790(17)
O7 O 0.1926(3) 0.3426(3) 0.15628(10)
H9 H 0.2532 0.3538 0.1552
C7 C 0.0833(6) 0.8810(6) 0.12173(17)
H10 H 0.0797 0.8564 0.1016
O8 O -0.0452(4) 0.6011(4) 0.18893(11)
H11 H -0.0470 0.5601 0.2033
C8 C 0.1972(6) 1.0309(5) 0.10449(17)
H12 H 0.1943 1.1054 0.1097
C9 C 0.3083(6) 0.9992(5) 0.10676(16)
C10 C 0.3826(7) 1.0599(6) 0.12238(17)
C11 C 0.4814(7) 1.0267(6) 0.12510(18)
H13 H 0.5296 1.0675 0.1358
C12 C 0.5104(6) 0.9326(6) 0.11205(19)
C13 C 0.4409(6) 0.8689(5) 0.09570(17)
C14 C 0.3405(7) 0.9051(6) 0.09417(17)
H14 H 0.2918 0.8633 0.0840
C15 C 0.4731(6) 0.7684(5) 0.07983(17)
H15 H 0.5468 0.7715 0.0794
C16 C 0.4493(6) 0.6703(5) 0.09825(17)
C17 C 0.5149(6) 0.6360(6) 0.12207(19)
C18 C 0.4927(6) 0.5473(5) 0.13899(17)
H16 H 0.5379 0.5255 0.1548
C19 C 0.4042(6) 0.4909(5) 0.13269(17)
C20 C 0.3357(5) 0.5224(5) 0.10930(16)
C21 C 0.3610(6) 0.6117(5) 0.09265(17)
H17 H 0.3159 0.6334 0.0768
C22 C 0.2368(5) 0.4620(5) 0.10287(15)
H18 H 0.2522 0.3883 0.1073
C23 C 0.1581(5) 0.4955(5) 0.12555(16)
C24 C 0.1396(5) 0.4353(5) 0.15197(16)
C25 C 0.0702(5) 0.4694(5) 0.17238(16)
H19 H 0.0574 0.4288 0.1894
C26 C 0.0200(5) 0.5631(5) 0.16769(16)
C27 C 0.0339(5) 0.6237(5) 0.14218(17)
C28 C 0.1045(5) 0.5889(5) 0.12188(17)
H20 H 0.1164 0.6304 0.1050
C29 C -0.0791(6) 0.7262(6) 0.10318(18)
H21 H -0.1147 0.7920 0.1000
H22 H -0.0273 0.7226 0.0884
C30 C -0.1531(6) 0.6367(6) 0.09715(19)
H23 H -0.2008 0.6364 0.1132
H24 H -0.1161 0.5712 0.0985
C31 C -0.2117(7) 0.6419(7) 0.0662(2)
H25 H -0.2505 0.7064 0.0653
H26 H -0.1637 0.6454 0.0503
C32 C -0.2825(9) 0.5523(9) 0.0591(3)
H27 H -0.3357 0.5529 0.0735
H28 H -0.2459 0.4869 0.0618
C33 C -0.3801(13) 0.4678(13) 0.0136(4)
H29 H -0.4025 0.4813 -0.0074
H30 H -0.4373 0.4516 0.0252
H31 H -0.3341 0.4096 0.0143
C34 C -0.3301(11) 0.5583(10) 0.0262(3)
H32 H -0.3784 0.6154 0.0254
H33 H -0.2770 0.5771 0.0128
C35 C 0.1496(7) 1.0192(6) 0.07114(17)
H34 H 0.1517 0.9459 0.0654
H35 H 0.0791 1.0396 0.0710
C36 C 0.2001(8) 1.0824(9) 0.0473(2)
H36 H 0.2720 1.0678 0.0482
H37 H 0.1906 1.1565 0.0509
C37 C 0.2094(9) 1.0682(10) -0.0096(2)
H38 H 0.2700 1.0260 -0.0065
H39 H 0.2297 1.1412 -0.0090
C38 C 0.1594(10) 1.0437(12) -0.0416(2)
H40 H 0.0868 1.0470 -0.0398
H41 H 0.1770 1.1001 -0.0551
C39 C 0.1489(12) 1.050(2) 0.0135(3)
H42 H 0.1318 0.9760 0.0137
H43 H 0.0866 1.0889 0.0098
C40 C 0.1788(17) 0.9559(15) -0.0553(4)
H44 H 0.1414 0.9532 -0.0748
H45 H 0.1595 0.8982 -0.0428
H46 H 0.2498 0.9518 -0.0584
C41 C 0.4326(7) 0.7650(6) 0.04647(19)
H47 H 0.3593 0.7626 0.0458
H48 H 0.4561 0.7015 0.0370
C42 C 0.4666(7) 0.8611(6) 0.02788(19)
H49 H 0.4341 0.9232 0.0355
H50 H 0.5390 0.8700 0.0316
C43 C 0.4425(7) 0.8534(7) -0.00657(19)
H51 H 0.3739 0.8279 -0.0101
H52 H 0.4454 0.9230 -0.0154
C44 C 0.5129(7) 0.7826(7) -0.0231(2)
H53 H 0.5073 0.7122 -0.0150
H54 H 0.5818 0.8060 -0.0186
C45 C 0.4926(8) 0.7791(7) -0.0577(2)
H55 H 0.4240 0.7551 -0.0623
H56 H 0.4984 0.8492 -0.0659
C46 C 0.5652(7) 0.7073(8) -0.0731(2)
H57 H 0.5475 0.7047 -0.0947
H58 H 0.5612 0.6382 -0.0646
H59 H 0.6329 0.7335 -0.0698
C47 C 0.1965(6) 0.4667(5) 0.06917(16)
H60 H 0.2492 0.4439 0.0562
H61 H 0.1800 0.5387 0.0639
C48 C 0.1015(6) 0.3977(6) 0.06263(17)
H62 H 0.1122 0.3302 0.0725
H63 H 0.0440 0.4306 0.0715
C49 C 0.0781(7) 0.3814(6) 0.02874(19)
H64 H 0.1302 0.3377 0.0207
H65 H 0.0797 0.4486 0.0184
C50 C -0.0242(7) 0.3307(7) 0.0215(2)
H66 H -0.0772 0.3770 0.0278
H67 H -0.0284 0.2660 0.0330
C51 C -0.0418(7) 0.3060(7) -0.0148(2)
H68 H -0.0286 0.3688 -0.0264
H69 H 0.0054 0.2525 -0.0205
C52 C -0.1453(8) 0.2704(8) -0.0225(3)
H70 H -0.1534 0.2563 -0.0441
H71 H -0.1921 0.3238 -0.0172
H72 H -0.1582 0.2077 -0.0112
N1 N 0.1838(4) 0.0010(4) 0.26912(13)
H78 H 0.1591 0.0239 0.2517
H79 H 0.1989 -0.0642 0.2713
O9 O 0.2190(4) 0.1349(4) 0.22297(11)
O10 O 0.2172(4) 0.3094(4) 0.21652(11)
H80 H 0.2101 0.2922 0.1984
C55 C 0.2008(6) 0.0750(5) 0.29570(17)
H81 H 0.2718 0.0730 0.3025
H82 H 0.1625 0.0501 0.3125
C56 C 0.1710(5) 0.1892(5) 0.28890(16)
C57 C 0.1824(6) 0.2453(6) 0.32053(17)
H83 H 0.1499 0.2032 0.3356
H84 H 0.2536 0.2498 0.3268
C58 C 0.1378(7) 0.3536(6) 0.32048(19)
H85 H 0.1762 0.3989 0.3076
H86 H 0.1429 0.3815 0.3412
C59 C 0.0281(7) 0.3532(6) 0.3087(2)
H87 H 0.0019 0.4241 0.3085
H88 H -0.0114 0.3115 0.3222
C60 C 0.0181(6) 0.3074(6) 0.2758(2)
H89 H 0.0553 0.3503 0.2621
H90 H -0.0524 0.3067 0.2685
C61 C 0.0604(5) 0.1951(5) 0.27647(18)
H91 H 0.0194 0.1518 0.2891
H92 H 0.0552 0.1667 0.2558
C62 C 0.2448(5) 0.2431(5) 0.26753(15)
H93 H 0.2438 0.3177 0.2717
H94 H 0.3126 0.2184 0.2732
C63 C 0.2256(5) 0.2276(6) 0.23321(17)
N2 N 0.5696(5) 0.2868(5) 0.16401(15)
H95 H 0.5963 0.2928 0.1824
H96 H 0.5054 0.2781 0.1611
O11 O 0.6658(5) 0.4220(5) 0.20190(13)
H97 H 0.6270 0.4029 0.1877
O12 O 0.8264(4) 0.4703(4) 0.20968(14)
C64 C 0.6345(6) 0.2915(6) 0.13733(19)
H98 H 0.6106 0.3482 0.1241
H99 H 0.6255 0.2269 0.1258
C65 C 0.7471(6) 0.3070(6) 0.14478(18)
C66 C 0.7976(6) 0.2950(7) 0.1143(2)
H100 H 0.7789 0.3544 0.1014
H101 H 0.7711 0.2325 0.1041
C67 C 0.9132(7) 0.2874(8) 0.1172(2)
H102 H 0.9378 0.2731 0.0971
H103 H 0.9408 0.3542 0.1241
C68 C 0.9509(7) 0.2032(8) 0.1391(3)
H104 H 1.0240 0.2071 0.1418
H105 H 0.9333 0.1351 0.1306
C69 C 0.9045(6) 0.2158(8) 0.1705(3)
H106 H 0.9301 0.2795 0.1803
H107 H 0.9252 0.1574 0.1836
C70 C 0.7877(6) 0.2206(6) 0.1674(2)
H108 H 0.7623 0.2336 0.1874
H109 H 0.7619 0.1532 0.1603
C71 C 0.7709(6) 0.4169(6) 0.15833(18)
H110 H 0.8414 0.4319 0.1552
H111 H 0.7310 0.4674 0.1463
C72 C 0.7535(7) 0.4369(6) 0.1921(2)
O13 O 0.5709(4) 0.1158(5) 0.20460(15)
H112 H 0.5744 0.0580 0.1966
C73 C 0.4768(8) 0.1247(9) 0.2194(3)
H113 H 0.4820 0.0878 0.2386
H114 H 0.4232 0.0950 0.2065
H115 H 0.4626 0.1971 0.2231
O14 O 0.6966(5) -0.0263(5) 0.16712(18)
H116 H 0.6447 -0.0531 0.1729
C74 C 0.7805(11) -0.0822(11) 0.1791(4)
H117 H 0.8142 -0.0426 0.1954
H118 H 0.8262 -0.0944 0.1632
H119 H 0.7587 -0.1481 0.1870
O15 O 0.7252(6) 0.0781(9) 0.24242(19)
H120 H 0.6970 0.0963 0.2261
C75 C 0.7799(14) 0.1700(15) 0.2571(4)
H121 H 0.7319 0.2164 0.2656
H122 H 0.8159 0.2066 0.2419
H123 H 0.8269 0.1457 0.2731
O16 O -0.0141(5) 0.9221(6) 0.25564(15)
H124 H -0.066(4) 0.914(7) 0.2659(19)
H125 H 0.045(5) 0.948(11) 0.255(4)
C53? C 0.164(4) 1.113(6) 0.0170(11)
H73? H 0.1712 1.1881 0.0157
H74? H 0.0926 1.0972 0.0150
C54? C 0.224(3) 1.022(4) -0.0696(9)
H75? H 0.1798 1.0120 -0.0876
H76? H 0.2634 0.9596 -0.0658
H77? H 0.2679 1.0800 -0.0726
loop_
_geom_bond_atom_site_label_1
_geom_bond_atom_site_label_2
_geom_bond_site_symmetry_1
_geom_bond_site_symmetry_2
O1 H1 1_555 1_555
C1 H2 1_555 1_555
O2 H3 1_555 1_555
C2 C1 1_555 1_555
O3 H4 1_555 1_555
C3 O1 1_555 1_555
O4 H5 1_555 1_555
C4 C3 1_555 1_555
H6 C4 1_555 1_555
O5 H7 1_555 1_555
C5 O2 1_555 1_555
O6 H8 1_555 1_555
C6 C5 1_555 1_555
O7 H9 1_555 1_555
C7 C2 1_555 1_555
H10 C7 1_555 1_555
O8 H11 1_555 1_555
C8 C6 1_555 1_555
H12 C8 1_555 1_555
C9 C8 1_555 1_555
C10 O3 1_555 1_555
C11 C10 1_555 1_555
H13 C11 1_555 1_555
C12 O4 1_555 1_555
C13 C12 1_555 1_555
C14 C9 1_555 1_555
H14 C14 1_555 1_555
C15 C13 1_555 1_555
H15 C15 1_555 1_555
C16 C15 1_555 1_555
C17 O5 1_555 1_555
C18 C17 1_555 1_555
H16 C18 1_555 1_555
C19 O6 1_555 1_555
C20 C19 1_555 1_555
C21 C16 1_555 1_555
H17 C21 1_555 1_555
C22 C20 1_555 1_555
H18 C22 1_555 1_555
C23 C22 1_555 1_555
C24 O7 1_555 1_555
C25 C24 1_555 1_555
H19 C25 1_555 1_555
C26 O8 1_555 1_555
C27 C1 1_555 1_555
C28 C23 1_555 1_555
H20 C28 1_555 1_555
C29 C1 1_555 1_555
H21 C29 1_555 1_555
H22 C29 1_555 1_555
C30 C29 1_555 1_555
H23 C30 1_555 1_555
H24 C30 1_555 1_555
C31 C30 1_555 1_555
H25 C31 1_555 1_555
H26 C31 1_555 1_555
C32 C31 1_555 1_555
H27 C32 1_555 1_555
H28 C32 1_555 1_555
C33 H29 1_555 1_555
H30 C33 1_555 1_555
H31 C33 1_555 1_555
C34 C32 1_555 1_555
H32 C34 1_555 1_555
H33 C34 1_555 1_555
C35 C8 1_555 1_555
H34 C35 1_555 1_555
H35 C35 1_555 1_555
C36 C35 1_555 1_555
H36 C36 1_555 1_555
H37 C36 1_555 1_555
C37 H38 1_555 1_555
H39 C37 1_555 1_555
C38 C37 1_555 1_555
H40 C38 1_555 1_555
H41 C38 1_555 1_555
C39 C36 1_555 1_555
H42 C39 1_555 1_555
H43 C39 1_555 1_555
C40 C38 1_555 1_555
H44 C40 1_555 1_555
H45 C40 1_555 1_555
H46 C40 1_555 1_555
C41 C15 1_555 1_555
H47 C41 1_555 1_555
H48 C41 1_555 1_555
C42 C41 1_555 1_555
H49 C42 1_555 1_555
H50 C42 1_555 1_555
C43 C42 1_555 1_555
H51 C43 1_555 1_555
H52 C43 1_555 1_555
C44 C43 1_555 1_555
H53 C44 1_555 1_555
H54 C44 1_555 1_555
C45 C44 1_555 1_555
H55 C45 1_555 1_555
H56 C45 1_555 1_555
C46 C45 1_555 1_555
H57 C46 1_555 1_555
H58 C46 1_555 1_555
H59 C46 1_555 1_555
C47 C22 1_555 1_555
H60 C47 1_555 1_555
H61 C47 1_555 1_555
C48 C47 1_555 1_555
H62 C48 1_555 1_555
H63 C48 1_555 1_555
C49 C48 1_555 1_555
H64 C49 1_555 1_555
H65 C49 1_555 1_555
C50 C49 1_555 1_555
H66 C50 1_555 1_555
H67 C50 1_555 1_555
C51 C50 1_555 1_555
H68 C51 1_555 1_555
H69 C51 1_555 1_555
C52 C51 1_555 1_555
H70 C52 1_555 1_555
H71 C52 1_555 1_555
H72 C52 1_555 1_555
N1 H78 1_555 1_555
H79 N1 1_555 1_555
O9 C63 1_555 1_555
O10 H80 1_555 1_555
C55 N1 1_555 1_555
H81 C55 1_555 1_555
H82 C55 1_555 1_555
C56 C55 1_555 1_555
C57 C56 1_555 1_555
H83 C57 1_555 1_555
H84 C57 1_555 1_555
C58 C57 1_555 1_555
H85 C58 1_555 1_555
H86 C58 1_555 1_555
C59 C58 1_555 1_555
H87 C59 1_555 1_555
H88 C59 1_555 1_555
C60 C59 1_555 1_555
H89 C60 1_555 1_555
H90 C60 1_555 1_555
C61 C56 1_555 1_555
H91 C61 1_555 1_555
H92 C61 1_555 1_555
C62 C56 1_555 1_555
H93 C62 1_555 1_555
H94 C62 1_555 1_555
C63 O10 1_555 1_555
N2 H95 1_555 1_555
H96 N2 1_555 1_555
O11 H97 1_555 1_555
O12 C72 1_555 1_555
C64 N2 1_555 1_555
H98 C64 1_555 1_555
H99 C64 1_555 1_555
C65 C64 1_555 1_555
C66 C65 1_555 1_555
H100 C66 1_555 1_555
H101 C66 1_555 1_555
C67 C66 1_555 1_555
H102 C67 1_555 1_555
H103 C67 1_555 1_555
C68 C67 1_555 1_555
H104 C68 1_555 1_555
H105 C68 1_555 1_555
C69 C68 1_555 1_555
H106 C69 1_555 1_555
H107 C69 1_555 1_555
C70 C65 1_555 1_555
H108 C70 1_555 1_555
H109 C70 1_555 1_555
C71 C65 1_555 1_555
H110 C71 1_555 1_555
H111 C71 1_555 1_555
C72 O11 1_555 1_555
O13 H112 1_555 1_555
C73 O13 1_555 1_555
H113 C73 1_555 1_555
H114 C73 1_555 1_555
H115 C73 1_555 1_555
O14 H116 1_555 1_555
C74 O14 1_555 1_555
H117 C74 1_555 1_555
H118 C74 1_555 1_555
H119 C74 1_555 1_555
O15 H120 1_555 1_555
C75 O15 1_555 1_555
H121 C75 1_555 1_555
H122 C75 1_555 1_555
H123 C75 1_555 1_555
O16 H124 1_555 1_555
H125 O16 1_555 1_555
C2 C3 1_555 1_555
C4 C5 1_555 1_555
C6 C7 1_555 1_555
C9 C10 1_555 1_555
C11 C12 1_555 1_555
C13 C14 1_555 1_555
C16 C17 1_555 1_555
C18 C19 1_555 1_555
C20 C21 1_555 1_555
C23 C24 1_555 1_555
C25 C26 1_555 1_555
C26 C27 1_555 1_555
C27 C28 1_555 1_555
C33 C34 1_555 1_555
C37 C39 1_555 1_555
C60 C61 1_555 1_555
C62 C63 1_555 1_555
C69 C70 1_555 1_555
C71 C72 1_555 1_555

#END
