
#######################################################################
#
#                 Cambridge Crystallographic Data Centre
#                                CCDC 
#
#######################################################################
#
# If this CIF has been generated from an entry in the Cambridge 
# Structural Database, then it will include bibliographic, chemical, 
# crystal, experimental, refinement or atomic coordinate data resulting 
# from the CCDC's data processing and validation procedures.
#
#######################################################################

data_SESNUA
_chemical_formula_moiety         'C11 H17 N1 O2 S1'
_chemical_name_systematic        N-t-Butyl-4-toluenesulfonamide
_symmetry_cell_setting           monoclinic
_symmetry_space_group_name_H-M   'P 21/c'
_symmetry_Int_Tables_number      14
_space_group_name_Hall           '-P 2ybc'
loop_
_symmetry_equiv_pos_site_id
_symmetry_equiv_pos_as_xyz
1 x,y,z
2 -x,1/2+y,1/2-z
3 -x,-y,-z
4 x,1/2-y,1/2+z
_cell_length_a                   6.1484(7)
_cell_length_b                   24.812(3)
_cell_length_c                   8.1623(9)
_cell_angle_alpha                90
_cell_angle_beta                 97.3060(10)
_cell_angle_gamma                90
_cell_volume                     1235.08
_exptl_crystal_colour            white
_exptl_crystal_description       block
_cell_formula_units_Z            4
_exptl_crystal_recrystallization_method 'aqueous ethanol'
loop_
_atom_site_label
_atom_site_type_symbol
_atom_site_fract_x
_atom_site_fract_y
_atom_site_fract_z
S1 S 0.02240(6) 0.404417(15) 0.51201(5)
O1 O -0.1257(2) 0.36700(5) 0.42313(17)
O2 O -0.0674(2) 0.44346(5) 0.61609(17)
N1 N 0.1602(2) 0.43852(5) 0.39316(16)
C1 C 0.6685(4) 0.27231(10) 0.9736(3)
H1 H 0.8081 0.2901 0.9908
H2 H 0.6857 0.2373 0.9266
H3 H 0.6120 0.2685 1.0773
C2 C 0.5102(3) 0.30539(7) 0.85676(19)
C3 C 0.2980(3) 0.28733(7) 0.8087(2)
H4 H 0.2529 0.2548 0.8499
C4 C 0.1517(3) 0.31681(6) 0.7003(2)
H5 H 0.0108 0.3039 0.6680
C5 C 0.2170(2) 0.36569(5) 0.64039(17)
C6 C 0.4280(3) 0.38460(7) 0.68799(19)
H6 H 0.4726 0.4174 0.6483
C7 C 0.5716(3) 0.35414(8) 0.7952(2)
H7 H 0.7130 0.3669 0.8266
C8 C 0.3119(4) 0.36441(8) 0.2407(3)
H8 H 0.4355 0.3629 0.3252
H9 H 0.3575 0.3546 0.1365
H10 H 0.2011 0.3398 0.2672
C9 C 0.3938(4) 0.46099(9) 0.1900(3)
H11 H 0.3349 0.4969 0.1863
H12 H 0.4385 0.4522 0.0847
H13 H 0.5180 0.4590 0.2738
C10 C 0.0179(4) 0.42524(10) 0.0999(3)
H14 H -0.0882 0.3988 0.1228
H15 H 0.0602 0.4187 -0.0076
H16 H -0.0449 0.4606 0.1028
C11 C 0.2195(3) 0.42138(7) 0.22972(19)
H17 H 0.142(3) 0.4699(8) 0.404(2)
loop_
_geom_bond_atom_site_label_1
_geom_bond_atom_site_label_2
_geom_bond_site_symmetry_1
_geom_bond_site_symmetry_2
S1 O1 1_555 1_555
O2 S1 1_555 1_555
N1 S1 1_555 1_555
C1 H1 1_555 1_555
H2 C1 1_555 1_555
H3 C1 1_555 1_555
C2 C1 1_555 1_555
C3 C2 1_555 1_555
H4 C3 1_555 1_555
C4 C3 1_555 1_555
H5 C4 1_555 1_555
C5 S1 1_555 1_555
C6 C5 1_555 1_555
H6 C6 1_555 1_555
C7 C2 1_555 1_555
H7 C7 1_555 1_555
C8 H8 1_555 1_555
H9 C8 1_555 1_555
H10 C8 1_555 1_555
C9 H11 1_555 1_555
H12 C9 1_555 1_555
H13 C9 1_555 1_555
C10 H14 1_555 1_555
H15 C10 1_555 1_555
H16 C10 1_555 1_555
C11 N1 1_555 1_555
H17 N1 1_555 1_555
C4 C5 1_555 1_555
C6 C7 1_555 1_555
C8 C11 1_555 1_555
C9 C11 1_555 1_555
C10 C11 1_555 1_555

#END
