
#######################################################################
#
#                 Cambridge Crystallographic Data Centre
#                                CCDC 
#
#######################################################################
#
# If this CIF has been generated from an entry in the Cambridge 
# Structural Database, then it will include bibliographic, chemical, 
# crystal, experimental, refinement or atomic coordinate data resulting 
# from the CCDC's data processing and validation procedures.
#
#######################################################################

data_SESNEJ
_chemical_formula_moiety         '2(C33 H36 O6),C11 H13 N1 O1'
_chemical_name_systematic        
'bis(tris(o-Thymotide)) p-dimethylamino-cinnamaldehyde'
_symmetry_cell_setting           triclinic
_symmetry_space_group_name_H-M   'P -1'
_symmetry_Int_Tables_number      2
_space_group_name_Hall           '-P 1'
loop_
_symmetry_equiv_pos_site_id
_symmetry_equiv_pos_as_xyz
1 x,y,z
2 -x,-y,-z
_cell_length_a                   13.199(2)
_cell_length_b                   23.473(4)
_cell_length_c                   11.5402(2)
_cell_angle_alpha                100.91(1)
_cell_angle_beta                 94.66(1)
_cell_angle_gamma                81.63(1)
_cell_volume                     3468.06
_exptl_crystal_colour            'light yellow-orange'
_chemical_melting_point          217-218deg.C
_cell_formula_units_Z            2
loop_
_atom_site_label
_atom_site_type_symbol
_atom_site_fract_x
_atom_site_fract_y
_atom_site_fract_z
O7 O -0.0923(9) 0.3335(5) 0.2897(10)
O8 O 0.0856(9) 0.3269(5) 0.4309(10)
O9 O 0.0691(9) 0.2456(5) 0.1952(10)
O10 O -0.1139(9) 0.4281(6) 0.2574(11)
O11 O 0.1554(10) 0.3830(7) 0.3319(12)
O12 O 0.0990(10) 0.2980(5) 0.0584(11)
C34 C -0.0752(14) 0.2872(8) 0.0900(16)
C35 C -0.1396(15) 0.3168(8) 0.1778(16)
C36 C -0.2445(14) 0.3253(8) 0.1617(16)
C37 C -0.2845(15) 0.3010(8) 0.0455(18)
C38 C -0.2239(17) 0.2708(9) -0.0483(18)
C39 C -0.1157(16) 0.2644(8) -0.0214(17)
C40 C -0.0470(16) 0.2290(9) -0.1238(18)
C41 C -0.3126(15) 0.3586(9) 0.2586(17)
C42 C -0.3696(16) 0.4161(9) 0.2198(18)
C43 C -0.3956(15) 0.3183(9) 0.2744(17)
C44 C -0.0873(14) 0.3917(9) 0.3228(17)
C45 C -0.0518(13) 0.4081(8) 0.4512(15)
C46 C 0.0330(14) 0.3750(8) 0.4981(16)
C47 C 0.0641(14) 0.3894(8) 0.6184(16)
C48 C 0.0095(16) 0.4375(9) 0.6897(17)
C49 C -0.0735(14) 0.4699(8) 0.6401(17)
C50 C -0.1059(14) 0.4568(8) 0.5210(16)
C51 C -0.2015(15) 0.4943(9) 0.4709(17)
C52 C 0.1579(17) 0.3507(9) 0.6637(19)
C53 C 0.1193(17) 0.3224(10) 0.7675(19)
C54 C 0.2388(18) 0.3905(10) 0.7309(20)
C55 C 0.1551(15) 0.3342(9) 0.3539(17)
C56 C 0.2191(15) 0.2805(8) 0.3054(16)
C57 C 0.1756(15) 0.2379(9) 0.2261(16)
C58 C 0.2340(17) 0.1829(10) 0.1765(18)
C59 C 0.3428(19) 0.1782(10) 0.2192(20)
C60 C 0.3784(18) 0.2206(12) 0.2932(21)
C61 C 0.3276(17) 0.2762(10) 0.3481(18)
C62 C 0.3671(17) 0.3250(10) 0.4370(20)
C63 C 0.1742(19) 0.1410(11) 0.0937(22)
C64 C 0.2475(25) 0.1164(14) -0.0165(28)
C65 C 0.1586(21) 0.0902(13) 0.1562(24)
C66 C 0.0394(15) 0.2790(8) 0.1109(17)
O1 O 0.4399(9) 0.1789(5) 0.5635(10)
O2 O 0.6016(9) 0.2485(5) 0.5618(10)
O3 O 0.5932(9) 0.1501(5) 0.3768(10)
O4 O 0.5160(11) 0.1401(7) 0.7176(13)
O5 O 0.7444(10) 0.2130(5) 0.6575(12)
O6 O 0.6725(14) 0.0807(7) 0.4699(14)
C1 C 0.4913(15) 0.0864(9) 0.4342(16)
C2 C 0.4180(15) 0.1221(8) 0.5016(16)
C3 C 0.3173(15) 0.1096(9) 0.5110(16)
C4 C 0.2997(15) 0.0539(9) 0.4445(17)
C5 C 0.3725(15) 0.0175(8) 0.3770(16)
C6 C 0.4701(18) 0.0325(10) 0.3651(19)
C7 C 0.5468(16) -0.0071(9) 0.2885(18)
C8 C 0.2444(17) 0.1512(10) 0.5855(19)
C9 C 0.1588(21) 0.1779(12) 0.5070(23)
C10 C 0.1950(20) 0.1204(12) 0.6638(23)
C11 C 0.4901(16) 0.1826(10) 0.6726(19)
C12 C 0.5047(14) 0.2440(9) 0.7258(17)
C13 C 0.5599(14) 0.2743(9) 0.6690(17)
C14 C 0.5732(14) 0.3329(9) 0.7170(17)
C15 C 0.5277(15) 0.3603(9) 0.8258(18)
C16 C 0.4729(14) 0.3284(9) 0.8798(17)
C17 C 0.4590(16) 0.2690(10) 0.8324(18)
C18 C 0.3972(16) 0.2351(9) 0.9001(18)
C19 C 0.6396(17) 0.3654(10) 0.6508(18)
C20 C 0.7375(18) 0.3783(10) 0.7304(19)
C21 C 0.5746(18) 0.4258(11) 0.6299(20)
C22 C 0.6991(15) 0.2189(8) 0.5638(18)
C23 C 0.7395(15) 0.1985(8) 0.4463(17)
C24 C 0.6894(14) 0.1669(8) 0.3576(16)
C25 C 0.7216(14) 0.1467(8) 0.2445(16)
C26 C 0.8174(16) 0.1647(9) 0.2255(18)
C27 C 0.8718(15) 0.1991(8) 0.3145(18)
C28 C 0.8330(15) 0.2168(8) 0.4282(17)
C29 C 0.8932(15) 0.2570(9) 0.5239(17)
C30 C 0.6581(16) 0.1122(9) 0.1465(18)
C31 C 0.6274(16) 0.1477(9) 0.0446(18)
C32 C 0.7265(17) 0.0517(10) 0.0961(20)
C33 C 0.5934(18) 0.1047(10) 0.4321(19)
C67? C 0.8280(31) 0.0968(17) 0.8012(33)
C68? C 0.9305(22) 0.0775(12) 0.9279(27)
C69? C 0.9422(25) 0.0450(14) 0.6730(36)
C70? C 0.9290(19) 0.0604(11) 0.7831(27)
C71? C 0.9064(31) 0.0569(18) 0.5861(42)
C72? C 0.9561(32) 0.0243(18) 0.5387(44)
C73? C 0.9604(35) 0.0106(20) 0.3236(42)
C74? C 0.9374(24) 0.0310(14) 0.4488(35)
C75? C -0.2902(36) 0.5803(22) 0.8923(41)
C76? C -0.4380(34) 0.5162(18) 0.9571(35)
C77? C -0.3514(30) 0.5170(14) 0.9712(28)
C78? C -0.2517(28) 0.5240(12) 0.9507(24)
C79? C -0.1576(24) 0.5259(11) 0.9592(21)
C80? C -0.0750(34) 0.5561(18) 0.9411(34)
C81? C -0.0604(31) 0.5123(19) 0.9846(34)
C82? C -0.0212(21) 0.4574(10) 1.0333(18)
C83? C -0.1189(34) 0.4674(19) 1.0172(35)
loop_
_geom_bond_atom_site_label_1
_geom_bond_atom_site_label_2
_geom_bond_site_symmetry_1
_geom_bond_site_symmetry_2
O1 C2 1_555 1_555
O2 C13 1_555 1_555
O3 C24 1_555 1_555
O4 C11 1_555 1_555
O5 C22 1_555 1_555
O6 C33 1_555 1_555
O7 C35 1_555 1_555
O8 C46 1_555 1_555
O9 C57 1_555 1_555
O10 C44 1_555 1_555
O11 C55 1_555 1_555
O12 C66 1_555 1_555
C1 C2 1_555 1_555
C2 C3 1_555 1_555
C3 C4 1_555 1_555
C4 C5 1_555 1_555
C5 C6 1_555 1_555
C6 C1 1_555 1_555
C7 C6 1_555 1_555
C8 C3 1_555 1_555
C9 C8 1_555 1_555
C10 C8 1_555 1_555
C11 O1 1_555 1_555
C12 C11 1_555 1_555
C13 C12 1_555 1_555
C14 C13 1_555 1_555
C15 C14 1_555 1_555
C16 C15 1_555 1_555
C17 C12 1_555 1_555
C18 C17 1_555 1_555
C19 C14 1_555 1_555
C20 C19 1_555 1_555
C21 C19 1_555 1_555
C22 O2 1_555 1_555
C23 C22 1_555 1_555
C24 C23 1_555 1_555
C25 C24 1_555 1_555
C26 C25 1_555 1_555
C27 C26 1_555 1_555
C28 C23 1_555 1_555
C29 C28 1_555 1_555
C30 C25 1_555 1_555
C31 C30 1_555 1_555
C32 C30 1_555 1_555
C33 O3 1_555 1_555
C34 C35 1_555 1_555
C35 C36 1_555 1_555
C36 C37 1_555 1_555
C37 C38 1_555 1_555
C38 C39 1_555 1_555
C39 C34 1_555 1_555
C40 C39 1_555 1_555
C41 C36 1_555 1_555
C42 C41 1_555 1_555
C43 C41 1_555 1_555
C44 O7 1_555 1_555
C45 C44 1_555 1_555
C46 C45 1_555 1_555
C47 C46 1_555 1_555
C48 C47 1_555 1_555
C49 C48 1_555 1_555
C50 C45 1_555 1_555
C51 C50 1_555 1_555
C52 C47 1_555 1_555
C53 C52 1_555 1_555
C54 C52 1_555 1_555
C55 O8 1_555 1_555
C56 C55 1_555 1_555
C57 C56 1_555 1_555
C58 C57 1_555 1_555
C59 C58 1_555 1_555
C60 C59 1_555 1_555
C61 C56 1_555 1_555
C62 C61 1_555 1_555
C63 C58 1_555 1_555
C64 C63 1_555 1_555
C65 C63 1_555 1_555
C66 O9 1_555 1_555
C1 C33 1_555 1_555
C16 C17 1_555 1_555
C27 C28 1_555 1_555
C34 C66 1_555 1_555
C49 C50 1_555 1_555
C60 C61 1_555 1_555

#END
