
#######################################################################
#
#                 Cambridge Crystallographic Data Centre
#                                CCDC 
#
#######################################################################
#
# If this CIF has been generated from an entry in the Cambridge 
# Structural Database, then it will include bibliographic, chemical, 
# crystal, experimental, refinement or atomic coordinate data resulting 
# from the CCDC's data processing and validation procedures.
#
#######################################################################

data_SESPOW
_chemical_formula_moiety         'C13 H14 O6'
_chemical_name_systematic        'Diethyl 5-carboxybenzene-1,3-dicarboxylate'
_symmetry_cell_setting           triclinic
_symmetry_space_group_name_H-M   'P -1'
_symmetry_Int_Tables_number      2
_space_group_name_Hall           '-P 1'
loop_
_symmetry_equiv_pos_site_id
_symmetry_equiv_pos_as_xyz
1 x,y,z
2 -x,-y,-z
_cell_length_a                   4.5368(2)
_cell_length_b                   9.7315(4)
_cell_length_c                   14.5803(6)
_cell_angle_alpha                89.3231(13)
_cell_angle_beta                 84.7769(14)
_cell_angle_gamma                81.383(2)
_cell_volume                     633.808
_exptl_crystal_colour            colorless
_exptl_crystal_description       block
_cell_formula_units_Z            2
_exptl_crystal_recrystallization_method dichloromethane
loop_
_atom_site_label
_atom_site_type_symbol
_atom_site_fract_x
_atom_site_fract_y
_atom_site_fract_z
C1 C 0.5895(3) 0.70658(14) 0.36849(10)
C2 C 0.7852(3) 0.69845(14) 0.28876(10)
H1 H 0.903(4) 0.772(2) 0.2713(14)
C3 C 0.8227(3) 0.58093(14) 0.23267(10)
C4 C 0.6610(3) 0.47229(14) 0.25619(10)
H2 H 0.682(4) 0.3874(18) 0.2155(13)
C5 C 0.4649(3) 0.48124(14) 0.33600(10)
C6 C 0.4287(3) 0.59841(14) 0.39296(10)
H3 H 0.291(4) 0.6074(19) 0.4496(15)
C7 C 0.5546(3) 0.83427(15) 0.42626(11)
C8 C 1.0358(3) 0.56587(14) 0.14808(10)
C9 C 0.2852(3) 0.36824(14) 0.36296(10)
C10 C 1.3433(4) 0.67885(17) 0.04106(11)
H4 H 1.236(4) 0.656(2) -0.0125(15)
H5 H 1.522(4) 0.604(2) 0.0511(14)
C11 C 1.4309(5) 0.8210(2) 0.02719(15)
H6 H 1.255(6) 0.890(3) 0.0178(17)
H7 H 1.568(6) 0.826(3) -0.0332(19)
H8 H 1.539(6) 0.845(3) 0.0830(19)
C12 C 0.1456(4) 0.15601(16) 0.31680(12)
H9 H -0.058(4) 0.1944(19) 0.3239(13)
H10 H 0.207(4) 0.103(2) 0.3726(15)
C13 C 0.2099(6) 0.0618(2) 0.23426(16)
H11 H 0.117(6) 0.109(3) 0.182(2)
H12 H 0.108(5) -0.016(3) 0.2413(17)
H13 H 0.430(7) 0.023(3) 0.222(2)
O1 O 0.3512(3) 0.84084(12) 0.49615(9)
H14 H 0.342(6) 0.9304(18) 0.527(2)
O2 O 0.7063(3) 0.92769(11) 0.40736(8)
O3 O 1.1373(2) 0.68510(11) 0.12477(7)
O4 O 1.1085(2) 0.45820(11) 0.10536(8)
O5 O 0.3250(2) 0.26729(11) 0.29900(8)
O6 O 0.1206(3) 0.36816(11) 0.43254(8)
loop_
_geom_bond_atom_site_label_1
_geom_bond_atom_site_label_2
_geom_bond_site_symmetry_1
_geom_bond_site_symmetry_2
C1 C2 1_555 1_555
C2 H1 1_555 1_555
C3 C2 1_555 1_555
C4 C3 1_555 1_555
H2 C4 1_555 1_555
C5 C4 1_555 1_555
C6 C1 1_555 1_555
H3 C6 1_555 1_555
C7 C1 1_555 1_555
C8 C3 1_555 1_555
C9 C5 1_555 1_555
C10 H4 1_555 1_555
H5 C10 1_555 1_555
C11 C10 1_555 1_555
H6 C11 1_555 1_555
H7 C11 1_555 1_555
H8 C11 1_555 1_555
C12 H9 1_555 1_555
H10 C12 1_555 1_555
C13 C12 1_555 1_555
H11 C13 1_555 1_555
H12 C13 1_555 1_555
H13 C13 1_555 1_555
O1 C7 1_555 1_555
H14 O1 1_555 1_555
O2 C7 1_555 1_555
O3 C8 1_555 1_555
O4 C8 1_555 1_555
O5 C9 1_555 1_555
O6 C9 1_555 1_555
C5 C6 1_555 1_555
C10 O3 1_555 1_555
C12 O5 1_555 1_555

#END
