
#######################################################################
#
#                 Cambridge Crystallographic Data Centre
#                                CCDC 
#
#######################################################################
#
# If this CIF has been generated from an entry in the Cambridge 
# Structural Database, then it will include bibliographic, chemical, 
# crystal, experimental, refinement or atomic coordinate data resulting 
# from the CCDC's data processing and validation procedures.
#
#######################################################################

data_SESQOZ
_chemical_formula_moiety         'C31 H27 Br1 N2 O6'
_chemical_name_systematic        
2-benzyl-5-(4-bromophenyl)-2-hydroxy-6-nitro-4-(4-nitrophenyl)-1-phenylhexan-3-one
_symmetry_cell_setting           monoclinic
_symmetry_space_group_name_H-M   'P 21'
_symmetry_Int_Tables_number      4
_space_group_name_Hall           'P 2yb'
loop_
_symmetry_equiv_pos_site_id
_symmetry_equiv_pos_as_xyz
1 x,y,z
2 -x,1/2+y,-z
_cell_length_a                   5.95515(6)
_cell_length_b                   19.00227(16)
_cell_length_c                   24.4322(2)
_cell_angle_alpha                90
_cell_angle_beta                 92.0104(8)
_cell_angle_gamma                90
_cell_volume                     2763.08
_exptl_crystal_colour            colorless
_exptl_crystal_description       needle
_cell_formula_units_Z            4
loop_
_atom_site_label
_atom_site_type_symbol
_atom_site_fract_x
_atom_site_fract_y
_atom_site_fract_z
Br1 Br 0.90542(13) 0.07168(3) 0.22997(2)
O1 O 0.8594(4) 0.29304(15) 0.00968(12)
O2 O 0.2857(4) 0.27111(14) -0.01830(12)
O3 O 1.2233(5) 0.05896(16) -0.03944(14)
O4 O 1.0008(5) -0.03038(16) -0.04093(16)
O5 O 0.7141(7) 0.2912(2) -0.28254(16)
O6 O 0.3915(7) 0.2409(2) -0.28568(15)
N1 N 1.0360(5) 0.03249(17) -0.04316(14)
N2 N 0.5637(7) 0.2592(2) -0.26089(15)
C1 C 0.8369(6) 0.0801(2) -0.05243(17)
H1 H 0.698 0.0544 -0.0436
H2 H 0.8253 0.0938 -0.0915
C2 C 0.8573(6) 0.14609(19) -0.01691(16)
H3 H 0.9998 0.1708 -0.0257
C3 C 0.6581(6) 0.19542(19) -0.03156(15)
H4 H 0.5166 0.1721 -0.0202
C4 C 0.6786(5) 0.26662(19) -0.00218(15)
C5 C 0.4642(6) 0.3063(2) 0.01093(16)
C6 C 0.4815(6) 0.3843(2) -0.00627(17)
H5 H 0.3402 0.4083 0.003
H6 H 0.6048 0.4064 0.0158
C7 C 0.8667(6) 0.12735(19) 0.04360(16)
C8 C 0.6863(7) 0.0955(2) 0.06861(19)
H7 H 0.5539 0.0847 0.0474
C9 C 0.6972(8) 0.0794(2) 0.1240(2)
H8 H 0.5733 0.0576 0.1407
C10 C 0.8900(8) 0.0953(2) 0.15481(19)
C11 C 1.0736(8) 0.1255(2) 0.13084(19)
H9 H 1.2068 0.1352 0.152
C12 C 1.0603(6) 0.1414(2) 0.07555(18)
H10 H 1.1858 0.1623 0.059
C13 C 0.6360(6) 0.21115(19) -0.09275(16)
C14 C 0.4430(6) 0.1904(2) -0.12255(17)
H11 H 0.3274 0.1657 -0.1048
C15 C 0.4198(7) 0.2056(2) -0.17754(18)
H12 H 0.288 0.1921 -0.1979
C16 C 0.5921(7) 0.2410(2) -0.20275(17)
C17 C 0.7877(7) 0.2612(2) -0.17431(17)
H13 H 0.9044 0.2849 -0.1924
C18 C 0.8082(6) 0.2459(2) -0.11883(17)
H14 H 0.9405 0.2591 -0.0985
C19 C 0.4278(6) 0.2998(2) 0.07358(17)
H15 H 0.2767 0.3186 0.0809
H16 H 0.4267 0.2491 0.0829
C20 C 0.5942(7) 0.3358(2) 0.11210(17)
C21 C 0.7778(8) 0.2988(3) 0.13369(18)
H17 H 0.7944 0.2502 0.1255
C22 C 0.9377(8) 0.3326(3) 0.1672(2)
H18 H 1.0631 0.307 0.1819
C23 C 0.9147(9) 0.4029(3) 0.1792(2)
H19 H 1.0271 0.4264 0.2008
C24 C 0.7271(10) 0.4394(3) 0.1596(2)
H20 H 0.7084 0.4875 0.1691
C25 C 0.5682(8) 0.4065(2) 0.12647(19)
H21 H 0.44 0.4319 0.1133
C26 C 0.5229(6) 0.3974(2) -0.06609(18)
C27 C 0.3543(7) 0.3866(2) -0.10680(19)
H22 H 0.2118 0.369 -0.0971
C28 C 0.3951(8) 0.4014(2) -0.1611(2)
H23 H 0.2804 0.3932 -0.1884
C29 C 0.5996(8) 0.4278(2) -0.17617(19)
H24 H 0.625 0.4385 -0.2134
C30 C 0.7679(7) 0.4387(2) -0.1362(2)
H25 H 0.9099 0.4564 -0.1462
C31 C 0.7287(7) 0.4235(2) -0.08161(19)
H26 H 0.8446 0.4312 -0.0546
H27 H 0.169(5) 0.278(3) -0.004(2)
Br2 Br 0.63864(13) 0.25525(3) 0.29142(2)
O7 O 1.0926(5) 0.13338(16) 0.53604(13)
O8 O 0.6259(5) 0.03316(15) 0.48981(12)
O9 O 0.2477(7) 0.3440(2) 0.54647(19)
O10 O 0.5989(8) 0.3709(2) 0.55144(19)
O11 O 1.0006(7) 0.0966(2) 0.81132(15)
O12 O 0.6775(7) 0.0463(2) 0.80950(17)
N3 N 0.4452(7) 0.3296(2) 0.55570(16)
N4 N 0.8256(7) 0.0784(2) 0.78741(16)
C32 C 0.4956(7) 0.2562(2) 0.57341(17)
H28 H 0.3615 0.2265 0.5659
H29 H 0.5286 0.2556 0.6134
C33 C 0.6956(6) 0.2249(2) 0.54406(17)
H30 H 0.8364 0.2484 0.558
C34 C 0.7078(6) 0.1453(2) 0.55895(16)
H31 H 0.5648 0.1225 0.5456
C35 C 0.9026(6) 0.1108(2) 0.52959(16)
C36 C 0.8592(6) 0.0476(2) 0.49163(17)
C37 C 0.9956(6) -0.0165(2) 0.51417(18)
H32 H 0.9755 -0.056 0.4881
H33 H 1.157 -0.0038 0.5155
C38 C 0.6754(7) 0.2342(2) 0.48242(18)
C39 C 0.8466(7) 0.2665(2) 0.4545(2)
H34 H 0.9724 0.2848 0.4748
C40 C 0.8389(8) 0.2726(2) 0.3978(2)
H35 H 0.9578 0.2945 0.3792
C41 C 0.6524(9) 0.2459(2) 0.36890(19)
C42 C 0.4757(8) 0.2145(3) 0.3954(2)
H36 H 0.348 0.1975 0.3752
C43 C 0.4889(7) 0.2085(2) 0.45180(19)
H37 H 0.3696 0.1866 0.4702
C44 C 0.7371(6) 0.1312(2) 0.61971(17)
C45 C 0.5724(7) 0.0936(2) 0.64644(19)
H38 H 0.4398 0.0796 0.6266
C46 C 0.5985(7) 0.0765(2) 0.70131(19)
H39 H 0.4858 0.051 0.7194
C47 C 0.7934(7) 0.0977(2) 0.72926(18)
C48 C 0.9575(7) 0.1361(2) 0.70462(18)
H40 H 1.0884 0.1507 0.7249
C49 C 0.9280(7) 0.1531(2) 0.64967(18)
H41 H 1.0392 0.18 0.6322
C50 C 0.9396(7) 0.0703(2) 0.43429(17)
H42 H 0.87 0.116 0.4241
H43 H 1.1046 0.0769 0.4362
C51 C 0.8793(7) 0.0164(2) 0.39059(17)
C52 C 1.011(3) -0.0398(7) 0.3749(5)
H44 H 1.1589 -0.0447 0.3902
C53 C 0.929(3) -0.0890(6) 0.3371(5)
H45 H 1.0197 -0.128 0.3274
C54 C 0.717(3) -0.0811(8) 0.3138(4)
H46 H 0.6603 -0.1154 0.2887
C55 C 0.587(2) -0.0241(9) 0.3266(5)
H47 H 0.4422 -0.0184 0.3095
C56 C 0.6670(18) 0.0250(10) 0.3643(5)
H48 H 0.5779 0.0649 0.3726
C57 C 0.9332(6) -0.0415(2) 0.57011(17)
C58 C 1.0855(7) -0.0347(2) 0.6145(2)
H49 H 1.2273 -0.0133 0.6091
C59 C 1.0343(9) -0.0583(3) 0.6662(2)
H50 H 1.1407 -0.0531 0.6958
C60 C 0.8291(9) -0.0895(3) 0.6749(2)
H51 H 0.7933 -0.1053 0.7104
C61 C 0.6761(8) -0.0976(2) 0.6313(2)
H52 H 0.5347 -0.1191 0.637
C62 C 0.7283(7) -0.0744(2) 0.57935(19)
H53 H 0.6231 -0.081 0.5497
H54 H 0.608(10) 0.000(2) 0.470(2)
C63? C 1.0501(16) -0.0312(5) 0.3806(4)
H55? H 1.1938 -0.0256 0.3982
C64? C 1.011(3) -0.0871(5) 0.3448(6)
H56? H 1.1275 -0.1197 0.338
C65? C 0.801(4) -0.0953(7) 0.3190(5)
H57? H 0.7737 -0.1335 0.2946
C66? C 0.630(2) -0.0477(10) 0.3290(4)
H58? H 0.4861 -0.0533 0.3114
C67? C 0.6691(9) 0.0082(8) 0.3648(4)
H59? H 0.5523 0.0407 0.3717
loop_
_geom_bond_atom_site_label_1
_geom_bond_atom_site_label_2
_geom_bond_site_symmetry_1
_geom_bond_site_symmetry_2
Br1 C10 1_555 1_555
O1 C4 1_555 1_555
O2 C5 1_555 1_555
O3 N1 1_555 1_555
O4 N1 1_555 1_555
O5 N2 1_555 1_555
O6 N2 1_555 1_555
N1 C1 1_555 1_555
N2 C16 1_555 1_555
C1 H1 1_555 1_555
H2 C1 1_555 1_555
C2 C1 1_555 1_555
H3 C2 1_555 1_555
C3 C2 1_555 1_555
H4 C3 1_555 1_555
C4 C3 1_555 1_555
C5 C4 1_555 1_555
C6 C5 1_555 1_555
H5 C6 1_555 1_555
H6 C6 1_555 1_555
C7 C2 1_555 1_555
C8 C7 1_555 1_555
H7 C8 1_555 1_555
C9 C8 1_555 1_555
H8 C9 1_555 1_555
C10 C9 1_555 1_555
C11 C10 1_555 1_555
H9 C11 1_555 1_555
C12 C7 1_555 1_555
H10 C12 1_555 1_555
C13 C3 1_555 1_555
C14 C13 1_555 1_555
H11 C14 1_555 1_555
C15 C14 1_555 1_555
H12 C15 1_555 1_555
C16 C15 1_555 1_555
C17 C16 1_555 1_555
H13 C17 1_555 1_555
C18 C13 1_555 1_555
H14 C18 1_555 1_555
C19 C5 1_555 1_555
H15 C19 1_555 1_555
H16 C19 1_555 1_555
C20 C19 1_555 1_555
C21 C20 1_555 1_555
H17 C21 1_555 1_555
C22 C21 1_555 1_555
H18 C22 1_555 1_555
C23 C22 1_555 1_555
H19 C23 1_555 1_555
C24 C23 1_555 1_555
H20 C24 1_555 1_555
C25 C20 1_555 1_555
H21 C25 1_555 1_555
C26 C6 1_555 1_555
C27 C26 1_555 1_555
H22 C27 1_555 1_555
C28 C27 1_555 1_555
H23 C28 1_555 1_555
C29 C28 1_555 1_555
H24 C29 1_555 1_555
C30 C29 1_555 1_555
H25 C30 1_555 1_555
C31 C26 1_555 1_555
H26 C31 1_555 1_555
H27 O2 1_555 1_555
Br2 C41 1_555 1_555
O7 C35 1_555 1_555
O8 C36 1_555 1_555
O9 N3 1_555 1_555
O10 N3 1_555 1_555
O11 N4 1_555 1_555
O12 N4 1_555 1_555
N3 C32 1_555 1_555
N4 C47 1_555 1_555
C32 H28 1_555 1_555
H29 C32 1_555 1_555
C33 C32 1_555 1_555
H30 C33 1_555 1_555
C34 C33 1_555 1_555
H31 C34 1_555 1_555
C35 C34 1_555 1_555
C36 C35 1_555 1_555
C37 C36 1_555 1_555
H32 C37 1_555 1_555
H33 C37 1_555 1_555
C38 C33 1_555 1_555
C39 C38 1_555 1_555
H34 C39 1_555 1_555
C40 C39 1_555 1_555
H35 C40 1_555 1_555
C41 C40 1_555 1_555
C42 C41 1_555 1_555
H36 C42 1_555 1_555
C43 C38 1_555 1_555
H37 C43 1_555 1_555
C44 C34 1_555 1_555
C45 C44 1_555 1_555
H38 C45 1_555 1_555
C46 C45 1_555 1_555
H39 C46 1_555 1_555
C47 C46 1_555 1_555
C48 C47 1_555 1_555
H40 C48 1_555 1_555
C49 C44 1_555 1_555
H41 C49 1_555 1_555
C50 C36 1_555 1_555
H42 C50 1_555 1_555
H43 C50 1_555 1_555
C51 C50 1_555 1_555
C52 C51 1_555 1_555
H44 C52 1_555 1_555
C53 C52 1_555 1_555
H45 C53 1_555 1_555
C54 C53 1_555 1_555
H46 C54 1_555 1_555
C55 C54 1_555 1_555
H47 C55 1_555 1_555
C56 C51 1_555 1_555
H48 C56 1_555 1_555
C57 C37 1_555 1_555
C58 C57 1_555 1_555
H49 C58 1_555 1_555
C59 C58 1_555 1_555
H50 C59 1_555 1_555
C60 C59 1_555 1_555
H51 C60 1_555 1_555
C61 C60 1_555 1_555
H52 C61 1_555 1_555
C62 C57 1_555 1_555
H53 C62 1_555 1_555
H54 O8 1_555 1_555
C11 C12 1_555 1_555
C17 C18 1_555 1_555
C24 C25 1_555 1_555
C30 C31 1_555 1_555
C42 C43 1_555 1_555
C48 C49 1_555 1_555
C55 C56 1_555 1_555
C61 C62 1_555 1_555

#END
