
#######################################################################
#
#                 Cambridge Crystallographic Data Centre
#                                CCDC 
#
#######################################################################
#
# If this CIF has been generated from an entry in the Cambridge 
# Structural Database, then it will include bibliographic, chemical, 
# crystal, experimental, refinement or atomic coordinate data resulting 
# from the CCDC's data processing and validation procedures.
#
#######################################################################

data_SESROY
_chemical_formula_moiety         'C8 H6 F1 N3 S1'
_chemical_name_systematic        5-(4-Fluorophenyl)-1,3,4-thiadiazol-2-ylamine
_symmetry_cell_setting           monoclinic
_symmetry_space_group_name_H-M   'P 21/c'
_symmetry_Int_Tables_number      14
_space_group_name_Hall           '-P 2ybc'
loop_
_symmetry_equiv_pos_site_id
_symmetry_equiv_pos_as_xyz
1 x,y,z
2 -x,1/2+y,1/2-z
3 -x,-y,-z
4 x,1/2-y,1/2+z
_cell_length_a                   8.8020(18)
_cell_length_b                   8.9610(18)
_cell_length_c                   11.035(2)
_cell_angle_alpha                90
_cell_angle_beta                 97.19(3)
_cell_angle_gamma                90
_cell_volume                     863.538
_exptl_crystal_colour            yellow
_exptl_crystal_description       plate
_chemical_melting_point          '513-514 K'
_cell_formula_units_Z            4
_exptl_crystal_recrystallization_method acetone
loop_
_atom_site_label
_atom_site_type_symbol
_atom_site_fract_x
_atom_site_fract_y
_atom_site_fract_z
S1 S 0.67382(8) 0.64217(7) 0.65161(5)
F1 F 0.9517(3) 0.0642(2) 0.3617(2)
N1 N 0.6516(3) 0.6979(2) 0.42360(17)
N2 N 0.5926(3) 0.8231(2) 0.47480(18)
N3 N 0.5430(3) 0.9128(3) 0.66437(19)
H1 H 0.5042 0.9942 0.6330
H2 H 0.5479 0.8979 0.7418
C1 C 0.8926(4) 0.1949(3) 0.3983(3)
C2 C 0.9109(3) 0.3208(4) 0.3321(3)
H3 H 0.9639 0.3178 0.2644
C3 C 0.8490(3) 0.4523(3) 0.3681(2)
H4 H 0.8611 0.5396 0.3247
C4 C 0.7685(3) 0.4555(3) 0.4690(2)
C5 C 0.7544(3) 0.3254(3) 0.5345(2)
H5 H 0.7034 0.3274 0.6034
C6 C 0.8154(4) 0.1928(3) 0.4984(3)
H6 H 0.8042 0.1047 0.5410
C7 C 0.6987(3) 0.5958(3) 0.50219(19)
C8 C 0.5957(3) 0.8094(3) 0.5929(2)
loop_
_geom_bond_atom_site_label_1
_geom_bond_atom_site_label_2
_geom_bond_site_symmetry_1
_geom_bond_site_symmetry_2
S1 C7 1_555 1_555
F1 C1 1_555 1_555
N1 N2 1_555 1_555
N2 C8 1_555 1_555
N3 H1 1_555 1_555
H2 N3 1_555 1_555
C1 C2 1_555 1_555
C2 H3 1_555 1_555
C3 C2 1_555 1_555
H4 C3 1_555 1_555
C4 C3 1_555 1_555
C5 C4 1_555 1_555
H5 C5 1_555 1_555
C6 C1 1_555 1_555
H6 C6 1_555 1_555
C7 N1 1_555 1_555
C8 S1 1_555 1_555
N3 C8 1_555 1_555
C4 C7 1_555 1_555
C5 C6 1_555 1_555

#END
