
#######################################################################
#
#                 Cambridge Crystallographic Data Centre
#                                CCDC 
#
#######################################################################
#
# If this CIF has been generated from an entry in the Cambridge 
# Structural Database, then it will include bibliographic, chemical, 
# crystal, experimental, refinement or atomic coordinate data resulting 
# from the CCDC's data processing and validation procedures.
#
#######################################################################

data_SESROA
_chemical_formula_moiety         'C17 H18 N3 O2 1+,1.36(H2 O1),I1 1-'
_chemical_name_systematic        
'4-[2-(acetylamino)-3-oxo-3-(phenylamino)prop-1-en-1-yl]-1-methylpyridin-1-ium iodide hydrate'
_symmetry_cell_setting           triclinic
_symmetry_space_group_name_H-M   'P -1'
_symmetry_Int_Tables_number      2
_space_group_name_Hall           '-P 1'
loop_
_symmetry_equiv_pos_site_id
_symmetry_equiv_pos_as_xyz
1 x,y,z
2 -x,-y,-z
_cell_length_a                   8.4377(6)
_cell_length_b                   9.2268(5)
_cell_length_c                   13.3767(8)
_cell_angle_alpha                108.903(5)
_cell_angle_beta                 103.063(5)
_cell_angle_gamma                95.550(5)
_cell_volume                     943.296
_exptl_crystal_colour            yellow
_exptl_crystal_description       parallelepiped
_cell_formula_units_Z            2
loop_
_atom_site_label
_atom_site_type_symbol
_atom_site_fract_x
_atom_site_fract_y
_atom_site_fract_z
I1 I 0.84541(2) 0.27031(2) 0.08316(2)
O1 O 0.2259(3) 0.1643(2) 0.40378(17)
O2 O 0.4998(2) 0.2842(2) 0.32204(17)
N1 N 0.3449(3) 0.3830(3) 0.5543(2)
H1 H 0.379(4) 0.480(4) 0.576(3)
N2 N 0.0241(3) 0.8424(2) 0.24586(19)
N3 N 0.2468(3) 0.3367(3) 0.2690(2)
H2 H 0.172(4) 0.320(4) 0.217(3)
C1 C 0.3842(4) 0.3984(3) 0.7415(2)
H3 H 0.3572 0.4996 0.7587
C2 C 0.4251(4) 0.3352(4) 0.8233(3)
H4 H 0.4268 0.3941 0.8966
C3 C 0.4628(4) 0.1883(4) 0.7991(3)
H5 H 0.4901 0.1458 0.8553
C4 C 0.4610(4) 0.1028(4) 0.6926(3)
H6 H 0.4870 0.0013 0.6760
C5 C 0.4214(4) 0.1635(3) 0.6097(3)
H7 H 0.4202 0.1043 0.5366
C6 C 0.3833(4) 0.3136(3) 0.6355(2)
C7 C 0.2707(3) 0.3055(3) 0.4461(2)
C8 C 0.2374(3) 0.4069(3) 0.3773(2)
C9 C 0.1813(3) 0.5402(3) 0.4133(2)
H8 H 0.1710 0.5704 0.4862
C10 C 0.1336(3) 0.6454(3) 0.3540(2)
C11 C 0.0408(4) 0.7562(3) 0.3954(2)
H9 H 0.0148 0.7655 0.4624
C12 C -0.0132(4) 0.8521(3) 0.3400(2)
H10 H -0.0776 0.9259 0.3686
C13 C 0.1209(4) 0.7427(3) 0.2069(2)
H11 H 0.1512 0.7407 0.1423
C14 C 0.1763(4) 0.6441(3) 0.2587(2)
H12 H 0.2443 0.5744 0.2298
C15 C -0.0380(4) 0.9440(3) 0.1853(2)
H13 H 0.0006 0.9217 0.1190
H14 H -0.1593 0.9237 0.1645
H15 H 0.0036 1.0535 0.2324
C16 C 0.3764(4) 0.2688(3) 0.2471(2)
C17 C 0.3613(4) 0.1791(4) 0.1291(3)
H16 H 0.2535 0.1819 0.0838
H17 H 0.4498 0.2258 0.1065
H18 H 0.3706 0.0707 0.1198
O3 O 0.8292(4) 0.2409(3) 0.3441(2)
H19 H 0.712(6) 0.226(5) 0.324(4)
H20 H 0.851(4) 0.257(4) 0.299(3)
O4 O 0.1918(9) 0.4123(8) 0.0096(6)
H21 H 0.1624 0.3581 -0.0575
H22 H 0.0953 0.3818 0.0570
loop_
_geom_bond_atom_site_label_1
_geom_bond_atom_site_label_2
_geom_bond_site_symmetry_1
_geom_bond_site_symmetry_2
O1 C7 1_555 1_555
O2 C16 1_555 1_555
N1 H1 1_555 1_555
N2 C12 1_555 1_555
N3 H2 1_555 1_555
C1 H3 1_555 1_555
C2 C1 1_555 1_555
H4 C2 1_555 1_555
C3 C2 1_555 1_555
H5 C3 1_555 1_555
C4 C3 1_555 1_555
H6 C4 1_555 1_555
C5 C4 1_555 1_555
H7 C5 1_555 1_555
C6 N1 1_555 1_555
C7 N1 1_555 1_555
C8 N3 1_555 1_555
C9 C8 1_555 1_555
H8 C9 1_555 1_555
C10 C9 1_555 1_555
C11 C10 1_555 1_555
H9 C11 1_555 1_555
C12 C11 1_555 1_555
H10 C12 1_555 1_555
C13 N2 1_555 1_555
H11 C13 1_555 1_555
C14 C10 1_555 1_555
H12 C14 1_555 1_555
C15 N2 1_555 1_555
H13 C15 1_555 1_555
H14 C15 1_555 1_555
H15 C15 1_555 1_555
C16 N3 1_555 1_555
C17 C16 1_555 1_555
H16 C17 1_555 1_555
H17 C17 1_555 1_555
H18 C17 1_555 1_555
O3 H19 1_555 1_555
H20 O3 1_555 1_555
O4 H21 1_555 1_555
H22 O4 1_555 1_555
C1 C6 1_555 1_555
C5 C6 1_555 1_555
C7 C8 1_555 1_555
C13 C14 1_555 1_555

#END
