
#######################################################################
#
#                 Cambridge Crystallographic Data Centre
#                                CCDC 
#
#######################################################################
#
# If this CIF has been generated from an entry in the Cambridge 
# Structural Database, then it will include bibliographic, chemical, 
# crystal, experimental, refinement or atomic coordinate data resulting 
# from the CCDC's data processing and validation procedures.
#
#######################################################################

data_SESRAM
_chemical_formula_moiety         'C17 H16 N3 O1 1+,I1 1-'
_chemical_name_systematic        
'1-methyl-4-[(2-methyl-5-oxo-1-phenyl-1,5-dihydro-4H-imidazol-4-ylidene)methyl]pyridin-1-ium iodide'
_symmetry_cell_setting           orthorhombic
_symmetry_space_group_name_H-M   'P 21 21 21'
_symmetry_Int_Tables_number      19
_space_group_name_Hall           'P 2ac 2ab'
loop_
_symmetry_equiv_pos_site_id
_symmetry_equiv_pos_as_xyz
1 x,y,z
2 1/2-x,-y,1/2+z
3 -x,1/2+y,1/2-z
4 1/2+x,1/2-y,-z
_cell_length_a                   5.7650(3)
_cell_length_b                   11.6468(7)
_cell_length_c                   25.0723(14)
_cell_angle_alpha                90
_cell_angle_beta                 90
_cell_angle_gamma                90
_cell_volume                     1683.45
_exptl_crystal_colour            black
_exptl_crystal_description       parallelepiped
_cell_formula_units_Z            4
loop_
_atom_site_label
_atom_site_type_symbol
_atom_site_fract_x
_atom_site_fract_y
_atom_site_fract_z
I1 I 0.11921(8) 0.77020(4) 0.20310(2)
O1 O 0.4659(8) 0.1486(4) -0.00816(16)
N1 N 0.1418(9) 0.1663(4) 0.11140(16)
N2 N 0.1579(8) 0.0608(4) 0.03615(17)
N3 N 0.5693(9) 0.5011(4) 0.22513(18)
C1 C 0.3296(9) 0.2054(4) 0.08116(18)
C2 C 0.3366(10) 0.1391(5) 0.0307(2)
C3 C 0.0498(10) 0.0828(5) 0.0848(2)
C4 C 0.4918(10) 0.2834(5) 0.0928(2)
H1 H 0.6075 0.2926 0.0673
C5 C 0.5129(10) 0.3563(5) 0.1401(2)
C6 C 0.3461(11) 0.3598(5) 0.1807(2)
H2 H 0.2156 0.3129 0.1792
C7 C 0.3782(14) 0.4329(5) 0.2225(2)
H3 H 0.2680 0.4362 0.2496
C8 C 0.7294(12) 0.4990(6) 0.1874(2)
H4 H 0.8586 0.5465 0.1900
C9 C 0.7053(11) 0.4267(6) 0.1444(2)
H5 H 0.8188 0.4252 0.1180
C10 C 0.5985(17) 0.5773(6) 0.2720(3)
H6 H 0.4679 0.5686 0.2954
H7 H 0.7380 0.5569 0.2906
H8 H 0.6083 0.6556 0.2603
C11 C 0.1098(11) -0.0279(4) -0.00252(19)
C12 C 0.2844(11) -0.1089(5) -0.0117(3)
H9 H 0.4199 -0.1083 0.0084
C13 C 0.2513(14) -0.1900(6) -0.0516(3)
H10 H 0.3674 -0.2431 -0.0592
C14 C 0.0481(13) -0.1920(6) -0.0797(3)
H11 H 0.0261 -0.2474 -0.1059
C15 C -0.1244(13) -0.1132(6) -0.0698(2)
H12 H -0.2611 -0.1154 -0.0894
C16 C -0.0948(11) -0.0303(5) -0.0305(2)
H13 H -0.2115 0.0225 -0.0233
C17 C -0.1477(12) 0.0119(6) 0.1038(2)
H14 H -0.1857 -0.0446 0.0773
H15 H -0.1053 -0.0260 0.1364
H16 H -0.2798 0.0602 0.1100
loop_
_geom_bond_atom_site_label_1
_geom_bond_atom_site_label_2
_geom_bond_site_symmetry_1
_geom_bond_site_symmetry_2
O1 C2 1_555 1_555
N1 C1 1_555 1_555
N2 C2 1_555 1_555
N3 C7 1_555 1_555
C1 C2 1_555 1_555
C3 N1 1_555 1_555
C4 C1 1_555 1_555
H1 C4 1_555 1_555
C5 C4 1_555 1_555
C6 C5 1_555 1_555
H2 C6 1_555 1_555
C7 C6 1_555 1_555
H3 C7 1_555 1_555
C8 N3 1_555 1_555
H4 C8 1_555 1_555
C9 C5 1_555 1_555
H5 C9 1_555 1_555
C10 N3 1_555 1_555
H6 C10 1_555 1_555
H7 C10 1_555 1_555
H8 C10 1_555 1_555
C11 N2 1_555 1_555
C12 C11 1_555 1_555
H9 C12 1_555 1_555
C13 C12 1_555 1_555
H10 C13 1_555 1_555
C14 C13 1_555 1_555
H11 C14 1_555 1_555
C15 C14 1_555 1_555
H12 C15 1_555 1_555
C16 C11 1_555 1_555
H13 C16 1_555 1_555
C17 C3 1_555 1_555
H14 C17 1_555 1_555
H15 C17 1_555 1_555
H16 C17 1_555 1_555
N2 C3 1_555 1_555
C8 C9 1_555 1_555
C15 C16 1_555 1_555

#END
