
#######################################################################
#
#                 Cambridge Crystallographic Data Centre
#                                CCDC 
#
#######################################################################
#
# If this CIF has been generated from an entry in the Cambridge 
# Structural Database, then it will include bibliographic, chemical, 
# crystal, experimental, refinement or atomic coordinate data resulting 
# from the CCDC's data processing and validation procedures.
#
#######################################################################

data_SESRIU
_chemical_formula_moiety         'C18 H18 N3 O1 1+,H2 O1,I1 1-'
_chemical_name_systematic        
'4-[(1-benzyl-2-methyl-5-oxo-1,5-dihydro-4H-imidazol-4-ylidene)methyl]-1-methylpyridin-1-ium iodide monohydrate'
_symmetry_cell_setting           monoclinic
_symmetry_space_group_name_H-M   'P 21/c'
_symmetry_Int_Tables_number      14
_space_group_name_Hall           '-P 2ybc'
loop_
_symmetry_equiv_pos_site_id
_symmetry_equiv_pos_as_xyz
1 x,y,z
2 -x,1/2+y,1/2-z
3 -x,-y,-z
4 x,1/2-y,1/2+z
_cell_length_a                   21.1598(12)
_cell_length_b                   7.3253(4)
_cell_length_c                   23.8440(14)
_cell_angle_alpha                90
_cell_angle_beta                 91.296(5)
_cell_angle_gamma                90
_cell_volume                     3694.92
_exptl_crystal_colour            brown
_exptl_crystal_description       parallelepiped
_cell_formula_units_Z            8
loop_
_atom_site_label
_atom_site_type_symbol
_atom_site_fract_x
_atom_site_fract_y
_atom_site_fract_z
I1 I 0.34406(4) 0.66310(13) 0.12886(4)
I2 I 0.09422(4) 0.17641(11) 0.08421(4)
O1 O 0.1000(5) 1.3196(14) -0.1190(5)
N1 N 0.1668(5) 1.4237(14) -0.1876(5)
N2 N 0.2623(5) 1.4111(13) -0.1410(5)
N3 N 0.3867(5) 1.2055(16) 0.0477(5)
C1 C 0.1022(8) 1.748(2) -0.2855(6)
H1 H 0.1211 1.6940 -0.3172
C2 C 0.0764(8) 1.925(2) -0.2893(7)
H2 H 0.0758 1.9870 -0.3243
C3 C 0.0525(6) 2.0058(19) -0.2433(6)
H3 H 0.0366 2.1270 -0.2457
C4 C 0.0512(6) 1.914(2) -0.1936(6)
H4 H 0.0341 1.9709 -0.1615
C5 C 0.0749(7) 1.737(2) -0.1897(6)
H5 H 0.0738 1.6728 -0.1551
C6 C 0.0999(6) 1.6545(16) -0.2360(5)
C7 C 0.1222(7) 1.4550(18) -0.2321(6)
H6 H 0.0850 1.3754 -0.2267
H7 H 0.1414 1.4202 -0.2680
C8 C 0.1524(5) 1.3547(17) -0.1354(6)
C9 C 0.2148(6) 1.3471(16) -0.1046(5)
C10 C 0.2326(6) 1.4522(16) -0.1872(6)
C11 C 0.2631(7) 1.5233(18) -0.2389(6)
H8 H 0.2308 1.5440 -0.2682
H9 H 0.2848 1.6385 -0.2302
H10 H 0.2939 1.4339 -0.2520
C12 C 0.2224(6) 1.2870(16) -0.0517(6)
H11 H 0.1845 1.2569 -0.0332
C13 C 0.2803(5) 1.2614(17) -0.0185(5)
C14 C 0.2769(6) 1.1873(17) 0.0352(6)
H12 H 0.2368 1.1569 0.0497
C15 C 0.3295(6) 1.1579(18) 0.0671(6)
H13 H 0.3263 1.1037 0.1031
C16 C 0.3923(6) 1.2801(19) -0.0026(6)
H14 H 0.4331 1.3126 -0.0153
C17 C 0.3403(6) 1.3112(18) -0.0365(6)
H15 H 0.3450 1.3667 -0.0721
C18 C 0.4440(7) 1.173(2) 0.0845(7)
H16 H 0.4311 1.1172 0.1198
H17 H 0.4730 1.0907 0.0654
H18 H 0.4652 1.2893 0.0923
O2 O 0.3925(4) 0.7055(15) 0.4136(4)
N4 N 0.3362(5) 0.5964(13) 0.3361(4)
N5 N 0.2352(5) 0.6072(14) 0.3661(5)
N6 N 0.0790(5) 0.7885(14) 0.5280(5)
C19 C 0.4424(6) 0.303(2) 0.3439(7)
H19 H 0.4461 0.3756 0.3767
C20 C 0.4671(8) 0.129(2) 0.3441(9)
H20 H 0.4876 0.0810 0.3768
C21 C 0.4617(8) 0.026(2) 0.2965(8)
H21 H 0.4799 -0.0920 0.2962
C22 C 0.4307(7) 0.089(2) 0.2487(8)
H22 H 0.4268 0.0140 0.2162
C23 C 0.4050(7) 0.265(2) 0.2495(7)
H23 H 0.3826 0.3104 0.2175
C24 C 0.4123(6) 0.3720(18) 0.2967(6)
C25 C 0.3886(6) 0.5653(16) 0.2980(6)
H24 H 0.4241 0.6464 0.3092
H25 H 0.3746 0.6006 0.2596
C26 C 0.3419(6) 0.6643(16) 0.3887(5)
C27 C 0.2753(6) 0.6714(16) 0.4091(6)
C28 C 0.2717(6) 0.5642(16) 0.3245(5)
C29 C 0.2508(7) 0.4917(16) 0.2711(5)
H26 H 0.2874 0.4714 0.2474
H27 H 0.2288 0.3757 0.2769
H28 H 0.2219 0.5786 0.2526
C30 C 0.2619(6) 0.7259(16) 0.4604(5)
H29 H 0.2962 0.7585 0.4848
C31 C 0.1967(6) 0.7401(17) 0.4829(5)
C32 C 0.1418(6) 0.6873(18) 0.4534(6)
H30 H 0.1449 0.6352 0.4171
C33 C 0.0823(6) 0.7108(19) 0.4770(6)
H31 H 0.0450 0.6725 0.4574
C34 C 0.1303(6) 0.8371(17) 0.5572(6)
H32 H 0.1258 0.8872 0.5937
C35 C 0.1902(6) 0.8167(17) 0.5360(5)
H33 H 0.2263 0.8545 0.5573
C36 C 0.0169(6) 0.8104(19) 0.5544(6)
H34 H -0.0166 0.7694 0.5283
H35 H 0.0159 0.7370 0.5887
H36 H 0.0103 0.9392 0.5637
O3 O 0.2323(10) 0.272(3) 0.1609(8)
O4 O 0.4541(5) 0.736(2) 0.0207(5)
loop_
_geom_bond_atom_site_label_1
_geom_bond_atom_site_label_2
_geom_bond_site_symmetry_1
_geom_bond_site_symmetry_2
O1 C8 1_555 1_555
N1 C7 1_555 1_555
N2 C9 1_555 1_555
N3 C15 1_555 1_555
C1 H1 1_555 1_555
C2 C1 1_555 1_555
H2 C2 1_555 1_555
C3 C2 1_555 1_555
H3 C3 1_555 1_555
C4 C3 1_555 1_555
H4 C4 1_555 1_555
C5 C4 1_555 1_555
H5 C5 1_555 1_555
C6 C1 1_555 1_555
C7 C6 1_555 1_555
H6 C7 1_555 1_555
H7 C7 1_555 1_555
C8 N1 1_555 1_555
C9 C8 1_555 1_555
C10 N1 1_555 1_555
C11 C10 1_555 1_555
H8 C11 1_555 1_555
H9 C11 1_555 1_555
H10 C11 1_555 1_555
C12 C9 1_555 1_555
H11 C12 1_555 1_555
C13 C12 1_555 1_555
C14 C13 1_555 1_555
H12 C14 1_555 1_555
C15 C14 1_555 1_555
H13 C15 1_555 1_555
C16 N3 1_555 1_555
H14 C16 1_555 1_555
C17 C13 1_555 1_555
H15 C17 1_555 1_555
C18 N3 1_555 1_555
H16 C18 1_555 1_555
H17 C18 1_555 1_555
H18 C18 1_555 1_555
O2 C26 1_555 1_555
N4 C25 1_555 1_555
N5 C27 1_555 1_555
N6 C33 1_555 1_555
C19 H19 1_555 1_555
C20 C19 1_555 1_555
H20 C20 1_555 1_555
C21 C20 1_555 1_555
H21 C21 1_555 1_555
C22 C21 1_555 1_555
H22 C22 1_555 1_555
C23 C22 1_555 1_555
H23 C23 1_555 1_555
C24 C19 1_555 1_555
C25 C24 1_555 1_555
H24 C25 1_555 1_555
H25 C25 1_555 1_555
C26 N4 1_555 1_555
C27 C26 1_555 1_555
C28 N4 1_555 1_555
C29 C28 1_555 1_555
H26 C29 1_555 1_555
H27 C29 1_555 1_555
H28 C29 1_555 1_555
C30 C27 1_555 1_555
H29 C30 1_555 1_555
C31 C30 1_555 1_555
C32 C31 1_555 1_555
H30 C32 1_555 1_555
C33 C32 1_555 1_555
H31 C33 1_555 1_555
C34 N6 1_555 1_555
H32 C34 1_555 1_555
C35 C31 1_555 1_555
H33 C35 1_555 1_555
C36 N6 1_555 1_555
H34 C36 1_555 1_555
H35 C36 1_555 1_555
H36 C36 1_555 1_555
N2 C10 1_555 1_555
C5 C6 1_555 1_555
C16 C17 1_555 1_555
N5 C28 1_555 1_555
C23 C24 1_555 1_555
C34 C35 1_555 1_555

#END
