
#######################################################################
#
#                 Cambridge Crystallographic Data Centre
#                                CCDC 
#
#######################################################################
#
# If this CIF has been generated from an entry in the Cambridge 
# Structural Database, then it will include bibliographic, chemical, 
# crystal, experimental, refinement or atomic coordinate data resulting 
# from the CCDC's data processing and validation procedures.
#
#######################################################################

data_SESSIV
_chemical_formula_moiety         'C26 H26 N2 O5'
_chemical_name_systematic        
2^2^,2^4^-dinitro-2^6^-(2-phenylethyl)-2^1^,2^2^,2^3^,2^4^,2^5^,2^6^-hexahydro[1^1^,2^1^:2^3^,3^1^-terphenyl]-2^5^-ol
_symmetry_cell_setting           orthorhombic
_symmetry_space_group_name_H-M   'P 21 21 21'
_symmetry_Int_Tables_number      19
_space_group_name_Hall           'P 2ac 2ab'
loop_
_symmetry_equiv_pos_site_id
_symmetry_equiv_pos_as_xyz
1 x,y,z
2 1/2-x,-y,1/2+z
3 -x,1/2+y,1/2-z
4 1/2+x,1/2-y,-z
_cell_length_a                   5.79780(10)
_cell_length_b                   12.8288(2)
_cell_length_c                   30.4065(5)
_cell_angle_alpha                90
_cell_angle_beta                 90
_cell_angle_gamma                90
_cell_volume                     2261.6
_exptl_crystal_colour            colorless
_exptl_crystal_description       prism
_cell_formula_units_Z            4
loop_
_atom_site_label
_atom_site_type_symbol
_atom_site_fract_x
_atom_site_fract_y
_atom_site_fract_z
O1 O 1.1084(3) 0.27149(13) 0.05960(5)
H1 H 1.161749 0.302422 0.037476
O2 O 0.6812(4) 0.11188(15) 0.01899(5)
O3 O 0.9451(4) 0.04734(14) 0.06131(6)
O4 O 0.4235(3) 0.27711(14) 0.15329(6)
O5 O 0.5554(4) 0.25803(14) 0.21914(5)
N1 N 0.7978(4) 0.11156(15) 0.05293(6)
N2 N 0.5822(3) 0.26839(14) 0.17951(6)
C1 C 0.8697(4) 0.29682(17) 0.06453(6)
H2 H 0.801726 0.31082 0.034881
C2 C 0.7529(4) 0.20040(16) 0.08450(6)
H3 H 0.582968 0.212966 0.086352
C3 C 0.8437(4) 0.17217(16) 0.13006(6)
H4 H 1.011736 0.156626 0.126649
C4 C 0.8247(3) 0.26577(17) 0.16197(6)
H5 H 0.927638 0.249984 0.187501
C5 C 0.9126(3) 0.36841(16) 0.14161(6)
H6 H 1.081779 0.355417 0.138218
C6 C 0.8343(3) 0.39253(16) 0.09382(6)
H7 H 0.946082 0.445684 0.082678
C7 C 0.7327(4) 0.07514(16) 0.15010(7)
C8 C 0.5236(4) 0.03493(19) 0.13605(8)
H8 H 0.44498 0.06672 0.112145
C9 C 0.4273(5) -0.0521(2) 0.15679(9)
H9 H 0.284899 -0.079754 0.14668
C10 C 0.5389(6) -0.0977(2) 0.19186(9)
H10 H 0.473094 -0.156509 0.206089
C11 C 0.7449(7) -0.0579(2) 0.20615(8)
H11 H 0.820741 -0.088947 0.230546
C12 C 0.8439(5) 0.02747(19) 0.18528(8)
H12 H 0.988497 0.053416 0.195107
C13 C 0.9052(4) 0.46506(17) 0.17049(7)
C14 C 0.7251(5) 0.4928(2) 0.19790(8)
H13 H 0.597436 0.446933 0.20101
C15 C 0.7270(5) 0.5863(2) 0.22101(9)
H14 H 0.600949 0.603681 0.239577
C16 C 0.9096(5) 0.6536(2) 0.21715(9)
H15 H 0.911238 0.717509 0.232913
C17 C 1.0900(6) 0.6271(3) 0.19017(12)
H16 H 1.216843 0.673377 0.187032
C18 C 1.0888(5) 0.5337(2) 0.16749(11)
H17 H 1.216833 0.516213 0.149447
C19 C 0.5952(4) 0.44221(17) 0.08797(7)
H18 H 0.55491 0.48147 0.114925
H19 H 0.478999 0.386428 0.084048
C20 C 0.5859(4) 0.51618(18) 0.04826(8)
H20 H 0.63077 0.477239 0.021488
H21 H 0.425309 0.540601 0.044247
C21 C 0.7420(4) 0.60955(17) 0.05322(7)
C22 C 0.6904(4) 0.6886(2) 0.08280(9)
H22 H 0.554086 0.68408 0.100021
C23 C 0.8345(5) 0.7740(2) 0.08762(9)
H23 H 0.796334 0.827488 0.10798
C24 C 1.0341(5) 0.7816(2) 0.06277(10)
H24 H 1.13264 0.840303 0.065915
C25 C 1.0888(4) 0.7036(2) 0.03351(9)
H25 H 1.226502 0.707917 0.01666
C26 C 0.9426(4) 0.61841(18) 0.02859(7)
H26 H 0.980622 0.565396 0.008011
loop_
_geom_bond_atom_site_label_1
_geom_bond_atom_site_label_2
_geom_bond_site_symmetry_1
_geom_bond_site_symmetry_2
O1 H1 1_555 1_555
O2 N1 1_555 1_555
O3 N1 1_555 1_555
O4 N2 1_555 1_555
O5 N2 1_555 1_555
N1 C2 1_555 1_555
N2 C4 1_555 1_555
C1 O1 1_555 1_555
H2 C1 1_555 1_555
C2 C1 1_555 1_555
H3 C2 1_555 1_555
C3 C2 1_555 1_555
H4 C3 1_555 1_555
C4 C3 1_555 1_555
H5 C4 1_555 1_555
C5 C4 1_555 1_555
H6 C5 1_555 1_555
C6 C1 1_555 1_555
H7 C6 1_555 1_555
C7 C3 1_555 1_555
C8 C7 1_555 1_555
H8 C8 1_555 1_555
C9 C8 1_555 1_555
H9 C9 1_555 1_555
C10 C9 1_555 1_555
H10 C10 1_555 1_555
C11 C10 1_555 1_555
H11 C11 1_555 1_555
C12 C7 1_555 1_555
H12 C12 1_555 1_555
C13 C5 1_555 1_555
C14 C13 1_555 1_555
H13 C14 1_555 1_555
C15 C14 1_555 1_555
H14 C15 1_555 1_555
C16 C15 1_555 1_555
H15 C16 1_555 1_555
C17 C16 1_555 1_555
H16 C17 1_555 1_555
C18 C13 1_555 1_555
H17 C18 1_555 1_555
C19 C6 1_555 1_555
H18 C19 1_555 1_555
H19 C19 1_555 1_555
C20 C19 1_555 1_555
H20 C20 1_555 1_555
H21 C20 1_555 1_555
C21 C20 1_555 1_555
C22 C21 1_555 1_555
H22 C22 1_555 1_555
C23 C22 1_555 1_555
H23 C23 1_555 1_555
C24 C23 1_555 1_555
H24 C24 1_555 1_555
C25 C24 1_555 1_555
H25 C25 1_555 1_555
C26 C21 1_555 1_555
H26 C26 1_555 1_555
C5 C6 1_555 1_555
C11 C12 1_555 1_555
C17 C18 1_555 1_555
C25 C26 1_555 1_555

#END
