
#######################################################################
#
#                 Cambridge Crystallographic Data Centre
#                                CCDC 
#
#######################################################################
#
# If this CIF has been generated from an entry in the Cambridge 
# Structural Database, then it will include bibliographic, chemical, 
# crystal, experimental, refinement or atomic coordinate data resulting 
# from the CCDC's data processing and validation procedures.
#
#######################################################################

data_SESSAN
_chemical_formula_moiety         'C210 H186 O12'
_chemical_name_systematic        
'1,2,3:4,5,6:7,8,9:10,11,12:13,14,15:16,17,18-hexakis(1^5^,3^5^-di-t-butyl-2^4^,2^6^-dimethoxy[1^1^,2^1^:2^3^,3^1^-terphenyl]-1^2^,2^2^,3^2^-triyl)hexabenzo[bc,ef,hi,kl,no,qr]coronene unknown solvate'
_symmetry_cell_setting           monoclinic
_symmetry_space_group_name_H-M   'I 2/a'
_symmetry_Int_Tables_number      15
_space_group_name_Hall           '-I 2ya'
loop_
_symmetry_equiv_pos_site_id
_symmetry_equiv_pos_as_xyz
1 x,y,z
2 1/2-x,y,-z
3 1/2+x,1/2+y,1/2+z
4 -x,1/2+y,1/2-z
5 -x,-y,-z
6 1/2+x,-y,z
7 1/2-x,1/2-y,1/2-z
8 x,1/2-y,1/2+z
_cell_length_a                   19.2690(7)
_cell_length_b                   24.3606(4)
_cell_length_c                   41.3160(18)
_cell_angle_alpha                90
_cell_angle_beta                 102.261(4)
_cell_angle_gamma                90
_cell_volume                     18951.5
_exptl_crystal_colour            'dull dark'
_exptl_crystal_description       prism
_cell_formula_units_Z            4
loop_
_atom_site_label
_atom_site_type_symbol
_atom_site_fract_x
_atom_site_fract_y
_atom_site_fract_z
O1 O 0.41084(7) 0.31267(4) 0.55471(3)
O2 O 0.31994(7) 1.10567(4) 0.57635(4)
O3 O 0.49238(7) 1.00586(5) 0.65393(3)
O4 O 0.48154(8) 0.40731(5) 0.65687(3)
C1 C 0.27935(7) 0.55579(5) 0.51443(3)
O5 O 0.60869(10) 0.62926(6) 0.71580(3)
C2 C 0.31971(7) 0.50828(5) 0.52684(3)
C3 C 0.35231(7) 0.55440(5) 0.58033(3)
C4 C 0.35837(7) 0.75752(5) 0.58074(3)
C5 C 0.29675(7) 0.70717(5) 0.53140(3)
C6 C 0.37223(7) 0.65751(5) 0.57837(3)
C7 C 0.34987(7) 0.50610(5) 0.56113(3)
C8 C 0.27375(7) 0.65695(5) 0.51560(3)
C9 C 0.35119(7) 0.41049(5) 0.52044(3)
C10 C 0.48695(7) 0.62372(5) 0.61556(3)
C11 C 0.37898(7) 0.45498(5) 0.57663(3)
C12 C 0.50215(7) 0.58674(5) 0.59182(3)
H1 H 0.4762 0.5890 0.5701
C13 C 0.42936(7) 0.66270(5) 0.60682(3)
C14 C 0.34304(7) 0.70706(5) 0.56359(3)
C15 C 0.27275(7) 0.75766(5) 0.51577(3)
C16 C 0.53169(7) 0.62423(5) 0.64747(3)
C17 C 0.55424(7) 0.54732(6) 0.59965(3)
H2 H 0.5620 0.5227 0.5836
C18 C 0.34137(7) 0.59074(5) 0.63496(3)
H3 H 0.3145 0.6197 0.6243
C19 C 0.42869(7) 0.70900(5) 0.62756(3)
C20 C 0.29530(7) 0.80888(5) 0.53187(3)
C21 C 0.38535(7) 0.75453(5) 0.61542(3)
C22 C 0.37815(7) 0.40712(5) 0.55640(3)
C23 C 0.32875(7) 0.46200(5) 0.50594(3)
C24 C 0.31822(7) 0.46771(5) 0.47135(3)
H4 H 0.3096 0.5024 0.4620
C25 C 0.34277(7) 0.60593(5) 0.56369(3)
C26 C 0.26861(7) 0.85956(5) 0.51727(3)
C27 C 0.37772(7) 0.85908(5) 0.57419(3)
C28 C 0.39799(7) 0.50234(5) 0.63187(3)
C29 C 0.34907(8) 0.36566(5) 0.49846(4)
H5 H 0.3591 0.3308 0.5075
C30 C 0.34399(7) 0.80857(5) 0.56281(3)
C31 C 0.36508(7) 0.54971(5) 0.61599(3)
C32 C 0.29893(7) 0.60604(5) 0.53136(3)
C33 C 0.36284(8) 0.95910(5) 0.58154(3)
C34 C 0.32035(7) 0.42343(5) 0.45095(3)
H6 H 0.3134 0.4285 0.4282
C35 C 0.23182(8) 0.95363(5) 0.53312(3)
C36 C 0.47149(8) 0.91037(5) 0.61249(3)
C37 C 0.27915(7) 0.90679(5) 0.53811(3)
C38 C 0.59556(7) 0.54434(6) 0.63190(4)
C39 C 0.34005(7) 0.90812(5) 0.56433(3)
C40 C 0.35697(8) 0.58897(6) 0.66898(3)
H7 H 0.3416 0.6170 0.6810
C41 C 0.44835(7) 0.86162(5) 0.59501(3)
C42 C 0.42509(8) 0.95859(6) 0.60744(3)
C43 C 0.40967(7) 0.45512(5) 0.61150(3)
C44 C 0.41115(8) 0.35981(6) 0.57253(4)
C45 C 0.47401(8) 0.71131(6) 0.66057(3)
C46 C 0.37006(8) 0.79563(5) 0.63829(3)
C47 C 0.33290(8) 0.37066(5) 0.46437(4)
C48 C 0.49727(8) 0.81814(5) 0.59588(3)
H8 H 0.4834 0.7871 0.5830
C49 C 0.58481(8) 0.58349(6) 0.65452(3)
H9 H 0.6142 0.5830 0.6755
C50 C 0.25477(8) 1.00497(5) 0.54757(4)
C51 C 0.32270(8) 1.00798(5) 0.57174(4)
C52 C 0.41377(8) 0.50222(6) 0.66685(4)
H10 H 0.4372 0.4720 0.6778
C53 C 0.54164(8) 0.91109(6) 0.63183(4)
H11 H 0.5574 0.9428 0.6437
C54 C 0.39597(8) 0.54508(6) 0.68558(3)
C55 C 0.16106(8) 0.94889(6) 0.51520(4)
H12 H 0.1437 0.9144 0.5080
C56 C 0.20829(8) 1.05007(6) 0.53934(4)
H13 H 0.2234 1.0843 0.5480
C57 C 0.31096(8) 0.83066(6) 0.62933(4)
H14 H 0.2820 0.8274 0.6083
C58 C 0.34987(8) 1.05672(6) 0.58805(4)
C59 C 0.56436(8) 0.82038(6) 0.61506(4)
H15 H 0.5948 0.7906 0.6156
C60 C 0.52362(8) 0.66787(6) 0.67099(4)
C61 C 0.46769(9) 0.75774(6) 0.68121(4)
C62 C 0.58763(8) 0.86752(6) 0.63401(4)
C63 C 0.14154(8) 1.04600(6) 0.51905(4)
C64 C 0.33186(9) 0.31911(6) 0.44289(4)
C65 C 0.44055(9) 1.00748(6) 0.62581(4)
C66 C 0.65440(8) 0.50170(6) 0.64252(4)
C67 C 0.44555(9) 0.36067(6) 0.60546(4)
H16 H 0.4690 0.3293 0.6149
C68 C 0.41039(9) 0.79782(6) 0.67079(4)
C69 C 0.29480(9) 0.86956(6) 0.65065(4)
H17 H 0.2566 0.8932 0.6437
C70 C 0.44584(9) 0.40711(6) 0.62452(4)
C71 C 0.11731(8) 0.99345(6) 0.50811(4)
H18 H 0.0712 0.9889 0.4960
C72 C 0.40520(9) 1.05575(6) 0.61560(4)
H19 H 0.4187 1.0880 0.6273
C73 C 0.51678(11) 0.76088(7) 0.71155(4)
C74 C 0.27739(10) 0.27843(6) 0.45124(5)
H20 H 0.2911 0.2681 0.4741
H21 H 0.2757 0.2464 0.4376
H22 H 0.2314 0.2954 0.4472
C75 C 0.40587(9) 0.29268(6) 0.45008(5)
H23 H 0.4392 0.3173 0.4435
H24 H 0.4043 0.2590 0.4379
H25 H 0.4203 0.2852 0.4734
C76 C 0.41599(10) 0.54198(7) 0.72344(4)
C77 C 0.39108(11) 0.83710(7) 0.69260(4)
H26 H 0.4168 0.8383 0.7144
C78 C 0.65048(10) 0.45585(7) 0.61694(4)
H27 H 0.6043 0.4392 0.6130
H28 H 0.6859 0.4287 0.6251
H29 H 0.6588 0.4709 0.5966
C79 C 0.72723(9) 0.53012(7) 0.64721(4)
H30 H 0.7333 0.5446 0.6264
H31 H 0.7641 0.5040 0.6553
H32 H 0.7297 0.5595 0.6629
C80 C 0.09371(9) 1.09659(7) 0.51064(5)
C81 C 0.33596(11) 0.87366(7) 0.68303(4)
C82 C 0.64813(10) 0.47599(8) 0.67567(4)
H33 H 0.6567 0.5035 0.6927
H34 H 0.6825 0.4471 0.6813
H35 H 0.6013 0.4612 0.6738
C83 C 0.31134(12) 0.33201(7) 0.40577(4)
H36 H 0.2652 0.3488 0.4008
H37 H 0.3103 0.2986 0.3933
H38 H 0.3456 0.3567 0.4000
C84 C 0.56517(10) 0.67205(7) 0.70346(4)
C85 C 0.56321(11) 0.71848(8) 0.72267(4)
H39 H 0.5936 0.7211 0.7433
C86 C 0.66420(10) 0.87109(8) 0.65427(5)
C87 C 0.04621(11) 1.09162(7) 0.47593(5)
H40 H 0.0753 1.0861 0.4600
H41 H 0.0190 1.1247 0.4707
H42 H 0.0147 1.0610 0.4754
C88 C 0.31933(13) 0.91933(8) 0.70581(5)
C89 C 0.51158(13) 1.05557(8) 0.67169(5)
H43 H 0.5256 1.0823 0.6573
H44 H 0.5504 1.0487 0.6900
H45 H 0.4717 1.0692 0.6798
C90 C 0.36801(15) 0.49966(9) 0.73511(5)
H46 H 0.3194 0.5111 0.7285
H47 H 0.3807 0.4966 0.7588
H48 H 0.3738 0.4647 0.7253
C91 C 0.40669(15) 0.59731(9) 0.73910(4)
H49 H 0.4321 0.6249 0.7298
H50 H 0.4249 0.5953 0.7626
H51 H 0.3572 0.6066 0.7348
C92 C 0.45022(15) 0.26720(8) 0.56983(6)
H52 H 0.4462 0.2376 0.5542
H53 H 0.4321 0.2557 0.5887
H54 H 0.4992 0.2774 0.5769
C93 C 0.35399(12) 1.15503(7) 0.58948(7)
H55 H 0.3336 1.1855 0.5760
H56 H 0.4038 1.1528 0.5896
H57 H 0.3476 1.1602 0.6117
C94 C 0.34021(15) 0.97398(8) 0.69225(6)
H58 H 0.3897 0.9732 0.6915
H59 H 0.3317 1.0034 0.7064
H60 H 0.3123 0.9797 0.6703
C95 C 0.04604(13) 1.10017(11) 0.53588(5)
H61 H 0.0198 1.0666 0.5356
H62 H 0.0136 1.1303 0.5303
H63 H 0.0749 1.1059 0.5576
C96 C 0.52317(16) 0.36030(8) 0.66933(5)
H64 H 0.5566 0.3529 0.6556
H65 H 0.4926 0.3291 0.6691
H66 H 0.5483 0.3673 0.6916
C97 C 0.23967(15) 0.92046(12) 0.70596(7)
H67 H 0.2131 0.9286 0.6841
H68 H 0.2307 0.9482 0.7211
H69 H 0.2254 0.8853 0.7128
C98 C 0.36079(18) 0.91232(11) 0.74138(5)
H70 H 0.3490 0.8776 0.7498
H71 H 0.3486 0.9414 0.7548
H72 H 0.4108 0.9135 0.7418
C99 C 0.49292(14) 0.52350(14) 0.73434(5)
H73 H 0.4981 0.4873 0.7260
H74 H 0.5060 0.5230 0.7581
H75 H 0.5232 0.5485 0.7258
C100 C 0.13780(14) 1.14876(8) 0.51152(9)
H76 H 0.1643 1.1549 0.5337
H77 H 0.1069 1.1794 0.5046
H78 H 0.1700 1.1448 0.4969
C101 C 0.67436(16) 0.91704(12) 0.67899(8)
H79 H 0.6583 0.9508 0.6679
H80 H 0.7238 0.9201 0.6893
H81 H 0.6475 0.9096 0.6956
C102 C 0.68714(17) 0.81729(11) 0.67109(9)
H82 H 0.6565 0.8082 0.6858
H83 H 0.7351 0.8204 0.6835
H84 H 0.6844 0.7890 0.6547
C103 C 0.6476(2) 0.63189(13) 0.74940(7)
H85 H 0.6810 0.6616 0.7517
H86 H 0.6726 0.5980 0.7552
H87 H 0.6153 0.6378 0.7638
C104 C 0.71240(15) 0.8823(2) 0.63005(11)
H88 H 0.7059 0.8541 0.6135
H89 H 0.7610 0.8827 0.6418
H90 H 0.7005 0.9173 0.6196
O6 O 0.51979(9) 0.80641(6) 0.73125(4)
C105 C 0.5805(3) 0.81383(16) 0.75827(10)
H91 H 0.5752 0.7912 0.7766
H92 H 0.5836 0.8516 0.7650
H93 H 0.6230 0.8035 0.7512
O1A O 0.08916(7) 0.31267(4) 0.44529(3)
O2A O 0.18006(7) 1.10567(4) 0.42365(4)
O3A O 0.00762(7) 1.00586(5) 0.34607(3)
O4A O 0.01846(8) 0.40731(5) 0.34313(3)
C1A C 0.22065(7) 0.55579(5) 0.48557(3)
O5A O -0.10869(10) 0.62926(6) 0.28420(3)
C2A C 0.18029(7) 0.50828(5) 0.47316(3)
C3A C 0.14769(7) 0.55440(5) 0.41967(3)
C4A C 0.14163(7) 0.75752(5) 0.41926(3)
C5A C 0.20325(7) 0.70717(5) 0.46860(3)
C6A C 0.12777(7) 0.65751(5) 0.42163(3)
C7A C 0.15013(7) 0.50610(5) 0.43887(3)
C8A C 0.22625(7) 0.65695(5) 0.48440(3)
C9A C 0.14881(7) 0.41049(5) 0.47956(3)
C10A C 0.01305(7) 0.62372(5) 0.38444(3)
C11A C 0.12102(7) 0.45498(5) 0.42337(3)
C12A C -0.00215(7) 0.58674(5) 0.40818(3)
H1A H 0.0238 0.5890 0.4299
C13A C 0.07064(7) 0.66270(5) 0.39318(3)
C14A C 0.15696(7) 0.70706(5) 0.43641(3)
C15A C 0.22725(7) 0.75766(5) 0.48423(3)
C16A C -0.03169(7) 0.62423(5) 0.35253(3)
C17A C -0.05424(7) 0.54732(6) 0.40035(3)
H2A H -0.0620 0.5227 0.4164
C18A C 0.15863(7) 0.59074(5) 0.36504(3)
H3A H 0.1855 0.6197 0.3757
C19A C 0.07131(7) 0.70900(5) 0.37244(3)
C20A C 0.20470(7) 0.80888(5) 0.46813(3)
C21A C 0.11465(7) 0.75453(5) 0.38458(3)
C22A C 0.12185(7) 0.40712(5) 0.44360(3)
C23A C 0.17125(7) 0.46200(5) 0.49406(3)
C24A C 0.18178(7) 0.46771(5) 0.52865(3)
H4A H 0.1904 0.5024 0.5380
C25A C 0.15723(7) 0.60593(5) 0.43631(3)
C26A C 0.23139(7) 0.85956(5) 0.48273(3)
C27A C 0.12228(7) 0.85908(5) 0.42581(3)
C28A C 0.10201(7) 0.50234(5) 0.36813(3)
C29A C 0.15093(8) 0.36566(5) 0.50154(4)
H5A H 0.1409 0.3308 0.4925
C30A C 0.15601(7) 0.80857(5) 0.43719(3)
C31A C 0.13492(7) 0.54971(5) 0.38401(3)
C32A C 0.20107(7) 0.60604(5) 0.46864(3)
C33A C 0.13716(8) 0.95910(5) 0.41846(3)
C34A C 0.17965(7) 0.42343(5) 0.54905(3)
H6A H 0.1866 0.4285 0.5718
C35A C 0.26818(8) 0.95363(5) 0.46688(3)
C36A C 0.02851(8) 0.91037(5) 0.38751(3)
C37A C 0.22085(7) 0.90679(5) 0.46189(3)
C38A C -0.09556(7) 0.54434(6) 0.36810(4)
C39A C 0.15995(7) 0.90812(5) 0.43567(3)
C40A C 0.14303(8) 0.58897(6) 0.33102(3)
H7A H 0.1584 0.6170 0.3190
C41A C 0.05165(7) 0.86162(5) 0.40499(3)
C42A C 0.07491(8) 0.95859(6) 0.39256(3)
C43A C 0.09033(7) 0.45512(5) 0.38850(3)
C44A C 0.08885(8) 0.35981(6) 0.42747(4)
C45A C 0.02599(8) 0.71131(6) 0.33943(3)
C46A C 0.12994(8) 0.79563(5) 0.36171(3)
C47A C 0.16710(8) 0.37066(5) 0.53563(4)
C48A C 0.00273(8) 0.81814(5) 0.40412(3)
H8A H 0.0166 0.7871 0.4170
C49A C -0.08481(8) 0.58349(6) 0.34548(3)
H9A H -0.1142 0.5830 0.3245
C50A C 0.24523(8) 1.00497(5) 0.45243(4)
C51A C 0.17730(8) 1.00798(5) 0.42826(4)
C52A C 0.08623(8) 0.50222(6) 0.33315(4)
H10A H 0.0628 0.4720 0.3222
C53A C -0.04164(8) 0.91109(6) 0.36817(4)
H11A H -0.0574 0.9428 0.3563
C54A C 0.10403(8) 0.54508(6) 0.31442(3)
C55A C 0.33894(8) 0.94889(6) 0.48480(4)
H12A H 0.3563 0.9144 0.4920
C56A C 0.29171(8) 1.05007(6) 0.46066(4)
H13A H 0.2766 1.0843 0.4520
C57A C 0.18904(8) 0.83066(6) 0.37067(4)
H14A H 0.2180 0.8274 0.3917
C58A C 0.15013(8) 1.05672(6) 0.41195(4)
C59A C -0.06436(8) 0.82038(6) 0.38494(4)
H15A H -0.0948 0.7906 0.3844
C60A C -0.02362(8) 0.66787(6) 0.32901(4)
C61A C 0.03231(9) 0.75774(6) 0.31879(4)
C62A C -0.08763(8) 0.86752(6) 0.36599(4)
C63A C 0.35846(8) 1.04600(6) 0.48095(4)
C64A C 0.16814(9) 0.31911(6) 0.55711(4)
C65A C 0.05945(9) 1.00748(6) 0.37419(4)
C66A C -0.15440(8) 0.50170(6) 0.35748(4)
C67A C 0.05445(9) 0.36067(6) 0.39454(4)
H16A H 0.0310 0.3293 0.3851
C68A C 0.08961(9) 0.79782(6) 0.32921(4)
C69A C 0.20520(9) 0.86956(6) 0.34935(4)
H17A H 0.2434 0.8932 0.3563
C70A C 0.05416(9) 0.40711(6) 0.37548(4)
C71A C 0.38269(8) 0.99345(6) 0.49189(4)
H18A H 0.4288 0.9889 0.5040
C72A C 0.09480(9) 1.05575(6) 0.38440(4)
H19A H 0.0813 1.0880 0.3727
C73A C -0.01678(11) 0.76088(7) 0.28845(4)
C74A C 0.22261(10) 0.27843(6) 0.54876(5)
H20A H 0.2089 0.2681 0.5259
H21A H 0.2243 0.2464 0.5624
H22A H 0.2686 0.2954 0.5528
C75A C 0.09413(9) 0.29268(6) 0.54992(5)
H23A H 0.0608 0.3173 0.5565
H24A H 0.0957 0.2590 0.5621
H25A H 0.0797 0.2852 0.5266
C76A C 0.08401(10) 0.54198(7) 0.27656(4)
C77A C 0.10892(11) 0.83710(7) 0.30740(4)
H26A H 0.0832 0.8383 0.2856
C78A C -0.15048(10) 0.45585(7) 0.38306(4)
H27A H -0.1043 0.4392 0.3870
H28A H -0.1859 0.4287 0.3749
H29A H -0.1588 0.4709 0.4034
C79A C -0.22723(9) 0.53012(7) 0.35279(4)
H30A H -0.2333 0.5446 0.3736
H31A H -0.2641 0.5040 0.3447
H32A H -0.2297 0.5595 0.3371
C80A C 0.40629(9) 1.09659(7) 0.48936(5)
C81A C 0.16404(11) 0.87366(7) 0.31697(4)
C82A C -0.14813(10) 0.47599(8) 0.32433(4)
H33A H -0.1567 0.5035 0.3073
H34A H -0.1825 0.4471 0.3187
H35A H -0.1013 0.4612 0.3262
C83A C 0.18866(12) 0.33201(7) 0.59423(4)
H36A H 0.2348 0.3488 0.5992
H37A H 0.1897 0.2986 0.6067
H38A H 0.1544 0.3567 0.6000
C84A C -0.06517(10) 0.67205(7) 0.29654(4)
C85A C -0.06321(11) 0.71848(8) 0.27733(4)
H39A H -0.0936 0.7211 0.2567
C86A C -0.16420(10) 0.87109(8) 0.34573(5)
C87A C 0.45379(11) 1.09162(7) 0.52407(5)
H40A H 0.4247 1.0861 0.5400
H41A H 0.4810 1.1247 0.5293
H42A H 0.4853 1.0610 0.5246
C88A C 0.18067(13) 0.91933(8) 0.29419(5)
C89A C -0.01158(13) 1.05557(8) 0.32831(5)
H43A H -0.0256 1.0823 0.3427
H44A H -0.0504 1.0487 0.3100
H45A H 0.0283 1.0692 0.3202
C90A C 0.13199(15) 0.49966(9) 0.26489(5)
H46A H 0.1806 0.5111 0.2715
H47A H 0.1193 0.4966 0.2412
H48A H 0.1262 0.4647 0.2747
C91A C 0.09331(15) 0.59731(9) 0.26090(4)
H49A H 0.0679 0.6249 0.2702
H50A H 0.0751 0.5953 0.2374
H51A H 0.1428 0.6066 0.2652
C92A C 0.04978(15) 0.26720(8) 0.43017(6)
H52A H 0.0538 0.2376 0.4458
H53A H 0.0679 0.2557 0.4113
H54A H 0.0008 0.2774 0.4231
C93A C 0.14601(12) 1.15503(7) 0.41052(7)
H55A H 0.1664 1.1855 0.4240
H56A H 0.0962 1.1528 0.4104
H57A H 0.1524 1.1602 0.3883
C94A C 0.15979(15) 0.97398(8) 0.30775(6)
H58A H 0.1103 0.9732 0.3085
H59A H 0.1683 1.0034 0.2936
H60A H 0.1877 0.9797 0.3297
C95A C 0.45396(13) 1.10017(11) 0.46412(5)
H61A H 0.4802 1.0666 0.4644
H62A H 0.4864 1.1303 0.4697
H63A H 0.4251 1.1059 0.4424
C96A C -0.02317(16) 0.36030(8) 0.33067(5)
H64A H -0.0566 0.3529 0.3444
H65A H 0.0074 0.3291 0.3309
H66A H -0.0483 0.3673 0.3084
C97A C 0.26033(15) 0.92046(12) 0.29404(7)
H67A H 0.2869 0.9286 0.3159
H68A H 0.2693 0.9482 0.2789
H69A H 0.2746 0.8853 0.2872
C98A C 0.13921(18) 0.91232(11) 0.25862(5)
H70A H 0.1510 0.8776 0.2502
H71A H 0.1514 0.9414 0.2452
H72A H 0.0892 0.9135 0.2582
C99A C 0.00708(14) 0.52350(14) 0.26566(5)
H73A H 0.0019 0.4873 0.2740
H74A H -0.0060 0.5230 0.2419
H75A H -0.0232 0.5485 0.2742
C100A C 0.36220(14) 1.14876(8) 0.48848(9)
H76A H 0.3357 1.1549 0.4663
H77A H 0.3931 1.1794 0.4954
H78A H 0.3300 1.1448 0.5031
C101A C -0.17436(16) 0.91704(12) 0.32101(8)
H79A H -0.1583 0.9508 0.3321
H80A H -0.2238 0.9201 0.3107
H81A H -0.1475 0.9096 0.3044
C102A C -0.18714(17) 0.81729(11) 0.32891(9)
H82A H -0.1565 0.8082 0.3142
H83A H -0.2351 0.8204 0.3165
H84A H -0.1844 0.7890 0.3453
C103A C -0.1476(2) 0.63189(13) 0.25060(7)
H85A H -0.1810 0.6616 0.2483
H86A H -0.1726 0.5980 0.2448
H87A H -0.1153 0.6378 0.2362
C104A C -0.21240(15) 0.8823(2) 0.36995(11)
H88A H -0.2059 0.8541 0.3865
H89A H -0.2610 0.8827 0.3582
H90A H -0.2005 0.9173 0.3804
O6A O -0.01979(9) 0.80641(6) 0.26875(4)
C105A C -0.0805(3) 0.81383(16) 0.24173(10)
H91A H -0.0752 0.7912 0.2234
H92A H -0.0836 0.8516 0.2350
H93A H -0.1230 0.8035 0.2488
C106? C 0.5469(3) 0.8519(2) 0.72475(15)
H94? H 0.5966 0.8468 0.7253
H95? H 0.5412 0.8788 0.7409
H96? H 0.5234 0.8642 0.7031
loop_
_geom_bond_atom_site_label_1
_geom_bond_atom_site_label_2
_geom_bond_site_symmetry_1
_geom_bond_site_symmetry_2
O1 C44 1_555 1_555
O2 C58 1_555 1_555
O3 C65 1_555 1_555
O4 C70 1_555 1_555
C1 C2 1_555 1_555
O5 C84 1_555 1_555
C2 C7 1_555 1_555
C3 C7 1_555 1_555
C4 C14 1_555 1_555
C5 C8 1_555 1_555
C6 C13 1_555 1_555
C7 C11 1_555 1_555
C8 C32 1_555 1_555
C9 C22 1_555 1_555
C10 C12 1_555 1_555
C11 C22 1_555 1_555
C12 H1 1_555 1_555
C13 C10 1_555 1_555
C14 C5 1_555 1_555
C15 C5 1_555 1_555
C16 C10 1_555 1_555
C17 C12 1_555 1_555
H2 C17 1_555 1_555
C18 H3 1_555 1_555
C19 C13 1_555 1_555
C20 C15 1_555 1_555
C21 C4 1_555 1_555
C22 C44 1_555 1_555
C23 C2 1_555 1_555
C24 C23 1_555 1_555
H4 C24 1_555 1_555
C25 C3 1_555 1_555
C26 C20 1_555 1_555
C27 C30 1_555 1_555
C28 C31 1_555 1_555
C29 C9 1_555 1_555
H5 C29 1_555 1_555
C30 C4 1_555 1_555
C31 C3 1_555 1_555
C32 C1 1_555 1_555
C33 C39 1_555 1_555
C34 C24 1_555 1_555
H6 C34 1_555 1_555
C35 C37 1_555 1_555
C36 C41 1_555 1_555
C37 C26 1_555 1_555
C38 C17 1_555 1_555
C39 C27 1_555 1_555
C40 C18 1_555 1_555
H7 C40 1_555 1_555
C41 C27 1_555 1_555
C42 C33 1_555 1_555
C43 C11 1_555 1_555
C44 C67 1_555 1_555
C45 C19 1_555 1_555
C46 C21 1_555 1_555
C47 C29 1_555 1_555
C48 C41 1_555 1_555
H8 C48 1_555 1_555
C49 C16 1_555 1_555
H9 C49 1_555 1_555
C50 C35 1_555 1_555
C51 C33 1_555 1_555
C52 C28 1_555 1_555
H10 C52 1_555 1_555
C53 C36 1_555 1_555
H11 C53 1_555 1_555
C54 C40 1_555 1_555
C55 C35 1_555 1_555
H12 C55 1_555 1_555
C56 C50 1_555 1_555
H13 C56 1_555 1_555
C57 C46 1_555 1_555
H14 C57 1_555 1_555
C58 C51 1_555 1_555
C59 C48 1_555 1_555
H15 C59 1_555 1_555
C60 C16 1_555 1_555
C61 C45 1_555 1_555
C62 C53 1_555 1_555
C63 C56 1_555 1_555
C64 C47 1_555 1_555
C65 C42 1_555 1_555
C66 C38 1_555 1_555
C67 H16 1_555 1_555
C68 C46 1_555 1_555
C69 C57 1_555 1_555
H17 C69 1_555 1_555
C70 C43 1_555 1_555
C71 C55 1_555 1_555
H18 C71 1_555 1_555
C72 C58 1_555 1_555
H19 C72 1_555 1_555
C73 C61 1_555 1_555
C74 C64 1_555 1_555
H20 C74 1_555 1_555
H21 C74 1_555 1_555
H22 C74 1_555 1_555
C75 C64 1_555 1_555
H23 C75 1_555 1_555
H24 C75 1_555 1_555
H25 C75 1_555 1_555
C76 C54 1_555 1_555
C77 C68 1_555 1_555
H26 C77 1_555 1_555
C78 C66 1_555 1_555
H27 C78 1_555 1_555
H28 C78 1_555 1_555
H29 C78 1_555 1_555
C79 C66 1_555 1_555
H30 C79 1_555 1_555
H31 C79 1_555 1_555
H32 C79 1_555 1_555
C80 C63 1_555 1_555
C81 C69 1_555 1_555
C82 C66 1_555 1_555
H33 C82 1_555 1_555
H34 C82 1_555 1_555
H35 C82 1_555 1_555
C83 C64 1_555 1_555
H36 C83 1_555 1_555
H37 C83 1_555 1_555
H38 C83 1_555 1_555
C84 C60 1_555 1_555
C85 C73 1_555 1_555
H39 C85 1_555 1_555
C86 C62 1_555 1_555
C87 C80 1_555 1_555
H40 C87 1_555 1_555
H41 C87 1_555 1_555
H42 C87 1_555 1_555
C88 C81 1_555 1_555
C89 O3 1_555 1_555
H43 C89 1_555 1_555
H44 C89 1_555 1_555
H45 C89 1_555 1_555
C90 C76 1_555 1_555
H46 C90 1_555 1_555
H47 C90 1_555 1_555
H48 C90 1_555 1_555
C91 C76 1_555 1_555
H49 C91 1_555 1_555
H50 C91 1_555 1_555
H51 C91 1_555 1_555
C92 O1 1_555 1_555
H52 C92 1_555 1_555
H53 C92 1_555 1_555
H54 C92 1_555 1_555
C93 O2 1_555 1_555
H55 C93 1_555 1_555
H56 C93 1_555 1_555
H57 C93 1_555 1_555
C94 C88 1_555 1_555
H58 C94 1_555 1_555
H59 C94 1_555 1_555
H60 C94 1_555 1_555
C95 C80 1_555 1_555
H61 C95 1_555 1_555
H62 C95 1_555 1_555
H63 C95 1_555 1_555
C96 O4 1_555 1_555
H64 C96 1_555 1_555
H65 C96 1_555 1_555
H66 C96 1_555 1_555
C97 C88 1_555 1_555
H67 C97 1_555 1_555
H68 C97 1_555 1_555
H69 C97 1_555 1_555
C98 C88 1_555 1_555
H70 C98 1_555 1_555
H71 C98 1_555 1_555
H72 C98 1_555 1_555
C99 C76 1_555 1_555
H73 C99 1_555 1_555
H74 C99 1_555 1_555
H75 C99 1_555 1_555
C100 C80 1_555 1_555
H76 C100 1_555 1_555
H77 C100 1_555 1_555
H78 C100 1_555 1_555
C101 C86 1_555 1_555
H79 C101 1_555 1_555
H80 C101 1_555 1_555
H81 C101 1_555 1_555
C102 C86 1_555 1_555
H82 C102 1_555 1_555
H83 C102 1_555 1_555
H84 C102 1_555 1_555
C103 O5 1_555 1_555
H85 C103 1_555 1_555
H86 C103 1_555 1_555
H87 C103 1_555 1_555
C104 C86 1_555 1_555
H88 C104 1_555 1_555
H89 C104 1_555 1_555
H90 C104 1_555 1_555
O6 C73 1_555 1_555
C105 O6 1_555 1_555
H91 C105 1_555 1_555
H92 C105 1_555 1_555
H93 C105 1_555 1_555
O1A C44A 1_555 1_555
O2A C58A 1_555 1_555
O3A C65A 1_555 1_555
O4A C70A 1_555 1_555
C1A C1 1_555 1_555
O5A C84A 1_555 1_555
C2A C1A 1_555 1_555
C3A C7A 1_555 1_555
C4A C14A 1_555 1_555
C5A C8A 1_555 1_555
C6A C13A 1_555 1_555
C7A C2A 1_555 1_555
C8A C8 1_555 1_555
C9A C22A 1_555 1_555
C10A C12A 1_555 1_555
C11A C7A 1_555 1_555
C12A H1A 1_555 1_555
C13A C10A 1_555 1_555
C14A C5A 1_555 1_555
C15A C15 1_555 1_555
C16A C10A 1_555 1_555
C17A C12A 1_555 1_555
H2A C17A 1_555 1_555
C18A H3A 1_555 1_555
C19A C13A 1_555 1_555
C20A C15A 1_555 1_555
C21A C4A 1_555 1_555
C22A C11A 1_555 1_555
C23A C2A 1_555 1_555
C24A C23A 1_555 1_555
H4A C24A 1_555 1_555
C25A C3A 1_555 1_555
C26A C26 1_555 1_555
C27A C30A 1_555 1_555
C28A C31A 1_555 1_555
C29A C9A 1_555 1_555
H5A C29A 1_555 1_555
C30A C4A 1_555 1_555
C31A C3A 1_555 1_555
C32A C1A 1_555 1_555
C33A C39A 1_555 1_555
C34A C24A 1_555 1_555
H6A C34A 1_555 1_555
C35A C37A 1_555 1_555
C36A C41A 1_555 1_555
C37A C26A 1_555 1_555
C38A C17A 1_555 1_555
C39A C27A 1_555 1_555
C40A C18A 1_555 1_555
H7A C40A 1_555 1_555
C41A C27A 1_555 1_555
C42A C33A 1_555 1_555
C43A C11A 1_555 1_555
C44A C22A 1_555 1_555
C45A C19A 1_555 1_555
C46A C21A 1_555 1_555
C47A C29A 1_555 1_555
C48A C41A 1_555 1_555
H8A C48A 1_555 1_555
C49A C16A 1_555 1_555
H9A C49A 1_555 1_555
C50A C35A 1_555 1_555
C51A C33A 1_555 1_555
C52A C28A 1_555 1_555
H10A C52A 1_555 1_555
C53A C36A 1_555 1_555
H11A C53A 1_555 1_555
C54A C40A 1_555 1_555
C55A C35A 1_555 1_555
H12A C55A 1_555 1_555
C56A C50A 1_555 1_555
H13A C56A 1_555 1_555
C57A C46A 1_555 1_555
H14A C57A 1_555 1_555
C58A C51A 1_555 1_555
C59A C48A 1_555 1_555
H15A C59A 1_555 1_555
C60A C16A 1_555 1_555
C61A C45A 1_555 1_555
C62A C53A 1_555 1_555
C63A C56A 1_555 1_555
C64A C47A 1_555 1_555
C65A C42A 1_555 1_555
C66A C38A 1_555 1_555
C67A C44A 1_555 1_555
H16A C67A 1_555 1_555
C68A C46A 1_555 1_555
C69A C57A 1_555 1_555
H17A C69A 1_555 1_555
C70A C43A 1_555 1_555
C71A C55A 1_555 1_555
H18A C71A 1_555 1_555
C72A C58A 1_555 1_555
H19A C72A 1_555 1_555
C73A C61A 1_555 1_555
C74A C64A 1_555 1_555
H20A C74A 1_555 1_555
H21A C74A 1_555 1_555
H22A C74A 1_555 1_555
C75A C64A 1_555 1_555
H23A C75A 1_555 1_555
H24A C75A 1_555 1_555
H25A C75A 1_555 1_555
C76A C54A 1_555 1_555
C77A C68A 1_555 1_555
H26A C77A 1_555 1_555
C78A C66A 1_555 1_555
H27A C78A 1_555 1_555
H28A C78A 1_555 1_555
H29A C78A 1_555 1_555
C79A C66A 1_555 1_555
H30A C79A 1_555 1_555
H31A C79A 1_555 1_555
H32A C79A 1_555 1_555
C80A C63A 1_555 1_555
C81A C69A 1_555 1_555
C82A C66A 1_555 1_555
H33A C82A 1_555 1_555
H34A C82A 1_555 1_555
H35A C82A 1_555 1_555
C83A C64A 1_555 1_555
H36A C83A 1_555 1_555
H37A C83A 1_555 1_555
H38A C83A 1_555 1_555
C84A C60A 1_555 1_555
C85A C73A 1_555 1_555
H39A C85A 1_555 1_555
C86A C62A 1_555 1_555
C87A C80A 1_555 1_555
H40A C87A 1_555 1_555
H41A C87A 1_555 1_555
H42A C87A 1_555 1_555
C88A C81A 1_555 1_555
C89A O3A 1_555 1_555
H43A C89A 1_555 1_555
H44A C89A 1_555 1_555
H45A C89A 1_555 1_555
C90A C76A 1_555 1_555
H46A C90A 1_555 1_555
H47A C90A 1_555 1_555
H48A C90A 1_555 1_555
C91A C76A 1_555 1_555
H49A C91A 1_555 1_555
H50A C91A 1_555 1_555
H51A C91A 1_555 1_555
C92A O1A 1_555 1_555
H52A C92A 1_555 1_555
H53A C92A 1_555 1_555
H54A C92A 1_555 1_555
C93A O2A 1_555 1_555
H55A C93A 1_555 1_555
H56A C93A 1_555 1_555
H57A C93A 1_555 1_555
C94A C88A 1_555 1_555
H58A C94A 1_555 1_555
H59A C94A 1_555 1_555
H60A C94A 1_555 1_555
C95A C80A 1_555 1_555
H61A C95A 1_555 1_555
H62A C95A 1_555 1_555
H63A C95A 1_555 1_555
C96A O4A 1_555 1_555
H64A C96A 1_555 1_555
H65A C96A 1_555 1_555
H66A C96A 1_555 1_555
C97A C88A 1_555 1_555
H67A C97A 1_555 1_555
H68A C97A 1_555 1_555
H69A C97A 1_555 1_555
C98A C88A 1_555 1_555
H70A C98A 1_555 1_555
H71A C98A 1_555 1_555
H72A C98A 1_555 1_555
C99A C76A 1_555 1_555
H73A C99A 1_555 1_555
H74A C99A 1_555 1_555
H75A C99A 1_555 1_555
C100A C80A 1_555 1_555
H76A C100A 1_555 1_555
H77A C100A 1_555 1_555
H78A C100A 1_555 1_555
C101A C86A 1_555 1_555
H79A C101A 1_555 1_555
H80A C101A 1_555 1_555
H81A C101A 1_555 1_555
C102A C86A 1_555 1_555
H82A C102A 1_555 1_555
H83A C102A 1_555 1_555
H84A C102A 1_555 1_555
C103A O5A 1_555 1_555
H85A C103A 1_555 1_555
H86A C103A 1_555 1_555
H87A C103A 1_555 1_555
C104A C86A 1_555 1_555
H88A C104A 1_555 1_555
H89A C104A 1_555 1_555
H90A C104A 1_555 1_555
O6A C73A 1_555 1_555
C105A O6A 1_555 1_555
H91A C105A 1_555 1_555
H92A C105A 1_555 1_555
H93A C105A 1_555 1_555
C6 C14 1_555 1_555
C6 C25 1_555 1_555
C9 C23 1_555 1_555
C18 C31 1_555 1_555
C19 C21 1_555 1_555
C20 C30 1_555 1_555
C25 C32 1_555 1_555
C28 C43 1_555 1_555
C34 C47 1_555 1_555
C36 C42 1_555 1_555
C37 C39 1_555 1_555
C38 C49 1_555 1_555
C45 C60 1_555 1_555
C50 C51 1_555 1_555
C52 C54 1_555 1_555
C59 C62 1_555 1_555
C61 C68 1_555 1_555
C63 C71 1_555 1_555
C65 C72 1_555 1_555
C67 C70 1_555 1_555
C77 C81 1_555 1_555
C84 C85 1_555 1_555
C5A C15A 1_555 1_555
C6A C14A 1_555 1_555
C6A C25A 1_555 1_555
C8A C32A 1_555 1_555
C9A C23A 1_555 1_555
C18A C31A 1_555 1_555
C19A C21A 1_555 1_555
C20A C26A 1_555 1_555
C20A C30A 1_555 1_555
C25A C32A 1_555 1_555
C28A C43A 1_555 1_555
C34A C47A 1_555 1_555
C36A C42A 1_555 1_555
C37A C39A 1_555 1_555
C38A C49A 1_555 1_555
C45A C60A 1_555 1_555
C50A C51A 1_555 1_555
C52A C54A 1_555 1_555
C59A C62A 1_555 1_555
C61A C68A 1_555 1_555
C63A C71A 1_555 1_555
C65A C72A 1_555 1_555
C67A C70A 1_555 1_555
C77A C81A 1_555 1_555
C84A C85A 1_555 1_555

#END
