
#######################################################################
#
#                 Cambridge Crystallographic Data Centre
#                                CCDC 
#
#######################################################################
#
# If this CIF has been generated from an entry in the Cambridge 
# Structural Database, then it will include bibliographic, chemical, 
# crystal, experimental, refinement or atomic coordinate data resulting 
# from the CCDC's data processing and validation procedures.
#
#######################################################################

data_SESSIT
_chemical_formula_moiety         'C14 H13 N3 O3'
_chemical_name_systematic        
5-(2-Furyl)-3-methyl-1-(4-nitrophenyl)-2-pyrazoline
_symmetry_cell_setting           monoclinic
_symmetry_space_group_name_H-M   'P 21'
_symmetry_Int_Tables_number      4
_space_group_name_Hall           'P 2yb'
loop_
_symmetry_equiv_pos_site_id
_symmetry_equiv_pos_as_xyz
1 x,y,z
2 -x,1/2+y,-z
_cell_length_a                   8.1504(13)
_cell_length_b                   8.4608(14)
_cell_length_c                   9.6959(16)
_cell_angle_alpha                90
_cell_angle_beta                 98.036(2)
_cell_angle_gamma                90
_cell_volume                     662.053
_exptl_crystal_colour            brown
_exptl_crystal_description       block
_cell_formula_units_Z            2
_exptl_crystal_recrystallization_method dichloromethane
loop_
_atom_site_label
_atom_site_type_symbol
_atom_site_fract_x
_atom_site_fract_y
_atom_site_fract_z
O1 O 0.5650(3) 0.1026(3) 0.6998(2)
O2 O 0.0242(3) 0.8511(3) 0.7828(3)
O3 O -0.0340(4) 0.6890(3) 0.9423(2)
N1 N 0.0164(3) 0.7168(3) 0.8302(3)
N2 N 0.2498(3) 0.2093(3) 0.5444(2)
N3 N 0.3052(3) 0.2307(3) 0.4153(2)
C1 C 0.0679(3) 0.5841(3) 0.7517(3)
C2 C 0.0706(3) 0.4349(3) 0.8086(3)
H1 H 0.0340 0.4191 0.8943
C3 C 0.1272(3) 0.3094(3) 0.7391(3)
H2 H 0.1269 0.2084 0.7768
C4 C 0.1861(3) 0.3332(3) 0.6101(3)
C5 C 0.1759(3) 0.4849(3) 0.5516(3)
H3 H 0.2079 0.5015 0.4644
C6 C 0.1184(3) 0.6096(4) 0.6229(3)
H4 H 0.1136 0.7106 0.5847
C7 C 0.3484(3) 0.0957(4) 0.3743(3)
C8 C 0.4114(4) 0.0739(5) 0.2378(3)
H5 H 0.4129 0.1741 0.1914
H6 H 0.3401 0.0023 0.1807
H7 H 0.5217 0.0314 0.2537
C9 C 0.3254(4) -0.0376(4) 0.4704(3)
H8 H 0.4263 -0.0989 0.4919
H9 H 0.2363 -0.1068 0.4308
C10 C 0.2817(3) 0.0480(3) 0.6003(3)
H10 H 0.1796 0.0036 0.6269
C11 C 0.4144(4) 0.0454(4) 0.7218(3)
C12 C 0.4213(4) -0.0061(5) 0.8515(3)
H11 H 0.3346 -0.0493 0.8920
C13 C 0.5876(4) 0.0175(6) 0.9171(4)
H12 H 0.6311 -0.0085 1.0081
C14 C 0.6670(4) 0.0834(6) 0.8226(4)
H13 H 0.7780 0.1130 0.8377
loop_
_geom_bond_atom_site_label_1
_geom_bond_atom_site_label_2
_geom_bond_site_symmetry_1
_geom_bond_site_symmetry_2
O1 C11 1_555 1_555
O2 N1 1_555 1_555
O3 N1 1_555 1_555
N1 C1 1_555 1_555
N2 N3 1_555 1_555
N3 C7 1_555 1_555
C1 C2 1_555 1_555
C2 H1 1_555 1_555
C3 C2 1_555 1_555
H2 C3 1_555 1_555
C4 N2 1_555 1_555
C5 C4 1_555 1_555
H3 C5 1_555 1_555
C6 C1 1_555 1_555
H4 C6 1_555 1_555
C7 C8 1_555 1_555
C8 H5 1_555 1_555
H6 C8 1_555 1_555
H7 C8 1_555 1_555
C9 C7 1_555 1_555
H8 C9 1_555 1_555
H9 C9 1_555 1_555
C10 N2 1_555 1_555
H10 C10 1_555 1_555
C11 C10 1_555 1_555
C12 C11 1_555 1_555
H11 C12 1_555 1_555
C13 C12 1_555 1_555
H12 C13 1_555 1_555
C14 O1 1_555 1_555
H13 C14 1_555 1_555
C3 C4 1_555 1_555
C5 C6 1_555 1_555
C9 C10 1_555 1_555
C13 C14 1_555 1_555

#END
