
#######################################################################
#
#                 Cambridge Crystallographic Data Centre
#                                CCDC 
#
#######################################################################
#
# If this CIF has been generated from an entry in the Cambridge 
# Structural Database, then it will include bibliographic, chemical, 
# crystal, experimental, refinement or atomic coordinate data resulting 
# from the CCDC's data processing and validation procedures.
#
#######################################################################

data_SESSUE
_chemical_formula_moiety         'C36 H44 Si2'
_chemical_name_systematic        Tetramesityldisilene
_symmetry_cell_setting           monoclinic
_symmetry_space_group_name_H-M   'P 21/c'
_symmetry_Int_Tables_number      14
_space_group_name_Hall           '-P 2ybc'
loop_
_symmetry_equiv_pos_site_id
_symmetry_equiv_pos_as_xyz
1 x,y,z
2 -x,1/2+y,1/2-z
3 -x,-y,-z
4 x,1/2-y,1/2+z
_cell_length_a                   11.599(2)
_cell_length_b                   28.392(4)
_cell_length_c                   11.0880(14)
_cell_angle_alpha                90
_cell_angle_beta                 117.61(2)
_cell_angle_gamma                90
_cell_volume                     3235.67
_exptl_crystal_colour            'bright orange'
_cell_formula_units_Z            4
loop_
_atom_site_label
_atom_site_type_symbol
_atom_site_fract_x
_atom_site_fract_y
_atom_site_fract_z
Si1 Si -0.0096(1) 0.1375(1) 0.8951(1)
Si2 Si -0.0041(1) 0.0979(1) 0.7334(1)
C1 C 0.1150(4) 0.1366(2) 1.0792(5)
C2 C 0.1479(4) 0.1802(2) 1.1503(5)
C3 C 0.2249(5) 0.1806(2) 1.2898(6)
C4 C 0.2732(5) 0.1393(3) 1.3637(5)
C5 C 0.2458(4) 0.0977(2) 1.2934(5)
C6 C 0.1685(4) 0.0947(2) 1.1526(5)
C7 C 0.1020(6) 0.2265(2) 1.0777(6)
C8 C 0.3560(7) 0.1399(3) 1.5154(6)
C9 C 0.1469(5) 0.0479(2) 1.0859(6)
C10 C -0.1645(4) 0.1673(2) 0.8661(4)
C11 C -0.2135(5) 0.2071(2) 0.7809(5)
C12 C -0.3194(5) 0.2313(2) 0.7748(5)
C13 C -0.3812(5) 0.2174(2) 0.8515(6)
C14 C -0.3371(4) 0.1775(2) 0.9286(5)
C15 C -0.2314(4) 0.1520(2) 0.9377(4)
C16 C -0.1525(6) 0.2258(2) 0.6951(6)
C17 C -0.4912(5) 0.2465(2) 0.8493(8)
C18 C -0.1902(5) 0.1084(2) 1.0252(5)
C19 C 0.1496(4) 0.0703(2) 0.7530(4)
C20 C 0.2680(4) 0.0953(2) 0.7997(4)
C21 C 0.3797(4) 0.0724(2) 0.8184(5)
C22 C 0.3822(5) 0.0252(2) 0.7927(5)
C23 C 0.2660(5) 0.0001(2) 0.7451(5)
C24 C 0.1518(4) 0.0217(2) 0.7254(5)
C25 C 0.2780(5) 0.1471(2) 0.8310(6)
C26 C 0.5069(5) 0.0015(2) 0.8161(7)
C27 C 0.0307(5) -0.0082(2) 0.6810(6)
C28 C -0.1480(4) 0.1046(2) 0.5607(4)
C29 C -0.1372(4) 0.1278(2) 0.4545(4)
C30 C -0.2469(4) 0.1377(2) 0.3339(4)
C31 C -0.3702(4) 0.1252(2) 0.3121(4)
C32 C -0.3806(4) 0.1018(2) 0.4159(5)
C33 C -0.2740(4) 0.0905(2) 0.5373(5)
C34 C -0.0070(5) 0.1442(2) 0.4699(5)
C35 C -0.4892(5) 0.1358(2) 0.1797(5)
C36 C -0.2990(5) 0.0638(2) 0.6405(5)
H1 H 0.2457 0.2103 1.3368
H2 H 0.2809 0.0692 1.3439
H3 H 0.1344 0.2517 1.1428
H4 H 0.1339 0.2301 1.0122
H5 H 0.0085 0.2272 1.0320
H6 H 0.3653 0.1718 1.5473
H7 H 0.3155 0.1214 1.5581
H8 H 0.4403 0.1271 1.5380
H9 H 0.1917 0.0241 1.1532
H10 H 0.0552 0.0412 1.0410
H11 H 0.1791 0.0481 1.0202
H12 H -0.3515 0.2585 0.7170
H13 H -0.3806 0.1666 0.9791
H14 H -0.1999 0.2529 0.6441
H15 H -0.0639 0.2346 0.7544
H16 H -0.1540 0.2017 0.6334
H17 H -0.5218 0.2317 0.9072
H18 H -0.4618 0.2779 0.8816
H19 H -0.5609 0.2480 0.7579
H20 H -0.2470 0.1036 1.0654
H21 H -0.1947 0.0817 0.9701
H22 H -0.1023 0.1123 1.0958
H23 H 0.4590 0.0901 0.8503
H24 H 0.2654 -0.0328 0.7251
H25 H 0.3662 0.1572 0.8610
H26 H 0.2211 0.1642 0.7503
H27 H 0.2535 0.1531 0.9014
H28 H 0.4900 -0.0313 0.7929
H29 H 0.5406 0.0159 0.7604
H30 H 0.5697 0.0044 0.9104
H31 H 0.0498 -0.0402 0.6682
H32 H 0.0009 -0.0073 0.7488
H33 H -0.0359 0.0040 0.5966
H34 H -0.2372 0.1539 0.2628
H35 H -0.4654 0.0925 0.4025
H36 H -0.0184 0.1593 0.3876
H37 H 0.0314 0.1660 0.5444
H38 H 0.0491 0.1174 0.4879
H39 H -0.4642 0.1524 0.1199
H40 H -0.5310 0.1067 0.1376
H41 H -0.5484 0.1548 0.1972
H42 H -0.3907 0.0581 0.6042
H43 H -0.2535 0.0343 0.6578
H44 H -0.2684 0.0813 0.7240
loop_
_geom_bond_atom_site_label_1
_geom_bond_atom_site_label_2
_geom_bond_site_symmetry_1
_geom_bond_site_symmetry_2
Si1 Si2 1_555 1_555
Si2 C19 1_555 1_555
C1 Si1 1_555 1_555
C2 C1 1_555 1_555
C3 C2 1_555 1_555
C4 C3 1_555 1_555
C5 C4 1_555 1_555
C6 C1 1_555 1_555
C7 C2 1_555 1_555
C8 C4 1_555 1_555
C9 C6 1_555 1_555
C10 Si1 1_555 1_555
C11 C10 1_555 1_555
C12 C11 1_555 1_555
C13 C12 1_555 1_555
C14 C13 1_555 1_555
C15 C10 1_555 1_555
C16 C11 1_555 1_555
C17 C13 1_555 1_555
C18 C15 1_555 1_555
C19 C20 1_555 1_555
C20 C21 1_555 1_555
C21 C22 1_555 1_555
C22 C23 1_555 1_555
C23 C24 1_555 1_555
C24 C19 1_555 1_555
C25 C20 1_555 1_555
C26 C22 1_555 1_555
C27 C24 1_555 1_555
C28 Si2 1_555 1_555
C29 C28 1_555 1_555
C30 C29 1_555 1_555
C31 C30 1_555 1_555
C32 C31 1_555 1_555
C33 C28 1_555 1_555
C34 C29 1_555 1_555
C35 C31 1_555 1_555
C36 C33 1_555 1_555
H1 C3 1_555 1_555
H2 C5 1_555 1_555
H3 C7 1_555 1_555
H4 C7 1_555 1_555
H5 C7 1_555 1_555
H6 C8 1_555 1_555
H7 C8 1_555 1_555
H8 C8 1_555 1_555
H9 C9 1_555 1_555
H10 C9 1_555 1_555
H11 C9 1_555 1_555
H12 C12 1_555 1_555
H13 C14 1_555 1_555
H14 C16 1_555 1_555
H15 C16 1_555 1_555
H16 C16 1_555 1_555
H17 C17 1_555 1_555
H18 C17 1_555 1_555
H19 C17 1_555 1_555
H20 C18 1_555 1_555
H21 C18 1_555 1_555
H22 C18 1_555 1_555
H23 C21 1_555 1_555
H24 C23 1_555 1_555
H25 C25 1_555 1_555
H26 C25 1_555 1_555
H27 C25 1_555 1_555
H28 C26 1_555 1_555
H29 C26 1_555 1_555
H30 C26 1_555 1_555
H31 C27 1_555 1_555
H32 C27 1_555 1_555
H33 C27 1_555 1_555
H34 C30 1_555 1_555
H35 C32 1_555 1_555
H36 C34 1_555 1_555
H37 C34 1_555 1_555
H38 C34 1_555 1_555
H39 C35 1_555 1_555
H40 C35 1_555 1_555
H41 C35 1_555 1_555
H42 C36 1_555 1_555
H43 C36 1_555 1_555
H44 C36 1_555 1_555
C5 C6 1_555 1_555
C14 C15 1_555 1_555
C32 C33 1_555 1_555

#END
