
#######################################################################
#
#                 Cambridge Crystallographic Data Centre
#                                CCDC 
#
#######################################################################
#
# If this CIF has been generated from an entry in the Cambridge 
# Structural Database, then it will include bibliographic, chemical, 
# crystal, experimental, refinement or atomic coordinate data resulting 
# from the CCDC's data processing and validation procedures.
#
#######################################################################

data_SESVIW
_chemical_formula_moiety         'C27 H24 N2 O4'
_chemical_name_systematic        
5-Cyclopropyl-7,7-dimethyl-10-(4-nitrophenyl)-7,8-dihydro-5H-indeno(1,2-b)quinoline-9,11(6H,10H)-dione
_symmetry_cell_setting           monoclinic
_symmetry_space_group_name_H-M   'C 2/c'
_symmetry_Int_Tables_number      15
_space_group_name_Hall           '-C 2yn'
loop_
_symmetry_equiv_pos_site_id
_symmetry_equiv_pos_as_xyz
1 x,y,z
2 1/2+x,1/2+y,z
3 -x,y,1/2-z
4 1/2-x,1/2+y,1/2-z
5 -x,-y,-z
6 1/2-x,1/2-y,-z
7 x,-y,1/2+z
8 1/2+x,1/2-y,1/2+z
_cell_length_a                   28.768(5)
_cell_length_b                   8.9966(12)
_cell_length_c                   17.703(3)
_cell_angle_alpha                90
_cell_angle_beta                 108.727(4)
_cell_angle_gamma                90
_cell_volume                     4339.22
_exptl_crystal_colour            red
_exptl_crystal_description       block
_chemical_melting_point          '541-543 K'
_cell_formula_units_Z            8
loop_
_atom_site_label
_atom_site_type_symbol
_atom_site_fract_x
_atom_site_fract_y
_atom_site_fract_z
O1 O 0.59592(6) 0.89038(17) 0.38693(10)
O2 O 0.50781(6) 0.60749(19) 0.10337(10)
O3 O 0.77112(7) 0.9309(2) 0.19556(11)
O4 O 0.71474(7) 0.9855(2) 0.08579(11)
N1 N 0.60501(6) 0.37340(18) 0.34188(10)
N2 N 0.72809(8) 0.9310(2) 0.15266(12)
C1 C 0.61193(8) 0.4984(2) 0.39193(12)
C2 C 0.60067(8) 0.6369(2) 0.36130(12)
C3 C 0.58334(8) 0.6692(2) 0.27249(13)
H1 H 0.5558 0.7424 0.2615
C4 C 0.56294(8) 0.5270(2) 0.23072(12)
C5 C 0.57513(8) 0.3912(2) 0.26412(12)
C6 C 0.60369(8) 0.7636(2) 0.41412(14)
C7 C 0.61557(9) 0.7348(3) 0.50178(13)
H2 H 0.5846 0.7163 0.5134
H3 H 0.6308 0.8251 0.5315
C8 C 0.64990(8) 0.6036(2) 0.53201(12)
C9 C 0.62795(8) 0.4685(2) 0.48033(12)
H4 H 0.6526 0.3877 0.4928
H5 H 0.5993 0.4330 0.4946
C10 C 0.52819(8) 0.5094(3) 0.15078(13)
C11 C 0.52123(8) 0.3458(3) 0.13754(13)
C12 C 0.49206(8) 0.2698(3) 0.07211(14)
H6 H 0.4748 0.3208 0.0243
C13 C 0.48846(9) 0.1159(3) 0.07775(15)
H7 H 0.4684 0.0608 0.0334
C14 C 0.51376(9) 0.0436(3) 0.14703(14)
H8 H 0.5099 -0.0608 0.1505
C15 C 0.54519(8) 0.1200(3) 0.21289(14)
H9 H 0.5633 0.0683 0.2599
C16 C 0.54902(8) 0.2722(2) 0.20733(12)
C17 C 0.62256(8) 0.7353(2) 0.24130(13)
C18 C 0.67197(8) 0.7356(2) 0.28623(13)
H10 H 0.6821 0.6921 0.3379
C19 C 0.70670(9) 0.7981(3) 0.25718(13)
H11 H 0.7405 0.7975 0.2882
C20 C 0.69137(9) 0.8613(2) 0.18234(13)
C21 C 0.64292(9) 0.8606(2) 0.13516(14)
H12 H 0.6332 0.9028 0.0832
C22 C 0.60887(9) 0.7973(2) 0.16510(14)
H13 H 0.5753 0.7959 0.1331
C23 C 0.70126(8) 0.6371(3) 0.52797(14)
H14 H 0.6995 0.6515 0.4722
H15 H 0.7232 0.5536 0.5507
H16 H 0.7140 0.7276 0.5584
C24 C 0.65375(9) 0.5700(3) 0.61857(13)
H17 H 0.6665 0.6575 0.6517
H18 H 0.6760 0.4859 0.6380
H19 H 0.6212 0.5452 0.6214
C25 C 0.62573(8) 0.2288(2) 0.37083(12)
H20 H 0.6055 0.1627 0.3933
C26 C 0.65556(8) 0.1540(3) 0.32669(13)
H21 H 0.6600 0.2068 0.2804
H22 H 0.6532 0.0445 0.3214
C27 C 0.68037(9) 0.2170(3) 0.40780(14)
H23 H 0.7000 0.3086 0.4115
H24 H 0.6933 0.1464 0.4525
loop_
_geom_bond_atom_site_label_1
_geom_bond_atom_site_label_2
_geom_bond_site_symmetry_1
_geom_bond_site_symmetry_2
O1 C6 1_555 1_555
O2 C10 1_555 1_555
O3 N2 1_555 1_555
O4 N2 1_555 1_555
N1 C1 1_555 1_555
N2 C20 1_555 1_555
C1 C2 1_555 1_555
C2 C3 1_555 1_555
C3 H1 1_555 1_555
C4 C3 1_555 1_555
C5 N1 1_555 1_555
C6 C2 1_555 1_555
C7 C6 1_555 1_555
H2 C7 1_555 1_555
H3 C7 1_555 1_555
C8 C7 1_555 1_555
C9 C1 1_555 1_555
H4 C9 1_555 1_555
H5 C9 1_555 1_555
C10 C4 1_555 1_555
C11 C10 1_555 1_555
C12 C11 1_555 1_555
H6 C12 1_555 1_555
C13 C12 1_555 1_555
H7 C13 1_555 1_555
C14 C13 1_555 1_555
H8 C14 1_555 1_555
C15 C14 1_555 1_555
H9 C15 1_555 1_555
C16 C5 1_555 1_555
C17 C3 1_555 1_555
C18 C17 1_555 1_555
H10 C18 1_555 1_555
C19 C18 1_555 1_555
H11 C19 1_555 1_555
C20 C19 1_555 1_555
C21 C20 1_555 1_555
H12 C21 1_555 1_555
C22 C17 1_555 1_555
H13 C22 1_555 1_555
C23 C8 1_555 1_555
H14 C23 1_555 1_555
H15 C23 1_555 1_555
H16 C23 1_555 1_555
C24 C8 1_555 1_555
H17 C24 1_555 1_555
H18 C24 1_555 1_555
H19 C24 1_555 1_555
C25 N1 1_555 1_555
H20 C25 1_555 1_555
C26 C25 1_555 1_555
H21 C26 1_555 1_555
H22 C26 1_555 1_555
C27 C25 1_555 1_555
H23 C27 1_555 1_555
H24 C27 1_555 1_555
C4 C5 1_555 1_555
C8 C9 1_555 1_555
C11 C16 1_555 1_555
C15 C16 1_555 1_555
C21 C22 1_555 1_555
C26 C27 1_555 1_555

#END
