
#######################################################################
#
#                 Cambridge Crystallographic Data Centre
#                                CCDC 
#
#######################################################################
#
# If this CIF has been generated from an entry in the Cambridge 
# Structural Database, then it will include bibliographic, chemical, 
# crystal, experimental, refinement or atomic coordinate data resulting 
# from the CCDC's data processing and validation procedures.
#
#######################################################################

data_SESXUK
_chemical_formula_moiety         'C12 H13 Cl1 N4 O1 S1'
_chemical_name_systematic        
4-((4-Chlorobenzylidene)amino)-3-(3-hydroxypropyl)-1,2,4-triazole-5-thione
_symmetry_cell_setting           triclinic
_symmetry_space_group_name_H-M   'P -1'
_symmetry_Int_Tables_number      2
_space_group_name_Hall           '-P 1'
loop_
_symmetry_equiv_pos_site_id
_symmetry_equiv_pos_as_xyz
1 x,y,z
2 -x,-y,-z
_cell_length_a                   6.1880(6)
_cell_length_b                   7.5476(7)
_cell_length_c                   14.6378(14)
_cell_angle_alpha                91.610(2)
_cell_angle_beta                 97.999(2)
_cell_angle_gamma                95.695(2)
_cell_volume                     673.049
_exptl_crystal_colour            colorless
_exptl_crystal_description       block
_chemical_melting_point          '411-413 K'
_cell_formula_units_Z            2
_exptl_crystal_recrystallization_method '95% ethanol'
loop_
_atom_site_label
_atom_site_type_symbol
_atom_site_fract_x
_atom_site_fract_y
_atom_site_fract_z
Cl1 Cl 1.35634(14) 0.19177(12) 0.51723(6)
S1 S 0.51393(11) 0.92889(8) 0.73662(5)
O1 O -0.0045(3) 0.0319(2) 0.86319(14)
H1 H -0.1233 0.0110 0.8302
N1 N 0.6302(3) 0.4951(3) 0.76705(14)
N2 N 0.4879(3) 0.5903(2) 0.80949(13)
N3 N 0.2706(3) 0.7641(3) 0.85390(14)
H2 H 0.2035 0.8567 0.8618
N4 N 0.2248(3) 0.6064(3) 0.89565(14)
C1 C 1.1893(4) 0.3036(4) 0.58016(18)
C2 C 1.0308(5) 0.2069(4) 0.6205(2)
H3 H 1.0171 0.0830 0.6165
C3 C 0.8929(4) 0.2953(3) 0.66695(19)
H4 H 0.7843 0.2303 0.6938
C4 C 0.9129(4) 0.4801(3) 0.67451(16)
C5 C 1.0753(4) 0.5738(3) 0.63276(17)
H5 H 1.0900 0.6977 0.6364
C6 C 1.2141(4) 0.4863(4) 0.58631(18)
H6 H 1.3234 0.5501 0.5594
C7 C 0.7669(4) 0.5773(3) 0.72240(17)
H7 H 0.7743 0.7008 0.7201
C8 C 0.4281(4) 0.7615(3) 0.80015(16)
C9 C 0.3582(4) 0.5026(3) 0.86723(16)
C10 C 0.3824(4) 0.3163(3) 0.89429(18)
H8 H 0.5326 0.3089 0.9223
H9 H 0.3541 0.2383 0.8392
C11 C 0.2277(4) 0.2507(3) 0.96198(17)
H10 H 0.2869 0.1518 0.9943
H11 H 0.2239 0.3458 1.0075
C12 C -0.0036(4) 0.1913(3) 0.91758(18)
H12 H -0.0975 0.1702 0.9648
H13 H -0.0595 0.2836 0.8789
loop_
_geom_bond_atom_site_label_1
_geom_bond_atom_site_label_2
_geom_bond_site_symmetry_1
_geom_bond_site_symmetry_2
Cl1 C1 1_555 1_555
S1 C8 1_555 1_555
O1 H1 1_555 1_555
N1 N2 1_555 1_555
N2 C8 1_555 1_555
N3 H2 1_555 1_555
N4 N3 1_555 1_555
C1 C2 1_555 1_555
C2 H3 1_555 1_555
C3 C2 1_555 1_555
H4 C3 1_555 1_555
C4 C3 1_555 1_555
C5 C4 1_555 1_555
H5 C5 1_555 1_555
C6 C1 1_555 1_555
H6 C6 1_555 1_555
C7 N1 1_555 1_555
H7 C7 1_555 1_555
C8 N3 1_555 1_555
C9 N2 1_555 1_555
C10 C9 1_555 1_555
H8 C10 1_555 1_555
H9 C10 1_555 1_555
C11 C10 1_555 1_555
H10 C11 1_555 1_555
H11 C11 1_555 1_555
C12 O1 1_555 1_555
H12 C12 1_555 1_555
H13 C12 1_555 1_555
N4 C9 1_555 1_555
C4 C7 1_555 1_555
C5 C6 1_555 1_555
C11 C12 1_555 1_555

#END
